# Generated by pormake.
# Topology son, (6)-cn, num edge types: 1
# Building blocks:
#     Node 0, Type 0, BuildingBlock: KUMBUR_clean_sbu_1, # of connection points: 6
#     Node 1, Type 0, BuildingBlock: KUMBUR_clean_sbu_1, # of connection points: 6
#     Node 2, Type 0, BuildingBlock: KUMBUR_clean_sbu_1, # of connection points: 6
#     Node 3, Type 0, BuildingBlock: KUMBUR_clean_sbu_1, # of connection points: 6
#     Node 4, Type 0, BuildingBlock: KUMBUR_clean_sbu_1, # of connection points: 6
#     Node 5, Type 0, BuildingBlock: KUMBUR_clean_sbu_1, # of connection points: 6
#     Node 6, Type 0, BuildingBlock: KUMBUR_clean_sbu_1, # of connection points: 6
#     Node 7, Type 0, BuildingBlock: KUMBUR_clean_sbu_1, # of connection points: 6
#     Node 8, Type 0, BuildingBlock: KUMBUR_clean_sbu_1, # of connection points: 6
#     Node 9, Type 0, BuildingBlock: KUMBUR_clean_sbu_1, # of connection points: 6
#     Node 10, Type 0, BuildingBlock: KUMBUR_clean_sbu_1, # of connection points: 6
#     Node 11, Type 0, BuildingBlock: KUMBUR_clean_sbu_1, # of connection points: 6
#     Node 12, Type 0, BuildingBlock: KUMBUR_clean_sbu_1, # of connection points: 6
#     Node 13, Type 0, BuildingBlock: KUMBUR_clean_sbu_1, # of connection points: 6
#     Node 14, Type 0, BuildingBlock: KUMBUR_clean_sbu_1, # of connection points: 6
#     Node 15, Type 0, BuildingBlock: KUMBUR_clean_sbu_1, # of connection points: 6
#     Node 16, Type 0, BuildingBlock: KUMBUR_clean_sbu_1, # of connection points: 6
#     Node 17, Type 0, BuildingBlock: KUMBUR_clean_sbu_1, # of connection points: 6
#     Node 18, Type 0, BuildingBlock: KUMBUR_clean_sbu_1, # of connection points: 6
#     Node 19, Type 0, BuildingBlock: KUMBUR_clean_sbu_1, # of connection points: 6
#     Node 20, Type 0, BuildingBlock: KUMBUR_clean_sbu_1, # of connection points: 6
#     Node 21, Type 0, BuildingBlock: KUMBUR_clean_sbu_1, # of connection points: 6
#     Node 22, Type 0, BuildingBlock: KUMBUR_clean_sbu_1, # of connection points: 6
#     Node 23, Type 0, BuildingBlock: KUMBUR_clean_sbu_1, # of connection points: 6
#     Node 24, Type 0, BuildingBlock: KUMBUR_clean_sbu_1, # of connection points: 6
#     Node 25, Type 0, BuildingBlock: KUMBUR_clean_sbu_1, # of connection points: 6
#     Node 26, Type 0, BuildingBlock: KUMBUR_clean_sbu_1, # of connection points: 6
#     Node 27, Type 0, BuildingBlock: KUMBUR_clean_sbu_1, # of connection points: 6
#     Node 28, Type 0, BuildingBlock: KUMBUR_clean_sbu_1, # of connection points: 6
#     Node 29, Type 0, BuildingBlock: KUMBUR_clean_sbu_1, # of connection points: 6
#     Node 30, Type 0, BuildingBlock: KUMBUR_clean_sbu_1, # of connection points: 6
#     Node 31, Type 0, BuildingBlock: KUMBUR_clean_sbu_1, # of connection points: 6
#     Edge 32, Type (0, 0), BuildingBlock: OJICUG_clean_linker_0, # of connection points: 2
#     Edge 33, Type (0, 0), BuildingBlock: OJICUG_clean_linker_0, # of connection points: 2
#     Edge 34, Type (0, 0), BuildingBlock: OJICUG_clean_linker_0, # of connection points: 2
#     Edge 35, Type (0, 0), BuildingBlock: OJICUG_clean_linker_0, # of connection points: 2
#     Edge 36, Type (0, 0), BuildingBlock: OJICUG_clean_linker_0, # of connection points: 2
#     Edge 37, Type (0, 0), BuildingBlock: OJICUG_clean_linker_0, # of connection points: 2
#     Edge 38, Type (0, 0), BuildingBlock: OJICUG_clean_linker_0, # of connection points: 2
#     Edge 39, Type (0, 0), BuildingBlock: OJICUG_clean_linker_0, # of connection points: 2
#     Edge 40, Type (0, 0), BuildingBlock: OJICUG_clean_linker_0, # of connection points: 2
#     Edge 41, Type (0, 0), BuildingBlock: OJICUG_clean_linker_0, # of connection points: 2
#     Edge 42, Type (0, 0), BuildingBlock: OJICUG_clean_linker_0, # of connection points: 2
#     Edge 43, Type (0, 0), BuildingBlock: OJICUG_clean_linker_0, # of connection points: 2
#     Edge 44, Type (0, 0), BuildingBlock: OJICUG_clean_linker_0, # of connection points: 2
#     Edge 45, Type (0, 0), BuildingBlock: OJICUG_clean_linker_0, # of connection points: 2
#     Edge 46, Type (0, 0), BuildingBlock: OJICUG_clean_linker_0, # of connection points: 2
#     Edge 47, Type (0, 0), BuildingBlock: OJICUG_clean_linker_0, # of connection points: 2
#     Edge 48, Type (0, 0), BuildingBlock: OJICUG_clean_linker_0, # of connection points: 2
#     Edge 49, Type (0, 0), BuildingBlock: OJICUG_clean_linker_0, # of connection points: 2
#     Edge 50, Type (0, 0), BuildingBlock: OJICUG_clean_linker_0, # of connection points: 2
#     Edge 51, Type (0, 0), BuildingBlock: OJICUG_clean_linker_0, # of connection points: 2
#     Edge 52, Type (0, 0), BuildingBlock: OJICUG_clean_linker_0, # of connection points: 2
#     Edge 53, Type (0, 0), BuildingBlock: OJICUG_clean_linker_0, # of connection points: 2
#     Edge 54, Type (0, 0), BuildingBlock: OJICUG_clean_linker_0, # of connection points: 2
#     Edge 55, Type (0, 0), BuildingBlock: OJICUG_clean_linker_0, # of connection points: 2
#     Edge 56, Type (0, 0), BuildingBlock: OJICUG_clean_linker_0, # of connection points: 2
#     Edge 57, Type (0, 0), BuildingBlock: OJICUG_clean_linker_0, # of connection points: 2
#     Edge 58, Type (0, 0), BuildingBlock: OJICUG_clean_linker_0, # of connection points: 2
#     Edge 59, Type (0, 0), BuildingBlock: OJICUG_clean_linker_0, # of connection points: 2
#     Edge 60, Type (0, 0), BuildingBlock: OJICUG_clean_linker_0, # of connection points: 2
#     Edge 61, Type (0, 0), BuildingBlock: OJICUG_clean_linker_0, # of connection points: 2
#     Edge 62, Type (0, 0), BuildingBlock: OJICUG_clean_linker_0, # of connection points: 2
#     Edge 63, Type (0, 0), BuildingBlock: OJICUG_clean_linker_0, # of connection points: 2
#     Edge 64, Type (0, 0), BuildingBlock: OJICUG_clean_linker_0, # of connection points: 2
#     Edge 65, Type (0, 0), BuildingBlock: OJICUG_clean_linker_0, # of connection points: 2
#     Edge 66, Type (0, 0), BuildingBlock: OJICUG_clean_linker_0, # of connection points: 2
#     Edge 67, Type (0, 0), BuildingBlock: OJICUG_clean_linker_0, # of connection points: 2
#     Edge 68, Type (0, 0), BuildingBlock: OJICUG_clean_linker_0, # of connection points: 2
#     Edge 69, Type (0, 0), BuildingBlock: OJICUG_clean_linker_0, # of connection points: 2
#     Edge 70, Type (0, 0), BuildingBlock: OJICUG_clean_linker_0, # of connection points: 2
#     Edge 71, Type (0, 0), BuildingBlock: OJICUG_clean_linker_0, # of connection points: 2
#     Edge 72, Type (0, 0), BuildingBlock: OJICUG_clean_linker_0, # of connection points: 2
#     Edge 73, Type (0, 0), BuildingBlock: OJICUG_clean_linker_0, # of connection points: 2
#     Edge 74, Type (0, 0), BuildingBlock: OJICUG_clean_linker_0, # of connection points: 2
#     Edge 75, Type (0, 0), BuildingBlock: OJICUG_clean_linker_0, # of connection points: 2
#     Edge 76, Type (0, 0), BuildingBlock: OJICUG_clean_linker_0, # of connection points: 2
#     Edge 77, Type (0, 0), BuildingBlock: OJICUG_clean_linker_0, # of connection points: 2
#     Edge 78, Type (0, 0), BuildingBlock: OJICUG_clean_linker_0, # of connection points: 2
#     Edge 79, Type (0, 0), BuildingBlock: OJICUG_clean_linker_0, # of connection points: 2
#     Edge 80, Type (0, 0), BuildingBlock: OJICUG_clean_linker_0, # of connection points: 2
#     Edge 81, Type (0, 0), BuildingBlock: OJICUG_clean_linker_0, # of connection points: 2
#     Edge 82, Type (0, 0), BuildingBlock: OJICUG_clean_linker_0, # of connection points: 2
#     Edge 83, Type (0, 0), BuildingBlock: OJICUG_clean_linker_0, # of connection points: 2
#     Edge 84, Type (0, 0), BuildingBlock: OJICUG_clean_linker_0, # of connection points: 2
#     Edge 85, Type (0, 0), BuildingBlock: OJICUG_clean_linker_0, # of connection points: 2
#     Edge 86, Type (0, 0), BuildingBlock: OJICUG_clean_linker_0, # of connection points: 2
#     Edge 87, Type (0, 0), BuildingBlock: OJICUG_clean_linker_0, # of connection points: 2
#     Edge 88, Type (0, 0), BuildingBlock: OJICUG_clean_linker_0, # of connection points: 2
#     Edge 89, Type (0, 0), BuildingBlock: OJICUG_clean_linker_0, # of connection points: 2
#     Edge 90, Type (0, 0), BuildingBlock: OJICUG_clean_linker_0, # of connection points: 2
#     Edge 91, Type (0, 0), BuildingBlock: OJICUG_clean_linker_0, # of connection points: 2
#     Edge 92, Type (0, 0), BuildingBlock: OJICUG_clean_linker_0, # of connection points: 2
#     Edge 93, Type (0, 0), BuildingBlock: OJICUG_clean_linker_0, # of connection points: 2
#     Edge 94, Type (0, 0), BuildingBlock: OJICUG_clean_linker_0, # of connection points: 2
#     Edge 95, Type (0, 0), BuildingBlock: OJICUG_clean_linker_0, # of connection points: 2
#     Edge 96, Type (0, 0), BuildingBlock: OJICUG_clean_linker_0, # of connection points: 2
#     Edge 97, Type (0, 0), BuildingBlock: OJICUG_clean_linker_0, # of connection points: 2
#     Edge 98, Type (0, 0), BuildingBlock: OJICUG_clean_linker_0, # of connection points: 2
#     Edge 99, Type (0, 0), BuildingBlock: OJICUG_clean_linker_0, # of connection points: 2
#     Edge 100, Type (0, 0), BuildingBlock: OJICUG_clean_linker_0, # of connection points: 2
#     Edge 101, Type (0, 0), BuildingBlock: OJICUG_clean_linker_0, # of connection points: 2
#     Edge 102, Type (0, 0), BuildingBlock: OJICUG_clean_linker_0, # of connection points: 2
#     Edge 103, Type (0, 0), BuildingBlock: OJICUG_clean_linker_0, # of connection points: 2
#     Edge 104, Type (0, 0), BuildingBlock: OJICUG_clean_linker_0, # of connection points: 2
#     Edge 105, Type (0, 0), BuildingBlock: OJICUG_clean_linker_0, # of connection points: 2
#     Edge 106, Type (0, 0), BuildingBlock: OJICUG_clean_linker_0, # of connection points: 2
#     Edge 107, Type (0, 0), BuildingBlock: OJICUG_clean_linker_0, # of connection points: 2
#     Edge 108, Type (0, 0), BuildingBlock: OJICUG_clean_linker_0, # of connection points: 2
#     Edge 109, Type (0, 0), BuildingBlock: OJICUG_clean_linker_0, # of connection points: 2
#     Edge 110, Type (0, 0), BuildingBlock: OJICUG_clean_linker_0, # of connection points: 2
#     Edge 111, Type (0, 0), BuildingBlock: OJICUG_clean_linker_0, # of connection points: 2
#     Edge 112, Type (0, 0), BuildingBlock: OJICUG_clean_linker_0, # of connection points: 2
#     Edge 113, Type (0, 0), BuildingBlock: OJICUG_clean_linker_0, # of connection points: 2
#     Edge 114, Type (0, 0), BuildingBlock: OJICUG_clean_linker_0, # of connection points: 2
#     Edge 115, Type (0, 0), BuildingBlock: OJICUG_clean_linker_0, # of connection points: 2
#     Edge 116, Type (0, 0), BuildingBlock: OJICUG_clean_linker_0, # of connection points: 2
#     Edge 117, Type (0, 0), BuildingBlock: OJICUG_clean_linker_0, # of connection points: 2
#     Edge 118, Type (0, 0), BuildingBlock: OJICUG_clean_linker_0, # of connection points: 2
#     Edge 119, Type (0, 0), BuildingBlock: OJICUG_clean_linker_0, # of connection points: 2
#     Edge 120, Type (0, 0), BuildingBlock: OJICUG_clean_linker_0, # of connection points: 2
#     Edge 121, Type (0, 0), BuildingBlock: OJICUG_clean_linker_0, # of connection points: 2
#     Edge 122, Type (0, 0), BuildingBlock: OJICUG_clean_linker_0, # of connection points: 2
#     Edge 123, Type (0, 0), BuildingBlock: OJICUG_clean_linker_0, # of connection points: 2
#     Edge 124, Type (0, 0), BuildingBlock: OJICUG_clean_linker_0, # of connection points: 2
#     Edge 125, Type (0, 0), BuildingBlock: OJICUG_clean_linker_0, # of connection points: 2
#     Edge 126, Type (0, 0), BuildingBlock: OJICUG_clean_linker_0, # of connection points: 2
#     Edge 127, Type (0, 0), BuildingBlock: OJICUG_clean_linker_0, # of connection points: 2
# Relax obj value: 0.099
# Max RMSD: 0.190
# Mean RMSD: 0.187
data_MOF--net-son--node1-KUMBUR_clean_sbu_1--edge1-OJICUG_clean_linker_0
_symmetry_space_group_name_H-M    P1
_symmetry_Int_Tables_number       1
_symmetry_cell_setting            triclinic
loop_
_symmetry_equiv_pos_as_xyz
'x, y, z'
_cell_length_a     63.373717
_cell_length_b     38.661489
_cell_length_c     19.856461
_cell_angle_alpha  89.991966
_cell_angle_beta   90.302824
_cell_angle_gamma 89.924989
loop_
_atom_site_label
_atom_site_type_symbol
_atom_site_fract_x
_atom_site_fract_y
_atom_site_fract_z
_atom_type_partial_charge
Tb0 Tb 0.28682 0.21412 0.30898 0.0
C1 C 0.3556 0.30277 0.18147 0.0
N2 N 0.33571 0.31149 0.16217 0.0
C3 C 0.3348 0.3585 0.23665 0.0
C4 C 0.36569 0.32153 0.23231 0.0
C5 C 0.32721 0.3424 0.17946 0.0
C6 C 0.35307 0.34541 0.26677 0.0
C7 C 0.38213 0.25786 0.19164 0.0
C8 C 0.3623 0.26945 0.16903 0.0
C9 C 0.39447 0.27974 0.23225 0.0
C10 C 0.38576 0.31094 0.25542 0.0
Tb11 Tb 0.31364 0.26657 0.16033 0.0
N12 N 0.34751 0.24663 0.14827 0.0
C13 C 0.38759 0.2234 0.17982 0.0
C14 C 0.35334 0.21418 0.12885 0.0
C15 C 0.37356 0.20188 0.14485 0.0
H16 H 0.31163 0.34913 0.16156 0.0
H17 H 0.37788 0.17545 0.13328 0.0
H18 H 0.28582 0.13447 0.24979 0.0
H19 H 0.23352 0.26617 0.4881 0.0
H20 H 0.34245 0.1975 0.1027 0.0
H21 H 0.40222 0.21312 0.19945 0.0
H22 H 0.2658 0.26556 0.42236 0.0
H23 H 0.32542 0.37826 0.26081 0.0
H24 H 0.40959 0.27116 0.25186 0.0
H25 H 0.39399 0.32523 0.29428 0.0
H26 H 0.25925 0.09305 0.20957 0.0
H27 H 0.35663 0.35285 0.31796 0.0
H28 H 0.20299 0.22957 0.45504 0.0
N29 N 0.26344 0.17233 0.27803 0.0
C30 C 0.24308 0.17778 0.29551 0.0
C31 C 0.25427 0.11704 0.23222 0.0
C32 C 0.22726 0.15334 0.27991 0.0
C33 C 0.2694 0.14124 0.25216 0.0
C34 C 0.23296 0.1235 0.24447 0.0
N35 N 0.25475 0.22757 0.35283 0.0
C36 C 0.25273 0.24977 0.40582 0.0
C37 C 0.21919 0.20712 0.3703 0.0
C38 C 0.23877 0.20551 0.33701 0.0
C39 C 0.21725 0.22935 0.42523 0.0
C40 C 0.23429 0.25017 0.44377 0.0
H41 H 0.22128 0.10423 0.23088 0.0
H42 H 0.1943 0.1402 0.29217 0.0
H43 H 0.18752 0.18606 0.37515 0.0
O44 O 0.29497 0.22043 0.41213 0.0
O45 O 0.26919 0.22005 0.20474 0.0
O46 O 0.2802 0.27325 0.17702 0.0
O47 O 0.28818 0.17019 0.37147 0.0
O48 O 0.29085 0.27023 0.33079 0.0
O49 O 0.29644 0.30201 0.23246 0.0
O50 O 0.30553 0.24449 0.06696 0.0
O51 O 0.33134 0.26378 0.2603 0.0
O52 O 0.3217 0.2124 0.30723 0.0
O53 O 0.31239 0.29889 0.0745 0.0
O54 O 0.3064 0.21164 0.14914 0.0
O55 O 0.31059 0.18642 0.25205 0.0
C56 C 0.26797 0.24724 0.16184 0.0
C57 C 0.28457 0.17655 0.49103 0.0
C58 C 0.28587 0.17592 0.61558 0.0
C59 C 0.26786 0.15485 0.61542 0.0
C60 C 0.26649 0.15573 0.49324 0.0
C61 C 0.25854 0.14447 0.55483 0.0
C62 C 0.29467 0.18565 0.55259 0.0
C63 C 0.29304 0.3001 0.29892 0.0
C64 C 0.29353 0.1875 0.42515 0.0
C65 C 0.20679 0.15811 0.30486 0.0
C66 C 0.20288 0.18442 0.35163 0.0
C67 C 0.33469 0.23879 0.30489 0.0
C68 C 0.31803 0.27113 0.96753 0.0
C69 C 0.31859 0.24796 0.85185 0.0
C70 C 0.33613 0.26916 0.83864 0.0
C71 C 0.33569 0.2915 0.9527 0.0
C72 C 0.30946 0.24944 0.91673 0.0
C73 C 0.34451 0.29066 0.88849 0.0
C74 C 0.31182 0.18542 0.18665 0.0
C75 C 0.30762 0.2734 0.03415 0.0
H76 H 0.2609 0.14645 0.66237 0.0
H77 H 0.25855 0.14782 0.44731 0.0
H78 H 0.24497 0.1277 0.55548 0.0
H79 H 0.30853 0.20201 0.55143 0.0
H80 H 0.34321 0.26965 0.7891 0.0
H81 H 0.34253 0.30846 0.99034 0.0
H82 H 0.29577 0.2337 0.92791 0.0
H83 H 0.35778 0.30711 0.8769 0.0
Tb84 Tb 0.96012 0.0024 0.29863 0.0
C85 C 0.87394 0.96221 0.19577 0.0
N86 N 0.89039 0.93983 0.19508 0.0
C87 C 0.86682 0.89272 0.21074 0.0
C88 C 0.8536 0.95117 0.21381 0.0
C89 C 0.88726 0.90521 0.20499 0.0
C90 C 0.85003 0.91563 0.22057 0.0
C91 C 0.86042 0.01903 0.17218 0.0
C92 C 0.8772 0.99552 0.17303 0.0
C93 C 0.84184 0.0107 0.20629 0.0
C94 C 0.8378 0.97614 0.22356 0.0
Tb95 Tb 0.92182 0.96418 0.16877 0.0
N96 N 0.89564 0.00293 0.14194 0.0
C97 C 0.86199 0.04799 0.13059 0.0
C98 C 0.89509 0.02596 0.08932 0.0
C99 C 0.87804 0.04887 0.08263 0.0
H100 H 0.90027 0.88724 0.19985 0.0
H101 H 0.87831 0.06896 0.04468 0.0
H102 H 0.95618 0.08562 0.35182 0.0
H103 H 0.03517 0.96292 0.1911 0.0
H104 H 0.90838 0.02864 0.05592 0.0
H105 H 0.85004 0.06789 0.13094 0.0
H106 H 0.00228 0.9524 0.19731 0.0
H107 H 0.86421 0.86565 0.20391 0.0
H108 H 0.83011 0.03022 0.21463 0.0
H109 H 0.82244 0.96891 0.24265 0.0
H110 H 0.97942 0.12883 0.40478 0.0
H111 H 0.83436 0.90567 0.22991 0.0
H112 H 0.07692 0.01719 0.25972 0.0
N113 N 0.98066 0.04955 0.33257 0.0
C114 C 0.00164 0.04388 0.3334 0.0
C115 C 0.98621 0.10503 0.386 0.0
C116 C 0.01765 0.06983 0.36767 0.0
C117 C 0.97294 0.08052 0.35463 0.0
C118 C 0.00795 0.09915 0.39491 0.0
N119 N 0.99431 0.99394 0.26291 0.0
C120 C 0.00793 0.97406 0.22659 0.0
C121 C 0.03738 0.00588 0.25862 0.0
C122 C 0.00774 0.01512 0.2872 0.0
C123 C 0.05524 0.01976 0.2732 0.0
C124 C 0.03328 0.98667 0.23049 0.0
H125 H 0.01745 0.11917 0.41815 0.0
H126 H 0.05129 0.09027 0.38758 0.0
H127 H 0.07316 0.05701 0.32561 0.0
O128 O 0.96571 0.96914 0.38225 0.0
O129 O 0.97049 0.01148 0.19074 0.0
O130 O 0.95633 0.96239 0.14551 0.0
O131 O 0.95219 0.01976 0.39375 0.0
O132 O 0.96231 0.94588 0.28235 0.0
O133 O 0.93028 0.92577 0.24708 0.0
O134 O 0.93566 0.9429 0.08114 0.0
O135 O 0.91189 0.96036 0.27477 0.0
O136 O 0.92521 0.01067 0.31225 0.0
O137 O 0.90335 0.93524 0.10195 0.0
O138 O 0.92945 0.02058 0.15831 0.0
O139 O 0.93883 0.04148 0.2628 0.0
C140 C 0.96883 0.98966 0.13882 0.0
C141 C 0.97013 -0.00078 0.48683 0.0
C142 C 0.97398 0.9902 0.60622 0.0
C143 C 0.98574 0.02096 0.61092 0.0
C144 C 0.98213 0.02944 0.49341 0.0
C145 C 0.98974 0.04045 0.55461 0.0
C146 C 0.9659 0.97953 0.54406 0.0
C147 C 0.94723 0.92258 0.28531 0.0
C148 C 0.95865 0.99219 0.42442 0.0
C149 C 0.04271 0.07031 0.36097 0.0
C150 C 0.05619 0.04421 0.31228 0.0
C151 C 0.91017 0.98717 0.31461 0.0
C152 C 0.90991 0.95741 0.9988 0.0
C153 C 0.91757 -1e-05 0.91462 0.0
C154 C 0.89615 0.00265 0.89766 0.0
C155 C 0.88836 0.95903 0.98101 0.0
C156 C 0.92377 0.98092 0.97034 0.0
C157 C 0.88144 0.98276 0.93253 0.0
C158 C 0.93307 0.04644 0.20065 0.0
C159 C 0.9171 0.93648 0.05569 0.0
H160 H 0.99003 0.03225 0.6587 0.0
H161 H 0.98531 0.0455 0.45237 0.0
H162 H 0.99799 0.0648 0.55835 0.0
H163 H 0.95486 0.95815 0.54131 0.0
H164 H 0.89106 0.01702 0.85367 0.0
H165 H 0.87689 0.94287 1.00614 0.0
H166 H 0.94029 0.98094 0.9853 0.0
H167 H 0.86491 0.98436 0.91931 0.0
Tb168 Tb 0.2824 0.01212 0.98283 0.0
C169 C 0.36844 0.97624 0.0744 0.0
N170 N 0.35325 0.95306 0.05867 0.0
C171 C 0.37658 0.92496 0.98174 0.0
C172 C 0.38838 0.97479 0.0438 0.0
C173 C 0.35738 0.92638 1.01576 0.0
C174 C 0.39241 0.9487 0.99714 0.0
C175 C 0.38027 0.02274 0.14598 0.0
C176 C 0.36423 0.00044 0.12376 0.0
C177 C 0.39919 0.02427 0.1099 0.0
C178 C 0.40338 -1e-05 0.0594 0.0
Tb179 Tb 0.32081 0.96539 0.10052 0.0
N180 N 0.34509 -7e-05 0.15399 0.0
C181 C 0.37712 0.04157 0.2052 0.0
C182 C 0.34272 0.01526 0.21579 0.0
C183 C 0.35863 0.03654 0.24198 0.0
H184 H 0.34517 0.90821 1.00293 0.0
H185 H 0.35634 0.04991 0.28923 0.0
H186 H 0.28632 0.10011 0.96209 0.0
H187 H 0.21001 0.95265 0.05794 0.0
H188 H 0.32808 0.01282 0.24286 0.0
H189 H 0.38914 0.05883 0.22445 0.0
H190 H 0.24348 0.94583 0.05017 0.0
H191 H 0.37921 0.90566 0.94314 0.0
H192 H 0.41066 0.04387 0.12134 0.0
H193 H 0.41818 0.00055 0.03291 0.0
H194 H 0.26191 0.14636 0.92793 0.0
H195 H 0.40744 0.94704 0.97154 0.0
H196 H 0.16757 0.00514 0.98841 0.0
N197 N 0.26238 0.06317 0.98035 0.0
C198 C 0.24143 0.0582 0.98908 0.0
C199 C 0.25556 0.12156 0.94289 0.0
C200 C 0.22485 0.08456 0.95793 0.0
C201 C 0.26955 0.09518 0.96291 0.0
C202 C 0.23373 0.11589 0.93763 0.0
N203 N 0.24995 -0.00182 0.02352 0.0
C204 C 0.23713 0.97113 0.03747 0.0
C205 C 0.20691 0.00325 1.01483 0.0
C206 C 0.23609 0.02252 1.01682 0.0
C207 C 0.189 0.01444 0.99328 0.0
C208 C 0.21145 0.9811 0.03305 0.0
H209 H 0.22375 0.13626 0.91767 0.0
H210 H 0.19101 0.09963 0.92387 0.0
H211 H 0.17024 0.05341 0.94886 0.0
O212 O 0.28933 0.99122 0.8869 0.0
O213 O 0.27266 0.01389 0.0921 0.0
O214 O 0.28724 0.96378 0.13053 0.0
O215 O 0.26681 0.03244 0.89918 0.0
O216 O 0.28041 0.95438 0.97142 0.0
O217 O 0.31086 0.93084 1.01744 0.0
O218 O 0.30583 0.93194 0.16896 0.0
O219 O 0.32764 0.97183 0.99155 0.0
O220 O 0.31656 0.02482 0.96221 0.0
O221 O 0.33946 0.93217 0.16006 0.0
O222 O 0.31342 0.02004 0.12488 0.0
O223 O 0.30595 0.04642 0.02346 0.0
C224 C 0.27452 0.99019 0.1402 0.0
C225 C 0.28747 0.03527 0.80337 0.0
C226 C 0.29555 0.03914 0.68507 0.0
C227 C 0.29934 0.07473 0.69153 0.0
C228 C 0.29237 0.07055 0.81049 0.0
C229 C 0.29805 0.09027 0.75464 0.0
C230 C 0.28978 0.0197 0.7413 0.0
C231 C 0.29462 0.92908 0.97535 0.0
C232 C 0.27782 0.01483 0.85712 0.0
C233 C 0.2 0.07882 0.94675 0.0
C234 C 0.18732 0.04332 0.96838 0.0
C235 C 0.33177 0.00142 0.96175 0.0
C236 C 0.32612 0.92718 0.26896 0.0
C237 C 0.31947 0.95778 0.37424 0.0
C238 C 0.33436 0.93632 0.40604 0.0
C239 C 0.3404 0.90554 0.30255 0.0
C240 C 0.31539 0.95334 0.30525 0.0
C241 C 0.34427 0.90987 0.37092 0.0
C242 C 0.31184 0.04775 0.08656 0.0
C243 C 0.32358 0.92236 0.19591 0.0
H244 H 0.30327 0.09054 0.64851 0.0
H245 H 0.29167 0.08304 0.85838 0.0
H246 H 0.30124 0.11764 0.76021 0.0
H247 H 0.28721 0.99219 0.73822 0.0
H248 H 0.33775 0.93879 0.45917 0.0
H249 H 0.34855 0.88514 0.27571 0.0
H250 H 0.30414 0.97004 0.28037 0.0
H251 H 0.35463 0.89218 0.39728 0.0
Tb252 Tb 0.96178 0.21392 0.97402 0.0
C253 C 0.88778 0.28983 0.12959 0.0
N254 N 0.90727 0.30424 0.13233 0.0
C255 C 0.89171 0.36049 0.13914 0.0
C256 C 0.86954 0.31015 0.1251 0.0
C257 C 0.90955 0.33933 0.13395 0.0
C258 C 0.87158 0.3457 0.13477 0.0
C259 C 0.86638 0.23812 0.13141 0.0
C260 C 0.88614 0.25446 0.1346 0.0
C261 C 0.84855 0.25785 0.1141 0.0
C262 C 0.85006 0.29403 0.11243 0.0
Tb263 Tb 0.9346 0.2661 0.1266 0.0
N264 N 0.90392 0.23648 0.1482 0.0
C265 C 0.86527 0.20314 0.14909 0.0
C266 C 0.90205 0.20547 0.18075 0.0
C267 C 0.88288 0.18754 0.17893 0.0
H268 H 0.9251 0.35085 0.13379 0.0
H269 H 0.88171 0.16189 0.20048 0.0
H270 H 0.96456 0.13576 0.0432 0.0
H271 H 0.01402 0.26413 0.78724 0.0
H272 H 0.91517 0.19427 0.20785 0.0
H273 H 0.85066 0.18892 0.14571 0.0
H274 H 0.98109 0.25991 0.85015 0.0
H275 H 0.89346 0.38817 0.14511 0.0
H276 H 0.83347 0.24577 0.10488 0.0
H277 H 0.83618 0.30919 0.10107 0.0
H278 H 0.99237 0.09787 0.09023 0.0
H279 H 0.8577 0.36171 0.13991 0.0
H280 H 0.04495 0.2286 0.82068 0.0
N281 N 0.98597 0.1729 1.00616 0.0
C282 C 0.00605 0.17772 0.9848 0.0
C283 C 0.99644 0.12007 0.06021 0.0
C284 C 0.02219 0.1537 1.00049 0.0
C285 C 0.98077 0.14289 0.03788 0.0
C286 C 0.01734 0.12552 0.04163 0.0
N287 N 0.99337 0.2257 0.92409 0.0
C288 C 0.99478 0.24653 0.86891 0.0
C289 C 0.02909 0.20587 0.90567 0.0
C290 C 0.00972 0.20441 0.94039 0.0
C291 C 0.03075 0.22814 0.85072 0.0
C292 C 0.0134 0.24822 0.83184 0.0
H293 H 0.0293 0.10683 0.05603 0.0
H294 H 0.05476 0.13924 0.98291 0.0
H295 H 0.06061 0.18434 0.89766 0.0
O296 O 0.9526 0.21788 0.87101 0.0
O297 O 0.97995 0.21834 0.07716 0.0
O298 O 0.96811 0.27085 0.10517 0.0
O299 O 0.96001 0.16865 0.91517 0.0
O300 O 0.96045 0.27117 0.95636 0.0
O301 O 0.94562 0.30323 0.04582 0.0
O302 O 0.94388 0.2472 0.2213 0.0
O303 O 0.91491 0.26429 0.03219 0.0
O304 O 0.9264 0.2159 0.97459 0.0
O305 O 0.93871 0.30169 0.20688 0.0
O306 O 0.94374 0.21141 0.13514 0.0
O307 O 0.93828 0.18674 0.03247 0.0
C308 C 0.98063 0.245 0.12104 0.0
C309 C 0.9619 0.17176 0.79397 0.0
C310 C 0.95991 0.17105 0.66886 0.0
C311 C 0.9758 0.14565 0.66874 0.0
C312 C 0.97792 0.14669 0.79101 0.0
C313 C 0.98452 0.13346 0.72908 0.0
C314 C 0.95241 0.18283 0.73256 0.0
C315 C 0.95374 0.30087 0.9833 0.0
C316 C 0.95409 0.18469 0.86055 0.0
C317 C 0.0422 0.1574 0.97146 0.0
C318 C 0.04555 0.18314 0.92316 0.0
C319 C 0.91208 0.24039 0.98509 0.0
C320 C 0.93611 0.27891 0.3205 0.0
C321 C 0.93586 0.25534 0.43626 0.0
C322 C 0.92482 0.28508 0.45657 0.0
C323 C 0.92534 0.30828 0.34336 0.0
C324 C 0.94176 0.25265 0.36767 0.0
C325 C 0.92 0.31141 0.41097 0.0
C326 C 0.93867 0.18489 0.09782 0.0
C327 C 0.94362 0.27739 0.24981 0.0
H328 H 0.98172 0.13535 0.62177 0.0
H329 H 0.9853 0.13704 0.83662 0.0
H330 H 0.99673 0.11388 0.7278 0.0
H331 H 0.94033 0.20251 0.7345 0.0
H332 H 0.91994 0.28826 0.50833 0.0
H333 H 0.92128 0.32915 0.30923 0.0
H334 H 0.95069 0.23031 0.35108 0.0
H335 H 0.91172 0.33414 0.42822 0.0
Tb336 Tb 0.68201 0.72479 0.87252 0.0
C337 C 0.75672 0.81336 0.74975 0.0
N338 N 0.73588 0.81708 0.76312 0.0
C339 C 0.74312 0.87177 0.8151 0.0
C340 C 0.77156 0.83919 0.76736 0.0
C341 C 0.72889 0.84772 0.78851 0.0
C342 C 0.76467 0.86753 0.80476 0.0
C343 C 0.7819 0.78793 0.67477 0.0
C344 C 0.76243 0.78649 0.70874 0.0
C345 C 0.79713 0.81244 0.69384 0.0
C346 C 0.79219 0.83737 0.74229 0.0
Tb347 Tb 0.71417 0.77197 0.73187 0.0
N348 N 0.74737 0.76313 0.69149 0.0
C349 C 0.78414 0.76823 0.61664 0.0
C350 C 0.75036 0.74208 0.63734 0.0
C351 C 0.76798 0.74603 0.59695 0.0
H352 H 0.71249 0.85437 0.7869 0.0
H353 H 0.76832 0.73328 0.54886 0.0
H354 H 0.66766 0.64819 0.83764 0.0
H355 H 0.63575 0.83327 0.97091 0.0
H356 H 0.73791 0.72564 0.61924 0.0
H357 H 0.79736 0.77221 0.58375 0.0
H358 H 0.66715 0.79542 0.96744 0.0
H359 H 0.73735 0.89378 0.8424 0.0
H360 H 0.81235 0.81332 0.66926 0.0
H361 H 0.80379 0.85684 0.75536 0.0
H362 H 0.64109 0.63283 0.76195 0.0
H363 H 0.77557 0.88737 0.82152 0.0
H364 H 0.60318 0.8164 0.90945 0.0
N365 N 0.65196 0.6948 0.86122 0.0
C366 C 0.6337 0.71299 0.85893 0.0
C367 C 0.6364 0.64999 0.79987 0.0
C368 C 0.61516 0.6987 0.8313 0.0
C369 C 0.6529 0.66219 0.83752 0.0
C370 C 0.61676 0.66645 0.8 0.0
N371 N 0.65332 0.75972 0.89813 0.0
C372 C 0.65332 0.78835 0.93862 0.0
C373 C 0.61601 0.76712 0.87783 0.0
C374 C 0.63445 0.74694 0.87779 0.0
C375 C 0.6169 0.79971 0.90817 0.0
C376 C 0.63533 0.80947 0.94225 0.0
H377 H 0.60405 0.65671 0.76868 0.0
H378 H 0.5828 0.70936 0.80208 0.0
H379 H 0.58354 0.76936 0.84255 0.0
O380 O 0.69346 0.73182 0.96975 0.0
O381 O 0.66592 0.72775 0.77197 0.0
O382 O 0.67891 0.77729 0.72482 0.0
O383 O 0.67604 0.68594 0.94548 0.0
O384 O 0.69353 0.77738 0.88656 0.0
O385 O 0.69081 0.80314 0.78444 0.0
O386 O 0.70496 0.75706 0.63329 0.0
O387 O 0.7308 0.76463 0.83598 0.0
O388 O 0.716 0.71405 0.86767 0.0
O389 O 0.71525 0.8092 0.65559 0.0
O390 O 0.71623 0.7149 0.72082 0.0
O391 O 0.69227 0.68748 0.79152 0.0
C392 C 0.66406 0.75323 0.72796 0.0
C393 C 0.67125 0.71098 0.05441 0.0
C394 C 0.66804 0.74274 0.1606 0.0
C395 C 0.65491 0.71641 0.18481 0.0
C396 C 0.65994 0.68351 0.08226 0.0
C397 C 0.65208 0.6862 0.14734 0.0
C398 C 0.67405 0.7416 0.09252 0.0
C399 C 0.68966 0.8045 0.84992 0.0
C400 C 0.68391 0.70488 0.99338 0.0
C401 C 0.59698 0.71929 0.82583 0.0
C402 C 0.59744 0.75357 0.84887 0.0
C403 C 0.72979 0.73861 0.8812 0.0
C404 C 0.72293 0.78774 0.54564 0.0
C405 C 0.72862 0.77185 0.42632 0.0
C406 C 0.74549 0.79547 0.42527 0.0
C407 C 0.74026 0.81011 0.54209 0.0
C408 C 0.71742 0.76808 0.48775 0.0
C409 C 0.75143 0.81355 0.48286 0.0
C410 C 0.70454 0.68782 0.73693 0.0
C411 C 0.71002 0.78721 0.60821 0.0
H412 H 0.65011 0.71624 0.23708 0.0
H413 H 0.65832 0.65924 0.05545 0.0
H414 H 0.64493 0.66387 0.17066 0.0
H415 H 0.68485 0.76131 0.07477 0.0
H416 H 0.75329 0.80245 0.37929 0.0
H417 H 0.74506 0.82569 0.58481 0.0
H418 H 0.70371 0.75146 0.48927 0.0
H419 H 0.76395 0.83215 0.48105 0.0
Tb420 Tb 0.07133 0.03243 0.86227 0.0
C421 C 0.99448 0.94803 0.70154 0.0
N422 N 0.01535 0.94159 0.70252 0.0
C423 C 0.00908 0.88475 0.65591 0.0
C424 C 0.97813 0.92141 0.67076 0.0
C425 C 0.02257 0.90947 0.68533 0.0
C426 C 0.98747 0.89122 0.64596 0.0
C427 C 0.95914 0.98928 0.77223 0.0
C428 C 0.98866 0.9786 0.7446 0.0
C429 C 0.93995 0.94959 0.72389 0.0
C430 C 0.9531 0.92162 0.67826 0.0
Tb431 Tb 0.03618 0.98895 0.73263 0.0
N432 N 0.00214 0.00082 0.76551 0.0
C433 C 0.94115 0.97525 0.75982 0.0
C434 C 0.98856 0.02277 0.79745 0.0
C435 C 0.96334 0.00964 0.79711 0.0
H436 H 0.03922 0.9037 0.68958 0.0
H437 H 0.96166 0.03478 0.83312 0.0
H438 H 0.09302 0.10009 0.79158 0.0
H439 H 0.10963 0.92226 0.99006 0.0
H440 H 0.99425 0.04611 0.82201 0.0
H441 H 0.91953 0.97848 0.77387 0.0
H442 H 0.08227 0.96673 0.97839 0.0
H443 H 0.01559 0.86024 0.63972 0.0
H444 H 0.92286 0.93672 0.71248 0.0
H445 H 0.94432 0.90086 0.65456 0.0
H446 H 0.1241 0.10634 0.72557 0.0
H447 H 0.97775 0.87104 0.62417 0.0
H448 H 0.1417 0.92501 0.91996 0.0
N449 N 0.10324 0.05109 0.82799 0.0
C450 C 0.1195 0.02834 0.83383 0.0
C451 C 0.12495 0.08959 0.76767 0.0
C452 C 0.13963 0.03643 0.80883 0.0
C453 C 0.10606 0.08252 0.79859 0.0
C454 C 0.14233 0.06789 0.77605 0.0
N455 N 0.09677 0.99175 0.89425 0.0
C456 C 0.09571 0.9678 0.94545 0.0
C457 C 0.13255 0.9732 0.87279 0.0
C458 C 0.1159 -0.00284 0.86547 0.0
C459 C 0.12954 0.94448 0.91413 0.0
C460 C 0.11143 0.9427 0.95332 0.0
H461 H 0.15684 0.07321 0.74965 0.0
H462 H 0.17094 0.01676 0.78882 0.0
H463 H 0.16438 0.96048 0.84325 0.0
O464 O 0.05987 0.05607 0.95057 0.0
O465 O 0.08069 0.03063 0.75436 0.0
O466 O 0.07059 0.97736 0.72645 0.0
O467 O 0.09163 0.0632 0.92161 0.0
O468 O 0.0612 0.97835 0.88314 0.0
O469 O 0.05808 0.95355 0.77966 0.0
O470 O 0.03311 0.01937 0.64435 0.0
O471 O 0.02282 0.98504 0.83923 0.0
O472 O 0.03691 0.03376 0.88807 0.0
O473 O 0.0424 0.9656 0.64112 0.0
O474 O 0.03751 0.04596 0.71794 0.0
O475 O 0.05906 0.07427 0.79457 0.0
C476 C 0.08475 0.00181 0.72178 0.0
C477 C 0.08674 0.04186 0.02838 0.0
C478 C 0.0792 0.00047 0.11546 0.0
C479 C 0.10072 0.99685 0.13001 0.0
C480 C 0.10845 0.03895 0.04318 0.0
C481 C 0.1154 0.01543 0.09223 0.0
C482 C 0.07268 0.02003 0.06086 0.0
C483 C 0.06011 0.95061 0.84466 0.0
C484 C 0.07895 0.06234 0.97136 0.0
C485 C 0.15571 0.01158 0.81108 0.0
C486 C 0.15199 0.97965 0.84182 0.0
C487 C 0.02369 0.00718 0.89119 0.0
C488 C 0.02673 0.98708 0.54363 0.0
C489 C 0.02266 -0.00087 0.42502 0.0
C490 C 0.01109 0.96833 0.41784 0.0
C491 C 0.01459 0.95704 0.53521 0.0
C492 C 0.03084 0.00816 0.48802 0.0
C493 C 0.00688 0.94762 0.47277 0.0
C494 C 0.04699 0.07438 0.7396 0.0
C495 C 0.03822 0.99314 0.60628 0.0
H496 H 0.10602 0.98229 0.1735 0.0
H497 H 0.11995 0.05396 1.01563 0.0
H498 H 0.13203 0.01269 0.1031 0.0
H499 H 0.05599 0.02079 0.04827 0.0
H500 H 0.00673 0.95845 0.36884 0.0
H501 H 0.01148 0.94005 0.57586 0.0
H502 H 0.04176 0.02963 0.49262 0.0
H503 H 0.99813 0.92379 0.46674 0.0
Tb504 Tb 0.68017 0.02313 0.92425 0.0
C505 C 0.75833 0.9397 0.06701 0.0
N506 N 0.73739 0.93564 0.07802 0.0
C507 C 0.74414 0.88014 0.12933 0.0
C508 C 0.77496 0.91506 0.10253 0.0
C509 C 0.73015 0.90594 0.10662 0.0
C510 C 0.76609 0.88487 0.12851 0.0
C511 C 0.79282 0.99309 0.03043 0.0
C512 C 0.76373 0.97355 0.03204 0.0
C513 C 0.81248 0.95561 0.08399 0.0
C514 C 0.79981 0.92134 0.11231 0.0
Tb515 Tb 0.7176 0.98574 0.05957 0.0
N516 N 0.74992 0.99685 1.01738 0.0
C517 C 0.81072 0.98332 0.05409 0.0
C518 C 0.76265 0.02321 0.99875 0.0
C519 C 0.78822 0.01406 1.00743 0.0
H520 H 0.7134 0.90187 0.11208 0.0
H521 H 0.78954 0.04103 0.97693 0.0
H522 H 0.66445 0.10101 0.96552 0.0
H523 H 0.63358 0.9248 0.79417 0.0
H524 H 0.75628 0.04756 0.98058 0.0
H525 H 0.83199 0.9932 0.05795 0.0
H526 H 0.6659 0.95927 0.81475 0.0
H527 H 0.73779 0.85656 0.15049 0.0
H528 H 0.82973 0.94576 0.10168 0.0
H529 H 0.80884 0.90152 0.13811 0.0
H530 H 0.63843 0.11395 0.04915 0.0
H531 H 0.77615 0.86467 0.14842 0.0
H532 H 0.60144 0.93663 0.86061 0.0
N533 N 0.6501 0.05289 0.94214 0.0
C534 C 0.63215 0.03418 0.94208 0.0
C535 C 0.63468 0.09463 1.01216 0.0
C536 C 0.61385 0.04622 0.9738 0.0
C537 C 0.65052 0.0851 0.96905 0.0
C538 C 0.61567 0.07617 1.01246 0.0
N539 N 0.65149 0.99123 0.88885 0.0
C540 C 0.65155 0.96584 0.841 0.0
C541 C 0.61432 0.98252 0.90702 0.0
C542 C 0.6328 0.00215 0.91355 0.0
C543 C 0.615 0.95319 0.86609 0.0
C544 C 0.63324 0.94628 0.82907 0.0
H545 H 0.6037 0.08244 0.04883 0.0
H546 H 0.58157 0.0337 0.99998 0.0
H547 H 0.58182 0.97797 0.93897 0.0
O548 O 0.69019 0.02032 0.82464 0.0
O549 O 0.66685 0.02011 0.02698 0.0
O550 O 0.68287 0.9746 0.08107 0.0
O551 O 0.67438 0.06584 0.86055 0.0
O552 O 0.68607 0.9663 0.92106 0.0
O553 O 0.69658 0.94543 0.02605 0.0
O554 O 0.70831 0.01258 0.14814 0.0
O555 O 0.72745 0.97963 0.94886 0.0
O556 O 0.71432 0.03023 0.91348 0.0
O557 O 0.73471 0.97839 0.14894 0.0
O558 O 0.7205 0.04207 0.04681 0.0
O559 O 0.68883 0.06031 1.00587 0.0
C560 C 0.66584 0.9943 0.07038 0.0
C561 C 0.66767 0.0487 0.74828 0.0
C562 C 0.66288 0.02345 0.63737 0.0
C563 C 0.65104 0.05276 0.61823 0.0
C564 C 0.65792 0.07918 0.72654 0.0
C565 C 0.64919 0.08081 0.66223 0.0
C566 C 0.66791 0.01975 0.70564 0.0
C567 C 0.68968 0.94079 0.96431 0.0
C568 C 0.68122 0.04935 0.80831 0.0
C569 C 0.59568 0.02547 0.97381 0.0
C570 C 0.59588 0.99364 0.93975 0.0
C571 C 0.7262 0.00333 0.90019 0.0
C572 C 0.71514 0.97929 0.24674 0.0
C573 C 0.71344 0.97145 0.36983 0.0
C574 C 0.70308 0.93953 0.35695 0.0
C575 C 0.70473 0.9478 0.23759 0.0
C576 C 0.71933 0.99148 0.313 0.0
C577 C 0.69925 0.92769 0.29215 0.0
C578 C 0.70517 0.06485 0.04622 0.0
C579 C 0.7225 -0.00273 0.18572 0.0
H580 H 0.64544 0.05634 0.56725 0.0
H581 H 0.65784 0.10206 0.75802 0.0
H582 H 0.64241 0.10489 0.64466 0.0
H583 H 0.67517 0.99595 0.72262 0.0
H584 H 0.6955 0.92485 0.39609 0.0
H585 H 0.70049 0.93898 0.1878 0.0
H586 H 0.72594 0.01703 0.32008 0.0
H587 H 0.69083 0.90365 0.28432 0.0
Tb588 Tb 0.07069 0.73313 0.92902 0.0
C589 C 0.99511 0.81853 0.09948 0.0
N590 N 0.01653 0.81524 0.09535 0.0
C591 C 0.02124 0.87084 0.14709 0.0
C592 C 0.98601 0.84944 0.12548 0.0
C593 C 0.02947 0.83998 0.1223 0.0
C594 C 0.99951 0.87559 0.14813 0.0
C595 C 0.95622 0.79904 0.08211 0.0
C596 C 0.98259 0.79053 0.08178 0.0
C597 C 0.94943 0.82988 0.10957 0.0
C598 C 0.96404 0.85427 0.13133 0.0
Tb599 Tb 0.03018 0.76338 0.06258 0.0
N600 N 0.99425 0.75857 0.04802 0.0
C601 C 0.93902 0.77287 0.04062 0.0
C602 C 0.986 0.72677 1.00429 0.0
C603 C 0.95988 0.72206 0.9853 0.0
H604 H 0.04632 0.8357 0.12521 0.0
H605 H 0.95504 0.70002 0.95436 0.0
H606 H 0.07774 0.64968 0.97192 0.0
H607 H 0.12903 0.82796 0.85621 0.0
H608 H 0.99656 0.70759 0.98435 0.0
H609 H 0.92227 0.7798 0.04082 0.0
H610 H 0.0938 0.80017 0.85208 0.0
H611 H 0.03165 0.89062 0.16683 0.0
H612 H 0.93274 0.8358 0.11147 0.0
H613 H 0.95796 0.87825 0.15195 0.0
H614 H 0.09574 0.6333 0.07504 0.0
H615 H 0.99314 0.89919 0.16884 0.0
H616 H 0.15776 0.80149 0.92406 0.0
N617 N 0.0961 0.69531 0.96306 0.0
C618 C 0.11516 0.71001 0.97454 0.0
C619 C 0.103 0.65233 0.04289 0.0
C620 C 0.12963 0.69518 0.01987 0.0
C621 C 0.09227 0.66273 0.98562 0.0
C622 C 0.12257 0.66733 0.05859 0.0
N623 N 0.10313 0.75774 0.91344 0.0
C624 C 0.10653 0.78784 0.8793 0.0
C625 C 0.13924 0.75685 0.95203 0.0
C626 C 0.11933 0.74132 0.94487 0.0
C627 C 0.14272 0.78844 0.91957 0.0
C628 C 0.12644 0.80362 0.88176 0.0
H629 H 0.13175 0.6578 0.10087 0.0
H630 H 0.16073 0.69995 0.0648 0.0
H631 H 0.16964 0.75315 1.0021 0.0
O632 O 0.06274 0.7423 0.82877 0.0
O633 O 0.08413 0.77119 0.99926 0.0
O634 O 0.06475 0.75539 0.09009 0.0
O635 O 0.08073 0.69699 0.85656 0.0
O636 O 0.05958 0.78646 0.91407 0.0
O637 O 0.04552 0.80755 1.01431 0.0
O638 O 0.01462 0.74446 0.14708 0.0
O639 O 0.01909 0.7656 0.95185 0.0
O640 O 0.03721 0.71954 0.91225 0.0
O641 O 0.04569 0.76459 0.15761 0.0
O642 O 0.02865 0.70839 0.04058 0.0
O643 O 0.06294 0.70096 0.02048 0.0
C644 C 0.08283 0.76673 0.06442 0.0
C645 C 0.08677 0.72121 0.74849 0.0
C646 C 0.08847 0.74849 0.63872 0.0
C647 C 0.10197 0.7222 0.61661 0.0
C648 C 0.09842 0.69321 0.72373 0.0
C649 C 0.10573 0.69369 0.65784 0.0
C650 C 0.08332 0.75022 0.70704 0.0
C651 C 0.05293 0.81194 0.95299 0.0
C652 C 0.07333 0.71572 0.80741 0.0
C653 C 0.14941 0.71079 0.02955 0.0
C654 C 0.15444 0.74114 0.99407 0.0
C655 C 0.02266 0.74341 0.90125 0.0
C656 C 0.02391 0.76645 0.25473 0.0
C657 C 0.02701 0.76873 0.37731 0.0
C658 C 0.01666 0.80092 0.37654 0.0
C659 C 0.01094 0.79567 0.25778 0.0
C660 C 0.03168 0.75245 0.31549 0.0
C661 C 0.00798 0.81358 0.31734 0.0
C662 C 0.04541 0.68955 0.04767 0.0
C663 C 0.02976 0.75101 0.18915 0.0
H664 H 0.10624 0.72034 0.56397 0.0
H665 H 0.10039 0.66986 0.75327 0.0
H666 H 0.11278 0.67068 0.63679 0.0
H667 H 0.0723 0.77013 0.72277 0.0
H668 H 0.0151 0.81622 0.4218 0.0
H669 H 0.00302 0.805 0.21482 0.0
H670 H 0.04174 0.72977 0.31453 0.0
H671 H 0.99909 0.83743 0.31718 0.0
Tb672 Tb 0.28654 0.72112 0.81997 0.0
C673 C 0.3641 0.78313 0.69481 0.0
N674 N 0.34451 0.79753 0.69915 0.0
C675 C 0.35684 0.83593 0.78354 0.0
C676 C 0.3812 0.79604 0.73299 0.0
C677 C 0.34164 0.82644 0.73702 0.0
C678 C 0.37726 0.82272 0.77863 0.0
C679 C 0.38544 0.73431 0.66007 0.0
C680 C 0.36622 0.75256 0.65953 0.0
C681 C 0.40277 0.74785 0.6958 0.0
C682 C 0.4007 0.7788 0.7318 0.0
Tb683 Tb 0.31728 0.76304 0.66397 0.0
N684 N 0.34846 0.73811 0.63359 0.0
C685 C 0.38608 0.70186 0.62883 0.0
C686 C 0.34954 0.70834 0.59684 0.0
C687 C 0.36836 0.68959 0.59435 0.0
H688 H 0.32727 0.84116 0.73589 0.0
H689 H 0.36895 0.665 0.56837 0.0
H690 H 0.28991 0.63706 0.79981 0.0
H691 H 0.21572 0.79888 0.7217 0.0
H692 H 0.33569 0.69802 0.57215 0.0
H693 H 0.40001 0.68582 0.63136 0.0
H694 H 0.25683 0.7868 0.75649 0.0
H695 H 0.35222 0.85242 0.82481 0.0
H696 H 0.41752 0.73388 0.69896 0.0
H697 H 0.41388 0.78804 0.76175 0.0
H698 H 0.27005 0.5854 0.82921 0.0
H699 H 0.38932 0.83132 0.81369 0.0
H700 H 0.17887 0.72816 0.81865 0.0
N701 N 0.26667 0.67269 0.83495 0.0
C702 C 0.24753 0.67661 0.86521 0.0
C703 C 0.2635 0.61075 0.83931 0.0
C704 C 0.2358 0.64667 0.88466 0.0
C705 C 0.27452 0.64046 0.8212 0.0
C706 C 0.24447 0.61387 0.87315 0.0
N707 N 0.25165 0.73814 0.82406 0.0
C708 C 0.24518 0.7696 0.77641 0.0
C709 C 0.21134 0.7058 0.86407 0.0
C710 C 0.23813 0.70935 0.86222 0.0
C711 C 0.19592 0.73247 0.81754 0.0
C712 C 0.21937 0.77739 0.75567 0.0
H713 H 0.23601 0.5906 0.88689 0.0
H714 H 0.20707 0.62557 0.9261 0.0
H715 H 0.18555 0.67588 0.90181 0.0
O716 O 0.28073 0.72471 0.9252 0.0
O717 O 0.27077 0.71853 0.7125 0.0
O718 O 0.28361 0.76921 0.67744 0.0
O719 O 0.30365 0.68869 0.88645 0.0
O720 O 0.2906 0.77702 0.83327 0.0
O721 O 0.30106 0.80267 0.73156 0.0
O722 O 0.30653 0.75023 0.56744 0.0
O723 O 0.33562 0.73334 0.74163 0.0
O724 O 0.31743 0.74832 0.83477 0.0
O725 O 0.32174 0.79927 0.58517 0.0
O726 O 0.30785 0.7086 0.65333 0.0
O727 O 0.30688 0.68705 0.76184 0.0
C728 C 0.27104 0.74322 0.66415 0.0
C729 C 0.29256 0.67906 1.00141 0.0
C730 C 0.296 0.67158 0.12462 0.0
C731 C 0.28432 0.64097 0.12021 0.0
C732 C 0.28168 0.64764 0.99887 0.0
C733 C 0.27787 0.62851 0.05734 0.0
C734 C 0.30103 0.68932 0.06436 0.0
C735 C 0.29507 0.80452 0.79643 0.0
C736 C 0.29516 0.70174 0.94052 0.0
C737 C 0.2149 0.64861 0.90776 0.0
C738 C 0.20248 0.67742 0.89512 0.0
C739 C 0.33545 0.73909 0.80698 0.0
C740 C 0.31897 0.77915 0.4697 0.0
C741 C 0.31805 0.75386 0.3561 0.0
C742 C 0.32759 0.78399 0.33156 0.0
C743 C 0.3277 0.80939 0.44269 0.0
C744 C 0.31352 0.75158 0.42554 0.0
C745 C 0.33159 0.81191 0.374 0.0
C746 C 0.30784 0.68289 0.69659 0.0
C747 C 0.31235 0.77936 0.54111 0.0
H748 H 0.28038 0.62657 0.16522 0.0
H749 H 0.27615 0.63768 0.95215 0.0
H750 H 0.26953 0.60417 0.05385 0.0
H751 H 0.30982 0.71303 0.06761 0.0
H752 H 0.3317 0.78618 0.27892 0.0
H753 H 0.33113 0.83147 0.47449 0.0
H754 H 0.30571 0.72871 0.44468 0.0
H755 H 0.3384 0.83523 0.35369 0.0
Tb756 Tb 0.96175 0.50902 0.8132 0.0
C757 C 0.88385 0.45241 0.70714 0.0
N758 N 0.90262 0.43571 0.71422 0.0
C759 C 0.88895 0.39987 0.79926 0.0
C760 C 0.86642 0.44267 0.74572 0.0
C761 C 0.90451 0.40698 0.75327 0.0
C762 C 0.86959 0.41729 0.79485 0.0
C763 C 0.86379 0.4991 0.6571 0.0
C764 C 0.88301 0.48156 0.66681 0.0
C765 C 0.84603 0.48909 0.69462 0.0
C766 C 0.84744 0.4612 0.73966 0.0
Tb767 Tb 0.93071 0.4636 0.67231 0.0
N768 N 0.90104 0.4925 0.6369 0.0
C769 C 0.86313 0.526 0.61 0.0
C770 C 0.89987 0.51564 0.5849 0.0
C771 C 0.88098 0.53322 0.57154 0.0
H772 H 0.91892 0.39234 0.75516 0.0
H773 H 0.88035 0.55283 0.53267 0.0
H774 H 0.96507 0.59375 0.85172 0.0
H775 H 0.03114 0.45336 0.69656 0.0
H776 H 0.91364 0.52165 0.55528 0.0
H777 H 0.8489 0.5408 0.60173 0.0
H778 H 0.99865 0.44433 0.71625 0.0
H779 H 0.89261 0.38251 0.84028 0.0
H780 H 0.8313 0.50302 0.6903 0.0
H781 H 0.83393 0.45446 0.77016 0.0
H782 H 0.99154 0.63126 0.90619 0.0
H783 H 0.85765 0.41229 0.83222 0.0
H784 H 0.0766 0.50214 0.75426 0.0
N785 N 0.9854 0.55052 0.84535 0.0
C786 C 0.00537 0.53916 0.84664 0.0
C787 C 0.996 0.60538 0.89097 0.0
C788 C 0.0236 0.56229 0.87701 0.0
C789 C 0.98094 0.5841 0.85945 0.0
C790 C 0.01664 0.59383 0.9034 0.0
N791 N 0.99394 0.48835 0.77999 0.0
C792 C 0.00582 0.46589 0.74288 0.0
C793 C 0.03692 0.49595 0.76306 0.0
C794 C 0.00868 0.50896 0.79877 0.0
C795 C 0.05562 0.50728 0.77324 0.0
C796 C 0.03131 0.47693 0.7367 0.0
H797 H 0.02781 0.6117 0.92575 0.0
H798 H 0.05847 0.57755 0.88849 0.0
H799 H 0.07661 0.5415 0.82182 0.0
O800 O 0.97045 0.48957 0.91032 0.0
O801 O 0.97623 0.51602 0.70659 0.0
O802 O 0.96487 0.46581 0.66058 0.0
O803 O 0.95011 0.53337 0.89969 0.0
O804 O 0.95239 0.45518 0.83352 0.0
O805 O 0.94992 0.42546 0.73397 0.0
O806 O 0.94004 0.45812 0.57252 0.0
O807 O 0.91802 0.47171 0.77541 0.0
O808 O 0.92814 0.52404 0.80973 0.0
O809 O 0.91873 0.42138 0.61519 0.0
O810 O 0.93496 0.52072 0.65668 0.0
O811 O 0.94741 0.54953 0.75305 0.0
C812 C 0.97544 0.49475 0.65285 0.0
C813 C 0.96692 0.52821 1.00768 0.0
C814 C 0.97142 0.5261 0.13325 0.0
C815 C 0.97543 0.56225 0.13012 0.0
C816 C 0.96925 0.5641 1.01124 0.0
C817 C 0.97478 0.58046 0.07026 0.0
C818 C 0.9676 0.50934 0.06966 0.0
C819 C 0.95313 0.42587 0.80044 0.0
C820 C 0.9593 0.51258 0.94242 0.0
C821 C 0.04817 0.55881 0.86448 0.0
C822 C 0.05876 0.53126 0.81255 0.0
C823 C 0.91315 0.50128 0.80395 0.0
C824 C 0.91478 0.43438 0.49784 0.0
C825 C 0.91592 0.45587 0.3826 0.0
C826 C 0.90357 0.42771 0.36158 0.0
C827 C 0.90263 0.40617 0.47644 0.0
C828 C 0.91863 0.46122 0.45207 0.0
C829 C 0.8961 0.40392 0.40904 0.0
C830 C 0.93998 0.54927 0.6908 0.0
C831 C 0.92752 0.43232 0.56049 0.0
H832 H 0.97708 0.57895 0.17277 0.0
H833 H 0.96482 0.58054 0.97031 0.0
H834 H 0.97654 0.60834 0.07076 0.0
H835 H 0.9633 0.48222 0.06906 0.0
H836 H 0.90085 0.42258 0.30874 0.0
H837 H 0.89908 0.38521 0.51075 0.0
H838 H 0.92666 0.48424 0.4694 0.0
H839 H 0.88688 0.38195 0.39244 0.0
Tb840 Tb 0.28611 0.50603 0.4833 0.0
C841 C 0.37127 0.46514 0.57019 0.0
N842 N 0.35494 0.44271 0.56782 0.0
C843 C 0.37276 0.40888 0.48737 0.0
C844 C 0.38999 0.45851 0.53462 0.0
C845 C 0.35665 0.41248 0.53348 0.0
C846 C 0.39059 0.42973 0.49252 0.0
C847 C 0.3864 0.517 0.61644 0.0
C848 C 0.36912 0.49447 0.60872 0.0
C849 C 0.40452 0.51207 0.57684 0.0
C850 C 0.4064 0.4826 0.53651 0.0
Tb851 Tb 0.32382 0.46239 0.6074 0.0
N852 N 0.35073 0.49934 0.64249 0.0
C853 C 0.38524 0.54271 0.6656 0.0
C854 C 0.35081 0.52129 0.69693 0.0
C855 C 0.36787 0.54355 0.70852 0.0
H856 H 0.34441 0.39338 0.53606 0.0
H857 H 0.36731 0.56207 0.74934 0.0
H858 H 0.29104 0.58931 0.43092 0.0
H859 H 0.21142 0.47264 0.60039 0.0
H860 H 0.33728 0.52343 0.72941 0.0
H861 H 0.39814 0.56061 0.67348 0.0
H862 H 0.24351 0.45731 0.58702 0.0
H863 H 0.37053 0.39201 0.44478 0.0
H864 H 0.41719 0.53068 0.57693 0.0
H865 H 0.42042 0.47885 0.5064 0.0
H866 H 0.26833 0.63257 0.3755 0.0
H867 H 0.40383 0.42534 0.45929 0.0
H868 H 0.17069 0.52834 0.531 0.0
N869 N 0.26632 0.5535 0.44824 0.0
C870 C 0.24539 0.54853 0.4485 0.0
C871 C 0.26133 0.60901 0.39447 0.0
C872 C 0.22965 0.57492 0.41403 0.0
C873 C 0.27428 0.58443 0.42692 0.0
C874 C 0.2396 0.60353 0.38514 0.0
N875 N 0.2521 0.49869 0.52087 0.0
C876 C 0.23829 0.47979 0.5586 0.0
C877 C 0.20971 0.51455 0.52998 0.0
C878 C 0.23914 0.52098 0.49768 0.0
C879 C 0.19215 0.52932 0.51613 0.0
C880 C 0.21354 0.49528 0.55888 0.0
H881 H 0.23029 0.62358 0.36105 0.0
H882 H 0.19644 0.59747 0.39631 0.0
H883 H 0.1746 0.56688 0.46288 0.0
O884 O 0.28211 0.47395 0.3968 0.0
O885 O 0.27494 0.51171 0.59136 0.0
O886 O 0.29013 0.46378 0.6399 0.0
O887 O 0.29424 0.52567 0.38986 0.0
O888 O 0.28296 0.44828 0.48265 0.0
O889 O 0.3134 0.42541 0.52713 0.0
O890 O 0.30978 0.43216 0.68355 0.0
O891 O 0.33079 0.46558 0.49857 0.0
O892 O 0.32024 0.51891 0.47478 0.0
O893 O 0.34311 0.43179 0.66942 0.0
O894 O 0.31576 0.51696 0.63112 0.0
O895 O 0.30706 0.54312 0.53042 0.0
C896 C 0.27689 0.49025 0.64391 0.0
C897 C 0.27837 0.50503 0.29228 0.0
C898 C 0.27703 0.49664 0.17159 0.0
C899 C 0.26548 0.52751 0.16509 0.0
C900 C 0.26581 0.53467 0.28417 0.0
C901 C 0.25962 0.54615 0.22121 0.0
C902 C 0.2839 0.48574 0.23528 0.0
C903 C 0.29703 0.42296 0.48572 0.0
C904 C 0.28896 0.49818 0.35679 0.0
C905 C 0.20482 0.5772 0.42311 0.0
C906 C 0.19138 0.5532 0.47509 0.0
C907 C 0.3347 0.49515 0.46906 0.0
C908 C 0.33217 0.43715 0.77813 0.0
C909 C 0.33153 0.48396 0.86012 0.0
C910 C 0.34955 0.46966 0.89016 0.0
C911 C 0.34655 0.41934 0.81875 0.0
C912 C 0.3243 0.46934 0.79965 0.0
C913 C 0.3545 0.43531 0.87623 0.0
C914 C 0.31254 0.54473 0.59388 0.0
C915 C 0.32799 0.42469 0.71013 0.0
H916 H 0.26184 0.53843 0.11625 0.0
H917 H 0.26095 0.54957 0.32578 0.0
H918 H 0.25055 0.56976 0.21594 0.0
H919 H 0.29451 0.46389 0.23992 0.0
H920 H 0.35632 0.48117 0.93508 0.0
H921 H 0.35188 0.39361 0.80542 0.0
H922 H 0.31124 0.4814 0.77307 0.0
H923 H 0.3636 0.4207 0.91198 0.0
Tb924 Tb 0.9687 0.73277 0.46433 0.0
C925 C 0.88647 0.79637 0.58987 0.0
N926 N 0.90685 0.8069 0.59296 0.0
C927 C 0.89594 0.86597 0.58459 0.0
C928 C 0.87012 0.82005 0.57766 0.0
C929 C 0.91184 0.84133 0.59104 0.0
C930 C 0.87498 0.85521 0.57791 0.0
C931 C 0.86147 0.74905 0.58835 0.0
C932 C 0.88196 0.76158 0.59857 0.0
C933 C 0.84548 0.77217 0.56889 0.0
C934 C 0.84958 0.80777 0.56563 0.0
Tb935 Tb 0.93047 0.763 0.60326 0.0
N936 N 0.89799 0.73962 0.61324 0.0
C937 C 0.85802 0.71351 0.59546 0.0
C938 C 0.89407 0.7062 0.63174 0.0
C939 C 0.87405 0.69226 0.62087 0.0
H940 H 0.92811 0.84952 0.59585 0.0
H941 H 0.87116 0.6651 0.63024 0.0
H942 H 0.95374 0.6556 0.41428 0.0
H943 H 0.04275 0.79841 0.57481 0.0
H944 H 0.90661 0.68978 0.65003 0.0
H945 H 0.84302 0.70223 0.58285 0.0
H946 H 0.00142 0.79067 0.53893 0.0
H947 H 0.89992 0.89309 0.58594 0.0
H948 H 0.83003 0.76278 0.55609 0.0
H949 H 0.83693 0.82544 0.55247 0.0
H950 H 0.96935 0.59942 0.39112 0.0
H951 H 0.86252 0.87404 0.5761 0.0
H952 H 0.0764 0.71792 0.49473 0.0
N953 N 0.98316 0.68027 0.43686 0.0
C954 C 0.0046 0.67803 0.43091 0.0
C955 C 0.97948 0.6213 0.40065 0.0
C956 C 0.0142 0.64638 0.40994 0.0
C957 C 0.9707 0.65306 0.41744 0.0
C958 C 0.0012 0.61801 0.39592 0.0
N959 N 0.00461 0.73904 0.47803 0.0
C960 C 0.01232 0.77132 0.52153 0.0
C961 C 0.04311 0.69844 0.45009 0.0
C962 C 0.01675 0.70683 0.4466 0.0
C963 C 0.05969 0.72483 0.49331 0.0
C964 C 0.03824 0.7761 0.54411 0.0
H965 H 0.00781 0.59325 0.38127 0.0
H966 H 0.04262 0.618 0.38625 0.0
H967 H 0.06717 0.66205 0.42388 0.0
O968 O 0.98398 0.75244 0.37934 0.0
O969 O 0.98069 0.72919 0.57449 0.0
O970 O 0.96399 0.77642 0.6144 0.0
O971 O 0.95456 0.72588 0.36898 0.0
O972 O 0.96841 0.78831 0.48497 0.0
O973 O 0.93471 0.79866 0.51628 0.0
O974 O 0.93695 0.74368 0.69904 0.0
O975 O 0.91416 0.73232 0.52526 0.0
O976 O 0.93474 0.74311 0.43349 0.0
O977 O 0.92407 0.7951 0.68591 0.0
O978 O 0.9421 0.70989 0.61475 0.0
O979 O 0.95029 0.69065 0.50832 0.0
C980 C 0.97809 0.75188 0.62508 0.0
C981 C 0.97611 0.72746 0.27259 0.0
C982 C 0.9732 0.72752 0.15018 0.0
C983 C 0.98294 0.69476 0.14891 0.0
C984 C 0.98737 0.69636 0.26899 0.0
C985 C 0.9906 0.67993 0.20781 0.0
C986 C 0.96917 0.74321 0.21267 0.0
C987 C 0.95147 0.80747 0.48159 0.0
C988 C 0.96951 0.74214 0.33753 0.0
C989 C 0.03619 0.64235 0.40384 0.0
C990 C 0.05042 0.66757 0.42422 0.0
C991 C 0.91604 0.73575 0.45988 0.0
C992 C 0.91214 0.76185 0.77771 0.0
C993 C 0.91016 0.74185 0.89115 0.0
C994 C 0.89187 0.76142 0.90163 0.0
C995 C 0.89406 0.78225 0.787 0.0
C996 C 0.91798 0.73791 0.82654 0.0
C997 C 0.88353 0.78091 0.84851 0.0
C998 C 0.94512 0.68501 0.57105 0.0
C999 C 0.92804 0.77015 0.72763 0.0
H1000 H 0.98437 0.68026 0.10256 0.0
H1001 H 0.99304 0.68378 0.31283 0.0
H1002 H 0.99838 0.65503 0.20651 0.0
H1003 H 0.95971 0.76658 0.21492 0.0
H1004 H 0.88579 0.76522 0.95201 0.0
H1005 H 0.88903 0.8008 0.74929 0.0
H1006 H 0.93246 0.72316 0.81994 0.0
H1007 H 0.87063 0.79826 0.85749 0.0
Tb1008 Tb 0.67899 0.22998 0.35121 0.0
C1009 C 0.75373 0.31661 0.18019 0.0
N1010 N 0.73233 0.31387 0.18685 0.0
C1011 C 0.72766 0.37161 0.14407 0.0
C1012 C 0.76283 0.34827 0.15755 0.0
C1013 C 0.71938 0.34026 0.16599 0.0
C1014 C 0.74938 0.37569 0.14022 0.0
C1015 C 0.79271 0.29697 0.19756 0.0
C1016 C 0.76633 0.28828 0.19673 0.0
C1017 C 0.79935 0.32872 0.17393 0.0
C1018 C 0.78476 0.35327 0.15278 0.0
Tb1019 Tb 0.71869 0.26127 0.21623 0.0
N1020 N 0.75471 0.25598 0.22954 0.0
C1021 C 0.80993 0.27046 0.23876 0.0
C1022 C 0.76301 0.22393 0.2727 0.0
C1023 C 0.78909 0.21919 0.29202 0.0
H1024 H 0.70244 0.33691 0.16462 0.0
H1025 H 0.79389 0.19703 0.3228 0.0
H1026 H 0.67118 0.14521 0.32025 0.0
H1027 H 0.62161 0.32871 0.41046 0.0
H1028 H 0.75253 0.20488 0.29327 0.0
H1029 H 0.82661 0.27771 0.24019 0.0
H1030 H 0.6557 0.2981 0.42622 0.0
H1031 H 0.71725 0.39246 0.12886 0.0
H1032 H 0.81584 0.33567 0.17645 0.0
H1033 H 0.79084 0.37791 0.13548 0.0
H1034 H 0.65346 0.12501 0.21991 0.0
H1035 H 0.75563 0.40021 0.12289 0.0
H1036 H 0.5945 0.30413 0.33389 0.0
N1037 N 0.65357 0.19201 0.32034 0.0
C1038 C 0.63492 0.20728 0.30518 0.0
C1039 C 0.64643 0.14593 0.24728 0.0
C1040 C 0.62129 0.19256 0.25779 0.0
C1041 C 0.65704 0.15842 0.30312 0.0
C1042 C 0.62881 0.16392 0.22272 0.0
N1043 N 0.64684 0.25581 0.36372 0.0
C1044 C 0.64339 0.2864 0.39613 0.0
C1045 C 0.61198 0.25688 0.31595 0.0
C1046 C 0.63088 0.23959 0.33102 0.0
C1047 C 0.60874 0.28961 0.34447 0.0
C1048 C 0.62416 0.30378 0.38707 0.0
H1049 H 0.62193 0.15714 0.17491 0.0
H1050 H 0.59194 0.19895 0.20275 0.0
H1051 H 0.58381 0.2553 0.25362 0.0
O1052 O 0.68715 0.23826 0.45153 0.0
O1053 O 0.66532 0.26672 0.27677 0.0
O1054 O 0.68469 0.2478 0.18956 0.0
O1055 O 0.66737 0.19527 0.4238 0.0
O1056 O 0.68932 0.28325 0.36749 0.0
O1057 O 0.70279 0.3042 0.26644 0.0
O1058 O 0.73358 0.24431 0.12885 0.0
O1059 O 0.73031 0.26466 0.32603 0.0
O1060 O 0.71281 0.21831 0.36716 0.0
O1061 O 0.70298 0.26743 0.12279 0.0
O1062 O 0.72129 0.20599 0.2353 0.0
O1063 O 0.68782 0.19423 0.26603 0.0
C1064 C 0.66673 0.26125 0.21185 0.0
C1065 C 0.66017 0.22366 0.52666 0.0
C1066 C 0.65951 0.24794 0.63812 0.0
C1067 C 0.64179 0.22806 0.65391 0.0
C1068 C 0.64284 0.20275 0.54251 0.0
C1069 C 0.63339 0.20577 0.60553 0.0
C1070 C 0.66658 0.24927 0.57195 0.0
C1071 C 0.69569 0.30839 0.32791 0.0
C1072 C 0.67471 0.21397 0.47274 0.0
C1073 C 0.60249 0.20965 0.24046 0.0
C1074 C 0.5978 0.24173 0.26985 0.0
C1075 C 0.72699 0.24285 0.37732 0.0
C1076 C 0.72347 0.2681 0.02344 0.0
C1077 C 0.72049 0.26745 0.9009 0.0
C1078 C 0.72882 0.30117 0.89959 0.0
C1079 C 0.73382 0.29989 0.01928 0.0
C1080 C 0.7169 0.25163 0.96367 0.0
C1081 C 0.73597 0.31675 0.95826 0.0
C1082 C 0.70525 0.18517 0.23452 0.0
C1083 C 0.71814 0.25283 0.08909 0.0
H1084 H 0.63641 0.22603 0.70549 0.0
H1085 H 0.63761 0.18251 0.50861 0.0
H1086 H 0.62136 0.18779 0.61967 0.0
H1087 H 0.68064 0.26435 0.56145 0.0
H1088 H 0.72935 0.31592 0.85337 0.0
H1089 H 0.73969 0.31259 0.06264 0.0
H1090 H 0.70836 0.22739 0.96614 0.0
H1091 H 0.7425 0.34248 0.95708 0.0
Tb1092 Tb 0.07333 0.53085 0.3672 0.0
C1093 C 0.99721 0.43531 0.22841 0.0
N1094 N 0.01843 0.43733 0.22058 0.0
C1095 C 0.01998 0.37654 0.19655 0.0
C1096 C 0.98663 0.4034 0.22368 0.0
C1097 C 0.02987 0.40838 0.20484 0.0
C1098 C 0.99832 0.37425 0.20565 0.0
C1099 C 0.96013 0.4624 0.25981 0.0
C1100 C 0.98629 0.46509 0.24017 0.0
C1101 C 0.9521 0.4277 0.25525 0.0
C1102 C 0.96495 0.40011 0.2364 0.0
Tb1103 Tb 0.03454 0.48988 0.23355 0.0
N1104 N 0.99866 0.50009 0.2419 0.0
C1105 C 0.94661 0.52492 0.28791 0.0
C1106 C 0.99159 0.53875 0.25714 0.0
C1107 C 0.96703 0.55318 0.27966 0.0
H1108 H 0.04674 0.40986 0.19779 0.0
H1109 H 0.96428 0.58048 0.28671 0.0
H1110 H 0.09586 0.59712 0.29037 0.0
H1111 H 0.11319 0.42898 0.51356 0.0
H1112 H 0.00338 0.55868 0.25636 0.0
H1113 H 0.93123 0.53535 0.30246 0.0
H1114 H 0.08317 0.4651 0.48238 0.0
H1115 H 0.02905 0.35382 0.18321 0.0
H1116 H 0.93596 0.42044 0.26461 0.0
H1117 H 0.95765 0.3748 0.23276 0.0
H1118 H 0.12675 0.60248 0.21674 0.0
H1119 H 0.9906 0.34995 0.19753 0.0
H1120 H 0.1457 0.43026 0.44523 0.0
N1121 N 0.1052 0.54822 0.32774 0.0
C1122 C 0.1211 0.52489 0.3333 0.0
C1123 C 0.12618 0.58247 0.25483 0.0
C1124 C 0.14069 0.53051 0.30179 0.0
C1125 C 0.10818 0.57828 0.29353 0.0
C1126 C 0.14324 0.56014 0.26307 0.0
N1127 N 0.09888 0.49141 0.40222 0.0
C1128 C 0.09765 0.46884 0.45555 0.0
C1129 C 0.13474 0.47257 0.38298 0.0
C1130 C 0.11788 0.4957 0.3718 0.0
C1131 C 0.13287 0.4479 0.43381 0.0
C1132 C 0.11465 0.44734 0.47272 0.0
H1133 H 0.15764 0.56467 0.23524 0.0
H1134 H 0.17096 0.50797 0.27766 0.0
H1135 H 0.16523 0.45606 0.34636 0.0
O1136 O 0.05925 0.55523 0.45046 0.0
O1137 O 0.08106 0.52947 0.25821 0.0
O1138 O 0.06885 0.47868 0.21873 0.0
O1139 O 0.09243 0.55831 0.43626 0.0
O1140 O 0.06341 0.47653 0.38332 0.0
O1141 O 0.05813 0.45602 0.27672 0.0
O1142 O 0.0298 0.52168 0.14839 0.0
O1143 O 0.02261 0.488 0.34158 0.0
O1144 O 0.03894 0.53555 0.38497 0.0
O1145 O 0.0392 0.46783 0.14036 0.0
O1146 O 0.03849 0.54639 0.22629 0.0
O1147 O 0.06226 0.57316 0.29848 0.0
C1148 C 0.08416 0.50149 0.22198 0.0
C1149 C 0.08108 0.54292 0.54332 0.0
C1150 C 0.07687 0.4919 0.61518 0.0
C1151 C 0.09619 0.49996 0.64515 0.0
C1152 C 0.09639 0.55521 0.58793 0.0
C1153 C 0.10311 0.534 0.64077 0.0
C1154 C 0.07061 0.51171 0.55891 0.0
C1155 C 0.06123 0.45081 0.34058 0.0
C1156 C 0.07727 0.56093 0.47923 0.0
C1157 C 0.15643 0.50521 0.30552 0.0
C1158 C 0.15326 0.4759 0.34515 0.0
C1159 C 0.02562 0.50976 0.39325 0.0
C1160 C 0.02118 0.49033 0.04999 0.0
C1161 C 0.02387 0.4904 0.93009 0.0
C1162 C 0.01115 0.46059 0.92755 0.0
C1163 C 0.00718 0.46219 0.04737 0.0
C1164 C 0.0285 0.50564 0.99132 0.0
C1165 C 0.00205 0.44747 0.98573 0.0
C1166 C 0.04876 0.57409 0.24695 0.0
C1167 C 0.03408 0.49586 0.1086 0.0
H1168 H 0.10221 0.48439 0.68641 0.0
H1169 H 0.1031 0.58072 0.58143 0.0
H1170 H 0.11282 0.54387 0.68074 0.0
H1171 H 0.05653 0.5043 0.53131 0.0
H1172 H 0.00838 0.44717 0.88066 0.0
H1173 H 0.00159 0.45 0.09283 0.0
H1174 H 0.04002 0.52634 0.9939 0.0
H1175 H 0.99203 0.42484 0.98334 0.0
Tb1176 Tb 0.68053 0.52648 0.42331 0.0
C1177 C 0.75778 0.44824 0.5901 0.0
N1178 N 0.73732 0.439 0.59278 0.0
C1179 C 0.7469 0.38408 0.64211 0.0
C1180 C 0.77571 0.42418 0.62012 0.0
C1181 C 0.7319 0.40646 0.61305 0.0
C1182 C 0.76822 0.3934 0.64832 0.0
C1183 C 0.7902 0.49148 0.50998 0.0
C1184 C 0.76161 0.47864 0.54363 0.0
C1185 C 0.81157 0.45491 0.5582 0.0
C1186 C 0.80043 0.42686 0.6083 0.0
Tb1187 Tb 0.7141 0.48271 0.56271 0.0
N1188 N 0.74699 0.49963 0.52509 0.0
C1189 C 0.80883 0.47933 0.52027 0.0
C1190 C 0.7593 0.52211 0.48931 0.0
C1191 C 0.78489 0.51094 0.48469 0.0
H1192 H 0.71556 0.39842 0.61077 0.0
H1193 H 0.78509 0.53534 0.4463 0.0
H1194 H 0.66686 0.59849 0.50032 0.0
H1195 H 0.63215 0.43014 0.29375 0.0
H1196 H 0.75247 0.54449 0.4644 0.0
H1197 H 0.83005 0.48387 0.50147 0.0
H1198 H 0.66473 0.46317 0.31379 0.0
H1199 H 0.74185 0.3591 0.66063 0.0
H1200 H 0.82928 0.44392 0.56794 0.0
H1201 H 0.81043 0.4076 0.63212 0.0
H1202 H 0.63825 0.61209 0.57379 0.0
H1203 H 0.77918 0.37485 0.66981 0.0
H1204 H 0.59996 0.44344 0.35874 0.0
N1205 N 0.65142 0.55414 0.46016 0.0
C1206 C 0.63298 0.53656 0.45367 0.0
C1207 C 0.63526 0.59451 0.53295 0.0
C1208 C 0.61448 0.54847 0.48492 0.0
C1209 C 0.65235 0.58437 0.49504 0.0
C1210 C 0.61579 0.57788 0.52532 0.0
N1211 N 0.65144 0.49456 0.39138 0.0
C1212 C 0.65082 0.4696 0.34242 0.0
C1213 C 0.61414 0.48698 0.41035 0.0
C1214 C 0.63304 0.50564 0.41882 0.0
C1215 C 0.6141 0.45858 0.36681 0.0
C1216 C 0.63228 0.45088 0.33034 0.0
H1217 H 0.60245 0.58558 0.55571 0.0
H1218 H 0.58211 0.5363 0.50879 0.0
H1219 H 0.58171 0.48248 0.44365 0.0
O1220 O 0.69131 0.53009 0.32504 0.0
O1221 O 0.66892 0.52182 0.5285 0.0
O1222 O 0.67979 0.46998 0.56634 0.0
O1223 O 0.66815 0.56602 0.36034 0.0
O1224 O 0.68671 0.47033 0.41037 0.0
O1225 O 0.69528 0.44378 0.51222 0.0
O1226 O 0.71848 0.51188 0.65281 0.0
O1227 O 0.72731 0.47687 0.45433 0.0
O1228 O 0.7149 0.52712 0.4121 0.0
O1229 O 0.70816 0.45913 0.65574 0.0
O1230 O 0.707 0.53779 0.58007 0.0
O1231 O 0.69801 0.56677 0.48256 0.0
C1232 C 0.66474 0.49315 0.56155 0.0
C1233 C 0.66687 0.54982 0.2449 0.0
C1234 C 0.66517 0.5189 0.13805 0.0
C1235 C 0.65464 0.54733 0.10959 0.0
C1236 C 0.65798 0.57897 0.21412 0.0
C1237 C 0.65204 0.57776 0.14658 0.0
C1238 C 0.66916 0.51901 0.20753 0.0
C1239 C 0.68988 0.44267 0.44827 0.0
C1240 C 0.67838 0.55462 0.30858 0.0
C1241 C 0.59608 0.52851 0.48162 0.0
C1242 C 0.59592 0.49775 0.44461 0.0
C1243 C 0.72602 0.49887 0.40193 0.0
C1244 C 0.72384 0.47969 0.75679 0.0
C1245 C 0.72626 0.48401 0.88099 0.0
C1246 C 0.74087 0.45675 0.87982 0.0
C1247 C 0.73948 0.45436 0.75929 0.0
C1248 C 0.71719 0.49472 0.81851 0.0
C1249 C 0.7478 0.44284 0.81957 0.0
C1250 C 0.70375 0.56674 0.54704 0.0
C1251 C 0.7127 0.4863 0.6916 0.0
H1252 H 0.65078 0.54773 0.05645 0.0
H1253 H 0.65663 0.60316 0.24133 0.0
H1254 H 0.64537 0.60044 0.12264 0.0
H1255 H 0.67835 0.4978 0.22815 0.0
H1256 H 0.74652 0.44498 0.92526 0.0
H1257 H 0.74541 0.44304 0.7148 0.0
H1258 H 0.70449 0.51348 0.81836 0.0
H1259 H 0.7596 0.42273 0.81888 0.0
Tb1260 Tb 0.06384 0.22885 0.41236 0.0
C1261 C 0.991 0.31131 0.54289 0.0
N1262 N 0.01091 0.31905 0.52337 0.0
C1263 C 0.99889 0.37292 0.47739 0.0
C1264 C 0.97418 0.33456 0.53074 0.0
C1265 C 0.01522 0.35053 0.49603 0.0
C1266 C 0.97814 0.3647 0.49398 0.0
C1267 C 0.96929 0.27939 0.62027 0.0
C1268 C 0.98816 0.28253 0.58337 0.0
C1269 C 0.95224 0.30161 0.60682 0.0
C1270 C 0.95453 0.32868 0.5607 0.0
Tb1271 Tb 0.03639 0.28133 0.55729 0.0
N1272 N 0.00495 0.26121 0.59541 0.0
C1273 C 0.96895 0.25676 0.6748 0.0
C1274 C 0.00409 0.23773 0.64666 0.0
C1275 C 0.98663 0.23644 0.6886 0.0
H1276 H 0.03127 0.35913 0.49231 0.0
H1277 H 0.98718 0.22017 0.73259 0.0
H1278 H 0.05995 0.14566 0.42472 0.0
H1279 H 0.12916 0.31614 0.38465 0.0
H1280 H 0.01764 0.22252 0.6609 0.0
H1281 H 0.95548 0.25591 0.70803 0.0
H1282 H 0.09308 0.29643 0.35891 0.0
H1283 H 0.00246 0.39716 0.45317 0.0
H1284 H 0.93751 0.29893 0.63381 0.0
H1285 H 0.94146 0.3463 0.55225 0.0
H1286 H 0.07628 0.11514 0.51961 0.0
H1287 H 0.96562 0.38295 0.48268 0.0
H1288 H 0.15428 0.27577 0.44178 0.0
N1289 N 0.08471 0.1822 0.41897 0.0
C1290 C 0.10525 0.18959 0.43263 0.0
C1291 C 0.08516 0.13449 0.4925 0.0
C1292 C 0.11652 0.16942 0.47872 0.0
C1293 C 0.076 0.1518 0.43881 0.0
C1294 C 0.1045 0.14641 0.51665 0.0
N1295 N 0.09801 0.24621 0.39951 0.0
C1296 C 0.10409 0.27868 0.38159 0.0
C1297 C 0.13316 0.23238 0.43581 0.0
C1298 C 0.11257 0.2223 0.41778 0.0
C1299 C 0.13904 0.2667 0.42487 0.0
C1300 C 0.12471 0.28965 0.39481 0.0
H1301 H 0.10862 0.14115 0.56813 0.0
H1302 H 0.14638 0.16305 0.53169 0.0
H1303 H 0.16184 0.2167 0.48747 0.0
O1304 O 0.05627 0.25067 0.31805 0.0
O1305 O 0.08319 0.23694 0.50802 0.0
O1306 O 0.07129 0.28597 0.56158 0.0
O1307 O 0.06328 0.1963 0.327 0.0
O1308 O 0.05635 0.28394 0.39834 0.0
O1309 O 0.05896 0.31141 0.50031 0.0
O1310 O 0.04153 0.27637 0.66314 0.0
O1311 O 0.0192 0.27372 0.45254 0.0
O1312 O 0.03049 0.22048 0.42703 0.0
O1313 O 0.03352 0.32593 0.61848 0.0
O1314 O 0.04556 0.22773 0.58349 0.0
O1315 O 0.04583 0.19536 0.48596 0.0
C1316 C 0.08566 0.26149 0.55445 0.0
C1317 C 0.06891 0.2232 0.21905 0.0
C1318 C 0.0699 0.2454 0.1026 0.0
C1319 C 0.08702 0.22323 0.09002 0.0
C1320 C 0.08615 0.2017 0.20456 0.0
C1321 C 0.0949 0.20151 0.14029 0.0
C1322 C 0.06064 0.24488 0.16741 0.0
C1323 C 0.06071 0.31121 0.43481 0.0
C1324 C 0.05852 0.22156 0.28591 0.0
C1325 C 0.13741 0.17834 0.49597 0.0
C1326 C 0.14608 0.20926 0.47177 0.0
C1327 C 0.01812 0.24615 0.41062 0.0
C1328 C 0.03815 0.32566 0.74158 0.0
C1329 C 0.04307 0.32285 0.86512 0.0
C1330 C 0.03305 0.35502 0.87076 0.0
C1331 C 0.02852 0.3581 0.74954 0.0
C1332 C 0.04636 0.30881 0.79979 0.0
C1333 C 0.02621 0.3727 0.81336 0.0
C1334 C 0.04571 0.19749 0.55311 0.0
C1335 C 0.03761 0.30892 0.67357 0.0
H1336 H 0.09418 0.22231 0.0406 0.0
H1337 H 0.09267 0.18456 0.24252 0.0
H1338 H 0.10775 0.18411 0.12898 0.0
H1339 H 0.0472 0.26137 0.17779 0.0
H1340 H 0.03054 0.36653 0.91982 0.0
H1341 H 0.0222 0.37192 0.70645 0.0
H1342 H 0.05448 0.28436 0.79447 0.0
H1343 H 0.01855 0.39754 0.81838 0.0
Tb1344 Tb 0.77905 0.23438 0.81486 0.0
C1345 C 0.86184 0.29134 0.72218 0.0
N1346 N 0.8433 0.30337 0.69774 0.0
C1347 C 0.84616 0.35447 0.75927 0.0
C1348 C 0.87289 0.30984 0.77083 0.0
C1349 C 0.83787 0.33718 0.70453 0.0
C1350 C 0.86269 0.33901 0.79634 0.0
C1351 C 0.88665 0.24414 0.73001 0.0
C1352 C 0.86763 0.25818 0.70638 0.0
C1353 C 0.89922 0.26389 0.77431 0.0
C1354 C 0.89184 0.29624 0.79711 0.0
Tb1355 Tb 0.81988 0.26104 0.67915 0.0
N1356 N 0.853 0.23828 0.67556 0.0
C1357 C 0.89111 0.20968 0.71369 0.0
C1358 C 0.85802 0.20611 0.65262 0.0
C1359 C 0.87723 0.19109 0.67198 0.0
H1360 H 0.82348 0.34675 0.68149 0.0
H1361 H 0.88083 0.16472 0.65775 0.0
H1362 H 0.79631 0.16298 0.88202 0.0
H1363 H 0.7033 0.29476 0.70523 0.0
H1364 H 0.84672 0.19144 0.62348 0.0
H1365 H 0.90485 0.1969 0.73426 0.0
H1366 H 0.74484 0.28934 0.73855 0.0
H1367 H 0.83769 0.37684 0.77699 0.0
H1368 H 0.91378 0.25344 0.79471 0.0
H1369 H 0.90067 0.31022 0.83518 0.0
H1370 H 0.78244 0.10733 0.92219 0.0
H1371 H 0.86663 0.3485 0.84588 0.0
H1372 H 0.67185 0.21209 0.7856 0.0
N1373 N 0.76639 0.18186 0.84878 0.0
C1374 C 0.74502 0.17739 0.85078 0.0
C1375 C 0.7718 0.12653 0.90136 0.0
C1376 C 0.73636 0.14588 0.87572 0.0
C1377 C 0.77958 0.15785 0.87752 0.0
C1378 C 0.75022 0.12041 0.8997 0.0
N1379 N 0.74313 0.23786 0.8006 0.0
C1380 C 0.73451 0.26953 0.75721 0.0
C1381 C 0.70585 0.19469 0.82971 0.0
C1382 C 0.73198 0.20485 0.83233 0.0
C1383 C 0.6884 0.22012 0.78729 0.0
C1384 C 0.70843 0.27276 0.73588 0.0
H1385 H 0.74427 0.09617 0.91918 0.0
H1386 H 0.70874 0.11539 0.89893 0.0
H1387 H 0.68298 0.15641 0.85597 0.0
O1388 O 0.76227 0.25291 0.89735 0.0
O1389 O 0.76831 0.23109 0.70377 0.0
O1390 O 0.78681 0.27601 0.66092 0.0
O1391 O 0.79392 0.23474 0.91045 0.0
O1392 O 0.77811 0.28871 0.78788 0.0
O1393 O 0.81235 0.29772 0.76456 0.0
O1394 O 0.81198 0.24555 0.58168 0.0
O1395 O 0.83301 0.22755 0.7595 0.0
O1396 O 0.81281 0.24622 0.84614 0.0
O1397 O 0.83145 0.29064 0.59884 0.0
O1398 O 0.8104 0.20693 0.6705 0.0
O1399 O 0.79429 0.18931 0.77017 0.0
C1400 C 0.77197 0.25254 0.65197 0.0
C1401 C 0.77161 0.23093 1.00515 0.0
C1402 C 0.77615 0.22684 0.12654 0.0
C1403 C 0.76524 0.19519 0.12587 0.0
C1404 C 0.75804 0.20243 1.00819 0.0
C1405 C 0.75557 0.18373 0.0672 0.0
C1406 C 0.78044 0.24352 0.06522 0.0
C1407 C 0.7948 0.30783 0.79443 0.0
C1408 C 0.77731 0.24709 0.94045 0.0
C1409 C 0.71447 0.13975 0.87909 0.0
C1410 C 0.69953 0.16332 0.85591 0.0
C1411 C 0.83133 0.23525 0.82358 0.0
C1412 C 0.8388 0.25621 0.50365 0.0
C1413 C 0.83813 0.23719 0.38915 0.0
C1414 C 0.85823 0.25092 0.37836 0.0
C1415 C 0.85892 0.27057 0.49415 0.0
C1416 C 0.83009 0.2354 0.4539 0.0
C1417 C 0.86894 0.26644 0.43203 0.0
C1418 C 0.80305 0.18317 0.71155 0.0
C1419 C 0.82429 0.26869 0.55509 0.0
H1420 H 0.76353 0.17991 0.17103 0.0
H1421 H 0.74897 0.19479 0.96607 0.0
H1422 H 0.74592 0.16069 0.06746 0.0
H1423 H 0.79094 0.26562 0.06408 0.0
H1424 H 0.86459 0.25288 0.32794 0.0
H1425 H 0.86625 0.2865 0.53255 0.0
H1426 H 0.81435 0.22485 0.46093 0.0
H1427 H 0.8839 0.27848 0.42324 0.0
Tb1428 Tb 0.46497 0.0095 0.79733 0.0
C1429 C 0.37923 0.96995 0.687 0.0
N1430 N 0.39472 0.94682 0.69937 0.0
C1431 C 0.37095 0.91155 0.76021 0.0
C1432 C 0.35868 0.96471 0.71115 0.0
C1433 C 0.39064 0.91663 0.73195 0.0
C1434 C 0.35452 0.93473 0.74796 0.0
C1435 C 0.36791 0.02106 0.62814 0.0
C1436 C 0.38389 -0.00211 0.64673 0.0
C1437 C 0.34845 0.01935 0.66123 0.0
C1438 C 0.34357 0.99063 0.70145 0.0
Tb1439 Tb 0.42751 0.96513 0.67498 0.0
N1440 N 0.40349 -1e-05 0.62014 0.0
C1441 C 0.37165 0.04366 0.57454 0.0
C1442 C 0.40631 0.01816 0.56148 0.0
C1443 C 0.39053 0.04083 0.53862 0.0
H1444 H 0.40314 0.89833 0.74193 0.0
H1445 H 0.39319 0.05684 0.4948 0.0
H1446 H 0.46474 0.09777 0.81776 0.0
H1447 H 0.53476 0.94039 0.72945 0.0
H1448 H 0.42124 0.01705 0.53542 0.0
H1449 H 0.3597 0.06185 0.5581 0.0
H1450 H 0.50135 0.93758 0.73773 0.0
H1451 H 0.37016 0.89451 0.8019 0.0
H1452 H 0.33711 0.03968 0.65449 0.0
H1453 H 0.32818 0.98836 0.72411 0.0
H1454 H 0.49094 0.1411 0.8509 0.0
H1455 H 0.33938 0.93077 0.77187 0.0
H1456 H 0.57937 0.98927 0.79407 0.0
N1457 N 0.48705 0.05804 0.79975 0.0
C1458 C 0.50776 0.05033 0.79197 0.0
C1459 C 0.4963 0.11567 0.83605 0.0
C1460 C 0.52542 0.07519 0.82139 0.0
C1461 C 0.48125 0.09087 0.81677 0.0
C1462 C 0.51787 0.10768 0.8406 0.0
N1463 N 0.4968 0.99094 0.7595 0.0
C1464 C 0.50857 0.96243 0.74715 0.0
C1465 C 0.54 0.99121 0.76898 0.0
C1466 C 0.5116 0.01363 0.76635 0.0
C1467 C 0.55837 0.00078 0.78932 0.0
C1468 C 0.53455 0.96941 0.75211 0.0
H1469 H 0.52867 0.12714 0.85941 0.0
H1470 H 0.55985 0.08698 0.85382 0.0
H1471 H 0.57868 0.03841 0.83072 0.0
O1472 O 0.45737 0.98919 0.89314 0.0
O1473 O 0.47405 0.01672 0.68876 0.0
O1474 O 0.46181 0.9648 0.65531 0.0
O1475 O 0.48109 0.02842 0.8809 0.0
O1476 O 0.46694 0.95195 0.79849 0.0
O1477 O 0.43431 0.93322 0.76489 0.0
O1478 O 0.44544 0.93617 0.60554 0.0
O1479 O 0.41718 0.96927 0.78113 0.0
O1480 O 0.43038 0.02026 0.81924 0.0
O1481 O 0.41229 0.92838 0.61462 0.0
O1482 O 0.4331 0.02123 0.65779 0.0
O1483 O 0.4418 0.04562 0.7605 0.0
C1484 C 0.47271 0.99276 0.64143 0.0
C1485 C 0.46057 0.0332 0.9755 0.0
C1486 C 0.45295 0.0387 0.09304 0.0
C1487 C 0.44983 0.07444 0.08548 0.0
C1488 C 0.45609 0.06856 0.96667 0.0
C1489 C 0.45112 0.08927 0.02181 0.0
C1490 C 0.45849 0.01844 0.03813 0.0
C1491 C 0.45147 0.92918 0.80179 0.0
C1492 C 0.46959 0.01176 0.92278 0.0
C1493 C 0.55 0.06688 0.83228 0.0
C1494 C 0.5612 0.02978 0.81249 0.0
C1495 C 0.41445 -0.00203 0.81595 0.0
C1496 C 0.42498 0.92935 0.50668 0.0
C1497 C 0.42915 0.96614 0.409 0.0
C1498 C 0.41103 0.95126 0.38034 0.0
C1499 C 0.40752 0.91349 0.47589 0.0
C1500 C 0.43629 0.955 0.4719 0.0
C1501 C 0.4007 0.92441 0.41277 0.0
C1502 C 0.43499 0.04812 0.69839 0.0
C1503 C 0.4287 0.9228 0.57818 0.0
H1504 H 0.44637 0.09093 0.12793 0.0
H1505 H 0.45659 0.08029 0.918 0.0
H1506 H 0.44838 0.11672 1.01525 0.0
H1507 H 0.46078 0.99087 0.04265 0.0
H1508 H 0.40557 0.95877 0.33071 0.0
H1509 H 0.39874 0.8935 0.50176 0.0
H1510 H 0.45034 0.96651 0.49358 0.0
H1511 H 0.38761 0.91184 0.38836 0.0
Tb1512 Tb 0.7791 0.01568 0.47111 0.0
C1513 C 0.86304 0.95869 0.56405 0.0
N1514 N 0.8445 0.94311 0.54647 0.0
C1515 C 0.86286 0.90986 0.46272 0.0
C1516 C 0.88183 0.95179 0.52858 0.0
C1517 C 0.84442 0.9183 0.49736 0.0
C1518 C 0.8816 0.92687 0.47785 0.0
C1519 C 0.88146 0.00162 0.63131 0.0
C1520 C 0.86296 0.98325 0.61537 0.0
C1521 C 0.89976 0.99595 0.59339 0.0
C1522 C 0.9001 0.97072 0.54316 0.0
Tb1523 Tb 0.81541 0.96568 0.6001 0.0
N1524 N 0.84453 0.99036 0.64731 0.0
C1525 C 0.88082 0.02583 0.68359 0.0
C1526 C 0.8443 0.01132 0.70272 0.0
C1527 C 0.86238 0.02982 0.72103 0.0
H1528 H 0.83062 0.90408 0.48469 0.0
H1529 H 0.86194 0.04771 0.76293 0.0
H1530 H 0.78768 0.10005 0.48849 0.0
H1531 H 0.7147 0.9092 0.49934 0.0
H1532 H 0.83001 0.01484 0.73144 0.0
H1533 H 0.89447 0.04136 0.69563 0.0
H1534 H 0.75135 0.93857 0.46618 0.0
H1535 H 0.86258 0.89057 0.42369 0.0
H1536 H 0.91364 0.0113 0.6013 0.0
H1537 H 0.91446 0.96656 0.51484 0.0
H1538 H 0.76718 0.15183 0.51162 0.0
H1539 H 0.89572 0.92081 0.44961 0.0
H1540 H 0.67952 0.94814 0.53325 0.0
N1541 N 0.76128 0.06535 0.49302 0.0
C1542 C 0.73995 0.06264 0.49749 0.0
C1543 C 0.75937 0.12699 0.50805 0.0
C1544 C 0.72777 0.09245 0.51165 0.0
C1545 C 0.7709 0.09716 0.49544 0.0
C1546 C 0.73783 0.12447 0.51739 0.0
N1547 N 0.74429 0.99692 0.47709 0.0
C1548 C 0.73906 0.95662 0.47768 0.0
C1549 C 0.70463 0.02739 0.51473 0.0
C1550 C 0.73045 0.03016 0.49145 0.0
C1551 C 0.69415 0.9616 0.52058 0.0
C1552 C 0.71577 0.93713 0.49923 0.0
H1553 H 0.72898 0.14747 0.5298 0.0
H1554 H 0.69727 0.11504 0.52788 0.0
H1555 H 0.67818 0.06497 0.52724 0.0
O1556 O 0.76351 0.02353 0.37764 0.0
O1557 O 0.76737 0.01662 0.57967 0.0
O1558 O 0.78057 0.96485 0.60903 0.0
O1559 O 0.79075 0.05376 0.40724 0.0
O1560 O 0.78482 0.96166 0.43779 0.0
O1561 O 0.80073 0.93031 0.52544 0.0
O1562 O 0.80287 0.95472 0.69353 0.0
O1563 O 0.83069 0.00201 0.52869 0.0
O1564 O 0.81025 0.99525 0.4354 0.0
O1565 O 0.8282 0.92354 0.65537 0.0
O1566 O 0.80797 0.01886 0.63152 0.0
O1567 O 0.80139 0.04679 0.53068 0.0
C1568 C 0.76944 0.99227 0.62658 0.0
C1569 C 0.78007 0.06001 0.29513 0.0
C1570 C 0.79219 0.048 0.1822 0.0
C1571 C 0.79194 0.0836 0.16803 0.0
C1572 C 0.77997 0.09551 0.28053 0.0
C1573 C 0.78593 0.10722 0.21724 0.0
C1574 C 0.7861 0.03612 0.246 0.0
C1575 C 0.79222 0.93242 0.46424 0.0
C1576 C 0.77548 0.05006 0.36415 0.0
C1577 C 0.70601 0.09118 0.52035 0.0
C1578 C 0.69473 0.06065 0.52182 0.0
C1579 C 0.82897 0.00127 0.46282 0.0
C1580 C 0.82539 0.93122 0.77433 0.0
C1581 C 0.82242 0.94944 0.89036 0.0
C1582 C 0.83863 0.92658 0.90848 0.0
C1583 C 0.84204 0.90903 0.79218 0.0
C1584 C 0.81587 0.95192 0.82391 0.0
C1585 C 0.84878 0.90707 0.85916 0.0
C1586 C 0.80512 0.04716 0.59585 0.0
C1587 C 0.81613 0.93012 0.70664 0.0
H1588 H 0.79601 0.09337 0.11878 0.0
H1589 H 0.77561 0.11425 0.31865 0.0
H1590 H 0.78606 0.13463 0.20651 0.0
H1591 H 0.7867 0.00881 0.25817 0.0
H1592 H 0.84338 0.92387 0.96068 0.0
H1593 H 0.84939 0.89257 0.75489 0.0
H1594 H 0.80275 0.96894 0.8118 0.0
H1595 H 0.86145 0.88966 0.87317 0.0
Tb1596 Tb 0.45927 0.21541 0.47676 0.0
C1597 C 0.39027 0.30236 0.60552 0.0
N1598 N 0.41031 0.31221 0.62088 0.0
C1599 C 0.40905 0.35771 0.54271 0.0
C1600 C 0.37893 0.31998 0.5557 0.0
C1601 C 0.418 0.34297 0.59941 0.0
C1602 C 0.39033 0.34363 0.51782 0.0
C1603 C 0.36456 0.25609 0.60095 0.0
C1604 C 0.38439 0.26898 0.62074 0.0
C1605 C 0.35133 0.2766 0.56035 0.0
C1606 C 0.35896 0.308 0.53514 0.0
Tb1607 Tb 0.43327 0.26826 0.62638 0.0
N1608 N 0.39976 0.24727 0.64205 0.0
C1609 C 0.35985 0.22172 0.61588 0.0
C1610 C 0.39458 0.21517 0.66512 0.0
C1611 C 0.37448 0.20167 0.65172 0.0
H1612 H 0.43368 0.35074 0.61386 0.0
H1613 H 0.37067 0.17541 0.66606 0.0
H1614 H 0.46144 0.13689 0.54143 0.0
H1615 H 0.50972 0.27654 0.30104 0.0
H1616 H 0.40591 0.19959 0.69209 0.0
H1617 H 0.3453 0.21046 0.59806 0.0
H1618 H 0.48067 0.27609 0.37941 0.0
H1619 H 0.41786 0.37662 0.51445 0.0
H1620 H 0.33624 0.26691 0.54279 0.0
H1621 H 0.35002 0.32165 0.49682 0.0
H1622 H 0.48877 0.0942 0.57211 0.0
H1623 H 0.38609 0.34776 0.46611 0.0
H1624 H 0.53635 0.22922 0.30349 0.0
N1625 N 0.48305 0.17308 0.50214 0.0
C1626 C 0.5025 0.177 0.47534 0.0
C1627 C 0.49289 0.11728 0.54472 0.0
C1628 C 0.51778 0.15044 0.48042 0.0
C1629 C 0.47766 0.1426 0.53174 0.0
C1630 C 0.51315 0.12117 0.51889 0.0
N1631 N 0.49096 0.23071 0.4318 0.0
C1632 C 0.49287 0.25703 0.38624 0.0
C1633 C 0.52368 0.206 0.39253 0.0
C1634 C 0.5061 0.20572 0.43563 0.0
C1635 C 0.5245 0.23097 0.34222 0.0
C1636 C 0.50942 0.25723 0.34036 0.0
H1637 H 0.52459 0.10055 0.52539 0.0
H1638 H 0.54828 0.13267 0.44585 0.0
H1639 H 0.55271 0.17998 0.36479 0.0
O1640 O 0.45225 0.22232 0.37289 0.0
O1641 O 0.47754 0.22063 0.57977 0.0
O1642 O 0.46669 0.27389 0.60752 0.0
O1643 O 0.45666 0.17152 0.41431 0.0
O1644 O 0.45302 0.27109 0.45513 0.0
O1645 O 0.45097 0.30305 0.55414 0.0
O1646 O 0.44207 0.24781 0.72046 0.0
O1647 O 0.41506 0.26463 0.52731 0.0
O1648 O 0.42446 0.21293 0.4807 0.0
O1649 O 0.4345 0.30187 0.71043 0.0
O1650 O 0.44044 0.21316 0.63833 0.0
O1651 O 0.43617 0.18729 0.5358 0.0
C1652 C 0.47884 0.24772 0.62277 0.0
C1653 C 0.46126 0.17709 0.29477 0.0
C1654 C 0.46 0.17544 0.17 0.0
C1655 C 0.47788 0.15393 0.17108 0.0
C1656 C 0.47918 0.15578 0.29335 0.0
C1657 C 0.48716 0.14396 0.2321 0.0
C1658 C 0.4513 0.18594 0.23279 0.0
C1659 C 0.45267 0.30115 0.487 0.0
C1660 C 0.4524 0.18926 0.36015 0.0
C1661 C 0.53642 0.15276 0.44303 0.0
C1662 C 0.53898 0.17979 0.39713 0.0
C1663 C 0.41132 0.23914 0.48407 0.0
C1664 C 0.42988 0.27526 0.81952 0.0
C1665 C 0.42919 0.25119 0.9348 0.0
C1666 C 0.4129 0.27464 0.95014 0.0
C1667 C 0.41346 0.29787 0.83676 0.0
C1668 C 0.43783 0.25203 0.86905 0.0
C1669 C 0.40523 0.29771 0.90175 0.0
C1670 C 0.435 0.18672 0.60135 0.0
C1671 C 0.4398 0.27706 0.75191 0.0
H1672 H 0.48486 0.14502 0.12452 0.0
H1673 H 0.48701 0.14809 0.3396 0.0
H1674 H 0.50082 0.1272 0.23193 0.0
H1675 H 0.43769 0.20286 0.2335 0.0
H1676 H 0.40631 0.27573 1.00031 0.0
H1677 H 0.40719 0.31614 0.80043 0.0
H1678 H 0.45064 0.23466 0.85626 0.0
H1679 H 0.39299 0.31594 0.9151 0.0
Tb1680 Tb 0.18178 0.7336 0.37181 0.0
C1681 C 0.25722 0.81712 0.2535 0.0
N1682 N 0.23609 0.82126 0.26091 0.0
C1683 C 0.2417 0.87913 0.30025 0.0
C1684 C 0.27146 0.84377 0.27105 0.0
C1685 C 0.22834 0.85318 0.2763 0.0
C1686 C 0.26347 0.87387 0.30027 0.0
C1687 C 0.28423 0.78982 0.18733 0.0
C1688 C 0.26402 0.78899 0.21681 0.0
C1689 C 0.29879 0.81524 0.20704 0.0
C1690 C 0.29265 0.84135 0.25158 0.0
Tb1691 Tb 0.21572 0.7749 0.22995 0.0
N1692 N 0.24951 0.76494 0.19809 0.0
C1693 C 0.28796 0.76868 0.13175 0.0
C1694 C 0.25362 0.743 0.14613 0.0
C1695 C 0.27195 0.74687 0.1089 0.0
H1696 H 0.21205 0.85944 0.26777 0.0
H1697 H 0.2729 0.73454 0.06054 0.0
H1698 H 0.17539 0.65248 0.35111 0.0
H1699 H 0.12867 0.83805 0.43475 0.0
H1700 H 0.24169 0.72545 0.12766 0.0
H1701 H 0.30233 0.77123 0.10299 0.0
H1702 H 0.16257 0.80683 0.44377 0.0
H1703 H 0.23506 0.90353 0.31579 0.0
H1704 H 0.31445 0.81601 0.18536 0.0
H1705 H 0.30379 0.86142 0.2648 0.0
H1706 H 0.15127 0.62688 0.27746 0.0
H1707 H 0.27392 0.8944 0.31663 0.0
H1708 H 0.09784 0.80896 0.38428 0.0
N1709 N 0.15541 0.69515 0.36986 0.0
C1710 C 0.13557 0.7084 0.3679 0.0
C1711 C 0.14484 0.64643 0.30919 0.0
C1712 C 0.11896 0.69 0.33782 0.0
C1713 C 0.15948 0.66265 0.34891 0.0
C1714 C 0.12416 0.65948 0.30432 0.0
N1715 N 0.15074 0.76118 0.39729 0.0
C1716 C 0.14907 0.79386 0.42244 0.0
C1717 C 0.11336 0.75911 0.37689 0.0
C1718 C 0.13304 0.74272 0.38406 0.0
C1719 C 0.11213 0.79439 0.39246 0.0
C1720 C 0.12977 0.81131 0.41903 0.0
H1721 H 0.11286 0.64846 0.26973 0.0
H1722 H 0.0862 0.6923 0.30561 0.0
H1723 H 0.08115 0.75261 0.34145 0.0
O1724 O 0.19033 0.75125 0.46704 0.0
O1725 O 0.1611 0.74802 0.28627 0.0
O1726 O 0.18139 0.77172 0.20155 0.0
O1727 O 0.18085 0.69788 0.45175 0.0
O1728 O 0.19313 0.7867 0.37664 0.0
O1729 O 0.19116 0.80795 0.27147 0.0
O1730 O 0.20902 0.75912 0.13055 0.0
O1731 O 0.23066 0.76926 0.33695 0.0
O1732 O 0.21511 0.71943 0.36766 0.0
O1733 O 0.21927 0.81142 0.15302 0.0
O1734 O 0.21893 0.71792 0.23122 0.0
O1735 O 0.18863 0.69885 0.28271 0.0
C1736 C 0.16303 0.76066 0.22508 0.0
C1737 C 0.1718 0.72505 0.55555 0.0
C1738 C 0.16807 0.75232 0.66555 0.0
C1739 C 0.15519 0.72477 0.68577 0.0
C1740 C 0.16094 0.696 0.57917 0.0
C1741 C 0.15298 0.69585 0.64426 0.0
C1742 C 0.17396 0.75425 0.59759 0.0
C1743 C 0.18767 0.81141 0.33558 0.0
C1744 C 0.18514 0.72211 0.49549 0.0
C1745 C 0.09907 0.7058 0.33033 0.0
C1746 C 0.09624 0.74031 0.3503 0.0
C1747 C 0.22925 0.74322 0.38185 0.0
C1748 C 0.2278 0.78882 0.045 0.0
C1749 C 0.23185 0.77393 0.92566 0.0
C1750 C 0.24951 0.79604 0.92379 0.0
C1751 C 0.24605 0.80922 0.04184 0.0
C1752 C 0.22112 0.77056 0.98726 0.0
C1753 C 0.25698 0.81224 0.98179 0.0
C1754 C 0.20365 0.69499 0.23666 0.0
C1755 C 0.21453 0.78911 0.10585 0.0
H1756 H 0.15056 0.72232 0.738 0.0
H1757 H 0.15989 0.67259 0.54934 0.0
H1758 H 0.14657 0.6722 0.66459 0.0
H1759 H 0.18458 0.77486 0.58274 0.0
H1760 H 0.25681 0.8033 0.87731 0.0
H1761 H 0.2516 0.82362 0.0852 0.0
H1762 H 0.20661 0.75582 0.98886 0.0
H1763 H 0.27055 0.82904 0.97935 0.0
Tb1764 Tb 0.56644 0.03215 0.35424 0.0
C1765 C 0.49109 0.94115 0.23671 0.0
N1766 N 0.51147 0.93146 0.2378 0.0
C1767 C 0.5011 0.87221 0.21752 0.0
C1768 C 0.47299 0.91525 0.21462 0.0
C1769 C 0.51642 0.89705 0.23457 0.0
C1770 C 0.47998 0.88133 0.20495 0.0
C1771 C 0.45914 0.00019 0.26312 0.0
C1772 C 0.48764 0.97829 0.25909 0.0
C1773 C 0.43721 0.96032 0.22851 0.0
C1774 C 0.44819 0.92304 0.20866 0.0
Tb1775 Tb 0.5346 0.97854 0.2343 0.0
N1776 N 0.50257 0.00068 0.26364 0.0
C1777 C 0.44039 0.98985 0.24866 0.0
C1778 C 0.49093 0.02923 0.27806 0.0
C1779 C 0.46483 0.02222 0.27773 0.0
H1780 H 0.53269 0.8889 0.23994 0.0
H1781 H 0.46494 0.05156 0.29908 0.0
H1782 H 0.57917 0.10417 0.27559 0.0
H1783 H 0.61786 0.93899 0.48418 0.0
H1784 H 0.49843 0.05385 0.28918 0.0
H1785 H 0.41925 0.00094 0.24827 0.0
H1786 H 0.58597 0.97572 0.477 0.0
H1787 H 0.50585 0.84546 0.21202 0.0
H1788 H 0.41941 0.95116 0.21502 0.0
H1789 H 0.43797 0.90215 0.19242 0.0
H1790 H 0.60401 0.11209 0.18461 0.0
H1791 H 0.46888 0.8613 0.19076 0.0
H1792 H 0.64609 0.94491 0.39883 0.0
N1793 N 0.59474 0.05906 0.31123 0.0
C1794 C 0.61283 0.04017 0.31275 0.0
C1795 C 0.608 0.09473 0.22507 0.0
C1796 C 0.62969 0.04863 0.27038 0.0
C1797 C 0.59314 0.08848 0.27407 0.0
C1798 C 0.62675 0.07574 0.22478 0.0
N1799 N 0.59598 0.00149 0.38731 0.0
C1800 C 0.59837 0.97903 0.44029 0.0
C1801 C 0.63117 0.98868 0.34994 0.0
C1802 C 0.61322 0.00997 0.35046 0.0
C1803 C 0.6324 0.96171 0.39677 0.0
C1804 C 0.61647 0.95825 0.44484 0.0
H1805 H 0.63789 0.07983 0.18462 0.0
H1806 H 0.65987 0.03157 0.23179 0.0
H1807 H 0.66041 0.97778 0.29783 0.0
O1808 O 0.55131 0.05524 0.43669 0.0
O1809 O 0.57745 0.02496 0.24706 0.0
O1810 O 0.56927 0.97017 0.22375 0.0
O1811 O 0.58325 0.06742 0.4148 0.0
O1812 O 0.561 0.97758 0.3862 0.0
O1813 O 0.55821 0.94809 0.28681 0.0
O1814 O 0.52584 0.99143 0.13301 0.0
O1815 O 0.52201 0.97594 0.34091 0.0
O1816 O 0.53204 0.02983 0.37186 0.0
O1817 O 0.53773 0.94048 0.16264 0.0
O1818 O 0.53857 0.03354 0.19674 0.0
O1819 O 0.54936 0.06822 0.28529 0.0
C1820 C 0.583 0.99523 0.21949 0.0
C1821 C 0.57471 0.06119 0.5275 0.0
C1822 C 0.57229 0.026 0.62795 0.0
C1823 C 0.58888 0.0449 0.65672 0.0
C1824 C 0.59082 0.08058 0.55751 0.0
C1825 C 0.59754 0.07272 0.62239 0.0
C1826 C 0.56511 0.03409 0.56339 0.0
C1827 C 0.56118 0.94838 0.35177 0.0
C1828 C 0.56843 0.06945 0.45869 0.0
C1829 C 0.64707 0.02625 0.26623 0.0
C1830 C 0.64731 0.99553 0.30361 0.0
C1831 C 0.52168 0.00129 0.38611 0.0
C1832 C 0.52783 0.94524 0.04849 0.0
C1833 C 0.53838 0.94742 0.93244 0.0
C1834 C 0.53419 0.91198 0.92562 0.0
C1835 C 0.52338 0.90983 0.0417 0.0
C1836 C 0.53474 0.96421 0.9933 0.0
C1837 C 0.52655 0.89334 0.98031 0.0
C1838 C 0.54246 0.0648 0.22246 0.0
C1839 C 0.53053 0.95986 0.11507 0.0
H1840 H 0.59387 0.04022 0.70822 0.0
H1841 H 0.59791 0.10216 0.53118 0.0
H1842 H 0.60861 0.08932 0.64758 0.0
H1843 H 0.55172 0.02021 0.54258 0.0
H1844 H 0.53642 0.89883 0.87806 0.0
H1845 H 0.51843 0.89461 0.08457 0.0
H1846 H 0.53881 0.99131 0.99911 0.0
H1847 H 0.52364 0.86597 0.97582 0.0
Tb1848 Tb 0.18029 0.03472 0.43151 0.0
C1849 C 0.25679 0.93974 0.54887 0.0
N1850 N 0.23623 0.93143 0.55376 0.0
C1851 C 0.24611 0.87296 0.58553 0.0
C1852 C 0.27475 0.91425 0.57495 0.0
C1853 C 0.23088 0.89778 0.56741 0.0
C1854 C 0.2675 0.88136 0.59191 0.0
C1855 C 0.28926 -0.00285 0.51661 0.0
C1856 C 0.26059 0.97594 0.52146 0.0
C1857 C 0.31079 0.95813 0.55714 0.0
C1858 C 0.29958 0.92171 0.58075 0.0
Tb1859 Tb 0.21382 0.98017 0.55178 0.0
N1860 N 0.24591 -0.00118 0.51579 0.0
C1861 C 0.30786 0.98693 0.53319 0.0
C1862 C 0.25774 0.0268 0.49961 0.0
C1863 C 0.28375 0.01896 0.49993 0.0
H1864 H 0.21444 0.89021 0.5681 0.0
H1865 H 0.28391 0.04767 0.47557 0.0
H1866 H 0.16473 0.10106 0.52479 0.0
H1867 H 0.13309 0.9564 0.25929 0.0
H1868 H 0.25045 0.05148 0.48739 0.0
H1869 H 0.32912 -0.0025 0.53269 0.0
H1870 H 0.1653 0.98787 0.29395 0.0
H1871 H 0.24103 0.84698 0.59766 0.0
H1872 H 0.32845 0.94922 0.57323 0.0
H1873 H 0.30961 0.90132 0.60043 0.0
H1874 H 0.13482 0.11067 0.59782 0.0
H1875 H 0.27851 0.86164 0.60864 0.0
H1876 H 0.1014 0.95807 0.33177 0.0
N1877 N 0.15092 0.05697 0.47785 0.0
C1878 C 0.13306 0.03852 0.46625 0.0
C1879 C 0.13339 0.0921 0.55743 0.0
C1880 C 0.11429 0.04663 0.49991 0.0
C1881 C 0.15076 0.08567 0.51771 0.0
C1882 C 0.11475 0.07329 0.54714 0.0
N1883 N 0.15196 0.00611 0.38579 0.0
C1884 C 0.15139 0.98923 0.32514 0.0
C1885 C 0.11495 0.99463 0.40173 0.0
C1886 C 0.13362 0.01216 0.41904 0.0
C1887 C 0.11521 0.97274 0.34575 0.0
C1888 C 0.13313 0.97158 0.30508 0.0
H1889 H 0.10103 0.07882 0.57761 0.0
H1890 H 0.08166 0.03215 0.51479 0.0
H1891 H 0.08224 0.98657 0.42892 0.0
O1892 O 0.19544 0.06183 0.354 0.0
O1893 O 0.17081 0.02766 0.53917 0.0
O1894 O 0.17922 0.97305 0.56515 0.0
O1895 O 0.16319 0.07174 0.37565 0.0
O1896 O 0.18428 0.97945 0.40147 0.0
O1897 O 0.18904 0.95112 0.50197 0.0
O1898 O 0.22391 0.99495 0.65073 0.0
O1899 O 0.22509 0.97651 0.44337 0.0
O1900 O 0.21419 0.02967 0.40808 0.0
O1901 O 0.20936 0.94489 0.62826 0.0
O1902 O 0.21095 0.03583 0.58614 0.0
O1903 O 0.19665 0.07045 0.50197 0.0
C1904 C 0.16559 -0.00162 0.56847 0.0
C1905 C 0.17246 0.07224 0.26258 0.0
C1906 C 0.17592 0.04346 0.15482 0.0
C1907 C 0.16038 0.06542 0.12796 0.0
C1908 C 0.15674 0.09372 0.23535 0.0
C1909 C 0.15062 0.0901 0.1683 0.0
C1910 C 0.18194 0.04672 0.22213 0.0
C1911 C 0.18476 0.95077 0.43753 0.0
C1912 C 0.17825 0.07656 0.3335 0.0
C1913 C 0.09611 0.02701 0.48761 0.0
C1914 C 0.09646 0.00096 0.43866 0.0
C1915 C 0.22467 0.00094 0.3958 0.0
C1916 C 0.22058 0.95192 0.74109 0.0
C1917 C 0.2084 0.95679 0.85534 0.0
C1918 C 0.21317 0.92184 0.86666 0.0
C1919 C 0.22557 0.91695 0.75234 0.0
C1920 C 0.21272 0.97203 0.79338 0.0
C1921 C 0.22209 0.90209 0.81534 0.0
C1922 C 0.20546 0.06686 0.56227 0.0
C1923 C 0.21788 0.96469 0.67288 0.0
H1924 H 0.15618 0.06412 0.07505 0.0
H1925 H 0.14925 0.11336 0.26603 0.0
H1926 H 0.13863 0.10691 0.14717 0.0
H1927 H 0.1941 0.02993 0.24217 0.0
H1928 H 0.21057 0.91008 0.91542 0.0
H1929 H 0.23132 0.90085 0.71188 0.0
H1930 H 0.20851 -0.00115 0.78436 0.0
H1931 H 0.22588 0.87511 0.82388 0.0
Tb1932 Tb 0.57076 0.73165 0.4282 0.0
C1933 C 0.49554 0.81722 0.60074 0.0
N1934 N 0.51698 0.81444 0.59556 0.0
C1935 C 0.52122 0.87199 0.63928 0.0
C1936 C 0.48623 0.84847 0.62444 0.0
C1937 C 0.52972 0.84071 0.61795 0.0
C1938 C 0.49948 0.87585 0.64215 0.0
C1939 C 0.45672 0.79736 0.5839 0.0
C1940 C 0.48314 0.78888 0.58448 0.0
C1941 C 0.44977 0.82809 0.61122 0.0
C1942 C 0.46429 0.85272 0.63211 0.0
Tb1943 Tb 0.53094 0.76189 0.56659 0.0
N1944 N 0.49493 0.75671 0.55179 0.0
C1945 C 0.43964 0.77093 0.54252 0.0
C1946 C 0.48676 0.72463 0.50868 0.0
C1947 C 0.46067 0.71977 0.48917 0.0
H1948 H 0.54665 0.83747 0.6205 0.0
H1949 H 0.45591 0.69755 0.4586 0.0
H1950 H 0.58524 0.65148 0.48592 0.0
H1951 H 0.6205 0.83253 0.32689 0.0
H1952 H 0.49739 0.70548 0.489 0.0
H1953 H 0.42288 0.77785 0.54215 0.0
H1954 H 0.58765 0.79852 0.33544 0.0
H1955 H 0.5315 0.89286 0.65477 0.0
H1956 H 0.43305 0.83372 0.61354 0.0
H1957 H 0.45816 0.87651 0.65315 0.0
H1958 H 0.60942 0.64114 0.57979 0.0
H1959 H 0.49287 0.90001 0.65923 0.0
H1960 H 0.65235 0.8144 0.39034 0.0
N1961 N 0.59943 0.70037 0.4641 0.0
C1962 C 0.61789 0.71816 0.46524 0.0
C1963 C 0.61316 0.66059 0.54307 0.0
C1964 C 0.63515 0.70689 0.5044 0.0
C1965 C 0.59859 0.66852 0.49325 0.0
C1966 C 0.63212 0.67872 0.54683 0.0
N1967 N 0.60098 0.76113 0.40198 0.0
C1968 C 0.6016 0.78981 0.36193 0.0
C1969 C 0.63783 0.76798 0.42931 0.0
C1970 C 0.61896 0.74889 0.43064 0.0
C1971 C 0.63825 0.79868 0.39218 0.0
C1972 C 0.62023 0.80911 0.35673 0.0
H1973 H 0.64393 0.67154 0.58391 0.0
H1974 H 0.66721 0.71797 0.53584 0.0
H1975 H 0.66971 0.77136 0.46821 0.0
O1976 O 0.56174 0.7377 0.328 0.0
O1977 O 0.58448 0.76716 0.50336 0.0
O1978 O 0.56507 0.74761 0.59049 0.0
O1979 O 0.58112 0.69439 0.35835 0.0
O1980 O 0.55952 0.78529 0.41533 0.0
O1981 O 0.54773 0.80477 0.51941 0.0
O1982 O 0.51654 0.74198 0.65301 0.0
O1983 O 0.51914 0.76588 0.45678 0.0
O1984 O 0.53685 0.7198 0.41573 0.0
O1985 O 0.54536 0.77039 0.66137 0.0
O1986 O 0.52905 0.70658 0.54745 0.0
O1987 O 0.56206 0.6944 0.51112 0.0
C1988 C 0.58312 0.76063 0.56781 0.0
C1989 C 0.58637 0.71739 0.24897 0.0
C1990 C 0.58879 0.7466 0.14127 0.0
C1991 C 0.6019 0.72013 0.11763 0.0
C1992 C 0.59733 0.68917 0.22223 0.0
C1993 C 0.60487 0.69056 0.15664 0.0
C1994 C 0.5837 0.74744 0.20971 0.0
C1995 C 0.55413 0.81011 0.45753 0.0
C1996 C 0.57307 0.71163 0.30814 0.0
C1997 C 0.65392 0.72605 0.50505 0.0
C1998 C 0.65533 0.75639 0.46677 0.0
C1999 C 0.52251 0.74409 0.40537 0.0
C2000 C 0.52406 0.76808 0.7591 0.0
C2001 C 0.52662 0.76943 0.88184 0.0
C2002 C 0.51585 0.8012 0.88149 0.0
C2003 C 0.51141 0.79768 0.76181 0.0
C2004 C 0.53151 0.75362 0.81985 0.0
C2005 C 0.50767 0.81457 0.82209 0.0
C2006 C 0.54534 0.6861 0.5473 0.0
C2007 C 0.53092 0.75345 0.69404 0.0
H2008 H 0.60627 0.71907 0.06499 0.0
H2009 H 0.59868 0.66516 0.25008 0.0
H2010 H 0.61148 0.6676 0.13398 0.0
H2011 H 0.57315 0.76773 0.22674 0.0
H2012 H 0.51358 0.81558 0.9273 0.0
H2013 H 0.50472 0.80851 0.71797 0.0
H2014 H 0.54171 0.73112 0.81872 0.0
H2015 H 0.49872 0.83841 0.82238 0.0
Tb2016 Tb 0.78552 0.72026 0.32144 0.0
C2017 C 0.86434 0.78197 0.21286 0.0
N2018 N 0.84462 0.79557 0.22067 0.0
C2019 C 0.85788 0.83152 0.31032 0.0
C2020 C 0.88146 0.79247 0.25391 0.0
C2021 C 0.84182 0.8219 0.26582 0.0
C2022 C 0.8779 0.81725 0.3036 0.0
C2023 C 0.8861 0.73672 0.16497 0.0
C2024 C 0.86684 0.75474 0.16852 0.0
C2025 C 0.90332 0.74773 0.20426 0.0
C2026 C 0.90108 0.77585 0.24802 0.0
Tb2027 Tb 0.81784 0.76404 0.16882 0.0
N2028 N 0.84948 0.74283 0.13584 0.0
C2029 C 0.88685 0.70668 0.12578 0.0
C2030 C 0.85089 0.71628 0.09101 0.0
C2031 C 0.8696 0.69749 0.0858 0.0
H2032 H 0.82799 0.83771 0.2659 0.0
H2033 H 0.87035 0.6749 0.05368 0.0
H2034 H 0.79055 0.63578 0.31088 0.0
H2035 H 0.71439 0.79391 0.21847 0.0
H2036 H 0.83718 0.70797 0.0628 0.0
H2037 H 0.90043 0.68992 0.1267 0.0
H2038 H 0.75546 0.78418 0.25713 0.0
H2039 H 0.85501 0.85149 0.34693 0.0
H2040 H 0.91819 0.73397 0.20329 0.0
H2041 H 0.91429 0.78334 0.2797 0.0
H2042 H 0.77095 0.58403 0.33964 0.0
H2043 H 0.89036 0.82534 0.33729 0.0
H2044 H 0.67804 0.7224 0.31478 0.0
N2045 N 0.76636 0.6713 0.34039 0.0
C2046 C 0.74703 0.67492 0.36961 0.0
C2047 C 0.76397 0.60926 0.34784 0.0
C2048 C 0.73557 0.64478 0.38956 0.0
C2049 C 0.7748 0.63911 0.32959 0.0
C2050 C 0.74468 0.61217 0.37994 0.0
N2051 N 0.75047 0.73636 0.32681 0.0
C2052 C 0.74385 0.76696 0.27747 0.0
C2053 C 0.71043 0.70237 0.36429 0.0
C2054 C 0.73717 0.7073 0.36496 0.0
C2055 C 0.69498 0.7276 0.315 0.0
C2056 C 0.71811 0.77307 0.25384 0.0
H2057 H 0.73637 0.58881 0.39391 0.0
H2058 H 0.70681 0.62311 0.42911 0.0
H2059 H 0.68479 0.67196 0.40127 0.0
O2060 O 0.78005 0.72471 0.42643 0.0
O2061 O 0.77046 0.71774 0.21334 0.0
O2062 O 0.7837 0.7683 0.17826 0.0
O2063 O 0.80357 0.68945 0.38876 0.0
O2064 O 0.78876 0.77631 0.33348 0.0
O2065 O 0.80107 0.80313 0.23469 0.0
O2066 O 0.8065 0.75413 0.07213 0.0
O2067 O 0.83471 0.72918 0.24033 0.0
O2068 O 0.81693 0.7459 0.3321 0.0
O2069 O 0.82447 0.80043 0.09106 0.0
O2070 O 0.80982 0.70909 0.15393 0.0
O2071 O 0.80337 0.68458 0.25904 0.0
C2072 C 0.7714 0.74193 0.16429 0.0
C2073 C 0.79252 0.68038 0.50439 0.0
C2074 C 0.79592 0.67436 0.62801 0.0
C2075 C 0.78471 0.64325 0.62478 0.0
C2076 C 0.78198 0.64861 0.50336 0.0
C2077 C 0.77834 0.63001 0.56256 0.0
C2078 C 0.80058 0.69187 0.56708 0.0
C2079 C 0.79397 0.80408 0.29839 0.0
C2080 C 0.79487 0.70256 0.4425 0.0
C2081 C 0.7145 0.64617 0.4109 0.0
C2082 C 0.70174 0.67417 0.39603 0.0
C2083 C 0.83451 0.73375 0.30578 0.0
C2084 C 0.82019 0.78123 0.97442 0.0
C2085 C 0.81791 0.75556 0.86095 0.0
C2086 C 0.82681 0.78584 0.83479 0.0
C2087 C 0.82872 0.81124 0.94592 0.0
C2088 C 0.81432 0.75339 0.93111 0.0
C2089 C 0.83163 0.81364 0.87665 0.0
C2090 C 0.80671 0.68241 0.19405 0.0
C2091 C 0.81399 0.78229 0.04646 0.0
H2092 H 0.78098 0.62915 0.67032 0.0
H2093 H 0.77646 0.63795 0.45744 0.0
H2094 H 0.77013 0.60549 0.56025 0.0
H2095 H 0.80904 0.71593 0.56898 0.0
H2096 H 0.8298 0.7882 0.78134 0.0
H2097 H 0.83255 0.8334 0.97705 0.0
H2098 H 0.80679 0.73052 0.95138 0.0
H2099 H 0.83803 0.83698 0.85511 0.0
Tb2100 Tb 0.46361 0.50985 0.31197 0.0
C2101 C 0.38129 0.46281 0.20014 0.0
N2102 N 0.39857 0.44238 0.20279 0.0
C2103 C 0.38106 0.40238 0.27175 0.0
C2104 C 0.36246 0.45286 0.23137 0.0
C2105 C 0.39783 0.41062 0.23141 0.0
C2106 C 0.36269 0.42255 0.26949 0.0
C2107 C 0.3647 0.51434 0.15754 0.0
C2108 C 0.3828 0.49368 0.16648 0.0
C2109 C 0.34616 0.50598 0.19266 0.0
C2110 C 0.34506 0.47521 0.22973 0.0
Tb2111 Tb 0.42925 0.46658 0.1729 0.0
N2112 N 0.40157 0.50183 0.138 0.0
C2113 C 0.36564 0.54161 0.11152 0.0
C2114 C 0.40173 0.52552 0.08656 0.0
C2115 C 0.3839 0.54605 0.07334 0.0
H2116 H 0.41101 0.39326 0.22791 0.0
H2117 H 0.38447 0.56583 0.03484 0.0
H2118 H 0.46245 0.5941 0.36078 0.0
H2119 H 0.53544 0.46245 0.19527 0.0
H2120 H 0.41581 0.52986 0.05742 0.0
H2121 H 0.35206 0.55801 0.10237 0.0
H2122 H 0.50318 0.45097 0.2144 0.0
H2123 H 0.38358 0.38265 0.30903 0.0
H2124 H 0.33262 0.52291 0.19162 0.0
H2125 H 0.33085 0.46898 0.2571 0.0
H2126 H 0.48757 0.6356 0.40969 0.0
H2127 H 0.34957 0.41635 0.30183 0.0
H2128 H 0.57889 0.51707 0.24907 0.0
N2129 N 0.48546 0.55541 0.34193 0.0
C2130 C 0.50616 0.54801 0.33849 0.0
C2131 C 0.49337 0.6111 0.39091 0.0
C2132 C 0.52336 0.57358 0.36748 0.0
C2133 C 0.47903 0.58745 0.36242 0.0
C2134 C 0.515 0.60364 0.39611 0.0
N2135 N 0.49679 0.49572 0.27461 0.0
C2136 C 0.50952 0.47387 0.23891 0.0
C2137 C 0.53951 0.50698 0.25806 0.0
C2138 C 0.51075 0.51781 0.29252 0.0
C2139 C 0.55774 0.52044 0.26746 0.0
C2140 C 0.53466 0.48696 0.23314 0.0
H2141 H 0.52542 0.62308 0.41717 0.0
H2142 H 0.55754 0.59295 0.37798 0.0
H2143 H 0.57728 0.55775 0.31348 0.0
O2144 O 0.46804 0.48077 0.40253 0.0
O2145 O 0.47644 0.5157 0.20349 0.0
O2146 O 0.46378 0.46553 0.16132 0.0
O2147 O 0.45661 0.5328 0.40471 0.0
O2148 O 0.46101 0.4531 0.32619 0.0
O2149 O 0.44181 0.42522 0.24277 0.0
O2150 O 0.44242 0.45674 0.07862 0.0
O2151 O 0.41861 0.46918 0.27928 0.0
O2152 O 0.42923 0.52138 0.31494 0.0
O2153 O 0.41565 0.42819 0.11049 0.0
O2154 O 0.43601 0.5226 0.15929 0.0
O2155 O 0.44432 0.54856 0.26162 0.0
C2156 C 0.47514 0.4936 0.15136 0.0
C2157 C 0.47244 0.51368 0.50627 0.0
C2158 C 0.47474 0.50999 0.63054 0.0
C2159 C 0.48782 0.53917 0.6296 0.0
C2160 C 0.48702 0.54065 0.50888 0.0
C2161 C 0.49432 0.55368 0.56935 0.0
C2162 C 0.46628 0.49812 0.56803 0.0
C2163 C 0.45241 0.42482 0.301 0.0
C2164 C 0.46159 0.50604 0.44097 0.0
C2165 C 0.54807 0.57282 0.35482 0.0
C2166 C 0.55989 0.54549 0.30494 0.0
C2167 C 0.41452 0.49775 0.31282 0.0
C2168 C 0.41781 0.44091 0.99546 0.0
C2169 C 0.4159 0.47379 0.89114 0.0
C2170 C 0.40441 0.4467 0.86179 0.0
C2171 C 0.40834 0.41275 0.96325 0.0
C2172 C 0.42062 0.47211 0.96012 0.0
C2173 C 0.40197 0.41556 0.89636 0.0
C2174 C 0.4393 0.55015 0.19741 0.0
C2175 C 0.42793 0.43507 0.0609 0.0
H2176 H 0.49258 0.55175 0.67544 0.0
H2177 H 0.4928 0.55222 0.46435 0.0
H2178 H 0.50493 0.57543 0.56875 0.0
H2179 H 0.45438 0.47805 0.56786 0.0
H2180 H 0.40011 0.44751 0.80898 0.0
H2181 H 0.40664 0.3882 0.98899 0.0
H2182 H 0.43045 0.49222 0.98166 0.0
H2183 H 0.39511 0.39344 0.87103 0.0
Tb2184 Tb 0.78657 0.51083 0.98148 0.0
C2185 C 0.87106 0.45917 0.05913 0.0
N2186 N 0.85366 0.43876 0.06227 0.0
C2187 C 0.87215 0.3925 1.00807 0.0
C2188 C 0.88984 0.4468 0.02997 0.0
C2189 C 0.85419 0.40544 0.03969 0.0
C2190 C 0.89013 0.41306 1.00425 0.0
C2191 C 0.88787 0.51401 0.08257 0.0
C2192 C 0.87001 0.49244 0.08574 0.0
C2193 C 0.90547 0.50354 0.04505 0.0
C2194 C 0.90693 0.46944 0.02188 0.0
Tb2195 Tb 0.82453 0.46416 0.10623 0.0
N2196 N 0.85231 0.5024 0.11949 0.0
C2197 C 0.88815 0.54422 0.12116 0.0
C2198 C 0.85409 0.52868 0.16577 0.0
C2199 C 0.87163 0.55058 0.1656 0.0
H2200 H 0.84095 0.38846 0.04756 0.0
H2201 H 0.87245 0.57219 0.20016 0.0
H2202 H 0.80395 0.59015 0.97105 0.0
H2203 H 0.72785 0.47068 0.04941 0.0
H2204 H 0.84216 0.53319 0.20344 0.0
H2205 H 0.90175 0.56116 0.12119 0.0
H2206 H 0.75457 0.45749 0.043 0.0
H2207 H 0.87231 0.36636 0.98849 0.0
H2208 H 0.9188 0.52071 0.03864 0.0
H2209 H 0.92116 0.46106 0.99666 0.0
H2210 H 0.79179 0.64686 0.93314 0.0
H2211 H 0.90392 0.40277 0.98027 0.0
H2212 H 0.67983 0.54086 0.99411 0.0
N2213 N 0.77389 0.56569 0.96131 0.0
C2214 C 0.75329 0.56992 0.94366 0.0
C2215 C 0.78076 0.62556 0.93621 0.0
C2216 C 0.74567 0.60274 0.92124 0.0
C2217 C 0.78744 0.5933 0.9593 0.0
C2218 C 0.75997 0.6301 0.91586 0.0
N2219 N 0.75018 0.50893 0.98696 0.0
C2220 C 0.74085 0.47776 0.03075 0.0
C2221 C 0.71414 0.55427 0.95306 0.0
C2222 C 0.73989 0.54223 0.95297 0.0
C2223 C 0.69601 0.53132 0.99575 0.0
C2224 C 0.7132 0.47766 0.05173 0.0
H2225 H 0.75495 0.65531 0.89794 0.0
H2226 H 0.71921 0.63402 0.88818 0.0
H2227 H 0.69214 0.59305 0.92077 0.0
O2228 O 0.78715 0.47815 0.89603 0.0
O2229 O 0.77389 0.50954 0.08967 0.0
O2230 O 0.79026 0.46114 0.13374 0.0
O2231 O 0.79143 0.53366 0.88895 0.0
O2232 O 0.78546 0.45296 0.97244 0.0
O2233 O 0.81091 0.42493 0.03808 0.0
O2234 O 0.81434 0.43952 0.19521 0.0
O2235 O 0.83117 0.46681 0.99641 0.0
O2236 O 0.82095 0.52088 0.97233 0.0
O2237 O 0.84657 0.43783 0.16757 0.0
O2238 O 0.81413 0.51632 0.13659 0.0
O2239 O 0.81122 0.53906 0.03296 0.0
C2240 C 0.7762 0.48655 0.14011 0.0
C2241 C 0.7776 0.50707 0.79491 0.0
C2242 C 0.7768 0.49653 0.67582 0.0
C2243 C 0.76343 0.52547 0.6682 0.0
C2244 C 0.76262 0.53357 0.78665 0.0
C2245 C 0.75568 0.54293 0.7234 0.0
C2246 C 0.78429 0.48789 0.73949 0.0
C2247 C 0.79655 0.42499 0.98946 0.0
C2248 C 0.78983 0.50473 0.8564 0.0
C2249 C 0.7242 0.609 0.90719 0.0
C2250 C 0.70858 0.58558 0.92459 0.0
C2251 C 0.83457 0.49578 0.96346 0.0
C2252 C 0.83963 0.46067 0.27276 0.0
C2253 C 0.82929 0.50127 0.35943 0.0
C2254 C 0.85045 0.50991 0.37104 0.0
C2255 C 0.86089 0.46878 0.28544 0.0
C2256 C 0.82405 0.47935 0.30619 0.0
C2257 C 0.86621 0.49425 0.33263 0.0
C2258 C 0.81143 0.54312 0.09747 0.0
C2259 C 0.83365 0.43754 0.21701 0.0
H2260 H 0.75998 0.53661 0.61975 0.0
H2261 H 0.75742 0.54896 0.82771 0.0
H2262 H 0.74526 0.56493 0.71689 0.0
H2263 H 0.79669 0.46874 0.74501 0.0
H2264 H 0.85497 0.5263 0.41286 0.0
H2265 H 0.87322 0.4562 0.25718 0.0
H2266 H 0.80756 0.47434 0.29515 0.0
H2267 H 0.88257 0.50075 0.34151 0.0
Tb2268 Tb 0.46855 0.73399 0.96929 0.0
C2269 C 0.38493 0.7915 0.07569 0.0
N2270 N 0.40456 0.80393 0.0876 0.0
C2271 C 0.39408 0.8598 0.05292 0.0
C2272 C 0.36926 0.81245 0.04747 0.0
C2273 C 0.40865 0.8384 0.0833 0.0
C2274 C 0.37454 0.84634 0.03199 0.0
C2275 C 0.36147 0.74233 0.07222 0.0
C2276 C 0.38097 0.75722 0.08889 0.0
C2277 C 0.34581 0.76296 0.04189 0.0
C2278 C 0.34957 0.79819 0.03081 0.0
Tb2279 Tb 0.4293 0.76312 0.10695 0.0
N2280 N 0.39702 0.73778 0.1134 0.0
C2281 C 0.35885 0.70698 0.0842 0.0
C2282 C 0.39337 0.70512 0.1364 0.0
C2283 C 0.37438 0.68871 0.11997 0.0
H2284 H 0.42402 0.84847 0.09714 0.0
H2285 H 0.37194 0.66186 0.13324 0.0
H2286 H 0.45294 0.65786 0.91625 0.0
H2287 H 0.54316 0.79781 0.08028 0.0
H2288 H 0.40554 0.69112 0.16308 0.0
H2289 H 0.34476 0.69372 0.0678 0.0
H2290 H 0.50176 0.79081 0.04619 0.0
H2291 H 0.39902 0.8858 0.0446 0.0
H2292 H 0.33101 0.7521 0.02532 0.0
H2293 H 0.33744 0.8139 1.00761 0.0
H2294 H 0.46821 0.60259 0.88164 0.0
H2295 H 0.36358 0.86107 1.00262 0.0
H2296 H 0.57615 0.71764 0.99652 0.0
N2297 N 0.48256 0.6813 0.94075 0.0
C2298 C 0.50398 0.67886 0.93458 0.0
C2299 C 0.47843 0.62352 0.89737 0.0
C2300 C 0.51338 0.64741 0.91149 0.0
C2301 C 0.46988 0.65478 0.9189 0.0
C2302 C 0.50018 0.61975 0.89409 0.0
N2303 N 0.50445 0.73972 0.98293 0.0
C2304 C 0.51245 0.77153 0.02729 0.0
C2305 C 0.54264 0.69885 0.95258 0.0
C2306 C 0.51631 0.70754 0.95031 0.0
C2307 C 0.55947 0.72473 0.99598 0.0
C2308 C 0.53845 0.77581 0.04905 0.0
H2309 H 0.50664 0.5954 0.87649 0.0
H2310 H 0.54162 0.61914 0.88507 0.0
H2311 H 0.56646 0.66246 0.92425 0.0
O2312 O 0.48344 0.75324 0.88333 0.0
O2313 O 0.48027 0.73066 0.07953 0.0
O2314 O 0.46275 0.77698 0.12052 0.0
O2315 O 0.45422 0.72597 0.87429 0.0
O2316 O 0.46957 0.78949 0.98977 0.0
O2317 O 0.43604 0.80042 0.02318 0.0
O2318 O 0.43701 0.74869 0.20507 0.0
O2319 O 0.41513 0.72979 0.02825 0.0
O2320 O 0.43495 0.74805 0.94091 0.0
O2321 O 0.41927 0.79524 0.18594 0.0
O2322 O 0.44065 0.71014 0.12055 0.0
O2323 O 0.45158 0.6909 1.01589 0.0
C2324 C 0.47719 0.75287 0.13057 0.0
C2325 C 0.4757 0.72763 0.77715 0.0
C2326 C 0.47353 0.72703 0.65452 0.0
C2327 C 0.48306 0.69422 0.65451 0.0
C2328 C 0.48696 0.69658 0.77436 0.0
C2329 C 0.49032 0.67968 0.71397 0.0
C2330 C 0.46913 0.74315 0.71651 0.0
C2331 C 0.45308 0.80971 0.98998 0.0
C2332 C 0.46896 0.74242 0.84203 0.0
C2333 C 0.53534 0.64323 0.90459 0.0
C2334 C 0.54972 0.6681 0.92556 0.0
C2335 C 0.41672 0.73616 0.96369 0.0
C2336 C 0.41074 0.76295 0.28268 0.0
C2337 C 0.41064 0.74035 0.39483 0.0
C2338 C 0.39233 0.75905 0.40958 0.0
C2339 C 0.39268 0.78266 0.29677 0.0
C2340 C 0.41767 0.73831 0.3289 0.0
C2341 C 0.38318 0.77973 0.35978 0.0
C2342 C 0.44578 0.68545 0.07831 0.0
C2343 C 0.42567 0.77333 0.23079 0.0
H2344 H 0.4843 0.67931 0.60869 0.0
H2345 H 0.4925 0.68426 0.81821 0.0
H2346 H 0.49777 0.65457 0.71399 0.0
H2347 H 0.45966 0.76651 0.71777 0.0
H2348 H 0.38691 0.76148 0.46106 0.0
H2349 H 0.38694 0.80202 0.2617 0.0
H2350 H 0.4322 0.7242 0.31924 0.0
H2351 H 0.37052 0.79679 0.37286 0.0
Tb2352 Tb 0.18424 0.22702 0.86962 0.0
C2353 C 0.25546 0.31756 0.7416 0.0
N2354 N 0.23517 0.3231 0.75996 0.0
C2355 C 0.24516 0.37645 0.81278 0.0
C2356 C 0.27157 0.34121 0.75887 0.0
C2357 C 0.22969 0.35315 0.79126 0.0
C2358 C 0.2663 0.37019 0.79751 0.0
C2359 C 0.27922 0.28814 0.66627 0.0
C2360 C 0.2595 0.29032 0.69871 0.0
C2361 C 0.29573 0.31021 0.68603 0.0
C2362 C 0.29199 0.33637 0.73334 0.0
Tb2363 Tb 0.21129 0.28223 0.72664 0.0
N2364 N 0.24323 0.26917 0.68134 0.0
C2365 C 0.28107 0.26622 0.61076 0.0
C2366 C 0.24496 0.24802 0.62672 0.0
C2367 C 0.26356 0.24721 0.5896 0.0
H2368 H 0.2134 0.35992 0.79738 0.0
H2369 H 0.26417 0.2322 0.54405 0.0
H2370 H 0.18337 0.14473 0.82762 0.0
H2371 H 0.12187 0.31872 0.92171 0.0
H2372 H 0.23162 0.23329 0.60868 0.0
H2373 H 0.29555 0.26505 0.58207 0.0
H2374 H 0.15693 0.29302 0.94217 0.0
H2375 H 0.24063 0.39965 0.83939 0.0
H2376 H 0.31111 0.30831 0.66273 0.0
H2377 H 0.30461 0.35409 0.74634 0.0
H2378 H 0.16714 0.12774 0.71911 0.0
H2379 H 0.27821 0.38882 0.81241 0.0
H2380 H 0.09608 0.28778 0.84804 0.0
N2381 N 0.161 0.18468 0.8438 0.0
C2382 C 0.14105 0.19616 0.83092 0.0
C2383 C 0.15932 0.14601 0.75177 0.0
C2384 C 0.1294 0.18226 0.77712 0.0
C2385 C 0.16842 0.15584 0.8127 0.0
C2386 C 0.14018 0.16089 0.73251 0.0
N2387 N 0.15068 0.24817 0.88293 0.0
C2388 C 0.14558 0.27896 0.91229 0.0
C2389 C 0.11541 0.24241 0.83945 0.0
C2390 C 0.13534 0.22831 0.85507 0.0
C2391 C 0.11075 0.27556 0.86253 0.0
C2392 C 0.12554 0.29336 0.90188 0.0
H2393 H 0.1335 0.15501 0.68349 0.0
H2394 H 0.09997 0.18395 0.72167 0.0
H2395 H 0.08657 0.23522 0.78174 0.0
O2396 O 0.19269 0.24304 0.9669 0.0
O2397 O 0.16853 0.23286 0.7665 0.0
O2398 O 0.17648 0.28677 0.73043 0.0
O2399 O 0.18159 0.19118 0.95045 0.0
O2400 O 0.19066 0.28216 0.88897 0.0
O2401 O 0.18836 0.30991 0.7872 0.0
O2402 O 0.20159 0.27616 0.62426 0.0
O2403 O 0.22851 0.27623 0.83151 0.0
O2404 O 0.21815 0.22245 0.85819 0.0
O2405 O 0.21059 0.32594 0.66337 0.0
O2406 O 0.20769 0.22567 0.70396 0.0
O2407 O 0.20469 0.19386 0.80278 0.0
C2408 C 0.16351 0.26043 0.73013 0.0
C2409 C 0.17849 0.21579 0.06343 0.0
C2410 C 0.17799 0.23974 0.17948 0.0
C2411 C 0.16194 0.216 0.19495 0.0
C2412 C 0.16242 0.19277 0.08148 0.0
C2413 C 0.15444 0.19272 0.1468 0.0
C2414 C 0.18649 0.23909 0.1133 0.0
C2415 C 0.18735 0.30997 0.85283 0.0
C2416 C 0.18822 0.2137 0.99508 0.0
C2417 C 0.10922 0.19514 0.76207 0.0
C2418 C 0.10184 0.2246 0.79539 0.0
C2419 C 0.22984 0.24903 0.87429 0.0
C2420 C 0.20892 0.32129 0.54142 0.0
C2421 C 0.20542 0.31848 0.4166 0.0
C2422 C 0.21779 0.34837 0.41208 0.0
C2423 C 0.22112 0.3513 0.53383 0.0
C2424 C 0.20009 0.306 0.48213 0.0
C2425 C 0.22503 0.36503 0.47014 0.0
C2426 C 0.20702 0.19544 0.73588 0.0
C2427 C 0.20342 0.30905 0.61112 0.0
H2428 H 0.15541 0.21488 0.24522 0.0
H2429 H 0.15626 0.17426 0.04549 0.0
H2430 H 0.14252 0.17411 0.16066 0.0
H2431 H 0.1992 0.25662 0.10058 0.0
H2432 H 0.22159 0.35922 0.36332 0.0
H2433 H 0.2273 0.36486 0.57738 0.0
H2434 H 0.18986 0.28378 0.48699 0.0
H2435 H 0.23374 0.38892 0.46601 0.0
Tb2436 Tb 0.5743 0.52857 0.86231 0.0
C2437 C 0.50349 0.42573 0.68812 0.0
N2438 N 0.52423 0.4318 0.70072 0.0
C2439 C 0.53273 0.37387 0.66515 0.0
C2440 C 0.49651 0.39295 0.66403 0.0
C2441 C 0.53878 0.40624 0.68927 0.0
C2442 C 0.5116 0.36732 0.65184 0.0
C2443 C 0.46405 0.43892 0.70264 0.0
C2444 C 0.48958 0.45201 0.70115 0.0
C2445 C 0.459 0.4074 0.6746 0.0
C2446 C 0.47501 0.3852 0.65405 0.0
Tb2447 Tb 0.53576 0.48629 0.73064 0.0
N2448 N 0.49946 0.4854 0.73526 0.0
C2449 C 0.44584 0.46134 0.74678 0.0
C2450 C 0.48959 0.51547 0.77986 0.0
C2451 C 0.46356 0.51514 0.80154 0.0
H2452 H 0.5554 0.41096 0.69649 0.0
H2453 H 0.45754 0.53599 0.83335 0.0
H2454 H 0.59685 0.59581 0.78943 0.0
H2455 H 0.61539 0.4289 1.01139 0.0
H2456 H 0.49928 0.5363 0.79854 0.0
H2457 H 0.42973 0.45151 0.74651 0.0
H2458 H 0.58567 0.46726 0.98561 0.0
H2459 H 0.54446 0.35405 0.65614 0.0
H2460 H 0.44272 0.39916 0.6731 0.0
H2461 H 0.47051 0.36009 0.63444 0.0
H2462 H 0.62516 0.59754 0.70469 0.0
H2463 H 0.50706 0.34206 0.63301 0.0
H2464 H 0.64617 0.42671 0.93513 0.0
N2465 N 0.606 0.54597 0.82321 0.0
C2466 C 0.62164 0.5222 0.82649 0.0
C2467 C 0.6257 0.57885 0.74528 0.0
C2468 C 0.64075 0.52728 0.79226 0.0
C2469 C 0.60878 0.57604 0.78884 0.0
C2470 C 0.64282 0.55659 0.75227 0.0
N2471 N 0.60001 0.48996 0.89893 0.0
C2472 C 0.59952 0.46894 0.95468 0.0
C2473 C 0.63516 0.46946 0.87421 0.0
C2474 C 0.61854 0.4932 0.86536 0.0
C2475 C 0.63359 0.4451 0.92577 0.0
C2476 C 0.61634 0.44648 0.96912 0.0
H2477 H 0.65671 0.56039 0.7222 0.0
H2478 H 0.67038 0.50384 0.76387 0.0
H2479 H 0.66501 0.45201 0.83341 0.0
O2480 O 0.56035 0.55844 0.93917 0.0
O2481 O 0.58202 0.52629 0.75287 0.0
O2482 O 0.57013 0.47419 0.72137 0.0
O2483 O 0.5936 0.559 0.92491 0.0
O2484 O 0.56461 0.47494 0.88604 0.0
O2485 O 0.55947 0.45518 0.78013 0.0
O2486 O 0.53259 0.52254 0.65135 0.0
O2487 O 0.52339 0.48445 0.83908 0.0
O2488 O 0.53987 0.5318 0.88553 0.0
O2489 O 0.54572 0.47214 0.63523 0.0
O2490 O 0.53345 0.54397 0.74361 0.0
O2491 O 0.56521 0.56497 0.781 0.0
C2492 C 0.58501 0.49768 0.7185 0.0
C2493 C 0.58256 0.55074 0.03322 0.0
C2494 C 0.57978 0.50238 0.11127 0.0
C2495 C 0.59901 0.51235 0.13976 0.0
C2496 C 0.59835 0.56497 0.07394 0.0
C2497 C 0.60585 0.54602 0.12879 0.0
C2498 C 0.57297 0.51955 0.05287 0.0
C2499 C 0.5608 0.44948 0.84411 0.0
C2500 C 0.57853 0.56517 0.96643 0.0
C2501 C 0.65623 0.50149 0.79383 0.0
C2502 C 0.65321 0.47217 0.83377 0.0
C2503 C 0.52583 0.50656 0.89082 0.0
C2504 C 0.52827 0.4958 0.54533 0.0
C2505 C 0.52711 0.50273 0.42538 0.0
C2506 C 0.51439 0.47297 0.42077 0.0
C2507 C 0.51412 0.46817 0.53982 0.0
C2508 C 0.53438 0.51381 0.48793 0.0
C2509 C 0.50731 0.45655 0.47798 0.0
C2510 C 0.54828 0.56823 0.7428 0.0
C2511 C 0.53991 0.50083 0.60741 0.0
H2512 H 0.60529 0.49879 0.18327 0.0
H2513 H 0.60506 0.59005 0.06265 0.0
H2514 H 0.61598 0.5577 0.16554 0.0
H2515 H 0.55898 0.51033 0.02684 0.0
H2516 H 0.51084 0.46082 0.37322 0.0
H2517 H 0.50921 0.45422 0.5825 0.0
H2518 H 0.54598 0.53428 0.49133 0.0
H2519 H 0.49734 0.43398 0.47476 0.0
Tb2520 Tb 0.1744 0.53259 0.92741 0.0
C2521 C 0.2548 0.45159 0.08557 0.0
N2522 N 0.23386 0.44652 0.08798 0.0
C2523 C 0.23949 0.39187 0.14446 0.0
C2524 C 0.27092 0.42565 0.11931 0.0
C2525 C 0.22613 0.41616 0.11284 0.0
C2526 C 0.26134 0.39726 0.15029 0.0
C2527 C 0.28986 0.48703 1.00363 0.0
C2528 C 0.2606 0.47947 0.03671 0.0
C2529 C 0.30882 0.44877 0.05727 0.0
C2530 C 0.29576 0.42414 0.10929 0.0
Tb2531 Tb 0.21345 0.49321 0.05224 0.0
N2532 N 0.24723 0.50106 1.01344 0.0
C2533 C 0.30765 0.47273 1.01654 0.0
C2534 C 0.26061 0.52028 0.9749 0.0
C2535 C 0.28568 0.50617 0.97499 0.0
H2536 H 0.20932 0.41139 0.11174 0.0
H2537 H 0.28738 0.52913 0.93392 0.0
H2538 H 0.15093 0.59877 1.00078 0.0
H2539 H 0.13522 0.44062 0.75707 0.0
H2540 H 0.2549 0.54228 0.9461 0.0
H2541 H 0.32904 0.47426 1.00052 0.0
H2542 H 0.16494 0.47678 0.79504 0.0
H2543 H 0.23271 0.36862 0.16561 0.0
H2544 H 0.3258 0.43564 0.069 0.0
H2545 H 0.3045 0.40467 0.13663 0.0
H2546 H 0.12122 0.59917 0.07629 0.0
H2547 H 0.27094 0.37749 0.17415 0.0
H2548 H 0.10293 0.43667 0.82649 0.0
N2549 N 0.14197 0.54984 0.96089 0.0
C2550 C 0.12626 0.5266 0.9531 0.0
C2551 C 0.12033 0.58348 0.03191 0.0
C2552 C 0.1064 0.53173 0.98295 0.0
C2553 C 0.13857 0.57987 0.99486 0.0
C2554 C 0.10343 0.56099 0.02263 0.0
N2555 N 0.14892 0.4965 0.88116 0.0
C2556 C 0.15038 0.4777 0.82273 0.0
C2557 C 0.11321 0.47625 0.89604 0.0
C2558 C 0.12987 0.49884 0.91175 0.0
C2559 C 0.11548 0.45413 0.84104 0.0
C2560 C 0.13362 0.45652 0.8016 0.0
H2561 H 0.08911 0.56454 0.0514 0.0
H2562 H 0.07609 0.50833 1.00281 0.0
H2563 H 0.08256 0.45858 0.92861 0.0
O2564 O 0.19013 0.56413 0.85696 0.0
O2565 O 0.16731 0.53188 0.03548 0.0
O2566 O 0.17928 0.48018 0.0661 0.0
O2567 O 0.15656 0.56588 0.86687 0.0
O2568 O 0.18103 0.47622 0.91016 0.0
O2569 O 0.19284 0.45405 1.01173 0.0
O2570 O 0.21929 0.52621 0.13615 0.0
O2571 O 0.22377 0.48435 0.9444 0.0
O2572 O 0.20782 0.53076 0.89299 0.0
O2573 O 0.20504 0.47622 0.14734 0.0
O2574 O 0.21565 0.55072 0.04188 0.0
O2575 O 0.18261 0.56798 1.01275 0.0
C2576 C 0.16415 0.50314 0.06831 0.0
C2577 C 0.16875 0.56581 0.75965 0.0
C2578 C 0.16795 0.52235 0.67102 0.0
C2579 C 0.15153 0.54099 0.64052 0.0
C2580 C 0.15502 0.58666 0.72242 0.0
C2581 C 0.14681 0.57451 0.66209 0.0
C2582 C 0.17557 0.53402 0.73327 0.0
C2583 C 0.18596 0.44988 0.95014 0.0
C2584 C 0.17242 0.57418 0.82998 0.0
C2585 C 0.09086 0.50633 0.97597 0.0
C2586 C 0.09444 0.47824 0.93315 0.0
C2587 C 0.22143 0.50481 0.89062 0.0
C2588 C 0.22222 0.49665 0.24213 0.0
C2589 C 0.22298 0.50407 0.36268 0.0
C2590 C 0.23462 0.47328 0.36902 0.0
C2591 C 0.23499 0.46729 0.24978 0.0
C2592 C 0.21632 0.51536 0.29921 0.0
C2593 C 0.24089 0.4553 0.31254 0.0
C2594 C 0.20029 0.57367 0.0463 0.0
C2595 C 0.2116 0.50366 0.17808 0.0
H2596 H 0.14423 0.53185 0.59449 0.0
H2597 H 0.1498 0.61143 0.74168 0.0
H2598 H 0.13594 0.59045 0.63366 0.0
H2599 H 0.18803 0.51968 0.75844 0.0
H2600 H 0.23809 0.46204 0.41769 0.0
H2601 H 0.24043 0.4532 0.208 0.0
H2602 H 0.20541 0.53687 0.29473 0.0
H2603 H 0.25011 0.43188 0.31692 0.0
Tb2604 Tb 0.56118 0.22724 0.90871 0.0
C2605 C 0.4917 0.3149 0.04377 0.0
N2606 N 0.51194 0.32096 0.02538 0.0
C2607 C 0.50195 0.37608 0.98039 0.0
C2608 C 0.47559 0.33922 0.02985 0.0
C2609 C 0.51742 0.35216 0.99898 0.0
C2610 C 0.48081 0.36935 0.99465 0.0
C2611 C 0.46845 0.28461 0.11912 0.0
C2612 C 0.48783 0.28667 0.08465 0.0
C2613 C 0.45187 0.30719 0.10205 0.0
C2614 C 0.45533 0.33408 0.0562 0.0
Tb2615 Tb 0.53599 0.28014 0.05659 0.0
N2616 N 0.50412 0.26485 0.09948 0.0
C2617 C 0.46715 0.26268 0.17474 0.0
C2618 C 0.50274 0.24325 0.15364 0.0
C2619 C 0.48471 0.24309 0.19339 0.0
H2620 H 0.53375 0.35928 0.99541 0.0
H2621 H 0.48463 0.22809 0.23906 0.0
H2622 H 0.56168 0.14426 0.9325 0.0
H2623 H 0.62183 0.31859 0.84031 0.0
H2624 H 0.51609 0.22813 0.17029 0.0
H2625 H 0.45309 0.26204 0.20551 0.0
H2626 H 0.58596 0.29431 0.83127 0.0
H2627 H 0.50655 0.40006 0.95722 0.0
H2628 H 0.43672 0.30526 0.1268 0.0
H2629 H 0.44272 0.3523 0.04572 0.0
H2630 H 0.58038 0.12304 0.03169 0.0
H2631 H 0.46893 0.38859 0.98253 0.0
H2632 H 0.64947 0.28548 0.90067 0.0
N2633 N 0.58427 0.18366 0.91579 0.0
C2634 C 0.60468 0.19377 0.9224 0.0
C2635 C 0.58816 0.14077 0.99796 0.0
C2636 C 0.61806 0.17652 0.96723 0.0
C2637 C 0.57745 0.1535 0.94277 0.0
C2638 C 0.60808 0.15403 1.01241 0.0
N2639 N 0.59398 0.24786 0.88332 0.0
C2640 C 0.59822 0.27924 0.85508 0.0
C2641 C 0.63047 0.23956 0.91085 0.0
C2642 C 0.60996 0.22663 0.90157 0.0
C2643 C 0.63451 0.27354 0.89043 0.0
C2644 C 0.61862 0.2928 0.85881 0.0
H2645 H 0.61469 0.14901 0.06142 0.0
H2646 H 0.6496 0.1751 1.01059 0.0
H2647 H 0.66121 0.22899 0.95493 0.0
O2648 O 0.55411 0.24482 0.81047 0.0
O2649 O 0.58177 0.23414 1.00364 0.0
O2650 O 0.57106 0.28375 0.05762 0.0
O2651 O 0.55744 0.1905 0.8317 0.0
O2652 O 0.55372 0.28225 0.89483 0.0
O2653 O 0.55898 0.30806 0.99697 0.0
O2654 O 0.5438 0.2744 0.16008 0.0
O2655 O 0.51766 0.27576 0.95367 0.0
O2656 O 0.52779 0.22241 0.92786 0.0
O2657 O 0.53454 0.32439 0.11942 0.0
O2658 O 0.54115 0.22409 0.0799 0.0
O2659 O 0.54391 0.19246 0.98134 0.0
C2660 C 0.58529 0.25915 0.04899 0.0
C2661 C 0.56396 0.20874 0.71839 0.0
C2662 C 0.5672 0.22526 0.59805 0.0
C2663 C 0.57902 0.19448 0.58899 0.0
C2664 C 0.57566 0.17874 0.70609 0.0
C2665 C 0.58271 0.1715 0.64179 0.0
C2666 C 0.55955 0.23172 0.66429 0.0
C2667 C 0.55926 0.30887 0.93131 0.0
C2668 C 0.55416 0.21377 0.7853 0.0
C2669 C 0.63894 0.18831 0.97637 0.0
C2670 C 0.64538 0.21938 0.94591 0.0
C2671 C 0.51592 0.24861 0.91147 0.0
C2672 C 0.54271 0.3228 0.24057 0.0
C2673 C 0.5496 0.31638 0.3631 0.0
C2674 C 0.54477 0.3518 0.37063 0.0
C2675 C 0.5376 0.35763 0.25083 0.0
C2676 C 0.54931 0.3029 0.2964 0.0
C2677 C 0.5389 0.37205 0.31517 0.0
C2678 C 0.54215 0.19393 0.04823 0.0
C2679 C 0.54023 0.30695 0.17243 0.0
H2680 H 0.586 0.18732 0.54176 0.0
H2681 H 0.57904 0.16032 0.74584 0.0
H2682 H 0.59167 0.14814 0.63295 0.0
H2683 H 0.54972 0.25391 0.67462 0.0
H2684 H 0.54562 0.3644 0.41911 0.0
H2685 H 0.53252 0.37378 0.20919 0.0
H2686 H 0.5533 0.27651 0.287 0.0
H2687 H 0.53507 0.3991 0.32229 0.0
C2688 C 0.24097 0.21855 0.98806 0.0
C2689 C 0.24038 0.24912 0.94714 0.0
H2690 H 0.24905 0.19316 0.08283 0.0
C2691 C 0.24866 0.27878 0.98004 0.0
H2692 H 0.23483 0.19472 0.96735 0.0
C2693 C 0.25676 0.27785 0.04824 0.0
C2694 C 0.2574 0.24723 0.08906 0.0
H2695 H 0.24876 0.30318 0.95329 0.0
H2696 H 0.2628 0.30176 0.0691 0.0
C2697 C 0.24912 0.21758 0.05615 0.0
C2698 C 0.00544 0.9698 0.98351 0.0
C2699 C 0.00903 0.00257 0.95337 0.0
H2700 H 0.99106 0.93995 0.06359 0.0
C2701 C 0.99876 0.0308 0.98523 0.0
H2702 H 0.0128 0.94712 0.96193 0.0
C2703 C 0.98582 0.02643 0.04367 0.0
C2704 C 0.98281 0.99394 0.07506 0.0
H2705 H 0.00036 0.05645 0.964 0.0
H2706 H 0.97747 0.04849 0.06356 0.0
C2707 C 0.99281 0.96563 0.04268 0.0
C2708 C 0.23687 0.0238 0.28009 0.0
C2709 C 0.23796 -0.00177 0.33123 0.0
H2710 H 0.24585 0.04053 0.18046 0.0
C2711 C 0.2514 0.96994 0.318 0.0
H2712 H 0.2274 0.04666 0.28745 0.0
C2713 C 0.26242 0.96674 0.2559 0.0
C2714 C 0.26127 0.99231 0.20486 0.0
H2715 H 0.2535 0.95018 0.35603 0.0
H2716 H 0.27209 0.94412 0.24807 0.0
C2717 C 0.24787 0.02062 0.2182 0.0
C2718 C 0.0075 0.2153 0.29588 0.0
C2719 C 0.00786 0.24582 0.33719 0.0
H2720 H -0.00016 0.1902 0.2002 0.0
C2721 C 0.99944 0.27535 0.30424 0.0
H2722 H 0.01363 0.1914 0.31669 0.0
C2723 C 0.99144 0.27434 0.23603 0.0
C2724 C 0.99107 0.24421 0.19444 0.0
H2725 H 0.99899 0.29968 0.33117 0.0
H2726 H 0.98461 0.2975 0.21591 0.0
C2727 C 0.99954 0.21451 0.22724 0.0
C2728 C 0.75164 0.76853 0.97994 0.0
C2729 C 0.74103 0.73921 0.95306 0.0
H2730 H 0.76813 0.79288 0.06321 0.0
C2731 C 0.74013 0.71065 0.99901 0.0
H2732 H 0.75289 0.79157 0.94923 0.0
C2733 C 0.74932 0.71116 0.06593 0.0
C2734 C 0.76002 0.74047 0.09263 0.0
H2735 H 0.73208 0.68732 0.98327 0.0
H2736 H 0.74806 0.68818 0.09679 0.0
C2737 C 0.76055 0.7692 0.04704 0.0
C2738 C 0.756 0.0267 0.73231 0.0
C2739 C 0.75834 0.99492 0.69712 0.0
H2740 H 0.74512 0.05448 0.82044 0.0
C2741 C 0.74986 0.96579 0.73131 0.0
H2742 H 0.76215 0.04996 0.71067 0.0
C2743 C 0.73964 0.96859 0.79561 0.0
C2744 C 0.73783 0.00019 0.83116 0.0
H2745 H 0.75053 0.94067 0.70733 0.0
H2746 H 0.73221 0.9462 0.81671 0.0
C2747 C 0.74614 0.02929 0.79696 0.0
C2748 C 0.00343 0.72175 0.71458 0.0
C2749 C 0.98979 0.74938 0.69554 0.0
H2750 H 0.0239 0.69808 0.7896 0.0
C2751 C 0.98693 0.7747 0.74704 0.0
H2752 H 0.00618 0.70098 0.67927 0.0
C2753 C 0.99705 0.77277 0.81215 0.0
C2754 C 0.01083 0.74532 0.83099 0.0
H2755 H 0.97669 0.79656 0.7371 0.0
H2756 H 0.99415 0.79339 0.84774 0.0
C2757 C 0.01365 0.71992 0.7796 0.0
C2758 C 0.23943 0.7138 0.49824 0.0
C2759 C 0.24031 0.74298 0.45379 0.0
H2760 H 0.24747 0.69008 0.59486 0.0
C2761 C 0.25096 0.77192 0.48185 0.0
H2762 H 0.23147 0.69063 0.48118 0.0
C2763 C 0.25998 0.77168 0.5487 0.0
C2764 C 0.25946 0.7424 0.59291 0.0
H2765 H 0.25219 0.79535 0.45224 0.0
H2766 H 0.26768 0.79508 0.56577 0.0
C2767 C 0.24869 0.71345 0.56509 0.0
C2768 C 0.98997 0.47277 0.53827 0.0
C2769 C 0.98912 0.49923 0.58807 0.0
H2770 H 0.00096 0.45537 0.44085 0.0
C2771 C 0.00068 0.52953 0.57216 0.0
H2772 H 0.98156 0.44879 0.54638 0.0
C2773 C 0.01227 0.533 0.51041 0.0
C2774 C 0.01298 0.50644 0.4606 0.0
H2775 H 0.00066 0.55093 0.6073 0.0
H2776 H 0.02054 0.55701 0.50151 0.0
C2777 C 0.0014 0.47634 0.47676 0.0
C2778 C 0.24793 0.52152 0.71474 0.0
C2779 C 0.26264 0.49415 0.70718 0.0
H2780 H 0.2242 0.54658 0.77537 0.0
C2781 C 0.26382 0.47077 0.76236 0.0
H2782 H 0.24634 0.54058 0.67509 0.0
C2783 C 0.25102 0.47439 0.82113 0.0
C2784 C 0.23602 0.50132 0.8281 0.0
H2785 H 0.27481 0.44938 0.7605 0.0
H2786 H 0.25293 0.45587 0.86153 0.0
C2787 C 0.23503 0.52496 0.77328 0.0
C2788 C 0.76376 0.27424 0.52883 0.0
C2789 C 0.7601 0.25015 0.58199 0.0
H2790 H 0.75691 0.29189 0.42724 0.0
C2791 C 0.74543 0.22372 0.56517 0.0
H2792 H 0.77475 0.29523 0.53718 0.0
C2793 C 0.73504 0.22183 0.50061 0.0
C2794 C 0.73882 0.24562 0.44729 0.0
H2795 H 0.74198 0.20392 0.60184 0.0
H2796 H 0.7237 0.20145 0.49238 0.0
C2797 C 0.75347 0.27214 0.46405 0.0
C2798 C 0.73921 0.52146 0.28523 0.0
C2799 C 0.73922 0.49513 0.33549 0.0
H2800 H 0.74956 0.5398 0.18802 0.0
C2801 C 0.75148 0.46556 0.31901 0.0
H2802 H 0.73044 0.54505 0.29385 0.0
C2803 C 0.76288 0.46266 0.25668 0.0
C2804 C 0.76277 0.48902 0.20637 0.0
H2805 H 0.75228 0.44432 0.35447 0.0
H2806 H 0.77194 0.43934 0.24806 0.0
C2807 C 0.75044 0.51844 0.22297 0.0
C2808 C 0.48351 0.02379 0.53263 0.0
C2809 C 0.48543 0.99518 0.57643 0.0
H2810 H 0.4931 0.04848 0.43986 0.0
C2811 C 0.49886 0.96816 0.55527 0.0
H2812 H 0.47255 0.04424 0.54502 0.0
C2813 C 0.51013 0.96991 0.49371 0.0
C2814 C 0.50853 -0.00123 0.45033 0.0
H2815 H 0.50097 0.94573 0.58696 0.0
H2816 H 0.52066 0.94893 0.48127 0.0
C2817 C 0.49504 0.02583 0.4714 0.0
C2818 C 0.49118 0.27842 0.73492 0.0
C2819 C 0.48932 0.24744 0.69564 0.0
H2820 H 0.49991 0.30392 0.82889 0.0
C2821 C 0.49604 0.21726 0.73047 0.0
H2822 H 0.48625 0.30269 0.71267 0.0
C2823 C 0.50386 0.2181 0.79893 0.0
C2824 C 0.50572 0.24903 0.83821 0.0
H2825 H 0.49508 0.19255 0.7051 0.0
H2826 H 0.5088 0.19388 0.82126 0.0
C2827 C 0.49901 0.27923 0.8034 0.0
C2828 C 0.48629 0.77572 0.25239 0.0
C2829 C 0.48907 0.7505 0.20066 0.0
H2830 H 0.49395 0.7945 0.35267 0.0
C2831 C 0.5028 0.72292 0.21911 0.0
H2832 H 0.47594 0.79749 0.2429 0.0
C2833 C 0.51312 0.72095 0.2839 0.0
C2834 C 0.51047 0.7463 0.33547 0.0
H2835 H 0.50551 0.70224 0.18352 0.0
H2836 H 0.52334 0.69903 0.29353 0.0
C2837 C 0.49667 0.77382 0.3171 0.0
C2838 C 0.49955 0.47506 0.97174 0.0
C2839 C 0.51224 0.50407 0.95661 0.0
H2840 H 0.47966 0.4479 0.04183 0.0
C2841 C 0.5125 0.53 1.00778 0.0
H2842 H 0.49841 0.45454 0.93524 0.0
C2843 C 0.50087 0.52692 0.06964 0.0
C2844 C 0.48841 0.49747 0.08504 0.0
H2845 H 0.52176 0.55315 1.00018 0.0
H2846 H 0.50171 0.5479 0.10566 0.0
C2847 C 0.48836 0.47156 0.03396 0.0
C2848 C 0.38161 0.20782 0.41837 0.0
C2849 C 0.39151 0.23894 0.43897 0.0
H2850 H 0.35662 0.18313 0.36142 0.0
C2851 C 0.3825 0.26964 0.41362 0.0
H2852 H 0.38788 0.18328 0.43563 0.0
C2853 C 0.36405 0.26963 0.37263 0.0
C2854 C 0.35432 0.23878 0.35094 0.0
H2855 H 0.38999 0.2939 0.42453 0.0
H2856 H 0.35732 0.29407 0.35829 0.0
C2857 C 0.36345 0.20775 0.37559 0.0
C2858 C 0.85307 0.97331 0.37716 0.0
C2859 C 0.84917 0.00074 0.42139 0.0
H2860 H 0.87624 0.94361 0.32476 0.0
C2861 C 0.86598 0.02446 0.43164 0.0
H2862 H 0.84103 0.95387 0.36909 0.0
C2863 C 0.88555 0.02117 0.3966 0.0
C2864 C 0.8896 0.99256 0.35401 0.0
H2865 H 0.86397 0.04567 0.46663 0.0
H2866 H 0.89767 0.04047 0.40451 0.0
C2867 C 0.87325 0.96804 0.34898 0.0
C2868 C 0.38542 0.0337 0.88307 0.0
C2869 C 0.39337 0.00273 0.85391 0.0
H2870 H 0.36026 0.0582 0.94096 0.0
C2871 C 0.38008 0.97402 0.85947 0.0
H2872 H 0.3949 0.05695 0.88147 0.0
C2873 C 0.35955 0.9755 0.88638 0.0
C2874 C 0.3519 0.00494 0.9191 0.0
H2875 H 0.38645 0.94913 0.84764 0.0
H2876 H 0.35021 0.95208 0.8866 0.0
C2877 C 0.3652 0.0346 0.91627 0.0
C2878 C 0.8556 0.26274 0.91492 0.0
C2879 C 0.8513 0.2358 0.86845 0.0
H2880 H 0.87758 0.28634 0.98477 0.0
C2881 C 0.86707 0.21004 0.86293 0.0
H2882 H 0.84419 0.28328 0.9214 0.0
C2883 C 0.88627 0.21141 0.90058 0.0
C2884 C 0.89091 0.2388 0.9458 0.0
H2885 H 0.86463 0.18865 0.82857 0.0
H2886 H 0.8977 0.19093 0.89328 0.0
C2887 C 0.87498 0.26443 0.95192 0.0
C2888 C 0.619 0.78645 0.6068 0.0
C2889 C 0.60363 0.7598 0.60999 0.0
H2890 H 0.64914 0.80649 0.64156 0.0
C2891 C 0.60904 0.73102 0.65012 0.0
H2892 H 0.61598 0.80888 0.57554 0.0
C2893 C 0.62886 0.72861 0.68374 0.0
C2894 C 0.64364 0.7559 0.68494 0.0
H2895 H 0.59837 0.70929 0.65284 0.0
H2896 H 0.63301 0.7046 0.70742 0.0
C2897 C 0.63831 0.78492 0.64456 0.0
C2898 C 0.11367 0.96617 0.65647 0.0
C2899 C 0.10521 -0.00228 0.68126 0.0
H2900 H 0.13875 0.9411 0.59955 0.0
C2901 C 0.11725 0.02711 0.66857 0.0
H2902 H 0.10505 0.94234 0.6639 0.0
C2903 C 0.13766 0.02568 0.64093 0.0
C2904 C 0.14558 0.99575 0.61127 0.0
H2905 H 0.11048 0.05185 0.67917 0.0
H2906 H 0.14716 0.04874 0.64049 0.0
C2907 C 0.13331 0.96535 0.62046 0.0
C2908 C 0.63722 0.96125 0.14525 0.0
C2909 C 0.64492 0.99084 0.11066 0.0
H2910 H 0.6123 0.93903 0.20735 0.0
C2911 C 0.63134 0.01946 0.11183 0.0
H2912 H 0.64677 0.93805 0.14707 0.0
C2913 C 0.61085 0.01908 0.13998 0.0
C2914 C 0.60356 0.99126 0.17825 0.0
H2915 H 0.63748 0.0434 0.09396 0.0
H2916 H 0.60113 0.04196 0.13597 0.0
C2917 C 0.61706 0.96164 0.17915 0.0
C2918 C 0.1071 0.74107 0.15534 0.0
C2919 C 0.10327 0.76667 0.10634 0.0
H2920 H 0.12911 0.71732 0.22351 0.0
C2921 C 0.1199 0.79053 0.09527 0.0
H2922 H 0.09527 0.72182 0.16533 0.0
C2923 C 0.13924 0.78901 0.13265 0.0
C2924 C 0.14291 0.76312 0.18178 0.0
H2925 H 0.11794 0.81059 0.05771 0.0
H2926 H 0.15126 0.80824 0.12314 0.0
C2927 C 0.12655 0.73888 0.19047 0.0
C2928 C 0.3692 0.70794 0.8498 0.0
C2929 C 0.35618 0.73776 0.84773 0.0
H2930 H 0.39745 0.68327 0.88937 0.0
C2931 C 0.36383 0.76685 0.88304 0.0
H2932 H 0.36413 0.68475 0.82383 0.0
C2933 C 0.384 0.76698 0.91509 0.0
C2934 C 0.39653 0.73689 0.92025 0.0
H2935 H 0.3544 0.79013 0.88443 0.0
H2936 H 0.38973 0.79079 0.93682 0.0
C2937 C 0.38858 0.70719 0.88703 0.0
C2938 C 0.88654 0.47326 0.87822 0.0
C2939 C 0.89364 0.50349 0.84787 0.0
H2940 H 0.86112 0.44607 0.92418 0.0
C2941 C 0.88119 0.53353 0.85778 0.0
H2942 H 0.8965 0.45065 0.87786 0.0
C2943 C 0.86194 0.53202 0.89523 0.0
C2944 C 0.85431 0.50016 0.92092 0.0
H2945 H 0.88617 0.55793 0.83642 0.0
H2946 H 0.85304 0.55555 0.90345 0.0
C2947 C 0.86663 0.47104 0.9082 0.0
C2948 C 0.36556 0.53107 0.41579 0.0
C2949 C 0.35431 0.4997 0.42565 0.0
H2950 H 0.39302 0.55609 0.37135 0.0
C2951 C 0.36306 0.47027 0.39686 0.0
H2952 H 0.35947 0.55489 0.43676 0.0
C2953 C 0.3832 0.47046 0.36765 0.0
C2954 C 0.39425 0.50069 0.35415 0.0
H2955 H 0.35454 0.44623 0.40005 0.0
H2956 H 0.39065 0.44624 0.35683 0.0
C2957 C 0.38509 0.53166 0.37922 0.0
C2958 C 0.85914 0.75639 0.39852 0.0
C2959 C 0.85537 0.73307 0.3454 0.0
H2960 H 0.88157 0.77879 0.46649 0.0
C2961 C 0.87239 0.71085 0.32827 0.0
H2962 H 0.847 0.77473 0.41257 0.0
C2963 C 0.89209 0.71167 0.36379 0.0
C2964 C 0.89577 0.73535 0.41688 0.0
H2965 H 0.87047 0.69262 0.2873 0.0
H2966 H 0.9044 0.69366 0.34972 0.0
C2967 C 0.87903 0.75822 0.4313 0.0
C2968 C 0.63977 0.23306 0.13063 0.0
C2969 C 0.64643 0.26216 0.16779 0.0
H2970 H 0.6143 0.20797 0.07913 0.0
C2971 C 0.63238 0.29087 0.16585 0.0
H2972 H 0.64927 0.20982 0.13183 0.0
C2973 C 0.61316 0.29055 0.12691 0.0
C2974 C 0.6064 0.2609 0.09022 0.0
H2975 H 0.63632 0.31389 0.19427 0.0
H2976 H 0.6034 0.31354 0.12663 0.0
C2977 C 0.61992 0.23215 0.09653 0.0
C2978 C 0.11346 0.52869 0.15743 0.0
C2979 C 0.10395 0.49832 0.17917 0.0
H2980 H 0.14151 0.5536 0.12275 0.0
C2981 C 0.11457 0.46703 0.16301 0.0
H2982 H 0.10518 0.55289 0.16359 0.0
C2983 C 0.13426 0.46734 0.12745 0.0
C2984 C 0.14416 0.49898 0.10995 0.0
H2985 H 0.10781 0.44254 0.17798 0.0
H2986 H 0.14164 0.44307 0.11394 0.0
C2987 C 0.13372 0.52906 0.12929 0.0
C2988 C 0.63411 0.52164 0.61898 0.0
C2989 C 0.64445 0.49087 0.60304 0.0
H2990 H 0.60595 0.54716 0.65254 0.0
C2991 C 0.63446 0.46007 0.62519 0.0
H2992 H 0.64214 0.54554 0.61047 0.0
C2993 C 0.61496 0.46126 0.66181 0.0
C2994 C 0.60454 0.49316 0.67469 0.0
H2995 H 0.64168 0.43527 0.61483 0.0
H2996 H 0.60821 0.43741 0.68038 0.0
C2997 C 0.61396 0.52263 0.64807 0.0
C2998 C 0.13086 0.29129 0.6777 0.0
C2999 C 0.14367 0.26137 0.68476 0.0
H3000 H 0.10327 0.3153 0.63245 0.0
C3001 C 0.13728 0.23242 0.64675 0.0
H3002 H 0.13505 0.31455 0.705 0.0
C3003 C 0.1183 0.23228 0.60821 0.0
C3004 C 0.10565 0.26199 0.59958 0.0
H3005 H 0.14715 0.20969 0.64634 0.0
H3006 H 0.11316 0.2084 0.58621 0.0
C3007 C 0.11236 0.29164 0.63598 0.0
C3008 C 0.3157 0.19059 0.69546 0.0
C3009 C 0.29406 0.19022 0.681 0.0
H3010 H 0.34045 0.20862 0.76053 0.0
C3011 C 0.28023 0.20469 0.72888 0.0
H3012 H 0.32647 0.17682 0.66312 0.0
C3013 C 0.28802 0.22238 0.78562 0.0
C3014 C 0.30988 0.22546 0.79671 0.0
H3015 H 0.26333 0.20373 0.72102 0.0
H3016 H 0.27693 0.23493 0.819 0.0
C3017 C 0.32357 0.20824 0.75201 0.0
C3018 C 0.96756 0.9364 0.78794 0.0
C3019 C 0.96211 0.98227 0.6665 0.0
H3020 H 0.96022 0.94117 0.83692 0.0
C3021 C 0.94264 0.02213 0.68911 0.0
H3022 H 0.97861 0.91262 0.79074 0.0
C3023 C 0.929 0.03042 0.77856 0.0
C3024 C 0.93289 -0.00071 0.86167 0.0
H3025 H 0.94044 0.04189 0.65117 0.0
H3026 H 0.9186 0.05245 0.78326 0.0
C3027 C 0.9504 0.95584 0.86594 0.0
C3028 C 0.28815 0.94644 0.4749 0.0
C3029 C 0.30595 0.97835 0.41902 0.0
H3030 H 0.27389 0.96414 0.65476 0.0
C3031 C 0.31729 0.02459 0.4495 0.0
H3032 H 0.28363 0.92125 0.45489 0.0
C3033 C 0.31368 0.04508 0.54544 0.0
C3034 C 0.29738 0.02162 0.62055 0.0
H3035 H 0.32783 0.03804 0.41585 0.0
H3036 H 0.32108 0.06971 0.5556 0.0
C3037 C 0.28253 0.9753 0.61276 0.0
C3038 C 0.96193 0.21509 0.49491 0.0
C3039 C 0.94137 0.22856 0.48852 0.0
H3040 H 0.98396 0.18676 0.55611 0.0
C3041 C 0.92646 0.2192 0.53764 0.0
H3042 H 0.97389 0.22176 0.45844 0.0
C3043 C 0.93224 0.19907 0.59358 0.0
C3044 C 0.95306 0.18777 0.60324 0.0
H3045 H 0.9103 0.22821 0.53372 0.0
H3046 H 0.92043 0.19243 0.62974 0.0
C3047 C 0.96768 0.19493 0.55137 0.0
C3048 C 0.68085 0.78102 0.27236 0.0
C3049 C 0.68491 0.75223 0.20795 0.0
H3050 H 0.69088 0.80611 0.37996 0.0
C3051 C 0.70444 0.72312 0.19938 0.0
H3052 H 0.6667 0.79657 0.26861 0.0
C3053 C 0.72318 0.71786 0.25704 0.0
C3054 C 0.71791 0.76186 0.36051 0.0
H3055 H 0.7046 0.70559 0.1569 0.0
H3056 H 0.7349 0.69796 0.24604 0.0
C3057 C 0.69563 0.78664 0.34401 0.0
C3058 C 0.0462 0.04258 0.16953 0.0
C3059 C 0.06397 -0.0006 0.16875 0.0
H3060 H 0.01745 0.08262 0.24916 0.0
C3061 C 0.06769 0.96548 0.24756 0.0
H3062 H 0.03617 0.05602 0.19999 0.0
C3063 C 0.05391 0.97053 0.3376 0.0
C3064 C 0.0342 0.00918 0.36498 0.0
H3065 H 0.0783 0.94388 0.24046 0.0
H3066 H 0.05654 0.94994 0.37357 0.0
C3067 C 0.02866 0.059 0.24928 0.0
C3068 C 0.66842 0.00629 0.50512 0.0
C3069 C 0.67664 0.00561 0.58719 0.0
H3070 H 0.67543 0.00293 0.38733 0.0
C3071 C 0.70113 0.99601 0.61695 0.0
H3072 H 0.65213 0.01312 0.49582 0.0
C3073 C 0.72122 0.98606 0.56609 0.0
C3074 C 0.70884 0.98845 0.43761 0.0
H3075 H 0.70491 0.99673 0.66998 0.0
H3076 H 0.73467 0.97436 0.59031 0.0
C3077 C 0.68276 -0.00024 0.43507 0.0
C3078 C 0.03122 0.7217 0.55257 0.0
C3079 C 0.03811 0.75874 0.4407 0.0
H3080 H 0.05017 0.71391 0.65516 0.0
C3081 C 0.06086 0.782 0.45104 0.0
H3082 H 0.01848 0.70429 0.56734 0.0
C3083 C 0.07563 0.77944 0.52228 0.0
C3084 C 0.07104 0.75541 0.59262 0.0
H3085 H 0.06525 0.7999 0.41196 0.0
H3086 H 0.09009 0.79423 0.52229 0.0
C3087 C 0.05056 0.7286 0.60883 0.0
C3088 C 0.3228 0.69281 0.2084 0.0
C3089 C 0.30169 0.6865 0.19178 0.0
H3090 H 0.34467 0.71895 0.27351 0.0
C3091 C 0.28605 0.69682 0.23782 0.0
H3092 H 0.33509 0.68225 0.17765 0.0
C3093 C 0.29138 0.71679 0.29472 0.0
C3094 C 0.31251 0.72617 0.30695 0.0
H3095 H 0.26962 0.69113 0.22782 0.0
H3096 H 0.27891 0.72669 0.32651 0.0
C3097 C 0.32821 0.71284 0.26452 0.0
C3098 C 0.9232 0.47972 0.25322 0.0
C3099 C 0.93051 0.4739 0.33562 0.0
H3100 H 0.93075 0.49665 0.14003 0.0
C3101 C 0.95411 0.48254 0.3714 0.0
H3102 H 0.90736 0.47227 0.23969 0.0
C3103 C 0.97406 0.49927 0.32869 0.0
C3104 C 0.96353 0.50858 0.19899 0.0
H3105 H 0.95735 0.47658 0.42353 0.0
H3106 H 0.98744 0.50697 0.35807 0.0
C3107 C 0.93785 0.49502 0.18856 0.0
C3108 C 0.32058 0.52589 0.98542 0.0
C3109 C 0.3152 0.49065 0.9093 0.0
H3110 H 0.31095 0.54455 0.11122 0.0
C3111 C 0.29693 0.44857 0.91553 0.0
H3112 H 0.3319 0.54624 0.9763 0.0
C3113 C 0.28035 0.43416 0.99869 0.0
C3114 C 0.28809 0.48567 0.11055 0.0
H3115 H 0.2871 0.43617 0.94814 0.0
H3116 H 0.26885 0.41103 1.00162 0.0
C3117 C 0.30793 0.52305 0.07779 0.0
C3118 C 0.92292 0.71813 1.01252 0.0
C3119 C 0.92637 0.74254 0.94262 0.0
H3120 H 0.93483 0.69685 0.12034 0.0
C3121 C 0.94641 0.77 0.92402 0.0
H3122 H 0.90932 0.70139 1.01139 0.0
C3123 C 0.96663 0.77657 0.97749 0.0
C3124 C 0.96133 0.73861 0.08911 0.0
H3125 H 0.9464 0.78406 0.87692 0.0
H3126 H 0.97939 0.79354 0.96086 0.0
C3127 C 0.93855 0.71538 0.0815 0.0
C3128 C 0.69692 0.22461 0.6716 0.0
C3129 C 0.67595 0.25048 0.68889 0.0
H3130 H 0.72997 0.20267 0.71137 0.0
C3131 C 0.6711 0.27392 0.75957 0.0
H3132 H 0.69766 0.21057 0.62455 0.0
C3133 C 0.68602 0.27709 0.83005 0.0
C3134 C 0.70933 0.2553 0.8392 0.0
H3135 H 0.65661 0.28873 0.75951 0.0
H3136 H 0.6815 0.29519 0.86878 0.0
C3137 C 0.7167 0.21882 0.72695 0.0
C3138 C 0.03069 0.55013 0.75629 0.0
C3139 C 0.03634 0.49901 0.86997 0.0
H3140 H 0.03662 0.54634 0.70554 0.0
C3141 C 0.0535 0.45796 0.83706 0.0
H3142 H 0.02069 0.57522 0.75898 0.0
C3143 C 0.06494 0.45199 0.74316 0.0
C3144 C 0.06058 0.48719 0.66578 0.0
H3145 H 0.05533 0.43628 0.87097 0.0
H3146 H 0.07485 0.42976 0.7336 0.0
C3147 C 0.04509 0.53201 0.67228 0.0
C3148 C 0.7043 0.52817 0.11253 0.0
C3149 C 0.68215 0.50517 0.09623 0.0
H3150 H 0.73778 0.54615 0.07309 0.0
C3151 C 0.67632 0.48058 0.02672 0.0
H3152 H 0.70548 0.54382 0.15755 0.0
C3153 C 0.69138 0.47424 0.9564 0.0
C3154 C 0.71591 0.49334 0.94734 0.0
H3155 H 0.66089 0.46877 0.02625 0.0
H3156 H 0.686 0.45648 0.91855 0.0
C3157 C 0.72422 0.53046 0.05782 0.0
C3158 C 0.07036 0.3061 0.95145 0.0
C3159 C 0.04951 0.30435 0.92817 0.0
H3160 H 0.09321 0.28867 0.02402 0.0
C3161 C 0.03455 0.28752 0.96893 0.0
H3162 H 0.08165 0.32208 0.92535 0.0
C3163 C 0.04083 0.26939 0.02731 0.0
C3164 C 0.0622 0.26838 0.04681 0.0
H3165 H 0.01803 0.28807 0.95519 0.0
H3166 H 0.02911 0.25528 0.05575 0.0
C3167 C 0.07676 0.28777 1.00902 0.0
C3168 C 0.78212 0.27363 0.30111 0.0
C3169 C 0.78783 0.23655 0.18868 0.0
H3170 H 0.80207 0.28051 0.40236 0.0
C3171 C 0.81066 0.21327 0.19614 0.0
H3172 H 0.76944 0.29084 0.31733 0.0
C3173 C 0.82613 0.21556 0.26544 0.0
C3174 C 0.82238 0.23929 0.33628 0.0
H3175 H 0.81486 0.19554 0.15631 0.0
H3176 H 0.84 0.19927 0.26537 0.0
C3177 C 0.80222 0.26669 0.35499 0.0
C3178 C 0.46019 0.95093 0.3109 0.0
C3179 C 0.44282 0.98489 0.36345 0.0
H3180 H 0.47359 0.96272 0.12833 0.0
C3181 C 0.43151 0.03016 0.3283 0.0
H3182 H 0.46458 0.92626 0.33367 0.0
C3183 C 0.43487 0.04776 0.23056 0.0
C3184 C 0.45064 0.02191 0.15749 0.0
H3185 H 0.42111 0.04468 0.36077 0.0
H3186 H 0.42759 0.07227 0.21832 0.0
C3187 C 0.46522 0.9753 0.16937 0.0
C3188 C 0.82303 0.01567 0.966 0.0
C3189 C 0.81148 0.96861 0.94228 0.0
H3190 H 0.82338 0.0676 0.05934 0.0
C3191 C 0.7917 0.94041 0.99947 0.0
H3192 H 0.83382 0.02757 0.93095 0.0
C3193 C 0.78339 0.97736 0.1287 0.0
C3194 C 0.79848 0.02351 0.12982 0.0
H3195 H 0.78677 0.91471 0.98328 0.0
H3196 H 0.77386 0.96941 0.17146 0.0
C3197 C 0.8172 0.0417 0.0552 0.0
C3198 C 0.45889 0.22094 0.9983 0.0
C3199 C 0.43719 0.22716 0.9889 0.0
H3200 H 0.48306 0.19926 0.0614 0.0
C3201 C 0.42307 0.21194 0.03488 0.0
H3202 H 0.47032 0.23189 0.96402 0.0
C3203 C 0.43045 0.19337 0.09107 0.0
C3204 C 0.4521 0.18996 0.10404 0.0
H3205 H 0.40619 0.21474 0.02788 0.0
H3206 H 0.41927 0.1814 0.1245 0.0
C3207 C 0.46622 0.20233 0.05474 0.0
C3208 C 0.2233 0.72192 0.7562 0.0
C3209 C 0.22001 0.76497 0.86176 0.0
H3210 H 0.20342 0.71203 0.6574 0.0
C3211 C 0.19815 0.79112 0.84893 0.0
H3212 H 0.23453 0.70161 0.74306 0.0
C3213 C 0.18252 0.78723 0.7789 0.0
C3214 C 0.18528 0.75908 0.71294 0.0
H3215 H 0.19424 0.81052 0.88608 0.0
H3216 H 0.16874 0.80376 0.77732 0.0
C3217 C 0.20405 0.72888 0.70087 0.0
C3218 C 0.56898 0.96164 0.70963 0.0
C3219 C 0.55886 0.00781 0.67467 0.0
H3220 H 0.56892 0.91701 0.81736 0.0
C3221 C 0.54053 0.04146 0.72522 0.0
H3222 H 0.57973 0.94707 0.67842 0.0
C3223 C 0.53157 0.01427 0.86262 0.0
C3224 C 0.54534 0.96731 0.87503 0.0
H3225 H 0.53676 0.06658 0.70327 0.0
H3226 H 0.52235 0.02575 0.90304 0.0
C3227 C 0.56298 0.94249 0.80521 0.0
C3228 C 0.2164 0.02389 0.92005 0.0
C3229 C 0.20097 0.97838 0.90991 0.0
H3230 H 0.21304 0.07905 0.07621 0.0
C3231 C 0.18217 0.95659 0.98053 0.0
H3232 H 0.22619 0.03362 0.87933 0.0
C3233 C 0.17666 0.97793 0.07489 0.0
C3234 C 0.18844 0.02355 0.10737 0.0
H3235 H 0.17549 0.93148 0.96986 0.0
H3236 H 0.16538 0.96496 0.10679 0.0
C3237 C 0.20821 0.05417 0.05544 0.0
C3238 C 0.56084 0.78227 0.95559 0.0
C3239 C 0.53788 0.75931 0.94509 0.0
H3240 H 0.59031 0.79345 0.02652 0.0
C3241 C 0.53118 0.72143 0.05611 0.0
H3242 H 0.56541 0.80069 0.91747 0.0
C3243 C 0.5507 0.72761 0.11192 0.0
C3244 C 0.57127 0.75426 0.09598 0.0
H3245 H 0.51838 0.70413 0.07086 0.0
H3246 H 0.55032 0.71251 0.15774 0.0
C3247 C 0.57578 0.77885 0.02633 0.0
C3248 C 0.82247 0.69327 0.71512 0.0
C3249 C 0.80138 0.68969 0.69496 0.0
H3250 H 0.84433 0.71693 0.78397 0.0
C3251 C 0.78555 0.70174 0.73861 0.0
H3252 H 0.8348 0.68116 0.68644 0.0
C3253 C 0.79081 0.72094 0.79653 0.0
C3254 C 0.81206 0.72775 0.81237 0.0
H3255 H 0.76909 0.69763 0.72634 0.0
H3256 H 0.77831 0.73223 0.82638 0.0
C3257 C 0.82782 0.71263 0.77235 0.0
C3258 C 0.42614 0.51183 0.77961 0.0
C3259 C 0.43261 0.48735 0.84833 0.0
H3260 H 0.43456 0.53636 0.67136 0.0
C3261 C 0.45487 0.46455 0.86308 0.0
H3262 H 0.41063 0.52347 0.78029 0.0
C3263 C 0.47432 0.46225 0.80723 0.0
C3264 C 0.46485 0.49984 0.69692 0.0
H3265 H 0.45642 0.44883 0.90791 0.0
H3266 H 0.48807 0.4466 0.82112 0.0
C3267 C 0.44048 0.51859 0.70857 0.0
C3268 C 0.79851 0.45667 0.41762 0.0
C3269 C 0.81445 0.50144 0.41481 0.0
H3270 H 0.77317 0.41295 0.50098 0.0
C3271 C 0.81877 0.53483 0.49471 0.0
H3272 H 0.78975 0.44194 0.44958 0.0
C3273 C 0.80698 0.5275 0.58737 0.0
C3274 C 0.78917 0.48678 0.61661 0.0
H3275 H 0.82869 0.55721 0.48699 0.0
H3276 H 0.80942 0.548 0.62362 0.0
C3277 C 0.78352 0.4376 0.50011 0.0
C3278 C 0.43907 0.71374 0.58492 0.0
C3279 C 0.46185 0.73709 0.59254 0.0
H3280 H 0.40976 0.69982 0.51523 0.0
C3281 C 0.46744 0.77424 0.48016 0.0
H3282 H 0.43506 0.6957 0.62435 0.0
C3283 C 0.44739 0.76725 0.42622 0.0
C3284 C 0.42729 0.73992 0.44494 0.0
H3285 H 0.48011 0.79142 0.46378 0.0
H3286 H 0.44741 0.78131 0.37911 0.0
C3287 C 0.42362 0.71603 0.51551 0.0
C3288 C 0.17083 0.2806 0.27643 0.0
C3289 C 0.18554 0.26394 0.23422 0.0
H3290 H 0.1659 0.31304 0.36315 0.0
C3291 C 0.20713 0.26859 0.24891 0.0
H3292 H 0.1541 0.27907 0.2653 0.0
C3293 C 0.21357 0.2872 0.30669 0.0
C3294 C 0.19867 0.30074 0.35237 0.0
H3295 H 0.21901 0.25673 0.21738 0.0
H3296 H 0.23026 0.29019 0.31667 0.0
C3297 C 0.17739 0.29919 0.33372 0.0
C3298 C 0.53121 0.56023 0.24726 0.0
C3299 C 0.53874 0.51206 0.36463 0.0
H3300 H 0.53737 0.55604 0.19654 0.0
C3301 C 0.55749 0.47239 0.33525 0.0
H3302 H 0.52024 0.58416 0.24818 0.0
C3303 C 0.56918 0.46554 0.24229 0.0
C3304 C 0.56366 0.49836 0.16207 0.0
H3305 H 0.56034 0.45189 0.37121 0.0
H3306 H 0.57996 0.4442 0.23481 0.0
C3307 C 0.54647 0.54182 0.16459 0.0
C3308 C 0.19149 0.47862 0.45619 0.0
C3309 C 0.21182 0.51533 0.42313 0.0
H3310 H 0.16694 0.45679 0.55787 0.0
C3311 C 0.21986 0.56712 0.53424 0.0
H3312 H 0.18905 0.45642 0.42437 0.0
C3313 C 0.20293 0.55379 0.61694 0.0
C3314 C 0.18411 0.51259 0.62358 0.0
H3315 H 0.23166 0.5899 0.53125 0.0
H3316 H 0.21296 0.5656 0.58431 0.0
C3317 C 0.17845 0.47682 0.54836 0.0
C3318 C 0.56464 0.2617 0.41723 0.0
C3319 C 0.5544 0.29375 0.42412 0.0
H3320 H 0.57586 0.21578 0.46025 0.0
C3321 C 0.54832 0.30318 0.49008 0.0
H3322 H 0.56955 0.25226 0.36896 0.0
C3323 C 0.55263 0.28176 0.54598 0.0
C3324 C 0.56277 0.24936 0.53857 0.0
H3325 H 0.53982 0.32693 0.49946 0.0
H3326 H 0.54778 0.29116 0.59465 0.0
C3327 C 0.56854 0.24009 0.47226 0.0
C3328 C 0.27696 0.38357 0.39917 0.0
C3329 C 0.29531 0.39131 0.43765 0.0
H3330 H 0.2615 0.35004 0.32607 0.0
C3331 C 0.3127 0.36902 0.42639 0.0
H3332 H 0.26321 0.39972 0.40479 0.0
C3333 C 0.31171 0.34035 0.38181 0.0
C3334 C 0.29358 0.3328 0.34312 0.0
H3335 H 0.32749 0.3737 0.45118 0.0
H3336 H 0.32544 0.32394 0.37731 0.0
C3337 C 0.27605 0.35499 0.35314 0.0
C3338 C 0.96865 0.85676 0.41585 0.0
C3339 C 0.95052 0.83768 0.43315 0.0
H3340 H 0.98204 0.89806 0.35683 0.0
C3341 C 0.9314 0.84702 0.40154 0.0
H3342 H 0.98359 0.85092 0.43994 0.0
C3343 C 0.93053 0.87363 0.35273 0.0
C3344 C 0.9487 0.89262 0.33474 0.0
H3345 H 0.91709 0.83331 0.41413 0.0
H3346 H 0.91542 0.87971 0.32989 0.0
C3347 C 0.96773 0.88395 0.36803 0.0
C3348 C 0.28184 0.89676 0.86676 0.0
C3349 C 0.29372 0.89762 0.92773 0.0
H3350 H 0.27308 0.86809 0.7765 0.0
C3351 C 0.30649 0.86834 0.94077 0.0
H3352 H 0.27196 0.91861 0.85347 0.0
C3353 C 0.30714 0.83966 0.89662 0.0
C3354 C 0.29541 0.83851 0.83612 0.0
H3355 H 0.31592 0.86719 0.9863 0.0
H3356 H 0.31683 0.81768 0.91036 0.0
C3357 C 0.28274 0.86783 0.82165 0.0
C3358 C 0.96618 0.36373 0.83213 0.0
C3359 C 0.95327 0.39282 0.84432 0.0
H3360 H 0.97788 0.31467 0.86686 0.0
C3361 C 0.94155 0.39183 0.9049 0.0
H3362 H 0.97621 0.36342 0.78817 0.0
C3363 C 0.94194 0.36296 0.94974 0.0
C3364 C 0.9546 0.33353 0.93756 0.0
H3365 H 0.93188 0.41391 0.91743 0.0
H3366 H 0.93213 0.36363 0.99415 0.0
C3367 C 0.96702 0.33519 0.87799 0.0
C3368 C 0.68879 0.63107 0.68874 0.0
C3369 C 0.705 0.65617 0.68893 0.0
H3370 H 0.67535 0.5853 0.64303 0.0
C3371 C 0.72055 0.65198 0.63804 0.0
H3372 H 0.67632 0.63269 0.72525 0.0
C3373 C 0.71976 0.62455 0.5898 0.0
C3374 C 0.70346 0.5997 0.59019 0.0
H3375 H 0.73373 0.66951 0.63592 0.0
H3376 H 0.73223 0.62235 0.55306 0.0
C3377 C 0.68811 0.60369 0.64088 0.0
C3378 C 0.03496 0.10613 0.63072 0.0
C3379 C 0.04576 0.10681 0.69369 0.0
H3380 H 0.0264 0.13228 0.53788 0.0
C3381 C 0.05659 0.13793 0.70826 0.0
H3382 H 0.02642 0.08323 0.61624 0.0
C3383 C 0.05649 0.16648 0.66272 0.0
C3384 C 0.04598 0.16543 0.59941 0.0
H3385 H 0.0653 0.14039 0.75504 0.0
H3386 H 0.06493 0.18968 0.6771 0.0
C3387 C 0.03511 0.13449 0.58469 0.0
C3388 C 0.72343 0.10354 0.13572 0.0
C3389 C 0.70591 0.0963 0.09338 0.0
H3390 H 0.73708 0.13641 0.21278 0.0
C3391 C 0.68841 0.11871 0.09967 0.0
H3392 H 0.73731 0.08719 0.13376 0.0
C3393 C 0.68831 0.14695 0.14489 0.0
C3394 C 0.70557 0.15401 0.18748 0.0
H3395 H 0.67447 0.11442 0.07014 0.0
H3396 H 0.67465 0.1637 0.1457 0.0
C3397 C 0.7233 0.13193 0.18151 0.0
C3398 C 0.06195 0.6586 0.14939 0.0
C3399 C 0.04576 0.66086 0.10054 0.0
H3400 H 0.07522 0.63216 0.23469 0.0
C3401 C 0.02967 0.6358 0.10432 0.0
H3402 H 0.07448 0.67735 0.14917 0.0
C3403 C 0.03035 0.60881 0.15286 0.0
C3404 C 0.04682 0.6061 0.20137 0.0
H3405 H 0.01671 0.63653 0.06856 0.0
H3406 H 0.0179 0.58974 0.15178 0.0
C3407 C 0.06235 0.63224 0.19914 0.0
C3408 C 0.77645 0.38183 0.91308 0.0
C3409 C 0.79535 0.39321 0.94357 0.0
H3410 H 0.76142 0.3482 0.84023 0.0
C3411 C 0.81382 0.37522 0.92493 0.0
H3412 H 0.76173 0.39367 0.92702 0.0
C3413 C 0.81339 0.34709 0.87955 0.0
C3414 C 0.79483 0.33725 0.84563 0.0
H3415 H 0.82895 0.38338 0.94342 0.0
H3416 H 0.82777 0.33292 0.87117 0.0
C3417 C 0.77623 0.35498 0.86403 0.0
C3418 C 0.43385 0.87988 0.86619 0.0
C3419 C 0.45231 0.89891 0.85112 0.0
H3420 H 0.41949 0.83795 0.92069 0.0
C3421 C 0.47096 0.88903 0.88543 0.0
H3422 H 0.41896 0.88677 0.84317 0.0
C3423 C 0.47116 0.86067 0.93097 0.0
C3424 C 0.45274 0.84141 0.94477 0.0
H3425 H 0.48549 0.90299 0.87667 0.0
H3426 H 0.48578 0.85391 0.95594 0.0
C3427 C 0.43404 0.85189 0.91199 0.0
C3428 C 0.79856 0.8373 0.40751 0.0
C3429 C 0.7934 0.83786 0.33822 0.0
H3430 H 0.80157 0.86492 0.50079 0.0
C3431 C 0.78815 0.87035 0.31038 0.0
H3432 H 0.80317 0.81323 0.43141 0.0
C3433 C 0.78727 0.90067 0.35088 0.0
C3434 C 0.79193 0.89978 0.42076 0.0
H3435 H 0.78454 0.8724 0.25752 0.0
H3436 H 0.78316 0.92497 0.32702 0.0
C3437 C 0.79772 0.86735 0.44778 0.0
C3438 C 0.47014 0.3568 0.43769 0.0
C3439 C 0.4528 0.33383 0.4423 0.0
H3440 H 0.48415 0.40125 0.38845 0.0
C3441 C 0.43598 0.34027 0.39698 0.0
H3442 H 0.48383 0.35263 0.46953 0.0
C3443 C 0.43603 0.36863 0.35124 0.0
C3444 C 0.45323 0.39182 0.34594 0.0
H3445 H 0.42238 0.32339 0.39749 0.0
H3446 H 0.42209 0.3726 0.32157 0.0
C3447 C 0.47034 0.38493 0.39058 0.0
C3448 C 0.22101 0.61826 0.11982 0.0
C3449 C 0.20167 0.60487 0.095 0.0
H3450 H 0.23709 0.65658 0.18113 0.0
C3451 C 0.1832 0.62133 0.11928 0.0
H3452 H 0.23565 0.60649 0.10406 0.0
C3453 C 0.18396 0.64947 0.16547 0.0
C3454 C 0.20325 0.66329 0.18937 0.0
H3455 H 0.16786 0.61209 0.10351 0.0
H3456 H 0.16924 0.66101 0.18142 0.0
C3457 C 0.22181 0.64716 0.1648 0.0
C3458 C 0.53659 0.09661 0.10691 0.0
C3459 C 0.54095 0.09776 0.17723 0.0
H3460 H 0.53324 0.12423 1.01218 0.0
C3461 C 0.54485 0.13134 0.2034 0.0
H3462 H 0.53336 0.07192 0.08333 0.0
C3463 C 0.54497 0.16154 0.16213 0.0
C3464 C 0.54106 0.16045 0.09173 0.0
H3465 H 0.5479 0.13458 0.25669 0.0
H3466 H 0.54849 0.18607 0.18596 0.0
C3467 C 0.53661 0.12704 0.06539 0.0
C3468 C 0.21283 0.09843 0.67687 0.0
C3469 C 0.20729 0.09958 0.60743 0.0
H3470 H 0.21727 0.12612 0.77103 0.0
C3471 C 0.20243 0.13295 0.58192 0.0
H3472 H 0.2166 0.07378 0.69988 0.0
C3473 C 0.20298 0.16316 0.62287 0.0
C3474 C 0.20811 0.16211 0.69242 0.0
H3475 H 0.19813 0.13597 0.52941 0.0
H3476 H 0.19883 0.18762 0.59968 0.0
C3477 C 0.21317 0.12883 0.71829 0.0
C3478 C 0.52808 0.60976 0.66248 0.0
C3479 C 0.54701 0.59913 0.69401 0.0
H3480 H 0.51271 0.64306 0.58959 0.0
C3481 C 0.56526 0.61802 0.67609 0.0
H3482 H 0.5135 0.59752 0.6763 0.0
C3483 C 0.56456 0.64583 0.62966 0.0
C3484 C 0.54587 0.65538 0.5959 0.0
H3485 H 0.58037 0.61135 0.69729 0.0
H3486 H 0.57865 0.66063 0.6216 0.0
C3487 C 0.52756 0.63676 0.6136 0.0
C3488 C 0.33086 0.13009 0.16775 0.0
C3489 C 0.31331 0.15142 0.15582 0.0
H3490 H 0.34488 0.08067 0.14817 0.0
C3491 C 0.29565 0.13843 0.122 0.0
H3492 H 0.34467 0.14 0.19362 0.0
C3493 C 0.29469 0.10352 0.1066 0.0
C3494 C 0.31234 0.08227 0.11591 0.0
H3495 H 0.28182 0.15443 0.11374 0.0
H3496 H 0.28003 0.09293 0.08832 0.0
C3497 C 0.3307 0.09594 0.14477 0.0
C3498 C 0.91839 0.13111 0.11782 0.0
C3499 C 0.93649 0.15081 0.12951 0.0
H3500 H 0.90177 0.08598 0.14612 0.0
C3501 C 0.95284 0.13718 0.16949 0.0
H3502 H 0.9052 0.14171 0.08963 0.0
C3503 C 0.95203 0.10267 0.19039 0.0
C3504 C 0.93405 0.08253 0.17691 0.0
H3505 H 0.96685 0.1523 0.17994 0.0
H3506 H 0.96552 0.09167 0.21632 0.0
C3507 C 0.91676 0.0982 0.14565 0.0
C3508 C 0.67116 0.89277 0.90368 0.0
C3509 C 0.68861 0.90477 0.94017 0.0
H3510 H 0.65835 0.85241 0.84153 0.0
C3511 C 0.70556 0.88215 0.95212 0.0
H3512 H 0.65705 0.90786 0.90095 0.0
C3513 C 0.70521 0.84861 0.9262 0.0
C3514 C 0.68868 0.83825 0.8835 0.0
H3515 H 0.7194 0.89069 0.97928 0.0
H3516 H 0.71854 0.83165 0.93543 0.0
C3517 C 0.6716 0.86048 0.87242 0.0
C3518 C 0.06116 0.88638 0.83203 0.0
C3519 C 0.05896 0.91543 0.87403 0.0
H3520 H 0.06047 0.83139 0.8233 0.0
C3521 C 0.05459 0.91023 0.94254 0.0
H3522 H 0.06452 0.88934 0.77894 0.0
C3523 C 0.05274 0.87671 0.9685 0.0
C3524 C 0.05483 0.84766 0.92632 0.0
H3525 H 0.05228 0.93197 0.97603 0.0
H3526 H 0.04974 0.87372 0.02161 0.0
C3527 C 0.05899 0.85301 0.85767 0.0
C3528 C 0.2907 0.62961 0.65407 0.0
C3529 C 0.30918 0.64754 0.67094 0.0
H3530 H 0.27744 0.58211 0.61779 0.0
C3531 C 0.32881 0.63117 0.66484 0.0
H3532 H 0.27541 0.64197 0.65874 0.0
C3533 C 0.33 0.59738 0.6402 0.0
C3534 C 0.31153 0.57907 0.62493 0.0
H3535 H 0.34319 0.64469 0.67809 0.0
H3536 H 0.34529 0.5861 0.6309 0.0
C3537 C 0.29187 0.59548 0.63138 0.0
C3538 C 0.96143 0.63494 0.63019 0.0
C3539 C 0.94414 0.64904 0.59552 0.0
H3540 H 0.97356 0.59204 0.68674 0.0
C3541 C 0.92553 0.62956 0.58942 0.0
H3542 H 0.97592 0.64958 0.6356 0.0
C3543 C 0.92405 0.59673 0.61932 0.0
C3544 C 0.94124 0.58279 0.65493 0.0
H3545 H 0.91191 0.64021 0.56349 0.0
H3546 H 0.90923 0.58308 0.61707 0.0
C3547 C 0.96001 0.60215 0.65957 0.0
C3548 C 0.67312 0.39248 0.39005 0.0
C3549 C 0.6912 0.40883 0.41526 0.0
H3550 H 0.66059 0.34786 0.33974 0.0
C3551 C 0.7109 0.39235 0.40992 0.0
H3552 H 0.65776 0.40414 0.39603 0.0
C3553 C 0.71247 0.35992 0.3793 0.0
C3554 C 0.69433 0.3436 0.35431 0.0
H3555 H 0.72503 0.4045 0.42974 0.0
H3556 H 0.72772 0.34728 0.3764 0.0
C3557 C 0.6747 0.36013 0.35913 0.0
C3558 C 0.04413 0.35912 0.37086 0.0
C3559 C 0.06212 0.3449 0.40148 0.0
H3560 H 0.02869 0.40584 0.34029 0.0
C3561 C 0.08047 0.36483 0.40713 0.0
H3562 H 0.02994 0.3438 0.3646 0.0
C3563 C 0.0805 0.3989 0.3838 0.0
C3564 C 0.06164 0.41469 0.36324 0.0
H3565 H 0.09477 0.35394 0.42852 0.0
H3566 H 0.09523 0.41252 0.38061 0.0
C3567 C 0.04346 0.39439 0.35633 0.0
C3568 C 0.82384 0.09748 0.64796 0.0
C3569 C 0.80498 0.08077 0.63057 0.0
H3570 H 0.83799 0.14316 0.68974 0.0
C3571 C 0.78568 0.09712 0.64401 0.0
H3572 H 0.83891 0.08534 0.63788 0.0
C3573 C 0.78511 0.12989 0.67328 0.0
C3574 C 0.80391 0.14714 0.68846 0.0
H3575 H 0.77096 0.08507 0.62976 0.0
H3576 H 0.76999 0.14232 0.68152 0.0
C3577 C 0.8233 0.13058 0.67674 0.0
C3578 C 0.41557 0.13184 0.62226 0.0
C3579 C 0.43334 0.15281 0.63299 0.0
H3580 H 0.40144 0.08243 0.64175 0.0
C3581 C 0.45113 0.13928 0.66543 0.0
H3582 H 0.40166 0.14206 0.59729 0.0
C3583 C 0.45201 0.10424 0.67998 0.0
C3584 C 0.43419 0.0833 0.67164 0.0
H3585 H 0.46516 0.15487 0.67245 0.0
H3586 H 0.4668 0.09323 0.69622 0.0
C3587 C 0.41568 0.09753 0.64469 0.0
C3588 C 0.16877 0.90335 0.36534 0.0
C3589 C 0.18524 0.91624 0.40557 0.0
H3590 H 0.15683 0.85963 0.30953 0.0
C3591 C 0.20193 0.89412 0.42273 0.0
H3592 H 0.15532 0.91921 0.35331 0.0
C3593 C 0.20169 0.8594 0.40464 0.0
C3594 C 0.18575 0.84679 0.36235 0.0
H3595 H 0.21543 0.90403 0.44927 0.0
H3596 H 0.21481 0.84303 0.4196 0.0
C3597 C 0.16936 0.86904 0.34197 0.0
C3598 C 0.53795 0.86608 0.42246 0.0
C3599 C 0.55608 0.84628 0.43493 0.0
H3600 H 0.52545 0.9138 0.38501 0.0
C3601 C 0.576 0.86117 0.42466 0.0
H3602 H 0.52242 0.85508 0.43006 0.0
C3603 C 0.57778 0.89492 0.39951 0.0
C3604 C 0.55966 0.91467 0.38637 0.0
H3605 H 0.59019 0.84669 0.4359 0.0
H3606 H 0.59326 0.90513 0.38856 0.0
C3607 C 0.53973 0.89981 0.39753 0.0
C3608 C 0.79011 0.62567 0.17021 0.0
C3609 C 0.80773 0.64747 0.1658 0.0
H3610 H 0.7778 0.57477 0.15341 0.0
C3611 C 0.82655 0.63476 0.13873 0.0
H3612 H 0.77525 0.63535 0.18924 0.0
C3613 C 0.82778 0.60057 0.1165 0.0
C3614 C 0.81053 0.5783 0.12432 0.0
H3615 H 0.84039 0.6509 0.13614 0.0
H3616 H 0.84221 0.5915 0.09355 0.0
C3617 C 0.79157 0.59114 0.1502 0.0
C3618 C 0.46067 0.60062 0.15985 0.0
C3619 C 0.44093 0.58425 0.16465 0.0
H3620 H 0.47766 0.6458 0.12753 0.0
C3621 C 0.42304 0.60087 0.13853 0.0
H3622 H 0.47471 0.58836 0.18022 0.0
C3623 C 0.42487 0.6329 0.10638 0.0
C3624 C 0.44445 0.64963 0.10291 0.0
H3625 H 0.4076 0.58967 0.14477 0.0
H3626 H 0.41088 0.64487 0.08538 0.0
C3627 C 0.46241 0.63318 0.12935 0.0
C3628 C 0.16881 0.36624 0.86552 0.0
C3629 C 0.18494 0.34366 0.88596 0.0
H3630 H 0.15543 0.41647 0.87568 0.0
C3631 C 0.20072 0.3556 0.92972 0.0
H3632 H 0.15633 0.35731 0.83233 0.0
C3633 C 0.20116 0.39038 0.9487 0.0
C3634 C 0.18533 0.41349 0.92678 0.0
H3635 H 0.21353 0.33872 0.9451 0.0
H3636 H 0.21421 0.39937 0.97934 0.0
C3637 C 0.16871 0.40056 0.88762 0.0
C3638 C 0.54333 0.35738 0.86696 0.0
C3639 C 0.56093 0.34287 0.8995 0.0
H3640 H 0.52868 0.40412 0.832 0.0
C3641 C 0.57909 0.3628 0.90908 0.0
H3642 H 0.52925 0.34215 0.85836 0.0
C3643 C 0.57928 0.39727 0.88857 0.0
C3644 C 0.56078 0.41319 0.86547 0.0
H3645 H 0.59313 0.35161 0.93164 0.0
H3646 H 0.59396 0.41093 0.88856 0.0
C3647 C 0.54294 0.39273 0.85264 0.0
loop_
_geom_bond_atom_site_label_1
_geom_bond_atom_site_label_2
_geom_bond_distance
_geom_bond_site_symmetry_2
_ccdc_geom_bond_type
Tb0 N29 2.617 . S
Tb0 N35 2.572 . S
Tb0 O44 2.465 . S
Tb0 O45 2.387 . S
Tb0 O47 2.428 . S
Tb0 O48 2.308 . S
Tb0 O52 2.349 . S
Tb0 O55 2.393 . S
Tb0 C64 2.802 . S
C1 N2 1.379 . S
C1 C4 1.416 . S
C1 C8 1.424 . S
N2 C1 1.379 . S
N2 C5 1.334 . S
N2 Tb11 2.617 . S
C3 C5 1.390 . S
C3 C6 1.339 . S
C3 H23 0.930 . S
C4 C1 1.416 . S
C4 C6 1.416 . S
C4 C10 1.448 . S
C5 N2 1.334 . S
C5 C3 1.390 . S
C5 H16 0.930 . S
C6 C3 1.339 . S
C6 C4 1.416 . S
C6 H27 0.930 . S
C7 C8 1.413 . S
C7 C9 1.427 . S
C7 C13 1.416 . S
C8 C1 1.424 . S
C8 C7 1.413 . S
C8 N12 1.361 . S
C9 C7 1.427 . S
C9 C10 1.328 . S
C9 H24 0.929 . S
C10 C4 1.448 . S
C10 C9 1.328 . S
C10 H25 0.930 . S
Tb11 N2 2.617 . S
Tb11 N12 2.572 . S
Tb11 O46 2.349 . S
Tb11 O49 2.393 . S
Tb11 O50 2.465 . S
Tb11 O51 2.387 . S
Tb11 O53 2.428 . S
Tb11 O54 2.308 . S
Tb11 C75 2.802 . S
N12 C8 1.361 . S
N12 Tb11 2.572 . S
N12 C14 1.340 . S
C13 C7 1.416 . S
C13 C15 1.332 . S
C13 H21 0.931 . S
C14 N12 1.340 . S
C14 C15 1.407 . S
C14 H20 0.930 . S
C15 C13 1.332 . S
C15 C14 1.407 . S
C15 H17 0.929 . S
H16 C5 0.930 . S
H17 C15 0.929 . S
H18 C33 0.930 . S
H19 C40 0.929 . S
H20 C14 0.930 . S
H21 C13 0.931 . S
H22 C36 0.930 . S
H23 C3 0.930 . S
H24 C9 0.929 . S
H25 C10 0.930 . S
H26 C31 0.930 . S
H27 C6 0.930 . S
H28 C39 0.931 . S
N29 Tb0 2.617 . S
N29 C30 1.379 . S
N29 C33 1.334 . S
C30 N29 1.379 . S
C30 C32 1.416 . S
C30 C38 1.424 . S
C31 H26 0.930 . S
C31 C33 1.390 . S
C31 C34 1.339 . S
C32 C30 1.416 . S
C32 C34 1.416 . S
C32 C65 1.448 . S
C33 H18 0.930 . S
C33 N29 1.334 . S
C33 C31 1.390 . S
C34 C31 1.339 . S
C34 C32 1.416 . S
C34 H41 0.930 . S
N35 Tb0 2.572 . S
N35 C36 1.340 . S
N35 C38 1.361 . S
C36 H22 0.930 . S
C36 N35 1.340 . S
C36 C40 1.407 . S
C37 C38 1.413 . S
C37 C39 1.416 . S
C37 C66 1.427 . S
C38 C30 1.424 . S
C38 N35 1.361 . S
C38 C37 1.413 . S
C39 H28 0.931 . S
C39 C37 1.416 . S
C39 C40 1.332 . S
C40 H19 0.929 . S
C40 C36 1.407 . S
C40 C39 1.332 . S
H41 C34 0.930 . S
H42 C65 0.930 . S
H43 C66 0.929 . S
O44 Tb0 2.465 . S
O44 C64 1.264 . S
O45 Tb0 2.387 . S
O45 C56 1.264 . S
O46 Tb11 2.349 . S
O46 C56 1.243 . S
O47 Tb0 2.428 . S
O47 C64 1.256 . S
O48 Tb0 2.308 . S
O48 C63 1.266 . S
O49 Tb11 2.393 . S
O49 C63 1.248 . S
O50 Tb11 2.465 . S
O50 C75 1.264 . S
O51 Tb11 2.387 . S
O51 C67 1.264 . S
O52 Tb0 2.349 . S
O52 C67 1.243 . S
O53 Tb11 2.428 . S
O53 C75 1.256 . S
O54 Tb11 2.308 . S
O54 C74 1.266 . S
O55 Tb0 2.393 . S
O55 C74 1.248 . S
C56 O45 1.264 . S
C56 O46 1.243 . S
C57 C60 1.399 . S
C57 C62 1.383 . S
C57 C64 1.496 . S
C58 C59 1.399 . S
C58 C62 1.389 . S
C59 C58 1.399 . S
C59 C61 1.380 . S
C59 H76 0.929 . S
C60 C57 1.399 . S
C60 C61 1.392 . S
C60 H77 0.929 . S
C61 C59 1.380 . S
C61 C60 1.392 . S
C61 H78 0.929 . S
C62 C57 1.383 . S
C62 C58 1.389 . S
C62 H79 0.931 . S
C63 O48 1.266 . S
C63 O49 1.248 . S
C64 Tb0 2.802 . S
C64 O44 1.264 . S
C64 O47 1.256 . S
C64 C57 1.496 . S
C65 C32 1.448 . S
C65 H42 0.930 . S
C65 C66 1.328 . S
C66 C37 1.427 . S
C66 H43 0.929 . S
C66 C65 1.328 . S
C67 O51 1.264 . S
C67 O52 1.243 . S
C68 C71 1.399 . S
C68 C72 1.383 . S
C68 C75 1.496 1_556 S
C69 C70 1.399 . S
C69 C72 1.389 . S
C70 C69 1.399 . S
C70 C73 1.380 . S
C70 H80 0.929 . S
C71 C68 1.399 . S
C71 C73 1.392 . S
C71 H81 0.929 . S
C72 C68 1.383 . S
C72 C69 1.389 . S
C72 H82 0.931 . S
C73 C70 1.380 . S
C73 C71 1.392 . S
C73 H83 0.929 . S
C74 O54 1.266 . S
C74 O55 1.248 . S
C75 Tb11 2.802 . S
C75 O50 1.264 . S
C75 O53 1.256 . S
C75 C68 1.496 1_554 S
H76 C59 0.929 . S
H77 C60 0.929 . S
H78 C61 0.929 . S
H79 C62 0.931 . S
H80 C70 0.929 . S
H81 C71 0.929 . S
H82 C72 0.931 . S
H83 C73 0.929 . S
Tb84 N113 2.617 . S
Tb84 N119 2.572 1_655 S
Tb84 O128 2.469 . S
Tb84 O129 2.387 . S
Tb84 O131 2.428 . S
Tb84 O132 2.308 1_545 S
Tb84 O136 2.349 . S
Tb84 O139 2.393 . S
Tb84 C148 2.802 . S
C85 N86 1.379 . S
C85 C88 1.416 . S
C85 C92 1.424 . S
N86 C85 1.379 . S
N86 C89 1.334 . S
N86 Tb95 2.617 . S
C87 C89 1.390 . S
C87 C90 1.339 . S
C87 H107 0.930 . S
C88 C85 1.416 . S
C88 C90 1.416 . S
C88 C94 1.448 . S
C89 N86 1.334 . S
C89 C87 1.390 . S
C89 H100 0.930 . S
C90 C87 1.339 . S
C90 C88 1.416 . S
C90 H111 0.930 . S
C91 C92 1.413 . S
C91 C93 1.427 . S
C91 C97 1.416 1_565 S
C92 C85 1.424 . S
C92 C91 1.413 . S
C92 N96 1.361 . S
C93 C91 1.427 . S
C93 C94 1.328 . S
C93 H108 0.929 . S
C94 C88 1.448 . S
C94 C93 1.328 . S
C94 H109 0.930 . S
Tb95 N86 2.617 . S
Tb95 N96 2.572 . S
Tb95 O130 2.349 . S
Tb95 O133 2.393 . S
Tb95 O134 2.471 . S
Tb95 O135 2.387 . S
Tb95 O137 2.428 . S
Tb95 O138 2.308 1_565 S
Tb95 C159 2.802 . S
N96 C92 1.361 . S
N96 Tb95 2.572 . S
N96 C98 1.340 1_565 S
C97 C91 1.416 1_545 S
C97 C99 1.332 . S
C97 H105 0.931 . S
C98 N96 1.340 1_545 S
C98 C99 1.407 . S
C98 H104 0.930 . S
C99 C97 1.332 . S
C99 C98 1.407 . S
C99 H101 0.929 . S
H100 C89 0.930 . S
H101 C99 0.929 . S
H102 C117 0.930 . S
H103 C124 0.929 . S
H104 C98 0.930 . S
H105 C97 0.931 . S
H106 C120 0.930 1_655 S
H107 C87 0.930 . S
H108 C93 0.929 . S
H109 C94 0.930 . S
H110 C115 0.930 . S
H111 C90 0.930 . S
H112 C123 0.931 . S
N113 Tb84 2.617 . S
N113 C114 1.379 1_655 S
N113 C117 1.334 . S
C114 N113 1.379 1_455 S
C114 C116 1.416 . S
C114 C122 1.424 . S
C115 H110 0.930 . S
C115 C117 1.390 1_455 S
C115 C118 1.339 . S
C116 C114 1.416 . S
C116 C118 1.416 . S
C116 C149 1.448 . S
C117 H102 0.930 . S
C117 N113 1.334 . S
C117 C115 1.390 1_655 S
C118 C115 1.339 . S
C118 C116 1.416 . S
C118 H125 0.930 . S
N119 Tb84 2.572 1_455 S
N119 C120 1.340 1_545 S
N119 C122 1.361 . S
C120 H106 0.930 1_455 S
C120 N119 1.340 1_565 S
C120 C124 1.407 . S
C121 C122 1.413 . S
C121 C123 1.416 1_545 S
C121 C150 1.427 . S
C122 C114 1.424 . S
C122 N119 1.361 . S
C122 C121 1.413 . S
C123 H112 0.931 . S
C123 C121 1.416 1_565 S
C123 C124 1.332 . S
C124 H103 0.929 . S
C124 C120 1.407 . S
C124 C123 1.332 . S
H125 C118 0.930 . S
H126 C149 0.930 . S
H127 C150 0.929 . S
O128 Tb84 2.469 . S
O128 C148 1.273 . S
O129 Tb84 2.387 . S
O129 C140 1.264 1_545 S
O130 Tb95 2.349 . S
O130 C140 1.243 . S
O131 Tb84 2.428 . S
O131 C148 1.256 . S
O132 Tb84 2.308 1_565 S
O132 C147 1.266 . S
O133 Tb95 2.393 . S
O133 C147 1.248 . S
O134 Tb95 2.471 . S
O134 C159 1.280 . S
O135 Tb95 2.387 . S
O135 C151 1.264 1_565 S
O136 Tb84 2.349 . S
O136 C151 1.243 . S
O137 Tb95 2.428 . S
O137 C159 1.256 . S
O138 Tb95 2.308 1_545 S
O138 C158 1.266 . S
O139 Tb84 2.393 . S
O139 C158 1.248 . S
C140 O129 1.264 1_565 S
C140 O130 1.243 . S
C141 C144 1.399 . S
C141 C146 1.383 . S
C141 C148 1.496 . S
C142 C143 1.399 . S
C142 C146 1.389 . S
C143 C142 1.399 . S
C143 C145 1.380 . S
C143 H160 0.929 . S
C144 C141 1.399 . S
C144 C145 1.392 . S
C144 H161 0.929 . S
C145 C143 1.380 . S
C145 C144 1.392 . S
C145 H162 0.929 . S
C146 C141 1.383 . S
C146 C142 1.389 . S
C146 H163 0.931 1_545 S
C147 O132 1.266 . S
C147 O133 1.248 . S
C148 Tb84 2.802 . S
C148 O128 1.273 . S
C148 O131 1.256 . S
C148 C141 1.496 . S
C149 C116 1.448 . S
C149 H126 0.930 . S
C149 C150 1.328 . S
C150 C121 1.427 . S
C150 H127 0.929 . S
C150 C149 1.328 . S
C151 O135 1.264 1_545 S
C151 O136 1.243 . S
C152 C155 1.399 . S
C152 C156 1.383 . S
C152 C159 1.496 1_556 S
C153 C154 1.399 . S
C153 C156 1.389 . S
C154 C153 1.399 . S
C154 C157 1.380 . S
C154 H164 0.929 . S
C155 C152 1.399 . S
C155 C157 1.392 . S
C155 H165 0.929 . S
C156 C152 1.383 . S
C156 C153 1.389 . S
C156 H166 0.931 1_565 S
C157 C154 1.380 . S
C157 C155 1.392 . S
C157 H167 0.929 . S
C158 O138 1.266 . S
C158 O139 1.248 . S
C159 Tb95 2.802 . S
C159 O134 1.280 . S
C159 O137 1.256 . S
C159 C152 1.496 1_554 S
H160 C143 0.929 . S
H161 C144 0.929 . S
H162 C145 0.929 . S
H163 C146 0.931 1_565 S
H164 C154 0.929 . S
H165 C155 0.929 . S
H166 C156 0.931 1_545 S
H167 C157 0.929 . S
Tb168 N197 2.617 . S
Tb168 N203 2.572 . S
Tb168 O212 2.469 . S
Tb168 O213 2.387 1_556 S
Tb168 O215 2.428 . S
Tb168 O216 2.308 1_545 S
Tb168 O220 2.349 . S
Tb168 O223 2.393 1_556 S
Tb168 C232 2.802 . S
C169 N170 1.379 . S
C169 C172 1.416 . S
C169 C176 1.424 . S
N170 C169 1.379 . S
N170 C173 1.334 . S
N170 Tb179 2.617 . S
C171 C173 1.390 . S
C171 C174 1.339 . S
C171 H191 0.930 . S
C172 C169 1.416 . S
C172 C174 1.416 . S
C172 C178 1.448 . S
C173 N170 1.334 . S
C173 C171 1.390 . S
C173 H184 0.930 . S
C174 C171 1.339 . S
C174 C172 1.416 . S
C174 H195 0.930 . S
C175 C176 1.413 . S
C175 C177 1.427 . S
C175 C181 1.416 1_565 S
C176 C169 1.424 . S
C176 C175 1.413 . S
C176 N180 1.361 . S
C177 C175 1.427 . S
C177 C178 1.328 . S
C177 H192 0.929 . S
C178 C172 1.448 . S
C178 C177 1.328 . S
C178 H193 0.930 . S
Tb179 N170 2.617 . S
Tb179 N180 2.572 . S
Tb179 O214 2.349 . S
Tb179 O217 2.393 . S
Tb179 O218 2.471 . S
Tb179 O219 2.387 . S
Tb179 O221 2.428 . S
Tb179 O222 2.308 1_565 S
Tb179 C243 2.802 . S
N180 C176 1.361 . S
N180 Tb179 2.572 . S
N180 C182 1.340 1_565 S
C181 C175 1.416 1_545 S
C181 C183 1.332 . S
C181 H189 0.931 . S
C182 N180 1.340 1_545 S
C182 C183 1.407 . S
C182 H188 0.930 . S
C183 C181 1.332 . S
C183 C182 1.407 . S
C183 H185 0.929 . S
H184 C173 0.930 . S
H185 C183 0.929 . S
H186 C201 0.930 . S
H187 C208 0.929 . S
H188 C182 0.930 . S
H189 C181 0.931 . S
H190 C204 0.930 . S
H191 C171 0.930 . S
H192 C177 0.929 . S
H193 C178 0.930 . S
H194 C199 0.930 . S
H195 C174 0.930 . S
H196 C207 0.931 . S
N197 Tb168 2.617 . S
N197 C198 1.379 . S
N197 C201 1.334 . S
C198 N197 1.379 . S
C198 C200 1.416 . S
C198 C206 1.424 . S
C199 H194 0.930 . S
C199 C201 1.390 . S
C199 C202 1.339 . S
C200 C198 1.416 . S
C200 C202 1.416 . S
C200 C233 1.448 . S
C201 H186 0.930 . S
C201 N197 1.334 . S
C201 C199 1.390 . S
C202 C199 1.339 . S
C202 C200 1.416 . S
C202 H209 0.930 . S
N203 Tb168 2.572 . S
N203 C204 1.340 1_545 S
N203 C206 1.361 . S
C204 H190 0.930 . S
C204 N203 1.340 1_565 S
C204 C208 1.407 . S
C205 C206 1.413 . S
C205 C207 1.416 1_545 S
C205 C234 1.427 . S
C206 C198 1.424 . S
C206 N203 1.361 . S
C206 C205 1.413 . S
C207 H196 0.931 . S
C207 C205 1.416 1_565 S
C207 C208 1.332 . S
C208 H187 0.929 . S
C208 C204 1.407 . S
C208 C207 1.332 . S
H209 C202 0.930 . S
H210 C233 0.930 . S
H211 C234 0.929 . S
O212 Tb168 2.469 . S
O212 C232 1.273 . S
O213 Tb168 2.387 1_554 S
O213 C224 1.264 1_545 S
O214 Tb179 2.349 . S
O214 C224 1.243 . S
O215 Tb168 2.428 . S
O215 C232 1.256 . S
O216 Tb168 2.308 1_565 S
O216 C231 1.266 . S
O217 Tb179 2.393 . S
O217 C231 1.248 1_554 S
O218 Tb179 2.471 . S
O218 C243 1.280 . S
O219 Tb179 2.387 . S
O219 C235 1.264 1_564 S
O220 Tb168 2.349 . S
O220 C235 1.243 . S
O221 Tb179 2.428 . S
O221 C243 1.256 . S
O222 Tb179 2.308 1_545 S
O222 C242 1.266 . S
O223 Tb168 2.393 1_554 S
O223 C242 1.248 . S
C224 O213 1.264 1_565 S
C224 O214 1.243 . S
C225 C228 1.399 . S
C225 C230 1.383 . S
C225 C232 1.496 . S
C226 C227 1.399 . S
C226 C230 1.389 . S
C227 C226 1.399 . S
C227 C229 1.380 . S
C227 H244 0.929 . S
C228 C225 1.399 . S
C228 C229 1.392 . S
C228 H245 0.929 . S
C229 C227 1.380 . S
C229 C228 1.392 . S
C229 H246 0.929 . S
C230 C225 1.383 . S
C230 C226 1.389 . S
C230 H247 0.931 1_545 S
C231 O216 1.266 . S
C231 O217 1.248 1_556 S
C232 Tb168 2.802 . S
C232 O212 1.273 . S
C232 O215 1.256 . S
C232 C225 1.496 . S
C233 C200 1.448 . S
C233 H210 0.930 . S
C233 C234 1.328 . S
C234 C205 1.427 . S
C234 H211 0.929 . S
C234 C233 1.328 . S
C235 O219 1.264 1_546 S
C235 O220 1.243 . S
C236 C239 1.399 . S
C236 C240 1.383 . S
C236 C243 1.496 . S
C237 C238 1.399 . S
C237 C240 1.389 . S
C238 C237 1.399 . S
C238 C241 1.380 . S
C238 H248 0.929 . S
C239 C236 1.399 . S
C239 C241 1.392 . S
C239 H249 0.929 . S
C240 C236 1.383 . S
C240 C237 1.389 . S
C240 H250 0.931 1_565 S
C241 C238 1.380 . S
C241 C239 1.392 . S
C241 H251 0.929 . S
C242 O222 1.266 . S
C242 O223 1.248 . S
C243 Tb179 2.802 . S
C243 O218 1.280 . S
C243 O221 1.256 . S
C243 C236 1.496 . S
H244 C227 0.929 . S
H245 C228 0.929 . S
H246 C229 0.929 . S
H247 C230 0.931 1_565 S
H248 C238 0.929 . S
H249 C239 0.929 . S
H250 C240 0.931 1_545 S
H251 C241 0.929 . S
Tb252 N281 2.617 . S
Tb252 N287 2.572 1_655 S
Tb252 O296 2.465 . S
Tb252 O297 2.387 1_556 S
Tb252 O299 2.428 . S
Tb252 O300 2.308 . S
Tb252 O304 2.349 . S
Tb252 O307 2.393 1_556 S
Tb252 C316 2.802 . S
C253 N254 1.379 . S
C253 C256 1.416 . S
C253 C260 1.424 . S
N254 C253 1.379 . S
N254 C257 1.334 . S
N254 Tb263 2.617 . S
C255 C257 1.390 . S
C255 C258 1.339 . S
C255 H275 0.930 . S
C256 C253 1.416 . S
C256 C258 1.416 . S
C256 C262 1.448 . S
C257 N254 1.334 . S
C257 C255 1.390 . S
C257 H268 0.930 . S
C258 C255 1.339 . S
C258 C256 1.416 . S
C258 H279 0.930 . S
C259 C260 1.413 . S
C259 C261 1.427 . S
C259 C265 1.416 . S
C260 C253 1.424 . S
C260 C259 1.413 . S
C260 N264 1.361 . S
C261 C259 1.427 . S
C261 C262 1.328 . S
C261 H276 0.929 . S
C262 C256 1.448 . S
C262 C261 1.328 . S
C262 H277 0.930 . S
Tb263 N254 2.617 . S
Tb263 N264 2.572 . S
Tb263 O298 2.349 . S
Tb263 O301 2.393 . S
Tb263 O302 2.465 . S
Tb263 O303 2.387 . S
Tb263 O305 2.428 . S
Tb263 O306 2.308 . S
Tb263 C327 2.802 . S
N264 C260 1.361 . S
N264 Tb263 2.572 . S
N264 C266 1.340 . S
C265 C259 1.416 . S
C265 C267 1.332 . S
C265 H273 0.931 . S
C266 N264 1.340 . S
C266 C267 1.407 . S
C266 H272 0.930 . S
C267 C265 1.332 . S
C267 C266 1.407 . S
C267 H269 0.929 . S
H268 C257 0.930 . S
H269 C267 0.929 . S
H270 C285 0.930 . S
H271 C292 0.929 . S
H272 C266 0.930 . S
H273 C265 0.931 . S
H274 C288 0.930 1_655 S
H275 C255 0.930 . S
H276 C261 0.929 . S
H277 C262 0.930 . S
H278 C283 0.930 . S
H279 C258 0.930 . S
H280 C291 0.931 . S
N281 Tb252 2.617 . S
N281 C282 1.379 1_655 S
N281 C285 1.334 . S
C282 N281 1.379 1_455 S
C282 C284 1.416 . S
C282 C290 1.424 . S
C283 H278 0.930 . S
C283 C285 1.390 1_455 S
C283 C286 1.339 . S
C284 C282 1.416 . S
C284 C286 1.416 . S
C284 C317 1.448 . S
C285 H270 0.930 . S
C285 N281 1.334 . S
C285 C283 1.390 1_655 S
C286 C283 1.339 . S
C286 C284 1.416 . S
C286 H293 0.930 . S
N287 Tb252 2.572 1_455 S
N287 C288 1.340 . S
N287 C290 1.361 . S
C288 H274 0.930 1_455 S
C288 N287 1.340 . S
C288 C292 1.407 . S
C289 C290 1.413 . S
C289 C291 1.416 . S
C289 C318 1.427 . S
C290 C282 1.424 . S
C290 N287 1.361 . S
C290 C289 1.413 . S
C291 H280 0.931 . S
C291 C289 1.416 . S
C291 C292 1.332 . S
C292 H271 0.929 . S
C292 C288 1.407 . S
C292 C291 1.332 . S
H293 C286 0.930 . S
H294 C317 0.930 . S
H295 C318 0.929 . S
O296 Tb252 2.465 . S
O296 C316 1.264 . S
O297 Tb252 2.387 1_554 S
O297 C308 1.264 . S
O298 Tb263 2.349 . S
O298 C308 1.243 . S
O299 Tb252 2.428 . S
O299 C316 1.256 . S
O300 Tb252 2.308 . S
O300 C315 1.266 . S
O301 Tb263 2.393 . S
O301 C315 1.248 1_554 S
O302 Tb263 2.465 . S
O302 C327 1.264 . S
O303 Tb263 2.387 . S
O303 C319 1.264 1_554 S
O304 Tb252 2.349 . S
O304 C319 1.243 . S
O305 Tb263 2.428 . S
O305 C327 1.256 . S
O306 Tb263 2.308 . S
O306 C326 1.266 . S
O307 Tb252 2.393 1_554 S
O307 C326 1.248 . S
C308 O297 1.264 . S
C308 O298 1.243 . S
C309 C312 1.399 . S
C309 C314 1.383 . S
C309 C316 1.496 . S
C310 C311 1.399 . S
C310 C314 1.389 . S
C311 C310 1.399 . S
C311 C313 1.380 . S
C311 H328 0.929 . S
C312 C309 1.399 . S
C312 C313 1.392 . S
C312 H329 0.929 . S
C313 C311 1.380 . S
C313 C312 1.392 . S
C313 H330 0.929 . S
C314 C309 1.383 . S
C314 C310 1.389 . S
C314 H331 0.931 . S
C315 O300 1.266 . S
C315 O301 1.248 1_556 S
C316 Tb252 2.802 . S
C316 O296 1.264 . S
C316 O299 1.256 . S
C316 C309 1.496 . S
C317 C284 1.448 . S
C317 H294 0.930 . S
C317 C318 1.328 . S
C318 C289 1.427 . S
C318 H295 0.929 . S
C318 C317 1.328 . S
C319 O303 1.264 1_556 S
C319 O304 1.243 . S
C320 C323 1.399 . S
C320 C324 1.383 . S
C320 C327 1.496 . S
C321 C322 1.399 . S
C321 C324 1.389 . S
C322 C321 1.399 . S
C322 C325 1.380 . S
C322 H332 0.929 . S
C323 C320 1.399 . S
C323 C325 1.392 . S
C323 H333 0.929 . S
C324 C320 1.383 . S
C324 C321 1.389 . S
C324 H334 0.931 . S
C325 C322 1.380 . S
C325 C323 1.392 . S
C325 H335 0.929 . S
C326 O306 1.266 . S
C326 O307 1.248 . S
C327 Tb263 2.802 . S
C327 O302 1.264 . S
C327 O305 1.256 . S
C327 C320 1.496 . S
H328 C311 0.929 . S
H329 C312 0.929 . S
H330 C313 0.929 . S
H331 C314 0.931 . S
H332 C322 0.929 . S
H333 C323 0.929 . S
H334 C324 0.931 . S
H335 C325 0.929 . S
Tb336 N365 2.617 . S
Tb336 N371 2.572 . S
Tb336 O380 2.465 . S
Tb336 O381 2.387 . S
Tb336 O383 2.428 . S
Tb336 O384 2.308 . S
Tb336 O388 2.349 . S
Tb336 O391 2.393 . S
Tb336 C400 2.802 . S
C337 N338 1.379 . S
C337 C340 1.416 . S
C337 C344 1.424 . S
N338 C337 1.379 . S
N338 C341 1.334 . S
N338 Tb347 2.617 . S
C339 C341 1.390 . S
C339 C342 1.339 . S
C339 H359 0.930 . S
C340 C337 1.416 . S
C340 C342 1.416 . S
C340 C346 1.448 . S
C341 N338 1.334 . S
C341 C339 1.390 . S
C341 H352 0.930 . S
C342 C339 1.339 . S
C342 C340 1.416 . S
C342 H363 0.930 . S
C343 C344 1.413 . S
C343 C345 1.427 . S
C343 C349 1.416 . S
C344 C337 1.424 . S
C344 C343 1.413 . S
C344 N348 1.361 . S
C345 C343 1.427 . S
C345 C346 1.328 . S
C345 H360 0.929 . S
C346 C340 1.448 . S
C346 C345 1.328 . S
C346 H361 0.930 . S
Tb347 N338 2.617 . S
Tb347 N348 2.572 . S
Tb347 O382 2.349 . S
Tb347 O385 2.393 . S
Tb347 O386 2.465 . S
Tb347 O387 2.387 . S
Tb347 O389 2.428 . S
Tb347 O390 2.308 . S
Tb347 C411 2.802 . S
N348 C344 1.361 . S
N348 Tb347 2.572 . S
N348 C350 1.340 . S
C349 C343 1.416 . S
C349 C351 1.332 . S
C349 H357 0.931 . S
C350 N348 1.340 . S
C350 C351 1.407 . S
C350 H356 0.930 . S
C351 C349 1.332 . S
C351 C350 1.407 . S
C351 H353 0.929 . S
H352 C341 0.930 . S
H353 C351 0.929 . S
H354 C369 0.930 . S
H355 C376 0.929 . S
H356 C350 0.930 . S
H357 C349 0.931 . S
H358 C372 0.930 . S
H359 C339 0.930 . S
H360 C345 0.929 . S
H361 C346 0.930 . S
H362 C367 0.930 . S
H363 C342 0.930 . S
H364 C375 0.931 . S
N365 Tb336 2.617 . S
N365 C366 1.379 . S
N365 C369 1.334 . S
C366 N365 1.379 . S
C366 C368 1.416 . S
C366 C374 1.424 . S
C367 H362 0.930 . S
C367 C369 1.390 . S
C367 C370 1.339 . S
C368 C366 1.416 . S
C368 C370 1.416 . S
C368 C401 1.448 . S
C369 H354 0.930 . S
C369 N365 1.334 . S
C369 C367 1.390 . S
C370 C367 1.339 . S
C370 C368 1.416 . S
C370 H377 0.930 . S
N371 Tb336 2.572 . S
N371 C372 1.340 . S
N371 C374 1.361 . S
C372 H358 0.930 . S
C372 N371 1.340 . S
C372 C376 1.407 . S
C373 C374 1.413 . S
C373 C375 1.416 . S
C373 C402 1.427 . S
C374 C366 1.424 . S
C374 N371 1.361 . S
C374 C373 1.413 . S
C375 H364 0.931 . S
C375 C373 1.416 . S
C375 C376 1.332 . S
C376 H355 0.929 . S
C376 C372 1.407 . S
C376 C375 1.332 . S
H377 C370 0.930 . S
H378 C401 0.930 . S
H379 C402 0.929 . S
O380 Tb336 2.465 . S
O380 C400 1.264 . S
O381 Tb336 2.387 . S
O381 C392 1.264 . S
O382 Tb347 2.349 . S
O382 C392 1.243 . S
O383 Tb336 2.428 . S
O383 C400 1.256 . S
O384 Tb336 2.308 . S
O384 C399 1.266 . S
O385 Tb347 2.393 . S
O385 C399 1.248 . S
O386 Tb347 2.465 . S
O386 C411 1.264 . S
O387 Tb347 2.387 . S
O387 C403 1.264 . S
O388 Tb336 2.349 . S
O388 C403 1.243 . S
O389 Tb347 2.428 . S
O389 C411 1.256 . S
O390 Tb347 2.308 . S
O390 C410 1.266 . S
O391 Tb336 2.393 . S
O391 C410 1.248 . S
C392 O381 1.264 . S
C392 O382 1.243 . S
C393 C396 1.399 . S
C393 C398 1.383 . S
C393 C400 1.496 1_554 S
C394 C395 1.399 . S
C394 C398 1.389 . S
C395 C394 1.399 . S
C395 C397 1.380 . S
C395 H412 0.929 . S
C396 C393 1.399 . S
C396 C397 1.392 . S
C396 H413 0.929 . S
C397 C395 1.380 . S
C397 C396 1.392 . S
C397 H414 0.929 . S
C398 C393 1.383 . S
C398 C394 1.389 . S
C398 H415 0.931 . S
C399 O384 1.266 . S
C399 O385 1.248 . S
C400 Tb336 2.802 . S
C400 O380 1.264 . S
C400 O383 1.256 . S
C400 C393 1.496 1_556 S
C401 C368 1.448 . S
C401 H378 0.930 . S
C401 C402 1.328 . S
C402 C373 1.427 . S
C402 H379 0.929 . S
C402 C401 1.328 . S
C403 O387 1.264 . S
C403 O388 1.243 . S
C404 C407 1.399 . S
C404 C408 1.383 . S
C404 C411 1.496 . S
C405 C406 1.399 . S
C405 C408 1.389 . S
C406 C405 1.399 . S
C406 C409 1.380 . S
C406 H416 0.929 . S
C407 C404 1.399 . S
C407 C409 1.392 . S
C407 H417 0.929 . S
C408 C404 1.383 . S
C408 C405 1.389 . S
C408 H418 0.931 . S
C409 C406 1.380 . S
C409 C407 1.392 . S
C409 H419 0.929 . S
C410 O390 1.266 . S
C410 O391 1.248 . S
C411 Tb347 2.802 . S
C411 O386 1.264 . S
C411 O389 1.256 . S
C411 C404 1.496 . S
H412 C395 0.929 . S
H413 C396 0.929 . S
H414 C397 0.929 . S
H415 C398 0.931 . S
H416 C406 0.929 . S
H417 C407 0.929 . S
H418 C408 0.931 . S
H419 C409 0.929 . S
Tb420 N449 2.617 . S
Tb420 N455 2.572 . S
Tb420 O464 2.471 . S
Tb420 O465 2.387 . S
Tb420 O467 2.428 . S
Tb420 O468 2.308 1_545 S
Tb420 O472 2.349 . S
Tb420 O475 2.393 . S
Tb420 C484 2.802 . S
C421 N422 1.379 1_655 S
C421 C424 1.416 . S
C421 C428 1.424 . S
N422 C421 1.379 1_455 S
N422 C425 1.334 . S
N422 Tb431 2.617 . S
C423 C425 1.390 1_655 S
C423 C426 1.339 . S
C423 H443 0.930 . S
C424 C421 1.416 . S
C424 C426 1.416 . S
C424 C430 1.448 . S
C425 N422 1.334 . S
C425 C423 1.390 1_455 S
C425 H436 0.930 . S
C426 C423 1.339 . S
C426 C424 1.416 . S
C426 H447 0.930 . S
C427 C428 1.413 . S
C427 C429 1.427 . S
C427 C433 1.416 1_565 S
C428 C421 1.424 . S
C428 C427 1.413 . S
C428 N432 1.361 . S
C429 C427 1.427 . S
C429 C430 1.328 . S
C429 H444 0.929 . S
C430 C424 1.448 . S
C430 C429 1.328 . S
C430 H445 0.930 . S
Tb431 N422 2.617 . S
Tb431 N432 2.572 1_455 S
Tb431 O466 2.349 . S
Tb431 O469 2.393 . S
Tb431 O470 2.469 . S
Tb431 O471 2.387 . S
Tb431 O473 2.428 . S
Tb431 O474 2.308 1_565 S
Tb431 C495 2.802 . S
N432 C428 1.361 . S
N432 Tb431 2.572 1_655 S
N432 C434 1.340 1_565 S
C433 C427 1.416 1_545 S
C433 C435 1.332 . S
C433 H441 0.931 . S
C434 N432 1.340 1_545 S
C434 C435 1.407 . S
C434 H440 0.930 1_655 S
C435 C433 1.332 . S
C435 C434 1.407 . S
C435 H437 0.929 . S
H436 C425 0.930 . S
H437 C435 0.929 . S
H438 C453 0.930 . S
H439 C460 0.929 . S
H440 C434 0.930 1_455 S
H441 C433 0.931 . S
H442 C456 0.930 . S
H443 C423 0.930 . S
H444 C429 0.929 . S
H445 C430 0.930 . S
H446 C451 0.930 . S
H447 C426 0.930 . S
H448 C459 0.931 . S
N449 Tb420 2.617 . S
N449 C450 1.379 . S
N449 C453 1.334 . S
C450 N449 1.379 . S
C450 C452 1.416 . S
C450 C458 1.424 . S
C451 H446 0.930 . S
C451 C453 1.390 . S
C451 C454 1.339 . S
C452 C450 1.416 . S
C452 C454 1.416 . S
C452 C485 1.448 . S
C453 H438 0.930 . S
C453 N449 1.334 . S
C453 C451 1.390 . S
C454 C451 1.339 . S
C454 C452 1.416 . S
C454 H461 0.930 . S
N455 Tb420 2.572 . S
N455 C456 1.340 1_545 S
N455 C458 1.361 . S
C456 H442 0.930 . S
C456 N455 1.340 1_565 S
C456 C460 1.407 . S
C457 C458 1.413 . S
C457 C459 1.416 1_545 S
C457 C486 1.427 . S
C458 C450 1.424 . S
C458 N455 1.361 . S
C458 C457 1.413 . S
C459 H448 0.931 . S
C459 C457 1.416 1_565 S
C459 C460 1.332 . S
C460 H439 0.929 . S
C460 C456 1.407 . S
C460 C459 1.332 . S
H461 C454 0.930 . S
H462 C485 0.930 . S
H463 C486 0.929 . S
O464 Tb420 2.471 . S
O464 C484 1.280 . S
O465 Tb420 2.387 . S
O465 C476 1.264 1_545 S
O466 Tb431 2.349 . S
O466 C476 1.243 . S
O467 Tb420 2.428 . S
O467 C484 1.256 . S
O468 Tb420 2.308 1_565 S
O468 C483 1.266 . S
O469 Tb431 2.393 . S
O469 C483 1.248 . S
O470 Tb431 2.469 . S
O470 C495 1.273 . S
O471 Tb431 2.387 . S
O471 C487 1.264 1_565 S
O472 Tb420 2.349 . S
O472 C487 1.243 . S
O473 Tb431 2.428 . S
O473 C495 1.256 . S
O474 Tb431 2.308 1_545 S
O474 C494 1.266 . S
O475 Tb420 2.393 . S
O475 C494 1.248 . S
C476 O465 1.264 1_565 S
C476 O466 1.243 . S
C477 C480 1.399 . S
C477 C482 1.383 . S
C477 C484 1.496 1_554 S
C478 C479 1.399 . S
C478 C482 1.389 . S
C479 C478 1.399 . S
C479 C481 1.380 . S
C479 H496 0.929 . S
C480 C477 1.399 . S
C480 C481 1.392 . S
C480 H497 0.929 . S
C481 C479 1.380 . S
C481 C480 1.392 . S
C481 H498 0.929 . S
C482 C477 1.383 . S
C482 C478 1.389 . S
C482 H499 0.931 1_545 S
C483 O468 1.266 . S
C483 O469 1.248 . S
C484 Tb420 2.802 . S
C484 O464 1.280 . S
C484 O467 1.256 . S
C484 C477 1.496 1_556 S
C485 C452 1.448 . S
C485 H462 0.930 . S
C485 C486 1.328 . S
C486 C457 1.427 . S
C486 H463 0.929 . S
C486 C485 1.328 . S
C487 O471 1.264 1_545 S
C487 O472 1.243 . S
C488 C491 1.399 . S
C488 C492 1.383 . S
C488 C495 1.496 . S
C489 C490 1.399 . S
C489 C492 1.389 . S
C490 C489 1.399 . S
C490 C493 1.380 . S
C490 H500 0.929 . S
C491 C488 1.399 . S
C491 C493 1.392 . S
C491 H501 0.929 . S
C492 C488 1.383 . S
C492 C489 1.389 . S
C492 H502 0.931 1_565 S
C493 C490 1.380 . S
C493 C491 1.392 . S
C493 H503 0.929 . S
C494 O474 1.266 . S
C494 O475 1.248 . S
C495 Tb431 2.802 . S
C495 O470 1.273 . S
C495 O473 1.256 . S
C495 C488 1.496 . S
H496 C479 0.929 . S
H497 C480 0.929 . S
H498 C481 0.929 . S
H499 C482 0.931 1_565 S
H500 C490 0.929 . S
H501 C491 0.929 . S
H502 C492 0.931 1_545 S
H503 C493 0.929 . S
Tb504 N533 2.617 . S
Tb504 N539 2.572 . S
Tb504 O548 2.471 . S
Tb504 O549 2.387 . S
Tb504 O551 2.428 . S
Tb504 O552 2.308 1_545 S
Tb504 O556 2.349 . S
Tb504 O559 2.393 . S
Tb504 C568 2.802 . S
C505 N506 1.379 . S
C505 C508 1.416 . S
C505 C512 1.424 . S
N506 C505 1.379 . S
N506 C509 1.334 . S
N506 Tb515 2.617 . S
C507 C509 1.390 . S
C507 C510 1.339 . S
C507 H527 0.930 . S
C508 C505 1.416 . S
C508 C510 1.416 . S
C508 C514 1.448 . S
C509 N506 1.334 . S
C509 C507 1.390 . S
C509 H520 0.930 . S
C510 C507 1.339 . S
C510 C508 1.416 . S
C510 H531 0.930 . S
C511 C512 1.413 . S
C511 C513 1.427 . S
C511 C517 1.416 1_565 S
C512 C505 1.424 . S
C512 C511 1.413 . S
C512 N516 1.361 . S
C513 C511 1.427 . S
C513 C514 1.328 . S
C513 H528 0.929 . S
C514 C508 1.448 . S
C514 C513 1.328 . S
C514 H529 0.930 . S
Tb515 N506 2.617 . S
Tb515 N516 2.572 . S
Tb515 O550 2.349 . S
Tb515 O553 2.393 1_554 S
Tb515 O554 2.469 . S
Tb515 O555 2.387 1_554 S
Tb515 O557 2.428 . S
Tb515 O558 2.308 1_565 S
Tb515 C579 2.802 . S
N516 C512 1.361 . S
N516 Tb515 2.572 . S
N516 C518 1.340 1_565 S
C517 C511 1.416 1_545 S
C517 C519 1.332 . S
C517 H525 0.931 . S
C518 N516 1.340 1_545 S
C518 C519 1.407 . S
C518 H524 0.930 . S
C519 C517 1.332 . S
C519 C518 1.407 . S
C519 H521 0.929 . S
H520 C509 0.930 . S
H521 C519 0.929 . S
H522 C537 0.930 . S
H523 C544 0.929 . S
H524 C518 0.930 . S
H525 C517 0.931 . S
H526 C540 0.930 . S
H527 C507 0.930 . S
H528 C513 0.929 . S
H529 C514 0.930 . S
H530 C535 0.930 . S
H531 C510 0.930 . S
H532 C543 0.931 . S
N533 Tb504 2.617 . S
N533 C534 1.379 . S
N533 C537 1.334 . S
C534 N533 1.379 . S
C534 C536 1.416 . S
C534 C542 1.424 . S
C535 H530 0.930 . S
C535 C537 1.390 . S
C535 C538 1.339 . S
C536 C534 1.416 . S
C536 C538 1.416 . S
C536 C569 1.448 . S
C537 H522 0.930 . S
C537 N533 1.334 . S
C537 C535 1.390 . S
C538 C535 1.339 . S
C538 C536 1.416 . S
C538 H545 0.930 . S
N539 Tb504 2.572 . S
N539 C540 1.340 1_545 S
N539 C542 1.361 . S
C540 H526 0.930 . S
C540 N539 1.340 1_565 S
C540 C544 1.407 . S
C541 C542 1.413 . S
C541 C543 1.416 1_545 S
C541 C570 1.427 . S
C542 C534 1.424 . S
C542 N539 1.361 . S
C542 C541 1.413 . S
C543 H532 0.931 . S
C543 C541 1.416 1_565 S
C543 C544 1.332 . S
C544 H523 0.929 . S
C544 C540 1.407 . S
C544 C543 1.332 . S
H545 C538 0.930 . S
H546 C569 0.930 . S
H547 C570 0.929 . S
O548 Tb504 2.471 . S
O548 C568 1.280 . S
O549 Tb504 2.387 . S
O549 C560 1.264 1_546 S
O550 Tb515 2.349 . S
O550 C560 1.243 . S
O551 Tb504 2.428 . S
O551 C568 1.256 . S
O552 Tb504 2.308 1_565 S
O552 C567 1.266 . S
O553 Tb515 2.393 1_556 S
O553 C567 1.248 . S
O554 Tb515 2.469 . S
O554 C579 1.273 . S
O555 Tb515 2.387 1_556 S
O555 C571 1.264 1_565 S
O556 Tb504 2.349 . S
O556 C571 1.243 . S
O557 Tb515 2.428 . S
O557 C579 1.256 . S
O558 Tb515 2.308 1_545 S
O558 C578 1.266 . S
O559 Tb504 2.393 . S
O559 C578 1.248 1_556 S
C560 O549 1.264 1_564 S
C560 O550 1.243 . S
C561 C564 1.399 . S
C561 C566 1.383 . S
C561 C568 1.496 . S
C562 C563 1.399 . S
C562 C566 1.389 . S
C563 C562 1.399 . S
C563 C565 1.380 . S
C563 H580 0.929 . S
C564 C561 1.399 . S
C564 C565 1.392 . S
C564 H581 0.929 . S
C565 C563 1.380 . S
C565 C564 1.392 . S
C565 H582 0.929 . S
C566 C561 1.383 . S
C566 C562 1.389 . S
C566 H583 0.931 1_545 S
C567 O552 1.266 . S
C567 O553 1.248 . S
C568 Tb504 2.802 . S
C568 O548 1.280 . S
C568 O551 1.256 . S
C568 C561 1.496 . S
C569 C536 1.448 . S
C569 H546 0.930 . S
C569 C570 1.328 . S
C570 C541 1.427 . S
C570 H547 0.929 . S
C570 C569 1.328 . S
C571 O555 1.264 1_545 S
C571 O556 1.243 . S
C572 C575 1.399 . S
C572 C576 1.383 . S
C572 C579 1.496 . S
C573 C574 1.399 . S
C573 C576 1.389 . S
C574 C573 1.399 . S
C574 C577 1.380 . S
C574 H584 0.929 . S
C575 C572 1.399 . S
C575 C577 1.392 . S
C575 H585 0.929 . S
C576 C572 1.383 . S
C576 C573 1.389 . S
C576 H586 0.931 1_565 S
C577 C574 1.380 . S
C577 C575 1.392 . S
C577 H587 0.929 . S
C578 O558 1.266 . S
C578 O559 1.248 1_554 S
C579 Tb515 2.802 . S
C579 O554 1.273 . S
C579 O557 1.256 . S
C579 C572 1.496 . S
H580 C563 0.929 . S
H581 C564 0.929 . S
H582 C565 0.929 . S
H583 C566 0.931 1_565 S
H584 C574 0.929 . S
H585 C575 0.929 . S
H586 C576 0.931 1_545 S
H587 C577 0.929 . S
Tb588 N617 2.617 . S
Tb588 N623 2.572 . S
Tb588 O632 2.465 . S
Tb588 O633 2.387 . S
Tb588 O635 2.428 . S
Tb588 O636 2.308 . S
Tb588 O640 2.349 . S
Tb588 O643 2.393 . S
Tb588 C652 2.802 . S
C589 N590 1.379 1_655 S
C589 C592 1.416 . S
C589 C596 1.424 . S
N590 C589 1.379 1_455 S
N590 C593 1.334 . S
N590 Tb599 2.617 . S
C591 C593 1.390 1_655 S
C591 C594 1.339 . S
C591 H611 0.930 . S
C592 C589 1.416 . S
C592 C594 1.416 . S
C592 C598 1.448 . S
C593 N590 1.334 . S
C593 C591 1.390 1_455 S
C593 H604 0.930 . S
C594 C591 1.339 . S
C594 C592 1.416 . S
C594 H615 0.930 . S
C595 C596 1.413 . S
C595 C597 1.427 . S
C595 C601 1.416 . S
C596 C589 1.424 . S
C596 C595 1.413 . S
C596 N600 1.361 . S
C597 C595 1.427 . S
C597 C598 1.328 . S
C597 H612 0.929 . S
C598 C592 1.448 . S
C598 C597 1.328 . S
C598 H613 0.930 . S
Tb599 N590 2.617 . S
Tb599 N600 2.572 1_455 S
Tb599 O634 2.349 . S
Tb599 O637 2.393 1_554 S
Tb599 O638 2.465 . S
Tb599 O639 2.387 1_554 S
Tb599 O641 2.428 . S
Tb599 O642 2.308 . S
Tb599 C663 2.802 . S
N600 C596 1.361 . S
N600 Tb599 2.572 1_655 S
N600 C602 1.340 . S
C601 C595 1.416 . S
C601 C603 1.332 . S
C601 H609 0.931 . S
C602 N600 1.340 . S
C602 C603 1.407 . S
C602 H608 0.930 1_655 S
C603 C601 1.332 . S
C603 C602 1.407 . S
C603 H605 0.929 . S
H604 C593 0.930 . S
H605 C603 0.929 . S
H606 C621 0.930 . S
H607 C628 0.929 . S
H608 C602 0.930 1_455 S
H609 C601 0.931 . S
H610 C624 0.930 . S
H611 C591 0.930 . S
H612 C597 0.929 . S
H613 C598 0.930 . S
H614 C619 0.930 . S
H615 C594 0.930 . S
H616 C627 0.931 . S
N617 Tb588 2.617 . S
N617 C618 1.379 . S
N617 C621 1.334 . S
C618 N617 1.379 . S
C618 C620 1.416 . S
C618 C626 1.424 . S
C619 H614 0.930 . S
C619 C621 1.390 . S
C619 C622 1.339 . S
C620 C618 1.416 . S
C620 C622 1.416 . S
C620 C653 1.448 . S
C621 H606 0.930 . S
C621 N617 1.334 . S
C621 C619 1.390 . S
C622 C619 1.339 . S
C622 C620 1.416 . S
C622 H629 0.930 . S
N623 Tb588 2.572 . S
N623 C624 1.340 . S
N623 C626 1.361 . S
C624 H610 0.930 . S
C624 N623 1.340 . S
C624 C628 1.407 . S
C625 C626 1.413 . S
C625 C627 1.416 . S
C625 C654 1.427 . S
C626 C618 1.424 . S
C626 N623 1.361 . S
C626 C625 1.413 . S
C627 H616 0.931 . S
C627 C625 1.416 . S
C627 C628 1.332 . S
C628 H607 0.929 . S
C628 C624 1.407 . S
C628 C627 1.332 . S
H629 C622 0.930 . S
H630 C653 0.930 . S
H631 C654 0.929 . S
O632 Tb588 2.465 . S
O632 C652 1.264 . S
O633 Tb588 2.387 . S
O633 C644 1.264 1_556 S
O634 Tb599 2.349 . S
O634 C644 1.243 . S
O635 Tb588 2.428 . S
O635 C652 1.256 . S
O636 Tb588 2.308 . S
O636 C651 1.266 . S
O637 Tb599 2.393 1_556 S
O637 C651 1.248 . S
O638 Tb599 2.465 . S
O638 C663 1.264 . S
O639 Tb599 2.387 1_556 S
O639 C655 1.264 . S
O640 Tb588 2.349 . S
O640 C655 1.243 . S
O641 Tb599 2.428 . S
O641 C663 1.256 . S
O642 Tb599 2.308 . S
O642 C662 1.266 . S
O643 Tb588 2.393 . S
O643 C662 1.248 1_556 S
C644 O633 1.264 1_554 S
C644 O634 1.243 . S
C645 C648 1.399 . S
C645 C650 1.383 . S
C645 C652 1.496 . S
C646 C647 1.399 . S
C646 C650 1.389 . S
C647 C646 1.399 . S
C647 C649 1.380 . S
C647 H664 0.929 . S
C648 C645 1.399 . S
C648 C649 1.392 . S
C648 H665 0.929 . S
C649 C647 1.380 . S
C649 C648 1.392 . S
C649 H666 0.929 . S
C650 C645 1.383 . S
C650 C646 1.389 . S
C650 H667 0.931 . S
C651 O636 1.266 . S
C651 O637 1.248 . S
C652 Tb588 2.802 . S
C652 O632 1.264 . S
C652 O635 1.256 . S
C652 C645 1.496 . S
C653 C620 1.448 . S
C653 H630 0.930 . S
C653 C654 1.328 . S
C654 C625 1.427 . S
C654 H631 0.929 . S
C654 C653 1.328 . S
C655 O639 1.264 . S
C655 O640 1.243 . S
C656 C659 1.399 . S
C656 C660 1.383 . S
C656 C663 1.496 . S
C657 C658 1.399 . S
C657 C660 1.389 . S
C658 C657 1.399 . S
C658 C661 1.380 . S
C658 H668 0.929 . S
C659 C656 1.399 . S
C659 C661 1.392 . S
C659 H669 0.929 . S
C660 C656 1.383 . S
C660 C657 1.389 . S
C660 H670 0.931 . S
C661 C658 1.380 . S
C661 C659 1.392 . S
C661 H671 0.929 . S
C662 O642 1.266 . S
C662 O643 1.248 1_554 S
C663 Tb599 2.802 . S
C663 O638 1.264 . S
C663 O641 1.256 . S
C663 C656 1.496 . S
H664 C647 0.929 . S
H665 C648 0.929 . S
H666 C649 0.929 . S
H667 C650 0.931 . S
H668 C658 0.929 . S
H669 C659 0.929 . S
H670 C660 0.931 . S
H671 C661 0.929 . S
Tb672 N701 2.617 . S
Tb672 N707 2.572 . S
Tb672 O716 2.465 . S
Tb672 O717 2.387 . S
Tb672 O719 2.428 . S
Tb672 O720 2.308 . S
Tb672 O724 2.349 . S
Tb672 O727 2.393 . S
Tb672 C736 2.802 . S
C673 N674 1.379 . S
C673 C676 1.416 . S
C673 C680 1.424 . S
N674 C673 1.379 . S
N674 C677 1.334 . S
N674 Tb683 2.617 . S
C675 C677 1.390 . S
C675 C678 1.339 . S
C675 H695 0.930 . S
C676 C673 1.416 . S
C676 C678 1.416 . S
C676 C682 1.448 . S
C677 N674 1.334 . S
C677 C675 1.390 . S
C677 H688 0.930 . S
C678 C675 1.339 . S
C678 C676 1.416 . S
C678 H699 0.930 . S
C679 C680 1.413 . S
C679 C681 1.427 . S
C679 C685 1.416 . S
C680 C673 1.424 . S
C680 C679 1.413 . S
C680 N684 1.361 . S
C681 C679 1.427 . S
C681 C682 1.328 . S
C681 H696 0.929 . S
C682 C676 1.448 . S
C682 C681 1.328 . S
C682 H697 0.930 . S
Tb683 N674 2.617 . S
Tb683 N684 2.572 . S
Tb683 O718 2.349 . S
Tb683 O721 2.393 . S
Tb683 O722 2.465 . S
Tb683 O723 2.387 . S
Tb683 O725 2.428 . S
Tb683 O726 2.308 . S
Tb683 C747 2.802 . S
N684 C680 1.361 . S
N684 Tb683 2.572 . S
N684 C686 1.340 . S
C685 C679 1.416 . S
C685 C687 1.332 . S
C685 H693 0.931 . S
C686 N684 1.340 . S
C686 C687 1.407 . S
C686 H692 0.930 . S
C687 C685 1.332 . S
C687 C686 1.407 . S
C687 H689 0.929 . S
H688 C677 0.930 . S
H689 C687 0.929 . S
H690 C705 0.930 . S
H691 C712 0.929 . S
H692 C686 0.930 . S
H693 C685 0.931 . S
H694 C708 0.930 . S
H695 C675 0.930 . S
H696 C681 0.929 . S
H697 C682 0.930 . S
H698 C703 0.930 . S
H699 C678 0.930 . S
H700 C711 0.931 . S
N701 Tb672 2.617 . S
N701 C702 1.379 . S
N701 C705 1.334 . S
C702 N701 1.379 . S
C702 C704 1.416 . S
C702 C710 1.424 . S
C703 H698 0.930 . S
C703 C705 1.390 . S
C703 C706 1.339 . S
C704 C702 1.416 . S
C704 C706 1.416 . S
C704 C737 1.448 . S
C705 H690 0.930 . S
C705 N701 1.334 . S
C705 C703 1.390 . S
C706 C703 1.339 . S
C706 C704 1.416 . S
C706 H713 0.930 . S
N707 Tb672 2.572 . S
N707 C708 1.340 . S
N707 C710 1.361 . S
C708 H694 0.930 . S
C708 N707 1.340 . S
C708 C712 1.407 . S
C709 C710 1.413 . S
C709 C711 1.416 . S
C709 C738 1.427 . S
C710 C702 1.424 . S
C710 N707 1.361 . S
C710 C709 1.413 . S
C711 H700 0.931 . S
C711 C709 1.416 . S
C711 C712 1.332 . S
C712 H691 0.929 . S
C712 C708 1.407 . S
C712 C711 1.332 . S
H713 C706 0.930 . S
H714 C737 0.930 . S
H715 C738 0.929 . S
O716 Tb672 2.465 . S
O716 C736 1.264 . S
O717 Tb672 2.387 . S
O717 C728 1.264 . S
O718 Tb683 2.349 . S
O718 C728 1.243 . S
O719 Tb672 2.428 . S
O719 C736 1.256 . S
O720 Tb672 2.308 . S
O720 C735 1.266 . S
O721 Tb683 2.393 . S
O721 C735 1.248 . S
O722 Tb683 2.465 . S
O722 C747 1.264 . S
O723 Tb683 2.387 . S
O723 C739 1.264 . S
O724 Tb672 2.349 . S
O724 C739 1.243 . S
O725 Tb683 2.428 . S
O725 C747 1.256 . S
O726 Tb683 2.308 . S
O726 C746 1.266 . S
O727 Tb672 2.393 . S
O727 C746 1.248 . S
C728 O717 1.264 . S
C728 O718 1.243 . S
C729 C732 1.399 . S
C729 C734 1.383 . S
C729 C736 1.496 1_554 S
C730 C731 1.399 . S
C730 C734 1.389 . S
C731 C730 1.399 . S
C731 C733 1.380 . S
C731 H748 0.929 . S
C732 C729 1.399 . S
C732 C733 1.392 . S
C732 H749 0.929 . S
C733 C731 1.380 . S
C733 C732 1.392 . S
C733 H750 0.929 . S
C734 C729 1.383 . S
C734 C730 1.389 . S
C734 H751 0.931 . S
C735 O720 1.266 . S
C735 O721 1.248 . S
C736 Tb672 2.802 . S
C736 O716 1.264 . S
C736 O719 1.256 . S
C736 C729 1.496 1_556 S
C737 C704 1.448 . S
C737 H714 0.930 . S
C737 C738 1.328 . S
C738 C709 1.427 . S
C738 H715 0.929 . S
C738 C737 1.328 . S
C739 O723 1.264 . S
C739 O724 1.243 . S
C740 C743 1.399 . S
C740 C744 1.383 . S
C740 C747 1.496 . S
C741 C742 1.399 . S
C741 C744 1.389 . S
C742 C741 1.399 . S
C742 C745 1.380 . S
C742 H752 0.929 . S
C743 C740 1.399 . S
C743 C745 1.392 . S
C743 H753 0.929 . S
C744 C740 1.383 . S
C744 C741 1.389 . S
C744 H754 0.931 . S
C745 C742 1.380 . S
C745 C743 1.392 . S
C745 H755 0.929 . S
C746 O726 1.266 . S
C746 O727 1.248 . S
C747 Tb683 2.802 . S
C747 O722 1.264 . S
C747 O725 1.256 . S
C747 C740 1.496 . S
H748 C731 0.929 . S
H749 C732 0.929 . S
H750 C733 0.929 . S
H751 C734 0.931 . S
H752 C742 0.929 . S
H753 C743 0.929 . S
H754 C744 0.931 . S
H755 C745 0.929 . S
Tb756 N785 2.617 . S
Tb756 N791 2.572 1_655 S
Tb756 O800 2.465 . S
Tb756 O801 2.387 . S
Tb756 O803 2.428 . S
Tb756 O804 2.308 . S
Tb756 O808 2.349 . S
Tb756 O811 2.393 . S
Tb756 C820 2.802 . S
C757 N758 1.379 . S
C757 C760 1.416 . S
C757 C764 1.424 . S
N758 C757 1.379 . S
N758 C761 1.334 . S
N758 Tb767 2.617 . S
C759 C761 1.390 . S
C759 C762 1.339 . S
C759 H779 0.930 . S
C760 C757 1.416 . S
C760 C762 1.416 . S
C760 C766 1.448 . S
C761 N758 1.334 . S
C761 C759 1.390 . S
C761 H772 0.930 . S
C762 C759 1.339 . S
C762 C760 1.416 . S
C762 H783 0.930 . S
C763 C764 1.413 . S
C763 C765 1.427 . S
C763 C769 1.416 . S
C764 C757 1.424 . S
C764 C763 1.413 . S
C764 N768 1.361 . S
C765 C763 1.427 . S
C765 C766 1.328 . S
C765 H780 0.929 . S
C766 C760 1.448 . S
C766 C765 1.328 . S
C766 H781 0.930 . S
Tb767 N758 2.617 . S
Tb767 N768 2.572 . S
Tb767 O802 2.349 . S
Tb767 O805 2.393 . S
Tb767 O806 2.465 . S
Tb767 O807 2.387 . S
Tb767 O809 2.428 . S
Tb767 O810 2.308 . S
Tb767 C831 2.802 . S
N768 C764 1.361 . S
N768 Tb767 2.572 . S
N768 C770 1.340 . S
C769 C763 1.416 . S
C769 C771 1.332 . S
C769 H777 0.931 . S
C770 N768 1.340 . S
C770 C771 1.407 . S
C770 H776 0.930 . S
C771 C769 1.332 . S
C771 C770 1.407 . S
C771 H773 0.929 . S
H772 C761 0.930 . S
H773 C771 0.929 . S
H774 C789 0.930 . S
H775 C796 0.929 . S
H776 C770 0.930 . S
H777 C769 0.931 . S
H778 C792 0.930 1_655 S
H779 C759 0.930 . S
H780 C765 0.929 . S
H781 C766 0.930 . S
H782 C787 0.930 . S
H783 C762 0.930 . S
H784 C795 0.931 . S
N785 Tb756 2.617 . S
N785 C786 1.379 1_655 S
N785 C789 1.334 . S
C786 N785 1.379 1_455 S
C786 C788 1.416 . S
C786 C794 1.424 . S
C787 H782 0.930 . S
C787 C789 1.390 1_455 S
C787 C790 1.339 . S
C788 C786 1.416 . S
C788 C790 1.416 . S
C788 C821 1.448 . S
C789 H774 0.930 . S
C789 N785 1.334 . S
C789 C787 1.390 1_655 S
C790 C787 1.339 . S
C790 C788 1.416 . S
C790 H797 0.930 . S
N791 Tb756 2.572 1_455 S
N791 C792 1.340 . S
N791 C794 1.361 . S
C792 H778 0.930 1_455 S
C792 N791 1.340 . S
C792 C796 1.407 . S
C793 C794 1.413 . S
C793 C795 1.416 . S
C793 C822 1.427 . S
C794 C786 1.424 . S
C794 N791 1.361 . S
C794 C793 1.413 . S
C795 H784 0.931 . S
C795 C793 1.416 . S
C795 C796 1.332 . S
C796 H775 0.929 . S
C796 C792 1.407 . S
C796 C795 1.332 . S
H797 C790 0.930 . S
H798 C821 0.930 . S
H799 C822 0.929 . S
O800 Tb756 2.465 . S
O800 C820 1.264 . S
O801 Tb756 2.387 . S
O801 C812 1.264 . S
O802 Tb767 2.349 . S
O802 C812 1.243 . S
O803 Tb756 2.428 . S
O803 C820 1.256 . S
O804 Tb756 2.308 . S
O804 C819 1.266 . S
O805 Tb767 2.393 . S
O805 C819 1.248 . S
O806 Tb767 2.465 . S
O806 C831 1.264 . S
O807 Tb767 2.387 . S
O807 C823 1.264 . S
O808 Tb756 2.349 . S
O808 C823 1.243 . S
O809 Tb767 2.428 . S
O809 C831 1.256 . S
O810 Tb767 2.308 . S
O810 C830 1.266 . S
O811 Tb756 2.393 . S
O811 C830 1.248 . S
C812 O801 1.264 . S
C812 O802 1.243 . S
C813 C816 1.399 . S
C813 C818 1.383 . S
C813 C820 1.496 1_554 S
C814 C815 1.399 . S
C814 C818 1.389 . S
C815 C814 1.399 . S
C815 C817 1.380 . S
C815 H832 0.929 . S
C816 C813 1.399 . S
C816 C817 1.392 . S
C816 H833 0.929 . S
C817 C815 1.380 . S
C817 C816 1.392 . S
C817 H834 0.929 . S
C818 C813 1.383 . S
C818 C814 1.389 . S
C818 H835 0.931 . S
C819 O804 1.266 . S
C819 O805 1.248 . S
C820 Tb756 2.802 . S
C820 O800 1.264 . S
C820 O803 1.256 . S
C820 C813 1.496 1_556 S
C821 C788 1.448 . S
C821 H798 0.930 . S
C821 C822 1.328 . S
C822 C793 1.427 . S
C822 H799 0.929 . S
C822 C821 1.328 . S
C823 O807 1.264 . S
C823 O808 1.243 . S
C824 C827 1.399 . S
C824 C828 1.383 . S
C824 C831 1.496 . S
C825 C826 1.399 . S
C825 C828 1.389 . S
C826 C825 1.399 . S
C826 C829 1.380 . S
C826 H836 0.929 . S
C827 C824 1.399 . S
C827 C829 1.392 . S
C827 H837 0.929 . S
C828 C824 1.383 . S
C828 C825 1.389 . S
C828 H838 0.931 . S
C829 C826 1.380 . S
C829 C827 1.392 . S
C829 H839 0.929 . S
C830 O810 1.266 . S
C830 O811 1.248 . S
C831 Tb767 2.802 . S
C831 O806 1.264 . S
C831 O809 1.256 . S
C831 C824 1.496 . S
H832 C815 0.929 . S
H833 C816 0.929 . S
H834 C817 0.929 . S
H835 C818 0.931 . S
H836 C826 0.929 . S
H837 C827 0.929 . S
H838 C828 0.931 . S
H839 C829 0.929 . S
Tb840 N869 2.617 . S
Tb840 N875 2.572 . S
Tb840 O884 2.465 . S
Tb840 O885 2.387 . S
Tb840 O887 2.428 . S
Tb840 O888 2.308 . S
Tb840 O892 2.349 . S
Tb840 O895 2.393 . S
Tb840 C904 2.802 . S
C841 N842 1.379 . S
C841 C844 1.416 . S
C841 C848 1.424 . S
N842 C841 1.379 . S
N842 C845 1.334 . S
N842 Tb851 2.617 . S
C843 C845 1.390 . S
C843 C846 1.339 . S
C843 H863 0.930 . S
C844 C841 1.416 . S
C844 C846 1.416 . S
C844 C850 1.448 . S
C845 N842 1.334 . S
C845 C843 1.390 . S
C845 H856 0.930 . S
C846 C843 1.339 . S
C846 C844 1.416 . S
C846 H867 0.930 . S
C847 C848 1.413 . S
C847 C849 1.427 . S
C847 C853 1.416 . S
C848 C841 1.424 . S
C848 C847 1.413 . S
C848 N852 1.361 . S
C849 C847 1.427 . S
C849 C850 1.328 . S
C849 H864 0.929 . S
C850 C844 1.448 . S
C850 C849 1.328 . S
C850 H865 0.930 . S
Tb851 N842 2.617 . S
Tb851 N852 2.572 . S
Tb851 O886 2.349 . S
Tb851 O889 2.393 . S
Tb851 O890 2.465 . S
Tb851 O891 2.387 . S
Tb851 O893 2.428 . S
Tb851 O894 2.308 . S
Tb851 C915 2.802 . S
N852 C848 1.361 . S
N852 Tb851 2.572 . S
N852 C854 1.340 . S
C853 C847 1.416 . S
C853 C855 1.332 . S
C853 H861 0.931 . S
C854 N852 1.340 . S
C854 C855 1.407 . S
C854 H860 0.930 . S
C855 C853 1.332 . S
C855 C854 1.407 . S
C855 H857 0.929 . S
H856 C845 0.930 . S
H857 C855 0.929 . S
H858 C873 0.930 . S
H859 C880 0.929 . S
H860 C854 0.930 . S
H861 C853 0.931 . S
H862 C876 0.930 . S
H863 C843 0.930 . S
H864 C849 0.929 . S
H865 C850 0.930 . S
H866 C871 0.930 . S
H867 C846 0.930 . S
H868 C879 0.931 . S
N869 Tb840 2.617 . S
N869 C870 1.379 . S
N869 C873 1.334 . S
C870 N869 1.379 . S
C870 C872 1.416 . S
C870 C878 1.424 . S
C871 H866 0.930 . S
C871 C873 1.390 . S
C871 C874 1.339 . S
C872 C870 1.416 . S
C872 C874 1.416 . S
C872 C905 1.448 . S
C873 H858 0.930 . S
C873 N869 1.334 . S
C873 C871 1.390 . S
C874 C871 1.339 . S
C874 C872 1.416 . S
C874 H881 0.930 . S
N875 Tb840 2.572 . S
N875 C876 1.340 . S
N875 C878 1.361 . S
C876 H862 0.930 . S
C876 N875 1.340 . S
C876 C880 1.407 . S
C877 C878 1.413 . S
C877 C879 1.416 . S
C877 C906 1.427 . S
C878 C870 1.424 . S
C878 N875 1.361 . S
C878 C877 1.413 . S
C879 H868 0.931 . S
C879 C877 1.416 . S
C879 C880 1.332 . S
C880 H859 0.929 . S
C880 C876 1.407 . S
C880 C879 1.332 . S
H881 C874 0.930 . S
H882 C905 0.930 . S
H883 C906 0.929 . S
O884 Tb840 2.465 . S
O884 C904 1.264 . S
O885 Tb840 2.387 . S
O885 C896 1.264 . S
O886 Tb851 2.349 . S
O886 C896 1.243 . S
O887 Tb840 2.428 . S
O887 C904 1.256 . S
O888 Tb840 2.308 . S
O888 C903 1.266 . S
O889 Tb851 2.393 . S
O889 C903 1.248 . S
O890 Tb851 2.465 . S
O890 C915 1.264 . S
O891 Tb851 2.387 . S
O891 C907 1.264 . S
O892 Tb840 2.349 . S
O892 C907 1.243 . S
O893 Tb851 2.428 . S
O893 C915 1.256 . S
O894 Tb851 2.308 . S
O894 C914 1.266 . S
O895 Tb840 2.393 . S
O895 C914 1.248 . S
C896 O885 1.264 . S
C896 O886 1.243 . S
C897 C900 1.399 . S
C897 C902 1.383 . S
C897 C904 1.496 . S
C898 C899 1.399 . S
C898 C902 1.389 . S
C899 C898 1.399 . S
C899 C901 1.380 . S
C899 H916 0.929 . S
C900 C897 1.399 . S
C900 C901 1.392 . S
C900 H917 0.929 . S
C901 C899 1.380 . S
C901 C900 1.392 . S
C901 H918 0.929 . S
C902 C897 1.383 . S
C902 C898 1.389 . S
C902 H919 0.931 . S
C903 O888 1.266 . S
C903 O889 1.248 . S
C904 Tb840 2.802 . S
C904 O884 1.264 . S
C904 O887 1.256 . S
C904 C897 1.496 . S
C905 C872 1.448 . S
C905 H882 0.930 . S
C905 C906 1.328 . S
C906 C877 1.427 . S
C906 H883 0.929 . S
C906 C905 1.328 . S
C907 O891 1.264 . S
C907 O892 1.243 . S
C908 C911 1.399 . S
C908 C912 1.383 . S
C908 C915 1.496 . S
C909 C910 1.399 . S
C909 C912 1.389 . S
C910 C909 1.399 . S
C910 C913 1.380 . S
C910 H920 0.929 . S
C911 C908 1.399 . S
C911 C913 1.392 . S
C911 H921 0.929 . S
C912 C908 1.383 . S
C912 C909 1.389 . S
C912 H922 0.931 . S
C913 C910 1.380 . S
C913 C911 1.392 . S
C913 H923 0.929 . S
C914 O894 1.266 . S
C914 O895 1.248 . S
C915 Tb851 2.802 . S
C915 O890 1.264 . S
C915 O893 1.256 . S
C915 C908 1.496 . S
H916 C899 0.929 . S
H917 C900 0.929 . S
H918 C901 0.929 . S
H919 C902 0.931 . S
H920 C910 0.929 . S
H921 C911 0.929 . S
H922 C912 0.931 . S
H923 C913 0.929 . S
Tb924 N953 2.617 . S
Tb924 N959 2.572 1_655 S
Tb924 O968 2.465 . S
Tb924 O969 2.387 . S
Tb924 O971 2.428 . S
Tb924 O972 2.308 . S
Tb924 O976 2.349 . S
Tb924 O979 2.393 . S
Tb924 C988 2.802 . S
C925 N926 1.379 . S
C925 C928 1.416 . S
C925 C932 1.424 . S
N926 C925 1.379 . S
N926 C929 1.334 . S
N926 Tb935 2.617 . S
C927 C929 1.390 . S
C927 C930 1.339 . S
C927 H947 0.930 . S
C928 C925 1.416 . S
C928 C930 1.416 . S
C928 C934 1.448 . S
C929 N926 1.334 . S
C929 C927 1.390 . S
C929 H940 0.930 . S
C930 C927 1.339 . S
C930 C928 1.416 . S
C930 H951 0.930 . S
C931 C932 1.413 . S
C931 C933 1.427 . S
C931 C937 1.416 . S
C932 C925 1.424 . S
C932 C931 1.413 . S
C932 N936 1.361 . S
C933 C931 1.427 . S
C933 C934 1.328 . S
C933 H948 0.929 . S
C934 C928 1.448 . S
C934 C933 1.328 . S
C934 H949 0.930 . S
Tb935 N926 2.617 . S
Tb935 N936 2.572 . S
Tb935 O970 2.349 . S
Tb935 O973 2.393 . S
Tb935 O974 2.465 . S
Tb935 O975 2.387 . S
Tb935 O977 2.428 . S
Tb935 O978 2.308 . S
Tb935 C999 2.802 . S
N936 C932 1.361 . S
N936 Tb935 2.572 . S
N936 C938 1.340 . S
C937 C931 1.416 . S
C937 C939 1.332 . S
C937 H945 0.931 . S
C938 N936 1.340 . S
C938 C939 1.407 . S
C938 H944 0.930 . S
C939 C937 1.332 . S
C939 C938 1.407 . S
C939 H941 0.929 . S
H940 C929 0.930 . S
H941 C939 0.929 . S
H942 C957 0.930 . S
H943 C964 0.929 . S
H944 C938 0.930 . S
H945 C937 0.931 . S
H946 C960 0.930 1_655 S
H947 C927 0.930 . S
H948 C933 0.929 . S
H949 C934 0.930 . S
H950 C955 0.930 . S
H951 C930 0.930 . S
H952 C963 0.931 . S
N953 Tb924 2.617 . S
N953 C954 1.379 1_655 S
N953 C957 1.334 . S
C954 N953 1.379 1_455 S
C954 C956 1.416 . S
C954 C962 1.424 . S
C955 H950 0.930 . S
C955 C957 1.390 1_455 S
C955 C958 1.339 . S
C956 C954 1.416 . S
C956 C958 1.416 . S
C956 C989 1.448 . S
C957 H942 0.930 . S
C957 N953 1.334 . S
C957 C955 1.390 1_655 S
C958 C955 1.339 . S
C958 C956 1.416 . S
C958 H965 0.930 . S
N959 Tb924 2.572 1_455 S
N959 C960 1.340 . S
N959 C962 1.361 . S
C960 H946 0.930 1_455 S
C960 N959 1.340 . S
C960 C964 1.407 . S
C961 C962 1.413 . S
C961 C963 1.416 . S
C961 C990 1.427 . S
C962 C954 1.424 . S
C962 N959 1.361 . S
C962 C961 1.413 . S
C963 H952 0.931 . S
C963 C961 1.416 . S
C963 C964 1.332 . S
C964 H943 0.929 . S
C964 C960 1.407 . S
C964 C963 1.332 . S
H965 C958 0.930 . S
H966 C989 0.930 . S
H967 C990 0.929 . S
O968 Tb924 2.465 . S
O968 C988 1.264 . S
O969 Tb924 2.387 . S
O969 C980 1.264 . S
O970 Tb935 2.349 . S
O970 C980 1.243 . S
O971 Tb924 2.428 . S
O971 C988 1.256 . S
O972 Tb924 2.308 . S
O972 C987 1.266 . S
O973 Tb935 2.393 . S
O973 C987 1.248 . S
O974 Tb935 2.465 . S
O974 C999 1.264 . S
O975 Tb935 2.387 . S
O975 C991 1.264 . S
O976 Tb924 2.349 . S
O976 C991 1.243 . S
O977 Tb935 2.428 . S
O977 C999 1.256 . S
O978 Tb935 2.308 . S
O978 C998 1.266 . S
O979 Tb924 2.393 . S
O979 C998 1.248 . S
C980 O969 1.264 . S
C980 O970 1.243 . S
C981 C984 1.399 . S
C981 C986 1.383 . S
C981 C988 1.496 . S
C982 C983 1.399 . S
C982 C986 1.389 . S
C983 C982 1.399 . S
C983 C985 1.380 . S
C983 H1000 0.929 . S
C984 C981 1.399 . S
C984 C985 1.392 . S
C984 H1001 0.929 . S
C985 C983 1.380 . S
C985 C984 1.392 . S
C985 H1002 0.929 . S
C986 C981 1.383 . S
C986 C982 1.389 . S
C986 H1003 0.931 . S
C987 O972 1.266 . S
C987 O973 1.248 . S
C988 Tb924 2.802 . S
C988 O968 1.264 . S
C988 O971 1.256 . S
C988 C981 1.496 . S
C989 C956 1.448 . S
C989 H966 0.930 . S
C989 C990 1.328 . S
C990 C961 1.427 . S
C990 H967 0.929 . S
C990 C989 1.328 . S
C991 O975 1.264 . S
C991 O976 1.243 . S
C992 C995 1.399 . S
C992 C996 1.383 . S
C992 C999 1.496 . S
C993 C994 1.399 . S
C993 C996 1.389 . S
C994 C993 1.399 . S
C994 C997 1.380 . S
C994 H1004 0.929 . S
C995 C992 1.399 . S
C995 C997 1.392 . S
C995 H1005 0.929 . S
C996 C992 1.383 . S
C996 C993 1.389 . S
C996 H1006 0.931 . S
C997 C994 1.380 . S
C997 C995 1.392 . S
C997 H1007 0.929 . S
C998 O978 1.266 . S
C998 O979 1.248 . S
C999 Tb935 2.802 . S
C999 O974 1.264 . S
C999 O977 1.256 . S
C999 C992 1.496 . S
H1000 C983 0.929 . S
H1001 C984 0.929 . S
H1002 C985 0.929 . S
H1003 C986 0.931 . S
H1004 C994 0.929 . S
H1005 C995 0.929 . S
H1006 C996 0.931 . S
H1007 C997 0.929 . S
Tb1008 N1037 2.617 . S
Tb1008 N1043 2.572 . S
Tb1008 O1052 2.465 . S
Tb1008 O1053 2.387 . S
Tb1008 O1055 2.428 . S
Tb1008 O1056 2.308 . S
Tb1008 O1060 2.349 . S
Tb1008 O1063 2.393 . S
Tb1008 C1072 2.802 . S
C1009 N1010 1.379 . S
C1009 C1012 1.416 . S
C1009 C1016 1.424 . S
N1010 C1009 1.379 . S
N1010 C1013 1.334 . S
N1010 Tb1019 2.617 . S
C1011 C1013 1.390 . S
C1011 C1014 1.339 . S
C1011 H1031 0.930 . S
C1012 C1009 1.416 . S
C1012 C1014 1.416 . S
C1012 C1018 1.448 . S
C1013 N1010 1.334 . S
C1013 C1011 1.390 . S
C1013 H1024 0.930 . S
C1014 C1011 1.339 . S
C1014 C1012 1.416 . S
C1014 H1035 0.930 . S
C1015 C1016 1.413 . S
C1015 C1017 1.427 . S
C1015 C1021 1.416 . S
C1016 C1009 1.424 . S
C1016 C1015 1.413 . S
C1016 N1020 1.361 . S
C1017 C1015 1.427 . S
C1017 C1018 1.328 . S
C1017 H1032 0.929 . S
C1018 C1012 1.448 . S
C1018 C1017 1.328 . S
C1018 H1033 0.930 . S
Tb1019 N1010 2.617 . S
Tb1019 N1020 2.572 . S
Tb1019 O1054 2.349 . S
Tb1019 O1057 2.393 . S
Tb1019 O1058 2.465 . S
Tb1019 O1059 2.387 . S
Tb1019 O1061 2.428 . S
Tb1019 O1062 2.308 . S
Tb1019 C1083 2.802 . S
N1020 C1016 1.361 . S
N1020 Tb1019 2.572 . S
N1020 C1022 1.340 . S
C1021 C1015 1.416 . S
C1021 C1023 1.332 . S
C1021 H1029 0.931 . S
C1022 N1020 1.340 . S
C1022 C1023 1.407 . S
C1022 H1028 0.930 . S
C1023 C1021 1.332 . S
C1023 C1022 1.407 . S
C1023 H1025 0.929 . S
H1024 C1013 0.930 . S
H1025 C1023 0.929 . S
H1026 C1041 0.930 . S
H1027 C1048 0.929 . S
H1028 C1022 0.930 . S
H1029 C1021 0.931 . S
H1030 C1044 0.930 . S
H1031 C1011 0.930 . S
H1032 C1017 0.929 . S
H1033 C1018 0.930 . S
H1034 C1039 0.930 . S
H1035 C1014 0.930 . S
H1036 C1047 0.931 . S
N1037 Tb1008 2.617 . S
N1037 C1038 1.379 . S
N1037 C1041 1.334 . S
C1038 N1037 1.379 . S
C1038 C1040 1.416 . S
C1038 C1046 1.424 . S
C1039 H1034 0.930 . S
C1039 C1041 1.390 . S
C1039 C1042 1.339 . S
C1040 C1038 1.416 . S
C1040 C1042 1.416 . S
C1040 C1073 1.448 . S
C1041 H1026 0.930 . S
C1041 N1037 1.334 . S
C1041 C1039 1.390 . S
C1042 C1039 1.339 . S
C1042 C1040 1.416 . S
C1042 H1049 0.930 . S
N1043 Tb1008 2.572 . S
N1043 C1044 1.340 . S
N1043 C1046 1.361 . S
C1044 H1030 0.930 . S
C1044 N1043 1.340 . S
C1044 C1048 1.407 . S
C1045 C1046 1.413 . S
C1045 C1047 1.416 . S
C1045 C1074 1.427 . S
C1046 C1038 1.424 . S
C1046 N1043 1.361 . S
C1046 C1045 1.413 . S
C1047 H1036 0.931 . S
C1047 C1045 1.416 . S
C1047 C1048 1.332 . S
C1048 H1027 0.929 . S
C1048 C1044 1.407 . S
C1048 C1047 1.332 . S
H1049 C1042 0.930 . S
H1050 C1073 0.930 . S
H1051 C1074 0.929 . S
O1052 Tb1008 2.465 . S
O1052 C1072 1.264 . S
O1053 Tb1008 2.387 . S
O1053 C1064 1.264 . S
O1054 Tb1019 2.349 . S
O1054 C1064 1.243 . S
O1055 Tb1008 2.428 . S
O1055 C1072 1.256 . S
O1056 Tb1008 2.308 . S
O1056 C1071 1.266 . S
O1057 Tb1019 2.393 . S
O1057 C1071 1.248 . S
O1058 Tb1019 2.465 . S
O1058 C1083 1.264 . S
O1059 Tb1019 2.387 . S
O1059 C1075 1.264 . S
O1060 Tb1008 2.349 . S
O1060 C1075 1.243 . S
O1061 Tb1019 2.428 . S
O1061 C1083 1.256 . S
O1062 Tb1019 2.308 . S
O1062 C1082 1.266 . S
O1063 Tb1008 2.393 . S
O1063 C1082 1.248 . S
C1064 O1053 1.264 . S
C1064 O1054 1.243 . S
C1065 C1068 1.399 . S
C1065 C1070 1.383 . S
C1065 C1072 1.496 . S
C1066 C1067 1.399 . S
C1066 C1070 1.389 . S
C1067 C1066 1.399 . S
C1067 C1069 1.380 . S
C1067 H1084 0.929 . S
C1068 C1065 1.399 . S
C1068 C1069 1.392 . S
C1068 H1085 0.929 . S
C1069 C1067 1.380 . S
C1069 C1068 1.392 . S
C1069 H1086 0.929 . S
C1070 C1065 1.383 . S
C1070 C1066 1.389 . S
C1070 H1087 0.931 . S
C1071 O1056 1.266 . S
C1071 O1057 1.248 . S
C1072 Tb1008 2.802 . S
C1072 O1052 1.264 . S
C1072 O1055 1.256 . S
C1072 C1065 1.496 . S
C1073 C1040 1.448 . S
C1073 H1050 0.930 . S
C1073 C1074 1.328 . S
C1074 C1045 1.427 . S
C1074 H1051 0.929 . S
C1074 C1073 1.328 . S
C1075 O1059 1.264 . S
C1075 O1060 1.243 . S
C1076 C1079 1.399 . S
C1076 C1080 1.383 . S
C1076 C1083 1.496 1_556 S
C1077 C1078 1.399 . S
C1077 C1080 1.389 . S
C1078 C1077 1.399 . S
C1078 C1081 1.380 . S
C1078 H1088 0.929 . S
C1079 C1076 1.399 . S
C1079 C1081 1.392 . S
C1079 H1089 0.929 . S
C1080 C1076 1.383 . S
C1080 C1077 1.389 . S
C1080 H1090 0.931 . S
C1081 C1078 1.380 . S
C1081 C1079 1.392 . S
C1081 H1091 0.929 . S
C1082 O1062 1.266 . S
C1082 O1063 1.248 . S
C1083 Tb1019 2.802 . S
C1083 O1058 1.264 . S
C1083 O1061 1.256 . S
C1083 C1076 1.496 1_554 S
H1084 C1067 0.929 . S
H1085 C1068 0.929 . S
H1086 C1069 0.929 . S
H1087 C1070 0.931 . S
H1088 C1078 0.929 . S
H1089 C1079 0.929 . S
H1090 C1080 0.931 . S
H1091 C1081 0.929 . S
Tb1092 N1121 2.617 . S
Tb1092 N1127 2.572 . S
Tb1092 O1136 2.465 . S
Tb1092 O1137 2.387 . S
Tb1092 O1139 2.428 . S
Tb1092 O1140 2.308 . S
Tb1092 O1144 2.349 . S
Tb1092 O1147 2.393 . S
Tb1092 C1156 2.802 . S
C1093 N1094 1.379 1_655 S
C1093 C1096 1.416 . S
C1093 C1100 1.424 . S
N1094 C1093 1.379 1_455 S
N1094 C1097 1.334 . S
N1094 Tb1103 2.617 . S
C1095 C1097 1.390 1_655 S
C1095 C1098 1.339 . S
C1095 H1115 0.930 . S
C1096 C1093 1.416 . S
C1096 C1098 1.416 . S
C1096 C1102 1.448 . S
C1097 N1094 1.334 . S
C1097 C1095 1.390 1_455 S
C1097 H1108 0.930 . S
C1098 C1095 1.339 . S
C1098 C1096 1.416 . S
C1098 H1119 0.930 . S
C1099 C1100 1.413 . S
C1099 C1101 1.427 . S
C1099 C1105 1.416 . S
C1100 C1093 1.424 . S
C1100 C1099 1.413 . S
C1100 N1104 1.361 . S
C1101 C1099 1.427 . S
C1101 C1102 1.328 . S
C1101 H1116 0.929 . S
C1102 C1096 1.448 . S
C1102 C1101 1.328 . S
C1102 H1117 0.930 . S
Tb1103 N1094 2.617 . S
Tb1103 N1104 2.572 1_455 S
Tb1103 O1138 2.349 . S
Tb1103 O1141 2.393 . S
Tb1103 O1142 2.465 . S
Tb1103 O1143 2.387 . S
Tb1103 O1145 2.428 . S
Tb1103 O1146 2.308 . S
Tb1103 C1167 2.802 . S
N1104 C1100 1.361 . S
N1104 Tb1103 2.572 1_655 S
N1104 C1106 1.340 . S
C1105 C1099 1.416 . S
C1105 C1107 1.332 . S
C1105 H1113 0.931 . S
C1106 N1104 1.340 . S
C1106 C1107 1.407 . S
C1106 H1112 0.930 1_655 S
C1107 C1105 1.332 . S
C1107 C1106 1.407 . S
C1107 H1109 0.929 . S
H1108 C1097 0.930 . S
H1109 C1107 0.929 . S
H1110 C1125 0.930 . S
H1111 C1132 0.929 . S
H1112 C1106 0.930 1_455 S
H1113 C1105 0.931 . S
H1114 C1128 0.930 . S
H1115 C1095 0.930 . S
H1116 C1101 0.929 . S
H1117 C1102 0.930 . S
H1118 C1123 0.930 . S
H1119 C1098 0.930 . S
H1120 C1131 0.931 . S
N1121 Tb1092 2.617 . S
N1121 C1122 1.379 . S
N1121 C1125 1.334 . S
C1122 N1121 1.379 . S
C1122 C1124 1.416 . S
C1122 C1130 1.424 . S
C1123 H1118 0.930 . S
C1123 C1125 1.390 . S
C1123 C1126 1.339 . S
C1124 C1122 1.416 . S
C1124 C1126 1.416 . S
C1124 C1157 1.448 . S
C1125 H1110 0.930 . S
C1125 N1121 1.334 . S
C1125 C1123 1.390 . S
C1126 C1123 1.339 . S
C1126 C1124 1.416 . S
C1126 H1133 0.930 . S
N1127 Tb1092 2.572 . S
N1127 C1128 1.340 . S
N1127 C1130 1.361 . S
C1128 H1114 0.930 . S
C1128 N1127 1.340 . S
C1128 C1132 1.407 . S
C1129 C1130 1.413 . S
C1129 C1131 1.416 . S
C1129 C1158 1.427 . S
C1130 C1122 1.424 . S
C1130 N1127 1.361 . S
C1130 C1129 1.413 . S
C1131 H1120 0.931 . S
C1131 C1129 1.416 . S
C1131 C1132 1.332 . S
C1132 H1111 0.929 . S
C1132 C1128 1.407 . S
C1132 C1131 1.332 . S
H1133 C1126 0.930 . S
H1134 C1157 0.930 . S
H1135 C1158 0.929 . S
O1136 Tb1092 2.465 . S
O1136 C1156 1.264 . S
O1137 Tb1092 2.387 . S
O1137 C1148 1.264 . S
O1138 Tb1103 2.349 . S
O1138 C1148 1.243 . S
O1139 Tb1092 2.428 . S
O1139 C1156 1.256 . S
O1140 Tb1092 2.308 . S
O1140 C1155 1.266 . S
O1141 Tb1103 2.393 . S
O1141 C1155 1.248 . S
O1142 Tb1103 2.465 . S
O1142 C1167 1.264 . S
O1143 Tb1103 2.387 . S
O1143 C1159 1.264 . S
O1144 Tb1092 2.349 . S
O1144 C1159 1.243 . S
O1145 Tb1103 2.428 . S
O1145 C1167 1.256 . S
O1146 Tb1103 2.308 . S
O1146 C1166 1.266 . S
O1147 Tb1092 2.393 . S
O1147 C1166 1.248 . S
C1148 O1137 1.264 . S
C1148 O1138 1.243 . S
C1149 C1152 1.399 . S
C1149 C1154 1.383 . S
C1149 C1156 1.496 . S
C1150 C1151 1.399 . S
C1150 C1154 1.389 . S
C1151 C1150 1.399 . S
C1151 C1153 1.380 . S
C1151 H1168 0.929 . S
C1152 C1149 1.399 . S
C1152 C1153 1.392 . S
C1152 H1169 0.929 . S
C1153 C1151 1.380 . S
C1153 C1152 1.392 . S
C1153 H1170 0.929 . S
C1154 C1149 1.383 . S
C1154 C1150 1.389 . S
C1154 H1171 0.931 . S
C1155 O1140 1.266 . S
C1155 O1141 1.248 . S
C1156 Tb1092 2.802 . S
C1156 O1136 1.264 . S
C1156 O1139 1.256 . S
C1156 C1149 1.496 . S
C1157 C1124 1.448 . S
C1157 H1134 0.930 . S
C1157 C1158 1.328 . S
C1158 C1129 1.427 . S
C1158 H1135 0.929 . S
C1158 C1157 1.328 . S
C1159 O1143 1.264 . S
C1159 O1144 1.243 . S
C1160 C1163 1.399 . S
C1160 C1164 1.383 . S
C1160 C1167 1.496 1_556 S
C1161 C1162 1.399 . S
C1161 C1164 1.389 . S
C1162 C1161 1.399 . S
C1162 C1165 1.380 . S
C1162 H1172 0.929 . S
C1163 C1160 1.399 . S
C1163 C1165 1.392 . S
C1163 H1173 0.929 . S
C1164 C1160 1.383 . S
C1164 C1161 1.389 . S
C1164 H1174 0.931 . S
C1165 C1162 1.380 . S
C1165 C1163 1.392 . S
C1165 H1175 0.929 . S
C1166 O1146 1.266 . S
C1166 O1147 1.248 . S
C1167 Tb1103 2.802 . S
C1167 O1142 1.264 . S
C1167 O1145 1.256 . S
C1167 C1160 1.496 1_554 S
H1168 C1151 0.929 . S
H1169 C1152 0.929 . S
H1170 C1153 0.929 . S
H1171 C1154 0.931 . S
H1172 C1162 0.929 . S
H1173 C1163 0.929 . S
H1174 C1164 0.931 . S
H1175 C1165 0.929 . S
Tb1176 N1205 2.617 . S
Tb1176 N1211 2.572 . S
Tb1176 O1220 2.465 . S
Tb1176 O1221 2.387 . S
Tb1176 O1223 2.428 . S
Tb1176 O1224 2.308 . S
Tb1176 O1228 2.349 . S
Tb1176 O1231 2.393 . S
Tb1176 C1240 2.802 . S
C1177 N1178 1.379 . S
C1177 C1180 1.416 . S
C1177 C1184 1.424 . S
N1178 C1177 1.379 . S
N1178 C1181 1.334 . S
N1178 Tb1187 2.617 . S
C1179 C1181 1.390 . S
C1179 C1182 1.339 . S
C1179 H1199 0.930 . S
C1180 C1177 1.416 . S
C1180 C1182 1.416 . S
C1180 C1186 1.448 . S
C1181 N1178 1.334 . S
C1181 C1179 1.390 . S
C1181 H1192 0.930 . S
C1182 C1179 1.339 . S
C1182 C1180 1.416 . S
C1182 H1203 0.930 . S
C1183 C1184 1.413 . S
C1183 C1185 1.427 . S
C1183 C1189 1.416 . S
C1184 C1177 1.424 . S
C1184 C1183 1.413 . S
C1184 N1188 1.361 . S
C1185 C1183 1.427 . S
C1185 C1186 1.328 . S
C1185 H1200 0.929 . S
C1186 C1180 1.448 . S
C1186 C1185 1.328 . S
C1186 H1201 0.930 . S
Tb1187 N1178 2.617 . S
Tb1187 N1188 2.572 . S
Tb1187 O1222 2.349 . S
Tb1187 O1225 2.393 . S
Tb1187 O1226 2.465 . S
Tb1187 O1227 2.387 . S
Tb1187 O1229 2.428 . S
Tb1187 O1230 2.308 . S
Tb1187 C1251 2.802 . S
N1188 C1184 1.361 . S
N1188 Tb1187 2.572 . S
N1188 C1190 1.340 . S
C1189 C1183 1.416 . S
C1189 C1191 1.332 . S
C1189 H1197 0.931 . S
C1190 N1188 1.340 . S
C1190 C1191 1.407 . S
C1190 H1196 0.930 . S
C1191 C1189 1.332 . S
C1191 C1190 1.407 . S
C1191 H1193 0.929 . S
H1192 C1181 0.930 . S
H1193 C1191 0.929 . S
H1194 C1209 0.930 . S
H1195 C1216 0.929 . S
H1196 C1190 0.930 . S
H1197 C1189 0.931 . S
H1198 C1212 0.930 . S
H1199 C1179 0.930 . S
H1200 C1185 0.929 . S
H1201 C1186 0.930 . S
H1202 C1207 0.930 . S
H1203 C1182 0.930 . S
H1204 C1215 0.931 . S
N1205 Tb1176 2.617 . S
N1205 C1206 1.379 . S
N1205 C1209 1.334 . S
C1206 N1205 1.379 . S
C1206 C1208 1.416 . S
C1206 C1214 1.424 . S
C1207 H1202 0.930 . S
C1207 C1209 1.390 . S
C1207 C1210 1.339 . S
C1208 C1206 1.416 . S
C1208 C1210 1.416 . S
C1208 C1241 1.448 . S
C1209 H1194 0.930 . S
C1209 N1205 1.334 . S
C1209 C1207 1.390 . S
C1210 C1207 1.339 . S
C1210 C1208 1.416 . S
C1210 H1217 0.930 . S
N1211 Tb1176 2.572 . S
N1211 C1212 1.340 . S
N1211 C1214 1.361 . S
C1212 H1198 0.930 . S
C1212 N1211 1.340 . S
C1212 C1216 1.407 . S
C1213 C1214 1.413 . S
C1213 C1215 1.416 . S
C1213 C1242 1.427 . S
C1214 C1206 1.424 . S
C1214 N1211 1.361 . S
C1214 C1213 1.413 . S
C1215 H1204 0.931 . S
C1215 C1213 1.416 . S
C1215 C1216 1.332 . S
C1216 H1195 0.929 . S
C1216 C1212 1.407 . S
C1216 C1215 1.332 . S
H1217 C1210 0.930 . S
H1218 C1241 0.930 . S
H1219 C1242 0.929 . S
O1220 Tb1176 2.465 . S
O1220 C1240 1.264 . S
O1221 Tb1176 2.387 . S
O1221 C1232 1.264 . S
O1222 Tb1187 2.349 . S
O1222 C1232 1.243 . S
O1223 Tb1176 2.428 . S
O1223 C1240 1.256 . S
O1224 Tb1176 2.308 . S
O1224 C1239 1.266 . S
O1225 Tb1187 2.393 . S
O1225 C1239 1.248 . S
O1226 Tb1187 2.465 . S
O1226 C1251 1.264 . S
O1227 Tb1187 2.387 . S
O1227 C1243 1.264 . S
O1228 Tb1176 2.349 . S
O1228 C1243 1.243 . S
O1229 Tb1187 2.428 . S
O1229 C1251 1.256 . S
O1230 Tb1187 2.308 . S
O1230 C1250 1.266 . S
O1231 Tb1176 2.393 . S
O1231 C1250 1.248 . S
C1232 O1221 1.264 . S
C1232 O1222 1.243 . S
C1233 C1236 1.399 . S
C1233 C1238 1.383 . S
C1233 C1240 1.496 . S
C1234 C1235 1.399 . S
C1234 C1238 1.389 . S
C1235 C1234 1.399 . S
C1235 C1237 1.380 . S
C1235 H1252 0.929 . S
C1236 C1233 1.399 . S
C1236 C1237 1.392 . S
C1236 H1253 0.929 . S
C1237 C1235 1.380 . S
C1237 C1236 1.392 . S
C1237 H1254 0.929 . S
C1238 C1233 1.383 . S
C1238 C1234 1.389 . S
C1238 H1255 0.931 . S
C1239 O1224 1.266 . S
C1239 O1225 1.248 . S
C1240 Tb1176 2.802 . S
C1240 O1220 1.264 . S
C1240 O1223 1.256 . S
C1240 C1233 1.496 . S
C1241 C1208 1.448 . S
C1241 H1218 0.930 . S
C1241 C1242 1.328 . S
C1242 C1213 1.427 . S
C1242 H1219 0.929 . S
C1242 C1241 1.328 . S
C1243 O1227 1.264 . S
C1243 O1228 1.243 . S
C1244 C1247 1.399 . S
C1244 C1248 1.383 . S
C1244 C1251 1.496 . S
C1245 C1246 1.399 . S
C1245 C1248 1.389 . S
C1246 C1245 1.399 . S
C1246 C1249 1.380 . S
C1246 H1256 0.929 . S
C1247 C1244 1.399 . S
C1247 C1249 1.392 . S
C1247 H1257 0.929 . S
C1248 C1244 1.383 . S
C1248 C1245 1.389 . S
C1248 H1258 0.931 . S
C1249 C1246 1.380 . S
C1249 C1247 1.392 . S
C1249 H1259 0.929 . S
C1250 O1230 1.266 . S
C1250 O1231 1.248 . S
C1251 Tb1187 2.802 . S
C1251 O1226 1.264 . S
C1251 O1229 1.256 . S
C1251 C1244 1.496 . S
H1252 C1235 0.929 . S
H1253 C1236 0.929 . S
H1254 C1237 0.929 . S
H1255 C1238 0.931 . S
H1256 C1246 0.929 . S
H1257 C1247 0.929 . S
H1258 C1248 0.931 . S
H1259 C1249 0.929 . S
Tb1260 N1289 2.617 . S
Tb1260 N1295 2.572 . S
Tb1260 O1304 2.465 . S
Tb1260 O1305 2.387 . S
Tb1260 O1307 2.428 . S
Tb1260 O1308 2.308 . S
Tb1260 O1312 2.349 . S
Tb1260 O1315 2.393 . S
Tb1260 C1324 2.802 . S
C1261 N1262 1.379 1_655 S
C1261 C1264 1.416 . S
C1261 C1268 1.424 . S
N1262 C1261 1.379 1_455 S
N1262 C1265 1.334 . S
N1262 Tb1271 2.617 . S
C1263 C1265 1.390 1_655 S
C1263 C1266 1.339 . S
C1263 H1283 0.930 . S
C1264 C1261 1.416 . S
C1264 C1266 1.416 . S
C1264 C1270 1.448 . S
C1265 N1262 1.334 . S
C1265 C1263 1.390 1_455 S
C1265 H1276 0.930 . S
C1266 C1263 1.339 . S
C1266 C1264 1.416 . S
C1266 H1287 0.930 . S
C1267 C1268 1.413 . S
C1267 C1269 1.427 . S
C1267 C1273 1.416 . S
C1268 C1261 1.424 . S
C1268 C1267 1.413 . S
C1268 N1272 1.361 . S
C1269 C1267 1.427 . S
C1269 C1270 1.328 . S
C1269 H1284 0.929 . S
C1270 C1264 1.448 . S
C1270 C1269 1.328 . S
C1270 H1285 0.930 . S
Tb1271 N1262 2.617 . S
Tb1271 N1272 2.572 1_455 S
Tb1271 O1306 2.349 . S
Tb1271 O1309 2.393 . S
Tb1271 O1310 2.465 . S
Tb1271 O1311 2.387 . S
Tb1271 O1313 2.428 . S
Tb1271 O1314 2.308 . S
Tb1271 C1335 2.802 . S
N1272 C1268 1.361 . S
N1272 Tb1271 2.572 1_655 S
N1272 C1274 1.340 . S
C1273 C1267 1.416 . S
C1273 C1275 1.332 . S
C1273 H1281 0.931 . S
C1274 N1272 1.340 . S
C1274 C1275 1.407 . S
C1274 H1280 0.930 1_655 S
C1275 C1273 1.332 . S
C1275 C1274 1.407 . S
C1275 H1277 0.929 . S
H1276 C1265 0.930 . S
H1277 C1275 0.929 . S
H1278 C1293 0.930 . S
H1279 C1300 0.929 . S
H1280 C1274 0.930 1_455 S
H1281 C1273 0.931 . S
H1282 C1296 0.930 . S
H1283 C1263 0.930 . S
H1284 C1269 0.929 . S
H1285 C1270 0.930 . S
H1286 C1291 0.930 . S
H1287 C1266 0.930 . S
H1288 C1299 0.931 . S
N1289 Tb1260 2.617 . S
N1289 C1290 1.379 . S
N1289 C1293 1.334 . S
C1290 N1289 1.379 . S
C1290 C1292 1.416 . S
C1290 C1298 1.424 . S
C1291 H1286 0.930 . S
C1291 C1293 1.390 . S
C1291 C1294 1.339 . S
C1292 C1290 1.416 . S
C1292 C1294 1.416 . S
C1292 C1325 1.448 . S
C1293 H1278 0.930 . S
C1293 N1289 1.334 . S
C1293 C1291 1.390 . S
C1294 C1291 1.339 . S
C1294 C1292 1.416 . S
C1294 H1301 0.930 . S
N1295 Tb1260 2.572 . S
N1295 C1296 1.340 . S
N1295 C1298 1.361 . S
C1296 H1282 0.930 . S
C1296 N1295 1.340 . S
C1296 C1300 1.407 . S
C1297 C1298 1.413 . S
C1297 C1299 1.416 . S
C1297 C1326 1.427 . S
C1298 C1290 1.424 . S
C1298 N1295 1.361 . S
C1298 C1297 1.413 . S
C1299 H1288 0.931 . S
C1299 C1297 1.416 . S
C1299 C1300 1.332 . S
C1300 H1279 0.929 . S
C1300 C1296 1.407 . S
C1300 C1299 1.332 . S
H1301 C1294 0.930 . S
H1302 C1325 0.930 . S
H1303 C1326 0.929 . S
O1304 Tb1260 2.465 . S
O1304 C1324 1.264 . S
O1305 Tb1260 2.387 . S
O1305 C1316 1.264 . S
O1306 Tb1271 2.349 . S
O1306 C1316 1.243 . S
O1307 Tb1260 2.428 . S
O1307 C1324 1.256 . S
O1308 Tb1260 2.308 . S
O1308 C1323 1.266 . S
O1309 Tb1271 2.393 . S
O1309 C1323 1.248 . S
O1310 Tb1271 2.465 . S
O1310 C1335 1.264 . S
O1311 Tb1271 2.387 . S
O1311 C1327 1.264 . S
O1312 Tb1260 2.349 . S
O1312 C1327 1.243 . S
O1313 Tb1271 2.428 . S
O1313 C1335 1.256 . S
O1314 Tb1271 2.308 . S
O1314 C1334 1.266 . S
O1315 Tb1260 2.393 . S
O1315 C1334 1.248 . S
C1316 O1305 1.264 . S
C1316 O1306 1.243 . S
C1317 C1320 1.399 . S
C1317 C1322 1.383 . S
C1317 C1324 1.496 . S
C1318 C1319 1.399 . S
C1318 C1322 1.389 . S
C1319 C1318 1.399 . S
C1319 C1321 1.380 . S
C1319 H1336 0.929 . S
C1320 C1317 1.399 . S
C1320 C1321 1.392 . S
C1320 H1337 0.929 . S
C1321 C1319 1.380 . S
C1321 C1320 1.392 . S
C1321 H1338 0.929 . S
C1322 C1317 1.383 . S
C1322 C1318 1.389 . S
C1322 H1339 0.931 . S
C1323 O1308 1.266 . S
C1323 O1309 1.248 . S
C1324 Tb1260 2.802 . S
C1324 O1304 1.264 . S
C1324 O1307 1.256 . S
C1324 C1317 1.496 . S
C1325 C1292 1.448 . S
C1325 H1302 0.930 . S
C1325 C1326 1.328 . S
C1326 C1297 1.427 . S
C1326 H1303 0.929 . S
C1326 C1325 1.328 . S
C1327 O1311 1.264 . S
C1327 O1312 1.243 . S
C1328 C1331 1.399 . S
C1328 C1332 1.383 . S
C1328 C1335 1.496 . S
C1329 C1330 1.399 . S
C1329 C1332 1.389 . S
C1330 C1329 1.399 . S
C1330 C1333 1.380 . S
C1330 H1340 0.929 . S
C1331 C1328 1.399 . S
C1331 C1333 1.392 . S
C1331 H1341 0.929 . S
C1332 C1328 1.383 . S
C1332 C1329 1.389 . S
C1332 H1342 0.931 . S
C1333 C1330 1.380 . S
C1333 C1331 1.392 . S
C1333 H1343 0.929 . S
C1334 O1314 1.266 . S
C1334 O1315 1.248 . S
C1335 Tb1271 2.802 . S
C1335 O1310 1.264 . S
C1335 O1313 1.256 . S
C1335 C1328 1.496 . S
H1336 C1319 0.929 . S
H1337 C1320 0.929 . S
H1338 C1321 0.929 . S
H1339 C1322 0.931 . S
H1340 C1330 0.929 . S
H1341 C1331 0.929 . S
H1342 C1332 0.931 . S
H1343 C1333 0.929 . S
Tb1344 N1373 2.617 . S
Tb1344 N1379 2.572 . S
Tb1344 O1388 2.465 . S
Tb1344 O1389 2.387 . S
Tb1344 O1391 2.428 . S
Tb1344 O1392 2.308 . S
Tb1344 O1396 2.349 . S
Tb1344 O1399 2.393 . S
Tb1344 C1408 2.802 . S
C1345 N1346 1.379 . S
C1345 C1348 1.416 . S
C1345 C1352 1.424 . S
N1346 C1345 1.379 . S
N1346 C1349 1.334 . S
N1346 Tb1355 2.617 . S
C1347 C1349 1.390 . S
C1347 C1350 1.339 . S
C1347 H1367 0.930 . S
C1348 C1345 1.416 . S
C1348 C1350 1.416 . S
C1348 C1354 1.448 . S
C1349 N1346 1.334 . S
C1349 C1347 1.390 . S
C1349 H1360 0.930 . S
C1350 C1347 1.339 . S
C1350 C1348 1.416 . S
C1350 H1371 0.930 . S
C1351 C1352 1.413 . S
C1351 C1353 1.427 . S
C1351 C1357 1.416 . S
C1352 C1345 1.424 . S
C1352 C1351 1.413 . S
C1352 N1356 1.361 . S
C1353 C1351 1.427 . S
C1353 C1354 1.328 . S
C1353 H1368 0.929 . S
C1354 C1348 1.448 . S
C1354 C1353 1.328 . S
C1354 H1369 0.930 . S
Tb1355 N1346 2.617 . S
Tb1355 N1356 2.572 . S
Tb1355 O1390 2.349 . S
Tb1355 O1393 2.393 . S
Tb1355 O1394 2.465 . S
Tb1355 O1395 2.387 . S
Tb1355 O1397 2.428 . S
Tb1355 O1398 2.308 . S
Tb1355 C1419 2.802 . S
N1356 C1352 1.361 . S
N1356 Tb1355 2.572 . S
N1356 C1358 1.340 . S
C1357 C1351 1.416 . S
C1357 C1359 1.332 . S
C1357 H1365 0.931 . S
C1358 N1356 1.340 . S
C1358 C1359 1.407 . S
C1358 H1364 0.930 . S
C1359 C1357 1.332 . S
C1359 C1358 1.407 . S
C1359 H1361 0.929 . S
H1360 C1349 0.930 . S
H1361 C1359 0.929 . S
H1362 C1377 0.930 . S
H1363 C1384 0.929 . S
H1364 C1358 0.930 . S
H1365 C1357 0.931 . S
H1366 C1380 0.930 . S
H1367 C1347 0.930 . S
H1368 C1353 0.929 . S
H1369 C1354 0.930 . S
H1370 C1375 0.930 . S
H1371 C1350 0.930 . S
H1372 C1383 0.931 . S
N1373 Tb1344 2.617 . S
N1373 C1374 1.379 . S
N1373 C1377 1.334 . S
C1374 N1373 1.379 . S
C1374 C1376 1.416 . S
C1374 C1382 1.424 . S
C1375 H1370 0.930 . S
C1375 C1377 1.390 . S
C1375 C1378 1.339 . S
C1376 C1374 1.416 . S
C1376 C1378 1.416 . S
C1376 C1409 1.448 . S
C1377 H1362 0.930 . S
C1377 N1373 1.334 . S
C1377 C1375 1.390 . S
C1378 C1375 1.339 . S
C1378 C1376 1.416 . S
C1378 H1385 0.930 . S
N1379 Tb1344 2.572 . S
N1379 C1380 1.340 . S
N1379 C1382 1.361 . S
C1380 H1366 0.930 . S
C1380 N1379 1.340 . S
C1380 C1384 1.407 . S
C1381 C1382 1.413 . S
C1381 C1383 1.416 . S
C1381 C1410 1.427 . S
C1382 C1374 1.424 . S
C1382 N1379 1.361 . S
C1382 C1381 1.413 . S
C1383 H1372 0.931 . S
C1383 C1381 1.416 . S
C1383 C1384 1.332 . S
C1384 H1363 0.929 . S
C1384 C1380 1.407 . S
C1384 C1383 1.332 . S
H1385 C1378 0.930 . S
H1386 C1409 0.930 . S
H1387 C1410 0.929 . S
O1388 Tb1344 2.465 . S
O1388 C1408 1.264 . S
O1389 Tb1344 2.387 . S
O1389 C1400 1.264 . S
O1390 Tb1355 2.349 . S
O1390 C1400 1.243 . S
O1391 Tb1344 2.428 . S
O1391 C1408 1.256 . S
O1392 Tb1344 2.308 . S
O1392 C1407 1.266 . S
O1393 Tb1355 2.393 . S
O1393 C1407 1.248 . S
O1394 Tb1355 2.465 . S
O1394 C1419 1.264 . S
O1395 Tb1355 2.387 . S
O1395 C1411 1.264 . S
O1396 Tb1344 2.349 . S
O1396 C1411 1.243 . S
O1397 Tb1355 2.428 . S
O1397 C1419 1.256 . S
O1398 Tb1355 2.308 . S
O1398 C1418 1.266 . S
O1399 Tb1344 2.393 . S
O1399 C1418 1.248 . S
C1400 O1389 1.264 . S
C1400 O1390 1.243 . S
C1401 C1404 1.399 . S
C1401 C1406 1.383 . S
C1401 C1408 1.496 1_554 S
C1402 C1403 1.399 . S
C1402 C1406 1.389 . S
C1403 C1402 1.399 . S
C1403 C1405 1.380 . S
C1403 H1420 0.929 . S
C1404 C1401 1.399 . S
C1404 C1405 1.392 . S
C1404 H1421 0.929 . S
C1405 C1403 1.380 . S
C1405 C1404 1.392 . S
C1405 H1422 0.929 . S
C1406 C1401 1.383 . S
C1406 C1402 1.389 . S
C1406 H1423 0.931 . S
C1407 O1392 1.266 . S
C1407 O1393 1.248 . S
C1408 Tb1344 2.802 . S
C1408 O1388 1.264 . S
C1408 O1391 1.256 . S
C1408 C1401 1.496 1_556 S
C1409 C1376 1.448 . S
C1409 H1386 0.930 . S
C1409 C1410 1.328 . S
C1410 C1381 1.427 . S
C1410 H1387 0.929 . S
C1410 C1409 1.328 . S
C1411 O1395 1.264 . S
C1411 O1396 1.243 . S
C1412 C1415 1.399 . S
C1412 C1416 1.383 . S
C1412 C1419 1.496 . S
C1413 C1414 1.399 . S
C1413 C1416 1.389 . S
C1414 C1413 1.399 . S
C1414 C1417 1.380 . S
C1414 H1424 0.929 . S
C1415 C1412 1.399 . S
C1415 C1417 1.392 . S
C1415 H1425 0.929 . S
C1416 C1412 1.383 . S
C1416 C1413 1.389 . S
C1416 H1426 0.931 . S
C1417 C1414 1.380 . S
C1417 C1415 1.392 . S
C1417 H1427 0.929 . S
C1418 O1398 1.266 . S
C1418 O1399 1.248 . S
C1419 Tb1355 2.802 . S
C1419 O1394 1.264 . S
C1419 O1397 1.256 . S
C1419 C1412 1.496 . S
H1420 C1403 0.929 . S
H1421 C1404 0.929 . S
H1422 C1405 0.929 . S
H1423 C1406 0.931 . S
H1424 C1414 0.929 . S
H1425 C1415 0.929 . S
H1426 C1416 0.931 . S
H1427 C1417 0.929 . S
Tb1428 N1457 2.617 . S
Tb1428 N1463 2.572 . S
Tb1428 O1472 2.469 . S
Tb1428 O1473 2.387 . S
Tb1428 O1475 2.428 . S
Tb1428 O1476 2.308 1_545 S
Tb1428 O1480 2.349 . S
Tb1428 O1483 2.393 . S
Tb1428 C1492 2.802 . S
C1429 N1430 1.379 . S
C1429 C1432 1.416 . S
C1429 C1436 1.424 . S
N1430 C1429 1.379 . S
N1430 C1433 1.334 . S
N1430 Tb1439 2.617 . S
C1431 C1433 1.390 . S
C1431 C1434 1.339 . S
C1431 H1451 0.930 . S
C1432 C1429 1.416 . S
C1432 C1434 1.416 . S
C1432 C1438 1.448 . S
C1433 N1430 1.334 . S
C1433 C1431 1.390 . S
C1433 H1444 0.930 . S
C1434 C1431 1.339 . S
C1434 C1432 1.416 . S
C1434 H1455 0.930 . S
C1435 C1436 1.413 . S
C1435 C1437 1.427 . S
C1435 C1441 1.416 1_565 S
C1436 C1429 1.424 . S
C1436 C1435 1.413 . S
C1436 N1440 1.361 . S
C1437 C1435 1.427 . S
C1437 C1438 1.328 . S
C1437 H1452 0.929 . S
C1438 C1432 1.448 . S
C1438 C1437 1.328 . S
C1438 H1453 0.930 . S
Tb1439 N1430 2.617 . S
Tb1439 N1440 2.572 . S
Tb1439 O1474 2.349 . S
Tb1439 O1477 2.393 . S
Tb1439 O1478 2.471 . S
Tb1439 O1479 2.387 . S
Tb1439 O1481 2.428 . S
Tb1439 O1482 2.308 1_565 S
Tb1439 C1503 2.802 . S
N1440 C1436 1.361 . S
N1440 Tb1439 2.572 . S
N1440 C1442 1.340 1_565 S
C1441 C1435 1.416 1_545 S
C1441 C1443 1.332 . S
C1441 H1449 0.931 . S
C1442 N1440 1.340 1_545 S
C1442 C1443 1.407 . S
C1442 H1448 0.930 . S
C1443 C1441 1.332 . S
C1443 C1442 1.407 . S
C1443 H1445 0.929 . S
H1444 C1433 0.930 . S
H1445 C1443 0.929 . S
H1446 C1461 0.930 . S
H1447 C1468 0.929 . S
H1448 C1442 0.930 . S
H1449 C1441 0.931 . S
H1450 C1464 0.930 . S
H1451 C1431 0.930 . S
H1452 C1437 0.929 . S
H1453 C1438 0.930 . S
H1454 C1459 0.930 . S
H1455 C1434 0.930 . S
H1456 C1467 0.931 . S
N1457 Tb1428 2.617 . S
N1457 C1458 1.379 . S
N1457 C1461 1.334 . S
C1458 N1457 1.379 . S
C1458 C1460 1.416 . S
C1458 C1466 1.424 . S
C1459 H1454 0.930 . S
C1459 C1461 1.390 . S
C1459 C1462 1.339 . S
C1460 C1458 1.416 . S
C1460 C1462 1.416 . S
C1460 C1493 1.448 . S
C1461 H1446 0.930 . S
C1461 N1457 1.334 . S
C1461 C1459 1.390 . S
C1462 C1459 1.339 . S
C1462 C1460 1.416 . S
C1462 H1469 0.930 . S
N1463 Tb1428 2.572 . S
N1463 C1464 1.340 1_545 S
N1463 C1466 1.361 . S
C1464 H1450 0.930 . S
C1464 N1463 1.340 1_565 S
C1464 C1468 1.407 . S
C1465 C1466 1.413 . S
C1465 C1467 1.416 1_545 S
C1465 C1494 1.427 . S
C1466 C1458 1.424 . S
C1466 N1463 1.361 . S
C1466 C1465 1.413 . S
C1467 H1456 0.931 . S
C1467 C1465 1.416 1_565 S
C1467 C1468 1.332 . S
C1468 H1447 0.929 . S
C1468 C1464 1.407 . S
C1468 C1467 1.332 . S
H1469 C1462 0.930 . S
H1470 C1493 0.930 . S
H1471 C1494 0.929 . S
O1472 Tb1428 2.469 . S
O1472 C1492 1.273 . S
O1473 Tb1428 2.387 . S
O1473 C1484 1.264 1_545 S
O1474 Tb1439 2.349 . S
O1474 C1484 1.243 . S
O1475 Tb1428 2.428 . S
O1475 C1492 1.256 . S
O1476 Tb1428 2.308 1_565 S
O1476 C1491 1.266 . S
O1477 Tb1439 2.393 . S
O1477 C1491 1.248 . S
O1478 Tb1439 2.471 . S
O1478 C1503 1.280 . S
O1479 Tb1439 2.387 . S
O1479 C1495 1.264 1_565 S
O1480 Tb1428 2.349 . S
O1480 C1495 1.243 . S
O1481 Tb1439 2.428 . S
O1481 C1503 1.256 . S
O1482 Tb1439 2.308 1_545 S
O1482 C1502 1.266 . S
O1483 Tb1428 2.393 . S
O1483 C1502 1.248 . S
C1484 O1473 1.264 1_565 S
C1484 O1474 1.243 . S
C1485 C1488 1.399 . S
C1485 C1490 1.383 . S
C1485 C1492 1.496 1_554 S
C1486 C1487 1.399 . S
C1486 C1490 1.389 . S
C1487 C1486 1.399 . S
C1487 C1489 1.380 . S
C1487 H1504 0.929 . S
C1488 C1485 1.399 . S
C1488 C1489 1.392 . S
C1488 H1505 0.929 . S
C1489 C1487 1.380 . S
C1489 C1488 1.392 . S
C1489 H1506 0.929 . S
C1490 C1485 1.383 . S
C1490 C1486 1.389 . S
C1490 H1507 0.931 1_545 S
C1491 O1476 1.266 . S
C1491 O1477 1.248 . S
C1492 Tb1428 2.802 . S
C1492 O1472 1.273 . S
C1492 O1475 1.256 . S
C1492 C1485 1.496 1_556 S
C1493 C1460 1.448 . S
C1493 H1470 0.930 . S
C1493 C1494 1.328 . S
C1494 C1465 1.427 . S
C1494 H1471 0.929 . S
C1494 C1493 1.328 . S
C1495 O1479 1.264 1_545 S
C1495 O1480 1.243 . S
C1496 C1499 1.399 . S
C1496 C1500 1.383 . S
C1496 C1503 1.496 . S
C1497 C1498 1.399 . S
C1497 C1500 1.389 . S
C1498 C1497 1.399 . S
C1498 C1501 1.380 . S
C1498 H1508 0.929 . S
C1499 C1496 1.399 . S
C1499 C1501 1.392 . S
C1499 H1509 0.929 . S
C1500 C1496 1.383 . S
C1500 C1497 1.389 . S
C1500 H1510 0.931 1_565 S
C1501 C1498 1.380 . S
C1501 C1499 1.392 . S
C1501 H1511 0.929 . S
C1502 O1482 1.266 . S
C1502 O1483 1.248 . S
C1503 Tb1439 2.802 . S
C1503 O1478 1.280 . S
C1503 O1481 1.256 . S
C1503 C1496 1.496 . S
H1504 C1487 0.929 . S
H1505 C1488 0.929 . S
H1506 C1489 0.929 . S
H1507 C1490 0.931 1_565 S
H1508 C1498 0.929 . S
H1509 C1499 0.929 . S
H1510 C1500 0.931 1_545 S
H1511 C1501 0.929 . S
Tb1512 N1541 2.617 . S
Tb1512 N1547 2.572 . S
Tb1512 O1556 2.469 . S
Tb1512 O1557 2.387 . S
Tb1512 O1559 2.428 . S
Tb1512 O1560 2.308 1_545 S
Tb1512 O1564 2.349 . S
Tb1512 O1567 2.393 . S
Tb1512 C1576 2.802 . S
C1513 N1514 1.379 . S
C1513 C1516 1.416 . S
C1513 C1520 1.424 . S
N1514 C1513 1.379 . S
N1514 C1517 1.334 . S
N1514 Tb1523 2.617 . S
C1515 C1517 1.390 . S
C1515 C1518 1.339 . S
C1515 H1535 0.930 . S
C1516 C1513 1.416 . S
C1516 C1518 1.416 . S
C1516 C1522 1.448 . S
C1517 N1514 1.334 . S
C1517 C1515 1.390 . S
C1517 H1528 0.930 . S
C1518 C1515 1.339 . S
C1518 C1516 1.416 . S
C1518 H1539 0.930 . S
C1519 C1520 1.413 . S
C1519 C1521 1.427 . S
C1519 C1525 1.416 1_565 S
C1520 C1513 1.424 . S
C1520 C1519 1.413 . S
C1520 N1524 1.361 . S
C1521 C1519 1.427 . S
C1521 C1522 1.328 . S
C1521 H1536 0.929 . S
C1522 C1516 1.448 . S
C1522 C1521 1.328 . S
C1522 H1537 0.930 . S
Tb1523 N1514 2.617 . S
Tb1523 N1524 2.572 . S
Tb1523 O1558 2.349 . S
Tb1523 O1561 2.393 . S
Tb1523 O1562 2.471 . S
Tb1523 O1563 2.387 . S
Tb1523 O1565 2.428 . S
Tb1523 O1566 2.308 1_565 S
Tb1523 C1587 2.802 . S
N1524 C1520 1.361 . S
N1524 Tb1523 2.572 . S
N1524 C1526 1.340 1_565 S
C1525 C1519 1.416 1_545 S
C1525 C1527 1.332 . S
C1525 H1533 0.931 . S
C1526 N1524 1.340 1_545 S
C1526 C1527 1.407 . S
C1526 H1532 0.930 . S
C1527 C1525 1.332 . S
C1527 C1526 1.407 . S
C1527 H1529 0.929 . S
H1528 C1517 0.930 . S
H1529 C1527 0.929 . S
H1530 C1545 0.930 . S
H1531 C1552 0.929 . S
H1532 C1526 0.930 . S
H1533 C1525 0.931 . S
H1534 C1548 0.930 . S
H1535 C1515 0.930 . S
H1536 C1521 0.929 . S
H1537 C1522 0.930 . S
H1538 C1543 0.930 . S
H1539 C1518 0.930 . S
H1540 C1551 0.931 . S
N1541 Tb1512 2.617 . S
N1541 C1542 1.379 . S
N1541 C1545 1.334 . S
C1542 N1541 1.379 . S
C1542 C1544 1.416 . S
C1542 C1550 1.424 . S
C1543 H1538 0.930 . S
C1543 C1545 1.390 . S
C1543 C1546 1.339 . S
C1544 C1542 1.416 . S
C1544 C1546 1.416 . S
C1544 C1577 1.448 . S
C1545 H1530 0.930 . S
C1545 N1541 1.334 . S
C1545 C1543 1.390 . S
C1546 C1543 1.339 . S
C1546 C1544 1.416 . S
C1546 H1553 0.930 . S
N1547 Tb1512 2.572 . S
N1547 C1548 1.340 1_545 S
N1547 C1550 1.361 . S
C1548 H1534 0.930 . S
C1548 N1547 1.340 1_565 S
C1548 C1552 1.407 . S
C1549 C1550 1.413 . S
C1549 C1551 1.416 1_545 S
C1549 C1578 1.427 . S
C1550 C1542 1.424 . S
C1550 N1547 1.361 . S
C1550 C1549 1.413 . S
C1551 H1540 0.931 . S
C1551 C1549 1.416 1_565 S
C1551 C1552 1.332 . S
C1552 H1531 0.929 . S
C1552 C1548 1.407 . S
C1552 C1551 1.332 . S
H1553 C1546 0.930 . S
H1554 C1577 0.930 . S
H1555 C1578 0.929 . S
O1556 Tb1512 2.469 . S
O1556 C1576 1.273 . S
O1557 Tb1512 2.387 . S
O1557 C1568 1.264 1_545 S
O1558 Tb1523 2.349 . S
O1558 C1568 1.243 . S
O1559 Tb1512 2.428 . S
O1559 C1576 1.256 . S
O1560 Tb1512 2.308 1_565 S
O1560 C1575 1.266 . S
O1561 Tb1523 2.393 . S
O1561 C1575 1.248 . S
O1562 Tb1523 2.471 . S
O1562 C1587 1.280 . S
O1563 Tb1523 2.387 . S
O1563 C1579 1.264 1_565 S
O1564 Tb1512 2.349 . S
O1564 C1579 1.243 . S
O1565 Tb1523 2.428 . S
O1565 C1587 1.256 . S
O1566 Tb1523 2.308 1_545 S
O1566 C1586 1.266 . S
O1567 Tb1512 2.393 . S
O1567 C1586 1.248 . S
C1568 O1557 1.264 1_565 S
C1568 O1558 1.243 . S
C1569 C1572 1.399 . S
C1569 C1574 1.383 . S
C1569 C1576 1.496 . S
C1570 C1571 1.399 . S
C1570 C1574 1.389 . S
C1571 C1570 1.399 . S
C1571 C1573 1.380 . S
C1571 H1588 0.929 . S
C1572 C1569 1.399 . S
C1572 C1573 1.392 . S
C1572 H1589 0.929 . S
C1573 C1571 1.380 . S
C1573 C1572 1.392 . S
C1573 H1590 0.929 . S
C1574 C1569 1.383 . S
C1574 C1570 1.389 . S
C1574 H1591 0.931 1_545 S
C1575 O1560 1.266 . S
C1575 O1561 1.248 . S
C1576 Tb1512 2.802 . S
C1576 O1556 1.273 . S
C1576 O1559 1.256 . S
C1576 C1569 1.496 . S
C1577 C1544 1.448 . S
C1577 H1554 0.930 . S
C1577 C1578 1.328 . S
C1578 C1549 1.427 . S
C1578 H1555 0.929 . S
C1578 C1577 1.328 . S
C1579 O1563 1.264 1_545 S
C1579 O1564 1.243 . S
C1580 C1583 1.399 . S
C1580 C1584 1.383 . S
C1580 C1587 1.496 . S
C1581 C1582 1.399 . S
C1581 C1584 1.389 . S
C1582 C1581 1.399 . S
C1582 C1585 1.380 . S
C1582 H1592 0.929 . S
C1583 C1580 1.399 . S
C1583 C1585 1.392 . S
C1583 H1593 0.929 . S
C1584 C1580 1.383 . S
C1584 C1581 1.389 . S
C1584 H1594 0.931 1_565 S
C1585 C1582 1.380 . S
C1585 C1583 1.392 . S
C1585 H1595 0.929 . S
C1586 O1566 1.266 . S
C1586 O1567 1.248 . S
C1587 Tb1523 2.802 . S
C1587 O1562 1.280 . S
C1587 O1565 1.256 . S
C1587 C1580 1.496 . S
H1588 C1571 0.929 . S
H1589 C1572 0.929 . S
H1590 C1573 0.929 . S
H1591 C1574 0.931 1_565 S
H1592 C1582 0.929 . S
H1593 C1583 0.929 . S
H1594 C1584 0.931 1_545 S
H1595 C1585 0.929 . S
Tb1596 N1625 2.617 . S
Tb1596 N1631 2.572 . S
Tb1596 O1640 2.465 . S
Tb1596 O1641 2.387 . S
Tb1596 O1643 2.428 . S
Tb1596 O1644 2.308 . S
Tb1596 O1648 2.349 . S
Tb1596 O1651 2.393 . S
Tb1596 C1660 2.802 . S
C1597 N1598 1.379 . S
C1597 C1600 1.416 . S
C1597 C1604 1.424 . S
N1598 C1597 1.379 . S
N1598 C1601 1.334 . S
N1598 Tb1607 2.617 . S
C1599 C1601 1.390 . S
C1599 C1602 1.339 . S
C1599 H1619 0.930 . S
C1600 C1597 1.416 . S
C1600 C1602 1.416 . S
C1600 C1606 1.448 . S
C1601 N1598 1.334 . S
C1601 C1599 1.390 . S
C1601 H1612 0.930 . S
C1602 C1599 1.339 . S
C1602 C1600 1.416 . S
C1602 H1623 0.930 . S
C1603 C1604 1.413 . S
C1603 C1605 1.427 . S
C1603 C1609 1.416 . S
C1604 C1597 1.424 . S
C1604 C1603 1.413 . S
C1604 N1608 1.361 . S
C1605 C1603 1.427 . S
C1605 C1606 1.328 . S
C1605 H1620 0.929 . S
C1606 C1600 1.448 . S
C1606 C1605 1.328 . S
C1606 H1621 0.930 . S
Tb1607 N1598 2.617 . S
Tb1607 N1608 2.572 . S
Tb1607 O1642 2.349 . S
Tb1607 O1645 2.393 . S
Tb1607 O1646 2.465 . S
Tb1607 O1647 2.387 . S
Tb1607 O1649 2.428 . S
Tb1607 O1650 2.308 . S
Tb1607 C1671 2.802 . S
N1608 C1604 1.361 . S
N1608 Tb1607 2.572 . S
N1608 C1610 1.340 . S
C1609 C1603 1.416 . S
C1609 C1611 1.332 . S
C1609 H1617 0.931 . S
C1610 N1608 1.340 . S
C1610 C1611 1.407 . S
C1610 H1616 0.930 . S
C1611 C1609 1.332 . S
C1611 C1610 1.407 . S
C1611 H1613 0.929 . S
H1612 C1601 0.930 . S
H1613 C1611 0.929 . S
H1614 C1629 0.930 . S
H1615 C1636 0.929 . S
H1616 C1610 0.930 . S
H1617 C1609 0.931 . S
H1618 C1632 0.930 . S
H1619 C1599 0.930 . S
H1620 C1605 0.929 . S
H1621 C1606 0.930 . S
H1622 C1627 0.930 . S
H1623 C1602 0.930 . S
H1624 C1635 0.931 . S
N1625 Tb1596 2.617 . S
N1625 C1626 1.379 . S
N1625 C1629 1.334 . S
C1626 N1625 1.379 . S
C1626 C1628 1.416 . S
C1626 C1634 1.424 . S
C1627 H1622 0.930 . S
C1627 C1629 1.390 . S
C1627 C1630 1.339 . S
C1628 C1626 1.416 . S
C1628 C1630 1.416 . S
C1628 C1661 1.448 . S
C1629 H1614 0.930 . S
C1629 N1625 1.334 . S
C1629 C1627 1.390 . S
C1630 C1627 1.339 . S
C1630 C1628 1.416 . S
C1630 H1637 0.930 . S
N1631 Tb1596 2.572 . S
N1631 C1632 1.340 . S
N1631 C1634 1.361 . S
C1632 H1618 0.930 . S
C1632 N1631 1.340 . S
C1632 C1636 1.407 . S
C1633 C1634 1.413 . S
C1633 C1635 1.416 . S
C1633 C1662 1.427 . S
C1634 C1626 1.424 . S
C1634 N1631 1.361 . S
C1634 C1633 1.413 . S
C1635 H1624 0.931 . S
C1635 C1633 1.416 . S
C1635 C1636 1.332 . S
C1636 H1615 0.929 . S
C1636 C1632 1.407 . S
C1636 C1635 1.332 . S
H1637 C1630 0.930 . S
H1638 C1661 0.930 . S
H1639 C1662 0.929 . S
O1640 Tb1596 2.465 . S
O1640 C1660 1.264 . S
O1641 Tb1596 2.387 . S
O1641 C1652 1.264 . S
O1642 Tb1607 2.349 . S
O1642 C1652 1.243 . S
O1643 Tb1596 2.428 . S
O1643 C1660 1.256 . S
O1644 Tb1596 2.308 . S
O1644 C1659 1.266 . S
O1645 Tb1607 2.393 . S
O1645 C1659 1.248 . S
O1646 Tb1607 2.465 . S
O1646 C1671 1.264 . S
O1647 Tb1607 2.387 . S
O1647 C1663 1.264 . S
O1648 Tb1596 2.349 . S
O1648 C1663 1.243 . S
O1649 Tb1607 2.428 . S
O1649 C1671 1.256 . S
O1650 Tb1607 2.308 . S
O1650 C1670 1.266 . S
O1651 Tb1596 2.393 . S
O1651 C1670 1.248 . S
C1652 O1641 1.264 . S
C1652 O1642 1.243 . S
C1653 C1656 1.399 . S
C1653 C1658 1.383 . S
C1653 C1660 1.496 . S
C1654 C1655 1.399 . S
C1654 C1658 1.389 . S
C1655 C1654 1.399 . S
C1655 C1657 1.380 . S
C1655 H1672 0.929 . S
C1656 C1653 1.399 . S
C1656 C1657 1.392 . S
C1656 H1673 0.929 . S
C1657 C1655 1.380 . S
C1657 C1656 1.392 . S
C1657 H1674 0.929 . S
C1658 C1653 1.383 . S
C1658 C1654 1.389 . S
C1658 H1675 0.931 . S
C1659 O1644 1.266 . S
C1659 O1645 1.248 . S
C1660 Tb1596 2.802 . S
C1660 O1640 1.264 . S
C1660 O1643 1.256 . S
C1660 C1653 1.496 . S
C1661 C1628 1.448 . S
C1661 H1638 0.930 . S
C1661 C1662 1.328 . S
C1662 C1633 1.427 . S
C1662 H1639 0.929 . S
C1662 C1661 1.328 . S
C1663 O1647 1.264 . S
C1663 O1648 1.243 . S
C1664 C1667 1.399 . S
C1664 C1668 1.383 . S
C1664 C1671 1.496 . S
C1665 C1666 1.399 . S
C1665 C1668 1.389 . S
C1666 C1665 1.399 . S
C1666 C1669 1.380 . S
C1666 H1676 0.929 . S
C1667 C1664 1.399 . S
C1667 C1669 1.392 . S
C1667 H1677 0.929 . S
C1668 C1664 1.383 . S
C1668 C1665 1.389 . S
C1668 H1678 0.931 . S
C1669 C1666 1.380 . S
C1669 C1667 1.392 . S
C1669 H1679 0.929 . S
C1670 O1650 1.266 . S
C1670 O1651 1.248 . S
C1671 Tb1607 2.802 . S
C1671 O1646 1.264 . S
C1671 O1649 1.256 . S
C1671 C1664 1.496 . S
H1672 C1655 0.929 . S
H1673 C1656 0.929 . S
H1674 C1657 0.929 . S
H1675 C1658 0.931 . S
H1676 C1666 0.929 . S
H1677 C1667 0.929 . S
H1678 C1668 0.931 . S
H1679 C1669 0.929 . S
Tb1680 N1709 2.617 . S
Tb1680 N1715 2.572 . S
Tb1680 O1724 2.465 . S
Tb1680 O1725 2.387 . S
Tb1680 O1727 2.428 . S
Tb1680 O1728 2.308 . S
Tb1680 O1732 2.349 . S
Tb1680 O1735 2.393 . S
Tb1680 C1744 2.802 . S
C1681 N1682 1.379 . S
C1681 C1684 1.416 . S
C1681 C1688 1.424 . S
N1682 C1681 1.379 . S
N1682 C1685 1.334 . S
N1682 Tb1691 2.617 . S
C1683 C1685 1.390 . S
C1683 C1686 1.339 . S
C1683 H1703 0.930 . S
C1684 C1681 1.416 . S
C1684 C1686 1.416 . S
C1684 C1690 1.448 . S
C1685 N1682 1.334 . S
C1685 C1683 1.390 . S
C1685 H1696 0.930 . S
C1686 C1683 1.339 . S
C1686 C1684 1.416 . S
C1686 H1707 0.930 . S
C1687 C1688 1.413 . S
C1687 C1689 1.427 . S
C1687 C1693 1.416 . S
C1688 C1681 1.424 . S
C1688 C1687 1.413 . S
C1688 N1692 1.361 . S
C1689 C1687 1.427 . S
C1689 C1690 1.328 . S
C1689 H1704 0.929 . S
C1690 C1684 1.448 . S
C1690 C1689 1.328 . S
C1690 H1705 0.930 . S
Tb1691 N1682 2.617 . S
Tb1691 N1692 2.572 . S
Tb1691 O1726 2.349 . S
Tb1691 O1729 2.393 . S
Tb1691 O1730 2.465 . S
Tb1691 O1731 2.387 . S
Tb1691 O1733 2.428 . S
Tb1691 O1734 2.308 . S
Tb1691 C1755 2.802 . S
N1692 C1688 1.361 . S
N1692 Tb1691 2.572 . S
N1692 C1694 1.340 . S
C1693 C1687 1.416 . S
C1693 C1695 1.332 . S
C1693 H1701 0.931 . S
C1694 N1692 1.340 . S
C1694 C1695 1.407 . S
C1694 H1700 0.930 . S
C1695 C1693 1.332 . S
C1695 C1694 1.407 . S
C1695 H1697 0.929 . S
H1696 C1685 0.930 . S
H1697 C1695 0.929 . S
H1698 C1713 0.930 . S
H1699 C1720 0.929 . S
H1700 C1694 0.930 . S
H1701 C1693 0.931 . S
H1702 C1716 0.930 . S
H1703 C1683 0.930 . S
H1704 C1689 0.929 . S
H1705 C1690 0.930 . S
H1706 C1711 0.930 . S
H1707 C1686 0.930 . S
H1708 C1719 0.931 . S
N1709 Tb1680 2.617 . S
N1709 C1710 1.379 . S
N1709 C1713 1.334 . S
C1710 N1709 1.379 . S
C1710 C1712 1.416 . S
C1710 C1718 1.424 . S
C1711 H1706 0.930 . S
C1711 C1713 1.390 . S
C1711 C1714 1.339 . S
C1712 C1710 1.416 . S
C1712 C1714 1.416 . S
C1712 C1745 1.448 . S
C1713 H1698 0.930 . S
C1713 N1709 1.334 . S
C1713 C1711 1.390 . S
C1714 C1711 1.339 . S
C1714 C1712 1.416 . S
C1714 H1721 0.930 . S
N1715 Tb1680 2.572 . S
N1715 C1716 1.340 . S
N1715 C1718 1.361 . S
C1716 H1702 0.930 . S
C1716 N1715 1.340 . S
C1716 C1720 1.407 . S
C1717 C1718 1.413 . S
C1717 C1719 1.416 . S
C1717 C1746 1.427 . S
C1718 C1710 1.424 . S
C1718 N1715 1.361 . S
C1718 C1717 1.413 . S
C1719 H1708 0.931 . S
C1719 C1717 1.416 . S
C1719 C1720 1.332 . S
C1720 H1699 0.929 . S
C1720 C1716 1.407 . S
C1720 C1719 1.332 . S
H1721 C1714 0.930 . S
H1722 C1745 0.930 . S
H1723 C1746 0.929 . S
O1724 Tb1680 2.465 . S
O1724 C1744 1.264 . S
O1725 Tb1680 2.387 . S
O1725 C1736 1.264 . S
O1726 Tb1691 2.349 . S
O1726 C1736 1.243 . S
O1727 Tb1680 2.428 . S
O1727 C1744 1.256 . S
O1728 Tb1680 2.308 . S
O1728 C1743 1.266 . S
O1729 Tb1691 2.393 . S
O1729 C1743 1.248 . S
O1730 Tb1691 2.465 . S
O1730 C1755 1.264 . S
O1731 Tb1691 2.387 . S
O1731 C1747 1.264 . S
O1732 Tb1680 2.349 . S
O1732 C1747 1.243 . S
O1733 Tb1691 2.428 . S
O1733 C1755 1.256 . S
O1734 Tb1691 2.308 . S
O1734 C1754 1.266 . S
O1735 Tb1680 2.393 . S
O1735 C1754 1.248 . S
C1736 O1725 1.264 . S
C1736 O1726 1.243 . S
C1737 C1740 1.399 . S
C1737 C1742 1.383 . S
C1737 C1744 1.496 . S
C1738 C1739 1.399 . S
C1738 C1742 1.389 . S
C1739 C1738 1.399 . S
C1739 C1741 1.380 . S
C1739 H1756 0.929 . S
C1740 C1737 1.399 . S
C1740 C1741 1.392 . S
C1740 H1757 0.929 . S
C1741 C1739 1.380 . S
C1741 C1740 1.392 . S
C1741 H1758 0.929 . S
C1742 C1737 1.383 . S
C1742 C1738 1.389 . S
C1742 H1759 0.931 . S
C1743 O1728 1.266 . S
C1743 O1729 1.248 . S
C1744 Tb1680 2.802 . S
C1744 O1724 1.264 . S
C1744 O1727 1.256 . S
C1744 C1737 1.496 . S
C1745 C1712 1.448 . S
C1745 H1722 0.930 . S
C1745 C1746 1.328 . S
C1746 C1717 1.427 . S
C1746 H1723 0.929 . S
C1746 C1745 1.328 . S
C1747 O1731 1.264 . S
C1747 O1732 1.243 . S
C1748 C1751 1.399 . S
C1748 C1752 1.383 . S
C1748 C1755 1.496 1_556 S
C1749 C1750 1.399 . S
C1749 C1752 1.389 . S
C1750 C1749 1.399 . S
C1750 C1753 1.380 . S
C1750 H1760 0.929 . S
C1751 C1748 1.399 . S
C1751 C1753 1.392 . S
C1751 H1761 0.929 . S
C1752 C1748 1.383 . S
C1752 C1749 1.389 . S
C1752 H1762 0.931 . S
C1753 C1750 1.380 . S
C1753 C1751 1.392 . S
C1753 H1763 0.929 . S
C1754 O1734 1.266 . S
C1754 O1735 1.248 . S
C1755 Tb1691 2.802 . S
C1755 O1730 1.264 . S
C1755 O1733 1.256 . S
C1755 C1748 1.496 1_554 S
H1756 C1739 0.929 . S
H1757 C1740 0.929 . S
H1758 C1741 0.929 . S
H1759 C1742 0.931 . S
H1760 C1750 0.929 . S
H1761 C1751 0.929 . S
H1762 C1752 0.931 . S
H1763 C1753 0.929 . S
Tb1764 N1793 2.617 . S
Tb1764 N1799 2.572 . S
Tb1764 O1808 2.471 . S
Tb1764 O1809 2.387 . S
Tb1764 O1811 2.428 . S
Tb1764 O1812 2.308 1_545 S
Tb1764 O1816 2.349 . S
Tb1764 O1819 2.393 . S
Tb1764 C1828 2.802 . S
C1765 N1766 1.379 . S
C1765 C1768 1.416 . S
C1765 C1772 1.424 . S
N1766 C1765 1.379 . S
N1766 C1769 1.334 . S
N1766 Tb1775 2.617 . S
C1767 C1769 1.390 . S
C1767 C1770 1.339 . S
C1767 H1787 0.930 . S
C1768 C1765 1.416 . S
C1768 C1770 1.416 . S
C1768 C1774 1.448 . S
C1769 N1766 1.334 . S
C1769 C1767 1.390 . S
C1769 H1780 0.930 . S
C1770 C1767 1.339 . S
C1770 C1768 1.416 . S
C1770 H1791 0.930 . S
C1771 C1772 1.413 . S
C1771 C1773 1.427 . S
C1771 C1777 1.416 1_565 S
C1772 C1765 1.424 . S
C1772 C1771 1.413 . S
C1772 N1776 1.361 . S
C1773 C1771 1.427 . S
C1773 C1774 1.328 . S
C1773 H1788 0.929 . S
C1774 C1768 1.448 . S
C1774 C1773 1.328 . S
C1774 H1789 0.930 . S
Tb1775 N1766 2.617 . S
Tb1775 N1776 2.572 . S
Tb1775 O1810 2.349 . S
Tb1775 O1813 2.393 . S
Tb1775 O1814 2.469 . S
Tb1775 O1815 2.387 . S
Tb1775 O1817 2.428 . S
Tb1775 O1818 2.308 1_565 S
Tb1775 C1839 2.802 . S
N1776 C1772 1.361 . S
N1776 Tb1775 2.572 . S
N1776 C1778 1.340 1_565 S
C1777 C1771 1.416 1_545 S
C1777 C1779 1.332 . S
C1777 H1785 0.931 . S
C1778 N1776 1.340 1_545 S
C1778 C1779 1.407 . S
C1778 H1784 0.930 . S
C1779 C1777 1.332 . S
C1779 C1778 1.407 . S
C1779 H1781 0.929 . S
H1780 C1769 0.930 . S
H1781 C1779 0.929 . S
H1782 C1797 0.930 . S
H1783 C1804 0.929 . S
H1784 C1778 0.930 . S
H1785 C1777 0.931 . S
H1786 C1800 0.930 . S
H1787 C1767 0.930 . S
H1788 C1773 0.929 . S
H1789 C1774 0.930 . S
H1790 C1795 0.930 . S
H1791 C1770 0.930 . S
H1792 C1803 0.931 . S
N1793 Tb1764 2.617 . S
N1793 C1794 1.379 . S
N1793 C1797 1.334 . S
C1794 N1793 1.379 . S
C1794 C1796 1.416 . S
C1794 C1802 1.424 . S
C1795 H1790 0.930 . S
C1795 C1797 1.390 . S
C1795 C1798 1.339 . S
C1796 C1794 1.416 . S
C1796 C1798 1.416 . S
C1796 C1829 1.448 . S
C1797 H1782 0.930 . S
C1797 N1793 1.334 . S
C1797 C1795 1.390 . S
C1798 C1795 1.339 . S
C1798 C1796 1.416 . S
C1798 H1805 0.930 . S
N1799 Tb1764 2.572 . S
N1799 C1800 1.340 1_545 S
N1799 C1802 1.361 . S
C1800 H1786 0.930 . S
C1800 N1799 1.340 1_565 S
C1800 C1804 1.407 . S
C1801 C1802 1.413 . S
C1801 C1803 1.416 1_545 S
C1801 C1830 1.427 . S
C1802 C1794 1.424 . S
C1802 N1799 1.361 . S
C1802 C1801 1.413 . S
C1803 H1792 0.931 . S
C1803 C1801 1.416 1_565 S
C1803 C1804 1.332 . S
C1804 H1783 0.929 . S
C1804 C1800 1.407 . S
C1804 C1803 1.332 . S
H1805 C1798 0.930 . S
H1806 C1829 0.930 . S
H1807 C1830 0.929 . S
O1808 Tb1764 2.471 . S
O1808 C1828 1.280 . S
O1809 Tb1764 2.387 . S
O1809 C1820 1.264 1_545 S
O1810 Tb1775 2.349 . S
O1810 C1820 1.243 . S
O1811 Tb1764 2.428 . S
O1811 C1828 1.256 . S
O1812 Tb1764 2.308 1_565 S
O1812 C1827 1.266 . S
O1813 Tb1775 2.393 . S
O1813 C1827 1.248 . S
O1814 Tb1775 2.469 . S
O1814 C1839 1.273 . S
O1815 Tb1775 2.387 . S
O1815 C1831 1.264 1_565 S
O1816 Tb1764 2.349 . S
O1816 C1831 1.243 . S
O1817 Tb1775 2.428 . S
O1817 C1839 1.256 . S
O1818 Tb1775 2.308 1_545 S
O1818 C1838 1.266 . S
O1819 Tb1764 2.393 . S
O1819 C1838 1.248 . S
C1820 O1809 1.264 1_565 S
C1820 O1810 1.243 . S
C1821 C1824 1.399 . S
C1821 C1826 1.383 . S
C1821 C1828 1.496 . S
C1822 C1823 1.399 . S
C1822 C1826 1.389 . S
C1823 C1822 1.399 . S
C1823 C1825 1.380 . S
C1823 H1840 0.929 . S
C1824 C1821 1.399 . S
C1824 C1825 1.392 . S
C1824 H1841 0.929 . S
C1825 C1823 1.380 . S
C1825 C1824 1.392 . S
C1825 H1842 0.929 . S
C1826 C1821 1.383 . S
C1826 C1822 1.389 . S
C1826 H1843 0.931 1_545 S
C1827 O1812 1.266 . S
C1827 O1813 1.248 . S
C1828 Tb1764 2.802 . S
C1828 O1808 1.280 . S
C1828 O1811 1.256 . S
C1828 C1821 1.496 . S
C1829 C1796 1.448 . S
C1829 H1806 0.930 . S
C1829 C1830 1.328 . S
C1830 C1801 1.427 . S
C1830 H1807 0.929 . S
C1830 C1829 1.328 . S
C1831 O1815 1.264 1_545 S
C1831 O1816 1.243 . S
C1832 C1835 1.399 . S
C1832 C1836 1.383 . S
C1832 C1839 1.496 1_556 S
C1833 C1834 1.399 . S
C1833 C1836 1.389 . S
C1834 C1833 1.399 . S
C1834 C1837 1.380 . S
C1834 H1844 0.929 . S
C1835 C1832 1.399 . S
C1835 C1837 1.392 . S
C1835 H1845 0.929 . S
C1836 C1832 1.383 . S
C1836 C1833 1.389 . S
C1836 H1846 0.931 1_565 S
C1837 C1834 1.380 . S
C1837 C1835 1.392 . S
C1837 H1847 0.929 . S
C1838 O1818 1.266 . S
C1838 O1819 1.248 . S
C1839 Tb1775 2.802 . S
C1839 O1814 1.273 . S
C1839 O1817 1.256 . S
C1839 C1832 1.496 1_554 S
H1840 C1823 0.929 . S
H1841 C1824 0.929 . S
H1842 C1825 0.929 . S
H1843 C1826 0.931 1_565 S
H1844 C1834 0.929 . S
H1845 C1835 0.929 . S
H1846 C1836 0.931 1_545 S
H1847 C1837 0.929 . S
Tb1848 N1877 2.617 . S
Tb1848 N1883 2.572 . S
Tb1848 O1892 2.471 . S
Tb1848 O1893 2.387 . S
Tb1848 O1895 2.428 . S
Tb1848 O1896 2.308 1_545 S
Tb1848 O1900 2.349 . S
Tb1848 O1903 2.393 . S
Tb1848 C1912 2.802 . S
C1849 N1850 1.379 . S
C1849 C1852 1.416 . S
C1849 C1856 1.424 . S
N1850 C1849 1.379 . S
N1850 C1853 1.334 . S
N1850 Tb1859 2.617 . S
C1851 C1853 1.390 . S
C1851 C1854 1.339 . S
C1851 H1871 0.930 . S
C1852 C1849 1.416 . S
C1852 C1854 1.416 . S
C1852 C1858 1.448 . S
C1853 N1850 1.334 . S
C1853 C1851 1.390 . S
C1853 H1864 0.930 . S
C1854 C1851 1.339 . S
C1854 C1852 1.416 . S
C1854 H1875 0.930 . S
C1855 C1856 1.413 . S
C1855 C1857 1.427 . S
C1855 C1861 1.416 1_565 S
C1856 C1849 1.424 . S
C1856 C1855 1.413 . S
C1856 N1860 1.361 . S
C1857 C1855 1.427 . S
C1857 C1858 1.328 . S
C1857 H1872 0.929 . S
C1858 C1852 1.448 . S
C1858 C1857 1.328 . S
C1858 H1873 0.930 . S
Tb1859 N1850 2.617 . S
Tb1859 N1860 2.572 . S
Tb1859 O1894 2.349 . S
Tb1859 O1897 2.393 . S
Tb1859 O1898 2.469 . S
Tb1859 O1899 2.387 . S
Tb1859 O1901 2.428 . S
Tb1859 O1902 2.308 1_565 S
Tb1859 C1923 2.802 . S
N1860 C1856 1.361 . S
N1860 Tb1859 2.572 . S
N1860 C1862 1.340 1_565 S
C1861 C1855 1.416 1_545 S
C1861 C1863 1.332 . S
C1861 H1869 0.931 . S
C1862 N1860 1.340 1_545 S
C1862 C1863 1.407 . S
C1862 H1868 0.930 . S
C1863 C1861 1.332 . S
C1863 C1862 1.407 . S
C1863 H1865 0.929 . S
H1864 C1853 0.930 . S
H1865 C1863 0.929 . S
H1866 C1881 0.930 . S
H1867 C1888 0.929 . S
H1868 C1862 0.930 . S
H1869 C1861 0.931 . S
H1870 C1884 0.930 . S
H1871 C1851 0.930 . S
H1872 C1857 0.929 . S
H1873 C1858 0.930 . S
H1874 C1879 0.930 . S
H1875 C1854 0.930 . S
H1876 C1887 0.931 . S
N1877 Tb1848 2.617 . S
N1877 C1878 1.379 . S
N1877 C1881 1.334 . S
C1878 N1877 1.379 . S
C1878 C1880 1.416 . S
C1878 C1886 1.424 . S
C1879 H1874 0.930 . S
C1879 C1881 1.390 . S
C1879 C1882 1.339 . S
C1880 C1878 1.416 . S
C1880 C1882 1.416 . S
C1880 C1913 1.448 . S
C1881 H1866 0.930 . S
C1881 N1877 1.334 . S
C1881 C1879 1.390 . S
C1882 C1879 1.339 . S
C1882 C1880 1.416 . S
C1882 H1889 0.930 . S
N1883 Tb1848 2.572 . S
N1883 C1884 1.340 1_545 S
N1883 C1886 1.361 . S
C1884 H1870 0.930 . S
C1884 N1883 1.340 1_565 S
C1884 C1888 1.407 . S
C1885 C1886 1.413 . S
C1885 C1887 1.416 1_545 S
C1885 C1914 1.427 . S
C1886 C1878 1.424 . S
C1886 N1883 1.361 . S
C1886 C1885 1.413 . S
C1887 H1876 0.931 . S
C1887 C1885 1.416 1_565 S
C1887 C1888 1.332 . S
C1888 H1867 0.929 . S
C1888 C1884 1.407 . S
C1888 C1887 1.332 . S
H1889 C1882 0.930 . S
H1890 C1913 0.930 . S
H1891 C1914 0.929 . S
O1892 Tb1848 2.471 . S
O1892 C1912 1.280 . S
O1893 Tb1848 2.387 . S
O1893 C1904 1.264 1_545 S
O1894 Tb1859 2.349 . S
O1894 C1904 1.243 . S
O1895 Tb1848 2.428 . S
O1895 C1912 1.256 . S
O1896 Tb1848 2.308 1_565 S
O1896 C1911 1.266 . S
O1897 Tb1859 2.393 . S
O1897 C1911 1.248 . S
O1898 Tb1859 2.469 . S
O1898 C1923 1.273 . S
O1899 Tb1859 2.387 . S
O1899 C1915 1.264 1_565 S
O1900 Tb1848 2.349 . S
O1900 C1915 1.243 . S
O1901 Tb1859 2.428 . S
O1901 C1923 1.256 . S
O1902 Tb1859 2.308 1_545 S
O1902 C1922 1.266 . S
O1903 Tb1848 2.393 . S
O1903 C1922 1.248 . S
C1904 O1893 1.264 1_565 S
C1904 O1894 1.243 . S
C1905 C1908 1.399 . S
C1905 C1910 1.383 . S
C1905 C1912 1.496 . S
C1906 C1907 1.399 . S
C1906 C1910 1.389 . S
C1907 C1906 1.399 . S
C1907 C1909 1.380 . S
C1907 H1924 0.929 . S
C1908 C1905 1.399 . S
C1908 C1909 1.392 . S
C1908 H1925 0.929 . S
C1909 C1907 1.380 . S
C1909 C1908 1.392 . S
C1909 H1926 0.929 . S
C1910 C1905 1.383 . S
C1910 C1906 1.389 . S
C1910 H1927 0.931 1_545 S
C1911 O1896 1.266 . S
C1911 O1897 1.248 . S
C1912 Tb1848 2.802 . S
C1912 O1892 1.280 . S
C1912 O1895 1.256 . S
C1912 C1905 1.496 . S
C1913 C1880 1.448 . S
C1913 H1890 0.930 . S
C1913 C1914 1.328 . S
C1914 C1885 1.427 . S
C1914 H1891 0.929 . S
C1914 C1913 1.328 . S
C1915 O1899 1.264 1_545 S
C1915 O1900 1.243 . S
C1916 C1919 1.399 . S
C1916 C1920 1.383 . S
C1916 C1923 1.496 . S
C1917 C1918 1.399 . S
C1917 C1920 1.389 . S
C1918 C1917 1.399 . S
C1918 C1921 1.380 . S
C1918 H1928 0.929 . S
C1919 C1916 1.399 . S
C1919 C1921 1.392 . S
C1919 H1929 0.929 . S
C1920 C1916 1.383 . S
C1920 C1917 1.389 . S
C1920 H1930 0.931 1_565 S
C1921 C1918 1.380 . S
C1921 C1919 1.392 . S
C1921 H1931 0.929 . S
C1922 O1902 1.266 . S
C1922 O1903 1.248 . S
C1923 Tb1859 2.802 . S
C1923 O1898 1.273 . S
C1923 O1901 1.256 . S
C1923 C1916 1.496 . S
H1924 C1907 0.929 . S
H1925 C1908 0.929 . S
H1926 C1909 0.929 . S
H1927 C1910 0.931 1_565 S
H1928 C1918 0.929 . S
H1929 C1919 0.929 . S
H1930 C1920 0.931 1_545 S
H1931 C1921 0.929 . S
Tb1932 N1961 2.617 . S
Tb1932 N1967 2.572 . S
Tb1932 O1976 2.465 . S
Tb1932 O1977 2.387 . S
Tb1932 O1979 2.428 . S
Tb1932 O1980 2.308 . S
Tb1932 O1984 2.349 . S
Tb1932 O1987 2.393 . S
Tb1932 C1996 2.802 . S
C1933 N1934 1.379 . S
C1933 C1936 1.416 . S
C1933 C1940 1.424 . S
N1934 C1933 1.379 . S
N1934 C1937 1.334 . S
N1934 Tb1943 2.617 . S
C1935 C1937 1.390 . S
C1935 C1938 1.339 . S
C1935 H1955 0.930 . S
C1936 C1933 1.416 . S
C1936 C1938 1.416 . S
C1936 C1942 1.448 . S
C1937 N1934 1.334 . S
C1937 C1935 1.390 . S
C1937 H1948 0.930 . S
C1938 C1935 1.339 . S
C1938 C1936 1.416 . S
C1938 H1959 0.930 . S
C1939 C1940 1.413 . S
C1939 C1941 1.427 . S
C1939 C1945 1.416 . S
C1940 C1933 1.424 . S
C1940 C1939 1.413 . S
C1940 N1944 1.361 . S
C1941 C1939 1.427 . S
C1941 C1942 1.328 . S
C1941 H1956 0.929 . S
C1942 C1936 1.448 . S
C1942 C1941 1.328 . S
C1942 H1957 0.930 . S
Tb1943 N1934 2.617 . S
Tb1943 N1944 2.572 . S
Tb1943 O1978 2.349 . S
Tb1943 O1981 2.393 . S
Tb1943 O1982 2.465 . S
Tb1943 O1983 2.387 . S
Tb1943 O1985 2.428 . S
Tb1943 O1986 2.308 . S
Tb1943 C2007 2.802 . S
N1944 C1940 1.361 . S
N1944 Tb1943 2.572 . S
N1944 C1946 1.340 . S
C1945 C1939 1.416 . S
C1945 C1947 1.332 . S
C1945 H1953 0.931 . S
C1946 N1944 1.340 . S
C1946 C1947 1.407 . S
C1946 H1952 0.930 . S
C1947 C1945 1.332 . S
C1947 C1946 1.407 . S
C1947 H1949 0.929 . S
H1948 C1937 0.930 . S
H1949 C1947 0.929 . S
H1950 C1965 0.930 . S
H1951 C1972 0.929 . S
H1952 C1946 0.930 . S
H1953 C1945 0.931 . S
H1954 C1968 0.930 . S
H1955 C1935 0.930 . S
H1956 C1941 0.929 . S
H1957 C1942 0.930 . S
H1958 C1963 0.930 . S
H1959 C1938 0.930 . S
H1960 C1971 0.931 . S
N1961 Tb1932 2.617 . S
N1961 C1962 1.379 . S
N1961 C1965 1.334 . S
C1962 N1961 1.379 . S
C1962 C1964 1.416 . S
C1962 C1970 1.424 . S
C1963 H1958 0.930 . S
C1963 C1965 1.390 . S
C1963 C1966 1.339 . S
C1964 C1962 1.416 . S
C1964 C1966 1.416 . S
C1964 C1997 1.448 . S
C1965 H1950 0.930 . S
C1965 N1961 1.334 . S
C1965 C1963 1.390 . S
C1966 C1963 1.339 . S
C1966 C1964 1.416 . S
C1966 H1973 0.930 . S
N1967 Tb1932 2.572 . S
N1967 C1968 1.340 . S
N1967 C1970 1.361 . S
C1968 H1954 0.930 . S
C1968 N1967 1.340 . S
C1968 C1972 1.407 . S
C1969 C1970 1.413 . S
C1969 C1971 1.416 . S
C1969 C1998 1.427 . S
C1970 C1962 1.424 . S
C1970 N1967 1.361 . S
C1970 C1969 1.413 . S
C1971 H1960 0.931 . S
C1971 C1969 1.416 . S
C1971 C1972 1.332 . S
C1972 H1951 0.929 . S
C1972 C1968 1.407 . S
C1972 C1971 1.332 . S
H1973 C1966 0.930 . S
H1974 C1997 0.930 . S
H1975 C1998 0.929 . S
O1976 Tb1932 2.465 . S
O1976 C1996 1.264 . S
O1977 Tb1932 2.387 . S
O1977 C1988 1.264 . S
O1978 Tb1943 2.349 . S
O1978 C1988 1.243 . S
O1979 Tb1932 2.428 . S
O1979 C1996 1.256 . S
O1980 Tb1932 2.308 . S
O1980 C1995 1.266 . S
O1981 Tb1943 2.393 . S
O1981 C1995 1.248 . S
O1982 Tb1943 2.465 . S
O1982 C2007 1.264 . S
O1983 Tb1943 2.387 . S
O1983 C1999 1.264 . S
O1984 Tb1932 2.349 . S
O1984 C1999 1.243 . S
O1985 Tb1943 2.428 . S
O1985 C2007 1.256 . S
O1986 Tb1943 2.308 . S
O1986 C2006 1.266 . S
O1987 Tb1932 2.393 . S
O1987 C2006 1.248 . S
C1988 O1977 1.264 . S
C1988 O1978 1.243 . S
C1989 C1992 1.399 . S
C1989 C1994 1.383 . S
C1989 C1996 1.496 . S
C1990 C1991 1.399 . S
C1990 C1994 1.389 . S
C1991 C1990 1.399 . S
C1991 C1993 1.380 . S
C1991 H2008 0.929 . S
C1992 C1989 1.399 . S
C1992 C1993 1.392 . S
C1992 H2009 0.929 . S
C1993 C1991 1.380 . S
C1993 C1992 1.392 . S
C1993 H2010 0.929 . S
C1994 C1989 1.383 . S
C1994 C1990 1.389 . S
C1994 H2011 0.931 . S
C1995 O1980 1.266 . S
C1995 O1981 1.248 . S
C1996 Tb1932 2.802 . S
C1996 O1976 1.264 . S
C1996 O1979 1.256 . S
C1996 C1989 1.496 . S
C1997 C1964 1.448 . S
C1997 H1974 0.930 . S
C1997 C1998 1.328 . S
C1998 C1969 1.427 . S
C1998 H1975 0.929 . S
C1998 C1997 1.328 . S
C1999 O1983 1.264 . S
C1999 O1984 1.243 . S
C2000 C2003 1.399 . S
C2000 C2004 1.383 . S
C2000 C2007 1.496 . S
C2001 C2002 1.399 . S
C2001 C2004 1.389 . S
C2002 C2001 1.399 . S
C2002 C2005 1.380 . S
C2002 H2012 0.929 . S
C2003 C2000 1.399 . S
C2003 C2005 1.392 . S
C2003 H2013 0.929 . S
C2004 C2000 1.383 . S
C2004 C2001 1.389 . S
C2004 H2014 0.931 . S
C2005 C2002 1.380 . S
C2005 C2003 1.392 . S
C2005 H2015 0.929 . S
C2006 O1986 1.266 . S
C2006 O1987 1.248 . S
C2007 Tb1943 2.802 . S
C2007 O1982 1.264 . S
C2007 O1985 1.256 . S
C2007 C2000 1.496 . S
H2008 C1991 0.929 . S
H2009 C1992 0.929 . S
H2010 C1993 0.929 . S
H2011 C1994 0.931 . S
H2012 C2002 0.929 . S
H2013 C2003 0.929 . S
H2014 C2004 0.931 . S
H2015 C2005 0.929 . S
Tb2016 N2045 2.617 . S
Tb2016 N2051 2.572 . S
Tb2016 O2060 2.465 . S
Tb2016 O2061 2.387 . S
Tb2016 O2063 2.428 . S
Tb2016 O2064 2.308 . S
Tb2016 O2068 2.349 . S
Tb2016 O2071 2.393 . S
Tb2016 C2080 2.802 . S
C2017 N2018 1.379 . S
C2017 C2020 1.416 . S
C2017 C2024 1.424 . S
N2018 C2017 1.379 . S
N2018 C2021 1.334 . S
N2018 Tb2027 2.617 . S
C2019 C2021 1.390 . S
C2019 C2022 1.339 . S
C2019 H2039 0.930 . S
C2020 C2017 1.416 . S
C2020 C2022 1.416 . S
C2020 C2026 1.448 . S
C2021 N2018 1.334 . S
C2021 C2019 1.390 . S
C2021 H2032 0.930 . S
C2022 C2019 1.339 . S
C2022 C2020 1.416 . S
C2022 H2043 0.930 . S
C2023 C2024 1.413 . S
C2023 C2025 1.427 . S
C2023 C2029 1.416 . S
C2024 C2017 1.424 . S
C2024 C2023 1.413 . S
C2024 N2028 1.361 . S
C2025 C2023 1.427 . S
C2025 C2026 1.328 . S
C2025 H2040 0.929 . S
C2026 C2020 1.448 . S
C2026 C2025 1.328 . S
C2026 H2041 0.930 . S
Tb2027 N2018 2.617 . S
Tb2027 N2028 2.572 . S
Tb2027 O2062 2.349 . S
Tb2027 O2065 2.393 . S
Tb2027 O2066 2.465 . S
Tb2027 O2067 2.387 . S
Tb2027 O2069 2.428 . S
Tb2027 O2070 2.308 . S
Tb2027 C2091 2.802 . S
N2028 C2024 1.361 . S
N2028 Tb2027 2.572 . S
N2028 C2030 1.340 . S
C2029 C2023 1.416 . S
C2029 C2031 1.332 . S
C2029 H2037 0.931 . S
C2030 N2028 1.340 . S
C2030 C2031 1.407 . S
C2030 H2036 0.930 . S
C2031 C2029 1.332 . S
C2031 C2030 1.407 . S
C2031 H2033 0.929 . S
H2032 C2021 0.930 . S
H2033 C2031 0.929 . S
H2034 C2049 0.930 . S
H2035 C2056 0.929 . S
H2036 C2030 0.930 . S
H2037 C2029 0.931 . S
H2038 C2052 0.930 . S
H2039 C2019 0.930 . S
H2040 C2025 0.929 . S
H2041 C2026 0.930 . S
H2042 C2047 0.930 . S
H2043 C2022 0.930 . S
H2044 C2055 0.931 . S
N2045 Tb2016 2.617 . S
N2045 C2046 1.379 . S
N2045 C2049 1.334 . S
C2046 N2045 1.379 . S
C2046 C2048 1.416 . S
C2046 C2054 1.424 . S
C2047 H2042 0.930 . S
C2047 C2049 1.390 . S
C2047 C2050 1.339 . S
C2048 C2046 1.416 . S
C2048 C2050 1.416 . S
C2048 C2081 1.448 . S
C2049 H2034 0.930 . S
C2049 N2045 1.334 . S
C2049 C2047 1.390 . S
C2050 C2047 1.339 . S
C2050 C2048 1.416 . S
C2050 H2057 0.930 . S
N2051 Tb2016 2.572 . S
N2051 C2052 1.340 . S
N2051 C2054 1.361 . S
C2052 H2038 0.930 . S
C2052 N2051 1.340 . S
C2052 C2056 1.407 . S
C2053 C2054 1.413 . S
C2053 C2055 1.416 . S
C2053 C2082 1.427 . S
C2054 C2046 1.424 . S
C2054 N2051 1.361 . S
C2054 C2053 1.413 . S
C2055 H2044 0.931 . S
C2055 C2053 1.416 . S
C2055 C2056 1.332 . S
C2056 H2035 0.929 . S
C2056 C2052 1.407 . S
C2056 C2055 1.332 . S
H2057 C2050 0.930 . S
H2058 C2081 0.930 . S
H2059 C2082 0.929 . S
O2060 Tb2016 2.465 . S
O2060 C2080 1.264 . S
O2061 Tb2016 2.387 . S
O2061 C2072 1.264 . S
O2062 Tb2027 2.349 . S
O2062 C2072 1.243 . S
O2063 Tb2016 2.428 . S
O2063 C2080 1.256 . S
O2064 Tb2016 2.308 . S
O2064 C2079 1.266 . S
O2065 Tb2027 2.393 . S
O2065 C2079 1.248 . S
O2066 Tb2027 2.465 . S
O2066 C2091 1.264 . S
O2067 Tb2027 2.387 . S
O2067 C2083 1.264 . S
O2068 Tb2016 2.349 . S
O2068 C2083 1.243 . S
O2069 Tb2027 2.428 . S
O2069 C2091 1.256 . S
O2070 Tb2027 2.308 . S
O2070 C2090 1.266 . S
O2071 Tb2016 2.393 . S
O2071 C2090 1.248 . S
C2072 O2061 1.264 . S
C2072 O2062 1.243 . S
C2073 C2076 1.399 . S
C2073 C2078 1.383 . S
C2073 C2080 1.496 . S
C2074 C2075 1.399 . S
C2074 C2078 1.389 . S
C2075 C2074 1.399 . S
C2075 C2077 1.380 . S
C2075 H2092 0.929 . S
C2076 C2073 1.399 . S
C2076 C2077 1.392 . S
C2076 H2093 0.929 . S
C2077 C2075 1.380 . S
C2077 C2076 1.392 . S
C2077 H2094 0.929 . S
C2078 C2073 1.383 . S
C2078 C2074 1.389 . S
C2078 H2095 0.931 . S
C2079 O2064 1.266 . S
C2079 O2065 1.248 . S
C2080 Tb2016 2.802 . S
C2080 O2060 1.264 . S
C2080 O2063 1.256 . S
C2080 C2073 1.496 . S
C2081 C2048 1.448 . S
C2081 H2058 0.930 . S
C2081 C2082 1.328 . S
C2082 C2053 1.427 . S
C2082 H2059 0.929 . S
C2082 C2081 1.328 . S
C2083 O2067 1.264 . S
C2083 O2068 1.243 . S
C2084 C2087 1.399 . S
C2084 C2088 1.383 . S
C2084 C2091 1.496 1_556 S
C2085 C2086 1.399 . S
C2085 C2088 1.389 . S
C2086 C2085 1.399 . S
C2086 C2089 1.380 . S
C2086 H2096 0.929 . S
C2087 C2084 1.399 . S
C2087 C2089 1.392 . S
C2087 H2097 0.929 . S
C2088 C2084 1.383 . S
C2088 C2085 1.389 . S
C2088 H2098 0.931 . S
C2089 C2086 1.380 . S
C2089 C2087 1.392 . S
C2089 H2099 0.929 . S
C2090 O2070 1.266 . S
C2090 O2071 1.248 . S
C2091 Tb2027 2.802 . S
C2091 O2066 1.264 . S
C2091 O2069 1.256 . S
C2091 C2084 1.496 1_554 S
H2092 C2075 0.929 . S
H2093 C2076 0.929 . S
H2094 C2077 0.929 . S
H2095 C2078 0.931 . S
H2096 C2086 0.929 . S
H2097 C2087 0.929 . S
H2098 C2088 0.931 . S
H2099 C2089 0.929 . S
Tb2100 N2129 2.617 . S
Tb2100 N2135 2.572 . S
Tb2100 O2144 2.465 . S
Tb2100 O2145 2.387 . S
Tb2100 O2147 2.428 . S
Tb2100 O2148 2.308 . S
Tb2100 O2152 2.349 . S
Tb2100 O2155 2.393 . S
Tb2100 C2164 2.802 . S
C2101 N2102 1.379 . S
C2101 C2104 1.416 . S
C2101 C2108 1.424 . S
N2102 C2101 1.379 . S
N2102 C2105 1.334 . S
N2102 Tb2111 2.617 . S
C2103 C2105 1.390 . S
C2103 C2106 1.339 . S
C2103 H2123 0.930 . S
C2104 C2101 1.416 . S
C2104 C2106 1.416 . S
C2104 C2110 1.448 . S
C2105 N2102 1.334 . S
C2105 C2103 1.390 . S
C2105 H2116 0.930 . S
C2106 C2103 1.339 . S
C2106 C2104 1.416 . S
C2106 H2127 0.930 . S
C2107 C2108 1.413 . S
C2107 C2109 1.427 . S
C2107 C2113 1.416 . S
C2108 C2101 1.424 . S
C2108 C2107 1.413 . S
C2108 N2112 1.361 . S
C2109 C2107 1.427 . S
C2109 C2110 1.328 . S
C2109 H2124 0.929 . S
C2110 C2104 1.448 . S
C2110 C2109 1.328 . S
C2110 H2125 0.930 . S
Tb2111 N2102 2.617 . S
Tb2111 N2112 2.572 . S
Tb2111 O2146 2.349 . S
Tb2111 O2149 2.393 . S
Tb2111 O2150 2.465 . S
Tb2111 O2151 2.387 . S
Tb2111 O2153 2.428 . S
Tb2111 O2154 2.308 . S
Tb2111 C2175 2.802 . S
N2112 C2108 1.361 . S
N2112 Tb2111 2.572 . S
N2112 C2114 1.340 . S
C2113 C2107 1.416 . S
C2113 C2115 1.332 . S
C2113 H2121 0.931 . S
C2114 N2112 1.340 . S
C2114 C2115 1.407 . S
C2114 H2120 0.930 . S
C2115 C2113 1.332 . S
C2115 C2114 1.407 . S
C2115 H2117 0.929 . S
H2116 C2105 0.930 . S
H2117 C2115 0.929 . S
H2118 C2133 0.930 . S
H2119 C2140 0.929 . S
H2120 C2114 0.930 . S
H2121 C2113 0.931 . S
H2122 C2136 0.930 . S
H2123 C2103 0.930 . S
H2124 C2109 0.929 . S
H2125 C2110 0.930 . S
H2126 C2131 0.930 . S
H2127 C2106 0.930 . S
H2128 C2139 0.931 . S
N2129 Tb2100 2.617 . S
N2129 C2130 1.379 . S
N2129 C2133 1.334 . S
C2130 N2129 1.379 . S
C2130 C2132 1.416 . S
C2130 C2138 1.424 . S
C2131 H2126 0.930 . S
C2131 C2133 1.390 . S
C2131 C2134 1.339 . S
C2132 C2130 1.416 . S
C2132 C2134 1.416 . S
C2132 C2165 1.448 . S
C2133 H2118 0.930 . S
C2133 N2129 1.334 . S
C2133 C2131 1.390 . S
C2134 C2131 1.339 . S
C2134 C2132 1.416 . S
C2134 H2141 0.930 . S
N2135 Tb2100 2.572 . S
N2135 C2136 1.340 . S
N2135 C2138 1.361 . S
C2136 H2122 0.930 . S
C2136 N2135 1.340 . S
C2136 C2140 1.407 . S
C2137 C2138 1.413 . S
C2137 C2139 1.416 . S
C2137 C2166 1.427 . S
C2138 C2130 1.424 . S
C2138 N2135 1.361 . S
C2138 C2137 1.413 . S
C2139 H2128 0.931 . S
C2139 C2137 1.416 . S
C2139 C2140 1.332 . S
C2140 H2119 0.929 . S
C2140 C2136 1.407 . S
C2140 C2139 1.332 . S
H2141 C2134 0.930 . S
H2142 C2165 0.930 . S
H2143 C2166 0.929 . S
O2144 Tb2100 2.465 . S
O2144 C2164 1.264 . S
O2145 Tb2100 2.387 . S
O2145 C2156 1.264 . S
O2146 Tb2111 2.349 . S
O2146 C2156 1.243 . S
O2147 Tb2100 2.428 . S
O2147 C2164 1.256 . S
O2148 Tb2100 2.308 . S
O2148 C2163 1.266 . S
O2149 Tb2111 2.393 . S
O2149 C2163 1.248 . S
O2150 Tb2111 2.465 . S
O2150 C2175 1.264 . S
O2151 Tb2111 2.387 . S
O2151 C2167 1.264 . S
O2152 Tb2100 2.349 . S
O2152 C2167 1.243 . S
O2153 Tb2111 2.428 . S
O2153 C2175 1.256 . S
O2154 Tb2111 2.308 . S
O2154 C2174 1.266 . S
O2155 Tb2100 2.393 . S
O2155 C2174 1.248 . S
C2156 O2145 1.264 . S
C2156 O2146 1.243 . S
C2157 C2160 1.399 . S
C2157 C2162 1.383 . S
C2157 C2164 1.496 . S
C2158 C2159 1.399 . S
C2158 C2162 1.389 . S
C2159 C2158 1.399 . S
C2159 C2161 1.380 . S
C2159 H2176 0.929 . S
C2160 C2157 1.399 . S
C2160 C2161 1.392 . S
C2160 H2177 0.929 . S
C2161 C2159 1.380 . S
C2161 C2160 1.392 . S
C2161 H2178 0.929 . S
C2162 C2157 1.383 . S
C2162 C2158 1.389 . S
C2162 H2179 0.931 . S
C2163 O2148 1.266 . S
C2163 O2149 1.248 . S
C2164 Tb2100 2.802 . S
C2164 O2144 1.264 . S
C2164 O2147 1.256 . S
C2164 C2157 1.496 . S
C2165 C2132 1.448 . S
C2165 H2142 0.930 . S
C2165 C2166 1.328 . S
C2166 C2137 1.427 . S
C2166 H2143 0.929 . S
C2166 C2165 1.328 . S
C2167 O2151 1.264 . S
C2167 O2152 1.243 . S
C2168 C2171 1.399 . S
C2168 C2172 1.383 . S
C2168 C2175 1.496 1_556 S
C2169 C2170 1.399 . S
C2169 C2172 1.389 . S
C2170 C2169 1.399 . S
C2170 C2173 1.380 . S
C2170 H2180 0.929 . S
C2171 C2168 1.399 . S
C2171 C2173 1.392 . S
C2171 H2181 0.929 . S
C2172 C2168 1.383 . S
C2172 C2169 1.389 . S
C2172 H2182 0.931 . S
C2173 C2170 1.380 . S
C2173 C2171 1.392 . S
C2173 H2183 0.929 . S
C2174 O2154 1.266 . S
C2174 O2155 1.248 . S
C2175 Tb2111 2.802 . S
C2175 O2150 1.264 . S
C2175 O2153 1.256 . S
C2175 C2168 1.496 1_554 S
H2176 C2159 0.929 . S
H2177 C2160 0.929 . S
H2178 C2161 0.929 . S
H2179 C2162 0.931 . S
H2180 C2170 0.929 . S
H2181 C2171 0.929 . S
H2182 C2172 0.931 . S
H2183 C2173 0.929 . S
Tb2184 N2213 2.617 . S
Tb2184 N2219 2.572 . S
Tb2184 O2228 2.465 . S
Tb2184 O2229 2.387 1_556 S
Tb2184 O2231 2.428 . S
Tb2184 O2232 2.308 . S
Tb2184 O2236 2.349 . S
Tb2184 O2239 2.393 1_556 S
Tb2184 C2248 2.802 . S
C2185 N2186 1.379 . S
C2185 C2188 1.416 . S
C2185 C2192 1.424 . S
N2186 C2185 1.379 . S
N2186 C2189 1.334 . S
N2186 Tb2195 2.617 . S
C2187 C2189 1.390 . S
C2187 C2190 1.339 . S
C2187 H2207 0.930 . S
C2188 C2185 1.416 . S
C2188 C2190 1.416 . S
C2188 C2194 1.448 . S
C2189 N2186 1.334 . S
C2189 C2187 1.390 . S
C2189 H2200 0.930 . S
C2190 C2187 1.339 . S
C2190 C2188 1.416 . S
C2190 H2211 0.930 . S
C2191 C2192 1.413 . S
C2191 C2193 1.427 . S
C2191 C2197 1.416 . S
C2192 C2185 1.424 . S
C2192 C2191 1.413 . S
C2192 N2196 1.361 . S
C2193 C2191 1.427 . S
C2193 C2194 1.328 . S
C2193 H2208 0.929 . S
C2194 C2188 1.448 . S
C2194 C2193 1.328 . S
C2194 H2209 0.930 . S
Tb2195 N2186 2.617 . S
Tb2195 N2196 2.572 . S
Tb2195 O2230 2.349 . S
Tb2195 O2233 2.393 . S
Tb2195 O2234 2.465 . S
Tb2195 O2235 2.387 . S
Tb2195 O2237 2.428 . S
Tb2195 O2238 2.308 . S
Tb2195 C2259 2.802 . S
N2196 C2192 1.361 . S
N2196 Tb2195 2.572 . S
N2196 C2198 1.340 . S
C2197 C2191 1.416 . S
C2197 C2199 1.332 . S
C2197 H2205 0.931 . S
C2198 N2196 1.340 . S
C2198 C2199 1.407 . S
C2198 H2204 0.930 . S
C2199 C2197 1.332 . S
C2199 C2198 1.407 . S
C2199 H2201 0.929 . S
H2200 C2189 0.930 . S
H2201 C2199 0.929 . S
H2202 C2217 0.930 . S
H2203 C2224 0.929 . S
H2204 C2198 0.930 . S
H2205 C2197 0.931 . S
H2206 C2220 0.930 . S
H2207 C2187 0.930 . S
H2208 C2193 0.929 . S
H2209 C2194 0.930 . S
H2210 C2215 0.930 . S
H2211 C2190 0.930 . S
H2212 C2223 0.931 . S
N2213 Tb2184 2.617 . S
N2213 C2214 1.379 . S
N2213 C2217 1.334 . S
C2214 N2213 1.379 . S
C2214 C2216 1.416 . S
C2214 C2222 1.424 . S
C2215 H2210 0.930 . S
C2215 C2217 1.390 . S
C2215 C2218 1.339 . S
C2216 C2214 1.416 . S
C2216 C2218 1.416 . S
C2216 C2249 1.448 . S
C2217 H2202 0.930 . S
C2217 N2213 1.334 . S
C2217 C2215 1.390 . S
C2218 C2215 1.339 . S
C2218 C2216 1.416 . S
C2218 H2225 0.930 . S
N2219 Tb2184 2.572 . S
N2219 C2220 1.340 . S
N2219 C2222 1.361 . S
C2220 H2206 0.930 . S
C2220 N2219 1.340 . S
C2220 C2224 1.407 . S
C2221 C2222 1.413 . S
C2221 C2223 1.416 . S
C2221 C2250 1.427 . S
C2222 C2214 1.424 . S
C2222 N2219 1.361 . S
C2222 C2221 1.413 . S
C2223 H2212 0.931 . S
C2223 C2221 1.416 . S
C2223 C2224 1.332 . S
C2224 H2203 0.929 . S
C2224 C2220 1.407 . S
C2224 C2223 1.332 . S
H2225 C2218 0.930 . S
H2226 C2249 0.930 . S
H2227 C2250 0.929 . S
O2228 Tb2184 2.465 . S
O2228 C2248 1.264 . S
O2229 Tb2184 2.387 1_554 S
O2229 C2240 1.264 . S
O2230 Tb2195 2.349 . S
O2230 C2240 1.243 . S
O2231 Tb2184 2.428 . S
O2231 C2248 1.256 . S
O2232 Tb2184 2.308 . S
O2232 C2247 1.266 . S
O2233 Tb2195 2.393 . S
O2233 C2247 1.248 1_554 S
O2234 Tb2195 2.465 . S
O2234 C2259 1.264 . S
O2235 Tb2195 2.387 . S
O2235 C2251 1.264 1_554 S
O2236 Tb2184 2.349 . S
O2236 C2251 1.243 . S
O2237 Tb2195 2.428 . S
O2237 C2259 1.256 . S
O2238 Tb2195 2.308 . S
O2238 C2258 1.266 . S
O2239 Tb2184 2.393 1_554 S
O2239 C2258 1.248 . S
C2240 O2229 1.264 . S
C2240 O2230 1.243 . S
C2241 C2244 1.399 . S
C2241 C2246 1.383 . S
C2241 C2248 1.496 . S
C2242 C2243 1.399 . S
C2242 C2246 1.389 . S
C2243 C2242 1.399 . S
C2243 C2245 1.380 . S
C2243 H2260 0.929 . S
C2244 C2241 1.399 . S
C2244 C2245 1.392 . S
C2244 H2261 0.929 . S
C2245 C2243 1.380 . S
C2245 C2244 1.392 . S
C2245 H2262 0.929 . S
C2246 C2241 1.383 . S
C2246 C2242 1.389 . S
C2246 H2263 0.931 . S
C2247 O2232 1.266 . S
C2247 O2233 1.248 1_556 S
C2248 Tb2184 2.802 . S
C2248 O2228 1.264 . S
C2248 O2231 1.256 . S
C2248 C2241 1.496 . S
C2249 C2216 1.448 . S
C2249 H2226 0.930 . S
C2249 C2250 1.328 . S
C2250 C2221 1.427 . S
C2250 H2227 0.929 . S
C2250 C2249 1.328 . S
C2251 O2235 1.264 1_556 S
C2251 O2236 1.243 . S
C2252 C2255 1.399 . S
C2252 C2256 1.383 . S
C2252 C2259 1.496 . S
C2253 C2254 1.399 . S
C2253 C2256 1.389 . S
C2254 C2253 1.399 . S
C2254 C2257 1.380 . S
C2254 H2264 0.929 . S
C2255 C2252 1.399 . S
C2255 C2257 1.392 . S
C2255 H2265 0.929 . S
C2256 C2252 1.383 . S
C2256 C2253 1.389 . S
C2256 H2266 0.931 . S
C2257 C2254 1.380 . S
C2257 C2255 1.392 . S
C2257 H2267 0.929 . S
C2258 O2238 1.266 . S
C2258 O2239 1.248 . S
C2259 Tb2195 2.802 . S
C2259 O2234 1.264 . S
C2259 O2237 1.256 . S
C2259 C2252 1.496 . S
H2260 C2243 0.929 . S
H2261 C2244 0.929 . S
H2262 C2245 0.929 . S
H2263 C2246 0.931 . S
H2264 C2254 0.929 . S
H2265 C2255 0.929 . S
H2266 C2256 0.931 . S
H2267 C2257 0.929 . S
Tb2268 N2297 2.617 . S
Tb2268 N2303 2.572 . S
Tb2268 O2312 2.465 . S
Tb2268 O2313 2.387 1_556 S
Tb2268 O2315 2.428 . S
Tb2268 O2316 2.308 . S
Tb2268 O2320 2.349 . S
Tb2268 O2323 2.393 1_556 S
Tb2268 C2332 2.802 . S
C2269 N2270 1.379 . S
C2269 C2272 1.416 . S
C2269 C2276 1.424 . S
N2270 C2269 1.379 . S
N2270 C2273 1.334 . S
N2270 Tb2279 2.617 . S
C2271 C2273 1.390 . S
C2271 C2274 1.339 . S
C2271 H2291 0.930 . S
C2272 C2269 1.416 . S
C2272 C2274 1.416 . S
C2272 C2278 1.448 . S
C2273 N2270 1.334 . S
C2273 C2271 1.390 . S
C2273 H2284 0.930 . S
C2274 C2271 1.339 . S
C2274 C2272 1.416 . S
C2274 H2295 0.930 . S
C2275 C2276 1.413 . S
C2275 C2277 1.427 . S
C2275 C2281 1.416 . S
C2276 C2269 1.424 . S
C2276 C2275 1.413 . S
C2276 N2280 1.361 . S
C2277 C2275 1.427 . S
C2277 C2278 1.328 . S
C2277 H2292 0.929 . S
C2278 C2272 1.448 . S
C2278 C2277 1.328 . S
C2278 H2293 0.930 . S
Tb2279 N2270 2.617 . S
Tb2279 N2280 2.572 . S
Tb2279 O2314 2.349 . S
Tb2279 O2317 2.393 . S
Tb2279 O2318 2.465 . S
Tb2279 O2319 2.387 . S
Tb2279 O2321 2.428 . S
Tb2279 O2322 2.308 . S
Tb2279 C2343 2.802 . S
N2280 C2276 1.361 . S
N2280 Tb2279 2.572 . S
N2280 C2282 1.340 . S
C2281 C2275 1.416 . S
C2281 C2283 1.332 . S
C2281 H2289 0.931 . S
C2282 N2280 1.340 . S
C2282 C2283 1.407 . S
C2282 H2288 0.930 . S
C2283 C2281 1.332 . S
C2283 C2282 1.407 . S
C2283 H2285 0.929 . S
H2284 C2273 0.930 . S
H2285 C2283 0.929 . S
H2286 C2301 0.930 . S
H2287 C2308 0.929 . S
H2288 C2282 0.930 . S
H2289 C2281 0.931 . S
H2290 C2304 0.930 . S
H2291 C2271 0.930 . S
H2292 C2277 0.929 . S
H2293 C2278 0.930 . S
H2294 C2299 0.930 . S
H2295 C2274 0.930 . S
H2296 C2307 0.931 . S
N2297 Tb2268 2.617 . S
N2297 C2298 1.379 . S
N2297 C2301 1.334 . S
C2298 N2297 1.379 . S
C2298 C2300 1.416 . S
C2298 C2306 1.424 . S
C2299 H2294 0.930 . S
C2299 C2301 1.390 . S
C2299 C2302 1.339 . S
C2300 C2298 1.416 . S
C2300 C2302 1.416 . S
C2300 C2333 1.448 . S
C2301 H2286 0.930 . S
C2301 N2297 1.334 . S
C2301 C2299 1.390 . S
C2302 C2299 1.339 . S
C2302 C2300 1.416 . S
C2302 H2309 0.930 . S
N2303 Tb2268 2.572 . S
N2303 C2304 1.340 . S
N2303 C2306 1.361 . S
C2304 H2290 0.930 . S
C2304 N2303 1.340 . S
C2304 C2308 1.407 . S
C2305 C2306 1.413 . S
C2305 C2307 1.416 . S
C2305 C2334 1.427 . S
C2306 C2298 1.424 . S
C2306 N2303 1.361 . S
C2306 C2305 1.413 . S
C2307 H2296 0.931 . S
C2307 C2305 1.416 . S
C2307 C2308 1.332 . S
C2308 H2287 0.929 . S
C2308 C2304 1.407 . S
C2308 C2307 1.332 . S
H2309 C2302 0.930 . S
H2310 C2333 0.930 . S
H2311 C2334 0.929 . S
O2312 Tb2268 2.465 . S
O2312 C2332 1.264 . S
O2313 Tb2268 2.387 1_554 S
O2313 C2324 1.264 . S
O2314 Tb2279 2.349 . S
O2314 C2324 1.243 . S
O2315 Tb2268 2.428 . S
O2315 C2332 1.256 . S
O2316 Tb2268 2.308 . S
O2316 C2331 1.266 . S
O2317 Tb2279 2.393 . S
O2317 C2331 1.248 1_554 S
O2318 Tb2279 2.465 . S
O2318 C2343 1.264 . S
O2319 Tb2279 2.387 . S
O2319 C2335 1.264 1_554 S
O2320 Tb2268 2.349 . S
O2320 C2335 1.243 . S
O2321 Tb2279 2.428 . S
O2321 C2343 1.256 . S
O2322 Tb2279 2.308 . S
O2322 C2342 1.266 . S
O2323 Tb2268 2.393 1_554 S
O2323 C2342 1.248 . S
C2324 O2313 1.264 . S
C2324 O2314 1.243 . S
C2325 C2328 1.399 . S
C2325 C2330 1.383 . S
C2325 C2332 1.496 . S
C2326 C2327 1.399 . S
C2326 C2330 1.389 . S
C2327 C2326 1.399 . S
C2327 C2329 1.380 . S
C2327 H2344 0.929 . S
C2328 C2325 1.399 . S
C2328 C2329 1.392 . S
C2328 H2345 0.929 . S
C2329 C2327 1.380 . S
C2329 C2328 1.392 . S
C2329 H2346 0.929 . S
C2330 C2325 1.383 . S
C2330 C2326 1.389 . S
C2330 H2347 0.931 . S
C2331 O2316 1.266 . S
C2331 O2317 1.248 1_556 S
C2332 Tb2268 2.802 . S
C2332 O2312 1.264 . S
C2332 O2315 1.256 . S
C2332 C2325 1.496 . S
C2333 C2300 1.448 . S
C2333 H2310 0.930 . S
C2333 C2334 1.328 . S
C2334 C2305 1.427 . S
C2334 H2311 0.929 . S
C2334 C2333 1.328 . S
C2335 O2319 1.264 1_556 S
C2335 O2320 1.243 . S
C2336 C2339 1.399 . S
C2336 C2340 1.383 . S
C2336 C2343 1.496 . S
C2337 C2338 1.399 . S
C2337 C2340 1.389 . S
C2338 C2337 1.399 . S
C2338 C2341 1.380 . S
C2338 H2348 0.929 . S
C2339 C2336 1.399 . S
C2339 C2341 1.392 . S
C2339 H2349 0.929 . S
C2340 C2336 1.383 . S
C2340 C2337 1.389 . S
C2340 H2350 0.931 . S
C2341 C2338 1.380 . S
C2341 C2339 1.392 . S
C2341 H2351 0.929 . S
C2342 O2322 1.266 . S
C2342 O2323 1.248 . S
C2343 Tb2279 2.802 . S
C2343 O2318 1.264 . S
C2343 O2321 1.256 . S
C2343 C2336 1.496 . S
H2344 C2327 0.929 . S
H2345 C2328 0.929 . S
H2346 C2329 0.929 . S
H2347 C2330 0.931 . S
H2348 C2338 0.929 . S
H2349 C2339 0.929 . S
H2350 C2340 0.931 . S
H2351 C2341 0.929 . S
Tb2352 N2381 2.617 . S
Tb2352 N2387 2.572 . S
Tb2352 O2396 2.465 . S
Tb2352 O2397 2.387 . S
Tb2352 O2399 2.428 . S
Tb2352 O2400 2.308 . S
Tb2352 O2404 2.349 . S
Tb2352 O2407 2.393 . S
Tb2352 C2416 2.802 . S
C2353 N2354 1.379 . S
C2353 C2356 1.416 . S
C2353 C2360 1.424 . S
N2354 C2353 1.379 . S
N2354 C2357 1.334 . S
N2354 Tb2363 2.617 . S
C2355 C2357 1.390 . S
C2355 C2358 1.339 . S
C2355 H2375 0.930 . S
C2356 C2353 1.416 . S
C2356 C2358 1.416 . S
C2356 C2362 1.448 . S
C2357 N2354 1.334 . S
C2357 C2355 1.390 . S
C2357 H2368 0.930 . S
C2358 C2355 1.339 . S
C2358 C2356 1.416 . S
C2358 H2379 0.930 . S
C2359 C2360 1.413 . S
C2359 C2361 1.427 . S
C2359 C2365 1.416 . S
C2360 C2353 1.424 . S
C2360 C2359 1.413 . S
C2360 N2364 1.361 . S
C2361 C2359 1.427 . S
C2361 C2362 1.328 . S
C2361 H2376 0.929 . S
C2362 C2356 1.448 . S
C2362 C2361 1.328 . S
C2362 H2377 0.930 . S
Tb2363 N2354 2.617 . S
Tb2363 N2364 2.572 . S
Tb2363 O2398 2.349 . S
Tb2363 O2401 2.393 . S
Tb2363 O2402 2.465 . S
Tb2363 O2403 2.387 . S
Tb2363 O2405 2.428 . S
Tb2363 O2406 2.308 . S
Tb2363 C2427 2.802 . S
N2364 C2360 1.361 . S
N2364 Tb2363 2.572 . S
N2364 C2366 1.340 . S
C2365 C2359 1.416 . S
C2365 C2367 1.332 . S
C2365 H2373 0.931 . S
C2366 N2364 1.340 . S
C2366 C2367 1.407 . S
C2366 H2372 0.930 . S
C2367 C2365 1.332 . S
C2367 C2366 1.407 . S
C2367 H2369 0.929 . S
H2368 C2357 0.930 . S
H2369 C2367 0.929 . S
H2370 C2385 0.930 . S
H2371 C2392 0.929 . S
H2372 C2366 0.930 . S
H2373 C2365 0.931 . S
H2374 C2388 0.930 . S
H2375 C2355 0.930 . S
H2376 C2361 0.929 . S
H2377 C2362 0.930 . S
H2378 C2383 0.930 . S
H2379 C2358 0.930 . S
H2380 C2391 0.931 . S
N2381 Tb2352 2.617 . S
N2381 C2382 1.379 . S
N2381 C2385 1.334 . S
C2382 N2381 1.379 . S
C2382 C2384 1.416 . S
C2382 C2390 1.424 . S
C2383 H2378 0.930 . S
C2383 C2385 1.390 . S
C2383 C2386 1.339 . S
C2384 C2382 1.416 . S
C2384 C2386 1.416 . S
C2384 C2417 1.448 . S
C2385 H2370 0.930 . S
C2385 N2381 1.334 . S
C2385 C2383 1.390 . S
C2386 C2383 1.339 . S
C2386 C2384 1.416 . S
C2386 H2393 0.930 . S
N2387 Tb2352 2.572 . S
N2387 C2388 1.340 . S
N2387 C2390 1.361 . S
C2388 H2374 0.930 . S
C2388 N2387 1.340 . S
C2388 C2392 1.407 . S
C2389 C2390 1.413 . S
C2389 C2391 1.416 . S
C2389 C2418 1.427 . S
C2390 C2382 1.424 . S
C2390 N2387 1.361 . S
C2390 C2389 1.413 . S
C2391 H2380 0.931 . S
C2391 C2389 1.416 . S
C2391 C2392 1.332 . S
C2392 H2371 0.929 . S
C2392 C2388 1.407 . S
C2392 C2391 1.332 . S
H2393 C2386 0.930 . S
H2394 C2417 0.930 . S
H2395 C2418 0.929 . S
O2396 Tb2352 2.465 . S
O2396 C2416 1.264 . S
O2397 Tb2352 2.387 . S
O2397 C2408 1.264 . S
O2398 Tb2363 2.349 . S
O2398 C2408 1.243 . S
O2399 Tb2352 2.428 . S
O2399 C2416 1.256 . S
O2400 Tb2352 2.308 . S
O2400 C2415 1.266 . S
O2401 Tb2363 2.393 . S
O2401 C2415 1.248 . S
O2402 Tb2363 2.465 . S
O2402 C2427 1.264 . S
O2403 Tb2363 2.387 . S
O2403 C2419 1.264 . S
O2404 Tb2352 2.349 . S
O2404 C2419 1.243 . S
O2405 Tb2363 2.428 . S
O2405 C2427 1.256 . S
O2406 Tb2363 2.308 . S
O2406 C2426 1.266 . S
O2407 Tb2352 2.393 . S
O2407 C2426 1.248 . S
C2408 O2397 1.264 . S
C2408 O2398 1.243 . S
C2409 C2412 1.399 . S
C2409 C2414 1.383 . S
C2409 C2416 1.496 1_554 S
C2410 C2411 1.399 . S
C2410 C2414 1.389 . S
C2411 C2410 1.399 . S
C2411 C2413 1.380 . S
C2411 H2428 0.929 . S
C2412 C2409 1.399 . S
C2412 C2413 1.392 . S
C2412 H2429 0.929 . S
C2413 C2411 1.380 . S
C2413 C2412 1.392 . S
C2413 H2430 0.929 . S
C2414 C2409 1.383 . S
C2414 C2410 1.389 . S
C2414 H2431 0.931 . S
C2415 O2400 1.266 . S
C2415 O2401 1.248 . S
C2416 Tb2352 2.802 . S
C2416 O2396 1.264 . S
C2416 O2399 1.256 . S
C2416 C2409 1.496 1_556 S
C2417 C2384 1.448 . S
C2417 H2394 0.930 . S
C2417 C2418 1.328 . S
C2418 C2389 1.427 . S
C2418 H2395 0.929 . S
C2418 C2417 1.328 . S
C2419 O2403 1.264 . S
C2419 O2404 1.243 . S
C2420 C2423 1.399 . S
C2420 C2424 1.383 . S
C2420 C2427 1.496 . S
C2421 C2422 1.399 . S
C2421 C2424 1.389 . S
C2422 C2421 1.399 . S
C2422 C2425 1.380 . S
C2422 H2432 0.929 . S
C2423 C2420 1.399 . S
C2423 C2425 1.392 . S
C2423 H2433 0.929 . S
C2424 C2420 1.383 . S
C2424 C2421 1.389 . S
C2424 H2434 0.931 . S
C2425 C2422 1.380 . S
C2425 C2423 1.392 . S
C2425 H2435 0.929 . S
C2426 O2406 1.266 . S
C2426 O2407 1.248 . S
C2427 Tb2363 2.802 . S
C2427 O2402 1.264 . S
C2427 O2405 1.256 . S
C2427 C2420 1.496 . S
H2428 C2411 0.929 . S
H2429 C2412 0.929 . S
H2430 C2413 0.929 . S
H2431 C2414 0.931 . S
H2432 C2422 0.929 . S
H2433 C2423 0.929 . S
H2434 C2424 0.931 . S
H2435 C2425 0.929 . S
Tb2436 N2465 2.617 . S
Tb2436 N2471 2.572 . S
Tb2436 O2480 2.465 . S
Tb2436 O2481 2.387 . S
Tb2436 O2483 2.428 . S
Tb2436 O2484 2.308 . S
Tb2436 O2488 2.349 . S
Tb2436 O2491 2.393 . S
Tb2436 C2500 2.802 . S
C2437 N2438 1.379 . S
C2437 C2440 1.416 . S
C2437 C2444 1.424 . S
N2438 C2437 1.379 . S
N2438 C2441 1.334 . S
N2438 Tb2447 2.617 . S
C2439 C2441 1.390 . S
C2439 C2442 1.339 . S
C2439 H2459 0.930 . S
C2440 C2437 1.416 . S
C2440 C2442 1.416 . S
C2440 C2446 1.448 . S
C2441 N2438 1.334 . S
C2441 C2439 1.390 . S
C2441 H2452 0.930 . S
C2442 C2439 1.339 . S
C2442 C2440 1.416 . S
C2442 H2463 0.930 . S
C2443 C2444 1.413 . S
C2443 C2445 1.427 . S
C2443 C2449 1.416 . S
C2444 C2437 1.424 . S
C2444 C2443 1.413 . S
C2444 N2448 1.361 . S
C2445 C2443 1.427 . S
C2445 C2446 1.328 . S
C2445 H2460 0.929 . S
C2446 C2440 1.448 . S
C2446 C2445 1.328 . S
C2446 H2461 0.930 . S
Tb2447 N2438 2.617 . S
Tb2447 N2448 2.572 . S
Tb2447 O2482 2.349 . S
Tb2447 O2485 2.393 . S
Tb2447 O2486 2.465 . S
Tb2447 O2487 2.387 . S
Tb2447 O2489 2.428 . S
Tb2447 O2490 2.308 . S
Tb2447 C2511 2.802 . S
N2448 C2444 1.361 . S
N2448 Tb2447 2.572 . S
N2448 C2450 1.340 . S
C2449 C2443 1.416 . S
C2449 C2451 1.332 . S
C2449 H2457 0.931 . S
C2450 N2448 1.340 . S
C2450 C2451 1.407 . S
C2450 H2456 0.930 . S
C2451 C2449 1.332 . S
C2451 C2450 1.407 . S
C2451 H2453 0.929 . S
H2452 C2441 0.930 . S
H2453 C2451 0.929 . S
H2454 C2469 0.930 . S
H2455 C2476 0.929 . S
H2456 C2450 0.930 . S
H2457 C2449 0.931 . S
H2458 C2472 0.930 . S
H2459 C2439 0.930 . S
H2460 C2445 0.929 . S
H2461 C2446 0.930 . S
H2462 C2467 0.930 . S
H2463 C2442 0.930 . S
H2464 C2475 0.931 . S
N2465 Tb2436 2.617 . S
N2465 C2466 1.379 . S
N2465 C2469 1.334 . S
C2466 N2465 1.379 . S
C2466 C2468 1.416 . S
C2466 C2474 1.424 . S
C2467 H2462 0.930 . S
C2467 C2469 1.390 . S
C2467 C2470 1.339 . S
C2468 C2466 1.416 . S
C2468 C2470 1.416 . S
C2468 C2501 1.448 . S
C2469 H2454 0.930 . S
C2469 N2465 1.334 . S
C2469 C2467 1.390 . S
C2470 C2467 1.339 . S
C2470 C2468 1.416 . S
C2470 H2477 0.930 . S
N2471 Tb2436 2.572 . S
N2471 C2472 1.340 . S
N2471 C2474 1.361 . S
C2472 H2458 0.930 . S
C2472 N2471 1.340 . S
C2472 C2476 1.407 . S
C2473 C2474 1.413 . S
C2473 C2475 1.416 . S
C2473 C2502 1.427 . S
C2474 C2466 1.424 . S
C2474 N2471 1.361 . S
C2474 C2473 1.413 . S
C2475 H2464 0.931 . S
C2475 C2473 1.416 . S
C2475 C2476 1.332 . S
C2476 H2455 0.929 . S
C2476 C2472 1.407 . S
C2476 C2475 1.332 . S
H2477 C2470 0.930 . S
H2478 C2501 0.930 . S
H2479 C2502 0.929 . S
O2480 Tb2436 2.465 . S
O2480 C2500 1.264 . S
O2481 Tb2436 2.387 . S
O2481 C2492 1.264 . S
O2482 Tb2447 2.349 . S
O2482 C2492 1.243 . S
O2483 Tb2436 2.428 . S
O2483 C2500 1.256 . S
O2484 Tb2436 2.308 . S
O2484 C2499 1.266 . S
O2485 Tb2447 2.393 . S
O2485 C2499 1.248 . S
O2486 Tb2447 2.465 . S
O2486 C2511 1.264 . S
O2487 Tb2447 2.387 . S
O2487 C2503 1.264 . S
O2488 Tb2436 2.349 . S
O2488 C2503 1.243 . S
O2489 Tb2447 2.428 . S
O2489 C2511 1.256 . S
O2490 Tb2447 2.308 . S
O2490 C2510 1.266 . S
O2491 Tb2436 2.393 . S
O2491 C2510 1.248 . S
C2492 O2481 1.264 . S
C2492 O2482 1.243 . S
C2493 C2496 1.399 . S
C2493 C2498 1.383 . S
C2493 C2500 1.496 1_554 S
C2494 C2495 1.399 . S
C2494 C2498 1.389 . S
C2495 C2494 1.399 . S
C2495 C2497 1.380 . S
C2495 H2512 0.929 . S
C2496 C2493 1.399 . S
C2496 C2497 1.392 . S
C2496 H2513 0.929 . S
C2497 C2495 1.380 . S
C2497 C2496 1.392 . S
C2497 H2514 0.929 . S
C2498 C2493 1.383 . S
C2498 C2494 1.389 . S
C2498 H2515 0.931 . S
C2499 O2484 1.266 . S
C2499 O2485 1.248 . S
C2500 Tb2436 2.802 . S
C2500 O2480 1.264 . S
C2500 O2483 1.256 . S
C2500 C2493 1.496 1_556 S
C2501 C2468 1.448 . S
C2501 H2478 0.930 . S
C2501 C2502 1.328 . S
C2502 C2473 1.427 . S
C2502 H2479 0.929 . S
C2502 C2501 1.328 . S
C2503 O2487 1.264 . S
C2503 O2488 1.243 . S
C2504 C2507 1.399 . S
C2504 C2508 1.383 . S
C2504 C2511 1.496 . S
C2505 C2506 1.399 . S
C2505 C2508 1.389 . S
C2506 C2505 1.399 . S
C2506 C2509 1.380 . S
C2506 H2516 0.929 . S
C2507 C2504 1.399 . S
C2507 C2509 1.392 . S
C2507 H2517 0.929 . S
C2508 C2504 1.383 . S
C2508 C2505 1.389 . S
C2508 H2518 0.931 . S
C2509 C2506 1.380 . S
C2509 C2507 1.392 . S
C2509 H2519 0.929 . S
C2510 O2490 1.266 . S
C2510 O2491 1.248 . S
C2511 Tb2447 2.802 . S
C2511 O2486 1.264 . S
C2511 O2489 1.256 . S
C2511 C2504 1.496 . S
H2512 C2495 0.929 . S
H2513 C2496 0.929 . S
H2514 C2497 0.929 . S
H2515 C2498 0.931 . S
H2516 C2506 0.929 . S
H2517 C2507 0.929 . S
H2518 C2508 0.931 . S
H2519 C2509 0.929 . S
Tb2520 N2549 2.617 . S
Tb2520 N2555 2.572 . S
Tb2520 O2564 2.465 . S
Tb2520 O2565 2.387 . S
Tb2520 O2567 2.428 . S
Tb2520 O2568 2.308 . S
Tb2520 O2572 2.349 . S
Tb2520 O2575 2.393 . S
Tb2520 C2584 2.802 . S
C2521 N2522 1.379 . S
C2521 C2524 1.416 . S
C2521 C2528 1.424 . S
N2522 C2521 1.379 . S
N2522 C2525 1.334 . S
N2522 Tb2531 2.617 . S
C2523 C2525 1.390 . S
C2523 C2526 1.339 . S
C2523 H2543 0.930 . S
C2524 C2521 1.416 . S
C2524 C2526 1.416 . S
C2524 C2530 1.448 . S
C2525 N2522 1.334 . S
C2525 C2523 1.390 . S
C2525 H2536 0.930 . S
C2526 C2523 1.339 . S
C2526 C2524 1.416 . S
C2526 H2547 0.930 . S
C2527 C2528 1.413 . S
C2527 C2529 1.427 . S
C2527 C2533 1.416 . S
C2528 C2521 1.424 . S
C2528 C2527 1.413 . S
C2528 N2532 1.361 . S
C2529 C2527 1.427 . S
C2529 C2530 1.328 . S
C2529 H2544 0.929 . S
C2530 C2524 1.448 . S
C2530 C2529 1.328 . S
C2530 H2545 0.930 . S
Tb2531 N2522 2.617 . S
Tb2531 N2532 2.572 . S
Tb2531 O2566 2.349 . S
Tb2531 O2569 2.393 1_554 S
Tb2531 O2570 2.465 . S
Tb2531 O2571 2.387 1_554 S
Tb2531 O2573 2.428 . S
Tb2531 O2574 2.308 . S
Tb2531 C2595 2.802 . S
N2532 C2528 1.361 . S
N2532 Tb2531 2.572 . S
N2532 C2534 1.340 . S
C2533 C2527 1.416 . S
C2533 C2535 1.332 . S
C2533 H2541 0.931 . S
C2534 N2532 1.340 . S
C2534 C2535 1.407 . S
C2534 H2540 0.930 . S
C2535 C2533 1.332 . S
C2535 C2534 1.407 . S
C2535 H2537 0.929 . S
H2536 C2525 0.930 . S
H2537 C2535 0.929 . S
H2538 C2553 0.930 . S
H2539 C2560 0.929 . S
H2540 C2534 0.930 . S
H2541 C2533 0.931 . S
H2542 C2556 0.930 . S
H2543 C2523 0.930 . S
H2544 C2529 0.929 . S
H2545 C2530 0.930 . S
H2546 C2551 0.930 . S
H2547 C2526 0.930 . S
H2548 C2559 0.931 . S
N2549 Tb2520 2.617 . S
N2549 C2550 1.379 . S
N2549 C2553 1.334 . S
C2550 N2549 1.379 . S
C2550 C2552 1.416 . S
C2550 C2558 1.424 . S
C2551 H2546 0.930 . S
C2551 C2553 1.390 . S
C2551 C2554 1.339 . S
C2552 C2550 1.416 . S
C2552 C2554 1.416 . S
C2552 C2585 1.448 . S
C2553 H2538 0.930 . S
C2553 N2549 1.334 . S
C2553 C2551 1.390 . S
C2554 C2551 1.339 . S
C2554 C2552 1.416 . S
C2554 H2561 0.930 . S
N2555 Tb2520 2.572 . S
N2555 C2556 1.340 . S
N2555 C2558 1.361 . S
C2556 H2542 0.930 . S
C2556 N2555 1.340 . S
C2556 C2560 1.407 . S
C2557 C2558 1.413 . S
C2557 C2559 1.416 . S
C2557 C2586 1.427 . S
C2558 C2550 1.424 . S
C2558 N2555 1.361 . S
C2558 C2557 1.413 . S
C2559 H2548 0.931 . S
C2559 C2557 1.416 . S
C2559 C2560 1.332 . S
C2560 H2539 0.929 . S
C2560 C2556 1.407 . S
C2560 C2559 1.332 . S
H2561 C2554 0.930 . S
H2562 C2585 0.930 . S
H2563 C2586 0.929 . S
O2564 Tb2520 2.465 . S
O2564 C2584 1.264 . S
O2565 Tb2520 2.387 . S
O2565 C2576 1.264 1_556 S
O2566 Tb2531 2.349 . S
O2566 C2576 1.243 . S
O2567 Tb2520 2.428 . S
O2567 C2584 1.256 . S
O2568 Tb2520 2.308 . S
O2568 C2583 1.266 . S
O2569 Tb2531 2.393 1_556 S
O2569 C2583 1.248 . S
O2570 Tb2531 2.465 . S
O2570 C2595 1.264 . S
O2571 Tb2531 2.387 1_556 S
O2571 C2587 1.264 . S
O2572 Tb2520 2.349 . S
O2572 C2587 1.243 . S
O2573 Tb2531 2.428 . S
O2573 C2595 1.256 . S
O2574 Tb2531 2.308 . S
O2574 C2594 1.266 . S
O2575 Tb2520 2.393 . S
O2575 C2594 1.248 1_556 S
C2576 O2565 1.264 1_554 S
C2576 O2566 1.243 . S
C2577 C2580 1.399 . S
C2577 C2582 1.383 . S
C2577 C2584 1.496 . S
C2578 C2579 1.399 . S
C2578 C2582 1.389 . S
C2579 C2578 1.399 . S
C2579 C2581 1.380 . S
C2579 H2596 0.929 . S
C2580 C2577 1.399 . S
C2580 C2581 1.392 . S
C2580 H2597 0.929 . S
C2581 C2579 1.380 . S
C2581 C2580 1.392 . S
C2581 H2598 0.929 . S
C2582 C2577 1.383 . S
C2582 C2578 1.389 . S
C2582 H2599 0.931 . S
C2583 O2568 1.266 . S
C2583 O2569 1.248 . S
C2584 Tb2520 2.802 . S
C2584 O2564 1.264 . S
C2584 O2567 1.256 . S
C2584 C2577 1.496 . S
C2585 C2552 1.448 . S
C2585 H2562 0.930 . S
C2585 C2586 1.328 . S
C2586 C2557 1.427 . S
C2586 H2563 0.929 . S
C2586 C2585 1.328 . S
C2587 O2571 1.264 . S
C2587 O2572 1.243 . S
C2588 C2591 1.399 . S
C2588 C2592 1.383 . S
C2588 C2595 1.496 . S
C2589 C2590 1.399 . S
C2589 C2592 1.389 . S
C2590 C2589 1.399 . S
C2590 C2593 1.380 . S
C2590 H2600 0.929 . S
C2591 C2588 1.399 . S
C2591 C2593 1.392 . S
C2591 H2601 0.929 . S
C2592 C2588 1.383 . S
C2592 C2589 1.389 . S
C2592 H2602 0.931 . S
C2593 C2590 1.380 . S
C2593 C2591 1.392 . S
C2593 H2603 0.929 . S
C2594 O2574 1.266 . S
C2594 O2575 1.248 1_554 S
C2595 Tb2531 2.802 . S
C2595 O2570 1.264 . S
C2595 O2573 1.256 . S
C2595 C2588 1.496 . S
H2596 C2579 0.929 . S
H2597 C2580 0.929 . S
H2598 C2581 0.929 . S
H2599 C2582 0.931 . S
H2600 C2590 0.929 . S
H2601 C2591 0.929 . S
H2602 C2592 0.931 . S
H2603 C2593 0.929 . S
Tb2604 N2633 2.617 . S
Tb2604 N2639 2.572 . S
Tb2604 O2648 2.465 . S
Tb2604 O2649 2.387 . S
Tb2604 O2651 2.428 . S
Tb2604 O2652 2.308 . S
Tb2604 O2656 2.349 . S
Tb2604 O2659 2.393 . S
Tb2604 C2668 2.802 . S
C2605 N2606 1.379 . S
C2605 C2608 1.416 . S
C2605 C2612 1.424 . S
N2606 C2605 1.379 . S
N2606 C2609 1.334 . S
N2606 Tb2615 2.617 . S
C2607 C2609 1.390 . S
C2607 C2610 1.339 . S
C2607 H2627 0.930 . S
C2608 C2605 1.416 . S
C2608 C2610 1.416 . S
C2608 C2614 1.448 . S
C2609 N2606 1.334 . S
C2609 C2607 1.390 . S
C2609 H2620 0.930 . S
C2610 C2607 1.339 . S
C2610 C2608 1.416 . S
C2610 H2631 0.930 . S
C2611 C2612 1.413 . S
C2611 C2613 1.427 . S
C2611 C2617 1.416 . S
C2612 C2605 1.424 . S
C2612 C2611 1.413 . S
C2612 N2616 1.361 . S
C2613 C2611 1.427 . S
C2613 C2614 1.328 . S
C2613 H2628 0.929 . S
C2614 C2608 1.448 . S
C2614 C2613 1.328 . S
C2614 H2629 0.930 . S
Tb2615 N2606 2.617 . S
Tb2615 N2616 2.572 . S
Tb2615 O2650 2.349 . S
Tb2615 O2653 2.393 1_554 S
Tb2615 O2654 2.465 . S
Tb2615 O2655 2.387 1_554 S
Tb2615 O2657 2.428 . S
Tb2615 O2658 2.308 . S
Tb2615 C2679 2.802 . S
N2616 C2612 1.361 . S
N2616 Tb2615 2.572 . S
N2616 C2618 1.340 . S
C2617 C2611 1.416 . S
C2617 C2619 1.332 . S
C2617 H2625 0.931 . S
C2618 N2616 1.340 . S
C2618 C2619 1.407 . S
C2618 H2624 0.930 . S
C2619 C2617 1.332 . S
C2619 C2618 1.407 . S
C2619 H2621 0.929 . S
H2620 C2609 0.930 . S
H2621 C2619 0.929 . S
H2622 C2637 0.930 . S
H2623 C2644 0.929 . S
H2624 C2618 0.930 . S
H2625 C2617 0.931 . S
H2626 C2640 0.930 . S
H2627 C2607 0.930 . S
H2628 C2613 0.929 . S
H2629 C2614 0.930 . S
H2630 C2635 0.930 . S
H2631 C2610 0.930 . S
H2632 C2643 0.931 . S
N2633 Tb2604 2.617 . S
N2633 C2634 1.379 . S
N2633 C2637 1.334 . S
C2634 N2633 1.379 . S
C2634 C2636 1.416 . S
C2634 C2642 1.424 . S
C2635 H2630 0.930 . S
C2635 C2637 1.390 . S
C2635 C2638 1.339 . S
C2636 C2634 1.416 . S
C2636 C2638 1.416 . S
C2636 C2669 1.448 . S
C2637 H2622 0.930 . S
C2637 N2633 1.334 . S
C2637 C2635 1.390 . S
C2638 C2635 1.339 . S
C2638 C2636 1.416 . S
C2638 H2645 0.930 . S
N2639 Tb2604 2.572 . S
N2639 C2640 1.340 . S
N2639 C2642 1.361 . S
C2640 H2626 0.930 . S
C2640 N2639 1.340 . S
C2640 C2644 1.407 . S
C2641 C2642 1.413 . S
C2641 C2643 1.416 . S
C2641 C2670 1.427 . S
C2642 C2634 1.424 . S
C2642 N2639 1.361 . S
C2642 C2641 1.413 . S
C2643 H2632 0.931 . S
C2643 C2641 1.416 . S
C2643 C2644 1.332 . S
C2644 H2623 0.929 . S
C2644 C2640 1.407 . S
C2644 C2643 1.332 . S
H2645 C2638 0.930 . S
H2646 C2669 0.930 . S
H2647 C2670 0.929 . S
O2648 Tb2604 2.465 . S
O2648 C2668 1.264 . S
O2649 Tb2604 2.387 . S
O2649 C2660 1.264 1_556 S
O2650 Tb2615 2.349 . S
O2650 C2660 1.243 . S
O2651 Tb2604 2.428 . S
O2651 C2668 1.256 . S
O2652 Tb2604 2.308 . S
O2652 C2667 1.266 . S
O2653 Tb2615 2.393 1_556 S
O2653 C2667 1.248 . S
O2654 Tb2615 2.465 . S
O2654 C2679 1.264 . S
O2655 Tb2615 2.387 1_556 S
O2655 C2671 1.264 . S
O2656 Tb2604 2.349 . S
O2656 C2671 1.243 . S
O2657 Tb2615 2.428 . S
O2657 C2679 1.256 . S
O2658 Tb2615 2.308 . S
O2658 C2678 1.266 . S
O2659 Tb2604 2.393 . S
O2659 C2678 1.248 1_556 S
C2660 O2649 1.264 1_554 S
C2660 O2650 1.243 . S
C2661 C2664 1.399 . S
C2661 C2666 1.383 . S
C2661 C2668 1.496 . S
C2662 C2663 1.399 . S
C2662 C2666 1.389 . S
C2663 C2662 1.399 . S
C2663 C2665 1.380 . S
C2663 H2680 0.929 . S
C2664 C2661 1.399 . S
C2664 C2665 1.392 . S
C2664 H2681 0.929 . S
C2665 C2663 1.380 . S
C2665 C2664 1.392 . S
C2665 H2682 0.929 . S
C2666 C2661 1.383 . S
C2666 C2662 1.389 . S
C2666 H2683 0.931 . S
C2667 O2652 1.266 . S
C2667 O2653 1.248 . S
C2668 Tb2604 2.802 . S
C2668 O2648 1.264 . S
C2668 O2651 1.256 . S
C2668 C2661 1.496 . S
C2669 C2636 1.448 . S
C2669 H2646 0.930 . S
C2669 C2670 1.328 . S
C2670 C2641 1.427 . S
C2670 H2647 0.929 . S
C2670 C2669 1.328 . S
C2671 O2655 1.264 . S
C2671 O2656 1.243 . S
C2672 C2675 1.399 . S
C2672 C2676 1.383 . S
C2672 C2679 1.496 . S
C2673 C2674 1.399 . S
C2673 C2676 1.389 . S
C2674 C2673 1.399 . S
C2674 C2677 1.380 . S
C2674 H2684 0.929 . S
C2675 C2672 1.399 . S
C2675 C2677 1.392 . S
C2675 H2685 0.929 . S
C2676 C2672 1.383 . S
C2676 C2673 1.389 . S
C2676 H2686 0.931 . S
C2677 C2674 1.380 . S
C2677 C2675 1.392 . S
C2677 H2687 0.929 . S
C2678 O2658 1.266 . S
C2678 O2659 1.248 1_554 S
C2679 Tb2615 2.802 . S
C2679 O2654 1.264 . S
C2679 O2657 1.256 . S
C2679 C2672 1.496 . S
H2680 C2663 0.929 . S
H2681 C2664 0.929 . S
H2682 C2665 0.929 . S
H2683 C2666 0.931 . S
H2684 C2674 0.929 . S
H2685 C2675 0.929 . S
H2686 C2676 0.931 . S
H2687 C2677 0.929 . S
C2688 C2689 1.387 . S
C2688 H2692 0.950 . S
C2688 C2697 1.390 1_556 S
C2689 C2688 1.387 . S
C2689 C2691 1.387 . S
H2690 C2697 0.950 . S
C2691 C2689 1.387 . S
C2691 C2693 1.390 1_556 S
C2691 H2695 0.950 . S
H2692 C2688 0.950 . S
C2693 C2691 1.390 1_554 S
C2693 C2694 1.387 . S
C2693 H2696 0.950 . S
C2694 C2693 1.387 . S
C2694 C2697 1.387 . S
H2695 C2691 0.950 . S
H2696 C2693 0.950 . S
C2697 C2688 1.390 1_554 S
C2697 H2690 0.950 . S
C2697 C2694 1.387 . S
C2698 C2699 1.387 1_565 S
C2698 H2702 0.950 . S
C2698 C2707 1.390 1_556 S
C2699 C2698 1.387 1_545 S
C2699 C2701 1.387 1_455 S
H2700 C2707 0.950 . S
C2701 C2699 1.387 1_655 S
C2701 C2703 1.390 1_556 S
C2701 H2705 0.950 . S
H2702 C2698 0.950 . S
C2703 C2701 1.390 1_554 S
C2703 C2704 1.387 1_545 S
C2703 H2706 0.950 . S
C2704 C2703 1.387 1_565 S
C2704 C2707 1.387 1_655 S
H2705 C2701 0.950 . S
H2706 C2703 0.950 . S
C2707 C2698 1.390 1_554 S
C2707 H2700 0.950 . S
C2707 C2704 1.387 1_455 S
C2708 C2709 1.387 . S
C2708 H2712 0.950 . S
C2708 C2717 1.390 . S
C2709 C2708 1.387 . S
C2709 C2711 1.387 1_545 S
H2710 C2717 0.950 . S
C2711 C2709 1.387 1_565 S
C2711 C2713 1.390 . S
C2711 H2715 0.950 . S
H2712 C2708 0.950 . S
C2713 C2711 1.390 . S
C2713 C2714 1.387 . S
C2713 H2716 0.950 . S
C2714 C2713 1.387 . S
C2714 C2717 1.387 1_565 S
H2715 C2711 0.950 . S
H2716 C2713 0.950 . S
C2717 C2708 1.390 . S
C2717 H2710 0.950 . S
C2717 C2714 1.387 1_545 S
C2718 C2719 1.387 1_655 S
C2718 H2722 0.950 . S
C2718 C2727 1.390 . S
C2719 C2718 1.387 1_455 S
C2719 C2721 1.387 . S
H2720 C2727 0.950 . S
C2721 C2719 1.387 . S
C2721 C2723 1.390 . S
C2721 H2725 0.950 . S
H2722 C2718 0.950 . S
C2723 C2721 1.390 . S
C2723 C2724 1.387 1_455 S
C2723 H2726 0.950 . S
C2724 C2723 1.387 1_655 S
C2724 C2727 1.387 . S
H2725 C2721 0.950 . S
H2726 C2723 0.950 . S
C2727 C2718 1.390 . S
C2727 H2720 0.950 . S
C2727 C2724 1.387 . S
C2728 C2729 1.387 . S
C2728 H2732 0.950 . S
C2728 C2737 1.390 1_556 S
C2729 C2728 1.387 . S
C2729 C2731 1.387 . S
H2730 C2737 0.950 . S
C2731 C2729 1.387 . S
C2731 C2733 1.390 1_556 S
C2731 H2735 0.950 . S
H2732 C2728 0.950 . S
C2733 C2731 1.390 1_554 S
C2733 C2734 1.387 . S
C2733 H2736 0.950 . S
C2734 C2733 1.387 . S
C2734 C2737 1.387 . S
H2735 C2731 0.950 . S
H2736 C2733 0.950 . S
C2737 C2728 1.390 1_554 S
C2737 H2730 0.950 . S
C2737 C2734 1.387 . S
C2738 C2739 1.387 1_545 S
C2738 H2742 0.950 . S
C2738 C2747 1.390 . S
C2739 C2738 1.387 1_565 S
C2739 C2741 1.387 . S
H2740 C2747 0.950 . S
C2741 C2739 1.387 . S
C2741 C2743 1.390 . S
C2741 H2745 0.950 . S
H2742 C2738 0.950 . S
C2743 C2741 1.390 . S
C2743 C2744 1.387 1_565 S
C2743 H2746 0.950 . S
C2744 C2743 1.387 1_545 S
C2744 C2747 1.387 . S
H2745 C2741 0.950 . S
H2746 C2743 0.950 . S
C2747 C2738 1.390 . S
C2747 H2740 0.950 . S
C2747 C2744 1.387 . S
C2748 C2749 1.387 . S
C2748 H2752 0.950 . S
C2748 C2757 1.390 . S
C2749 C2748 1.387 . S
C2749 C2751 1.387 1_655 S
H2750 C2757 0.950 . S
C2751 C2749 1.387 1_455 S
C2751 C2753 1.390 . S
C2751 H2755 0.950 . S
H2752 C2748 0.950 . S
C2753 C2751 1.390 . S
C2753 C2754 1.387 . S
C2753 H2756 0.950 . S
C2754 C2753 1.387 . S
C2754 C2757 1.387 1_455 S
H2755 C2751 0.950 . S
H2756 C2753 0.950 . S
C2757 C2748 1.390 . S
C2757 H2750 0.950 . S
C2757 C2754 1.387 1_655 S
C2758 C2759 1.387 . S
C2758 H2762 0.950 . S
C2758 C2767 1.390 . S
C2759 C2758 1.387 . S
C2759 C2761 1.387 . S
H2760 C2767 0.950 . S
C2761 C2759 1.387 . S
C2761 C2763 1.390 . S
C2761 H2765 0.950 . S
H2762 C2758 0.950 . S
C2763 C2761 1.390 . S
C2763 C2764 1.387 . S
C2763 H2766 0.950 . S
C2764 C2763 1.387 . S
C2764 C2767 1.387 . S
H2765 C2761 0.950 . S
H2766 C2763 0.950 . S
C2767 C2758 1.390 . S
C2767 H2760 0.950 . S
C2767 C2764 1.387 . S
C2768 C2769 1.395 . S
C2768 H2772 0.953 . S
C2768 C2777 1.382 1_655 S
C2769 C2768 1.395 . S
C2769 C2771 1.387 . S
H2770 C2777 0.950 . S
C2771 C2769 1.387 . S
C2771 C2773 1.382 1_655 S
C2771 H2775 0.950 . S
H2772 C2768 0.953 . S
C2773 C2771 1.382 1_455 S
C2773 C2774 1.395 . S
C2773 H2776 0.953 . S
C2774 C2773 1.395 . S
C2774 C2777 1.387 . S
H2775 C2771 0.950 . S
H2776 C2773 0.953 . S
C2777 C2768 1.382 1_455 S
C2777 H2770 0.950 . S
C2777 C2774 1.387 . S
C2778 C2779 1.387 . S
C2778 H2782 0.950 . S
C2778 C2787 1.390 . S
C2779 C2778 1.387 . S
C2779 C2781 1.387 . S
H2780 C2787 0.950 . S
C2781 C2779 1.387 . S
C2781 C2783 1.390 . S
C2781 H2785 0.950 . S
H2782 C2778 0.950 . S
C2783 C2781 1.390 . S
C2783 C2784 1.387 . S
C2783 H2786 0.950 . S
C2784 C2783 1.387 . S
C2784 C2787 1.387 . S
H2785 C2781 0.950 . S
H2786 C2783 0.950 . S
C2787 C2778 1.390 . S
C2787 H2780 0.950 . S
C2787 C2784 1.387 . S
C2788 C2789 1.387 . S
C2788 H2792 0.950 . S
C2788 C2797 1.390 . S
C2789 C2788 1.387 . S
C2789 C2791 1.387 . S
H2790 C2797 0.950 . S
C2791 C2789 1.387 . S
C2791 C2793 1.390 . S
C2791 H2795 0.950 . S
H2792 C2788 0.950 . S
C2793 C2791 1.390 . S
C2793 C2794 1.387 . S
C2793 H2796 0.950 . S
C2794 C2793 1.387 . S
C2794 C2797 1.387 . S
H2795 C2791 0.950 . S
H2796 C2793 0.950 . S
C2797 C2788 1.390 . S
C2797 H2790 0.950 . S
C2797 C2794 1.387 . S
C2798 C2799 1.387 . S
C2798 H2802 0.950 . S
C2798 C2807 1.390 . S
C2799 C2798 1.387 . S
C2799 C2801 1.387 . S
H2800 C2807 0.950 . S
C2801 C2799 1.387 . S
C2801 C2803 1.390 . S
C2801 H2805 0.950 . S
H2802 C2798 0.950 . S
C2803 C2801 1.390 . S
C2803 C2804 1.387 . S
C2803 H2806 0.950 . S
C2804 C2803 1.387 . S
C2804 C2807 1.387 . S
H2805 C2801 0.950 . S
H2806 C2803 0.950 . S
C2807 C2798 1.390 . S
C2807 H2800 0.950 . S
C2807 C2804 1.387 . S
C2808 C2809 1.387 1_545 S
C2808 H2812 0.950 . S
C2808 C2817 1.390 . S
C2809 C2808 1.387 1_565 S
C2809 C2811 1.387 . S
H2810 C2817 0.950 . S
C2811 C2809 1.387 . S
C2811 C2813 1.390 . S
C2811 H2815 0.950 . S
H2812 C2808 0.950 . S
C2813 C2811 1.390 . S
C2813 C2814 1.387 1_565 S
C2813 H2816 0.950 . S
C2814 C2813 1.387 1_545 S
C2814 C2817 1.387 . S
H2815 C2811 0.950 . S
H2816 C2813 0.950 . S
C2817 C2808 1.390 . S
C2817 H2810 0.950 . S
C2817 C2814 1.387 . S
C2818 C2819 1.387 . S
C2818 H2822 0.950 . S
C2818 C2827 1.390 . S
C2819 C2818 1.387 . S
C2819 C2821 1.387 . S
H2820 C2827 0.950 . S
C2821 C2819 1.387 . S
C2821 C2823 1.390 . S
C2821 H2825 0.950 . S
H2822 C2818 0.950 . S
C2823 C2821 1.390 . S
C2823 C2824 1.387 . S
C2823 H2826 0.950 . S
C2824 C2823 1.387 . S
C2824 C2827 1.387 . S
H2825 C2821 0.950 . S
H2826 C2823 0.950 . S
C2827 C2818 1.390 . S
C2827 H2820 0.950 . S
C2827 C2824 1.387 . S
C2828 C2829 1.387 . S
C2828 H2832 0.950 . S
C2828 C2837 1.390 . S
C2829 C2828 1.387 . S
C2829 C2831 1.387 . S
H2830 C2837 0.950 . S
C2831 C2829 1.387 . S
C2831 C2833 1.390 . S
C2831 H2835 0.950 . S
H2832 C2828 0.950 . S
C2833 C2831 1.390 . S
C2833 C2834 1.387 . S
C2833 H2836 0.950 . S
C2834 C2833 1.387 . S
C2834 C2837 1.387 . S
H2835 C2831 0.950 . S
H2836 C2833 0.950 . S
C2837 C2828 1.390 . S
C2837 H2830 0.950 . S
C2837 C2834 1.387 . S
C2838 C2839 1.387 . S
C2838 H2842 0.950 . S
C2838 C2847 1.390 1_556 S
C2839 C2838 1.387 . S
C2839 C2841 1.387 . S
H2840 C2847 0.950 . S
C2841 C2839 1.387 . S
C2841 C2843 1.390 1_556 S
C2841 H2845 0.950 . S
H2842 C2838 0.950 . S
C2843 C2841 1.390 1_554 S
C2843 C2844 1.387 . S
C2843 H2846 0.950 . S
C2844 C2843 1.387 . S
C2844 C2847 1.387 . S
H2845 C2841 0.950 . S
H2846 C2843 0.950 . S
C2847 C2838 1.390 1_554 S
C2847 H2840 0.950 . S
C2847 C2844 1.387 . S
C2848 C2849 1.387 . S
C2848 H2852 0.950 . S
C2848 C2857 1.390 . S
C2849 C2848 1.387 . S
C2849 C2851 1.387 . S
H2850 C2857 0.950 . S
C2851 C2849 1.387 . S
C2851 C2853 1.390 . S
C2851 H2855 0.950 . S
H2852 C2848 0.950 . S
C2853 C2851 1.390 . S
C2853 C2854 1.387 . S
C2853 H2856 0.950 . S
C2854 C2853 1.387 . S
C2854 C2857 1.387 . S
H2855 C2851 0.950 . S
H2856 C2853 0.950 . S
C2857 C2848 1.390 . S
C2857 H2850 0.950 . S
C2857 C2854 1.387 . S
C2858 C2859 1.387 1_565 S
C2858 H2862 0.950 . S
C2858 C2867 1.390 . S
C2859 C2858 1.387 1_545 S
C2859 C2861 1.387 . S
H2860 C2867 0.950 . S
C2861 C2859 1.387 . S
C2861 C2863 1.390 . S
C2861 H2865 0.950 . S
H2862 C2858 0.950 . S
C2863 C2861 1.390 . S
C2863 C2864 1.387 . S
C2863 H2866 0.950 . S
C2864 C2863 1.387 . S
C2864 C2867 1.387 1_545 S
H2865 C2861 0.950 . S
H2866 C2863 0.950 . S
C2867 C2858 1.390 . S
C2867 H2860 0.950 . S
C2867 C2864 1.387 1_565 S
C2868 C2869 1.387 . S
C2868 H2872 0.950 . S
C2868 C2877 1.390 . S
C2869 C2868 1.387 . S
C2869 C2871 1.387 1_545 S
H2870 C2877 0.950 . S
C2871 C2869 1.387 1_565 S
C2871 C2873 1.390 . S
C2871 H2875 0.950 . S
H2872 C2868 0.950 . S
C2873 C2871 1.390 . S
C2873 C2874 1.387 1_565 S
C2873 H2876 0.950 . S
C2874 C2873 1.387 1_545 S
C2874 C2877 1.387 . S
H2875 C2871 0.950 . S
H2876 C2873 0.950 . S
C2877 C2868 1.390 . S
C2877 H2870 0.950 . S
C2877 C2874 1.387 . S
C2878 C2879 1.387 . S
C2878 H2882 0.950 . S
C2878 C2887 1.390 . S
C2879 C2878 1.387 . S
C2879 C2881 1.387 . S
H2880 C2887 0.950 . S
C2881 C2879 1.387 . S
C2881 C2883 1.390 . S
C2881 H2885 0.950 . S
H2882 C2878 0.950 . S
C2883 C2881 1.390 . S
C2883 C2884 1.387 . S
C2883 H2886 0.950 . S
C2884 C2883 1.387 . S
C2884 C2887 1.387 . S
H2885 C2881 0.950 . S
H2886 C2883 0.950 . S
C2887 C2878 1.390 . S
C2887 H2880 0.950 . S
C2887 C2884 1.387 . S
C2888 C2889 1.387 . S
C2888 H2892 0.950 . S
C2888 C2897 1.390 . S
C2889 C2888 1.387 . S
C2889 C2891 1.387 . S
H2890 C2897 0.950 . S
C2891 C2889 1.387 . S
C2891 C2893 1.390 . S
C2891 H2895 0.950 . S
H2892 C2888 0.950 . S
C2893 C2891 1.390 . S
C2893 C2894 1.387 . S
C2893 H2896 0.950 . S
C2894 C2893 1.387 . S
C2894 C2897 1.387 . S
H2895 C2891 0.950 . S
H2896 C2893 0.950 . S
C2897 C2888 1.390 . S
C2897 H2890 0.950 . S
C2897 C2894 1.387 . S
C2898 C2899 1.387 . S
C2898 H2902 0.950 . S
C2898 C2907 1.390 . S
C2899 C2898 1.387 . S
C2899 C2901 1.387 1_565 S
H2900 C2907 0.950 . S
C2901 C2899 1.387 1_545 S
C2901 C2903 1.390 . S
C2901 H2905 0.950 . S
H2902 C2898 0.950 . S
C2903 C2901 1.390 . S
C2903 C2904 1.387 1_545 S
C2903 H2906 0.950 . S
C2904 C2903 1.387 1_565 S
C2904 C2907 1.387 . S
H2905 C2901 0.950 . S
H2906 C2903 0.950 . S
C2907 C2898 1.390 . S
C2907 H2900 0.950 . S
C2907 C2904 1.387 . S
C2908 C2909 1.387 . S
C2908 H2912 0.950 . S
C2908 C2917 1.390 . S
C2909 C2908 1.387 . S
C2909 C2911 1.387 1_565 S
H2910 C2917 0.950 . S
C2911 C2909 1.387 1_545 S
C2911 C2913 1.390 . S
C2911 H2915 0.950 . S
H2912 C2908 0.950 . S
C2913 C2911 1.390 . S
C2913 C2914 1.387 1_545 S
C2913 H2916 0.950 . S
C2914 C2913 1.387 1_565 S
C2914 C2917 1.387 . S
H2915 C2911 0.950 . S
H2916 C2913 0.950 . S
C2917 C2908 1.390 . S
C2917 H2910 0.950 . S
C2917 C2914 1.387 . S
C2918 C2919 1.387 . S
C2918 H2922 0.950 . S
C2918 C2927 1.390 . S
C2919 C2918 1.387 . S
C2919 C2921 1.387 . S
H2920 C2927 0.950 . S
C2921 C2919 1.387 . S
C2921 C2923 1.390 . S
C2921 H2925 0.950 . S
H2922 C2918 0.950 . S
C2923 C2921 1.390 . S
C2923 C2924 1.387 . S
C2923 H2926 0.950 . S
C2924 C2923 1.387 . S
C2924 C2927 1.387 . S
H2925 C2921 0.950 . S
H2926 C2923 0.950 . S
C2927 C2918 1.390 . S
C2927 H2920 0.950 . S
C2927 C2924 1.387 . S
C2928 C2929 1.387 . S
C2928 H2932 0.950 . S
C2928 C2937 1.390 . S
C2929 C2928 1.387 . S
C2929 C2931 1.387 . S
H2930 C2937 0.950 . S
C2931 C2929 1.387 . S
C2931 C2933 1.390 . S
C2931 H2935 0.950 . S
H2932 C2928 0.950 . S
C2933 C2931 1.390 . S
C2933 C2934 1.387 . S
C2933 H2936 0.950 . S
C2934 C2933 1.387 . S
C2934 C2937 1.387 . S
H2935 C2931 0.950 . S
H2936 C2933 0.950 . S
C2937 C2928 1.390 . S
C2937 H2930 0.950 . S
C2937 C2934 1.387 . S
C2938 C2939 1.387 . S
C2938 H2942 0.950 . S
C2938 C2947 1.390 . S
C2939 C2938 1.387 . S
C2939 C2941 1.387 . S
H2940 C2947 0.950 . S
C2941 C2939 1.387 . S
C2941 C2943 1.390 . S
C2941 H2945 0.950 . S
H2942 C2938 0.950 . S
C2943 C2941 1.390 . S
C2943 C2944 1.387 . S
C2943 H2946 0.950 . S
C2944 C2943 1.387 . S
C2944 C2947 1.387 . S
H2945 C2941 0.950 . S
H2946 C2943 0.950 . S
C2947 C2938 1.390 . S
C2947 H2940 0.950 . S
C2947 C2944 1.387 . S
C2948 C2949 1.387 . S
C2948 H2952 0.950 . S
C2948 C2957 1.390 . S
C2949 C2948 1.387 . S
C2949 C2951 1.387 . S
H2950 C2957 0.950 . S
C2951 C2949 1.387 . S
C2951 C2953 1.390 . S
C2951 H2955 0.950 . S
H2952 C2948 0.950 . S
C2953 C2951 1.390 . S
C2953 C2954 1.387 . S
C2953 H2956 0.950 . S
C2954 C2953 1.387 . S
C2954 C2957 1.387 . S
H2955 C2951 0.950 . S
H2956 C2953 0.950 . S
C2957 C2948 1.390 . S
C2957 H2950 0.950 . S
C2957 C2954 1.387 . S
C2958 C2959 1.387 . S
C2958 H2962 0.950 . S
C2958 C2967 1.390 . S
C2959 C2958 1.387 . S
C2959 C2961 1.387 . S
H2960 C2967 0.950 . S
C2961 C2959 1.387 . S
C2961 C2963 1.390 . S
C2961 H2965 0.950 . S
H2962 C2958 0.950 . S
C2963 C2961 1.390 . S
C2963 C2964 1.387 . S
C2963 H2966 0.950 . S
C2964 C2963 1.387 . S
C2964 C2967 1.387 . S
H2965 C2961 0.950 . S
H2966 C2963 0.950 . S
C2967 C2958 1.390 . S
C2967 H2960 0.950 . S
C2967 C2964 1.387 . S
C2968 C2969 1.387 . S
C2968 H2972 0.950 . S
C2968 C2977 1.390 . S
C2969 C2968 1.387 . S
C2969 C2971 1.387 . S
H2970 C2977 0.950 . S
C2971 C2969 1.387 . S
C2971 C2973 1.390 . S
C2971 H2975 0.950 . S
H2972 C2968 0.950 . S
C2973 C2971 1.390 . S
C2973 C2974 1.387 . S
C2973 H2976 0.950 . S
C2974 C2973 1.387 . S
C2974 C2977 1.387 . S
H2975 C2971 0.950 . S
H2976 C2973 0.950 . S
C2977 C2968 1.390 . S
C2977 H2970 0.950 . S
C2977 C2974 1.387 . S
C2978 C2979 1.387 . S
C2978 H2982 0.950 . S
C2978 C2987 1.390 . S
C2979 C2978 1.387 . S
C2979 C2981 1.387 . S
H2980 C2987 0.950 . S
C2981 C2979 1.387 . S
C2981 C2983 1.390 . S
C2981 H2985 0.950 . S
H2982 C2978 0.950 . S
C2983 C2981 1.390 . S
C2983 C2984 1.387 . S
C2983 H2986 0.950 . S
C2984 C2983 1.387 . S
C2984 C2987 1.387 . S
H2985 C2981 0.950 . S
H2986 C2983 0.950 . S
C2987 C2978 1.390 . S
C2987 H2980 0.950 . S
C2987 C2984 1.387 . S
C2988 C2989 1.387 . S
C2988 H2992 0.950 . S
C2988 C2997 1.390 . S
C2989 C2988 1.387 . S
C2989 C2991 1.387 . S
H2990 C2997 0.950 . S
C2991 C2989 1.387 . S
C2991 C2993 1.390 . S
C2991 H2995 0.950 . S
H2992 C2988 0.950 . S
C2993 C2991 1.390 . S
C2993 C2994 1.387 . S
C2993 H2996 0.950 . S
C2994 C2993 1.387 . S
C2994 C2997 1.387 . S
H2995 C2991 0.950 . S
H2996 C2993 0.950 . S
C2997 C2988 1.390 . S
C2997 H2990 0.950 . S
C2997 C2994 1.387 . S
C2998 C2999 1.387 . S
C2998 H3002 0.950 . S
C2998 C3007 1.390 . S
C2999 C2998 1.387 . S
C2999 C3001 1.387 . S
H3000 C3007 0.950 . S
C3001 C2999 1.387 . S
C3001 C3003 1.390 . S
C3001 H3005 0.950 . S
H3002 C2998 0.950 . S
C3003 C3001 1.390 . S
C3003 C3004 1.387 . S
C3003 H3006 0.950 . S
C3004 C3003 1.387 . S
C3004 C3007 1.387 . S
H3005 C3001 0.950 . S
H3006 C3003 0.950 . S
C3007 C2998 1.390 . S
C3007 H3000 0.950 . S
C3007 C3004 1.387 . S
C3008 C3009 1.387 . S
C3008 H3012 0.950 . S
C3008 C3017 1.390 . S
C3009 C3008 1.387 . S
C3009 C3011 1.387 . S
H3010 C3017 0.950 . S
C3011 C3009 1.387 . S
C3011 C3013 1.390 . S
C3011 H3015 0.950 . S
H3012 C3008 0.950 . S
C3013 C3011 1.390 . S
C3013 C3014 1.387 . S
C3013 H3016 0.950 . S
C3014 C3013 1.387 . S
C3014 C3017 1.387 . S
H3015 C3011 0.950 . S
H3016 C3013 0.950 . S
C3017 C3008 1.390 . S
C3017 H3010 0.950 . S
C3017 C3014 1.387 . S
C3018 C3019 1.387 . S
C3018 H3022 0.950 . S
C3018 C3027 1.390 . S
C3019 C3018 1.387 . S
C3019 C3021 1.387 1_565 S
H3020 C3027 0.950 . S
C3021 C3019 1.387 1_545 S
C3021 C3023 1.390 . S
C3021 H3025 0.950 . S
H3022 C3018 0.950 . S
C3023 C3021 1.390 . S
C3023 C3024 1.387 . S
C3023 H3026 0.950 . S
C3024 C3023 1.387 . S
C3024 C3027 1.387 1_545 S
H3025 C3021 0.950 . S
H3026 C3023 0.950 . S
C3027 C3018 1.390 . S
C3027 H3020 0.950 . S
C3027 C3024 1.387 1_565 S
C3028 C3029 1.387 1_565 S
C3028 H3032 0.950 . S
C3028 C3037 1.390 . S
C3029 C3028 1.387 1_545 S
C3029 C3031 1.387 . S
H3030 C3037 0.950 . S
C3031 C3029 1.387 . S
C3031 C3033 1.390 . S
C3031 H3035 0.950 . S
H3032 C3028 0.950 . S
C3033 C3031 1.390 . S
C3033 C3034 1.387 1_545 S
C3033 H3036 0.950 . S
C3034 C3033 1.387 1_565 S
C3034 C3037 1.387 . S
H3035 C3031 0.950 . S
H3036 C3033 0.950 . S
C3037 C3028 1.390 . S
C3037 H3030 0.950 . S
C3037 C3034 1.387 . S
C3038 C3039 1.387 . S
C3038 H3042 0.950 . S
C3038 C3047 1.390 . S
C3039 C3038 1.387 . S
C3039 C3041 1.387 . S
H3040 C3047 0.950 . S
C3041 C3039 1.387 . S
C3041 C3043 1.390 . S
C3041 H3045 0.950 . S
H3042 C3038 0.950 . S
C3043 C3041 1.390 . S
C3043 C3044 1.387 . S
C3043 H3046 0.950 . S
C3044 C3043 1.387 . S
C3044 C3047 1.387 . S
H3045 C3041 0.950 . S
H3046 C3043 0.950 . S
C3047 C3038 1.390 . S
C3047 H3040 0.950 . S
C3047 C3044 1.387 . S
C3048 C3049 1.387 . S
C3048 H3052 0.950 . S
C3048 C3057 1.390 . S
C3049 C3048 1.387 . S
C3049 C3051 1.387 . S
H3050 C3057 0.950 . S
C3051 C3049 1.387 . S
C3051 C3053 1.390 . S
C3051 H3055 0.950 . S
H3052 C3048 0.950 . S
C3053 C3051 1.390 . S
C3053 C3054 1.387 . S
C3053 H3056 0.950 . S
C3054 C3053 1.387 . S
C3054 C3057 1.387 . S
H3055 C3051 0.950 . S
H3056 C3053 0.950 . S
C3057 C3048 1.390 . S
C3057 H3050 0.950 . S
C3057 C3054 1.387 . S
C3058 C3059 1.387 1_545 S
C3058 H3062 0.950 . S
C3058 C3067 1.390 . S
C3059 C3058 1.387 1_565 S
C3059 C3061 1.387 . S
H3060 C3067 0.950 . S
C3061 C3059 1.387 . S
C3061 C3063 1.390 . S
C3061 H3065 0.950 . S
H3062 C3058 0.950 . S
C3063 C3061 1.390 . S
C3063 C3064 1.387 1_565 S
C3063 H3066 0.950 . S
C3064 C3063 1.387 1_545 S
C3064 C3067 1.387 . S
H3065 C3061 0.950 . S
H3066 C3063 0.950 . S
C3067 C3058 1.390 . S
C3067 H3060 0.950 . S
C3067 C3064 1.387 . S
C3068 C3069 1.387 1_545 S
C3068 H3072 0.950 . S
C3068 C3077 1.390 . S
C3069 C3068 1.387 1_565 S
C3069 C3071 1.387 . S
H3070 C3077 0.950 . S
C3071 C3069 1.387 . S
C3071 C3073 1.390 . S
C3071 H3075 0.950 . S
H3072 C3068 0.950 . S
C3073 C3071 1.390 . S
C3073 C3074 1.387 1_565 S
C3073 H3076 0.950 . S
C3074 C3073 1.387 1_545 S
C3074 C3077 1.387 . S
H3075 C3071 0.950 . S
H3076 C3073 0.950 . S
C3077 C3068 1.390 . S
C3077 H3070 0.950 . S
C3077 C3074 1.387 . S
C3078 C3079 1.387 . S
C3078 H3082 0.950 . S
C3078 C3087 1.390 . S
C3079 C3078 1.387 . S
C3079 C3081 1.387 . S
H3080 C3087 0.950 . S
C3081 C3079 1.387 . S
C3081 C3083 1.390 . S
C3081 H3085 0.950 . S
H3082 C3078 0.950 . S
C3083 C3081 1.390 . S
C3083 C3084 1.387 . S
C3083 H3086 0.950 . S
C3084 C3083 1.387 . S
C3084 C3087 1.387 . S
H3085 C3081 0.950 . S
H3086 C3083 0.950 . S
C3087 C3078 1.390 . S
C3087 H3080 0.950 . S
C3087 C3084 1.387 . S
C3088 C3089 1.387 . S
C3088 H3092 0.950 . S
C3088 C3097 1.390 . S
C3089 C3088 1.387 . S
C3089 C3091 1.387 . S
H3090 C3097 0.950 . S
C3091 C3089 1.387 . S
C3091 C3093 1.390 . S
C3091 H3095 0.950 . S
H3092 C3088 0.950 . S
C3093 C3091 1.390 . S
C3093 C3094 1.387 . S
C3093 H3096 0.950 . S
C3094 C3093 1.387 . S
C3094 C3097 1.387 . S
H3095 C3091 0.950 . S
H3096 C3093 0.950 . S
C3097 C3088 1.390 . S
C3097 H3090 0.950 . S
C3097 C3094 1.387 . S
C3098 C3099 1.387 . S
C3098 H3102 0.950 . S
C3098 C3107 1.390 . S
C3099 C3098 1.387 . S
C3099 C3101 1.387 . S
H3100 C3107 0.950 . S
C3101 C3099 1.387 . S
C3101 C3103 1.390 . S
C3101 H3105 0.950 . S
H3102 C3098 0.950 . S
C3103 C3101 1.390 . S
C3103 C3104 1.387 . S
C3103 H3106 0.950 . S
C3104 C3103 1.387 . S
C3104 C3107 1.387 . S
H3105 C3101 0.950 . S
H3106 C3103 0.950 . S
C3107 C3098 1.390 . S
C3107 H3100 0.950 . S
C3107 C3104 1.387 . S
C3108 C3109 1.387 1_554 S
C3108 H3112 0.950 1_554 S
C3108 C3117 1.390 . S
C3109 C3108 1.387 1_556 S
C3109 C3111 1.387 . S
H3110 C3117 0.950 . S
C3111 C3109 1.387 . S
C3111 C3113 1.390 1_556 S
C3111 H3115 0.950 . S
H3112 C3108 0.950 1_556 S
C3113 C3111 1.390 1_554 S
C3113 C3114 1.387 . S
C3113 H3116 0.950 . S
C3114 C3113 1.387 . S
C3114 C3117 1.387 . S
H3115 C3111 0.950 . S
H3116 C3113 0.950 . S
C3117 C3108 1.390 . S
C3117 H3110 0.950 . S
C3117 C3114 1.387 . S
C3118 C3119 1.387 1_554 S
C3118 H3122 0.950 1_554 S
C3118 C3127 1.390 . S
C3119 C3118 1.387 1_556 S
C3119 C3121 1.387 . S
H3120 C3127 0.950 . S
C3121 C3119 1.387 . S
C3121 C3123 1.390 1_556 S
C3121 H3125 0.950 . S
H3122 C3118 0.950 1_556 S
C3123 C3121 1.390 1_554 S
C3123 C3124 1.387 . S
C3123 H3126 0.950 . S
C3124 C3123 1.387 . S
C3124 C3127 1.387 . S
H3125 C3121 0.950 . S
H3126 C3123 0.950 . S
C3127 C3118 1.390 . S
C3127 H3120 0.950 . S
C3127 C3124 1.387 . S
C3128 C3129 1.387 . S
C3128 H3132 0.950 . S
C3128 C3137 1.390 . S
C3129 C3128 1.387 . S
C3129 C3131 1.387 . S
H3130 C3137 0.950 . S
C3131 C3129 1.387 . S
C3131 C3133 1.390 . S
C3131 H3135 0.950 . S
H3132 C3128 0.950 . S
C3133 C3131 1.390 . S
C3133 C3134 1.387 . S
C3133 H3136 0.950 . S
C3134 C3133 1.387 . S
C3134 C3137 1.387 . S
H3135 C3131 0.950 . S
H3136 C3133 0.950 . S
C3137 C3128 1.390 . S
C3137 H3130 0.950 . S
C3137 C3134 1.387 . S
C3138 C3139 1.387 . S
C3138 H3142 0.950 . S
C3138 C3147 1.390 . S
C3139 C3138 1.387 . S
C3139 C3141 1.387 . S
H3140 C3147 0.950 . S
C3141 C3139 1.387 . S
C3141 C3143 1.390 . S
C3141 H3145 0.950 . S
H3142 C3138 0.950 . S
C3143 C3141 1.390 . S
C3143 C3144 1.387 . S
C3143 H3146 0.950 . S
C3144 C3143 1.387 . S
C3144 C3147 1.387 . S
H3145 C3141 0.950 . S
H3146 C3143 0.950 . S
C3147 C3138 1.390 . S
C3147 H3140 0.950 . S
C3147 C3144 1.387 . S
C3148 C3149 1.387 . S
C3148 H3152 0.950 . S
C3148 C3157 1.390 1_554 S
C3149 C3148 1.387 . S
C3149 C3151 1.387 1_554 S
H3150 C3157 0.950 . S
C3151 C3149 1.387 1_556 S
C3151 C3153 1.390 . S
C3151 H3155 0.950 1_556 S
H3152 C3148 0.950 . S
C3153 C3151 1.390 . S
C3153 C3154 1.387 . S
C3153 H3156 0.950 . S
C3154 C3153 1.387 . S
C3154 C3157 1.387 . S
H3155 C3151 0.950 1_554 S
H3156 C3153 0.950 . S
C3157 C3148 1.390 1_556 S
C3157 H3150 0.950 . S
C3157 C3154 1.387 . S
C3158 C3159 1.387 . S
C3158 H3162 0.950 . S
C3158 C3167 1.390 . S
C3159 C3158 1.387 . S
C3159 C3161 1.387 . S
H3160 C3167 0.950 1_554 S
C3161 C3159 1.387 . S
C3161 C3163 1.390 1_556 S
C3161 H3165 0.950 . S
H3162 C3158 0.950 . S
C3163 C3161 1.390 1_554 S
C3163 C3164 1.387 . S
C3163 H3166 0.950 . S
C3164 C3163 1.387 . S
C3164 C3167 1.387 1_554 S
H3165 C3161 0.950 . S
H3166 C3163 0.950 . S
C3167 C3158 1.390 . S
C3167 H3160 0.950 1_556 S
C3167 C3164 1.387 1_556 S
C3168 C3169 1.387 . S
C3168 H3172 0.950 . S
C3168 C3177 1.390 . S
C3169 C3168 1.387 . S
C3169 C3171 1.387 . S
H3170 C3177 0.950 . S
C3171 C3169 1.387 . S
C3171 C3173 1.390 . S
C3171 H3175 0.950 . S
H3172 C3168 0.950 . S
C3173 C3171 1.390 . S
C3173 C3174 1.387 . S
C3173 H3176 0.950 . S
C3174 C3173 1.387 . S
C3174 C3177 1.387 . S
H3175 C3171 0.950 . S
H3176 C3173 0.950 . S
C3177 C3168 1.390 . S
C3177 H3170 0.950 . S
C3177 C3174 1.387 . S
C3178 C3179 1.387 1_565 S
C3178 H3182 0.950 . S
C3178 C3187 1.390 . S
C3179 C3178 1.387 1_545 S
C3179 C3181 1.387 . S
H3180 C3187 0.950 . S
C3181 C3179 1.387 . S
C3181 C3183 1.390 . S
C3181 H3185 0.950 . S
H3182 C3178 0.950 . S
C3183 C3181 1.390 . S
C3183 C3184 1.387 1_545 S
C3183 H3186 0.950 . S
C3184 C3183 1.387 1_565 S
C3184 C3187 1.387 . S
H3185 C3181 0.950 . S
H3186 C3183 0.950 . S
C3187 C3178 1.390 . S
C3187 H3180 0.950 . S
C3187 C3184 1.387 . S
C3188 C3189 1.387 1_554 S
C3188 H3192 0.950 1_554 S
C3188 C3197 1.390 . S
C3189 C3188 1.387 1_556 S
C3189 C3191 1.387 1_545 S
H3190 C3197 0.950 . S
C3191 C3189 1.387 1_565 S
C3191 C3193 1.390 1_556 S
C3191 H3195 0.950 . S
H3192 C3188 0.950 1_556 S
C3193 C3191 1.390 1_554 S
C3193 C3194 1.387 . S
C3193 H3196 0.950 . S
C3194 C3193 1.387 . S
C3194 C3197 1.387 1_565 S
H3195 C3191 0.950 . S
H3196 C3193 0.950 . S
C3197 C3188 1.390 . S
C3197 H3190 0.950 . S
C3197 C3194 1.387 1_545 S
C3198 C3199 1.387 . S
C3198 H3202 0.950 . S
C3198 C3207 1.390 1_556 S
C3199 C3198 1.387 . S
C3199 C3201 1.387 1_556 S
H3200 C3207 0.950 . S
C3201 C3199 1.387 1_554 S
C3201 C3203 1.390 . S
C3201 H3205 0.950 1_554 S
H3202 C3198 0.950 . S
C3203 C3201 1.390 . S
C3203 C3204 1.387 . S
C3203 H3206 0.950 . S
C3204 C3203 1.387 . S
C3204 C3207 1.387 . S
H3205 C3201 0.950 1_556 S
H3206 C3203 0.950 . S
C3207 C3198 1.390 1_554 S
C3207 H3200 0.950 . S
C3207 C3204 1.387 . S
C3208 C3209 1.387 . S
C3208 H3212 0.950 . S
C3208 C3217 1.390 . S
C3209 C3208 1.387 . S
C3209 C3211 1.387 . S
H3210 C3217 0.950 . S
C3211 C3209 1.387 . S
C3211 C3213 1.390 . S
C3211 H3215 0.950 . S
H3212 C3208 0.950 . S
C3213 C3211 1.390 . S
C3213 C3214 1.387 . S
C3213 H3216 0.950 . S
C3214 C3213 1.387 . S
C3214 C3217 1.387 . S
H3215 C3211 0.950 . S
H3216 C3213 0.950 . S
C3217 C3208 1.390 . S
C3217 H3210 0.950 . S
C3217 C3214 1.387 . S
C3218 C3219 1.387 . S
C3218 H3222 0.950 . S
C3218 C3227 1.390 . S
C3219 C3218 1.387 . S
C3219 C3221 1.387 1_565 S
H3220 C3227 0.950 . S
C3221 C3219 1.387 1_545 S
C3221 C3223 1.390 . S
C3221 H3225 0.950 . S
H3222 C3218 0.950 . S
C3223 C3221 1.390 . S
C3223 C3224 1.387 . S
C3223 H3226 0.950 . S
C3224 C3223 1.387 . S
C3224 C3227 1.387 1_545 S
H3225 C3221 0.950 . S
H3226 C3223 0.950 . S
C3227 C3218 1.390 . S
C3227 H3220 0.950 . S
C3227 C3224 1.387 1_565 S
C3228 C3229 1.387 . S
C3228 H3232 0.950 . S
C3228 C3237 1.390 1_556 S
C3229 C3228 1.387 . S
C3229 C3231 1.387 1_545 S
H3230 C3237 0.950 . S
C3231 C3229 1.387 1_565 S
C3231 C3233 1.390 . S
C3231 H3235 0.950 . S
H3232 C3228 0.950 . S
C3233 C3231 1.390 . S
C3233 C3234 1.387 1_556 S
C3233 H3236 0.950 1_556 S
C3234 C3233 1.387 1_554 S
C3234 C3237 1.387 1_565 S
H3235 C3231 0.950 . S
H3236 C3233 0.950 1_554 S
C3237 C3228 1.390 1_554 S
C3237 H3230 0.950 . S
C3237 C3234 1.387 1_545 S
C3238 C3239 1.387 . S
C3238 H3242 0.950 . S
C3238 C3247 1.390 . S
C3239 C3238 1.387 . S
C3239 C3241 1.387 . S
H3240 C3247 0.950 1_554 S
C3241 C3239 1.387 . S
C3241 C3243 1.390 1_556 S
C3241 H3245 0.950 . S
H3242 C3238 0.950 . S
C3243 C3241 1.390 1_554 S
C3243 C3244 1.387 . S
C3243 H3246 0.950 . S
C3244 C3243 1.387 . S
C3244 C3247 1.387 1_554 S
H3245 C3241 0.950 . S
H3246 C3243 0.950 . S
C3247 C3238 1.390 . S
C3247 H3240 0.950 1_556 S
C3247 C3244 1.387 1_556 S
C3248 C3249 1.387 . S
C3248 H3252 0.950 . S
C3248 C3257 1.390 . S
C3249 C3248 1.387 . S
C3249 C3251 1.387 . S
H3250 C3257 0.950 . S
C3251 C3249 1.387 . S
C3251 C3253 1.390 . S
C3251 H3255 0.950 . S
H3252 C3248 0.950 . S
C3253 C3251 1.390 . S
C3253 C3254 1.387 . S
C3253 H3256 0.950 . S
C3254 C3253 1.387 . S
C3254 C3257 1.387 . S
H3255 C3251 0.950 . S
H3256 C3253 0.950 . S
C3257 C3248 1.390 . S
C3257 H3250 0.950 . S
C3257 C3254 1.387 . S
C3258 C3259 1.387 . S
C3258 H3262 0.950 . S
C3258 C3267 1.390 . S
C3259 C3258 1.387 . S
C3259 C3261 1.387 . S
H3260 C3267 0.950 . S
C3261 C3259 1.387 . S
C3261 C3263 1.390 . S
C3261 H3265 0.950 . S
H3262 C3258 0.950 . S
C3263 C3261 1.390 . S
C3263 C3264 1.387 . S
C3263 H3266 0.950 . S
C3264 C3263 1.387 . S
C3264 C3267 1.387 . S
H3265 C3261 0.950 . S
H3266 C3263 0.950 . S
C3267 C3258 1.390 . S
C3267 H3260 0.950 . S
C3267 C3264 1.387 . S
C3268 C3269 1.387 . S
C3268 H3272 0.950 . S
C3268 C3277 1.390 . S
C3269 C3268 1.387 . S
C3269 C3271 1.387 . S
H3270 C3277 0.950 . S
C3271 C3269 1.387 . S
C3271 C3273 1.390 . S
C3271 H3275 0.950 . S
H3272 C3268 0.950 . S
C3273 C3271 1.390 . S
C3273 C3274 1.387 . S
C3273 H3276 0.950 . S
C3274 C3273 1.387 . S
C3274 C3277 1.387 . S
H3275 C3271 0.950 . S
H3276 C3273 0.950 . S
C3277 C3268 1.390 . S
C3277 H3270 0.950 . S
C3277 C3274 1.387 . S
C3278 C3279 1.387 . S
C3278 H3282 0.950 . S
C3278 C3287 1.390 . S
C3279 C3278 1.387 . S
C3279 C3281 1.387 . S
H3280 C3287 0.950 . S
C3281 C3279 1.387 . S
C3281 C3283 1.390 . S
C3281 H3285 0.950 . S
H3282 C3278 0.950 . S
C3283 C3281 1.390 . S
C3283 C3284 1.387 . S
C3283 H3286 0.950 . S
C3284 C3283 1.387 . S
C3284 C3287 1.387 . S
H3285 C3281 0.950 . S
H3286 C3283 0.950 . S
C3287 C3278 1.390 . S
C3287 H3280 0.950 . S
C3287 C3284 1.387 . S
C3288 C3289 1.387 . S
C3288 H3292 0.950 . S
C3288 C3297 1.390 . S
C3289 C3288 1.387 . S
C3289 C3291 1.387 . S
H3290 C3297 0.950 . S
C3291 C3289 1.387 . S
C3291 C3293 1.390 . S
C3291 H3295 0.950 . S
H3292 C3288 0.950 . S
C3293 C3291 1.390 . S
C3293 C3294 1.387 . S
C3293 H3296 0.950 . S
C3294 C3293 1.387 . S
C3294 C3297 1.387 . S
H3295 C3291 0.950 . S
H3296 C3293 0.950 . S
C3297 C3288 1.390 . S
C3297 H3290 0.950 . S
C3297 C3294 1.387 . S
C3298 C3299 1.387 . S
C3298 H3302 0.950 . S
C3298 C3307 1.390 . S
C3299 C3298 1.387 . S
C3299 C3301 1.387 . S
H3300 C3307 0.950 . S
C3301 C3299 1.387 . S
C3301 C3303 1.390 . S
C3301 H3305 0.950 . S
H3302 C3298 0.950 . S
C3303 C3301 1.390 . S
C3303 C3304 1.387 . S
C3303 H3306 0.950 . S
C3304 C3303 1.387 . S
C3304 C3307 1.387 . S
H3305 C3301 0.950 . S
H3306 C3303 0.950 . S
C3307 C3298 1.390 . S
C3307 H3300 0.950 . S
C3307 C3304 1.387 . S
C3308 C3309 1.387 . S
C3308 H3312 0.950 . S
C3308 C3317 1.390 . S
C3309 C3308 1.387 . S
C3309 C3311 1.387 . S
H3310 C3317 0.950 . S
C3311 C3309 1.387 . S
C3311 C3313 1.390 . S
C3311 H3315 0.950 . S
H3312 C3308 0.950 . S
C3313 C3311 1.390 . S
C3313 C3314 1.387 . S
C3313 H3316 0.950 . S
C3314 C3313 1.387 . S
C3314 C3317 1.387 . S
H3315 C3311 0.950 . S
H3316 C3313 0.950 . S
C3317 C3308 1.390 . S
C3317 H3310 0.950 . S
C3317 C3314 1.387 . S
C3318 C3319 1.387 . S
C3318 H3322 0.950 . S
C3318 C3327 1.390 . S
C3319 C3318 1.387 . S
C3319 C3321 1.387 . S
H3320 C3327 0.950 . S
C3321 C3319 1.387 . S
C3321 C3323 1.390 . S
C3321 H3325 0.950 . S
H3322 C3318 0.950 . S
C3323 C3321 1.390 . S
C3323 C3324 1.387 . S
C3323 H3326 0.950 . S
C3324 C3323 1.387 . S
C3324 C3327 1.387 . S
H3325 C3321 0.950 . S
H3326 C3323 0.950 . S
C3327 C3318 1.390 . S
C3327 H3320 0.950 . S
C3327 C3324 1.387 . S
C3328 C3329 1.387 . S
C3328 H3332 0.950 . S
C3328 C3337 1.390 . S
C3329 C3328 1.387 . S
C3329 C3331 1.387 . S
H3330 C3337 0.950 . S
C3331 C3329 1.387 . S
C3331 C3333 1.390 . S
C3331 H3335 0.950 . S
H3332 C3328 0.950 . S
C3333 C3331 1.390 . S
C3333 C3334 1.387 . S
C3333 H3336 0.950 . S
C3334 C3333 1.387 . S
C3334 C3337 1.387 . S
H3335 C3331 0.950 . S
H3336 C3333 0.950 . S
C3337 C3328 1.390 . S
C3337 H3330 0.950 . S
C3337 C3334 1.387 . S
C3338 C3339 1.387 . S
C3338 H3342 0.950 . S
C3338 C3347 1.390 . S
C3339 C3338 1.387 . S
C3339 C3341 1.387 . S
H3340 C3347 0.950 . S
C3341 C3339 1.387 . S
C3341 C3343 1.390 . S
C3341 H3345 0.950 . S
H3342 C3338 0.950 . S
C3343 C3341 1.390 . S
C3343 C3344 1.387 . S
C3343 H3346 0.950 . S
C3344 C3343 1.387 . S
C3344 C3347 1.387 . S
H3345 C3341 0.950 . S
H3346 C3343 0.950 . S
C3347 C3338 1.390 . S
C3347 H3340 0.950 . S
C3347 C3344 1.387 . S
C3348 C3349 1.387 . S
C3348 H3352 0.950 . S
C3348 C3357 1.390 . S
C3349 C3348 1.387 . S
C3349 C3351 1.387 . S
H3350 C3357 0.950 . S
C3351 C3349 1.387 . S
C3351 C3353 1.390 . S
C3351 H3355 0.950 . S
H3352 C3348 0.950 . S
C3353 C3351 1.390 . S
C3353 C3354 1.387 . S
C3353 H3356 0.950 . S
C3354 C3353 1.387 . S
C3354 C3357 1.387 . S
H3355 C3351 0.950 . S
H3356 C3353 0.950 . S
C3357 C3348 1.390 . S
C3357 H3350 0.950 . S
C3357 C3354 1.387 . S
C3358 C3359 1.387 . S
C3358 H3362 0.950 . S
C3358 C3367 1.390 . S
C3359 C3358 1.387 . S
C3359 C3361 1.387 . S
H3360 C3367 0.950 . S
C3361 C3359 1.387 . S
C3361 C3363 1.390 . S
C3361 H3365 0.950 . S
H3362 C3358 0.950 . S
C3363 C3361 1.390 . S
C3363 C3364 1.387 . S
C3363 H3366 0.950 . S
C3364 C3363 1.387 . S
C3364 C3367 1.387 . S
H3365 C3361 0.950 . S
H3366 C3363 0.950 . S
C3367 C3358 1.390 . S
C3367 H3360 0.950 . S
C3367 C3364 1.387 . S
C3368 C3369 1.387 . S
C3368 H3372 0.950 . S
C3368 C3377 1.390 . S
C3369 C3368 1.387 . S
C3369 C3371 1.387 . S
H3370 C3377 0.950 . S
C3371 C3369 1.387 . S
C3371 C3373 1.390 . S
C3371 H3375 0.950 . S
H3372 C3368 0.950 . S
C3373 C3371 1.390 . S
C3373 C3374 1.387 . S
C3373 H3376 0.950 . S
C3374 C3373 1.387 . S
C3374 C3377 1.387 . S
H3375 C3371 0.950 . S
H3376 C3373 0.950 . S
C3377 C3368 1.390 . S
C3377 H3370 0.950 . S
C3377 C3374 1.387 . S
C3378 C3379 1.387 . S
C3378 H3382 0.950 . S
C3378 C3387 1.390 . S
C3379 C3378 1.387 . S
C3379 C3381 1.387 . S
H3380 C3387 0.950 . S
C3381 C3379 1.387 . S
C3381 C3383 1.390 . S
C3381 H3385 0.950 . S
H3382 C3378 0.950 . S
C3383 C3381 1.390 . S
C3383 C3384 1.387 . S
C3383 H3386 0.950 . S
C3384 C3383 1.387 . S
C3384 C3387 1.387 . S
H3385 C3381 0.950 . S
H3386 C3383 0.950 . S
C3387 C3378 1.390 . S
C3387 H3380 0.950 . S
C3387 C3384 1.387 . S
C3388 C3389 1.387 . S
C3388 H3392 0.950 . S
C3388 C3397 1.390 . S
C3389 C3388 1.387 . S
C3389 C3391 1.387 . S
H3390 C3397 0.950 . S
C3391 C3389 1.387 . S
C3391 C3393 1.390 . S
C3391 H3395 0.950 . S
H3392 C3388 0.950 . S
C3393 C3391 1.390 . S
C3393 C3394 1.387 . S
C3393 H3396 0.950 . S
C3394 C3393 1.387 . S
C3394 C3397 1.387 . S
H3395 C3391 0.950 . S
H3396 C3393 0.950 . S
C3397 C3388 1.390 . S
C3397 H3390 0.950 . S
C3397 C3394 1.387 . S
C3398 C3399 1.387 . S
C3398 H3402 0.950 . S
C3398 C3407 1.390 . S
C3399 C3398 1.387 . S
C3399 C3401 1.387 . S
H3400 C3407 0.950 . S
C3401 C3399 1.387 . S
C3401 C3403 1.390 . S
C3401 H3405 0.950 . S
H3402 C3398 0.950 . S
C3403 C3401 1.390 . S
C3403 C3404 1.387 . S
C3403 H3406 0.950 . S
C3404 C3403 1.387 . S
C3404 C3407 1.387 . S
H3405 C3401 0.950 . S
H3406 C3403 0.950 . S
C3407 C3398 1.390 . S
C3407 H3400 0.950 . S
C3407 C3404 1.387 . S
C3408 C3409 1.387 . S
C3408 H3412 0.950 . S
C3408 C3417 1.390 . S
C3409 C3408 1.387 . S
C3409 C3411 1.387 . S
H3410 C3417 0.950 . S
C3411 C3409 1.387 . S
C3411 C3413 1.390 . S
C3411 H3415 0.950 . S
H3412 C3408 0.950 . S
C3413 C3411 1.390 . S
C3413 C3414 1.387 . S
C3413 H3416 0.950 . S
C3414 C3413 1.387 . S
C3414 C3417 1.387 . S
H3415 C3411 0.950 . S
H3416 C3413 0.950 . S
C3417 C3408 1.390 . S
C3417 H3410 0.950 . S
C3417 C3414 1.387 . S
C3418 C3419 1.387 . S
C3418 H3422 0.950 . S
C3418 C3427 1.390 . S
C3419 C3418 1.387 . S
C3419 C3421 1.387 . S
H3420 C3427 0.950 . S
C3421 C3419 1.387 . S
C3421 C3423 1.390 . S
C3421 H3425 0.950 . S
H3422 C3418 0.950 . S
C3423 C3421 1.390 . S
C3423 C3424 1.387 . S
C3423 H3426 0.950 . S
C3424 C3423 1.387 . S
C3424 C3427 1.387 . S
H3425 C3421 0.950 . S
H3426 C3423 0.950 . S
C3427 C3418 1.390 . S
C3427 H3420 0.950 . S
C3427 C3424 1.387 . S
C3428 C3429 1.387 . S
C3428 H3432 0.950 . S
C3428 C3437 1.390 . S
C3429 C3428 1.387 . S
C3429 C3431 1.387 . S
H3430 C3437 0.950 . S
C3431 C3429 1.387 . S
C3431 C3433 1.390 . S
C3431 H3435 0.950 . S
H3432 C3428 0.950 . S
C3433 C3431 1.390 . S
C3433 C3434 1.387 . S
C3433 H3436 0.950 . S
C3434 C3433 1.387 . S
C3434 C3437 1.387 . S
H3435 C3431 0.950 . S
H3436 C3433 0.950 . S
C3437 C3428 1.390 . S
C3437 H3430 0.950 . S
C3437 C3434 1.387 . S
C3438 C3439 1.387 . S
C3438 H3442 0.950 . S
C3438 C3447 1.390 . S
C3439 C3438 1.387 . S
C3439 C3441 1.387 . S
H3440 C3447 0.950 . S
C3441 C3439 1.387 . S
C3441 C3443 1.390 . S
C3441 H3445 0.950 . S
H3442 C3438 0.950 . S
C3443 C3441 1.390 . S
C3443 C3444 1.387 . S
C3443 H3446 0.950 . S
C3444 C3443 1.387 . S
C3444 C3447 1.387 . S
H3445 C3441 0.950 . S
H3446 C3443 0.950 . S
C3447 C3438 1.390 . S
C3447 H3440 0.950 . S
C3447 C3444 1.387 . S
C3448 C3449 1.387 . S
C3448 H3452 0.950 . S
C3448 C3457 1.390 . S
C3449 C3448 1.387 . S
C3449 C3451 1.387 . S
H3450 C3457 0.950 . S
C3451 C3449 1.387 . S
C3451 C3453 1.390 . S
C3451 H3455 0.950 . S
H3452 C3448 0.950 . S
C3453 C3451 1.390 . S
C3453 C3454 1.387 . S
C3453 H3456 0.950 . S
C3454 C3453 1.387 . S
C3454 C3457 1.387 . S
H3455 C3451 0.950 . S
H3456 C3453 0.950 . S
C3457 C3448 1.390 . S
C3457 H3450 0.950 . S
C3457 C3454 1.387 . S
C3458 C3459 1.387 . S
C3458 H3462 0.950 . S
C3458 C3467 1.390 . S
C3459 C3458 1.387 . S
C3459 C3461 1.387 . S
H3460 C3467 0.950 . S
C3461 C3459 1.387 . S
C3461 C3463 1.390 . S
C3461 H3465 0.950 . S
H3462 C3458 0.950 . S
C3463 C3461 1.390 . S
C3463 C3464 1.387 . S
C3463 H3466 0.950 . S
C3464 C3463 1.387 . S
C3464 C3467 1.387 . S
H3465 C3461 0.950 . S
H3466 C3463 0.950 . S
C3467 C3458 1.390 . S
C3467 H3460 0.950 . S
C3467 C3464 1.387 . S
C3468 C3469 1.387 . S
C3468 H3472 0.950 . S
C3468 C3477 1.390 . S
C3469 C3468 1.387 . S
C3469 C3471 1.387 . S
H3470 C3477 0.950 . S
C3471 C3469 1.387 . S
C3471 C3473 1.390 . S
C3471 H3475 0.950 . S
H3472 C3468 0.950 . S
C3473 C3471 1.390 . S
C3473 C3474 1.387 . S
C3473 H3476 0.950 . S
C3474 C3473 1.387 . S
C3474 C3477 1.387 . S
H3475 C3471 0.950 . S
H3476 C3473 0.950 . S
C3477 C3468 1.390 . S
C3477 H3470 0.950 . S
C3477 C3474 1.387 . S
C3478 C3479 1.387 . S
C3478 H3482 0.950 . S
C3478 C3487 1.390 . S
C3479 C3478 1.387 . S
C3479 C3481 1.387 . S
H3480 C3487 0.950 . S
C3481 C3479 1.387 . S
C3481 C3483 1.390 . S
C3481 H3485 0.950 . S
H3482 C3478 0.950 . S
C3483 C3481 1.390 . S
C3483 C3484 1.387 . S
C3483 H3486 0.950 . S
C3484 C3483 1.387 . S
C3484 C3487 1.387 . S
H3485 C3481 0.950 . S
H3486 C3483 0.950 . S
C3487 C3478 1.390 . S
C3487 H3480 0.950 . S
C3487 C3484 1.387 . S
C3488 C3489 1.387 . S
C3488 H3492 0.950 . S
C3488 C3497 1.390 . S
C3489 C3488 1.387 . S
C3489 C3491 1.387 . S
H3490 C3497 0.950 . S
C3491 C3489 1.387 . S
C3491 C3493 1.390 . S
C3491 H3495 0.950 . S
H3492 C3488 0.950 . S
C3493 C3491 1.390 . S
C3493 C3494 1.387 . S
C3493 H3496 0.950 . S
C3494 C3493 1.387 . S
C3494 C3497 1.387 . S
H3495 C3491 0.950 . S
H3496 C3493 0.950 . S
C3497 C3488 1.390 . S
C3497 H3490 0.950 . S
C3497 C3494 1.387 . S
C3498 C3499 1.387 . S
C3498 H3502 0.950 . S
C3498 C3507 1.390 . S
C3499 C3498 1.387 . S
C3499 C3501 1.387 . S
H3500 C3507 0.950 . S
C3501 C3499 1.387 . S
C3501 C3503 1.390 . S
C3501 H3505 0.950 . S
H3502 C3498 0.950 . S
C3503 C3501 1.390 . S
C3503 C3504 1.387 . S
C3503 H3506 0.950 . S
C3504 C3503 1.387 . S
C3504 C3507 1.387 . S
H3505 C3501 0.950 . S
H3506 C3503 0.950 . S
C3507 C3498 1.390 . S
C3507 H3500 0.950 . S
C3507 C3504 1.387 . S
C3508 C3509 1.387 . S
C3508 H3512 0.950 . S
C3508 C3517 1.390 . S
C3509 C3508 1.387 . S
C3509 C3511 1.387 . S
H3510 C3517 0.950 . S
C3511 C3509 1.387 . S
C3511 C3513 1.390 . S
C3511 H3515 0.950 . S
H3512 C3508 0.950 . S
C3513 C3511 1.390 . S
C3513 C3514 1.387 . S
C3513 H3516 0.950 . S
C3514 C3513 1.387 . S
C3514 C3517 1.387 . S
H3515 C3511 0.950 . S
H3516 C3513 0.950 . S
C3517 C3508 1.390 . S
C3517 H3510 0.950 . S
C3517 C3514 1.387 . S
C3518 C3519 1.387 . S
C3518 H3522 0.950 . S
C3518 C3527 1.390 . S
C3519 C3518 1.387 . S
C3519 C3521 1.387 . S
H3520 C3527 0.950 . S
C3521 C3519 1.387 . S
C3521 C3523 1.390 . S
C3521 H3525 0.950 . S
H3522 C3518 0.950 . S
C3523 C3521 1.390 . S
C3523 C3524 1.387 . S
C3523 H3526 0.950 . S
C3524 C3523 1.387 . S
C3524 C3527 1.387 . S
H3525 C3521 0.950 . S
H3526 C3523 0.950 . S
C3527 C3518 1.390 . S
C3527 H3520 0.950 . S
C3527 C3524 1.387 . S
C3528 C3529 1.387 . S
C3528 H3532 0.950 . S
C3528 C3537 1.390 . S
C3529 C3528 1.387 . S
C3529 C3531 1.387 . S
H3530 C3537 0.950 . S
C3531 C3529 1.387 . S
C3531 C3533 1.390 . S
C3531 H3535 0.950 . S
H3532 C3528 0.950 . S
C3533 C3531 1.390 . S
C3533 C3534 1.387 . S
C3533 H3536 0.950 . S
C3534 C3533 1.387 . S
C3534 C3537 1.387 . S
H3535 C3531 0.950 . S
H3536 C3533 0.950 . S
C3537 C3528 1.390 . S
C3537 H3530 0.950 . S
C3537 C3534 1.387 . S
C3538 C3539 1.387 . S
C3538 H3542 0.950 . S
C3538 C3547 1.390 . S
C3539 C3538 1.387 . S
C3539 C3541 1.387 . S
H3540 C3547 0.950 . S
C3541 C3539 1.387 . S
C3541 C3543 1.390 . S
C3541 H3545 0.950 . S
H3542 C3538 0.950 . S
C3543 C3541 1.390 . S
C3543 C3544 1.387 . S
C3543 H3546 0.950 . S
C3544 C3543 1.387 . S
C3544 C3547 1.387 . S
H3545 C3541 0.950 . S
H3546 C3543 0.950 . S
C3547 C3538 1.390 . S
C3547 H3540 0.950 . S
C3547 C3544 1.387 . S
C3548 C3549 1.387 . S
C3548 H3552 0.950 . S
C3548 C3557 1.390 . S
C3549 C3548 1.387 . S
C3549 C3551 1.387 . S
H3550 C3557 0.950 . S
C3551 C3549 1.387 . S
C3551 C3553 1.390 . S
C3551 H3555 0.950 . S
H3552 C3548 0.950 . S
C3553 C3551 1.390 . S
C3553 C3554 1.387 . S
C3553 H3556 0.950 . S
C3554 C3553 1.387 . S
C3554 C3557 1.387 . S
H3555 C3551 0.950 . S
H3556 C3553 0.950 . S
C3557 C3548 1.390 . S
C3557 H3550 0.950 . S
C3557 C3554 1.387 . S
C3558 C3559 1.387 . S
C3558 H3562 0.950 . S
C3558 C3567 1.390 . S
C3559 C3558 1.387 . S
C3559 C3561 1.387 . S
H3560 C3567 0.950 . S
C3561 C3559 1.387 . S
C3561 C3563 1.390 . S
C3561 H3565 0.950 . S
H3562 C3558 0.950 . S
C3563 C3561 1.390 . S
C3563 C3564 1.387 . S
C3563 H3566 0.950 . S
C3564 C3563 1.387 . S
C3564 C3567 1.387 . S
H3565 C3561 0.950 . S
H3566 C3563 0.950 . S
C3567 C3558 1.390 . S
C3567 H3560 0.950 . S
C3567 C3564 1.387 . S
C3568 C3569 1.387 . S
C3568 H3572 0.950 . S
C3568 C3577 1.390 . S
C3569 C3568 1.387 . S
C3569 C3571 1.387 . S
H3570 C3577 0.950 . S
C3571 C3569 1.387 . S
C3571 C3573 1.390 . S
C3571 H3575 0.950 . S
H3572 C3568 0.950 . S
C3573 C3571 1.390 . S
C3573 C3574 1.387 . S
C3573 H3576 0.950 . S
C3574 C3573 1.387 . S
C3574 C3577 1.387 . S
H3575 C3571 0.950 . S
H3576 C3573 0.950 . S
C3577 C3568 1.390 . S
C3577 H3570 0.950 . S
C3577 C3574 1.387 . S
C3578 C3579 1.387 . S
C3578 H3582 0.950 . S
C3578 C3587 1.390 . S
C3579 C3578 1.387 . S
C3579 C3581 1.387 . S
H3580 C3587 0.950 . S
C3581 C3579 1.387 . S
C3581 C3583 1.390 . S
C3581 H3585 0.950 . S
H3582 C3578 0.950 . S
C3583 C3581 1.390 . S
C3583 C3584 1.387 . S
C3583 H3586 0.950 . S
C3584 C3583 1.387 . S
C3584 C3587 1.387 . S
H3585 C3581 0.950 . S
H3586 C3583 0.950 . S
C3587 C3578 1.390 . S
C3587 H3580 0.950 . S
C3587 C3584 1.387 . S
C3588 C3589 1.387 . S
C3588 H3592 0.950 . S
C3588 C3597 1.390 . S
C3589 C3588 1.387 . S
C3589 C3591 1.387 . S
H3590 C3597 0.950 . S
C3591 C3589 1.387 . S
C3591 C3593 1.390 . S
C3591 H3595 0.950 . S
H3592 C3588 0.950 . S
C3593 C3591 1.390 . S
C3593 C3594 1.387 . S
C3593 H3596 0.950 . S
C3594 C3593 1.387 . S
C3594 C3597 1.387 . S
H3595 C3591 0.950 . S
H3596 C3593 0.950 . S
C3597 C3588 1.390 . S
C3597 H3590 0.950 . S
C3597 C3594 1.387 . S
C3598 C3599 1.387 . S
C3598 H3602 0.950 . S
C3598 C3607 1.390 . S
C3599 C3598 1.387 . S
C3599 C3601 1.387 . S
H3600 C3607 0.950 . S
C3601 C3599 1.387 . S
C3601 C3603 1.390 . S
C3601 H3605 0.950 . S
H3602 C3598 0.950 . S
C3603 C3601 1.390 . S
C3603 C3604 1.387 . S
C3603 H3606 0.950 . S
C3604 C3603 1.387 . S
C3604 C3607 1.387 . S
H3605 C3601 0.950 . S
H3606 C3603 0.950 . S
C3607 C3598 1.390 . S
C3607 H3600 0.950 . S
C3607 C3604 1.387 . S
C3608 C3609 1.387 . S
C3608 H3612 0.950 . S
C3608 C3617 1.390 . S
C3609 C3608 1.387 . S
C3609 C3611 1.387 . S
H3610 C3617 0.950 . S
C3611 C3609 1.387 . S
C3611 C3613 1.390 . S
C3611 H3615 0.950 . S
H3612 C3608 0.950 . S
C3613 C3611 1.390 . S
C3613 C3614 1.387 . S
C3613 H3616 0.950 . S
C3614 C3613 1.387 . S
C3614 C3617 1.387 . S
H3615 C3611 0.950 . S
H3616 C3613 0.950 . S
C3617 C3608 1.390 . S
C3617 H3610 0.950 . S
C3617 C3614 1.387 . S
C3618 C3619 1.387 . S
C3618 H3622 0.950 . S
C3618 C3627 1.390 . S
C3619 C3618 1.387 . S
C3619 C3621 1.387 . S
H3620 C3627 0.950 . S
C3621 C3619 1.387 . S
C3621 C3623 1.390 . S
C3621 H3625 0.950 . S
H3622 C3618 0.950 . S
C3623 C3621 1.390 . S
C3623 C3624 1.387 . S
C3623 H3626 0.950 . S
C3624 C3623 1.387 . S
C3624 C3627 1.387 . S
H3625 C3621 0.950 . S
H3626 C3623 0.950 . S
C3627 C3618 1.390 . S
C3627 H3620 0.950 . S
C3627 C3624 1.387 . S
C3628 C3629 1.387 . S
C3628 H3632 0.950 . S
C3628 C3637 1.390 . S
C3629 C3628 1.387 . S
C3629 C3631 1.387 . S
H3630 C3637 0.950 . S
C3631 C3629 1.387 . S
C3631 C3633 1.390 . S
C3631 H3635 0.950 . S
H3632 C3628 0.950 . S
C3633 C3631 1.390 . S
C3633 C3634 1.387 . S
C3633 H3636 0.950 . S
C3634 C3633 1.387 . S
C3634 C3637 1.387 . S
H3635 C3631 0.950 . S
H3636 C3633 0.950 . S
C3637 C3628 1.390 . S
C3637 H3630 0.950 . S
C3637 C3634 1.387 . S
C3638 C3639 1.387 . S
C3638 H3642 0.950 . S
C3638 C3647 1.390 . S
C3639 C3638 1.387 . S
C3639 C3641 1.387 . S
H3640 C3647 0.950 . S
C3641 C3639 1.387 . S
C3641 C3643 1.390 . S
C3641 H3645 0.950 . S
H3642 C3638 0.950 . S
C3643 C3641 1.390 . S
C3643 C3644 1.387 . S
C3643 H3646 0.950 . S
C3644 C3643 1.387 . S
C3644 C3647 1.387 . S
H3645 C3641 0.950 . S
H3646 C3643 0.950 . S
C3647 C3638 1.390 . S
C3647 H3640 0.950 . S
C3647 C3644 1.387 . S
C2689 C2419 1.889 . S
C2694 C56 1.890 . S
C2699 C487 1.886 . S
C2704 C140 1.886 . S
C2709 C1915 1.883 . S
C2714 C224 1.883 . S
C2719 C1327 1.890 . S
C2724 C308 1.891 . S
C2729 C403 1.894 . S
C2734 C2072 1.893 . S
C2739 C1568 1.884 . S
C2744 C571 1.884 . S
C2749 C980 1.890 . S
C2754 C655 1.891 . S
C2759 C1747 1.890 . S
C2764 C728 1.889 . S
C2769 C812 1.890 . S
C2774 C1159 1.890 . S
C2779 C896 1.887 . S
C2784 C2587 1.887 . S
C2789 C1400 1.894 . S
C2794 C1075 1.893 . S
C2799 C1243 1.887 . S
C2804 C2240 1.887 . S
C2809 C1484 1.884 . S
C2814 C1831 1.885 . S
C2819 C1652 1.893 . S
C2824 C2671 1.892 . S
C2829 C2324 1.893 . S
C2834 C1999 1.894 . S
C2839 C2503 1.891 . S
C2844 C2156 1.891 . S
C2849 C1663 1.556 . S
C2854 C67 1.556 . S
C2859 C1579 1.550 . S
C2864 C151 1.550 . S
C2869 C1495 1.549 . S
C2874 C235 1.549 . S
C2879 C1411 1.556 . S
C2884 C319 1.556 . S
C2889 C1988 1.556 . S
C2894 C392 1.556 . S
C2899 C476 1.550 . S
C2904 C1904 1.550 . S
C2909 C560 1.550 . S
C2914 C1820 1.550 . S
C2919 C644 1.556 . S
C2924 C1736 1.556 . S
C2929 C739 1.570 . S
C2934 C2335 1.570 . S
C2939 C823 1.553 . S
C2944 C2251 1.553 . S
C2949 C907 1.553 . S
C2954 C2167 1.553 . S
C2959 C2083 1.571 . S
C2964 C991 1.571 . S
C2969 C1064 1.570 . S
C2974 C2660 1.570 . S
C2979 C1148 1.553 . S
C2984 C2576 1.553 . S
C2989 C1232 1.553 . S
C2994 C2492 1.553 . S
C2999 C2408 1.571 . S
C3004 C1316 1.571 . S
C3009 C58 1.244 . S
C3014 C69 1.244 . S
C3019 C142 1.224 1_565 S
C3024 C153 1.224 1_545 S
C3029 C237 1.224 1_545 S
C3034 C226 1.224 1_565 S
C3039 C321 1.242 . S
C3044 C310 1.242 . S
C3049 C394 1.242 . S
C3054 C405 1.242 . S
C3059 C478 1.226 1_565 S
C3064 C489 1.226 1_545 S
C3069 C562 1.228 1_565 S
C3074 C573 1.228 1_545 S
C3079 C657 1.244 . S
C3084 C646 1.244 . S
C3089 C730 1.243 . S
C3094 C741 1.243 . S
C3099 C825 1.230 . S
C3104 C814 1.230 . S
C3109 C909 1.233 . S
C3114 C898 1.233 . S
C3119 C993 1.243 . S
C3124 C982 1.243 . S
C3129 C1066 1.243 . S
C3134 C1077 1.243 . S
C3139 C1161 1.233 . S
C3144 C1150 1.233 . S
C3149 C1234 1.232 . S
C3154 C1245 1.232 . S
C3159 C1329 1.241 . S
C3164 C1318 1.241 . S
C3169 C1402 1.242 . S
C3174 C1413 1.242 . S
C3179 C1497 1.224 1_545 S
C3184 C1486 1.224 1_565 S
C3189 C1581 1.226 1_545 S
C3194 C1570 1.226 1_565 S
C3199 C1665 1.242 . S
C3204 C1654 1.242 . S
C3209 C1749 1.244 . S
C3214 C1738 1.244 . S
C3219 C1822 1.224 1_565 S
C3224 C1833 1.224 1_545 S
C3229 C1917 1.226 1_545 S
C3234 C1906 1.226 1_565 S
C3239 C2001 1.242 . S
C3244 C1990 1.242 . S
C3249 C2074 1.243 . S
C3254 C2085 1.243 . S
C3259 C2169 1.233 . S
C3264 C2158 1.233 . S
C3269 C2253 1.231 . S
C3274 C2242 1.231 . S
C3279 C2326 1.242 . S
C3284 C2337 1.242 . S
C3289 C2410 1.241 . S
C3294 C2421 1.241 . S
C3299 C2505 1.233 . S
C3304 C2494 1.233 . S
C3309 C2589 1.231 . S
C3314 C2578 1.231 . S
C3319 C2673 1.243 . S
C3324 C2662 1.243 . S
C3329 C903 2.067 . S
C3334 C63 2.067 . S
C3339 C987 2.016 . S
C3344 C147 2.013 . S
C3349 C231 2.016 . S
C3354 C735 2.014 . S
C3359 C819 2.067 . S
C3364 C315 2.067 . S
C3369 C410 2.067 . S
C3374 C1250 2.067 . S
C3379 C494 2.016 . S
C3384 C1334 2.013 . S
C3389 C578 2.016 . S
C3394 C1082 2.013 . S
C3399 C662 2.067 . S
C3404 C1166 2.067 . S
C3409 C2247 2.067 . S
C3414 C1407 2.067 . S
C3419 C1491 2.016 . S
C3424 C2331 2.013 . S
C3429 C2079 2.016 . S
C3434 C1575 2.013 . S
C3439 C1659 2.067 . S
C3444 C2163 2.067 . S
C3449 C2594 2.067 . S
C3454 C1754 2.067 . S
C3459 C1838 2.016 . S
C3464 C2678 2.013 . S
C3469 C1922 2.016 . S
C3474 C2426 2.013 . S
C3479 C2510 2.067 . S
C3484 C2006 2.067 . S
C3489 C74 1.098 . S
C3494 C242 1.101 . S
C3499 C326 1.098 . S
C3504 C158 1.101 . S
C3509 C567 1.096 . S
C3514 C399 1.099 . S
C3519 C483 1.096 . S
C3524 C651 1.099 . S
C3529 C746 1.027 . S
C3534 C914 1.027 . S
C3539 C998 1.027 . S
C3544 C830 1.027 . S
C3549 C1239 1.027 . S
C3554 C1071 1.027 . S
C3559 C1323 1.029 . S
C3564 C1155 1.029 . S
C3569 C1586 1.098 . S
C3574 C1418 1.101 . S
C3579 C1670 1.098 . S
C3584 C1502 1.101 . S
C3589 C1911 1.096 . S
C3594 C1743 1.099 . S
C3599 C1995 1.098 . S
C3604 C1827 1.101 . S
C3609 C2090 1.027 . S
C3614 C2258 1.027 . S
C3619 C2174 1.027 . S
C3624 C2342 1.027 . S
C3629 C2415 1.027 . S
C3634 C2583 1.027 . S
C3639 C2667 1.029 . S
C3644 C2499 1.029 . S
