# Generated by pormake.
# Topology qtz-e, (6)-cn, num edge types: 1
# Building blocks:
#     Node 0, Type 0, BuildingBlock: KUMBOL_clean_sbu_0, # of connection points: 6
#     Node 1, Type 0, BuildingBlock: KUMBOL_clean_sbu_0, # of connection points: 6
#     Node 2, Type 0, BuildingBlock: KUMBOL_clean_sbu_0, # of connection points: 6
#     Node 3, Type 0, BuildingBlock: KUMBOL_clean_sbu_0, # of connection points: 6
#     Node 4, Type 0, BuildingBlock: KUMBOL_clean_sbu_0, # of connection points: 6
#     Node 5, Type 0, BuildingBlock: KUMBOL_clean_sbu_0, # of connection points: 6
#     Edge 6, Type (0, 0), BuildingBlock: XIVTED_clean_linker_0, # of connection points: 2
#     Edge 7, Type (0, 0), BuildingBlock: XIVTED_clean_linker_0, # of connection points: 2
#     Edge 8, Type (0, 0), BuildingBlock: XIVTED_clean_linker_0, # of connection points: 2
#     Edge 9, Type (0, 0), BuildingBlock: XIVTED_clean_linker_0, # of connection points: 2
#     Edge 10, Type (0, 0), BuildingBlock: XIVTED_clean_linker_0, # of connection points: 2
#     Edge 11, Type (0, 0), BuildingBlock: XIVTED_clean_linker_0, # of connection points: 2
#     Edge 12, Type (0, 0), BuildingBlock: XIVTED_clean_linker_0, # of connection points: 2
#     Edge 13, Type (0, 0), BuildingBlock: XIVTED_clean_linker_0, # of connection points: 2
#     Edge 14, Type (0, 0), BuildingBlock: XIVTED_clean_linker_0, # of connection points: 2
#     Edge 15, Type (0, 0), BuildingBlock: XIVTED_clean_linker_0, # of connection points: 2
#     Edge 16, Type (0, 0), BuildingBlock: XIVTED_clean_linker_0, # of connection points: 2
#     Edge 17, Type (0, 0), BuildingBlock: XIVTED_clean_linker_0, # of connection points: 2
#     Edge 18, Type (0, 0), BuildingBlock: XIVTED_clean_linker_0, # of connection points: 2
#     Edge 19, Type (0, 0), BuildingBlock: XIVTED_clean_linker_0, # of connection points: 2
#     Edge 20, Type (0, 0), BuildingBlock: XIVTED_clean_linker_0, # of connection points: 2
#     Edge 21, Type (0, 0), BuildingBlock: XIVTED_clean_linker_0, # of connection points: 2
#     Edge 22, Type (0, 0), BuildingBlock: XIVTED_clean_linker_0, # of connection points: 2
#     Edge 23, Type (0, 0), BuildingBlock: XIVTED_clean_linker_0, # of connection points: 2
# Relax obj value: 0.059
# Max RMSD: 0.144
# Mean RMSD: 0.144
data_MOF--net-qtz-e--node1-KUMBOL_clean_sbu_0--edge1-XIVTED_clean_linker_0
_symmetry_space_group_name_H-M    P1
_symmetry_Int_Tables_number       1
_symmetry_cell_setting            triclinic
loop_
_symmetry_equiv_pos_as_xyz
'x, y, z'
_cell_length_a     29.685791
_cell_length_b     29.777898
_cell_length_c     46.523923
_cell_angle_alpha  89.930473
_cell_angle_beta   90.072704
_cell_angle_gamma 120.07663
loop_
_atom_site_label
_atom_site_type_symbol
_atom_site_fract_x
_atom_site_fract_y
_atom_site_fract_z
_atom_type_partial_charge
Gd0 Gd 0.18447 0.36533 1.00642 0.0
Gd1 Gd 0.24125 0.49496 0.0405 0.0
C2 C 0.35006 0.64967 0.9972 0.0
C3 C 0.43276 0.67471 0.02042 0.0
C4 C 0.35516 0.59382 0.03342 0.0
C5 C 0.32638 0.60337 0.01339 0.0
C6 C 0.40862 0.62947 0.03724 0.0
C7 C 0.40353 0.68483 1.00048 0.0
C8 C 0.31896 0.66009 0.97889 0.0
C9 C 0.26537 0.62576 0.97792 0.0
N10 N 0.27462 0.56884 1.01092 0.0
C11 C 0.2436 0.58054 0.99456 0.0
H12 H 0.20201 0.55471 0.99399 0.0
C13 C 0.35702 0.53953 0.07008 0.0
N14 N 0.33074 0.54951 0.04922 0.0
C15 C 0.41014 0.57364 0.07453 0.0
C16 C 0.43613 0.61867 0.05795 0.0
H17 H 0.33737 0.50475 0.08291 0.0
H18 H 0.42245 0.72042 0.98809 0.0
H19 H 0.25123 0.33541 0.05413 0.0
H20 H 0.33568 0.69519 0.96607 0.0
H21 H 0.24075 0.63413 0.96443 0.0
H22 H 0.47384 0.70246 0.02295 0.0
H23 H 0.07519 0.31956 0.96861 0.0
H24 H 0.1433 0.19944 0.10015 0.0
H25 H 0.23345 0.27026 0.09145 0.0
H26 H 0.98092 0.14785 0.05288 0.0
H27 H 0.43102 0.56516 0.09073 0.0
H28 H 0.47729 0.64501 0.06146 0.0
H29 H 0.0489 0.15435 0.08586 0.0
H30 H 0.98413 0.24698 0.97052 0.0
N31 N 0.17178 0.30278 0.04163 0.0
C32 C 0.15086 0.22799 0.0836 0.0
C33 C 0.20179 0.2678 0.07869 0.0
C34 C 0.11049 0.22474 0.06656 0.0
C35 C 0.12247 0.26304 0.04538 0.0
C36 C 0.21169 0.30475 0.05733 0.0
N37 N 0.09814 0.29604 1.00638 0.0
C38 C 0.08434 0.25958 0.02711 0.0
C39 C 0.01184 0.25018 0.98668 0.0
C40 C 0.9964 0.21352 1.00874 0.0
C41 C 0.06334 0.29107 0.98562 0.0
C42 C 0.03299 0.2175 0.0291 0.0
H43 H 0.95654 0.18176 1.00948 0.0
O44 O 0.17599 0.33922 0.96198 0.0
O45 O 0.22689 0.44993 1.00032 0.0
O46 O 0.16267 0.4728 0.02239 0.0
O47 O 0.11791 0.38243 0.01488 0.0
O48 O 0.17349 0.40597 0.9686 0.0
O49 O 0.23168 0.33402 0.98944 0.0
O50 O 0.24256 0.51985 0.08445 0.0
O51 O 0.19099 0.40939 0.04633 0.0
O52 O 0.27154 0.40054 0.01888 0.0
O53 O 0.30529 0.48979 0.01887 0.0
O54 O 0.24261 0.448 0.07866 0.0
O55 O 0.20286 0.53847 0.05126 0.0
C56 C 0.20794 0.45214 0.97643 0.0
C57 C 0.02026 0.18022 0.05081 0.0
C58 C 0.05896 0.1839 0.06956 0.0
C59 C 0.21112 0.32541 0.9638 0.0
C60 C 0.19886 0.27605 0.94956 0.0
C61 C 0.15958 0.22887 0.96071 0.0
C62 C 0.226 0.27589 0.92446 0.0
C63 C 0.21432 0.22856 0.91095 0.0
C64 C 0.14739 0.18223 0.94732 0.0
C65 C 0.17438 0.18197 0.92279 0.0
C66 C 0.11974 0.428 0.01775 0.0
C67 C 0.20477 0.40343 0.071 0.0
C68 C 0.22129 0.54755 0.07745 0.0
C69 C 0.25051 0.60225 0.08665 0.0
C70 C 0.27507 0.64253 0.06651 0.0
C71 C 0.25728 0.61415 0.11606 0.0
C72 C 0.29031 0.66554 0.12538 0.0
C73 C 0.3095 0.69291 0.07543 0.0
C74 C 0.31797 0.70428 0.1046 0.0
C75 C 0.31144 0.44907 0.01727 0.0
H76 H 0.13825 0.22816 0.97975 0.0
H77 H 0.2566 0.31231 0.91586 0.0
H78 H 0.11681 0.14597 0.95602 0.0
H79 H 0.16359 0.145 0.91291 0.0
H80 H 0.26833 0.63538 0.04386 0.0
H81 H 0.23609 0.58326 0.13143 0.0
H82 H 0.32964 0.7233 0.05965 0.0
H83 H 0.34568 0.74375 0.11073 0.0
Gd84 Gd 0.81801 0.18101 0.3401 0.0
Gd85 Gd 0.76857 0.25635 0.37845 0.0
C86 C 0.73549 0.37529 0.33647 0.0
C87 C 0.80737 0.45674 0.354 0.0
C88 C 0.79954 0.37469 0.36856 0.0
C89 C 0.75535 0.34801 0.35173 0.0
C90 C 0.82579 0.4293 0.37009 0.0
C91 C 0.76225 0.42979 0.33728 0.0
C92 C 0.68851 0.34695 0.32154 0.0
C93 C 0.66166 0.29284 0.32292 0.0
N94 N 0.73025 0.29529 0.35148 0.0
C95 C 0.68279 0.26752 0.33846 0.0
H96 H 0.66148 0.22568 0.33954 0.0
C97 C 0.85725 0.37129 0.40248 0.0
N98 N 0.81641 0.34702 0.38383 0.0
C99 C 0.88466 0.42543 0.40463 0.0
C100 C 0.86926 0.45462 0.38811 0.0
H101 H 0.86957 0.34897 0.41516 0.0
H102 H 0.74781 0.45142 0.3255 0.0
H103 H 0.9221 0.23248 0.38444 0.0
H104 H 0.67198 0.36646 0.30955 0.0
H105 H 0.6247 0.27058 0.31202 0.0
H106 H 0.82716 0.49874 0.35476 0.0
H107 H 0.73844 0.07721 0.30165 0.0
H108 H 0.93074 0.10898 0.4259 0.0
H109 H 0.96442 0.20286 0.41887 0.0
H110 H 0.79702 0.95697 0.37896 0.0
H111 H 0.91778 0.44461 0.41892 0.0
H112 H 0.89064 0.49655 0.38979 0.0
H113 H 0.86761 0.01712 0.41109 0.0
H114 H 0.70491 0.98258 0.30148 0.0
N115 N 0.86366 0.15621 0.37215 0.0
C116 C 0.91186 0.12177 0.41066 0.0
C117 C 0.93105 0.17476 0.40669 0.0
C118 C 0.86951 0.08599 0.39427 0.0
C119 C 0.84628 0.10478 0.37483 0.0
C120 C 0.90681 0.19141 0.38699 0.0
N121 N 0.78756 0.09138 0.33782 0.0
C122 C 0.80677 0.07115 0.35701 0.0
C123 C 0.73342 0.00699 0.31733 0.0
C124 C 0.75131 0.98524 0.33781 0.0
C125 C 0.75256 0.06053 0.31743 0.0
C126 C 0.78903 0.0175 0.35776 0.0
H127 H 0.73662 0.94379 0.33764 0.0
O128 O 0.83007 0.17045 0.2949 0.0
O129 O 0.78543 0.23272 0.33677 0.0
O130 O 0.7007 0.18003 0.36477 0.0
O131 O 0.73137 0.12421 0.35072 0.0
O132 O 0.76322 0.1765 0.30515 0.0
O133 O 0.89525 0.22362 0.32069 0.0
O134 O 0.75864 0.2676 0.42353 0.0
O135 O 0.79162 0.19571 0.38212 0.0
O136 O 0.88135 0.26448 0.3531 0.0
O137 O 0.83755 0.31058 0.35252 0.0
O138 O 0.81992 0.25178 0.41319 0.0
O139 O 0.69133 0.23035 0.39501 0.0
C140 C 0.75867 0.21487 0.31423 0.0
C141 C 0.81043 0.99813 0.37784 0.0
C142 C 0.8506 0.03236 0.39612 0.0
C143 C 0.87984 0.20335 0.29526 0.0
C144 C 0.91385 0.18874 0.27934 0.0
C145 C 0.91834 0.14639 0.28859 0.0
C146 C 0.94227 0.2173 0.2548 0.0
C147 C 0.97569 0.20395 0.23997 0.0
C148 C 0.95057 0.13261 0.2739 0.0
C149 C 0.979 0.16102 0.24994 0.0
C150 C 0.69313 0.1336 0.35789 0.0
C151 C 0.81645 0.20859 0.40551 0.0
C152 C 0.70906 0.25111 0.4202 0.0
C153 C 0.6908 0.28515 0.43164 0.0
C154 C 0.6728 0.31063 0.41356 0.0
C155 C 0.69112 0.29184 0.46139 0.0
C156 C 0.67156 0.32194 0.47337 0.0
C157 C 0.65555 0.34246 0.42514 0.0
C158 C 0.65443 0.34783 0.45485 0.0
C159 C 0.8806 0.30863 0.35035 0.0
H160 H 0.89689 0.12401 0.30721 0.0
H161 H 0.93915 0.25029 0.24767 0.0
H162 H 0.95366 0.09971 0.28116 0.0
H163 H 1.00341 0.14899 0.23902 0.0
H164 H 0.67126 0.3056 0.3906 0.0
H165 H 0.70558 0.27246 0.47517 0.0
H166 H 0.64154 0.36182 0.41107 0.0
H167 H 0.63803 0.37046 0.46318 0.0
Gd168 Gd 0.63632 0.816 0.67433 0.0
Gd169 Gd 0.50743 0.76218 0.70997 0.0
C170 C 0.36215 0.73321 0.66096 0.0
C171 C 0.35036 0.80402 0.67765 0.0
C172 C 0.42184 0.79447 0.69591 0.0
C173 C 0.40704 0.75184 0.67825 0.0
C174 C 0.39355 0.82087 0.69593 0.0
C175 C 0.33462 0.76021 0.66025 0.0
C176 C 0.34503 0.68678 0.64587 0.0
C177 C 0.37115 0.65904 0.64926 0.0
N178 N 0.43388 0.72596 0.67991 0.0
C179 C 0.41523 0.67886 0.66688 0.0
H180 H 0.43515 0.65711 0.66946 0.0
C181 C 0.47861 0.85006 0.73205 0.0
N182 N 0.46406 0.80996 0.71321 0.0
C183 C 0.45182 0.87755 0.73276 0.0
C184 C 0.40931 0.86312 0.71451 0.0
H185 H 0.51164 0.86164 0.74606 0.0
H186 H 0.30034 0.74677 0.64687 0.0
H187 H 0.68049 0.91908 0.71893 0.0
H188 H 0.31075 0.67118 0.63232 0.0
H189 H 0.35741 0.62241 0.6383 0.0
H190 H 0.32828 0.82398 0.67721 0.0
H191 H 0.66811 0.7395 0.63867 0.0
H192 H 0.81299 0.93519 0.76418 0.0
H193 H 0.74935 0.964 0.75483 0.0
H194 H 0.84323 0.807 0.72028 0.0
H195 H 0.46407 0.90996 0.74731 0.0
H196 H 0.38873 0.88459 0.71508 0.0
H197 H 0.8475 0.87597 0.75135 0.0
H198 H 0.73277 0.71033 0.6412 0.0
N199 N 0.70353 0.86398 0.70794 0.0
C200 C 0.78271 0.91517 0.74827 0.0
C201 C 0.74696 0.93162 0.74299 0.0
C202 C 0.77979 0.874 0.73235 0.0
C203 C 0.73945 0.8492 0.71198 0.0
C204 C 0.70785 0.9059 0.72242 0.0
N205 N 0.69887 0.78957 0.67477 0.0
C206 C 0.73699 0.81057 0.69477 0.0
C207 C 0.73432 0.73841 0.65651 0.0
C208 C 0.77269 0.75824 0.6778 0.0
C209 C 0.69788 0.75505 0.6551 0.0
C210 C 0.77481 0.79533 0.69706 0.0
H211 H 0.80101 0.74548 0.67881 0.0
O212 O 0.66277 0.82841 0.62975 0.0
O213 O 0.55163 0.77986 0.66929 0.0
O214 O 0.52009 0.69647 0.69793 0.0
O215 O 0.60813 0.73014 0.6851 0.0
O216 O 0.58979 0.76033 0.63887 0.0
O217 O 0.6686 0.89231 0.65414 0.0
O218 O 0.48246 0.74998 0.75451 0.0
O219 O 0.59173 0.78799 0.71532 0.0
O220 O 0.61232 0.87713 0.6851 0.0
O221 O 0.52254 0.82965 0.68295 0.0
O222 O 0.5601 0.81301 0.74595 0.0
O223 O 0.45267 0.68454 0.7251 0.0
C224 C 0.54526 0.75352 0.64687 0.0
C225 C 0.81404 0.81844 0.71799 0.0
C226 C 0.81647 0.8577 0.73566 0.0
C227 C 0.67679 0.8774 0.62936 0.0
C228 C 0.72614 0.91313 0.61432 0.0
C229 C 0.77313 0.91878 0.62446 0.0
C230 C 0.72657 0.94172 0.58969 0.0
C231 C 0.77402 0.97629 0.57561 0.0
C232 C 0.81977 0.95206 0.61052 0.0
C233 C 0.82032 0.98046 0.58645 0.0
C234 C 0.56067 0.69101 0.69187 0.0
C235 C 0.6014 0.81165 0.73895 0.0
C236 C 0.44848 0.701 0.75044 0.0
C237 C 0.39542 0.68446 0.76062 0.0
C238 C 0.35759 0.68246 0.74177 0.0
C239 C 0.38297 0.6728 0.78975 0.0
C240 C 0.33352 0.6608 0.8001 0.0
C241 C 0.30982 0.67353 0.75201 0.0
C242 C 0.29808 0.66364 0.78106 0.0
C243 C 0.56638 0.87382 0.68101 0.0
H244 H 0.77368 0.89729 0.64315 0.0
H245 H 0.69033 0.93773 0.5819 0.0
H246 H 0.85586 0.95593 0.61843 0.0
H247 H 0.85731 0.00555 0.57612 0.0
H248 H 0.36449 0.68752 0.71915 0.0
H249 H 0.41132 0.67169 0.80397 0.0
H250 H 0.28157 0.67362 0.73731 0.0
H251 H 0.26059 0.65688 0.78839 0.0
Gd252 Gd 0.81433 0.62839 1.00668 0.0
Gd253 Gd 0.7599 0.50195 0.04368 0.0
C254 C 0.65357 0.34251 1.00482 0.0
C255 C 0.57116 0.317 0.02843 0.0
C256 C 0.64744 0.40053 0.03905 0.0
C257 C 0.6765 0.39024 0.01963 0.0
C258 C 0.59451 0.36394 0.04374 0.0
C259 C 0.60063 0.30629 1.00904 0.0
C260 C 0.68487 0.332 0.98679 0.0
C261 C 0.73798 0.36783 0.9847 0.0
N262 N 0.72772 0.42586 0.01618 0.0
C263 C 0.75905 0.41435 1.00008 0.0
H264 H 0.80036 0.44131 0.99877 0.0
C265 C 0.64448 0.45741 0.07355 0.0
N266 N 0.67102 0.44648 0.05336 0.0
C267 C 0.59186 0.42238 0.07883 0.0
C268 C 0.56668 0.37555 0.06378 0.0
H269 H 0.66352 0.49354 0.08523 0.0
H270 H 0.5823 0.26953 0.99774 0.0
H271 H 0.74755 0.65721 0.05473 0.0
H272 H 0.66871 0.29582 0.97501 0.0
H273 H 0.7628 0.35952 0.9714 0.0
H274 H 0.53049 0.28847 0.03167 0.0
H275 H 0.92313 0.67378 0.96855 0.0
H276 H 0.85361 0.79878 0.09692 0.0
H277 H 0.76455 0.72431 0.09059 0.0
H278 H 0.01485 0.85299 0.04789 0.0
H279 H 0.57076 0.43154 0.0945 0.0
H280 H 0.52591 0.34851 0.06792 0.0
H281 H 0.94713 0.84634 0.08102 0.0
H282 H 0.01303 0.74859 0.96874 0.0
N283 N 0.82644 0.69225 0.04082 0.0
C284 C 0.84639 0.76934 0.08103 0.0
C285 C 0.79608 0.72743 0.07748 0.0
C286 C 0.88656 0.77331 0.06359 0.0
C287 C 0.87507 0.73379 0.04333 0.0
C288 C 0.78661 0.68939 0.05695 0.0
N289 N 0.89989 0.69917 1.00541 0.0
C290 C 0.91311 0.73729 0.02502 0.0
C291 C 0.98542 0.74577 0.98482 0.0
C292 C 1.00031 0.78428 1.00574 0.0
C293 C 0.93457 0.70358 0.98476 0.0
C294 C 0.96381 0.7807 0.02598 0.0
H295 H 0.03967 0.81703 1.00572 0.0
O296 O 0.82214 0.65297 0.96189 0.0
O297 O 0.77261 0.54323 1.00227 0.0
O298 O 0.83887 0.52407 0.02655 0.0
O299 O 0.88218 0.61311 0.01512 0.0
O300 O 0.82626 0.5856 0.97044 0.0
O301 O 0.7656 0.65733 0.98879 0.0
O302 O 0.7599 0.48125 0.08832 0.0
O303 O 0.80996 0.58786 0.04783 0.0
O304 O 0.72713 0.59274 0.01887 0.0
O305 O 0.69459 0.5038 0.02134 0.0
O306 O 0.75799 0.55111 0.08027 0.0
O307 O 0.79913 0.46005 0.05606 0.0
C308 C 0.79251 0.53968 0.97905 0.0
C309 C 0.97601 0.81953 0.04663 0.0
C310 C 0.93745 0.81578 0.06546 0.0
C311 C 0.78666 0.66634 0.9633 0.0
C312 C 0.79913 0.71612 0.94932 0.0
C313 C 0.83842 0.7629 0.96086 0.0
C314 C 0.7722 0.71727 0.92428 0.0
C315 C 0.78421 0.76519 0.91124 0.0
C316 C 0.85097 0.81001 0.94793 0.0
C317 C 0.82429 0.81125 0.92347 0.0
C318 C 0.8812 0.56842 0.02025 0.0
C319 C 0.79656 0.59506 0.07235 0.0
C320 C 0.7814 0.45335 0.08235 0.0
C321 C 0.7535 0.39985 0.09337 0.0
C322 C 0.73395 0.35679 0.07488 0.0
C323 C 0.74395 0.39182 0.12292 0.0
C324 C 0.71476 0.3414 0.13405 0.0
C325 C 0.70396 0.30664 0.08573 0.0
C326 C 0.69422 0.29885 0.11515 0.0
C327 C 0.68765 0.54388 0.01842 0.0
H328 H 0.85951 0.76297 0.97987 0.0
H329 H 0.74155 0.68121 0.91536 0.0
H330 H 0.88162 0.84591 0.95695 0.0
H331 H 0.8355 0.84861 0.91394 0.0
H332 H 0.74155 0.36156 0.05209 0.0
H333 H 0.75917 0.42495 0.13727 0.0
H334 H 0.68877 0.2737 0.07133 0.0
H335 H 0.67218 0.25949 0.12321 0.0
Gd336 Gd 0.18484 0.81219 0.3417 0.0
Gd337 Gd 0.25176 0.74919 0.37574 0.0
C338 C 0.28562 0.63136 0.33263 0.0
C339 C 0.22605 0.55148 0.35749 0.0
C340 C 0.2298 0.63251 0.37015 0.0
C341 C 0.26693 0.65827 0.34918 0.0
C342 C 0.20952 0.57898 0.37489 0.0
C343 C 0.26409 0.57764 0.33642 0.0
C344 C 0.32676 0.65956 0.31356 0.0
C345 C 0.34971 0.71344 0.31234 0.0
N346 N 0.28729 0.71028 0.3463 0.0
C347 C 0.33004 0.73833 0.32938 0.0
H348 H 0.34867 0.78001 0.32856 0.0
C349 C 0.18285 0.63777 0.40975 0.0
N350 N 0.21492 0.66033 0.38669 0.0
C351 C 0.16152 0.58474 0.41522 0.0
C352 C 0.17431 0.55503 0.39747 0.0
H353 H 0.17256 0.66027 0.42358 0.0
H354 H 0.27761 0.55625 0.32371 0.0
H355 H 0.09146 0.76101 0.39221 0.0
H356 H 0.34222 0.64036 0.30045 0.0
H357 H 0.38263 0.73587 0.29835 0.0
H358 H 0.21065 0.51027 0.36066 0.0
H359 H 0.25225 0.9129 0.29812 0.0
H360 H 0.08359 0.88484 0.43386 0.0
H361 H 0.05324 0.79118 0.42906 0.0
H362 H 0.20147 0.0344 0.37886 0.0
H363 H 0.13513 0.56681 0.43309 0.0
H364 H 0.15778 0.51398 0.40179 0.0
H365 H 0.13966 0.97573 0.4152 0.0
H366 H 0.28052 0.00643 0.29587 0.0
N367 N 0.14385 0.83685 0.3765 0.0
C368 C 0.10053 0.8718 0.41759 0.0
C369 C 0.08318 0.8189 0.41488 0.0
C370 C 0.1384 0.90706 0.39868 0.0
C371 C 0.15928 0.88803 0.37797 0.0
C372 C 0.10494 0.80193 0.39387 0.0
N373 N 0.21122 0.90055 0.33741 0.0
C374 C 0.19413 0.92098 0.35773 0.0
C375 C 0.25648 0.98291 0.3135 0.0
C376 C 0.24128 0.00517 0.33507 0.0
C377 C 0.24039 0.93004 0.3148 0.0
C378 C 0.20903 0.97398 0.35733 0.0
H379 H 0.25358 0.04607 0.33397 0.0
O380 O 0.1643 0.80622 0.29641 0.0
O381 O 0.21992 0.76267 0.33563 0.0
O382 O 0.31018 0.82468 0.35504 0.0
O383 O 0.27039 0.87533 0.34937 0.0
O384 O 0.23373 0.81774 0.30382 0.0
O385 O 0.10373 0.78107 0.32808 0.0
O386 O 0.27788 0.75115 0.41946 0.0
O387 O 0.22169 0.80397 0.38162 0.0
O388 O 0.12799 0.72822 0.35691 0.0
O389 O 0.17623 0.68589 0.35898 0.0
O390 O 0.20702 0.75265 0.41432 0.0
O391 O 0.33427 0.78561 0.38478 0.0
C392 C 0.24142 0.78051 0.3116 0.0
C393 C 0.1901 0.99369 0.37862 0.0
C394 C 0.15489 0.96028 0.3993 0.0
C395 C 0.1147 0.78626 0.30069 0.0
C396 C 0.08787 0.80522 0.28144 0.0
C397 C 0.09744 0.85613 0.28412 0.0
C398 C 0.05619 0.77389 0.25847 0.0
C399 C 0.03557 0.79403 0.23795 0.0
C400 C 0.07673 0.87595 0.26414 0.0
C401 C 0.04652 0.84547 0.24115 0.0
C402 C 0.31225 0.8696 0.35054 0.0
C403 C 0.20264 0.79177 0.40657 0.0
C404 C 0.32619 0.77002 0.41147 0.0
C405 C 0.35164 0.74148 0.42169 0.0
C406 C 0.37303 0.72059 0.40262 0.0
C407 C 0.35354 0.73423 0.45125 0.0
C408 C 0.37784 0.70766 0.46211 0.0
C409 C 0.39598 0.6929 0.41315 0.0
C410 C 0.39871 0.68664 0.44271 0.0
C411 C 0.13173 0.68542 0.35764 0.0
H412 H 0.12171 0.88084 0.30137 0.0
H413 H 0.049 0.73464 0.25606 0.0
H414 H 0.08461 0.91543 0.2663 0.0
H415 H 0.0312 0.86201 0.22592 0.0
H416 H 0.37232 0.72565 0.37968 0.0
H417 H 0.33615 0.74967 0.4658 0.0
H418 H 0.4125 0.67701 0.39837 0.0
H419 H 0.41858 0.66677 0.45031 0.0
Gd420 Gd 0.38059 0.18668 0.67459 0.0
Gd421 Gd 0.50741 0.26582 0.71157 0.0
C422 C 0.66987 0.32025 0.67586 0.0
C423 C 0.69747 0.26938 0.70392 0.0
C424 C 0.61175 0.2592 0.71141 0.0
C425 C 0.62141 0.2955 0.69014 0.0
C426 C 0.64971 0.24579 0.71856 0.0
C427 C 0.70755 0.30656 0.68264 0.0
C428 C 0.67958 0.35903 0.65575 0.0
C429 C 0.64219 0.37352 0.65103 0.0
N430 N 0.58431 0.30814 0.6842 0.0
C431 C 0.59494 0.34818 0.6659 0.0
H432 H 0.56708 0.36084 0.66266 0.0
C433 C 0.55427 0.20158 0.74662 0.0
N434 N 0.56492 0.23661 0.72497 0.0
C435 C 0.59064 0.18694 0.75435 0.0
C436 C 0.63851 0.20901 0.74022 0.0
H437 H 0.51741 0.18411 0.75767 0.0
H438 H 0.74487 0.32501 0.67181 0.0
H439 H 0.35525 0.09133 0.72228 0.0
H440 H 0.71628 0.37892 0.64433 0.0
H441 H 0.64985 0.40446 0.63612 0.0
H442 H 0.72704 0.25946 0.70905 0.0
H443 H 0.32941 0.24488 0.63637 0.0
H444 H 0.21691 0.05621 0.76823 0.0
H445 H 0.29073 0.04156 0.75956 0.0
H446 H 0.15813 0.16092 0.72122 0.0
H447 H 0.58173 0.15865 0.77122 0.0
H448 H 0.66658 0.19756 0.74627 0.0
H449 H 0.16813 0.10164 0.75411 0.0
H450 H 0.25385 0.25864 0.63846 0.0
N451 N 0.31902 0.13459 0.70969 0.0
C452 C 0.24511 0.07817 0.75167 0.0
C453 C 0.28663 0.0697 0.74678 0.0
C454 C 0.2398 0.114 0.73466 0.0
C455 C 0.27771 0.14167 0.71345 0.0
C456 C 0.32318 0.09806 0.72545 0.0
N457 N 0.30854 0.1994 0.67448 0.0
C458 C 0.27235 0.17528 0.69526 0.0
C459 C 0.25874 0.23538 0.65471 0.0
C460 C 0.22255 0.21304 0.67693 0.0
C461 C 0.30134 0.22746 0.65356 0.0
C462 C 0.22861 0.18184 0.69732 0.0
H463 H 0.18946 0.21904 0.67774 0.0
O464 O 0.35469 0.16879 0.63007 0.0
O465 O 0.46568 0.23111 0.67082 0.0
O466 O 0.48459 0.31799 0.6891 0.0
O467 O 0.39452 0.26961 0.68045 0.0
O468 O 0.42374 0.23641 0.63645 0.0
O469 O 0.35017 0.10834 0.65749 0.0
O470 O 0.53057 0.29427 0.75519 0.0
O471 O 0.42069 0.22684 0.71528 0.0
O472 O 0.41978 0.13852 0.68695 0.0
O473 O 0.50833 0.19755 0.69305 0.0
O474 O 0.45919 0.21791 0.74928 0.0
O475 O 0.54358 0.34821 0.72047 0.0
C476 C 0.46955 0.25002 0.64607 0.0
C477 C 0.19173 0.15597 0.71908 0.0
C478 C 0.19738 0.12217 0.73777 0.0
C479 C 0.34138 0.12003 0.63181 0.0
C480 C 0.29197 0.08234 0.6174 0.0
C481 C 0.24453 0.07382 0.62854 0.0
C482 C 0.29191 0.05526 0.59219 0.0
C483 C 0.2444 0.01927 0.57859 0.0
C484 C 0.19782 0.03918 0.61508 0.0
C485 C 0.19765 0.01223 0.59048 0.0
C486 C 0.43954 0.31429 0.6826 0.0
C487 C 0.41421 0.20807 0.74027 0.0
C488 C 0.55525 0.34268 0.74684 0.0
C489 C 0.61091 0.37257 0.75492 0.0
C490 C 0.64953 0.39709 0.73383 0.0
C491 C 0.62606 0.37282 0.78356 0.0
C492 C 0.67916 0.39433 0.79083 0.0
C493 C 0.70158 0.41572 0.74039 0.0
C494 C 0.71625 0.41315 0.76846 0.0
C495 C 0.46938 0.15 0.68895 0.0
H496 H 0.24364 0.09417 0.64762 0.0
H497 H 0.32849 0.06153 0.58354 0.0
H498 H 0.16139 0.03313 0.62379 0.0
H499 H 0.16056 0.98597 0.58057 0.0
H500 H 0.63974 0.40101 0.71206 0.0
H501 H 0.59621 0.35674 0.79994 0.0
H502 H 0.73071 0.43222 0.72363 0.0
H503 H 0.75702 0.42701 0.77252 0.0
H504 H 0.32484 0.8347 0.27857 0.0
H505 H 0.28011 0.60608 0.17384 0.0
H506 H 0.20433 0.67821 0.29765 0.0
H507 H 0.30665 0.75724 0.14814 0.0
H508 H 0.27792 0.62975 0.22418 0.0
H509 H 0.34926 0.80309 0.2365 0.0
C510 C 0.3047 0.79337 0.27431 0.0
C511 C 0.26304 0.75882 0.29151 0.0
C512 C 0.28504 0.65758 0.20727 0.0
C513 C 0.28923 0.72285 0.243 0.0
C514 C 0.28584 0.64417 0.17853 0.0
C515 C 0.29361 0.67964 0.15633 0.0
C516 C 0.29354 0.70712 0.21372 0.0
C517 C 0.30197 0.7288 0.1641 0.0
C518 C 0.31842 0.77545 0.25032 0.0
C519 C 0.23712 0.70574 0.28488 0.0
N520 N 0.30182 0.74097 0.19204 0.0
N521 N 0.25018 0.68921 0.26067 0.0
H522 H 0.49785 0.32786 0.60826 0.0
H523 H 0.64519 0.24155 0.51111 0.0
H524 H 0.54052 0.21795 0.6396 0.0
H525 H 0.67781 0.40025 0.50776 0.0
H526 H 0.61372 0.23467 0.55981 0.0
H527 H 0.56697 0.35757 0.5724 0.0
C528 C 0.52281 0.31102 0.60797 0.0
C529 C 0.5148 0.27164 0.62723 0.0
C530 C 0.62899 0.27142 0.54867 0.0
C531 C 0.59204 0.30354 0.58577 0.0
C532 C 0.64731 0.27561 0.52075 0.0
C533 C 0.66313 0.32129 0.50484 0.0
C534 C 0.62505 0.31255 0.56045 0.0
C535 C 0.66409 0.36361 0.51873 0.0
C536 C 0.56227 0.32803 0.58766 0.0
C537 C 0.54657 0.24938 0.6255 0.0
N538 N 0.64388 0.35777 0.54552 0.0
N539 N 0.58352 0.26518 0.60474 0.0
H540 H 0.15199 0.47709 0.94176 0.0
H541 H 0.39241 0.68732 0.85014 0.0
H542 H 0.31007 0.52177 0.96376 0.0
H543 H 0.2365 0.58743 0.81789 0.0
H544 H 0.36373 0.64586 0.89743 0.0
H545 H 0.18395 0.5395 0.90245 0.0
C546 C 0.19355 0.50103 0.9386 0.0
C547 C 0.22853 0.49534 0.95618 0.0
C548 C 0.336 0.63388 0.87992 0.0
C549 C 0.26542 0.56512 0.91068 0.0
C550 C 0.35225 0.65716 0.85291 0.0
C551 C 0.31691 0.64096 0.82978 0.0
C552 C 0.28404 0.59485 0.88377 0.0
C553 C 0.26513 0.60235 0.83494 0.0
C554 C 0.2118 0.53636 0.91614 0.0
C555 C 0.28208 0.52607 0.95089 0.0
N556 N 0.25044 0.5807 0.86128 0.0
N557 N 0.29909 0.55968 0.92832 0.0
H558 H 0.66923 0.16837 0.2844 0.0
H559 H 0.62756 0.27473 0.16466 0.0
H560 H 0.80463 0.31757 0.30043 0.0
H561 H 0.79005 0.38904 0.17483 0.0
H562 H 0.62429 0.25109 0.21522 0.0
H563 H 0.64488 0.20585 0.24516 0.0
C564 C 0.69281 0.20959 0.28011 0.0
C565 C 0.73851 0.24021 0.29565 0.0
C566 C 0.66073 0.28123 0.20644 0.0
C567 C 0.71156 0.28378 0.25065 0.0
C568 C 0.66246 0.2949 0.17763 0.0
C569 C 0.70947 0.33282 0.16543 0.0
C570 C 0.70673 0.30488 0.22284 0.0
C571 C 0.75311 0.35916 0.1833 0.0
C572 C 0.67874 0.23128 0.25783 0.0
C573 C 0.76863 0.29304 0.28913 0.0
N574 N 0.7509 0.34403 0.21099 0.0
N575 N 0.75501 0.31306 0.26675 0.0
H576 H 0.50345 0.66522 0.61592 0.0
H577 H 0.39696 0.7826 0.50209 0.0
H578 H 0.49359 0.80293 0.63019 0.0
H579 H 0.37531 0.62839 0.49401 0.0
H580 H 0.4189 0.78347 0.55225 0.0
H581 H 0.44468 0.64371 0.57476 0.0
C582 C 0.48764 0.69009 0.61073 0.0
C583 C 0.50234 0.73533 0.62651 0.0
C584 C 0.40858 0.74903 0.53969 0.0
C585 C 0.43701 0.7123 0.57928 0.0
C586 C 0.39568 0.74833 0.51093 0.0
C587 C 0.38491 0.70557 0.49353 0.0
C588 C 0.41207 0.70727 0.55109 0.0
C589 C 0.38484 0.66282 0.50635 0.0
C590 C 0.45417 0.67789 0.58735 0.0
C591 C 0.48204 0.76711 0.61889 0.0
N592 N 0.39919 0.66512 0.53427 0.0
N593 N 0.45078 0.75527 0.59555 0.0
H594 H 0.69042 0.47003 0.96614 0.0
H595 H 0.77253 0.4688 0.81352 0.0
H596 H 0.84856 0.51271 0.94581 0.0
H597 H 0.62568 0.33609 0.8391 0.0
H598 H 0.79865 0.48393 0.86301 0.0
H599 H 0.66109 0.41642 0.92241 0.0
C600 C 0.71859 0.4664 0.95308 0.0
C601 C 0.77194 0.4958 0.95922 0.0
C602 C 0.76102 0.45087 0.85777 0.0
C603 C 0.73921 0.43654 0.90941 0.0
C604 C 0.74592 0.44171 0.8292 0.0
C605 C 0.69653 0.40067 0.82146 0.0
C606 C 0.72608 0.4203 0.87924 0.0
C607 C 0.6636 0.369 0.84372 0.0
C608 C 0.70192 0.43595 0.9282 0.0
C609 C 0.80716 0.49078 0.94151 0.0
N610 N 0.67851 0.3802 0.87172 0.0
N611 N 0.7903 0.46254 0.91707 0.0
H612 H 0.39504 0.54058 1.00063 0.0
H613 H 0.60359 0.44968 1.00583 0.0
H614 H 0.3534 0.38498 0.02598 0.0
H615 H 0.64543 0.60848 0.02272 0.0
H616 H 0.51234 0.42509 1.00525 0.0
H617 H 0.48624 0.56493 1.00064 0.0
C618 C 0.40492 0.51135 1.00637 0.0
C619 C 0.36614 0.46076 0.01409 0.0
C620 C 0.54137 0.46527 1.00914 0.0
C621 C 0.47147 0.48856 1.01305 0.0
C622 C 0.59377 0.47959 1.00961 0.0
C623 C 0.63266 0.53127 0.0151 0.0
C624 C 0.52721 0.50301 0.01332 0.0
C625 C 0.617 0.56823 0.01863 0.0
C626 C 0.45727 0.5255 1.00625 0.0
C627 C 0.38178 0.42442 0.02011 0.0
N628 N 0.56539 0.55337 0.01764 0.0
N629 N 0.43335 0.43904 0.01944 0.0
H630 H 0.08258 0.63322 0.3092 0.0
H631 H 0.96091 0.35855 0.38848 0.0
H632 H 0.08032 0.61812 0.40126 0.0
H633 H 0.90358 0.37619 0.30668 0.0
H634 H 0.01985 0.45324 0.39022 0.0
H635 H 0.02604 0.53863 0.3052 0.0
C636 C 0.06866 0.61006 0.3286 0.0
C637 C 0.08526 0.63339 0.35562 0.0
C638 C 0.99515 0.43614 0.3716 0.0
C639 C 0.02377 0.52521 0.35121 0.0
C640 C 0.96252 0.3821 0.37031 0.0
C641 C 0.92822 0.35959 0.34713 0.0
C642 C 0.99361 0.46755 0.34941 0.0
C643 C 0.93016 0.39206 0.32467 0.0
C644 C 0.03729 0.5561 0.32631 0.0
C645 C 0.068 0.60151 0.38006 0.0
N646 N 0.96205 0.44434 0.32639 0.0
N647 N 0.03877 0.54899 0.3773 0.0
H648 H 0.56751 0.16512 0.68366 0.0
H649 H 0.4885 0.87536 0.65178 0.0
H650 H 0.40661 0.04277 0.6846 0.0
H651 H 0.62777 0.97524 0.69992 0.0
H652 H 0.46401 0.94193 0.65324 0.0
H653 H 0.59457 0.10103 0.68046 0.0
C654 C 0.53757 0.12475 0.68363 0.0
C655 C 0.4844 0.10958 0.68536 0.0
C656 C 0.50016 0.94953 0.66322 0.0
C657 C 0.51594 0.03564 0.68012 0.0
C658 C 0.51459 0.91181 0.66224 0.0
C659 C 0.56013 0.9195 0.67609 0.0
C660 C 0.53204 0.99613 0.67751 0.0
C661 C 0.59251 0.96775 0.68893 0.0
C662 C 0.5534 0.08817 0.68155 0.0
C663 C 0.44792 0.0564 0.68367 0.0
N664 N 0.57772 0.00439 0.68942 0.0
N665 N 0.4644 0.02125 0.68101 0.0
H666 H 0.59805 0.64437 0.65497 0.0
H667 H 0.38898 0.35758 0.71012 0.0
H668 H 0.49239 0.61251 0.7257 0.0
H669 H 0.50334 0.38722 0.64488 0.0
H670 H 0.4197 0.45107 0.71193 0.0
H671 H 0.56154 0.55027 0.64872 0.0
C672 C 0.56811 0.61773 0.66954 0.0
C673 C 0.54836 0.63629 0.69089 0.0
C674 C 0.43738 0.43699 0.69675 0.0
C675 C 0.50518 0.52895 0.68336 0.0
C676 C 0.41903 0.38352 0.69536 0.0
C677 C 0.44319 0.36473 0.67705 0.0
C678 C 0.4803 0.47165 0.67982 0.0
C679 C 0.48328 0.4002 0.65902 0.0
C680 C 0.54665 0.56403 0.66573 0.0
C681 C 0.50865 0.59991 0.70883 0.0
N682 N 0.50095 0.45189 0.66104 0.0
N683 N 0.48827 0.54824 0.70457 0.0
H684 H 0.06155 0.42722 0.06237 0.0
H685 H 0.93296 0.56518 0.97243 0.0
H686 H 0.07707 0.44681 0.97064 0.0
H687 H 0.93025 0.55363 0.06467 0.0
H688 H 0.9864 0.5233 0.97043 0.0
H689 H 0.00811 0.46855 0.06273 0.0
C690 C 0.0517 0.43822 0.04212 0.0
C691 C 0.07248 0.43227 0.01634 0.0
C692 C 0.97514 0.53101 0.99116 0.0
C693 C 0.01399 0.48274 0.01663 0.0
C694 C 0.94561 0.55592 0.99228 0.0
C695 C 0.92847 0.56415 0.01879 0.0
C696 C 0.98689 0.51364 0.01674 0.0
C697 C 0.94394 0.54928 0.04385 0.0
C698 C 0.02222 0.46297 0.04236 0.0
C699 C 0.06071 0.44957 0.99086 0.0
N700 N 0.97177 0.52443 0.04222 0.0
N701 N 0.03259 0.47437 0.99162 0.0
H702 H 0.38816 0.87011 0.31812 0.0
H703 H 0.61366 0.13065 0.38826 0.0
H704 H 0.35879 0.96832 0.37359 0.0
H705 H 0.64425 0.04253 0.32562 0.0
H706 H 0.52097 0.07125 0.3831 0.0
H707 H 0.48092 0.93344 0.31908 0.0
C708 C 0.40118 0.90565 0.33007 0.0
C709 C 0.36553 0.91391 0.34579 0.0
C710 C 0.5477 0.06464 0.37046 0.0
C711 C 0.47261 0.98646 0.3476 0.0
C712 C 0.601 0.09856 0.37343 0.0
C713 C 0.63733 0.092 0.3572 0.0
C714 C 0.52971 0.02312 0.35116 0.0
C715 C 0.61799 0.04906 0.33871 0.0
C716 C 0.45436 0.9417 0.33075 0.0
C717 C 0.38476 0.96062 0.36093 0.0
N718 N 0.56548 0.01634 0.33613 0.0
N719 N 0.4371 0.99486 0.36174 0.0
H720 H 0.35634 0.25803 0.74051 0.0
H721 H 0.25091 0.16187 0.90114 0.0
H722 H 0.38652 0.1536 0.79002 0.0
H723 H 0.24404 0.28912 0.86134 0.0
H724 H 0.29276 0.15314 0.85818 0.0
H725 H 0.30597 0.2633 0.78127 0.0
C726 C 0.3514 0.23531 0.75967 0.0
C727 C 0.37527 0.20482 0.76173 0.0
C728 C 0.28223 0.18309 0.85869 0.0
C729 C 0.31877 0.21164 0.80871 0.0
C730 C 0.25811 0.18807 0.88332 0.0
C731 C 0.24351 0.22622 0.88505 0.0
C732 C 0.29208 0.21628 0.83509 0.0
C733 C 0.25483 0.25938 0.86118 0.0
C734 C 0.32316 0.23881 0.78307 0.0
C735 C 0.36852 0.17723 0.78737 0.0
N736 N 0.27814 0.25351 0.83719 0.0
N737 N 0.34114 0.18131 0.80968 0.0
H738 H 0.94744 0.24079 0.19234 0.0
H739 H 0.23208 0.37582 0.12085 0.0
H740 H 0.0782 0.23576 0.2291 0.0
H741 H 0.09678 0.35024 0.07319 0.0
H742 H 0.17591 0.32676 0.16115 0.0
H743 H 1.00088 0.28476 0.14969 0.0
C744 C 0.9874 0.24925 0.19161 0.0
C745 C 0.00807 0.23421 0.21449 0.0
C746 C 0.1582 0.33129 0.14183 0.0
C747 C 0.06959 0.28447 0.16553 0.0
C748 C 0.19036 0.35918 0.11872 0.0
C749 C 0.16924 0.3667 0.09341 0.0
C750 C 0.10416 0.31153 0.14016 0.0
C751 C 0.1148 0.3448 0.09209 0.0
C752 C 0.01778 0.27394 0.16711 0.0
C753 C 0.06014 0.24593 0.21202 0.0
N754 N 0.08424 0.31865 0.11517 0.0
N755 N 0.08884 0.27028 0.18823 0.0
H756 H 0.70991 0.94915 0.52735 0.0
H757 H 0.87491 0.23146 0.45401 0.0
H758 H 0.84556 0.07852 0.56507 0.0
H759 H 0.75086 0.10172 0.40933 0.0
H760 H 0.86389 0.1745 0.49453 0.0
H761 H 0.72144 1.00287 0.48452 0.0
C762 C 0.74181 0.98885 0.52682 0.0
C763 C 0.77695 0.00893 0.55002 0.0
C764 C 0.8392 0.15809 0.47585 0.0
C765 C 0.79069 0.07077 0.50075 0.0
C766 C 0.84572 0.19071 0.45258 0.0
C767 C 0.81416 0.17148 0.42805 0.0
C768 C 0.80006 0.10546 0.47512 0.0
C769 C 0.77654 0.11824 0.42763 0.0
C770 C 0.74865 0.0194 0.5022 0.0
C771 C 0.8178 0.06072 0.54775 0.0
N772 N 0.77031 0.08724 0.45083 0.0
N773 N 0.82341 0.08947 0.52379 0.0
H774 H 0.63212 0.86714 0.78859 0.0
H775 H 0.75364 0.70548 0.86137 0.0
H776 H 0.64589 0.74908 0.7427 0.0
H777 H 0.74987 0.83397 0.90152 0.0
H778 H 0.71339 0.71846 0.81808 0.0
H779 H 0.67656 0.85532 0.82971 0.0
C780 C 0.64516 0.83915 0.78703 0.0
C781 C 0.63552 0.80946 0.762 0.0
C782 C 0.72143 0.74377 0.8364 0.0
C783 C 0.68566 0.79442 0.80966 0.0
C784 C 0.74401 0.73607 0.86126 0.0
C785 C 0.75567 0.76882 0.88529 0.0
C786 C 0.70987 0.78427 0.83553 0.0
C787 C 0.74253 0.80812 0.88356 0.0
C788 C 0.67039 0.83216 0.81063 0.0
C789 C 0.65295 0.77331 0.7614 0.0
N790 N 0.72058 0.81463 0.85933 0.0
N791 N 0.67681 0.76657 0.78488 0.0
H792 H 0.9435 0.70081 0.23878 0.0
H793 H 0.90357 0.66145 0.06907 0.0
H794 H 0.0521 0.81679 0.18035 0.0
H795 H 0.77432 0.60692 0.12767 0.0
H796 H 0.96301 0.71074 0.10866 0.0
H797 H 0.88581 0.65532 0.19782 0.0
C798 C 0.95557 0.71624 0.21729 0.0
C799 C 1.0028 0.76261 0.21303 0.0
C800 C 0.92156 0.68834 0.11274 0.0
C801 C 0.93698 0.71066 0.16593 0.0
C802 C 0.88749 0.66065 0.09004 0.0
C803 C 0.8335 0.6308 0.09475 0.0
C804 C 0.90186 0.6846 0.1407 0.0
C805 C 0.81545 0.62978 0.12285 0.0
C806 C 0.92244 0.69057 0.19395 0.0
C807 C 0.01607 0.78116 0.18464 0.0
N808 N 0.84938 0.65562 0.14469 0.0
N809 N 0.98364 0.75507 0.16222 0.0
H810 H 0.30494 0.05021 0.52883 0.0
H811 H 0.14886 0.7665 0.45651 0.0
H812 H 0.17693 0.91601 0.56842 0.0
H813 H 0.26217 0.89981 0.40915 0.0
H814 H 0.15969 0.82251 0.49733 0.0
H815 H 0.29317 0.99785 0.48534 0.0
C816 C 0.27472 0.00976 0.52856 0.0
C817 C 0.24175 0.98785 0.55251 0.0
C818 C 0.18201 0.83996 0.47801 0.0
C819 C 0.22772 0.9276 0.50253 0.0
C820 C 0.17556 0.80785 0.45456 0.0
C821 C 0.20408 0.82833 0.42916 0.0
C822 C 0.21824 0.89344 0.47664 0.0
C823 C 0.23872 0.88231 0.42811 0.0
C824 C 0.2677 0.97998 0.50357 0.0
C825 C 0.20296 0.93516 0.55056 0.0
N826 N 0.2451 0.91289 0.45154 0.0
N827 N 0.19717 0.90723 0.52626 0.0
loop_
_geom_bond_atom_site_label_1
_geom_bond_atom_site_label_2
_geom_bond_distance
_geom_bond_site_symmetry_2
_ccdc_geom_bond_type
Gd0 N31 2.661 1_556 S
Gd0 N37 2.601 . S
Gd0 O44 2.545 . S
Gd0 O45 2.606 . S
Gd0 O47 2.429 . S
Gd0 O48 2.545 . S
Gd0 O49 2.412 . S
Gd0 O51 2.362 1_556 S
Gd0 O52 2.324 1_556 S
Gd0 C59 2.828 . S
Gd1 N10 2.661 . S
Gd1 N14 2.601 . S
Gd1 O45 2.362 1_554 S
Gd1 O46 2.324 . S
Gd1 O50 2.545 . S
Gd1 O51 2.606 . S
Gd1 O53 2.429 . S
Gd1 O54 2.545 . S
Gd1 O55 2.412 . S
Gd1 C68 2.828 . S
C2 C5 1.417 1_556 S
C2 C7 1.431 . S
C2 C8 1.412 . S
C3 C6 1.437 . S
C3 C7 1.317 1_554 S
C3 H22 0.929 . S
C4 C5 1.426 . S
C4 C6 1.413 . S
C4 N14 1.359 . S
C5 C2 1.417 1_554 S
C5 C4 1.426 . S
C5 N10 1.350 . S
C6 C3 1.437 . S
C6 C4 1.413 . S
C6 C16 1.391 . S
C7 C2 1.431 . S
C7 C3 1.317 1_556 S
C7 H18 0.930 . S
C8 C2 1.412 . S
C8 C9 1.355 . S
C8 H20 0.930 . S
C9 C8 1.355 . S
C9 C11 1.402 . S
C9 H21 0.930 . S
N10 Gd1 2.661 . S
N10 C5 1.350 . S
N10 C11 1.307 1_554 S
C11 C9 1.402 . S
C11 N10 1.307 1_556 S
C11 H12 0.930 . S
H12 C11 0.930 . S
C13 N14 1.334 . S
C13 C15 1.394 . S
C13 H17 0.930 . S
N14 Gd1 2.601 . S
N14 C4 1.359 . S
N14 C13 1.334 . S
C15 C13 1.394 . S
C15 C16 1.359 . S
C15 H27 0.930 . S
C16 C6 1.391 . S
C16 C15 1.359 . S
C16 H28 0.929 . S
H17 C13 0.930 . S
H18 C7 0.930 . S
H19 C36 0.930 . S
H20 C8 0.930 . S
H21 C9 0.930 . S
H22 C3 0.929 . S
H23 C41 0.930 . S
H24 C32 0.930 . S
H25 C33 0.930 . S
H26 C57 0.929 1_655 S
H27 C15 0.930 . S
H28 C16 0.929 . S
H29 C58 0.930 . S
H30 C39 0.930 . S
N31 Gd0 2.661 1_554 S
N31 C35 1.350 . S
N31 C36 1.307 . S
C32 H24 0.930 . S
C32 C33 1.355 . S
C32 C34 1.412 . S
C33 H25 0.930 . S
C33 C32 1.355 . S
C33 C36 1.402 . S
C34 C32 1.412 . S
C34 C35 1.417 . S
C34 C58 1.431 . S
C35 N31 1.350 . S
C35 C34 1.417 . S
C35 C38 1.426 . S
C36 H19 0.930 . S
C36 N31 1.307 . S
C36 C33 1.402 . S
N37 Gd0 2.601 . S
N37 C38 1.359 1_556 S
N37 C41 1.334 . S
C38 C35 1.426 . S
C38 N37 1.359 1_554 S
C38 C42 1.413 . S
C39 H30 0.930 . S
C39 C40 1.359 . S
C39 C41 1.394 1_655 S
C40 C39 1.359 . S
C40 C42 1.391 1_656 S
C40 H43 0.929 . S
C41 H23 0.930 . S
C41 N37 1.334 . S
C41 C39 1.394 1_455 S
C42 C38 1.413 . S
C42 C40 1.391 1_454 S
C42 C57 1.437 . S
H43 C40 0.929 . S
O44 Gd0 2.545 . S
O44 C59 1.258 . S
O45 Gd0 2.606 . S
O45 Gd1 2.362 1_556 S
O45 C56 1.284 . S
O46 Gd1 2.324 . S
O46 C66 1.254 . S
O47 Gd0 2.429 . S
O47 C66 1.268 1_556 S
O48 Gd0 2.545 . S
O48 C56 1.250 . S
O49 Gd0 2.412 . S
O49 C59 1.252 . S
O50 Gd1 2.545 . S
O50 C68 1.258 . S
O51 Gd0 2.362 1_554 S
O51 Gd1 2.606 . S
O51 C67 1.284 . S
O52 Gd0 2.324 1_554 S
O52 C75 1.254 . S
O53 Gd1 2.429 . S
O53 C75 1.268 . S
O54 Gd1 2.545 . S
O54 C67 1.250 . S
O55 Gd1 2.412 . S
O55 C68 1.252 . S
C56 O45 1.284 . S
C56 O48 1.250 . S
C57 H26 0.929 1_455 S
C57 C42 1.437 . S
C57 C58 1.317 . S
C58 H29 0.930 . S
C58 C34 1.431 . S
C58 C57 1.317 . S
C59 Gd0 2.828 . S
C59 O44 1.258 . S
C59 O49 1.252 . S
C59 C60 1.497 . S
C60 C59 1.497 . S
C60 C61 1.395 . S
C60 C62 1.380 . S
C61 C60 1.395 . S
C61 C64 1.398 . S
C61 H76 0.930 . S
C62 C60 1.380 . S
C62 C63 1.391 . S
C62 H77 0.930 . S
C63 C62 1.391 . S
C63 C65 1.387 . S
C64 C61 1.398 . S
C64 C65 1.380 . S
C64 H78 0.930 . S
C65 C63 1.387 . S
C65 C64 1.380 . S
C65 H79 0.930 . S
C66 O46 1.254 . S
C66 O47 1.268 1_554 S
C67 O51 1.284 . S
C67 O54 1.250 . S
C68 Gd1 2.828 . S
C68 O50 1.258 . S
C68 O55 1.252 . S
C68 C69 1.497 . S
C69 C68 1.497 . S
C69 C70 1.395 . S
C69 C71 1.380 . S
C70 C69 1.395 . S
C70 C73 1.398 . S
C70 H80 0.930 . S
C71 C69 1.380 . S
C71 C72 1.391 . S
C71 H81 0.930 . S
C72 C71 1.391 . S
C72 C74 1.387 . S
C73 C70 1.398 . S
C73 C74 1.380 . S
C73 H82 0.930 . S
C74 C72 1.387 . S
C74 C73 1.380 . S
C74 H83 0.930 . S
C75 O52 1.254 . S
C75 O53 1.268 . S
H76 C61 0.930 . S
H77 C62 0.930 . S
H78 C64 0.930 . S
H79 C65 0.930 . S
H80 C70 0.930 . S
H81 C71 0.930 . S
H82 C73 0.930 . S
H83 C74 0.930 . S
Gd84 N115 2.661 . S
Gd84 N121 2.601 . S
Gd84 O128 2.545 . S
Gd84 O129 2.606 . S
Gd84 O131 2.429 . S
Gd84 O132 2.545 . S
Gd84 O133 2.412 . S
Gd84 O135 2.362 . S
Gd84 O136 2.324 . S
Gd84 C143 2.828 . S
Gd85 N94 2.661 . S
Gd85 N98 2.601 . S
Gd85 O129 2.362 . S
Gd85 O130 2.324 . S
Gd85 O134 2.545 . S
Gd85 O135 2.606 . S
Gd85 O137 2.429 . S
Gd85 O138 2.545 . S
Gd85 O139 2.412 . S
Gd85 C152 2.828 . S
C86 C89 1.417 . S
C86 C91 1.431 . S
C86 C92 1.412 . S
C87 C90 1.437 . S
C87 C91 1.317 . S
C87 H106 0.929 . S
C88 C89 1.426 . S
C88 C90 1.413 . S
C88 N98 1.359 . S
C89 C86 1.417 . S
C89 C88 1.426 . S
C89 N94 1.350 . S
C90 C87 1.437 . S
C90 C88 1.413 . S
C90 C100 1.391 . S
C91 C86 1.431 . S
C91 C87 1.317 . S
C91 H102 0.930 . S
C92 C86 1.412 . S
C92 C93 1.355 . S
C92 H104 0.930 . S
C93 C92 1.355 . S
C93 C95 1.402 . S
C93 H105 0.930 . S
N94 Gd85 2.661 . S
N94 C89 1.350 . S
N94 C95 1.307 . S
C95 C93 1.402 . S
C95 N94 1.307 . S
C95 H96 0.930 . S
H96 C95 0.930 . S
C97 N98 1.334 . S
C97 C99 1.394 . S
C97 H101 0.930 . S
N98 Gd85 2.601 . S
N98 C88 1.359 . S
N98 C97 1.334 . S
C99 C97 1.394 . S
C99 C100 1.359 . S
C99 H111 0.930 . S
C100 C90 1.391 . S
C100 C99 1.359 . S
C100 H112 0.929 . S
H101 C97 0.930 . S
H102 C91 0.930 . S
H103 C120 0.930 . S
H104 C92 0.930 . S
H105 C93 0.930 . S
H106 C87 0.929 . S
H107 C125 0.930 . S
H108 C116 0.930 . S
H109 C117 0.930 . S
H110 C141 0.929 1_565 S
H111 C99 0.930 . S
H112 C100 0.929 . S
H113 C142 0.930 . S
H114 C123 0.930 . S
N115 Gd84 2.661 . S
N115 C119 1.350 . S
N115 C120 1.307 . S
C116 H108 0.930 . S
C116 C117 1.355 . S
C116 C118 1.412 . S
C117 H109 0.930 . S
C117 C116 1.355 . S
C117 C120 1.402 . S
C118 C116 1.412 . S
C118 C119 1.417 . S
C118 C142 1.431 . S
C119 N115 1.350 . S
C119 C118 1.417 . S
C119 C122 1.426 . S
C120 H103 0.930 . S
C120 N115 1.307 . S
C120 C117 1.402 . S
N121 Gd84 2.601 . S
N121 C122 1.359 . S
N121 C125 1.334 . S
C122 C119 1.426 . S
C122 N121 1.359 . S
C122 C126 1.413 . S
C123 H114 0.930 . S
C123 C124 1.359 . S
C123 C125 1.394 1_565 S
C124 C123 1.359 . S
C124 C126 1.391 1_565 S
C124 H127 0.929 . S
C125 H107 0.930 . S
C125 N121 1.334 . S
C125 C123 1.394 1_545 S
C126 C122 1.413 . S
C126 C124 1.391 1_545 S
C126 C141 1.437 . S
H127 C124 0.929 . S
O128 Gd84 2.545 . S
O128 C143 1.258 . S
O129 Gd84 2.606 . S
O129 Gd85 2.362 . S
O129 C140 1.284 . S
O130 Gd85 2.324 . S
O130 C150 1.254 . S
O131 Gd84 2.429 . S
O131 C150 1.268 . S
O132 Gd84 2.545 . S
O132 C140 1.250 . S
O133 Gd84 2.412 . S
O133 C143 1.252 . S
O134 Gd85 2.545 . S
O134 C152 1.258 . S
O135 Gd84 2.362 . S
O135 Gd85 2.606 . S
O135 C151 1.284 . S
O136 Gd84 2.324 . S
O136 C159 1.254 . S
O137 Gd85 2.429 . S
O137 C159 1.268 . S
O138 Gd85 2.545 . S
O138 C151 1.250 . S
O139 Gd85 2.412 . S
O139 C152 1.252 . S
C140 O129 1.284 . S
C140 O132 1.250 . S
C141 H110 0.929 1_545 S
C141 C126 1.437 . S
C141 C142 1.317 . S
C142 H113 0.930 . S
C142 C118 1.431 . S
C142 C141 1.317 . S
C143 Gd84 2.828 . S
C143 O128 1.258 . S
C143 O133 1.252 . S
C143 C144 1.497 . S
C144 C143 1.497 . S
C144 C145 1.395 . S
C144 C146 1.380 . S
C145 C144 1.395 . S
C145 C148 1.398 . S
C145 H160 0.930 . S
C146 C144 1.380 . S
C146 C147 1.391 . S
C146 H161 0.930 . S
C147 C146 1.391 . S
C147 C149 1.387 . S
C148 C145 1.398 . S
C148 C149 1.380 . S
C148 H162 0.930 . S
C149 C147 1.387 . S
C149 C148 1.380 . S
C149 H163 0.930 . S
C150 O130 1.254 . S
C150 O131 1.268 . S
C151 O135 1.284 . S
C151 O138 1.250 . S
C152 Gd85 2.828 . S
C152 O134 1.258 . S
C152 O139 1.252 . S
C152 C153 1.497 . S
C153 C152 1.497 . S
C153 C154 1.395 . S
C153 C155 1.380 . S
C154 C153 1.395 . S
C154 C157 1.398 . S
C154 H164 0.930 . S
C155 C153 1.380 . S
C155 C156 1.391 . S
C155 H165 0.930 . S
C156 C155 1.391 . S
C156 C158 1.387 . S
C157 C154 1.398 . S
C157 C158 1.380 . S
C157 H166 0.930 . S
C158 C156 1.387 . S
C158 C157 1.380 . S
C158 H167 0.930 . S
C159 O136 1.254 . S
C159 O137 1.268 . S
H160 C145 0.930 . S
H161 C146 0.930 . S
H162 C148 0.930 . S
H163 C149 0.930 . S
H164 C154 0.930 . S
H165 C155 0.930 . S
H166 C157 0.930 . S
H167 C158 0.930 . S
Gd168 N199 2.661 . S
Gd168 N205 2.601 . S
Gd168 O212 2.545 . S
Gd168 O213 2.606 . S
Gd168 O215 2.429 . S
Gd168 O216 2.545 . S
Gd168 O217 2.412 . S
Gd168 O219 2.362 . S
Gd168 O220 2.324 . S
Gd168 C227 2.828 . S
Gd169 N178 2.661 . S
Gd169 N182 2.601 . S
Gd169 O213 2.362 . S
Gd169 O214 2.324 . S
Gd169 O218 2.545 . S
Gd169 O219 2.606 . S
Gd169 O221 2.429 . S
Gd169 O222 2.545 . S
Gd169 O223 2.412 . S
Gd169 C236 2.828 . S
C170 C173 1.417 . S
C170 C175 1.431 . S
C170 C176 1.412 . S
C171 C174 1.437 . S
C171 C175 1.317 . S
C171 H190 0.929 . S
C172 C173 1.426 . S
C172 C174 1.413 . S
C172 N182 1.359 . S
C173 C170 1.417 . S
C173 C172 1.426 . S
C173 N178 1.350 . S
C174 C171 1.437 . S
C174 C172 1.413 . S
C174 C184 1.391 . S
C175 C170 1.431 . S
C175 C171 1.317 . S
C175 H186 0.930 . S
C176 C170 1.412 . S
C176 C177 1.355 . S
C176 H188 0.930 . S
C177 C176 1.355 . S
C177 C179 1.402 . S
C177 H189 0.930 . S
N178 Gd169 2.661 . S
N178 C173 1.350 . S
N178 C179 1.307 . S
C179 C177 1.402 . S
C179 N178 1.307 . S
C179 H180 0.930 . S
H180 C179 0.930 . S
C181 N182 1.334 . S
C181 C183 1.394 . S
C181 H185 0.930 . S
N182 Gd169 2.601 . S
N182 C172 1.359 . S
N182 C181 1.334 . S
C183 C181 1.394 . S
C183 C184 1.359 . S
C183 H195 0.930 . S
C184 C174 1.391 . S
C184 C183 1.359 . S
C184 H196 0.929 . S
H185 C181 0.930 . S
H186 C175 0.930 . S
H187 C204 0.930 . S
H188 C176 0.930 . S
H189 C177 0.930 . S
H190 C171 0.929 . S
H191 C209 0.930 . S
H192 C200 0.930 . S
H193 C201 0.930 . S
H194 C225 0.929 . S
H195 C183 0.930 . S
H196 C184 0.929 . S
H197 C226 0.930 . S
H198 C207 0.930 . S
N199 Gd168 2.661 . S
N199 C203 1.350 . S
N199 C204 1.307 . S
C200 H192 0.930 . S
C200 C201 1.355 . S
C200 C202 1.412 . S
C201 H193 0.930 . S
C201 C200 1.355 . S
C201 C204 1.402 . S
C202 C200 1.412 . S
C202 C203 1.417 . S
C202 C226 1.431 . S
C203 N199 1.350 . S
C203 C202 1.417 . S
C203 C206 1.426 . S
C204 H187 0.930 . S
C204 N199 1.307 . S
C204 C201 1.402 . S
N205 Gd168 2.601 . S
N205 C206 1.359 . S
N205 C209 1.334 . S
C206 C203 1.426 . S
C206 N205 1.359 . S
C206 C210 1.413 . S
C207 H198 0.930 . S
C207 C208 1.359 . S
C207 C209 1.394 . S
C208 C207 1.359 . S
C208 C210 1.391 . S
C208 H211 0.929 . S
C209 H191 0.930 . S
C209 N205 1.334 . S
C209 C207 1.394 . S
C210 C206 1.413 . S
C210 C208 1.391 . S
C210 C225 1.437 . S
H211 C208 0.929 . S
O212 Gd168 2.545 . S
O212 C227 1.258 . S
O213 Gd168 2.606 . S
O213 Gd169 2.362 . S
O213 C224 1.284 . S
O214 Gd169 2.324 . S
O214 C234 1.254 . S
O215 Gd168 2.429 . S
O215 C234 1.268 . S
O216 Gd168 2.545 . S
O216 C224 1.250 . S
O217 Gd168 2.412 . S
O217 C227 1.252 . S
O218 Gd169 2.545 . S
O218 C236 1.258 . S
O219 Gd168 2.362 . S
O219 Gd169 2.606 . S
O219 C235 1.284 . S
O220 Gd168 2.324 . S
O220 C243 1.254 . S
O221 Gd169 2.429 . S
O221 C243 1.268 . S
O222 Gd169 2.545 . S
O222 C235 1.250 . S
O223 Gd169 2.412 . S
O223 C236 1.252 . S
C224 O213 1.284 . S
C224 O216 1.250 . S
C225 H194 0.929 . S
C225 C210 1.437 . S
C225 C226 1.317 . S
C226 H197 0.930 . S
C226 C202 1.431 . S
C226 C225 1.317 . S
C227 Gd168 2.828 . S
C227 O212 1.258 . S
C227 O217 1.252 . S
C227 C228 1.497 . S
C228 C227 1.497 . S
C228 C229 1.395 . S
C228 C230 1.380 . S
C229 C228 1.395 . S
C229 C232 1.398 . S
C229 H244 0.930 . S
C230 C228 1.380 . S
C230 C231 1.391 . S
C230 H245 0.930 . S
C231 C230 1.391 . S
C231 C233 1.387 . S
C232 C229 1.398 . S
C232 C233 1.380 . S
C232 H246 0.930 . S
C233 C231 1.387 . S
C233 C232 1.380 . S
C233 H247 0.930 . S
C234 O214 1.254 . S
C234 O215 1.268 . S
C235 O219 1.284 . S
C235 O222 1.250 . S
C236 Gd169 2.828 . S
C236 O218 1.258 . S
C236 O223 1.252 . S
C236 C237 1.497 . S
C237 C236 1.497 . S
C237 C238 1.395 . S
C237 C239 1.380 . S
C238 C237 1.395 . S
C238 C241 1.398 . S
C238 H248 0.930 . S
C239 C237 1.380 . S
C239 C240 1.391 . S
C239 H249 0.930 . S
C240 C239 1.391 . S
C240 C242 1.387 . S
C241 C238 1.398 . S
C241 C242 1.380 . S
C241 H250 0.930 . S
C242 C240 1.387 . S
C242 C241 1.380 . S
C242 H251 0.930 . S
C243 O220 1.254 . S
C243 O221 1.268 . S
H244 C229 0.930 . S
H245 C230 0.930 . S
H246 C232 0.930 . S
H247 C233 0.930 . S
H248 C238 0.930 . S
H249 C239 0.930 . S
H250 C241 0.930 . S
H251 C242 0.930 . S
Gd252 N283 2.661 1_556 S
Gd252 N289 2.601 . S
Gd252 O296 2.545 . S
Gd252 O297 2.606 . S
Gd252 O299 2.429 . S
Gd252 O300 2.545 . S
Gd252 O301 2.412 . S
Gd252 O303 2.362 1_556 S
Gd252 O304 2.324 1_556 S
Gd252 C311 2.828 . S
Gd253 N262 2.661 . S
Gd253 N266 2.601 . S
Gd253 O297 2.362 1_554 S
Gd253 O298 2.324 . S
Gd253 O302 2.545 . S
Gd253 O303 2.606 . S
Gd253 O305 2.429 . S
Gd253 O306 2.545 . S
Gd253 O307 2.412 . S
Gd253 C320 2.828 . S
C254 C257 1.417 1_556 S
C254 C259 1.431 . S
C254 C260 1.412 . S
C255 C258 1.437 . S
C255 C259 1.317 1_554 S
C255 H274 0.929 . S
C256 C257 1.426 . S
C256 C258 1.413 . S
C256 N266 1.359 . S
C257 C254 1.417 1_554 S
C257 C256 1.426 . S
C257 N262 1.350 . S
C258 C255 1.437 . S
C258 C256 1.413 . S
C258 C268 1.391 . S
C259 C254 1.431 . S
C259 C255 1.317 1_556 S
C259 H270 0.930 . S
C260 C254 1.412 . S
C260 C261 1.355 . S
C260 H272 0.930 . S
C261 C260 1.355 . S
C261 C263 1.402 . S
C261 H273 0.930 . S
N262 Gd253 2.661 . S
N262 C257 1.350 . S
N262 C263 1.307 1_554 S
C263 C261 1.402 . S
C263 N262 1.307 1_556 S
C263 H264 0.930 . S
H264 C263 0.930 . S
C265 N266 1.334 . S
C265 C267 1.394 . S
C265 H269 0.930 . S
N266 Gd253 2.601 . S
N266 C256 1.359 . S
N266 C265 1.334 . S
C267 C265 1.394 . S
C267 C268 1.359 . S
C267 H279 0.930 . S
C268 C258 1.391 . S
C268 C267 1.359 . S
C268 H280 0.929 . S
H269 C265 0.930 . S
H270 C259 0.930 . S
H271 C288 0.930 . S
H272 C260 0.930 . S
H273 C261 0.930 . S
H274 C255 0.929 . S
H275 C293 0.930 . S
H276 C284 0.930 . S
H277 C285 0.930 . S
H278 C309 0.929 1_455 S
H279 C267 0.930 . S
H280 C268 0.929 . S
H281 C310 0.930 . S
H282 C291 0.930 . S
N283 Gd252 2.661 1_554 S
N283 C287 1.350 . S
N283 C288 1.307 . S
C284 H276 0.930 . S
C284 C285 1.355 . S
C284 C286 1.412 . S
C285 H277 0.930 . S
C285 C284 1.355 . S
C285 C288 1.402 . S
C286 C284 1.412 . S
C286 C287 1.417 . S
C286 C310 1.431 . S
C287 N283 1.350 . S
C287 C286 1.417 . S
C287 C290 1.426 . S
C288 H271 0.930 . S
C288 N283 1.307 . S
C288 C285 1.402 . S
N289 Gd252 2.601 . S
N289 C290 1.359 1_556 S
N289 C293 1.334 . S
C290 C287 1.426 . S
C290 N289 1.359 1_554 S
C290 C294 1.413 . S
C291 H282 0.930 . S
C291 C292 1.359 . S
C291 C293 1.394 1_455 S
C292 C291 1.359 . S
C292 C294 1.391 1_456 S
C292 H295 0.929 . S
C293 H275 0.930 . S
C293 N289 1.334 . S
C293 C291 1.394 1_655 S
C294 C290 1.413 . S
C294 C292 1.391 1_654 S
C294 C309 1.437 . S
H295 C292 0.929 . S
O296 Gd252 2.545 . S
O296 C311 1.258 . S
O297 Gd252 2.606 . S
O297 Gd253 2.362 1_556 S
O297 C308 1.284 . S
O298 Gd253 2.324 . S
O298 C318 1.254 . S
O299 Gd252 2.429 . S
O299 C318 1.268 1_556 S
O300 Gd252 2.545 . S
O300 C308 1.250 . S
O301 Gd252 2.412 . S
O301 C311 1.252 . S
O302 Gd253 2.545 . S
O302 C320 1.258 . S
O303 Gd252 2.362 1_554 S
O303 Gd253 2.606 . S
O303 C319 1.284 . S
O304 Gd252 2.324 1_554 S
O304 C327 1.254 . S
O305 Gd253 2.429 . S
O305 C327 1.268 . S
O306 Gd253 2.545 . S
O306 C319 1.250 . S
O307 Gd253 2.412 . S
O307 C320 1.252 . S
C308 O297 1.284 . S
C308 O300 1.250 . S
C309 H278 0.929 1_655 S
C309 C294 1.437 . S
C309 C310 1.317 . S
C310 H281 0.930 . S
C310 C286 1.431 . S
C310 C309 1.317 . S
C311 Gd252 2.828 . S
C311 O296 1.258 . S
C311 O301 1.252 . S
C311 C312 1.497 . S
C312 C311 1.497 . S
C312 C313 1.395 . S
C312 C314 1.380 . S
C313 C312 1.395 . S
C313 C316 1.398 . S
C313 H328 0.930 . S
C314 C312 1.380 . S
C314 C315 1.391 . S
C314 H329 0.930 . S
C315 C314 1.391 . S
C315 C317 1.387 . S
C316 C313 1.398 . S
C316 C317 1.380 . S
C316 H330 0.930 . S
C317 C315 1.387 . S
C317 C316 1.380 . S
C317 H331 0.930 . S
C318 O298 1.254 . S
C318 O299 1.268 1_554 S
C319 O303 1.284 . S
C319 O306 1.250 . S
C320 Gd253 2.828 . S
C320 O302 1.258 . S
C320 O307 1.252 . S
C320 C321 1.497 . S
C321 C320 1.497 . S
C321 C322 1.395 . S
C321 C323 1.380 . S
C322 C321 1.395 . S
C322 C325 1.398 . S
C322 H332 0.930 . S
C323 C321 1.380 . S
C323 C324 1.391 . S
C323 H333 0.930 . S
C324 C323 1.391 . S
C324 C326 1.387 . S
C325 C322 1.398 . S
C325 C326 1.380 . S
C325 H334 0.930 . S
C326 C324 1.387 . S
C326 C325 1.380 . S
C326 H335 0.930 . S
C327 O304 1.254 . S
C327 O305 1.268 . S
H328 C313 0.930 . S
H329 C314 0.930 . S
H330 C316 0.930 . S
H331 C317 0.930 . S
H332 C322 0.930 . S
H333 C323 0.930 . S
H334 C325 0.930 . S
H335 C326 0.930 . S
Gd336 N367 2.661 . S
Gd336 N373 2.601 . S
Gd336 O380 2.545 . S
Gd336 O381 2.606 . S
Gd336 O383 2.429 . S
Gd336 O384 2.545 . S
Gd336 O385 2.412 . S
Gd336 O387 2.362 . S
Gd336 O388 2.324 . S
Gd336 C395 2.828 . S
Gd337 N346 2.661 . S
Gd337 N350 2.601 . S
Gd337 O381 2.362 . S
Gd337 O382 2.324 . S
Gd337 O386 2.545 . S
Gd337 O387 2.606 . S
Gd337 O389 2.429 . S
Gd337 O390 2.545 . S
Gd337 O391 2.412 . S
Gd337 C404 2.828 . S
C338 C341 1.417 . S
C338 C343 1.431 . S
C338 C344 1.412 . S
C339 C342 1.437 . S
C339 C343 1.317 . S
C339 H358 0.929 . S
C340 C341 1.426 . S
C340 C342 1.413 . S
C340 N350 1.359 . S
C341 C338 1.417 . S
C341 C340 1.426 . S
C341 N346 1.350 . S
C342 C339 1.437 . S
C342 C340 1.413 . S
C342 C352 1.391 . S
C343 C338 1.431 . S
C343 C339 1.317 . S
C343 H354 0.930 . S
C344 C338 1.412 . S
C344 C345 1.355 . S
C344 H356 0.930 . S
C345 C344 1.355 . S
C345 C347 1.402 . S
C345 H357 0.930 . S
N346 Gd337 2.661 . S
N346 C341 1.350 . S
N346 C347 1.307 . S
C347 C345 1.402 . S
C347 N346 1.307 . S
C347 H348 0.930 . S
H348 C347 0.930 . S
C349 N350 1.334 . S
C349 C351 1.394 . S
C349 H353 0.930 . S
N350 Gd337 2.601 . S
N350 C340 1.359 . S
N350 C349 1.334 . S
C351 C349 1.394 . S
C351 C352 1.359 . S
C351 H363 0.930 . S
C352 C342 1.391 . S
C352 C351 1.359 . S
C352 H364 0.929 . S
H353 C349 0.930 . S
H354 C343 0.930 . S
H355 C372 0.930 . S
H356 C344 0.930 . S
H357 C345 0.930 . S
H358 C339 0.929 . S
H359 C377 0.930 . S
H360 C368 0.930 . S
H361 C369 0.930 . S
H362 C393 0.929 1_545 S
H363 C351 0.930 . S
H364 C352 0.929 . S
H365 C394 0.930 . S
H366 C375 0.930 . S
N367 Gd336 2.661 . S
N367 C371 1.350 . S
N367 C372 1.307 . S
C368 H360 0.930 . S
C368 C369 1.355 . S
C368 C370 1.412 . S
C369 H361 0.930 . S
C369 C368 1.355 . S
C369 C372 1.402 . S
C370 C368 1.412 . S
C370 C371 1.417 . S
C370 C394 1.431 . S
C371 N367 1.350 . S
C371 C370 1.417 . S
C371 C374 1.426 . S
C372 H355 0.930 . S
C372 N367 1.307 . S
C372 C369 1.402 . S
N373 Gd336 2.601 . S
N373 C374 1.359 . S
N373 C377 1.334 . S
C374 C371 1.426 . S
C374 N373 1.359 . S
C374 C378 1.413 . S
C375 H366 0.930 . S
C375 C376 1.359 . S
C375 C377 1.394 1_545 S
C376 C375 1.359 . S
C376 C378 1.391 1_545 S
C376 H379 0.929 . S
C377 H359 0.930 . S
C377 N373 1.334 . S
C377 C375 1.394 1_565 S
C378 C374 1.413 . S
C378 C376 1.391 1_565 S
C378 C393 1.437 . S
H379 C376 0.929 . S
O380 Gd336 2.545 . S
O380 C395 1.258 . S
O381 Gd336 2.606 . S
O381 Gd337 2.362 . S
O381 C392 1.284 . S
O382 Gd337 2.324 . S
O382 C402 1.254 . S
O383 Gd336 2.429 . S
O383 C402 1.268 . S
O384 Gd336 2.545 . S
O384 C392 1.250 . S
O385 Gd336 2.412 . S
O385 C395 1.252 . S
O386 Gd337 2.545 . S
O386 C404 1.258 . S
O387 Gd336 2.362 . S
O387 Gd337 2.606 . S
O387 C403 1.284 . S
O388 Gd336 2.324 . S
O388 C411 1.254 . S
O389 Gd337 2.429 . S
O389 C411 1.268 . S
O390 Gd337 2.545 . S
O390 C403 1.250 . S
O391 Gd337 2.412 . S
O391 C404 1.252 . S
C392 O381 1.284 . S
C392 O384 1.250 . S
C393 H362 0.929 1_565 S
C393 C378 1.437 . S
C393 C394 1.317 . S
C394 H365 0.930 . S
C394 C370 1.431 . S
C394 C393 1.317 . S
C395 Gd336 2.828 . S
C395 O380 1.258 . S
C395 O385 1.252 . S
C395 C396 1.497 . S
C396 C395 1.497 . S
C396 C397 1.395 . S
C396 C398 1.380 . S
C397 C396 1.395 . S
C397 C400 1.398 . S
C397 H412 0.930 . S
C398 C396 1.380 . S
C398 C399 1.391 . S
C398 H413 0.930 . S
C399 C398 1.391 . S
C399 C401 1.387 . S
C400 C397 1.398 . S
C400 C401 1.380 . S
C400 H414 0.930 . S
C401 C399 1.387 . S
C401 C400 1.380 . S
C401 H415 0.930 . S
C402 O382 1.254 . S
C402 O383 1.268 . S
C403 O387 1.284 . S
C403 O390 1.250 . S
C404 Gd337 2.828 . S
C404 O386 1.258 . S
C404 O391 1.252 . S
C404 C405 1.497 . S
C405 C404 1.497 . S
C405 C406 1.395 . S
C405 C407 1.380 . S
C406 C405 1.395 . S
C406 C409 1.398 . S
C406 H416 0.930 . S
C407 C405 1.380 . S
C407 C408 1.391 . S
C407 H417 0.930 . S
C408 C407 1.391 . S
C408 C410 1.387 . S
C409 C406 1.398 . S
C409 C410 1.380 . S
C409 H418 0.930 . S
C410 C408 1.387 . S
C410 C409 1.380 . S
C410 H419 0.930 . S
C411 O388 1.254 . S
C411 O389 1.268 . S
H412 C397 0.930 . S
H413 C398 0.930 . S
H414 C400 0.930 . S
H415 C401 0.930 . S
H416 C406 0.930 . S
H417 C407 0.930 . S
H418 C409 0.930 . S
H419 C410 0.930 . S
Gd420 N451 2.661 . S
Gd420 N457 2.601 . S
Gd420 O464 2.545 . S
Gd420 O465 2.606 . S
Gd420 O467 2.429 . S
Gd420 O468 2.545 . S
Gd420 O469 2.412 . S
Gd420 O471 2.362 . S
Gd420 O472 2.324 . S
Gd420 C479 2.828 . S
Gd421 N430 2.661 . S
Gd421 N434 2.601 . S
Gd421 O465 2.362 . S
Gd421 O466 2.324 . S
Gd421 O470 2.545 . S
Gd421 O471 2.606 . S
Gd421 O473 2.429 . S
Gd421 O474 2.545 . S
Gd421 O475 2.412 . S
Gd421 C488 2.828 . S
C422 C425 1.417 . S
C422 C427 1.431 . S
C422 C428 1.412 . S
C423 C426 1.437 . S
C423 C427 1.317 . S
C423 H442 0.929 . S
C424 C425 1.426 . S
C424 C426 1.413 . S
C424 N434 1.359 . S
C425 C422 1.417 . S
C425 C424 1.426 . S
C425 N430 1.350 . S
C426 C423 1.437 . S
C426 C424 1.413 . S
C426 C436 1.391 . S
C427 C422 1.431 . S
C427 C423 1.317 . S
C427 H438 0.930 . S
C428 C422 1.412 . S
C428 C429 1.355 . S
C428 H440 0.930 . S
C429 C428 1.355 . S
C429 C431 1.402 . S
C429 H441 0.930 . S
N430 Gd421 2.661 . S
N430 C425 1.350 . S
N430 C431 1.307 . S
C431 C429 1.402 . S
C431 N430 1.307 . S
C431 H432 0.930 . S
H432 C431 0.930 . S
C433 N434 1.334 . S
C433 C435 1.394 . S
C433 H437 0.930 . S
N434 Gd421 2.601 . S
N434 C424 1.359 . S
N434 C433 1.334 . S
C435 C433 1.394 . S
C435 C436 1.359 . S
C435 H447 0.930 . S
C436 C426 1.391 . S
C436 C435 1.359 . S
C436 H448 0.929 . S
H437 C433 0.930 . S
H438 C427 0.930 . S
H439 C456 0.930 . S
H440 C428 0.930 . S
H441 C429 0.930 . S
H442 C423 0.929 . S
H443 C461 0.930 . S
H444 C452 0.930 . S
H445 C453 0.930 . S
H446 C477 0.929 . S
H447 C435 0.930 . S
H448 C436 0.929 . S
H449 C478 0.930 . S
H450 C459 0.930 . S
N451 Gd420 2.661 . S
N451 C455 1.350 . S
N451 C456 1.307 . S
C452 H444 0.930 . S
C452 C453 1.355 . S
C452 C454 1.412 . S
C453 H445 0.930 . S
C453 C452 1.355 . S
C453 C456 1.402 . S
C454 C452 1.412 . S
C454 C455 1.417 . S
C454 C478 1.431 . S
C455 N451 1.350 . S
C455 C454 1.417 . S
C455 C458 1.426 . S
C456 H439 0.930 . S
C456 N451 1.307 . S
C456 C453 1.402 . S
N457 Gd420 2.601 . S
N457 C458 1.359 . S
N457 C461 1.334 . S
C458 C455 1.426 . S
C458 N457 1.359 . S
C458 C462 1.413 . S
C459 H450 0.930 . S
C459 C460 1.359 . S
C459 C461 1.394 . S
C460 C459 1.359 . S
C460 C462 1.391 . S
C460 H463 0.929 . S
C461 H443 0.930 . S
C461 N457 1.334 . S
C461 C459 1.394 . S
C462 C458 1.413 . S
C462 C460 1.391 . S
C462 C477 1.437 . S
H463 C460 0.929 . S
O464 Gd420 2.545 . S
O464 C479 1.258 . S
O465 Gd420 2.606 . S
O465 Gd421 2.362 . S
O465 C476 1.284 . S
O466 Gd421 2.324 . S
O466 C486 1.254 . S
O467 Gd420 2.429 . S
O467 C486 1.268 . S
O468 Gd420 2.545 . S
O468 C476 1.250 . S
O469 Gd420 2.412 . S
O469 C479 1.252 . S
O470 Gd421 2.545 . S
O470 C488 1.258 . S
O471 Gd420 2.362 . S
O471 Gd421 2.606 . S
O471 C487 1.284 . S
O472 Gd420 2.324 . S
O472 C495 1.254 . S
O473 Gd421 2.429 . S
O473 C495 1.268 . S
O474 Gd421 2.545 . S
O474 C487 1.250 . S
O475 Gd421 2.412 . S
O475 C488 1.252 . S
C476 O465 1.284 . S
C476 O468 1.250 . S
C477 H446 0.929 . S
C477 C462 1.437 . S
C477 C478 1.317 . S
C478 H449 0.930 . S
C478 C454 1.431 . S
C478 C477 1.317 . S
C479 Gd420 2.828 . S
C479 O464 1.258 . S
C479 O469 1.252 . S
C479 C480 1.497 . S
C480 C479 1.497 . S
C480 C481 1.395 . S
C480 C482 1.380 . S
C481 C480 1.395 . S
C481 C484 1.398 . S
C481 H496 0.930 . S
C482 C480 1.380 . S
C482 C483 1.391 . S
C482 H497 0.930 . S
C483 C482 1.391 . S
C483 C485 1.387 . S
C484 C481 1.398 . S
C484 C485 1.380 . S
C484 H498 0.930 . S
C485 C483 1.387 . S
C485 C484 1.380 . S
C485 H499 0.930 . S
C486 O466 1.254 . S
C486 O467 1.268 . S
C487 O471 1.284 . S
C487 O474 1.250 . S
C488 Gd421 2.828 . S
C488 O470 1.258 . S
C488 O475 1.252 . S
C488 C489 1.497 . S
C489 C488 1.497 . S
C489 C490 1.395 . S
C489 C491 1.380 . S
C490 C489 1.395 . S
C490 C493 1.398 . S
C490 H500 0.930 . S
C491 C489 1.380 . S
C491 C492 1.391 . S
C491 H501 0.930 . S
C492 C491 1.391 . S
C492 C494 1.387 . S
C493 C490 1.398 . S
C493 C494 1.380 . S
C493 H502 0.930 . S
C494 C492 1.387 . S
C494 C493 1.380 . S
C494 H503 0.930 . S
C495 O472 1.254 . S
C495 O473 1.268 . S
H496 C481 0.930 . S
H497 C482 0.930 . S
H498 C484 0.930 . S
H499 C485 0.930 . S
H500 C490 0.930 . S
H501 C491 0.930 . S
H502 C493 0.930 . S
H503 C494 0.930 . S
H504 C510 0.930 . S
H505 C514 0.930 . S
H506 C519 0.929 . S
H507 C517 0.929 . S
H508 C512 0.929 . S
H509 C518 0.929 . S
C510 H504 0.930 . S
C510 C511 1.367 . S
C510 C518 1.378 . S
C511 C510 1.367 . S
C511 C519 1.433 . S
C512 H508 0.929 . S
C512 C514 1.378 . S
C512 C516 1.350 . S
C513 C516 1.463 . S
C513 C518 1.350 . S
C513 N521 1.427 . S
C514 H505 0.930 . S
C514 C512 1.378 . S
C514 C515 1.367 . S
C515 C514 1.367 . S
C515 C517 1.433 . S
C516 C512 1.350 . S
C516 C513 1.463 . S
C516 N520 1.427 . S
C517 H507 0.929 . S
C517 C515 1.433 . S
C517 N520 1.384 . S
C518 H509 0.929 . S
C518 C510 1.378 . S
C518 C513 1.350 . S
C519 H506 0.929 . S
C519 C511 1.433 . S
C519 N521 1.384 . S
N520 C516 1.427 . S
N520 C517 1.384 . S
N521 C513 1.427 . S
N521 C519 1.384 . S
H522 C528 0.930 . S
H523 C532 0.930 . S
H524 C537 0.929 . S
H525 C535 0.929 . S
H526 C530 0.929 . S
H527 C536 0.929 . S
C528 H522 0.930 . S
C528 C529 1.367 . S
C528 C536 1.378 . S
C529 C528 1.367 . S
C529 C537 1.433 . S
C530 H526 0.929 . S
C530 C532 1.378 . S
C530 C534 1.350 . S
C531 C534 1.463 . S
C531 C536 1.350 . S
C531 N539 1.427 . S
C532 H523 0.930 . S
C532 C530 1.378 . S
C532 C533 1.367 . S
C533 C532 1.367 . S
C533 C535 1.433 . S
C534 C530 1.350 . S
C534 C531 1.463 . S
C534 N538 1.427 . S
C535 H525 0.929 . S
C535 C533 1.433 . S
C535 N538 1.384 . S
C536 H527 0.929 . S
C536 C528 1.378 . S
C536 C531 1.350 . S
C537 H524 0.929 . S
C537 C529 1.433 . S
C537 N539 1.384 . S
N538 C534 1.427 . S
N538 C535 1.384 . S
N539 C531 1.427 . S
N539 C537 1.384 . S
H540 C546 0.930 . S
H541 C550 0.930 . S
H542 C555 0.929 . S
H543 C553 0.929 . S
H544 C548 0.929 . S
H545 C554 0.929 . S
C546 H540 0.930 . S
C546 C547 1.367 . S
C546 C554 1.378 . S
C547 C546 1.367 . S
C547 C555 1.433 . S
C548 H544 0.929 . S
C548 C550 1.378 . S
C548 C552 1.350 . S
C549 C552 1.463 . S
C549 C554 1.350 . S
C549 N557 1.427 . S
C550 H541 0.930 . S
C550 C548 1.378 . S
C550 C551 1.367 . S
C551 C550 1.367 . S
C551 C553 1.433 . S
C552 C548 1.350 . S
C552 C549 1.463 . S
C552 N556 1.427 . S
C553 H543 0.929 . S
C553 C551 1.433 . S
C553 N556 1.384 . S
C554 H545 0.929 . S
C554 C546 1.378 . S
C554 C549 1.350 . S
C555 H542 0.929 . S
C555 C547 1.433 . S
C555 N557 1.384 . S
N556 C552 1.427 . S
N556 C553 1.384 . S
N557 C549 1.427 . S
N557 C555 1.384 . S
H558 C564 0.930 . S
H559 C568 0.930 . S
H560 C573 0.929 . S
H561 C571 0.929 . S
H562 C566 0.929 . S
H563 C572 0.929 . S
C564 H558 0.930 . S
C564 C565 1.367 . S
C564 C572 1.378 . S
C565 C564 1.367 . S
C565 C573 1.433 . S
C566 H562 0.929 . S
C566 C568 1.378 . S
C566 C570 1.350 . S
C567 C570 1.463 . S
C567 C572 1.350 . S
C567 N575 1.427 . S
C568 H559 0.930 . S
C568 C566 1.378 . S
C568 C569 1.367 . S
C569 C568 1.367 . S
C569 C571 1.433 . S
C570 C566 1.350 . S
C570 C567 1.463 . S
C570 N574 1.427 . S
C571 H561 0.929 . S
C571 C569 1.433 . S
C571 N574 1.384 . S
C572 H563 0.929 . S
C572 C564 1.378 . S
C572 C567 1.350 . S
C573 H560 0.929 . S
C573 C565 1.433 . S
C573 N575 1.384 . S
N574 C570 1.427 . S
N574 C571 1.384 . S
N575 C567 1.427 . S
N575 C573 1.384 . S
H576 C582 0.930 . S
H577 C586 0.930 . S
H578 C591 0.929 . S
H579 C589 0.929 . S
H580 C584 0.929 . S
H581 C590 0.929 . S
C582 H576 0.930 . S
C582 C583 1.367 . S
C582 C590 1.378 . S
C583 C582 1.367 . S
C583 C591 1.433 . S
C584 H580 0.929 . S
C584 C586 1.378 . S
C584 C588 1.350 . S
C585 C588 1.463 . S
C585 C590 1.350 . S
C585 N593 1.427 . S
C586 H577 0.930 . S
C586 C584 1.378 . S
C586 C587 1.367 . S
C587 C586 1.367 . S
C587 C589 1.433 . S
C588 C584 1.350 . S
C588 C585 1.463 . S
C588 N592 1.427 . S
C589 H579 0.929 . S
C589 C587 1.433 . S
C589 N592 1.384 . S
C590 H581 0.929 . S
C590 C582 1.378 . S
C590 C585 1.350 . S
C591 H578 0.929 . S
C591 C583 1.433 . S
C591 N593 1.384 . S
N592 C588 1.427 . S
N592 C589 1.384 . S
N593 C585 1.427 . S
N593 C591 1.384 . S
H594 C600 0.930 . S
H595 C604 0.930 . S
H596 C609 0.929 . S
H597 C607 0.929 . S
H598 C602 0.929 . S
H599 C608 0.929 . S
C600 H594 0.930 . S
C600 C601 1.367 . S
C600 C608 1.378 . S
C601 C600 1.367 . S
C601 C609 1.433 . S
C602 H598 0.929 . S
C602 C604 1.378 . S
C602 C606 1.350 . S
C603 C606 1.463 . S
C603 C608 1.350 . S
C603 N611 1.427 . S
C604 H595 0.930 . S
C604 C602 1.378 . S
C604 C605 1.367 . S
C605 C604 1.367 . S
C605 C607 1.433 . S
C606 C602 1.350 . S
C606 C603 1.463 . S
C606 N610 1.427 . S
C607 H597 0.929 . S
C607 C605 1.433 . S
C607 N610 1.384 . S
C608 H599 0.929 . S
C608 C600 1.378 . S
C608 C603 1.350 . S
C609 H596 0.929 . S
C609 C601 1.433 . S
C609 N611 1.384 . S
N610 C606 1.427 . S
N610 C607 1.384 . S
N611 C603 1.427 . S
N611 C609 1.384 . S
H612 C618 0.930 . S
H613 C622 0.930 . S
H614 C627 0.929 . S
H615 C625 0.929 . S
H616 C620 0.929 . S
H617 C626 0.929 . S
C618 H612 0.930 . S
C618 C619 1.367 . S
C618 C626 1.378 . S
C619 C618 1.367 . S
C619 C627 1.433 . S
C620 H616 0.929 . S
C620 C622 1.378 . S
C620 C624 1.350 . S
C621 C624 1.463 . S
C621 C626 1.350 . S
C621 N629 1.427 . S
C622 H613 0.930 . S
C622 C620 1.378 . S
C622 C623 1.367 . S
C623 C622 1.367 . S
C623 C625 1.433 . S
C624 C620 1.350 . S
C624 C621 1.463 . S
C624 N628 1.427 . S
C625 H615 0.929 . S
C625 C623 1.433 . S
C625 N628 1.384 . S
C626 H617 0.929 . S
C626 C618 1.378 . S
C626 C621 1.350 . S
C627 H614 0.929 . S
C627 C619 1.433 . S
C627 N629 1.384 . S
N628 C624 1.427 . S
N628 C625 1.384 . S
N629 C621 1.427 . S
N629 C627 1.384 . S
H630 C636 0.930 . S
H631 C640 0.930 . S
H632 C645 0.929 . S
H633 C643 0.929 . S
H634 C638 0.929 . S
H635 C644 0.929 . S
C636 H630 0.930 . S
C636 C637 1.367 . S
C636 C644 1.378 . S
C637 C636 1.367 . S
C637 C645 1.433 . S
C638 H634 0.929 . S
C638 C640 1.378 . S
C638 C642 1.350 . S
C639 C642 1.463 1_455 S
C639 C644 1.350 . S
C639 N647 1.427 . S
C640 H631 0.930 . S
C640 C638 1.378 . S
C640 C641 1.367 . S
C641 C640 1.367 . S
C641 C643 1.433 . S
C642 C638 1.350 . S
C642 C639 1.463 1_655 S
C642 N646 1.427 . S
C643 H633 0.929 . S
C643 C641 1.433 . S
C643 N646 1.384 . S
C644 H635 0.929 . S
C644 C636 1.378 . S
C644 C639 1.350 . S
C645 H632 0.929 . S
C645 C637 1.433 . S
C645 N647 1.384 . S
N646 C642 1.427 . S
N646 C643 1.384 . S
N647 C639 1.427 . S
N647 C645 1.384 . S
H648 C654 0.930 . S
H649 C658 0.930 . S
H650 C663 0.929 . S
H651 C661 0.929 . S
H652 C656 0.929 . S
H653 C662 0.929 . S
C654 H648 0.930 . S
C654 C655 1.367 . S
C654 C662 1.378 . S
C655 C654 1.367 . S
C655 C663 1.433 . S
C656 H652 0.929 . S
C656 C658 1.378 . S
C656 C660 1.350 . S
C657 C660 1.463 1_545 S
C657 C662 1.350 . S
C657 N665 1.427 1_545 S
C658 H649 0.930 . S
C658 C656 1.378 . S
C658 C659 1.367 . S
C659 C658 1.367 . S
C659 C661 1.433 . S
C660 C656 1.350 . S
C660 C657 1.463 1_565 S
C660 N664 1.427 1_565 S
C661 H651 0.929 . S
C661 C659 1.433 . S
C661 N664 1.384 1_565 S
C662 H653 0.929 . S
C662 C654 1.378 . S
C662 C657 1.350 . S
C663 H650 0.929 . S
C663 C655 1.433 . S
C663 N665 1.384 1_545 S
N664 C660 1.427 1_545 S
N664 C661 1.384 1_545 S
N665 C657 1.427 1_565 S
N665 C663 1.384 1_565 S
H666 C672 0.930 . S
H667 C676 0.930 . S
H668 C681 0.929 . S
H669 C679 0.929 . S
H670 C674 0.929 . S
H671 C680 0.929 . S
C672 H666 0.930 . S
C672 C673 1.367 . S
C672 C680 1.378 . S
C673 C672 1.367 . S
C673 C681 1.433 . S
C674 H670 0.929 . S
C674 C676 1.378 . S
C674 C678 1.350 . S
C675 C678 1.463 . S
C675 C680 1.350 . S
C675 N683 1.427 . S
C676 H667 0.930 . S
C676 C674 1.378 . S
C676 C677 1.367 . S
C677 C676 1.367 . S
C677 C679 1.433 . S
C678 C674 1.350 . S
C678 C675 1.463 . S
C678 N682 1.427 . S
C679 H669 0.929 . S
C679 C677 1.433 . S
C679 N682 1.384 . S
C680 H671 0.929 . S
C680 C672 1.378 . S
C680 C675 1.350 . S
C681 H668 0.929 . S
C681 C673 1.433 . S
C681 N683 1.384 . S
N682 C678 1.427 . S
N682 C679 1.384 . S
N683 C675 1.427 . S
N683 C681 1.384 . S
H684 C690 0.930 . S
H685 C694 0.930 . S
H686 C699 0.929 . S
H687 C697 0.929 . S
H688 C692 0.929 . S
H689 C698 0.929 . S
C690 H684 0.930 . S
C690 C691 1.367 . S
C690 C698 1.378 . S
C691 C690 1.367 . S
C691 C699 1.433 1_554 S
C692 H688 0.929 . S
C692 C694 1.378 . S
C692 C696 1.350 1_556 S
C693 C696 1.463 1_455 S
C693 C698 1.350 . S
C693 N701 1.427 1_554 S
C694 H685 0.930 . S
C694 C692 1.378 . S
C694 C695 1.367 1_556 S
C695 C694 1.367 1_554 S
C695 C697 1.433 . S
C696 C692 1.350 1_554 S
C696 C693 1.463 1_655 S
C696 N700 1.427 . S
C697 H687 0.929 . S
C697 C695 1.433 . S
C697 N700 1.384 . S
C698 H689 0.929 . S
C698 C690 1.378 . S
C698 C693 1.350 . S
C699 H686 0.929 . S
C699 C691 1.433 1_556 S
C699 N701 1.384 . S
N700 C696 1.427 . S
N700 C697 1.384 . S
N701 C693 1.427 1_556 S
N701 C699 1.384 . S
H702 C708 0.930 . S
H703 C712 0.930 . S
H704 C717 0.929 . S
H705 C715 0.929 . S
H706 C710 0.929 . S
H707 C716 0.929 . S
C708 H702 0.930 . S
C708 C709 1.367 . S
C708 C716 1.378 . S
C709 C708 1.367 . S
C709 C717 1.433 . S
C710 H706 0.929 . S
C710 C712 1.378 . S
C710 C714 1.350 . S
C711 C714 1.463 1_565 S
C711 C716 1.350 . S
C711 N719 1.409 1_565 S
C712 H703 0.930 . S
C712 C710 1.378 . S
C712 C713 1.367 . S
C713 C712 1.367 . S
C713 C715 1.433 . S
C714 C710 1.350 . S
C714 C711 1.463 1_545 S
C714 N718 1.409 1_545 S
C715 H705 0.929 . S
C715 C713 1.433 . S
C715 N718 1.382 1_545 S
C716 H707 0.929 . S
C716 C708 1.378 . S
C716 C711 1.350 . S
C717 H704 0.929 . S
C717 C709 1.433 . S
C717 N719 1.382 1_565 S
N718 C714 1.409 1_565 S
N718 C715 1.382 1_565 S
N719 C711 1.409 1_545 S
N719 C717 1.382 1_545 S
H720 C726 0.930 . S
H721 C730 0.930 . S
H722 C735 0.929 . S
H723 C733 0.929 . S
H724 C728 0.929 . S
H725 C734 0.929 . S
C726 H720 0.930 . S
C726 C727 1.367 . S
C726 C734 1.378 . S
C727 C726 1.367 . S
C727 C735 1.433 . S
C728 H724 0.929 . S
C728 C730 1.378 . S
C728 C732 1.350 . S
C729 C732 1.463 . S
C729 C734 1.350 . S
C729 N737 1.427 . S
C730 H721 0.930 . S
C730 C728 1.378 . S
C730 C731 1.367 . S
C731 C730 1.367 . S
C731 C733 1.433 . S
C732 C728 1.350 . S
C732 C729 1.463 . S
C732 N736 1.427 . S
C733 H723 0.929 . S
C733 C731 1.433 . S
C733 N736 1.384 . S
C734 H725 0.929 . S
C734 C726 1.378 . S
C734 C729 1.350 . S
C735 H722 0.929 . S
C735 C727 1.433 . S
C735 N737 1.384 . S
N736 C732 1.427 . S
N736 C733 1.384 . S
N737 C729 1.427 . S
N737 C735 1.384 . S
H738 C744 0.930 . S
H739 C748 0.930 . S
H740 C753 0.929 . S
H741 C751 0.929 . S
H742 C746 0.929 . S
H743 C752 0.929 . S
C744 H738 0.930 . S
C744 C745 1.367 1_655 S
C744 C752 1.378 1_655 S
C745 C744 1.367 1_455 S
C745 C753 1.433 . S
C746 H742 0.929 . S
C746 C748 1.378 . S
C746 C750 1.350 . S
C747 C750 1.463 . S
C747 C752 1.350 . S
C747 N755 1.427 . S
C748 H739 0.930 . S
C748 C746 1.378 . S
C748 C749 1.367 . S
C749 C748 1.367 . S
C749 C751 1.433 . S
C750 C746 1.350 . S
C750 C747 1.463 . S
C750 N754 1.427 . S
C751 H741 0.929 . S
C751 C749 1.433 . S
C751 N754 1.384 . S
C752 H743 0.929 . S
C752 C744 1.378 1_455 S
C752 C747 1.350 . S
C753 H740 0.929 . S
C753 C745 1.433 . S
C753 N755 1.384 . S
N754 C750 1.427 . S
N754 C751 1.384 . S
N755 C747 1.427 . S
N755 C753 1.384 . S
H756 C762 0.930 . S
H757 C766 0.930 . S
H758 C771 0.929 . S
H759 C769 0.929 . S
H760 C764 0.929 . S
H761 C770 0.929 1_565 S
C762 H756 0.930 . S
C762 C763 1.367 1_565 S
C762 C770 1.378 1_565 S
C763 C762 1.367 1_545 S
C763 C771 1.433 . S
C764 H760 0.929 . S
C764 C766 1.378 . S
C764 C768 1.350 . S
C765 C768 1.463 . S
C765 C770 1.350 . S
C765 N773 1.427 . S
C766 H757 0.930 . S
C766 C764 1.378 . S
C766 C767 1.367 . S
C767 C766 1.367 . S
C767 C769 1.433 . S
C768 C764 1.350 . S
C768 C765 1.463 . S
C768 N772 1.427 . S
C769 H759 0.929 . S
C769 C767 1.433 . S
C769 N772 1.384 . S
C770 H761 0.929 1_545 S
C770 C762 1.378 1_545 S
C770 C765 1.350 . S
C771 H758 0.929 . S
C771 C763 1.433 . S
C771 N773 1.384 . S
N772 C768 1.427 . S
N772 C769 1.384 . S
N773 C765 1.427 . S
N773 C771 1.384 . S
H774 C780 0.930 . S
H775 C784 0.930 . S
H776 C789 0.929 . S
H777 C787 0.929 . S
H778 C782 0.929 . S
H779 C788 0.929 . S
C780 H774 0.930 . S
C780 C781 1.367 . S
C780 C788 1.378 . S
C781 C780 1.367 . S
C781 C789 1.433 . S
C782 H778 0.929 . S
C782 C784 1.378 . S
C782 C786 1.350 . S
C783 C786 1.463 . S
C783 C788 1.350 . S
C783 N791 1.427 . S
C784 H775 0.930 . S
C784 C782 1.378 . S
C784 C785 1.367 . S
C785 C784 1.367 . S
C785 C787 1.433 . S
C786 C782 1.350 . S
C786 C783 1.463 . S
C786 N790 1.427 . S
C787 H777 0.929 . S
C787 C785 1.433 . S
C787 N790 1.384 . S
C788 H779 0.929 . S
C788 C780 1.378 . S
C788 C783 1.350 . S
C789 H776 0.929 . S
C789 C781 1.433 . S
C789 N791 1.384 . S
N790 C786 1.427 . S
N790 C787 1.384 . S
N791 C783 1.427 . S
N791 C789 1.384 . S
H792 C798 0.930 . S
H793 C802 0.930 . S
H794 C807 0.929 . S
H795 C805 0.929 . S
H796 C800 0.929 . S
H797 C806 0.929 . S
C798 H792 0.930 . S
C798 C799 1.367 . S
C798 C806 1.378 . S
C799 C798 1.367 . S
C799 C807 1.433 1_655 S
C800 H796 0.929 . S
C800 C802 1.378 . S
C800 C804 1.350 . S
C801 C804 1.463 . S
C801 C806 1.350 . S
C801 N809 1.427 . S
C802 H793 0.930 . S
C802 C800 1.378 . S
C802 C803 1.367 . S
C803 C802 1.367 . S
C803 C805 1.433 . S
C804 C800 1.350 . S
C804 C801 1.463 . S
C804 N808 1.427 . S
C805 H795 0.929 . S
C805 C803 1.433 . S
C805 N808 1.384 . S
C806 H797 0.929 . S
C806 C798 1.378 . S
C806 C801 1.350 . S
C807 H794 0.929 . S
C807 C799 1.433 1_455 S
C807 N809 1.384 1_455 S
N808 C804 1.427 . S
N808 C805 1.384 . S
N809 C801 1.427 . S
N809 C807 1.384 1_655 S
H810 C816 0.930 . S
H811 C820 0.930 . S
H812 C825 0.929 . S
H813 C823 0.929 . S
H814 C818 0.929 . S
H815 C824 0.929 1_545 S
C816 H810 0.930 . S
C816 C817 1.367 1_545 S
C816 C824 1.378 1_545 S
C817 C816 1.367 1_565 S
C817 C825 1.433 . S
C818 H814 0.929 . S
C818 C820 1.378 . S
C818 C822 1.350 . S
C819 C822 1.463 . S
C819 C824 1.350 . S
C819 N827 1.427 . S
C820 H811 0.930 . S
C820 C818 1.378 . S
C820 C821 1.367 . S
C821 C820 1.367 . S
C821 C823 1.433 . S
C822 C818 1.350 . S
C822 C819 1.463 . S
C822 N826 1.427 . S
C823 H813 0.929 . S
C823 C821 1.433 . S
C823 N826 1.384 . S
C824 H815 0.929 1_565 S
C824 C816 1.378 1_565 S
C824 C819 1.350 . S
C825 H812 0.929 . S
C825 C817 1.433 . S
C825 N827 1.384 . S
N826 C822 1.427 . S
N826 C823 1.384 . S
N827 C819 1.427 . S
N827 C825 1.384 . S
C511 C392 1.141 . S
C515 C72 1.034 . S
C529 C476 1.155 . S
C533 C156 1.036 . S
C547 C56 1.138 . S
C551 C240 1.029 . S
C565 C140 1.133 . S
C569 C324 1.008 . S
C583 C224 1.152 . S
C587 C408 1.038 . S
C601 C308 1.156 . S
C605 C492 1.016 . S
C619 C75 1.811 . S
C623 C327 1.810 . S
C637 C411 1.815 . S
C641 C159 1.808 . S
C655 C495 1.811 . S
C659 C243 1.808 . S
C673 C234 1.803 . S
C677 C486 1.811 . S
C691 C66 1.809 . S
C695 C318 1.802 . S
C709 C402 1.801 . S
C713 C150 1.805 . S
C727 C487 1.227 . S
C731 C63 1.217 . S
C745 C147 1.200 1_455 S
C749 C67 1.210 . S
C763 C231 1.209 1_545 S
C767 C151 1.218 . S
C781 C235 1.223 . S
C785 C315 1.214 . S
C799 C399 1.224 1_655 S
C803 C319 1.233 . S
C817 C483 1.211 1_565 S
C821 C403 1.220 . S
