# Generated by pormake.
# Topology yfx, (5)-cn, num edge types: 1
# Building blocks:
#     Node 0, Type 0, BuildingBlock: XOMCOT_clean_sbu_0, # of connection points: 5
#     Node 1, Type 0, BuildingBlock: XOMCOT_clean_sbu_0, # of connection points: 5
#     Node 2, Type 0, BuildingBlock: XOMCOT_clean_sbu_0, # of connection points: 5
#     Node 3, Type 0, BuildingBlock: XOMCOT_clean_sbu_0, # of connection points: 5
#     Node 4, Type 0, BuildingBlock: XOMCOT_clean_sbu_0, # of connection points: 5
#     Node 5, Type 0, BuildingBlock: XOMCOT_clean_sbu_0, # of connection points: 5
#     Node 6, Type 0, BuildingBlock: XOMCOT_clean_sbu_0, # of connection points: 5
#     Node 7, Type 0, BuildingBlock: XOMCOT_clean_sbu_0, # of connection points: 5
#     Edge 8, Type (0, 0), BuildingBlock: MIFKUJ_clean_linker_0, # of connection points: 2
#     Edge 9, Type (0, 0), BuildingBlock: MIFKUJ_clean_linker_0, # of connection points: 2
#     Edge 10, Type (0, 0), BuildingBlock: MIFKUJ_clean_linker_0, # of connection points: 2
#     Edge 11, Type (0, 0), BuildingBlock: MIFKUJ_clean_linker_0, # of connection points: 2
#     Edge 12, Type (0, 0), BuildingBlock: MIFKUJ_clean_linker_0, # of connection points: 2
#     Edge 13, Type (0, 0), BuildingBlock: MIFKUJ_clean_linker_0, # of connection points: 2
#     Edge 14, Type (0, 0), BuildingBlock: MIFKUJ_clean_linker_0, # of connection points: 2
#     Edge 15, Type (0, 0), BuildingBlock: MIFKUJ_clean_linker_0, # of connection points: 2
#     Edge 16, Type (0, 0), BuildingBlock: MIFKUJ_clean_linker_0, # of connection points: 2
#     Edge 17, Type (0, 0), BuildingBlock: MIFKUJ_clean_linker_0, # of connection points: 2
#     Edge 18, Type (0, 0), BuildingBlock: MIFKUJ_clean_linker_0, # of connection points: 2
#     Edge 19, Type (0, 0), BuildingBlock: MIFKUJ_clean_linker_0, # of connection points: 2
#     Edge 20, Type (0, 0), BuildingBlock: MIFKUJ_clean_linker_0, # of connection points: 2
#     Edge 21, Type (0, 0), BuildingBlock: MIFKUJ_clean_linker_0, # of connection points: 2
#     Edge 22, Type (0, 0), BuildingBlock: MIFKUJ_clean_linker_0, # of connection points: 2
#     Edge 23, Type (0, 0), BuildingBlock: MIFKUJ_clean_linker_0, # of connection points: 2
#     Edge 24, Type (0, 0), BuildingBlock: MIFKUJ_clean_linker_0, # of connection points: 2
#     Edge 25, Type (0, 0), BuildingBlock: MIFKUJ_clean_linker_0, # of connection points: 2
#     Edge 26, Type (0, 0), BuildingBlock: MIFKUJ_clean_linker_0, # of connection points: 2
#     Edge 27, Type (0, 0), BuildingBlock: MIFKUJ_clean_linker_0, # of connection points: 2
# Relax obj value: 0.109
# Max RMSD: 0.108
# Mean RMSD: 0.108
data_MOF--net-yfx--node1-XOMCOT_clean_sbu_0--edge1-MIFKUJ_clean_linker_0
_symmetry_space_group_name_H-M    P1
_symmetry_Int_Tables_number       1
_symmetry_cell_setting            triclinic
loop_
_symmetry_equiv_pos_as_xyz
'x, y, z'
_cell_length_a     44.560621
_cell_length_b     44.557704
_cell_length_c     37.317978
_cell_angle_alpha  90.058076
_cell_angle_beta   89.803625
_cell_angle_gamma 90.008619
loop_
_atom_site_label
_atom_site_type_symbol
_atom_site_fract_x
_atom_site_fract_y
_atom_site_fract_z
_atom_type_partial_charge
Co0 Co 0.21093 0.36422 0.03732 0.0
C1 C 0.27166 0.33675 0.02796 0.0
C2 C 0.27162 0.37426 0.0642 0.0
C3 C 0.30028 0.36289 0.06229 0.0
N4 N 0.25366 0.35784 0.04283 0.0
N5 N 0.30026 0.33946 0.03943 0.0
H6 H 0.26412 0.3196 1.00955 0.0
H7 H 0.26432 0.3932 0.08013 0.0
C8 C 0.2075 0.42575 1.00276 0.0
O9 O 0.18516 0.4173 0.9822 0.0
N10 N 0.16779 0.37156 0.03282 0.0
C11 C 0.14676 0.35366 0.01815 0.0
C12 C 0.11934 0.36787 0.01985 0.0
C13 C 0.15244 0.39613 0.04421 0.0
N14 N 0.12281 0.39476 0.03602 0.0
C15 C 0.2055 0.32114 0.98018 0.0
C16 C 0.23695 0.35278 0.92879 0.0
C17 C 0.22821 0.32321 0.92079 0.0
C18 C 0.21205 0.30754 0.94721 0.0
C19 C 0.23044 0.36534 0.96238 0.0
N20 N 0.21428 0.34988 0.98758 0.0
H21 H 0.19477 0.3077 1.00055 0.0
H22 H 0.24019 0.38684 0.96845 0.0
H23 H 0.15062 0.33178 1.00677 0.0
H24 H 0.16293 0.41484 0.05779 0.0
O25 O 0.20342 0.32628 0.06169 0.0
O26 O 0.20783 0.37023 0.08864 0.0
O27 O 0.21992 0.40717 0.02414 0.0
C28 C 0.20466 0.34133 0.09157 0.0
H29 H 0.3198 0.3715 0.07612 0.0
H30 H 0.09857 0.35923 1.00902 0.0
H31 H 0.24949 0.3661 0.90969 0.0
H32 H 0.20564 0.28434 0.94336 0.0
Co33 Co 0.65101 0.2098 0.02633 0.0
C34 C 0.67681 0.27258 0.01983 0.0
C35 C 0.63708 0.26995 0.05215 0.0
C36 C 0.64664 0.29924 0.05164 0.0
N37 N 0.65573 0.2531 0.03193 0.0
N38 N 0.6716 0.30095 0.03121 0.0
H39 H 0.69548 0.26667 1.00297 0.0
H40 H 0.61771 0.2614 0.06639 0.0
C41 C 0.5973 0.23711 0.99114 0.0
O42 O 0.61534 0.25622 0.97512 0.0
N43 N 0.645 0.16683 0.02205 0.0
C44 C 0.66481 0.1462 1.01042 0.0
C45 C 0.65084 0.11852 1.00988 0.0
C46 C 0.61937 0.15146 0.02869 0.0
N47 N 0.6222 0.12179 0.02132 0.0
C48 C 0.69683 0.2159 0.97287 0.0
C49 C 0.66161 0.2096 0.91274 0.0
C50 C 0.69176 0.21837 0.90824 0.0
C51 C 0.70948 0.22059 0.93912 0.0
C52 C 0.64974 0.20536 0.94739 0.0
N53 N 0.66681 0.21088 0.97708 0.0
H54 H 0.71123 0.21807 0.99588 0.0
H55 H 0.62677 0.198 0.95012 0.0
H56 H 0.68768 0.15098 1.0025 0.0
H57 H 0.59885 0.16196 0.0379 0.0
O58 O 0.68849 0.20382 0.0514 0.0
O59 O 0.64426 0.20728 0.0779 0.0
O60 O 0.60803 0.21635 1.01097 0.0
C61 C 0.67328 0.20507 0.08109 0.0
H62 H 0.63617 0.31775 0.0657 0.0
H63 H 0.66113 0.09758 1.00177 0.0
H64 H 0.64723 0.20609 0.88979 0.0
H65 H 0.73286 0.22705 0.93769 0.0
Co66 Co 0.80174 0.64914 0.03714 0.0
C67 C 0.74071 0.6759 0.02947 0.0
C68 C 0.74073 0.63484 0.05958 0.0
C69 C 0.71173 0.64509 0.05729 0.0
N70 N 0.75884 0.65401 0.04204 0.0
N71 N 0.7116 0.67083 0.03816 0.0
H72 H 0.74858 0.69473 0.01378 0.0
H73 H 0.74816 0.61474 0.07314 0.0
C74 C 0.80748 0.58831 1.00161 0.0
O75 O 0.82934 0.5982 0.98106 0.0
N76 N 0.84515 0.64306 0.03341 0.0
C77 C 0.86632 0.66175 0.0204 0.0
C78 C 0.89393 0.64789 0.02246 0.0
C79 C 0.86055 0.61842 0.04426 0.0
N80 N 0.89034 0.62046 0.03718 0.0
C81 C 0.80759 0.69132 0.97911 0.0
C82 C 0.77586 0.65911 0.92865 0.0
C83 C 0.78511 0.68836 0.91981 0.0
C84 C 0.80134 0.70435 0.9458 0.0
C85 C 0.78207 0.64715 0.96256 0.0
N86 N 0.79853 0.66282 0.98721 0.0
H87 H 0.81823 0.70508 0.99916 0.0
H88 H 0.77196 0.62594 0.96932 0.0
H89 H 0.86245 0.68395 1.01003 0.0
H90 H 0.85002 0.59916 0.0567 0.0
O91 O 0.80749 0.68762 0.06062 0.0
O92 O 0.80441 0.64411 0.08873 0.0
O93 O 0.79452 0.60578 0.024 0.0
C94 C 0.80657 0.6732 0.0909 0.0
H95 H 0.6923 0.63443 0.06919 0.0
H96 H 0.91495 0.6571 0.01289 0.0
H97 H 0.76317 0.6456 0.90996 0.0
H98 H 0.80804 0.72739 0.94135 0.0
Co99 Co 0.36529 0.80367 0.03384 0.0
C100 C 0.34016 0.74183 0.02849 0.0
C101 C 0.38106 0.7438 0.05868 0.0
C102 C 0.37144 0.71454 0.05767 0.0
N103 N 0.36156 0.76085 0.04032 0.0
N104 N 0.34579 0.71316 0.03849 0.0
H105 H 0.32116 0.74879 1.01259 0.0
H106 H 0.40087 0.75217 0.07205 0.0
C107 C 0.42665 0.80978 0.9989 0.0
O108 O 0.41699 0.83107 0.97752 0.0
N109 N 0.37023 0.84707 0.02833 0.0
C110 C 0.35192 0.86689 1.0121 0.0
C111 C 0.36565 0.8946 1.01143 0.0
C112 C 0.39438 0.86352 0.03857 0.0
N113 N 0.39256 0.89248 0.02769 0.0
C114 C 0.32257 0.80614 0.97646 0.0
C115 C 0.35568 0.77541 0.92573 0.0
C116 C 0.32588 0.78313 0.91738 0.0
C117 C 0.30945 0.79878 0.94361 0.0
C118 C 0.36778 0.78269 0.95934 0.0
N119 N 0.3516 0.79865 0.98411 0.0
H120 H 0.30858 0.8166 0.99651 0.0
H121 H 0.38962 0.77391 0.96574 0.0
H122 H 0.33023 0.86196 1.00094 0.0
H123 H 0.41369 0.85403 0.05193 0.0
O124 O 0.32664 0.80897 0.05709 0.0
O125 O 0.37004 0.80803 0.08544 0.0
O126 O 0.40885 0.79706 0.0211 0.0
C127 C 0.34088 0.80921 0.08743 0.0
H128 H 0.38241 0.69584 0.07063 0.0
H129 H 0.35655 0.91473 0.99943 0.0
H130 H 0.36955 0.7632 0.90686 0.0
H131 H 0.28605 0.80429 0.9397 0.0
Co132 Co 0.71032 0.86516 0.53846 0.0
C133 C 0.77149 0.83803 0.5358 0.0
C134 C 0.77063 0.88132 0.56122 0.0
C135 C 0.79957 0.87079 0.56163 0.0
N136 N 0.75308 0.86089 0.54498 0.0
N137 N 0.80017 0.84356 0.54573 0.0
H138 H 0.76401 0.81776 0.52256 0.0
H139 H 0.76285 0.90245 0.57209 0.0
C140 C 0.70617 0.92568 0.50183 0.0
O141 O 0.68714 0.91518 0.47809 0.0
N142 N 0.66702 0.87096 0.5331 0.0
C143 C 0.646 0.85199 0.52041 0.0
C144 C 0.61846 0.86608 0.5212 0.0
C145 C 0.65152 0.89598 0.54254 0.0
N146 N 0.62185 0.89392 0.53494 0.0
C147 C 0.70539 0.82312 0.48022 0.0
C148 C 0.7414 0.85346 0.432 0.0
C149 C 0.73082 0.82485 0.42251 0.0
C150 C 0.71229 0.80988 0.44718 0.0
C151 C 0.73381 0.86599 0.46536 0.0
N152 N 0.71532 0.85121 0.48884 0.0
H153 H 0.69341 0.80982 0.49964 0.0
H154 H 0.74445 0.88676 0.47298 0.0
H155 H 0.6498 0.82938 0.51134 0.0
H156 H 0.66191 0.91536 0.55477 0.0
O157 O 0.70424 0.82673 0.56194 0.0
O158 O 0.70618 0.87051 0.58978 0.0
O159 O 0.71728 0.90847 0.52568 0.0
C160 C 0.7044 0.84142 0.59211 0.0
H161 H 0.81879 0.88257 0.57236 0.0
H162 H 0.59766 0.85652 0.51164 0.0
H163 H 0.75668 0.86554 0.41461 0.0
H164 H 0.70368 0.78766 0.4415 0.0
Co165 Co 0.15163 0.70913 0.53541 0.0
C166 C 0.17816 0.77135 0.53062 0.0
C167 C 0.14172 0.76783 0.56803 0.0
C168 C 0.15202 0.79685 0.56837 0.0
N169 N 0.1579 0.75175 0.54422 0.0
N170 N 0.17487 0.79914 0.54474 0.0
H171 H 0.19468 0.76588 0.51056 0.0
H172 H 0.12344 0.75904 0.58401 0.0
C173 C 0.09766 0.74102 0.50566 0.0
O174 O 0.11529 0.76262 0.49417 0.0
N175 N 0.1445 0.66665 0.52786 0.0
C176 C 0.16489 0.64547 0.51951 0.0
C177 C 0.15055 0.61801 0.51769 0.0
C178 C 0.11807 0.65187 0.53097 0.0
N179 N 0.12108 0.62207 0.52482 0.0
C180 C 0.19846 0.71379 0.48261 0.0
C181 C 0.16285 0.72084 0.42287 0.0
C182 C 0.19395 0.72562 0.41931 0.0
C183 C 0.21179 0.72057 0.44963 0.0
C184 C 0.15044 0.71358 0.45647 0.0
N185 N 0.16797 0.71248 0.48646 0.0
H186 H 0.2129 0.71136 0.50555 0.0
H187 H 0.12667 0.70938 0.45805 0.0
H188 H 0.18853 0.64965 0.51517 0.0
H189 H 0.09716 0.66259 0.53833 0.0
O190 O 0.18855 0.70066 0.56118 0.0
O191 O 0.14385 0.70427 0.58641 0.0
O192 O 0.10886 0.71757 0.52016 0.0
C193 C 0.17266 0.70103 0.59043 0.0
H194 H 0.14346 0.81475 0.58514 0.0
H195 H 0.16099 0.59675 0.51119 0.0
H196 H 0.14797 0.72349 0.40024 0.0
H197 H 0.23599 0.72233 0.44824 0.0
Co198 Co 0.301 0.148 0.5373 0.0
C199 C 0.23999 0.17543 0.53654 0.0
C200 C 0.24086 0.13174 0.56084 0.0
C201 C 0.21198 0.14237 0.56203 0.0
N202 N 0.25836 0.15233 0.54475 0.0
N203 N 0.21135 0.16986 0.54682 0.0
H204 H 0.24749 0.19584 0.52364 0.0
H205 H 0.24863 0.11039 0.57098 0.0
C206 C 0.30587 0.08774 0.4998 0.0
O207 O 0.32715 0.09771 0.47845 0.0
N208 N 0.34419 0.14233 0.53103 0.0
C209 C 0.36479 0.16115 0.51699 0.0
C210 C 0.39254 0.14743 0.51776 0.0
C211 C 0.36004 0.11776 0.54105 0.0
N212 N 0.38954 0.11999 0.53262 0.0
C213 C 0.30414 0.1918 0.48067 0.0
C214 C 0.27108 0.16038 0.43069 0.0
C215 C 0.2798 0.18989 0.42233 0.0
C216 C 0.29665 0.2055 0.44811 0.0
C217 C 0.27859 0.14772 0.46385 0.0
N218 N 0.29573 0.16298 0.48818 0.0
H219 H 0.31543 0.20514 0.50063 0.0
H220 H 0.26904 0.12619 0.47034 0.0
H221 H 0.36042 0.18332 0.50681 0.0
H222 H 0.35003 0.09846 0.55399 0.0
O223 O 0.30754 0.18582 0.56208 0.0
O224 O 0.30544 0.14143 0.58838 0.0
O225 O 0.29362 0.10501 0.52296 0.0
C226 C 0.30759 0.17042 0.5917 0.0
H227 H 0.19281 0.13037 0.57266 0.0
H228 H 0.41323 0.15675 0.50733 0.0
H229 H 0.25794 0.14715 0.41215 0.0
H230 H 0.30302 0.22869 0.44406 0.0
Co231 Co 0.86044 0.30576 0.52873 0.0
C232 C 0.83257 0.24399 0.52635 0.0
C233 C 0.87162 0.24683 0.5596 0.0
C234 C 0.86089 0.218 0.56098 0.0
N235 N 0.85416 0.26317 0.53758 0.0
N236 N 0.83632 0.21613 0.54008 0.0
H237 H 0.81422 0.25007 0.50912 0.0
H238 H 0.89116 0.25531 0.57342 0.0
C239 C 0.91419 0.27408 0.49787 0.0
O240 O 0.8963 0.25297 0.48572 0.0
N241 N 0.86767 0.3482 0.52122 0.0
C242 C 0.84782 0.36908 0.51072 0.0
C243 C 0.86229 0.39644 0.50885 0.0
C244 C 0.89386 0.36308 0.52574 0.0
N245 N 0.89141 0.39279 0.51821 0.0
C246 C 0.81381 0.30087 0.4763 0.0
C247 C 0.84928 0.29516 0.41598 0.0
C248 C 0.81816 0.29042 0.41263 0.0
C249 C 0.80043 0.29487 0.44331 0.0
C250 C 0.86175 0.30193 0.44963 0.0
N251 N 0.84429 0.30235 0.47985 0.0
H252 H 0.79934 0.30293 0.49936 0.0
H253 H 0.88548 0.30636 0.45105 0.0
H254 H 0.82445 0.36477 0.50494 0.0
H255 H 0.91427 0.35217 0.53427 0.0
O256 O 0.8234 0.31423 0.5541 0.0
O257 O 0.8677 0.31068 0.57991 0.0
O258 O 0.90324 0.29727 0.51337 0.0
C259 C 0.8388 0.31385 0.58355 0.0
H260 H 0.87092 0.1997 0.57573 0.0
H261 H 0.85178 0.41737 0.50141 0.0
H262 H 0.86414 0.29298 0.39314 0.0
H263 H 0.77621 0.29333 0.44224 0.0
H264 H 0.5663 0.2662 0.93854 0.0
H265 H 0.51249 0.27687 0.93685 0.0
H266 H 0.50046 0.22888 0.03629 0.0
H267 H 0.55395 0.21684 0.03704 0.0
H268 H 0.45373 0.21978 0.99771 0.0
H269 H 0.50935 0.30864 0.03039 0.0
H270 H 0.5475 0.3482 0.02214 0.0
H271 H 0.50469 0.37604 0.92475 0.0
H272 H 0.46651 0.33637 0.93222 0.0
H273 H 0.34374 0.31875 0.08261 0.0
H274 H 0.39054 0.29402 0.06435 0.0
H275 H 0.36279 0.29777 0.9539 0.0
H276 H 0.3153 0.32173 0.97234 0.0
H277 H 0.42644 0.32744 0.98845 0.0
H278 H 0.36669 0.23933 0.96247 0.0
H279 H 0.32878 0.20075 0.97645 0.0
H280 H 0.37987 0.17302 0.068 0.0
H281 H 0.41781 0.21186 0.05492 0.0
C282 C 0.55209 0.25761 0.95979 0.0
C283 C 0.5644 0.24098 0.98814 0.0
C284 C 0.52133 0.26384 0.9589 0.0
C285 C 0.5024 0.25441 0.98695 0.0
C286 C 0.51449 0.23656 0.01438 0.0
C287 C 0.54514 0.22975 0.01485 0.0
C288 C 0.47054 0.2646 0.98905 0.0
C289 C 0.44785 0.24334 0.99566 0.0
C290 C 0.46254 0.29532 0.98597 0.0
C291 C 0.4853 0.31935 0.98165 0.0
C292 C 0.50819 0.3231 1.00712 0.0
C293 C 0.5298 0.34554 1.00259 0.0
C294 C 0.52857 0.36456 0.97289 0.0
C295 C 0.50565 0.36125 0.94771 0.0
C296 C 0.48402 0.3388 0.95208 0.0
C297 C 0.34745 0.31379 0.05453 0.0
C298 C 0.32604 0.32209 0.02886 0.0
C299 C 0.37406 0.29963 0.04415 0.0
C300 C 0.37998 0.29396 1.00786 0.0
C301 C 0.35843 0.30169 0.98209 0.0
C302 C 0.33139 0.31527 0.9926 0.0
C303 C 0.40998 0.28268 0.99723 0.0
C304 C 0.43235 0.30383 0.98953 0.0
C305 C 0.41771 0.25203 0.99993 0.0
C306 C 0.39485 0.22881 1.00801 0.0
C307 C 0.36962 0.22531 0.98588 0.0
C308 C 0.34818 0.20331 0.99356 0.0
C309 C 0.35184 0.18453 0.02319 0.0
C310 C 0.37701 0.18764 0.04512 0.0
C311 C 0.39849 0.20964 0.03757 0.0
H312 H 0.33523 0.16749 0.02908 0.0
H313 H 0.54533 0.38191 0.96941 0.0
H314 H 0.65143 0.35834 0.03184 0.0
H315 H 0.67988 0.4036 0.01904 0.0
H316 H 0.75869 0.35039 0.99714 0.0
H317 H 0.73051 0.30471 1.01145 0.0
H318 H 0.77317 0.39849 0.03649 0.0
H319 H 0.72154 0.38284 0.92822 0.0
H320 H 0.67895 0.37119 0.88857 0.0
H321 H 0.63285 0.45014 0.9252 0.0
H322 H 0.67498 0.46207 0.96548 0.0
H323 H 0.83782 0.53938 0.97531 0.0
H324 H 0.81974 0.48727 0.97225 0.0
H325 H 0.73467 0.51496 0.01668 0.0
H326 H 0.75257 0.56666 0.02028 0.0
H327 H 0.73076 0.47565 0.95528 0.0
H328 H 0.78328 0.485 0.07002 0.0
H329 H 0.82843 0.49584 0.10584 0.0
H330 H 0.87669 0.4266 0.05003 0.0
H331 H 0.8319 0.41565 0.0135 0.0
C332 C 0.67486 0.3561 0.02467 0.0
C333 C 0.68858 0.32771 0.02282 0.0
C334 C 0.69106 0.38208 0.01688 0.0
C335 C 0.72135 0.38044 1.00657 0.0
C336 C 0.7353 0.35222 1.00484 0.0
C337 C 0.71906 0.32608 1.01276 0.0
C338 C 0.73819 0.40849 0.99853 0.0
C339 C 0.76425 0.41508 0.01812 0.0
C340 C 0.72677 0.43015 0.9744 0.0
C341 C 0.70138 0.42326 0.95005 0.0
C342 C 0.70224 0.39763 0.92801 0.0
C343 C 0.67819 0.39098 0.90539 0.0
C344 C 0.6532 0.40989 0.90441 0.0
C345 C 0.65223 0.43552 0.92599 0.0
C346 C 0.67622 0.44226 0.94868 0.0
C347 C 0.8152 0.53432 0.98417 0.0
C348 C 0.79664 0.55706 0.99813 0.0
C349 C 0.80496 0.5046 0.98249 0.0
C350 C 0.77588 0.49733 0.99426 0.0
C351 C 0.75715 0.52014 1.00737 0.0
C352 C 0.76748 0.54964 1.00959 0.0
C353 C 0.76487 0.46592 0.99423 0.0
C354 C 0.73994 0.45875 0.97305 0.0
C355 C 0.77773 0.44356 0.01626 0.0
C356 C 0.80438 0.44975 0.03876 0.0
C357 C 0.80359 0.47223 0.06522 0.0
C358 C 0.8291 0.47838 0.08567 0.0
C359 C 0.85545 0.46199 0.08013 0.0
C360 C 0.85629 0.43932 0.05424 0.0
C361 C 0.83084 0.43312 0.03367 0.0
H362 H 0.87519 0.4668 0.09595 0.0
H363 H 0.63459 0.4047 0.88689 0.0
H364 H 0.70947 0.73012 0.01986 0.0
H365 H 0.66464 0.75941 1.00508 0.0
H366 H 0.60967 0.68082 0.02101 0.0
H367 H 0.65406 0.65136 0.03406 0.0
H368 H 0.59154 0.70901 0.96413 0.0
H369 H 0.61812 0.738 0.08504 0.0
H370 H 0.65078 0.75906 0.13198 0.0
H371 H 0.6536 0.84333 0.07633 0.0
H372 H 0.62129 0.8226 0.02875 0.0
H373 H 0.4483 0.7554 0.01911 0.0
H374 H 0.50015 0.73787 0.01742 0.0
H375 H 0.52848 0.82271 0.97339 0.0
H376 H 0.47613 0.84047 0.9745 0.0
H377 H 0.56376 0.79931 0.03471 0.0
H378 H 0.5299 0.77054 0.91835 0.0
H379 H 0.49474 0.7485 0.87478 0.0
H380 H 0.50361 0.66248 0.9254 0.0
H381 H 0.53849 0.6841 0.96964 0.0
C382 C 0.68789 0.719 0.01983 0.0
C383 C 0.6855 0.68835 0.0286 0.0
C384 C 0.66221 0.73587 1.01167 0.0
C385 C 0.63364 0.72245 1.01233 0.0
C386 C 0.63137 0.69178 0.02036 0.0
C387 C 0.65689 0.67497 0.02829 0.0
C388 C 0.60579 0.73991 1.00518 0.0
C389 C 0.58553 0.72873 0.97965 0.0
C390 C 0.59814 0.76622 0.0246 0.0
C391 C 0.6177 0.7786 0.05306 0.0
C392 C 0.62597 0.76091 0.08262 0.0
C393 C 0.64436 0.77281 0.10938 0.0
C394 C 0.65437 0.80247 0.10706 0.0
C395 C 0.64593 0.82032 0.07802 0.0
C396 C 0.62759 0.80851 0.05115 0.0
C397 C 0.46549 0.77038 1.00897 0.0
C398 C 0.45813 0.7993 0.99683 0.0
C399 C 0.4951 0.76028 1.00795 0.0
C400 C 0.51809 0.77896 0.99516 0.0
C401 C 0.51099 0.80799 0.9833 0.0
C402 C 0.48113 0.818 0.98375 0.0
C403 C 0.5494 0.76769 0.99468 0.0
C404 C 0.57019 0.78001 0.01868 0.0
C405 C 0.55746 0.74221 0.97421 0.0
C406 C 0.53669 0.72901 0.94746 0.0
C407 C 0.52419 0.74698 0.92037 0.0
C408 C 0.50433 0.73455 0.89552 0.0
C409 C 0.49691 0.70412 0.89735 0.0
C410 C 0.50938 0.68605 0.92401 0.0
C411 C 0.52923 0.69837 0.94895 0.0
H412 H 0.48152 0.69454 0.87809 0.0
H413 H 0.66859 0.81165 0.12782 0.0
H414 H 0.17968 0.476 0.97598 0.0
H415 H 0.1979 0.52797 0.97848 0.0
H416 H 0.27948 0.49752 0.02872 0.0
H417 H 0.26121 0.44608 0.02713 0.0
H418 H 0.25825 0.54311 0.06397 0.0
H419 H 0.27498 0.5206 0.9386 0.0
H420 H 0.26042 0.50586 0.87736 0.0
H421 H 0.19961 0.58046 0.87207 0.0
H422 H 0.2135 0.5954 0.93352 0.0
H423 H 0.36522 0.65541 0.04043 0.0
H424 H 0.33568 0.61026 0.03139 0.0
H425 H 0.25779 0.66389 1.00776 0.0
H426 H 0.28705 0.70971 0.01798 0.0
H427 H 0.26884 0.61154 0.9599 0.0
H428 H 0.25693 0.63631 0.08407 0.0
H429 H 0.27432 0.65133 0.14413 0.0
H430 H 0.32834 0.57174 0.15052 0.0
H431 H 0.31164 0.55647 0.09023 0.0
C432 C 0.20161 0.48044 0.98722 0.0
C433 C 0.21895 0.45694 1.00146 0.0
C434 C 0.21203 0.51014 0.98859 0.0
C435 C 0.24014 0.51673 1.00374 0.0
C436 C 0.25765 0.49312 0.01715 0.0
C437 C 0.24718 0.46364 0.01615 0.0
C438 C 0.25124 0.54812 1.00716 0.0
C439 C 0.26067 0.55793 0.04109 0.0
C440 C 0.25351 0.568 0.97762 0.0
C441 C 0.24498 0.55887 0.94083 0.0
C442 C 0.25828 0.53368 0.92452 0.0
C443 C 0.25019 0.52533 0.88974 0.0
C444 C 0.22902 0.54215 0.87089 0.0
C445 C 0.21594 0.5674 0.88675 0.0
C446 C 0.22391 0.57582 0.92154 0.0
C447 C 0.34178 0.65789 0.03369 0.0
C448 C 0.32852 0.68646 0.03064 0.0
C449 C 0.32496 0.63192 0.0282 0.0
C450 C 0.29452 0.63375 0.01924 0.0
C451 C 0.2813 0.66206 0.01468 0.0
C452 C 0.29812 0.68823 0.02051 0.0
C453 C 0.27665 0.60579 0.01634 0.0
C454 C 0.26591 0.59675 0.98272 0.0
C455 C 0.27331 0.58642 0.04606 0.0
C456 C 0.28318 0.59536 0.08251 0.0
C457 C 0.27269 0.62212 0.09817 0.0
C458 C 0.2824 0.63066 0.13227 0.0
C459 C 0.30246 0.61252 0.1511 0.0
C460 C 0.31281 0.58577 0.13589 0.0
C461 C 0.3032 0.57715 0.10177 0.0
H462 H 0.30996 0.61917 0.1775 0.0
H463 H 0.22282 0.53567 0.84395 0.0
H464 H 0.05409 0.69933 0.52107 0.0
H465 H 0.99968 0.7068 0.5216 0.0
H466 H 0.01218 0.79837 0.48712 0.0
H467 H 0.06629 0.79085 0.4856 0.0
H468 H 0.96682 0.74101 0.56097 0.0
H469 H 0.95435 0.82434 0.44081 0.0
H470 H 0.97594 0.83166 0.38051 0.0
H471 H 1.00052 0.73856 0.37604 0.0
H472 H 0.9787 0.73055 0.43606 0.0
H473 H 0.8502 0.84248 0.5865 0.0
H474 H 0.89641 0.81522 0.5747 0.0
H475 H 0.85631 0.77441 0.48153 0.0
H476 H 0.80999 0.80283 0.49254 0.0
H477 H 0.91027 0.79347 0.46539 0.0
H478 H 0.87104 0.73246 0.55703 0.0
H479 H 0.84714 0.71979 0.61474 0.0
H480 H 0.92176 0.75789 0.67129 0.0
H481 H 0.94596 0.77121 0.61392 0.0
C482 C 0.04522 0.72093 0.51311 0.0
C483 C 0.06461 0.74448 0.50324 0.0
C484 C 0.01408 0.72519 0.51351 0.0
C485 C 1.00167 0.75306 0.50407 0.0
C486 C 0.02102 0.77643 0.49374 0.0
C487 C 0.05208 0.77214 0.49307 0.0
C488 C 0.96877 0.75858 0.50723 0.0
C489 C 0.95441 0.75225 0.53994 0.0
C490 C 0.95212 0.77231 0.47941 0.0
C491 C 0.96504 0.7769 0.44309 0.0
C492 C 0.96421 0.80538 0.42689 0.0
C493 C 0.97652 0.80966 0.39277 0.0
C494 C 0.98965 0.7856 0.37449 0.0
C495 C 0.99043 0.75719 0.39027 0.0
C496 C 0.97812 0.75278 0.42437 0.0
C497 C 0.85111 0.82777 0.56344 0.0
C498 C 0.82641 0.82508 0.5403 0.0
C499 C 0.87751 0.81183 0.55697 0.0
C500 C 0.87983 0.79242 0.52745 0.0
C501 C 0.85503 0.78915 0.50458 0.0
C502 C 0.82849 0.80523 0.51104 0.0
C503 C 0.9089 0.77722 0.5197 0.0
C504 C 0.92253 0.78175 0.48617 0.0
C505 C 0.92459 0.76103 0.54638 0.0
C506 C 0.91027 0.75296 0.58109 0.0
C507 C 0.88229 0.73832 0.58176 0.0
C508 C 0.8687 0.731 0.61442 0.0
C509 C 0.88291 0.73805 0.64665 0.0
C510 C 0.91078 0.75242 0.64629 0.0
C511 C 0.92448 0.75982 0.61369 0.0
H512 H 0.87235 0.73233 0.67187 0.0
H513 H 0.99919 0.78897 0.34809 0.0
H514 H 0.25224 0.06557 0.52183 0.0
H515 H 0.23646 0.01335 0.5244 0.0
H516 H 0.32033 0.98585 0.47657 0.0
H517 H 0.3362 0.03871 0.47322 0.0
H518 H 0.27239 0.95187 0.45166 0.0
H519 H 0.3131 0.97881 0.56428 0.0
H520 H 0.32137 0.01053 0.6175 0.0
H521 H 0.22841 1.00198 0.64645 0.0
H522 H 0.21948 0.97053 0.59311 0.0
H523 H 0.23146 0.80281 0.51688 0.0
H524 H 0.26004 0.8487 0.50461 0.0
H525 H 0.18536 0.90205 0.54157 0.0
H526 H 0.15657 0.85672 0.5531 0.0
H527 H 0.23959 0.91835 0.57242 0.0
H528 H 0.20006 0.89471 0.45347 0.0
H529 H 0.19455 0.86111 0.40133 0.0
H530 H 0.29011 0.86064 0.38622 0.0
H531 H 0.29621 0.89395 0.4386 0.0
C532 C 0.26732 0.0485 0.51159 0.0
C533 C 0.29563 0.05621 0.49773 0.0
C534 C 0.25825 0.01862 0.51309 0.0
C535 C 0.27747 0.99563 0.50139 0.0
C536 C 0.30522 1.00324 0.4859 0.0
C537 C 0.31425 0.03339 0.48403 0.0
C538 C 0.26871 0.96387 0.50748 0.0
C539 C 0.26576 0.94431 0.47815 0.0
C540 C 0.26031 0.95386 0.54209 0.0
C541 C 0.2656 0.97241 0.57457 0.0
C542 C 0.29438 0.98381 0.58189 0.0
C543 C 0.29919 1.00174 0.61209 0.0
C544 C 0.27542 0.0083 0.63532 0.0
C545 C 0.24681 0.99687 0.62844 0.0
C546 C 0.24187 0.97894 0.59826 0.0
C547 C 0.22097 0.82429 0.52199 0.0
C548 C 0.19171 0.82595 0.53632 0.0
C549 C 0.2374 0.8505 0.51506 0.0
C550 C 0.22483 0.87876 0.52228 0.0
C551 C 0.19559 0.88045 0.5361 0.0
C552 C 0.17919 0.85442 0.54287 0.0
C553 C 0.24195 0.90689 0.51643 0.0
C554 C 0.24666 0.92572 0.546 0.0
C555 C 0.25241 0.91587 0.48221 0.0
C556 C 0.24861 0.89656 0.45016 0.0
C557 C 0.2199 0.88731 0.43914 0.0
C558 C 0.21667 0.86833 0.40954 0.0
C559 C 0.24197 0.85865 0.39055 0.0
C560 C 0.27054 0.8681 0.40099 0.0
C561 C 0.27389 0.88706 0.43061 0.0
H562 H 0.23943 0.84388 0.3677 0.0
H563 H 0.27918 0.02221 0.65867 0.0
H564 H 0.15997 0.16858 0.58576 0.0
H565 H 0.11342 0.19466 0.57297 0.0
H566 H 0.15616 0.24085 0.48497 0.0
H567 H 0.20273 0.21333 0.49649 0.0
H568 H 0.09451 0.24928 0.57219 0.0
H569 H 0.10433 0.25273 0.41949 0.0
H570 H 0.13174 0.22723 0.37055 0.0
H571 H 0.13513 0.14628 0.43275 0.0
H572 H 0.10751 0.17123 0.48186 0.0
H573 H 0.95823 0.31482 0.5145 0.0
H574 H 0.01237 0.30589 0.51712 0.0
H575 H 0.99882 0.21512 0.48022 0.0
H576 H 0.94494 0.22409 0.4766 0.0
H577 H 0.04887 0.23659 0.45204 0.0
H578 H 1.00434 0.23293 0.57072 0.0
H579 H 0.97571 0.25359 0.62179 0.0
H580 H 0.03887 0.32595 0.63114 0.0
H581 H 0.06767 0.3059 0.57979 0.0
C582 C 0.15955 0.18406 0.56346 0.0
C583 C 0.18502 0.18827 0.54167 0.0
C584 C 0.13291 0.19934 0.55646 0.0
C585 C 0.13101 0.21941 0.52762 0.0
C586 C 0.15687 0.22505 0.50698 0.0
C587 C 0.1836 0.20949 0.51381 0.0
C588 C 0.10138 0.23279 0.51848 0.0
C589 C 0.08471 0.24682 0.54577 0.0
C590 C 0.08835 0.22946 0.48411 0.0
C591 C 0.10417 0.21395 0.45442 0.0
C592 C 0.11083 0.22945 0.42261 0.0
C593 C 0.12642 0.21511 0.39488 0.0
C594 C 0.13527 0.18519 0.3986 0.0
C595 C 0.12836 0.16948 0.42996 0.0
C596 C 0.11276 0.18371 0.45775 0.0
C597 C 0.96682 0.29308 0.50645 0.0
C598 C 0.94718 0.27005 0.4957 0.0
C599 C 0.99779 0.288 0.50804 0.0
C600 C 0.00968 0.25966 0.49944 0.0
C601 C 0.99025 0.23717 0.487 0.0
C602 C 0.95936 0.24231 0.48508 0.0
C603 C 0.04183 0.25245 0.50599 0.0
C604 C 0.05894 0.23966 0.47822 0.0
C605 C 0.05505 0.25623 0.54017 0.0
C606 C 0.03794 0.26813 0.57121 0.0
C607 C 0.012 0.25335 0.58355 0.0
C608 C 0.99576 0.26493 0.61254 0.0
C609 C 1.00541 0.29112 0.62963 0.0
C610 C 0.03139 0.30571 0.61783 0.0
C611 C 0.04768 0.29425 0.5888 0.0
H612 H 0.99281 0.30005 0.65207 0.0
H613 H 0.14742 0.17416 0.37715 0.0
H614 H 0.80094 0.20436 0.4822 0.0
H615 H 0.77457 0.15734 0.46916 0.0
H616 H 0.80572 0.12033 0.56906 0.0
H617 H 0.83171 0.16692 0.5824 0.0
H618 H 0.81728 0.08339 0.51271 0.0
H619 H 0.73317 0.14144 0.55838 0.0
H620 H 0.69818 0.18433 0.55878 0.0
H621 H 0.67085 0.16309 0.45151 0.0
H622 H 0.70588 0.12019 0.45034 0.0
H623 H 0.73772 0.95523 0.55307 0.0
H624 H 0.75563 1.00668 0.55227 0.0
H625 H 0.71422 0.02059 0.44933 0.0
H626 H 0.69549 0.96863 0.45016 0.0
H627 H 0.70778 0.07007 0.49485 0.0
H628 H 0.78764 0.00865 0.4517 0.0
H629 H 0.8217 0.96504 0.45179 0.0
H630 H 0.85761 0.99291 0.55313 0.0
H631 H 0.82344 0.03644 0.55394 0.0
C632 C 0.80178 0.18641 0.50168 0.0
C633 C 0.81875 0.18947 0.53327 0.0
C634 C 0.78673 0.15951 0.49412 0.0
C635 C 0.78829 0.13528 0.51808 0.0
C636 C 0.80444 0.13862 0.55001 0.0
C637 C 0.81942 0.16534 0.55753 0.0
C638 C 0.77454 0.10575 0.50963 0.0
C639 C 0.79332 0.08049 0.50897 0.0
C640 C 0.74344 0.10209 0.50334 0.0
C641 C 0.7224 0.12784 0.50411 0.0
C642 C 0.71989 0.14607 0.53476 0.0
C643 C 0.70002 0.17035 0.53516 0.0
C644 C 0.68241 0.17651 0.50514 0.0
C645 C 0.68455 0.15833 0.47471 0.0
C646 C 0.70438 0.13401 0.47418 0.0
C647 C 0.73228 0.96909 0.53017 0.0
C648 C 0.71554 0.9576 0.50138 0.0
C649 C 0.74258 0.99859 0.52979 0.0
C650 C 0.73681 0.0173 0.50042 0.0
C651 C 0.7191 1.00643 0.47215 0.0
C652 C 0.70853 0.97674 0.47261 0.0
C653 C 0.75046 0.0477 0.49934 0.0
C654 C 0.73179 0.07306 0.498 0.0
C655 C 0.78177 0.05159 0.50365 0.0
C656 C 0.80285 0.02576 0.50294 0.0
C657 C 0.8027 1.00541 0.47409 0.0
C658 C 0.82203 0.9807 0.47398 0.0
C659 C 0.84178 0.97619 0.50247 0.0
C660 C 0.84231 0.99644 0.53108 0.0
C661 C 0.82299 0.02116 0.53134 0.0
H662 H 0.8567 0.95702 0.50236 0.0
H663 H 0.66705 0.19532 0.50551 0.0
H664 H 0.22807 0.18061 0.38273 0.0
H665 H 0.21305 0.20486 0.32694 0.0
H666 H 0.29314 0.25885 0.32879 0.0
H667 H 0.3096 0.23346 0.38324 0.0
H668 H 0.2266 0.28783 0.31838 0.0
H669 H 0.30149 0.21575 0.27408 0.0
H670 H 0.32177 0.16446 0.26834 0.0
H671 H 0.23847 0.13448 0.22316 0.0
H672 H 0.21756 0.18555 0.22917 0.0
H673 H 0.2295 0.36343 0.15263 0.0
H674 H 0.23917 0.33712 0.20854 0.0
H675 H 0.19445 0.25849 0.16714 0.0
H676 H 0.18652 0.2844 0.10997 0.0
H677 H 0.23936 0.23978 0.19934 0.0
H678 H 0.16419 0.30853 0.23686 0.0
H679 H 0.13861 0.35721 0.2444 0.0
H680 H 0.21349 0.39074 0.30449 0.0
H681 H 0.23971 0.34239 0.29692 0.0
C682 C 0.243 0.19711 0.3711 0.0
C683 C 0.27032 0.20474 0.38794 0.0
C684 C 0.2341 0.21123 0.33926 0.0
C685 C 0.25195 0.23367 0.32374 0.0
C686 C 0.27895 0.24166 0.34043 0.0
C687 C 0.28821 0.22717 0.37184 0.0
C688 C 0.24246 0.24889 0.29012 0.0
C689 C 0.22963 0.27757 0.29224 0.0
C690 C 0.24522 0.23492 0.25627 0.0
C691 C 0.25785 0.20434 0.25251 0.0
C692 C 0.2874 0.19814 0.2633 0.0
C693 C 0.29903 0.16914 0.25991 0.0
C694 C 0.28139 0.1462 0.24551 0.0
C695 C 0.2521 0.15225 0.23438 0.0
C696 C 0.24035 0.18122 0.23775 0.0
C697 C 0.22129 0.34068 0.15558 0.0
C698 C 0.20693 0.32613 0.12693 0.0
C699 C 0.22672 0.32559 0.18781 0.0
C700 C 0.21704 0.29581 0.19283 0.0
C701 C 0.20219 0.28141 0.1643 0.0
C702 C 0.19743 0.2963 0.13163 0.0
C703 C 0.22377 0.27941 0.22706 0.0
C704 C 0.23603 0.25032 0.22525 0.0
C705 C 0.21971 0.29276 0.26136 0.0
C706 C 0.20402 0.32189 0.26605 0.0
C707 C 0.17529 0.32635 0.25147 0.0
C708 C 0.16067 0.35388 0.25579 0.0
C709 C 0.17444 0.37708 0.27484 0.0
C710 C 0.20285 0.37276 0.28971 0.0
C711 C 0.21759 0.34529 0.28545 0.0
H712 H 0.16308 0.39837 0.27815 0.0
H713 H 0.29044 0.12376 0.24289 0.0
H714 H 0.64895 0.20265 0.14888 0.0
H715 H 0.67402 0.2142 0.20561 0.0
H716 H 0.75709 0.22936 0.14865 0.0
H717 H 0.73258 0.21638 0.09246 0.0
H718 H 0.77078 0.20508 0.20733 0.0
H719 H 0.70763 0.28796 0.17809 0.0
H720 H 0.66051 0.31365 0.16222 0.0
H721 H 0.62077 0.28542 0.26162 0.0
H722 H 0.66753 0.25914 0.27784 0.0
H723 H 0.83591 0.30259 0.34266 0.0
H724 H 0.8124 0.28547 0.28704 0.0
H725 H 0.74414 0.23963 0.34787 0.0
H726 H 0.76825 0.25472 0.40342 0.0
H727 H 0.72349 0.28001 0.2881 0.0
H728 H 0.79086 0.19755 0.31529 0.0
H729 H 0.84041 0.1758 0.32887 0.0
H730 H 0.87524 0.20965 0.22938 0.0
H731 H 0.82597 0.23201 0.21547 0.0
C732 C 0.67267 0.20798 0.14859 0.0
C733 C 0.68872 0.20859 0.11611 0.0
C734 C 0.68697 0.2149 0.18103 0.0
C735 C 0.71743 0.22345 0.18159 0.0
C736 C 0.73364 0.22297 0.14923 0.0
C737 C 0.71952 0.2155 0.11697 0.0
C738 C 0.73228 0.23368 0.21547 0.0
C739 C 0.76046 0.22172 0.22466 0.0
C740 C 0.71906 0.25537 0.23853 0.0
C741 C 0.69098 0.27132 0.22901 0.0
C742 C 0.68877 0.28706 0.19646 0.0
C743 C 0.66214 0.30174 0.18741 0.0
C744 C 0.63764 0.30111 0.21086 0.0
C745 C 0.63975 0.28585 0.24346 0.0
C746 C 0.66632 0.27106 0.2526 0.0
C747 C 0.81618 0.28851 0.34444 0.0
C748 C 0.80403 0.28044 0.37804 0.0
C749 C 0.80261 0.27894 0.31248 0.0
C750 C 0.7764 0.26144 0.31332 0.0
C751 C 0.76416 0.25339 0.34657 0.0
C752 C 0.77797 0.26238 0.37844 0.0
C753 C 0.76166 0.25132 0.27965 0.0
C754 C 0.73361 0.26338 0.27058 0.0
C755 C 0.7753 0.23032 0.25629 0.0
C756 C 0.80483 0.21673 0.26454 0.0
C757 C 0.80916 0.2006 0.29647 0.0
C758 C 0.83718 0.18811 0.3042 0.0
C759 C 0.86099 0.19142 0.28005 0.0
C760 C 0.85679 0.20715 0.24809 0.0
C761 C 0.82882 0.21972 0.24026 0.0
H762 H 0.88266 0.18173 0.28608 0.0
H763 H 0.61703 0.31249 0.20381 0.0
H764 H 0.80456 0.73387 0.10259 0.0
H765 H 0.79431 0.76004 0.15893 0.0
H766 H 0.79213 0.6753 0.21464 0.0
H767 H 0.80182 0.64895 0.15817 0.0
H768 H 0.74556 0.70785 0.23387 0.0
H769 H 0.85109 0.72666 0.22419 0.0
H770 H 0.89788 0.74355 0.19507 0.0
H771 H 0.86252 0.83289 0.1867 0.0
H772 H 0.81533 0.81645 0.21535 0.0
H773 H 0.74432 0.76534 0.41111 0.0
H774 H 0.75885 0.74079 0.35527 0.0
H775 H 0.75467 0.82562 0.30011 0.0
H776 H 0.73954 0.85044 0.35595 0.0
H777 H 0.80456 0.79374 0.28053 0.0
H778 H 0.69901 0.77457 0.2901 0.0
H779 H 0.65242 0.75756 0.31959 0.0
H780 H 0.68833 0.66846 0.32837 0.0
H781 H 0.73532 0.68504 0.29937 0.0
C782 C 0.80237 0.7208 0.12691 0.0
C783 C 0.80414 0.68927 0.1258 0.0
C784 C 0.79655 0.73584 0.15923 0.0
C785 C 0.79261 0.71977 0.19133 0.0
C786 C 0.79503 0.6883 0.19036 0.0
C787 C 0.80076 0.67324 0.15802 0.0
C788 C 0.78456 0.73556 0.22549 0.0
C789 C 0.75879 0.72632 0.2443 0.0
C790 C 0.80121 0.76028 0.23882 0.0
C791 C 0.82956 0.77025 0.2216 0.0
C792 C 0.85319 0.74986 0.21587 0.0
C793 C 0.8798 0.75936 0.1995 0.0
C794 C 0.88314 0.78926 0.18895 0.0
C795 C 0.85989 0.80973 0.19484 0.0
C796 C 0.83321 0.80034 0.21118 0.0
C797 C 0.74602 0.77885 0.38709 0.0
C798 C 0.74028 0.80995 0.3882 0.0
C799 C 0.75453 0.76472 0.3551 0.0
C800 C 0.75753 0.78121 0.32323 0.0
C801 C 0.7525 0.81235 0.32428 0.0
C802 C 0.74389 0.82654 0.35633 0.0
C803 C 0.76573 0.76585 0.2889 0.0
C804 C 0.79142 0.77522 0.27006 0.0
C805 C 0.74907 0.74119 0.27554 0.0
C806 C 0.7208 0.73113 0.29288 0.0
C807 C 0.69706 0.7514 0.29858 0.0
C808 C 0.67057 0.74183 0.31516 0.0
C809 C 0.66745 0.71197 0.32593 0.0
C810 C 0.69079 0.6916 0.32006 0.0
C811 C 0.71736 0.70106 0.30352 0.0
H812 H 0.64691 0.7046 0.33876 0.0
H813 H 0.90376 0.79657 0.17629 0.0
H814 H 0.28203 0.79463 0.09786 0.0
H815 H 0.25662 0.78335 0.15418 0.0
H816 H 0.33705 0.80603 0.21236 0.0
H817 H 0.36307 0.8159 0.15559 0.0
H818 H 0.3165 0.75859 0.23983 0.0
H819 H 0.26933 0.85134 0.21123 0.0
H820 H 0.24239 0.88838 0.1743 0.0
H821 H 0.1672 0.82851 0.16609 0.0
H822 H 0.19386 0.79093 0.20259 0.0
H823 H 0.24248 0.76319 0.41037 0.0
H824 H 0.26634 0.77932 0.35475 0.0
H825 H 0.20038 0.73063 0.29383 0.0
H826 H 0.17696 0.71305 0.34946 0.0
H827 H 0.21335 0.79258 0.26949 0.0
H828 H 0.2639 0.6998 0.2991 0.0
H829 H 0.29177 0.66582 0.3391 0.0
H830 H 0.36217 0.7311 0.34892 0.0
H831 H 0.33448 0.76566 0.30937 0.0
C832 C 0.29422 0.79771 0.12266 0.0
C833 C 0.32457 0.8064 0.12216 0.0
C834 C 0.27956 0.79133 0.15504 0.0
C835 C 0.29458 0.7942 0.18798 0.0
C836 C 0.32478 0.80357 0.18752 0.0
C837 C 0.33964 0.80944 0.15501 0.0
C838 C 0.27932 0.78592 0.22253 0.0
C839 C 0.29414 0.76654 0.2464 0.0
C840 C 0.24984 0.79568 0.23134 0.0
C841 C 0.23372 0.8182 0.20938 0.0
C842 C 0.24714 0.84598 0.20133 0.0
C843 C 0.2319 0.86709 0.18051 0.0
C844 C 0.20313 0.86077 0.16779 0.0
C845 C 0.18951 0.83336 0.17593 0.0
C846 C 0.20465 0.81216 0.19672 0.0
C847 C 0.23318 0.75534 0.38529 0.0
C848 C 0.20787 0.73628 0.38482 0.0
C849 C 0.24679 0.76491 0.3534 0.0
C850 C 0.2353 0.75606 0.32008 0.0
C851 C 0.20961 0.7378 0.31926 0.0
C852 C 0.19616 0.72784 0.35121 0.0
C853 C 0.25058 0.76539 0.28622 0.0
C854 C 0.23575 0.78488 0.26268 0.0
C855 C 0.28023 0.75626 0.278 0.0
C856 C 0.29697 0.73543 0.30158 0.0
C857 C 0.2852 0.70701 0.31004 0.0
C858 C 0.30099 0.68763 0.33258 0.0
C859 C 0.32869 0.69633 0.34662 0.0
C860 C 0.34069 0.7244 0.33807 0.0
C861 C 0.32497 0.74389 0.31557 0.0
H862 H 0.34088 0.68129 0.36406 0.0
H863 H 0.19137 0.87714 0.15168 0.0
H864 H 0.69645 0.78153 0.60636 0.0
H865 H 0.7077 0.75499 0.66241 0.0
H866 H 0.73214 0.83874 0.71212 0.0
H867 H 0.72025 0.86554 0.65668 0.0
H868 H 0.77453 0.77123 0.70401 0.0
H869 H 0.68838 0.83027 0.75496 0.0
H870 H 0.63543 0.84626 0.75163 0.0
H871 H 0.60747 0.75416 0.7454 0.0
H872 H 0.66035 0.73772 0.74817 0.0
H873 H 0.81579 0.73136 0.88072 0.0
H874 H 0.80007 0.75673 0.82627 0.0
H875 H 0.72015 0.7022 0.82283 0.0
H876 H 0.73423 0.67871 0.87906 0.0
H877 H 0.70429 0.75364 0.80522 0.0
H878 H 0.78585 0.6927 0.7649 0.0
H879 H 0.83711 0.67187 0.76305 0.0
H880 H 0.87294 0.75971 0.74282 0.0
H881 H 0.82193 0.78114 0.745 0.0
C882 C 0.70362 0.79438 0.62945 0.0
C883 C 0.70723 0.82571 0.62708 0.0
C884 C 0.71012 0.77916 0.6614 0.0
C885 C 0.7206 0.79492 0.69145 0.0
C886 C 0.72376 0.8262 0.68937 0.0
C887 C 0.71685 0.84148 0.65766 0.0
C888 C 0.72995 0.77858 0.72429 0.0
C889 C 0.75938 0.76763 0.72642 0.0
C890 C 0.70987 0.77296 0.75281 0.0
C891 C 0.67823 0.78284 0.75126 0.0
C892 C 0.67094 0.81349 0.75246 0.0
C893 C 0.64096 0.82262 0.75078 0.0
C894 C 0.61811 0.80124 0.74816 0.0
C895 C 0.62519 0.77069 0.74733 0.0
C896 C 0.65515 0.76147 0.74896 0.0
C897 C 0.79465 0.72489 0.86881 0.0
C898 C 0.77646 0.70269 0.88482 0.0
C899 C 0.78589 0.73917 0.83705 0.0
C900 C 0.7591 0.73114 0.81965 0.0
C901 C 0.74099 0.70889 0.83538 0.0
C902 C 0.7494 0.69503 0.86753 0.0
C903 C 0.74947 0.7465 0.78579 0.0
C904 C 0.71979 0.75715 0.78315 0.0
C905 C 0.76933 0.75134 0.75647 0.0
C906 C 0.80007 0.73857 0.7555 0.0
C907 C 0.80468 0.70761 0.76037 0.0
C908 C 0.83369 0.69569 0.75921 0.0
C909 C 0.85827 0.71447 0.75295 0.0
C910 C 0.85389 0.74521 0.74779 0.0
C911 C 0.82493 0.75725 0.74893 0.0
H912 H 0.8807 0.70519 0.75198 0.0
H913 H 0.59491 0.80835 0.74689 0.0
H914 H 0.22956 0.68393 0.60929 0.0
H915 H 0.25556 0.69446 0.66594 0.0
H916 H 0.17539 0.7358 0.70786 0.0
H917 H 0.149 0.72451 0.65191 0.0
H918 H 0.238 0.77078 0.70519 0.0
H919 H 0.18537 0.68125 0.74633 0.0
H920 H 0.17155 0.62774 0.74297 0.0
H921 H 0.26446 0.60292 0.74984 0.0
H922 H 0.27886 0.65636 0.75265 0.0
H923 H 0.28049 0.81147 0.88001 0.0
H924 H 0.25468 0.79455 0.8266 0.0
H925 H 0.31377 0.71809 0.81958 0.0
H926 H 0.33776 0.73315 0.87526 0.0
H927 H 0.26308 0.69942 0.80249 0.0
H928 H 0.31801 0.78476 0.76249 0.0
H929 H 0.33619 0.83704 0.76211 0.0
H930 H 0.24609 0.86881 0.74753 0.0
H931 H 0.22732 0.81673 0.7483 0.0
C932 C 0.21728 0.69463 0.6309 0.0
C933 C 0.18714 0.70316 0.62618 0.0
C934 C 0.23218 0.7007 0.66319 0.0
C935 C 0.21741 0.71594 0.69109 0.0
C936 C 0.18717 0.72393 0.68673 0.0
C937 C 0.17207 0.71726 0.6548 0.0
C938 C 0.23402 0.72533 0.7238 0.0
C939 C 0.24321 0.75533 0.72675 0.0
C940 C 0.24186 0.70488 0.75111 0.0
C941 C 0.23321 0.67281 0.74919 0.0
C942 C 0.20288 0.6644 0.74665 0.0
C943 C 0.19493 0.63408 0.74497 0.0
C944 C 0.21711 0.61194 0.74606 0.0
C945 C 0.2473 0.62009 0.74892 0.0
C946 C 0.25536 0.65039 0.75056 0.0
C947 C 0.28788 0.79077 0.86767 0.0
C948 C 0.31146 0.77382 0.88263 0.0
C949 C 0.27333 0.78136 0.83639 0.0
C950 C 0.2825 0.75527 0.81817 0.0
C951 C 0.30616 0.73838 0.83277 0.0
C952 C 0.32028 0.74739 0.86459 0.0
C953 C 0.267 0.74529 0.7845 0.0
C954 C 0.25806 0.71509 0.78111 0.0
C955 C 0.26004 0.76547 0.75626 0.0
C956 C 0.27123 0.79684 0.7558 0.0
C957 C 0.30205 0.8029 0.75946 0.0
C958 C 0.31246 0.8325 0.75914 0.0
C959 C 0.2923 0.85623 0.75489 0.0
C960 C 0.26168 0.85041 0.75086 0.0
C961 C 0.25114 0.82085 0.75121 0.0
H962 H 0.3004 0.87913 0.75463 0.0
H963 H 0.21092 0.58848 0.74481 0.0
H964 H 0.28772 0.14631 0.65469 0.0
H965 H 0.27717 0.17268 0.71102 0.0
H966 H 0.31191 0.25461 0.66586 0.0
H967 H 0.32168 0.2286 0.60889 0.0
H968 H 0.32735 0.22773 0.75041 0.0
H969 H 0.2529 0.26574 0.6623 0.0
H970 H 0.21544 0.25577 0.6152 0.0
H971 H 0.16664 0.19835 0.68704 0.0
H972 H 0.20418 0.20755 0.73434 0.0
H973 H 0.27907 0.33295 0.87959 0.0
H974 H 0.29395 0.30828 0.82428 0.0
H975 H 0.21491 0.25254 0.82921 0.0
H976 H 0.19831 0.27909 0.88278 0.0
H977 H 0.22292 0.26476 0.76442 0.0
H978 H 0.28968 0.22838 0.85389 0.0
H979 H 0.3261 0.23187 0.90337 0.0
H980 H 0.38839 0.27734 0.8342 0.0
H981 H 0.35218 0.27451 0.78442 0.0
C982 C 0.29365 0.16981 0.6569 0.0
C983 C 0.3056 0.18535 0.62728 0.0
C984 C 0.28753 0.18485 0.68911 0.0
C985 C 0.29371 0.21559 0.69259 0.0
C986 C 0.30701 0.23086 0.66372 0.0
C987 C 0.31257 0.21598 0.63121 0.0
C988 C 0.28419 0.2321 0.7254 0.0
C989 C 0.30469 0.23629 0.75341 0.0
C990 C 0.25432 0.24209 0.72982 0.0
C991 C 0.23149 0.23707 0.70166 0.0
C992 C 0.23434 0.25076 0.66791 0.0
C993 C 0.21308 0.24529 0.64121 0.0
C994 C 0.18872 0.22639 0.6481 0.0
C995 C 0.18555 0.21295 0.68173 0.0
C996 C 0.2068 0.21829 0.70848 0.0
C997 C 0.26434 0.31596 0.86872 0.0
C998 C 0.23732 0.30822 0.88625 0.0
C999 C 0.27329 0.30133 0.83717 0.0
C1000 C 0.25605 0.27785 0.8227 0.0
C1001 C 0.22887 0.27037 0.83973 0.0
C1002 C 0.21955 0.28543 0.87086 0.0
C1003 C 0.26624 0.26121 0.78984 0.0
C1004 C 0.24574 0.2566 0.76173 0.0
C1005 C 0.29601 0.25019 0.7858 0.0
C1006 C 0.31808 0.25148 0.8155 0.0
C1007 C 0.31109 0.23927 0.84928 0.0
C1008 C 0.33169 0.24112 0.87738 0.0
C1009 C 0.3595 0.2549 0.87196 0.0
C1010 C 0.36682 0.26672 0.83837 0.0
C1011 C 0.34627 0.26497 0.81019 0.0
H1012 H 0.3754 0.25636 0.89376 0.0
H1013 H 0.17223 0.22226 0.62746 0.0
H1014 H 0.74972 0.21 0.88381 0.0
H1015 H 0.77248 0.22941 0.82907 0.0
H1016 H 0.68655 0.26247 0.79449 0.0
H1017 H 0.66362 0.24483 0.85043 0.0
H1018 H 0.72885 0.22709 0.74036 0.0
H1019 H 0.7215 0.3127 0.82004 0.0
H1020 H 0.72798 0.33821 0.87815 0.0
H1021 H 0.823 0.32272 0.87298 0.0
H1022 H 0.81699 0.29658 0.81508 0.0
H1023 H 0.77867 0.31657 0.59721 0.0
H1024 H 0.75271 0.30309 0.65263 0.0
H1025 H 0.83776 0.2909 0.70533 0.0
H1026 H 0.86404 0.30441 0.64973 0.0
H1027 H 0.79476 0.31658 0.75069 0.0
H1028 H 0.80429 0.23229 0.67325 0.0
H1029 H 0.80063 0.20534 0.61589 0.0
H1030 H 0.70476 0.21492 0.61782 0.0
H1031 H 0.70793 0.24276 0.67491 0.0
C1032 C 0.7355 0.22163 0.86493 0.0
C1033 C 0.70474 0.22624 0.87225 0.0
C1034 C 0.74862 0.23248 0.83338 0.0
C1035 C 0.73128 0.2476 0.80788 0.0
C1036 C 0.70033 0.25085 0.81389 0.0
C1037 C 0.68723 0.24052 0.84587 0.0
C1038 C 0.74598 0.26106 0.77584 0.0
C1039 C 0.7428 0.24697 0.74243 0.0
C1040 C 0.765 0.28639 0.77884 0.0
C1041 C 0.76875 0.30238 0.81343 0.0
C1042 C 0.74374 0.31446 0.83146 0.0
C1043 C 0.74733 0.3291 0.86433 0.0
C1044 C 0.77587 0.33203 0.8793 0.0
C1045 C 0.80089 0.32039 0.86137 0.0
C1046 C 0.79741 0.30568 0.82852 0.0
C1047 C 0.79194 0.31165 0.62075 0.0
C1048 C 0.82349 0.31144 0.61891 0.0
C1049 C 0.77701 0.30381 0.65243 0.0
C1050 C 0.79324 0.2955 0.68305 0.0
C1051 C 0.82474 0.29715 0.68205 0.0
C1052 C 0.83975 0.30491 0.65023 0.0
C1053 C 0.77733 0.28289 0.71493 0.0
C1054 C 0.78052 0.29692 0.74842 0.0
C1055 C 0.75857 0.25726 0.71209 0.0
C1056 C 0.75638 0.23993 0.67818 0.0
C1057 C 0.78243 0.22888 0.66133 0.0
C1058 C 0.78045 0.21341 0.62884 0.0
C1059 C 0.75249 0.20841 0.61313 0.0
C1060 C 0.72643 0.21884 0.62997 0.0
C1061 C 0.7283 0.23451 0.66241 0.0
H1062 H 0.75105 0.19642 0.58795 0.0
H1063 H 0.7786 0.34337 0.90475 0.0
H1064 H 0.95017 0.6292 0.04642 0.0
H1065 H 0.98942 0.59109 0.04945 0.0
H1066 H 0.9226 0.52148 0.04077 0.0
H1067 H 0.88309 0.55966 0.03785 0.0
H1068 H 0.96408 0.50544 0.08827 0.0
H1069 H 0.96694 0.54331 0.96816 0.0
H1070 H 0.97004 0.58209 0.9212 0.0
H1071 H 0.0566 0.60905 0.9599 0.0
H1072 H 0.05382 0.57068 1.00743 0.0
H1073 H 0.06229 0.38659 0.03895 0.0
H1074 H 0.02348 0.42496 0.04213 0.0
H1075 H 0.09143 0.49366 0.04827 0.0
H1076 H 0.13059 0.45527 0.04353 0.0
H1077 H 0.04963 0.51055 1.0031 0.0
H1078 H 0.04712 0.47122 0.12252 0.0
H1079 H 0.0436 0.43212 0.16905 0.0
H1080 H 0.95609 0.40742 0.13127 0.0
H1081 H 0.95925 0.4461 0.08417 0.0
C1082 C 0.94374 0.60581 0.04504 0.0
C1083 C 0.91333 0.59766 0.04158 0.0
C1084 C 0.96631 0.58394 0.04676 0.0
C1085 C 0.95924 0.55323 0.04464 0.0
C1086 C 0.92881 0.54495 0.04235 0.0
C1087 C 0.90615 0.56687 0.0408 0.0
C1088 C 0.98359 0.52993 0.04432 0.0
C1089 C 0.98257 0.50638 0.06932 0.0
C1090 C 0.00825 0.53131 0.0202 0.0
C1091 C 0.01003 0.55432 0.99157 0.0
C1092 C 0.98653 0.55765 0.96682 0.0
C1093 C 0.98825 0.57954 0.94008 0.0
C1094 C 0.01347 0.59807 0.93763 0.0
C1095 C 0.03706 0.59471 0.96186 0.0
C1096 C 0.03544 0.57288 0.98869 0.0
C1097 C 0.06916 0.40981 0.04087 0.0
C1098 C 0.09983 0.4176 0.04087 0.0
C1099 C 0.04677 0.43185 0.04313 0.0
C1100 C 0.05427 0.46241 0.04593 0.0
C1101 C 0.08488 0.47031 0.04628 0.0
C1102 C 0.10735 0.44822 0.0439 0.0
C1103 C 0.03022 0.48604 0.04714 0.0
C1104 C 0.03124 0.50964 0.02219 0.0
C1105 C 1.00554 0.48464 0.07126 0.0
C1106 C 1.00356 0.46138 0.09959 0.0
C1107 C 0.02723 0.4573 0.12395 0.0
C1108 C 0.02528 0.43523 0.15046 0.0
C1109 C 0.99968 0.41724 0.15306 0.0
C1110 C 0.97593 0.42134 0.1292 0.0
C1111 C 0.97778 0.44335 0.10261 0.0
H1112 H 0.99821 0.40017 0.1736 0.0
H1113 H 0.01476 0.615 0.9169 0.0
H1114 H 0.61929 0.06953 0.98364 0.0
H1115 H 0.58063 0.03085 0.98715 0.0
H1116 H 0.53433 0.08196 0.06846 0.0
H1117 H 0.57287 0.12097 0.06476 0.0
H1118 H 0.56164 0.99371 0.03536 0.0
H1119 H 0.45878 0.07017 0.06325 0.0
H1120 H 0.44199 0.12194 0.051 0.0
H1121 H 0.49934 0.12556 0.95841 0.0
H1122 H 0.51609 0.0737 0.96977 0.0
H1123 H 0.43673 0.89901 0.07751 0.0
H1124 H 0.4757 0.9379 0.07922 0.0
H1125 H 0.44025 0.97654 0.98225 0.0
H1126 H 0.40121 0.93831 0.98089 0.0
H1127 H 0.45396 0.01988 0.02377 0.0
H1128 H 0.50599 0.9316 0.98496 0.0
H1129 H 0.523 0.87905 0.98832 0.0
H1130 H 0.56804 0.89772 0.08741 0.0
H1131 H 0.55096 0.95038 0.08484 0.0
C1132 C 0.60105 0.07255 1.0025 0.0
C1133 C 0.59933 0.09862 0.02383 0.0
C1134 C 0.57883 0.0503 1.00447 0.0
C1135 C 0.55418 0.05338 0.02781 0.0
C1136 C 0.55268 0.07913 0.04966 0.0
C1137 C 0.57481 0.10153 0.04751 0.0
C1138 C 0.53002 0.02987 0.02878 0.0
C1139 C 0.5381 0.99953 0.03298 0.0
C1140 C 0.49918 0.03707 0.02499 0.0
C1141 C 0.48896 0.06817 0.01766 0.0
C1142 C 0.46773 0.08199 0.04022 0.0
C1143 C 0.45822 0.11135 0.03343 0.0
C1144 C 0.46969 0.12708 1.00404 0.0
C1145 C 0.49057 0.11341 0.98126 0.0
C1146 C 0.50009 0.08404 0.98788 0.0
C1147 C 0.4373 0.91577 0.05655 0.0
C1148 C 0.41562 0.91548 0.02918 0.0
C1149 C 0.45967 0.93803 0.05747 0.0
C1150 C 0.4613 0.96025 0.03067 0.0
C1151 C 0.43957 0.95997 1.00346 0.0
C1152 C 0.41709 0.93799 1.00274 0.0
C1153 C 0.48553 0.98372 0.03054 0.0
C1154 C 0.47748 0.01408 0.0265 0.0
C1155 C 0.51643 0.97643 0.03335 0.0
C1156 C 0.52693 0.94485 0.03489 0.0
C1157 C 0.51935 0.92445 1.0076 0.0
C1158 C 0.52902 0.89464 1.00935 0.0
C1159 C 0.54651 0.885 0.03813 0.0
C1160 C 0.55444 0.9052 0.06516 0.0
C1161 C 0.5448 0.93504 0.06356 0.0
H1162 H 0.55397 0.8619 0.03943 0.0
H1163 H 0.46234 0.14982 0.99887 0.0
H1164 H 0.38257 0.05928 0.53226 0.0
H1165 H 0.42207 0.02124 0.53525 0.0
H1166 H 0.48884 0.09093 0.544 0.0
H1167 H 0.44945 0.129 0.54057 0.0
H1168 H 0.50798 0.05052 0.49876 0.0
H1169 H 0.46596 0.04577 0.61738 0.0
H1170 H 0.42519 0.04071 0.66183 0.0
H1171 H 0.40438 0.953 0.62114 0.0
H1172 H 0.44482 0.95768 0.57615 0.0
H1173 H 0.62967 0.9545 0.54241 0.0
H1174 H 0.59078 0.99297 0.5458 0.0
H1175 H 0.52249 0.92479 0.53749 0.0
H1176 H 0.56108 0.88612 0.53593 0.0
H1177 H 0.50459 0.96498 0.5836 0.0
H1178 H 0.54558 0.97014 0.46421 0.0
H1179 H 0.5861 0.97508 0.4194 0.0
H1180 H 0.60854 0.06201 0.46126 0.0
H1181 H 0.56835 0.05743 0.50661 0.0
C1182 C 0.4056 0.06653 0.53533 0.0
C1183 C 0.41271 0.09732 0.5363 0.0
C1184 C 0.42828 0.04469 0.53701 0.0
C1185 C 0.45865 0.05301 0.54027 0.0
C1186 C 0.46572 0.08375 0.54141 0.0
C1187 C 0.4431 0.10558 0.53944 0.0
C1188 C 0.48309 0.02985 0.54173 0.0
C1189 C 0.50739 0.03209 0.51772 0.0
C1190 C 0.48226 1.00525 0.56582 0.0
C1191 C 0.45825 1.00219 0.59321 0.0
C1192 C 0.45259 0.02547 0.61779 0.0
C1193 C 0.42955 0.02266 0.6431 0.0
C1194 C 0.41216 0.99659 0.64425 0.0
C1195 C 0.41785 0.9732 0.62019 0.0
C1196 C 0.44086 0.9759 0.59482 0.0
C1197 C 0.60644 0.9475 0.54182 0.0
C1198 C 0.59882 0.9169 0.53858 0.0
C1199 C 0.58409 0.9697 0.54334 0.0
C1200 C 0.55349 0.96204 0.54118 0.0
C1201 C 0.54582 0.9315 0.53898 0.0
C1202 C 0.5681 0.90929 0.53773 0.0
C1203 C 0.52946 0.98567 0.54063 0.0
C1204 C 0.50523 0.98348 0.56475 0.0
C1205 C 0.53031 0.01031 0.5166 0.0
C1206 C 0.55415 0.01332 0.489 0.0
C1207 C 0.55926 0.99024 0.46397 0.0
C1208 C 0.58215 0.99298 0.43847 0.0
C1209 C 0.59993 0.01881 0.43755 0.0
C1210 C 0.59477 0.042 0.46203 0.0
C1211 C 0.57192 0.03936 0.48761 0.0
H1212 H 0.61767 0.02087 0.41782 0.0
H1213 H 0.3943 0.99448 0.66382 0.0
H1214 H 0.12712 0.56356 0.54358 0.0
H1215 H 0.08834 0.52479 0.54371 0.0
H1216 H 0.02348 0.5896 0.50692 0.0
H1217 H 0.06216 0.62868 0.5079 0.0
H1218 H 0.99753 0.55621 0.55353 0.0
H1219 H 0.0578 0.53355 0.45049 0.0
H1220 H 0.10433 0.52266 0.41696 0.0
H1221 H 0.11896 0.4442 0.48127 0.0
H1222 H 0.07269 0.45483 0.51551 0.0
H1223 H 0.88837 0.45084 0.49415 0.0
H1224 H 0.92709 0.48912 0.49685 0.0
H1225 H 0.98718 0.42641 0.54717 0.0
H1226 H 0.94849 0.38778 0.54511 0.0
H1227 H 0.01539 0.45816 0.49414 0.0
H1228 H 0.95324 0.48138 0.59598 0.0
H1229 H 0.90572 0.49263 0.62727 0.0
H1230 H 0.89352 0.57082 0.56175 0.0
H1231 H 0.94078 0.5598 0.52971 0.0
C1232 C 0.10463 0.56954 0.53536 0.0
C1233 C 0.09787 0.59925 0.52549 0.0
C1234 C 0.08239 0.54726 0.5353 0.0
C1235 C 0.05287 0.55386 0.52456 0.0
C1236 C 0.04597 0.58369 0.51525 0.0
C1237 C 0.06814 0.60611 0.51584 0.0
C1238 C 0.02924 0.52982 0.52326 0.0
C1239 C 1.0014 0.53498 0.54006 0.0
C1240 C 0.03415 0.50165 0.50638 0.0
C1241 C 0.06194 0.49516 0.48579 0.0
C1242 C 0.07105 0.51409 0.45765 0.0
C1243 C 0.09736 0.50795 0.43849 0.0
C1244 C 0.11463 0.4828 0.44704 0.0
C1245 C 0.10558 0.46369 0.47471 0.0
C1246 C 0.07931 0.46975 0.49398 0.0
C1247 C 0.90956 0.44491 0.50618 0.0
C1248 C 0.91473 0.41574 0.51961 0.0
C1249 C 0.93186 0.46708 0.50765 0.0
C1250 C 0.96008 0.4609 0.52257 0.0
C1251 C 0.96561 0.43184 0.53554 0.0
C1252 C 0.94325 0.40963 0.53427 0.0
C1253 C 0.98382 0.48468 0.52429 0.0
C1254 C 0.01163 0.47944 0.50758 0.0
C1255 C 0.97877 0.51287 0.54089 0.0
C1256 C 0.95041 0.5196 0.56022 0.0
C1257 C 0.94031 0.50084 0.58805 0.0
C1258 C 0.91344 0.5072 0.60596 0.0
C1259 C 0.89657 0.53238 0.59644 0.0
C1260 C 0.90659 0.5513 0.56906 0.0
C1261 C 0.93343 0.54503 0.55104 0.0
H1262 H 0.87578 0.53727 0.61034 0.0
H1263 H 0.13499 0.47808 0.43218 0.0
loop_
_geom_bond_atom_site_label_1
_geom_bond_atom_site_label_2
_geom_bond_distance
_geom_bond_site_symmetry_2
_ccdc_geom_bond_type
Co0 N4 2.148 . S
Co0 N10 2.128 . S
Co0 N20 2.194 1_554 S
Co0 O25 2.351 . S
Co0 O26 2.155 . S
Co0 O27 2.096 . S
C1 N4 1.301 . S
C1 N5 1.328 . S
C1 H6 0.930 . S
C2 C3 1.333 . S
C2 N4 1.317 . S
C2 H7 0.930 . S
C3 C2 1.333 . S
C3 N5 1.350 . S
C3 H29 0.931 . S
N4 Co0 2.148 . S
N4 C1 1.301 . S
N4 C2 1.317 . S
N5 C1 1.328 . S
N5 C3 1.350 . S
H6 C1 0.930 . S
H7 C2 0.930 . S
C8 O9 1.224 1_554 S
C8 O27 1.247 . S
O9 C8 1.224 1_556 S
N10 Co0 2.128 . S
N10 C11 1.355 . S
N10 C13 1.311 . S
C11 N10 1.355 . S
C11 C12 1.363 1_554 S
C11 H23 0.929 1_554 S
C12 C11 1.363 1_556 S
C12 N14 1.375 1_556 S
C12 H30 0.931 . S
C13 N10 1.311 . S
C13 N14 1.347 . S
C13 H24 0.929 . S
N14 C12 1.375 1_554 S
N14 C13 1.347 . S
C15 C18 1.365 . S
C15 N20 1.328 . S
C15 H21 0.929 . S
C16 C17 1.362 . S
C16 C19 1.378 . S
C16 H31 0.929 . S
C17 C16 1.362 . S
C17 C18 1.366 . S
C18 C15 1.365 . S
C18 C17 1.366 . S
C18 H32 0.930 . S
C19 C16 1.378 . S
C19 N20 1.315 . S
C19 H22 0.930 . S
N20 Co0 2.194 1_556 S
N20 C15 1.328 . S
N20 C19 1.315 . S
H21 C15 0.929 . S
H22 C19 0.930 . S
H23 C11 0.929 1_556 S
H24 C13 0.929 . S
O25 Co0 2.351 . S
O25 C28 1.244 . S
O26 Co0 2.155 . S
O26 C28 1.240 . S
O27 Co0 2.096 . S
O27 C8 1.247 . S
C28 O25 1.244 . S
C28 O26 1.240 . S
H29 C3 0.931 . S
H30 C12 0.931 . S
H31 C16 0.929 . S
H32 C18 0.930 . S
Co33 N37 2.148 . S
Co33 N43 2.128 . S
Co33 N53 2.194 1_554 S
Co33 O58 2.351 . S
Co33 O59 2.155 . S
Co33 O60 2.096 . S
C34 N37 1.301 . S
C34 N38 1.328 . S
C34 H39 0.930 . S
C35 C36 1.333 . S
C35 N37 1.317 . S
C35 H40 0.930 . S
C36 C35 1.333 . S
C36 N38 1.350 . S
C36 H62 0.931 . S
N37 Co33 2.148 . S
N37 C34 1.301 . S
N37 C35 1.317 . S
N38 C34 1.328 . S
N38 C36 1.350 . S
H39 C34 0.930 . S
H40 C35 0.930 . S
C41 O42 1.224 1_554 S
C41 O60 1.247 . S
O42 C41 1.224 1_556 S
N43 Co33 2.128 . S
N43 C44 1.355 . S
N43 C46 1.311 . S
C44 N43 1.355 . S
C44 C45 1.363 1_554 S
C44 H56 0.929 1_554 S
C45 C44 1.363 1_556 S
C45 N47 1.375 1_556 S
C45 H63 0.931 . S
C46 N43 1.311 . S
C46 N47 1.347 . S
C46 H57 0.929 . S
N47 C45 1.375 1_554 S
N47 C46 1.347 . S
C48 C51 1.365 . S
C48 N53 1.328 . S
C48 H54 0.929 . S
C49 C50 1.362 . S
C49 C52 1.378 . S
C49 H64 0.929 . S
C50 C49 1.362 . S
C50 C51 1.366 . S
C51 C48 1.365 . S
C51 C50 1.366 . S
C51 H65 0.930 . S
C52 C49 1.378 . S
C52 N53 1.315 . S
C52 H55 0.930 . S
N53 Co33 2.194 1_556 S
N53 C48 1.328 . S
N53 C52 1.315 . S
H54 C48 0.929 . S
H55 C52 0.930 . S
H56 C44 0.929 1_556 S
H57 C46 0.929 . S
O58 Co33 2.351 . S
O58 C61 1.244 . S
O59 Co33 2.155 . S
O59 C61 1.240 . S
O60 Co33 2.096 . S
O60 C41 1.247 . S
C61 O58 1.244 . S
C61 O59 1.240 . S
H62 C36 0.931 . S
H63 C45 0.931 . S
H64 C49 0.929 . S
H65 C51 0.930 . S
Co66 N70 2.148 . S
Co66 N76 2.128 . S
Co66 N86 2.194 1_554 S
Co66 O91 2.351 . S
Co66 O92 2.155 . S
Co66 O93 2.096 . S
C67 N70 1.301 . S
C67 N71 1.328 . S
C67 H72 0.930 . S
C68 C69 1.333 . S
C68 N70 1.317 . S
C68 H73 0.930 . S
C69 C68 1.333 . S
C69 N71 1.350 . S
C69 H95 0.931 . S
N70 Co66 2.148 . S
N70 C67 1.301 . S
N70 C68 1.317 . S
N71 C67 1.328 . S
N71 C69 1.350 . S
H72 C67 0.930 . S
H73 C68 0.930 . S
C74 O75 1.224 1_554 S
C74 O93 1.247 . S
O75 C74 1.224 1_556 S
N76 Co66 2.128 . S
N76 C77 1.355 . S
N76 C79 1.311 . S
C77 N76 1.355 . S
C77 C78 1.363 1_554 S
C77 H89 0.929 1_554 S
C78 C77 1.363 1_556 S
C78 N80 1.375 1_556 S
C78 H96 0.931 . S
C79 N76 1.311 . S
C79 N80 1.347 . S
C79 H90 0.929 . S
N80 C78 1.375 1_554 S
N80 C79 1.347 . S
C81 C84 1.365 . S
C81 N86 1.328 . S
C81 H87 0.929 . S
C82 C83 1.362 . S
C82 C85 1.378 . S
C82 H97 0.929 . S
C83 C82 1.362 . S
C83 C84 1.366 . S
C84 C81 1.365 . S
C84 C83 1.366 . S
C84 H98 0.930 . S
C85 C82 1.378 . S
C85 N86 1.315 . S
C85 H88 0.930 . S
N86 Co66 2.194 1_556 S
N86 C81 1.328 . S
N86 C85 1.315 . S
H87 C81 0.929 . S
H88 C85 0.930 . S
H89 C77 0.929 1_556 S
H90 C79 0.929 . S
O91 Co66 2.351 . S
O91 C94 1.244 . S
O92 Co66 2.155 . S
O92 C94 1.240 . S
O93 Co66 2.096 . S
O93 C74 1.247 . S
C94 O91 1.244 . S
C94 O92 1.240 . S
H95 C69 0.931 . S
H96 C78 0.931 . S
H97 C82 0.929 . S
H98 C84 0.930 . S
Co99 N103 2.148 . S
Co99 N109 2.128 . S
Co99 N119 2.194 1_554 S
Co99 O124 2.351 . S
Co99 O125 2.155 . S
Co99 O126 2.096 . S
C100 N103 1.301 . S
C100 N104 1.328 . S
C100 H105 0.930 . S
C101 C102 1.333 . S
C101 N103 1.317 . S
C101 H106 0.930 . S
C102 C101 1.333 . S
C102 N104 1.350 . S
C102 H128 0.931 . S
N103 Co99 2.148 . S
N103 C100 1.301 . S
N103 C101 1.317 . S
N104 C100 1.328 . S
N104 C102 1.350 . S
H105 C100 0.930 . S
H106 C101 0.930 . S
C107 O108 1.224 1_554 S
C107 O126 1.247 . S
O108 C107 1.224 1_556 S
N109 Co99 2.128 . S
N109 C110 1.355 . S
N109 C112 1.311 . S
C110 N109 1.355 . S
C110 C111 1.363 1_554 S
C110 H122 0.929 1_554 S
C111 C110 1.363 1_556 S
C111 N113 1.375 1_556 S
C111 H129 0.931 . S
C112 N109 1.311 . S
C112 N113 1.347 . S
C112 H123 0.929 . S
N113 C111 1.375 1_554 S
N113 C112 1.347 . S
C114 C117 1.365 . S
C114 N119 1.328 . S
C114 H120 0.929 . S
C115 C116 1.362 . S
C115 C118 1.378 . S
C115 H130 0.929 . S
C116 C115 1.362 . S
C116 C117 1.366 . S
C117 C114 1.365 . S
C117 C116 1.366 . S
C117 H131 0.930 . S
C118 C115 1.378 . S
C118 N119 1.315 . S
C118 H121 0.930 . S
N119 Co99 2.194 1_556 S
N119 C114 1.328 . S
N119 C118 1.315 . S
H120 C114 0.929 . S
H121 C118 0.930 . S
H122 C110 0.929 1_556 S
H123 C112 0.929 . S
O124 Co99 2.351 . S
O124 C127 1.244 . S
O125 Co99 2.155 . S
O125 C127 1.240 . S
O126 Co99 2.096 . S
O126 C107 1.247 . S
C127 O124 1.244 . S
C127 O125 1.240 . S
H128 C102 0.931 . S
H129 C111 0.931 . S
H130 C115 0.929 . S
H131 C117 0.930 . S
Co132 N136 2.148 . S
Co132 N142 2.128 . S
Co132 N152 2.194 . S
Co132 O157 2.351 . S
Co132 O158 2.155 . S
Co132 O159 2.096 . S
C133 N136 1.301 . S
C133 N137 1.328 . S
C133 H138 0.930 . S
C134 C135 1.333 . S
C134 N136 1.317 . S
C134 H139 0.930 . S
C135 C134 1.333 . S
C135 N137 1.350 . S
C135 H161 0.931 . S
N136 Co132 2.148 . S
N136 C133 1.301 . S
N136 C134 1.317 . S
N137 C133 1.328 . S
N137 C135 1.350 . S
H138 C133 0.930 . S
H139 C134 0.930 . S
C140 O141 1.224 . S
C140 O159 1.247 . S
O141 C140 1.224 . S
N142 Co132 2.128 . S
N142 C143 1.355 . S
N142 C145 1.311 . S
C143 N142 1.355 . S
C143 C144 1.363 . S
C143 H155 0.929 . S
C144 C143 1.363 . S
C144 N146 1.375 . S
C144 H162 0.931 . S
C145 N142 1.311 . S
C145 N146 1.347 . S
C145 H156 0.929 . S
N146 C144 1.375 . S
N146 C145 1.347 . S
C147 C150 1.365 . S
C147 N152 1.328 . S
C147 H153 0.929 . S
C148 C149 1.362 . S
C148 C151 1.378 . S
C148 H163 0.929 . S
C149 C148 1.362 . S
C149 C150 1.366 . S
C150 C147 1.365 . S
C150 C149 1.366 . S
C150 H164 0.930 . S
C151 C148 1.378 . S
C151 N152 1.315 . S
C151 H154 0.930 . S
N152 Co132 2.194 . S
N152 C147 1.328 . S
N152 C151 1.315 . S
H153 C147 0.929 . S
H154 C151 0.930 . S
H155 C143 0.929 . S
H156 C145 0.929 . S
O157 Co132 2.351 . S
O157 C160 1.244 . S
O158 Co132 2.155 . S
O158 C160 1.240 . S
O159 Co132 2.096 . S
O159 C140 1.247 . S
C160 O157 1.244 . S
C160 O158 1.240 . S
H161 C135 0.931 . S
H162 C144 0.931 . S
H163 C148 0.929 . S
H164 C150 0.930 . S
Co165 N169 2.148 . S
Co165 N175 2.128 . S
Co165 N185 2.194 . S
Co165 O190 2.351 . S
Co165 O191 2.155 . S
Co165 O192 2.096 . S
C166 N169 1.301 . S
C166 N170 1.328 . S
C166 H171 0.930 . S
C167 C168 1.333 . S
C167 N169 1.317 . S
C167 H172 0.930 . S
C168 C167 1.333 . S
C168 N170 1.350 . S
C168 H194 0.931 . S
N169 Co165 2.148 . S
N169 C166 1.301 . S
N169 C167 1.317 . S
N170 C166 1.328 . S
N170 C168 1.350 . S
H171 C166 0.930 . S
H172 C167 0.930 . S
C173 O174 1.224 . S
C173 O192 1.247 . S
O174 C173 1.224 . S
N175 Co165 2.128 . S
N175 C176 1.355 . S
N175 C178 1.311 . S
C176 N175 1.355 . S
C176 C177 1.363 . S
C176 H188 0.929 . S
C177 C176 1.363 . S
C177 N179 1.375 . S
C177 H195 0.931 . S
C178 N175 1.311 . S
C178 N179 1.347 . S
C178 H189 0.929 . S
N179 C177 1.375 . S
N179 C178 1.347 . S
C180 C183 1.365 . S
C180 N185 1.328 . S
C180 H186 0.929 . S
C181 C182 1.362 . S
C181 C184 1.378 . S
C181 H196 0.929 . S
C182 C181 1.362 . S
C182 C183 1.366 . S
C183 C180 1.365 . S
C183 C182 1.366 . S
C183 H197 0.930 . S
C184 C181 1.378 . S
C184 N185 1.315 . S
C184 H187 0.930 . S
N185 Co165 2.194 . S
N185 C180 1.328 . S
N185 C184 1.315 . S
H186 C180 0.929 . S
H187 C184 0.930 . S
H188 C176 0.929 . S
H189 C178 0.929 . S
O190 Co165 2.351 . S
O190 C193 1.244 . S
O191 Co165 2.155 . S
O191 C193 1.240 . S
O192 Co165 2.096 . S
O192 C173 1.247 . S
C193 O190 1.244 . S
C193 O191 1.240 . S
H194 C168 0.931 . S
H195 C177 0.931 . S
H196 C181 0.929 . S
H197 C183 0.930 . S
Co198 N202 2.148 . S
Co198 N208 2.128 . S
Co198 N218 2.194 . S
Co198 O223 2.351 . S
Co198 O224 2.155 . S
Co198 O225 2.096 . S
C199 N202 1.301 . S
C199 N203 1.328 . S
C199 H204 0.930 . S
C200 C201 1.333 . S
C200 N202 1.317 . S
C200 H205 0.930 . S
C201 C200 1.333 . S
C201 N203 1.350 . S
C201 H227 0.931 . S
N202 Co198 2.148 . S
N202 C199 1.301 . S
N202 C200 1.317 . S
N203 C199 1.328 . S
N203 C201 1.350 . S
H204 C199 0.930 . S
H205 C200 0.930 . S
C206 O207 1.224 . S
C206 O225 1.247 . S
O207 C206 1.224 . S
N208 Co198 2.128 . S
N208 C209 1.355 . S
N208 C211 1.311 . S
C209 N208 1.355 . S
C209 C210 1.363 . S
C209 H221 0.929 . S
C210 C209 1.363 . S
C210 N212 1.375 . S
C210 H228 0.931 . S
C211 N208 1.311 . S
C211 N212 1.347 . S
C211 H222 0.929 . S
N212 C210 1.375 . S
N212 C211 1.347 . S
C213 C216 1.365 . S
C213 N218 1.328 . S
C213 H219 0.929 . S
C214 C215 1.362 . S
C214 C217 1.378 . S
C214 H229 0.929 . S
C215 C214 1.362 . S
C215 C216 1.366 . S
C216 C213 1.365 . S
C216 C215 1.366 . S
C216 H230 0.930 . S
C217 C214 1.378 . S
C217 N218 1.315 . S
C217 H220 0.930 . S
N218 Co198 2.194 . S
N218 C213 1.328 . S
N218 C217 1.315 . S
H219 C213 0.929 . S
H220 C217 0.930 . S
H221 C209 0.929 . S
H222 C211 0.929 . S
O223 Co198 2.351 . S
O223 C226 1.244 . S
O224 Co198 2.155 . S
O224 C226 1.240 . S
O225 Co198 2.096 . S
O225 C206 1.247 . S
C226 O223 1.244 . S
C226 O224 1.240 . S
H227 C201 0.931 . S
H228 C210 0.931 . S
H229 C214 0.929 . S
H230 C216 0.930 . S
Co231 N235 2.148 . S
Co231 N241 2.128 . S
Co231 N251 2.194 . S
Co231 O256 2.351 . S
Co231 O257 2.155 . S
Co231 O258 2.096 . S
C232 N235 1.301 . S
C232 N236 1.328 . S
C232 H237 0.930 . S
C233 C234 1.333 . S
C233 N235 1.317 . S
C233 H238 0.930 . S
C234 C233 1.333 . S
C234 N236 1.350 . S
C234 H260 0.931 . S
N235 Co231 2.148 . S
N235 C232 1.301 . S
N235 C233 1.317 . S
N236 C232 1.328 . S
N236 C234 1.350 . S
H237 C232 0.930 . S
H238 C233 0.930 . S
C239 O240 1.224 . S
C239 O258 1.247 . S
O240 C239 1.224 . S
N241 Co231 2.128 . S
N241 C242 1.355 . S
N241 C244 1.311 . S
C242 N241 1.355 . S
C242 C243 1.363 . S
C242 H254 0.929 . S
C243 C242 1.363 . S
C243 N245 1.375 . S
C243 H261 0.931 . S
C244 N241 1.311 . S
C244 N245 1.347 . S
C244 H255 0.929 . S
N245 C243 1.375 . S
N245 C244 1.347 . S
C246 C249 1.365 . S
C246 N251 1.328 . S
C246 H252 0.929 . S
C247 C248 1.362 . S
C247 C250 1.378 . S
C247 H262 0.929 . S
C248 C247 1.362 . S
C248 C249 1.366 . S
C249 C246 1.365 . S
C249 C248 1.366 . S
C249 H263 0.930 . S
C250 C247 1.378 . S
C250 N251 1.315 . S
C250 H253 0.930 . S
N251 Co231 2.194 . S
N251 C246 1.328 . S
N251 C250 1.315 . S
H252 C246 0.929 . S
H253 C250 0.930 . S
H254 C242 0.929 . S
H255 C244 0.929 . S
O256 Co231 2.351 . S
O256 C259 1.244 . S
O257 Co231 2.155 . S
O257 C259 1.240 . S
O258 Co231 2.096 . S
O258 C239 1.247 . S
C259 O256 1.244 . S
C259 O257 1.240 . S
H260 C234 0.931 . S
H261 C243 0.931 . S
H262 C247 0.929 . S
H263 C249 0.930 . S
H264 C282 0.951 . S
H265 C284 0.951 . S
H266 C286 0.950 . S
H267 C287 0.950 . S
H268 C289 0.950 . S
H269 C292 0.950 . S
H270 C293 0.950 . S
H271 C295 0.950 . S
H272 C296 0.950 . S
H273 C297 0.951 . S
H274 C299 0.951 . S
H275 C301 0.950 . S
H276 C302 0.950 . S
H277 C304 0.950 . S
H278 C307 0.950 . S
H279 C308 0.950 . S
H280 C310 0.950 . S
H281 C311 0.950 . S
C282 H264 0.951 . S
C282 C283 1.366 1_556 S
C282 C284 1.388 . S
C283 C282 1.366 1_554 S
C283 C287 1.385 . S
C284 H265 0.951 . S
C284 C282 1.388 . S
C284 C285 1.366 1_556 S
C285 C284 1.366 1_554 S
C285 C286 1.414 . S
C285 C288 1.499 . S
C286 H266 0.950 . S
C286 C285 1.414 . S
C286 C287 1.374 . S
C287 H267 0.950 . S
C287 C283 1.385 . S
C287 C286 1.374 . S
C288 C285 1.499 . S
C288 C289 1.373 . S
C288 C290 1.389 1_554 S
C289 H268 0.950 . S
C289 C288 1.373 . S
C289 C305 1.377 . S
C290 C288 1.389 1_556 S
C290 C291 1.524 . S
C290 C304 1.377 . S
C291 C290 1.524 . S
C291 C292 1.397 . S
C291 C296 1.363 . S
C292 H269 0.950 . S
C292 C291 1.397 . S
C292 C293 1.334 . S
C293 H270 0.950 . S
C293 C292 1.334 . S
C293 C294 1.287 . S
C294 C293 1.287 . S
C294 C295 1.524 . S
C294 H313 0.913 . S
C295 H271 0.950 . S
C295 C294 1.524 . S
C295 C296 1.415 . S
C296 H272 0.950 . S
C296 C291 1.363 . S
C296 C295 1.415 . S
C297 H273 0.951 . S
C297 C298 1.366 . S
C297 C299 1.388 . S
C298 C297 1.366 . S
C298 C302 1.385 1_554 S
C299 H274 0.951 . S
C299 C297 1.388 . S
C299 C300 1.366 . S
C300 C299 1.366 . S
C300 C301 1.414 1_554 S
C300 C303 1.499 . S
C301 H275 0.950 . S
C301 C300 1.414 1_556 S
C301 C302 1.374 . S
C302 H276 0.950 . S
C302 C298 1.385 1_556 S
C302 C301 1.374 . S
C303 C300 1.499 . S
C303 C304 1.373 1_554 S
C303 C305 1.389 . S
C304 H277 0.950 . S
C304 C290 1.377 . S
C304 C303 1.373 1_556 S
C305 C289 1.377 . S
C305 C303 1.389 . S
C305 C306 1.524 . S
C306 C305 1.524 . S
C306 C307 1.397 . S
C306 C311 1.363 . S
C307 H278 0.950 . S
C307 C306 1.397 . S
C307 C308 1.334 . S
C308 H279 0.950 . S
C308 C307 1.334 . S
C308 C309 1.287 . S
C309 C308 1.287 . S
C309 C310 1.524 . S
C309 H312 0.999 . S
C310 H280 0.950 . S
C310 C309 1.524 . S
C310 C311 1.415 . S
C311 H281 0.950 . S
C311 C306 1.363 . S
C311 C310 1.415 . S
H312 C309 0.999 . S
H313 C294 0.913 . S
H314 C332 0.942 1_556 S
H315 C334 0.951 . S
H316 C336 0.950 . S
H317 C337 0.950 . S
H318 C339 0.950 . S
H319 C342 0.950 . S
H320 C343 0.950 . S
H321 C345 0.950 . S
H322 C346 0.950 . S
H323 C347 0.951 . S
H324 C349 0.951 . S
H325 C351 0.950 . S
H326 C352 0.950 . S
H327 C354 0.950 . S
H328 C357 0.950 . S
H329 C358 0.950 . S
H330 C360 0.950 . S
H331 C361 0.950 . S
C332 H314 0.942 1_554 S
C332 C333 1.377 . S
C332 C334 1.386 1_554 S
C333 C332 1.377 . S
C333 C337 1.385 . S
C334 H315 0.951 . S
C334 C332 1.386 1_556 S
C334 C335 1.366 1_556 S
C335 C334 1.366 1_554 S
C335 C336 1.414 . S
C335 C338 1.499 . S
C336 H316 0.950 . S
C336 C335 1.414 . S
C336 C337 1.374 . S
C337 H317 0.950 . S
C337 C333 1.385 . S
C337 C336 1.374 . S
C338 C335 1.499 . S
C338 C339 1.373 . S
C338 C340 1.389 1_554 S
C339 H318 0.950 . S
C339 C338 1.373 . S
C339 C355 1.377 . S
C340 C338 1.389 1_556 S
C340 C341 1.524 . S
C340 C354 1.377 . S
C341 C340 1.524 . S
C341 C342 1.397 . S
C341 C346 1.363 . S
C342 H319 0.950 . S
C342 C341 1.397 . S
C342 C343 1.334 . S
C343 H320 0.950 . S
C343 C342 1.334 . S
C343 C344 1.287 . S
C344 C343 1.287 . S
C344 C345 1.524 . S
C344 H363 0.913 . S
C345 H321 0.950 . S
C345 C344 1.524 . S
C345 C346 1.415 . S
C346 H322 0.950 . S
C346 C341 1.363 . S
C346 C345 1.415 . S
C347 H323 0.951 . S
C347 C348 1.366 . S
C347 C349 1.388 . S
C348 C347 1.366 . S
C348 C352 1.385 1_554 S
C349 H324 0.951 . S
C349 C347 1.388 . S
C349 C350 1.366 . S
C350 C349 1.366 . S
C350 C351 1.414 1_554 S
C350 C353 1.499 . S
C351 H325 0.950 . S
C351 C350 1.414 1_556 S
C351 C352 1.374 . S
C352 H326 0.950 . S
C352 C348 1.385 1_556 S
C352 C351 1.374 . S
C353 C350 1.499 . S
C353 C354 1.373 1_554 S
C353 C355 1.389 . S
C354 H327 0.950 . S
C354 C340 1.377 . S
C354 C353 1.373 1_556 S
C355 C339 1.377 . S
C355 C353 1.389 . S
C355 C356 1.524 . S
C356 C355 1.524 . S
C356 C357 1.397 . S
C356 C361 1.363 . S
C357 H328 0.950 . S
C357 C356 1.397 . S
C357 C358 1.334 . S
C358 H329 0.950 . S
C358 C357 1.334 . S
C358 C359 1.287 . S
C359 C358 1.287 . S
C359 C360 1.524 . S
C359 H362 0.999 . S
C360 H330 0.950 . S
C360 C359 1.524 . S
C360 C361 1.415 . S
C361 H331 0.950 . S
C361 C356 1.363 . S
C361 C360 1.415 . S
H362 C359 0.999 . S
H363 C344 0.913 . S
H364 C382 0.951 . S
H365 C384 0.951 . S
H366 C386 0.950 1_556 S
H367 C387 0.950 1_556 S
H368 C389 0.950 . S
H369 C392 0.950 . S
H370 C393 0.950 . S
H371 C395 0.950 . S
H372 C396 0.950 . S
H373 C397 0.951 . S
H374 C399 0.951 . S
H375 C401 0.950 . S
H376 C402 0.950 . S
H377 C404 0.950 . S
H378 C407 0.950 . S
H379 C408 0.950 . S
H380 C410 0.950 . S
H381 C411 0.950 . S
C382 H364 0.951 . S
C382 C383 1.366 . S
C382 C384 1.388 . S
C383 C382 1.366 . S
C383 C387 1.385 . S
C384 H365 0.951 . S
C384 C382 1.388 . S
C384 C385 1.366 . S
C385 C384 1.366 . S
C385 C386 1.414 . S
C385 C388 1.499 . S
C386 H366 0.950 1_554 S
C386 C385 1.414 . S
C386 C387 1.374 . S
C387 H367 0.950 1_554 S
C387 C383 1.385 . S
C387 C386 1.374 . S
C388 C385 1.499 . S
C388 C389 1.373 1_554 S
C388 C390 1.389 . S
C389 H368 0.950 . S
C389 C388 1.373 1_556 S
C389 C405 1.377 . S
C390 C388 1.389 . S
C390 C391 1.524 . S
C390 C404 1.377 . S
C391 C390 1.524 . S
C391 C392 1.397 . S
C391 C396 1.363 . S
C392 H369 0.950 . S
C392 C391 1.397 . S
C392 C393 1.334 . S
C393 H370 0.950 . S
C393 C392 1.334 . S
C393 C394 1.287 . S
C394 C393 1.287 . S
C394 C395 1.524 . S
C394 H413 0.913 . S
C395 H371 0.950 . S
C395 C394 1.524 . S
C395 C396 1.415 . S
C396 H372 0.950 . S
C396 C391 1.363 . S
C396 C395 1.415 . S
C397 H373 0.951 . S
C397 C398 1.366 1_556 S
C397 C399 1.388 . S
C398 C397 1.366 1_554 S
C398 C402 1.385 . S
C399 H374 0.951 . S
C399 C397 1.388 . S
C399 C400 1.366 1_556 S
C400 C399 1.366 1_554 S
C400 C401 1.414 . S
C400 C403 1.499 . S
C401 H375 0.950 . S
C401 C400 1.414 . S
C401 C402 1.374 . S
C402 H376 0.950 . S
C402 C398 1.385 . S
C402 C401 1.374 . S
C403 C400 1.499 . S
C403 C404 1.373 . S
C403 C405 1.389 1_554 S
C404 H377 0.950 . S
C404 C390 1.377 . S
C404 C403 1.373 . S
C405 C389 1.377 . S
C405 C403 1.389 1_556 S
C405 C406 1.524 . S
C406 C405 1.524 . S
C406 C407 1.397 . S
C406 C411 1.363 . S
C407 H378 0.950 . S
C407 C406 1.397 . S
C407 C408 1.334 . S
C408 H379 0.950 . S
C408 C407 1.334 . S
C408 C409 1.287 . S
C409 C408 1.287 . S
C409 C410 1.524 . S
C409 H412 0.999 . S
C410 H380 0.950 . S
C410 C409 1.524 . S
C410 C411 1.415 . S
C411 H381 0.950 . S
C411 C406 1.363 . S
C411 C410 1.415 . S
H412 C409 0.999 . S
H413 C394 0.913 . S
H414 C432 0.951 . S
H415 C434 0.951 . S
H416 C436 0.951 1_556 S
H417 C437 0.950 . S
H418 C439 0.950 . S
H419 C442 0.950 . S
H420 C443 0.950 . S
H421 C445 0.950 . S
H422 C446 0.950 . S
H423 C447 0.951 . S
H424 C449 0.951 . S
H425 C451 0.950 . S
H426 C452 0.950 . S
H427 C454 0.950 . S
H428 C457 0.950 . S
H429 C458 0.950 . S
H430 C460 0.950 . S
H431 C461 0.950 . S
C432 H414 0.951 . S
C432 C433 1.366 . S
C432 C434 1.388 . S
C433 C432 1.366 . S
C433 C437 1.385 1_554 S
C434 H415 0.951 . S
C434 C432 1.388 . S
C434 C435 1.366 . S
C435 C434 1.366 . S
C435 C436 1.414 . S
C435 C438 1.499 . S
C436 H416 0.951 1_554 S
C436 C435 1.414 . S
C436 C437 1.374 1_554 S
C437 H417 0.950 . S
C437 C433 1.385 1_556 S
C437 C436 1.374 1_556 S
C438 C435 1.499 . S
C438 C439 1.373 . S
C438 C440 1.389 1_554 S
C439 H418 0.950 . S
C439 C438 1.373 . S
C439 C455 1.377 . S
C440 C438 1.389 1_556 S
C440 C441 1.524 . S
C440 C454 1.377 . S
C441 C440 1.524 . S
C441 C442 1.397 . S
C441 C446 1.363 . S
C442 H419 0.950 . S
C442 C441 1.397 . S
C442 C443 1.334 . S
C443 H420 0.950 . S
C443 C442 1.334 . S
C443 C444 1.287 . S
C444 C443 1.287 . S
C444 C445 1.524 . S
C444 H463 0.913 . S
C445 H421 0.950 . S
C445 C444 1.524 . S
C445 C446 1.415 . S
C446 H422 0.950 . S
C446 C441 1.363 . S
C446 C445 1.415 . S
C447 H423 0.951 . S
C447 C448 1.366 . S
C447 C449 1.388 . S
C448 C447 1.366 . S
C448 C452 1.385 . S
C449 H424 0.951 . S
C449 C447 1.388 . S
C449 C450 1.366 . S
C450 C449 1.366 . S
C450 C451 1.414 . S
C450 C453 1.499 . S
C451 H425 0.950 . S
C451 C450 1.414 . S
C451 C452 1.374 . S
C452 H426 0.950 . S
C452 C448 1.385 . S
C452 C451 1.374 . S
C453 C450 1.499 . S
C453 C454 1.373 1_554 S
C453 C455 1.389 . S
C454 H427 0.950 . S
C454 C440 1.377 . S
C454 C453 1.373 1_556 S
C455 C439 1.377 . S
C455 C453 1.389 . S
C455 C456 1.524 . S
C456 C455 1.524 . S
C456 C457 1.397 . S
C456 C461 1.363 . S
C457 H428 0.950 . S
C457 C456 1.397 . S
C457 C458 1.334 . S
C458 H429 0.950 . S
C458 C457 1.334 . S
C458 C459 1.287 . S
C459 C458 1.287 . S
C459 C460 1.524 . S
C459 H462 0.999 . S
C460 H430 0.950 . S
C460 C459 1.524 . S
C460 C461 1.415 . S
C461 H431 0.950 . S
C461 C456 1.363 . S
C461 C460 1.415 . S
H462 C459 0.999 . S
H463 C444 0.913 . S
H464 C482 0.951 . S
H465 C484 0.951 . S
H466 C486 0.950 . S
H467 C487 0.950 . S
H468 C489 0.950 . S
H469 C492 0.950 1_455 S
H470 C493 0.950 . S
H471 C495 0.950 . S
H472 C496 0.950 . S
H473 C497 0.951 . S
H474 C499 0.951 . S
H475 C501 0.950 . S
H476 C502 0.950 . S
H477 C504 0.950 . S
H478 C507 0.950 . S
H479 C508 0.950 . S
H480 C510 0.950 . S
H481 C511 0.950 . S
C482 H464 0.951 . S
C482 C483 1.366 . S
C482 C484 1.388 . S
C483 C482 1.366 . S
C483 C487 1.385 . S
C484 H465 0.951 . S
C484 C482 1.388 . S
C484 C485 1.366 . S
C485 C484 1.366 . S
C485 C486 1.414 . S
C485 C488 1.499 1_455 S
C486 H466 0.950 . S
C486 C485 1.414 . S
C486 C487 1.374 . S
C487 H467 0.950 . S
C487 C483 1.385 . S
C487 C486 1.374 . S
C488 C485 1.499 1_655 S
C488 C489 1.373 . S
C488 C490 1.389 . S
C489 H468 0.950 . S
C489 C488 1.373 . S
C489 C505 1.377 . S
C490 C488 1.389 . S
C490 C491 1.524 . S
C490 C504 1.377 . S
C491 C490 1.524 . S
C491 C492 1.397 . S
C491 C496 1.363 . S
C492 H469 0.950 1_655 S
C492 C491 1.397 . S
C492 C493 1.334 1_655 S
C493 H470 0.950 . S
C493 C492 1.334 1_455 S
C493 C494 1.287 1_455 S
C494 C493 1.287 1_655 S
C494 C495 1.524 . S
C494 H513 0.913 1_655 S
C495 H471 0.950 . S
C495 C494 1.524 . S
C495 C496 1.415 . S
C496 H472 0.950 . S
C496 C491 1.363 . S
C496 C495 1.415 . S
C497 H473 0.951 . S
C497 C498 1.366 . S
C497 C499 1.388 . S
C498 C497 1.366 . S
C498 C502 1.385 . S
C499 H474 0.951 . S
C499 C497 1.388 . S
C499 C500 1.366 . S
C500 C499 1.366 . S
C500 C501 1.414 . S
C500 C503 1.499 . S
C501 H475 0.950 . S
C501 C500 1.414 . S
C501 C502 1.374 . S
C502 H476 0.950 . S
C502 C498 1.385 . S
C502 C501 1.374 . S
C503 C500 1.499 . S
C503 C504 1.373 . S
C503 C505 1.389 . S
C504 H477 0.950 . S
C504 C490 1.377 . S
C504 C503 1.373 . S
C505 C489 1.377 . S
C505 C503 1.389 . S
C505 C506 1.524 . S
C506 C505 1.524 . S
C506 C507 1.397 . S
C506 C511 1.363 . S
C507 H478 0.950 . S
C507 C506 1.397 . S
C507 C508 1.334 . S
C508 H479 0.950 . S
C508 C507 1.334 . S
C508 C509 1.287 . S
C509 C508 1.287 . S
C509 C510 1.524 . S
C509 H512 0.999 . S
C510 H480 0.950 . S
C510 C509 1.524 . S
C510 C511 1.415 . S
C511 H481 0.950 . S
C511 C506 1.363 . S
C511 C510 1.415 . S
H512 C509 0.999 . S
H513 C494 0.913 1_455 S
H514 C532 0.951 . S
H515 C534 0.951 . S
H516 C536 0.950 . S
H517 C537 0.950 . S
H518 C539 0.950 . S
H519 C542 0.950 . S
H520 C543 0.950 . S
H521 C545 0.950 . S
H522 C546 0.950 . S
H523 C547 0.951 . S
H524 C549 0.951 . S
H525 C551 0.950 . S
H526 C552 0.950 . S
H527 C554 0.950 . S
H528 C557 0.950 . S
H529 C558 0.950 . S
H530 C560 0.950 . S
H531 C561 0.950 . S
C532 H514 0.951 . S
C532 C533 1.366 . S
C532 C534 1.388 . S
C533 C532 1.366 . S
C533 C537 1.385 . S
C534 H515 0.951 . S
C534 C532 1.388 . S
C534 C535 1.366 . S
C535 C534 1.366 . S
C535 C536 1.414 . S
C535 C538 1.499 1_545 S
C536 H516 0.950 . S
C536 C535 1.414 . S
C536 C537 1.374 . S
C537 H517 0.950 . S
C537 C533 1.385 . S
C537 C536 1.374 . S
C538 C535 1.499 1_565 S
C538 C539 1.373 . S
C538 C540 1.389 . S
C539 H518 0.950 . S
C539 C538 1.373 . S
C539 C555 1.377 . S
C540 C538 1.389 . S
C540 C541 1.524 . S
C540 C554 1.377 . S
C541 C540 1.524 . S
C541 C542 1.397 1_565 S
C541 C546 1.363 . S
C542 H519 0.950 . S
C542 C541 1.397 1_545 S
C542 C543 1.334 . S
C543 H520 0.950 . S
C543 C542 1.334 . S
C543 C544 1.287 . S
C544 C543 1.287 . S
C544 C545 1.524 . S
C544 H563 0.913 . S
C545 H521 0.950 . S
C545 C544 1.524 . S
C545 C546 1.415 1_545 S
C546 H522 0.950 . S
C546 C541 1.363 . S
C546 C545 1.415 1_565 S
C547 H523 0.951 . S
C547 C548 1.366 . S
C547 C549 1.388 . S
C548 C547 1.366 . S
C548 C552 1.385 . S
C549 H524 0.951 . S
C549 C547 1.388 . S
C549 C550 1.366 . S
C550 C549 1.366 . S
C550 C551 1.414 . S
C550 C553 1.499 . S
C551 H525 0.950 . S
C551 C550 1.414 . S
C551 C552 1.374 . S
C552 H526 0.950 . S
C552 C548 1.385 . S
C552 C551 1.374 . S
C553 C550 1.499 . S
C553 C554 1.373 . S
C553 C555 1.389 . S
C554 H527 0.950 . S
C554 C540 1.377 . S
C554 C553 1.373 . S
C555 C539 1.377 . S
C555 C553 1.389 . S
C555 C556 1.524 . S
C556 C555 1.524 . S
C556 C557 1.397 . S
C556 C561 1.363 . S
C557 H528 0.950 . S
C557 C556 1.397 . S
C557 C558 1.334 . S
C558 H529 0.950 . S
C558 C557 1.334 . S
C558 C559 1.287 . S
C559 C558 1.287 . S
C559 C560 1.524 . S
C559 H562 0.999 . S
C560 H530 0.950 . S
C560 C559 1.524 . S
C560 C561 1.415 . S
C561 H531 0.950 . S
C561 C556 1.363 . S
C561 C560 1.415 . S
H562 C559 0.999 . S
H563 C544 0.913 . S
H564 C582 0.951 . S
H565 C584 0.951 . S
H566 C586 0.950 . S
H567 C587 0.950 . S
H568 C589 0.950 . S
H569 C592 0.950 . S
H570 C593 0.950 . S
H571 C595 0.950 . S
H572 C596 0.950 . S
H573 C597 0.951 . S
H574 C599 0.959 . S
H575 C601 0.950 . S
H576 C602 0.950 . S
H577 C604 0.950 . S
H578 C607 0.950 . S
H579 C608 0.950 1_655 S
H580 C610 0.950 . S
H581 C611 0.950 . S
C582 H564 0.951 . S
C582 C583 1.366 . S
C582 C584 1.388 . S
C583 C582 1.366 . S
C583 C587 1.385 . S
C584 H565 0.951 . S
C584 C582 1.388 . S
C584 C585 1.366 . S
C585 C584 1.366 . S
C585 C586 1.414 . S
C585 C588 1.499 . S
C586 H566 0.950 . S
C586 C585 1.414 . S
C586 C587 1.374 . S
C587 H567 0.950 . S
C587 C583 1.385 . S
C587 C586 1.374 . S
C588 C585 1.499 . S
C588 C589 1.373 . S
C588 C590 1.389 . S
C589 H568 0.950 . S
C589 C588 1.373 . S
C589 C605 1.377 . S
C590 C588 1.389 . S
C590 C591 1.524 . S
C590 C604 1.377 . S
C591 C590 1.524 . S
C591 C592 1.397 . S
C591 C596 1.363 . S
C592 H569 0.950 . S
C592 C591 1.397 . S
C592 C593 1.334 . S
C593 H570 0.950 . S
C593 C592 1.334 . S
C593 C594 1.287 . S
C594 C593 1.287 . S
C594 C595 1.524 . S
C594 H613 0.913 . S
C595 H571 0.950 . S
C595 C594 1.524 . S
C595 C596 1.415 . S
C596 H572 0.950 . S
C596 C591 1.363 . S
C596 C595 1.415 . S
C597 H573 0.951 . S
C597 C598 1.366 . S
C597 C599 1.388 . S
C598 C597 1.366 . S
C598 C602 1.385 . S
C599 H574 0.959 . S
C599 C597 1.388 . S
C599 C600 1.366 . S
C600 C599 1.366 . S
C600 C601 1.414 . S
C600 C603 1.499 1_655 S
C601 H575 0.950 . S
C601 C600 1.414 . S
C601 C602 1.374 . S
C602 H576 0.950 . S
C602 C598 1.385 . S
C602 C601 1.374 . S
C603 C600 1.499 1_455 S
C603 C604 1.373 . S
C603 C605 1.389 . S
C604 H577 0.950 . S
C604 C590 1.377 . S
C604 C603 1.373 . S
C605 C589 1.377 . S
C605 C603 1.389 . S
C605 C606 1.524 . S
C606 C605 1.524 . S
C606 C607 1.397 . S
C606 C611 1.363 . S
C607 H578 0.950 . S
C607 C606 1.397 . S
C607 C608 1.334 . S
C608 H579 0.950 1_455 S
C608 C607 1.334 . S
C608 C609 1.287 . S
C609 C608 1.287 . S
C609 C610 1.524 . S
C609 H612 0.999 . S
C610 H580 0.950 . S
C610 C609 1.524 . S
C610 C611 1.415 . S
C611 H581 0.950 . S
C611 C606 1.363 . S
C611 C610 1.415 . S
H612 C609 0.999 . S
H613 C594 0.913 . S
H614 C632 0.951 . S
H615 C634 0.951 . S
H616 C636 0.950 . S
H617 C637 0.950 . S
H618 C639 0.950 . S
H619 C642 0.950 . S
H620 C643 0.950 . S
H621 C645 0.950 . S
H622 C646 0.950 . S
H623 C647 0.951 . S
H624 C649 0.951 . S
H625 C651 0.950 . S
H626 C652 0.950 . S
H627 C654 0.950 . S
H628 C657 0.950 . S
H629 C658 0.950 . S
H630 C660 0.950 . S
H631 C661 0.950 . S
C632 H614 0.951 . S
C632 C633 1.366 . S
C632 C634 1.388 . S
C633 C632 1.366 . S
C633 C637 1.385 . S
C634 H615 0.951 . S
C634 C632 1.388 . S
C634 C635 1.366 . S
C635 C634 1.366 . S
C635 C636 1.414 . S
C635 C638 1.499 . S
C636 H616 0.950 . S
C636 C635 1.414 . S
C636 C637 1.374 . S
C637 H617 0.950 . S
C637 C633 1.385 . S
C637 C636 1.374 . S
C638 C635 1.499 . S
C638 C639 1.373 . S
C638 C640 1.389 . S
C639 H618 0.950 . S
C639 C638 1.373 . S
C639 C655 1.377 . S
C640 C638 1.389 . S
C640 C641 1.524 . S
C640 C654 1.377 . S
C641 C640 1.524 . S
C641 C642 1.397 . S
C641 C646 1.363 . S
C642 H619 0.950 . S
C642 C641 1.397 . S
C642 C643 1.334 . S
C643 H620 0.950 . S
C643 C642 1.334 . S
C643 C644 1.287 . S
C644 C643 1.287 . S
C644 C645 1.524 . S
C644 H663 0.913 . S
C645 H621 0.950 . S
C645 C644 1.524 . S
C645 C646 1.415 . S
C646 H622 0.950 . S
C646 C641 1.363 . S
C646 C645 1.415 . S
C647 H623 0.951 . S
C647 C648 1.366 . S
C647 C649 1.388 . S
C648 C647 1.366 . S
C648 C652 1.385 . S
C649 H624 0.951 . S
C649 C647 1.388 . S
C649 C650 1.366 . S
C650 C649 1.366 . S
C650 C651 1.414 . S
C650 C653 1.499 1_565 S
C651 H625 0.950 . S
C651 C650 1.414 . S
C651 C652 1.374 . S
C652 H626 0.950 . S
C652 C648 1.385 . S
C652 C651 1.374 . S
C653 C650 1.499 1_545 S
C653 C654 1.373 . S
C653 C655 1.389 . S
C654 H627 0.950 . S
C654 C640 1.377 . S
C654 C653 1.373 . S
C655 C639 1.377 . S
C655 C653 1.389 . S
C655 C656 1.524 . S
C656 C655 1.524 . S
C656 C657 1.397 1_545 S
C656 C661 1.363 . S
C657 H628 0.950 . S
C657 C656 1.397 1_565 S
C657 C658 1.334 . S
C658 H629 0.950 . S
C658 C657 1.334 . S
C658 C659 1.287 . S
C659 C658 1.287 . S
C659 C660 1.524 1_565 S
C659 H662 0.999 . S
C660 H630 0.950 . S
C660 C659 1.524 1_545 S
C660 C661 1.415 . S
C661 H631 0.950 . S
C661 C656 1.363 . S
C661 C660 1.415 . S
H662 C659 0.999 . S
H663 C644 0.913 . S
H664 C682 0.951 . S
H665 C684 0.951 . S
H666 C686 0.950 . S
H667 C687 0.950 . S
H668 C689 0.950 . S
H669 C692 0.950 . S
H670 C693 0.950 . S
H671 C695 0.950 . S
H672 C696 0.950 . S
H673 C697 0.951 . S
H674 C699 0.951 . S
H675 C701 0.950 . S
H676 C702 0.950 . S
H677 C704 0.950 . S
H678 C707 0.950 . S
H679 C708 0.950 . S
H680 C710 0.950 . S
H681 C711 0.950 . S
C682 H664 0.951 . S
C682 C683 1.366 . S
C682 C684 1.388 . S
C683 C682 1.366 . S
C683 C687 1.385 . S
C684 H665 0.951 . S
C684 C682 1.388 . S
C684 C685 1.366 . S
C685 C684 1.366 . S
C685 C686 1.414 . S
C685 C688 1.499 . S
C686 H666 0.950 . S
C686 C685 1.414 . S
C686 C687 1.374 . S
C687 H667 0.950 . S
C687 C683 1.385 . S
C687 C686 1.374 . S
C688 C685 1.499 . S
C688 C689 1.373 . S
C688 C690 1.389 . S
C689 H668 0.950 . S
C689 C688 1.373 . S
C689 C705 1.377 . S
C690 C688 1.389 . S
C690 C691 1.524 . S
C690 C704 1.377 . S
C691 C690 1.524 . S
C691 C692 1.397 . S
C691 C696 1.363 . S
C692 H669 0.950 . S
C692 C691 1.397 . S
C692 C693 1.334 . S
C693 H670 0.950 . S
C693 C692 1.334 . S
C693 C694 1.287 . S
C694 C693 1.287 . S
C694 C695 1.524 . S
C694 H713 0.913 . S
C695 H671 0.950 . S
C695 C694 1.524 . S
C695 C696 1.415 . S
C696 H672 0.950 . S
C696 C691 1.363 . S
C696 C695 1.415 . S
C697 H673 0.951 . S
C697 C698 1.366 . S
C697 C699 1.388 . S
C698 C697 1.366 . S
C698 C702 1.385 . S
C699 H674 0.951 . S
C699 C697 1.388 . S
C699 C700 1.366 . S
C700 C699 1.366 . S
C700 C701 1.414 . S
C700 C703 1.499 . S
C701 H675 0.950 . S
C701 C700 1.414 . S
C701 C702 1.374 . S
C702 H676 0.950 . S
C702 C698 1.385 . S
C702 C701 1.374 . S
C703 C700 1.499 . S
C703 C704 1.373 . S
C703 C705 1.389 . S
C704 H677 0.950 . S
C704 C690 1.377 . S
C704 C703 1.373 . S
C705 C689 1.377 . S
C705 C703 1.389 . S
C705 C706 1.524 . S
C706 C705 1.524 . S
C706 C707 1.397 . S
C706 C711 1.363 . S
C707 H678 0.950 . S
C707 C706 1.397 . S
C707 C708 1.334 . S
C708 H679 0.950 . S
C708 C707 1.334 . S
C708 C709 1.287 . S
C709 C708 1.287 . S
C709 C710 1.524 . S
C709 H712 0.999 . S
C710 H680 0.950 . S
C710 C709 1.524 . S
C710 C711 1.415 . S
C711 H681 0.950 . S
C711 C706 1.363 . S
C711 C710 1.415 . S
H712 C709 0.999 . S
H713 C694 0.913 . S
H714 C732 0.951 . S
H715 C734 0.951 . S
H716 C736 0.950 . S
H717 C737 0.950 . S
H718 C739 0.950 . S
H719 C742 0.950 . S
H720 C743 0.950 . S
H721 C745 0.950 . S
H722 C746 0.950 . S
H723 C747 0.951 . S
H724 C749 0.951 . S
H725 C751 0.950 . S
H726 C752 0.950 . S
H727 C754 0.950 . S
H728 C757 0.950 . S
H729 C758 0.950 . S
H730 C760 0.950 . S
H731 C761 0.950 . S
C732 H714 0.951 . S
C732 C733 1.366 . S
C732 C734 1.388 . S
C733 C732 1.366 . S
C733 C737 1.385 . S
C734 H715 0.951 . S
C734 C732 1.388 . S
C734 C735 1.366 . S
C735 C734 1.366 . S
C735 C736 1.414 . S
C735 C738 1.499 . S
C736 H716 0.950 . S
C736 C735 1.414 . S
C736 C737 1.374 . S
C737 H717 0.950 . S
C737 C733 1.385 . S
C737 C736 1.374 . S
C738 C735 1.499 . S
C738 C739 1.373 . S
C738 C740 1.389 . S
C739 H718 0.950 . S
C739 C738 1.373 . S
C739 C755 1.377 . S
C740 C738 1.389 . S
C740 C741 1.524 . S
C740 C754 1.377 . S
C741 C740 1.524 . S
C741 C742 1.397 . S
C741 C746 1.363 . S
C742 H719 0.950 . S
C742 C741 1.397 . S
C742 C743 1.334 . S
C743 H720 0.950 . S
C743 C742 1.334 . S
C743 C744 1.287 . S
C744 C743 1.287 . S
C744 C745 1.524 . S
C744 H763 0.913 . S
C745 H721 0.950 . S
C745 C744 1.524 . S
C745 C746 1.415 . S
C746 H722 0.950 . S
C746 C741 1.363 . S
C746 C745 1.415 . S
C747 H723 0.951 . S
C747 C748 1.366 . S
C747 C749 1.388 . S
C748 C747 1.366 . S
C748 C752 1.385 . S
C749 H724 0.951 . S
C749 C747 1.388 . S
C749 C750 1.366 . S
C750 C749 1.366 . S
C750 C751 1.414 . S
C750 C753 1.499 . S
C751 H725 0.950 . S
C751 C750 1.414 . S
C751 C752 1.374 . S
C752 H726 0.950 . S
C752 C748 1.385 . S
C752 C751 1.374 . S
C753 C750 1.499 . S
C753 C754 1.373 . S
C753 C755 1.389 . S
C754 H727 0.950 . S
C754 C740 1.377 . S
C754 C753 1.373 . S
C755 C739 1.377 . S
C755 C753 1.389 . S
C755 C756 1.524 . S
C756 C755 1.524 . S
C756 C757 1.397 . S
C756 C761 1.363 . S
C757 H728 0.950 . S
C757 C756 1.397 . S
C757 C758 1.334 . S
C758 H729 0.950 . S
C758 C757 1.334 . S
C758 C759 1.287 . S
C759 C758 1.287 . S
C759 C760 1.524 . S
C759 H762 0.999 . S
C760 H730 0.950 . S
C760 C759 1.524 . S
C760 C761 1.415 . S
C761 H731 0.950 . S
C761 C756 1.363 . S
C761 C760 1.415 . S
H762 C759 0.999 . S
H763 C744 0.913 . S
H764 C782 0.951 . S
H765 C784 0.951 . S
H766 C786 0.950 . S
H767 C787 0.950 . S
H768 C789 0.950 . S
H769 C792 0.950 . S
H770 C793 0.950 . S
H771 C795 0.950 . S
H772 C796 0.950 . S
H773 C797 0.951 . S
H774 C799 0.951 . S
H775 C801 0.950 . S
H776 C802 0.950 . S
H777 C804 0.950 . S
H778 C807 0.950 . S
H779 C808 0.950 . S
H780 C810 0.950 . S
H781 C811 0.950 . S
C782 H764 0.951 . S
C782 C783 1.366 . S
C782 C784 1.388 . S
C783 C782 1.366 . S
C783 C787 1.385 . S
C784 H765 0.951 . S
C784 C782 1.388 . S
C784 C785 1.366 . S
C785 C784 1.366 . S
C785 C786 1.414 . S
C785 C788 1.499 . S
C786 H766 0.950 . S
C786 C785 1.414 . S
C786 C787 1.374 . S
C787 H767 0.950 . S
C787 C783 1.385 . S
C787 C786 1.374 . S
C788 C785 1.499 . S
C788 C789 1.373 . S
C788 C790 1.389 . S
C789 H768 0.950 . S
C789 C788 1.373 . S
C789 C805 1.377 . S
C790 C788 1.389 . S
C790 C791 1.524 . S
C790 C804 1.377 . S
C791 C790 1.524 . S
C791 C792 1.397 . S
C791 C796 1.363 . S
C792 H769 0.950 . S
C792 C791 1.397 . S
C792 C793 1.334 . S
C793 H770 0.950 . S
C793 C792 1.334 . S
C793 C794 1.287 . S
C794 C793 1.287 . S
C794 C795 1.524 . S
C794 H813 0.913 . S
C795 H771 0.950 . S
C795 C794 1.524 . S
C795 C796 1.415 . S
C796 H772 0.950 . S
C796 C791 1.363 . S
C796 C795 1.415 . S
C797 H773 0.951 . S
C797 C798 1.366 . S
C797 C799 1.388 . S
C798 C797 1.366 . S
C798 C802 1.385 . S
C799 H774 0.951 . S
C799 C797 1.388 . S
C799 C800 1.366 . S
C800 C799 1.366 . S
C800 C801 1.414 . S
C800 C803 1.499 . S
C801 H775 0.950 . S
C801 C800 1.414 . S
C801 C802 1.374 . S
C802 H776 0.950 . S
C802 C798 1.385 . S
C802 C801 1.374 . S
C803 C800 1.499 . S
C803 C804 1.373 . S
C803 C805 1.389 . S
C804 H777 0.950 . S
C804 C790 1.377 . S
C804 C803 1.373 . S
C805 C789 1.377 . S
C805 C803 1.389 . S
C805 C806 1.524 . S
C806 C805 1.524 . S
C806 C807 1.397 . S
C806 C811 1.363 . S
C807 H778 0.950 . S
C807 C806 1.397 . S
C807 C808 1.334 . S
C808 H779 0.950 . S
C808 C807 1.334 . S
C808 C809 1.287 . S
C809 C808 1.287 . S
C809 C810 1.524 . S
C809 H812 0.999 . S
C810 H780 0.950 . S
C810 C809 1.524 . S
C810 C811 1.415 . S
C811 H781 0.950 . S
C811 C806 1.363 . S
C811 C810 1.415 . S
H812 C809 0.999 . S
H813 C794 0.913 . S
H814 C832 0.951 . S
H815 C834 0.951 . S
H816 C836 0.950 . S
H817 C837 0.950 . S
H818 C839 0.950 . S
H819 C842 0.950 . S
H820 C843 0.950 . S
H821 C845 0.950 . S
H822 C846 0.950 . S
H823 C847 0.951 . S
H824 C849 0.951 . S
H825 C851 0.950 . S
H826 C852 0.950 . S
H827 C854 0.950 . S
H828 C857 0.950 . S
H829 C858 0.950 . S
H830 C860 0.950 . S
H831 C861 0.950 . S
C832 H814 0.951 . S
C832 C833 1.366 . S
C832 C834 1.388 . S
C833 C832 1.366 . S
C833 C837 1.385 . S
C834 H815 0.951 . S
C834 C832 1.388 . S
C834 C835 1.366 . S
C835 C834 1.366 . S
C835 C836 1.414 . S
C835 C838 1.499 . S
C836 H816 0.950 . S
C836 C835 1.414 . S
C836 C837 1.374 . S
C837 H817 0.950 . S
C837 C833 1.385 . S
C837 C836 1.374 . S
C838 C835 1.499 . S
C838 C839 1.373 . S
C838 C840 1.389 . S
C839 H818 0.950 . S
C839 C838 1.373 . S
C839 C855 1.377 . S
C840 C838 1.389 . S
C840 C841 1.524 . S
C840 C854 1.377 . S
C841 C840 1.524 . S
C841 C842 1.397 . S
C841 C846 1.363 . S
C842 H819 0.950 . S
C842 C841 1.397 . S
C842 C843 1.334 . S
C843 H820 0.950 . S
C843 C842 1.334 . S
C843 C844 1.287 . S
C844 C843 1.287 . S
C844 C845 1.524 . S
C844 H863 0.913 . S
C845 H821 0.950 . S
C845 C844 1.524 . S
C845 C846 1.415 . S
C846 H822 0.950 . S
C846 C841 1.363 . S
C846 C845 1.415 . S
C847 H823 0.951 . S
C847 C848 1.366 . S
C847 C849 1.388 . S
C848 C847 1.366 . S
C848 C852 1.385 . S
C849 H824 0.951 . S
C849 C847 1.388 . S
C849 C850 1.366 . S
C850 C849 1.366 . S
C850 C851 1.414 . S
C850 C853 1.499 . S
C851 H825 0.950 . S
C851 C850 1.414 . S
C851 C852 1.374 . S
C852 H826 0.950 . S
C852 C848 1.385 . S
C852 C851 1.374 . S
C853 C850 1.499 . S
C853 C854 1.373 . S
C853 C855 1.389 . S
C854 H827 0.950 . S
C854 C840 1.377 . S
C854 C853 1.373 . S
C855 C839 1.377 . S
C855 C853 1.389 . S
C855 C856 1.524 . S
C856 C855 1.524 . S
C856 C857 1.397 . S
C856 C861 1.363 . S
C857 H828 0.950 . S
C857 C856 1.397 . S
C857 C858 1.334 . S
C858 H829 0.950 . S
C858 C857 1.334 . S
C858 C859 1.287 . S
C859 C858 1.287 . S
C859 C860 1.524 . S
C859 H862 0.999 . S
C860 H830 0.950 . S
C860 C859 1.524 . S
C860 C861 1.415 . S
C861 H831 0.950 . S
C861 C856 1.363 . S
C861 C860 1.415 . S
H862 C859 0.999 . S
H863 C844 0.913 . S
H864 C882 0.951 . S
H865 C884 0.951 . S
H866 C886 0.950 . S
H867 C887 0.950 . S
H868 C889 0.950 . S
H869 C892 0.950 . S
H870 C893 0.950 . S
H871 C895 0.950 . S
H872 C896 0.950 . S
H873 C897 0.951 . S
H874 C899 0.951 . S
H875 C901 0.950 . S
H876 C902 0.950 . S
H877 C904 0.950 . S
H878 C907 0.950 . S
H879 C908 0.950 . S
H880 C910 0.950 . S
H881 C911 0.950 . S
C882 H864 0.951 . S
C882 C883 1.366 . S
C882 C884 1.388 . S
C883 C882 1.366 . S
C883 C887 1.385 . S
C884 H865 0.951 . S
C884 C882 1.388 . S
C884 C885 1.366 . S
C885 C884 1.366 . S
C885 C886 1.414 . S
C885 C888 1.499 . S
C886 H866 0.950 . S
C886 C885 1.414 . S
C886 C887 1.374 . S
C887 H867 0.950 . S
C887 C883 1.385 . S
C887 C886 1.374 . S
C888 C885 1.499 . S
C888 C889 1.373 . S
C888 C890 1.389 . S
C889 H868 0.950 . S
C889 C888 1.373 . S
C889 C905 1.377 . S
C890 C888 1.389 . S
C890 C891 1.524 . S
C890 C904 1.377 . S
C891 C890 1.524 . S
C891 C892 1.397 . S
C891 C896 1.363 . S
C892 H869 0.950 . S
C892 C891 1.397 . S
C892 C893 1.334 . S
C893 H870 0.950 . S
C893 C892 1.334 . S
C893 C894 1.287 . S
C894 C893 1.287 . S
C894 C895 1.524 . S
C894 H913 0.913 . S
C895 H871 0.950 . S
C895 C894 1.524 . S
C895 C896 1.415 . S
C896 H872 0.950 . S
C896 C891 1.363 . S
C896 C895 1.415 . S
C897 H873 0.951 . S
C897 C898 1.366 . S
C897 C899 1.388 . S
C898 C897 1.366 . S
C898 C902 1.385 . S
C899 H874 0.951 . S
C899 C897 1.388 . S
C899 C900 1.366 . S
C900 C899 1.366 . S
C900 C901 1.414 . S
C900 C903 1.499 . S
C901 H875 0.950 . S
C901 C900 1.414 . S
C901 C902 1.374 . S
C902 H876 0.950 . S
C902 C898 1.385 . S
C902 C901 1.374 . S
C903 C900 1.499 . S
C903 C904 1.373 . S
C903 C905 1.389 . S
C904 H877 0.950 . S
C904 C890 1.377 . S
C904 C903 1.373 . S
C905 C889 1.377 . S
C905 C903 1.389 . S
C905 C906 1.524 . S
C906 C905 1.524 . S
C906 C907 1.397 . S
C906 C911 1.363 . S
C907 H878 0.950 . S
C907 C906 1.397 . S
C907 C908 1.334 . S
C908 H879 0.950 . S
C908 C907 1.334 . S
C908 C909 1.287 . S
C909 C908 1.287 . S
C909 C910 1.524 . S
C909 H912 0.999 . S
C910 H880 0.950 . S
C910 C909 1.524 . S
C910 C911 1.415 . S
C911 H881 0.950 . S
C911 C906 1.363 . S
C911 C910 1.415 . S
H912 C909 0.999 . S
H913 C894 0.913 . S
H914 C932 0.951 . S
H915 C934 0.951 . S
H916 C936 0.950 . S
H917 C937 0.950 . S
H918 C939 0.950 . S
H919 C942 0.950 . S
H920 C943 0.950 . S
H921 C945 0.950 . S
H922 C946 0.950 . S
H923 C947 0.951 . S
H924 C949 0.951 . S
H925 C951 0.950 . S
H926 C952 0.950 . S
H927 C954 0.950 . S
H928 C957 0.950 . S
H929 C958 0.950 . S
H930 C960 0.950 . S
H931 C961 0.950 . S
C932 H914 0.951 . S
C932 C933 1.366 . S
C932 C934 1.388 . S
C933 C932 1.366 . S
C933 C937 1.385 . S
C934 H915 0.951 . S
C934 C932 1.388 . S
C934 C935 1.366 . S
C935 C934 1.366 . S
C935 C936 1.414 . S
C935 C938 1.499 . S
C936 H916 0.950 . S
C936 C935 1.414 . S
C936 C937 1.374 . S
C937 H917 0.950 . S
C937 C933 1.385 . S
C937 C936 1.374 . S
C938 C935 1.499 . S
C938 C939 1.373 . S
C938 C940 1.389 . S
C939 H918 0.950 . S
C939 C938 1.373 . S
C939 C955 1.377 . S
C940 C938 1.389 . S
C940 C941 1.524 . S
C940 C954 1.377 . S
C941 C940 1.524 . S
C941 C942 1.397 . S
C941 C946 1.363 . S
C942 H919 0.950 . S
C942 C941 1.397 . S
C942 C943 1.334 . S
C943 H920 0.950 . S
C943 C942 1.334 . S
C943 C944 1.287 . S
C944 C943 1.287 . S
C944 C945 1.524 . S
C944 H963 0.913 . S
C945 H921 0.950 . S
C945 C944 1.524 . S
C945 C946 1.415 . S
C946 H922 0.950 . S
C946 C941 1.363 . S
C946 C945 1.415 . S
C947 H923 0.951 . S
C947 C948 1.366 . S
C947 C949 1.388 . S
C948 C947 1.366 . S
C948 C952 1.385 . S
C949 H924 0.951 . S
C949 C947 1.388 . S
C949 C950 1.366 . S
C950 C949 1.366 . S
C950 C951 1.414 . S
C950 C953 1.499 . S
C951 H925 0.950 . S
C951 C950 1.414 . S
C951 C952 1.374 . S
C952 H926 0.950 . S
C952 C948 1.385 . S
C952 C951 1.374 . S
C953 C950 1.499 . S
C953 C954 1.373 . S
C953 C955 1.389 . S
C954 H927 0.950 . S
C954 C940 1.377 . S
C954 C953 1.373 . S
C955 C939 1.377 . S
C955 C953 1.389 . S
C955 C956 1.524 . S
C956 C955 1.524 . S
C956 C957 1.397 . S
C956 C961 1.363 . S
C957 H928 0.950 . S
C957 C956 1.397 . S
C957 C958 1.334 . S
C958 H929 0.950 . S
C958 C957 1.334 . S
C958 C959 1.287 . S
C959 C958 1.287 . S
C959 C960 1.524 . S
C959 H962 0.999 . S
C960 H930 0.950 . S
C960 C959 1.524 . S
C960 C961 1.415 . S
C961 H931 0.950 . S
C961 C956 1.363 . S
C961 C960 1.415 . S
H962 C959 0.999 . S
H963 C944 0.913 . S
H964 C982 0.951 . S
H965 C984 0.951 . S
H966 C986 0.950 . S
H967 C987 0.950 . S
H968 C989 0.950 . S
H969 C992 0.950 . S
H970 C993 0.950 . S
H971 C995 0.950 . S
H972 C996 0.950 . S
H973 C997 0.951 . S
H974 C999 0.951 . S
H975 C1001 0.950 . S
H976 C1002 0.950 . S
H977 C1004 0.950 . S
H978 C1007 0.950 . S
H979 C1008 0.950 . S
H980 C1010 0.950 . S
H981 C1011 0.950 . S
C982 H964 0.951 . S
C982 C983 1.366 . S
C982 C984 1.388 . S
C983 C982 1.366 . S
C983 C987 1.385 . S
C984 H965 0.951 . S
C984 C982 1.388 . S
C984 C985 1.366 . S
C985 C984 1.366 . S
C985 C986 1.414 . S
C985 C988 1.499 . S
C986 H966 0.950 . S
C986 C985 1.414 . S
C986 C987 1.374 . S
C987 H967 0.950 . S
C987 C983 1.385 . S
C987 C986 1.374 . S
C988 C985 1.499 . S
C988 C989 1.373 . S
C988 C990 1.389 . S
C989 H968 0.950 . S
C989 C988 1.373 . S
C989 C1005 1.377 . S
C990 C988 1.389 . S
C990 C991 1.524 . S
C990 C1004 1.377 . S
C991 C990 1.524 . S
C991 C992 1.397 . S
C991 C996 1.363 . S
C992 H969 0.950 . S
C992 C991 1.397 . S
C992 C993 1.334 . S
C993 H970 0.950 . S
C993 C992 1.334 . S
C993 C994 1.287 . S
C994 C993 1.287 . S
C994 C995 1.524 . S
C994 H1013 0.913 . S
C995 H971 0.950 . S
C995 C994 1.524 . S
C995 C996 1.415 . S
C996 H972 0.950 . S
C996 C991 1.363 . S
C996 C995 1.415 . S
C997 H973 0.951 . S
C997 C998 1.366 . S
C997 C999 1.388 . S
C998 C997 1.366 . S
C998 C1002 1.385 . S
C999 H974 0.951 . S
C999 C997 1.388 . S
C999 C1000 1.366 . S
C1000 C999 1.366 . S
C1000 C1001 1.414 . S
C1000 C1003 1.499 . S
C1001 H975 0.950 . S
C1001 C1000 1.414 . S
C1001 C1002 1.374 . S
C1002 H976 0.950 . S
C1002 C998 1.385 . S
C1002 C1001 1.374 . S
C1003 C1000 1.499 . S
C1003 C1004 1.373 . S
C1003 C1005 1.389 . S
C1004 H977 0.950 . S
C1004 C990 1.377 . S
C1004 C1003 1.373 . S
C1005 C989 1.377 . S
C1005 C1003 1.389 . S
C1005 C1006 1.524 . S
C1006 C1005 1.524 . S
C1006 C1007 1.397 . S
C1006 C1011 1.363 . S
C1007 H978 0.950 . S
C1007 C1006 1.397 . S
C1007 C1008 1.334 . S
C1008 H979 0.950 . S
C1008 C1007 1.334 . S
C1008 C1009 1.287 . S
C1009 C1008 1.287 . S
C1009 C1010 1.524 . S
C1009 H1012 0.999 . S
C1010 H980 0.950 . S
C1010 C1009 1.524 . S
C1010 C1011 1.415 . S
C1011 H981 0.950 . S
C1011 C1006 1.363 . S
C1011 C1010 1.415 . S
H1012 C1009 0.999 . S
H1013 C994 0.913 . S
H1014 C1032 0.951 . S
H1015 C1034 0.951 . S
H1016 C1036 0.950 . S
H1017 C1037 0.950 . S
H1018 C1039 0.950 . S
H1019 C1042 0.950 . S
H1020 C1043 0.950 . S
H1021 C1045 0.950 . S
H1022 C1046 0.950 . S
H1023 C1047 0.951 . S
H1024 C1049 0.951 . S
H1025 C1051 0.950 . S
H1026 C1052 0.950 . S
H1027 C1054 0.950 . S
H1028 C1057 0.950 . S
H1029 C1058 0.950 . S
H1030 C1060 0.950 . S
H1031 C1061 0.950 . S
C1032 H1014 0.951 . S
C1032 C1033 1.366 . S
C1032 C1034 1.388 . S
C1033 C1032 1.366 . S
C1033 C1037 1.385 . S
C1034 H1015 0.951 . S
C1034 C1032 1.388 . S
C1034 C1035 1.366 . S
C1035 C1034 1.366 . S
C1035 C1036 1.414 . S
C1035 C1038 1.499 . S
C1036 H1016 0.950 . S
C1036 C1035 1.414 . S
C1036 C1037 1.374 . S
C1037 H1017 0.950 . S
C1037 C1033 1.385 . S
C1037 C1036 1.374 . S
C1038 C1035 1.499 . S
C1038 C1039 1.373 . S
C1038 C1040 1.389 . S
C1039 H1018 0.950 . S
C1039 C1038 1.373 . S
C1039 C1055 1.377 . S
C1040 C1038 1.389 . S
C1040 C1041 1.524 . S
C1040 C1054 1.377 . S
C1041 C1040 1.524 . S
C1041 C1042 1.397 . S
C1041 C1046 1.363 . S
C1042 H1019 0.950 . S
C1042 C1041 1.397 . S
C1042 C1043 1.334 . S
C1043 H1020 0.950 . S
C1043 C1042 1.334 . S
C1043 C1044 1.287 . S
C1044 C1043 1.287 . S
C1044 C1045 1.524 . S
C1044 H1063 0.913 . S
C1045 H1021 0.950 . S
C1045 C1044 1.524 . S
C1045 C1046 1.415 . S
C1046 H1022 0.950 . S
C1046 C1041 1.363 . S
C1046 C1045 1.415 . S
C1047 H1023 0.951 . S
C1047 C1048 1.366 . S
C1047 C1049 1.388 . S
C1048 C1047 1.366 . S
C1048 C1052 1.385 . S
C1049 H1024 0.951 . S
C1049 C1047 1.388 . S
C1049 C1050 1.366 . S
C1050 C1049 1.366 . S
C1050 C1051 1.414 . S
C1050 C1053 1.499 . S
C1051 H1025 0.950 . S
C1051 C1050 1.414 . S
C1051 C1052 1.374 . S
C1052 H1026 0.950 . S
C1052 C1048 1.385 . S
C1052 C1051 1.374 . S
C1053 C1050 1.499 . S
C1053 C1054 1.373 . S
C1053 C1055 1.389 . S
C1054 H1027 0.950 . S
C1054 C1040 1.377 . S
C1054 C1053 1.373 . S
C1055 C1039 1.377 . S
C1055 C1053 1.389 . S
C1055 C1056 1.524 . S
C1056 C1055 1.524 . S
C1056 C1057 1.397 . S
C1056 C1061 1.363 . S
C1057 H1028 0.950 . S
C1057 C1056 1.397 . S
C1057 C1058 1.334 . S
C1058 H1029 0.950 . S
C1058 C1057 1.334 . S
C1058 C1059 1.287 . S
C1059 C1058 1.287 . S
C1059 C1060 1.524 . S
C1059 H1062 0.999 . S
C1060 H1030 0.950 . S
C1060 C1059 1.524 . S
C1060 C1061 1.415 . S
C1061 H1031 0.950 . S
C1061 C1056 1.363 . S
C1061 C1060 1.415 . S
H1062 C1059 0.999 . S
H1063 C1044 0.913 . S
H1064 C1082 0.951 . S
H1065 C1084 0.951 . S
H1066 C1086 0.950 . S
H1067 C1087 0.950 . S
H1068 C1089 0.950 . S
H1069 C1092 0.950 . S
H1070 C1093 0.934 1_655 S
H1071 C1095 0.950 1_554 S
H1072 C1096 0.950 . S
H1073 C1097 0.951 . S
H1074 C1099 0.951 . S
H1075 C1101 0.950 . S
H1076 C1102 0.950 . S
H1077 C1104 0.953 . S
H1078 C1107 0.950 . S
H1079 C1108 0.934 1_455 S
H1080 C1110 0.950 . S
H1081 C1111 0.950 1_556 S
C1082 H1064 0.951 . S
C1082 C1083 1.366 . S
C1082 C1084 1.388 . S
C1083 C1082 1.366 . S
C1083 C1087 1.385 1_554 S
C1084 H1065 0.951 . S
C1084 C1082 1.388 . S
C1084 C1085 1.366 . S
C1085 C1084 1.366 . S
C1085 C1086 1.414 1_554 S
C1085 C1088 1.499 . S
C1086 H1066 0.950 . S
C1086 C1085 1.414 1_556 S
C1086 C1087 1.374 . S
C1087 H1067 0.950 . S
C1087 C1083 1.385 1_556 S
C1087 C1086 1.374 . S
C1088 C1085 1.499 . S
C1088 C1089 1.373 . S
C1088 C1090 1.389 1_655 S
C1089 H1068 0.950 . S
C1089 C1088 1.373 . S
C1089 C1105 1.377 . S
C1090 C1088 1.389 1_455 S
C1090 C1091 1.524 1_554 S
C1090 C1104 1.377 . S
C1091 C1090 1.524 1_556 S
C1091 C1092 1.397 1_455 S
C1091 C1096 1.363 1_556 S
C1092 H1069 0.950 . S
C1092 C1091 1.397 1_655 S
C1092 C1093 1.329 1_655 S
C1093 H1070 0.934 1_455 S
C1093 C1092 1.329 1_455 S
C1093 C1094 1.310 . S
C1094 C1093 1.310 . S
C1094 C1095 1.524 . S
C1094 H1113 0.913 . S
C1095 H1071 0.950 1_556 S
C1095 C1094 1.524 . S
C1095 C1096 1.415 1_556 S
C1096 H1072 0.950 . S
C1096 C1091 1.363 1_554 S
C1096 C1095 1.415 1_554 S
C1097 H1073 0.951 . S
C1097 C1098 1.366 1_556 S
C1097 C1099 1.388 . S
C1098 C1097 1.366 1_554 S
C1098 C1102 1.385 . S
C1099 H1074 0.951 . S
C1099 C1097 1.388 . S
C1099 C1100 1.366 1_556 S
C1100 C1099 1.366 1_554 S
C1100 C1101 1.414 . S
C1100 C1103 1.499 . S
C1101 H1075 0.950 . S
C1101 C1100 1.414 . S
C1101 C1102 1.374 . S
C1102 H1076 0.950 . S
C1102 C1098 1.385 . S
C1102 C1101 1.374 . S
C1103 C1100 1.499 . S
C1103 C1104 1.373 . S
C1103 C1105 1.389 1_455 S
C1104 H1077 0.953 . S
C1104 C1090 1.377 . S
C1104 C1103 1.373 . S
C1105 C1089 1.377 . S
C1105 C1103 1.389 1_655 S
C1105 C1106 1.524 . S
C1106 C1105 1.524 . S
C1106 C1107 1.397 1_655 S
C1106 C1111 1.363 . S
C1107 H1078 0.950 . S
C1107 C1106 1.397 1_455 S
C1107 C1108 1.329 1_455 S
C1108 H1079 0.934 1_655 S
C1108 C1107 1.329 1_655 S
C1108 C1109 1.310 . S
C1109 C1108 1.310 . S
C1109 C1110 1.524 . S
C1109 H1112 0.999 . S
C1110 H1080 0.950 . S
C1110 C1109 1.524 . S
C1110 C1111 1.415 . S
C1111 H1081 0.950 1_554 S
C1111 C1106 1.363 . S
C1111 C1110 1.415 . S
H1112 C1109 0.999 . S
H1113 C1094 0.913 . S
H1114 C1132 0.951 . S
H1115 C1134 0.951 . S
H1116 C1136 0.950 . S
H1117 C1137 0.950 . S
H1118 C1139 0.950 . S
H1119 C1142 0.950 . S
H1120 C1143 0.950 . S
H1121 C1145 0.950 . S
H1122 C1146 0.950 . S
H1123 C1147 0.951 . S
H1124 C1149 0.951 . S
H1125 C1151 0.950 . S
H1126 C1152 0.950 . S
H1127 C1154 0.950 . S
H1128 C1157 0.950 . S
H1129 C1158 0.950 . S
H1130 C1160 0.950 . S
H1131 C1161 0.950 . S
C1132 H1114 0.951 . S
C1132 C1133 1.366 1_556 S
C1132 C1134 1.388 . S
C1133 C1132 1.366 1_554 S
C1133 C1137 1.385 . S
C1134 H1115 0.951 . S
C1134 C1132 1.388 . S
C1134 C1135 1.366 1_556 S
C1135 C1134 1.366 1_554 S
C1135 C1136 1.414 . S
C1135 C1138 1.499 . S
C1136 H1116 0.950 . S
C1136 C1135 1.414 . S
C1136 C1137 1.374 . S
C1137 H1117 0.950 . S
C1137 C1133 1.385 . S
C1137 C1136 1.374 . S
C1138 C1135 1.499 . S
C1138 C1139 1.373 . S
C1138 C1140 1.389 1_554 S
C1139 H1118 0.950 . S
C1139 C1138 1.373 . S
C1139 C1155 1.377 1_545 S
C1140 C1138 1.389 1_556 S
C1140 C1141 1.524 . S
C1140 C1154 1.377 1_545 S
C1141 C1140 1.524 . S
C1141 C1142 1.397 . S
C1141 C1146 1.363 . S
C1142 H1119 0.950 . S
C1142 C1141 1.397 . S
C1142 C1143 1.334 . S
C1143 H1120 0.950 . S
C1143 C1142 1.334 . S
C1143 C1144 1.287 . S
C1144 C1143 1.287 . S
C1144 C1145 1.524 . S
C1144 H1163 0.913 . S
C1145 H1121 0.950 . S
C1145 C1144 1.524 . S
C1145 C1146 1.415 . S
C1146 H1122 0.950 . S
C1146 C1141 1.363 . S
C1146 C1145 1.415 . S
C1147 H1123 0.951 . S
C1147 C1148 1.366 . S
C1147 C1149 1.388 . S
C1148 C1147 1.366 . S
C1148 C1152 1.385 1_554 S
C1149 H1124 0.951 . S
C1149 C1147 1.388 . S
C1149 C1150 1.366 . S
C1150 C1149 1.366 . S
C1150 C1151 1.414 1_554 S
C1150 C1153 1.499 . S
C1151 H1125 0.950 . S
C1151 C1150 1.414 1_556 S
C1151 C1152 1.374 . S
C1152 H1126 0.950 . S
C1152 C1148 1.385 1_556 S
C1152 C1151 1.374 . S
C1153 C1150 1.499 . S
C1153 C1154 1.373 1_554 S
C1153 C1155 1.389 . S
C1154 H1127 0.950 . S
C1154 C1140 1.377 1_565 S
C1154 C1153 1.373 1_556 S
C1155 C1139 1.377 1_565 S
C1155 C1153 1.389 . S
C1155 C1156 1.524 . S
C1156 C1155 1.524 . S
C1156 C1157 1.397 . S
C1156 C1161 1.363 . S
C1157 H1128 0.950 . S
C1157 C1156 1.397 . S
C1157 C1158 1.334 . S
C1158 H1129 0.950 . S
C1158 C1157 1.334 . S
C1158 C1159 1.287 . S
C1159 C1158 1.287 . S
C1159 C1160 1.524 . S
C1159 H1162 0.999 . S
C1160 H1130 0.950 . S
C1160 C1159 1.524 . S
C1160 C1161 1.415 . S
C1161 H1131 0.950 . S
C1161 C1156 1.363 . S
C1161 C1160 1.415 . S
H1162 C1159 0.999 . S
H1163 C1144 0.913 . S
H1164 C1182 0.951 . S
H1165 C1184 0.951 . S
H1166 C1186 0.950 . S
H1167 C1187 0.950 . S
H1168 C1189 0.950 . S
H1169 C1192 0.950 . S
H1170 C1193 0.950 . S
H1171 C1195 0.950 . S
H1172 C1196 0.950 . S
H1173 C1197 0.951 . S
H1174 C1199 0.951 . S
H1175 C1201 0.950 . S
H1176 C1202 0.950 . S
H1177 C1204 0.950 . S
H1178 C1207 0.950 . S
H1179 C1208 0.950 . S
H1180 C1210 0.950 . S
H1181 C1211 0.950 . S
C1182 H1164 0.951 . S
C1182 C1183 1.366 . S
C1182 C1184 1.388 . S
C1183 C1182 1.366 . S
C1183 C1187 1.385 . S
C1184 H1165 0.951 . S
C1184 C1182 1.388 . S
C1184 C1185 1.366 . S
C1185 C1184 1.366 . S
C1185 C1186 1.414 . S
C1185 C1188 1.499 . S
C1186 H1166 0.950 . S
C1186 C1185 1.414 . S
C1186 C1187 1.374 . S
C1187 H1167 0.950 . S
C1187 C1183 1.385 . S
C1187 C1186 1.374 . S
C1188 C1185 1.499 . S
C1188 C1189 1.373 . S
C1188 C1190 1.389 1_545 S
C1189 H1168 0.950 . S
C1189 C1188 1.373 . S
C1189 C1205 1.377 . S
C1190 C1188 1.389 1_565 S
C1190 C1191 1.524 . S
C1190 C1204 1.377 . S
C1191 C1190 1.524 . S
C1191 C1192 1.397 1_565 S
C1191 C1196 1.363 . S
C1192 H1169 0.950 . S
C1192 C1191 1.397 1_545 S
C1192 C1193 1.334 . S
C1193 H1170 0.950 . S
C1193 C1192 1.334 . S
C1193 C1194 1.287 1_545 S
C1194 C1193 1.287 1_565 S
C1194 C1195 1.524 . S
C1194 H1213 0.913 . S
C1195 H1171 0.950 . S
C1195 C1194 1.524 . S
C1195 C1196 1.415 . S
C1196 H1172 0.950 . S
C1196 C1191 1.363 . S
C1196 C1195 1.415 . S
C1197 H1173 0.951 . S
C1197 C1198 1.366 . S
C1197 C1199 1.388 . S
C1198 C1197 1.366 . S
C1198 C1202 1.385 . S
C1199 H1174 0.951 . S
C1199 C1197 1.388 . S
C1199 C1200 1.366 . S
C1200 C1199 1.366 . S
C1200 C1201 1.414 . S
C1200 C1203 1.499 . S
C1201 H1175 0.950 . S
C1201 C1200 1.414 . S
C1201 C1202 1.374 . S
C1202 H1176 0.950 . S
C1202 C1198 1.385 . S
C1202 C1201 1.374 . S
C1203 C1200 1.499 . S
C1203 C1204 1.373 . S
C1203 C1205 1.389 1_565 S
C1204 H1177 0.950 . S
C1204 C1190 1.377 . S
C1204 C1203 1.373 . S
C1205 C1189 1.377 . S
C1205 C1203 1.389 1_545 S
C1205 C1206 1.524 . S
C1206 C1205 1.524 . S
C1206 C1207 1.397 1_545 S
C1206 C1211 1.363 . S
C1207 H1178 0.950 . S
C1207 C1206 1.397 1_565 S
C1207 C1208 1.334 . S
C1208 H1179 0.950 . S
C1208 C1207 1.334 . S
C1208 C1209 1.287 1_565 S
C1209 C1208 1.287 1_545 S
C1209 C1210 1.524 . S
C1209 H1212 0.999 . S
C1210 H1180 0.950 . S
C1210 C1209 1.524 . S
C1210 C1211 1.415 . S
C1211 H1181 0.950 . S
C1211 C1206 1.363 . S
C1211 C1210 1.415 . S
H1212 C1209 0.999 . S
H1213 C1194 0.913 . S
H1214 C1232 0.951 . S
H1215 C1234 0.951 . S
H1216 C1236 0.950 . S
H1217 C1237 0.950 . S
H1218 C1239 0.950 . S
H1219 C1242 0.950 . S
H1220 C1243 0.950 . S
H1221 C1245 0.950 . S
H1222 C1246 0.950 . S
H1223 C1247 0.951 . S
H1224 C1249 0.951 . S
H1225 C1251 0.950 . S
H1226 C1252 0.950 . S
H1227 C1254 0.950 . S
H1228 C1257 0.950 . S
H1229 C1258 0.950 . S
H1230 C1260 0.950 . S
H1231 C1261 0.950 . S
C1232 H1214 0.951 . S
C1232 C1233 1.366 . S
C1232 C1234 1.388 . S
C1233 C1232 1.366 . S
C1233 C1237 1.385 . S
C1234 H1215 0.951 . S
C1234 C1232 1.388 . S
C1234 C1235 1.366 . S
C1235 C1234 1.366 . S
C1235 C1236 1.414 . S
C1235 C1238 1.499 . S
C1236 H1216 0.950 . S
C1236 C1235 1.414 . S
C1236 C1237 1.374 . S
C1237 H1217 0.950 . S
C1237 C1233 1.385 . S
C1237 C1236 1.374 . S
C1238 C1235 1.499 . S
C1238 C1239 1.373 1_455 S
C1238 C1240 1.389 . S
C1239 H1218 0.950 . S
C1239 C1238 1.373 1_655 S
C1239 C1255 1.377 . S
C1240 C1238 1.389 . S
C1240 C1241 1.524 . S
C1240 C1254 1.377 . S
C1241 C1240 1.524 . S
C1241 C1242 1.397 . S
C1241 C1246 1.363 . S
C1242 H1219 0.950 . S
C1242 C1241 1.397 . S
C1242 C1243 1.334 . S
C1243 H1220 0.950 . S
C1243 C1242 1.334 . S
C1243 C1244 1.287 . S
C1244 C1243 1.287 . S
C1244 C1245 1.524 . S
C1244 H1263 0.913 . S
C1245 H1221 0.950 . S
C1245 C1244 1.524 . S
C1245 C1246 1.415 . S
C1246 H1222 0.950 . S
C1246 C1241 1.363 . S
C1246 C1245 1.415 . S
C1247 H1223 0.951 . S
C1247 C1248 1.366 . S
C1247 C1249 1.388 . S
C1248 C1247 1.366 . S
C1248 C1252 1.385 . S
C1249 H1224 0.951 . S
C1249 C1247 1.388 . S
C1249 C1250 1.366 . S
C1250 C1249 1.366 . S
C1250 C1251 1.414 . S
C1250 C1253 1.499 . S
C1251 H1225 0.950 . S
C1251 C1250 1.414 . S
C1251 C1252 1.374 . S
C1252 H1226 0.950 . S
C1252 C1248 1.385 . S
C1252 C1251 1.374 . S
C1253 C1250 1.499 . S
C1253 C1254 1.373 1_655 S
C1253 C1255 1.389 . S
C1254 H1227 0.950 . S
C1254 C1240 1.377 . S
C1254 C1253 1.373 1_455 S
C1255 C1239 1.377 . S
C1255 C1253 1.389 . S
C1255 C1256 1.524 . S
C1256 C1255 1.524 . S
C1256 C1257 1.397 . S
C1256 C1261 1.363 . S
C1257 H1228 0.950 . S
C1257 C1256 1.397 . S
C1257 C1258 1.334 . S
C1258 H1229 0.950 . S
C1258 C1257 1.334 . S
C1258 C1259 1.287 . S
C1259 C1258 1.287 . S
C1259 C1260 1.524 . S
C1259 H1262 0.999 . S
C1260 H1230 0.950 . S
C1260 C1259 1.524 . S
C1260 C1261 1.415 . S
C1261 H1231 0.950 . S
C1261 C1256 1.363 . S
C1261 C1260 1.415 . S
H1262 C1259 0.999 . S
H1263 C1244 0.913 . S
C283 C41 0.615 . S
C298 N5 0.632 . S
C333 N38 0.633 . S
C348 C74 0.615 . S
C383 N71 0.633 . S
C398 C107 0.614 . S
C433 C8 0.614 . S
C448 N104 0.634 . S
C483 C173 0.615 . S
C498 N137 0.633 . S
C533 C206 0.615 . S
C548 N170 0.633 . S
C583 N203 0.634 . S
C598 C239 0.614 . S
C633 N236 0.633 . S
C648 C140 0.615 . S
C683 C215 1.494 . S
C698 C28 1.515 . S
C733 C61 1.519 . S
C748 C248 1.491 . S
C783 C94 1.518 . S
C798 C149 1.490 . S
C833 C127 1.518 . S
C848 C182 1.490 . S
C883 C160 1.518 . S
C898 C83 1.497 . S
C933 C193 1.518 . S
C948 C116 1.497 . S
C983 C226 1.519 . S
C998 C17 1.498 . S
C1033 C50 1.494 . S
C1048 C259 1.522 . S
C1083 N80 2.351 . S
C1098 N14 2.351 . S
C1133 N47 2.351 . S
C1148 N113 2.351 . S
C1183 N212 2.351 . S
C1198 N146 2.351 . S
C1233 N179 2.351 . S
C1248 N245 2.351 . S
