# Generated by pormake.
# Topology hjm, (4)-cn, num edge types: 1
# Building blocks:
#     Node 0, Type 0, BuildingBlock: QUQFOY_clean_sbu_3, # of connection points: 4
#     Node 1, Type 0, BuildingBlock: QUQFOY_clean_sbu_3, # of connection points: 4
#     Node 2, Type 0, BuildingBlock: QUQFOY_clean_sbu_3, # of connection points: 4
#     Node 3, Type 0, BuildingBlock: QUQFOY_clean_sbu_3, # of connection points: 4
#     Node 4, Type 0, BuildingBlock: QUQFOY_clean_sbu_3, # of connection points: 4
#     Node 5, Type 0, BuildingBlock: QUQFOY_clean_sbu_3, # of connection points: 4
#     Node 6, Type 0, BuildingBlock: QUQFOY_clean_sbu_3, # of connection points: 4
#     Node 7, Type 0, BuildingBlock: QUQFOY_clean_sbu_3, # of connection points: 4
#     Edge 8, Type (0, 0), BuildingBlock: KIFKEQ_clean_linker_1, # of connection points: 2
#     Edge 9, Type (0, 0), BuildingBlock: KIFKEQ_clean_linker_1, # of connection points: 2
#     Edge 10, Type (0, 0), BuildingBlock: KIFKEQ_clean_linker_1, # of connection points: 2
#     Edge 11, Type (0, 0), BuildingBlock: KIFKEQ_clean_linker_1, # of connection points: 2
#     Edge 12, Type (0, 0), BuildingBlock: KIFKEQ_clean_linker_1, # of connection points: 2
#     Edge 13, Type (0, 0), BuildingBlock: KIFKEQ_clean_linker_1, # of connection points: 2
#     Edge 14, Type (0, 0), BuildingBlock: KIFKEQ_clean_linker_1, # of connection points: 2
#     Edge 15, Type (0, 0), BuildingBlock: KIFKEQ_clean_linker_1, # of connection points: 2
#     Edge 16, Type (0, 0), BuildingBlock: KIFKEQ_clean_linker_1, # of connection points: 2
#     Edge 17, Type (0, 0), BuildingBlock: KIFKEQ_clean_linker_1, # of connection points: 2
#     Edge 18, Type (0, 0), BuildingBlock: KIFKEQ_clean_linker_1, # of connection points: 2
#     Edge 19, Type (0, 0), BuildingBlock: KIFKEQ_clean_linker_1, # of connection points: 2
#     Edge 20, Type (0, 0), BuildingBlock: KIFKEQ_clean_linker_1, # of connection points: 2
#     Edge 21, Type (0, 0), BuildingBlock: KIFKEQ_clean_linker_1, # of connection points: 2
#     Edge 22, Type (0, 0), BuildingBlock: KIFKEQ_clean_linker_1, # of connection points: 2
#     Edge 23, Type (0, 0), BuildingBlock: KIFKEQ_clean_linker_1, # of connection points: 2
# Relax obj value: 0.092
# Max RMSD: 0.137
# Mean RMSD: 0.137
data_MOF--net-hjm--node1-QUQFOY_clean_sbu_3--edge1-KIFKEQ_clean_linker_1
_symmetry_space_group_name_H-M    P1
_symmetry_Int_Tables_number       1
_symmetry_cell_setting            triclinic
loop_
_symmetry_equiv_pos_as_xyz
'x, y, z'
_cell_length_a     28.104396
_cell_length_b     24.371697
_cell_length_c     27.749303
_cell_angle_alpha  89.950544
_cell_angle_beta   59.184338
_cell_angle_gamma 90.060964
loop_
_atom_site_label
_atom_site_type_symbol
_atom_site_fract_x
_atom_site_fract_y
_atom_site_fract_z
_atom_type_partial_charge
C0 C 0.20064 0.29046 0.18826 0.0
O1 O 0.19884 0.33802 0.20777 0.0
Cd2 Cd 0.1817 0.35786 0.2986 0.0
O3 O 0.1936 0.24749 0.21774 0.0
Cd4 Cd 0.17468 0.22694 0.31465 0.0
C5 C 0.29401 0.29144 0.28832 0.0
O6 O 0.10558 0.29745 0.35289 0.0
O7 O 0.12246 0.26157 0.4131 0.0
O8 O 0.12147 0.14459 0.31908 0.0
C9 C 0.09262 0.29331 0.40345 0.0
O10 O 0.2699 0.33665 0.29165 0.0
C11 C 0.14066 0.11497 0.3429 0.0
O12 O 0.26952 0.24594 0.29335 0.0
O13 O 0.17778 0.13647 0.34999 0.0
C14 C 0.79617 0.29847 0.28013 0.0
O15 O 0.79385 0.34664 0.26397 0.0
Cd16 Cd 0.80553 0.37054 0.17622 0.0
O17 O 0.80432 0.25689 0.24867 0.0
Cd18 Cd 0.81931 0.24075 0.15243 0.0
C19 C 0.69492 0.29927 0.18768 0.0
O20 O 0.88415 0.31515 0.11716 0.0
O21 O 0.86718 0.28158 0.05616 0.0
O22 O 0.87688 0.16046 0.14293 0.0
C23 C 0.89605 0.31372 0.06684 0.0
O24 O 0.71693 0.3454 0.18611 0.0
C25 C 0.85994 0.13167 0.11651 0.0
O26 O 0.72221 0.25498 0.17875 0.0
O27 O 0.822 0.15235 0.11029 0.0
C28 C 0.89897 0.61539 0.64072 0.0
O29 O 0.92637 0.63683 0.66075 0.0
Cd30 Cd 0.91059 0.72244 0.70533 0.0
O31 O 0.85789 0.64048 0.64298 0.0
Cd32 Cd 0.80738 0.7295 0.68305 0.0
C33 C 0.92377 0.80482 0.59804 0.0
O34 O 0.81326 0.71409 0.76462 0.0
O35 O 0.77537 0.791 0.76659 0.0
O36 O 0.7223 0.6805 0.70487 0.0
C37 C 0.78842 0.75636 0.79192 0.0
O38 O 0.94296 0.78731 0.62793 0.0
C39 C 0.70161 0.71984 0.69163 0.0
O40 O 0.87596 0.79009 0.60822 0.0
O41 O 0.73139 0.76254 0.67162 0.0
C42 C 0.10371 0.63552 0.82886 0.0
O43 O 0.08161 0.65718 0.8034 0.0
Cd44 Cd 0.10803 0.73984 0.75263 0.0
O45 O 0.14453 0.65859 0.82912 0.0
Cd46 Cd 0.20285 0.74346 0.78711 0.0
C47 C 0.08933 0.82566 0.85977 0.0
O48 O 0.20503 0.72436 0.70209 0.0
O49 O 0.2449 0.80035 0.69907 0.0
O50 O 0.28133 0.68973 0.77654 0.0
C51 C 0.23382 0.76443 0.67325 0.0
O52 O 0.07354 0.80812 0.82702 0.0
C53 C 0.30313 0.72877 0.78887 0.0
O54 O 0.1344 0.80885 0.85518 0.0
O55 O 0.27654 0.77367 0.80363 0.0
C56 C 0.7098 0.79285 0.18747 0.0
O57 O 0.70878 0.84054 0.20636 0.0
Cd58 Cd 0.68987 0.86116 0.29764 0.0
O59 O 0.70084 0.75024 0.21797 0.0
Cd60 Cd 0.67902 0.7311 0.31613 0.0
C61 C 0.79913 0.79235 0.29137 0.0
O62 O 0.61146 0.80328 0.35192 0.0
O63 O 0.62654 0.76799 0.41362 0.0
O64 O 0.62396 0.64994 0.32139 0.0
C65 C 0.59763 0.79984 0.40277 0.0
O66 O 0.77635 0.83811 0.29354 0.0
C67 C 0.64155 0.62026 0.34666 0.0
O68 O 0.77374 0.74746 0.29644 0.0
O69 O 0.6787 0.64107 0.35411 0.0
C70 C 0.30441 0.79704 0.28102 0.0
O71 O 0.30265 0.84473 0.26355 0.0
Cd72 Cd 0.31154 0.86597 0.17645 0.0
O73 O 0.31101 0.75453 0.25116 0.0
Cd74 Cd 0.32413 0.73475 0.15619 0.0
C75 C 0.19938 0.79299 0.19274 0.0
O76 O 0.38807 0.80893 0.11675 0.0
O77 O 0.36725 0.77376 0.05911 0.0
O78 O 0.38847 0.65982 0.14144 0.0
C79 C 0.39739 0.80661 0.06732 0.0
O80 O 0.22192 0.83914 0.18991 0.0
C81 C 0.36715 0.62584 0.1232 0.0
O82 O 0.22649 0.74855 0.18383 0.0
O83 O 0.32377 0.64133 0.12371 0.0
C84 C 0.39709 0.12141 0.6393 0.0
O85 O 0.42254 0.14298 0.6614 0.0
Cd86 Cd 0.40311 0.22752 0.70838 0.0
O87 O 0.35607 0.14571 0.64063 0.0
Cd88 Cd 0.30248 0.23311 0.68166 0.0
C89 C 0.41797 0.31125 0.60111 0.0
O90 O 0.30579 0.21656 0.76438 0.0
O91 O 0.26654 0.29279 0.7671 0.0
O92 O 0.21982 0.18178 0.69965 0.0
C93 C 0.27942 0.25792 0.7924 0.0
O94 O 0.43597 0.29361 0.63199 0.0
C95 C 0.19856 0.22081 0.6867 0.0
O96 O 0.37104 0.2958 0.60929 0.0
O97 O 0.22705 0.26449 0.66848 0.0
C98 C 0.59748 0.13115 0.82896 0.0
O99 O 0.57406 0.15458 0.80568 0.0
Cd100 Cd 0.60379 0.23621 0.75239 0.0
O101 O 0.64024 0.15226 0.82678 0.0
Cd102 Cd 0.69867 0.23637 0.78418 0.0
C103 C 0.58915 0.32355 0.85592 0.0
O104 O 0.70029 0.2176 0.69902 0.0
O105 O 0.73913 0.29403 0.6969 0.0
O106 O 0.77831 0.18314 0.77177 0.0
C107 C 0.7289 0.25794 0.67056 0.0
O108 O 0.57402 0.30935 0.82165 0.0
C109 C 0.79995 0.22231 0.78412 0.0
O110 O 0.63134 0.30153 0.85368 0.0
O111 O 0.77277 0.26683 0.79975 0.0
H112 H 0.16373 0.05152 0.40898 0.0
H113 H 0.06181 0.05665 0.33402 0.0
H114 H 0.1137 0.97159 0.46301 0.0
H115 H 0.01288 0.97433 0.38648 0.0
H116 H 0.88925 0.88175 0.55041 0.0
H117 H 0.94611 0.95019 0.47974 0.0
H118 H 0.09324 0.87898 0.46655 0.0
H119 H 0.03607 0.81296 0.53919 0.0
C120 C 0.13149 0.03467 0.40291 0.0
C121 C 0.11648 0.06078 0.36753 0.0
C122 C 0.10282 -0.01163 0.4338 0.0
C123 C 0.05873 0.96636 0.42964 0.0
C124 C 0.04576 -0.00928 0.39173 0.0
C125 C 0.07417 0.03761 0.36119 0.0
C126 C 0.93379 0.88064 0.53202 0.0
C127 C 0.9581 0.84271 0.55106 0.0
C128 C 0.96656 0.91961 0.49112 0.0
C129 C 0.02445 0.92081 0.46772 0.0
C130 C 0.04878 0.88054 0.48463 0.0
C131 C 0.016 0.84244 0.52617 0.0
H132 H 0.97794 0.83772 0.90891 0.0
H133 H 0.11962 0.90178 0.91196 0.0
H134 H 0.91849 0.90402 0.97942 0.0
H135 H 0.06067 0.97072 0.98046 0.0
H136 H 0.93734 0.07278 0.12713 0.0
H137 H 0.98978 -0.00677 0.07202 0.0
H138 H 0.89891 -0.00338 -0.01517 0.0
H139 H 0.84522 0.07363 0.04152 0.0
C140 C 0.99646 0.86639 0.92443 0.0
C141 C 0.05358 0.86501 0.90438 0.0
C142 C 0.96237 0.9047 0.96477 0.0
C143 C 0.98464 0.94361 -0.01471 0.0
C144 C 0.04172 0.94118 0.96628 0.0
C145 C 0.07572 0.90195 0.92662 0.0
C146 C 0.928 0.05571 0.09688 0.0
C147 C 0.88714 0.07953 0.0887 0.0
C148 C 0.95845 0.01044 0.06482 0.0
C149 C 0.94912 -0.01157 0.02343 0.0
C150 C 0.90691 0.01146 0.01677 0.0
C151 C 0.87611 0.05606 0.04923 0.0
H152 H 0.53012 0.31977 0.54496 0.0
H153 H 0.38508 0.38901 0.55265 0.0
H154 H 0.58842 0.38607 0.47335 0.0
H155 H 0.44308 0.45784 0.483 0.0
H156 H 0.56237 0.56324 0.33714 0.0
H157 H 0.5114 0.48193 0.39023 0.0
H158 H 0.60912 0.47847 0.47016 0.0
H159 H 0.66116 0.55734 0.41555 0.0
C160 C 0.51067 0.34947 0.53143 0.0
C161 C 0.45294 0.34971 0.55497 0.0
C162 C 0.5441 0.38775 0.49048 0.0
C163 C 0.52061 0.42821 0.47284 0.0
C164 C 0.46289 0.42712 0.49498 0.0
C165 C 0.42947 0.38793 0.53528 0.0
C166 C 0.57358 0.54426 0.36525 0.0
C167 C 0.61571 0.56684 0.37223 0.0
C168 C 0.54399 0.49797 0.39615 0.0
C169 C 0.5556 0.47362 0.43505 0.0
C170 C 0.59931 0.49521 0.44013 0.0
C171 C 0.62915 0.54088 0.4089 0.0
H172 H 0.47114 0.59281 0.0951 0.0
H173 H 0.32724 0.5418 0.08875 0.0
H174 H 0.52347 0.51615 0.03499 0.0
H175 H 0.37885 0.46391 0.03035 0.0
H176 H 0.50593 0.3874 0.86363 0.0
H177 H 0.45017 0.45436 0.93506 0.0
H178 H 0.53918 0.4194 0.0205 0.0
H179 H 0.59653 0.35312 0.94752 0.0
C180 C 0.45024 0.5644 0.08204 0.0
C181 C 0.39524 0.57378 0.09611 0.0
C182 C 0.48025 0.52027 0.04763 0.0
C183 C 0.45578 0.4843 0.02687 0.0
C184 C 0.39954 0.49164 0.04426 0.0
C185 C 0.36972 0.53602 0.0782 0.0
C186 C 0.51374 0.39385 0.89759 0.0
C187 C 0.5559 0.3649 0.89965 0.0
C188 C 0.48126 0.43198 0.93903 0.0
C189 C 0.48964 0.44203 0.98405 0.0
C190 C 0.53182 0.41306 -0.01377 0.0
C191 C 0.56467 0.375 0.94442 0.0
H192 H 0.95646 0.38965 0.08405 0.0
H193 H 0.92639 0.32636 0.95655 0.0
H194 H 0.01498 0.46122 0.02038 0.0
H195 H 0.98671 0.39751 0.89177 0.0
H196 H 0.01596 0.57924 0.83778 0.0
H197 H 0.97513 0.49506 0.88841 0.0
H198 H 0.09975 0.48591 0.93531 0.0
H199 H 0.14034 0.57188 0.8853 0.0
C200 C 0.96307 0.39053 0.04202 0.0
C201 C 0.93605 0.35304 0.02554 0.0
C202 C 0.99716 0.43128 0.00529 0.0
C203 C 0.0052 0.43531 0.95117 0.0
C204 C 0.98053 0.39595 0.93362 0.0
C205 C 0.94613 0.35519 0.97056 0.0
C206 C 0.03508 0.55934 0.85855 0.0
C207 C 0.08114 0.58271 0.85799 0.0
C208 C 0.01191 0.51055 0.8871 0.0
C209 C 0.03427 0.48364 0.91573 0.0
C210 C 0.0813 0.50605 0.91402 0.0
C211 C 0.10454 0.55521 0.88541 0.0
H212 H 0.03138 0.37027 0.3887 0.0
H213 H 0.05962 0.29976 0.51487 0.0
H214 H 0.97287 0.44016 0.45456 0.0
H215 H 0.99915 0.36906 0.58187 0.0
H216 H 0.856 0.55532 0.5877 0.0
H217 H 0.88987 0.46728 0.53973 0.0
H218 H 0.01478 0.46502 0.58656 0.0
H219 H 0.98048 0.55103 0.63518 0.0
C220 C 0.02419 0.36907 0.43095 0.0
C221 C 0.0511 0.33034 0.44631 0.0
C222 C 0.99005 0.40886 0.46897 0.0
C223 C 0.98183 0.4106 0.52328 0.0
C224 C 0.00559 0.36939 0.5399 0.0
C225 C 0.0401 0.32968 0.50166 0.0
C226 C 0.89024 0.53556 0.58822 0.0
C227 C 0.91601 0.56061 0.61455 0.0
C228 C 0.90965 0.48522 0.56076 0.0
C229 C 0.9551 0.45918 0.55925 0.0
C230 C 0.97916 0.48332 0.58761 0.0
C231 C 0.95984 0.53326 0.61494 0.0
H232 H 0.5037 0.07996 0.84664 0.0
H233 H 0.63994 0.06229 0.87599 0.0
H234 H 0.46381 -0.00514 0.89632 0.0
H235 H 0.60035 0.97574 0.92483 0.0
H236 H 0.46486 0.87874 0.07784 0.0
H237 H 0.52022 0.95124 0.01365 0.0
H238 H 0.47362 0.89605 0.89543 0.0
H239 H 0.41647 0.82371 0.96099 0.0
C240 C 0.52552 0.05764 0.86322 0.0
C241 C 0.57473 0.07831 0.85792 0.0
C242 C 0.50288 0.00839 0.89118 0.0
C243 C 0.52895 0.97845 0.91439 0.0
C244 C 0.57899 -0.00174 0.90785 0.0
C245 C 0.60164 0.0478 0.87996 0.0
C246 C 0.46672 0.88166 0.03795 0.0
C247 C 0.43557 0.84615 0.02479 0.0
C248 C 0.49902 0.92295 0.00085 0.0
C249 C 0.50109 0.92963 0.94959 0.0
C250 C 0.47213 0.89237 0.93508 0.0
C251 C 0.43961 0.85089 0.97242 0.0
H252 H 0.56319 0.80789 0.51441 0.0
H253 H 0.53766 0.87652 0.38573 0.0
H254 H 0.50208 0.87766 0.58015 0.0
H255 H 0.47837 0.94686 0.45045 0.0
H256 H 0.35734 0.06052 0.58378 0.0
H257 H 0.39383 0.97323 0.53505 0.0
H258 H 0.5169 0.97415 0.58436 0.0
H259 H 0.4801 0.05946 0.63366 0.0
C260 C 0.54416 0.83752 0.50036 0.0
C261 C 0.55603 0.83747 0.44472 0.0
C262 C 0.50928 0.8775 0.53788 0.0
C263 C 0.48597 0.91824 0.52026 0.0
C264 C 0.49521 0.9159 0.46557 0.0
C265 C 0.52977 0.87587 0.42825 0.0
C266 C 0.39179 0.04166 0.5846 0.0
C267 C 0.41619 0.06733 0.61201 0.0
C268 C 0.41269 -0.00824 0.55672 0.0
C269 C 0.45826 0.96676 0.55587 0.0
C270 C 0.48119 -0.00836 0.58496 0.0
C271 C 0.46041 0.04115 0.6127 0.0
H272 H 0.31762 0.70475 0.32956 0.0
H273 H 0.27961 0.87783 0.35816 0.0
H274 H 0.30788 0.69722 0.42194 0.0
H275 H 0.26871 0.8699 0.45048 0.0
H276 H 0.2088 0.69369 0.6143 0.0
H277 H 0.23132 0.70128 0.51786 0.0
H278 H 0.31821 0.8533 0.50029 0.0
H279 H 0.2944 0.84626 0.59829 0.0
C280 C 0.3071 0.74108 0.35551 0.0
C281 C 0.29907 0.79174 0.33662 0.0
C282 C 0.3015 0.7368 0.40839 0.0
C283 C 0.2875 0.78301 0.44346 0.0
C284 C 0.28037 0.83376 0.42414 0.0
C285 C 0.28614 0.8381 0.37134 0.0
C286 C 0.23287 0.72876 0.58998 0.0
C287 C 0.24953 0.76965 0.61398 0.0
C288 C 0.24622 0.73278 0.53443 0.0
C289 C 0.27673 0.77771 0.50138 0.0
C290 C 0.29419 0.8184 0.52501 0.0
C291 C 0.28071 0.81438 0.58094 0.0
H292 H 0.72917 0.83872 0.86607 0.0
H293 H 0.82207 0.6911 0.84784 0.0
H294 H 0.70804 0.84759 0.96302 0.0
H295 H 0.802 0.70048 0.94348 0.0
H296 H 0.70639 0.69982 0.13391 0.0
H297 H 0.72325 0.69253 0.03872 0.0
H298 H 0.75542 0.86681 0.01498 0.0
H299 H 0.73758 0.87444 0.11015 0.0
C300 C 0.74533 0.8085 0.88262 0.0
C301 C 0.7771 0.76421 0.84951 0.0
C302 C 0.73338 0.81357 0.93795 0.0
C303 C 0.75304 0.77442 0.96092 0.0
C304 C 0.78535 0.73066 0.92738 0.0
C305 C 0.79718 0.72558 0.87239 0.0
C306 C 0.71707 0.73653 0.10838 0.0
C307 C 0.72073 0.78761 0.12961 0.0
C308 C 0.72686 0.73237 0.05384 0.0
C309 C 0.74066 0.77916 0.01943 0.0
C310 C 0.7441 0.83021 0.04074 0.0
C311 C 0.73425 0.8344 0.0952 0.0
H312 H 0.81187 0.20528 0.32571 0.0
H313 H 0.76776 0.37669 0.36039 0.0
H314 H 0.80285 0.19559 0.41763 0.0
H315 H 0.75764 0.3666 0.4522 0.0
H316 H 0.70621 0.18666 0.61017 0.0
H317 H 0.72737 0.19597 0.51426 0.0
H318 H 0.80924 0.35055 0.49986 0.0
H319 H 0.78676 0.34177 0.59728 0.0
C320 C 0.80008 0.24076 0.35293 0.0
C321 C 0.79031 0.29162 0.33582 0.0
C322 C 0.79491 0.23525 0.40554 0.0
C323 C 0.77964 0.28041 0.44207 0.0
C324 C 0.7704 0.3313 0.42467 0.0
C325 C 0.77572 0.33687 0.37216 0.0
C326 C 0.72892 0.22264 0.58662 0.0
C327 C 0.74445 0.26378 0.61139 0.0
C328 C 0.74148 0.22767 0.53139 0.0
C329 C 0.77004 0.27389 0.49945 0.0
C330 C 0.78663 0.31469 0.52375 0.0
C331 C 0.77395 0.30966 0.57934 0.0
H332 H 0.19767 0.19772 0.13409 0.0
H333 H 0.22522 0.37295 0.11249 0.0
H334 H 0.21331 0.19114 0.03933 0.0
H335 H 0.24193 0.36604 0.0177 0.0
H336 H 0.21776 0.33865 0.86775 0.0
H337 H 0.19543 0.34638 0.9652 0.0
H338 H 0.29145 0.20051 0.94438 0.0
H339 H 0.31264 0.19222 0.84834 0.0
C340 C 0.20726 0.23473 0.10914 0.0
C341 C 0.21039 0.28575 0.1308 0.0
C342 C 0.21633 0.23098 0.05484 0.0
C343 C 0.22891 0.27812 0.02108 0.0
C344 C 0.23156 0.32915 0.04294 0.0
C345 C 0.22238 0.33293 0.09718 0.0
C346 C 0.23404 0.30842 0.88416 0.0
C347 C 0.26682 0.26486 0.85053 0.0
C348 C 0.2214 0.31284 0.93979 0.0
C349 C 0.24138 0.27375 0.96251 0.0
C350 C 0.27452 0.23061 0.92851 0.0
C351 C 0.28701 0.22617 0.87326 0.0
H352 H 0.36639 0.37754 0.25005 0.0
H353 H 0.35345 0.20673 0.29701 0.0
H354 H 0.46279 0.37835 0.22486 0.0
H355 H 0.44966 0.20806 0.27405 0.0
H356 H 0.61755 0.38019 0.23561 0.0
H357 H 0.52071 0.37719 0.26241 0.0
H358 H 0.54249 0.2117 0.19844 0.0
H359 H 0.6392 0.214 0.17384 0.0
C360 C 0.38392 0.34027 0.25575 0.0
C361 C 0.35208 0.29208 0.27568 0.0
C362 C 0.43932 0.34079 0.24152 0.0
C363 C 0.46431 0.29332 0.24752 0.0
C364 C 0.43224 0.24518 0.26799 0.0
C365 C 0.37688 0.24449 0.2816 0.0
C366 C 0.60178 0.34316 0.22708 0.0
C367 C 0.63624 0.2974 0.20233 0.0
C368 C 0.54613 0.34151 0.24226 0.0
C369 C 0.5235 0.2943 0.23239 0.0
C370 C 0.55809 0.24849 0.2075 0.0
C371 C 0.61372 0.24992 0.19296 0.0
H372 H 0.62687 0.6358 0.73877 0.0
H373 H 0.64566 0.79966 0.67169 0.0
H374 H 0.52933 0.63608 0.76607 0.0
H375 H 0.54853 0.79956 0.69809 0.0
H376 H 0.37205 0.63982 0.75138 0.0
H377 H 0.46861 0.63579 0.72706 0.0
H378 H 0.45781 0.80276 0.78389 0.0
H379 H 0.36162 0.80714 0.80726 0.0
C380 C 0.61037 0.67162 0.72923 0.0
C381 C 0.64401 0.71776 0.70314 0.0
C382 C 0.55447 0.67174 0.74482 0.0
C383 C 0.53097 0.71806 0.7348 0.0
C384 C 0.56504 0.76364 0.70745 0.0
C385 C 0.62088 0.76349 0.6918 0.0
C386 C 0.39009 0.67545 0.75931 0.0
C387 C 0.35921 0.72389 0.78103 0.0
C388 C 0.44544 0.6731 0.74543 0.0
C389 C 0.47115 0.71917 0.75288 0.0
C390 C 0.43959 0.76692 0.77654 0.0
C391 C 0.38428 0.76925 0.79046 0.0
H392 H 0.12262 0.87402 0.24251 0.0
H393 H 0.14237 0.70849 0.17955 0.0
H394 H 0.02568 0.87242 0.26966 0.0
H395 H 0.04548 0.70761 0.2045 0.0
H396 H 0.87302 0.87713 0.25455 0.0
H397 H 0.96893 0.87578 0.23082 0.0
H398 H 0.95207 0.70506 0.27957 0.0
H399 H 0.85626 0.70592 0.30111 0.0
C400 C 0.10638 0.83741 0.23386 0.0
C401 C 0.14038 0.79149 0.2085 0.0
C402 C 0.05068 0.83657 0.24923 0.0
C403 C 0.02753 0.79006 0.23892 0.0
C404 C 0.06153 0.74392 0.21381 0.0
C405 C 0.11724 0.74451 0.19909 0.0
C406 C 0.88959 0.83931 0.26052 0.0
C407 C 0.85683 0.79165 0.27987 0.0
C408 C 0.94472 0.83859 0.24714 0.0
C409 C 0.96852 0.79036 0.25343 0.0
C410 C 0.93553 0.74275 0.27335 0.0
C411 C 0.88042 0.74332 0.28615 0.0
H412 H 0.14139 0.29954 0.66707 0.0
H413 H 0.12609 0.13463 0.73079 0.0
H414 H 0.04452 0.29736 0.69261 0.0
H415 H 0.0288 0.13283 0.75723 0.0
H416 H 0.87069 0.13473 0.74394 0.0
H417 H 0.96766 0.13226 0.71856 0.0
H418 H 0.95404 0.29824 0.77876 0.0
H419 H 0.85752 0.30107 0.80322 0.0
C420 C 0.11746 0.26267 0.68618 0.0
C421 C 0.14145 0.21731 0.69698 0.0
C422 C 0.06177 0.26161 0.70134 0.0
C423 C 0.02869 0.21518 0.72765 0.0
C424 C 0.05315 0.16914 0.73683 0.0
C425 C 0.10891 0.17021 0.72172 0.0
C426 C 0.88822 0.17046 0.75236 0.0
C427 C 0.85643 0.21818 0.7754 0.0
C428 C 0.9438 0.16901 0.73785 0.0
C429 C 0.96881 0.21529 0.74596 0.0
C430 C 0.93638 0.26229 0.77085 0.0
C431 C 0.88087 0.26372 0.7854 0.0
loop_
_geom_bond_atom_site_label_1
_geom_bond_atom_site_label_2
_geom_bond_distance
_geom_bond_site_symmetry_2
_ccdc_geom_bond_type
C0 O1 1.306 . S
C0 O3 1.160 . S
O1 C0 1.306 . S
O1 Cd2 2.228 . S
Cd2 O1 2.228 . S
Cd2 O6 2.273 . S
Cd2 O10 2.277 . S
O3 C0 1.160 . S
O3 Cd4 2.203 . S
Cd4 O3 2.203 . S
Cd4 O6 2.411 . S
Cd4 O7 2.333 . S
Cd4 O8 2.352 . S
Cd4 O12 2.277 . S
Cd4 O13 2.356 . S
C5 O10 1.209 . S
C5 O12 1.226 . S
O6 Cd2 2.273 . S
O6 Cd4 2.411 . S
O6 C9 1.320 . S
O7 Cd4 2.333 . S
O7 C9 1.214 . S
O8 Cd4 2.352 . S
O8 C11 1.258 . S
C9 O6 1.320 . S
C9 O7 1.214 . S
O10 Cd2 2.277 . S
O10 C5 1.209 . S
C11 O8 1.258 . S
C11 O13 1.282 . S
O12 Cd4 2.277 . S
O12 C5 1.226 . S
O13 Cd4 2.356 . S
O13 C11 1.282 . S
C14 O15 1.306 . S
C14 O17 1.160 . S
O15 C14 1.306 . S
O15 Cd16 2.228 . S
Cd16 O15 2.228 . S
Cd16 O20 2.273 . S
Cd16 O24 2.277 . S
O17 C14 1.160 . S
O17 Cd18 2.203 . S
Cd18 O17 2.203 . S
Cd18 O20 2.411 . S
Cd18 O21 2.333 . S
Cd18 O22 2.352 . S
Cd18 O26 2.277 . S
Cd18 O27 2.356 . S
C19 O24 1.209 . S
C19 O26 1.226 . S
O20 Cd16 2.273 . S
O20 Cd18 2.411 . S
O20 C23 1.320 . S
O21 Cd18 2.333 . S
O21 C23 1.214 . S
O22 Cd18 2.352 . S
O22 C25 1.258 . S
C23 O20 1.320 . S
C23 O21 1.214 . S
O24 Cd16 2.277 . S
O24 C19 1.209 . S
C25 O22 1.258 . S
C25 O27 1.282 . S
O26 Cd18 2.277 . S
O26 C19 1.226 . S
O27 Cd18 2.356 . S
O27 C25 1.282 . S
C28 O29 1.306 . S
C28 O31 1.160 . S
O29 C28 1.306 . S
O29 Cd30 2.228 . S
Cd30 O29 2.228 . S
Cd30 O34 2.273 . S
Cd30 O38 2.277 . S
O31 C28 1.160 . S
O31 Cd32 2.203 . S
Cd32 O31 2.203 . S
Cd32 O34 2.411 . S
Cd32 O35 2.333 . S
Cd32 O36 2.352 . S
Cd32 O40 2.277 . S
Cd32 O41 2.356 . S
C33 O38 1.209 . S
C33 O40 1.226 . S
O34 Cd30 2.273 . S
O34 Cd32 2.411 . S
O34 C37 1.320 . S
O35 Cd32 2.333 . S
O35 C37 1.214 . S
O36 Cd32 2.352 . S
O36 C39 1.258 . S
C37 O34 1.320 . S
C37 O35 1.214 . S
O38 Cd30 2.277 . S
O38 C33 1.209 . S
C39 O36 1.258 . S
C39 O41 1.282 . S
O40 Cd32 2.277 . S
O40 C33 1.226 . S
O41 Cd32 2.356 . S
O41 C39 1.282 . S
C42 O43 1.306 . S
C42 O45 1.160 . S
O43 C42 1.306 . S
O43 Cd44 2.228 . S
Cd44 O43 2.228 . S
Cd44 O48 2.273 . S
Cd44 O52 2.277 . S
O45 C42 1.160 . S
O45 Cd46 2.203 . S
Cd46 O45 2.203 . S
Cd46 O48 2.411 . S
Cd46 O49 2.333 . S
Cd46 O50 2.352 . S
Cd46 O54 2.277 . S
Cd46 O55 2.356 . S
C47 O52 1.209 . S
C47 O54 1.226 . S
O48 Cd44 2.273 . S
O48 Cd46 2.411 . S
O48 C51 1.320 . S
O49 Cd46 2.333 . S
O49 C51 1.214 . S
O50 Cd46 2.352 . S
O50 C53 1.258 . S
C51 O48 1.320 . S
C51 O49 1.214 . S
O52 Cd44 2.277 . S
O52 C47 1.209 . S
C53 O50 1.258 . S
C53 O55 1.282 . S
O54 Cd46 2.277 . S
O54 C47 1.226 . S
O55 Cd46 2.356 . S
O55 C53 1.282 . S
C56 O57 1.306 . S
C56 O59 1.160 . S
O57 C56 1.306 . S
O57 Cd58 2.228 . S
Cd58 O57 2.228 . S
Cd58 O62 2.273 . S
Cd58 O66 2.277 . S
O59 C56 1.160 . S
O59 Cd60 2.203 . S
Cd60 O59 2.203 . S
Cd60 O62 2.411 . S
Cd60 O63 2.333 . S
Cd60 O64 2.352 . S
Cd60 O68 2.277 . S
Cd60 O69 2.356 . S
C61 O66 1.209 . S
C61 O68 1.226 . S
O62 Cd58 2.273 . S
O62 Cd60 2.411 . S
O62 C65 1.320 . S
O63 Cd60 2.333 . S
O63 C65 1.214 . S
O64 Cd60 2.352 . S
O64 C67 1.258 . S
C65 O62 1.320 . S
C65 O63 1.214 . S
O66 Cd58 2.277 . S
O66 C61 1.209 . S
C67 O64 1.258 . S
C67 O69 1.282 . S
O68 Cd60 2.277 . S
O68 C61 1.226 . S
O69 Cd60 2.356 . S
O69 C67 1.282 . S
C70 O71 1.306 . S
C70 O73 1.160 . S
O71 C70 1.306 . S
O71 Cd72 2.228 . S
Cd72 O71 2.228 . S
Cd72 O76 2.273 . S
Cd72 O80 2.277 . S
O73 C70 1.160 . S
O73 Cd74 2.203 . S
Cd74 O73 2.203 . S
Cd74 O76 2.411 . S
Cd74 O77 2.333 . S
Cd74 O78 2.352 . S
Cd74 O82 2.277 . S
Cd74 O83 2.356 . S
C75 O80 1.209 . S
C75 O82 1.226 . S
O76 Cd72 2.273 . S
O76 Cd74 2.411 . S
O76 C79 1.320 . S
O77 Cd74 2.333 . S
O77 C79 1.214 . S
O78 Cd74 2.352 . S
O78 C81 1.258 . S
C79 O76 1.320 . S
C79 O77 1.214 . S
O80 Cd72 2.277 . S
O80 C75 1.209 . S
C81 O78 1.258 . S
C81 O83 1.282 . S
O82 Cd74 2.277 . S
O82 C75 1.226 . S
O83 Cd74 2.356 . S
O83 C81 1.282 . S
C84 O85 1.306 . S
C84 O87 1.160 . S
O85 C84 1.306 . S
O85 Cd86 2.228 . S
Cd86 O85 2.228 . S
Cd86 O90 2.273 . S
Cd86 O94 2.277 . S
O87 C84 1.160 . S
O87 Cd88 2.203 . S
Cd88 O87 2.203 . S
Cd88 O90 2.411 . S
Cd88 O91 2.333 . S
Cd88 O92 2.352 . S
Cd88 O96 2.277 . S
Cd88 O97 2.356 . S
C89 O94 1.209 . S
C89 O96 1.226 . S
O90 Cd86 2.273 . S
O90 Cd88 2.411 . S
O90 C93 1.320 . S
O91 Cd88 2.333 . S
O91 C93 1.214 . S
O92 Cd88 2.352 . S
O92 C95 1.258 . S
C93 O90 1.320 . S
C93 O91 1.214 . S
O94 Cd86 2.277 . S
O94 C89 1.209 . S
C95 O92 1.258 . S
C95 O97 1.282 . S
O96 Cd88 2.277 . S
O96 C89 1.226 . S
O97 Cd88 2.356 . S
O97 C95 1.282 . S
C98 O99 1.306 . S
C98 O101 1.160 . S
O99 C98 1.306 . S
O99 Cd100 2.228 . S
Cd100 O99 2.228 . S
Cd100 O104 2.273 . S
Cd100 O108 2.277 . S
O101 C98 1.160 . S
O101 Cd102 2.203 . S
Cd102 O101 2.203 . S
Cd102 O104 2.411 . S
Cd102 O105 2.333 . S
Cd102 O106 2.352 . S
Cd102 O110 2.277 . S
Cd102 O111 2.356 . S
C103 O108 1.209 . S
C103 O110 1.226 . S
O104 Cd100 2.273 . S
O104 Cd102 2.411 . S
O104 C107 1.320 . S
O105 Cd102 2.333 . S
O105 C107 1.214 . S
O106 Cd102 2.352 . S
O106 C109 1.258 . S
C107 O104 1.320 . S
C107 O105 1.214 . S
O108 Cd100 2.277 . S
O108 C103 1.209 . S
C109 O106 1.258 . S
C109 O111 1.282 . S
O110 Cd102 2.277 . S
O110 C103 1.226 . S
O111 Cd102 2.356 . S
O111 C109 1.282 . S
H112 C120 0.950 . S
H113 C125 0.950 1_655 S
H114 C122 0.950 . S
H115 C124 0.950 . S
H116 C126 0.950 . S
H117 C128 0.950 . S
H118 C130 0.950 . S
H119 C131 0.950 1_455 S
C120 H112 0.950 . S
C120 C121 1.386 . S
C120 C122 1.391 . S
C121 C120 1.386 . S
C121 C125 1.393 . S
C122 H114 0.950 . S
C122 C120 1.391 . S
C122 C123 1.400 . S
C123 C122 1.400 . S
C123 C124 1.398 1_455 S
C123 C129 1.491 1_445 S
C124 H115 0.950 . S
C124 C123 1.398 1_655 S
C124 C125 1.391 1_655 S
C125 H113 0.950 1_455 S
C125 C121 1.393 . S
C125 C124 1.391 1_455 S
C126 H116 0.950 . S
C126 C127 1.386 . S
C126 C128 1.391 . S
C127 C126 1.386 . S
C127 C131 1.393 . S
C128 H117 0.950 . S
C128 C126 1.391 . S
C128 C129 1.400 . S
C129 C123 1.491 1_665 S
C129 C128 1.400 . S
C129 C130 1.398 1_655 S
C130 H118 0.950 . S
C130 C129 1.398 1_455 S
C130 C131 1.391 1_455 S
C131 H119 0.950 1_655 S
C131 C127 1.393 . S
C131 C130 1.391 1_655 S
H132 C140 0.950 . S
H133 C145 0.950 . S
H134 C142 0.950 . S
H135 C144 0.963 . S
H136 C146 0.950 . S
H137 C148 0.954 . S
H138 C150 0.950 . S
H139 C151 0.950 . S
C140 H132 0.950 . S
C140 C141 1.386 . S
C140 C142 1.391 . S
C141 C140 1.386 . S
C141 C145 1.393 . S
C142 H134 0.950 . S
C142 C140 1.391 . S
C142 C143 1.400 . S
C143 C142 1.400 . S
C143 C144 1.390 1_556 S
C143 C149 1.491 1_466 S
C144 H135 0.963 . S
C144 C143 1.390 1_554 S
C144 C145 1.386 1_554 S
C145 H133 0.950 . S
C145 C141 1.393 . S
C145 C144 1.386 1_556 S
C146 H136 0.950 . S
C146 C147 1.386 . S
C146 C148 1.391 . S
C147 C146 1.386 . S
C147 C151 1.393 . S
C148 H137 0.954 . S
C148 C146 1.391 . S
C148 C149 1.400 . S
C149 C143 1.491 1_644 S
C149 C148 1.400 . S
C149 C150 1.398 1_554 S
C150 H138 0.950 . S
C150 C149 1.398 1_556 S
C150 C151 1.391 1_556 S
C151 H139 0.950 . S
C151 C147 1.393 . S
C151 C150 1.391 1_554 S
H152 C160 0.950 . S
H153 C165 0.950 . S
H154 C162 0.950 . S
H155 C164 0.950 . S
H156 C166 0.950 . S
H157 C168 0.950 . S
H158 C170 0.950 . S
H159 C171 0.950 . S
C160 H152 0.950 . S
C160 C161 1.386 . S
C160 C162 1.391 . S
C161 C160 1.386 . S
C161 C165 1.393 . S
C162 H154 0.950 . S
C162 C160 1.391 . S
C162 C163 1.400 . S
C163 C162 1.400 . S
C163 C164 1.398 . S
C163 C169 1.491 . S
C164 H155 0.950 . S
C164 C163 1.398 . S
C164 C165 1.391 . S
C165 H153 0.950 . S
C165 C161 1.393 . S
C165 C164 1.391 . S
C166 H156 0.950 . S
C166 C167 1.386 . S
C166 C168 1.391 . S
C167 C166 1.386 . S
C167 C171 1.393 . S
C168 H157 0.950 . S
C168 C166 1.391 . S
C168 C169 1.400 . S
C169 C163 1.491 . S
C169 C168 1.400 . S
C169 C170 1.398 . S
C170 H158 0.950 . S
C170 C169 1.398 . S
C170 C171 1.391 . S
C171 H159 0.950 . S
C171 C167 1.393 . S
C171 C170 1.391 . S
H172 C180 0.950 . S
H173 C185 0.950 . S
H174 C182 0.950 1_556 S
H175 C184 0.950 . S
H176 C186 0.950 . S
H177 C188 0.950 1_554 S
H178 C190 0.950 . S
H179 C191 0.950 . S
C180 H172 0.950 . S
C180 C181 1.386 . S
C180 C182 1.391 . S
C181 C180 1.386 . S
C181 C185 1.393 . S
C182 H174 0.950 1_554 S
C182 C180 1.391 . S
C182 C183 1.400 . S
C183 C182 1.400 . S
C183 C184 1.398 . S
C183 C189 1.491 1_554 S
C184 H175 0.950 . S
C184 C183 1.398 . S
C184 C185 1.391 . S
C185 H173 0.950 . S
C185 C181 1.393 . S
C185 C184 1.391 . S
C186 H176 0.950 . S
C186 C187 1.386 . S
C186 C188 1.391 . S
C187 C186 1.386 . S
C187 C191 1.393 . S
C188 H177 0.950 1_556 S
C188 C186 1.391 . S
C188 C189 1.400 . S
C189 C183 1.491 1_556 S
C189 C188 1.400 . S
C189 C190 1.398 . S
C190 H178 0.950 . S
C190 C189 1.398 . S
C190 C191 1.391 . S
C191 H179 0.950 . S
C191 C187 1.393 . S
C191 C190 1.391 . S
H192 C200 0.950 . S
H193 C205 0.950 . S
H194 C202 0.950 1_456 S
H195 C204 0.950 . S
H196 C206 0.950 . S
H197 C208 0.950 1_554 S
H198 C210 0.950 . S
H199 C211 0.950 . S
C200 H192 0.950 . S
C200 C201 1.386 . S
C200 C202 1.391 . S
C201 C200 1.386 . S
C201 C205 1.393 . S
C202 H194 0.950 1_654 S
C202 C200 1.391 . S
C202 C203 1.400 . S
C203 C202 1.400 . S
C203 C204 1.398 . S
C203 C209 1.491 1_654 S
C204 H195 0.950 . S
C204 C203 1.398 . S
C204 C205 1.391 . S
C205 H193 0.950 . S
C205 C201 1.393 . S
C205 C204 1.391 . S
C206 H196 0.950 . S
C206 C207 1.386 . S
C206 C208 1.391 1_455 S
C207 C206 1.386 . S
C207 C211 1.393 . S
C208 H197 0.950 1_556 S
C208 C206 1.391 1_655 S
C208 C209 1.400 1_655 S
C209 C203 1.491 1_456 S
C209 C208 1.400 1_455 S
C209 C210 1.398 . S
C210 H198 0.950 . S
C210 C209 1.398 . S
C210 C211 1.391 . S
C211 H199 0.950 . S
C211 C207 1.393 . S
C211 C210 1.391 . S
H212 C220 0.950 . S
H213 C225 0.950 . S
H214 C222 0.950 . S
H215 C224 0.950 1_655 S
H216 C226 0.950 . S
H217 C228 0.950 . S
H218 C230 0.950 . S
H219 C231 0.950 . S
C220 H212 0.950 . S
C220 C221 1.386 . S
C220 C222 1.391 . S
C221 C220 1.386 . S
C221 C225 1.393 . S
C222 H214 0.950 . S
C222 C220 1.391 . S
C222 C223 1.400 . S
C223 C222 1.400 . S
C223 C224 1.398 . S
C223 C229 1.491 1_455 S
C224 H215 0.950 1_455 S
C224 C223 1.398 . S
C224 C225 1.391 . S
C225 H213 0.950 . S
C225 C221 1.393 . S
C225 C224 1.391 . S
C226 H216 0.950 . S
C226 C227 1.386 . S
C226 C228 1.391 . S
C227 C226 1.386 . S
C227 C231 1.393 . S
C228 H217 0.950 . S
C228 C226 1.391 . S
C228 C229 1.400 . S
C229 C223 1.491 1_655 S
C229 C228 1.400 . S
C229 C230 1.398 1_655 S
C230 H218 0.950 . S
C230 C229 1.398 1_455 S
C230 C231 1.391 1_455 S
C231 H219 0.950 . S
C231 C227 1.393 . S
C231 C230 1.391 1_655 S
H232 C240 0.950 . S
H233 C245 0.950 . S
H234 C242 0.950 . S
H235 C244 0.950 1_565 S
H236 C246 0.950 . S
H237 C248 0.950 . S
H238 C250 0.950 1_545 S
H239 C251 0.950 . S
C240 H232 0.950 . S
C240 C241 1.386 . S
C240 C242 1.391 . S
C241 C240 1.386 . S
C241 C245 1.393 . S
C242 H234 0.950 . S
C242 C240 1.391 . S
C242 C243 1.400 . S
C243 C242 1.400 . S
C243 C244 1.398 . S
C243 C249 1.491 1_546 S
C244 H235 0.950 1_545 S
C244 C243 1.398 . S
C244 C245 1.391 . S
C245 H233 0.950 . S
C245 C241 1.393 . S
C245 C244 1.391 . S
C246 H236 0.950 . S
C246 C247 1.386 . S
C246 C248 1.391 . S
C247 C246 1.386 . S
C247 C251 1.393 . S
C248 H237 0.950 . S
C248 C246 1.391 . S
C248 C249 1.400 . S
C249 C243 1.491 1_564 S
C249 C248 1.400 . S
C249 C250 1.398 . S
C250 H238 0.950 1_565 S
C250 C249 1.398 . S
C250 C251 1.391 . S
C251 H239 0.950 . S
C251 C247 1.393 . S
C251 C250 1.391 . S
H252 C260 0.950 . S
H253 C265 0.950 . S
H254 C262 0.950 1_545 S
H255 C264 0.950 . S
H256 C266 0.950 . S
H257 C268 0.950 1_565 S
H258 C270 0.950 . S
H259 C271 0.950 . S
C260 H252 0.950 . S
C260 C261 1.386 . S
C260 C262 1.391 . S
C261 C260 1.386 . S
C261 C265 1.393 . S
C262 H254 0.950 1_565 S
C262 C260 1.391 . S
C262 C263 1.400 . S
C263 C262 1.400 . S
C263 C264 1.398 . S
C263 C269 1.491 1_565 S
C264 H255 0.950 . S
C264 C263 1.398 . S
C264 C265 1.391 . S
C265 H253 0.950 . S
C265 C261 1.393 . S
C265 C264 1.391 . S
C266 H256 0.950 . S
C266 C267 1.386 . S
C266 C268 1.391 . S
C267 C266 1.386 . S
C267 C271 1.393 . S
C268 H257 0.950 1_545 S
C268 C266 1.391 . S
C268 C269 1.400 . S
C269 C263 1.491 1_545 S
C269 C268 1.400 . S
C269 C270 1.398 . S
C270 H258 0.950 . S
C270 C269 1.398 . S
C270 C271 1.391 . S
C271 H259 0.950 . S
C271 C267 1.393 . S
C271 C270 1.391 . S
H272 C280 0.950 . S
H273 C285 0.950 . S
H274 C282 0.950 . S
H275 C284 0.950 . S
H276 C286 0.950 . S
H277 C288 0.950 . S
H278 C290 0.950 . S
H279 C291 0.950 . S
C280 H272 0.950 . S
C280 C281 1.386 . S
C280 C282 1.391 . S
C281 C280 1.386 . S
C281 C285 1.393 . S
C282 H274 0.950 . S
C282 C280 1.391 . S
C282 C283 1.400 . S
C283 C282 1.400 . S
C283 C284 1.398 . S
C283 C289 1.491 . S
C284 H275 0.950 . S
C284 C283 1.398 . S
C284 C285 1.391 . S
C285 H273 0.950 . S
C285 C281 1.393 . S
C285 C284 1.391 . S
C286 H276 0.950 . S
C286 C287 1.386 . S
C286 C288 1.391 . S
C287 C286 1.386 . S
C287 C291 1.393 . S
C288 H277 0.950 . S
C288 C286 1.391 . S
C288 C289 1.400 . S
C289 C283 1.491 . S
C289 C288 1.400 . S
C289 C290 1.398 . S
C290 H278 0.950 . S
C290 C289 1.398 . S
C290 C291 1.391 . S
C291 H279 0.950 . S
C291 C287 1.393 . S
C291 C290 1.391 . S
H292 C300 0.950 . S
H293 C305 0.950 . S
H294 C302 0.950 . S
H295 C304 0.950 . S
H296 C306 0.950 . S
H297 C308 0.950 . S
H298 C310 0.950 . S
H299 C311 0.950 . S
C300 H292 0.950 . S
C300 C301 1.386 . S
C300 C302 1.391 . S
C301 C300 1.386 . S
C301 C305 1.393 . S
C302 H294 0.950 . S
C302 C300 1.391 . S
C302 C303 1.400 . S
C303 C302 1.400 . S
C303 C304 1.398 . S
C303 C309 1.491 1_556 S
C304 H295 0.950 . S
C304 C303 1.398 . S
C304 C305 1.391 . S
C305 H293 0.950 . S
C305 C301 1.393 . S
C305 C304 1.391 . S
C306 H296 0.950 . S
C306 C307 1.386 . S
C306 C308 1.391 . S
C307 C306 1.386 . S
C307 C311 1.393 . S
C308 H297 0.950 . S
C308 C306 1.391 . S
C308 C309 1.400 . S
C309 C303 1.491 1_554 S
C309 C308 1.400 . S
C309 C310 1.398 . S
C310 H298 0.950 . S
C310 C309 1.398 . S
C310 C311 1.391 . S
C311 H299 0.950 . S
C311 C307 1.393 . S
C311 C310 1.391 . S
H312 C320 0.950 . S
H313 C325 0.950 . S
H314 C322 0.950 . S
H315 C324 0.950 . S
H316 C326 0.950 . S
H317 C328 0.950 . S
H318 C330 0.950 . S
H319 C331 0.950 . S
C320 H312 0.950 . S
C320 C321 1.386 . S
C320 C322 1.391 . S
C321 C320 1.386 . S
C321 C325 1.393 . S
C322 H314 0.950 . S
C322 C320 1.391 . S
C322 C323 1.400 . S
C323 C322 1.400 . S
C323 C324 1.398 . S
C323 C329 1.491 . S
C324 H315 0.950 . S
C324 C323 1.398 . S
C324 C325 1.391 . S
C325 H313 0.950 . S
C325 C321 1.393 . S
C325 C324 1.391 . S
C326 H316 0.950 . S
C326 C327 1.386 . S
C326 C328 1.391 . S
C327 C326 1.386 . S
C327 C331 1.393 . S
C328 H317 0.950 . S
C328 C326 1.391 . S
C328 C329 1.400 . S
C329 C323 1.491 . S
C329 C328 1.400 . S
C329 C330 1.398 . S
C330 H318 0.950 . S
C330 C329 1.398 . S
C330 C331 1.391 . S
C331 H319 0.950 . S
C331 C327 1.393 . S
C331 C330 1.391 . S
H332 C340 0.950 . S
H333 C345 0.950 . S
H334 C342 0.950 . S
H335 C344 0.950 . S
H336 C346 0.950 . S
H337 C348 0.950 . S
H338 C350 0.950 . S
H339 C351 0.950 . S
C340 H332 0.950 . S
C340 C341 1.386 . S
C340 C342 1.391 . S
C341 C340 1.386 . S
C341 C345 1.393 . S
C342 H334 0.950 . S
C342 C340 1.391 . S
C342 C343 1.400 . S
C343 C342 1.400 . S
C343 C344 1.398 . S
C343 C349 1.491 1_554 S
C344 H335 0.950 . S
C344 C343 1.398 . S
C344 C345 1.391 . S
C345 H333 0.950 . S
C345 C341 1.393 . S
C345 C344 1.391 . S
C346 H336 0.950 . S
C346 C347 1.386 . S
C346 C348 1.391 . S
C347 C346 1.386 . S
C347 C351 1.393 . S
C348 H337 0.950 . S
C348 C346 1.391 . S
C348 C349 1.400 . S
C349 C343 1.491 1_556 S
C349 C348 1.400 . S
C349 C350 1.398 . S
C350 H338 0.950 . S
C350 C349 1.398 . S
C350 C351 1.391 . S
C351 H339 0.950 . S
C351 C347 1.393 . S
C351 C350 1.391 . S
H352 C360 0.950 . S
H353 C365 0.950 . S
H354 C362 0.950 . S
H355 C364 0.950 . S
H356 C366 0.950 . S
H357 C368 0.950 . S
H358 C370 0.950 . S
H359 C371 0.950 . S
C360 H352 0.950 . S
C360 C361 1.386 . S
C360 C362 1.391 . S
C361 C360 1.386 . S
C361 C365 1.393 . S
C362 H354 0.950 . S
C362 C360 1.391 . S
C362 C363 1.400 . S
C363 C362 1.400 . S
C363 C364 1.398 . S
C363 C369 1.491 . S
C364 H355 0.950 . S
C364 C363 1.398 . S
C364 C365 1.391 . S
C365 H353 0.950 . S
C365 C361 1.393 . S
C365 C364 1.391 . S
C366 H356 0.950 . S
C366 C367 1.386 . S
C366 C368 1.391 . S
C367 C366 1.386 . S
C367 C371 1.393 . S
C368 H357 0.950 . S
C368 C366 1.391 . S
C368 C369 1.400 . S
C369 C363 1.491 . S
C369 C368 1.400 . S
C369 C370 1.398 . S
C370 H358 0.950 . S
C370 C369 1.398 . S
C370 C371 1.391 . S
C371 H359 0.950 . S
C371 C367 1.393 . S
C371 C370 1.391 . S
H372 C380 0.950 . S
H373 C385 0.950 . S
H374 C382 0.950 . S
H375 C384 0.950 . S
H376 C386 0.950 . S
H377 C388 0.950 . S
H378 C390 0.950 . S
H379 C391 0.950 . S
C380 H372 0.950 . S
C380 C381 1.386 . S
C380 C382 1.391 . S
C381 C380 1.386 . S
C381 C385 1.393 . S
C382 H374 0.950 . S
C382 C380 1.391 . S
C382 C383 1.400 . S
C383 C382 1.400 . S
C383 C384 1.398 . S
C383 C389 1.491 . S
C384 H375 0.950 . S
C384 C383 1.398 . S
C384 C385 1.391 . S
C385 H373 0.950 . S
C385 C381 1.393 . S
C385 C384 1.391 . S
C386 H376 0.950 . S
C386 C387 1.386 . S
C386 C388 1.391 . S
C387 C386 1.386 . S
C387 C391 1.393 . S
C388 H377 0.950 . S
C388 C386 1.391 . S
C388 C389 1.400 . S
C389 C383 1.491 . S
C389 C388 1.400 . S
C389 C390 1.398 . S
C390 H378 0.950 . S
C390 C389 1.398 . S
C390 C391 1.391 . S
C391 H379 0.950 . S
C391 C387 1.393 . S
C391 C390 1.391 . S
H392 C400 0.950 . S
H393 C405 0.950 . S
H394 C402 0.950 . S
H395 C404 0.950 . S
H396 C406 0.950 . S
H397 C408 0.950 . S
H398 C410 0.950 . S
H399 C411 0.950 . S
C400 H392 0.950 . S
C400 C401 1.386 . S
C400 C402 1.391 . S
C401 C400 1.386 . S
C401 C405 1.393 . S
C402 H394 0.950 . S
C402 C400 1.391 . S
C402 C403 1.400 . S
C403 C402 1.400 . S
C403 C404 1.398 . S
C403 C409 1.491 1_455 S
C404 H395 0.950 . S
C404 C403 1.398 . S
C404 C405 1.391 . S
C405 H393 0.950 . S
C405 C401 1.393 . S
C405 C404 1.391 . S
C406 H396 0.950 . S
C406 C407 1.386 . S
C406 C408 1.391 . S
C407 C406 1.386 . S
C407 C411 1.393 . S
C408 H397 0.950 . S
C408 C406 1.391 . S
C408 C409 1.400 . S
C409 C403 1.491 1_655 S
C409 C408 1.400 . S
C409 C410 1.398 . S
C410 H398 0.950 . S
C410 C409 1.398 . S
C410 C411 1.391 . S
C411 H399 0.950 . S
C411 C407 1.393 . S
C411 C410 1.391 . S
H412 C420 0.950 . S
H413 C425 0.950 . S
H414 C422 0.950 . S
H415 C424 0.950 . S
H416 C426 0.950 . S
H417 C428 0.950 . S
H418 C430 0.950 . S
H419 C431 0.950 . S
C420 H412 0.950 . S
C420 C421 1.386 . S
C420 C422 1.391 . S
C421 C420 1.386 . S
C421 C425 1.393 . S
C422 H414 0.950 . S
C422 C420 1.391 . S
C422 C423 1.400 . S
C423 C422 1.400 . S
C423 C424 1.398 . S
C423 C429 1.491 1_455 S
C424 H415 0.950 . S
C424 C423 1.398 . S
C424 C425 1.391 . S
C425 H413 0.950 . S
C425 C421 1.393 . S
C425 C424 1.391 . S
C426 H416 0.950 . S
C426 C427 1.386 . S
C426 C428 1.391 . S
C427 C426 1.386 . S
C427 C431 1.393 . S
C428 H417 0.950 . S
C428 C426 1.391 . S
C428 C429 1.400 . S
C429 C423 1.491 1_655 S
C429 C428 1.400 . S
C429 C430 1.398 . S
C430 H418 0.950 . S
C430 C429 1.398 . S
C430 C431 1.391 . S
C431 H419 0.950 . S
C431 C427 1.393 . S
C431 C430 1.391 . S
C121 C11 1.826 . S
C127 C33 1.842 . S
C141 C47 1.846 . S
C147 C25 1.832 . S
C161 C89 1.846 . S
C167 C67 1.833 . S
C181 C81 1.834 . S
C187 C103 1.847 . S
C201 C23 1.253 . S
C207 C42 1.247 . S
C221 C9 1.243 . S
C227 C28 1.225 . S
C241 C98 1.232 . S
C247 C79 1.250 . S
C261 C65 1.245 . S
C267 C84 1.226 . S
C281 C70 1.503 . S
C287 C51 1.518 . S
C301 C37 1.518 . S
C307 C56 1.513 . S
C321 C14 1.502 . S
C327 C107 1.516 . S
C341 C0 1.506 . S
C347 C93 1.521 . S
C361 C5 1.541 . S
C367 C19 1.533 . S
C381 C39 1.575 . S
C387 C53 1.586 . S
C401 C75 1.541 . S
C407 C61 1.533 . S
C421 C95 1.576 . S
C427 C109 1.586 . S
