# Generated by pormake.
# Topology umm, (4)-cn, num edge types: 1
# Building blocks:
#     Node 0, Type 0, BuildingBlock: CEKHIL_clean_sbu_0, # of connection points: 4
#     Node 1, Type 0, BuildingBlock: CEKHIL_clean_sbu_0, # of connection points: 4
#     Node 2, Type 0, BuildingBlock: CEKHIL_clean_sbu_0, # of connection points: 4
#     Node 3, Type 0, BuildingBlock: CEKHIL_clean_sbu_0, # of connection points: 4
#     Node 4, Type 0, BuildingBlock: CEKHIL_clean_sbu_0, # of connection points: 4
#     Node 5, Type 0, BuildingBlock: CEKHIL_clean_sbu_0, # of connection points: 4
#     Node 6, Type 0, BuildingBlock: CEKHIL_clean_sbu_0, # of connection points: 4
#     Node 7, Type 0, BuildingBlock: CEKHIL_clean_sbu_0, # of connection points: 4
#     Node 8, Type 0, BuildingBlock: CEKHIL_clean_sbu_0, # of connection points: 4
#     Node 9, Type 0, BuildingBlock: CEKHIL_clean_sbu_0, # of connection points: 4
#     Node 10, Type 0, BuildingBlock: CEKHIL_clean_sbu_0, # of connection points: 4
#     Node 11, Type 0, BuildingBlock: CEKHIL_clean_sbu_0, # of connection points: 4
#     Edge 12, Type (0, 0), BuildingBlock: UVAHIK_clean_linker_0, # of connection points: 2
#     Edge 13, Type (0, 0), BuildingBlock: UVAHIK_clean_linker_0, # of connection points: 2
#     Edge 14, Type (0, 0), BuildingBlock: UVAHIK_clean_linker_0, # of connection points: 2
#     Edge 15, Type (0, 0), BuildingBlock: UVAHIK_clean_linker_0, # of connection points: 2
#     Edge 16, Type (0, 0), BuildingBlock: UVAHIK_clean_linker_0, # of connection points: 2
#     Edge 17, Type (0, 0), BuildingBlock: UVAHIK_clean_linker_0, # of connection points: 2
#     Edge 18, Type (0, 0), BuildingBlock: UVAHIK_clean_linker_0, # of connection points: 2
#     Edge 19, Type (0, 0), BuildingBlock: UVAHIK_clean_linker_0, # of connection points: 2
#     Edge 20, Type (0, 0), BuildingBlock: UVAHIK_clean_linker_0, # of connection points: 2
#     Edge 21, Type (0, 0), BuildingBlock: UVAHIK_clean_linker_0, # of connection points: 2
#     Edge 22, Type (0, 0), BuildingBlock: UVAHIK_clean_linker_0, # of connection points: 2
#     Edge 23, Type (0, 0), BuildingBlock: UVAHIK_clean_linker_0, # of connection points: 2
#     Edge 24, Type (0, 0), BuildingBlock: UVAHIK_clean_linker_0, # of connection points: 2
#     Edge 25, Type (0, 0), BuildingBlock: UVAHIK_clean_linker_0, # of connection points: 2
#     Edge 26, Type (0, 0), BuildingBlock: UVAHIK_clean_linker_0, # of connection points: 2
#     Edge 27, Type (0, 0), BuildingBlock: UVAHIK_clean_linker_0, # of connection points: 2
#     Edge 28, Type (0, 0), BuildingBlock: UVAHIK_clean_linker_0, # of connection points: 2
#     Edge 29, Type (0, 0), BuildingBlock: UVAHIK_clean_linker_0, # of connection points: 2
#     Edge 30, Type (0, 0), BuildingBlock: UVAHIK_clean_linker_0, # of connection points: 2
#     Edge 31, Type (0, 0), BuildingBlock: UVAHIK_clean_linker_0, # of connection points: 2
#     Edge 32, Type (0, 0), BuildingBlock: UVAHIK_clean_linker_0, # of connection points: 2
#     Edge 33, Type (0, 0), BuildingBlock: UVAHIK_clean_linker_0, # of connection points: 2
#     Edge 34, Type (0, 0), BuildingBlock: UVAHIK_clean_linker_0, # of connection points: 2
#     Edge 35, Type (0, 0), BuildingBlock: UVAHIK_clean_linker_0, # of connection points: 2
# Relax obj value: 0.137
# Max RMSD: 0.385
# Mean RMSD: 0.252
data_MOF--net-umm--node1-CEKHIL_clean_sbu_0--edge1-UVAHIK_clean_linker_0
_symmetry_space_group_name_H-M    P1
_symmetry_Int_Tables_number       1
_symmetry_cell_setting            triclinic
loop_
_symmetry_equiv_pos_as_xyz
'x, y, z'
_cell_length_a     67.332479
_cell_length_b     73.299326
_cell_length_c     35.291943
_cell_angle_alpha  90.007447
_cell_angle_beta   89.977116
_cell_angle_gamma 117.37157
loop_
_atom_site_label
_atom_site_type_symbol
_atom_site_fract_x
_atom_site_fract_y
_atom_site_fract_z
_atom_type_partial_charge
Co0 Co 0.43056 0.59454 0.07314 0.0
O1 O 0.40809 0.60367 0.07612 0.0
O2 O 0.40273 0.57367 0.05272 0.0
C3 C 0.44451 0.60317 0.13178 0.0
O4 O 0.44968 0.57977 0.06686 0.0
Co5 Co 0.48062 0.62673 0.07715 0.0
O6 O 0.48532 0.60203 0.08105 0.0
C7 C 0.45565 0.62302 0.00722 0.0
C8 C 0.39472 0.58642 0.06 0.0
C9 C 0.47021 0.58399 0.07312 0.0
O10 O 0.43906 0.60725 0.0214 0.0
O11 O 0.47365 0.63393 0.02558 0.0
O12 O 0.42621 0.58629 0.12593 0.0
O13 O 0.45196 0.61549 0.10307 0.0
Co14 Co 0.8741 0.36303 0.40756 0.0
O15 O 0.8507 0.33552 0.4136 0.0
O16 O 0.87836 0.3448 0.37212 0.0
C17 C 0.88046 0.37001 0.46951 0.0
O18 O 0.90158 0.39044 0.39523 0.0
Co19 Co 0.86542 0.39878 0.43705 0.0
O20 O 0.89827 0.41446 0.43089 0.0
C21 C 0.84471 0.37842 0.36609 0.0
C22 C 0.85986 0.33038 0.3861 0.0
C23 C 0.90951 0.40872 0.4093 0.0
O24 O 0.85573 0.36809 0.36823 0.0
O25 O 0.84535 0.39116 0.39142 0.0
O26 O 0.88948 0.35995 0.45231 0.0
O27 O 0.86636 0.37343 0.44982 0.0
Co28 Co 0.48056 0.86056 0.7459 0.0
O29 O 0.4805 0.83442 0.74772 0.0
O30 O 0.50657 0.86186 0.71926 0.0
C31 C 0.47231 0.8615 0.80746 0.0
O32 O 0.48579 0.89029 0.73994 0.0
Co33 Co 0.43597 0.86215 0.76339 0.0
O34 O 0.45675 0.89187 0.76899 0.0
C35 C 0.44178 0.84625 0.68979 0.0
C36 C 0.49875 0.84249 0.72797 0.0
C37 C 0.4761 0.90045 0.75382 0.0
O38 O 0.4625 0.8521 0.69765 0.0
O39 O 0.42799 0.84748 0.7134 0.0
O40 O 0.49288 0.86711 0.7973 0.0
O41 O 0.4576 0.8537 0.78099 0.0
Co42 Co 0.57813 0.41382 0.0747 0.0
O43 O 0.60065 0.4047 0.07639 0.0
O44 O 0.60572 0.43475 0.05367 0.0
C45 C 0.5648 0.40501 0.13364 0.0
O46 O 0.55893 0.42858 0.06967 0.0
Co47 Co 0.52806 0.38174 0.08023 0.0
O48 O 0.52369 0.40653 0.08644 0.0
C49 C 0.55218 0.38555 0.00916 0.0
C50 C 0.61382 0.422 0.06021 0.0
C51 C 0.53864 0.42452 0.07773 0.0
O52 O 0.56904 0.4012 0.02303 0.0
O53 O 0.53434 0.37472 0.02801 0.0
O54 O 0.58304 0.42192 0.12757 0.0
O55 O 0.55706 0.3928 0.10487 0.0
Co56 Co 0.13266 0.64811 0.41122 0.0
O57 O 0.15525 0.67587 0.41818 0.0
O58 O 0.12705 0.66638 0.37777 0.0
C59 C 0.1272 0.64005 0.47295 0.0
O60 O 0.10577 0.62029 0.39857 0.0
Co61 Co 0.14392 0.61327 0.43711 0.0
O62 O 0.11107 0.5968 0.43253 0.0
C63 C 0.16284 0.63487 0.36621 0.0
C64 C 0.14532 0.68099 0.392 0.0
C65 C 0.09884 0.60202 0.41231 0.0
O66 O 0.15115 0.6445 0.37006 0.0
O67 O 0.16323 0.62214 0.39061 0.0
O68 O 0.11735 0.6498 0.4573 0.0
O69 O 0.14155 0.63765 0.45203 0.0
Co70 Co 0.52797 0.15344 0.74287 0.0
O71 O 0.528 0.17957 0.74584 0.0
O72 O 0.50169 0.15226 0.71752 0.0
C73 C 0.53656 0.15191 0.80403 0.0
O74 O 0.52257 0.12371 0.73604 0.0
Co75 Co 0.57268 0.15164 0.75813 0.0
O76 O 0.55195 0.1219 0.76328 0.0
C77 C 0.56621 0.16799 0.68557 0.0
C78 C 0.50939 0.1715 0.72707 0.0
C79 C 0.5324 0.11344 0.74889 0.0
O80 O 0.54557 0.16209 0.69415 0.0
O81 O 0.58023 0.16669 0.70851 0.0
O82 O 0.51602 0.14667 0.79434 0.0
O83 O 0.5512 0.15991 0.77744 0.0
Co84 Co 0.51494 0.64695 0.57046 0.0
O85 O 0.51777 0.67381 0.56186 0.0
O86 O 0.53716 0.66668 0.60476 0.0
C87 C 0.51497 0.63899 0.50902 0.0
O88 O 0.51635 0.62044 0.58522 0.0
Co89 Co 0.47155 0.60961 0.54237 0.0
O90 O 0.49003 0.5953 0.5498 0.0
C91 C 0.47024 0.62992 0.61305 0.0
C92 C 0.53244 0.68026 0.5888 0.0
C93 C 0.50686 0.60195 0.57188 0.0
O94 O 0.49131 0.64172 0.60963 0.0
O95 O 0.45865 0.61623 0.58867 0.0
O96 O 0.53376 0.64987 0.52651 0.0
O97 O 0.49707 0.63522 0.52802 0.0
Co98 Co 0.83966 0.41238 0.91248 0.0
O99 O 0.80822 0.40365 0.90744 0.0
O100 O 0.83244 0.43288 0.93397 0.0
C101 C 0.8459 0.40505 0.85346 0.0
O102 O 0.87337 0.42676 0.92114 0.0
Co103 Co 0.85766 0.38042 0.90659 0.0
O104 O 0.88712 0.40519 0.90423 0.0
C105 C 0.83464 0.38219 0.97593 0.0
C106 C 0.81186 0.42057 0.92459 0.0
C107 C 0.88986 0.42291 0.9142 0.0
O108 O 0.83405 0.39827 0.96292 0.0
O109 O 0.84236 0.3719 0.95716 0.0
O110 O 0.84487 0.42199 0.86058 0.0
O111 O 0.84047 0.39204 0.88115 0.0
Co112 Co 0.37756 0.85642 0.24044 0.0
O113 O 0.34938 0.83211 0.23688 0.0
O114 O 0.35449 0.8604 0.26707 0.0
C115 C 0.38723 0.85746 0.1792 0.0
O116 O 0.40453 0.88479 0.24775 0.0
Co117 Co 0.42113 0.85288 0.22437 0.0
O118 O 0.43358 0.88309 0.21914 0.0
C119 C 0.39857 0.83899 0.29781 0.0
C120 C 0.3409 0.84166 0.2568 0.0
C121 C 0.42459 0.89334 0.23411 0.0
O122 O 0.38473 0.84584 0.28859 0.0
O123 O 0.41356 0.83918 0.27525 0.0
O124 O 0.37377 0.86481 0.18947 0.0
O125 O 0.39215 0.84784 0.20521 0.0
Co126 Co 0.49112 0.36391 0.57177 0.0
O127 O 0.48722 0.33657 0.56533 0.0
O128 O 0.46836 0.34524 0.60673 0.0
C129 C 0.49161 0.37089 0.50978 0.0
O130 O 0.4911 0.39135 0.58408 0.0
Co131 Co 0.53571 0.39938 0.54232 0.0
O132 O 0.51806 0.41467 0.54681 0.0
C133 C 0.5357 0.37981 0.61447 0.0
C134 C 0.47256 0.33099 0.59226 0.0
C135 C 0.50128 0.40937 0.56879 0.0
O136 O 0.51444 0.36897 0.61142 0.0
O137 O 0.54789 0.39266 0.58934 0.0
O138 O 0.47263 0.36086 0.52727 0.0
O139 O 0.50923 0.37428 0.52923 0.0
Co140 Co 0.1671 0.59458 0.91505 0.0
O141 O 0.19857 0.60348 0.90975 0.0
O142 O 0.17475 0.57471 0.93816 0.0
C143 C 0.16032 0.60058 0.85543 0.0
O144 O 0.13344 0.58011 0.92431 0.0
Co145 Co 0.14874 0.62621 0.90626 0.0
O146 O 0.11935 0.60134 0.90663 0.0
C147 C 0.17235 0.62614 0.97595 0.0
C148 C 0.19522 0.58696 0.92808 0.0
C149 C 0.11684 0.58382 0.91752 0.0
O150 O 0.17291 0.60977 0.96447 0.0
O151 O 0.16449 0.63594 0.9561 0.0
O152 O 0.16164 0.5839 0.86377 0.0
O153 O 0.16585 0.61411 0.88219 0.0
Co154 Co 0.62598 0.14731 0.23774 0.0
O155 O 0.65195 0.17344 0.23158 0.0
O156 O 0.65161 0.14705 0.26263 0.0
C157 C 0.61416 0.14402 0.17734 0.0
O158 O 0.60225 0.11767 0.2478 0.0
Co159 Co 0.57877 0.14452 0.22533 0.0
O160 O 0.56879 0.1146 0.22892 0.0
C161 C 0.60337 0.16295 0.29535 0.0
C162 C 0.66285 0.16595 0.25099 0.0
C163 C 0.58115 0.10694 0.24108 0.0
O164 O 0.61815 0.15721 0.28616 0.0
O165 O 0.58725 0.16077 0.27352 0.0
O166 O 0.62992 0.13927 0.18647 0.0
O167 O 0.60803 0.15253 0.20373 0.0
C168 C 0.44726 0.59313 0.19812 0.0
C169 C 0.45691 0.60671 0.16774 0.0
C170 C 0.4588 0.59596 0.23214 0.0
C171 C 0.50337 0.63568 0.28906 0.0
H172 H 0.49362 0.58847 0.35075 0.0
C173 C 0.53233 0.64361 0.44487 0.0
C174 C 0.51405 0.63285 0.4691 0.0
C175 C 0.53037 0.63948 0.40598 0.0
C176 C 0.49667 0.60178 0.33367 0.0
H177 H 0.48637 0.63379 0.14884 0.0
H178 H 0.50676 0.6387 0.20847 0.0
H179 H 0.48119 0.58346 0.28489 0.0
H180 H 0.48 0.6085 0.47238 0.0
H181 H 0.47673 0.60096 0.40469 0.0
H182 H 0.51847 0.65391 0.33829 0.0
C183 C 0.49012 0.62596 0.20606 0.0
C184 C 0.48944 0.59895 0.29608 0.0
C185 C 0.47846 0.62317 0.17193 0.0
C186 C 0.49428 0.61709 0.45426 0.0
C187 C 0.49248 0.61269 0.4156 0.0
C188 C 0.51085 0.63852 0.32657 0.0
C189 C 0.48038 0.61239 0.23659 0.0
C190 C 0.49184 0.61578 0.27384 0.0
C191 C 0.51028 0.6242 0.39097 0.0
C192 C 0.50677 0.62153 0.34958 0.0
H193 H 0.43065 0.58033 0.19581 0.0
H194 H 0.45052 0.58549 0.25527 0.0
H195 H 0.50541 0.64897 0.27286 0.0
H196 H 0.54778 0.65584 0.45566 0.0
H197 H 0.54432 0.64851 0.38751 0.0
C198 C 0.88883 0.36378 0.53593 0.0
C199 C 0.88439 0.37584 0.50966 0.0
C200 C 0.88819 0.36722 0.57486 0.0
C201 C 0.86043 0.38823 0.63768 0.0
H202 H 0.89764 0.38404 0.71761 0.0
C203 C 0.85695 0.41537 0.78668 0.0
C204 C 0.85327 0.40136 0.81621 0.0
C205 C 0.8629 0.41176 0.75077 0.0
C206 C 0.88706 0.38505 0.69545 0.0
H207 H 0.87819 0.40214 0.50284 0.0
H208 H 0.87805 0.40871 0.57025 0.0
H209 H 0.90561 0.37964 0.65112 0.0
H210 H 0.85387 0.373 0.83186 0.0
H211 H 0.86443 0.36667 0.76838 0.0
H212 H 0.84209 0.3939 0.68144 0.0
C213 C 0.88104 0.39606 0.56118 0.0
C214 C 0.89161 0.38257 0.65755 0.0
C215 C 0.88126 0.3924 0.52256 0.0
C216 C 0.85644 0.38396 0.80946 0.0
C217 C 0.86261 0.38041 0.77335 0.0
C218 C 0.85603 0.39083 0.6752 0.0
C219 C 0.88338 0.38292 0.58778 0.0
C220 C 0.87856 0.38457 0.62827 0.0
C221 C 0.86543 0.39411 0.74359 0.0
C222 C 0.86951 0.38965 0.70437 0.0
H223 H 0.89132 0.35091 0.52651 0.0
H224 H 0.89013 0.35688 0.5947 0.0
H225 H 0.84957 0.38915 0.61594 0.0
H226 H 0.85482 0.429 0.79105 0.0
H227 H 0.86525 0.42266 0.72834 0.0
C228 C 0.48234 0.87662 0.87272 0.0
C229 C 0.46604 0.86498 0.84583 0.0
C230 C 0.47597 0.87976 0.90894 0.0
C231 C 0.45795 0.87207 0.98966 0.0
H232 H 0.40251 0.87535 0.00322 0.0
C233 C 0.41025 0.85126 0.13058 0.0
C234 C 0.39801 0.86152 0.14164 0.0
C235 C 0.42063 0.85501 0.09521 0.0
C236 C 0.41823 0.87481 0.0001 0.0
H237 H 0.43041 0.84753 0.83559 0.0
H238 H 0.41937 0.85242 0.89865 0.0
H239 H 0.41727 0.87696 0.93982 0.0
H240 H 0.38746 0.88418 0.12488 0.0
H241 H 0.40601 0.8911 0.06322 0.0
H242 H 0.4591 0.87028 0.05001 0.0
C243 C 0.43702 0.85963 0.89179 0.0
C244 C 0.42654 0.87543 0.96362 0.0
C245 C 0.44336 0.85665 0.85567 0.0
C246 C 0.3966 0.87587 0.11687 0.0
C247 C 0.4072 0.8798 0.08154 0.0
C248 C 0.44975 0.87167 0.02619 0.0
C249 C 0.45321 0.87122 0.91894 0.0
C250 C 0.44613 0.87343 0.95787 0.0
C251 C 0.41924 0.86931 0.07018 0.0
C252 C 0.42944 0.87241 0.0318 0.0
H253 H 0.49996 0.88336 0.86575 0.0
H254 H 0.48887 0.88893 0.92903 0.0
H255 H 0.47305 0.87046 0.98636 0.0
H256 H 0.41159 0.84008 0.14908 0.0
H257 H 0.42933 0.8463 0.08721 0.0
C258 C 0.53075 0.38531 0.17367 0.0
C259 C 0.55247 0.40154 0.16965 0.0
C260 C 0.51898 0.38272 0.20759 0.0
C261 C 0.5196 0.41019 0.29687 0.0
H262 H 0.48907 0.35537 0.33942 0.0
C263 C 0.51314 0.3922 0.45505 0.0
C264 C 0.493 0.37688 0.46971 0.0
C265 C 0.5153 0.39652 0.41637 0.0
C266 C 0.49711 0.37072 0.32757 0.0
H267 H 0.57894 0.42768 0.19787 0.0
H268 H 0.55884 0.42285 0.25709 0.0
H269 H 0.50279 0.35993 0.2744 0.0
H270 H 0.45903 0.35458 0.45595 0.0
H271 H 0.46313 0.36171 0.3877 0.0
H272 H 0.51518 0.42099 0.35108 0.0
C273 C 0.55054 0.41242 0.23392 0.0
C274 C 0.50497 0.37335 0.29031 0.0
C275 C 0.5622 0.41506 0.20007 0.0
C276 C 0.47475 0.36647 0.44527 0.0
C277 C 0.47708 0.3705 0.40634 0.0
C278 C 0.51198 0.40756 0.33422 0.0
C279 C 0.52876 0.39628 0.23811 0.0
C280 C 0.51703 0.39318 0.27502 0.0
C281 C 0.4975 0.38534 0.39155 0.0
C282 C 0.50134 0.38786 0.35025 0.0
H283 H 0.52278 0.37472 0.15056 0.0
H284 H 0.50218 0.3702 0.20982 0.0
H285 H 0.52827 0.42563 0.28559 0.0
H286 H 0.5274 0.40052 0.47333 0.0
H287 H 0.5313 0.4079 0.40561 0.0
C288 C 0.1269 0.6163 0.52314 0.0
C289 C 0.12329 0.63293 0.51246 0.0
C290 C 0.12641 0.61111 0.56116 0.0
C291 C 0.11359 0.62139 0.65916 0.0
H292 H 0.16185 0.60828 0.68288 0.0
C293 C 0.14889 0.62054 0.81043 0.0
C294 C 0.15236 0.6034 0.81807 0.0
C295 C 0.14223 0.62338 0.77426 0.0
C296 C 0.14818 0.61175 0.67667 0.0
H297 H 0.11505 0.65654 0.53259 0.0
H298 H 0.11527 0.64813 0.59971 0.0
H299 H 0.15531 0.61424 0.61764 0.0
H300 H 0.15076 0.57541 0.7945 0.0
H301 H 0.13948 0.58053 0.73152 0.0
H302 H 0.10719 0.61948 0.71911 0.0
C303 C 0.11796 0.63876 0.57863 0.0
C304 C 0.14431 0.61504 0.63923 0.0
C305 C 0.11792 0.64364 0.54027 0.0
C306 C 0.14841 0.58886 0.78939 0.0
C307 C 0.14196 0.59178 0.75334 0.0
C308 C 0.11768 0.61829 0.69696 0.0
C309 C 0.12299 0.62287 0.5895 0.0
C310 C 0.12678 0.6196 0.62984 0.0
C311 C 0.13919 0.60921 0.74526 0.0
C312 C 0.13486 0.61319 0.70586 0.0
H313 H 0.13072 0.60758 0.50219 0.0
H314 H 0.12954 0.59831 0.56842 0.0
H315 H 0.09996 0.62487 0.65289 0.0
H316 H 0.15164 0.63189 0.83215 0.0
H317 H 0.14027 0.63699 0.76859 0.0
C318 C 0.61538 0.13829 0.10769 0.0
C319 C 0.60386 0.14009 0.13945 0.0
C320 C 0.60636 0.1366 0.07137 0.0
C321 C 0.56503 0.14788 0.02043 0.0
H322 H 0.57628 0.11889 0.93797 0.0
C323 C 0.52699 0.14164 0.87178 0.0
C324 C 0.54259 0.14771 0.84205 0.0
C325 C 0.53301 0.1383 0.90804 0.0
C326 C 0.57304 0.12703 0.96082 0.0
H327 H 0.57331 0.14012 0.15864 0.0
H328 H 0.55711 0.13618 0.09585 0.0
H329 H 0.58902 0.11671 0.00188 0.0
H330 H 0.57648 0.15449 0.8266 0.0
H331 H 0.58686 0.14841 0.88983 0.0
H332 H 0.54888 0.15801 0.97937 0.0
C333 C 0.57351 0.13699 0.09847 0.0
C334 C 0.58042 0.12589 -0.00263 0.0
C335 C 0.58272 0.1391 0.13457 0.0
C336 C 0.56412 0.14988 0.84898 0.0
C337 C 0.57002 0.14627 0.88508 0.0
C338 C 0.5574 0.14876 0.98409 0.0
C339 C 0.58547 0.1363 0.06626 0.0
C340 C 0.57668 0.13647 0.02761 0.0
C341 C 0.55462 0.1407 0.91504 0.0
C342 C 0.56152 0.13853 0.95389 0.0
H343 H 0.63175 0.13905 0.11075 0.0
H344 H 0.61618 0.13631 0.0473 0.0
H345 H 0.56229 0.15665 0.04265 0.0
H346 H 0.51026 0.13978 0.8672 0.0
H347 H 0.5208 0.13391 0.93066 0.0
C348 C 0.35595 0.56272 0.03714 0.0
C349 C 0.3722 0.58253 0.04752 0.0
C350 C 0.33517 0.55964 0.02307 0.0
C351 C 0.31028 0.5838 0.96704 0.0
H352 H 0.25462 0.55608 0.02279 0.0
C353 C 0.23614 0.59875 0.93394 0.0
C354 C 0.21419 0.58307 0.93847 0.0
C355 C 0.25429 0.59576 0.94493 0.0
C356 C 0.26988 0.56348 0.00638 0.0
H357 H 0.37948 0.61455 0.05146 0.0
H358 H 0.34354 0.60917 0.02594 0.0
H359 H 0.28845 0.55553 0.04695 0.0
H360 H 0.194 0.55178 0.95761 0.0
H361 H 0.2259 0.54627 0.97594 0.0
H362 H 0.29213 0.59176 0.92636 0.0
C363 C 0.34678 0.59608 0.02922 0.0
C364 C 0.2892 0.5632 0.02035 0.0
C365 C 0.36726 0.59909 0.04394 0.0
C366 C 0.21076 0.56416 0.95384 0.0
C367 C 0.22903 0.56106 0.96452 0.0
C368 C 0.29098 0.5838 0.95276 0.0
C369 C 0.33067 0.57639 0.01846 0.0
C370 C 0.30962 0.57385 0.00125 0.0
C371 C 0.25104 0.57688 0.96029 0.0
C372 C 0.27068 0.57425 0.97287 0.0
H373 H 0.35935 0.5497 0.03962 0.0
H374 H 0.32289 0.54434 0.01483 0.0
H375 H 0.32589 0.59199 0.9518 0.0
H376 H 0.23935 0.61359 0.92258 0.0
H377 H 0.2709 0.60851 0.94215 0.0
C378 C 0.83334 0.29318 0.39121 0.0
C379 C 0.84745 0.30992 0.36858 0.0
C380 C 0.81718 0.27512 0.37468 0.0
C381 C 0.78078 0.26043 0.29341 0.0
H382 H 0.76262 0.20445 0.32592 0.0
C383 C 0.70008 0.19477 0.23514 0.0
C384 C 0.68671 0.17895 0.26006 0.0
C385 C 0.72195 0.20873 0.2449 0.0
C386 C 0.76729 0.21999 0.31676 0.0
H387 H 0.85651 0.32061 0.31094 0.0
H388 H 0.82791 0.28905 0.28185 0.0
H389 H 0.79773 0.23226 0.34906 0.0
H390 H 0.68584 0.16495 0.3144 0.0
H391 H 0.72376 0.18992 0.33252 0.0
H392 H 0.75001 0.24876 0.26313 0.0
C393 C 0.82956 0.28986 0.31241 0.0
C394 C 0.78753 0.23589 0.32979 0.0
C395 C 0.84606 0.30782 0.329 0.0
C396 C 0.69588 0.17694 0.29455 0.0
C397 C 0.71768 0.19125 0.3048 0.0
C398 C 0.76044 0.24466 0.28089 0.0
C399 C 0.8145 0.27359 0.33516 0.0
C400 C 0.79441 0.25629 0.3184 0.0
C401 C 0.73089 0.20763 0.28038 0.0
C402 C 0.75326 0.22419 0.2925 0.0
H403 H 0.83398 0.29448 0.42183 0.0
H404 H 0.80575 0.26293 0.39295 0.0
H405 H 0.78536 0.27606 0.28481 0.0
H406 H 0.6935 0.19652 0.20812 0.0
H407 H 0.7317 0.22062 0.22471 0.0
C408 C 0.5301 0.83777 0.6974 0.0
C409 C 0.50888 0.82946 0.71461 0.0
C410 C 0.53864 0.82475 0.68375 0.0
C411 C 0.52113 0.77691 0.63869 0.0
H412 H 0.56786 0.7675 0.6851 0.0
C413 C 0.54228 0.7167 0.57633 0.0
C414 C 0.54107 0.70166 0.60216 0.0
C415 C 0.54459 0.73558 0.58907 0.0
C416 C 0.5549 0.77009 0.67173 0.0
H417 H 0.48017 0.80103 0.73129 0.0
H418 H 0.49482 0.77863 0.70671 0.0
H419 H 0.55979 0.79492 0.70945 0.0
H420 H 0.54303 0.69508 0.66144 0.0
H421 H 0.54684 0.72824 0.68403 0.0
H422 H 0.5155 0.75192 0.60185 0.0
C423 C 0.50493 0.79512 0.70429 0.0
C424 C 0.55044 0.78583 0.68544 0.0
C425 C 0.49659 0.808 0.71831 0.0
C426 C 0.54411 0.7065 0.64093 0.0
C427 C 0.54625 0.72546 0.65381 0.0
C428 C 0.52572 0.76145 0.62476 0.0
C429 C 0.52591 0.80332 0.68671 0.0
C430 C 0.53326 0.78908 0.66933 0.0
C431 C 0.54548 0.7398 0.62803 0.0
C432 C 0.54243 0.75762 0.64139 0.0
H433 H 0.53995 0.85424 0.6942 0.0
H434 H 0.55484 0.83134 0.67 0.0
H435 H 0.50762 0.77901 0.62618 0.0
H436 H 0.54016 0.71342 0.54624 0.0
H437 H 0.54443 0.74646 0.56846 0.0
C438 C 0.64114 0.40944 0.04242 0.0
C439 C 0.63623 0.42598 0.04689 0.0
C440 C 0.66151 0.41256 0.02699 0.0
C441 C 0.71899 0.44547 0.0175 0.0
H442 H 0.71553 0.41728 0.92281 0.0
C443 C 0.79682 0.44386 0.94983 0.0
C444 C 0.7931 0.42484 0.93461 0.0
C445 C 0.77874 0.44725 0.96052 0.0
C446 C 0.71683 0.42515 0.94938 0.0
H447 H 0.649 0.45885 0.03984 0.0
H448 H 0.68528 0.46439 0.0138 0.0
H449 H 0.68195 0.41713 0.94902 0.0
H450 H 0.76759 0.39444 0.91884 0.0
H451 H 0.73637 0.40004 0.93836 0.0
H452 H 0.75352 0.45237 0.01934 0.0
C453 C 0.67306 0.44903 0.02188 0.0
C454 C 0.69764 0.4252 0.96411 0.0
C455 C 0.65239 0.44585 0.03666 0.0
C456 C 0.77104 0.40936 0.9301 0.0
C457 C 0.75307 0.41264 0.94107 0.0
C458 C 0.7382 0.44514 0.00307 0.0
C459 C 0.67753 0.43231 0.01641 0.0
C460 C 0.69849 0.43497 -0.00138 0.0
C461 C 0.75663 0.43162 0.95642 0.0
C462 C 0.73719 0.43448 0.96931 0.0
H463 H 0.62898 0.39394 0.0498 0.0
H464 H 0.66473 0.39949 0.02306 0.0
H465 H 0.71989 0.45299 0.04433 0.0
H466 H 0.81367 0.45609 0.95358 0.0
H467 H 0.78209 0.4621 0.97194 0.0
C468 C 0.16102 0.70496 0.33734 0.0
C469 C 0.15664 0.70196 0.37631 0.0
C470 C 0.17747 0.72389 0.32377 0.0
C471 C 0.22891 0.76815 0.35965 0.0
H472 H 0.23243 0.78805 0.25692 0.0
C473 C 0.30953 0.83584 0.30183 0.0
C474 C 0.31708 0.8309 0.26814 0.0
C475 C 0.28765 0.82345 0.31471 0.0
C476 C 0.23163 0.78273 0.28579 0.0
H477 H 0.16443 0.71662 0.43128 0.0
H478 H 0.19192 0.74995 0.4076 0.0
H479 H 0.19726 0.7604 0.28014 0.0
H480 H 0.30738 0.80993 0.22044 0.0
H481 H 0.26932 0.78867 0.24243 0.0
H482 H 0.26334 0.79027 0.36504 0.0
C483 C 0.18352 0.73762 0.38747 0.0
C484 C 0.2115 0.76679 0.29907 0.0
C485 C 0.1675 0.71861 0.40105 0.0
C486 C 0.30205 0.81408 0.2466 0.0
C487 C 0.28017 0.80197 0.25907 0.0
C488 C 0.2489 0.78421 0.34652 0.0
C489 C 0.1896 0.74024 0.34893 0.0
C490 C 0.20999 0.75894 0.33595 0.0
C491 C 0.27286 0.80617 0.29372 0.0
C492 C 0.25066 0.79136 0.30917 0.0
H493 H 0.15319 0.6922 0.31781 0.0
H494 H 0.1817 0.72513 0.29397 0.0
H495 H 0.22874 0.76235 0.38792 0.0
H496 H 0.3208 0.84865 0.31907 0.0
H497 H 0.28244 0.8271 0.34148 0.0
C498 C 0.47709 0.17571 0.6994 0.0
C499 C 0.49817 0.18415 0.71699 0.0
C500 C 0.46711 0.18826 0.69001 0.0
C501 C 0.47236 0.24081 0.70826 0.0
H502 H 0.44399 0.23347 0.61015 0.0
C503 C 0.45645 0.30529 0.64534 0.0
C504 C 0.46356 0.30988 0.60756 0.0
C505 C 0.45302 0.28653 0.66144 0.0
C506 C 0.45188 0.23579 0.63768 0.0
H507 H 0.52529 0.21238 0.73835 0.0
H508 H 0.50848 0.23406 0.72118 0.0
H509 H 0.45406 0.20763 0.63362 0.0
H510 H 0.47078 0.29781 0.55619 0.0
H511 H 0.46532 0.26574 0.58392 0.0
H512 H 0.47192 0.26971 0.71106 0.0
C513 C 0.49915 0.21776 0.71553 0.0
C514 C 0.4574 0.22077 0.6514 0.0
C515 C 0.50896 0.20528 0.72506 0.0
C516 C 0.46543 0.29479 0.58549 0.0
C517 C 0.46208 0.27621 0.60144 0.0
C518 C 0.46715 0.25595 0.69432 0.0
C519 C 0.47807 0.2095 0.69792 0.0
C520 C 0.46853 0.22347 0.68624 0.0
C521 C 0.45663 0.27206 0.64001 0.0
C522 C 0.45762 0.25405 0.65816 0.0
H523 H 0.46832 0.15946 0.69291 0.0
H524 H 0.45082 0.18131 0.67665 0.0
H525 H 0.48029 0.24316 0.73576 0.0
H526 H 0.4549 0.31664 0.66304 0.0
H527 H 0.44842 0.28375 0.69107 0.0
C528 C 0.46082 0.54661 0.07318 0.0
C529 C 0.47685 0.56736 0.07131 0.0
C530 C 0.46747 0.53111 0.07322 0.0
C531 C 0.51694 0.52277 0.09173 0.0
H532 H 0.48255 0.47168 0.03788 0.0
C533 C 0.54787 0.4617 0.06995 0.0
C534 C 0.53201 0.44119 0.07649 0.0
C535 C 0.54132 0.47725 0.06895 0.0
C536 C 0.49223 0.48583 0.05326 0.0
H537 H 0.51239 0.58808 0.06683 0.0
H538 H 0.52385 0.56117 0.06591 0.0
H539 H 0.47047 0.49835 0.03654 0.0
H540 H 0.49679 0.42104 0.08728 0.0
H541 H 0.48554 0.4481 0.08549 0.0
H542 H 0.53881 0.51026 0.10809 0.0
C543 C 0.5062 0.55681 0.06843 0.0
C544 C 0.48528 0.50108 0.05261 0.0
C545 C 0.49959 0.57226 0.06873 0.0
C546 C 0.50949 0.43663 0.08202 0.0
C547 C 0.50297 0.45212 0.0808 0.0
C548 C 0.52397 0.50757 0.09216 0.0
C549 C 0.49027 0.53606 0.07107 0.0
C550 C 0.49754 0.51974 0.07186 0.0
C551 C 0.51878 0.47258 0.07421 0.0
C552 C 0.51166 0.48893 0.07301 0.0
H553 H 0.44318 0.54234 0.07543 0.0
H554 H 0.45477 0.51529 0.07572 0.0
H555 H 0.52657 0.5368 0.10746 0.0
H556 H 0.56534 0.46576 0.06563 0.0
H557 H 0.55384 0.4929 0.06356 0.0
C558 C 0.94677 0.4348 0.4304 0.0
C559 C 0.93237 0.42449 0.40032 0.0
C560 C 0.96611 0.45318 0.4242 0.0
C561 C 0.98793 0.49798 0.36132 0.0
H562 H 0.04113 0.51347 0.42235 0.0
C563 C 0.06875 0.57915 0.36727 0.0
C564 C 0.07612 0.58552 0.40449 0.0
C565 C 0.05051 0.55973 0.36065 0.0
C566 C 0.02638 0.50938 0.40508 0.0
H567 H 0.92704 0.42491 0.33996 0.0
H568 H 0.96121 0.45729 0.32881 0.0
H569 H 0.01283 0.47768 0.42017 0.0
H570 H 0.06927 0.57761 0.4638 0.0
H571 H 0.03746 0.54418 0.45239 0.0
H572 H 1.00169 0.53003 0.34679 0.0
C573 C 0.95752 0.45105 0.35723 0.0
C574 C 0.01016 0.48886 0.40381 0.0
C575 C 0.93818 0.43239 0.36346 0.0
C576 C 0.0639 0.57305 0.43485 0.0
C577 C 0.04585 0.55383 0.4283 0.0
C578 C 0.00436 0.51862 0.36238 0.0
C579 C 0.97142 0.4619 0.38776 0.0
C580 C 0.99035 0.48297 0.38302 0.0
C581 C 0.03961 0.54654 0.3912 0.0
C582 C 0.02337 0.52458 0.38537 0.0
H583 H 0.9424 0.42919 0.45916 0.0
H584 H 0.97617 0.46117 0.4485 0.0
H585 H 0.97282 0.49399 0.34516 0.0
H586 H 0.07813 0.58838 0.34339 0.0
H587 H 0.04596 0.55448 0.33176 0.0
C588 C 0.52037 0.07965 0.77967 0.0
C589 C 0.52132 0.09084 0.74689 0.0
C590 C 0.51384 0.05864 0.77758 0.0
C591 C 0.51593 0.02043 0.71511 0.0
H592 H 0.47473 0.98155 0.78718 0.0
C593 C 0.49223 0.93304 0.71612 0.0
C594 C 0.48681 0.92303 0.75134 0.0
C595 C 0.49709 0.95379 0.71334 0.0
C596 C 0.48659 0.99223 0.7672 0.0
H597 H 0.51599 0.08901 0.68626 0.0
H598 H 0.50488 0.052 0.68236 0.0
H599 H 0.47969 0.01656 0.78577 0.0
H600 H 0.48375 0.92693 0.81143 0.0
H601 H 0.4935 0.96322 0.80714 0.0
H602 H 0.52348 0.99631 0.69744 0.0
C603 C 0.50892 0.05953 0.70973 0.0
C604 C 0.48921 0.01225 0.76617 0.0
C605 C 0.51501 0.08057 0.71198 0.0
C606 C 0.48785 0.93436 0.78395 0.0
C607 C 0.49309 0.95507 0.78132 0.0
C608 C 0.51352 1.00039 0.71644 0.0
C609 C 0.50861 0.04846 0.7425 0.0
C610 C 0.50409 0.02665 0.74047 0.0
C611 C 0.49682 0.96488 0.74583 0.0
C612 C 0.49907 0.9861 0.74298 0.0
H613 H 0.52542 0.08733 0.80682 0.0
H614 H 0.51392 0.05056 0.80324 0.0
H615 H 0.5277 0.0313 0.69525 0.0
H616 H 0.4912 0.92449 0.69052 0.0
H617 H 0.49984 0.96075 0.68552 0.0
C618 C 0.52046 0.5771 0.55406 0.0
C619 C 0.51455 0.58687 0.58283 0.0
C620 C 0.52133 0.55876 0.5612 0.0
C621 C 0.49481 0.51324 0.62203 0.0
H622 H 0.53425 0.49759 0.56635 0.0
C623 C 0.49413 0.43168 0.61528 0.0
C624 C 0.49498 0.42571 0.57768 0.0
C625 C 0.49549 0.45108 0.62292 0.0
C626 C 0.52316 0.50176 0.58224 0.0
H627 H 0.50554 0.5856 0.64195 0.0
H628 H 0.50727 0.55338 0.65484 0.0
H629 H 0.54252 0.53359 0.56899 0.0
H630 H 0.49584 0.4343 0.51878 0.0
H631 H 0.49793 0.46775 0.53202 0.0
H632 H 0.47532 0.48105 0.63466 0.0
C633 C 0.5113 0.55998 0.6267 0.0
C634 C 0.52787 0.52238 0.58371 0.0
C635 C 0.51066 0.57856 0.61955 0.0
C636 C 0.49516 0.43854 0.548 0.0
C637 C 0.49656 0.45775 0.55556 0.0
C638 C 0.49021 0.4925 0.62086 0.0
C639 C 0.51599 0.54955 0.59726 0.0
C640 C 0.51333 0.52833 0.60239 0.0
C641 C 0.4978 0.46461 0.593 0.0
C642 C 0.50395 0.48655 0.59977 0.0
H643 H 0.52302 0.583 0.52534 0.0
H644 H 0.52468 0.55111 0.53764 0.0
H645 H 0.48317 0.51724 0.6365 0.0
H646 H 0.49433 0.42219 0.63865 0.0
H647 H 0.49635 0.45604 0.65204 0.0
C648 C 0.08919 0.54643 0.92221 0.0
C649 C 0.09372 0.56716 0.92184 0.0
C650 C 0.06711 0.53081 0.92367 0.0
C651 C 0.00918 0.52161 0.90412 0.0
H652 H 0.99284 0.47148 0.96102 0.0
C653 C 0.91737 0.46005 0.92382 0.0
C654 C 0.91307 0.4396 0.9178 0.0
C655 C 0.93936 0.47575 0.92607 0.0
C656 C 0.9972 0.48536 0.94484 0.0
H657 H 0.07867 0.58773 0.92435 0.0
H658 H 0.04041 0.56062 0.9279 0.0
H659 H 0.03147 0.49854 0.96213 0.0
H660 H 0.92862 0.41964 0.90987 0.0
H661 H 0.96681 0.44697 0.9138 0.0
H662 H 0.97487 0.50844 0.88701 0.0
C663 C 0.05379 0.55635 0.92591 0.0
C664 C 0.01933 0.50084 0.94537 0.0
C665 C 0.07577 0.57192 0.92411 0.0
C666 C 0.93126 0.4352 0.91454 0.0
C667 C 0.95319 0.45084 0.91702 0.0
C668 C 0.98704 0.50621 0.9038 0.0
C669 C 0.04914 0.53561 0.92512 0.0
C670 C 0.0256 0.51914 0.92495 0.0
C671 C 0.95748 0.47128 0.92262 0.0
C672 C 0.98084 0.4879 0.92404 0.0
H673 H 0.10265 0.54227 0.92028 0.0
H674 H 0.06413 0.51499 0.92262 0.0
H675 H 0.01348 0.53532 0.88745 0.0
H676 H 0.90377 0.46399 0.92644 0.0
H677 H 0.9422 0.49137 0.9307 0.0
C678 C 0.4547 0.92566 0.20755 0.0
C679 C 0.43846 0.91592 0.23573 0.0
C680 C 0.46961 0.94652 0.21003 0.0
C681 C 0.49708 0.9882 0.27852 0.0
H682 H 0.51373 0.02234 0.18847 0.0
C683 C 0.55578 0.07637 0.27842 0.0
C684 C 0.57008 0.08462 0.24724 0.0
C685 C 0.54069 0.05541 0.27971 0.0
C686 C 0.50954 0.01295 0.21379 0.0
H687 H 0.42478 0.92056 0.28827 0.0
H688 H 0.45121 0.95737 0.29287 0.0
H689 H 0.48372 0.98729 0.18514 0.0
H690 H 0.58041 0.07769 0.19344 0.0
H691 H 0.55429 0.04094 0.19573 0.0
H692 H 0.52306 0.01397 0.3071 0.0
C693 C 0.4523 0.94867 0.26885 0.0
C694 C 0.49221 0.99289 0.21193 0.0
C695 C 0.43706 0.9277 0.26607 0.0
C696 C 0.56982 0.07153 0.21812 0.0
C697 C 0.55464 0.05059 0.21923 0.0
C698 C 0.51448 0.00835 0.2804 0.0
C699 C 0.46887 0.95825 0.24095 0.0
C700 C 0.48593 0.98017 0.24412 0.0
C701 C 0.53939 0.0424 0.24946 0.0
C702 C 0.52108 0.02089 0.24791 0.0
H703 H 0.45612 0.91704 0.18367 0.0
H704 H 0.48224 0.95332 0.18823 0.0
H705 H 0.49282 0.97872 0.30372 0.0
H706 H 0.55543 0.08635 0.30079 0.0
H707 H 0.52913 0.04968 0.30327 0.0
C708 C 0.46599 0.65059 0.66526 0.0
C709 C 0.45981 0.63131 0.64879 0.0
C710 C 0.46025 0.65206 0.70273 0.0
C711 C 0.42965 0.62053 0.78757 0.0
H712 H 0.47888 0.66418 0.84092 0.0
C713 C 0.47316 0.63763 0.94463 0.0
C714 C 0.45395 0.62807 0.96724 0.0
C715 C 0.47129 0.64047 0.90591 0.0
C716 C 0.46503 0.65178 0.82659 0.0
H717 H 0.44186 0.59846 0.65745 0.0
H718 H 0.43284 0.60084 0.72339 0.0
H719 H 0.47888 0.66371 0.77252 0.0
H720 H 0.41779 0.61502 0.96765 0.0
H721 H 0.41455 0.62085 0.90052 0.0
H722 H 0.41688 0.60763 0.84185 0.0
C723 C 0.4414 0.61494 0.70738 0.0
C724 C 0.46476 0.65172 0.78707 0.0
C725 C 0.44661 0.6135 0.66951 0.0
C726 C 0.43289 0.62223 0.95075 0.0
C727 C 0.43104 0.62545 0.91219 0.0
C728 C 0.43017 0.62035 0.82716 0.0
C729 C 0.4489 0.63427 0.72496 0.0
C730 C 0.44733 0.63583 0.76691 0.0
C731 C 0.45018 0.63421 0.88903 0.0
C732 C 0.44817 0.63571 0.8472 0.0
H733 H 0.47607 0.66456 0.6496 0.0
H734 H 0.46565 0.6672 0.7147 0.0
H735 H 0.41566 0.60828 0.77322 0.0
H736 H 0.48959 0.64212 0.95651 0.0
H737 H 0.48642 0.64689 0.88907 0.0
C738 C 0.8189 0.35633 0.31639 0.0
C739 C 0.83191 0.37603 0.33124 0.0
C740 C 0.81061 0.35388 0.27954 0.0
C741 C 0.80851 0.3832 0.19347 0.0
H742 H 0.81572 0.33994 0.14182 0.0
C743 C 0.83684 0.36692 0.03807 0.0
C744 C 0.82694 0.37611 0.01517 0.0
C745 C 0.83154 0.36363 0.07654 0.0
C746 C 0.81376 0.3522 0.15568 0.0
H747 H 0.84557 0.40862 0.32062 0.0
H748 H 0.83232 0.40457 0.25553 0.0
H749 H 0.81679 0.34135 0.21017 0.0
H750 H 0.80263 0.38777 0.01366 0.0
H751 H 0.79253 0.38112 0.08031 0.0
H752 H 0.80766 0.39516 0.13874 0.0
C753 C 0.82765 0.39087 0.27239 0.0
C754 C 0.8139 0.35279 0.19517 0.0
C755 C 0.83537 0.39328 0.30972 0.0
C756 C 0.81073 0.38089 0.03088 0.0
C757 C 0.80506 0.3772 0.06915 0.0
C758 C 0.80887 0.38287 0.15391 0.0
C759 C 0.81591 0.37112 0.25631 0.0
C760 C 0.81191 0.36864 0.21466 0.0
C761 C 0.81585 0.36906 0.09277 0.0
C762 C 0.81216 0.36769 0.1345 0.0
H763 H 0.81594 0.34281 0.33278 0.0
H764 H 0.80099 0.33844 0.26873 0.0
H765 H 0.80638 0.39536 0.20736 0.0
H766 H 0.84953 0.36325 0.02673 0.0
H767 H 0.84055 0.35769 0.09379 0.0
C768 C 0.41135 0.8329 0.64092 0.0
C769 C 0.43367 0.83869 0.65102 0.0
C770 C 0.40416 0.82756 0.60361 0.0
C771 C 0.41872 0.8133 0.5108 0.0
H772 H 0.38744 0.8422 0.47066 0.0
C773 C 0.41662 0.83016 0.35198 0.0
C774 C 0.39821 0.83199 0.33729 0.0
C775 C 0.41765 0.82623 0.39045 0.0
C776 C 0.39569 0.83359 0.4814 0.0
H777 H 0.46561 0.84233 0.62999 0.0
H778 H 0.45304 0.83322 0.56478 0.0
H779 H 0.39536 0.84382 0.53795 0.0
H780 H 0.36566 0.82956 0.35099 0.0
H781 H 0.36721 0.82218 0.41791 0.0
H782 H 0.41939 0.80338 0.45396 0.0
C783 C 0.4411 0.8327 0.58587 0.0
C784 C 0.40029 0.83458 0.52008 0.0
C785 C 0.44834 0.83808 0.62322 0.0
C786 C 0.38024 0.82855 0.36149 0.0
C787 C 0.38118 0.82441 0.39991 0.0
C788 C 0.41398 0.81219 0.47204 0.0
C789 C 0.41907 0.82784 0.57551 0.0
C790 C 0.41223 0.82479 0.53511 0.0
C791 C 0.4002 0.82383 0.41509 0.0
C792 C 0.40281 0.82269 0.45675 0.0
H793 H 0.3995 0.83297 0.6616 0.0
H794 H 0.38699 0.82359 0.59658 0.0
H795 H 0.4277 0.80539 0.52169 0.0
H796 H 0.43077 0.83272 0.33417 0.0
H797 H 0.43267 0.82612 0.40112 0.0
C798 C 0.55945 0.3958 0.67098 0.0
C799 C 0.5458 0.37812 0.65031 0.0
C800 C 0.56456 0.39418 0.70882 0.0
C801 C 0.54053 0.35752 0.78859 0.0
H802 H 0.58964 0.40064 0.84292 0.0
C803 C 0.57417 0.38592 0.95191 0.0
C804 C 0.55336 0.38054 0.96899 0.0
C805 C 0.57558 0.38275 0.91319 0.0
C806 C 0.57599 0.38818 0.82834 0.0
H807 H 0.52852 0.34489 0.65114 0.0
H808 H 0.53875 0.34187 0.71616 0.0
H809 H 0.59038 0.40009 0.77425 0.0
H810 H 0.51769 0.3674 0.9592 0.0
H811 H 0.52012 0.36275 0.89149 0.0
H812 H 0.52652 0.34518 0.84256 0.0
C813 C 0.54461 0.35708 0.7042 0.0
C814 C 0.57625 0.38808 0.78874 0.0
C815 C 0.53897 0.35875 0.66679 0.0
C816 C 0.53393 0.37151 0.94683 0.0
C817 C 0.53537 0.36873 0.90796 0.0
C818 C 0.54051 0.35738 0.82811 0.0
C819 C 0.55649 0.37478 0.72638 0.0
C820 C 0.55817 0.37313 0.76827 0.0
C821 C 0.55625 0.37453 0.89049 0.0
C822 C 0.55784 0.37309 0.84857 0.0
H823 H 0.56469 0.41091 0.65887 0.0
H824 H 0.57355 0.40822 0.72481 0.0
H825 H 0.5261 0.34583 0.77419 0.0
H826 H 0.58943 0.39272 0.96847 0.0
H827 H 0.59189 0.38697 0.90106 0.0
C828 C 0.1698 0.64237 0.03664 0.0
C829 C 0.18015 0.6332 0.01476 0.0
C830 C 0.17527 0.64671 0.07485 0.0
C831 C 0.2001 0.63083 0.15424 0.0
H832 H 0.18826 0.67112 0.20696 0.0
C833 C 0.17348 0.62097 0.30983 0.0
C834 C 0.17515 0.63792 0.3305 0.0
C835 C 0.18116 0.62346 0.27248 0.0
C836 C 0.19225 0.66007 0.19301 0.0
H837 H 0.2054 0.62265 0.01465 0.0
H838 H 0.2159 0.63127 0.08077 0.0
H839 H 0.1897 0.67155 0.13868 0.0
H840 H 0.1879 0.67094 0.33031 0.0
H841 H 0.20288 0.67563 0.26623 0.0
H842 H 0.20359 0.6199 0.20864 0.0
C843 C 0.20285 0.63432 0.06912 0.0
C844 C 0.19259 0.66006 0.1535 0.0
C845 C 0.19696 0.62951 0.03113 0.0
C846 C 0.18627 0.65761 0.31459 0.0
C847 C 0.19459 0.66022 0.2777 0.0
C848 C 0.20037 0.63119 0.19381 0.0
C849 C 0.19163 0.64243 0.09184 0.0
C850 C 0.19548 0.64486 0.13354 0.0
C851 C 0.19118 0.64307 0.25544 0.0
C852 C 0.19545 0.64523 0.21379 0.0
H853 H 0.15664 0.64521 0.02477 0.0
H854 H 0.16586 0.65254 0.09133 0.0
H855 H 0.20238 0.61881 0.14014 0.0
H856 H 0.16478 0.60561 0.32153 0.0
H857 H 0.17787 0.60979 0.25644 0.0
C858 C 0.55854 0.17455 0.61861 0.0
C859 C 0.57385 0.17543 0.64657 0.0
C860 C 0.56534 0.17931 0.58091 0.0
C861 C 0.60676 0.17765 0.51637 0.0
H862 H 0.58338 0.20342 0.44558 0.0
C863 C 0.62301 0.17679 0.35711 0.0
C864 C 0.60414 0.17123 0.33389 0.0
C865 C 0.62277 0.18263 0.39475 0.0
C866 C 0.59001 0.19614 0.46499 0.0
H867 H 0.60869 0.18347 0.65711 0.0
H868 H 0.62046 0.19183 0.59149 0.0
H869 H 0.57632 0.20409 0.51337 0.0
H870 H 0.5706 0.16835 0.3316 0.0
H871 H 0.56994 0.17788 0.39723 0.0
H872 H 0.61956 0.16882 0.46833 0.0
C873 C 0.60313 0.18708 0.59865 0.0
C874 C 0.58599 0.19656 0.50378 0.0
C875 C 0.59636 0.18232 0.63629 0.0
C876 C 0.58543 0.17253 0.34865 0.0
C877 C 0.58512 0.17816 0.38633 0.0
C878 C 0.61065 0.17711 0.47768 0.0
C879 C 0.58758 0.18507 0.57039 0.0
C880 C 0.59396 0.18696 0.5298 0.0
C881 C 0.60358 0.18283 0.41011 0.0
C882 C 0.60193 0.18595 0.45141 0.0
H883 H 0.5411 0.16941 0.6255 0.0
H884 H 0.55291 0.17747 0.55974 0.0
H885 H 0.61285 0.16983 0.5356 0.0
H886 H 0.63782 0.17624 0.34648 0.0
H887 H 0.63745 0.18653 0.41205 0.0
loop_
_geom_bond_atom_site_label_1
_geom_bond_atom_site_label_2
_geom_bond_distance
_geom_bond_site_symmetry_2
_ccdc_geom_bond_type
Co0 O1 2.216 . S
Co0 O2 2.091 . S
Co0 O4 2.004 . S
Co0 O10 2.021 . S
Co0 O12 2.137 . S
Co0 O13 2.244 . S
O1 Co0 2.216 . S
O1 C8 1.247 . S
O2 Co0 2.091 . S
O2 C8 1.261 . S
C3 O12 1.247 . S
C3 O13 1.272 . S
O4 Co0 2.004 . S
O4 C9 1.259 . S
Co5 O6 2.061 . S
Co5 O11 2.052 . S
Co5 O13 2.135 . S
O6 Co5 2.061 . S
O6 C9 1.235 . S
C7 O10 1.238 1_556 S
C7 O11 1.241 1_556 S
C8 O1 1.247 . S
C8 O2 1.261 . S
C9 O4 1.259 . S
C9 O6 1.235 . S
O10 Co0 2.021 . S
O10 C7 1.238 1_554 S
O11 Co5 2.052 . S
O11 C7 1.241 1_554 S
O12 Co0 2.137 . S
O12 C3 1.247 . S
O13 Co0 2.244 . S
O13 C3 1.272 . S
O13 Co5 2.135 . S
Co14 O15 2.216 . S
Co14 O16 2.091 . S
Co14 O18 2.004 . S
Co14 O24 2.021 . S
Co14 O26 2.137 . S
Co14 O27 2.244 . S
O15 Co14 2.216 . S
O15 C22 1.247 . S
O16 Co14 2.091 . S
O16 C22 1.261 . S
C17 O26 1.247 . S
C17 O27 1.272 . S
O18 Co14 2.004 . S
O18 C23 1.259 . S
Co19 O20 2.061 . S
Co19 O25 2.052 . S
Co19 O27 2.135 . S
O20 Co19 2.061 . S
O20 C23 1.235 . S
C21 O24 1.238 . S
C21 O25 1.241 . S
C22 O15 1.247 . S
C22 O16 1.261 . S
C23 O18 1.259 . S
C23 O20 1.235 . S
O24 Co14 2.021 . S
O24 C21 1.238 . S
O25 Co19 2.052 . S
O25 C21 1.241 . S
O26 Co14 2.137 . S
O26 C17 1.247 . S
O27 Co14 2.244 . S
O27 C17 1.272 . S
O27 Co19 2.135 . S
Co28 O29 2.216 . S
Co28 O30 2.091 . S
Co28 O32 2.004 . S
Co28 O38 2.021 . S
Co28 O40 2.137 . S
Co28 O41 2.244 . S
O29 Co28 2.216 . S
O29 C36 1.247 . S
O30 Co28 2.091 . S
O30 C36 1.261 . S
C31 O40 1.247 . S
C31 O41 1.272 . S
O32 Co28 2.004 . S
O32 C37 1.259 . S
Co33 O34 2.061 . S
Co33 O39 2.052 . S
Co33 O41 2.135 . S
O34 Co33 2.061 . S
O34 C37 1.235 . S
C35 O38 1.238 . S
C35 O39 1.241 . S
C36 O29 1.247 . S
C36 O30 1.261 . S
C37 O32 1.259 . S
C37 O34 1.235 . S
O38 Co28 2.021 . S
O38 C35 1.238 . S
O39 Co33 2.052 . S
O39 C35 1.241 . S
O40 Co28 2.137 . S
O40 C31 1.247 . S
O41 Co28 2.244 . S
O41 C31 1.272 . S
O41 Co33 2.135 . S
Co42 O43 2.216 . S
Co42 O44 2.091 . S
Co42 O46 2.004 . S
Co42 O52 2.021 . S
Co42 O54 2.137 . S
Co42 O55 2.244 . S
O43 Co42 2.216 . S
O43 C50 1.247 . S
O44 Co42 2.091 . S
O44 C50 1.261 . S
C45 O54 1.247 . S
C45 O55 1.272 . S
O46 Co42 2.004 . S
O46 C51 1.259 . S
Co47 O48 2.061 . S
Co47 O53 2.052 . S
Co47 O55 2.135 . S
O48 Co47 2.061 . S
O48 C51 1.235 . S
C49 O52 1.238 1_556 S
C49 O53 1.241 1_556 S
C50 O43 1.247 . S
C50 O44 1.261 . S
C51 O46 1.259 . S
C51 O48 1.235 . S
O52 Co42 2.021 . S
O52 C49 1.238 1_554 S
O53 Co47 2.052 . S
O53 C49 1.241 1_554 S
O54 Co42 2.137 . S
O54 C45 1.247 . S
O55 Co42 2.244 . S
O55 C45 1.272 . S
O55 Co47 2.135 . S
Co56 O57 2.216 . S
Co56 O58 2.091 . S
Co56 O60 2.004 . S
Co56 O66 2.021 . S
Co56 O68 2.137 . S
Co56 O69 2.244 . S
O57 Co56 2.216 . S
O57 C64 1.247 . S
O58 Co56 2.091 . S
O58 C64 1.261 . S
C59 O68 1.247 . S
C59 O69 1.272 . S
O60 Co56 2.004 . S
O60 C65 1.259 . S
Co61 O62 2.061 . S
Co61 O67 2.052 . S
Co61 O69 2.135 . S
O62 Co61 2.061 . S
O62 C65 1.235 . S
C63 O66 1.238 . S
C63 O67 1.241 . S
C64 O57 1.247 . S
C64 O58 1.261 . S
C65 O60 1.259 . S
C65 O62 1.235 . S
O66 Co56 2.021 . S
O66 C63 1.238 . S
O67 Co61 2.052 . S
O67 C63 1.241 . S
O68 Co56 2.137 . S
O68 C59 1.247 . S
O69 Co56 2.244 . S
O69 C59 1.272 . S
O69 Co61 2.135 . S
Co70 O71 2.216 . S
Co70 O72 2.091 . S
Co70 O74 2.004 . S
Co70 O80 2.021 . S
Co70 O82 2.137 . S
Co70 O83 2.244 . S
O71 Co70 2.216 . S
O71 C78 1.247 . S
O72 Co70 2.091 . S
O72 C78 1.261 . S
C73 O82 1.247 . S
C73 O83 1.272 . S
O74 Co70 2.004 . S
O74 C79 1.259 . S
Co75 O76 2.061 . S
Co75 O81 2.052 . S
Co75 O83 2.135 . S
O76 Co75 2.061 . S
O76 C79 1.235 . S
C77 O80 1.238 . S
C77 O81 1.241 . S
C78 O71 1.247 . S
C78 O72 1.261 . S
C79 O74 1.259 . S
C79 O76 1.235 . S
O80 Co70 2.021 . S
O80 C77 1.238 . S
O81 Co75 2.052 . S
O81 C77 1.241 . S
O82 Co70 2.137 . S
O82 C73 1.247 . S
O83 Co70 2.244 . S
O83 C73 1.272 . S
O83 Co75 2.135 . S
Co84 O85 2.216 . S
Co84 O86 2.091 . S
Co84 O88 2.004 . S
Co84 O94 2.021 . S
Co84 O96 2.137 . S
Co84 O97 2.244 . S
O85 Co84 2.216 . S
O85 C92 1.247 . S
O86 Co84 2.091 . S
O86 C92 1.261 . S
C87 O96 1.247 . S
C87 O97 1.272 . S
O88 Co84 2.004 . S
O88 C93 1.259 . S
Co89 O90 2.061 . S
Co89 O95 2.052 . S
Co89 O97 2.135 . S
O90 Co89 2.061 . S
O90 C93 1.235 . S
C91 O94 1.238 . S
C91 O95 1.241 . S
C92 O85 1.247 . S
C92 O86 1.261 . S
C93 O88 1.259 . S
C93 O90 1.235 . S
O94 Co84 2.021 . S
O94 C91 1.238 . S
O95 Co89 2.052 . S
O95 C91 1.241 . S
O96 Co84 2.137 . S
O96 C87 1.247 . S
O97 Co84 2.244 . S
O97 C87 1.272 . S
O97 Co89 2.135 . S
Co98 O99 2.216 . S
Co98 O100 2.091 . S
Co98 O102 2.004 . S
Co98 O108 2.021 . S
Co98 O110 2.137 . S
Co98 O111 2.244 . S
O99 Co98 2.216 . S
O99 C106 1.247 . S
O100 Co98 2.091 . S
O100 C106 1.261 . S
C101 O110 1.247 . S
C101 O111 1.272 . S
O102 Co98 2.004 . S
O102 C107 1.259 . S
Co103 O104 2.061 . S
Co103 O109 2.052 . S
Co103 O111 2.135 . S
O104 Co103 2.061 . S
O104 C107 1.235 . S
C105 O108 1.238 1_554 S
C105 O109 1.241 1_554 S
C106 O99 1.247 . S
C106 O100 1.261 . S
C107 O102 1.259 . S
C107 O104 1.235 . S
O108 Co98 2.021 . S
O108 C105 1.238 1_556 S
O109 Co103 2.052 . S
O109 C105 1.241 1_556 S
O110 Co98 2.137 . S
O110 C101 1.247 . S
O111 Co98 2.244 . S
O111 C101 1.272 . S
O111 Co103 2.135 . S
Co112 O113 2.216 . S
Co112 O114 2.091 . S
Co112 O116 2.004 . S
Co112 O122 2.021 . S
Co112 O124 2.137 . S
Co112 O125 2.244 . S
O113 Co112 2.216 . S
O113 C120 1.247 . S
O114 Co112 2.091 . S
O114 C120 1.261 . S
C115 O124 1.247 . S
C115 O125 1.272 . S
O116 Co112 2.004 . S
O116 C121 1.259 . S
Co117 O118 2.061 . S
Co117 O123 2.052 . S
Co117 O125 2.135 . S
O118 Co117 2.061 . S
O118 C121 1.235 . S
C119 O122 1.238 . S
C119 O123 1.241 . S
C120 O113 1.247 . S
C120 O114 1.261 . S
C121 O116 1.259 . S
C121 O118 1.235 . S
O122 Co112 2.021 . S
O122 C119 1.238 . S
O123 Co117 2.052 . S
O123 C119 1.241 . S
O124 Co112 2.137 . S
O124 C115 1.247 . S
O125 Co112 2.244 . S
O125 C115 1.272 . S
O125 Co117 2.135 . S
Co126 O127 2.216 . S
Co126 O128 2.091 . S
Co126 O130 2.004 . S
Co126 O136 2.021 . S
Co126 O138 2.137 . S
Co126 O139 2.244 . S
O127 Co126 2.216 . S
O127 C134 1.247 . S
O128 Co126 2.091 . S
O128 C134 1.261 . S
C129 O138 1.247 . S
C129 O139 1.272 . S
O130 Co126 2.004 . S
O130 C135 1.259 . S
Co131 O132 2.061 . S
Co131 O137 2.052 . S
Co131 O139 2.135 . S
O132 Co131 2.061 . S
O132 C135 1.235 . S
C133 O136 1.238 . S
C133 O137 1.241 . S
C134 O127 1.247 . S
C134 O128 1.261 . S
C135 O130 1.259 . S
C135 O132 1.235 . S
O136 Co126 2.021 . S
O136 C133 1.238 . S
O137 Co131 2.052 . S
O137 C133 1.241 . S
O138 Co126 2.137 . S
O138 C129 1.247 . S
O139 Co126 2.244 . S
O139 C129 1.272 . S
O139 Co131 2.135 . S
Co140 O141 2.216 . S
Co140 O142 2.091 . S
Co140 O144 2.004 . S
Co140 O150 2.021 . S
Co140 O152 2.137 . S
Co140 O153 2.244 . S
O141 Co140 2.216 . S
O141 C148 1.247 . S
O142 Co140 2.091 . S
O142 C148 1.261 . S
C143 O152 1.247 . S
C143 O153 1.272 . S
O144 Co140 2.004 . S
O144 C149 1.259 . S
Co145 O146 2.061 . S
Co145 O151 2.052 . S
Co145 O153 2.135 . S
O146 Co145 2.061 . S
O146 C149 1.235 . S
C147 O150 1.238 1_554 S
C147 O151 1.241 1_554 S
C148 O141 1.247 . S
C148 O142 1.261 . S
C149 O144 1.259 . S
C149 O146 1.235 . S
O150 Co140 2.021 . S
O150 C147 1.238 1_556 S
O151 Co145 2.052 . S
O151 C147 1.241 1_556 S
O152 Co140 2.137 . S
O152 C143 1.247 . S
O153 Co140 2.244 . S
O153 C143 1.272 . S
O153 Co145 2.135 . S
Co154 O155 2.216 . S
Co154 O156 2.091 . S
Co154 O158 2.004 . S
Co154 O164 2.021 . S
Co154 O166 2.137 . S
Co154 O167 2.244 . S
O155 Co154 2.216 . S
O155 C162 1.247 . S
O156 Co154 2.091 . S
O156 C162 1.261 . S
C157 O166 1.247 . S
C157 O167 1.272 . S
O158 Co154 2.004 . S
O158 C163 1.259 . S
Co159 O160 2.061 . S
Co159 O165 2.052 . S
Co159 O167 2.135 . S
O160 Co159 2.061 . S
O160 C163 1.235 . S
C161 O164 1.238 . S
C161 O165 1.241 . S
C162 O155 1.247 . S
C162 O156 1.261 . S
C163 O158 1.259 . S
C163 O160 1.235 . S
O164 Co154 2.021 . S
O164 C161 1.238 . S
O165 Co159 2.052 . S
O165 C161 1.241 . S
O166 Co154 2.137 . S
O166 C157 1.247 . S
O167 Co154 2.244 . S
O167 C157 1.272 . S
O167 Co159 2.135 . S
C168 C169 1.349 . S
C168 C170 1.327 . S
C168 H193 0.950 . S
C169 C168 1.349 . S
C169 C185 1.349 . S
C170 C168 1.327 . S
C170 C189 1.429 . S
C170 H194 0.950 . S
C171 C188 1.574 . S
C171 C190 1.368 . S
C171 H195 0.949 . S
H172 C176 0.949 . S
C173 C174 1.349 . S
C173 C175 1.327 . S
C173 H196 0.950 . S
C174 C173 1.349 . S
C174 C186 1.349 . S
C175 C173 1.327 . S
C175 C191 1.429 . S
C175 H197 0.950 . S
C176 H172 0.949 . S
C176 C184 1.574 . S
C176 C192 1.368 . S
H177 C185 0.950 . S
H178 C183 0.950 . S
H179 C184 0.949 . S
H180 C186 0.950 . S
H181 C187 0.950 . S
H182 C188 0.949 . S
C183 H178 0.950 . S
C183 C185 1.327 . S
C183 C189 1.429 . S
C184 C176 1.574 . S
C184 H179 0.949 . S
C184 C190 1.368 . S
C185 C169 1.349 . S
C185 H177 0.950 . S
C185 C183 1.327 . S
C186 C174 1.349 . S
C186 H180 0.950 . S
C186 C187 1.327 . S
C187 H181 0.950 . S
C187 C186 1.327 . S
C187 C191 1.429 . S
C188 C171 1.574 . S
C188 H182 0.949 . S
C188 C192 1.368 . S
C189 C170 1.429 . S
C189 C183 1.429 . S
C189 C190 1.523 . S
C190 C171 1.368 . S
C190 C184 1.368 . S
C190 C189 1.523 . S
C191 C175 1.429 . S
C191 C187 1.429 . S
C191 C192 1.523 . S
C192 C176 1.368 . S
C192 C188 1.368 . S
C192 C191 1.523 . S
H193 C168 0.950 . S
H194 C170 0.950 . S
H195 C171 0.949 . S
H196 C173 0.950 . S
H197 C175 0.950 . S
C198 C199 1.349 . S
C198 C200 1.327 . S
C198 H223 0.950 . S
C199 C198 1.349 . S
C199 C215 1.349 . S
C200 C198 1.327 . S
C200 C219 1.429 . S
C200 H224 0.950 . S
C201 C218 1.574 . S
C201 C220 1.368 . S
C201 H225 0.949 . S
H202 C206 0.949 . S
C203 C204 1.349 . S
C203 C205 1.327 . S
C203 H226 0.950 . S
C204 C203 1.349 . S
C204 C216 1.349 . S
C205 C203 1.327 . S
C205 C221 1.429 . S
C205 H227 0.950 . S
C206 H202 0.949 . S
C206 C214 1.574 . S
C206 C222 1.368 . S
H207 C215 0.950 . S
H208 C213 0.950 . S
H209 C214 0.949 . S
H210 C216 0.950 . S
H211 C217 0.950 . S
H212 C218 0.949 . S
C213 H208 0.950 . S
C213 C215 1.327 . S
C213 C219 1.429 . S
C214 C206 1.574 . S
C214 H209 0.949 . S
C214 C220 1.368 . S
C215 C199 1.349 . S
C215 H207 0.950 . S
C215 C213 1.327 . S
C216 C204 1.349 . S
C216 H210 0.950 . S
C216 C217 1.327 . S
C217 H211 0.950 . S
C217 C216 1.327 . S
C217 C221 1.429 . S
C218 C201 1.574 . S
C218 H212 0.949 . S
C218 C222 1.368 . S
C219 C200 1.429 . S
C219 C213 1.429 . S
C219 C220 1.523 . S
C220 C201 1.368 . S
C220 C214 1.368 . S
C220 C219 1.523 . S
C221 C205 1.429 . S
C221 C217 1.429 . S
C221 C222 1.523 . S
C222 C206 1.368 . S
C222 C218 1.368 . S
C222 C221 1.523 . S
H223 C198 0.950 . S
H224 C200 0.950 . S
H225 C201 0.949 . S
H226 C203 0.950 . S
H227 C205 0.950 . S
C228 C229 1.349 . S
C228 C230 1.327 . S
C228 H253 0.950 . S
C229 C228 1.349 . S
C229 C245 1.349 . S
C230 C228 1.327 . S
C230 C249 1.429 . S
C230 H254 0.950 . S
C231 C248 1.574 1_556 S
C231 C250 1.368 . S
C231 H255 0.949 . S
H232 C236 0.949 . S
C233 C234 1.349 . S
C233 C235 1.327 . S
C233 H256 0.950 . S
C234 C233 1.349 . S
C234 C246 1.349 . S
C235 C233 1.327 . S
C235 C251 1.429 . S
C235 H257 0.950 . S
C236 H232 0.949 . S
C236 C244 1.574 1_554 S
C236 C252 1.368 . S
H237 C245 0.950 . S
H238 C243 0.950 . S
H239 C244 0.949 . S
H240 C246 0.950 . S
H241 C247 0.950 . S
H242 C248 0.949 . S
C243 H238 0.950 . S
C243 C245 1.327 . S
C243 C249 1.429 . S
C244 C236 1.574 1_556 S
C244 H239 0.949 . S
C244 C250 1.368 . S
C245 C229 1.349 . S
C245 H237 0.950 . S
C245 C243 1.327 . S
C246 C234 1.349 . S
C246 H240 0.950 . S
C246 C247 1.327 . S
C247 H241 0.950 . S
C247 C246 1.327 . S
C247 C251 1.429 . S
C248 C231 1.574 1_554 S
C248 H242 0.949 . S
C248 C252 1.368 . S
C249 C230 1.429 . S
C249 C243 1.429 . S
C249 C250 1.523 . S
C250 C231 1.368 . S
C250 C244 1.368 . S
C250 C249 1.523 . S
C251 C235 1.429 . S
C251 C247 1.429 . S
C251 C252 1.523 . S
C252 C236 1.368 . S
C252 C248 1.368 . S
C252 C251 1.523 . S
H253 C228 0.950 . S
H254 C230 0.950 . S
H255 C231 0.949 . S
H256 C233 0.950 . S
H257 C235 0.950 . S
C258 C259 1.349 . S
C258 C260 1.327 . S
C258 H283 0.950 . S
C259 C258 1.349 . S
C259 C275 1.349 . S
C260 C258 1.327 . S
C260 C279 1.429 . S
C260 H284 0.950 . S
C261 C278 1.574 . S
C261 C280 1.368 . S
C261 H285 0.949 . S
H262 C266 0.949 . S
C263 C264 1.349 . S
C263 C265 1.327 . S
C263 H286 0.950 . S
C264 C263 1.349 . S
C264 C276 1.349 . S
C265 C263 1.327 . S
C265 C281 1.429 . S
C265 H287 0.950 . S
C266 H262 0.949 . S
C266 C274 1.574 . S
C266 C282 1.368 . S
H267 C275 0.950 . S
H268 C273 0.950 . S
H269 C274 0.949 . S
H270 C276 0.950 . S
H271 C277 0.950 . S
H272 C278 0.949 . S
C273 H268 0.950 . S
C273 C275 1.327 . S
C273 C279 1.429 . S
C274 C266 1.574 . S
C274 H269 0.949 . S
C274 C280 1.368 . S
C275 C259 1.349 . S
C275 H267 0.950 . S
C275 C273 1.327 . S
C276 C264 1.349 . S
C276 H270 0.950 . S
C276 C277 1.327 . S
C277 H271 0.950 . S
C277 C276 1.327 . S
C277 C281 1.429 . S
C278 C261 1.574 . S
C278 H272 0.949 . S
C278 C282 1.368 . S
C279 C260 1.429 . S
C279 C273 1.429 . S
C279 C280 1.523 . S
C280 C261 1.368 . S
C280 C274 1.368 . S
C280 C279 1.523 . S
C281 C265 1.429 . S
C281 C277 1.429 . S
C281 C282 1.523 . S
C282 C266 1.368 . S
C282 C278 1.368 . S
C282 C281 1.523 . S
H283 C258 0.950 . S
H284 C260 0.950 . S
H285 C261 0.949 . S
H286 C263 0.950 . S
H287 C265 0.950 . S
C288 C289 1.349 . S
C288 C290 1.327 . S
C288 H313 0.950 . S
C289 C288 1.349 . S
C289 C305 1.349 . S
C290 C288 1.327 . S
C290 C309 1.429 . S
C290 H314 0.950 . S
C291 C308 1.574 . S
C291 C310 1.368 . S
C291 H315 0.949 . S
H292 C296 0.949 . S
C293 C294 1.349 . S
C293 C295 1.327 . S
C293 H316 0.950 . S
C294 C293 1.349 . S
C294 C306 1.349 . S
C295 C293 1.327 . S
C295 C311 1.429 . S
C295 H317 0.950 . S
C296 H292 0.949 . S
C296 C304 1.574 . S
C296 C312 1.368 . S
H297 C305 0.950 . S
H298 C303 0.950 . S
H299 C304 0.949 . S
H300 C306 0.950 . S
H301 C307 0.950 . S
H302 C308 0.949 . S
C303 H298 0.950 . S
C303 C305 1.327 . S
C303 C309 1.429 . S
C304 C296 1.574 . S
C304 H299 0.949 . S
C304 C310 1.368 . S
C305 C289 1.349 . S
C305 H297 0.950 . S
C305 C303 1.327 . S
C306 C294 1.349 . S
C306 H300 0.950 . S
C306 C307 1.327 . S
C307 H301 0.950 . S
C307 C306 1.327 . S
C307 C311 1.429 . S
C308 C291 1.574 . S
C308 H302 0.949 . S
C308 C312 1.368 . S
C309 C290 1.429 . S
C309 C303 1.429 . S
C309 C310 1.523 . S
C310 C291 1.368 . S
C310 C304 1.368 . S
C310 C309 1.523 . S
C311 C295 1.429 . S
C311 C307 1.429 . S
C311 C312 1.523 . S
C312 C296 1.368 . S
C312 C308 1.368 . S
C312 C311 1.523 . S
H313 C288 0.950 . S
H314 C290 0.950 . S
H315 C291 0.949 . S
H316 C293 0.950 . S
H317 C295 0.950 . S
C318 C319 1.349 . S
C318 C320 1.327 . S
C318 H343 0.950 . S
C319 C318 1.349 . S
C319 C335 1.349 . S
C320 C318 1.327 . S
C320 C339 1.429 . S
C320 H344 0.950 . S
C321 C338 1.574 1_554 S
C321 C340 1.368 . S
C321 H345 0.949 . S
H322 C326 0.949 . S
C323 C324 1.349 . S
C323 C325 1.327 . S
C323 H346 0.950 . S
C324 C323 1.349 . S
C324 C336 1.349 . S
C325 C323 1.327 . S
C325 C341 1.429 . S
C325 H347 0.950 . S
C326 H322 0.949 . S
C326 C334 1.574 1_556 S
C326 C342 1.368 . S
H327 C335 0.950 . S
H328 C333 0.950 . S
H329 C334 0.949 . S
H330 C336 0.950 . S
H331 C337 0.950 . S
H332 C338 0.949 . S
C333 H328 0.950 . S
C333 C335 1.327 . S
C333 C339 1.429 . S
C334 C326 1.574 1_554 S
C334 H329 0.949 . S
C334 C340 1.368 . S
C335 C319 1.349 . S
C335 H327 0.950 . S
C335 C333 1.327 . S
C336 C324 1.349 . S
C336 H330 0.950 . S
C336 C337 1.327 . S
C337 H331 0.950 . S
C337 C336 1.327 . S
C337 C341 1.429 . S
C338 C321 1.574 1_556 S
C338 H332 0.949 . S
C338 C342 1.368 . S
C339 C320 1.429 . S
C339 C333 1.429 . S
C339 C340 1.523 . S
C340 C321 1.368 . S
C340 C334 1.368 . S
C340 C339 1.523 . S
C341 C325 1.429 . S
C341 C337 1.429 . S
C341 C342 1.523 . S
C342 C326 1.368 . S
C342 C338 1.368 . S
C342 C341 1.523 . S
H343 C318 0.950 . S
H344 C320 0.950 . S
H345 C321 0.949 . S
H346 C323 0.950 . S
H347 C325 0.950 . S
C348 C349 1.349 . S
C348 C350 1.327 . S
C348 H373 0.950 . S
C349 C348 1.349 . S
C349 C365 1.349 . S
C350 C348 1.327 . S
C350 C369 1.429 . S
C350 H374 0.950 . S
C351 C368 1.574 . S
C351 C370 1.368 1_556 S
C351 H375 0.949 . S
H352 C356 0.949 . S
C353 C354 1.349 . S
C353 C355 1.327 . S
C353 H376 0.950 . S
C354 C353 1.349 . S
C354 C366 1.349 . S
C355 C353 1.327 . S
C355 C371 1.429 . S
C355 H377 0.950 . S
C356 H352 0.949 . S
C356 C364 1.574 . S
C356 C372 1.368 1_554 S
H357 C365 0.950 . S
H358 C363 0.950 1_556 S
H359 C364 0.949 . S
H360 C366 0.950 . S
H361 C367 0.950 1_554 S
H362 C368 0.949 . S
C363 H358 0.950 1_554 S
C363 C365 1.327 . S
C363 C369 1.429 . S
C364 C356 1.574 . S
C364 H359 0.949 . S
C364 C370 1.368 . S
C365 C349 1.349 . S
C365 H357 0.950 . S
C365 C363 1.327 . S
C366 C354 1.349 . S
C366 H360 0.950 . S
C366 C367 1.327 . S
C367 H361 0.950 1_556 S
C367 C366 1.327 . S
C367 C371 1.429 . S
C368 C351 1.574 . S
C368 H362 0.949 . S
C368 C372 1.368 . S
C369 C350 1.429 . S
C369 C363 1.429 . S
C369 C370 1.523 . S
C370 C351 1.368 1_554 S
C370 C364 1.368 . S
C370 C369 1.523 . S
C371 C355 1.429 . S
C371 C367 1.429 . S
C371 C372 1.523 . S
C372 C356 1.368 1_556 S
C372 C368 1.368 . S
C372 C371 1.523 . S
H373 C348 0.950 . S
H374 C350 0.950 . S
H375 C351 0.949 . S
H376 C353 0.950 . S
H377 C355 0.950 . S
C378 C379 1.349 . S
C378 C380 1.327 . S
C378 H403 0.950 . S
C379 C378 1.349 . S
C379 C395 1.349 . S
C380 C378 1.327 . S
C380 C399 1.429 . S
C380 H404 0.950 . S
C381 C398 1.574 . S
C381 C400 1.368 . S
C381 H405 0.949 . S
H382 C386 0.949 . S
C383 C384 1.349 . S
C383 C385 1.327 . S
C383 H406 0.950 . S
C384 C383 1.349 . S
C384 C396 1.349 . S
C385 C383 1.327 . S
C385 C401 1.429 . S
C385 H407 0.950 . S
C386 H382 0.949 . S
C386 C394 1.574 . S
C386 C402 1.368 . S
H387 C395 0.950 . S
H388 C393 0.950 . S
H389 C394 0.949 . S
H390 C396 0.950 . S
H391 C397 0.950 . S
H392 C398 0.949 . S
C393 H388 0.950 . S
C393 C395 1.327 . S
C393 C399 1.429 . S
C394 C386 1.574 . S
C394 H389 0.949 . S
C394 C400 1.368 . S
C395 C379 1.349 . S
C395 H387 0.950 . S
C395 C393 1.327 . S
C396 C384 1.349 . S
C396 H390 0.950 . S
C396 C397 1.327 . S
C397 H391 0.950 . S
C397 C396 1.327 . S
C397 C401 1.429 . S
C398 C381 1.574 . S
C398 H392 0.949 . S
C398 C402 1.368 . S
C399 C380 1.429 . S
C399 C393 1.429 . S
C399 C400 1.523 . S
C400 C381 1.368 . S
C400 C394 1.368 . S
C400 C399 1.523 . S
C401 C385 1.429 . S
C401 C397 1.429 . S
C401 C402 1.523 . S
C402 C386 1.368 . S
C402 C398 1.368 . S
C402 C401 1.523 . S
H403 C378 0.950 . S
H404 C380 0.950 . S
H405 C381 0.949 . S
H406 C383 0.950 . S
H407 C385 0.950 . S
C408 C409 1.349 . S
C408 C410 1.327 . S
C408 H433 0.950 . S
C409 C408 1.349 . S
C409 C425 1.349 . S
C410 C408 1.327 . S
C410 C429 1.429 . S
C410 H434 0.950 . S
C411 C428 1.574 . S
C411 C430 1.368 . S
C411 H435 0.949 . S
H412 C416 0.949 . S
C413 C414 1.349 . S
C413 C415 1.327 . S
C413 H436 0.950 . S
C414 C413 1.349 . S
C414 C426 1.349 . S
C415 C413 1.327 . S
C415 C431 1.429 . S
C415 H437 0.950 . S
C416 H412 0.949 . S
C416 C424 1.574 . S
C416 C432 1.368 . S
H417 C425 0.950 . S
H418 C423 0.950 . S
H419 C424 0.949 . S
H420 C426 0.950 . S
H421 C427 0.950 . S
H422 C428 0.949 . S
C423 H418 0.950 . S
C423 C425 1.327 . S
C423 C429 1.429 . S
C424 C416 1.574 . S
C424 H419 0.949 . S
C424 C430 1.368 . S
C425 C409 1.349 . S
C425 H417 0.950 . S
C425 C423 1.327 . S
C426 C414 1.349 . S
C426 H420 0.950 . S
C426 C427 1.327 . S
C427 H421 0.950 . S
C427 C426 1.327 . S
C427 C431 1.429 . S
C428 C411 1.574 . S
C428 H422 0.949 . S
C428 C432 1.368 . S
C429 C410 1.429 . S
C429 C423 1.429 . S
C429 C430 1.523 . S
C430 C411 1.368 . S
C430 C424 1.368 . S
C430 C429 1.523 . S
C431 C415 1.429 . S
C431 C427 1.429 . S
C431 C432 1.523 . S
C432 C416 1.368 . S
C432 C428 1.368 . S
C432 C431 1.523 . S
H433 C408 0.950 . S
H434 C410 0.950 . S
H435 C411 0.949 . S
H436 C413 0.950 . S
H437 C415 0.950 . S
C438 C439 1.349 . S
C438 C440 1.327 . S
C438 H463 0.950 . S
C439 C438 1.349 . S
C439 C455 1.349 . S
C440 C438 1.327 . S
C440 C459 1.429 . S
C440 H464 0.950 1_554 S
C441 C458 1.574 . S
C441 C460 1.368 . S
C441 H465 0.949 . S
H442 C446 0.949 . S
C443 C444 1.349 . S
C443 C445 1.327 . S
C443 H466 0.950 . S
C444 C443 1.349 . S
C444 C456 1.349 . S
C445 C443 1.327 . S
C445 C461 1.429 . S
C445 H467 0.950 1_556 S
C446 H442 0.949 . S
C446 C454 1.574 . S
C446 C462 1.368 . S
H447 C455 0.950 . S
H448 C453 0.950 . S
H449 C454 0.949 . S
H450 C456 0.950 . S
H451 C457 0.950 . S
H452 C458 0.949 . S
C453 H448 0.950 . S
C453 C455 1.327 . S
C453 C459 1.429 . S
C454 C446 1.574 . S
C454 H449 0.949 . S
C454 C460 1.368 1_556 S
C455 C439 1.349 . S
C455 H447 0.950 . S
C455 C453 1.327 . S
C456 C444 1.349 . S
C456 H450 0.950 . S
C456 C457 1.327 . S
C457 H451 0.950 . S
C457 C456 1.327 . S
C457 C461 1.429 . S
C458 C441 1.574 . S
C458 H452 0.949 . S
C458 C462 1.368 1_554 S
C459 C440 1.429 . S
C459 C453 1.429 . S
C459 C460 1.523 . S
C460 C441 1.368 . S
C460 C454 1.368 1_554 S
C460 C459 1.523 . S
C461 C445 1.429 . S
C461 C457 1.429 . S
C461 C462 1.523 . S
C462 C446 1.368 . S
C462 C458 1.368 1_556 S
C462 C461 1.523 . S
H463 C438 0.950 . S
H464 C440 0.950 1_556 S
H465 C441 0.949 . S
H466 C443 0.950 . S
H467 C445 0.950 1_554 S
C468 C469 1.349 . S
C468 C470 1.327 . S
C468 H493 0.950 . S
C469 C468 1.349 . S
C469 C485 1.349 . S
C470 C468 1.327 . S
C470 C489 1.429 . S
C470 H494 0.950 . S
C471 C488 1.574 . S
C471 C490 1.368 . S
C471 H495 0.949 . S
H472 C476 0.949 . S
C473 C474 1.349 . S
C473 C475 1.327 . S
C473 H496 0.950 . S
C474 C473 1.349 . S
C474 C486 1.349 . S
C475 C473 1.327 . S
C475 C491 1.429 . S
C475 H497 0.950 . S
C476 H472 0.949 . S
C476 C484 1.574 . S
C476 C492 1.368 . S
H477 C485 0.950 . S
H478 C483 0.950 . S
H479 C484 0.949 . S
H480 C486 0.950 . S
H481 C487 0.950 . S
H482 C488 0.949 . S
C483 H478 0.950 . S
C483 C485 1.327 . S
C483 C489 1.429 . S
C484 C476 1.574 . S
C484 H479 0.949 . S
C484 C490 1.368 . S
C485 C469 1.349 . S
C485 H477 0.950 . S
C485 C483 1.327 . S
C486 C474 1.349 . S
C486 H480 0.950 . S
C486 C487 1.327 . S
C487 H481 0.950 . S
C487 C486 1.327 . S
C487 C491 1.429 . S
C488 C471 1.574 . S
C488 H482 0.949 . S
C488 C492 1.368 . S
C489 C470 1.429 . S
C489 C483 1.429 . S
C489 C490 1.523 . S
C490 C471 1.368 . S
C490 C484 1.368 . S
C490 C489 1.523 . S
C491 C475 1.429 . S
C491 C487 1.429 . S
C491 C492 1.523 . S
C492 C476 1.368 . S
C492 C488 1.368 . S
C492 C491 1.523 . S
H493 C468 0.950 . S
H494 C470 0.950 . S
H495 C471 0.949 . S
H496 C473 0.950 . S
H497 C475 0.950 . S
C498 C499 1.349 . S
C498 C500 1.327 . S
C498 H523 0.950 . S
C499 C498 1.349 . S
C499 C515 1.349 . S
C500 C498 1.327 . S
C500 C519 1.429 . S
C500 H524 0.950 . S
C501 C518 1.574 . S
C501 C520 1.368 . S
C501 H525 0.949 . S
H502 C506 0.949 . S
C503 C504 1.349 . S
C503 C505 1.327 . S
C503 H526 0.950 . S
C504 C503 1.349 . S
C504 C516 1.349 . S
C505 C503 1.327 . S
C505 C521 1.429 . S
C505 H527 0.950 . S
C506 H502 0.949 . S
C506 C514 1.574 . S
C506 C522 1.368 . S
H507 C515 0.950 . S
H508 C513 0.950 . S
H509 C514 0.949 . S
H510 C516 0.950 . S
H511 C517 0.950 . S
H512 C518 0.949 . S
C513 H508 0.950 . S
C513 C515 1.327 . S
C513 C519 1.429 . S
C514 C506 1.574 . S
C514 H509 0.949 . S
C514 C520 1.368 . S
C515 C499 1.349 . S
C515 H507 0.950 . S
C515 C513 1.327 . S
C516 C504 1.349 . S
C516 H510 0.950 . S
C516 C517 1.327 . S
C517 H511 0.950 . S
C517 C516 1.327 . S
C517 C521 1.429 . S
C518 C501 1.574 . S
C518 H512 0.949 . S
C518 C522 1.368 . S
C519 C500 1.429 . S
C519 C513 1.429 . S
C519 C520 1.523 . S
C520 C501 1.368 . S
C520 C514 1.368 . S
C520 C519 1.523 . S
C521 C505 1.429 . S
C521 C517 1.429 . S
C521 C522 1.523 . S
C522 C506 1.368 . S
C522 C518 1.368 . S
C522 C521 1.523 . S
H523 C498 0.950 . S
H524 C500 0.950 . S
H525 C501 0.949 . S
H526 C503 0.950 . S
H527 C505 0.950 . S
C528 C529 1.349 . S
C528 C530 1.327 . S
C528 H553 0.950 . S
C529 C528 1.349 . S
C529 C545 1.349 . S
C530 C528 1.327 . S
C530 C549 1.429 . S
C530 H554 0.950 . S
C531 C548 1.574 . S
C531 C550 1.368 . S
C531 H555 0.949 . S
H532 C536 0.949 . S
C533 C534 1.349 . S
C533 C535 1.327 . S
C533 H556 0.950 . S
C534 C533 1.349 . S
C534 C546 1.349 . S
C535 C533 1.327 . S
C535 C551 1.429 . S
C535 H557 0.950 . S
C536 H532 0.949 . S
C536 C544 1.574 . S
C536 C552 1.368 . S
H537 C545 0.950 . S
H538 C543 0.950 . S
H539 C544 0.949 . S
H540 C546 0.950 . S
H541 C547 0.950 . S
H542 C548 0.949 . S
C543 H538 0.950 . S
C543 C545 1.327 . S
C543 C549 1.429 . S
C544 C536 1.574 . S
C544 H539 0.949 . S
C544 C550 1.368 . S
C545 C529 1.349 . S
C545 H537 0.950 . S
C545 C543 1.327 . S
C546 C534 1.349 . S
C546 H540 0.950 . S
C546 C547 1.327 . S
C547 H541 0.950 . S
C547 C546 1.327 . S
C547 C551 1.429 . S
C548 C531 1.574 . S
C548 H542 0.949 . S
C548 C552 1.368 . S
C549 C530 1.429 . S
C549 C543 1.429 . S
C549 C550 1.523 . S
C550 C531 1.368 . S
C550 C544 1.368 . S
C550 C549 1.523 . S
C551 C535 1.429 . S
C551 C547 1.429 . S
C551 C552 1.523 . S
C552 C536 1.368 . S
C552 C548 1.368 . S
C552 C551 1.523 . S
H553 C528 0.950 . S
H554 C530 0.950 . S
H555 C531 0.949 . S
H556 C533 0.950 . S
H557 C535 0.950 . S
C558 C559 1.349 . S
C558 C560 1.327 . S
C558 H583 0.950 . S
C559 C558 1.349 . S
C559 C575 1.349 . S
C560 C558 1.327 . S
C560 C579 1.429 . S
C560 H584 0.950 . S
C561 C578 1.574 . S
C561 C580 1.368 . S
C561 H585 0.949 . S
H562 C566 0.949 . S
C563 C564 1.349 . S
C563 C565 1.327 . S
C563 H586 0.950 . S
C564 C563 1.349 . S
C564 C576 1.349 . S
C565 C563 1.327 . S
C565 C581 1.429 . S
C565 H587 0.950 . S
C566 H562 0.949 . S
C566 C574 1.574 . S
C566 C582 1.368 . S
H567 C575 0.950 . S
H568 C573 0.950 . S
H569 C574 0.949 . S
H570 C576 0.950 . S
H571 C577 0.950 . S
H572 C578 0.949 . S
C573 H568 0.950 . S
C573 C575 1.327 . S
C573 C579 1.429 . S
C574 C566 1.574 . S
C574 H569 0.949 . S
C574 C580 1.368 1_455 S
C575 C559 1.349 . S
C575 H567 0.950 . S
C575 C573 1.327 . S
C576 C564 1.349 . S
C576 H570 0.950 . S
C576 C577 1.327 . S
C577 H571 0.950 . S
C577 C576 1.327 . S
C577 C581 1.429 . S
C578 C561 1.574 . S
C578 H572 0.949 . S
C578 C582 1.368 1_655 S
C579 C560 1.429 . S
C579 C573 1.429 . S
C579 C580 1.523 . S
C580 C561 1.368 . S
C580 C574 1.368 1_655 S
C580 C579 1.523 . S
C581 C565 1.429 . S
C581 C577 1.429 . S
C581 C582 1.523 . S
C582 C566 1.368 . S
C582 C578 1.368 1_455 S
C582 C581 1.523 . S
H583 C558 0.950 . S
H584 C560 0.950 . S
H585 C561 0.949 . S
H586 C563 0.950 . S
H587 C565 0.950 . S
C588 C589 1.349 . S
C588 C590 1.327 . S
C588 H613 0.950 . S
C589 C588 1.349 . S
C589 C605 1.349 . S
C590 C588 1.327 . S
C590 C609 1.429 . S
C590 H614 0.950 . S
C591 C608 1.574 1_545 S
C591 C610 1.368 . S
C591 H615 0.949 . S
H592 C596 0.949 . S
C593 C594 1.349 . S
C593 C595 1.327 . S
C593 H616 0.950 . S
C594 C593 1.349 . S
C594 C606 1.349 . S
C595 C593 1.327 . S
C595 C611 1.429 . S
C595 H617 0.950 . S
C596 H592 0.949 . S
C596 C604 1.574 1_565 S
C596 C612 1.368 . S
H597 C605 0.950 . S
H598 C603 0.950 . S
H599 C604 0.949 . S
H600 C606 0.950 . S
H601 C607 0.950 . S
H602 C608 0.949 . S
C603 H598 0.950 . S
C603 C605 1.327 . S
C603 C609 1.429 . S
C604 C596 1.574 1_545 S
C604 H599 0.949 . S
C604 C610 1.368 . S
C605 C589 1.349 . S
C605 H597 0.950 . S
C605 C603 1.327 . S
C606 C594 1.349 . S
C606 H600 0.950 . S
C606 C607 1.327 . S
C607 H601 0.950 . S
C607 C606 1.327 . S
C607 C611 1.429 . S
C608 C591 1.574 1_565 S
C608 H602 0.949 . S
C608 C612 1.368 . S
C609 C590 1.429 . S
C609 C603 1.429 . S
C609 C610 1.523 . S
C610 C591 1.368 . S
C610 C604 1.368 . S
C610 C609 1.523 . S
C611 C595 1.429 . S
C611 C607 1.429 . S
C611 C612 1.523 . S
C612 C596 1.368 . S
C612 C608 1.368 . S
C612 C611 1.523 . S
H613 C588 0.950 . S
H614 C590 0.950 . S
H615 C591 0.949 . S
H616 C593 0.950 . S
H617 C595 0.950 . S
C618 C619 1.349 . S
C618 C620 1.327 . S
C618 H643 0.950 . S
C619 C618 1.349 . S
C619 C635 1.349 . S
C620 C618 1.327 . S
C620 C639 1.429 . S
C620 H644 0.950 . S
C621 C638 1.574 . S
C621 C640 1.368 . S
C621 H645 0.949 . S
H622 C626 0.949 . S
C623 C624 1.349 . S
C623 C625 1.327 . S
C623 H646 0.950 . S
C624 C623 1.349 . S
C624 C636 1.349 . S
C625 C623 1.327 . S
C625 C641 1.429 . S
C625 H647 0.950 . S
C626 H622 0.949 . S
C626 C634 1.574 . S
C626 C642 1.368 . S
H627 C635 0.950 . S
H628 C633 0.950 . S
H629 C634 0.949 . S
H630 C636 0.950 . S
H631 C637 0.950 . S
H632 C638 0.949 . S
C633 H628 0.950 . S
C633 C635 1.327 . S
C633 C639 1.429 . S
C634 C626 1.574 . S
C634 H629 0.949 . S
C634 C640 1.368 . S
C635 C619 1.349 . S
C635 H627 0.950 . S
C635 C633 1.327 . S
C636 C624 1.349 . S
C636 H630 0.950 . S
C636 C637 1.327 . S
C637 H631 0.950 . S
C637 C636 1.327 . S
C637 C641 1.429 . S
C638 C621 1.574 . S
C638 H632 0.949 . S
C638 C642 1.368 . S
C639 C620 1.429 . S
C639 C633 1.429 . S
C639 C640 1.523 . S
C640 C621 1.368 . S
C640 C634 1.368 . S
C640 C639 1.523 . S
C641 C625 1.429 . S
C641 C637 1.429 . S
C641 C642 1.523 . S
C642 C626 1.368 . S
C642 C638 1.368 . S
C642 C641 1.523 . S
H643 C618 0.950 . S
H644 C620 0.950 . S
H645 C621 0.949 . S
H646 C623 0.950 . S
H647 C625 0.950 . S
C648 C649 1.349 . S
C648 C650 1.327 . S
C648 H673 0.950 . S
C649 C648 1.349 . S
C649 C665 1.349 . S
C650 C648 1.327 . S
C650 C669 1.429 . S
C650 H674 0.950 . S
C651 C668 1.574 1_455 S
C651 C670 1.368 . S
C651 H675 0.949 . S
H652 C656 0.949 . S
C653 C654 1.349 . S
C653 C655 1.327 . S
C653 H676 0.950 . S
C654 C653 1.349 . S
C654 C666 1.349 . S
C655 C653 1.327 . S
C655 C671 1.429 . S
C655 H677 0.950 . S
C656 H652 0.949 . S
C656 C664 1.574 1_655 S
C656 C672 1.368 . S
H657 C665 0.950 . S
H658 C663 0.950 . S
H659 C664 0.949 . S
H660 C666 0.950 . S
H661 C667 0.950 . S
H662 C668 0.949 . S
C663 H658 0.950 . S
C663 C665 1.327 . S
C663 C669 1.429 . S
C664 C656 1.574 1_455 S
C664 H659 0.949 . S
C664 C670 1.368 . S
C665 C649 1.349 . S
C665 H657 0.950 . S
C665 C663 1.327 . S
C666 C654 1.349 . S
C666 H660 0.950 . S
C666 C667 1.327 . S
C667 H661 0.950 . S
C667 C666 1.327 . S
C667 C671 1.429 . S
C668 C651 1.574 1_655 S
C668 H662 0.949 . S
C668 C672 1.368 . S
C669 C650 1.429 . S
C669 C663 1.429 . S
C669 C670 1.523 . S
C670 C651 1.368 . S
C670 C664 1.368 . S
C670 C669 1.523 . S
C671 C655 1.429 . S
C671 C667 1.429 . S
C671 C672 1.523 . S
C672 C656 1.368 . S
C672 C668 1.368 . S
C672 C671 1.523 . S
H673 C648 0.950 . S
H674 C650 0.950 . S
H675 C651 0.949 . S
H676 C653 0.950 . S
H677 C655 0.950 . S
C678 C679 1.349 . S
C678 C680 1.327 . S
C678 H703 0.950 . S
C679 C678 1.349 . S
C679 C695 1.349 . S
C680 C678 1.327 . S
C680 C699 1.429 . S
C680 H704 0.950 . S
C681 C698 1.574 1_565 S
C681 C700 1.368 . S
C681 H705 0.949 . S
H682 C686 0.949 . S
C683 C684 1.349 . S
C683 C685 1.327 . S
C683 H706 0.950 . S
C684 C683 1.349 . S
C684 C696 1.349 . S
C685 C683 1.327 . S
C685 C701 1.429 . S
C685 H707 0.950 . S
C686 H682 0.949 . S
C686 C694 1.574 1_545 S
C686 C702 1.368 . S
H687 C695 0.950 . S
H688 C693 0.950 . S
H689 C694 0.949 . S
H690 C696 0.950 . S
H691 C697 0.950 . S
H692 C698 0.949 . S
C693 H688 0.950 . S
C693 C695 1.327 . S
C693 C699 1.429 . S
C694 C686 1.574 1_565 S
C694 H689 0.949 . S
C694 C700 1.368 . S
C695 C679 1.349 . S
C695 H687 0.950 . S
C695 C693 1.327 . S
C696 C684 1.349 . S
C696 H690 0.950 . S
C696 C697 1.327 . S
C697 H691 0.950 . S
C697 C696 1.327 . S
C697 C701 1.429 . S
C698 C681 1.574 1_545 S
C698 H692 0.949 . S
C698 C702 1.368 . S
C699 C680 1.429 . S
C699 C693 1.429 . S
C699 C700 1.523 . S
C700 C681 1.368 . S
C700 C694 1.368 . S
C700 C699 1.523 . S
C701 C685 1.429 . S
C701 C697 1.429 . S
C701 C702 1.523 . S
C702 C686 1.368 . S
C702 C698 1.368 . S
C702 C701 1.523 . S
H703 C678 0.950 . S
H704 C680 0.950 . S
H705 C681 0.949 . S
H706 C683 0.950 . S
H707 C685 0.950 . S
C708 C709 1.349 . S
C708 C710 1.327 . S
C708 H733 0.950 . S
C709 C708 1.349 . S
C709 C725 1.349 . S
C710 C708 1.327 . S
C710 C729 1.429 . S
C710 H734 0.950 . S
C711 C728 1.574 . S
C711 C730 1.368 . S
C711 H735 0.949 . S
H712 C716 0.949 . S
C713 C714 1.349 . S
C713 C715 1.327 . S
C713 H736 0.950 . S
C714 C713 1.349 . S
C714 C726 1.349 . S
C715 C713 1.327 . S
C715 C731 1.429 . S
C715 H737 0.950 . S
C716 H712 0.949 . S
C716 C724 1.574 . S
C716 C732 1.368 . S
H717 C725 0.950 . S
H718 C723 0.950 . S
H719 C724 0.949 . S
H720 C726 0.950 . S
H721 C727 0.950 . S
H722 C728 0.949 . S
C723 H718 0.950 . S
C723 C725 1.327 . S
C723 C729 1.429 . S
C724 C716 1.574 . S
C724 H719 0.949 . S
C724 C730 1.368 . S
C725 C709 1.349 . S
C725 H717 0.950 . S
C725 C723 1.327 . S
C726 C714 1.349 . S
C726 H720 0.950 . S
C726 C727 1.327 . S
C727 H721 0.950 . S
C727 C726 1.327 . S
C727 C731 1.429 . S
C728 C711 1.574 . S
C728 H722 0.949 . S
C728 C732 1.368 . S
C729 C710 1.429 . S
C729 C723 1.429 . S
C729 C730 1.523 . S
C730 C711 1.368 . S
C730 C724 1.368 . S
C730 C729 1.523 . S
C731 C715 1.429 . S
C731 C727 1.429 . S
C731 C732 1.523 . S
C732 C716 1.368 . S
C732 C728 1.368 . S
C732 C731 1.523 . S
H733 C708 0.950 . S
H734 C710 0.950 . S
H735 C711 0.949 . S
H736 C713 0.950 . S
H737 C715 0.950 . S
C738 C739 1.349 . S
C738 C740 1.327 . S
C738 H763 0.950 . S
C739 C738 1.349 . S
C739 C755 1.349 . S
C740 C738 1.327 . S
C740 C759 1.429 . S
C740 H764 0.950 . S
C741 C758 1.574 . S
C741 C760 1.368 . S
C741 H765 0.949 . S
H742 C746 0.949 . S
C743 C744 1.349 . S
C743 C745 1.327 . S
C743 H766 0.950 . S
C744 C743 1.349 . S
C744 C756 1.349 . S
C745 C743 1.327 . S
C745 C761 1.429 . S
C745 H767 0.950 . S
C746 H742 0.949 . S
C746 C754 1.574 . S
C746 C762 1.368 . S
H747 C755 0.950 . S
H748 C753 0.950 . S
H749 C754 0.949 . S
H750 C756 0.950 . S
H751 C757 0.950 . S
H752 C758 0.949 . S
C753 H748 0.950 . S
C753 C755 1.327 . S
C753 C759 1.429 . S
C754 C746 1.574 . S
C754 H749 0.949 . S
C754 C760 1.368 . S
C755 C739 1.349 . S
C755 H747 0.950 . S
C755 C753 1.327 . S
C756 C744 1.349 . S
C756 H750 0.950 . S
C756 C757 1.327 . S
C757 H751 0.950 . S
C757 C756 1.327 . S
C757 C761 1.429 . S
C758 C741 1.574 . S
C758 H752 0.949 . S
C758 C762 1.368 . S
C759 C740 1.429 . S
C759 C753 1.429 . S
C759 C760 1.523 . S
C760 C741 1.368 . S
C760 C754 1.368 . S
C760 C759 1.523 . S
C761 C745 1.429 . S
C761 C757 1.429 . S
C761 C762 1.523 . S
C762 C746 1.368 . S
C762 C758 1.368 . S
C762 C761 1.523 . S
H763 C738 0.950 . S
H764 C740 0.950 . S
H765 C741 0.949 . S
H766 C743 0.950 . S
H767 C745 0.950 . S
C768 C769 1.349 . S
C768 C770 1.327 . S
C768 H793 0.950 . S
C769 C768 1.349 . S
C769 C785 1.349 . S
C770 C768 1.327 . S
C770 C789 1.429 . S
C770 H794 0.950 . S
C771 C788 1.574 . S
C771 C790 1.368 . S
C771 H795 0.949 . S
H772 C776 0.949 . S
C773 C774 1.349 . S
C773 C775 1.327 . S
C773 H796 0.950 . S
C774 C773 1.349 . S
C774 C786 1.349 . S
C775 C773 1.327 . S
C775 C791 1.429 . S
C775 H797 0.950 . S
C776 H772 0.949 . S
C776 C784 1.574 . S
C776 C792 1.368 . S
H777 C785 0.950 . S
H778 C783 0.950 . S
H779 C784 0.949 . S
H780 C786 0.950 . S
H781 C787 0.950 . S
H782 C788 0.949 . S
C783 H778 0.950 . S
C783 C785 1.327 . S
C783 C789 1.429 . S
C784 C776 1.574 . S
C784 H779 0.949 . S
C784 C790 1.368 . S
C785 C769 1.349 . S
C785 H777 0.950 . S
C785 C783 1.327 . S
C786 C774 1.349 . S
C786 H780 0.950 . S
C786 C787 1.327 . S
C787 H781 0.950 . S
C787 C786 1.327 . S
C787 C791 1.429 . S
C788 C771 1.574 . S
C788 H782 0.949 . S
C788 C792 1.368 . S
C789 C770 1.429 . S
C789 C783 1.429 . S
C789 C790 1.523 . S
C790 C771 1.368 . S
C790 C784 1.368 . S
C790 C789 1.523 . S
C791 C775 1.429 . S
C791 C787 1.429 . S
C791 C792 1.523 . S
C792 C776 1.368 . S
C792 C788 1.368 . S
C792 C791 1.523 . S
H793 C768 0.950 . S
H794 C770 0.950 . S
H795 C771 0.949 . S
H796 C773 0.950 . S
H797 C775 0.950 . S
C798 C799 1.349 . S
C798 C800 1.327 . S
C798 H823 0.950 . S
C799 C798 1.349 . S
C799 C815 1.349 . S
C800 C798 1.327 . S
C800 C819 1.429 . S
C800 H824 0.950 . S
C801 C818 1.574 . S
C801 C820 1.368 . S
C801 H825 0.949 . S
H802 C806 0.949 . S
C803 C804 1.349 . S
C803 C805 1.327 . S
C803 H826 0.950 . S
C804 C803 1.349 . S
C804 C816 1.349 . S
C805 C803 1.327 . S
C805 C821 1.429 . S
C805 H827 0.950 . S
C806 H802 0.949 . S
C806 C814 1.574 . S
C806 C822 1.368 . S
H807 C815 0.950 . S
H808 C813 0.950 . S
H809 C814 0.949 . S
H810 C816 0.950 . S
H811 C817 0.950 . S
H812 C818 0.949 . S
C813 H808 0.950 . S
C813 C815 1.327 . S
C813 C819 1.429 . S
C814 C806 1.574 . S
C814 H809 0.949 . S
C814 C820 1.368 . S
C815 C799 1.349 . S
C815 H807 0.950 . S
C815 C813 1.327 . S
C816 C804 1.349 . S
C816 H810 0.950 . S
C816 C817 1.327 . S
C817 H811 0.950 . S
C817 C816 1.327 . S
C817 C821 1.429 . S
C818 C801 1.574 . S
C818 H812 0.949 . S
C818 C822 1.368 . S
C819 C800 1.429 . S
C819 C813 1.429 . S
C819 C820 1.523 . S
C820 C801 1.368 . S
C820 C814 1.368 . S
C820 C819 1.523 . S
C821 C805 1.429 . S
C821 C817 1.429 . S
C821 C822 1.523 . S
C822 C806 1.368 . S
C822 C818 1.368 . S
C822 C821 1.523 . S
H823 C798 0.950 . S
H824 C800 0.950 . S
H825 C801 0.949 . S
H826 C803 0.950 . S
H827 C805 0.950 . S
C828 C829 1.349 . S
C828 C830 1.327 . S
C828 H853 0.950 . S
C829 C828 1.349 . S
C829 C845 1.349 . S
C830 C828 1.327 . S
C830 C849 1.429 . S
C830 H854 0.950 . S
C831 C848 1.574 . S
C831 C850 1.368 . S
C831 H855 0.949 . S
H832 C836 0.949 . S
C833 C834 1.349 . S
C833 C835 1.327 . S
C833 H856 0.950 . S
C834 C833 1.349 . S
C834 C846 1.349 . S
C835 C833 1.327 . S
C835 C851 1.429 . S
C835 H857 0.950 . S
C836 H832 0.949 . S
C836 C844 1.574 . S
C836 C852 1.368 . S
H837 C845 0.950 . S
H838 C843 0.950 . S
H839 C844 0.949 . S
H840 C846 0.950 . S
H841 C847 0.950 . S
H842 C848 0.949 . S
C843 H838 0.950 . S
C843 C845 1.327 . S
C843 C849 1.429 . S
C844 C836 1.574 . S
C844 H839 0.949 . S
C844 C850 1.368 . S
C845 C829 1.349 . S
C845 H837 0.950 . S
C845 C843 1.327 . S
C846 C834 1.349 . S
C846 H840 0.950 . S
C846 C847 1.327 . S
C847 H841 0.950 . S
C847 C846 1.327 . S
C847 C851 1.429 . S
C848 C831 1.574 . S
C848 H842 0.949 . S
C848 C852 1.368 . S
C849 C830 1.429 . S
C849 C843 1.429 . S
C849 C850 1.523 . S
C850 C831 1.368 . S
C850 C844 1.368 . S
C850 C849 1.523 . S
C851 C835 1.429 . S
C851 C847 1.429 . S
C851 C852 1.523 . S
C852 C836 1.368 . S
C852 C848 1.368 . S
C852 C851 1.523 . S
H853 C828 0.950 . S
H854 C830 0.950 . S
H855 C831 0.949 . S
H856 C833 0.950 . S
H857 C835 0.950 . S
C858 C859 1.349 . S
C858 C860 1.327 . S
C858 H883 0.950 . S
C859 C858 1.349 . S
C859 C875 1.349 . S
C860 C858 1.327 . S
C860 C879 1.429 . S
C860 H884 0.950 . S
C861 C878 1.574 . S
C861 C880 1.368 . S
C861 H885 0.949 . S
H862 C866 0.949 . S
C863 C864 1.349 . S
C863 C865 1.327 . S
C863 H886 0.950 . S
C864 C863 1.349 . S
C864 C876 1.349 . S
C865 C863 1.327 . S
C865 C881 1.429 . S
C865 H887 0.950 . S
C866 H862 0.949 . S
C866 C874 1.574 . S
C866 C882 1.368 . S
H867 C875 0.950 . S
H868 C873 0.950 . S
H869 C874 0.949 . S
H870 C876 0.950 . S
H871 C877 0.950 . S
H872 C878 0.949 . S
C873 H868 0.950 . S
C873 C875 1.327 . S
C873 C879 1.429 . S
C874 C866 1.574 . S
C874 H869 0.949 . S
C874 C880 1.368 . S
C875 C859 1.349 . S
C875 H867 0.950 . S
C875 C873 1.327 . S
C876 C864 1.349 . S
C876 H870 0.950 . S
C876 C877 1.327 . S
C877 H871 0.950 . S
C877 C876 1.327 . S
C877 C881 1.429 . S
C878 C861 1.574 . S
C878 H872 0.949 . S
C878 C882 1.368 . S
C879 C860 1.429 . S
C879 C873 1.429 . S
C879 C880 1.523 . S
C880 C861 1.368 . S
C880 C874 1.368 . S
C880 C879 1.523 . S
C881 C865 1.429 . S
C881 C877 1.429 . S
C881 C882 1.523 . S
C882 C866 1.368 . S
C882 C878 1.368 . S
C882 C881 1.523 . S
H883 C858 0.950 . S
H884 C860 0.950 . S
H885 C861 0.949 . S
H886 C863 0.950 . S
H887 C865 0.950 . S
C169 C3 1.493 . S
C174 C87 1.499 . S
C199 C17 1.499 . S
C204 C101 1.493 . S
C229 C31 1.418 . S
C234 C115 1.418 . S
C259 C45 1.493 . S
C264 C129 1.499 . S
C289 C59 1.499 . S
C294 C143 1.493 . S
C319 C157 1.418 . S
C324 C73 1.418 . S
C349 C8 1.557 . S
C354 C148 1.557 . S
C379 C22 1.410 . S
C384 C162 1.478 . S
C409 C36 1.477 . S
C414 C92 1.410 . S
C439 C50 1.557 . S
C444 C106 1.557 . S
C469 C64 1.410 . S
C474 C120 1.478 . S
C499 C78 1.477 . S
C504 C134 1.410 . S
C529 C9 1.127 . S
C534 C51 1.127 . S
C559 C23 1.836 . S
C564 C65 1.836 . S
C589 C79 1.315 . S
C594 C37 1.315 . S
C619 C93 1.836 . S
C624 C135 1.836 . S
C649 C149 1.128 . S
C654 C107 1.128 . S
C679 C121 1.315 . S
C684 C163 1.315 . S
C709 C91 0.467 . S
C714 C7 0.491 . S
C739 C21 0.467 . S
C744 C105 0.491 . S
C769 C35 0.447 . S
C774 C119 0.447 . S
C799 C133 0.467 . S
C804 C49 0.491 . S
C829 C147 0.491 . S
C834 C63 0.467 . S
C859 C77 0.447 . S
C864 C161 0.447 . S
