# Generated by pormake.
# Topology fnz, (5)-cn, num edge types: 1
# Building blocks:
#     Node 0, Type 0, BuildingBlock: BEQFEK_clean_sbu_0, # of connection points: 5
#     Node 1, Type 0, BuildingBlock: BEQFEK_clean_sbu_0, # of connection points: 5
#     Node 2, Type 0, BuildingBlock: BEQFEK_clean_sbu_0, # of connection points: 5
#     Node 3, Type 0, BuildingBlock: BEQFEK_clean_sbu_0, # of connection points: 5
#     Node 4, Type 0, BuildingBlock: BEQFEK_clean_sbu_0, # of connection points: 5
#     Node 5, Type 0, BuildingBlock: BEQFEK_clean_sbu_0, # of connection points: 5
#     Node 6, Type 0, BuildingBlock: BEQFEK_clean_sbu_0, # of connection points: 5
#     Node 7, Type 0, BuildingBlock: BEQFEK_clean_sbu_0, # of connection points: 5
#     Node 8, Type 0, BuildingBlock: BEQFEK_clean_sbu_0, # of connection points: 5
#     Node 9, Type 0, BuildingBlock: BEQFEK_clean_sbu_0, # of connection points: 5
#     Node 10, Type 0, BuildingBlock: BEQFEK_clean_sbu_0, # of connection points: 5
#     Node 11, Type 0, BuildingBlock: BEQFEK_clean_sbu_0, # of connection points: 5
#     Edge 12, Type (0, 0), BuildingBlock: XIVTED_clean_linker_0, # of connection points: 2
#     Edge 13, Type (0, 0), BuildingBlock: XIVTED_clean_linker_0, # of connection points: 2
#     Edge 14, Type (0, 0), BuildingBlock: XIVTED_clean_linker_0, # of connection points: 2
#     Edge 15, Type (0, 0), BuildingBlock: XIVTED_clean_linker_0, # of connection points: 2
#     Edge 16, Type (0, 0), BuildingBlock: XIVTED_clean_linker_0, # of connection points: 2
#     Edge 17, Type (0, 0), BuildingBlock: XIVTED_clean_linker_0, # of connection points: 2
#     Edge 18, Type (0, 0), BuildingBlock: XIVTED_clean_linker_0, # of connection points: 2
#     Edge 19, Type (0, 0), BuildingBlock: XIVTED_clean_linker_0, # of connection points: 2
#     Edge 20, Type (0, 0), BuildingBlock: XIVTED_clean_linker_0, # of connection points: 2
#     Edge 21, Type (0, 0), BuildingBlock: XIVTED_clean_linker_0, # of connection points: 2
#     Edge 22, Type (0, 0), BuildingBlock: XIVTED_clean_linker_0, # of connection points: 2
#     Edge 23, Type (0, 0), BuildingBlock: XIVTED_clean_linker_0, # of connection points: 2
#     Edge 24, Type (0, 0), BuildingBlock: XIVTED_clean_linker_0, # of connection points: 2
#     Edge 25, Type (0, 0), BuildingBlock: XIVTED_clean_linker_0, # of connection points: 2
#     Edge 26, Type (0, 0), BuildingBlock: XIVTED_clean_linker_0, # of connection points: 2
#     Edge 27, Type (0, 0), BuildingBlock: XIVTED_clean_linker_0, # of connection points: 2
#     Edge 28, Type (0, 0), BuildingBlock: XIVTED_clean_linker_0, # of connection points: 2
#     Edge 29, Type (0, 0), BuildingBlock: XIVTED_clean_linker_0, # of connection points: 2
#     Edge 30, Type (0, 0), BuildingBlock: XIVTED_clean_linker_0, # of connection points: 2
#     Edge 31, Type (0, 0), BuildingBlock: XIVTED_clean_linker_0, # of connection points: 2
#     Edge 32, Type (0, 0), BuildingBlock: XIVTED_clean_linker_0, # of connection points: 2
#     Edge 33, Type (0, 0), BuildingBlock: XIVTED_clean_linker_0, # of connection points: 2
#     Edge 34, Type (0, 0), BuildingBlock: XIVTED_clean_linker_0, # of connection points: 2
#     Edge 35, Type (0, 0), BuildingBlock: XIVTED_clean_linker_0, # of connection points: 2
#     Edge 36, Type (0, 0), BuildingBlock: XIVTED_clean_linker_0, # of connection points: 2
#     Edge 37, Type (0, 0), BuildingBlock: XIVTED_clean_linker_0, # of connection points: 2
#     Edge 38, Type (0, 0), BuildingBlock: XIVTED_clean_linker_0, # of connection points: 2
#     Edge 39, Type (0, 0), BuildingBlock: XIVTED_clean_linker_0, # of connection points: 2
#     Edge 40, Type (0, 0), BuildingBlock: XIVTED_clean_linker_0, # of connection points: 2
#     Edge 41, Type (0, 0), BuildingBlock: XIVTED_clean_linker_0, # of connection points: 2
# Relax obj value: 0.278
# Max RMSD: 0.251
# Mean RMSD: 0.236
data_MOF--net-fnz--node1-BEQFEK_clean_sbu_0--edge1-XIVTED_clean_linker_0
_symmetry_space_group_name_H-M    P1
_symmetry_Int_Tables_number       1
_symmetry_cell_setting            triclinic
loop_
_symmetry_equiv_pos_as_xyz
'x, y, z'
_cell_length_a     38.557941
_cell_length_b     38.638397
_cell_length_c     35.070204
_cell_angle_alpha  90.228952
_cell_angle_beta   90.110438
_cell_angle_gamma 119.37932
loop_
_atom_site_label
_atom_site_type_symbol
_atom_site_fract_x
_atom_site_fract_y
_atom_site_fract_z
_atom_type_partial_charge
Co0 Co 0.43117 0.14302 0.07097 0.0
Co1 Co 0.42939 0.13176 0.97895 0.0
C2 C 0.49726 0.14041 0.02795 0.0
O3 O 0.4817 0.14422 0.05864 0.0
O4 O 0.48213 0.1397 0.9953 0.0
C5 C 0.45646 0.16486 0.15191 0.0
O6 O 0.48868 0.16384 0.14159 0.0
C7 C 0.43833 0.15685 0.89548 0.0
C8 C 0.39817 0.09875 0.86914 0.0
C9 C 0.4216 0.13863 0.86039 0.0
N10 N 0.4246 0.12891 0.92319 0.0
N11 N 0.40114 0.09427 0.90678 0.0
C12 C 0.46476 0.20018 0.9031 0.0
H13 H 0.4661 0.20665 0.9341 0.0
H14 H 0.45393 0.21785 0.88721 0.0
H15 H 0.49525 0.20902 0.8931 0.0
C16 C 0.40052 0.19512 0.04786 0.0
N17 N 0.41887 0.17448 0.03803 0.0
N18 N 0.41452 0.16728 1.00103 0.0
C19 C 0.39129 0.18118 0.98667 0.0
C20 C 0.38186 0.19945 1.01583 0.0
C21 C 0.39856 0.20771 0.08785 0.0
H22 H 0.37617 0.18174 0.10405 0.0
H23 H 0.42791 0.21885 0.102 0.0
H24 H 0.39031 0.23148 0.0884 0.0
O25 O 0.39113 0.08598 0.06236 0.0
O26 O 0.39277 0.07868 0.99925 0.0
H27 H 0.36594 0.13931 0.94037 0.0
H28 H 0.3416 0.16797 0.94903 0.0
C29 C 0.37089 0.16908 0.94861 0.0
H30 H 0.38963 0.19097 0.92686 0.0
H31 H 0.38603 0.06754 0.92153 0.0
O32 O 0.42931 0.15703 0.12705 0.0
C33 C 0.38031 0.06429 0.0323 0.0
Co34 Co 0.29332 0.43161 0.08959 0.0
Co35 Co 0.30234 0.44619 1.00187 0.0
C36 C 0.37266 0.46631 0.05118 0.0
O37 O 0.35128 0.45462 0.08095 0.0
O38 O 0.35763 0.46722 1.01921 0.0
C39 C 0.30313 0.46708 0.1608 0.0
O40 O 0.32696 0.49795 0.14012 0.0
C41 C 0.31949 0.4955 0.93432 0.0
C42 C 0.29798 0.45103 0.88782 0.0
C43 C 0.31477 0.49139 0.89513 0.0
N44 N 0.30555 0.45922 0.94949 0.0
N45 N 0.29336 0.43279 0.92153 0.0
C46 C 0.33775 0.53325 0.95709 0.0
H47 H 0.34943 0.52903 0.98459 0.0
H48 H 0.315 0.54205 0.96343 0.0
H49 H 0.36197 0.55759 0.94067 0.0
C50 C 0.23251 0.45367 0.07753 0.0
N51 N 0.26709 0.45653 0.06574 0.0
N52 N 0.27064 0.46288 0.02879 0.0
C53 C 0.23833 0.46429 1.0159 0.0
C54 C 0.21282 0.45805 0.04629 0.0
C55 C 0.21374 0.43572 0.11504 0.0
H56 H 0.21626 0.40875 0.12027 0.0
H57 H 0.22965 0.45753 0.13813 0.0
H58 H 0.1819 0.42738 0.11642 0.0
O59 O 0.26923 0.37667 0.06978 0.0
O60 O 0.2772 0.38803 1.00724 0.0
H61 H 0.22662 0.43548 0.96126 0.0
H62 H 0.19828 0.46063 0.97041 0.0
C63 C 0.22746 0.462 0.97452 0.0
H64 H 0.25004 0.4887 0.95967 0.0
H65 H 0.28108 0.40228 0.92553 0.0
O66 O 0.28601 0.43292 0.14518 0.0
C67 C 0.26576 0.3642 0.03543 0.0
Co68 Co 0.84119 0.29184 0.0929 0.0
Co69 Co 0.84249 0.29074 1.00046 0.0
C70 C 0.83747 0.35446 0.04408 0.0
O71 O 0.83631 0.33803 0.07593 0.0
O72 O 0.83642 0.33758 1.01234 0.0
C73 C 0.81162 0.29362 0.17148 0.0
O74 O 0.79928 0.3172 0.15749 0.0
C75 C 0.8194 0.27925 0.91601 0.0
C76 C 0.86642 0.26766 0.89438 0.0
C77 C 0.83356 0.27047 0.88258 0.0
N78 N 0.84279 0.28105 0.94572 0.0
N79 N 0.87078 0.27415 0.93219 0.0
C80 C 0.78522 0.28703 0.91968 0.0
H81 H 0.78756 0.30313 0.94668 0.0
H82 H 0.75701 0.25831 0.92006 0.0
H83 H 0.78433 0.30445 0.89497 0.0
C84 C 0.7954 0.2076 0.07775 0.0
N85 N 0.80958 0.24485 0.06494 0.0
N86 N 0.80739 0.24428 0.02743 0.0
C87 C 0.79015 0.20628 1.01533 0.0
C88 C 0.78277 0.18187 0.04671 0.0
C89 C 0.80251 0.19855 0.11763 0.0
H90 H 0.83293 0.22082 0.12699 0.0
H91 H 0.78085 0.20053 0.13704 0.0
H92 H 0.79971 0.16873 0.12016 0.0
O93 O 0.89755 0.30854 0.08264 0.0
O94 O 0.89739 0.30731 1.01893 0.0
H95 H 0.81256 0.19985 0.96161 0.0
H96 H 0.76203 0.16182 0.97115 0.0
C97 C 0.78385 0.1939 0.9743 0.0
H98 H 0.77261 0.21124 0.95863 0.0
H99 H 0.89293 0.27362 0.94892 0.0
O100 O 0.82985 0.28135 0.14969 0.0
C101 C 0.91557 0.31386 0.05088 0.0
Co102 Co 0.56645 0.86214 0.08761 0.0
Co103 Co 0.56784 0.86369 0.99902 0.0
C104 C 0.53686 0.9085 0.0449 0.0
O105 O 0.54177 0.89582 0.07672 0.0
O106 O 0.5446 0.89681 1.01387 0.0
C107 C 0.5268 0.83287 0.15754 0.0
O108 O 0.4954 0.82412 0.13633 0.0
C109 C 0.5242 0.83616 0.92845 0.0
C110 C 0.57124 0.85987 0.88473 0.0
C111 C 0.53043 0.83693 0.88959 0.0
N112 N 0.55963 0.85703 0.94582 0.0
N113 N 0.58768 0.8718 0.91958 0.0
C114 C 0.48527 0.81617 0.94905 0.0
H115 H 0.48701 0.83291 0.97542 0.0
H116 H 0.47844 0.78587 0.95753 0.0
H117 H 0.46083 0.81369 0.93042 0.0
C118 C 0.54843 0.78086 0.07257 0.0
N119 N 0.54693 0.81328 0.06065 0.0
N120 N 0.54725 0.81385 1.02317 0.0
C121 C 0.54861 0.78168 1.01005 0.0
C122 C 0.55006 0.75995 0.0409 0.0
C123 C 0.55952 0.77631 0.11254 0.0
H124 H 0.58569 0.80439 0.1221 0.0
H125 H 0.53419 0.76961 0.13166 0.0
H126 H 0.56681 0.75205 0.11527 0.0
O127 O 0.6232 0.89466 0.07492 0.0
O128 O 0.62507 0.89514 1.0114 0.0
H129 H 0.58569 0.80307 0.96056 0.0
H130 H 0.56007 0.74949 0.96533 0.0
C131 C 0.55759 0.77667 0.96944 0.0
H132 H 0.53335 0.77405 0.95068 0.0
H133 H 0.61798 0.88922 0.92551 0.0
O134 O 0.56113 0.85125 0.14265 0.0
C135 C 0.64258 0.90557 0.04373 0.0
Co136 Co 0.69832 0.5366 0.09402 0.0
Co137 Co 0.70259 0.54221 1.00127 0.0
C138 C 0.63301 0.47751 0.04273 0.0
O139 O 0.64942 0.48947 0.07541 0.0
O140 O 0.65158 0.49327 1.01186 0.0
C141 C 0.69535 0.50439 0.17296 0.0
O142 O 0.67308 0.46878 0.15837 0.0
C143 C 0.71599 0.53017 0.91694 0.0
C144 C 0.72974 0.58903 0.89541 0.0
C145 C 0.72636 0.5532 0.88364 0.0
N146 N 0.71389 0.55187 0.94648 0.0
N147 N 0.72208 0.58691 0.93294 0.0
C148 C 0.70712 0.4881 0.92062 0.0
H149 H 0.69052 0.47492 0.94733 0.0
H150 H 0.7355 0.48734 0.92162 0.0
H151 H 0.68968 0.47036 0.89561 0.0
C152 C 0.78201 0.56654 0.08189 0.0
N153 N 0.74494 0.54691 0.06738 0.0
N154 N 0.74675 0.54734 0.02982 0.0
C155 C 0.7853 0.56635 1.01943 0.0
C156 C 0.80885 0.57996 0.05197 0.0
C157 C 0.79037 0.58038 0.1226 0.0
H158 H 0.77165 0.5937 0.13065 0.0
H159 H 0.78246 0.55446 0.14127 0.0
H160 H 0.82184 0.60281 0.12786 0.0
O161 O 0.68736 0.58051 0.08335 0.0
O162 O 0.69146 0.58459 1.01979 0.0
H163 H 0.79311 0.59925 0.96824 0.0
H164 H 0.83165 0.58645 0.97693 0.0
C165 C 0.79926 0.57588 0.9791 0.0
H166 H 0.783 0.54896 0.96114 0.0
H167 H 0.72275 0.60975 0.94948 0.0
O168 O 0.70693 0.53463 0.15144 0.0
C169 C 0.68523 0.59607 0.052 0.0
Co170 Co 0.12788 0.68666 0.09929 0.0
Co171 Co 0.12166 0.68948 1.01126 0.0
C172 C 0.0767 0.61377 0.05648 0.0
O173 O 0.09253 0.62958 0.08828 0.0
O174 O 0.08681 0.63398 1.02606 0.0
C175 C 0.15402 0.67287 0.17069 0.0
O176 O 0.15758 0.64549 0.15154 0.0
C177 C 0.15251 0.67755 0.94112 0.0
C178 C 0.12299 0.69443 0.89678 0.0
C179 C 0.15071 0.68184 0.90219 0.0
N180 N 0.1276 0.68768 0.958 0.0
N181 N 0.10946 0.69719 0.93142 0.0
C182 C 0.17676 0.66319 0.96227 0.0
H183 H 0.16112 0.64763 0.98866 0.0
H184 H 0.20569 0.68894 0.97072 0.0
H185 H 0.1826 0.64305 0.94407 0.0
C186 C 0.21088 0.74366 0.08296 0.0
N187 N 0.17592 0.71296 0.07113 0.0
N188 N 0.17221 0.71646 0.03433 0.0
C189 C 0.20348 0.75033 1.02192 0.0
C190 C 0.2291 0.76898 0.05244 0.0
C191 C 0.22357 0.75245 0.12385 0.0
H192 H 0.2227 0.72598 0.13687 0.0
H193 H 0.25434 0.77772 0.12654 0.0
H194 H 0.20299 0.75969 0.13956 0.0
O195 O 0.09568 0.71282 0.08823 0.0
O196 O 0.09286 0.7175 1.02514 0.0
H197 H 0.17177 0.76182 0.97766 0.0
H198 H 0.22104 0.80227 0.98606 0.0
C199 C 0.20271 0.76949 0.98497 0.0
H200 H 0.21433 0.7583 0.96192 0.0
H201 H 0.0887 0.70643 0.93699 0.0
O202 O 0.14034 0.69272 0.15393 0.0
C203 C 0.0839 0.72337 0.05863 0.0
Co204 Co 0.83598 0.50944 0.54569 0.0
Co205 Co 0.84742 0.59504 0.54367 0.0
C206 C 0.81158 0.54227 0.61282 0.0
O207 O 0.81386 0.51346 0.59731 0.0
O208 O 0.82353 0.57484 0.59501 0.0
C209 C 0.84495 0.43878 0.52913 0.0
O210 O 0.82903 0.40039 0.52325 0.0
C211 C 0.82605 0.65721 0.54919 0.0
C212 C 0.87383 0.70668 0.51707 0.0
C213 C 0.83936 0.69588 0.53754 0.0
N214 N 0.8517 0.64574 0.53678 0.0
N215 N 0.8805 0.67553 0.51794 0.0
C216 C 0.78705 0.62985 0.56753 0.0
H217 H 0.77867 0.59839 0.56215 0.0
H218 H 0.76324 0.63539 0.55644 0.0
H219 H 0.78965 0.63547 0.5987 0.0
C220 C 0.79725 0.50615 0.46964 0.0
N221 N 0.81367 0.52422 0.50327 0.0
N222 N 0.81734 0.5599 0.50329 0.0
C223 C 0.80292 0.56547 0.4701 0.0
C224 C 0.78985 0.53171 0.44721 0.0
C225 C 0.79333 0.46717 0.45768 0.0
H226 H 0.82217 0.46794 0.46218 0.0
H227 H 0.77084 0.44329 0.47585 0.0
H228 H 0.78461 0.46022 0.4273 0.0
O229 O 0.89518 0.54341 0.54619 0.0
O230 O 0.90231 0.60388 0.54163 0.0
H231 H 0.83265 0.62684 0.45482 0.0
H232 H 0.78291 0.59859 0.43523 0.0
C233 C 0.80194 0.60269 0.46047 0.0
H234 H 0.79002 0.6117 0.48493 0.0
H235 H 0.90415 0.67427 0.5049 0.0
O236 O 0.82243 0.45304 0.5379 0.0
C237 C 0.91712 0.58089 0.54347 0.0
Co238 Co 0.29824 0.8194 0.48767 0.0
Co239 Co 0.30013 0.82227 0.57581 0.0
C240 C 0.37458 0.86499 0.52801 0.0
O241 O 0.3564 0.85271 0.49636 0.0
O242 O 0.35583 0.85388 0.55928 0.0
C243 C 0.30448 0.79523 0.4111 0.0
O244 O 0.3311 0.78682 0.4251 0.0
C245 C 0.30516 0.78648 0.64713 0.0
C246 C 0.30022 0.82597 0.68981 0.0
C247 C 0.30313 0.79176 0.68593 0.0
N248 N 0.30293 0.81584 0.62893 0.0
N249 N 0.30079 0.83983 0.65458 0.0
C250 C 0.31073 0.755 0.62768 0.0
H251 H 0.32579 0.76597 0.59986 0.0
H252 H 0.28145 0.7284 0.62227 0.0
H253 H 0.32841 0.74599 0.64601 0.0
C254 C 0.23957 0.73619 0.50213 0.0
N255 N 0.27148 0.77003 0.51443 0.0
N256 N 0.26886 0.77263 0.55159 0.0
C257 C 0.23401 0.74217 0.56362 0.0
C258 C 0.21424 0.71776 0.53269 0.0
C259 C 0.22998 0.72477 0.46104 0.0
H260 H 0.22253 0.74583 0.44669 0.0
H261 H 0.25618 0.72591 0.44693 0.0
H262 H 0.20446 0.69422 0.45796 0.0
O263 O 0.27279 0.85159 0.50255 0.0
O264 O 0.27392 0.85381 0.56597 0.0
H265 H 0.22932 0.77324 0.61306 0.0
H266 H 0.18273 0.73348 0.59627 0.0
C267 C 0.21471 0.74302 0.60052 0.0
H268 H 0.21659 0.72215 0.62091 0.0
H269 H 0.29839 0.86488 0.64797 0.0
O270 O 0.28859 0.80984 0.43277 0.0
C271 C 0.26476 0.86279 0.53402 0.0
Co272 Co 0.44732 0.2915 0.5273 0.0
Co273 Co 0.36162 0.22008 0.52439 0.0
C274 C 0.41787 0.23505 0.59238 0.0
O275 O 0.44728 0.26479 0.57683 0.0
O276 O 0.38443 0.21666 0.57508 0.0
C277 C 0.50331 0.36544 0.547 0.0
O278 O 0.49134 0.34987 0.58094 0.0
C279 C 0.30379 0.13655 0.52953 0.0
C280 C 0.25096 0.1318 0.49989 0.0
C281 C 0.26506 0.1099 0.51901 0.0
N282 N 0.31218 0.17278 0.51786 0.0
N283 N 0.28043 0.16995 0.50042 0.0
C284 C 0.3339 0.12719 0.54645 0.0
H285 H 0.36448 0.15037 0.53883 0.0
H286 H 0.32885 0.09782 0.53631 0.0
H287 H 0.33097 0.12609 0.57793 0.0
C288 C 0.4507 0.25944 0.44984 0.0
N289 N 0.43266 0.25721 0.48349 0.0
N290 N 0.39629 0.22683 0.48239 0.0
C291 C 0.39014 0.20855 0.44812 0.0
C292 C 0.4243 0.22863 0.42596 0.0
C293 C 0.49077 0.29306 0.43968 0.0
H294 H 0.49116 0.32162 0.44472 0.0
H295 H 0.51356 0.29256 0.45869 0.0
H296 H 0.49848 0.29157 0.40951 0.0
O297 O 0.41079 0.31372 0.53191 0.0
O298 O 0.3493 0.26416 0.52611 0.0
H299 H 0.32827 0.18046 0.43388 0.0
H300 H 0.35503 0.15925 0.40976 0.0
C301 C 0.35209 0.17242 0.43687 0.0
H302 H 0.3432 0.14975 0.4595 0.0
H303 H 0.27916 0.19389 0.48823 0.0
O304 O 0.49705 0.34183 0.51924 0.0
C305 C 0.37359 0.30102 0.53019 0.0
Co306 Co 0.17058 0.48227 0.48426 0.0
Co307 Co 0.16961 0.49114 0.57227 0.0
C308 C 0.12743 0.52007 0.51954 0.0
O309 O 0.1387 0.50984 0.48955 0.0
O310 O 0.13909 0.51584 0.55221 0.0
C311 C 0.1944 0.50586 0.40648 0.0
O312 O 0.20429 0.54175 0.41864 0.0
C313 C 0.20739 0.53674 0.6416 0.0
C314 C 0.16922 0.49595 0.68637 0.0
C315 C 0.20327 0.5322 0.6808 0.0
N316 N 0.17762 0.50437 0.62492 0.0
N317 N 0.15441 0.48048 0.65183 0.0
C318 C 0.23829 0.57176 0.62021 0.0
H319 H 0.22597 0.57457 0.59248 0.0
H320 H 0.2643 0.56774 0.61426 0.0
H321 H 0.24867 0.59937 0.6373 0.0
C322 C 0.25103 0.49879 0.50069 0.0
N323 N 0.22023 0.50411 0.51103 0.0
N324 N 0.21847 0.50405 0.5485 0.0
C325 C 0.2464 0.49622 0.56288 0.0
C326 C 0.26807 0.49255 0.53303 0.0
C327 C 0.2573 0.48871 0.46095 0.0
H328 H 0.23178 0.45971 0.45228 0.0
H329 H 0.25965 0.51204 0.4412 0.0
H330 H 0.28503 0.48679 0.45884 0.0
O331 O 0.13738 0.42739 0.50338 0.0
O332 O 0.13579 0.43333 0.56646 0.0
H333 H 0.21221 0.46011 0.60997 0.0
H334 H 0.26017 0.46302 0.60467 0.0
C335 C 0.2438 0.47984 0.60222 0.0
H336 H 0.25704 0.50453 0.62313 0.0
H337 H 0.12926 0.45301 0.6466 0.0
O338 O 0.17881 0.47699 0.42955 0.0
C339 C 0.12603 0.41204 0.53629 0.0
Co340 Co 0.68675 0.15643 0.54521 0.0
Co341 Co 0.76396 0.15028 0.5428 0.0
C342 C 0.74361 0.18668 0.611 0.0
O343 O 0.71187 0.1828 0.59552 0.0
O344 O 0.76519 0.17509 0.59361 0.0
C345 C 0.61103 0.13295 0.56504 0.0
O346 O 0.62741 0.1382 0.59899 0.0
C347 C 0.84901 0.17907 0.54835 0.0
C348 C 0.85604 0.13271 0.51787 0.0
C349 C 0.87687 0.16821 0.53762 0.0
N350 N 0.81315 0.151 0.53616 0.0
N351 N 0.81738 0.12312 0.51825 0.0
C352 C 0.85688 0.21767 0.56584 0.0
H353 H 0.83171 0.22325 0.56032 0.0
H354 H 0.88466 0.24254 0.5542 0.0
H355 H 0.86085 0.21658 0.59704 0.0
C356 C 0.71747 0.19399 0.46846 0.0
N357 N 0.72119 0.17894 0.50202 0.0
N358 N 0.75421 0.17678 0.5015 0.0
C359 C 0.77282 0.19092 0.46792 0.0
C360 C 0.75011 0.20207 0.44542 0.0
C361 C 0.68125 0.1965 0.4575 0.0
H362 H 0.65416 0.16833 0.46489 0.0
H363 H 0.68068 0.2207 0.47413 0.0
H364 H 0.68065 0.2022 0.42661 0.0
O365 O 0.66942 0.0992 0.54812 0.0
O366 O 0.7233 0.09336 0.54286 0.0
H367 H 0.8076 0.16363 0.45301 0.0
H368 H 0.82497 0.21205 0.43192 0.0
C369 C 0.81188 0.19388 0.45777 0.0
H370 H 0.83313 0.20777 0.48168 0.0
H371 H 0.794 0.09793 0.50569 0.0
O372 O 0.63368 0.15111 0.5372 0.0
C373 C 0.68579 0.07772 0.54595 0.0
Co374 Co 0.53205 0.69428 0.47879 0.0
Co375 Co 0.5249 0.68736 0.56683 0.0
C376 C 0.49265 0.61545 0.51532 0.0
O377 O 0.50319 0.63569 0.48485 0.0
O378 O 0.49831 0.6324 0.54761 0.0
C379 C 0.50497 0.6916 0.40224 0.0
O380 O 0.47007 0.66584 0.41599 0.0
C381 C 0.48048 0.68162 0.63603 0.0
C382 C 0.52156 0.68332 0.68083 0.0
C383 C 0.48531 0.68195 0.67518 0.0
N384 N 0.51262 0.6833 0.6194 0.0
N385 N 0.53672 0.68349 0.64631 0.0
C386 C 0.44518 0.67802 0.61468 0.0
H387 H 0.44269 0.6639 0.58643 0.0
H388 H 0.44852 0.70781 0.60992 0.0
H389 H 0.41756 0.66036 0.63133 0.0
C390 C 0.5141 0.75823 0.49399 0.0
N391 N 0.51106 0.72344 0.50513 0.0
N392 N 0.51168 0.72284 0.54261 0.0
C393 C 0.51758 0.75803 0.55633 0.0
C394 C 0.51902 0.78164 0.52594 0.0
C395 C 0.52123 0.77274 0.45371 0.0
H396 H 0.49709 0.75075 0.43523 0.0
H397 H 0.52172 0.8016 0.45115 0.0
H398 H 0.55012 0.77639 0.44374 0.0
O399 O 0.58751 0.71418 0.49722 0.0
O400 O 0.58252 0.70942 0.56047 0.0
H401 H 0.55124 0.75902 0.60593 0.0
H402 H 0.55396 0.8059 0.59588 0.0
C403 C 0.53414 0.77325 0.59547 0.0
H404 H 0.50941 0.76639 0.61543 0.0
H405 H 0.56407 0.68502 0.64108 0.0
O406 O 0.53523 0.70605 0.42404 0.0
C407 C 0.60335 0.71887 0.53019 0.0
H408 H 0.52504 0.12226 0.09298 0.0
H409 H 0.52283 0.94131 0.98202 0.0
H410 H 0.52525 0.11257 0.97025 0.0
H411 H 0.53842 0.95641 0.10408 0.0
H412 H 0.52562 0.00542 0.97791 0.0
H413 H 0.53762 0.06645 0.09802 0.0
C414 C 0.52908 0.10941 0.067 0.0
C415 C 0.5226 0.12143 0.03108 0.0
C416 C 0.52837 -0.00522 1.00565 0.0
C417 C 0.536 0.05673 0.03684 0.0
C418 C 0.52625 0.95782 1.00811 0.0
C419 C 0.5303 0.94323 0.0435 0.0
C420 C 0.53439 0.01755 0.0388 0.0
C421 C 0.53483 0.96623 0.07622 0.0
C422 C 0.5357 0.07706 0.06999 0.0
C423 C 0.52896 0.10386 0.99861 0.0
N424 N 0.53682 0.00229 0.07307 0.0
N425 N 0.53424 0.07176 1.00228 0.0
H426 H 0.58412 0.46211 0.98041 0.0
H427 H 0.41183 0.45572 0.11173 0.0
H428 H 0.58073 0.44783 0.10267 0.0
H429 H 0.42355 0.48153 0.99122 0.0
H430 H 0.47025 0.44674 0.10857 0.0
H431 H 0.51876 0.45724 0.98279 0.0
C432 C 0.5692 0.45662 1.00766 0.0
C433 C 0.58881 0.45675 0.04156 0.0
C434 C 0.46011 0.45454 0.08287 0.0
C435 C 0.51419 0.45227 0.0445 0.0
C436 C 0.42704 0.46024 0.08474 0.0
C437 C 0.41262 0.46951 0.05171 0.0
C438 C 0.47891 0.458 0.04771 0.0
C439 C 0.4335 0.47454 1.0175 0.0
C440 C 0.53204 0.45453 1.00904 0.0
C441 C 0.56736 0.4489 0.07584 0.0
N442 N 0.46536 0.4685 1.01638 0.0
N443 N 0.53166 0.44796 0.07656 0.0
H444 H 0.03183 0.56921 0.11677 0.0
H445 H 0.86347 0.40544 0.98308 0.0
H446 H 0.03658 0.57012 0.99373 0.0
H447 H 0.85648 0.40448 0.10599 0.0
H448 H 0.92077 0.47194 0.98635 0.0
H449 H 0.96488 0.51179 0.11348 0.0
C450 C 0.01917 0.55694 0.08909 0.0
C451 C 0.04009 0.57449 0.05549 0.0
C452 C 0.90625 0.45749 1.0126 0.0
C453 C 0.96286 0.50947 0.05151 0.0
C454 C 0.87295 0.41963 1.01075 0.0
C455 C 0.85606 0.39842 0.04441 0.0
C456 C 0.92253 0.47425 0.04832 0.0
C457 C 0.8693 0.41904 0.07927 0.0
C458 C 0.98063 0.52454 0.08721 0.0
C459 C 0.02175 0.55757 1.02042 0.0
N460 N 0.90254 0.45532 0.08041 0.0
N461 N 0.98425 0.52613 1.01937 0.0
H462 H 0.09342 0.53989 0.57809 0.0
H463 H 0.88872 0.46403 0.46413 0.0
H464 H 0.08093 0.51418 0.45735 0.0
H465 H 0.89924 0.46767 0.58649 0.0
H466 H 0.96166 0.49685 0.45922 0.0
H467 H 0.02586 0.5296 0.57915 0.0
C468 C 0.07693 0.5331 0.55152 0.0
C469 C 0.09278 0.52702 0.51772 0.0
C470 C 0.94808 0.49103 0.48715 0.0
C471 C 0.01485 0.51479 0.51892 0.0
C472 C 0.90658 0.47256 0.48992 0.0
C473 C 0.88833 0.46389 0.52576 0.0
C474 C 0.97127 0.50017 0.52051 0.0
C475 C 0.91242 0.4745 0.55838 0.0
C476 C 0.03811 0.52691 0.55226 0.0
C477 C 0.06992 0.51876 0.48419 0.0
N478 N 0.95262 0.49171 0.55497 0.0
N479 N 0.03186 0.51221 0.48575 0.0
H480 H 0.5596 0.08181 0.61756 0.0
H481 H 0.41785 0.91481 0.46949 0.0
H482 H 0.5782 0.09699 0.49601 0.0
H483 H 0.42401 0.8948 0.58974 0.0
H484 H 0.47617 0.98099 0.47682 0.0
H485 H 0.50648 0.01415 0.60653 0.0
C486 C 0.55213 0.07117 0.58845 0.0
C487 C 0.57362 0.09525 0.55771 0.0
C488 C 0.46506 0.9618 0.50142 0.0
C489 C 0.51286 0.0171 0.54485 0.0
C490 C 0.43202 0.92381 0.4972 0.0
C491 C 0.41558 0.8993 0.52916 0.0
C492 C 0.48147 0.97535 0.53786 0.0
C493 C 0.43523 0.91276 0.56436 0.0
C494 C 0.52203 0.03225 0.58219 0.0
C495 C 0.56241 0.0796 0.52061 0.0
N496 N 0.46666 0.95 0.56784 0.0
N497 N 0.53286 0.04143 0.51521 0.0
H498 H 0.50768 0.4009 0.47767 0.0
H499 H 0.46025 0.56131 0.57262 0.0
H500 H 0.50306 0.41807 0.59894 0.0
H501 H 0.50388 0.57377 0.45739 0.0
H502 H 0.46251 0.4996 0.57828 0.0
H503 H 0.49808 0.45831 0.46646 0.0
C504 C 0.50537 0.41707 0.50194 0.0
C505 C 0.50607 0.40445 0.53937 0.0
C506 C 0.47122 0.51562 0.55161 0.0
C507 C 0.49383 0.4692 0.52658 0.0
C508 C 0.46948 0.55064 0.54817 0.0
C509 C 0.48252 0.57317 0.51468 0.0
C510 C 0.48609 0.50289 0.52137 0.0
C511 C 0.49376 0.55752 0.48383 0.0
C512 C 0.49947 0.44955 0.49546 0.0
C513 C 0.50262 0.42648 0.56962 0.0
N514 N 0.49585 0.52357 0.48809 0.0
N515 N 0.49625 0.45742 0.56254 0.0
H516 H 0.36976 0.00849 0.97877 0.0
H517 H 0.22335 0.82191 0.1 0.0
H518 H 0.33881 0.02053 0.09451 0.0
H519 H 0.29469 0.81447 1.00919 0.0
H520 H 0.26189 0.8942 0.09737 0.0
H521 H 0.33698 0.93675 0.98688 0.0
C522 C 0.35568 -0.00393 1.0058 0.0
C523 C 0.35689 0.02064 0.03601 0.0
C524 C 0.26964 0.87679 0.07853 0.0
C525 C 0.31962 0.93839 0.04543 0.0
C526 C 0.248 0.83552 0.0803 0.0
C527 C 0.25647 0.81227 0.05522 0.0
C528 C 0.29924 0.89491 0.0508 0.0
C529 C 0.28762 0.83149 0.0292 0.0
C530 C 0.33739 0.9551 1.01049 0.0
C531 C 0.33849 0.00274 0.07046 0.0
N532 N 0.30762 0.8718 0.0273 0.0
N533 N 0.3204 0.9626 0.07418 0.0
H534 H 0.37566 0.24689 0.96253 0.0
H535 H 0.25068 0.30609 0.08809 0.0
H536 H 0.31967 0.18117 0.0644 0.0
H537 H 0.26316 0.3287 0.96698 0.0
H538 H 0.2654 0.25218 0.07835 0.0
H539 H 0.3282 0.27146 0.96124 0.0
C540 C 0.35317 0.23751 0.9845 0.0
C541 C 0.35222 0.21304 1.01422 0.0
C542 C 0.26372 0.26815 0.05375 0.0
C543 C 0.29802 0.24099 1.01318 0.0
C544 C 0.25515 0.29891 0.05927 0.0
C545 C 0.2576 0.32316 0.02854 0.0
C546 C 0.27525 0.26225 1.01743 0.0
C547 C 0.2625 0.31176 0.99176 0.0
C548 C 0.32588 0.25123 0.98364 0.0
C549 C 0.32235 0.20135 0.04186 0.0
N550 N 0.27255 0.28294 0.98735 0.0
N551 N 0.29682 0.21607 0.04112 0.0
H552 H 0.96259 0.30986 0.99484 0.0
H553 H 0.16516 0.48155 0.08274 0.0
H554 H 0.96804 0.36144 0.10563 0.0
H555 H 0.16144 0.39235 1.00599 0.0
H556 H 0.09189 0.44554 0.08442 0.0
H557 H 0.03536 0.34692 0.99197 0.0
C558 C 0.97913 0.3287 1.01869 0.0
C559 C 0.95933 0.33238 0.05064 0.0
C560 C 0.10725 0.43423 0.06689 0.0
C561 C 0.04225 0.37553 0.04706 0.0
C562 C 0.14882 0.45489 0.06566 0.0
C563 C 0.16909 0.44023 0.04363 0.0
C564 C 0.0861 0.39902 0.0456 0.0
C565 C 0.14683 0.40516 1.02254 0.0
C566 C 0.02056 0.34987 1.01699 0.0
C567 C 0.98218 0.35738 0.08068 0.0
N568 N 0.1065 0.38579 1.02393 0.0
N569 N 0.02249 0.37835 0.078 0.0
H570 H 0.81397 0.14588 1.00136 0.0
H571 H 0.68771 0.94111 0.10719 0.0
H572 H 0.7315 0.12332 0.09336 0.0
H573 H 0.69161 0.94674 0.98416 0.0
H574 H 0.73762 0.0112 0.10992 0.0
H575 H 0.79672 0.07563 1.00235 0.0
C576 C 0.79217 0.12615 1.02163 0.0
C577 C 0.77332 0.14 0.04681 0.0
C578 C 0.72855 -0.00345 0.08239 0.0
C579 C 0.75613 0.06125 0.0498 0.0
C580 C 0.70017 0.95652 0.0807 0.0
C581 C 0.68383 0.93874 0.04535 0.0
C582 C 0.74088 0.01832 0.04856 0.0
C583 C 0.70222 0.95983 1.01206 0.0
C584 C 0.78309 0.0865 1.02261 0.0
C585 C 0.74654 0.11369 0.07346 0.0
N586 N 0.72903 -0.00083 1.01441 0.0
N587 N 0.73875 0.0755 0.0743 0.0
H588 H 0.5218 0.68645 0.07258 0.0
H589 H 0.69767 0.65291 0.99928 0.0
H590 H 0.62177 0.77692 1.01118 0.0
H591 H 0.63608 0.60175 0.10443 0.0
H592 H 0.66432 0.69293 0.99611 0.0
H593 H 0.55685 0.64776 0.07706 0.0
C594 C 0.55079 0.69773 0.05955 0.0
C595 C 0.56865 0.73436 0.04083 0.0
C596 C 0.65847 0.67318 1.02002 0.0
C597 C 0.60865 0.69085 0.04585 0.0
C598 C 0.67752 0.65048 1.0219 0.0
C599 C 0.66981 0.62424 0.05229 0.0
C600 C 0.63082 0.66881 0.0482 0.0
C601 C 0.64321 0.62199 0.08075 0.0
C602 C 0.57084 0.67596 0.06236 0.0
C603 C 0.60655 0.74826 1.02495 0.0
N604 N 0.62424 0.64363 0.07777 0.0
N605 N 0.62521 0.72636 0.02758 0.0
H606 H 0.84245 0.65118 1.01471 0.0
H607 H 0.04616 0.72408 0.12442 0.0
H608 H 0.8684 0.58341 0.09604 0.0
H609 H 0.04393 0.73966 1.00272 0.0
H610 H 0.97493 0.70048 0.12642 0.0
H611 H 0.91127 0.70579 1.02111 0.0
C612 C 0.86271 0.64773 0.03369 0.0
C613 C 0.85028 0.61252 0.05432 0.0
C614 C 0.99048 0.71061 0.09957 0.0
C615 C 0.92716 0.67548 0.06368 0.0
C616 C 0.03121 0.72433 0.09833 0.0
C617 C 0.0504 0.73135 0.06292 0.0
C618 C 0.96952 0.70491 0.06537 0.0
C619 C 0.02976 0.73265 0.03039 0.0
C620 C 0.90146 0.6791 0.03783 0.0
C621 C 0.87708 0.61002 0.07951 0.0
N622 N 0.98982 0.71802 0.0321 0.0
N623 N 0.91434 0.64119 0.08359 0.0
H624 H 0.16709 0.65156 0.575 0.0
H625 H 0.96622 0.63975 0.49615 0.0
H626 H 0.16193 0.72659 0.4871 0.0
H627 H 0.96665 0.56241 0.58405 0.0
H628 H 0.03824 0.6691 0.49046 0.0
H629 H 0.09386 0.61513 0.5767 0.0
C630 C 0.15049 0.65965 0.55545 0.0
C631 C 0.17051 0.69149 0.53028 0.0
C632 C 0.02273 0.64554 0.51089 0.0
C633 C 0.08722 0.65059 0.53231 0.0
C634 C 0.98164 0.62892 0.51421 0.0
C635 C 0.9606 0.59831 0.54024 0.0
C636 C 0.04317 0.6319 0.53421 0.0
C637 C 0.98186 0.58534 0.56301 0.0
C638 C 0.10882 0.63902 0.55648 0.0
C639 C 0.14779 0.70147 0.50609 0.0
N640 N 0.02211 0.60236 0.55964 0.0
N641 N 0.10749 0.68121 0.5078 0.0
H642 H 0.23013 0.05377 0.46338 0.0
H643 H 0.24587 0.89501 0.59481 0.0
H644 H 0.25636 0.0683 0.58375 0.0
H645 H 0.24384 0.8912 0.47166 0.0
H646 H 0.22829 0.94759 0.59281 0.0
H647 H 0.21335 0.9839 0.46817 0.0
C648 C 0.23117 0.04181 0.49098 0.0
C649 C 0.24536 0.06658 0.52309 0.0
C650 C 0.23109 0.9348 0.56624 0.0
C651 C 0.22679 0.98756 0.52878 0.0
C652 C 0.24118 0.90479 0.56734 0.0
C653 C 0.24746 0.88945 0.53332 0.0
C654 C 0.22745 0.9497 0.5309 0.0
C655 C 0.24018 0.90278 0.4986 0.0
C656 C 0.22187 0.00214 0.4937 0.0
C657 C 0.24626 0.05004 0.55825 0.0
N658 N 0.23123 0.93266 0.49826 0.0
N659 N 0.23774 0.01164 0.56009 0.0
H660 H 0.227 0.41307 0.52417 0.0
H661 H 0.4172 0.38199 0.53863 0.0
H662 H 0.34577 0.50977 0.54299 0.0
H663 H 0.29642 0.28632 0.5259 0.0
H664 H 0.39258 0.42943 0.54015 0.0
H665 H 0.25268 0.36649 0.52444 0.0
C666 C 0.25861 0.42433 0.52834 0.0
C667 C 0.28446 0.46507 0.53347 0.0
C668 C 0.37147 0.39806 0.53713 0.0
C669 C 0.31421 0.41214 0.53388 0.0
C670 C 0.38549 0.37089 0.53626 0.0
C671 C 0.35885 0.32998 0.53211 0.0
C672 C 0.33047 0.38431 0.53377 0.0
C673 C 0.3181 0.31747 0.52914 0.0
C674 C 0.27328 0.39782 0.52855 0.0
C675 C 0.32507 0.47846 0.5389 0.0
N676 N 0.30522 0.34451 0.52997 0.0
N677 N 0.33882 0.45199 0.5389 0.0
H678 H 0.10085 0.35637 0.47908 0.0
H679 H 0.91904 0.20386 0.60189 0.0
H680 H 0.08877 0.36921 0.59998 0.0
H681 H 0.93271 0.18777 0.4823 0.0
H682 H 0.9885 0.2563 0.60482 0.0
H683 H 0.04743 0.28768 0.48249 0.0
C684 C 0.08732 0.34463 0.50646 0.0
C685 C 0.09855 0.36892 0.53911 0.0
C686 C 0.97666 0.24089 0.57804 0.0
C687 C 0.03729 0.29034 0.54315 0.0
C688 C 0.93705 0.21106 0.5764 0.0
C689 C 0.92023 0.1925 0.5416 0.0
C690 C -0.00075 0.25251 0.54444 0.0
C691 C 0.94473 0.20191 0.50955 0.0
C692 C 0.05688 0.30531 0.5084 0.0
C693 C 0.08054 0.35183 0.57392 0.0
N694 N 0.98292 0.232 0.51151 0.0
N695 N 0.05031 0.31378 0.57489 0.0
H696 H 0.60546 0.03392 0.5589 0.0
H697 H 0.59353 0.82857 0.4995 0.0
H698 H 0.70781 0.02173 0.53009 0.0
H699 H 0.49674 0.83364 0.55548 0.0
H700 H 0.6337 0.90068 0.50479 0.0
H701 H 0.56334 0.96188 0.55326 0.0
C702 C 0.61914 0.01613 0.55157 0.0
C703 C 0.66032 0.03398 0.54493 0.0
C704 C 0.60361 0.8862 0.51574 0.0
C705 C 0.61216 0.95155 0.53818 0.0
C706 C 0.58058 0.84514 0.51235 0.0
C707 C 0.54164 0.82551 0.52643 0.0
C708 C 0.58765 0.9079 0.53345 0.0
C709 C 0.52652 0.84801 0.54384 0.0
C710 C 0.59503 0.97499 0.54839 0.0
C711 C 0.67631 0.00936 0.53556 0.0
N712 N 0.54957 0.88819 0.54678 0.0
N713 N 0.65217 0.96948 0.53228 0.0
H714 H 0.65014 0.74339 0.5943 0.0
H715 H 0.80657 0.70762 0.60133 0.0
H716 H 0.65484 0.72643 0.47305 0.0
H717 H 0.82218 0.73349 0.48124 0.0
H718 H 0.75662 0.72845 0.60341 0.0
H719 H 0.71826 0.75601 0.60027 0.0
C720 C 0.66556 0.74235 0.56891 0.0
C721 C 0.64634 0.73257 0.53331 0.0
C722 C 0.7717 0.73113 0.57674 0.0
C723 C 0.72389 0.74538 0.54009 0.0
C724 C 0.80006 0.71879 0.57558 0.0
C725 C 0.81759 0.71805 0.54092 0.0
C726 C 0.76075 0.74264 0.5428 0.0
C727 C 0.8089 0.73336 0.50845 0.0
C728 C 0.70446 0.74924 0.57237 0.0
C729 C 0.66818 0.73298 0.50121 0.0
N730 N 0.78029 0.74416 0.50996 0.0
N731 N 0.70555 0.73852 0.50548 0.0
H732 H 0.37532 0.21877 0.3652 0.0
H733 H 0.50795 0.18045 0.21198 0.0
H734 H 0.48524 0.22118 0.39345 0.0
H735 H 0.39539 0.17294 0.18425 0.0
H736 H 0.50092 0.19701 0.27781 0.0
H737 H 0.38285 0.20372 0.29871 0.0
C738 C 0.40104 0.21604 0.35739 0.0
C739 C 0.42957 0.22101 0.38505 0.0
C740 C 0.47772 0.19176 0.2574 0.0
C741 C 0.43867 0.20405 0.30859 0.0
C742 C 0.48169 0.18227 0.21964 0.0
C743 C 0.45218 0.17512 0.19223 0.0
C744 C 0.44396 0.1943 0.26826 0.0
C745 C 0.4189 0.17804 0.20422 0.0
C746 C 0.4054 0.20755 0.31936 0.0
C747 C 0.46261 0.21776 0.3731 0.0
N748 N 0.41572 0.18736 0.2412 0.0
N749 N 0.46619 0.20941 0.33591 0.0
H750 H 0.32649 0.53719 0.19863 0.0
H751 H 0.17716 0.43543 0.37258 0.0
H752 H 0.24998 0.41052 0.20921 0.0
H753 H 0.24306 0.56223 0.35522 0.0
H754 H 0.20507 0.42579 0.31382 0.0
H755 H 0.2992 0.54692 0.25791 0.0
C756 C 0.30427 0.51137 0.21362 0.0
C757 C 0.29045 0.47297 0.19888 0.0
C758 C 0.21329 0.45572 0.32271 0.0
C759 C 0.25878 0.48397 0.26655 0.0
C760 C 0.19725 0.46127 0.35622 0.0
C761 C 0.2078 0.49973 0.36887 0.0
C762 C 0.2403 0.48886 0.3017 0.0
C763 C 0.234 0.53206 0.3465 0.0
C764 C 0.28851 0.51699 0.24735 0.0
C765 C 0.26153 0.44066 0.21951 0.0
N766 N 0.24953 0.5259 0.31408 0.0
N767 N 0.24657 0.44691 0.25223 0.0
H768 H 0.82284 0.2367 0.2076 0.0
H769 H 0.7471 0.26525 0.41275 0.0
H770 H 0.78036 0.31967 0.22801 0.0
H771 H 0.76945 0.16916 0.38545 0.0
H772 H 0.76156 0.28767 0.34624 0.0
H773 H 0.80695 0.21419 0.27364 0.0
C774 C 0.81032 0.25034 0.22594 0.0
C775 C 0.80302 0.28023 0.212 0.0
C776 C 0.76329 0.26165 0.35478 0.0
C777 C 0.78463 0.25443 0.28811 0.0
C778 C 0.75487 0.24877 0.39272 0.0
C779 C 0.75735 0.21545 0.40481 0.0
C780 C 0.77449 0.24119 0.32864 0.0
C781 C 0.76782 0.19539 0.37762 0.0
C782 C 0.80109 0.23733 0.26372 0.0
C783 C 0.78652 0.29655 0.23733 0.0
N784 N 0.77615 0.20862 0.34103 0.0
N785 N 0.77801 0.28356 0.27403 0.0
H786 H 0.45774 0.78093 0.19378 0.0
H787 H 0.57262 0.74507 0.36598 0.0
H788 H 0.58557 0.84251 0.20718 0.0
H789 H 0.44475 0.68038 0.35311 0.0
H790 H 0.57743 0.78075 0.30748 0.0
H791 H 0.45176 0.745 0.25286 0.0
C792 C 0.48451 0.78726 0.20936 0.0
C793 C 0.52222 0.81471 0.19547 0.0
C794 C 0.54829 0.75864 0.31728 0.0
C795 C 0.5156 0.77336 0.26269 0.0
C796 C 0.54552 0.73807 0.35064 0.0
C797 C 0.5082 0.70971 0.36451 0.0
C798 C 0.51349 0.75094 0.29757 0.0
C799 C 0.47414 0.70194 0.3434 0.0
C800 C 0.48108 0.76654 0.24293 0.0
C801 C 0.55589 0.82159 0.21675 0.0
N802 N 0.47759 0.72262 0.31103 0.0
N803 N 0.55177 0.80092 0.24917 0.0
H804 H 0.72439 0.46816 0.41458 0.0
H805 H 0.75197 0.57168 0.20992 0.0
H806 H 0.82284 0.58312 0.38728 0.0
H807 H 0.6695 0.4477 0.22926 0.0
H808 H 0.77488 0.5779 0.27611 0.0
H809 H 0.701 0.46111 0.34822 0.0
C810 C 0.74119 0.49185 0.3946 0.0
C811 C 0.77556 0.52636 0.40668 0.0
C812 C 0.75173 0.54932 0.26592 0.0
C813 C 0.74859 0.51883 0.33061 0.0
C814 C 0.73848 0.54578 0.22807 0.0
C815 C 0.70865 0.50909 0.21373 0.0
C816 C 0.73491 0.51607 0.29005 0.0
C817 C 0.69256 0.47659 0.23884 0.0
C818 C 0.72773 0.48789 0.35673 0.0
C819 C 0.79587 0.55625 0.37951 0.0
N820 N 0.70576 0.48086 0.27562 0.0
N821 N 0.78205 0.55188 0.34299 0.0
H822 H 0.20294 0.65123 0.20832 0.0
H823 H 0.25612 0.815 0.37157 0.0
H824 H 0.15065 0.7274 0.21768 0.0
H825 H 0.31074 0.74075 0.3652 0.0
H826 H 0.21851 0.78357 0.31396 0.0
H827 H 0.2421 0.68223 0.26601 0.0
C828 C 0.19928 0.67405 0.22277 0.0
C829 C 0.17358 0.68685 0.20813 0.0
C830 C 0.23885 0.77421 0.32493 0.0
C831 C 0.21862 0.72273 0.27354 0.0
C832 C 0.26052 0.79232 0.35776 0.0
C833 C 0.2865 0.78036 0.37326 0.0
C834 C 0.24296 0.74371 0.3074 0.0
C835 C 0.29111 0.75093 0.3541 0.0
C836 C 0.22187 0.69194 0.25548 0.0
C837 C 0.17018 0.71668 0.22784 0.0
N838 N 0.26927 0.73334 0.32221 0.0
N839 N 0.19258 0.73369 0.25939 0.0
H840 H 0.4653 0.65107 0.74634 0.0
H841 H 0.52276 0.85791 0.81753 0.0
H842 H 0.46234 0.73835 0.67229 0.0
H843 H 0.4763 0.75799 0.8938 0.0
H844 H 0.48868 0.81249 0.76446 0.0
H845 H 0.45517 0.68437 0.80102 0.0
C846 C 0.46093 0.67635 0.74152 0.0
C847 C 0.46506 0.69226 0.70495 0.0
C848 C 0.48477 0.80054 0.79299 0.0
C849 C 0.45522 0.73146 0.76717 0.0
C850 C 0.50435 0.82648 0.82318 0.0
C851 C 0.50238 0.81158 0.85988 0.0
C852 C 0.46439 0.75936 0.79948 0.0
C853 C 0.47829 0.7707 0.86593 0.0
C854 C 0.45524 0.69546 0.7727 0.0
C855 C 0.45928 0.72508 0.70003 0.0
N856 N 0.46101 0.74584 0.83583 0.0
N857 N 0.45587 0.74438 0.73097 0.0
H858 H 0.79784 0.48596 0.66866 0.0
H859 H 0.71737 0.58703 0.81938 0.0
H860 H 0.7888 0.5912 0.64798 0.0
H861 H 0.75283 0.50208 0.85482 0.0
H862 H 0.73514 0.58113 0.75425 0.0
H863 H 0.77413 0.48428 0.73433 0.0
C864 C 0.79065 0.50853 0.67768 0.0
C865 C 0.79548 0.53884 0.65242 0.0
C866 C 0.73885 0.56348 0.7761 0.0
C867 C 0.76805 0.53688 0.7276 0.0
C868 C 0.72859 0.56676 0.81357 0.0
C869 C 0.73335 0.54499 0.84322 0.0
C870 C 0.75429 0.53819 0.7674 0.0
C871 C 0.74788 0.51905 0.83323 0.0
C872 C 0.77725 0.5076 0.71527 0.0
C873 C 0.78579 0.5673 0.66607 0.0
N874 N 0.75799 0.51651 0.79626 0.0
N875 N 0.77259 0.56553 0.70236 0.0
H876 H 0.24946 0.71254 0.68337 0.0
H877 H 0.23123 0.71298 0.90774 0.0
H878 H 0.33215 0.80528 0.7583 0.0
H879 H 0.13257 0.65334 0.82957 0.0
H880 H 0.27723 0.72583 0.85519 0.0
H881 H 0.21788 0.67079 0.73867 0.0
C882 C 0.26222 0.72344 0.71129 0.0
C883 C 0.29327 0.76249 0.71646 0.0
C884 C 0.2455 0.7088 0.8498 0.0
C885 C 0.25669 0.71537 0.77958 0.0
C886 C 0.21916 0.70115 0.87982 0.0
C887 C 0.17803 0.68203 0.87286 0.0
C888 C 0.23052 0.69747 0.81267 0.0
C889 C 0.16414 0.66847 0.83589 0.0
C890 C 0.24386 0.69972 0.74287 0.0
C891 C 0.30798 0.77542 0.75335 0.0
N892 N 0.1904 0.67691 0.80697 0.0
N893 N 0.28909 0.75213 0.78368 0.0
H894 H 0.36357 0.10864 0.80632 0.0
H895 H 0.48209 0.2684 0.64267 0.0
H896 H 0.48214 0.2064 0.8248 0.0
H897 H 0.36125 0.17237 0.63289 0.0
H898 H 0.48471 0.24703 0.70823 0.0
H899 H 0.36422 0.13233 0.74226 0.0
C900 C 0.38986 0.13529 0.79707 0.0
C901 C 0.4227 0.15558 0.82165 0.0
C902 C 0.45771 0.23065 0.69161 0.0
C903 C 0.42369 0.18323 0.74695 0.0
C904 C 0.45621 0.24274 0.65407 0.0
C905 C 0.42142 0.22213 0.6318 0.0
C906 C 0.42422 0.19763 0.7071 0.0
C907 C 0.38884 0.18923 0.64849 0.0
C908 C 0.39015 0.14891 0.76021 0.0
C909 C 0.45573 0.19008 0.8075 0.0
N910 N 0.39109 0.17817 0.68479 0.0
N911 N 0.45544 0.20273 0.77111 0.0
H912 H 0.28664 0.54361 0.90215 0.0
H913 H 0.28314 0.55818 0.6776 0.0
H914 H 0.34535 0.50329 0.82362 0.0
H915 H 0.19128 0.55059 0.75272 0.0
H916 H 0.32637 0.57004 0.73267 0.0
H917 H 0.27326 0.57688 0.84961 0.0
C918 C 0.2983 0.54326 0.8742 0.0
C919 C 0.31699 0.5206 0.86702 0.0
C920 C 0.29729 0.56726 0.73694 0.0
C921 C 0.30116 0.55785 0.80695 0.0
C922 C 0.27268 0.5609 0.70545 0.0
C923 C 0.23341 0.553 0.71075 0.0
C924 C 0.28235 0.56552 0.77376 0.0
C925 C 0.22124 0.55608 0.74762 0.0
C926 C 0.29034 0.56197 0.84418 0.0
C927 C 0.33055 0.52026 0.8301 0.0
N928 N 0.24538 0.56137 0.7779 0.0
N929 N 0.32187 0.53812 0.80125 0.0
H930 H 0.87807 0.28446 0.81877 0.0
H931 H 0.69863 0.19746 0.66669 0.0
H932 H 0.75637 0.24115 0.85322 0.0
H933 H 0.81601 0.21416 0.6457 0.0
H934 H 0.71922 0.22152 0.73257 0.0
H935 H 0.85596 0.26787 0.753 0.0
C936 C 0.84662 0.27179 0.81258 0.0
C937 C 0.81922 0.26442 0.84205 0.0
C938 C 0.74044 0.22008 0.71337 0.0
C939 C 0.79334 0.24483 0.76573 0.0
C940 C 0.72879 0.20652 0.67568 0.0
C941 C 0.75559 0.20365 0.65035 0.0
C942 C 0.77934 0.23139 0.7257 0.0
C943 C 0.79419 0.21563 0.66391 0.0
C944 C 0.83397 0.26222 0.77479 0.0
C945 C 0.77883 0.24811 0.83173 0.0
N946 N 0.80478 0.2289 0.70035 0.0
N947 N 0.76709 0.23866 0.79449 0.0
loop_
_geom_bond_atom_site_label_1
_geom_bond_atom_site_label_2
_geom_bond_distance
_geom_bond_site_symmetry_2
_ccdc_geom_bond_type
Co0 O3 1.970 . S
Co0 N17 1.989 . S
Co0 O25 1.967 . S
Co0 O32 1.920 . S
Co1 O4 1.966 . S
Co1 N10 2.022 . S
Co1 N18 1.993 . S
Co1 O26 1.941 . S
C2 O3 1.258 . S
C2 O4 1.263 1_554 S
O3 Co0 1.970 . S
O3 C2 1.258 . S
O4 Co1 1.966 . S
O4 C2 1.263 1_556 S
C5 O6 1.235 . S
C5 O32 1.289 . S
O6 C5 1.235 . S
C7 C9 1.400 . S
C7 N10 1.351 . S
C7 C12 1.501 . S
C8 C9 1.387 . S
C8 N11 1.341 . S
C9 C7 1.400 . S
C9 C8 1.387 . S
N10 Co1 2.022 . S
N10 C7 1.351 . S
N10 N11 1.365 . S
N11 C8 1.341 . S
N11 N10 1.365 . S
N11 H31 0.862 . S
C12 C7 1.501 . S
C12 H13 0.961 . S
C12 H14 0.961 . S
C12 H15 0.960 . S
H13 C12 0.961 . S
H14 C12 0.961 . S
H15 C12 0.960 . S
C16 N17 1.342 . S
C16 C20 1.401 . S
C16 C21 1.499 . S
N17 Co0 1.989 . S
N17 C16 1.342 . S
N17 N18 1.388 1_554 S
N18 Co1 1.993 . S
N18 N17 1.388 1_556 S
N18 C19 1.346 . S
C19 N18 1.346 . S
C19 C20 1.396 1_556 S
C19 C29 1.510 . S
C20 C16 1.401 . S
C20 C19 1.396 1_554 S
C21 C16 1.499 . S
C21 H22 0.959 . S
C21 H23 0.960 . S
C21 H24 0.961 . S
H22 C21 0.959 . S
H23 C21 0.960 . S
H24 C21 0.961 . S
O25 Co0 1.967 . S
O25 C33 1.258 . S
O26 Co1 1.941 . S
O26 C33 1.266 1_556 S
H27 C29 0.959 . S
H28 C29 0.961 . S
C29 C19 1.510 . S
C29 H27 0.959 . S
C29 H28 0.961 . S
C29 H30 0.960 . S
H30 C29 0.960 . S
H31 N11 0.862 . S
O32 Co0 1.920 . S
O32 C5 1.289 . S
C33 O25 1.258 . S
C33 O26 1.266 1_554 S
Co34 O37 1.970 . S
Co34 N51 1.989 . S
Co34 O59 1.967 . S
Co34 O66 1.920 . S
Co35 O38 1.966 . S
Co35 N44 2.022 . S
Co35 N52 1.993 1_556 S
Co35 O60 1.941 . S
C36 O37 1.258 . S
C36 O38 1.263 1_554 S
O37 Co34 1.970 . S
O37 C36 1.258 . S
O38 Co35 1.966 . S
O38 C36 1.263 1_556 S
C39 O40 1.235 . S
C39 O66 1.289 . S
O40 C39 1.235 . S
C41 C43 1.400 . S
C41 N44 1.351 . S
C41 C46 1.501 . S
C42 C43 1.387 . S
C42 N45 1.341 . S
C43 C41 1.400 . S
C43 C42 1.387 . S
N44 Co35 2.022 . S
N44 C41 1.351 . S
N44 N45 1.365 . S
N45 C42 1.341 . S
N45 N44 1.365 . S
N45 H65 0.862 . S
C46 C41 1.501 . S
C46 H47 0.961 . S
C46 H48 0.961 . S
C46 H49 0.960 . S
H47 C46 0.961 . S
H48 C46 0.961 . S
H49 C46 0.960 . S
C50 N51 1.342 . S
C50 C54 1.401 . S
C50 C55 1.499 . S
N51 Co34 1.989 . S
N51 C50 1.342 . S
N51 N52 1.388 . S
N52 Co35 1.993 1_554 S
N52 N51 1.388 . S
N52 C53 1.346 1_554 S
C53 N52 1.346 1_556 S
C53 C54 1.396 1_556 S
C53 C63 1.510 . S
C54 C50 1.401 . S
C54 C53 1.396 1_554 S
C55 C50 1.499 . S
C55 H56 0.959 . S
C55 H57 0.960 . S
C55 H58 0.961 . S
H56 C55 0.959 . S
H57 C55 0.960 . S
H58 C55 0.961 . S
O59 Co34 1.967 . S
O59 C67 1.258 . S
O60 Co35 1.941 . S
O60 C67 1.266 1_556 S
H61 C63 0.959 . S
H62 C63 0.961 . S
C63 C53 1.510 . S
C63 H61 0.959 . S
C63 H62 0.961 . S
C63 H64 0.960 . S
H64 C63 0.960 . S
H65 N45 0.862 . S
O66 Co34 1.920 . S
O66 C39 1.289 . S
C67 O59 1.258 . S
C67 O60 1.266 1_554 S
Co68 O71 1.970 . S
Co68 N85 1.989 . S
Co68 O93 1.967 . S
Co68 O100 1.920 . S
Co69 O72 1.966 . S
Co69 N78 2.022 . S
Co69 N86 1.993 . S
Co69 O94 1.941 . S
C70 O71 1.258 . S
C70 O72 1.263 1_554 S
O71 Co68 1.970 . S
O71 C70 1.258 . S
O72 Co69 1.966 . S
O72 C70 1.263 1_556 S
C73 O74 1.235 . S
C73 O100 1.289 . S
O74 C73 1.235 . S
C75 C77 1.400 . S
C75 N78 1.351 . S
C75 C80 1.501 . S
C76 C77 1.387 . S
C76 N79 1.341 . S
C77 C75 1.400 . S
C77 C76 1.387 . S
N78 Co69 2.022 . S
N78 C75 1.351 . S
N78 N79 1.365 . S
N79 C76 1.341 . S
N79 N78 1.365 . S
N79 H99 0.862 . S
C80 C75 1.501 . S
C80 H81 0.961 . S
C80 H82 0.961 . S
C80 H83 0.960 . S
H81 C80 0.961 . S
H82 C80 0.961 . S
H83 C80 0.960 . S
C84 N85 1.342 . S
C84 C88 1.401 . S
C84 C89 1.499 . S
N85 Co68 1.989 . S
N85 C84 1.342 . S
N85 N86 1.388 1_554 S
N86 Co69 1.993 . S
N86 N85 1.388 1_556 S
N86 C87 1.346 . S
C87 N86 1.346 . S
C87 C88 1.396 1_556 S
C87 C97 1.510 . S
C88 C84 1.401 . S
C88 C87 1.396 1_554 S
C89 C84 1.499 . S
C89 H90 0.959 . S
C89 H91 0.960 . S
C89 H92 0.961 . S
H90 C89 0.959 . S
H91 C89 0.960 . S
H92 C89 0.961 . S
O93 Co68 1.967 . S
O93 C101 1.258 . S
O94 Co69 1.941 . S
O94 C101 1.266 1_556 S
H95 C97 0.959 . S
H96 C97 0.961 . S
C97 C87 1.510 . S
C97 H95 0.959 . S
C97 H96 0.961 . S
C97 H98 0.960 . S
H98 C97 0.960 . S
H99 N79 0.862 . S
O100 Co68 1.920 . S
O100 C73 1.289 . S
C101 O93 1.258 . S
C101 O94 1.266 1_554 S
Co102 O105 1.970 . S
Co102 N119 1.989 . S
Co102 O127 1.967 . S
Co102 O134 1.920 . S
Co103 O106 1.966 . S
Co103 N112 2.022 . S
Co103 N120 1.993 1_556 S
Co103 O128 1.941 . S
C104 O105 1.258 . S
C104 O106 1.263 1_554 S
O105 Co102 1.970 . S
O105 C104 1.258 . S
O106 Co103 1.966 . S
O106 C104 1.263 1_556 S
C107 O108 1.235 . S
C107 O134 1.289 . S
O108 C107 1.235 . S
C109 C111 1.400 . S
C109 N112 1.351 . S
C109 C114 1.501 . S
C110 C111 1.387 . S
C110 N113 1.341 . S
C111 C109 1.400 . S
C111 C110 1.387 . S
N112 Co103 2.022 . S
N112 C109 1.351 . S
N112 N113 1.365 . S
N113 C110 1.341 . S
N113 N112 1.365 . S
N113 H133 0.862 . S
C114 C109 1.501 . S
C114 H115 0.961 . S
C114 H116 0.961 . S
C114 H117 0.960 . S
H115 C114 0.961 . S
H116 C114 0.961 . S
H117 C114 0.960 . S
C118 N119 1.342 . S
C118 C122 1.401 . S
C118 C123 1.499 . S
N119 Co102 1.989 . S
N119 C118 1.342 . S
N119 N120 1.388 . S
N120 Co103 1.993 1_554 S
N120 N119 1.388 . S
N120 C121 1.346 1_554 S
C121 N120 1.346 1_556 S
C121 C122 1.396 1_556 S
C121 C131 1.510 . S
C122 C118 1.401 . S
C122 C121 1.396 1_554 S
C123 C118 1.499 . S
C123 H124 0.959 . S
C123 H125 0.960 . S
C123 H126 0.961 . S
H124 C123 0.959 . S
H125 C123 0.960 . S
H126 C123 0.961 . S
O127 Co102 1.967 . S
O127 C135 1.258 . S
O128 Co103 1.941 . S
O128 C135 1.266 1_556 S
H129 C131 0.959 . S
H130 C131 0.961 . S
C131 C121 1.510 . S
C131 H129 0.959 . S
C131 H130 0.961 . S
C131 H132 0.960 . S
H132 C131 0.960 . S
H133 N113 0.862 . S
O134 Co102 1.920 . S
O134 C107 1.289 . S
C135 O127 1.258 . S
C135 O128 1.266 1_554 S
Co136 O139 1.970 . S
Co136 N153 1.989 . S
Co136 O161 1.967 . S
Co136 O168 1.920 . S
Co137 O140 1.966 . S
Co137 N146 2.022 . S
Co137 N154 1.993 . S
Co137 O162 1.941 . S
C138 O139 1.258 . S
C138 O140 1.263 1_554 S
O139 Co136 1.970 . S
O139 C138 1.258 . S
O140 Co137 1.966 . S
O140 C138 1.263 1_556 S
C141 O142 1.235 . S
C141 O168 1.289 . S
O142 C141 1.235 . S
C143 C145 1.400 . S
C143 N146 1.351 . S
C143 C148 1.501 . S
C144 C145 1.387 . S
C144 N147 1.341 . S
C145 C143 1.400 . S
C145 C144 1.387 . S
N146 Co137 2.022 . S
N146 C143 1.351 . S
N146 N147 1.365 . S
N147 C144 1.341 . S
N147 N146 1.365 . S
N147 H167 0.862 . S
C148 C143 1.501 . S
C148 H149 0.961 . S
C148 H150 0.961 . S
C148 H151 0.960 . S
H149 C148 0.961 . S
H150 C148 0.961 . S
H151 C148 0.960 . S
C152 N153 1.342 . S
C152 C156 1.401 . S
C152 C157 1.499 . S
N153 Co136 1.989 . S
N153 C152 1.342 . S
N153 N154 1.388 1_554 S
N154 Co137 1.993 . S
N154 N153 1.388 1_556 S
N154 C155 1.346 . S
C155 N154 1.346 . S
C155 C156 1.396 1_556 S
C155 C165 1.510 . S
C156 C152 1.401 . S
C156 C155 1.396 1_554 S
C157 C152 1.499 . S
C157 H158 0.959 . S
C157 H159 0.960 . S
C157 H160 0.961 . S
H158 C157 0.959 . S
H159 C157 0.960 . S
H160 C157 0.961 . S
O161 Co136 1.967 . S
O161 C169 1.258 . S
O162 Co137 1.941 . S
O162 C169 1.266 1_556 S
H163 C165 0.959 . S
H164 C165 0.961 . S
C165 C155 1.510 . S
C165 H163 0.959 . S
C165 H164 0.961 . S
C165 H166 0.960 . S
H166 C165 0.960 . S
H167 N147 0.862 . S
O168 Co136 1.920 . S
O168 C141 1.289 . S
C169 O161 1.258 . S
C169 O162 1.266 1_554 S
Co170 O173 1.970 . S
Co170 N187 1.989 . S
Co170 O195 1.967 . S
Co170 O202 1.920 . S
Co171 O174 1.966 . S
Co171 N180 2.022 . S
Co171 N188 1.993 1_556 S
Co171 O196 1.941 . S
C172 O173 1.258 . S
C172 O174 1.263 1_554 S
O173 Co170 1.970 . S
O173 C172 1.258 . S
O174 Co171 1.966 . S
O174 C172 1.263 1_556 S
C175 O176 1.235 . S
C175 O202 1.289 . S
O176 C175 1.235 . S
C177 C179 1.400 . S
C177 N180 1.351 . S
C177 C182 1.501 . S
C178 C179 1.387 . S
C178 N181 1.341 . S
C179 C177 1.400 . S
C179 C178 1.387 . S
N180 Co171 2.022 . S
N180 C177 1.351 . S
N180 N181 1.365 . S
N181 C178 1.341 . S
N181 N180 1.365 . S
N181 H201 0.862 . S
C182 C177 1.501 . S
C182 H183 0.961 . S
C182 H184 0.961 . S
C182 H185 0.960 . S
H183 C182 0.961 . S
H184 C182 0.961 . S
H185 C182 0.960 . S
C186 N187 1.342 . S
C186 C190 1.401 . S
C186 C191 1.499 . S
N187 Co170 1.989 . S
N187 C186 1.342 . S
N187 N188 1.388 . S
N188 Co171 1.993 1_554 S
N188 N187 1.388 . S
N188 C189 1.346 1_554 S
C189 N188 1.346 1_556 S
C189 C190 1.396 1_556 S
C189 C199 1.510 . S
C190 C186 1.401 . S
C190 C189 1.396 1_554 S
C191 C186 1.499 . S
C191 H192 0.959 . S
C191 H193 0.960 . S
C191 H194 0.961 . S
H192 C191 0.959 . S
H193 C191 0.960 . S
H194 C191 0.961 . S
O195 Co170 1.967 . S
O195 C203 1.258 . S
O196 Co171 1.941 . S
O196 C203 1.266 1_556 S
H197 C199 0.959 . S
H198 C199 0.961 . S
C199 C189 1.510 . S
C199 H197 0.959 . S
C199 H198 0.961 . S
C199 H200 0.960 . S
H200 C199 0.960 . S
H201 N181 0.862 . S
O202 Co170 1.920 . S
O202 C175 1.289 . S
C203 O195 1.258 . S
C203 O196 1.266 1_554 S
Co204 O207 1.970 . S
Co204 N221 1.989 . S
Co204 O229 1.967 . S
Co204 O236 1.920 . S
Co205 O208 1.966 . S
Co205 N214 2.022 . S
Co205 N222 1.993 . S
Co205 O230 1.941 . S
C206 O207 1.258 . S
C206 O208 1.263 . S
O207 Co204 1.970 . S
O207 C206 1.258 . S
O208 Co205 1.966 . S
O208 C206 1.263 . S
C209 O210 1.235 . S
C209 O236 1.289 . S
O210 C209 1.235 . S
C211 C213 1.400 . S
C211 N214 1.351 . S
C211 C216 1.501 . S
C212 C213 1.387 . S
C212 N215 1.341 . S
C213 C211 1.400 . S
C213 C212 1.387 . S
N214 Co205 2.022 . S
N214 C211 1.351 . S
N214 N215 1.365 . S
N215 C212 1.341 . S
N215 N214 1.365 . S
N215 H235 0.862 . S
C216 C211 1.501 . S
C216 H217 0.961 . S
C216 H218 0.961 . S
C216 H219 0.960 . S
H217 C216 0.961 . S
H218 C216 0.961 . S
H219 C216 0.960 . S
C220 N221 1.342 . S
C220 C224 1.401 . S
C220 C225 1.499 . S
N221 Co204 1.989 . S
N221 C220 1.342 . S
N221 N222 1.388 . S
N222 Co205 1.993 . S
N222 N221 1.388 . S
N222 C223 1.346 . S
C223 N222 1.346 . S
C223 C224 1.396 . S
C223 C233 1.510 . S
C224 C220 1.401 . S
C224 C223 1.396 . S
C225 C220 1.499 . S
C225 H226 0.959 . S
C225 H227 0.960 . S
C225 H228 0.961 . S
H226 C225 0.959 . S
H227 C225 0.960 . S
H228 C225 0.961 . S
O229 Co204 1.967 . S
O229 C237 1.258 . S
O230 Co205 1.941 . S
O230 C237 1.266 . S
H231 C233 0.959 . S
H232 C233 0.961 . S
C233 C223 1.510 . S
C233 H231 0.959 . S
C233 H232 0.961 . S
C233 H234 0.960 . S
H234 C233 0.960 . S
H235 N215 0.862 . S
O236 Co204 1.920 . S
O236 C209 1.289 . S
C237 O229 1.258 . S
C237 O230 1.266 . S
Co238 O241 1.970 . S
Co238 N255 1.989 . S
Co238 O263 1.967 . S
Co238 O270 1.920 . S
Co239 O242 1.966 . S
Co239 N248 2.022 . S
Co239 N256 1.993 . S
Co239 O264 1.941 . S
C240 O241 1.258 . S
C240 O242 1.263 . S
O241 Co238 1.970 . S
O241 C240 1.258 . S
O242 Co239 1.966 . S
O242 C240 1.263 . S
C243 O244 1.235 . S
C243 O270 1.289 . S
O244 C243 1.235 . S
C245 C247 1.400 . S
C245 N248 1.351 . S
C245 C250 1.501 . S
C246 C247 1.387 . S
C246 N249 1.341 . S
C247 C245 1.400 . S
C247 C246 1.387 . S
N248 Co239 2.022 . S
N248 C245 1.351 . S
N248 N249 1.365 . S
N249 C246 1.341 . S
N249 N248 1.365 . S
N249 H269 0.862 . S
C250 C245 1.501 . S
C250 H251 0.961 . S
C250 H252 0.961 . S
C250 H253 0.960 . S
H251 C250 0.961 . S
H252 C250 0.961 . S
H253 C250 0.960 . S
C254 N255 1.342 . S
C254 C258 1.401 . S
C254 C259 1.499 . S
N255 Co238 1.989 . S
N255 C254 1.342 . S
N255 N256 1.388 . S
N256 Co239 1.993 . S
N256 N255 1.388 . S
N256 C257 1.346 . S
C257 N256 1.346 . S
C257 C258 1.396 . S
C257 C267 1.510 . S
C258 C254 1.401 . S
C258 C257 1.396 . S
C259 C254 1.499 . S
C259 H260 0.959 . S
C259 H261 0.960 . S
C259 H262 0.961 . S
H260 C259 0.959 . S
H261 C259 0.960 . S
H262 C259 0.961 . S
O263 Co238 1.967 . S
O263 C271 1.258 . S
O264 Co239 1.941 . S
O264 C271 1.266 . S
H265 C267 0.959 . S
H266 C267 0.961 . S
C267 C257 1.510 . S
C267 H265 0.959 . S
C267 H266 0.961 . S
C267 H268 0.960 . S
H268 C267 0.960 . S
H269 N249 0.862 . S
O270 Co238 1.920 . S
O270 C243 1.289 . S
C271 O263 1.258 . S
C271 O264 1.266 . S
Co272 O275 1.970 . S
Co272 N289 1.989 . S
Co272 O297 1.967 . S
Co272 O304 1.920 . S
Co273 O276 1.966 . S
Co273 N282 2.022 . S
Co273 N290 1.993 . S
Co273 O298 1.941 . S
C274 O275 1.258 . S
C274 O276 1.263 . S
O275 Co272 1.970 . S
O275 C274 1.258 . S
O276 Co273 1.966 . S
O276 C274 1.263 . S
C277 O278 1.235 . S
C277 O304 1.289 . S
O278 C277 1.235 . S
C279 C281 1.400 . S
C279 N282 1.351 . S
C279 C284 1.501 . S
C280 C281 1.387 . S
C280 N283 1.341 . S
C281 C279 1.400 . S
C281 C280 1.387 . S
N282 Co273 2.022 . S
N282 C279 1.351 . S
N282 N283 1.365 . S
N283 C280 1.341 . S
N283 N282 1.365 . S
N283 H303 0.862 . S
C284 C279 1.501 . S
C284 H285 0.961 . S
C284 H286 0.961 . S
C284 H287 0.960 . S
H285 C284 0.961 . S
H286 C284 0.961 . S
H287 C284 0.960 . S
C288 N289 1.342 . S
C288 C292 1.401 . S
C288 C293 1.499 . S
N289 Co272 1.989 . S
N289 C288 1.342 . S
N289 N290 1.388 . S
N290 Co273 1.993 . S
N290 N289 1.388 . S
N290 C291 1.346 . S
C291 N290 1.346 . S
C291 C292 1.396 . S
C291 C301 1.510 . S
C292 C288 1.401 . S
C292 C291 1.396 . S
C293 C288 1.499 . S
C293 H294 0.959 . S
C293 H295 0.960 . S
C293 H296 0.961 . S
H294 C293 0.959 . S
H295 C293 0.960 . S
H296 C293 0.961 . S
O297 Co272 1.967 . S
O297 C305 1.258 . S
O298 Co273 1.941 . S
O298 C305 1.266 . S
H299 C301 0.959 . S
H300 C301 0.961 . S
C301 C291 1.510 . S
C301 H299 0.959 . S
C301 H300 0.961 . S
C301 H302 0.960 . S
H302 C301 0.960 . S
H303 N283 0.862 . S
O304 Co272 1.920 . S
O304 C277 1.289 . S
C305 O297 1.258 . S
C305 O298 1.266 . S
Co306 O309 1.970 . S
Co306 N323 1.989 . S
Co306 O331 1.967 . S
Co306 O338 1.920 . S
Co307 O310 1.966 . S
Co307 N316 2.022 . S
Co307 N324 1.993 . S
Co307 O332 1.941 . S
C308 O309 1.258 . S
C308 O310 1.263 . S
O309 Co306 1.970 . S
O309 C308 1.258 . S
O310 Co307 1.966 . S
O310 C308 1.263 . S
C311 O312 1.235 . S
C311 O338 1.289 . S
O312 C311 1.235 . S
C313 C315 1.400 . S
C313 N316 1.351 . S
C313 C318 1.501 . S
C314 C315 1.387 . S
C314 N317 1.341 . S
C315 C313 1.400 . S
C315 C314 1.387 . S
N316 Co307 2.022 . S
N316 C313 1.351 . S
N316 N317 1.365 . S
N317 C314 1.341 . S
N317 N316 1.365 . S
N317 H337 0.862 . S
C318 C313 1.501 . S
C318 H319 0.961 . S
C318 H320 0.961 . S
C318 H321 0.960 . S
H319 C318 0.961 . S
H320 C318 0.961 . S
H321 C318 0.960 . S
C322 N323 1.342 . S
C322 C326 1.401 . S
C322 C327 1.499 . S
N323 Co306 1.989 . S
N323 C322 1.342 . S
N323 N324 1.388 . S
N324 Co307 1.993 . S
N324 N323 1.388 . S
N324 C325 1.346 . S
C325 N324 1.346 . S
C325 C326 1.396 . S
C325 C335 1.510 . S
C326 C322 1.401 . S
C326 C325 1.396 . S
C327 C322 1.499 . S
C327 H328 0.959 . S
C327 H329 0.960 . S
C327 H330 0.961 . S
H328 C327 0.959 . S
H329 C327 0.960 . S
H330 C327 0.961 . S
O331 Co306 1.967 . S
O331 C339 1.258 . S
O332 Co307 1.941 . S
O332 C339 1.266 . S
H333 C335 0.959 . S
H334 C335 0.961 . S
C335 C325 1.510 . S
C335 H333 0.959 . S
C335 H334 0.961 . S
C335 H336 0.960 . S
H336 C335 0.960 . S
H337 N317 0.862 . S
O338 Co306 1.920 . S
O338 C311 1.289 . S
C339 O331 1.258 . S
C339 O332 1.266 . S
Co340 O343 1.970 . S
Co340 N357 1.989 . S
Co340 O365 1.967 . S
Co340 O372 1.920 . S
Co341 O344 1.966 . S
Co341 N350 2.022 . S
Co341 N358 1.993 . S
Co341 O366 1.941 . S
C342 O343 1.258 . S
C342 O344 1.263 . S
O343 Co340 1.970 . S
O343 C342 1.258 . S
O344 Co341 1.966 . S
O344 C342 1.263 . S
C345 O346 1.235 . S
C345 O372 1.289 . S
O346 C345 1.235 . S
C347 C349 1.400 . S
C347 N350 1.351 . S
C347 C352 1.501 . S
C348 C349 1.387 . S
C348 N351 1.341 . S
C349 C347 1.400 . S
C349 C348 1.387 . S
N350 Co341 2.022 . S
N350 C347 1.351 . S
N350 N351 1.365 . S
N351 C348 1.341 . S
N351 N350 1.365 . S
N351 H371 0.862 . S
C352 C347 1.501 . S
C352 H353 0.961 . S
C352 H354 0.961 . S
C352 H355 0.960 . S
H353 C352 0.961 . S
H354 C352 0.961 . S
H355 C352 0.960 . S
C356 N357 1.342 . S
C356 C360 1.401 . S
C356 C361 1.499 . S
N357 Co340 1.989 . S
N357 C356 1.342 . S
N357 N358 1.388 . S
N358 Co341 1.993 . S
N358 N357 1.388 . S
N358 C359 1.346 . S
C359 N358 1.346 . S
C359 C360 1.396 . S
C359 C369 1.510 . S
C360 C356 1.401 . S
C360 C359 1.396 . S
C361 C356 1.499 . S
C361 H362 0.959 . S
C361 H363 0.960 . S
C361 H364 0.961 . S
H362 C361 0.959 . S
H363 C361 0.960 . S
H364 C361 0.961 . S
O365 Co340 1.967 . S
O365 C373 1.258 . S
O366 Co341 1.941 . S
O366 C373 1.266 . S
H367 C369 0.959 . S
H368 C369 0.961 . S
C369 C359 1.510 . S
C369 H367 0.959 . S
C369 H368 0.961 . S
C369 H370 0.960 . S
H370 C369 0.960 . S
H371 N351 0.862 . S
O372 Co340 1.920 . S
O372 C345 1.289 . S
C373 O365 1.258 . S
C373 O366 1.266 . S
Co374 O377 1.970 . S
Co374 N391 1.989 . S
Co374 O399 1.967 . S
Co374 O406 1.920 . S
Co375 O378 1.966 . S
Co375 N384 2.022 . S
Co375 N392 1.993 . S
Co375 O400 1.941 . S
C376 O377 1.258 . S
C376 O378 1.263 . S
O377 Co374 1.970 . S
O377 C376 1.258 . S
O378 Co375 1.966 . S
O378 C376 1.263 . S
C379 O380 1.235 . S
C379 O406 1.289 . S
O380 C379 1.235 . S
C381 C383 1.400 . S
C381 N384 1.351 . S
C381 C386 1.501 . S
C382 C383 1.387 . S
C382 N385 1.341 . S
C383 C381 1.400 . S
C383 C382 1.387 . S
N384 Co375 2.022 . S
N384 C381 1.351 . S
N384 N385 1.365 . S
N385 C382 1.341 . S
N385 N384 1.365 . S
N385 H405 0.862 . S
C386 C381 1.501 . S
C386 H387 0.961 . S
C386 H388 0.961 . S
C386 H389 0.960 . S
H387 C386 0.961 . S
H388 C386 0.961 . S
H389 C386 0.960 . S
C390 N391 1.342 . S
C390 C394 1.401 . S
C390 C395 1.499 . S
N391 Co374 1.989 . S
N391 C390 1.342 . S
N391 N392 1.388 . S
N392 Co375 1.993 . S
N392 N391 1.388 . S
N392 C393 1.346 . S
C393 N392 1.346 . S
C393 C394 1.396 . S
C393 C403 1.510 . S
C394 C390 1.401 . S
C394 C393 1.396 . S
C395 C390 1.499 . S
C395 H396 0.959 . S
C395 H397 0.960 . S
C395 H398 0.961 . S
H396 C395 0.959 . S
H397 C395 0.960 . S
H398 C395 0.961 . S
O399 Co374 1.967 . S
O399 C407 1.258 . S
O400 Co375 1.941 . S
O400 C407 1.266 . S
H401 C403 0.959 . S
H402 C403 0.961 . S
C403 C393 1.510 . S
C403 H401 0.959 . S
C403 H402 0.961 . S
C403 H404 0.960 . S
H404 C403 0.960 . S
H405 N385 0.862 . S
O406 Co374 1.920 . S
O406 C379 1.289 . S
C407 O399 1.258 . S
C407 O400 1.266 . S
H408 C414 0.930 . S
H409 C418 0.930 . S
H410 C423 0.929 . S
H411 C421 0.929 . S
H412 C416 0.929 . S
H413 C422 0.929 . S
C414 H408 0.930 . S
C414 C415 1.367 . S
C414 C422 1.378 . S
C415 C414 1.367 . S
C415 C423 1.433 1_554 S
C416 H412 0.929 . S
C416 C418 1.378 . S
C416 C420 1.350 1_556 S
C417 C420 1.463 1_545 S
C417 C422 1.350 . S
C417 N425 1.427 1_554 S
C418 H409 0.930 . S
C418 C416 1.378 . S
C418 C419 1.367 1_556 S
C419 C418 1.367 1_554 S
C419 C421 1.433 . S
C420 C416 1.350 1_554 S
C420 C417 1.463 1_565 S
C420 N424 1.427 . S
C421 H411 0.929 . S
C421 C419 1.433 . S
C421 N424 1.384 . S
C422 H413 0.929 . S
C422 C414 1.378 . S
C422 C417 1.350 . S
C423 H410 0.929 . S
C423 C415 1.433 1_556 S
C423 N425 1.384 . S
N424 C420 1.427 . S
N424 C421 1.384 . S
N425 C417 1.427 1_556 S
N425 C423 1.384 . S
H426 C432 0.930 . S
H427 C436 0.930 . S
H428 C441 0.929 . S
H429 C439 0.929 . S
H430 C434 0.929 . S
H431 C440 0.929 . S
C432 H426 0.930 . S
C432 C433 1.367 . S
C432 C440 1.378 . S
C433 C432 1.367 . S
C433 C441 1.433 . S
C434 H430 0.929 . S
C434 C436 1.378 . S
C434 C438 1.350 . S
C435 C438 1.463 . S
C435 C440 1.350 . S
C435 N443 1.427 . S
C436 H427 0.930 . S
C436 C434 1.378 . S
C436 C437 1.367 . S
C437 C436 1.367 . S
C437 C439 1.433 . S
C438 C434 1.350 . S
C438 C435 1.463 . S
C438 N442 1.427 . S
C439 H429 0.929 . S
C439 C437 1.433 . S
C439 N442 1.384 . S
C440 H431 0.929 . S
C440 C432 1.378 . S
C440 C435 1.350 . S
C441 H428 0.929 . S
C441 C433 1.433 . S
C441 N443 1.384 . S
N442 C438 1.427 . S
N442 C439 1.384 . S
N443 C435 1.427 . S
N443 C441 1.384 . S
H444 C450 0.930 . S
H445 C454 0.930 . S
H446 C459 0.929 . S
H447 C457 0.929 . S
H448 C452 0.929 . S
H449 C458 0.939 . S
C450 H444 0.930 . S
C450 C451 1.367 . S
C450 C458 1.378 . S
C451 C450 1.367 . S
C451 C459 1.433 1_554 S
C452 H448 0.929 . S
C452 C454 1.378 . S
C452 C456 1.350 1_556 S
C453 C456 1.463 1_455 S
C453 C458 1.350 . S
C453 N461 1.427 1_554 S
C454 H445 0.930 . S
C454 C452 1.378 . S
C454 C455 1.367 1_556 S
C455 C454 1.367 1_554 S
C455 C457 1.433 . S
C456 C452 1.350 1_554 S
C456 C453 1.463 1_655 S
C456 N460 1.427 . S
C457 H447 0.929 . S
C457 C455 1.433 . S
C457 N460 1.384 . S
C458 H449 0.939 . S
C458 C450 1.378 . S
C458 C453 1.350 . S
C459 H446 0.929 . S
C459 C451 1.433 1_556 S
C459 N461 1.384 . S
N460 C456 1.427 . S
N460 C457 1.384 . S
N461 C453 1.427 1_556 S
N461 C459 1.384 . S
H462 C468 0.930 . S
H463 C472 0.930 . S
H464 C477 0.929 . S
H465 C475 0.929 . S
H466 C470 0.929 . S
H467 C476 0.929 . S
C468 H462 0.930 . S
C468 C469 1.367 . S
C468 C476 1.378 . S
C469 C468 1.367 . S
C469 C477 1.433 . S
C470 H466 0.929 . S
C470 C472 1.378 . S
C470 C474 1.350 1_655 S
C471 C474 1.463 . S
C471 C476 1.350 . S
C471 N479 1.427 . S
C472 H463 0.930 . S
C472 C470 1.378 . S
C472 C473 1.367 . S
C473 C472 1.367 . S
C473 C475 1.433 . S
C474 C470 1.350 1_455 S
C474 C471 1.463 . S
C474 N478 1.427 1_455 S
C475 H465 0.929 . S
C475 C473 1.433 . S
C475 N478 1.384 . S
C476 H467 0.929 . S
C476 C468 1.378 . S
C476 C471 1.350 . S
C477 H464 0.929 . S
C477 C469 1.433 . S
C477 N479 1.384 . S
N478 C474 1.427 1_655 S
N478 C475 1.384 . S
N479 C471 1.427 . S
N479 C477 1.384 . S
H480 C486 0.930 . S
H481 C490 0.930 . S
H482 C495 0.929 . S
H483 C493 0.929 . S
H484 C488 0.929 . S
H485 C494 0.929 . S
C486 H480 0.930 . S
C486 C487 1.367 . S
C486 C494 1.378 . S
C487 C486 1.367 . S
C487 C495 1.433 . S
C488 H484 0.929 . S
C488 C490 1.378 . S
C488 C492 1.350 . S
C489 C492 1.463 . S
C489 C494 1.350 1_565 S
C489 N497 1.427 . S
C490 H481 0.930 . S
C490 C488 1.378 . S
C490 C491 1.367 . S
C491 C490 1.367 . S
C491 C493 1.433 . S
C492 C488 1.350 . S
C492 C489 1.463 . S
C492 N496 1.427 . S
C493 H483 0.929 . S
C493 C491 1.433 . S
C493 N496 1.384 . S
C494 H485 0.929 . S
C494 C486 1.378 . S
C494 C489 1.350 1_545 S
C495 H482 0.929 . S
C495 C487 1.433 . S
C495 N497 1.384 1_545 S
N496 C492 1.427 . S
N496 C493 1.384 . S
N497 C489 1.427 . S
N497 C495 1.384 1_565 S
H498 C504 0.930 . S
H499 C508 0.930 . S
H500 C513 0.929 . S
H501 C511 0.929 . S
H502 C506 0.929 . S
H503 C512 0.929 . S
C504 H498 0.930 . S
C504 C505 1.367 . S
C504 C512 1.378 . S
C505 C504 1.367 . S
C505 C513 1.433 . S
C506 H502 0.929 . S
C506 C508 1.378 . S
C506 C510 1.350 . S
C507 C510 1.463 . S
C507 C512 1.350 . S
C507 N515 1.427 . S
C508 H499 0.930 . S
C508 C506 1.378 . S
C508 C509 1.367 . S
C509 C508 1.367 . S
C509 C511 1.433 . S
C510 C506 1.350 . S
C510 C507 1.463 . S
C510 N514 1.427 . S
C511 H501 0.929 . S
C511 C509 1.433 . S
C511 N514 1.384 . S
C512 H503 0.929 . S
C512 C504 1.378 . S
C512 C507 1.350 . S
C513 H500 0.929 . S
C513 C505 1.433 . S
C513 N515 1.384 . S
N514 C510 1.427 . S
N514 C511 1.384 . S
N515 C507 1.427 . S
N515 C513 1.384 . S
H516 C522 0.930 . S
H517 C526 0.930 . S
H518 C531 0.929 . S
H519 C529 0.929 . S
H520 C524 0.929 . S
H521 C530 0.929 . S
C522 H516 0.930 . S
C522 C523 1.367 1_556 S
C522 C530 1.378 1_545 S
C523 C522 1.367 1_554 S
C523 C531 1.433 . S
C524 H520 0.929 . S
C524 C526 1.378 . S
C524 C528 1.350 . S
C525 C528 1.463 . S
C525 C530 1.350 1_554 S
C525 N533 1.427 . S
C526 H517 0.930 . S
C526 C524 1.378 . S
C526 C527 1.367 . S
C527 C526 1.367 . S
C527 C529 1.433 1_554 S
C528 C524 1.350 . S
C528 C525 1.463 . S
C528 N532 1.427 1_554 S
C529 H519 0.929 . S
C529 C527 1.433 1_556 S
C529 N532 1.384 . S
C530 H521 0.929 . S
C530 C522 1.378 1_565 S
C530 C525 1.350 1_556 S
C531 H518 0.929 . S
C531 C523 1.433 . S
C531 N533 1.384 1_545 S
N532 C528 1.427 1_556 S
N532 C529 1.384 . S
N533 C525 1.427 . S
N533 C531 1.384 1_565 S
H534 C540 0.930 . S
H535 C544 0.930 . S
H536 C549 0.929 . S
H537 C547 0.929 1_556 S
H538 C542 0.929 . S
H539 C548 0.929 . S
C540 H534 0.930 . S
C540 C541 1.367 1_556 S
C540 C548 1.378 . S
C541 C540 1.367 1_554 S
C541 C549 1.433 . S
C542 H538 0.929 . S
C542 C544 1.378 . S
C542 C546 1.350 . S
C543 C546 1.463 . S
C543 C548 1.350 1_554 S
C543 N551 1.427 . S
C544 H535 0.930 . S
C544 C542 1.378 . S
C544 C545 1.367 . S
C545 C544 1.367 . S
C545 C547 1.433 . S
C546 C542 1.350 . S
C546 C543 1.463 . S
C546 N550 1.427 . S
C547 H537 0.929 1_554 S
C547 C545 1.433 . S
C547 N550 1.384 . S
C548 H539 0.929 . S
C548 C540 1.378 . S
C548 C543 1.350 1_556 S
C549 H536 0.929 . S
C549 C541 1.433 . S
C549 N551 1.384 . S
N550 C546 1.427 . S
N550 C547 1.384 . S
N551 C543 1.427 . S
N551 C549 1.384 . S
H552 C558 0.930 . S
H553 C562 0.930 . S
H554 C567 0.929 . S
H555 C565 0.929 . S
H556 C560 0.929 . S
H557 C566 0.929 . S
C558 H552 0.930 . S
C558 C559 1.367 . S
C558 C566 1.378 1_655 S
C559 C558 1.367 . S
C559 C567 1.433 . S
C560 H556 0.929 . S
C560 C562 1.378 . S
C560 C564 1.350 . S
C561 C564 1.463 . S
C561 C566 1.350 . S
C561 N569 1.427 . S
C562 H553 0.930 . S
C562 C560 1.378 . S
C562 C563 1.367 . S
C563 C562 1.367 . S
C563 C565 1.433 . S
C564 C560 1.350 . S
C564 C561 1.463 . S
C564 N568 1.427 . S
C565 H555 0.929 . S
C565 C563 1.433 . S
C565 N568 1.384 . S
C566 H557 0.929 . S
C566 C558 1.378 1_455 S
C566 C561 1.350 . S
C567 H554 0.929 . S
C567 C559 1.433 . S
C567 N569 1.384 1_655 S
N568 C564 1.427 . S
N568 C565 1.384 . S
N569 C561 1.427 . S
N569 C567 1.384 1_455 S
H570 C576 0.930 1_556 S
H571 C580 0.930 . S
H572 C585 0.929 . S
H573 C583 0.929 . S
H574 C578 0.929 . S
H575 C584 0.929 . S
C576 H570 0.930 1_554 S
C576 C577 1.367 . S
C576 C584 1.378 . S
C577 C576 1.367 . S
C577 C585 1.433 . S
C578 H574 0.929 . S
C578 C580 1.378 1_545 S
C578 C582 1.350 . S
C579 C582 1.463 . S
C579 C584 1.350 . S
C579 N587 1.427 . S
C580 H571 0.930 . S
C580 C578 1.378 1_565 S
C580 C581 1.367 . S
C581 C580 1.367 . S
C581 C583 1.433 . S
C582 C578 1.350 . S
C582 C579 1.463 . S
C582 N586 1.427 . S
C583 H573 0.929 . S
C583 C581 1.433 . S
C583 N586 1.384 1_565 S
C584 H575 0.929 . S
C584 C576 1.378 . S
C584 C579 1.350 . S
C585 H572 0.929 . S
C585 C577 1.433 . S
C585 N587 1.384 . S
N586 C582 1.427 . S
N586 C583 1.384 1_545 S
N587 C579 1.427 . S
N587 C585 1.384 . S
H588 C594 0.930 . S
H589 C598 0.930 . S
H590 C603 0.929 . S
H591 C601 0.929 . S
H592 C596 0.929 . S
H593 C602 0.929 . S
C594 H588 0.930 . S
C594 C595 1.367 . S
C594 C602 1.378 . S
C595 C594 1.367 . S
C595 C603 1.433 1_554 S
C596 H592 0.929 . S
C596 C598 1.378 . S
C596 C600 1.350 1_556 S
C597 C600 1.463 . S
C597 C602 1.350 . S
C597 N605 1.427 1_554 S
C598 H589 0.930 . S
C598 C596 1.378 . S
C598 C599 1.367 1_556 S
C599 C598 1.367 1_554 S
C599 C601 1.433 . S
C600 C596 1.350 1_554 S
C600 C597 1.463 . S
C600 N604 1.427 . S
C601 H591 0.929 . S
C601 C599 1.433 . S
C601 N604 1.384 . S
C602 H593 0.929 . S
C602 C594 1.378 . S
C602 C597 1.350 . S
C603 H590 0.929 . S
C603 C595 1.433 1_556 S
C603 N605 1.384 . S
N604 C600 1.427 . S
N604 C601 1.384 . S
N605 C597 1.427 1_556 S
N605 C603 1.384 . S
H606 C612 0.930 . S
H607 C616 0.930 . S
H608 C621 0.929 . S
H609 C619 0.929 . S
H610 C614 0.929 . S
H611 C620 0.929 . S
C612 H606 0.930 . S
C612 C613 1.367 1_556 S
C612 C620 1.378 . S
C613 C612 1.367 1_554 S
C613 C621 1.433 . S
C614 H610 0.929 . S
C614 C616 1.378 1_655 S
C614 C618 1.350 . S
C615 C618 1.463 . S
C615 C620 1.350 1_554 S
C615 N623 1.427 . S
C616 H607 0.930 . S
C616 C614 1.378 1_455 S
C616 C617 1.367 . S
C617 C616 1.367 . S
C617 C619 1.433 1_554 S
C618 C614 1.350 . S
C618 C615 1.463 . S
C618 N622 1.427 1_554 S
C619 H609 0.929 . S
C619 C617 1.433 1_556 S
C619 N622 1.384 1_455 S
C620 H611 0.929 . S
C620 C612 1.378 . S
C620 C615 1.350 1_556 S
C621 H608 0.929 . S
C621 C613 1.433 . S
C621 N623 1.384 . S
N622 C618 1.427 1_556 S
N622 C619 1.384 1_655 S
N623 C615 1.427 . S
N623 C621 1.384 . S
H624 C630 0.930 . S
H625 C634 0.930 . S
H626 C639 0.929 . S
H627 C637 0.929 . S
H628 C632 0.929 1_455 S
H629 C638 0.929 . S
C630 H624 0.930 . S
C630 C631 1.367 . S
C630 C638 1.378 . S
C631 C630 1.367 . S
C631 C639 1.433 . S
C632 H628 0.929 1_655 S
C632 C634 1.378 . S
C632 C636 1.350 1_655 S
C633 C636 1.463 . S
C633 C638 1.350 . S
C633 N641 1.427 . S
C634 H625 0.930 . S
C634 C632 1.378 . S
C634 C635 1.367 . S
C635 C634 1.367 . S
C635 C637 1.433 . S
C636 C632 1.350 1_455 S
C636 C633 1.463 . S
C636 N640 1.427 1_455 S
C637 H627 0.929 . S
C637 C635 1.433 . S
C637 N640 1.384 . S
C638 H629 0.929 . S
C638 C630 1.378 . S
C638 C633 1.350 . S
C639 H626 0.929 . S
C639 C631 1.433 . S
C639 N641 1.384 . S
N640 C636 1.427 1_655 S
N640 C637 1.384 . S
N641 C633 1.427 . S
N641 C639 1.384 . S
H642 C648 0.930 . S
H643 C652 0.930 . S
H644 C657 0.929 . S
H645 C655 0.929 . S
H646 C650 0.929 . S
H647 C656 0.929 . S
C648 H642 0.930 . S
C648 C649 1.367 . S
C648 C656 1.378 . S
C649 C648 1.367 . S
C649 C657 1.433 . S
C650 H646 0.929 . S
C650 C652 1.378 . S
C650 C654 1.350 . S
C651 C654 1.463 1_545 S
C651 C656 1.350 . S
C651 N659 1.427 . S
C652 H643 0.930 . S
C652 C650 1.378 . S
C652 C653 1.367 . S
C653 C652 1.367 . S
C653 C655 1.433 . S
C654 C650 1.350 . S
C654 C651 1.463 1_565 S
C654 N658 1.427 . S
C655 H645 0.929 . S
C655 C653 1.433 . S
C655 N658 1.384 . S
C656 H647 0.929 . S
C656 C648 1.378 . S
C656 C651 1.350 . S
C657 H644 0.929 . S
C657 C649 1.433 . S
C657 N659 1.384 . S
N658 C654 1.427 . S
N658 C655 1.384 . S
N659 C651 1.427 . S
N659 C657 1.384 . S
H660 C666 0.930 . S
H661 C670 0.930 . S
H662 C675 0.929 . S
H663 C673 0.929 . S
H664 C668 0.929 . S
H665 C674 0.929 . S
C666 H660 0.930 . S
C666 C667 1.367 . S
C666 C674 1.378 . S
C667 C666 1.367 . S
C667 C675 1.433 . S
C668 H664 0.929 . S
C668 C670 1.378 . S
C668 C672 1.350 . S
C669 C672 1.463 . S
C669 C674 1.350 . S
C669 N677 1.427 . S
C670 H661 0.930 . S
C670 C668 1.378 . S
C670 C671 1.367 . S
C671 C670 1.367 . S
C671 C673 1.433 . S
C672 C668 1.350 . S
C672 C669 1.463 . S
C672 N676 1.427 . S
C673 H663 0.929 . S
C673 C671 1.433 . S
C673 N676 1.384 . S
C674 H665 0.929 . S
C674 C666 1.378 . S
C674 C669 1.350 . S
C675 H662 0.929 . S
C675 C667 1.433 . S
C675 N677 1.384 . S
N676 C672 1.427 . S
N676 C673 1.384 . S
N677 C669 1.427 . S
N677 C675 1.384 . S
H678 C684 0.930 . S
H679 C688 0.930 . S
H680 C693 0.929 . S
H681 C691 0.929 . S
H682 C686 0.929 . S
H683 C692 0.929 . S
C684 H678 0.930 . S
C684 C685 1.367 . S
C684 C692 1.378 . S
C685 C684 1.367 . S
C685 C693 1.433 . S
C686 H682 0.929 . S
C686 C688 1.378 . S
C686 C690 1.350 . S
C687 C690 1.463 1_455 S
C687 C692 1.350 . S
C687 N695 1.427 . S
C688 H679 0.930 . S
C688 C686 1.378 . S
C688 C689 1.367 . S
C689 C688 1.367 . S
C689 C691 1.433 . S
C690 C686 1.350 . S
C690 C687 1.463 1_655 S
C690 N694 1.427 . S
C691 H681 0.929 . S
C691 C689 1.433 . S
C691 N694 1.384 . S
C692 H683 0.929 . S
C692 C684 1.378 . S
C692 C687 1.350 . S
C693 H680 0.929 . S
C693 C685 1.433 . S
C693 N695 1.384 . S
N694 C690 1.427 . S
N694 C691 1.384 . S
N695 C687 1.427 . S
N695 C693 1.384 . S
H696 C702 0.930 . S
H697 C706 0.930 . S
H698 C711 0.929 . S
H699 C709 0.929 . S
H700 C704 0.929 . S
H701 C710 0.929 . S
C702 H696 0.930 . S
C702 C703 1.367 . S
C702 C710 1.378 . S
C703 C702 1.367 . S
C703 C711 1.433 . S
C704 H700 0.929 . S
C704 C706 1.378 . S
C704 C708 1.350 . S
C705 C708 1.463 . S
C705 C710 1.350 1_565 S
C705 N713 1.427 1_565 S
C706 H697 0.930 . S
C706 C704 1.378 . S
C706 C707 1.367 . S
C707 C706 1.367 . S
C707 C709 1.433 . S
C708 C704 1.350 . S
C708 C705 1.463 . S
C708 N712 1.427 . S
C709 H699 0.929 . S
C709 C707 1.433 . S
C709 N712 1.384 . S
C710 H701 0.929 . S
C710 C702 1.378 . S
C710 C705 1.350 1_545 S
C711 H698 0.929 . S
C711 C703 1.433 . S
C711 N713 1.384 . S
N712 C708 1.427 . S
N712 C709 1.384 . S
N713 C705 1.427 1_545 S
N713 C711 1.384 . S
H714 C720 0.930 . S
H715 C724 0.930 . S
H716 C729 0.929 . S
H717 C727 0.929 . S
H718 C722 0.929 . S
H719 C728 0.929 . S
C720 H714 0.930 . S
C720 C721 1.367 . S
C720 C728 1.378 . S
C721 C720 1.367 . S
C721 C729 1.433 . S
C722 H718 0.929 . S
C722 C724 1.378 . S
C722 C726 1.350 . S
C723 C726 1.463 . S
C723 C728 1.350 . S
C723 N731 1.427 . S
C724 H715 0.930 . S
C724 C722 1.378 . S
C724 C725 1.367 . S
C725 C724 1.367 . S
C725 C727 1.433 . S
C726 C722 1.350 . S
C726 C723 1.463 . S
C726 N730 1.427 . S
C727 H717 0.929 . S
C727 C725 1.433 . S
C727 N730 1.384 . S
C728 H719 0.929 . S
C728 C720 1.378 . S
C728 C723 1.350 . S
C729 H716 0.929 . S
C729 C721 1.433 . S
C729 N731 1.384 . S
N730 C726 1.427 . S
N730 C727 1.384 . S
N731 C723 1.427 . S
N731 C729 1.384 . S
H732 C738 0.930 . S
H733 C742 0.930 . S
H734 C747 0.929 . S
H735 C745 0.929 . S
H736 C740 0.929 . S
H737 C746 0.929 . S
C738 H732 0.930 . S
C738 C739 1.367 . S
C738 C746 1.378 . S
C739 C738 1.367 . S
C739 C747 1.433 . S
C740 H736 0.929 . S
C740 C742 1.378 . S
C740 C744 1.350 . S
C741 C744 1.463 . S
C741 C746 1.350 . S
C741 N749 1.427 . S
C742 H733 0.930 . S
C742 C740 1.378 . S
C742 C743 1.367 . S
C743 C742 1.367 . S
C743 C745 1.433 . S
C744 C740 1.350 . S
C744 C741 1.463 . S
C744 N748 1.427 . S
C745 H735 0.929 . S
C745 C743 1.433 . S
C745 N748 1.384 . S
C746 H737 0.929 . S
C746 C738 1.378 . S
C746 C741 1.350 . S
C747 H734 0.929 . S
C747 C739 1.433 . S
C747 N749 1.384 . S
N748 C744 1.427 . S
N748 C745 1.384 . S
N749 C741 1.427 . S
N749 C747 1.384 . S
H750 C756 0.930 . S
H751 C760 0.930 . S
H752 C765 0.929 . S
H753 C763 0.929 . S
H754 C758 0.929 . S
H755 C764 0.929 . S
C756 H750 0.930 . S
C756 C757 1.367 . S
C756 C764 1.378 . S
C757 C756 1.367 . S
C757 C765 1.433 . S
C758 H754 0.929 . S
C758 C760 1.378 . S
C758 C762 1.350 . S
C759 C762 1.463 . S
C759 C764 1.350 . S
C759 N767 1.427 . S
C760 H751 0.930 . S
C760 C758 1.378 . S
C760 C761 1.367 . S
C761 C760 1.367 . S
C761 C763 1.433 . S
C762 C758 1.350 . S
C762 C759 1.463 . S
C762 N766 1.427 . S
C763 H753 0.929 . S
C763 C761 1.433 . S
C763 N766 1.384 . S
C764 H755 0.929 . S
C764 C756 1.378 . S
C764 C759 1.350 . S
C765 H752 0.929 . S
C765 C757 1.433 . S
C765 N767 1.384 . S
N766 C762 1.427 . S
N766 C763 1.384 . S
N767 C759 1.427 . S
N767 C765 1.384 . S
H768 C774 0.930 . S
H769 C778 0.930 . S
H770 C783 0.929 . S
H771 C781 0.929 . S
H772 C776 0.929 . S
H773 C782 0.929 . S
C774 H768 0.930 . S
C774 C775 1.367 . S
C774 C782 1.378 . S
C775 C774 1.367 . S
C775 C783 1.433 . S
C776 H772 0.929 . S
C776 C778 1.378 . S
C776 C780 1.350 . S
C777 C780 1.463 . S
C777 C782 1.350 . S
C777 N785 1.427 . S
C778 H769 0.930 . S
C778 C776 1.378 . S
C778 C779 1.367 . S
C779 C778 1.367 . S
C779 C781 1.433 . S
C780 C776 1.350 . S
C780 C777 1.463 . S
C780 N784 1.427 . S
C781 H771 0.929 . S
C781 C779 1.433 . S
C781 N784 1.384 . S
C782 H773 0.929 . S
C782 C774 1.378 . S
C782 C777 1.350 . S
C783 H770 0.929 . S
C783 C775 1.433 . S
C783 N785 1.384 . S
N784 C780 1.427 . S
N784 C781 1.384 . S
N785 C777 1.427 . S
N785 C783 1.384 . S
H786 C792 0.930 . S
H787 C796 0.930 . S
H788 C801 0.929 . S
H789 C799 0.929 . S
H790 C794 0.929 . S
H791 C800 0.929 . S
C792 H786 0.930 . S
C792 C793 1.367 . S
C792 C800 1.378 . S
C793 C792 1.367 . S
C793 C801 1.433 . S
C794 H790 0.929 . S
C794 C796 1.378 . S
C794 C798 1.350 . S
C795 C798 1.463 . S
C795 C800 1.350 . S
C795 N803 1.427 . S
C796 H787 0.930 . S
C796 C794 1.378 . S
C796 C797 1.367 . S
C797 C796 1.367 . S
C797 C799 1.433 . S
C798 C794 1.350 . S
C798 C795 1.463 . S
C798 N802 1.427 . S
C799 H789 0.929 . S
C799 C797 1.433 . S
C799 N802 1.384 . S
C800 H791 0.929 . S
C800 C792 1.378 . S
C800 C795 1.350 . S
C801 H788 0.929 . S
C801 C793 1.433 . S
C801 N803 1.384 . S
N802 C798 1.427 . S
N802 C799 1.384 . S
N803 C795 1.427 . S
N803 C801 1.384 . S
H804 C810 0.930 . S
H805 C814 0.930 . S
H806 C819 0.929 . S
H807 C817 0.929 . S
H808 C812 0.929 . S
H809 C818 0.929 . S
C810 H804 0.930 . S
C810 C811 1.367 . S
C810 C818 1.378 . S
C811 C810 1.367 . S
C811 C819 1.433 . S
C812 H808 0.929 . S
C812 C814 1.378 . S
C812 C816 1.350 . S
C813 C816 1.463 . S
C813 C818 1.350 . S
C813 N821 1.427 . S
C814 H805 0.930 . S
C814 C812 1.378 . S
C814 C815 1.367 . S
C815 C814 1.367 . S
C815 C817 1.433 . S
C816 C812 1.350 . S
C816 C813 1.463 . S
C816 N820 1.427 . S
C817 H807 0.929 . S
C817 C815 1.433 . S
C817 N820 1.384 . S
C818 H809 0.929 . S
C818 C810 1.378 . S
C818 C813 1.350 . S
C819 H806 0.929 . S
C819 C811 1.433 . S
C819 N821 1.384 . S
N820 C816 1.427 . S
N820 C817 1.384 . S
N821 C813 1.427 . S
N821 C819 1.384 . S
H822 C828 0.930 . S
H823 C832 0.930 . S
H824 C837 0.929 . S
H825 C835 0.929 . S
H826 C830 0.929 . S
H827 C836 0.929 . S
C828 H822 0.930 . S
C828 C829 1.367 . S
C828 C836 1.378 . S
C829 C828 1.367 . S
C829 C837 1.433 . S
C830 H826 0.929 . S
C830 C832 1.378 . S
C830 C834 1.350 . S
C831 C834 1.463 . S
C831 C836 1.350 . S
C831 N839 1.427 . S
C832 H823 0.930 . S
C832 C830 1.378 . S
C832 C833 1.367 . S
C833 C832 1.367 . S
C833 C835 1.433 . S
C834 C830 1.350 . S
C834 C831 1.463 . S
C834 N838 1.427 . S
C835 H825 0.929 . S
C835 C833 1.433 . S
C835 N838 1.384 . S
C836 H827 0.929 . S
C836 C828 1.378 . S
C836 C831 1.350 . S
C837 H824 0.929 . S
C837 C829 1.433 . S
C837 N839 1.384 . S
N838 C834 1.427 . S
N838 C835 1.384 . S
N839 C831 1.427 . S
N839 C837 1.384 . S
H840 C846 0.930 . S
H841 C850 0.930 . S
H842 C855 0.929 . S
H843 C853 0.929 . S
H844 C848 0.929 . S
H845 C854 0.929 . S
C846 H840 0.930 . S
C846 C847 1.367 . S
C846 C854 1.378 . S
C847 C846 1.367 . S
C847 C855 1.433 . S
C848 H844 0.929 . S
C848 C850 1.378 . S
C848 C852 1.350 . S
C849 C852 1.463 . S
C849 C854 1.350 . S
C849 N857 1.427 . S
C850 H841 0.930 . S
C850 C848 1.378 . S
C850 C851 1.367 . S
C851 C850 1.367 . S
C851 C853 1.433 . S
C852 C848 1.350 . S
C852 C849 1.463 . S
C852 N856 1.427 . S
C853 H843 0.929 . S
C853 C851 1.433 . S
C853 N856 1.384 . S
C854 H845 0.929 . S
C854 C846 1.378 . S
C854 C849 1.350 . S
C855 H842 0.929 . S
C855 C847 1.433 . S
C855 N857 1.384 . S
N856 C852 1.427 . S
N856 C853 1.384 . S
N857 C849 1.427 . S
N857 C855 1.384 . S
H858 C864 0.930 . S
H859 C868 0.930 . S
H860 C873 0.929 . S
H861 C871 0.929 . S
H862 C866 0.929 . S
H863 C872 0.929 . S
C864 H858 0.930 . S
C864 C865 1.367 . S
C864 C872 1.378 . S
C865 C864 1.367 . S
C865 C873 1.433 . S
C866 H862 0.929 . S
C866 C868 1.378 . S
C866 C870 1.350 . S
C867 C870 1.463 . S
C867 C872 1.350 . S
C867 N875 1.427 . S
C868 H859 0.930 . S
C868 C866 1.378 . S
C868 C869 1.367 . S
C869 C868 1.367 . S
C869 C871 1.433 . S
C870 C866 1.350 . S
C870 C867 1.463 . S
C870 N874 1.427 . S
C871 H861 0.929 . S
C871 C869 1.433 . S
C871 N874 1.384 . S
C872 H863 0.929 . S
C872 C864 1.378 . S
C872 C867 1.350 . S
C873 H860 0.929 . S
C873 C865 1.433 . S
C873 N875 1.384 . S
N874 C870 1.427 . S
N874 C871 1.384 . S
N875 C867 1.427 . S
N875 C873 1.384 . S
H876 C882 0.930 . S
H877 C886 0.930 . S
H878 C891 0.929 . S
H879 C889 0.929 . S
H880 C884 0.929 . S
H881 C890 0.929 . S
C882 H876 0.930 . S
C882 C883 1.367 . S
C882 C890 1.378 . S
C883 C882 1.367 . S
C883 C891 1.433 . S
C884 H880 0.929 . S
C884 C886 1.378 . S
C884 C888 1.350 . S
C885 C888 1.463 . S
C885 C890 1.350 . S
C885 N893 1.427 . S
C886 H877 0.930 . S
C886 C884 1.378 . S
C886 C887 1.367 . S
C887 C886 1.367 . S
C887 C889 1.433 . S
C888 C884 1.350 . S
C888 C885 1.463 . S
C888 N892 1.427 . S
C889 H879 0.929 . S
C889 C887 1.433 . S
C889 N892 1.384 . S
C890 H881 0.929 . S
C890 C882 1.378 . S
C890 C885 1.350 . S
C891 H878 0.929 . S
C891 C883 1.433 . S
C891 N893 1.384 . S
N892 C888 1.427 . S
N892 C889 1.384 . S
N893 C885 1.427 . S
N893 C891 1.384 . S
H894 C900 0.930 . S
H895 C904 0.930 . S
H896 C909 0.929 . S
H897 C907 0.929 . S
H898 C902 0.929 . S
H899 C908 0.929 . S
C900 H894 0.930 . S
C900 C901 1.367 . S
C900 C908 1.378 . S
C901 C900 1.367 . S
C901 C909 1.433 . S
C902 H898 0.929 . S
C902 C904 1.378 . S
C902 C906 1.350 . S
C903 C906 1.463 . S
C903 C908 1.350 . S
C903 N911 1.427 . S
C904 H895 0.930 . S
C904 C902 1.378 . S
C904 C905 1.367 . S
C905 C904 1.367 . S
C905 C907 1.433 . S
C906 C902 1.350 . S
C906 C903 1.463 . S
C906 N910 1.427 . S
C907 H897 0.929 . S
C907 C905 1.433 . S
C907 N910 1.384 . S
C908 H899 0.929 . S
C908 C900 1.378 . S
C908 C903 1.350 . S
C909 H896 0.929 . S
C909 C901 1.433 . S
C909 N911 1.384 . S
N910 C906 1.427 . S
N910 C907 1.384 . S
N911 C903 1.427 . S
N911 C909 1.384 . S
H912 C918 0.930 . S
H913 C922 0.930 . S
H914 C927 0.929 . S
H915 C925 0.929 . S
H916 C920 0.929 . S
H917 C926 0.929 . S
C918 H912 0.930 . S
C918 C919 1.367 . S
C918 C926 1.378 . S
C919 C918 1.367 . S
C919 C927 1.433 . S
C920 H916 0.929 . S
C920 C922 1.378 . S
C920 C924 1.350 . S
C921 C924 1.463 . S
C921 C926 1.350 . S
C921 N929 1.427 . S
C922 H913 0.930 . S
C922 C920 1.378 . S
C922 C923 1.367 . S
C923 C922 1.367 . S
C923 C925 1.433 . S
C924 C920 1.350 . S
C924 C921 1.463 . S
C924 N928 1.427 . S
C925 H915 0.929 . S
C925 C923 1.433 . S
C925 N928 1.384 . S
C926 H917 0.929 . S
C926 C918 1.378 . S
C926 C921 1.350 . S
C927 H914 0.929 . S
C927 C919 1.433 . S
C927 N929 1.384 . S
N928 C924 1.427 . S
N928 C925 1.384 . S
N929 C921 1.427 . S
N929 C927 1.384 . S
H930 C936 0.930 . S
H931 C940 0.930 . S
H932 C945 0.929 . S
H933 C943 0.929 . S
H934 C938 0.929 . S
H935 C944 0.929 . S
C936 H930 0.930 . S
C936 C937 1.367 . S
C936 C944 1.378 . S
C937 C936 1.367 . S
C937 C945 1.433 . S
C938 H934 0.929 . S
C938 C940 1.378 . S
C938 C942 1.350 . S
C939 C942 1.463 . S
C939 C944 1.350 . S
C939 N947 1.427 . S
C940 H931 0.930 . S
C940 C938 1.378 . S
C940 C941 1.367 . S
C941 C940 1.367 . S
C941 C943 1.433 . S
C942 C938 1.350 . S
C942 C939 1.463 . S
C942 N946 1.427 . S
C943 H933 0.929 . S
C943 C941 1.433 . S
C943 N946 1.384 . S
C944 H935 0.929 . S
C944 C936 1.378 . S
C944 C939 1.350 . S
C945 H932 0.929 . S
C945 C937 1.433 . S
C945 N947 1.384 . S
N946 C942 1.427 . S
N946 C943 1.384 . S
N947 C939 1.427 . S
N947 C945 1.384 . S
C415 C2 2.008 . S
C419 C104 2.014 . S
C433 C138 2.001 . S
C437 C36 2.006 . S
C451 C172 2.010 . S
C455 C70 2.007 . S
C469 C308 2.075 . S
C473 C209 2.218 . S
C487 C345 2.218 . S
C491 C240 2.076 . S
C505 C277 2.210 . S
C509 C376 2.061 . S
C523 C33 0.893 . S
C527 C190 0.902 . S
C541 C20 0.634 . S
C545 C67 0.650 . S
C559 C101 0.907 . S
C563 C54 0.910 . S
C577 C88 0.609 . S
C581 C135 0.619 . S
C595 C122 0.906 . S
C599 C169 0.899 . S
C613 C156 0.622 . S
C617 C203 0.636 . S
C631 C258 0.432 . S
C635 C237 0.451 . S
C649 C281 0.500 . S
C653 C271 0.366 . S
C667 C326 0.400 . S
C671 C305 0.418 . S
C685 C339 0.389 . S
C689 C349 0.525 . S
C703 C373 0.436 . S
C707 C394 0.409 . S
C721 C407 0.342 . S
C725 C213 0.476 . S
C739 C292 1.986 . S
C743 C5 1.960 . S
C757 C39 1.407 . S
C761 C311 1.415 . S
C775 C73 1.963 . S
C779 C360 1.991 . S
C793 C107 1.416 . S
C797 C379 1.423 . S
C811 C224 1.992 . S
C815 C141 1.967 . S
C829 C175 1.410 . S
C833 C243 1.419 . S
C847 C383 0.910 . S
C851 C111 0.911 . S
C865 C206 2.393 . S
C869 C145 2.275 . S
C883 C247 0.913 . S
C887 C179 0.903 . S
C901 C9 2.275 . S
C905 C274 2.392 . S
C919 C43 0.904 . S
C923 C315 0.911 . S
C937 C77 2.281 . S
C941 C342 2.392 . S
