# Generated by pormake.
# Topology unh, (4)-cn, num edge types: 1
# Building blocks:
#     Node 0, Type 0, BuildingBlock: CEKHIL_clean_sbu_0, # of connection points: 4
#     Node 1, Type 0, BuildingBlock: CEKHIL_clean_sbu_0, # of connection points: 4
#     Node 2, Type 0, BuildingBlock: CEKHIL_clean_sbu_0, # of connection points: 4
#     Node 3, Type 0, BuildingBlock: CEKHIL_clean_sbu_0, # of connection points: 4
#     Node 4, Type 0, BuildingBlock: CEKHIL_clean_sbu_0, # of connection points: 4
#     Node 5, Type 0, BuildingBlock: CEKHIL_clean_sbu_0, # of connection points: 4
#     Edge 6, Type (0, 0), BuildingBlock: ZUJKAS_clean_linker_0, # of connection points: 2
#     Edge 7, Type (0, 0), BuildingBlock: ZUJKAS_clean_linker_0, # of connection points: 2
#     Edge 8, Type (0, 0), BuildingBlock: ZUJKAS_clean_linker_0, # of connection points: 2
#     Edge 9, Type (0, 0), BuildingBlock: ZUJKAS_clean_linker_0, # of connection points: 2
#     Edge 10, Type (0, 0), BuildingBlock: ZUJKAS_clean_linker_0, # of connection points: 2
#     Edge 11, Type (0, 0), BuildingBlock: ZUJKAS_clean_linker_0, # of connection points: 2
#     Edge 12, Type (0, 0), BuildingBlock: ZUJKAS_clean_linker_0, # of connection points: 2
#     Edge 13, Type (0, 0), BuildingBlock: ZUJKAS_clean_linker_0, # of connection points: 2
#     Edge 14, Type (0, 0), BuildingBlock: ZUJKAS_clean_linker_0, # of connection points: 2
#     Edge 15, Type (0, 0), BuildingBlock: ZUJKAS_clean_linker_0, # of connection points: 2
#     Edge 16, Type (0, 0), BuildingBlock: ZUJKAS_clean_linker_0, # of connection points: 2
#     Edge 17, Type (0, 0), BuildingBlock: ZUJKAS_clean_linker_0, # of connection points: 2
# Relax obj value: 0.073
# Max RMSD: 0.184
# Mean RMSD: 0.184
data_MOF--net-unh--node1-CEKHIL_clean_sbu_0--edge1-ZUJKAS_clean_linker_0
_symmetry_space_group_name_H-M    P1
_symmetry_Int_Tables_number       1
_symmetry_cell_setting            triclinic
loop_
_symmetry_equiv_pos_as_xyz
'x, y, z'
_cell_length_a     54.267421
_cell_length_b     54.283869
_cell_length_c     28.682032
_cell_angle_alpha  90.106286
_cell_angle_beta   89.894608
_cell_angle_gamma 119.9818
loop_
_atom_site_label
_atom_site_type_symbol
_atom_site_fract_x
_atom_site_fract_y
_atom_site_fract_z
_atom_type_partial_charge
Co0 Co 0.1247 0.54317 0.09966 0.0
O1 O 0.09329 0.51788 0.13852 0.0
O2 O 0.10099 0.55968 0.11315 0.0
C3 C 0.15881 0.54106 0.14147 0.0
O4 O 0.15531 0.57535 0.06034 0.0
Co5 Co 0.15919 0.52044 0.04669 0.0
O6 O 0.18401 0.56076 0.02927 0.0
C7 C 0.10409 0.50922 0.00874 0.0
C8 C 0.08561 0.53699 0.13797 0.0
C9 C 0.17721 0.5798 0.03619 0.0
O10 O 0.10181 0.52394 0.04196 0.0
O11 O 0.12463 0.50409 0.00564 0.0
O12 O 0.14936 0.55785 0.15377 0.0
O13 O 0.14542 0.52399 0.10724 0.0
Co14 Co 0.57859 0.12569 0.2671 0.0
O15 O 0.57096 0.09351 0.30514 0.0
O16 O 0.53817 0.10308 0.27938 0.0
C17 C 0.61491 0.15847 0.31044 0.0
O18 O 0.57848 0.15723 0.22867 0.0
Co19 Co 0.63618 0.15976 0.21576 0.0
O20 O 0.62278 0.18703 0.203 0.0
C21 C 0.59248 0.10461 0.17733 0.0
C22 C 0.54447 0.08694 0.30416 0.0
C23 C 0.59681 0.18028 0.20808 0.0
O24 O 0.57488 0.10325 0.20878 0.0
O25 O 0.61857 0.12443 0.17613 0.0
O26 O 0.58871 0.14977 0.32201 0.0
O27 O 0.61839 0.14521 0.27575 0.0
Co28 Co 0.4507 0.57874 0.43495 0.0
O29 O 0.47627 0.57174 0.47147 0.0
O30 O 0.43362 0.53847 0.44756 0.0
C31 C 0.45457 0.61511 0.47861 0.0
O32 O 0.41802 0.57786 0.39836 0.0
Co33 Co 0.47235 0.6359 0.38304 0.0
O34 O 0.43133 0.62196 0.37317 0.0
C35 C 0.48382 0.59241 0.34325 0.0
C36 C 0.45654 0.54516 0.47126 0.0
C37 C 0.41253 0.59591 0.37869 0.0
O38 O 0.46851 0.57495 0.37551 0.0
O39 O 0.48951 0.61833 0.34192 0.0
O40 O 0.43767 0.58895 0.49097 0.0
O41 O 0.47058 0.61859 0.44285 0.0
Co42 Co 0.86847 0.45208 0.60081 0.0
O43 O 0.90121 0.47862 0.63623 0.0
O44 O 0.89202 0.43562 0.61468 0.0
C45 C 0.83627 0.45674 0.64382 0.0
O46 O 0.83666 0.41829 0.56593 0.0
Co47 Co 0.83158 0.47117 0.54685 0.0
O48 O 0.80469 0.4299 0.54047 0.0
C49 C 0.8862 0.48208 0.50645 0.0
C50 C 0.90827 0.45904 0.63721 0.0
C51 C 0.81262 0.41171 0.54697 0.0
O52 O 0.88966 0.46886 0.54076 0.0
O53 O 0.86509 0.48635 0.50328 0.0
O54 O 0.84574 0.44021 0.6573 0.0
O55 O 0.84819 0.47184 0.60698 0.0
Co56 Co 0.4159 0.87189 0.76667 0.0
O57 O 0.42193 0.90301 0.80632 0.0
O58 O 0.45613 0.89596 0.77916 0.0
C59 C 0.38022 0.83758 0.80897 0.0
O60 O 0.41778 0.84161 0.72671 0.0
Co61 Co 0.35864 0.83677 0.71451 0.0
O62 O 0.37443 0.8122 0.69678 0.0
C63 C 0.40134 0.89259 0.67716 0.0
C64 C 0.44879 0.91095 0.80506 0.0
C65 C 0.40042 0.81944 0.70305 0.0
O66 O 0.41879 0.89484 0.70946 0.0
O67 O 0.37579 0.87177 0.67447 0.0
O68 O 0.40656 0.84725 0.82065 0.0
O69 O 0.37608 0.85071 0.77492 0.0
Co70 Co 0.54202 0.41583 0.9346 0.0
O71 O 0.51662 0.42177 0.97372 0.0
O72 O 0.55809 0.456 0.94752 0.0
C73 C 0.54038 0.37993 0.97654 0.0
O74 O 0.57447 0.41782 0.89546 0.0
Co75 Co 0.52057 0.35886 0.88177 0.0
O76 O 0.56141 0.37413 0.86813 0.0
C77 C 0.5079 0.40176 0.84387 0.0
C78 C 0.53553 0.44863 0.97282 0.0
C79 C 0.57993 0.40025 0.87383 0.0
O80 O 0.52245 0.41897 0.87693 0.0
O81 O 0.50345 0.37632 0.8408 0.0
O82 O 0.55694 0.40621 0.98878 0.0
O83 O 0.52331 0.37602 0.94226 0.0
H84 H 0.11315 0.50228 0.91753 0.0
H85 H 0.08073 0.49213 0.85213 0.0
H86 H 0.0151 0.4832 0.94741 0.0
H87 H 0.04817 0.49518 0.01275 0.0
H88 H 0.03332 0.45036 0.82477 0.0
H89 H 0.01474 0.53983 0.86182 0.0
H90 H 0.04086 0.53513 0.89302 0.0
H91 H 0.00388 0.51545 0.90968 0.0
C92 C 0.09175 0.49801 0.92457 0.0
C93 C 0.08325 0.49978 0.9702 0.0
C94 C 0.07322 0.49222 0.88711 0.0
C95 C 0.04564 0.48762 0.89452 0.0
C96 C 0.03658 0.48774 0.94047 0.0
H97 H 0.91218 0.41743 0.6835 0.0
H98 H 0.94658 0.42375 0.74387 0.0
C99 C 0.05538 0.49429 0.97787 0.0
C100 C 0.02672 0.48322 0.85404 0.0
H101 H 0.98484 0.50651 0.80488 0.0
C102 C 0.02287 0.46279 0.82026 0.0
C103 C 0.01353 0.49983 0.84741 0.0
C104 C 0.01871 0.52398 0.87964 0.0
C105 C 0.00609 0.45836 0.78043 0.0
C106 C 0.99168 0.4739 0.77516 0.0
C107 C 0.99568 0.49441 0.80884 0.0
C108 C 0.97228 0.46944 0.73534 0.0
C109 C 0.00477 0.43766 0.74396 0.0
C110 C 0.97482 0.49296 0.71062 0.0
C111 C 0.9546 0.48944 0.67723 0.0
C112 C 0.93178 0.46227 0.6671 0.0
C113 C 0.9299 0.43857 0.69008 0.0
C114 C 0.94968 0.44217 0.72448 0.0
H115 H 0.02416 0.43564 0.74477 0.0
H116 H 0.98627 0.41631 0.75121 0.0
H117 H 0.00249 0.44425 0.70836 0.0
H118 H 0.99203 0.51423 0.71817 0.0
H119 H 0.95646 0.50806 0.66004 0.0
H120 H 0.5028 0.92373 0.829 0.0
H121 H 0.5334 0.95784 0.88867 0.0
H122 H 0.47136 0.98424 0.90989 0.0
H123 H 0.44063 0.95022 0.85089 0.0
H124 H 0.53637 0.02994 0.90304 0.0
H125 H 0.50339 0.94277 0.03316 0.0
H126 H 0.5134 0.93806 0.97525 0.0
H127 H 0.48136 0.93939 0.98368 0.0
C128 C 0.49594 0.93718 0.84579 0.0
C129 C 0.46926 0.93421 0.83547 0.0
C130 C 0.51337 0.95653 0.87992 0.0
C131 C 0.50446 0.97332 0.90375 0.0
C132 C 0.47853 0.97141 0.89184 0.0
H133 H 0.53768 0.06178 0.16256 0.0
H134 H 0.51918 0.02983 0.09557 0.0
C135 C 0.46102 0.95194 0.85816 0.0
C136 C 0.52105 0.99163 0.94322 0.0
H137 H 0.53248 0.98957 0.0598 0.0
C138 C 0.53593 0.02121 0.93722 0.0
C139 C 0.51999 0.98002 0.98772 0.0
C140 C 0.50364 0.94833 0.99583 0.0
C141 C 0.54943 0.03961 0.97497 0.0
C142 C 0.54811 0.02801 0.01971 0.0
C143 C 0.53359 -0.00163 0.02544 0.0
C144 C 0.56002 0.0463 0.06154 0.0
C145 C 0.564 0.07131 0.96704 0.0
C146 C 0.58926 0.06567 0.06524 0.0
C147 C 0.59997 0.08407 0.1035 0.0
C148 C 0.58162 0.08333 0.13898 0.0
C149 C 0.55247 0.06307 0.13595 0.0
C150 C 0.54181 0.04475 0.09764 0.0
H151 H 0.55807 0.07662 0.93301 0.0
H152 H 0.55861 0.08185 0.99525 0.0
H153 H 0.58739 0.08022 0.96726 0.0
H154 H 0.60377 0.06681 0.03822 0.0
H155 H 0.62256 0.0992 0.10476 0.0
H156 H 0.47768 0.53933 0.33339 0.0
H157 H 0.49144 0.52075 0.26679 0.0
H158 H 0.52665 0.60206 0.1983 0.0
H159 H 0.51282 0.62091 0.26454 0.0
H160 H 0.48952 0.55568 0.14204 0.0
H161 H 0.5709 0.53707 0.2255 0.0
H162 H 0.53776 0.52172 0.25665 0.0
H163 H 0.55893 0.55972 0.25106 0.0
C164 C 0.48862 0.55343 0.30446 0.0
C165 C 0.49412 0.58167 0.30449 0.0
C166 C 0.49661 0.54277 0.26647 0.0
C167 C 0.51035 0.56012 0.22784 0.0
C168 C 0.51618 0.58837 0.22789 0.0
H169 H 0.57659 0.50237 0.99823 0.0
H170 H 0.57222 0.53327 0.05633 0.0
C171 C 0.5083 0.5991 0.26591 0.0
C172 C 0.51715 0.54825 0.18637 0.0
H173 H 0.55324 0.51484 0.15154 0.0
C174 C 0.5037 0.54704 0.14395 0.0
C175 C 0.53592 0.53731 0.18879 0.0
C176 C 0.55194 0.53921 0.23282 0.0
C177 C 0.50758 0.53404 0.10442 0.0
C178 C 0.52521 0.52183 0.10754 0.0
C179 C 0.53961 0.52412 0.14934 0.0
C180 C 0.5274 0.50481 0.06902 0.0
C181 C 0.49254 0.53313 0.05974 0.0
C182 C 0.50359 0.47878 0.0567 0.0
C183 C 0.50605 0.46108 0.02392 0.0
C184 C 0.53237 0.46912 0.00268 0.0
C185 C 0.556 0.4957 0.01377 0.0
C186 C 0.55357 0.5133 0.04704 0.0
H187 H 0.48586 0.54943 0.05941 0.0
H188 H 0.50641 0.53651 0.02908 0.0
H189 H 0.4732 0.5119 0.05614 0.0
H190 H 0.4833 0.47167 0.07371 0.0
H191 H 0.48748 0.44072 0.01616 0.0
H192 H 0.94307 0.50086 0.51182 0.0
H193 H 0.9772 0.51536 0.44752 0.0
H194 H 0.9099 0.49733 0.34959 0.0
H195 H 0.87623 0.48467 0.41404 0.0
H196 H 0.98079 0.48662 0.38183 0.0
H197 H 0.96768 0.57073 0.29774 0.0
H198 H 0.95219 0.55612 0.35374 0.0
H199 H 0.93427 0.53827 0.30073 0.0
C200 C 0.93572 0.50047 0.47658 0.0
C201 C 0.90709 0.49189 0.46791 0.0
C202 C 0.95521 0.50872 0.43981 0.0
C203 C 0.94636 0.50801 0.3935 0.0
C204 C 0.91762 0.49916 0.3849 0.0
H205 H 0.03893 0.48777 0.16423 0.0
H206 H 0.00389 0.48167 0.22348 0.0
C207 C 0.8983 0.49166 0.42179 0.0
C208 C 0.96671 0.51442 0.35423 0.0
H209 H 0.99022 0.55057 0.25133 0.0
C210 C 0.98301 0.50088 0.35364 0.0
C211 C 0.97012 0.53337 0.31756 0.0
C212 C 0.95535 0.55067 0.31774 0.0
C213 C 0.00213 0.5053 0.31734 0.0
C214 C 0.00405 0.52266 0.27908 0.0
C215 C 0.98831 0.53677 0.28008 0.0
C216 C 0.02265 0.52665 0.23826 0.0
C217 C 0.02053 0.49178 0.32119 0.0
C218 C 0.04347 0.55407 0.22404 0.0
C219 C 0.06295 0.55762 0.18891 0.0
C220 C 0.06209 0.53379 0.16799 0.0
C221 C 0.04025 0.50649 0.18028 0.0
C222 C 0.02042 0.50298 0.21448 0.0
H223 H 0.02334 0.48753 0.35812 0.0
H224 H 0.01012 0.47108 0.30258 0.0
H225 H 0.04189 0.5055 0.30569 0.0
H226 H 0.04543 0.57269 0.24147 0.0
H227 H 0.07964 0.5789 0.18011 0.0
H228 H 0.50038 0.08602 0.35126 0.0
H229 H 0.47253 0.0534 0.41426 0.0
H230 H 0.51289 0.00356 0.38717 0.0
H231 H 0.54204 0.0372 0.32646 0.0
H232 H 0.43556 0.00013 0.42689 0.0
H233 H 0.53351 0.02204 0.51999 0.0
H234 H 0.53432 0.04142 0.46857 0.0
H235 H 0.53211 0.00724 0.46356 0.0
C236 C 0.50293 0.06783 0.35839 0.0
C237 C 0.52352 0.06422 0.33452 0.0
C238 C 0.4871 0.04925 0.39448 0.0
C239 C 0.49133 0.02656 0.40667 0.0
C240 C 0.5101 0.02157 0.37983 0.0
H241 H 0.38363 0.88507 0.5868 0.0
H242 H 0.40416 0.91882 0.52269 0.0
C243 C 0.52648 0.04057 0.34475 0.0
C244 C 0.47717 0.00891 0.44855 0.0
H245 H 0.49034 0.98261 0.54752 0.0
C246 C 0.44756 0.99648 0.45347 0.0
C247 C 0.49285 0.00481 0.48415 0.0
C248 C 0.52496 0.01987 0.4841 0.0
C249 C 0.43315 0.97939 0.49215 0.0
C250 C 0.44862 0.97358 0.52591 0.0
C251 C 0.4783 0.98667 0.52153 0.0
C252 C 0.43468 0.95363 0.56554 0.0
C253 C 0.40163 0.96835 0.49672 0.0
C254 C 0.44541 0.96149 0.61109 0.0
C255 C 0.43429 0.94185 0.64763 0.0
C256 C 0.41185 0.9141 0.63954 0.0
C257 C 0.40061 0.90646 0.59429 0.0
C258 C 0.4122 0.92586 0.55758 0.0
H259 H 0.39548 0.98274 0.47925 0.0
H260 H 0.38978 0.94728 0.47944 0.0
H261 H 0.39493 0.96602 0.5338 0.0
H262 H 0.46279 0.98272 0.61826 0.0
H263 H 0.44337 0.94834 0.68214 0.0
H264 H 0.49278 0.4428 0.84877 0.0
H265 H 0.47835 0.46239 0.78443 0.0
H266 H 0.48756 0.40622 0.68831 0.0
H267 H 0.50021 0.38547 0.75277 0.0
H268 H 0.50673 0.49128 0.71532 0.0
H269 H 0.41487 0.39564 0.64154 0.0
H270 H 0.43035 0.39499 0.69675 0.0
H271 H 0.4454 0.39118 0.64293 0.0
C272 C 0.49117 0.43429 0.81399 0.0
C273 C 0.49737 0.41245 0.80585 0.0
C274 C 0.48296 0.44551 0.7772 0.0
C275 C 0.48131 0.43549 0.73138 0.0
C276 C 0.48758 0.41367 0.72334 0.0
H277 H 0.50475 0.54466 0.49497 0.0
H278 H 0.50985 0.51571 0.55526 0.0
C279 C 0.49507 0.40195 0.76026 0.0
C280 C 0.47541 0.44945 0.69169 0.0
H281 H 0.43724 0.43648 0.59099 0.0
C282 C 0.49126 0.47923 0.68849 0.0
C283 C 0.45493 0.43394 0.65683 0.0
C284 C 0.43522 0.40221 0.65999 0.0
C285 C 0.48764 0.49385 0.65129 0.0
C286 C 0.46867 0.47821 0.6147 0.0
C287 C 0.45228 0.44848 0.61837 0.0
C288 C 0.46506 0.4925 0.57314 0.0
C289 C 0.50375 0.52597 0.65249 0.0
C290 C 0.43792 0.48738 0.56021 0.0
C291 C 0.43488 0.50314 0.52439 0.0
C292 C 0.45897 0.52456 0.50152 0.0
C293 C 0.48588 0.52847 0.5125 0.0
C294 C 0.48883 0.51218 0.54734 0.0
H295 H 0.50944 0.53412 0.68874 0.0
H296 H 0.52388 0.53399 0.63261 0.0
H297 H 0.49116 0.53487 0.63689 0.0
H298 H 0.4192 0.4721 0.57918 0.0
H299 H 0.41389 0.4998 0.51668 0.0
H300 H 0.18673 0.57254 0.21739 0.0
H301 H 0.22756 0.57492 0.25711 0.0
H302 H 0.22727 0.5139 0.16031 0.0
H303 H 0.18616 0.51144 0.11992 0.0
H304 H 0.23303 0.52962 0.29911 0.0
H305 H 0.30934 0.58405 0.15365 0.0
H306 H 0.27538 0.58252 0.15694 0.0
H307 H 0.27712 0.55161 0.13988 0.0
C308 C 0.19529 0.55958 0.20444 0.0
C309 C 0.18332 0.54189 0.16536 0.0
C310 C 0.21856 0.56089 0.22735 0.0
C311 C 0.23049 0.54471 0.21151 0.0
C312 C 0.21847 0.52674 0.17279 0.0
H313 H 0.36822 0.54095 0.36934 0.0
H314 H 0.32281 0.52511 0.32936 0.0
C315 C 0.19501 0.52532 0.14985 0.0
C316 C 0.25598 0.54752 0.2353 0.0
H317 H 0.32772 0.57635 0.22266 0.0
C318 C 0.25371 0.53948 0.28232 0.0
C319 C 0.28289 0.56063 0.21329 0.0
C320 C 0.28659 0.57043 0.16325 0.0
C321 C 0.27784 0.54489 0.30832 0.0
C322 C 0.30482 0.55851 0.28653 0.0
C323 C 0.30695 0.56582 0.23916 0.0
C324 C 0.33144 0.56758 0.31296 0.0
C325 C 0.2745 0.53719 0.35936 0.0
C326 C 0.35124 0.59666 0.31706 0.0
C327 C 0.37711 0.60577 0.33969 0.0
C328 C 0.38387 0.58597 0.35862 0.0
C329 C 0.36368 0.55679 0.3554 0.0
C330 C 0.3377 0.54767 0.33261 0.0
H331 H 0.25297 0.53117 0.37266 0.0
H332 H 0.27795 0.51889 0.36457 0.0
H333 H 0.2906 0.55526 0.38041 0.0
H334 H 0.34676 0.61236 0.30226 0.0
H335 H 0.39201 0.6284 0.34159 0.0
H336 H 0.61159 0.18721 0.38552 0.0
H337 H 0.65039 0.22711 0.42644 0.0
H338 H 0.71114 0.22338 0.33382 0.0
H339 H 0.67213 0.1833 0.2921 0.0
H340 H 0.69909 0.23122 0.47211 0.0
H341 H 0.72712 0.30625 0.32298 0.0
H342 H 0.69405 0.27288 0.32525 0.0
H343 H 0.72662 0.27338 0.31186 0.0
C344 C 0.63318 0.1948 0.37377 0.0
C345 C 0.6388 0.18224 0.33535 0.0
C346 C 0.65534 0.21753 0.39738 0.0
C347 C 0.68359 0.22829 0.38301 0.0
C348 C 0.68942 0.21554 0.34515 0.0
H349 H 0.82421 0.36781 0.54102 0.0
H350 H 0.79528 0.32161 0.50264 0.0
C351 C 0.66716 0.19266 0.32143 0.0
C352 C 0.70649 0.25355 0.40702 0.0
H353 H 0.75157 0.32481 0.39325 0.0
C354 C 0.71094 0.25163 0.4548 0.0
C355 C 0.72167 0.28013 0.3843 0.0
C356 C 0.71713 0.28354 0.33335 0.0
C357 C 0.72956 0.27582 0.4808 0.0
C358 C 0.74411 0.30249 0.45831 0.0
C359 C 0.7404 0.30424 0.41025 0.0
C360 C 0.76103 0.32931 0.48456 0.0
C361 C 0.73255 0.27303 0.53251 0.0
C362 C 0.75119 0.34871 0.48742 0.0
C363 C 0.76752 0.37496 0.50921 0.0
C364 C 0.79424 0.38253 0.52844 0.0
C365 C 0.80372 0.36267 0.52671 0.0
C366 C 0.78724 0.33626 0.50483 0.0
H367 H 0.71735 0.25137 0.54556 0.0
H368 H 0.75448 0.27765 0.54022 0.0
H369 H 0.72902 0.28874 0.55189 0.0
H370 H 0.73095 0.34366 0.47211 0.0
H371 H 0.75938 0.38956 0.51002 0.0
H372 H 0.44436 0.81103 0.7299 0.0
H373 H 0.45858 0.77901 0.69344 0.0
H374 H 0.39483 0.75748 0.58709 0.0
H375 H 0.37989 0.78821 0.62419 0.0
H376 H 0.39099 0.71149 0.62141 0.0
H377 H 0.50428 0.78592 0.57895 0.0
H378 H 0.49594 0.7857 0.63958 0.0
H379 H 0.48028 0.79807 0.59707 0.0
C380 C 0.43362 0.7996 0.69852 0.0
C381 C 0.41085 0.80191 0.68016 0.0
C382 C 0.44189 0.78149 0.67749 0.0
C383 C 0.42797 0.766 0.63716 0.0
C384 C 0.40584 0.76907 0.61822 0.0
H385 H 0.47226 0.66906 0.44673 0.0
H386 H 0.46747 0.70648 0.48688 0.0
C387 C 0.39727 0.78664 0.63957 0.0
C388 C 0.43468 0.74497 0.61606 0.0
H389 H 0.48764 0.73665 0.56742 0.0
C390 C 0.41215 0.71708 0.60954 0.0
C391 C 0.46222 0.75227 0.60012 0.0
C392 C 0.48702 0.78218 0.60382 0.0
C393 C 0.4162 0.6964 0.58719 0.0
C394 C 0.44387 0.70339 0.57254 0.0
C395 C 0.4665 0.73125 0.57908 0.0
C396 C 0.44939 0.68199 0.54984 0.0
C397 C 0.3905 0.66753 0.57825 0.0
C398 C 0.44168 0.65621 0.57239 0.0
C399 C 0.44382 0.63474 0.54925 0.0
C400 C 0.45448 0.63888 0.50354 0.0
C401 C 0.46386 0.66529 0.48189 0.0
C402 C 0.46118 0.68666 0.50483 0.0
H403 H 0.3705 0.66846 0.5785 0.0
H404 H 0.39217 0.65872 0.54419 0.0
H405 H 0.38882 0.65266 0.60619 0.0
H406 H 0.43336 0.65243 0.60761 0.0
H407 H 0.4369 0.61475 0.56709 0.0
H408 H 0.59516 0.37296 0.81021 0.0
H409 H 0.64172 0.38893 0.77608 0.0
H410 H 0.67649 0.46667 0.85562 0.0
H411 H 0.62932 0.45107 0.88948 0.0
H412 H 0.69632 0.476 0.76523 0.0
H413 H 0.707 0.38879 0.84289 0.0
H414 H 0.67466 0.37518 0.81021 0.0
H415 H 0.67988 0.3967 0.86119 0.0
C416 C 0.61263 0.39344 0.82078 0.0
C417 C 0.60852 0.41057 0.85314 0.0
C418 C 0.63932 0.4025 0.80125 0.0
C419 C 0.66273 0.42867 0.81413 0.0
C420 C 0.65872 0.44626 0.84553 0.0
H421 H 0.82765 0.45119 0.73684 0.0
H422 H 0.78857 0.44996 0.78099 0.0
C423 C 0.63179 0.43729 0.86489 0.0
C424 C 0.69122 0.43722 0.79452 0.0
H425 H 0.73709 0.41238 0.77732 0.0
C426 C 0.70553 0.46236 0.76836 0.0
C427 C 0.70353 0.41975 0.79947 0.0
C428 C 0.69061 0.39378 0.83041 0.0
C429 C 0.73124 0.46983 0.74529 0.0
C430 C 0.74238 0.45116 0.74732 0.0
C431 C 0.72853 0.42662 0.77508 0.0
C432 C 0.7681 0.45609 0.72088 0.0
C433 C 0.74619 0.49774 0.71946 0.0
C434 C 0.77014 0.4606 0.67236 0.0
C435 C 0.79305 0.46215 0.64722 0.0
C436 C 0.81367 0.45821 0.67002 0.0
C437 C 0.81186 0.45409 0.71845 0.0
C438 C 0.78952 0.45339 0.74368 0.0
H439 H 0.74098 0.51342 0.73472 0.0
H440 H 0.76964 0.50701 0.72001 0.0
H441 H 0.73894 0.49421 0.68266 0.0
H442 H 0.75353 0.46186 0.65357 0.0
H443 H 0.79389 0.46507 0.60979 0.0
H444 H 0.38205 0.81872 0.89552 0.0
H445 H 0.3448 0.77726 0.93593 0.0
H446 H 0.28875 0.75932 0.81848 0.0
H447 H 0.32579 0.8018 0.7785 0.0
H448 H 0.2602 0.74936 0.90051 0.0
H449 H 0.32641 0.69808 0.90347 0.0
H450 H 0.34348 0.73202 0.93197 0.0
H451 H 0.33626 0.72986 0.87036 0.0
C452 C 0.36175 0.80601 0.87833 0.0
C453 C 0.3569 0.81322 0.83362 0.0
C454 C 0.34051 0.78225 0.90141 0.0
C455 C 0.31425 0.76473 0.87975 0.0
C456 C 0.30895 0.77244 0.83571 0.0
H457 H 0.2067 0.58956 0.95562 0.0
H458 H 0.23732 0.63484 0.91763 0.0
C459 C 0.3301 0.79662 0.81287 0.0
C460 C 0.29288 0.7379 0.90251 0.0
H461 H 0.28442 0.67643 0.94935 0.0
C462 C 0.26538 0.73329 0.911 0.0
C463 C 0.29955 0.71678 0.91562 0.0
C464 C 0.32793 0.71926 0.90446 0.0
C465 C 0.24446 0.70822 0.9326 0.0
C466 C 0.25152 0.6876 0.94717 0.0
C467 C 0.27902 0.6923 0.93858 0.0
C468 C 0.23058 0.66016 0.96901 0.0
C469 C 0.21488 0.70379 0.93841 0.0
C470 C 0.21612 0.65911 0.01041 0.0
C471 C 0.19804 0.63294 0.03196 0.0
C472 C 0.19479 0.60758 0.01304 0.0
C473 C 0.20905 0.60876 0.97144 0.0
C474 C 0.22655 0.63467 0.94957 0.0
H475 H 0.21095 0.71741 0.9142 0.0
H476 H 0.19849 0.68124 0.93223 0.0
H477 H 0.21234 0.70952 0.97454 0.0
H478 H 0.21937 0.6785 0.02672 0.0
H479 H 0.18739 0.63264 0.0641 0.0
H480 H 0.51211 0.32324 0.95362 0.0
H481 H 0.51509 0.28475 0.99338 0.0
H482 H 0.57463 0.34524 0.09186 0.0
H483 H 0.57173 0.38356 0.05271 0.0
H484 H 0.56442 0.28059 0.00751 0.0
H485 H 0.51482 0.2821 0.17567 0.0
H486 H 0.51096 0.29837 0.12338 0.0
H487 H 0.54274 0.31659 0.15799 0.0
C488 C 0.52567 0.32825 0.98393 0.0
C489 C 0.54161 0.35639 0.00015 0.0
C490 C 0.52734 0.30628 0.00658 0.0
C491 C 0.54468 0.3121 0.04605 0.0
C492 C 0.56064 0.34019 0.06211 0.0
H493 H 0.62968 0.23167 0.16564 0.0
H494 H 0.61402 0.26104 0.12582 0.0
C495 C 0.5591 0.3621 0.03945 0.0
C496 C 0.54748 0.28928 0.06932 0.0
H497 H 0.54249 0.25875 0.17553 0.0
C498 C 0.55926 0.2755 0.04407 0.0
C499 C 0.54039 0.28241 0.11686 0.0
C500 C 0.52626 0.29543 0.14499 0.0
C501 C 0.56546 0.25606 0.06571 0.0
C502 C 0.56007 0.25059 0.11398 0.0
C503 C 0.54693 0.26325 0.13867 0.0
C504 C 0.56928 0.23295 0.13978 0.0
C505 C 0.57804 0.2418 0.03682 0.0
C506 C 0.54939 0.20793 0.16247 0.0
C507 C 0.55828 0.19103 0.18568 0.0
C508 C 0.58728 0.19902 0.18677 0.0
C509 C 0.60716 0.22464 0.16521 0.0
C510 C 0.59825 0.24143 0.14212 0.0
H511 H 0.57317 0.2417 -0.00082 0.0
H512 H 0.60151 0.25363 0.04085 0.0
H513 H 0.56996 0.21953 0.04834 0.0
H514 H 0.52694 0.20118 0.16144 0.0
H515 H 0.54239 0.1715 0.20196 0.0
loop_
_geom_bond_atom_site_label_1
_geom_bond_atom_site_label_2
_geom_bond_distance
_geom_bond_site_symmetry_2
_ccdc_geom_bond_type
Co0 O1 2.216 . S
Co0 O2 2.091 . S
Co0 O4 2.004 . S
Co0 O10 2.021 . S
Co0 O12 2.137 . S
Co0 O13 2.244 . S
O1 Co0 2.216 . S
O1 C8 1.247 . S
O2 Co0 2.091 . S
O2 C8 1.261 . S
C3 O12 1.247 . S
C3 O13 1.272 . S
O4 Co0 2.004 . S
O4 C9 1.259 . S
Co5 O6 2.061 . S
Co5 O11 2.053 . S
Co5 O13 2.135 . S
O6 Co5 2.061 . S
O6 C9 1.235 . S
C7 O10 1.238 . S
C7 O11 1.243 . S
C8 O1 1.247 . S
C8 O2 1.261 . S
C9 O4 1.259 . S
C9 O6 1.235 . S
O10 Co0 2.021 . S
O10 C7 1.238 . S
O11 Co5 2.053 . S
O11 C7 1.243 . S
O12 Co0 2.137 . S
O12 C3 1.247 . S
O13 Co0 2.244 . S
O13 C3 1.272 . S
O13 Co5 2.135 . S
Co14 O15 2.216 . S
Co14 O16 2.091 . S
Co14 O18 2.004 . S
Co14 O24 2.021 . S
Co14 O26 2.137 . S
Co14 O27 2.244 . S
O15 Co14 2.216 . S
O15 C22 1.247 . S
O16 Co14 2.091 . S
O16 C22 1.261 . S
C17 O26 1.247 . S
C17 O27 1.272 . S
O18 Co14 2.004 . S
O18 C23 1.259 . S
Co19 O20 2.061 . S
Co19 O25 2.052 . S
Co19 O27 2.135 . S
O20 Co19 2.061 . S
O20 C23 1.235 . S
C21 O24 1.238 . S
C21 O25 1.241 . S
C22 O15 1.247 . S
C22 O16 1.261 . S
C23 O18 1.259 . S
C23 O20 1.235 . S
O24 Co14 2.021 . S
O24 C21 1.238 . S
O25 Co19 2.052 . S
O25 C21 1.241 . S
O26 Co14 2.137 . S
O26 C17 1.247 . S
O27 Co14 2.244 . S
O27 C17 1.272 . S
O27 Co19 2.135 . S
Co28 O29 2.216 . S
Co28 O30 2.091 . S
Co28 O32 2.004 . S
Co28 O38 2.021 . S
Co28 O40 2.137 . S
Co28 O41 2.244 . S
O29 Co28 2.216 . S
O29 C36 1.247 . S
O30 Co28 2.091 . S
O30 C36 1.261 . S
C31 O40 1.247 . S
C31 O41 1.272 . S
O32 Co28 2.004 . S
O32 C37 1.259 . S
Co33 O34 2.061 . S
Co33 O39 2.052 . S
Co33 O41 2.135 . S
O34 Co33 2.061 . S
O34 C37 1.235 . S
C35 O38 1.238 . S
C35 O39 1.241 . S
C36 O29 1.247 . S
C36 O30 1.261 . S
C37 O32 1.259 . S
C37 O34 1.235 . S
O38 Co28 2.021 . S
O38 C35 1.238 . S
O39 Co33 2.052 . S
O39 C35 1.241 . S
O40 Co28 2.137 . S
O40 C31 1.247 . S
O41 Co28 2.244 . S
O41 C31 1.272 . S
O41 Co33 2.135 . S
Co42 O43 2.216 . S
Co42 O44 2.091 . S
Co42 O46 2.004 . S
Co42 O52 2.021 . S
Co42 O54 2.137 . S
Co42 O55 2.244 . S
O43 Co42 2.216 . S
O43 C50 1.247 . S
O44 Co42 2.091 . S
O44 C50 1.261 . S
C45 O54 1.247 . S
C45 O55 1.272 . S
O46 Co42 2.004 . S
O46 C51 1.259 . S
Co47 O48 2.061 . S
Co47 O53 2.052 . S
Co47 O55 2.135 . S
O48 Co47 2.061 . S
O48 C51 1.235 . S
C49 O52 1.238 . S
C49 O53 1.241 . S
C50 O43 1.247 . S
C50 O44 1.261 . S
C51 O46 1.259 . S
C51 O48 1.235 . S
O52 Co42 2.021 . S
O52 C49 1.238 . S
O53 Co47 2.052 . S
O53 C49 1.241 . S
O54 Co42 2.137 . S
O54 C45 1.247 . S
O55 Co42 2.244 . S
O55 C45 1.272 . S
O55 Co47 2.135 . S
Co56 O57 2.216 . S
Co56 O58 2.091 . S
Co56 O60 2.004 . S
Co56 O66 2.021 . S
Co56 O68 2.137 . S
Co56 O69 2.244 . S
O57 Co56 2.216 . S
O57 C64 1.247 . S
O58 Co56 2.091 . S
O58 C64 1.261 . S
C59 O68 1.247 . S
C59 O69 1.272 . S
O60 Co56 2.004 . S
O60 C65 1.259 . S
Co61 O62 2.061 . S
Co61 O67 2.052 . S
Co61 O69 2.135 . S
O62 Co61 2.061 . S
O62 C65 1.235 . S
C63 O66 1.238 . S
C63 O67 1.241 . S
C64 O57 1.247 . S
C64 O58 1.261 . S
C65 O60 1.259 . S
C65 O62 1.235 . S
O66 Co56 2.021 . S
O66 C63 1.238 . S
O67 Co61 2.052 . S
O67 C63 1.241 . S
O68 Co56 2.137 . S
O68 C59 1.247 . S
O69 Co56 2.244 . S
O69 C59 1.272 . S
O69 Co61 2.135 . S
Co70 O71 2.216 . S
Co70 O72 2.091 . S
Co70 O74 2.004 . S
Co70 O80 2.021 . S
Co70 O82 2.137 . S
Co70 O83 2.244 . S
O71 Co70 2.216 . S
O71 C78 1.247 . S
O72 Co70 2.091 . S
O72 C78 1.261 . S
C73 O82 1.247 . S
C73 O83 1.272 . S
O74 Co70 2.004 . S
O74 C79 1.259 . S
Co75 O76 2.061 . S
Co75 O81 2.052 . S
Co75 O83 2.135 . S
O76 Co75 2.061 . S
O76 C79 1.235 . S
C77 O80 1.238 . S
C77 O81 1.241 . S
C78 O71 1.247 . S
C78 O72 1.261 . S
C79 O74 1.259 . S
C79 O76 1.235 . S
O80 Co70 2.021 . S
O80 C77 1.238 . S
O81 Co75 2.052 . S
O81 C77 1.241 . S
O82 Co70 2.137 . S
O82 C73 1.247 . S
O83 Co70 2.244 . S
O83 C73 1.272 . S
O83 Co75 2.135 . S
H84 C92 0.929 . S
H85 C94 0.930 . S
H86 C96 0.930 . S
H87 C99 0.929 1_554 S
H88 C102 0.930 . S
H89 C104 0.960 . S
H90 C104 0.960 1_455 S
H91 C104 0.960 . S
C92 H84 0.929 . S
C92 C93 1.377 . S
C92 C94 1.384 . S
C93 C92 1.377 . S
C93 C99 1.390 . S
C94 H85 0.930 . S
C94 C92 1.384 . S
C94 C95 1.372 . S
C95 C94 1.372 . S
C95 C96 1.400 . S
C95 C100 1.490 . S
C96 H86 0.930 . S
C96 C95 1.400 . S
C96 C99 1.386 . S
H97 C113 0.930 . S
H98 C114 0.931 . S
C99 H87 0.929 1_556 S
C99 C93 1.390 . S
C99 C96 1.386 . S
C100 C95 1.490 . S
C100 C102 1.395 . S
C100 C103 1.403 . S
H101 C107 0.930 . S
C102 H88 0.930 . S
C102 C100 1.395 . S
C102 C105 1.403 . S
C103 C100 1.403 . S
C103 C104 1.524 1_455 S
C103 C107 1.400 1_455 S
C104 H89 0.960 . S
C104 H90 0.960 1_655 S
C104 H91 0.960 . S
C104 C103 1.524 1_655 S
C105 C102 1.403 . S
C105 C106 1.392 1_455 S
C105 C109 1.495 . S
C106 C105 1.392 1_655 S
C106 C107 1.385 . S
C106 C108 1.478 . S
C107 H101 0.930 . S
C107 C103 1.400 1_655 S
C107 C106 1.385 . S
C108 C106 1.478 . S
C108 C110 1.381 . S
C108 C114 1.383 . S
C109 C105 1.495 . S
C109 H115 0.959 . S
C109 H116 0.961 1_455 S
C109 H117 0.960 . S
C110 C108 1.381 . S
C110 C111 1.394 . S
C110 H118 0.930 . S
C111 C110 1.394 . S
C111 C112 1.383 . S
C111 H119 0.929 . S
C112 C111 1.383 . S
C112 C113 1.377 . S
C113 H97 0.930 . S
C113 C112 1.377 . S
C113 C114 1.379 . S
C114 H98 0.931 . S
C114 C108 1.383 . S
C114 C113 1.379 . S
H115 C109 0.959 . S
H116 C109 0.961 1_655 S
H117 C109 0.960 . S
H118 C110 0.930 . S
H119 C111 0.929 . S
H120 C128 0.929 . S
H121 C130 0.930 . S
H122 C132 0.930 . S
H123 C135 0.929 . S
H124 C138 0.930 . S
H125 C140 0.960 . S
H126 C140 0.960 . S
H127 C140 0.960 . S
C128 H120 0.929 . S
C128 C129 1.377 . S
C128 C130 1.384 . S
C129 C128 1.377 . S
C129 C135 1.390 . S
C130 H121 0.930 . S
C130 C128 1.384 . S
C130 C131 1.372 . S
C131 C130 1.372 . S
C131 C132 1.400 . S
C131 C136 1.490 . S
C132 H122 0.930 . S
C132 C131 1.400 . S
C132 C135 1.386 . S
H133 C149 0.930 . S
H134 C150 0.931 . S
C135 H123 0.929 . S
C135 C129 1.390 . S
C135 C132 1.386 . S
C136 C131 1.490 . S
C136 C138 1.395 1_565 S
C136 C139 1.403 1_556 S
H137 C143 0.933 . S
C138 H124 0.930 . S
C138 C136 1.395 1_545 S
C138 C141 1.403 . S
C139 C136 1.403 1_554 S
C139 C140 1.524 . S
C139 C143 1.420 . S
C140 H125 0.960 . S
C140 H126 0.960 . S
C140 H127 0.960 . S
C140 C139 1.524 . S
C141 C138 1.403 . S
C141 C142 1.392 1_556 S
C141 C145 1.495 . S
C142 C141 1.392 1_554 S
C142 C143 1.364 1_545 S
C142 C144 1.478 . S
C143 H137 0.933 . S
C143 C139 1.420 . S
C143 C142 1.364 1_565 S
C144 C142 1.478 . S
C144 C146 1.381 . S
C144 C150 1.383 . S
C145 C141 1.495 . S
C145 H151 0.959 . S
C145 H152 0.961 . S
C145 H153 0.960 . S
C146 C144 1.381 . S
C146 C147 1.394 . S
C146 H154 0.930 . S
C147 C146 1.394 . S
C147 C148 1.383 . S
C147 H155 0.929 . S
C148 C147 1.383 . S
C148 C149 1.377 . S
C149 H133 0.930 . S
C149 C148 1.377 . S
C149 C150 1.379 . S
C150 H134 0.931 . S
C150 C144 1.383 . S
C150 C149 1.379 . S
H151 C145 0.959 . S
H152 C145 0.961 . S
H153 C145 0.960 . S
H154 C146 0.930 . S
H155 C147 0.929 . S
H156 C164 0.929 . S
H157 C166 0.930 . S
H158 C168 0.930 . S
H159 C171 0.929 . S
H160 C174 0.930 . S
H161 C176 0.960 . S
H162 C176 0.960 . S
H163 C176 0.960 . S
C164 H156 0.929 . S
C164 C165 1.377 . S
C164 C166 1.384 . S
C165 C164 1.377 . S
C165 C171 1.390 . S
C166 H157 0.930 . S
C166 C164 1.384 . S
C166 C167 1.372 . S
C167 C166 1.372 . S
C167 C168 1.400 . S
C167 C172 1.490 . S
C168 H158 0.930 . S
C168 C167 1.400 . S
C168 C171 1.386 . S
H169 C185 0.930 . S
H170 C186 0.931 . S
C171 H159 0.929 . S
C171 C165 1.390 . S
C171 C168 1.386 . S
C172 C167 1.490 . S
C172 C174 1.395 . S
C172 C175 1.403 . S
H173 C179 0.930 . S
C174 H160 0.930 . S
C174 C172 1.395 . S
C174 C177 1.403 . S
C175 C172 1.403 . S
C175 C176 1.524 . S
C175 C179 1.400 . S
C176 H161 0.960 . S
C176 H162 0.960 . S
C176 H163 0.960 . S
C176 C175 1.524 . S
C177 C174 1.403 . S
C177 C178 1.392 . S
C177 C181 1.495 . S
C178 C177 1.392 . S
C178 C179 1.385 . S
C178 C180 1.478 . S
C179 H173 0.930 . S
C179 C175 1.400 . S
C179 C178 1.385 . S
C180 C178 1.478 . S
C180 C182 1.381 . S
C180 C186 1.383 . S
C181 C177 1.495 . S
C181 H187 0.959 . S
C181 H188 0.961 . S
C181 H189 0.960 . S
C182 C180 1.381 . S
C182 C183 1.394 . S
C182 H190 0.930 . S
C183 C182 1.394 . S
C183 C184 1.383 . S
C183 H191 0.929 . S
C184 C183 1.383 . S
C184 C185 1.377 . S
C185 H169 0.930 . S
C185 C184 1.377 . S
C185 C186 1.379 . S
C186 H170 0.931 . S
C186 C180 1.383 . S
C186 C185 1.379 . S
H187 C181 0.959 . S
H188 C181 0.961 . S
H189 C181 0.960 . S
H190 C182 0.930 . S
H191 C183 0.929 . S
H192 C200 0.929 . S
H193 C202 0.930 . S
H194 C204 0.930 . S
H195 C207 0.929 . S
H196 C210 0.930 . S
H197 C212 0.960 . S
H198 C212 0.960 . S
H199 C212 0.960 . S
C200 H192 0.929 . S
C200 C201 1.377 . S
C200 C202 1.384 . S
C201 C200 1.377 . S
C201 C207 1.390 . S
C202 H193 0.930 . S
C202 C200 1.384 . S
C202 C203 1.372 . S
C203 C202 1.372 . S
C203 C204 1.400 . S
C203 C208 1.490 . S
C204 H194 0.930 . S
C204 C203 1.400 . S
C204 C207 1.386 . S
H205 C221 0.930 . S
H206 C222 0.931 . S
C207 H195 0.929 . S
C207 C201 1.390 . S
C207 C204 1.386 . S
C208 C203 1.490 . S
C208 C210 1.395 1_655 S
C208 C211 1.403 . S
H209 C215 0.930 . S
C210 H196 0.930 . S
C210 C208 1.395 1_455 S
C210 C213 1.403 . S
C211 C208 1.403 . S
C211 C212 1.524 . S
C211 C215 1.400 . S
C212 H197 0.960 . S
C212 H198 0.960 . S
C212 H199 0.960 . S
C212 C211 1.524 . S
C213 C210 1.403 . S
C213 C214 1.392 . S
C213 C217 1.495 . S
C214 C213 1.392 . S
C214 C215 1.385 1_455 S
C214 C216 1.478 . S
C215 H209 0.930 . S
C215 C211 1.400 . S
C215 C214 1.385 1_655 S
C216 C214 1.478 . S
C216 C218 1.381 . S
C216 C222 1.383 . S
C217 C213 1.495 . S
C217 H223 0.959 . S
C217 H224 0.961 . S
C217 H225 0.960 . S
C218 C216 1.381 . S
C218 C219 1.394 . S
C218 H226 0.930 . S
C219 C218 1.394 . S
C219 C220 1.383 . S
C219 H227 0.929 . S
C220 C219 1.383 . S
C220 C221 1.377 . S
C221 H205 0.930 . S
C221 C220 1.377 . S
C221 C222 1.379 . S
C222 H206 0.931 . S
C222 C216 1.383 . S
C222 C221 1.379 . S
H223 C217 0.959 . S
H224 C217 0.961 . S
H225 C217 0.960 . S
H226 C218 0.930 . S
H227 C219 0.929 . S
H228 C236 0.929 . S
H229 C238 0.930 . S
H230 C240 0.930 . S
H231 C243 0.929 . S
H232 C246 0.930 . S
H233 C248 0.945 1_565 S
H234 C248 0.960 . S
H235 C248 0.960 . S
C236 H228 0.929 . S
C236 C237 1.377 . S
C236 C238 1.384 . S
C237 C236 1.377 . S
C237 C243 1.390 . S
C238 H229 0.930 . S
C238 C236 1.384 . S
C238 C239 1.372 . S
C239 C238 1.372 . S
C239 C240 1.400 . S
C239 C244 1.490 . S
C240 H230 0.930 . S
C240 C239 1.400 . S
C240 C243 1.386 . S
H241 C257 0.930 . S
H242 C258 0.931 . S
C243 H231 0.929 . S
C243 C237 1.390 . S
C243 C240 1.386 . S
C244 C239 1.490 . S
C244 C246 1.395 . S
C244 C247 1.403 . S
H245 C251 0.930 . S
C246 H232 0.930 . S
C246 C244 1.395 . S
C246 C249 1.403 1_545 S
C247 C244 1.403 . S
C247 C248 1.524 . S
C247 C251 1.400 1_545 S
C248 H233 0.945 1_545 S
C248 H234 0.960 . S
C248 H235 0.960 . S
C248 C247 1.524 . S
C249 C246 1.403 1_565 S
C249 C250 1.392 . S
C249 C253 1.495 . S
C250 C249 1.392 . S
C250 C251 1.385 . S
C250 C252 1.478 . S
C251 H245 0.930 . S
C251 C247 1.400 1_565 S
C251 C250 1.385 . S
C252 C250 1.478 . S
C252 C254 1.381 . S
C252 C258 1.383 . S
C253 C249 1.495 . S
C253 H259 0.959 . S
C253 H260 0.961 . S
C253 H261 0.960 . S
C254 C252 1.381 . S
C254 C255 1.394 . S
C254 H262 0.930 . S
C255 C254 1.394 . S
C255 C256 1.383 . S
C255 H263 0.929 . S
C256 C255 1.383 . S
C256 C257 1.377 . S
C257 H241 0.930 . S
C257 C256 1.377 . S
C257 C258 1.379 . S
C258 H242 0.931 . S
C258 C252 1.383 . S
C258 C257 1.379 . S
H259 C253 0.959 . S
H260 C253 0.961 . S
H261 C253 0.960 . S
H262 C254 0.930 . S
H263 C255 0.929 . S
H264 C272 0.929 . S
H265 C274 0.930 . S
H266 C276 0.930 . S
H267 C279 0.929 . S
H268 C282 0.930 . S
H269 C284 0.960 . S
H270 C284 0.960 . S
H271 C284 0.960 . S
C272 H264 0.929 . S
C272 C273 1.377 . S
C272 C274 1.384 . S
C273 C272 1.377 . S
C273 C279 1.390 . S
C274 H265 0.930 . S
C274 C272 1.384 . S
C274 C275 1.372 . S
C275 C274 1.372 . S
C275 C276 1.400 . S
C275 C280 1.490 . S
C276 H266 0.930 . S
C276 C275 1.400 . S
C276 C279 1.386 . S
H277 C293 0.930 . S
H278 C294 0.931 . S
C279 H267 0.929 . S
C279 C273 1.390 . S
C279 C276 1.386 . S
C280 C275 1.490 . S
C280 C282 1.395 . S
C280 C283 1.403 . S
H281 C287 0.930 . S
C282 H268 0.930 . S
C282 C280 1.395 . S
C282 C285 1.403 . S
C283 C280 1.403 . S
C283 C284 1.524 . S
C283 C287 1.400 . S
C284 H269 0.960 . S
C284 H270 0.960 . S
C284 H271 0.960 . S
C284 C283 1.524 . S
C285 C282 1.403 . S
C285 C286 1.392 . S
C285 C289 1.495 . S
C286 C285 1.392 . S
C286 C287 1.385 . S
C286 C288 1.478 . S
C287 H281 0.930 . S
C287 C283 1.400 . S
C287 C286 1.385 . S
C288 C286 1.478 . S
C288 C290 1.381 . S
C288 C294 1.383 . S
C289 C285 1.495 . S
C289 H295 0.959 . S
C289 H296 0.961 . S
C289 H297 0.960 . S
C290 C288 1.381 . S
C290 C291 1.394 . S
C290 H298 0.930 . S
C291 C290 1.394 . S
C291 C292 1.383 . S
C291 H299 0.929 . S
C292 C291 1.383 . S
C292 C293 1.377 . S
C293 H277 0.930 . S
C293 C292 1.377 . S
C293 C294 1.379 . S
C294 H278 0.931 . S
C294 C288 1.383 . S
C294 C293 1.379 . S
H295 C289 0.959 . S
H296 C289 0.961 . S
H297 C289 0.960 . S
H298 C290 0.930 . S
H299 C291 0.929 . S
H300 C308 0.929 . S
H301 C310 0.930 . S
H302 C312 0.930 . S
H303 C315 0.929 . S
H304 C318 0.930 . S
H305 C320 0.960 . S
H306 C320 0.960 . S
H307 C320 0.960 . S
C308 H300 0.929 . S
C308 C309 1.377 . S
C308 C310 1.384 . S
C309 C308 1.377 . S
C309 C315 1.390 . S
C310 H301 0.930 . S
C310 C308 1.384 . S
C310 C311 1.372 . S
C311 C310 1.372 . S
C311 C312 1.400 . S
C311 C316 1.490 . S
C312 H302 0.930 . S
C312 C311 1.400 . S
C312 C315 1.386 . S
H313 C329 0.930 . S
H314 C330 0.931 . S
C315 H303 0.929 . S
C315 C309 1.390 . S
C315 C312 1.386 . S
C316 C311 1.490 . S
C316 C318 1.395 . S
C316 C319 1.403 . S
H317 C323 0.930 . S
C318 H304 0.930 . S
C318 C316 1.395 . S
C318 C321 1.403 . S
C319 C316 1.403 . S
C319 C320 1.524 . S
C319 C323 1.400 . S
C320 H305 0.960 . S
C320 H306 0.960 . S
C320 H307 0.960 . S
C320 C319 1.524 . S
C321 C318 1.403 . S
C321 C322 1.392 . S
C321 C325 1.495 . S
C322 C321 1.392 . S
C322 C323 1.385 . S
C322 C324 1.478 . S
C323 H317 0.930 . S
C323 C319 1.400 . S
C323 C322 1.385 . S
C324 C322 1.478 . S
C324 C326 1.381 . S
C324 C330 1.383 . S
C325 C321 1.495 . S
C325 H331 0.959 . S
C325 H332 0.961 . S
C325 H333 0.960 . S
C326 C324 1.381 . S
C326 C327 1.394 . S
C326 H334 0.930 . S
C327 C326 1.394 . S
C327 C328 1.383 . S
C327 H335 0.929 . S
C328 C327 1.383 . S
C328 C329 1.377 . S
C329 H313 0.930 . S
C329 C328 1.377 . S
C329 C330 1.379 . S
C330 H314 0.931 . S
C330 C324 1.383 . S
C330 C329 1.379 . S
H331 C325 0.959 . S
H332 C325 0.961 . S
H333 C325 0.960 . S
H334 C326 0.930 . S
H335 C327 0.929 . S
H336 C344 0.929 . S
H337 C346 0.930 . S
H338 C348 0.930 . S
H339 C351 0.929 . S
H340 C354 0.930 . S
H341 C356 0.960 . S
H342 C356 0.960 . S
H343 C356 0.960 . S
C344 H336 0.929 . S
C344 C345 1.377 . S
C344 C346 1.384 . S
C345 C344 1.377 . S
C345 C351 1.390 . S
C346 H337 0.930 . S
C346 C344 1.384 . S
C346 C347 1.372 . S
C347 C346 1.372 . S
C347 C348 1.400 . S
C347 C352 1.490 . S
C348 H338 0.930 . S
C348 C347 1.400 . S
C348 C351 1.386 . S
H349 C365 0.930 . S
H350 C366 0.931 . S
C351 H339 0.929 . S
C351 C345 1.390 . S
C351 C348 1.386 . S
C352 C347 1.490 . S
C352 C354 1.395 . S
C352 C355 1.403 . S
H353 C359 0.930 . S
C354 H340 0.930 . S
C354 C352 1.395 . S
C354 C357 1.403 . S
C355 C352 1.403 . S
C355 C356 1.524 . S
C355 C359 1.400 . S
C356 H341 0.960 . S
C356 H342 0.960 . S
C356 H343 0.960 . S
C356 C355 1.524 . S
C357 C354 1.403 . S
C357 C358 1.392 . S
C357 C361 1.495 . S
C358 C357 1.392 . S
C358 C359 1.385 . S
C358 C360 1.478 . S
C359 H353 0.930 . S
C359 C355 1.400 . S
C359 C358 1.385 . S
C360 C358 1.478 . S
C360 C362 1.381 . S
C360 C366 1.383 . S
C361 C357 1.495 . S
C361 H367 0.959 . S
C361 H368 0.961 . S
C361 H369 0.960 . S
C362 C360 1.381 . S
C362 C363 1.394 . S
C362 H370 0.930 . S
C363 C362 1.394 . S
C363 C364 1.383 . S
C363 H371 0.929 . S
C364 C363 1.383 . S
C364 C365 1.377 . S
C365 H349 0.930 . S
C365 C364 1.377 . S
C365 C366 1.379 . S
C366 H350 0.931 . S
C366 C360 1.383 . S
C366 C365 1.379 . S
H367 C361 0.959 . S
H368 C361 0.961 . S
H369 C361 0.960 . S
H370 C362 0.930 . S
H371 C363 0.929 . S
H372 C380 0.929 . S
H373 C382 0.930 . S
H374 C384 0.930 . S
H375 C387 0.929 . S
H376 C390 0.930 . S
H377 C392 0.960 . S
H378 C392 0.960 . S
H379 C392 0.960 . S
C380 H372 0.929 . S
C380 C381 1.377 . S
C380 C382 1.384 . S
C381 C380 1.377 . S
C381 C387 1.390 . S
C382 H373 0.930 . S
C382 C380 1.384 . S
C382 C383 1.372 . S
C383 C382 1.372 . S
C383 C384 1.400 . S
C383 C388 1.490 . S
C384 H374 0.930 . S
C384 C383 1.400 . S
C384 C387 1.386 . S
H385 C401 0.930 . S
H386 C402 0.931 . S
C387 H375 0.929 . S
C387 C381 1.390 . S
C387 C384 1.386 . S
C388 C383 1.490 . S
C388 C390 1.395 . S
C388 C391 1.403 . S
H389 C395 0.930 . S
C390 H376 0.930 . S
C390 C388 1.395 . S
C390 C393 1.403 . S
C391 C388 1.403 . S
C391 C392 1.524 . S
C391 C395 1.400 . S
C392 H377 0.960 . S
C392 H378 0.960 . S
C392 H379 0.960 . S
C392 C391 1.524 . S
C393 C390 1.403 . S
C393 C394 1.392 . S
C393 C397 1.495 . S
C394 C393 1.392 . S
C394 C395 1.385 . S
C394 C396 1.478 . S
C395 H389 0.930 . S
C395 C391 1.400 . S
C395 C394 1.385 . S
C396 C394 1.478 . S
C396 C398 1.381 . S
C396 C402 1.383 . S
C397 C393 1.495 . S
C397 H403 0.959 . S
C397 H404 0.961 . S
C397 H405 0.960 . S
C398 C396 1.381 . S
C398 C399 1.394 . S
C398 H406 0.930 . S
C399 C398 1.394 . S
C399 C400 1.383 . S
C399 H407 0.929 . S
C400 C399 1.383 . S
C400 C401 1.377 . S
C401 H385 0.930 . S
C401 C400 1.377 . S
C401 C402 1.379 . S
C402 H386 0.931 . S
C402 C396 1.383 . S
C402 C401 1.379 . S
H403 C397 0.959 . S
H404 C397 0.961 . S
H405 C397 0.960 . S
H406 C398 0.930 . S
H407 C399 0.929 . S
H408 C416 0.929 . S
H409 C418 0.930 . S
H410 C420 0.930 . S
H411 C423 0.929 . S
H412 C426 0.930 . S
H413 C428 0.960 . S
H414 C428 0.960 . S
H415 C428 0.960 . S
C416 H408 0.929 . S
C416 C417 1.377 . S
C416 C418 1.384 . S
C417 C416 1.377 . S
C417 C423 1.390 . S
C418 H409 0.930 . S
C418 C416 1.384 . S
C418 C419 1.372 . S
C419 C418 1.372 . S
C419 C420 1.400 . S
C419 C424 1.490 . S
C420 H410 0.930 . S
C420 C419 1.400 . S
C420 C423 1.386 . S
H421 C437 0.930 . S
H422 C438 0.931 . S
C423 H411 0.929 . S
C423 C417 1.390 . S
C423 C420 1.386 . S
C424 C419 1.490 . S
C424 C426 1.395 . S
C424 C427 1.403 . S
H425 C431 0.930 . S
C426 H412 0.930 . S
C426 C424 1.395 . S
C426 C429 1.403 . S
C427 C424 1.403 . S
C427 C428 1.524 . S
C427 C431 1.400 . S
C428 H413 0.960 . S
C428 H414 0.960 . S
C428 H415 0.960 . S
C428 C427 1.524 . S
C429 C426 1.403 . S
C429 C430 1.392 . S
C429 C433 1.495 . S
C430 C429 1.392 . S
C430 C431 1.385 . S
C430 C432 1.478 . S
C431 H425 0.930 . S
C431 C427 1.400 . S
C431 C430 1.385 . S
C432 C430 1.478 . S
C432 C434 1.381 . S
C432 C438 1.383 . S
C433 C429 1.495 . S
C433 H439 0.959 . S
C433 H440 0.961 . S
C433 H441 0.960 . S
C434 C432 1.381 . S
C434 C435 1.394 . S
C434 H442 0.930 . S
C435 C434 1.394 . S
C435 C436 1.383 . S
C435 H443 0.929 . S
C436 C435 1.383 . S
C436 C437 1.377 . S
C437 H421 0.930 . S
C437 C436 1.377 . S
C437 C438 1.379 . S
C438 H422 0.931 . S
C438 C432 1.383 . S
C438 C437 1.379 . S
H439 C433 0.959 . S
H440 C433 0.961 . S
H441 C433 0.960 . S
H442 C434 0.930 . S
H443 C435 0.929 . S
H444 C452 0.929 . S
H445 C454 0.930 . S
H446 C456 0.930 . S
H447 C459 0.929 . S
H448 C462 0.930 . S
H449 C464 0.960 . S
H450 C464 0.960 . S
H451 C464 0.960 . S
C452 H444 0.929 . S
C452 C453 1.377 . S
C452 C454 1.384 . S
C453 C452 1.377 . S
C453 C459 1.390 . S
C454 H445 0.930 . S
C454 C452 1.384 . S
C454 C455 1.372 . S
C455 C454 1.372 . S
C455 C456 1.400 . S
C455 C460 1.490 . S
C456 H446 0.930 . S
C456 C455 1.400 . S
C456 C459 1.386 . S
H457 C473 0.930 . S
H458 C474 0.931 . S
C459 H447 0.929 . S
C459 C453 1.390 . S
C459 C456 1.386 . S
C460 C455 1.490 . S
C460 C462 1.395 . S
C460 C463 1.403 . S
H461 C467 0.930 . S
C462 H448 0.930 . S
C462 C460 1.395 . S
C462 C465 1.403 . S
C463 C460 1.403 . S
C463 C464 1.524 . S
C463 C467 1.400 . S
C464 H449 0.960 . S
C464 H450 0.960 . S
C464 H451 0.960 . S
C464 C463 1.524 . S
C465 C462 1.403 . S
C465 C466 1.392 . S
C465 C469 1.495 . S
C466 C465 1.392 . S
C466 C467 1.385 . S
C466 C468 1.478 . S
C467 H461 0.930 . S
C467 C463 1.400 . S
C467 C466 1.385 . S
C468 C466 1.478 . S
C468 C470 1.381 1_556 S
C468 C474 1.383 . S
C469 C465 1.495 . S
C469 H475 0.959 . S
C469 H476 0.961 . S
C469 H477 0.960 . S
C470 C468 1.381 1_554 S
C470 C471 1.394 . S
C470 H478 0.930 . S
C471 C470 1.394 . S
C471 C472 1.383 . S
C471 H479 0.929 . S
C472 C471 1.383 . S
C472 C473 1.377 1_554 S
C473 H457 0.930 . S
C473 C472 1.377 1_556 S
C473 C474 1.379 . S
C474 H458 0.931 . S
C474 C468 1.383 . S
C474 C473 1.379 . S
H475 C469 0.959 . S
H476 C469 0.961 . S
H477 C469 0.960 . S
H478 C470 0.930 . S
H479 C471 0.929 . S
H480 C488 0.929 . S
H481 C490 0.930 . S
H482 C492 0.930 . S
H483 C495 0.929 . S
H484 C498 0.930 . S
H485 C500 0.960 . S
H486 C500 0.960 . S
H487 C500 0.960 . S
C488 H480 0.929 . S
C488 C489 1.377 . S
C488 C490 1.384 . S
C489 C488 1.377 . S
C489 C495 1.390 1_556 S
C490 H481 0.930 . S
C490 C488 1.384 . S
C490 C491 1.372 1_556 S
C491 C490 1.372 1_554 S
C491 C492 1.400 . S
C491 C496 1.490 . S
C492 H482 0.930 . S
C492 C491 1.400 . S
C492 C495 1.386 . S
H493 C509 0.930 . S
H494 C510 0.931 . S
C495 H483 0.929 . S
C495 C489 1.390 1_554 S
C495 C492 1.386 . S
C496 C491 1.490 . S
C496 C498 1.395 . S
C496 C499 1.403 . S
H497 C503 0.930 . S
C498 H484 0.930 . S
C498 C496 1.395 . S
C498 C501 1.403 . S
C499 C496 1.403 . S
C499 C500 1.524 . S
C499 C503 1.400 . S
C500 H485 0.960 . S
C500 H486 0.960 . S
C500 H487 0.960 . S
C500 C499 1.524 . S
C501 C498 1.403 . S
C501 C502 1.392 . S
C501 C505 1.495 . S
C502 C501 1.392 . S
C502 C503 1.385 . S
C502 C504 1.478 . S
C503 H497 0.930 . S
C503 C499 1.400 . S
C503 C502 1.385 . S
C504 C502 1.478 . S
C504 C506 1.381 . S
C504 C510 1.383 . S
C505 C501 1.495 . S
C505 H511 0.959 . S
C505 H512 0.961 . S
C505 H513 0.960 . S
C506 C504 1.381 . S
C506 C507 1.394 . S
C506 H514 0.930 . S
C507 C506 1.394 . S
C507 C508 1.383 . S
C507 H515 0.929 . S
C508 C507 1.383 . S
C508 C509 1.377 . S
C509 H493 0.930 . S
C509 C508 1.377 . S
C509 C510 1.379 . S
C510 H494 0.931 . S
C510 C504 1.383 . S
C510 C509 1.379 . S
H511 C505 0.959 . S
H512 C505 0.961 . S
H513 C505 0.960 . S
H514 C506 0.930 . S
H515 C507 0.929 . S
C93 C7 1.246 1_556 S
C112 C50 1.267 . S
C129 C64 1.261 . S
C148 C21 1.226 . S
C165 C35 1.249 . S
C184 C78 1.263 1_554 S
C201 C49 1.248 . S
C220 C8 1.250 . S
C237 C22 1.259 . S
C256 C63 1.247 . S
C273 C77 1.250 . S
C292 C36 1.249 . S
C309 C3 1.148 . S
C328 C37 1.162 . S
C345 C17 1.149 . S
C364 C51 1.157 . S
C381 C65 1.141 . S
C400 C31 1.129 . S
C417 C79 1.128 . S
C436 C45 1.171 . S
C453 C59 1.149 . S
C472 C9 1.157 . S
C489 C73 1.157 . S
C508 C23 1.101 . S
