# Generated by pormake.
# Topology oof, (8)-cn, num edge types: 1
# Building blocks:
#     Node 0, Type 0, BuildingBlock: TAGTUT_clean_sbu_3, # of connection points: 8
#     Node 1, Type 0, BuildingBlock: TAGTUT_clean_sbu_3, # of connection points: 8
#     Node 2, Type 0, BuildingBlock: TAGTUT_clean_sbu_3, # of connection points: 8
#     Node 3, Type 0, BuildingBlock: TAGTUT_clean_sbu_3, # of connection points: 8
#     Edge 4, Type (0, 0), BuildingBlock: UVAHIK_clean_linker_0, # of connection points: 2
#     Edge 5, Type (0, 0), BuildingBlock: UVAHIK_clean_linker_0, # of connection points: 2
#     Edge 6, Type (0, 0), BuildingBlock: UVAHIK_clean_linker_0, # of connection points: 2
#     Edge 7, Type (0, 0), BuildingBlock: UVAHIK_clean_linker_0, # of connection points: 2
#     Edge 8, Type (0, 0), BuildingBlock: UVAHIK_clean_linker_0, # of connection points: 2
#     Edge 9, Type (0, 0), BuildingBlock: UVAHIK_clean_linker_0, # of connection points: 2
#     Edge 10, Type (0, 0), BuildingBlock: UVAHIK_clean_linker_0, # of connection points: 2
#     Edge 11, Type (0, 0), BuildingBlock: UVAHIK_clean_linker_0, # of connection points: 2
#     Edge 12, Type (0, 0), BuildingBlock: UVAHIK_clean_linker_0, # of connection points: 2
#     Edge 13, Type (0, 0), BuildingBlock: UVAHIK_clean_linker_0, # of connection points: 2
#     Edge 14, Type (0, 0), BuildingBlock: UVAHIK_clean_linker_0, # of connection points: 2
#     Edge 15, Type (0, 0), BuildingBlock: UVAHIK_clean_linker_0, # of connection points: 2
#     Edge 16, Type (0, 0), BuildingBlock: UVAHIK_clean_linker_0, # of connection points: 2
#     Edge 17, Type (0, 0), BuildingBlock: UVAHIK_clean_linker_0, # of connection points: 2
#     Edge 18, Type (0, 0), BuildingBlock: UVAHIK_clean_linker_0, # of connection points: 2
#     Edge 19, Type (0, 0), BuildingBlock: UVAHIK_clean_linker_0, # of connection points: 2
# Relax obj value: 0.063
# Max RMSD: 0.155
# Mean RMSD: 0.155
data_MOF--net-oof--node1-TAGTUT_clean_sbu_3--edge1-UVAHIK_clean_linker_0
_symmetry_space_group_name_H-M    P1
_symmetry_Int_Tables_number       1
_symmetry_cell_setting            triclinic
loop_
_symmetry_equiv_pos_as_xyz
'x, y, z'
_cell_length_a     20.003875
_cell_length_b     78.134727
_cell_length_c     19.648672
_cell_angle_alpha  90.042468
_cell_angle_beta   87.129649
_cell_angle_gamma 89.945706
loop_
_atom_site_label
_atom_site_type_symbol
_atom_site_fract_x
_atom_site_fract_y
_atom_site_fract_z
_atom_type_partial_charge
C0 C 0.12168 0.16344 0.23298 0.0
C1 C 0.97243 0.21804 0.26042 0.0
C2 C 0.83462 0.18911 0.13812 0.0
Mg3 Mg 0.08603 0.12352 0.21317 0.0
Mg4 Mg 0.94307 0.10822 0.27468 0.0
O5 O -0.01457 0.12447 0.21938 0.0
Mg6 Mg 0.97047 0.14954 0.23888 0.0
O7 O 0.96272 0.17506 0.25208 0.0
Mg8 Mg 0.00063 0.18309 0.16137 0.0
Mg9 Mg 0.88258 0.18566 0.28222 0.0
C10 C 0.82189 0.13236 0.24151 0.0
O11 O 0.94009 0.14697 0.35251 0.0
O12 O 0.0778 0.09508 0.17639 0.0
O13 O 0.86656 0.1689 0.36933 0.0
O14 O 0.09405 0.11219 0.32289 0.0
O15 O 0.97801 0.08586 0.21985 0.0
O16 O -0.00886 0.1081 0.36882 0.0
O17 O -0.0051 0.1545 0.12918 0.0
O18 O 0.07153 0.13429 0.10468 0.0
C19 C 0.0331 0.14645 0.08621 0.0
C20 C 0.03334 0.08328 0.18558 0.0
O21 O 0.86054 0.1449 0.22409 0.0
O22 O 0.00335 0.21054 0.2096 0.0
O23 O 0.84297 0.11827 0.26651 0.0
O24 O 0.8967 0.18861 0.11929 0.0
O25 O 0.92478 0.21077 0.29559 0.0
O26 O 0.81521 0.18683 0.20027 0.0
O27 O 0.08085 0.15162 0.252 0.0
O28 O 0.10208 0.17678 0.20194 0.0
C29 C 0.05448 0.10774 0.37311 0.0
C30 C 0.89653 0.15539 0.38971 0.0
C31 C 0.05979 0.88121 0.58564 0.0
C32 C 0.0425 0.94571 0.67709 0.0
C33 C 0.06472 0.92295 0.86839 0.0
Mg34 Mg 0.02928 0.84513 0.66476 0.0
Mg35 Mg 0.91196 0.84225 0.7877 0.0
O36 O -0.01101 0.85361 0.75383 0.0
Mg37 Mg -0.0079 0.879 0.73715 0.0
O38 O 0.00212 0.90409 0.71451 0.0
Mg39 Mg 0.10249 0.90633 0.71099 0.0
Mg40 Mg 0.95621 0.92034 0.76722 0.0
C41 C 0.92182 0.87375 0.89038 0.0
O42 O 0.88047 0.88194 0.7243 0.0
O43 O 0.03619 0.81822 0.71656 0.0
O44 O 0.85878 0.90875 0.76353 0.0
O45 O 0.92696 0.83777 0.623 0.0
O46 O 0.95994 0.81797 0.80464 0.0
O47 O 0.84612 0.83889 0.705 0.0
O48 O 0.10216 0.87853 0.75291 0.0
O49 O 0.12789 0.85295 0.70807 0.0
C50 C 0.14445 0.86668 0.7385 0.0
C51 C 0.00786 0.81087 0.76908 0.0
O52 O 0.96258 0.88211 0.84998 0.0
O53 O 0.08947 0.93443 0.67043 0.0
O54 O 0.89315 0.85974 0.87333 0.0
O55 O 0.10617 0.91852 0.81969 0.0
O56 O -0.01307 0.94265 0.71019 0.0
O57 O 0.00172 0.92208 0.86231 0.0
O58 O 0.01947 0.87335 0.6274 0.0
O59 O 0.09405 0.89414 0.60454 0.0
C60 C 0.86533 0.83642 0.64285 0.0
C61 C 0.83981 0.89403 0.74275 0.0
C62 C 0.5606 0.64509 0.08672 0.0
C63 C 0.54281 0.58071 0.17299 0.0
C64 C 0.56539 0.60227 0.36703 0.0
Mg65 Mg 0.52896 0.68104 0.16685 0.0
Mg66 Mg 0.40948 0.68363 0.28789 0.0
O67 O 0.48761 0.67244 0.2552 0.0
Mg68 Mg 0.49154 0.64707 0.23807 0.0
O69 O 0.50243 0.62202 0.2152 0.0
Mg70 Mg 0.60277 0.61987 0.2115 0.0
Mg71 Mg 0.45629 0.60541 0.26568 0.0
C72 C 0.41983 0.65219 0.39099 0.0
O73 O 0.38005 0.64401 0.22446 0.0
O74 O 0.53469 0.70789 0.21964 0.0
O75 O 0.35883 0.61715 0.26322 0.0
O76 O 0.42724 0.68827 0.12395 0.0
O77 O 0.45608 0.70802 0.30561 0.0
O78 O 0.34468 0.68704 0.20409 0.0
O79 O 0.60159 0.64758 0.25467 0.0
O80 O 0.62727 0.67325 0.21106 0.0
C81 C 0.64381 0.65948 0.24115 0.0
C82 C 0.50469 0.71518 0.27148 0.0
O83 O 0.46108 0.64388 0.35079 0.0
O84 O 0.5902 0.59189 0.16901 0.0
O85 O 0.3908 0.66614 0.37363 0.0
O86 O 0.60643 0.60753 0.31945 0.0
O87 O 0.48667 0.58366 0.20522 0.0
O88 O 0.50239 0.60244 0.36018 0.0
O89 O 0.51973 0.6529 0.12827 0.0
O90 O 0.59487 0.6322 0.10574 0.0
C91 C 0.36523 0.68955 0.14236 0.0
C92 C 0.3396 0.63189 0.24285 0.0
C93 C 0.54821 0.37725 0.57275 0.0
C94 C 0.54449 0.44206 0.66063 0.0
C95 C 0.55392 0.41976 0.85365 0.0
Mg96 Mg 0.50743 0.34197 0.65336 0.0
Mg97 Mg 0.38977 0.34112 0.77693 0.0
O98 O 0.46916 0.35126 0.74184 0.0
Mg99 Mg 0.47784 0.37643 0.72299 0.0
O100 O 0.49367 0.40121 0.6989 0.0
Mg101 Mg 0.59406 0.40198 0.69841 0.0
Mg102 Mg 0.44901 0.4183 0.74824 0.0
C103 C 0.40654 0.37274 0.87733 0.0
O104 O 0.36771 0.38094 0.70497 0.0
O105 O 0.50847 0.31523 0.7068 0.0
O106 O 0.34941 0.40831 0.73859 0.0
O107 O 0.40283 0.33615 0.61331 0.0
O108 O 0.4322 0.31615 0.79477 0.0
O109 O 0.3223 0.33899 0.69512 0.0
O110 O 0.58758 0.37428 0.74024 0.0
O111 O 0.60867 0.34861 0.6939 0.0
C112 C 0.62826 0.36219 0.72344 0.0
C113 C 0.47866 0.30836 0.75957 0.0
O114 O 0.44799 0.38046 0.83563 0.0
O115 O 0.5887 0.43005 0.6567 0.0
O116 O 0.37538 0.35897 0.86186 0.0
O117 O 0.59621 0.41452 0.80698 0.0
O118 O 0.487 0.43998 0.69132 0.0
O119 O 0.49117 0.41967 0.84513 0.0
O120 O 0.50511 0.37012 0.61392 0.0
O121 O 0.5853 0.38962 0.59202 0.0
C122 C 0.34093 0.33594 0.63316 0.0
C123 C 0.32878 0.39378 0.71746 0.0
C124 C 0.94794 0.14991 0.00105 0.0
C125 C 0.01539 0.14731 0.01482 0.0
C126 C 0.92681 0.14841 0.93527 0.0
C127 C 0.98107 0.13282 0.76187 0.0
H128 H 0.83108 0.16087 0.71269 0.0
C129 C 0.87445 0.16442 0.50911 0.0
C130 C 0.88775 0.15115 0.46231 0.0
C131 C 0.87816 0.16152 0.57841 0.0
C132 C 0.87331 0.15301 0.72529 0.0
H133 H 0.11407 0.14148 0.97083 0.0
H134 H 0.07829 0.14039 0.85356 0.0
H135 H 0.86938 0.16245 0.82658 0.0
H136 H 0.90836 0.12409 0.45107 0.0
H137 H 0.91235 0.11873 0.57359 0.0
H138 H -0.01096 0.12483 0.65785 0.0
C139 C 0.04102 0.14277 0.89432 0.0
C140 C 0.89476 0.15367 0.79135 0.0
C141 C 0.06191 0.14366 0.96112 0.0
C142 C 0.8996 0.13458 0.48629 0.0
C143 C 0.90205 0.13156 0.55621 0.0
C144 C 0.96095 0.13261 0.69489 0.0
C145 C 0.97291 0.14492 0.88078 0.0
C146 C 0.9494 0.14373 0.81048 0.0
C147 C 0.89375 0.14517 0.60281 0.0
C148 C 0.90775 0.14302 0.67557 0.0
H149 H 0.91042 0.15229 0.04171 0.0
H150 H 0.87377 0.1496 0.92785 0.0
H151 H 0.0221 0.12462 0.77503 0.0
H152 H 0.86559 0.17738 0.49214 0.0
H153 H 0.87273 0.17243 0.61225 0.0
C154 C 0.0896 0.88818 0.4639 0.0
C155 C 0.05541 0.87774 0.51226 0.0
C156 C 0.07312 0.8877 0.39582 0.0
C157 C 0.97993 0.86345 0.26971 0.0
H158 H 0.95728 0.90838 0.18981 0.0
C159 C 0.87195 0.87024 0.00872 0.0
C160 C 0.91614 0.87887 0.96266 0.0
C161 C 0.87866 0.87188 0.07873 0.0
C162 C 0.96317 0.89579 0.21173 0.0
H163 H 0.98197 0.85742 0.52592 0.0
H164 H 0.95287 0.85673 0.40779 0.0
H165 H -0.00102 0.90596 0.30402 0.0
H166 H -0.0019 0.89702 0.95412 0.0
H167 H 0.00881 0.90011 0.07566 0.0
H168 H 0.94439 0.85329 0.17726 0.0
C169 C -0.00779 0.86531 0.42224 0.0
C170 C -0.01227 0.89437 0.27661 0.0
C171 C 0.00887 0.86574 0.49015 0.0
C172 C 0.96269 0.89039 0.988 0.0
C173 C 0.96905 0.89212 0.05784 0.0
C174 C 0.95504 0.86488 0.20502 0.0
C175 C 0.02225 0.87677 0.37504 0.0
C176 C -0.00291 0.87818 0.30587 0.0
C177 C 0.92923 0.88226 0.10358 0.0
C178 C 0.9471 0.88105 0.17524 0.0
H179 H 0.12633 0.89742 0.47911 0.0
H180 H 0.09839 0.89634 0.35997 0.0
H181 H -0.01295 0.85082 0.29079 0.0
H182 H 0.83506 0.86139 -0.00919 0.0
H183 H 0.84672 0.86435 0.1133 0.0
C184 C 0.59086 0.63783 0.96542 0.0
C185 C 0.55724 0.64858 0.01323 0.0
C186 C 0.57552 0.6384 0.89707 0.0
C187 C 0.54854 0.64596 0.74993 0.0
H188 H 0.35786 0.64748 0.72189 0.0
C189 C 0.37809 0.65739 0.51131 0.0
C190 C 0.41447 0.64717 0.4635 0.0
C191 C 0.38804 0.65566 0.58073 0.0
C192 C 0.41118 0.64707 0.72906 0.0
H193 H 0.48635 0.66954 0.02564 0.0
H194 H 0.46046 0.67069 0.9061 0.0
H195 H 0.39754 0.65061 0.83676 0.0
H196 H 0.48337 0.6258 0.45188 0.0
H197 H 0.49921 0.6225 0.57269 0.0
H198 H 0.56234 0.64248 0.64242 0.0
C199 C 0.49717 0.6615 0.92195 0.0
C200 C 0.43395 0.64901 0.79456 0.0
C201 C 0.51247 0.66093 -0.00969 0.0
C202 C 0.45498 0.63395 0.48704 0.0
C203 C 0.46464 0.63217 0.55632 0.0
C204 C 0.5258 0.644 0.68458 0.0
C205 C 0.5266 0.64978 0.87529 0.0
C206 C 0.50287 0.6485 0.80552 0.0
C207 C 0.43414 0.64363 0.60332 0.0
C208 C 0.45693 0.64452 0.67352 0.0
H209 H 0.62595 0.62823 0.98127 0.0
H210 H 0.59905 0.62921 0.86218 0.0
H211 H 0.60191 0.64568 0.75684 0.0
H212 H 0.34584 0.66758 0.49505 0.0
H213 H 0.36362 0.66462 0.61596 0.0
C214 C 0.35783 0.37029 -0.00347 0.0
C215 C 0.40349 0.37806 0.94945 0.0
C216 C 0.36656 0.37171 0.0663 0.0
C217 C 0.46071 0.39371 0.19741 0.0
H218 H 0.47029 0.34837 0.27691 0.0
C219 C 0.58197 0.38358 0.45127 0.0
C220 C 0.54415 0.37382 0.49927 0.0
C221 C 0.56642 0.3834 0.38287 0.0
C222 C 0.46725 0.36112 0.25571 0.0
H223 H 0.49055 0.39455 0.93899 0.0
H224 H 0.50473 0.39735 0.06012 0.0
H225 H 0.42818 0.35178 0.16354 0.0
H226 H 0.46487 0.35493 0.51202 0.0
H227 H 0.43739 0.35481 0.39338 0.0
H228 H 0.49978 0.40307 0.28954 0.0
C229 C 0.46231 0.39015 0.04328 0.0
C230 C 0.4427 0.36309 0.19108 0.0
C231 C 0.45391 0.38862 0.97366 0.0
C232 C 0.49465 0.36273 0.47653 0.0
C233 C 0.47892 0.36262 0.40831 0.0
C234 C 0.48491 0.39176 0.26227 0.0
C235 C 0.42072 0.38103 0.08994 0.0
C236 C 0.43962 0.37938 0.16121 0.0
C237 C 0.51284 0.37348 0.36138 0.0
C238 C 0.48894 0.37542 0.29182 0.0
H239 H 0.31803 0.36218 0.97954 0.0
H240 H 0.33317 0.36479 0.10156 0.0
H241 H 0.45868 0.4064 0.17544 0.0
H242 H 0.62101 0.3921 0.46697 0.0
H243 H 0.59464 0.39154 0.34731 0.0
C244 C 0.72599 0.14791 0.19464 0.0
C245 C 0.74988 0.13442 0.2339 0.0
C246 C 0.65759 0.1506 0.19124 0.0
C247 C 0.49423 0.1303 0.21851 0.0
H248 H 0.43291 0.17658 0.25758 0.0
C249 C 0.21741 0.14644 0.27316 0.0
C250 C 0.1937 0.16073 0.2384 0.0
C251 C 0.28579 0.14323 0.27352 0.0
C252 C 0.44946 0.16365 0.24601 0.0
H253 H 0.72136 0.11269 0.29785 0.0
H254 H 0.60156 0.11745 0.29185 0.0
H255 H 0.5525 0.17044 0.25052 0.0
H256 H 0.22273 0.18315 0.17853 0.0
H257 H 0.34188 0.17741 0.1787 0.0
H258 H 0.39113 0.12352 0.21376 0.0
C259 C 0.63588 0.12588 0.26372 0.0
C260 C 0.51762 0.16016 0.24179 0.0
C261 C 0.70431 0.12322 0.26733 0.0
C262 C 0.23948 0.17203 0.20582 0.0
C263 C 0.30771 0.1688 0.20607 0.0
C264 C 0.42598 0.1338 0.22249 0.0
C265 C 0.61221 0.13976 0.22668 0.0
C266 C 0.54037 0.14347 0.22815 0.0
C267 C 0.33128 0.15428 0.23922 0.0
C268 C 0.40319 0.15049 0.23641 0.0
H269 H 0.76003 0.15646 0.16695 0.0
H270 H 0.64017 0.16123 0.16146 0.0
H271 H 0.51098 0.11736 0.20739 0.0
H272 H 0.18326 0.13764 0.29937 0.0
H273 H 0.30308 0.13209 0.30036 0.0
C274 C 0.74597 0.87345 0.75554 0.0
C275 C 0.7681 0.89035 0.74671 0.0
C276 C 0.67816 0.86994 0.7651 0.0
C277 C 0.51904 0.88918 0.82139 0.0
H278 H 0.44289 0.85447 0.70737 0.0
C279 C 0.24077 0.88486 0.76824 0.0
C280 C 0.21371 0.8686 0.75746 0.0
C281 C 0.30828 0.88655 0.78079 0.0
C282 C 0.46357 0.86392 0.74074 0.0
H283 H 0.73734 0.91694 0.74133 0.0
H284 H 0.61799 0.91077 0.75763 0.0
H285 H 0.56282 0.85938 0.69989 0.0
H286 H 0.2335 0.84127 0.7574 0.0
H287 H 0.3511 0.84421 0.78071 0.0
H288 H 0.41932 0.89391 0.86142 0.0
C289 C 0.65343 0.90028 0.75759 0.0
C290 C 0.53206 0.86677 0.73614 0.0
C291 C 0.72138 0.90377 0.74772 0.0
C292 C 0.25375 0.85399 0.76382 0.0
C293 C 0.32084 0.85566 0.77731 0.0
C294 C 0.45035 0.88626 0.82633 0.0
C295 C 0.63156 0.88335 0.76656 0.0
C296 C 0.56 0.87961 0.77552 0.0
C297 C 0.34913 0.87196 0.78357 0.0
C298 C 0.42206 0.8738 0.78516 0.0
H299 H 0.78111 0.863 0.75765 0.0
H300 H 0.66223 0.8568 0.77271 0.0
H301 H 0.54008 0.899 0.85287 0.0
H302 H 0.21067 0.8963 0.76413 0.0
H303 H 0.32907 0.89928 0.78486 0.0
C304 C 0.74011 0.64121 0.27068 0.0
C305 C 0.71305 0.6575 0.26026 0.0
C306 C 0.80766 0.63946 0.28306 0.0
C307 C 0.96295 0.66203 0.24301 0.0
H308 H 0.03989 0.62678 0.35394 0.0
C309 C 0.24554 0.65246 0.2565 0.0
C310 C 0.26781 0.63556 0.24729 0.0
C311 C 0.1777 0.65595 0.26646 0.0
C312 C 0.01874 0.63665 0.32279 0.0
H313 H 0.73291 0.68481 0.26074 0.0
H314 H 0.85057 0.68177 0.28375 0.0
H315 H 0.91911 0.63191 0.36297 0.0
H316 H 0.23726 0.60897 0.24169 0.0
H317 H 0.11789 0.61512 0.25862 0.0
H318 H 0.06208 0.6666 0.202 0.0
C319 C 0.82028 0.67034 0.28019 0.0
C320 C 0.95003 0.63958 0.32799 0.0
C321 C 0.75314 0.67207 0.26689 0.0
C322 C 0.2212 0.62214 0.24836 0.0
C323 C 0.15323 0.62561 0.25859 0.0
C324 C 0.03145 0.65917 0.23813 0.0
C325 C 0.84858 0.65402 0.28602 0.0
C326 C 0.92156 0.65212 0.28728 0.0
C327 C 0.1312 0.64254 0.26789 0.0
C328 C 0.05958 0.64627 0.27709 0.0
H329 H 0.71001 0.62979 0.26638 0.0
H330 H 0.82843 0.62671 0.28682 0.0
H331 H 0.94216 0.67154 0.20996 0.0
H332 H 0.28059 0.66291 0.25857 0.0
H333 H 0.16168 0.66908 0.27434 0.0
C334 C 0.74597 0.3528 0.70077 0.0
C335 C 0.70035 0.36483 0.72909 0.0
C336 C 0.81429 0.35597 0.69998 0.0
C337 C 0.93234 0.39136 0.70262 0.0
H338 H 0.0604 0.35562 0.73926 0.0
C339 C 0.2111 0.40334 0.73956 0.0
C340 C 0.2568 0.39154 0.70975 0.0
C341 C 0.14268 0.4005 0.73718 0.0
C342 C 0.02508 0.36563 0.72806 0.0
H343 H 0.69044 0.38917 0.78204 0.0
H344 H 0.81038 0.39461 0.78126 0.0
H345 H 0.94096 0.34947 0.75112 0.0
H346 H 0.26708 0.36826 0.64987 0.0
H347 H 0.14707 0.3632 0.64645 0.0
H348 H 0.01671 0.40756 0.68031 0.0
C349 C 0.79289 0.38292 0.75844 0.0
C350 C 0.95698 0.36215 0.73507 0.0
C351 C 0.7244 0.37977 0.75913 0.0
C352 C 0.23295 0.37729 0.67486 0.0
C353 C 0.1645 0.37443 0.67265 0.0
C354 C 0.00049 0.39487 0.69587 0.0
C355 C 0.83819 0.37117 0.72781 0.0
C356 C 0.91013 0.37499 0.72246 0.0
C357 C 0.11904 0.38586 0.70493 0.0
C358 C 0.04722 0.38202 0.70862 0.0
H359 H 0.72902 0.34113 0.67733 0.0
H360 H 0.84824 0.34678 0.67553 0.0
H361 H 0.89708 0.40138 0.69138 0.0
H362 H 0.22802 0.41447 0.76668 0.0
H363 H 0.10837 0.40942 0.76281 0.0
C364 C 0.31199 0.32486 0.51847 0.0
C365 C 0.29099 0.3301 0.58468 0.0
C366 C 0.26782 0.31651 0.47663 0.0
C367 C 0.11683 0.28965 0.493 0.0
H368 H 0.12887 0.29101 0.29547 0.0
C369 C 0.9613 0.24367 0.33718 0.0
C370 C -0.00328 0.2349 0.28416 0.0
C371 C -0.01124 0.25807 0.36736 0.0
C372 C 0.12504 0.29046 0.3506 0.0
H373 H 0.20522 0.33195 0.65639 0.0
H374 H 0.12782 0.31773 0.58282 0.0
H375 H 0.19076 0.31187 0.36036 0.0
H376 H 0.08738 0.23513 0.21876 0.0
H377 H 0.13552 0.26019 0.27185 0.0
H378 H 0.05252 0.26806 0.48353 0.0
C379 C 0.17908 0.31963 0.564 0.0
C380 C 0.16051 0.30242 0.38785 0.0
C381 C 0.22339 0.32791 0.60605 0.0
C382 C 0.05862 0.24154 0.25942 0.0
C383 C 0.0862 0.25596 0.28979 0.0
C384 C 0.0813 0.27777 0.45586 0.0
C385 C 0.20134 0.31328 0.49967 0.0
C386 C 0.15776 0.30198 0.45959 0.0
C387 C 0.05245 0.2641 0.34548 0.0
C388 C 0.08571 0.27783 0.38419 0.0
H389 H 0.36354 0.32642 0.49996 0.0
H390 H 0.28704 0.31176 0.42769 0.0
H391 H 0.1144 0.28865 0.54803 0.0
H392 H 0.91316 0.23907 0.35714 0.0
H393 H 0.96077 0.26424 0.40917 0.0
C394 C 0.4768 0.28478 0.84657 0.0
C395 C 0.50295 0.2916 0.78452 0.0
C396 C 0.50542 0.27026 0.87493 0.0
C397 C 0.66695 0.24759 0.87343 0.0
H398 H 0.56722 0.21438 0.98428 0.0
C399 C 0.80597 0.19628 0.01872 0.0
C400 C 0.7858 0.19464 0.08802 0.0
C401 C 0.7653 0.20471 0.97361 0.0
C402 C 0.59579 0.22357 0.9536 0.0
H403 H 0.5774 0.28777 0.70176 0.0
H404 H 0.62651 0.2623 0.75067 0.0
H405 H 0.50721 0.23556 0.91902 0.0
H406 H 0.70429 0.19928 0.16279 0.0
H407 H 0.6338 0.21419 0.08435 0.0
H408 H 0.75535 0.23602 0.90912 0.0
C409 C 0.58472 0.26842 0.77816 0.0
C410 C 0.56141 0.23573 0.91621 0.0
C411 C 0.55623 0.28299 0.74986 0.0
C412 C 0.72162 0.20041 0.10987 0.0
C413 C 0.68101 0.20893 0.06472 0.0
C414 C 0.70121 0.23547 0.91062 0.0
C415 C 0.56081 0.26213 0.84193 0.0
C416 C 0.5966 0.24807 0.87644 0.0
C417 C 0.70352 0.21177 -0.00336 0.0
C418 C 0.66619 0.22344 0.95198 0.0
H419 H 0.43578 0.29102 0.87482 0.0
H420 H 0.48598 0.26591 0.92435 0.0
H421 H 0.69585 0.25707 0.84456 0.0
H422 H 0.85459 0.19172 -0.0002 0.0
H423 H 0.78342 0.20625 0.9211 0.0
C424 C 0.49541 0.74043 0.35036 0.0
C425 C 0.53029 0.73176 0.29673 0.0
C426 C 0.52317 0.75478 0.38061 0.0
C427 C 0.65792 0.78746 0.362 0.0
H428 H 0.64744 0.7863 0.5595 0.0
C429 C 0.8394 0.82438 0.52873 0.0
C430 C 0.81694 0.82978 0.5943 0.0
C431 C 0.79701 0.81533 0.48719 0.0
C432 C 0.64983 0.7871 0.50442 0.0
H433 H 0.62057 0.73201 0.23076 0.0
H434 H 0.66929 0.75699 0.28407 0.0
H435 H 0.58757 0.76508 0.4961 0.0
H436 H 0.73026 0.83117 0.66503 0.0
H437 H 0.65597 0.81569 0.59201 0.0
H438 H 0.72148 0.80935 0.37064 0.0
C439 C 0.62011 0.75273 0.30234 0.0
C440 C 0.61547 0.77486 0.46793 0.0
C441 C 0.59223 0.73835 0.27189 0.0
C442 C 0.74957 0.82701 0.61525 0.0
C443 C 0.70706 0.81801 0.57352 0.0
C444 C 0.69223 0.79978 0.39861 0.0
C445 C 0.58664 0.76085 0.35824 0.0
C446 C 0.61966 0.77474 0.39627 0.0
C447 C 0.7309 0.81153 0.50994 0.0
C448 C 0.68932 0.79962 0.47037 0.0
H449 H 0.44726 0.73586 0.37043 0.0
H450 H 0.4954 0.76092 0.42261 0.0
H451 H 0.66156 0.78786 0.30684 0.0
H452 H 0.89085 0.82637 0.51061 0.0
H453 H 0.81737 0.8105 0.43881 0.0
C454 C 0.34031 0.69864 0.02394 0.0
C455 C 0.31821 0.69611 0.09231 0.0
C456 C 0.30093 0.70763 0.97931 0.0
C457 C 0.13136 0.72582 0.95654 0.0
H458 H 0.23101 0.76102 0.85635 0.0
C459 C 0.00786 0.78672 0.85335 0.0
C460 C 0.03489 0.79433 0.79316 0.0
C461 C 0.03791 0.77232 0.88097 0.0
C462 C 0.20232 0.75108 0.88271 0.0
H463 H 0.23492 0.69997 0.16576 0.0
H464 H 0.16648 0.7158 0.088 0.0
H465 H 0.29056 0.7398 0.92025 0.0
H466 H 0.11298 0.79205 0.71295 0.0
H467 H 0.16473 0.76675 0.76056 0.0
H468 H 0.0429 0.73741 0.91997 0.0
C469 C 0.21428 0.71079 0.06884 0.0
C470 C 0.23658 0.73887 0.91954 0.0
C471 C 0.25368 0.70174 0.11357 0.0
C472 C 0.09097 0.78664 0.75958 0.0
C473 C 0.12096 0.77218 0.78717 0.0
C474 C 0.097 0.73803 0.91945 0.0
C475 C 0.23844 0.71434 0.00183 0.0
C476 C 0.20157 0.72624 0.95774 0.0
C477 C 0.09572 0.76507 0.84907 0.0
C478 C 0.13201 0.75099 0.88292 0.0
H479 H 0.38933 0.69427 0.00541 0.0
H480 H 0.3204 0.70979 0.92759 0.0
H481 H 0.1029 0.71614 0.98473 0.0
H482 H 0.96469 0.79224 0.88073 0.0
H483 H 0.01739 0.76735 0.92901 0.0
C484 C 0.00379 0.05228 0.17984 0.0
C485 C 0.0469 0.06572 0.15929 0.0
C486 C 0.01592 0.03561 0.1572 0.0
C487 C 0.14442 1.00652 0.07884 0.0
H488 H -0.01239 0.98113 0.02959 0.0
C489 C 0.14278 0.94452 0.91412 0.0
C490 C 0.08789 0.93345 0.9253 0.0
C491 C 0.14927 0.95909 0.95493 0.0
C492 C 0.03192 0.98786 0.04442 0.0
H493 H 0.13752 0.07202 0.09932 0.0
H494 H 0.15782 0.04276 0.05805 0.0
H495 H 0.97501 1.01016 0.07113 0.0
H496 H 0.00276 0.92758 -0.00617 0.0
H497 H 0.01595 0.95238 0.0666 0.0
H498 H 0.20134 0.98409 0.04966 0.0
C499 C 0.11505 0.04521 0.09268 0.0
C500 C 0.02468 1.00459 0.06805 0.0
C501 C 0.1031 0.06199 0.11585 0.0
C502 C 0.04535 0.93589 0.98358 0.0
C503 C 0.05239 0.95026 0.02479 0.0
C504 C 0.15175 0.98967 0.05468 0.0
C505 C 0.07114 0.03186 0.1127 0.0
C506 C 0.08062 0.01413 0.08604 0.0
C507 C 0.10143 0.96264 0.00795 0.0
C508 C 0.09537 0.98012 0.03767 0.0
H509 H 0.96058 0.05453 0.21412 0.0
H510 H 0.98187 0.02562 0.17495 0.0
H511 H 0.18851 0.01349 0.09263 0.0
H512 H 0.17638 0.94304 0.86953 0.0
H513 H 0.18787 0.96831 0.94084 0.0
C514 C 0.13573 0.08643 0.4152 0.0
C515 C 0.08039 0.09726 0.42882 0.0
C516 C 0.14398 0.07163 0.45418 0.0
C517 C 0.03022 0.04172 0.54061 0.0
H518 H 0.18897 0.01664 0.58678 0.0
C519 C 0.00749 0.97632 0.6693 0.0
C520 C 0.0534 0.96332 0.65016 0.0
C521 C 0.01751 0.9931 0.64725 0.0
C522 C 0.14428 0.02343 0.57343 0.0
H523 H -0.00304 0.10257 0.50015 0.0
H524 H 0.01251 0.07715 0.56925 0.0
H525 H 0.19913 0.04635 0.54706 0.0
H526 H 0.14653 0.95798 0.59281 0.0
H527 H 0.16308 0.98742 0.55226 0.0
H528 H 0.97537 0.01893 0.56405 0.0
C529 C 0.04804 0.07969 0.52705 0.0
C530 C 0.15009 0.04047 0.55121 0.0
C531 C 0.03952 0.09437 0.48792 0.0
C532 C 0.10999 0.96764 0.60826 0.0
C533 C 0.11977 0.98454 0.58553 0.0
C534 C 0.02451 0.02477 0.56205 0.0
C535 C 0.0974 0.06757 0.50767 0.0
C536 C 0.0929 0.04984 0.53516 0.0
C537 C 0.07332 0.99746 0.60455 0.0
C538 C 0.08122 0.0154 0.57938 0.0
H539 H 0.16817 0.08826 0.36999 0.0
H540 H 0.1828 0.06261 0.4382 0.0
H541 H -0.01462 0.04834 0.52647 0.0
H542 H 0.96382 0.97363 0.70238 0.0
H543 H 0.98148 1.00272 0.66442 0.0
C544 C 0.50484 0.55061 0.15642 0.0
C545 C 0.5535 0.56334 0.1434 0.0
C546 C 0.51433 0.53403 0.13179 0.0
C547 C 0.64157 0.50317 0.06353 0.0
H548 H 0.48426 0.48062 -0.00117 0.0
C549 C 0.63456 0.44052 0.90085 0.0
C550 C 0.57687 0.43033 0.91057 0.0
C551 C 0.6424 0.45529 0.94024 0.0
C552 C 0.52852 0.48659 0.01778 0.0
H553 H 0.65095 0.5684 0.09421 0.0
H554 H 0.66682 0.5393 0.04926 0.0
H555 H 0.47597 0.50988 0.03891 0.0
H556 H 0.48754 0.42623 0.97554 0.0
H557 H 0.50247 0.4515 0.04541 0.0
H558 H 0.69427 0.47972 0.03979 0.0
C559 C 0.62163 0.54224 0.07967 0.0
C560 C 0.52382 0.50344 0.04066 0.0
C561 C 0.61228 0.55895 0.10491 0.0
C562 C 0.53227 0.43385 0.96637 0.0
C563 C 0.54041 0.44846 0.00594 0.0
C564 C 0.64643 0.48622 0.03987 0.0
C565 C 0.57244 0.52961 0.09258 0.0
C566 C 0.5799 0.51192 0.06475 0.0
C567 C 0.59298 0.45995 -0.00978 0.0
C568 C 0.58958 0.47769 0.01764 0.0
H569 H 0.45927 0.55334 0.1866 0.0
H570 H 0.47603 0.52459 0.1442 0.0
H571 H 0.6857 0.50929 0.08201 0.0
H572 H 0.66981 0.4382 0.85818 0.0
H573 H 0.68367 0.46383 0.9272 0.0
C574 C 0.51578 0.47294 0.64524 0.0
C575 C 0.56165 0.45943 0.6344 0.0
C576 C 0.53295 0.48965 0.62673 0.0
C577 C 0.64223 0.51499 0.51206 0.0
H578 H 0.5849 0.55202 0.63319 0.0
C579 C 0.65338 0.58385 0.41589 0.0
C580 C 0.59055 0.59192 0.42353 0.0
C581 C 0.6677 0.56952 0.45536 0.0
C582 C 0.6015 0.54185 0.59886 0.0
H583 H 0.66144 0.45298 0.59394 0.0
H584 H 0.69103 0.48233 0.56034 0.0
H585 H 0.57375 0.52242 0.67168 0.0
H586 H 0.4975 0.59279 0.485 0.0
H587 H 0.52231 0.56801 0.55353 0.0
H588 H 0.66687 0.53429 0.43799 0.0
C589 C 0.64184 0.47985 0.58378 0.0
C590 C 0.595 0.5249 0.62085 0.0
C591 C 0.6248 0.46305 0.60289 0.0
C592 C 0.54609 0.58676 0.47728 0.0
C593 C 0.56048 0.57251 0.51682 0.0
C594 C 0.64848 0.53196 0.48992 0.0
C595 C 0.59633 0.49336 0.59648 0.0
C596 C 0.61318 0.51127 0.57688 0.0
C597 C 0.61975 0.56311 0.50358 0.0
C598 C 0.62612 0.54558 0.53227 0.0
H599 H 0.46661 0.47073 0.66919 0.0
H600 H 0.49619 0.49969 0.63577 0.0
H601 H 0.65642 0.50478 0.47692 0.0
H602 H 0.68905 0.58754 0.37526 0.0
H603 H 0.71452 0.56281 0.44505 0.0
loop_
_geom_bond_atom_site_label_1
_geom_bond_atom_site_label_2
_geom_bond_distance
_geom_bond_site_symmetry_2
_ccdc_geom_bond_type
C0 O27 1.312 . S
C0 O28 1.208 . S
C1 O22 1.331 . S
C1 O25 1.244 . S
C2 O24 1.264 . S
C2 O26 1.273 . S
Mg3 O5 1.936 1_455 S
Mg3 O12 2.081 . S
Mg3 O14 2.023 . S
Mg3 O18 2.031 . S
Mg3 O27 2.291 . S
Mg4 O5 1.963 . S
Mg4 O15 1.942 . S
Mg4 O16 1.955 . S
Mg4 O23 1.986 . S
O5 Mg3 1.936 1_655 S
O5 Mg4 1.963 . S
O5 Mg6 1.915 . S
Mg6 O5 1.915 . S
Mg6 O7 1.915 1_655 S
Mg6 O11 2.013 . S
Mg6 O17 2.114 1_655 S
Mg6 O21 2.013 . S
Mg6 O27 2.114 1_655 S
O7 Mg6 1.915 1_455 S
O7 Mg8 1.936 . S
O7 Mg9 1.963 1_455 S
Mg8 O7 1.936 . S
Mg8 O17 2.291 . S
Mg8 O22 2.081 . S
Mg8 O24 2.023 1_455 S
Mg8 O28 2.031 . S
Mg9 O7 1.963 1_655 S
Mg9 O13 1.986 . S
Mg9 O25 1.942 1_655 S
Mg9 O26 1.955 . S
C10 O21 1.191 . S
C10 O23 1.307 . S
O11 Mg6 2.013 . S
O11 C30 1.191 . S
O12 Mg3 2.081 . S
O12 C20 1.331 1_455 S
O13 Mg9 1.986 . S
O13 C30 1.307 . S
O14 Mg3 2.023 . S
O14 C29 1.264 . S
O15 Mg4 1.942 . S
O15 C20 1.244 . S
O16 Mg4 1.955 . S
O16 C29 1.273 1_655 S
O17 Mg6 2.114 1_455 S
O17 Mg8 2.291 . S
O17 C19 1.312 . S
O18 Mg3 2.031 . S
O18 C19 1.208 . S
C19 O17 1.312 . S
C19 O18 1.208 . S
C20 O12 1.331 1_655 S
C20 O15 1.244 . S
O21 Mg6 2.013 . S
O21 C10 1.191 . S
O22 C1 1.331 . S
O22 Mg8 2.081 . S
O23 Mg4 1.986 . S
O23 C10 1.307 . S
O24 C2 1.264 . S
O24 Mg8 2.023 1_655 S
O25 C1 1.244 . S
O25 Mg9 1.942 1_455 S
O26 C2 1.273 . S
O26 Mg9 1.955 . S
O27 C0 1.312 . S
O27 Mg3 2.291 . S
O27 Mg6 2.114 1_455 S
O28 C0 1.208 . S
O28 Mg8 2.031 . S
C29 O14 1.264 . S
C29 O16 1.273 1_455 S
C30 O11 1.191 . S
C30 O13 1.307 . S
C31 O58 1.312 . S
C31 O59 1.208 . S
C32 O53 1.331 1_655 S
C32 O56 1.244 . S
C33 O55 1.264 . S
C33 O57 1.273 1_455 S
Mg34 O36 1.936 . S
Mg34 O43 2.081 . S
Mg34 O45 2.023 1_455 S
Mg34 O49 2.031 . S
Mg34 O58 2.291 . S
Mg35 O36 1.963 1_655 S
Mg35 O46 1.942 1_655 S
Mg35 O47 1.955 . S
Mg35 O54 1.986 . S
O36 Mg34 1.936 . S
O36 Mg35 1.963 1_455 S
O36 Mg37 1.915 1_455 S
Mg37 O36 1.915 1_655 S
Mg37 O38 1.915 . S
Mg37 O42 2.013 . S
Mg37 O48 2.114 1_655 S
Mg37 O52 2.013 . S
Mg37 O58 2.114 1_655 S
O38 Mg37 1.915 . S
O38 Mg39 1.936 1_655 S
O38 Mg40 1.963 . S
Mg39 O38 1.936 1_455 S
Mg39 O48 2.291 . S
Mg39 O53 2.081 . S
Mg39 O55 2.023 . S
Mg39 O59 2.031 . S
Mg40 O38 1.963 . S
Mg40 O44 1.986 . S
Mg40 O56 1.942 . S
Mg40 O57 1.955 . S
C41 O52 1.191 . S
C41 O54 1.307 . S
O42 Mg37 2.013 . S
O42 C61 1.191 . S
O43 Mg34 2.081 . S
O43 C51 1.331 . S
O44 Mg40 1.986 . S
O44 C61 1.307 . S
O45 Mg34 2.023 1_655 S
O45 C60 1.264 . S
O46 Mg35 1.942 1_455 S
O46 C51 1.244 . S
O47 Mg35 1.955 . S
O47 C60 1.273 . S
O48 Mg37 2.114 1_455 S
O48 Mg39 2.291 . S
O48 C50 1.312 . S
O49 Mg34 2.031 . S
O49 C50 1.208 . S
C50 O48 1.312 . S
C50 O49 1.208 . S
C51 O43 1.331 . S
C51 O46 1.244 . S
O52 Mg37 2.013 . S
O52 C41 1.191 . S
O53 C32 1.331 1_455 S
O53 Mg39 2.081 . S
O54 Mg35 1.986 . S
O54 C41 1.307 . S
O55 C33 1.264 . S
O55 Mg39 2.023 . S
O56 C32 1.244 . S
O56 Mg40 1.942 . S
O57 C33 1.273 1_655 S
O57 Mg40 1.955 . S
O58 C31 1.312 . S
O58 Mg34 2.291 . S
O58 Mg37 2.114 1_455 S
O59 C31 1.208 . S
O59 Mg39 2.031 . S
C60 O45 1.264 . S
C60 O47 1.273 . S
C61 O42 1.191 . S
C61 O44 1.307 . S
C62 O89 1.312 . S
C62 O90 1.208 . S
C63 O84 1.331 . S
C63 O87 1.244 . S
C64 O86 1.264 . S
C64 O88 1.273 . S
Mg65 O67 1.936 . S
Mg65 O74 2.081 . S
Mg65 O76 2.023 . S
Mg65 O80 2.031 . S
Mg65 O89 2.291 . S
Mg66 O67 1.963 . S
Mg66 O77 1.942 . S
Mg66 O78 1.955 . S
Mg66 O85 1.986 . S
O67 Mg65 1.936 . S
O67 Mg66 1.963 . S
O67 Mg68 1.915 . S
Mg68 O67 1.915 . S
Mg68 O69 1.915 . S
Mg68 O73 2.013 . S
Mg68 O79 2.114 . S
Mg68 O83 2.013 . S
Mg68 O89 2.114 . S
O69 Mg68 1.915 . S
O69 Mg70 1.936 . S
O69 Mg71 1.963 . S
Mg70 O69 1.936 . S
Mg70 O79 2.291 . S
Mg70 O84 2.081 . S
Mg70 O86 2.023 . S
Mg70 O90 2.031 . S
Mg71 O69 1.963 . S
Mg71 O75 1.986 . S
Mg71 O87 1.942 . S
Mg71 O88 1.955 . S
C72 O83 1.191 . S
C72 O85 1.307 . S
O73 Mg68 2.013 . S
O73 C92 1.191 . S
O74 Mg65 2.081 . S
O74 C82 1.331 . S
O75 Mg71 1.986 . S
O75 C92 1.307 . S
O76 Mg65 2.023 . S
O76 C91 1.264 . S
O77 Mg66 1.942 . S
O77 C82 1.244 . S
O78 Mg66 1.955 . S
O78 C91 1.273 . S
O79 Mg68 2.114 . S
O79 Mg70 2.291 . S
O79 C81 1.312 . S
O80 Mg65 2.031 . S
O80 C81 1.208 . S
C81 O79 1.312 . S
C81 O80 1.208 . S
C82 O74 1.331 . S
C82 O77 1.244 . S
O83 Mg68 2.013 . S
O83 C72 1.191 . S
O84 C63 1.331 . S
O84 Mg70 2.081 . S
O85 Mg66 1.986 . S
O85 C72 1.307 . S
O86 C64 1.264 . S
O86 Mg70 2.023 . S
O87 C63 1.244 . S
O87 Mg71 1.942 . S
O88 C64 1.273 . S
O88 Mg71 1.955 . S
O89 C62 1.312 . S
O89 Mg65 2.291 . S
O89 Mg68 2.114 . S
O90 C62 1.208 . S
O90 Mg70 2.031 . S
C91 O76 1.264 . S
C91 O78 1.273 . S
C92 O73 1.191 . S
C92 O75 1.307 . S
C93 O120 1.312 . S
C93 O121 1.208 . S
C94 O115 1.331 . S
C94 O118 1.244 . S
C95 O117 1.264 . S
C95 O119 1.273 . S
Mg96 O98 1.936 . S
Mg96 O105 2.081 . S
Mg96 O107 2.023 . S
Mg96 O111 2.031 . S
Mg96 O120 2.291 . S
Mg97 O98 1.963 . S
Mg97 O108 1.942 . S
Mg97 O109 1.955 . S
Mg97 O116 1.986 . S
O98 Mg96 1.936 . S
O98 Mg97 1.963 . S
O98 Mg99 1.915 . S
Mg99 O98 1.915 . S
Mg99 O100 1.915 . S
Mg99 O104 2.013 . S
Mg99 O110 2.114 . S
Mg99 O114 2.013 . S
Mg99 O120 2.114 . S
O100 Mg99 1.915 . S
O100 Mg101 1.936 . S
O100 Mg102 1.963 . S
Mg101 O100 1.936 . S
Mg101 O110 2.291 . S
Mg101 O115 2.081 . S
Mg101 O117 2.023 . S
Mg101 O121 2.031 . S
Mg102 O100 1.963 . S
Mg102 O106 1.986 . S
Mg102 O118 1.942 . S
Mg102 O119 1.955 . S
C103 O114 1.191 . S
C103 O116 1.307 . S
O104 Mg99 2.013 . S
O104 C123 1.191 . S
O105 Mg96 2.081 . S
O105 C113 1.331 . S
O106 Mg102 1.986 . S
O106 C123 1.307 . S
O107 Mg96 2.023 . S
O107 C122 1.264 . S
O108 Mg97 1.942 . S
O108 C113 1.244 . S
O109 Mg97 1.955 . S
O109 C122 1.273 . S
O110 Mg99 2.114 . S
O110 Mg101 2.291 . S
O110 C112 1.312 . S
O111 Mg96 2.031 . S
O111 C112 1.208 . S
C112 O110 1.312 . S
C112 O111 1.208 . S
C113 O105 1.331 . S
C113 O108 1.244 . S
O114 Mg99 2.013 . S
O114 C103 1.191 . S
O115 C94 1.331 . S
O115 Mg101 2.081 . S
O116 Mg97 1.986 . S
O116 C103 1.307 . S
O117 C95 1.264 . S
O117 Mg101 2.023 . S
O118 C94 1.244 . S
O118 Mg102 1.942 . S
O119 C95 1.273 . S
O119 Mg102 1.955 . S
O120 C93 1.312 . S
O120 Mg96 2.291 . S
O120 Mg99 2.114 . S
O121 C93 1.208 . S
O121 Mg101 2.031 . S
C122 O107 1.264 . S
C122 O109 1.273 . S
C123 O104 1.191 . S
C123 O106 1.307 . S
C124 C125 1.349 1_655 S
C124 C126 1.327 1_554 S
C124 H149 0.950 . S
C125 C124 1.349 1_455 S
C125 C141 1.349 . S
C126 C124 1.327 1_556 S
C126 C145 1.429 1_655 S
C126 H150 0.950 . S
C127 C144 1.574 . S
C127 C146 1.368 . S
C127 H151 0.949 . S
H128 C132 0.949 . S
C129 C130 1.349 1_455 S
C129 C131 1.327 . S
C129 H152 0.950 . S
C130 C129 1.349 1_655 S
C130 C142 1.349 . S
C131 C129 1.327 . S
C131 C147 1.429 1_455 S
C131 H153 0.950 . S
C132 H128 0.949 . S
C132 C140 1.574 . S
C132 C148 1.368 . S
H133 C141 0.950 . S
H134 C139 0.950 . S
H135 C140 0.949 . S
H136 C142 0.950 . S
H137 C143 0.950 . S
H138 C144 0.949 . S
C139 H134 0.950 . S
C139 C141 1.327 1_556 S
C139 C145 1.429 . S
C140 C132 1.574 . S
C140 H135 0.949 . S
C140 C146 1.368 1_655 S
C141 C125 1.349 . S
C141 H133 0.950 . S
C141 C139 1.327 1_554 S
C142 C130 1.349 . S
C142 H136 0.950 . S
C142 C143 1.327 . S
C143 H137 0.950 . S
C143 C142 1.327 . S
C143 C147 1.429 . S
C144 C127 1.574 . S
C144 H138 0.949 . S
C144 C148 1.368 1_455 S
C145 C126 1.429 1_455 S
C145 C139 1.429 . S
C145 C146 1.523 . S
C146 C127 1.368 . S
C146 C140 1.368 1_455 S
C146 C145 1.523 . S
C147 C131 1.429 1_655 S
C147 C143 1.429 . S
C147 C148 1.523 . S
C148 C132 1.368 . S
C148 C144 1.368 1_655 S
C148 C147 1.523 . S
H149 C124 0.950 . S
H150 C126 0.950 . S
H151 C127 0.949 . S
H152 C129 0.950 . S
H153 C131 0.950 . S
C154 C155 1.349 . S
C154 C156 1.327 . S
C154 H179 0.950 . S
C155 C154 1.349 . S
C155 C171 1.349 1_455 S
C156 C154 1.327 . S
C156 C175 1.429 . S
C156 H180 0.950 . S
C157 C174 1.574 . S
C157 C176 1.368 1_655 S
C157 H181 0.949 . S
H158 C162 0.949 . S
C159 C160 1.349 1_554 S
C159 C161 1.327 . S
C159 H182 0.950 1_554 S
C160 C159 1.349 1_556 S
C160 C172 1.349 1_655 S
C161 C159 1.327 . S
C161 C177 1.429 . S
C161 H183 0.950 . S
C162 H158 0.949 . S
C162 C170 1.574 . S
C162 C178 1.368 1_455 S
H163 C171 0.950 . S
H164 C169 0.950 . S
H165 C170 0.949 . S
H166 C172 0.950 . S
H167 C173 0.950 . S
H168 C174 0.949 . S
C169 H164 0.950 . S
C169 C171 1.327 . S
C169 C175 1.429 1_655 S
C170 C162 1.574 . S
C170 H165 0.949 . S
C170 C176 1.368 . S
C171 C155 1.349 1_655 S
C171 H163 0.950 . S
C171 C169 1.327 . S
C172 C160 1.349 1_455 S
C172 H166 0.950 . S
C172 C173 1.327 1_556 S
C173 H167 0.950 . S
C173 C172 1.327 1_554 S
C173 C177 1.429 1_455 S
C174 C157 1.574 . S
C174 H168 0.949 . S
C174 C178 1.368 . S
C175 C156 1.429 . S
C175 C169 1.429 1_455 S
C175 C176 1.523 . S
C176 C157 1.368 1_455 S
C176 C170 1.368 . S
C176 C175 1.523 . S
C177 C161 1.429 . S
C177 C173 1.429 1_655 S
C177 C178 1.523 . S
C178 C162 1.368 1_655 S
C178 C174 1.368 . S
C178 C177 1.523 . S
H179 C154 0.950 . S
H180 C156 0.950 . S
H181 C157 0.949 . S
H182 C159 0.950 1_556 S
H183 C161 0.950 . S
C184 C185 1.349 . S
C184 C186 1.327 1_554 S
C184 H209 0.950 . S
C185 C184 1.349 . S
C185 C201 1.349 . S
C186 C184 1.327 1_556 S
C186 C205 1.429 . S
C186 H210 0.950 . S
C187 C204 1.574 . S
C187 C206 1.368 . S
C187 H211 0.949 . S
H188 C192 0.949 . S
C189 C190 1.349 . S
C189 C191 1.327 . S
C189 H212 0.950 . S
C190 C189 1.349 . S
C190 C202 1.349 . S
C191 C189 1.327 . S
C191 C207 1.429 . S
C191 H213 0.950 . S
C192 H188 0.949 . S
C192 C200 1.574 . S
C192 C208 1.368 . S
H193 C201 0.950 . S
H194 C199 0.950 . S
H195 C200 0.949 . S
H196 C202 0.950 . S
H197 C203 0.950 . S
H198 C204 0.949 . S
C199 H194 0.950 . S
C199 C201 1.327 1_556 S
C199 C205 1.429 . S
C200 C192 1.574 . S
C200 H195 0.949 . S
C200 C206 1.368 . S
C201 C185 1.349 . S
C201 H193 0.950 . S
C201 C199 1.327 1_554 S
C202 C190 1.349 . S
C202 H196 0.950 . S
C202 C203 1.327 . S
C203 H197 0.950 . S
C203 C202 1.327 . S
C203 C207 1.429 . S
C204 C187 1.574 . S
C204 H198 0.949 . S
C204 C208 1.368 . S
C205 C186 1.429 . S
C205 C199 1.429 . S
C205 C206 1.523 . S
C206 C187 1.368 . S
C206 C200 1.368 . S
C206 C205 1.523 . S
C207 C191 1.429 . S
C207 C203 1.429 . S
C207 C208 1.523 . S
C208 C192 1.368 . S
C208 C204 1.368 . S
C208 C207 1.523 . S
H209 C184 0.950 . S
H210 C186 0.950 . S
H211 C187 0.949 . S
H212 C189 0.950 . S
H213 C191 0.950 . S
C214 C215 1.349 1_554 S
C214 C216 1.327 . S
C214 H239 0.950 1_554 S
C215 C214 1.349 1_556 S
C215 C231 1.349 . S
C216 C214 1.327 . S
C216 C235 1.429 . S
C216 H240 0.950 . S
C217 C234 1.574 . S
C217 C236 1.368 . S
C217 H241 0.949 . S
H218 C222 0.949 . S
C219 C220 1.349 . S
C219 C221 1.327 . S
C219 H242 0.950 . S
C220 C219 1.349 . S
C220 C232 1.349 . S
C221 C219 1.327 . S
C221 C237 1.429 . S
C221 H243 0.950 . S
C222 H218 0.949 . S
C222 C230 1.574 . S
C222 C238 1.368 . S
H223 C231 0.950 . S
H224 C229 0.950 . S
H225 C230 0.949 . S
H226 C232 0.950 . S
H227 C233 0.950 . S
H228 C234 0.949 . S
C229 H224 0.950 . S
C229 C231 1.327 1_554 S
C229 C235 1.429 . S
C230 C222 1.574 . S
C230 H225 0.949 . S
C230 C236 1.368 . S
C231 C215 1.349 . S
C231 H223 0.950 . S
C231 C229 1.327 1_556 S
C232 C220 1.349 . S
C232 H226 0.950 . S
C232 C233 1.327 . S
C233 H227 0.950 . S
C233 C232 1.327 . S
C233 C237 1.429 . S
C234 C217 1.574 . S
C234 H228 0.949 . S
C234 C238 1.368 . S
C235 C216 1.429 . S
C235 C229 1.429 . S
C235 C236 1.523 . S
C236 C217 1.368 . S
C236 C230 1.368 . S
C236 C235 1.523 . S
C237 C221 1.429 . S
C237 C233 1.429 . S
C237 C238 1.523 . S
C238 C222 1.368 . S
C238 C234 1.368 . S
C238 C237 1.523 . S
H239 C214 0.950 1_556 S
H240 C216 0.950 . S
H241 C217 0.949 . S
H242 C219 0.950 . S
H243 C221 0.950 . S
C244 C245 1.349 . S
C244 C246 1.327 . S
C244 H269 0.950 . S
C245 C244 1.349 . S
C245 C261 1.349 . S
C246 C244 1.327 . S
C246 C265 1.429 . S
C246 H270 0.950 . S
C247 C264 1.574 . S
C247 C266 1.368 . S
C247 H271 0.949 . S
H248 C252 0.949 . S
C249 C250 1.349 . S
C249 C251 1.327 . S
C249 H272 0.950 . S
C250 C249 1.349 . S
C250 C262 1.349 . S
C251 C249 1.327 . S
C251 C267 1.429 . S
C251 H273 0.950 . S
C252 H248 0.949 . S
C252 C260 1.574 . S
C252 C268 1.368 . S
H253 C261 0.950 . S
H254 C259 0.950 . S
H255 C260 0.949 . S
H256 C262 0.950 . S
H257 C263 0.950 . S
H258 C264 0.949 . S
C259 H254 0.950 . S
C259 C261 1.327 . S
C259 C265 1.429 . S
C260 C252 1.574 . S
C260 H255 0.949 . S
C260 C266 1.368 . S
C261 C245 1.349 . S
C261 H253 0.950 . S
C261 C259 1.327 . S
C262 C250 1.349 . S
C262 H256 0.950 . S
C262 C263 1.327 . S
C263 H257 0.950 . S
C263 C262 1.327 . S
C263 C267 1.429 . S
C264 C247 1.574 . S
C264 H258 0.949 . S
C264 C268 1.368 . S
C265 C246 1.429 . S
C265 C259 1.429 . S
C265 C266 1.523 . S
C266 C247 1.368 . S
C266 C260 1.368 . S
C266 C265 1.523 . S
C267 C251 1.429 . S
C267 C263 1.429 . S
C267 C268 1.523 . S
C268 C252 1.368 . S
C268 C264 1.368 . S
C268 C267 1.523 . S
H269 C244 0.950 . S
H270 C246 0.950 . S
H271 C247 0.949 . S
H272 C249 0.950 . S
H273 C251 0.950 . S
C274 C275 1.349 . S
C274 C276 1.327 . S
C274 H299 0.950 . S
C275 C274 1.349 . S
C275 C291 1.349 . S
C276 C274 1.327 . S
C276 C295 1.429 . S
C276 H300 0.950 . S
C277 C294 1.574 . S
C277 C296 1.368 . S
C277 H301 0.949 . S
H278 C282 0.949 . S
C279 C280 1.349 . S
C279 C281 1.327 . S
C279 H302 0.950 . S
C280 C279 1.349 . S
C280 C292 1.349 . S
C281 C279 1.327 . S
C281 C297 1.429 . S
C281 H303 0.950 . S
C282 H278 0.949 . S
C282 C290 1.574 . S
C282 C298 1.368 . S
H283 C291 0.950 . S
H284 C289 0.950 . S
H285 C290 0.949 . S
H286 C292 0.950 . S
H287 C293 0.950 . S
H288 C294 0.949 . S
C289 H284 0.950 . S
C289 C291 1.327 . S
C289 C295 1.429 . S
C290 C282 1.574 . S
C290 H285 0.949 . S
C290 C296 1.368 . S
C291 C275 1.349 . S
C291 H283 0.950 . S
C291 C289 1.327 . S
C292 C280 1.349 . S
C292 H286 0.950 . S
C292 C293 1.327 . S
C293 H287 0.950 . S
C293 C292 1.327 . S
C293 C297 1.429 . S
C294 C277 1.574 . S
C294 H288 0.949 . S
C294 C298 1.368 . S
C295 C276 1.429 . S
C295 C289 1.429 . S
C295 C296 1.523 . S
C296 C277 1.368 . S
C296 C290 1.368 . S
C296 C295 1.523 . S
C297 C281 1.429 . S
C297 C293 1.429 . S
C297 C298 1.523 . S
C298 C282 1.368 . S
C298 C294 1.368 . S
C298 C297 1.523 . S
H299 C274 0.950 . S
H300 C276 0.950 . S
H301 C277 0.949 . S
H302 C279 0.950 . S
H303 C281 0.950 . S
C304 C305 1.349 . S
C304 C306 1.327 . S
C304 H329 0.950 . S
C305 C304 1.349 . S
C305 C321 1.349 . S
C306 C304 1.327 . S
C306 C325 1.429 . S
C306 H330 0.950 . S
C307 C324 1.574 1_655 S
C307 C326 1.368 . S
C307 H331 0.949 . S
H308 C312 0.949 . S
C309 C310 1.349 . S
C309 C311 1.327 . S
C309 H332 0.950 . S
C310 C309 1.349 . S
C310 C322 1.349 . S
C311 C309 1.327 . S
C311 C327 1.429 . S
C311 H333 0.950 . S
C312 H308 0.949 . S
C312 C320 1.574 1_455 S
C312 C328 1.368 . S
H313 C321 0.950 . S
H314 C319 0.950 . S
H315 C320 0.949 . S
H316 C322 0.950 . S
H317 C323 0.950 . S
H318 C324 0.949 . S
C319 H314 0.950 . S
C319 C321 1.327 . S
C319 C325 1.429 . S
C320 C312 1.574 1_655 S
C320 H315 0.949 . S
C320 C326 1.368 . S
C321 C305 1.349 . S
C321 H313 0.950 . S
C321 C319 1.327 . S
C322 C310 1.349 . S
C322 H316 0.950 . S
C322 C323 1.327 . S
C323 H317 0.950 . S
C323 C322 1.327 . S
C323 C327 1.429 . S
C324 C307 1.574 1_455 S
C324 H318 0.949 . S
C324 C328 1.368 . S
C325 C306 1.429 . S
C325 C319 1.429 . S
C325 C326 1.523 . S
C326 C307 1.368 . S
C326 C320 1.368 . S
C326 C325 1.523 . S
C327 C311 1.429 . S
C327 C323 1.429 . S
C327 C328 1.523 . S
C328 C312 1.368 . S
C328 C324 1.368 . S
C328 C327 1.523 . S
H329 C304 0.950 . S
H330 C306 0.950 . S
H331 C307 0.949 . S
H332 C309 0.950 . S
H333 C311 0.950 . S
C334 C335 1.349 . S
C334 C336 1.327 . S
C334 H359 0.950 . S
C335 C334 1.349 . S
C335 C351 1.349 . S
C336 C334 1.327 . S
C336 C355 1.429 . S
C336 H360 0.950 . S
C337 C354 1.574 1_655 S
C337 C356 1.368 . S
C337 H361 0.949 . S
H338 C342 0.949 . S
C339 C340 1.349 . S
C339 C341 1.327 . S
C339 H362 0.950 . S
C340 C339 1.349 . S
C340 C352 1.349 . S
C341 C339 1.327 . S
C341 C357 1.429 . S
C341 H363 0.950 . S
C342 H338 0.949 . S
C342 C350 1.574 1_455 S
C342 C358 1.368 . S
H343 C351 0.950 . S
H344 C349 0.950 . S
H345 C350 0.949 . S
H346 C352 0.950 . S
H347 C353 0.950 . S
H348 C354 0.949 . S
C349 H344 0.950 . S
C349 C351 1.327 . S
C349 C355 1.429 . S
C350 C342 1.574 1_655 S
C350 H345 0.949 . S
C350 C356 1.368 . S
C351 C335 1.349 . S
C351 H343 0.950 . S
C351 C349 1.327 . S
C352 C340 1.349 . S
C352 H346 0.950 . S
C352 C353 1.327 . S
C353 H347 0.950 . S
C353 C352 1.327 . S
C353 C357 1.429 . S
C354 C337 1.574 1_455 S
C354 H348 0.949 . S
C354 C358 1.368 . S
C355 C336 1.429 . S
C355 C349 1.429 . S
C355 C356 1.523 . S
C356 C337 1.368 . S
C356 C350 1.368 . S
C356 C355 1.523 . S
C357 C341 1.429 . S
C357 C353 1.429 . S
C357 C358 1.523 . S
C358 C342 1.368 . S
C358 C354 1.368 . S
C358 C357 1.523 . S
H359 C334 0.950 . S
H360 C336 0.950 . S
H361 C337 0.949 . S
H362 C339 0.950 . S
H363 C341 0.950 . S
C364 C365 1.349 . S
C364 C366 1.327 . S
C364 H389 0.950 . S
C365 C364 1.349 . S
C365 C381 1.349 . S
C366 C364 1.327 . S
C366 C385 1.429 . S
C366 H390 0.950 . S
C367 C384 1.574 . S
C367 C386 1.368 . S
C367 H391 0.949 . S
H368 C372 0.949 . S
C369 C370 1.349 . S
C369 C371 1.327 . S
C369 H392 0.950 . S
C370 C369 1.349 . S
C370 C382 1.349 . S
C371 C369 1.327 . S
C371 C387 1.429 . S
C371 H393 0.950 . S
C372 H368 0.949 . S
C372 C380 1.574 . S
C372 C388 1.368 . S
H373 C381 0.950 . S
H374 C379 0.950 . S
H375 C380 0.949 . S
H376 C382 0.950 . S
H377 C383 0.950 . S
H378 C384 0.949 . S
C379 H374 0.950 . S
C379 C381 1.327 . S
C379 C385 1.429 . S
C380 C372 1.574 . S
C380 H375 0.949 . S
C380 C386 1.368 . S
C381 C365 1.349 . S
C381 H373 0.950 . S
C381 C379 1.327 . S
C382 C370 1.349 . S
C382 H376 0.950 . S
C382 C383 1.327 . S
C383 H377 0.950 . S
C383 C382 1.327 . S
C383 C387 1.429 . S
C384 C367 1.574 . S
C384 H378 0.949 . S
C384 C388 1.368 . S
C385 C366 1.429 . S
C385 C379 1.429 . S
C385 C386 1.523 . S
C386 C367 1.368 . S
C386 C380 1.368 . S
C386 C385 1.523 . S
C387 C371 1.429 . S
C387 C383 1.429 . S
C387 C388 1.523 . S
C388 C372 1.368 . S
C388 C384 1.368 . S
C388 C387 1.523 . S
H389 C364 0.950 . S
H390 C366 0.950 . S
H391 C367 0.949 . S
H392 C369 0.950 . S
H393 C371 0.950 . S
C394 C395 1.349 . S
C394 C396 1.327 . S
C394 H419 0.950 . S
C395 C394 1.349 . S
C395 C411 1.349 . S
C396 C394 1.327 . S
C396 C415 1.429 . S
C396 H420 0.950 1_556 S
C397 C414 1.574 . S
C397 C416 1.368 . S
C397 H421 0.949 . S
H398 C402 0.949 . S
C399 C400 1.349 . S
C399 C401 1.327 . S
C399 H422 0.950 . S
C400 C399 1.349 . S
C400 C412 1.349 . S
C401 C399 1.327 . S
C401 C417 1.429 . S
C401 H423 0.940 1_554 S
C402 H398 0.949 . S
C402 C410 1.574 . S
C402 C418 1.368 . S
H403 C411 0.950 . S
H404 C409 0.950 . S
H405 C410 0.949 . S
H406 C412 0.950 . S
H407 C413 0.950 . S
H408 C414 0.949 . S
C409 H404 0.950 . S
C409 C411 1.327 . S
C409 C415 1.429 . S
C410 C402 1.574 . S
C410 H405 0.949 . S
C410 C416 1.368 1_554 S
C411 C395 1.349 . S
C411 H403 0.950 . S
C411 C409 1.327 . S
C412 C400 1.349 . S
C412 H406 0.950 . S
C412 C413 1.327 . S
C413 H407 0.950 . S
C413 C412 1.327 . S
C413 C417 1.429 . S
C414 C397 1.574 . S
C414 H408 0.949 . S
C414 C418 1.368 1_556 S
C415 C396 1.429 . S
C415 C409 1.429 . S
C415 C416 1.523 . S
C416 C397 1.368 . S
C416 C410 1.368 1_556 S
C416 C415 1.523 . S
C417 C401 1.429 . S
C417 C413 1.429 . S
C417 C418 1.523 . S
C418 C402 1.368 . S
C418 C414 1.368 1_554 S
C418 C417 1.523 . S
H419 C394 0.950 . S
H420 C396 0.950 1_554 S
H421 C397 0.949 . S
H422 C399 0.950 . S
H423 C401 0.940 1_556 S
C424 C425 1.349 . S
C424 C426 1.327 . S
C424 H449 0.950 . S
C425 C424 1.349 . S
C425 C441 1.349 . S
C426 C424 1.327 . S
C426 C445 1.429 . S
C426 H450 0.950 . S
C427 C444 1.574 . S
C427 C446 1.368 . S
C427 H451 0.949 . S
H428 C432 0.949 . S
C429 C430 1.349 . S
C429 C431 1.327 . S
C429 H452 0.950 . S
C430 C429 1.349 . S
C430 C442 1.349 . S
C431 C429 1.327 . S
C431 C447 1.429 . S
C431 H453 0.950 . S
C432 H428 0.949 . S
C432 C440 1.574 . S
C432 C448 1.368 . S
H433 C441 0.950 . S
H434 C439 0.950 . S
H435 C440 0.949 . S
H436 C442 0.950 . S
H437 C443 0.950 . S
H438 C444 0.949 . S
C439 H434 0.950 . S
C439 C441 1.327 . S
C439 C445 1.429 . S
C440 C432 1.574 . S
C440 H435 0.949 . S
C440 C446 1.368 . S
C441 C425 1.349 . S
C441 H433 0.950 . S
C441 C439 1.327 . S
C442 C430 1.349 . S
C442 H436 0.950 . S
C442 C443 1.327 . S
C443 H437 0.950 . S
C443 C442 1.327 . S
C443 C447 1.429 . S
C444 C427 1.574 . S
C444 H438 0.949 . S
C444 C448 1.368 . S
C445 C426 1.429 . S
C445 C439 1.429 . S
C445 C446 1.523 . S
C446 C427 1.368 . S
C446 C440 1.368 . S
C446 C445 1.523 . S
C447 C431 1.429 . S
C447 C443 1.429 . S
C447 C448 1.523 . S
C448 C432 1.368 . S
C448 C444 1.368 . S
C448 C447 1.523 . S
H449 C424 0.950 . S
H450 C426 0.950 . S
H451 C427 0.949 . S
H452 C429 0.950 . S
H453 C431 0.950 . S
C454 C455 1.349 . S
C454 C456 1.327 . S
C454 H479 0.950 . S
C455 C454 1.349 . S
C455 C471 1.349 . S
C456 C454 1.327 . S
C456 C475 1.429 . S
C456 H480 0.950 . S
C457 C474 1.574 . S
C457 C476 1.368 1_556 S
C457 H481 0.949 . S
H458 C462 0.949 . S
C459 C460 1.349 . S
C459 C461 1.327 . S
C459 H482 0.950 . S
C460 C459 1.349 . S
C460 C472 1.349 . S
C461 C459 1.327 . S
C461 C477 1.429 . S
C461 H483 0.950 . S
C462 H458 0.949 . S
C462 C470 1.574 . S
C462 C478 1.368 1_554 S
H463 C471 0.950 . S
H464 C469 0.950 . S
H465 C470 0.949 . S
H466 C472 0.950 . S
H467 C473 0.950 . S
H468 C474 0.949 . S
C469 H464 0.950 . S
C469 C471 1.327 . S
C469 C475 1.429 . S
C470 C462 1.574 . S
C470 H465 0.949 . S
C470 C476 1.368 . S
C471 C455 1.349 . S
C471 H463 0.950 . S
C471 C469 1.327 . S
C472 C460 1.349 . S
C472 H466 0.950 . S
C472 C473 1.327 . S
C473 H467 0.950 . S
C473 C472 1.327 . S
C473 C477 1.429 . S
C474 C457 1.574 . S
C474 H468 0.949 . S
C474 C478 1.368 . S
C475 C456 1.429 . S
C475 C469 1.429 . S
C475 C476 1.523 . S
C476 C457 1.368 1_554 S
C476 C470 1.368 . S
C476 C475 1.523 . S
C477 C461 1.429 . S
C477 C473 1.429 . S
C477 C478 1.523 . S
C478 C462 1.368 1_556 S
C478 C474 1.368 . S
C478 C477 1.523 . S
H479 C454 0.950 . S
H480 C456 0.950 . S
H481 C457 0.949 . S
H482 C459 0.950 . S
H483 C461 0.950 . S
C484 C485 1.349 . S
C484 C486 1.327 . S
C484 H509 0.950 . S
C485 C484 1.349 . S
C485 C501 1.349 . S
C486 C484 1.327 . S
C486 C505 1.429 . S
C486 H510 0.950 . S
C487 C504 1.574 1_545 S
C487 C506 1.368 1_456 S
C487 H511 0.949 . S
H488 C492 0.949 . S
C489 C490 1.349 . S
C489 C491 1.327 . S
C489 H512 0.950 . S
C490 C489 1.349 . S
C490 C502 1.349 . S
C491 C489 1.327 . S
C491 C507 1.429 . S
C491 H513 0.950 . S
C492 H488 0.949 . S
C492 C500 1.633 . S
C492 C508 1.368 1_654 S
H493 C501 0.950 1_455 S
H494 C499 0.950 . S
H495 C500 0.940 1_545 S
H496 C502 0.950 1_655 S
H497 C503 0.950 . S
H498 C504 0.949 . S
C499 H494 0.950 . S
C499 C501 1.327 1_455 S
C499 C505 1.429 1_455 S
C500 C492 1.633 . S
C500 H495 0.940 1_565 S
C500 C506 1.321 1_565 S
C501 C485 1.349 . S
C501 H493 0.950 1_655 S
C501 C499 1.327 1_655 S
C502 C490 1.349 . S
C502 H496 0.950 1_455 S
C502 C503 1.327 1_455 S
C503 H497 0.950 . S
C503 C502 1.327 1_655 S
C503 C507 1.429 1_655 S
C504 C487 1.574 1_565 S
C504 H498 0.949 . S
C504 C508 1.368 . S
C505 C486 1.429 . S
C505 C499 1.429 1_655 S
C505 C506 1.523 . S
C506 C487 1.368 1_654 S
C506 C500 1.321 1_545 S
C506 C505 1.523 . S
C507 C491 1.429 . S
C507 C503 1.429 1_455 S
C507 C508 1.523 . S
C508 C492 1.368 1_456 S
C508 C504 1.368 . S
C508 C507 1.523 . S
H509 C484 0.950 . S
H510 C486 0.950 . S
H511 C487 0.949 . S
H512 C489 0.950 . S
H513 C491 0.950 . S
C514 C515 1.349 . S
C514 C516 1.327 . S
C514 H539 0.950 . S
C515 C514 1.349 . S
C515 C531 1.349 1_455 S
C516 C514 1.327 . S
C516 C535 1.429 . S
C516 H540 0.950 . S
C517 C534 1.574 1_545 S
C517 C536 1.368 1_655 S
C517 H541 0.949 . S
H518 C522 0.949 . S
C519 C520 1.349 . S
C519 C521 1.327 . S
C519 H542 0.950 . S
C520 C519 1.349 . S
C520 C532 1.349 . S
C521 C519 1.327 . S
C521 C537 1.429 . S
C521 H543 0.950 . S
C522 H518 0.949 . S
C522 C530 1.574 1_565 S
C522 C538 1.368 1_455 S
H523 C531 0.950 . S
H524 C529 0.950 . S
H525 C530 0.949 . S
H526 C532 0.950 1_455 S
H527 C533 0.950 . S
H528 C534 0.949 . S
C529 H524 0.950 . S
C529 C531 1.327 . S
C529 C535 1.429 1_655 S
C530 C522 1.574 1_545 S
C530 H525 0.949 . S
C530 C536 1.368 . S
C531 C515 1.349 1_655 S
C531 H523 0.950 . S
C531 C529 1.327 . S
C532 C520 1.349 . S
C532 H526 0.950 1_655 S
C532 C533 1.327 1_655 S
C533 H527 0.950 . S
C533 C532 1.327 1_455 S
C533 C537 1.429 1_455 S
C534 C517 1.574 1_565 S
C534 H528 0.949 . S
C534 C538 1.368 . S
C535 C516 1.429 . S
C535 C529 1.429 1_455 S
C535 C536 1.523 . S
C536 C517 1.368 1_455 S
C536 C530 1.368 . S
C536 C535 1.523 . S
C537 C521 1.429 . S
C537 C533 1.429 1_655 S
C537 C538 1.523 . S
C538 C522 1.368 1_655 S
C538 C534 1.368 . S
C538 C537 1.523 . S
H539 C514 0.950 . S
H540 C516 0.950 . S
H541 C517 0.949 . S
H542 C519 0.950 . S
H543 C521 0.950 . S
C544 C545 1.349 . S
C544 C546 1.327 . S
C544 H569 0.950 . S
C545 C544 1.349 . S
C545 C561 1.349 . S
C546 C544 1.327 . S
C546 C565 1.429 . S
C546 H570 0.950 . S
C547 C564 1.574 . S
C547 C566 1.368 1_556 S
C547 H571 0.949 . S
H548 C552 0.949 . S
C549 C550 1.349 . S
C549 C551 1.327 . S
C549 H572 0.950 . S
C550 C549 1.349 . S
C550 C562 1.349 . S
C551 C549 1.327 . S
C551 C567 1.429 . S
C551 H573 0.950 . S
C552 H548 0.949 . S
C552 C560 1.574 . S
C552 C568 1.368 1_554 S
H553 C561 0.950 . S
H554 C559 0.950 . S
H555 C560 0.949 . S
H556 C562 0.950 . S
H557 C563 0.950 . S
H558 C564 0.949 . S
C559 H554 0.950 . S
C559 C561 1.327 . S
C559 C565 1.429 . S
C560 C552 1.574 . S
C560 H555 0.949 . S
C560 C566 1.368 . S
C561 C545 1.349 . S
C561 H553 0.950 . S
C561 C559 1.327 . S
C562 C550 1.349 . S
C562 H556 0.950 . S
C562 C563 1.327 . S
C563 H557 0.950 . S
C563 C562 1.327 . S
C563 C567 1.429 . S
C564 C547 1.574 . S
C564 H558 0.949 . S
C564 C568 1.368 . S
C565 C546 1.429 . S
C565 C559 1.429 . S
C565 C566 1.523 . S
C566 C547 1.368 1_554 S
C566 C560 1.368 . S
C566 C565 1.523 . S
C567 C551 1.429 . S
C567 C563 1.429 . S
C567 C568 1.523 . S
C568 C552 1.368 1_556 S
C568 C564 1.368 . S
C568 C567 1.523 . S
H569 C544 0.950 . S
H570 C546 0.950 . S
H571 C547 0.949 . S
H572 C549 0.950 . S
H573 C551 0.950 . S
C574 C575 1.349 . S
C574 C576 1.327 . S
C574 H599 0.950 . S
C575 C574 1.349 . S
C575 C591 1.349 . S
C576 C574 1.327 . S
C576 C595 1.429 . S
C576 H600 0.950 . S
C577 C594 1.574 . S
C577 C596 1.368 . S
C577 H601 0.949 . S
H578 C582 0.949 . S
C579 C580 1.349 . S
C579 C581 1.327 . S
C579 H602 0.950 . S
C580 C579 1.349 . S
C580 C592 1.349 . S
C581 C579 1.327 . S
C581 C597 1.429 . S
C581 H603 0.950 . S
C582 H578 0.949 . S
C582 C590 1.574 . S
C582 C598 1.368 . S
H583 C591 0.950 . S
H584 C589 0.950 . S
H585 C590 0.949 . S
H586 C592 0.950 . S
H587 C593 0.950 . S
H588 C594 0.949 . S
C589 H584 0.950 . S
C589 C591 1.327 . S
C589 C595 1.429 . S
C590 C582 1.574 . S
C590 H585 0.949 . S
C590 C596 1.368 . S
C591 C575 1.349 . S
C591 H583 0.950 . S
C591 C589 1.327 . S
C592 C580 1.349 . S
C592 H586 0.950 . S
C592 C593 1.327 . S
C593 H587 0.950 . S
C593 C592 1.327 . S
C593 C597 1.429 . S
C594 C577 1.574 . S
C594 H588 0.949 . S
C594 C598 1.368 . S
C595 C576 1.429 . S
C595 C589 1.429 . S
C595 C596 1.523 . S
C596 C577 1.368 . S
C596 C590 1.368 . S
C596 C595 1.523 . S
C597 C581 1.429 . S
C597 C593 1.429 . S
C597 C598 1.523 . S
C598 C582 1.368 . S
C598 C594 1.368 . S
C598 C597 1.523 . S
H599 C574 0.950 . S
H600 C576 0.950 . S
H601 C577 0.949 . S
H602 C579 0.950 . S
H603 C581 0.950 . S
C125 C19 1.146 . S
C130 C30 1.152 . S
C155 C31 1.146 . S
C160 C41 1.152 . S
C185 C62 1.146 . S
C190 C72 1.152 . S
C215 C103 1.152 . S
C220 C93 1.146 . S
C245 C10 1.178 . S
C250 C0 1.162 . S
C275 C61 1.178 . S
C280 C50 1.162 . S
C305 C81 1.162 . S
C310 C92 1.178 . S
C335 C112 1.162 . S
C340 C123 1.178 . S
C365 C122 1.957 . S
C370 C1 1.955 . S
C395 C113 1.956 . S
C400 C2 1.958 . S
C425 C82 1.956 . S
C430 C60 1.958 . S
C455 C91 1.957 . S
C460 C51 1.955 . S
C485 C20 1.418 . S
C490 C33 1.401 . S
C515 C29 1.401 . S
C520 C32 1.418 . S
C545 C63 1.418 . S
C550 C95 1.401 . S
C575 C94 1.418 . S
C580 C64 1.401 . S
