# Generated by pormake.
# Topology snp, (6)-cn, num edge types: 1
# Building blocks:
#     Node 0, Type 0, BuildingBlock: HISSIN_clean_sbu_0, # of connection points: 6
#     Node 1, Type 0, BuildingBlock: HISSIN_clean_sbu_0, # of connection points: 6
#     Node 2, Type 0, BuildingBlock: HISSIN_clean_sbu_0, # of connection points: 6
#     Node 3, Type 0, BuildingBlock: HISSIN_clean_sbu_0, # of connection points: 6
#     Edge 4, Type (0, 0), BuildingBlock: EZIPEK_clean_linker_0, # of connection points: 2
#     Edge 5, Type (0, 0), BuildingBlock: EZIPEK_clean_linker_0, # of connection points: 2
#     Edge 6, Type (0, 0), BuildingBlock: EZIPEK_clean_linker_0, # of connection points: 2
#     Edge 7, Type (0, 0), BuildingBlock: EZIPEK_clean_linker_0, # of connection points: 2
#     Edge 8, Type (0, 0), BuildingBlock: EZIPEK_clean_linker_0, # of connection points: 2
#     Edge 9, Type (0, 0), BuildingBlock: EZIPEK_clean_linker_0, # of connection points: 2
#     Edge 10, Type (0, 0), BuildingBlock: EZIPEK_clean_linker_0, # of connection points: 2
#     Edge 11, Type (0, 0), BuildingBlock: EZIPEK_clean_linker_0, # of connection points: 2
#     Edge 12, Type (0, 0), BuildingBlock: EZIPEK_clean_linker_0, # of connection points: 2
#     Edge 13, Type (0, 0), BuildingBlock: EZIPEK_clean_linker_0, # of connection points: 2
#     Edge 14, Type (0, 0), BuildingBlock: EZIPEK_clean_linker_0, # of connection points: 2
#     Edge 15, Type (0, 0), BuildingBlock: EZIPEK_clean_linker_0, # of connection points: 2
# Relax obj value: 1.044
# Max RMSD: 0.185
# Mean RMSD: 0.185
data_MOF--net-snp--node1-HISSIN_clean_sbu_0--edge1-EZIPEK_clean_linker_0
_symmetry_space_group_name_H-M    P1
_symmetry_Int_Tables_number       1
_symmetry_cell_setting            triclinic
loop_
_symmetry_equiv_pos_as_xyz
'x, y, z'
_cell_length_a     19.947624
_cell_length_b     19.789914
_cell_length_c     21.323163
_cell_angle_alpha  89.691064
_cell_angle_beta   91.137976
_cell_angle_gamma 126.39054
loop_
_atom_site_label
_atom_site_type_symbol
_atom_site_fract_x
_atom_site_fract_y
_atom_site_fract_z
_atom_type_partial_charge
Eu0 Eu 0.24006 0.03607 0.27609 0.0
Eu1 Eu 0.37977 0.19986 0.25207 0.0
C2 C 0.42332 0.08547 0.27533 0.0
C3 C 0.2295 0.88794 0.34819 0.0
C4 C 0.29592 -0.03462 0.37346 0.0
C5 C 0.30795 0.8331 0.37105 0.0
C6 C 0.36526 -0.02441 0.39894 0.0
C7 C 0.23916 0.82385 0.3419 0.0
C8 C 0.36414 0.90489 0.40904 0.0
C9 C 0.16535 0.88831 0.31495 0.0
O10 O 0.32107 0.11779 1.15148 0.0
O11 O 0.18969 0.0147 1.17754 0.0
C12 C 0.24368 0.04891 1.13257 0.0
O13 O 0.18778 0.09234 1.22531 0.0
O14 O 0.49988 0.25867 1.20863 0.0
O15 O 0.47533 0.33564 0.25951 0.0
O16 O 0.29548 0.23144 1.22231 0.0
C17 C 0.21847 0.17037 1.21094 0.0
O18 O 0.2344 0.10056 0.36769 0.0
O19 O 0.3446 0.23301 0.34735 0.0
O20 O 0.43455 0.14652 0.30763 0.0
O21 O 0.14854 0.93695 0.34005 0.0
O22 O 0.18179 0.90344 0.2558 0.0
O23 O 0.35267 0.04126 0.24472 0.0
C24 C 0.51298 0.36638 1.15429 0.0
C25 C 0.44925 0.37632 1.14865 0.0
C26 C 0.48109 0.3099 1.04876 0.0
C27 C 0.39401 0.34079 1.09836 0.0
C28 C 0.53391 0.34134 1.10131 0.0
C29 C 0.41007 0.30941 1.04596 0.0
C30 C 0.51696 0.33301 1.21425 0.0
C31 C 0.28114 0.18131 0.3848 0.0
H32 H 0.29442 0.01901 0.37493 0.0
H33 H 0.30901 0.77908 0.37211 0.0
H34 H 0.40702 0.03261 0.4256 0.0
H35 H 0.19285 0.76649 0.31673 0.0
H36 H 0.43327 0.39891 1.18764 0.0
H37 H 0.49675 0.28723 1.00989 0.0
H38 H 0.34089 0.34224 1.10038 0.0
H39 H 0.58388 0.33444 1.10404 0.0
Eu40 Eu 0.06063 0.27319 0.73683 0.0
Eu41 Eu 0.18143 0.35234 0.76587 0.0
C42 C 0.09683 0.43862 0.75303 0.0
C43 C 0.84789 0.20079 0.69967 0.0
C44 C 0.88401 0.28719 0.69938 0.0
C45 C 0.7949 0.18733 0.59587 0.0
C46 C 0.89093 0.32538 0.64255 0.0
C47 C 0.79249 0.14989 0.65162 0.0
C48 C 0.85345 0.27523 0.589 0.0
C49 C 0.89963 0.17758 0.72481 0.0
O50 O 0.08679 0.29225 0.85239 0.0
O51 O 0.08358 0.28607 0.84748 0.0
C52 C 0.0289 0.21447 0.87593 0.0
O53 O 0.08182 0.17995 0.73998 0.0
O54 O 0.27144 0.4836 0.73956 0.0
O55 O 0.30986 0.42112 0.79849 0.0
O56 O 0.19738 0.25564 0.7994 0.0
C57 C 0.14072 0.18521 0.77194 0.0
O58 O 0.1575 0.3073 0.65434 0.0
O59 O 0.15768 0.30572 0.65732 0.0
O60 O 0.13201 0.425 0.79777 0.0
O61 O -0.05142 0.17914 0.68366 0.0
O62 O 0.93881 0.21617 0.77673 0.0
O63 O 0.07436 0.38871 0.70547 0.0
C64 C 0.36109 0.5578 0.82632 0.0
C65 C 0.30508 0.54184 0.87314 0.0
C66 C 0.45649 0.57723 0.90592 0.0
C67 C 0.31653 0.5206 0.93281 0.0
C68 C 0.44265 0.59332 0.84539 0.0
C69 C 0.38894 0.52549 0.94608 0.0
C70 C 0.32857 0.4929 0.77761 0.0
C71 C 0.18803 0.26442 0.63795 0.0
H72 H 0.92085 0.32672 0.73914 0.0
H73 H 0.75886 0.14665 0.55634 0.0
H74 H 0.9317 0.39295 0.63937 0.0
H75 H 0.76045 0.08252 0.65242 0.0
H76 H 0.24563 0.5285 0.86125 0.0
H77 H 0.51558 0.58966 0.91529 0.0
H78 H 0.26424 0.49156 0.96328 0.0
H79 H 0.49031 0.6139 0.81094 0.0
Eu80 Eu 0.82753 0.05635 0.27628 0.0
Eu81 Eu 0.75875 0.93343 0.24283 0.0
C82 C 0.65185 -0.00312 0.25435 0.0
C83 C 0.87517 0.26695 0.28304 0.0
C84 C 0.78908 0.22456 0.2726 0.0
C85 C 0.87802 0.36909 0.34498 0.0
C86 C 0.74712 0.24592 0.30941 0.0
C87 C 0.92096 0.34566 0.31201 0.0
C88 C 0.79282 0.30644 0.35637 0.0
C89 C 0.90879 0.21865 0.28295 0.0
O90 O 0.82052 0.04151 1.16369 0.0
O91 O 0.82331 0.04195 1.16582 0.0
C92 C 0.89601 0.08368 1.13693 0.0
O93 O 0.92848 0.04772 0.29324 0.0
O94 O 0.62978 0.82044 1.2346 0.0
O95 O 0.73097 0.8124 1.21526 0.0
O96 O 0.87445 -0.05216 1.22043 0.0
C97 C 0.93655 0.0002 0.25764 0.0
O98 O 0.78953 -0.05008 0.35452 0.0
O99 O 0.79105 -0.05 0.35286 0.0
O100 O 0.66607 -0.03956 1.2118 0.0
O101 O 0.89221 0.17148 0.33214 0.0
O102 O 0.89487 0.17854 1.23098 0.0
O103 O 0.70553 0.02906 0.30036 0.0
C104 C 0.63845 0.78188 1.13471 0.0
C105 C 0.69436 0.85773 1.10426 0.0
C106 C 0.58497 0.71856 1.03348 0.0
C107 C 0.69532 0.86408 1.03996 0.0
C108 C 0.57737 0.71248 1.09901 0.0
C109 C 0.65671 0.79027 1.00665 0.0
C110 C 0.65372 0.78288 1.20192 0.0
C111 C 0.83543 0.92298 0.37255 0.0
H112 H 0.75342 0.16771 0.24481 0.0
H113 H 0.91455 0.42315 0.37587 0.0
H114 H 0.6803 0.20288 0.31178 0.0
H115 H -0.01195 0.38218 0.31731 0.0
H116 H 0.74643 0.9072 1.12941 0.0
H117 H 0.54366 0.6639 1.00541 0.0
H118 H 0.74702 0.92022 1.01916 0.0
H119 H 0.52957 0.65375 1.12077 0.0
Eu120 Eu 0.06102 0.85243 0.72934 0.0
Eu121 Eu 0.93333 0.75146 0.75486 0.0
C122 C 0.02456 0.68173 0.73945 0.0
C123 C 0.18225 0.84022 0.63875 0.0
C124 C 0.10872 0.77426 0.60775 0.0
C125 C 0.23604 0.75916 0.62942 0.0
C126 C 0.10683 0.71007 0.57909 0.0
C127 C 0.24207 0.8272 0.65583 0.0
C128 C 0.18126 0.71821 0.57734 0.0
C129 C 0.18583 0.91048 0.6643 0.0
O130 O 0.01934 0.81071 0.85478 0.0
O131 O 0.11823 0.93206 0.81675 0.0
C132 C 0.08999 0.88848 0.86781 0.0
O133 O 0.01879 0.91623 0.7802 0.0
O134 O 0.86162 0.61535 0.7657 0.0
O135 O 0.79884 0.67402 0.77085 0.0
O136 O 0.88603 0.82881 0.75209 0.0
C137 C -0.05269 0.90254 0.77052 0.0
O138 O -0.04807 0.80173 0.64984 0.0
O139 O -0.04831 0.80212 0.64973 0.0
O140 O -0.03059 0.67849 0.70423 0.0
O141 O 0.12789 0.91764 0.64367 0.0
O142 O 0.19525 0.9162 0.72504 0.0
O143 O 0.06704 0.74987 0.77229 0.0
C144 C 0.79644 0.59964 0.85556 0.0
C145 C 0.85162 0.6729 0.89023 0.0
C146 C 0.73397 0.52756 0.95176 0.0
C147 C 0.8517 0.67059 0.95446 0.0
C148 C 0.7453 0.52325 0.88712 0.0
C149 C 0.77457 0.60783 0.97942 0.0
C150 C 0.7996 0.61098 0.78863 0.0
C151 C 0.92178 0.84415 0.63026 0.0
H152 H 0.05615 0.77591 0.60035 0.0
H153 H 0.28806 0.75608 0.6367 0.0
H154 H 0.05727 0.67025 0.54518 0.0
H155 H 0.29424 0.87073 0.68669 0.0
H156 H 0.88327 0.73305 0.86828 0.0
H157 H 0.68173 0.47285 0.97457 0.0
H158 H 0.89249 0.7311 0.97766 0.0
H159 H 0.70626 0.46441 0.86167 0.0
C160 C 0.03675 0.04309 1.17907 0.0
C161 C 0.02122 0.03399 0.24422 0.0
C162 C 0.12716 0.18149 0.25983 0.0
C163 C 0.15651 0.18557 1.20021 0.0
N164 N 0.10658 0.14446 1.09555 0.0
N165 N 0.0701 0.08968 0.34953 0.0
C166 C 0.09761 0.1249 1.15685 0.0
C167 C 0.07658 0.10124 0.28634 0.0
N168 N -0.00387 -0.02537 1.14044 0.0
N169 N 0.14697 0.25146 0.28973 0.0
H170 H 0.0302 0.02966 0.36841 0.0
H171 H 0.1069 0.13907 0.38114 0.0
H172 H 0.18575 0.31034 0.26891 0.0
H173 H 0.11942 0.24801 0.33192 0.0
H174 H 0.00931 -0.02204 1.093 0.0
H175 H -0.04443 0.91415 1.15835 0.0
H176 H 0.06567 0.10329 1.06032 0.0
H177 H 0.15105 0.207 1.08414 0.0
C178 C 0.01001 0.01973 0.71147 0.0
C179 C -0.04641 -0.02168 0.76126 0.0
C180 C 0.06609 0.07132 0.83485 0.0
C181 C 0.12263 0.10465 0.78477 0.0
N182 N 0.15192 0.07559 0.68411 0.0
N183 N 0.92027 -0.01339 0.86596 0.0
C184 C 0.09578 0.06199 0.72664 0.0
C185 C -0.02131 0.01662 0.82095 0.0
N186 N -0.0165 0.02188 0.65308 0.0
N187 N 0.09726 0.09682 0.89382 0.0
H188 H 0.8572 -0.05819 0.85464 0.0
H189 H 0.93403 0.0063 0.91257 0.0
H190 H 0.16158 0.13653 0.89985 0.0
H191 H 0.06161 0.07647 0.93403 0.0
H192 H 0.02473 0.05383 0.61641 0.0
H193 H 0.9218 -0.0008 0.64514 0.0
H194 H 0.13431 0.05111 0.63862 0.0
H195 H 0.2138 0.10496 0.69834 0.0
C196 C 0.56767 0.04075 1.19868 0.0
C197 C 0.5843 0.0085 0.25197 0.0
C198 C 0.52422 0.05849 0.31807 0.0
C199 C 0.4896 0.07245 0.26593 0.0
N200 N 0.48456 0.08262 1.15317 0.0
N201 N 0.55244 -0.03544 0.35934 0.0
C202 C 0.51214 0.06404 1.20483 0.0
C203 C 0.55276 0.00902 0.3103 0.0
N204 N 0.60867 0.05493 1.1441 0.0
N205 N 0.53892 0.09937 0.37343 0.0
H206 H 0.56744 0.92249 0.35438 0.0
H207 H 0.5299 -0.03501 0.40275 0.0
H208 H 0.52801 0.14434 0.37896 0.0
H209 H 0.56982 0.09437 0.4112 0.0
H210 H 0.60679 0.08787 1.10668 0.0
H211 H 0.64991 0.03977 1.13781 0.0
H212 H 0.49226 0.07031 1.10747 0.0
H213 H 0.45216 0.10868 1.15631 0.0
C214 C 0.05517 0.52209 0.81039 0.0
C215 C 0.08099 0.50335 0.75513 0.0
C216 C 0.03513 0.57282 0.69399 0.0
C217 C 0.0311 0.61079 0.74742 0.0
N218 N 0.02663 0.61296 0.86019 0.0
N219 N 0.11623 0.5345 0.64588 0.0
C220 C 0.03936 0.584 0.80718 0.0
C221 C 0.07842 0.53706 0.69751 0.0
N222 N 0.03911 0.47697 0.86389 0.0
N223 N -0.0088 0.56308 0.64134 0.0
H224 H 0.15721 0.51809 0.64821 0.0
H225 H 0.11352 0.55731 0.60257 0.0
H226 H -0.05216 0.5761 0.63827 0.0
H227 H -0.00672 0.53413 0.60248 0.0
H228 H 0.01203 0.48234 0.90297 0.0
H229 H 0.04442 0.42786 0.86734 0.0
H230 H 0.03976 0.60238 0.90516 0.0
H231 H 0.00403 0.64887 0.85885 0.0
C232 C 0.20924 0.28297 0.50867 0.0
C233 C 0.21811 0.25678 0.56971 0.0
C234 C 0.27018 0.18503 0.50945 0.0
C235 C 0.26369 0.21225 0.44874 0.0
N236 N 0.2575 0.31845 0.40008 0.0
N237 N 0.30082 0.21971 0.62052 0.0
C238 C 0.2422 0.27052 0.45142 0.0
C239 C 0.26075 0.21805 0.56736 0.0
N240 N 0.16976 0.32009 0.50394 0.0
N241 N 0.28879 0.12901 0.5132 0.0
H242 H 0.30164 0.24772 0.66216 0.0
H243 H 0.34052 0.20175 0.62116 0.0
H244 H 0.3017 0.10758 0.47398 0.0
H245 H 0.28609 0.10028 0.55517 0.0
H246 H 0.15395 0.33299 0.46095 0.0
H247 H 0.14784 0.33251 0.54279 0.0
H248 H 0.25233 0.36786 0.39999 0.0
H249 H 0.2833 0.31369 0.3598 0.0
C250 C 0.02996 0.24484 0.99972 0.0
C251 C -0.01069 0.1965 0.94386 0.0
C252 C 0.86781 0.10047 1.01568 0.0
C253 C 0.91942 0.12992 1.07085 0.0
N254 N 0.0493 0.24949 1.11364 0.0
N255 N 0.85525 0.07996 0.90247 0.0
C256 C 0.00042 0.20782 1.06192 0.0
C257 C 0.90417 0.12464 0.95339 0.0
N258 N 0.09059 0.32861 0.99455 0.0
N259 N 0.78428 0.0589 1.02188 0.0
H260 H 0.87587 0.09669 0.85663 0.0
H261 H 0.79621 0.02327 0.90649 0.0
H262 H 0.7568 0.04666 1.06548 0.0
H263 H 0.74403 0.04428 0.98385 0.0
H264 H 0.11155 0.36948 1.03278 0.0
H265 H 0.11102 0.35879 0.95164 0.0
H266 H 0.11106 0.30218 1.11092 0.0
H267 H 0.0292 0.22859 1.15916 0.0
C268 C 0.90978 0.83229 0.50238 0.0
C269 C 0.88846 0.84751 0.56182 0.0
C270 C 0.81815 0.90156 0.49913 0.0
C271 C 0.84474 0.89257 0.43979 0.0
N272 N 0.91902 0.84762 0.38805 0.0
N273 N 0.78957 0.8626 0.60947 0.0
C274 C 0.8906 0.85662 0.443 0.0
C275 C 0.83344 0.87248 0.55746 0.0
N276 N -0.05729 0.78847 0.50151 0.0
N277 N 0.78158 -0.0582 0.50172 0.0
H278 H 0.7962 0.84036 0.65186 0.0
H279 H 0.74093 0.86836 0.60894 0.0
H280 H 0.767 -0.0379 0.46234 0.0
H281 H 0.77185 -0.03867 0.54364 0.0
H282 H -0.04817 0.76602 0.46105 0.0
H283 H -0.04825 0.76505 0.5418 0.0
H284 H -0.03685 0.8357 0.3856 0.0
H285 H 0.90231 0.85678 0.34392 0.0
C286 C 0.10622 0.8812 0.99208 0.0
C287 C 0.1349 0.92866 0.93522 0.0
C288 C 0.25148 0.04695 1.00619 0.0
C289 C 0.21162 0.00607 1.06359 0.0
N290 N 0.09587 0.87225 1.10493 0.0
N291 N 0.24376 0.06917 0.89547 0.0
C292 C 0.13695 0.92065 1.05417 0.0
C293 C 0.20956 0.01478 0.94462 0.0
N294 N 0.05531 0.79559 0.98789 0.0
N295 N 0.33315 0.11446 1.00882 0.0
H296 H 0.22844 0.05398 0.84859 0.0
H297 H 0.28689 0.13381 0.90207 0.0
H298 H 0.36805 0.1353 1.05032 0.0
H299 H 0.36947 0.14167 0.96917 0.0
H300 H 0.03759 0.75629 1.02648 0.0
H301 H 0.04041 0.76299 0.94581 0.0
H302 H 0.0333 0.82065 1.1026 0.0
H303 H 0.12543 0.87991 1.14763 0.0
C304 C 0.68231 0.71812 0.93005 0.0
C305 C 0.71567 0.7781 0.97733 0.0
C306 C 0.7683 0.71195 1.03417 0.0
C307 C 0.7283 0.64456 0.99009 0.0
N308 N 0.63976 0.58439 0.89472 0.0
N309 N 0.84408 0.86027 1.03844 0.0
C310 C 0.68345 0.64804 0.93742 0.0
C311 C 0.77542 0.78459 1.01864 0.0
N312 N 0.64453 0.72481 0.87924 0.0
N313 N 0.81261 0.71284 1.08415 0.0
H314 H 0.85902 0.91732 1.02178 0.0
H315 H 0.85902 0.91732 1.02178 0.0
H316 H 0.81161 0.66086 1.09553 0.0
H317 H 0.84714 0.7645 1.1145 0.0
H318 H 0.64135 0.7753 0.87319 0.0
H319 H 0.64135 0.7753 0.87319 0.0
H320 H 0.61378 0.58944 0.85361 0.0
H321 H 0.61991 0.5239 0.90392 0.0
C322 C 0.32469 0.90008 0.51208 0.0
C323 C 0.37754 0.89163 0.47618 0.0
C324 C 0.29037 0.74402 0.50626 0.0
C325 C 0.22576 0.75275 0.51791 0.0
N326 N 0.18161 0.84027 0.48801 0.0
N327 N 0.43892 0.81866 0.48561 0.0
C328 C 0.242 0.83147 0.50579 0.0
C329 C 0.37009 0.8171 0.48838 0.0
N330 N 0.34735 -0.02459 0.53401 0.0
N331 N 0.27531 0.66793 0.5142 0.0
H332 H 0.49725 0.87472 0.47783 0.0
H333 H 0.4392 0.76743 0.4961 0.0
H334 H 0.21617 0.61543 0.52603 0.0
H335 H 0.31872 0.65631 0.50527 0.0
H336 H 0.30418 -0.01826 0.55449 0.0
H337 H 0.40952 0.02807 0.5341 0.0
H338 H 0.19458 0.89923 0.48125 0.0
H339 H 0.12164 0.78844 0.47528 0.0
C340 C 0.45462 0.45422 0.97219 0.0
C341 C 0.38595 0.4569 0.98031 0.0
C342 C 0.30122 0.30325 0.98488 0.0
C343 C 0.37487 0.30912 0.98329 0.0
N344 N 0.49442 0.37786 0.91798 0.0
N345 N 0.24969 0.37441 1.02678 0.0
C346 C 0.43797 0.37901 0.95114 0.0
C347 C 0.30811 0.37845 0.9922 0.0
N348 N 0.52685 0.50894 1.00427 0.0
N349 N 0.22757 0.22755 0.9907 0.0
H350 H 0.26005 0.42699 1.04869 0.0
H351 H 0.26005 0.42699 1.04869 0.0
H352 H 0.22438 0.1732 0.99589 0.0
H353 H 0.17205 0.22143 0.98508 0.0
H354 H 0.57208 0.4983 1.00895 0.0
H355 H 0.53344 0.55417 1.03388 0.0
H356 H 0.48532 0.32178 0.90605 0.0
H357 H 0.48532 0.32178 0.90605 0.0
C358 C 0.80678 0.22685 0.43586 0.0
C359 C 0.77802 0.27644 0.42191 0.0
C360 C 0.86017 0.36658 0.50864 0.0
C361 C 0.87949 0.3119 0.52608 0.0
N362 N 0.91621 0.22556 0.48702 0.0
N363 N 0.75761 0.37696 0.4593 0.0
C364 C 0.87151 0.25707 0.48064 0.0
C365 C 0.7938 0.33701 0.46607 0.0
N366 N 0.76755 0.14897 0.4105 0.0
N367 N 0.92201 0.44993 0.51069 0.0
H368 H 0.71104 0.3576 0.42522 0.0
H369 H 0.77088 0.42403 0.49065 0.0
H370 H -0.01706 0.47064 0.52109 0.0
H371 H 0.91473 0.49421 0.49208 0.0
H372 H 0.78279 0.10851 0.42314 0.0
H373 H 0.71334 0.12256 0.38344 0.0
H374 H 0.91287 0.18459 0.45439 0.0
H375 H -0.0391 0.24677 0.5231 0.0
loop_
_geom_bond_atom_site_label_1
_geom_bond_atom_site_label_2
_geom_bond_distance
_geom_bond_site_symmetry_2
_ccdc_geom_bond_type
Eu0 C9 2.828 . S
Eu0 O11 2.392 1_554 S
Eu0 O13 2.418 . S
Eu0 O18 2.373 . S
Eu0 O21 2.488 . S
Eu0 O22 2.471 . S
Eu0 O23 2.349 . S
Eu1 O10 2.373 . S
Eu1 O14 2.488 . S
Eu1 O15 2.471 . S
Eu1 O16 2.349 . S
Eu1 O19 2.392 1_556 S
Eu1 O20 2.418 . S
Eu1 C30 2.828 . S
C2 O20 1.244 1_554 S
C2 O23 1.265 . S
C3 C4 1.379 . S
C3 C7 1.373 1_545 S
C3 C9 1.505 . S
C4 C3 1.379 . S
C4 C6 1.369 . S
C4 H32 0.930 . S
C5 C7 1.383 . S
C5 C8 1.382 . S
C5 H33 0.930 . S
C6 C4 1.369 . S
C6 C8 1.392 1_545 S
C6 H34 0.930 . S
C7 C3 1.373 1_565 S
C7 C5 1.383 . S
C7 H35 0.931 . S
C8 C5 1.382 . S
C8 C6 1.392 1_565 S
C9 Eu0 2.828 . S
C9 C3 1.505 . S
C9 O21 1.249 . S
C9 O22 1.244 . S
O10 Eu1 2.373 . S
O10 C12 1.258 . S
O11 Eu0 2.392 1_556 S
O11 C12 1.242 . S
C12 O10 1.258 . S
C12 O11 1.242 . S
O13 Eu0 2.418 . S
O13 C17 1.244 . S
O14 Eu1 2.488 . S
O14 C30 1.249 . S
O15 Eu1 2.471 . S
O15 C30 1.244 . S
O16 Eu1 2.349 . S
O16 C17 1.265 1_556 S
C17 O13 1.244 . S
C17 O16 1.265 1_554 S
O18 Eu0 2.373 . S
O18 C31 1.258 . S
O19 Eu1 2.392 1_554 S
O19 C31 1.242 . S
O20 Eu1 2.418 . S
O20 C2 1.244 1_556 S
O21 Eu0 2.488 . S
O21 C9 1.249 . S
O22 Eu0 2.471 . S
O22 C9 1.244 . S
O23 Eu0 2.349 . S
O23 C2 1.265 . S
C24 C25 1.379 . S
C24 C28 1.373 . S
C24 C30 1.505 . S
C25 C24 1.379 . S
C25 C27 1.369 . S
C25 H36 0.930 . S
C26 C28 1.383 . S
C26 C29 1.382 . S
C26 H37 0.930 . S
C27 C25 1.369 . S
C27 C29 1.392 . S
C27 H38 0.930 . S
C28 C24 1.373 . S
C28 C26 1.383 . S
C28 H39 0.931 . S
C29 C26 1.382 . S
C29 C27 1.392 . S
C30 Eu1 2.828 . S
C30 O14 1.249 . S
C30 O15 1.244 . S
C30 C24 1.505 . S
C31 O18 1.258 . S
C31 O19 1.242 . S
H32 C4 0.930 . S
H33 C5 0.930 . S
H34 C6 0.930 . S
H35 C7 0.931 . S
H36 C25 0.930 . S
H37 C26 0.930 . S
H38 C27 0.930 . S
H39 C28 0.931 . S
Eu40 C49 2.828 . S
Eu40 O51 2.392 . S
Eu40 O53 2.418 . S
Eu40 O58 2.373 . S
Eu40 O61 2.488 . S
Eu40 O62 2.471 . S
Eu40 O63 2.349 . S
Eu41 O50 2.373 . S
Eu41 O54 2.488 . S
Eu41 O55 2.471 . S
Eu41 O56 2.349 . S
Eu41 O59 2.392 . S
Eu41 O60 2.418 . S
Eu41 C70 2.828 . S
C42 O60 1.244 . S
C42 O63 1.265 . S
C43 C44 1.379 . S
C43 C47 1.373 1_455 S
C43 C49 1.505 . S
C44 C43 1.379 . S
C44 C46 1.369 . S
C44 H72 0.930 . S
C45 C47 1.383 . S
C45 C48 1.382 . S
C45 H73 0.930 . S
C46 C44 1.369 . S
C46 C48 1.392 1_455 S
C46 H74 0.930 . S
C47 C43 1.373 1_655 S
C47 C45 1.383 . S
C47 H75 0.931 . S
C48 C45 1.382 . S
C48 C46 1.392 1_655 S
C49 Eu40 2.828 . S
C49 C43 1.505 . S
C49 O61 1.249 . S
C49 O62 1.244 . S
O50 Eu41 2.373 . S
O50 C52 1.258 . S
O51 Eu40 2.392 . S
O51 C52 1.242 . S
C52 O50 1.258 . S
C52 O51 1.242 . S
O53 Eu40 2.418 . S
O53 C57 1.244 . S
O54 Eu41 2.488 . S
O54 C70 1.249 . S
O55 Eu41 2.471 . S
O55 C70 1.244 . S
O56 Eu41 2.349 . S
O56 C57 1.265 . S
C57 O53 1.244 . S
C57 O56 1.265 . S
O58 Eu40 2.373 . S
O58 C71 1.258 . S
O59 Eu41 2.392 . S
O59 C71 1.242 . S
O60 Eu41 2.418 . S
O60 C42 1.244 . S
O61 Eu40 2.488 . S
O61 C49 1.249 . S
O62 Eu40 2.471 . S
O62 C49 1.244 . S
O63 Eu40 2.349 . S
O63 C42 1.265 . S
C64 C65 1.379 . S
C64 C68 1.373 . S
C64 C70 1.505 . S
C65 C64 1.379 . S
C65 C67 1.369 . S
C65 H76 0.930 . S
C66 C68 1.383 . S
C66 C69 1.382 . S
C66 H77 0.930 . S
C67 C65 1.369 . S
C67 C69 1.392 . S
C67 H78 0.930 . S
C68 C64 1.373 . S
C68 C66 1.383 . S
C68 H79 0.931 . S
C69 C66 1.382 . S
C69 C67 1.392 . S
C70 Eu41 2.828 . S
C70 O54 1.249 . S
C70 O55 1.244 . S
C70 C64 1.505 . S
C71 O58 1.258 . S
C71 O59 1.242 . S
H72 C44 0.930 . S
H73 C45 0.930 . S
H74 C46 0.930 . S
H75 C47 0.931 . S
H76 C65 0.930 . S
H77 C66 0.930 . S
H78 C67 0.930 . S
H79 C68 0.931 . S
Eu80 C89 2.828 . S
Eu80 O91 2.392 1_554 S
Eu80 O93 2.418 . S
Eu80 O98 2.373 1_545 S
Eu80 O101 2.488 . S
Eu80 O102 2.471 . S
Eu80 O103 2.349 . S
Eu81 O90 2.373 1_565 S
Eu81 O94 2.488 . S
Eu81 O95 2.471 . S
Eu81 O96 2.349 . S
Eu81 O99 2.392 1_556 S
Eu81 O100 2.418 . S
Eu81 C110 2.828 . S
C82 O100 1.244 1_554 S
C82 O103 1.265 1_565 S
C83 C84 1.379 . S
C83 C87 1.373 . S
C83 C89 1.505 . S
C84 C83 1.379 . S
C84 C86 1.369 . S
C84 H112 0.930 . S
C85 C87 1.383 . S
C85 C88 1.382 . S
C85 H113 0.930 1_655 S
C86 C84 1.369 . S
C86 C88 1.392 . S
C86 H114 0.930 . S
C87 C83 1.373 . S
C87 C85 1.383 . S
C87 H115 0.931 1_655 S
C88 C85 1.382 . S
C88 C86 1.392 . S
C89 Eu80 2.828 . S
C89 C83 1.505 . S
C89 O101 1.249 . S
C89 O102 1.244 . S
O90 Eu81 2.373 1_545 S
O90 C92 1.258 . S
O91 Eu80 2.392 1_556 S
O91 C92 1.242 . S
C92 O90 1.258 . S
C92 O91 1.242 . S
O93 Eu80 2.418 . S
O93 C97 1.244 . S
O94 Eu81 2.488 . S
O94 C110 1.249 . S
O95 Eu81 2.471 . S
O95 C110 1.244 . S
O96 Eu81 2.349 . S
O96 C97 1.265 1_566 S
C97 O93 1.244 . S
C97 O96 1.265 1_544 S
O98 Eu80 2.373 1_565 S
O98 C111 1.258 . S
O99 Eu81 2.392 1_554 S
O99 C111 1.242 . S
O100 Eu81 2.418 . S
O100 C82 1.244 1_556 S
O101 Eu80 2.488 . S
O101 C89 1.249 . S
O102 Eu80 2.471 . S
O102 C89 1.244 . S
O103 Eu80 2.349 . S
O103 C82 1.265 1_545 S
C104 C105 1.379 . S
C104 C108 1.373 . S
C104 C110 1.505 . S
C105 C104 1.379 . S
C105 C107 1.369 . S
C105 H116 0.930 . S
C106 C108 1.383 . S
C106 C109 1.382 . S
C106 H117 0.930 . S
C107 C105 1.369 . S
C107 C109 1.392 . S
C107 H118 0.930 . S
C108 C104 1.373 . S
C108 C106 1.383 . S
C108 H119 0.931 . S
C109 C106 1.382 . S
C109 C107 1.392 . S
C110 Eu81 2.828 . S
C110 O94 1.249 . S
C110 O95 1.244 . S
C110 C104 1.505 . S
C111 O98 1.258 . S
C111 O99 1.242 . S
H112 C84 0.930 . S
H113 C85 0.930 1_455 S
H114 C86 0.930 . S
H115 C87 0.931 1_455 S
H116 C105 0.930 . S
H117 C106 0.930 . S
H118 C107 0.930 . S
H119 C108 0.931 . S
Eu120 C129 2.828 . S
Eu120 O131 2.392 . S
Eu120 O133 2.418 . S
Eu120 O138 2.373 1_455 S
Eu120 O141 2.488 . S
Eu120 O142 2.471 . S
Eu120 O143 2.349 . S
Eu121 O130 2.373 1_655 S
Eu121 O134 2.488 . S
Eu121 O135 2.471 . S
Eu121 O136 2.349 . S
Eu121 O139 2.392 . S
Eu121 O140 2.418 . S
Eu121 C150 2.828 . S
C122 O140 1.244 . S
C122 O143 1.265 1_655 S
C123 C124 1.379 . S
C123 C127 1.373 . S
C123 C129 1.505 . S
C124 C123 1.379 . S
C124 C126 1.369 . S
C124 H152 0.930 . S
C125 C127 1.383 . S
C125 C128 1.382 . S
C125 H153 0.930 1_565 S
C126 C124 1.369 . S
C126 C128 1.392 . S
C126 H154 0.930 . S
C127 C123 1.373 . S
C127 C125 1.383 . S
C127 H155 0.931 1_565 S
C128 C125 1.382 . S
C128 C126 1.392 . S
C129 Eu120 2.828 . S
C129 C123 1.505 . S
C129 O141 1.249 . S
C129 O142 1.244 . S
O130 Eu121 2.373 1_455 S
O130 C132 1.258 . S
O131 Eu120 2.392 . S
O131 C132 1.242 . S
C132 O130 1.258 . S
C132 O131 1.242 . S
O133 Eu120 2.418 . S
O133 C137 1.244 . S
O134 Eu121 2.488 . S
O134 C150 1.249 . S
O135 Eu121 2.471 . S
O135 C150 1.244 . S
O136 Eu121 2.349 . S
O136 C137 1.265 1_655 S
C137 O133 1.244 . S
C137 O136 1.265 1_455 S
O138 Eu120 2.373 1_655 S
O138 C151 1.258 . S
O139 Eu121 2.392 . S
O139 C151 1.242 . S
O140 Eu121 2.418 . S
O140 C122 1.244 . S
O141 Eu120 2.488 . S
O141 C129 1.249 . S
O142 Eu120 2.471 . S
O142 C129 1.244 . S
O143 Eu120 2.349 . S
O143 C122 1.265 1_455 S
C144 C145 1.379 . S
C144 C148 1.373 . S
C144 C150 1.505 . S
C145 C144 1.379 . S
C145 C147 1.369 . S
C145 H156 0.930 . S
C146 C148 1.383 . S
C146 C149 1.382 . S
C146 H157 0.930 . S
C147 C145 1.369 . S
C147 C149 1.392 . S
C147 H158 0.930 . S
C148 C144 1.373 . S
C148 C146 1.383 . S
C148 H159 0.931 . S
C149 C146 1.382 . S
C149 C147 1.392 . S
C150 Eu121 2.828 . S
C150 O134 1.249 . S
C150 O135 1.244 . S
C150 C144 1.505 . S
C151 O138 1.258 . S
C151 O139 1.242 . S
H152 C124 0.930 . S
H153 C125 0.930 1_545 S
H154 C126 0.930 . S
H155 C127 0.931 1_545 S
H156 C145 0.930 . S
H157 C146 0.930 . S
H158 C147 0.930 . S
H159 C148 0.931 . S
C160 C161 1.363 1_556 S
C160 C166 1.379 . S
C160 N168 1.356 1_445 S
C161 C160 1.363 1_554 S
C161 C167 1.363 . S
C162 C163 1.363 . S
C162 C167 1.379 . S
C162 N169 1.356 . S
C163 C162 1.363 . S
C163 C166 1.363 1_554 S
N164 C166 1.356 . S
N164 H176 0.984 . S
N164 H177 0.985 . S
N165 C167 1.356 1_655 S
N165 H170 0.984 . S
N165 H171 0.985 1_655 S
C166 C160 1.379 . S
C166 C163 1.363 1_556 S
C166 N164 1.356 . S
C167 C161 1.363 . S
C167 C162 1.379 . S
C167 N165 1.356 1_455 S
N168 C160 1.356 1_665 S
N168 H174 0.984 1_655 S
N168 H175 0.984 . S
N169 C162 1.356 . S
N169 H172 0.984 . S
N169 H173 0.985 . S
H170 N165 0.984 . S
H171 N165 0.985 1_455 S
H172 N169 0.984 . S
H173 N169 0.985 . S
H174 N168 0.984 1_455 S
H175 N168 0.984 . S
H176 N164 0.984 . S
H177 N164 0.985 . S
C178 C179 1.363 . S
C178 C184 1.379 . S
C178 N186 1.356 1_545 S
C179 C178 1.363 . S
C179 C185 1.363 . S
C180 C181 1.363 . S
C180 C185 1.379 . S
C180 N187 1.356 . S
C181 C180 1.363 . S
C181 C184 1.363 . S
N182 C184 1.356 . S
N182 H194 0.984 . S
N182 H195 0.985 . S
N183 C185 1.356 1_665 S
N183 H188 0.984 . S
N183 H189 0.985 1_565 S
C184 C178 1.379 . S
C184 C181 1.363 . S
C184 N182 1.356 . S
C185 C179 1.363 . S
C185 C180 1.379 . S
C185 N183 1.356 1_445 S
N186 C178 1.356 1_565 S
N186 H192 0.984 1_565 S
N186 H193 0.984 . S
N187 C180 1.356 . S
N187 H190 0.984 . S
N187 H191 0.985 . S
H188 N183 0.984 . S
H189 N183 0.985 1_545 S
H190 N187 0.984 . S
H191 N187 0.985 . S
H192 N186 0.984 1_545 S
H193 N186 0.984 . S
H194 N182 0.984 . S
H195 N182 0.985 . S
C196 C197 1.363 1_556 S
C196 C202 1.379 . S
C196 N204 1.356 . S
C197 C196 1.363 1_554 S
C197 C203 1.363 . S
C198 C199 1.363 . S
C198 C203 1.379 . S
C198 N205 1.356 . S
C199 C198 1.363 . S
C199 C202 1.363 1_554 S
N200 C202 1.356 . S
N200 H212 0.984 . S
N200 H213 0.985 . S
N201 C203 1.356 1_565 S
N201 H206 0.984 . S
N201 H207 0.985 . S
C202 C196 1.379 . S
C202 C199 1.363 1_556 S
C202 N200 1.356 . S
C203 C197 1.363 . S
C203 C198 1.379 . S
C203 N201 1.356 1_545 S
N204 C196 1.356 . S
N204 H210 0.984 . S
N204 H211 0.984 . S
N205 C198 1.356 . S
N205 H208 0.984 . S
N205 H209 0.985 . S
H206 N201 0.984 . S
H207 N201 0.985 . S
H208 N205 0.984 . S
H209 N205 0.985 . S
H210 N204 0.984 . S
H211 N204 0.984 . S
H212 N200 0.984 . S
H213 N200 0.985 . S
C214 C215 1.363 . S
C214 C220 1.379 . S
C214 N222 1.356 . S
C215 C214 1.363 . S
C215 C221 1.363 . S
C216 C217 1.363 . S
C216 C221 1.379 . S
C216 N223 1.356 . S
C217 C216 1.363 . S
C217 C220 1.363 . S
N218 C220 1.356 1_655 S
N218 H230 0.984 . S
N218 H231 0.985 . S
N219 C221 1.356 . S
N219 H224 0.984 . S
N219 H225 0.985 . S
C220 C214 1.379 . S
C220 C217 1.363 . S
C220 N218 1.356 1_455 S
C221 C215 1.363 . S
C221 C216 1.379 . S
C221 N219 1.356 . S
N222 C214 1.356 . S
N222 H228 0.984 . S
N222 H229 0.984 . S
N223 C216 1.356 . S
N223 H226 0.984 . S
N223 H227 0.985 . S
H224 N219 0.984 . S
H225 N219 0.985 . S
H226 N223 0.984 . S
H227 N223 0.985 . S
H228 N222 0.984 . S
H229 N222 0.984 . S
H230 N218 0.984 . S
H231 N218 0.985 . S
C232 C233 1.363 . S
C232 C238 1.379 . S
C232 N240 1.356 . S
C233 C232 1.363 . S
C233 C239 1.363 . S
C234 C235 1.363 . S
C234 C239 1.379 . S
C234 N241 1.356 . S
C235 C234 1.363 . S
C235 C238 1.363 . S
N236 C238 1.356 . S
N236 H248 0.984 . S
N236 H249 0.985 . S
N237 C239 1.356 . S
N237 H242 0.984 . S
N237 H243 0.985 . S
C238 C232 1.379 . S
C238 C235 1.363 . S
C238 N236 1.356 . S
C239 C233 1.363 . S
C239 C234 1.379 . S
C239 N237 1.356 . S
N240 C232 1.356 . S
N240 H246 0.984 . S
N240 H247 0.984 . S
N241 C234 1.356 . S
N241 H244 0.984 . S
N241 H245 0.985 . S
H242 N237 0.984 . S
H243 N237 0.985 . S
H244 N241 0.984 . S
H245 N241 0.985 . S
H246 N240 0.984 . S
H247 N240 0.984 . S
H248 N236 0.984 . S
H249 N236 0.985 . S
C250 C251 1.363 . S
C250 C256 1.379 . S
C250 N258 1.356 . S
C251 C250 1.363 . S
C251 C257 1.363 1_455 S
C252 C253 1.363 . S
C252 C257 1.379 . S
C252 N259 1.356 . S
C253 C252 1.363 . S
C253 C256 1.363 1_655 S
N254 C256 1.356 . S
N254 H266 0.984 . S
N254 H267 0.985 . S
N255 C257 1.356 . S
N255 H260 0.984 . S
N255 H261 0.985 . S
C256 C250 1.379 . S
C256 C253 1.363 1_455 S
C256 N254 1.356 . S
C257 C251 1.363 1_655 S
C257 C252 1.379 . S
C257 N255 1.356 . S
N258 C250 1.356 . S
N258 H264 0.984 . S
N258 H265 0.984 . S
N259 C252 1.356 . S
N259 H262 0.984 . S
N259 H263 0.985 . S
H260 N255 0.984 . S
H261 N255 0.985 . S
H262 N259 0.984 . S
H263 N259 0.985 . S
H264 N258 0.984 . S
H265 N258 0.984 . S
H266 N254 0.984 . S
H267 N254 0.985 . S
C268 C269 1.363 . S
C268 C274 1.379 . S
C268 N276 1.356 . S
C269 C268 1.363 . S
C269 C275 1.363 . S
C270 C271 1.363 . S
C270 C275 1.379 . S
C270 N277 1.356 . S
C271 C270 1.363 . S
C271 C274 1.363 . S
N272 C274 1.356 . S
N272 H284 0.984 . S
N272 H285 0.985 . S
N273 C275 1.356 . S
N273 H278 0.984 . S
N273 H279 0.985 . S
C274 C268 1.379 . S
C274 C271 1.363 . S
C274 N272 1.356 . S
C275 C269 1.363 . S
C275 C270 1.379 . S
C275 N273 1.356 . S
N276 C268 1.356 . S
N276 H282 0.984 . S
N276 H283 0.984 . S
N277 C270 1.356 . S
N277 H280 0.984 . S
N277 H281 0.985 . S
H278 N273 0.984 . S
H279 N273 0.985 . S
H280 N277 0.984 . S
H281 N277 0.985 . S
H282 N276 0.984 . S
H283 N276 0.984 . S
H284 N272 0.984 . S
H285 N272 0.985 . S
C286 C287 1.363 . S
C286 C292 1.379 . S
C286 N294 1.356 . S
C287 C286 1.363 . S
C287 C293 1.363 1_565 S
C288 C289 1.363 . S
C288 C293 1.379 . S
C288 N295 1.356 . S
C289 C288 1.363 . S
C289 C292 1.363 1_545 S
N290 C292 1.356 . S
N290 H302 0.984 . S
N290 H303 0.985 . S
N291 C293 1.356 . S
N291 H296 0.984 . S
N291 H297 0.985 . S
C292 C286 1.379 . S
C292 C289 1.363 1_565 S
C292 N290 1.356 . S
C293 C287 1.363 1_545 S
C293 C288 1.379 . S
C293 N291 1.356 . S
N294 C286 1.356 . S
N294 H300 0.984 . S
N294 H301 0.984 . S
N295 C288 1.356 . S
N295 H298 0.984 . S
N295 H299 0.985 . S
H296 N291 0.984 . S
H297 N291 0.985 . S
H298 N295 0.984 . S
H299 N295 0.985 . S
H300 N294 0.984 . S
H301 N294 0.984 . S
H302 N290 0.984 . S
H303 N290 0.985 . S
C304 C305 1.363 . S
C304 C310 1.379 . S
C304 N312 1.356 . S
C305 C304 1.363 . S
C305 C311 1.363 . S
C306 C307 1.363 . S
C306 C311 1.379 . S
C306 N313 1.356 . S
C307 C306 1.363 . S
C307 C310 1.363 . S
N308 C310 1.356 . S
N308 H320 0.984 . S
N308 H321 0.985 . S
N309 C311 1.356 . S
N309 H314 0.984 . S
N309 H315 0.985 . S
C310 C304 1.379 . S
C310 C307 1.363 . S
C310 N308 1.356 . S
C311 C305 1.363 . S
C311 C306 1.379 . S
C311 N309 1.356 . S
N312 C304 1.356 . S
N312 H318 0.984 . S
N312 H319 0.984 . S
N313 C306 1.356 . S
N313 H316 0.984 . S
N313 H317 0.985 . S
H314 N309 0.984 . S
H315 N309 0.985 . S
H316 N313 0.984 . S
H317 N313 0.985 . S
H318 N312 0.984 . S
H319 N312 0.984 . S
H320 N308 0.984 . S
H321 N308 0.985 . S
C322 C323 1.363 . S
C322 C328 1.379 . S
C322 N330 1.356 1_565 S
C323 C322 1.363 . S
C323 C329 1.363 . S
C324 C325 1.363 . S
C324 C329 1.379 . S
C324 N331 1.356 . S
C325 C324 1.363 . S
C325 C328 1.363 . S
N326 C328 1.356 . S
N326 H338 0.984 . S
N326 H339 0.985 . S
N327 C329 1.356 . S
N327 H332 0.984 . S
N327 H333 0.985 . S
C328 C322 1.379 . S
C328 C325 1.363 . S
C328 N326 1.356 . S
C329 C323 1.363 . S
C329 C324 1.379 . S
C329 N327 1.356 . S
N330 C322 1.356 1_545 S
N330 H336 0.984 . S
N330 H337 0.984 . S
N331 C324 1.356 . S
N331 H334 0.984 . S
N331 H335 0.985 . S
H332 N327 0.984 . S
H333 N327 0.985 . S
H334 N331 0.984 . S
H335 N331 0.985 . S
H336 N330 0.984 . S
H337 N330 0.984 . S
H338 N326 0.984 . S
H339 N326 0.985 . S
C340 C341 1.363 . S
C340 C346 1.379 . S
C340 N348 1.356 . S
C341 C340 1.363 . S
C341 C347 1.363 . S
C342 C343 1.363 . S
C342 C347 1.379 . S
C342 N349 1.356 . S
C343 C342 1.363 . S
C343 C346 1.363 . S
N344 C346 1.356 . S
N344 H356 0.984 . S
N344 H357 0.985 . S
N345 C347 1.356 . S
N345 H350 0.984 . S
N345 H351 0.985 . S
C346 C340 1.379 . S
C346 C343 1.363 . S
C346 N344 1.356 . S
C347 C341 1.363 . S
C347 C342 1.379 . S
C347 N345 1.356 . S
N348 C340 1.356 . S
N348 H354 0.984 . S
N348 H355 0.984 . S
N349 C342 1.356 . S
N349 H352 0.984 . S
N349 H353 0.985 . S
H350 N345 0.984 . S
H351 N345 0.985 . S
H352 N349 0.984 . S
H353 N349 0.985 . S
H354 N348 0.984 . S
H355 N348 0.984 . S
H356 N344 0.984 . S
H357 N344 0.985 . S
C358 C359 1.363 . S
C358 C364 1.379 . S
C358 N366 1.356 . S
C359 C358 1.363 . S
C359 C365 1.363 . S
C360 C361 1.363 . S
C360 C365 1.379 . S
C360 N367 1.356 . S
C361 C360 1.363 . S
C361 C364 1.363 . S
N362 C364 1.356 1_455 S
N362 H374 0.984 . S
N362 H375 0.985 . S
N363 C365 1.356 . S
N363 H368 0.984 . S
N363 H369 0.985 . S
C364 C358 1.379 . S
C364 C361 1.363 . S
C364 N362 1.356 1_655 S
C365 C359 1.363 . S
C365 C360 1.379 . S
C365 N363 1.356 . S
N366 C358 1.356 . S
N366 H372 0.984 . S
N366 H373 0.984 . S
N367 C360 1.356 . S
N367 H370 0.984 . S
N367 H371 0.985 . S
H368 N363 0.984 . S
H369 N363 0.985 . S
H370 N367 0.984 . S
H371 N367 0.985 . S
H372 N366 0.984 . S
H373 N366 0.984 . S
H374 N362 0.984 . S
H375 N362 0.985 . S
C161 C97 1.217 1_455 S
C163 C17 1.218 . S
C179 C137 1.217 1_545 S
C181 C57 1.218 . S
C197 C82 1.544 1_545 S
C199 C2 1.542 . S
C215 C42 1.544 . S
C217 C122 1.542 1_455 S
C233 C71 4.772 . S
C235 C31 4.772 . S
C251 C52 4.542 . S
C253 C92 4.542 . S
C269 C151 4.771 . S
C271 C111 4.773 . S
C287 C132 4.542 . S
C289 C12 4.542 . S
C305 C109 0.975 . S
C307 C149 0.974 . S
C323 C8 1.610 . S
C325 C128 1.610 . S
C341 C69 0.975 . S
C343 C29 0.975 . S
C359 C88 1.610 . S
C361 C48 1.610 . S
