# Generated by pormake.
# Topology umq, (4)-cn, num edge types: 1
# Building blocks:
#     Node 0, Type 0, BuildingBlock: GALJAG_clean_sbu_0, # of connection points: 4
#     Node 1, Type 0, BuildingBlock: GALJAG_clean_sbu_0, # of connection points: 4
#     Node 2, Type 0, BuildingBlock: GALJAG_clean_sbu_0, # of connection points: 4
#     Node 3, Type 0, BuildingBlock: GALJAG_clean_sbu_0, # of connection points: 4
#     Node 4, Type 0, BuildingBlock: GALJAG_clean_sbu_0, # of connection points: 4
#     Node 5, Type 0, BuildingBlock: GALJAG_clean_sbu_0, # of connection points: 4
#     Node 6, Type 0, BuildingBlock: GALJAG_clean_sbu_0, # of connection points: 4
#     Node 7, Type 0, BuildingBlock: GALJAG_clean_sbu_0, # of connection points: 4
#     Node 8, Type 0, BuildingBlock: GALJAG_clean_sbu_0, # of connection points: 4
#     Node 9, Type 0, BuildingBlock: GALJAG_clean_sbu_0, # of connection points: 4
#     Node 10, Type 0, BuildingBlock: GALJAG_clean_sbu_0, # of connection points: 4
#     Node 11, Type 0, BuildingBlock: GALJAG_clean_sbu_0, # of connection points: 4
#     Node 12, Type 0, BuildingBlock: GALJAG_clean_sbu_0, # of connection points: 4
#     Node 13, Type 0, BuildingBlock: GALJAG_clean_sbu_0, # of connection points: 4
#     Node 14, Type 0, BuildingBlock: GALJAG_clean_sbu_0, # of connection points: 4
#     Node 15, Type 0, BuildingBlock: GALJAG_clean_sbu_0, # of connection points: 4
#     Node 16, Type 0, BuildingBlock: GALJAG_clean_sbu_0, # of connection points: 4
#     Node 17, Type 0, BuildingBlock: GALJAG_clean_sbu_0, # of connection points: 4
#     Node 18, Type 0, BuildingBlock: GALJAG_clean_sbu_0, # of connection points: 4
#     Node 19, Type 0, BuildingBlock: GALJAG_clean_sbu_0, # of connection points: 4
#     Node 20, Type 0, BuildingBlock: GALJAG_clean_sbu_0, # of connection points: 4
#     Node 21, Type 0, BuildingBlock: GALJAG_clean_sbu_0, # of connection points: 4
#     Node 22, Type 0, BuildingBlock: GALJAG_clean_sbu_0, # of connection points: 4
#     Node 23, Type 0, BuildingBlock: GALJAG_clean_sbu_0, # of connection points: 4
#     Node 24, Type 0, BuildingBlock: GALJAG_clean_sbu_0, # of connection points: 4
#     Node 25, Type 0, BuildingBlock: GALJAG_clean_sbu_0, # of connection points: 4
#     Node 26, Type 0, BuildingBlock: GALJAG_clean_sbu_0, # of connection points: 4
#     Node 27, Type 0, BuildingBlock: GALJAG_clean_sbu_0, # of connection points: 4
#     Node 28, Type 0, BuildingBlock: GALJAG_clean_sbu_0, # of connection points: 4
#     Node 29, Type 0, BuildingBlock: GALJAG_clean_sbu_0, # of connection points: 4
#     Node 30, Type 0, BuildingBlock: GALJAG_clean_sbu_0, # of connection points: 4
#     Node 31, Type 0, BuildingBlock: GALJAG_clean_sbu_0, # of connection points: 4
#     Edge 32, Type (0, 0), BuildingBlock: CIFDUS_clean_linker_0, # of connection points: 2
#     Edge 33, Type (0, 0), BuildingBlock: CIFDUS_clean_linker_0, # of connection points: 2
#     Edge 34, Type (0, 0), BuildingBlock: CIFDUS_clean_linker_0, # of connection points: 2
#     Edge 35, Type (0, 0), BuildingBlock: CIFDUS_clean_linker_0, # of connection points: 2
#     Edge 36, Type (0, 0), BuildingBlock: CIFDUS_clean_linker_0, # of connection points: 2
#     Edge 37, Type (0, 0), BuildingBlock: CIFDUS_clean_linker_0, # of connection points: 2
#     Edge 38, Type (0, 0), BuildingBlock: CIFDUS_clean_linker_0, # of connection points: 2
#     Edge 39, Type (0, 0), BuildingBlock: CIFDUS_clean_linker_0, # of connection points: 2
#     Edge 40, Type (0, 0), BuildingBlock: CIFDUS_clean_linker_0, # of connection points: 2
#     Edge 41, Type (0, 0), BuildingBlock: CIFDUS_clean_linker_0, # of connection points: 2
#     Edge 42, Type (0, 0), BuildingBlock: CIFDUS_clean_linker_0, # of connection points: 2
#     Edge 43, Type (0, 0), BuildingBlock: CIFDUS_clean_linker_0, # of connection points: 2
#     Edge 44, Type (0, 0), BuildingBlock: CIFDUS_clean_linker_0, # of connection points: 2
#     Edge 45, Type (0, 0), BuildingBlock: CIFDUS_clean_linker_0, # of connection points: 2
#     Edge 46, Type (0, 0), BuildingBlock: CIFDUS_clean_linker_0, # of connection points: 2
#     Edge 47, Type (0, 0), BuildingBlock: CIFDUS_clean_linker_0, # of connection points: 2
#     Edge 48, Type (0, 0), BuildingBlock: CIFDUS_clean_linker_0, # of connection points: 2
#     Edge 49, Type (0, 0), BuildingBlock: CIFDUS_clean_linker_0, # of connection points: 2
#     Edge 50, Type (0, 0), BuildingBlock: CIFDUS_clean_linker_0, # of connection points: 2
#     Edge 51, Type (0, 0), BuildingBlock: CIFDUS_clean_linker_0, # of connection points: 2
#     Edge 52, Type (0, 0), BuildingBlock: CIFDUS_clean_linker_0, # of connection points: 2
#     Edge 53, Type (0, 0), BuildingBlock: CIFDUS_clean_linker_0, # of connection points: 2
#     Edge 54, Type (0, 0), BuildingBlock: CIFDUS_clean_linker_0, # of connection points: 2
#     Edge 55, Type (0, 0), BuildingBlock: CIFDUS_clean_linker_0, # of connection points: 2
#     Edge 56, Type (0, 0), BuildingBlock: CIFDUS_clean_linker_0, # of connection points: 2
#     Edge 57, Type (0, 0), BuildingBlock: CIFDUS_clean_linker_0, # of connection points: 2
#     Edge 58, Type (0, 0), BuildingBlock: CIFDUS_clean_linker_0, # of connection points: 2
#     Edge 59, Type (0, 0), BuildingBlock: CIFDUS_clean_linker_0, # of connection points: 2
#     Edge 60, Type (0, 0), BuildingBlock: CIFDUS_clean_linker_0, # of connection points: 2
#     Edge 61, Type (0, 0), BuildingBlock: CIFDUS_clean_linker_0, # of connection points: 2
#     Edge 62, Type (0, 0), BuildingBlock: CIFDUS_clean_linker_0, # of connection points: 2
#     Edge 63, Type (0, 0), BuildingBlock: CIFDUS_clean_linker_0, # of connection points: 2
#     Edge 64, Type (0, 0), BuildingBlock: CIFDUS_clean_linker_0, # of connection points: 2
#     Edge 65, Type (0, 0), BuildingBlock: CIFDUS_clean_linker_0, # of connection points: 2
#     Edge 66, Type (0, 0), BuildingBlock: CIFDUS_clean_linker_0, # of connection points: 2
#     Edge 67, Type (0, 0), BuildingBlock: CIFDUS_clean_linker_0, # of connection points: 2
#     Edge 68, Type (0, 0), BuildingBlock: CIFDUS_clean_linker_0, # of connection points: 2
#     Edge 69, Type (0, 0), BuildingBlock: CIFDUS_clean_linker_0, # of connection points: 2
#     Edge 70, Type (0, 0), BuildingBlock: CIFDUS_clean_linker_0, # of connection points: 2
#     Edge 71, Type (0, 0), BuildingBlock: CIFDUS_clean_linker_0, # of connection points: 2
#     Edge 72, Type (0, 0), BuildingBlock: CIFDUS_clean_linker_0, # of connection points: 2
#     Edge 73, Type (0, 0), BuildingBlock: CIFDUS_clean_linker_0, # of connection points: 2
#     Edge 74, Type (0, 0), BuildingBlock: CIFDUS_clean_linker_0, # of connection points: 2
#     Edge 75, Type (0, 0), BuildingBlock: CIFDUS_clean_linker_0, # of connection points: 2
#     Edge 76, Type (0, 0), BuildingBlock: CIFDUS_clean_linker_0, # of connection points: 2
#     Edge 77, Type (0, 0), BuildingBlock: CIFDUS_clean_linker_0, # of connection points: 2
#     Edge 78, Type (0, 0), BuildingBlock: CIFDUS_clean_linker_0, # of connection points: 2
#     Edge 79, Type (0, 0), BuildingBlock: CIFDUS_clean_linker_0, # of connection points: 2
#     Edge 80, Type (0, 0), BuildingBlock: CIFDUS_clean_linker_0, # of connection points: 2
#     Edge 81, Type (0, 0), BuildingBlock: CIFDUS_clean_linker_0, # of connection points: 2
#     Edge 82, Type (0, 0), BuildingBlock: CIFDUS_clean_linker_0, # of connection points: 2
#     Edge 83, Type (0, 0), BuildingBlock: CIFDUS_clean_linker_0, # of connection points: 2
#     Edge 84, Type (0, 0), BuildingBlock: CIFDUS_clean_linker_0, # of connection points: 2
#     Edge 85, Type (0, 0), BuildingBlock: CIFDUS_clean_linker_0, # of connection points: 2
#     Edge 86, Type (0, 0), BuildingBlock: CIFDUS_clean_linker_0, # of connection points: 2
#     Edge 87, Type (0, 0), BuildingBlock: CIFDUS_clean_linker_0, # of connection points: 2
#     Edge 88, Type (0, 0), BuildingBlock: CIFDUS_clean_linker_0, # of connection points: 2
#     Edge 89, Type (0, 0), BuildingBlock: CIFDUS_clean_linker_0, # of connection points: 2
#     Edge 90, Type (0, 0), BuildingBlock: CIFDUS_clean_linker_0, # of connection points: 2
#     Edge 91, Type (0, 0), BuildingBlock: CIFDUS_clean_linker_0, # of connection points: 2
#     Edge 92, Type (0, 0), BuildingBlock: CIFDUS_clean_linker_0, # of connection points: 2
#     Edge 93, Type (0, 0), BuildingBlock: CIFDUS_clean_linker_0, # of connection points: 2
#     Edge 94, Type (0, 0), BuildingBlock: CIFDUS_clean_linker_0, # of connection points: 2
#     Edge 95, Type (0, 0), BuildingBlock: CIFDUS_clean_linker_0, # of connection points: 2
# Relax obj value: 0.107
# Max RMSD: 0.085
# Mean RMSD: 0.085
data_MOF--net-umq--node1-GALJAG_clean_sbu_0--edge1-CIFDUS_clean_linker_0
_symmetry_space_group_name_H-M    P1
_symmetry_Int_Tables_number       1
_symmetry_cell_setting            triclinic
loop_
_symmetry_equiv_pos_as_xyz
'x, y, z'
_cell_length_a     55.469527
_cell_length_b     55.377158
_cell_length_c     41.77609
_cell_angle_alpha  90.046943
_cell_angle_beta   90.019164
_cell_angle_gamma 90.0087
loop_
_atom_site_label
_atom_site_type_symbol
_atom_site_fract_x
_atom_site_fract_y
_atom_site_fract_z
_atom_type_partial_charge
In0 In 0.24661 0.08866 0.16197 0.0
O1 O 0.21004 0.10185 0.18163 0.0
O2 O 0.24166 0.12109 0.19455 0.0
C3 C 0.23602 0.07727 0.10023 0.0
C4 C 0.24881 0.04804 0.19778 0.0
C5 C 0.28727 0.11507 0.1573 0.0
O6 O 0.22436 0.09288 0.11585 0.0
O7 O 0.25231 0.06688 0.11606 0.0
O8 O 0.28471 0.0986 0.17792 0.0
O9 O 0.26944 0.11794 0.13887 0.0
C10 C 0.21913 0.11924 0.19706 0.0
O11 O 0.26684 0.05664 0.18341 0.0
O12 O 0.2295 0.05959 0.19352 0.0
In13 In 0.90802 0.24164 0.16134 0.0
O14 O 0.88633 0.20742 0.17246 0.0
O15 O 0.89699 0.23002 0.21118 0.0
C16 C 0.91687 0.23718 0.09809 0.0
C17 C 0.95213 0.23896 0.18762 0.0
C18 C 0.87615 0.27841 0.16174 0.0
O19 O 0.90567 0.22125 0.11382 0.0
O20 O 0.92388 0.25504 0.11439 0.0
O21 O 0.89784 0.28122 0.17018 0.0
O22 O 0.87081 0.25729 0.15305 0.0
C23 C 0.88626 0.2111 0.20234 0.0
O24 O 0.93909 0.25759 0.19 0.0
O25 O 0.94324 0.22212 0.17097 0.0
In26 In 0.75843 0.91075 0.15873 0.0
O27 O 0.73721 0.94057 0.18421 0.0
O28 O 0.7754 0.94104 0.18764 0.0
C29 C 0.72067 0.88018 0.15806 0.0
C30 C 0.7913 0.88525 0.19238 0.0
C31 C 0.76403 0.92303 0.09629 0.0
O32 O 0.72115 0.89883 0.17548 0.0
O33 O 0.73911 0.87716 0.1408 0.0
O34 O 0.77697 0.90738 0.10986 0.0
O35 O 0.74882 0.93295 0.1144 0.0
C36 C 0.75571 0.95064 0.19564 0.0
O37 O 0.79729 0.90247 0.17424 0.0
O38 O 0.76905 0.88074 0.19295 0.0
In39 In 0.09253 0.76007 0.16469 0.0
O40 O 0.11656 0.79246 0.1774 0.0
O41 O 0.10625 0.76879 0.21489 0.0
C42 C 0.08293 0.77042 0.10245 0.0
C43 C 0.04844 0.75838 0.19188 0.0
C44 C 0.12292 0.72204 0.16103 0.0
O45 O 0.09226 0.78561 0.1213 0.0
O46 O 0.07782 0.75046 0.11524 0.0
O47 O 0.10301 0.72096 0.17549 0.0
O48 O 0.12743 0.74222 0.14847 0.0
C49 C 0.1178 0.78741 0.20684 0.0
O50 O 0.05994 0.73968 0.18387 0.0
O51 O 0.05882 0.77803 0.18514 0.0
In52 In 0.239 0.89362 0.34771 0.0
O53 O 0.20533 0.87021 0.33811 0.0
O54 O 0.22748 0.88008 0.29879 0.0
C55 C 0.235 0.90565 0.41046 0.0
C56 C 0.23754 0.93681 0.31806 0.0
C57 C 0.2773 0.86345 0.34931 0.0
O58 O 0.21822 0.89506 0.39553 0.0
O59 O 0.25323 0.91043 0.39361 0.0
O60 O 0.2784 0.88438 0.33753 0.0
O61 O 0.25685 0.85769 0.36013 0.0
C62 C 0.20889 0.86914 0.30824 0.0
O63 O 0.2561 0.92364 0.31844 0.0
O64 O 0.21982 0.92856 0.33358 0.0
In65 In 0.10496 0.2295 0.34082 0.0
O66 O 0.07267 0.25238 0.3255 0.0
O67 O 0.07559 0.21699 0.30643 0.0
C68 C 0.1333 0.26912 0.33959 0.0
C69 C 0.13018 0.19616 0.3074 0.0
C70 C 0.09473 0.21881 0.40283 0.0
O71 O 0.11782 0.26469 0.31825 0.0
O72 O 0.1346 0.25348 0.36149 0.0
O73 O 0.1104 0.20757 0.38687 0.0
O74 O 0.08382 0.23493 0.38733 0.0
C75 C 0.06398 0.23654 0.30714 0.0
O76 O 0.11023 0.19137 0.32049 0.0
O77 O 0.13749 0.21748 0.31171 0.0
In78 In 0.77486 0.10157 0.34956 0.0
O79 O 0.80903 0.1222 0.33575 0.0
O80 O 0.78287 0.11542 0.29959 0.0
C81 C 0.78404 0.08956 0.41098 0.0
C82 C 0.77284 0.05871 0.31943 0.0
C83 C 0.73985 0.13489 0.35728 0.0
O84 O 0.79923 0.10046 0.39373 0.0
O85 O 0.76457 0.0843 0.39699 0.0
O86 O 0.73552 0.11395 0.34674 0.0
O87 O 0.76165 0.13882 0.36394 0.0
C88 C 0.80297 0.12458 0.30676 0.0
O89 O 0.75468 0.07235 0.32201 0.0
O90 O 0.79169 0.06637 0.33303 0.0
In91 In 0.89519 0.77166 0.34478 0.0
O92 O 0.87961 0.80803 0.32805 0.0
O93 O 0.86643 0.77576 0.30669 0.0
C94 C 0.90952 0.77974 0.40574 0.0
C95 C 0.93504 0.77247 0.30777 0.0
C96 C 0.86582 0.73394 0.35617 0.0
O97 O 0.89395 0.79272 0.39193 0.0
O98 O 0.91837 0.76329 0.38844 0.0
O99 O 0.88401 0.73212 0.338 0.0
O100 O 0.86297 0.75448 0.36873 0.0
C101 C 0.86551 0.79845 0.30797 0.0
O102 O 0.92374 0.75315 0.31359 0.0
O103 O 0.92653 0.791 0.32115 0.0
In104 In 0.7579 0.90727 0.84476 0.0
O105 O 0.79671 0.9015 0.82715 0.0
O106 O 0.76902 0.87939 0.80782 0.0
C107 C 0.76973 0.91588 0.90648 0.0
C108 C 0.75015 0.94624 0.8072 0.0
C109 C 0.71987 0.87791 0.85504 0.0
O110 O 0.78215 0.90253 0.88837 0.0
O111 O 0.75172 0.92554 0.89315 0.0
O112 O 0.71733 0.89954 0.84613 0.0
O113 O 0.74142 0.87139 0.85912 0.0
C114 C 0.79108 0.88477 0.80798 0.0
O115 O 0.74194 0.92557 0.80098 0.0
O116 O 0.76195 0.94757 0.83299 0.0
In117 In 0.08997 0.76115 0.84914 0.0
O118 O 0.05857 0.74142 0.82562 0.0
O119 O 0.05757 0.77973 0.82551 0.0
C120 C 0.12232 0.72471 0.84543 0.0
C121 C 0.11564 0.79471 0.81691 0.0
C122 C 0.07767 0.76335 0.91211 0.0
O123 O 0.10207 0.72391 0.83182 0.0
O124 O 0.12625 0.74382 0.86097 0.0
O125 O 0.08654 0.78114 0.89741 0.0
O126 O 0.07439 0.74497 0.8949 0.0
C127 C 0.04764 0.76025 0.81697 0.0
O128 O 0.11164 0.79629 0.84662 0.0
O129 O 0.10652 0.77641 0.80358 0.0
In130 In 0.22165 0.09802 0.84921 0.0
O131 O 0.18792 0.12136 0.84366 0.0
O132 O 0.20916 0.11482 0.80226 0.0
C133 C 0.21574 0.08745 0.91212 0.0
C134 C 0.21883 0.05606 0.81609 0.0
C135 C 0.2604 0.12777 0.85112 0.0
O136 O 0.20036 0.09896 0.89599 0.0
O137 O 0.23381 0.08047 0.89628 0.0
O138 O 0.26197 0.10601 0.84243 0.0
O139 O 0.23949 0.13432 0.85899 0.0
C140 C 0.19086 0.12495 0.81409 0.0
O141 O 0.2373 0.06934 0.81595 0.0
O142 O 0.202 0.06348 0.83392 0.0
In143 In 0.90263 0.22924 0.84528 0.0
O144 O 0.88912 0.19127 0.83318 0.0
O145 O 0.88235 0.21946 0.7999 0.0
C146 C 0.90917 0.22234 0.90879 0.0
C147 C 0.94494 0.22903 0.81343 0.0
C148 C 0.87319 0.26806 0.84731 0.0
O149 O 0.89513 0.20955 0.89217 0.0
O150 O 0.92038 0.23832 0.89326 0.0
O151 O 0.89549 0.26985 0.84177 0.0
O152 O 0.86588 0.24678 0.85204 0.0
C153 C 0.88025 0.19736 0.80655 0.0
O154 O 0.93046 0.24656 0.81248 0.0
O155 O 0.93863 0.21204 0.83168 0.0
In156 In 0.76207 0.10084 0.65805 0.0
O157 O 0.79865 0.1038 0.68342 0.0
O158 O 0.78244 0.13588 0.66586 0.0
C159 C 0.76927 0.08268 0.59879 0.0
C160 C 0.75457 0.06599 0.70198 0.0
C161 C 0.7245 0.13172 0.65304 0.0
O162 O 0.78596 0.09254 0.61466 0.0
O163 O 0.74944 0.08108 0.61339 0.0
O164 O 0.7245 0.11459 0.67293 0.0
O165 O 0.74302 0.13281 0.63575 0.0
C166 C 0.79972 0.12648 0.68089 0.0
O167 O 0.75649 0.08801 0.70932 0.0
O168 O 0.7559 0.06157 0.67237 0.0
In169 In 0.89866 0.77382 0.65699 0.0
O170 O 0.92603 0.75583 0.69035 0.0
O171 O 0.93377 0.79121 0.67391 0.0
C172 C 0.87771 0.72965 0.65576 0.0
C173 C 0.8673 0.80355 0.68719 0.0
C174 C 0.90557 0.78743 0.59538 0.0
O175 O 0.87895 0.74228 0.68087 0.0
O176 O 0.88768 0.73896 0.63163 0.0
O177 O 0.88982 0.7969 0.61316 0.0
O178 O 0.9184 0.77166 0.60897 0.0
C179 C 0.94013 0.77369 0.69121 0.0
O180 O 0.86064 0.78742 0.66781 0.0
O181 O 0.8898 0.80511 0.69077 0.0
In182 In 0.2256 0.90211 0.66371 0.0
O183 O 0.19278 0.87736 0.66677 0.0
O184 O 0.21072 0.88626 0.71017 0.0
C185 C 0.21935 0.91085 0.60014 0.0
C186 C 0.22643 0.9459 0.69288 0.0
C187 C 0.264 0.87217 0.66902 0.0
O188 O 0.20204 0.90596 0.61858 0.0
O189 O 0.23947 0.91232 0.61396 0.0
O190 O 0.2635 0.89282 0.68171 0.0
O191 O 0.24517 0.86662 0.65384 0.0
C192 C 0.19378 0.87486 0.69678 0.0
O193 O 0.24476 0.93642 0.68027 0.0
O194 O 0.20732 0.93382 0.68963 0.0
In195 In 0.0931 0.23754 0.65374 0.0
O196 O 0.11549 0.20312 0.65837 0.0
O197 O 0.10904 0.22372 0.7005 0.0
C198 C 0.08125 0.23114 0.59129 0.0
C199 C 0.05056 0.23861 0.68492 0.0
C200 C 0.12415 0.27519 0.65542 0.0
O201 O 0.09217 0.21531 0.6074 0.0
O202 O 0.07564 0.24977 0.6069 0.0
O203 O 0.10446 0.2752 0.6704 0.0
O204 O 0.12816 0.25626 0.63958 0.0
C205 C 0.11874 0.20533 0.68815 0.0
O206 O 0.06045 0.25727 0.6737 0.0
O207 O 0.0616 0.21915 0.67923 0.0
In208 In 0.74189 0.59602 0.6627 0.0
O209 O 0.72538 0.63295 0.67297 0.0
O210 O 0.70966 0.60256 0.69578 0.0
C211 C 0.72938 0.58693 0.6008 0.0
C212 C 0.74625 0.55411 0.69555 0.0
C213 C 0.78221 0.62314 0.66938 0.0
O214 O 0.71705 0.60008 0.61914 0.0
O215 O 0.74767 0.57772 0.61387 0.0
O216 O 0.77042 0.61523 0.69296 0.0
O217 O 0.77405 0.61683 0.64246 0.0
C218 C 0.70961 0.62516 0.69211 0.0
O219 O 0.72625 0.56392 0.68962 0.0
O220 O 0.76422 0.56493 0.68388 0.0
In221 In 0.40145 0.73724 0.67027 0.0
O222 O 0.38276 0.70032 0.6682 0.0
O223 O 0.39199 0.71446 0.71376 0.0
C224 C 0.41752 0.73571 0.60932 0.0
C225 C 0.44011 0.74469 0.70821 0.0
C226 C 0.36409 0.76865 0.66737 0.0
O227 O 0.4121 0.71694 0.62488 0.0
O228 O 0.41559 0.75518 0.62487 0.0
O229 O 0.38489 0.77506 0.67612 0.0
O230 O 0.36227 0.74666 0.66021 0.0
C231 C 0.38239 0.69754 0.69817 0.0
O232 O 0.41937 0.75252 0.71492 0.0
O233 O 0.4416 0.73368 0.6818 0.0
In234 In 0.26552 0.40538 0.65383 0.0
O235 O 0.24942 0.42831 0.69363 0.0
O236 O 0.27445 0.44507 0.66197 0.0
C237 C 0.23192 0.37026 0.64979 0.0
C238 C 0.3009 0.38348 0.6874 0.0
C239 C 0.26784 0.41986 0.59251 0.0
O240 O 0.22721 0.39085 0.66116 0.0
O241 O 0.25335 0.36757 0.64057 0.0
O242 O 0.28617 0.41236 0.60753 0.0
O243 O 0.24862 0.42046 0.60868 0.0
C244 C 0.26084 0.44716 0.68602 0.0
O245 O 0.30135 0.3847 0.65723 0.0
O246 O 0.28319 0.39386 0.70025 0.0
In247 In 0.58753 0.26494 0.67136 0.0
O248 O 0.55584 0.24887 0.69841 0.0
O249 O 0.5541 0.28609 0.68589 0.0
C250 C 0.61745 0.22659 0.67064 0.0
C251 C 0.61247 0.29465 0.71057 0.0
C252 C 0.57701 0.26826 0.60825 0.0
O253 O 0.59729 0.22603 0.68462 0.0
O254 O 0.62238 0.24638 0.65727 0.0
O255 O 0.58925 0.28415 0.62269 0.0
O256 O 0.56953 0.25135 0.62587 0.0
C257 C 0.54426 0.26847 0.69995 0.0
O258 O 0.61013 0.29899 0.68102 0.0
O259 O 0.60247 0.27549 0.7199 0.0
In260 In 0.7339 0.40104 0.848 0.0
O261 O 0.69797 0.38198 0.83794 0.0
O262 O 0.72164 0.38872 0.79885 0.0
C263 C 0.73067 0.41272 0.91083 0.0
C264 C 0.7355 0.4441 0.81804 0.0
C265 C 0.76675 0.3651 0.85055 0.0
O266 O 0.71328 0.40339 0.89566 0.0
O267 O 0.74921 0.41659 0.89413 0.0
O268 O 0.77228 0.38614 0.84144 0.0
O269 O 0.74496 0.36246 0.8583 0.0
C270 C 0.70185 0.38004 0.8082 0.0
O271 O 0.75303 0.4295 0.81753 0.0
O272 O 0.71772 0.4373 0.83463 0.0
In273 In 0.59975 0.72942 0.84814 0.0
O274 O 0.60677 0.69043 0.83098 0.0
O275 O 0.62843 0.71879 0.81246 0.0
C276 C 0.58793 0.71834 0.90912 0.0
C277 C 0.56176 0.738 0.80901 0.0
C278 C 0.63063 0.76578 0.86106 0.0
O279 O 0.59941 0.70394 0.89125 0.0
O280 O 0.58173 0.73784 0.89582 0.0
O281 O 0.60997 0.76953 0.84937 0.0
O282 O 0.63537 0.74391 0.86652 0.0
C283 C 0.62365 0.69657 0.81233 0.0
O284 O 0.58309 0.74352 0.80194 0.0
O285 O 0.55928 0.72853 0.83625 0.0
In286 In 0.26578 0.59653 0.84411 0.0
O287 O 0.25211 0.57481 0.80157 0.0
O288 O 0.27054 0.55576 0.83835 0.0
C289 C 0.23252 0.63223 0.84637 0.0
C290 C 0.30399 0.61561 0.81302 0.0
C291 C 0.26774 0.5841 0.90627 0.0
O292 O 0.22742 0.61111 0.83733 0.0
O293 O 0.25426 0.63528 0.85402 0.0
O294 O 0.28604 0.5914 0.89104 0.0
O295 O 0.24866 0.58254 0.88988 0.0
C296 C 0.25998 0.55487 0.81164 0.0
O297 O 0.30387 0.61257 0.84295 0.0
O298 O 0.28511 0.60871 0.79898 0.0
In299 In 0.39114 0.26926 0.8524 0.0
O300 O 0.37197 0.30517 0.84543 0.0
O301 O 0.37679 0.28288 0.80445 0.0
C302 C 0.40603 0.27837 0.91303 0.0
C303 C 0.43236 0.26321 0.8192 0.0
C304 C 0.35563 0.23578 0.85715 0.0
O305 O 0.39624 0.29404 0.89553 0.0
O306 O 0.40885 0.25811 0.89977 0.0
O307 O 0.37548 0.23144 0.84368 0.0
O308 O 0.35378 0.25684 0.86827 0.0
C309 C 0.36886 0.30248 0.81572 0.0
O310 O 0.41972 0.24566 0.82862 0.0
O311 O 0.42462 0.28371 0.82742 0.0
In312 In 0.26821 0.40533 0.34291 0.0
O313 O 0.30634 0.397 0.32522 0.0
O314 O 0.27727 0.37681 0.30563 0.0
C315 C 0.27879 0.41787 0.4038 0.0
C316 C 0.26128 0.44601 0.30846 0.0
C317 C 0.23353 0.37186 0.3512 0.0
O318 O 0.29238 0.4047 0.38706 0.0
O319 O 0.26021 0.42535 0.38949 0.0
O320 O 0.23195 0.38822 0.33021 0.0
O321 O 0.25245 0.37258 0.36797 0.0
C322 C 0.29964 0.38075 0.30598 0.0
O323 O 0.24398 0.43504 0.32163 0.0
O324 O 0.28167 0.43678 0.31338 0.0
In325 In 0.59555 0.26152 0.3558 0.0
O326 O 0.56351 0.24006 0.33698 0.0
O327 O 0.56151 0.27835 0.33475 0.0
C328 C 0.62742 0.22455 0.35769 0.0
C329 C 0.61789 0.29013 0.31257 0.0
C330 C 0.58673 0.27246 0.41812 0.0
O331 O 0.60621 0.22214 0.34739 0.0
O332 O 0.63248 0.24551 0.36733 0.0
O333 O 0.59715 0.28686 0.39929 0.0
O334 O 0.58026 0.25289 0.40536 0.0
C335 C 0.55169 0.25836 0.32826 0.0
O336 O 0.61677 0.29544 0.34194 0.0
O337 O 0.60785 0.27047 0.30515 0.0
In338 In 0.73289 0.5958 0.34818 0.0
O339 O 0.70009 0.62101 0.34612 0.0
O340 O 0.71782 0.61244 0.30254 0.0
C341 C 0.73117 0.58194 0.4104 0.0
C342 C 0.72828 0.55427 0.31488 0.0
C343 C 0.77167 0.62546 0.34783 0.0
O344 O 0.71436 0.59362 0.39717 0.0
O345 O 0.74836 0.57655 0.39198 0.0
O346 O 0.7715 0.60554 0.33316 0.0
O347 O 0.75242 0.63028 0.36248 0.0
C348 C 0.70098 0.62374 0.31613 0.0
O349 O 0.7477 0.56614 0.31592 0.0
O350 O 0.71139 0.56287 0.33164 0.0
In351 In 0.40913 0.72403 0.35812 0.0
O352 O 0.39695 0.68609 0.34297 0.0
O353 O 0.38468 0.71625 0.31601 0.0
C354 C 0.41974 0.71819 0.42076 0.0
C355 C 0.45065 0.7254 0.32432 0.0
C356 C 0.37513 0.75838 0.36443 0.0
O357 O 0.40881 0.70238 0.40454 0.0
O358 O 0.42602 0.73665 0.40514 0.0
O359 O 0.39526 0.76265 0.35131 0.0
O360 O 0.37255 0.73708 0.37464 0.0
C361 C 0.38462 0.69368 0.31964 0.0
O362 O 0.4371 0.74363 0.32693 0.0
O363 O 0.44374 0.70717 0.33983 0.0
In364 In 0.27017 0.6003 0.15715 0.0
O365 O 0.25123 0.57132 0.1875 0.0
O366 O 0.28799 0.5662 0.17503 0.0
C367 C 0.23284 0.63024 0.14736 0.0
C368 C 0.29744 0.62756 0.19659 0.0
C369 C 0.27944 0.58997 0.0953 0.0
O370 O 0.23059 0.61085 0.16316 0.0
O371 O 0.25369 0.63407 0.13632 0.0
O372 O 0.29311 0.60313 0.11202 0.0
O373 O 0.26144 0.58155 0.11002 0.0
C374 C 0.26983 0.55827 0.18973 0.0
O375 O 0.30668 0.61319 0.17664 0.0
O376 O 0.27477 0.62816 0.19656 0.0
In377 In 0.40627 0.26412 0.16186 0.0
O378 O 0.39025 0.30079 0.17614 0.0
O379 O 0.37509 0.26906 0.1964 0.0
C380 C 0.42114 0.27062 0.10099 0.0
C381 C 0.44479 0.26645 0.20126 0.0
C382 C 0.37871 0.22525 0.15001 0.0
O383 O 0.40655 0.28476 0.11467 0.0
O384 O 0.42911 0.25389 0.11856 0.0
O385 O 0.39623 0.22446 0.16944 0.0
O386 O 0.3754 0.24546 0.13677 0.0
C387 C 0.37471 0.29173 0.19463 0.0
O388 O 0.43296 0.24719 0.19725 0.0
O389 O 0.43762 0.28405 0.18472 0.0
In390 In 0.72759 0.40045 0.1632 0.0
O391 O 0.69356 0.37922 0.17672 0.0
O392 O 0.71883 0.38748 0.21344 0.0
C393 C 0.71844 0.41067 0.1008 0.0
C394 C 0.73211 0.44373 0.19231 0.0
C395 C 0.76262 0.36669 0.15911 0.0
O396 O 0.70258 0.40208 0.11924 0.0
O397 O 0.73836 0.41491 0.11416 0.0
O398 O 0.76644 0.38753 0.17019 0.0
O399 O 0.74125 0.36298 0.15013 0.0
C400 C 0.69916 0.37755 0.20598 0.0
O401 O 0.74999 0.43118 0.18383 0.0
O402 O 0.71185 0.43494 0.18491 0.0
In403 In 0.59641 0.73348 0.15956 0.0
O404 O 0.61555 0.69717 0.16534 0.0
O405 O 0.61567 0.72128 0.20496 0.0
C406 C 0.58089 0.72804 0.09838 0.0
C407 C 0.55576 0.73695 0.19483 0.0
C408 C 0.63001 0.76855 0.15369 0.0
O409 O 0.59224 0.71171 0.11307 0.0
O410 O 0.57656 0.74657 0.11495 0.0
O411 O 0.61168 0.77085 0.17127 0.0
O412 O 0.6314 0.74862 0.13929 0.0
C413 C 0.62214 0.70113 0.19381 0.0
O414 O 0.56726 0.75521 0.18522 0.0
O415 O 0.56427 0.71696 0.18571 0.0
H416 H 0.37684 0.18256 0.18232 0.0
H417 H 0.34325 0.22225 0.10542 0.0
H418 H 0.31315 0.19054 0.09915 0.0
H419 H 0.29456 0.15317 0.11803 0.0
H420 H 0.32696 0.11379 0.19602 0.0
H421 H 0.35946 0.14357 0.19913 0.0
C422 C 0.36309 0.18409 0.16397 0.0
C423 C 0.36217 0.20477 0.14453 0.0
C424 C 0.34557 0.16591 0.16077 0.0
C425 C 0.34426 0.20657 0.12084 0.0
C426 C 0.32702 0.18845 0.11723 0.0
C427 C 0.30888 0.15094 0.13547 0.0
C428 C 0.3083 0.13141 0.15688 0.0
C429 C 0.32722 0.16829 0.13746 0.0
C430 C 0.32699 0.12874 0.17932 0.0
C431 C 0.34553 0.14579 0.18117 0.0
H432 H 0.82949 0.27559 0.14365 0.0
H433 H 0.88235 0.32513 0.18154 0.0
H434 H 0.85186 0.35708 0.18384 0.0
H435 H 0.80993 0.37062 0.17573 0.0
H436 H 0.75747 0.32062 0.13777 0.0
H437 H 0.78811 0.28913 0.13484 0.0
C438 C 0.83438 0.2934 0.15235 0.0
C439 C 0.85811 0.29801 0.16246 0.0
C440 C 0.81683 0.31156 0.15364 0.0
C441 C 0.86418 0.32116 0.17363 0.0
C442 C 0.84676 0.3394 0.17497 0.0
C443 C 0.80525 0.35284 0.16678 0.0
C444 C 0.78147 0.34794 0.15703 0.0
C445 C 0.82299 0.33477 0.16515 0.0
C446 C 0.77565 0.32485 0.14544 0.0
C447 C 0.79315 0.30682 0.14376 0.0
H448 H 0.63101 0.81255 0.18255 0.0
H449 H 0.67048 0.76709 0.11699 0.0
H450 H 0.70154 0.79804 0.11165 0.0
H451 H 0.71797 0.83755 0.1265 0.0
H452 H 0.67899 0.88297 0.19259 0.0
H453 H 0.64716 0.85256 0.19668 0.0
C454 C 0.64639 0.80946 0.16706 0.0
C455 C 0.64849 0.78756 0.15026 0.0
C456 C 0.66424 0.82732 0.16416 0.0
C457 C 0.66848 0.78379 0.13023 0.0
C458 C 0.68625 0.80148 0.12714 0.0
C459 C 0.70244 0.84086 0.14165 0.0
C460 C 0.70082 0.86244 0.15922 0.0
C461 C 0.68437 0.82324 0.1441 0.0
C462 C 0.68063 0.86647 0.17882 0.0
C463 C 0.66246 0.84908 0.18121 0.0
H464 H 0.18815 0.62919 0.17442 0.0
H465 H 0.23397 0.67174 0.11286 0.0
H466 H 0.20356 0.70345 0.1107 0.0
H467 H 0.165 0.72009 0.12848 0.0
H468 H 0.119 0.67814 0.1904 0.0
H469 H 0.14837 0.64518 0.19016 0.0
C470 C 0.19134 0.6453 0.16029 0.0
C471 C 0.21331 0.64816 0.14396 0.0
C472 C 0.17383 0.66364 0.15938 0.0
C473 C 0.21723 0.66913 0.12575 0.0
C474 C 0.19987 0.68731 0.12454 0.0
C475 C 0.16134 0.70369 0.14181 0.0
C476 C 0.13997 0.7016 0.1596 0.0
C477 C 0.17829 0.68492 0.14164 0.0
C478 C 0.13539 0.6802 0.17659 0.0
C479 C 0.15218 0.66136 0.17648 0.0
H480 H 0.27953 0.81918 0.37677 0.0
H481 H 0.32215 0.87088 0.32426 0.0
H482 H 0.35662 0.84335 0.32526 0.0
H483 H 0.37434 0.80404 0.33997 0.0
H484 H 0.33132 0.75258 0.39244 0.0
H485 H 0.29745 0.7806 0.39271 0.0
C486 C 0.29637 0.82444 0.36558 0.0
C487 C 0.29825 0.84697 0.35035 0.0
C488 C 0.31609 0.80857 0.36628 0.0
C489 C 0.32023 0.85358 0.33609 0.0
C490 C 0.33995 0.83786 0.33665 0.0
C491 C 0.3576 0.79906 0.35164 0.0
C492 C 0.35536 0.77625 0.36611 0.0
C493 C 0.33806 0.81524 0.35155 0.0
C494 C 0.33354 0.77002 0.38109 0.0
C495 C 0.31411 0.78601 0.38122 0.0
H496 H 0.19482 0.36285 0.31312 0.0
H497 H 0.23195 0.33723 0.3973 0.0
H498 H 0.20367 0.30363 0.40179 0.0
H499 H 0.16937 0.28065 0.38068 0.0
H500 H 0.13271 0.30561 0.29582 0.0
H501 H 0.15978 0.34035 0.29275 0.0
C502 C 0.19659 0.35 0.33257 0.0
C503 C 0.21545 0.35249 0.3548 0.0
C504 C 0.18043 0.33055 0.3348 0.0
C505 C 0.2176 0.33568 0.37982 0.0
C506 C 0.20146 0.31644 0.3824 0.0
C507 C 0.16724 0.29375 0.3616 0.0
C508 C 0.14913 0.29054 0.33847 0.0
C509 C 0.18297 0.31356 0.35984 0.0
C510 C 0.14658 0.30766 0.31388 0.0
C511 C 0.16204 0.32752 0.3121 0.0
H512 H 0.69218 0.13154 0.34238 0.0
H513 H 0.74567 0.18044 0.38028 0.0
H514 H 0.71541 0.21222 0.38474 0.0
H515 H 0.67411 0.22654 0.37647 0.0
H516 H 0.62052 0.17806 0.33799 0.0
H517 H 0.65043 0.14568 0.33528 0.0
C518 C 0.69716 0.14912 0.35173 0.0
C519 C 0.72113 0.15365 0.3609 0.0
C520 C 0.67968 0.1674 0.35408 0.0
C521 C 0.72734 0.17651 0.37299 0.0
C522 C 0.71006 0.19471 0.37554 0.0
C523 C 0.66895 0.20885 0.36763 0.0
C524 C 0.64518 0.2047 0.35739 0.0
C525 C 0.68623 0.19041 0.36595 0.0
C526 C 0.63874 0.1817 0.34599 0.0
C527 C 0.65583 0.16319 0.3444 0.0
H528 H 0.77672 0.6665 0.38215 0.0
H529 H 0.8132 0.62186 0.31276 0.0
H530 H 0.84651 0.65085 0.31047 0.0
H531 H 0.86424 0.69003 0.3264 0.0
H532 H 0.82707 0.73428 0.39572 0.0
H533 H 0.7952 0.70421 0.39999 0.0
C534 C 0.79201 0.66305 0.36661 0.0
C535 C 0.79243 0.64218 0.34749 0.0
C536 C 0.81098 0.67975 0.3654 0.0
C537 C 0.81243 0.63786 0.32766 0.0
C538 C 0.83146 0.65443 0.32632 0.0
C539 C 0.84928 0.69293 0.34267 0.0
C540 C 0.84798 0.71441 0.3606 0.0
C541 C 0.83081 0.67559 0.34484 0.0
C542 C 0.82848 0.71795 0.38156 0.0
C543 C 0.81019 0.70079 0.38399 0.0
H544 H 0.72162 0.83224 0.87746 0.0
H545 H 0.67253 0.88547 0.83967 0.0
H546 H 0.63984 0.85576 0.84015 0.0
H547 H 0.6261 0.81375 0.84776 0.0
H548 H 0.67583 0.76081 0.88506 0.0
H549 H 0.70734 0.79136 0.88849 0.0
C550 C 0.70372 0.83741 0.86959 0.0
C551 C 0.69952 0.86092 0.85831 0.0
C552 C 0.68516 0.82025 0.8697 0.0
C553 C 0.6762 0.86743 0.8484 0.0
C554 C 0.65754 0.85044 0.84858 0.0
C555 C 0.64376 0.809 0.85694 0.0
C556 C 0.64868 0.78503 0.8659 0.0
C557 C 0.66193 0.82666 0.85863 0.0
C558 C 0.67161 0.77912 0.87785 0.0
C559 C 0.68967 0.79656 0.87979 0.0
H560 H 0.16858 0.72513 0.86617 0.0
H561 H 0.11582 0.67998 0.81944 0.0
H562 H 0.14522 0.6472 0.81574 0.0
H563 H 0.186 0.63139 0.82584 0.0
H564 H 0.23889 0.67711 0.87142 0.0
H565 H 0.20937 0.70964 0.87548 0.0
C566 C 0.16351 0.7081 0.85522 0.0
C567 C 0.14008 0.70493 0.84319 0.0
C568 C 0.18054 0.68944 0.85294 0.0
C569 C 0.13379 0.68284 0.82889 0.0
C570 C 0.15057 0.66409 0.82678 0.0
C571 C 0.19103 0.64848 0.83666 0.0
C572 C 0.21455 0.65184 0.84836 0.0
C573 C 0.17401 0.66719 0.83872 0.0
C574 C 0.22088 0.67409 0.8622 0.0
C575 C 0.20402 0.6927 0.86457 0.0
H576 H 0.35636 0.18861 0.83856 0.0
H577 H 0.31046 0.24304 0.88046 0.0
H578 H 0.27718 0.21428 0.88279 0.0
H579 H 0.26082 0.17404 0.87199 0.0
H580 H 0.30644 0.11921 0.83059 0.0
H581 H 0.34016 0.14771 0.82913 0.0
C582 C 0.33908 0.19412 0.84826 0.0
C583 C 0.33586 0.21794 0.85923 0.0
C584 C 0.31999 0.17745 0.84961 0.0
C585 C 0.31341 0.22482 0.87185 0.0
C586 C 0.29435 0.2084 0.87317 0.0
C587 C 0.27816 0.16829 0.86273 0.0
C588 C 0.28112 0.14458 0.85132 0.0
C589 C 0.2974 0.18472 0.86198 0.0
C590 C 0.30371 0.13738 0.8395 0.0
C591 C 0.32298 0.15367 0.83862 0.0
H592 H 0.82545 0.26798 0.86049 0.0
H593 H 0.88403 0.31523 0.83431 0.0
H594 H 0.85635 0.34965 0.83307 0.0
H595 H 0.81518 0.36617 0.83873 0.0
H596 H 0.75704 0.31841 0.86535 0.0
H597 H 0.78485 0.2844 0.86708 0.0
C598 C 0.83219 0.28581 0.85458 0.0
C599 C 0.85672 0.28905 0.84745 0.0
C600 C 0.81622 0.30545 0.85393 0.0
C601 C 0.86519 0.31228 0.83991 0.0
C602 C 0.84937 0.33195 0.83915 0.0
C603 C 0.80866 0.34832 0.84493 0.0
C604 C 0.78408 0.34483 0.85183 0.0
C605 C 0.82481 0.32874 0.84599 0.0
C606 C 0.77587 0.32161 0.85992 0.0
C607 C 0.79176 0.30211 0.86092 0.0
H608 H 0.65712 0.22182 0.63397 0.0
H609 H 0.61525 0.18504 0.70595 0.0
H610 H 0.64432 0.15173 0.70626 0.0
H611 H 0.68259 0.13387 0.68724 0.0
H612 H 0.72358 0.17104 0.61453 0.0
H613 H 0.69382 0.2033 0.61324 0.0
C614 C 0.65432 0.20649 0.64969 0.0
C615 C 0.63422 0.20593 0.67007 0.0
C616 C 0.67095 0.18747 0.6496 0.0
C617 C 0.63066 0.18586 0.69008 0.0
C618 C 0.64728 0.16685 0.69029 0.0
C619 C 0.68487 0.14896 0.67099 0.0
C620 C 0.70531 0.15012 0.65114 0.0
C621 C 0.66762 0.16756 0.67032 0.0
C622 C 0.70803 0.16973 0.63011 0.0
C623 C 0.69105 0.18824 0.62937 0.0
H624 H 0.81081 0.64127 0.62242 0.0
H625 H 0.79869 0.64395 0.72437 0.0
H626 H 0.82863 0.67607 0.72959 0.0
H627 H 0.85578 0.70568 0.70454 0.0
H628 H 0.8678 0.70298 0.60255 0.0
H629 H 0.84057 0.6685 0.59805 0.0
C630 C 0.81494 0.64869 0.64583 0.0
C631 C 0.80241 0.64038 0.67292 0.0
C632 C 0.83207 0.66726 0.64863 0.0
C633 C 0.80804 0.65007 0.70312 0.0
C634 C 0.82511 0.6685 0.70611 0.0
C635 C 0.85266 0.69735 0.6814 0.0
C636 C 0.86364 0.707 0.6539 0.0
C637 C 0.83686 0.67759 0.67894 0.0
C638 C 0.85953 0.69594 0.62409 0.0
C639 C 0.84389 0.67626 0.62147 0.0
H640 H 0.26683 0.8258 0.64885 0.0
H641 H 0.30824 0.88201 0.69465 0.0
H642 H 0.34311 0.85507 0.69792 0.0
H643 H 0.36184 0.81541 0.6876 0.0
H644 H 0.31975 0.75918 0.64284 0.0
H645 H 0.28519 0.78625 0.63932 0.0
C646 C 0.28349 0.83216 0.65955 0.0
C647 C 0.28499 0.85585 0.67143 0.0
C648 C 0.30336 0.81656 0.66151 0.0
C649 C 0.30664 0.86381 0.68536 0.0
C650 C 0.32659 0.84843 0.6872 0.0
C651 C 0.3451 0.80913 0.67705 0.0
C652 C 0.34337 0.78536 0.66544 0.0
C653 C 0.32517 0.82477 0.67532 0.0
C654 C 0.32154 0.77741 0.65197 0.0
C655 C 0.30176 0.79287 0.64992 0.0
H656 H 0.16889 0.27688 0.62982 0.0
H657 H 0.11778 0.31907 0.68398 0.0
H658 H 0.14645 0.35259 0.6865 0.0
H659 H 0.18633 0.36967 0.6738 0.0
H660 H 0.23753 0.32677 0.62069 0.0
H661 H 0.20852 0.29379 0.61725 0.0
C662 C 0.16401 0.29343 0.64211 0.0
C663 C 0.14129 0.29553 0.65665 0.0
C664 C 0.1806 0.31249 0.64368 0.0
C665 C 0.13521 0.31704 0.6726 0.0
C666 C 0.15158 0.3362 0.67405 0.0
C667 C 0.19106 0.35312 0.66141 0.0
C668 C 0.214 0.35066 0.64751 0.0
C669 C 0.17435 0.3341 0.65974 0.0
C670 C 0.21998 0.32909 0.63163 0.0
C671 C 0.20341 0.31021 0.62963 0.0
H672 H 0.20156 0.09651 0.06138 0.0
H673 H 0.26365 0.0496 0.06076 0.0
H674 H 0.26193 0.04721 1.00245 0.0
H675 H 0.24484 0.06115 0.95133 0.0
H676 H 0.18253 0.10776 0.95192 0.0
H677 H 0.18216 0.10738 0.01037 0.0
C678 C 0.21451 0.08552 0.0485 0.0
C679 C 0.23282 0.07342 0.06539 0.0
C680 C 0.21348 0.08428 0.01488 0.0
C681 C 0.2494 0.05914 0.04835 0.0
C682 C 0.24849 0.05783 0.01496 0.0
C683 C 0.23101 0.07098 0.96426 0.0
C684 C 0.21387 0.08462 0.94729 0.0
C685 C 0.23093 0.07074 0.99793 0.0
C686 C 0.19597 0.09714 0.96439 0.0
C687 C 0.19579 0.09701 0.99784 0.0
H688 H 0.93354 0.25136 0.95005 0.0
H689 H 0.88833 0.18801 0.94644 0.0
H690 H 0.88806 0.186 0.00486 0.0
H691 H 0.89851 0.20378 0.05701 0.0
H692 H 0.94261 0.26793 0.06048 0.0
H693 H 0.94558 0.268 1.00217 0.0
C694 C 0.92384 0.23697 0.96205 0.0
C695 C 0.91091 0.21992 0.94396 0.0
C696 C 0.92345 0.23614 0.99566 0.0
C697 C 0.89838 0.2014 0.95984 0.0
C698 C 0.89818 0.20026 0.99325 0.0
C699 C 0.90897 0.21763 0.045 0.0
C700 C 0.92023 0.23588 0.06303 0.0
C701 C 0.91032 0.21777 0.01141 0.0
C702 C 0.93368 0.25373 0.04714 0.0
C703 C 0.93538 0.2538 0.01378 0.0
H704 H 0.74536 0.94303 0.95001 0.0
H705 H 0.80467 0.89308 0.94098 0.0
H706 H 0.80946 0.89237 0.99908 0.0
H707 H 0.79454 0.9032 0.05263 0.0
H708 H 0.73497 0.95285 0.06163 0.0
H709 H 0.73272 0.95659 1.00347 0.0
C710 C 0.75953 0.93223 0.96075 0.0
C711 C 0.7745 0.91798 0.94122 0.0
C712 C 0.76206 0.93174 0.99421 0.0
C713 C 0.79285 0.90416 0.95547 0.0
C714 C 0.79556 0.90369 0.98872 0.0
C715 C 0.78127 0.91508 0.04186 0.0
C716 C 0.76482 0.92757 0.06141 0.0
C717 C 0.77993 0.91698 0.00836 0.0
C718 C 0.7478 0.94297 0.04712 0.0
C719 C 0.74644 0.94506 0.01384 0.0
H720 H 0.08933 0.79809 0.95597 0.0
H721 H 0.05693 0.72755 0.94701 0.0
H722 H 0.05402 0.72437 0.00509 0.0
H723 H 0.06348 0.74011 0.05845 0.0
H724 H 0.09665 0.81019 0.06811 0.0
H725 H 0.09625 0.81515 0.0099 0.0
C726 C 0.08135 0.78218 0.96675 0.0
C727 C 0.07349 0.76303 0.94715 0.0
C728 C 0.07999 0.78031 1.00034 0.0
C729 C 0.06321 0.74251 0.9615 0.0
C730 C 0.06157 0.74064 0.99475 0.0
C731 C 0.07038 0.7566 0.04786 0.0
C732 C 0.08021 0.77468 0.0676 0.0
C733 C 0.07035 0.7592 0.01441 0.0
C734 C 0.08901 0.79596 0.05347 0.0
C735 C 0.08886 0.79878 0.02016 0.0
H736 H 0.19772 0.89865 0.45244 0.0
H737 H 0.27116 0.92405 0.44684 0.0
H738 H 0.2722 0.92949 0.50468 0.0
H739 H 0.25337 0.92455 0.55728 0.0
H740 H 0.17991 0.89954 0.56374 0.0
H741 H 0.17766 0.89673 0.50533 0.0
C742 C 0.21385 0.90557 0.46389 0.0
C743 C 0.23439 0.91074 0.44531 0.0
C744 C 0.21436 0.9087 0.49738 0.0
C745 C 0.25512 0.91983 0.46051 0.0
C746 C 0.25577 0.92293 0.49365 0.0
C747 C 0.23676 0.91875 0.5459 0.0
C748 C 0.21689 0.91213 0.56484 0.0
C749 C 0.23565 0.91706 0.51237 0.0
C750 C 0.19547 0.90476 0.54971 0.0
C751 C 0.19422 0.90303 0.5163 0.0
H752 H 0.10033 0.19777 0.55084 0.0
H753 H 0.05457 0.26074 0.55318 0.0
H754 H 0.0528 0.26101 0.49476 0.0
H755 H 0.06724 0.24563 0.44309 0.0
H756 H 0.11469 0.18394 0.44062 0.0
H757 H 0.11265 0.18075 0.49893 0.0
C758 C 0.08967 0.21131 0.53855 0.0
C759 C 0.07768 0.22927 0.55629 0.0
C760 C 0.08919 0.2117 0.50491 0.0
C761 C 0.06403 0.24678 0.54006 0.0
C762 C 0.06306 0.24698 0.50665 0.0
C763 C 0.07687 0.23128 0.45528 0.0
C764 C 0.09119 0.21512 0.43758 0.0
C765 C 0.07603 0.22988 0.48883 0.0
C766 C 0.1036 0.19666 0.45372 0.0
C767 C 0.10249 0.19486 0.48706 0.0
H768 H 0.8061 0.09409 0.55855 0.0
H769 H 0.73696 0.05845 0.56182 0.0
H770 H 0.73675 0.05508 0.50358 0.0
H771 H 0.75382 0.06656 0.45173 0.0
H772 H 0.82218 0.10361 0.44799 0.0
H773 H 0.82521 0.10192 0.50635 0.0
C774 C 0.79124 0.08514 0.54654 0.0
C775 C 0.77148 0.07672 0.56443 0.0
C776 C 0.79096 0.08378 0.51293 0.0
C777 C 0.75232 0.06521 0.54855 0.0
C778 C 0.75213 0.06336 0.51524 0.0
C779 C 0.76955 0.07396 0.46365 0.0
C780 C 0.78761 0.08544 0.44562 0.0
C781 C 0.77097 0.07327 0.49717 0.0
C782 C 0.80796 0.09479 0.46137 0.0
C783 C 0.80967 0.09389 0.49475 0.0
H784 H 0.93428 0.76537 0.55152 0.0
H785 H 0.87951 0.82021 0.56108 0.0
H786 H 0.8776 0.82443 0.50292 0.0
H787 H 0.88864 0.80971 0.44931 0.0
H788 H 0.94244 0.75389 0.4399 0.0
H789 H 0.94773 0.75306 0.49791 0.0
C790 C 0.92219 0.77851 0.54089 0.0
C791 C 0.90694 0.79233 0.56059 0.0
C792 C 0.92088 0.78054 0.5074 0.0
C793 C 0.89138 0.80927 0.54645 0.0
C794 C 0.89022 0.81165 0.51317 0.0
C795 C 0.90179 0.79764 0.45993 0.0
C796 C 0.91499 0.78177 0.44033 0.0
C797 C 0.90445 0.79696 0.49339 0.0
C798 C 0.93196 0.76622 0.45445 0.0
C799 C 0.93496 0.76568 0.48765 0.0
H800 H 0.75615 0.56375 0.55565 0.0
H801 H 0.69096 0.6052 0.56807 0.0
H802 H 0.68456 0.60549 0.51021 0.0
H803 H 0.69928 0.5969 0.45581 0.0
H804 H 0.76514 0.55653 0.44339 0.0
H805 H 0.76934 0.5527 0.50136 0.0
C806 C 0.74037 0.57257 0.54571 0.0
C807 C 0.72414 0.58455 0.56615 0.0
C808 C 0.73699 0.57299 0.51234 0.0
C809 C 0.70379 0.59591 0.55288 0.0
C810 C 0.70014 0.59613 0.51977 0.0
C811 C 0.71437 0.58698 0.46579 0.0
C812 C 0.73194 0.57714 0.44529 0.0
C813 C 0.71689 0.58518 0.49922 0.0
C814 C 0.7514 0.56436 0.45861 0.0
C815 C 0.75385 0.56221 0.49179 0.0
H816 H 0.43357 0.7535 0.462 0.0
H817 H 0.41179 0.67876 0.45831 0.0
H818 H 0.41158 0.67693 0.51675 0.0
H819 H 0.41401 0.69757 0.56872 0.0
H820 H 0.43359 0.77293 0.57231 0.0
H821 H 0.43846 0.77347 0.51418 0.0
C822 C 0.42914 0.73672 0.474 0.0
C823 C 0.42262 0.71632 0.45587 0.0
C824 C 0.4285 0.73596 0.50761 0.0
C825 C 0.4168 0.69473 0.47174 0.0
C826 C 0.41662 0.69369 0.50515 0.0
C827 C 0.41969 0.71401 0.55682 0.0
C828 C 0.42333 0.7352 0.57477 0.0
C829 C 0.4219 0.71434 0.52332 0.0
C830 C 0.43058 0.7564 0.55901 0.0
C831 C 0.43332 0.75674 0.52576 0.0
H832 H 0.24766 0.4375 0.44646 0.0
H833 H 0.31849 0.40582 0.43884 0.0
H834 H 0.32247 0.40609 0.4971 0.0
H835 H 0.30401 0.41132 0.55018 0.0
H836 H 0.23224 0.44087 0.55747 0.0
H837 H 0.23051 0.44563 0.49943 0.0
C838 C 0.26414 0.43105 0.45753 0.0
C839 C 0.28269 0.42152 0.43843 0.0
C840 C 0.26603 0.43066 0.49102 0.0
C841 C 0.3039 0.41315 0.45308 0.0
C842 C 0.30616 0.41323 0.48639 0.0
C843 C 0.28816 0.41915 0.53907 0.0
C844 C 0.26822 0.42556 0.55801 0.0
C845 C 0.28706 0.42132 0.50561 0.0
C846 C 0.24777 0.43564 0.54334 0.0
C847 C 0.24674 0.43834 0.51016 0.0
H848 H 0.59415 0.30048 0.56435 0.0
H849 H 0.55236 0.23507 0.57313 0.0
H850 H 0.55034 0.23148 0.51502 0.0
H851 H 0.56295 0.24514 0.46177 0.0
H852 H 0.6049 0.31035 0.45245 0.0
H853 H 0.60418 0.31589 0.51054 0.0
C854 C 0.58435 0.28562 0.55351 0.0
C855 C 0.57356 0.26799 0.57308 0.0
C856 C 0.58341 0.28353 0.51995 0.0
C857 C 0.5609 0.24886 0.55867 0.0
C858 C 0.55978 0.24674 0.5254 0.0
C859 C 0.57173 0.2607 0.47242 0.0
C860 C 0.5841 0.2772 0.45284 0.0
C861 C 0.57136 0.26369 0.50582 0.0
C862 C 0.59528 0.29734 0.46699 0.0
C863 C 0.59494 0.30049 0.50023 0.0
H864 H 0.6946 0.40241 0.95331 0.0
H865 H 0.76608 0.43285 0.94703 0.0
H866 H 0.76772 0.43672 0.00511 0.0
H867 H 0.75027 0.42871 0.05785 0.0
H868 H 0.67916 0.39767 0.06498 0.0
H869 H 0.67584 0.39705 0.00654 0.0
C870 C 0.71041 0.41014 0.96466 0.0
C871 C 0.73025 0.41717 0.94582 0.0
C872 C 0.71135 0.41213 0.99826 0.0
C873 C 0.75059 0.42719 0.96091 0.0
C874 C 0.75158 0.42939 0.99417 0.0
C875 C 0.73391 0.42208 0.04665 0.0
C876 C 0.71505 0.41312 0.06575 0.0
C877 C 0.73227 0.42151 0.01311 0.0
C878 C 0.69396 0.40466 0.05083 0.0
C879 C 0.69209 0.40421 0.0174 0.0
H880 H 0.59436 0.69316 0.05594 0.0
H881 H 0.5564 0.76099 0.06263 0.0
H882 H 0.55316 0.76275 1.00442 0.0
H883 H 0.56467 0.74718 0.95162 0.0
H884 H 0.60359 0.67995 0.94454 0.0
H885 H 0.60267 0.67568 1.00279 0.0
C886 C 0.58502 0.70812 0.04467 0.0
C887 C 0.5758 0.72701 0.0636 0.0
C888 C 0.58357 0.70923 0.01107 0.0
C889 C 0.56376 0.74627 0.04863 0.0
C890 C 0.56196 0.74734 0.01531 0.0
C891 C 0.57265 0.73141 0.96278 0.0
C892 C 0.58436 0.71402 0.94378 0.0
C893 C 0.57236 0.72925 0.99628 0.0
C894 C 0.59453 0.69365 0.95862 0.0
C895 C 0.59408 0.69123 0.99195 0.0
H896 H 0.2482 0.56969 0.05328 0.0
H897 H 0.31819 0.6034 0.05928 0.0
H898 H 0.32178 0.60237 1.00097 0.0
H899 H 0.30345 0.59514 0.94824 0.0
H900 H 0.23249 0.5635 0.94242 0.0
H901 H 0.23093 0.56028 1.00069 0.0
C902 C 0.26438 0.5765 0.04184 0.0
C903 C 0.28286 0.5867 0.06051 0.0
C904 C 0.26607 0.57637 0.00833 0.0
C905 C 0.30368 0.59553 0.04539 0.0
C906 C 0.30572 0.595 0.01206 0.0
C907 C 0.2878 0.58724 0.95973 0.0
C908 C 0.26807 0.57967 0.94111 0.0
C909 C 0.28679 0.58595 0.99327 0.0
C910 C 0.24786 0.56955 0.95628 0.0
C911 C 0.24693 0.56774 0.98959 0.0
H912 H 0.43042 0.24905 0.95398 0.0
H913 H 0.39355 0.31753 0.9487 0.0
H914 H 0.39737 0.32253 0.00653 0.0
H915 H 0.40727 0.30539 0.05911 0.0
H916 H 0.44421 0.23695 0.06454 0.0
H917 H 0.44465 0.23419 0.0062 0.0
C918 C 0.42353 0.2652 0.96546 0.0
C919 C 0.41145 0.28273 0.94718 0.0
C920 C 0.42572 0.26794 0.99878 0.0
C921 C 0.40282 0.3037 0.96229 0.0
C922 C 0.40493 0.30655 0.99538 0.0
C923 C 0.4158 0.29009 0.04749 0.0
C924 C 0.42545 0.27129 0.0661 0.0
C925 C 0.41577 0.28849 0.01395 0.0
C926 C 0.4366 0.25165 0.05075 0.0
C927 C 0.43673 0.24998 0.01738 0.0
H928 H 0.214 0.02987 0.23668 0.0
H929 H 0.2875 0.01851 0.20636 0.0
H930 H 0.29074 0.98365 0.24184 0.0
H931 H 0.27261 0.95613 0.28095 0.0
H932 H 0.19918 0.96735 0.31157 0.0
H933 H 0.19606 0.00269 0.27674 0.0
C934 C 0.23069 0.0197 0.23779 0.0
C935 C 0.25044 0.02667 0.21881 0.0
C936 C 0.23249 -0.00023 0.25843 0.0
C937 C 0.27201 0.01347 0.22066 0.0
C938 C 0.2739 0.99356 0.24099 0.0
C939 C 0.25597 0.9664 0.28017 0.0
C940 C 0.23616 0.95916 0.29882 0.0
C941 C 0.25426 0.98655 0.25995 0.0
C942 C 0.21471 0.9726 0.2975 0.0
C943 C 0.21289 0.99275 0.27751 0.0
H944 H 0.97148 0.26979 0.23118 0.0
H945 H 0.98349 0.20123 0.18463 0.0
H946 H 0.01912 0.19441 0.21772 0.0
H947 H 0.04607 0.20728 0.26099 0.0
H948 H 0.03418 0.27573 0.30779 0.0
H949 H -0.00085 0.28318 0.27362 0.0
C950 C 0.98205 0.25348 0.22807 0.0
C951 C 0.97489 0.23605 0.2055 0.0
C952 C 0.00235 0.24954 0.24743 0.0
C953 C 0.98866 0.21494 0.20183 0.0
C954 C 0.00898 0.21097 0.22082 0.0
C955 C 0.03577 0.2238 0.26376 0.0
C956 C 0.04257 0.24086 0.28698 0.0
C957 C 0.01581 0.22801 0.24394 0.0
C958 C 0.02921 0.26227 0.29014 0.0
C959 C 0.00924 0.26657 0.27058 0.0
H960 H 0.73535 0.03992 0.28563 0.0
H961 H 0.8104 0.02831 0.30828 0.0
H962 H 0.81166 0.994 0.27166 0.0
H963 H 0.79193 0.96816 0.23203 0.0
H964 H 0.71678 0.97897 0.20966 0.0
H965 H 0.71508 0.01288 0.24726 0.0
C966 C 0.75191 0.02974 0.28274 0.0
C967 C 0.77276 0.03666 0.29957 0.0
C968 C 0.75255 0.01008 0.2615 0.0
C969 C 0.79409 0.02333 0.29561 0.0
C970 C 0.79487 0.00377 0.27458 0.0
C971 C 0.77519 0.97799 0.2353 0.0
C972 C 0.75457 0.97127 0.21793 0.0
C973 C 0.77431 0.99718 0.25714 0.0
C974 C 0.73292 0.98392 0.2227 0.0
C975 C 0.73194 0.00326 0.2442 0.0
H976 H 0.02528 0.7954 0.22115 0.0
H977 H 0.02103 0.71862 0.20452 0.0
H978 H 0.98537 0.71611 0.23874 0.0
H979 H 0.95616 0.73559 0.2749 0.0
H980 H 0.96121 0.81227 0.29222 0.0
H981 H 0.99583 0.81491 0.25642 0.0
C982 C 0.0164 0.77816 0.22476 0.0
C983 C 0.02573 0.75725 0.21029 0.0
C984 C 0.99618 0.77678 0.24486 0.0
C985 C 0.01416 0.735 0.21539 0.0
C986 C 0.99382 0.73353 0.23503 0.0
C987 C 0.96487 0.75285 0.27084 0.0
C988 C 0.95619 0.77367 0.2863 0.0
C989 C 0.98483 0.75426 0.2502 0.0
C990 C 0.96759 0.79594 0.28071 0.0
C991 C 0.98736 0.7975 0.26017 0.0
H992 H 0.75937 0.99378 0.81849 0.0
H993 H 0.73509 0.94431 0.74543 0.0
H994 H 0.73356 0.97713 0.70658 0.0
H995 H 0.74102 0.01951 0.69261 0.0
H996 H 0.76383 0.06948 0.76585 0.0
H997 H 0.76389 0.03696 0.8054 0.0
C998 C 0.7536 0.99027 0.79412 0.0
C999 C 0.74753 0.96666 0.78478 0.0
C1000 C 0.75255 0.0093 0.77191 0.0
C1001 C 0.73987 0.96235 0.75321 0.0
C1002 C 0.73905 0.98109 0.73093 0.0
C1003 C 0.74584 0.02328 0.71728 0.0
C1004 C 0.75257 0.04677 0.72628 0.0
C1005 C 0.74564 0.00457 0.73991 0.0
C1006 C 0.75856 0.05151 0.75837 0.0
C1007 C 0.75868 0.03291 0.78096 0.0
H1008 H 0.95754 0.73809 0.72953 0.0
H1009 H 0.97009 0.81196 0.70127 0.0
H1010 H 0.00367 0.81477 0.73894 0.0
H1011 H 0.02952 0.79624 0.78002 0.0
H1012 H 0.01789 0.72195 0.80682 0.0
H1013 H 0.98376 0.71938 0.76994 0.0
C1014 C 0.9677 0.75476 0.73152 0.0
C1015 C 0.96135 0.77477 0.7126 0.0
C1016 C 0.98702 0.75625 0.7532 0.0
C1017 C 0.97468 0.79626 0.71546 0.0
C1018 C 0.99382 0.79792 0.73711 0.0
C1019 C 0.01935 0.77958 0.77798 0.0
C1020 C 0.02606 0.75938 0.79627 0.0
C1021 C 8e-05 0.77807 0.7562 0.0
C1022 C 0.01299 0.73778 0.79306 0.0
C1023 C 0.99353 0.73627 0.77191 0.0
H1024 H 0.1926 0.96393 0.73358 0.0
H1025 H 0.2639 0.97752 0.69646 0.0
H1026 H 0.26795 0.01256 0.7316 0.0
H1027 H 0.25165 0.03885 0.77365 0.0
H1028 H 0.18065 0.02506 0.81162 0.0
H1029 H 0.17617 0.99048 0.77565 0.0
C1030 C 0.20892 0.97472 0.73297 0.0
C1031 C 0.22788 0.9682 0.71233 0.0
C1032 C 0.21129 0.99464 0.75366 0.0
C1033 C 0.24902 0.98219 0.71207 0.0
C1034 C 0.25139 0.00218 0.73224 0.0
C1035 C 0.23523 0.02822 0.77416 0.0
C1036 C 0.21655 0.03446 0.79538 0.0
C1037 C 0.23274 0.00844 0.75333 0.0
C1038 C 0.19534 0.02057 0.79562 0.0
C1039 C 0.19273 0.00085 0.77496 0.0
H1040 H 0.96066 0.26268 0.77127 0.0
H1041 H 0.97676 0.19169 0.80804 0.0
H1042 H 0.01015 0.18783 0.7702 0.0
H1043 H 0.03459 0.20457 0.72639 0.0
H1044 H 0.01907 0.27599 0.69073 0.0
H1045 H 0.98538 0.27961 0.72811 0.0
C1046 C 0.97158 0.24643 0.77115 0.0
C1047 C 0.9663 0.22753 0.79245 0.0
C1048 C 0.99065 0.2443 0.74927 0.0
C1049 C 0.98055 0.20656 0.79197 0.0
C1050 C -0.00045 0.20428 0.77023 0.0
C1051 C 0.02365 0.22081 0.72661 0.0
C1052 C 0.02912 0.2399 0.7057 0.0
C1053 C 0.00465 0.22297 0.74863 0.0
C1054 C 0.0151 0.26101 0.70653 0.0
C1055 C 0.99591 0.26313 0.72797 0.0
H1056 H 0.71258 0.53676 0.73611 0.0
H1057 H 0.78491 0.52389 0.70241 0.0
H1058 H 0.78841 0.48899 0.73817 0.0
H1059 H 0.77052 0.46188 0.77868 0.0
H1060 H 0.69854 0.47608 0.81315 0.0
H1061 H 0.69542 0.5109 0.77773 0.0
C1062 C 0.72907 0.52624 0.73646 0.0
C1063 C 0.74837 0.53269 0.71643 0.0
C1064 C 0.73108 0.50657 0.75743 0.0
C1065 C 0.76977 0.51916 0.71752 0.0
C1066 C 0.77178 0.49926 0.738 0.0
C1067 C 0.75424 0.47273 0.7786 0.0
C1068 C 0.73478 0.46636 0.79849 0.0
C1069 C 0.75253 0.49279 0.75808 0.0
C1070 C 0.7138 0.48058 0.79811 0.0
C1071 C 0.71194 0.50046 0.77776 0.0
H1072 H 0.51415 0.74306 0.82268 0.0
H1073 H 0.56458 0.73966 0.74427 0.0
H1074 H 0.53142 0.74188 0.70585 0.0
H1075 H 0.48788 0.74306 0.69456 0.0
H1076 H 0.43761 0.74946 0.77281 0.0
H1077 H 0.47082 0.74801 0.81126 0.0
C1078 C 0.51781 0.74293 0.79717 0.0
C1079 C 0.54166 0.74098 0.78625 0.0
C1080 C 0.4987 0.74475 0.77522 0.0
C1081 C 0.5463 0.74115 0.75319 0.0
C1082 C 0.52737 0.74236 0.73122 0.0
C1083 C 0.48428 0.74433 0.72003 0.0
C1084 C 0.46042 0.7462 0.73091 0.0
C1085 C 0.50348 0.74392 0.74195 0.0
C1086 C 0.4559 0.74809 0.76391 0.0
C1087 C 0.47485 0.74714 0.7859 0.0
H1088 H 0.255 0.45113 0.7499 0.0
H1089 H 0.26399 0.49313 0.6639 0.0
H1090 H 0.26269 0.53051 0.69526 0.0
H1091 H 0.26037 0.55104 0.74736 0.0
H1092 H 0.25614 0.50887 0.83386 0.0
H1093 H 0.25416 0.47163 0.80223 0.0
C1094 C 0.25647 0.46852 0.73812 0.0
C1095 C 0.25934 0.46957 0.70476 0.0
C1096 C 0.25664 0.48978 0.7564 0.0
C1097 C 0.26172 0.49204 0.68962 0.0
C1098 C 0.26097 0.51335 0.70751 0.0
C1099 C 0.25882 0.53367 0.75918 0.0
C1100 C 0.25815 0.53254 0.79273 0.0
C1101 C 0.25862 0.51241 0.74092 0.0
C1102 C 0.25663 0.51003 0.80798 0.0
C1103 C 0.2555 0.48881 0.78994 0.0
H1104 H 0.45509 0.29778 0.78484 0.0
H1105 H 0.45677 0.2216 0.80628 0.0
H1106 H 0.4911 0.21631 0.7702 0.0
H1107 H 0.52078 0.23346 0.73296 0.0
H1108 H 0.51846 0.30953 0.71076 0.0
H1109 H 0.48398 0.31469 0.74646 0.0
C1110 C 0.46307 0.28005 0.78174 0.0
C1111 C 0.45359 0.26014 0.79836 0.0
C1112 C 0.4825 0.2771 0.76063 0.0
C1113 C 0.46386 0.23722 0.79382 0.0
C1114 C 0.48342 0.23417 0.77315 0.0
C1115 C 0.5126 0.25113 0.73575 0.0
C1116 C 0.52214 0.27108 0.71926 0.0
C1117 C 0.49286 0.25398 0.75641 0.0
C1118 C 0.51139 0.29387 0.72312 0.0
C1119 C 0.49175 0.29686 0.74364 0.0
H1120 H 0.23416 0.53781 0.22591 0.0
H1121 H 0.30857 0.52918 0.19773 0.0
H1122 H 0.31231 0.494 0.23216 0.0
H1123 H 0.29503 0.46621 0.27088 0.0
H1124 H 0.22061 0.4734 0.2992 0.0
H1125 H 0.21628 0.50869 0.26418 0.0
C1126 C 0.25111 0.52811 0.22721 0.0
C1127 C 0.27106 0.53613 0.20933 0.0
C1128 C 0.25319 0.50777 0.2472 0.0
C1129 C 0.29293 0.52341 0.21123 0.0
C1130 C 0.29513 0.5033 0.23098 0.0
C1131 C 0.27785 0.47551 0.2695 0.0
C1132 C 0.25822 0.46736 0.28773 0.0
C1133 C 0.27548 0.49546 0.24922 0.0
C1134 C 0.23601 0.47943 0.28542 0.0
C1135 C 0.23354 0.49956 0.2654 0.0
H1136 H 0.53033 0.29379 0.29385 0.0
H1137 H 0.52416 0.2183 0.31785 0.0
H1138 H 0.49025 0.21406 0.28082 0.0
H1139 H 0.46342 0.23153 0.23992 0.0
H1140 H 0.4708 0.30677 0.21487 0.0
H1141 H 0.50326 0.31132 0.25378 0.0
C1142 C 0.52135 0.27648 0.29128 0.0
C1143 C 0.52964 0.25642 0.30863 0.0
C1144 C 0.50228 0.27406 0.26944 0.0
C1145 C 0.51804 0.23404 0.30479 0.0
C1146 C 0.49874 0.23158 0.28352 0.0
C1147 C 0.47217 0.24889 0.24298 0.0
C1148 C 0.46479 0.26873 0.22443 0.0
C1149 C 0.49092 0.25139 0.26538 0.0
C1150 C 0.47622 0.29116 0.22873 0.0
C1151 C 0.49475 0.29382 0.25105 0.0
H1152 H 0.76198 0.53316 0.27701 0.0
H1153 H 0.68733 0.52792 0.30516 0.0
H1154 H 0.68154 0.49412 0.26826 0.0
H1155 H 0.69779 0.46586 0.22819 0.0
H1156 H 0.77275 0.47041 0.20139 0.0
H1157 H 0.77825 0.50486 0.23724 0.0
C1158 C 0.74447 0.52455 0.27517 0.0
C1159 C 0.72514 0.53299 0.29386 0.0
C1160 C 0.74127 0.50515 0.25392 0.0
C1161 C 0.70254 0.52169 0.29115 0.0
C1162 C 0.69918 0.50243 0.26995 0.0
C1163 C 0.71525 0.47458 0.22996 0.0
C1164 C 0.73479 0.46573 0.21202 0.0
C1165 C 0.7184 0.49405 0.25115 0.0
C1166 C 0.75741 0.47696 0.21489 0.0
C1167 C 0.76059 0.49659 0.23546 0.0
H1168 H 0.46893 0.76158 0.28719 0.0
H1169 H 0.47933 0.68672 0.31235 0.0
H1170 H 0.51201 0.68347 0.27363 0.0
H1171 H 0.53735 0.70157 0.23209 0.0
H1172 H 0.52838 0.77672 0.20788 0.0
H1173 H 0.49533 0.78014 0.24646 0.0
C1174 C 0.47849 0.74463 0.28433 0.0
C1175 C 0.4717 0.72444 0.30263 0.0
C1176 C 0.49736 0.74286 0.26195 0.0
C1177 C 0.48423 0.70257 0.29864 0.0
C1178 C 0.50287 0.70065 0.27639 0.0
C1179 C 0.52803 0.71865 0.2351 0.0
C1180 C 0.5351 0.73879 0.21699 0.0
C1181 C 0.50946 0.7206 0.25775 0.0
C1182 C 0.52316 0.76092 0.22148 0.0
C1183 C 0.50432 0.7629 0.24359 0.0
H1184 H 0.17336 0.11343 0.21995 0.0
H1185 H 0.23349 0.16288 0.21918 0.0
H1186 H 0.21134 0.19086 0.25327 0.0
H1187 H 0.17514 0.20135 0.2835 0.0
H1188 H 0.1152 0.15178 0.28645 0.0
H1189 H 0.13702 0.12373 0.25156 0.0
C1190 C 0.1815 0.13039 0.22716 0.0
C1191 C 0.20497 0.13613 0.21696 0.0
C1192 C 0.16877 0.1463 0.2473 0.0
C1193 C 0.21544 0.15804 0.22673 0.0
C1194 C 0.2028 0.17406 0.24624 0.0
C1195 C 0.16685 0.18438 0.27657 0.0
C1196 C 0.1436 0.17865 0.28749 0.0
C1197 C 0.17952 0.16836 0.25674 0.0
C1198 C 0.13314 0.15656 0.27842 0.0
C1199 C 0.14557 0.14056 0.25839 0.0
H1200 H 0.85242 0.17688 0.18989 0.0
H1201 H 0.89292 0.20963 0.26667 0.0
H1202 H 0.87173 0.18467 0.30574 0.0
H1203 H 0.84046 0.15479 0.31836 0.0
H1204 H 0.79829 0.1237 0.24197 0.0
H1205 H 0.82135 0.14663 0.20252 0.0
C1206 C 0.8567 0.17837 0.21516 0.0
C1207 C 0.87416 0.19503 0.22542 0.0
C1208 C 0.84408 0.16433 0.23757 0.0
C1209 C 0.87944 0.19697 0.25822 0.0
C1210 C 0.86736 0.18272 0.28058 0.0
C1211 C 0.83647 0.15292 0.29306 0.0
C1212 C 0.81774 0.13762 0.28306 0.0
C1213 C 0.84946 0.16653 0.27057 0.0
C1214 C 0.8126 0.13547 0.25024 0.0
C1215 C 0.82577 0.14856 0.22766 0.0
H1216 H 0.87241 0.84328 0.28293 0.0
H1217 H 0.82197 0.78407 0.28637 0.0
H1218 H 0.79454 0.80576 0.25088 0.0
H1219 H 0.78493 0.84135 0.21875 0.0
H1220 H 0.83621 0.8996 0.21155 0.0
H1221 H 0.86346 0.87847 0.24829 0.0
C1222 C 0.85532 0.83531 0.276 0.0
C1223 C 0.84902 0.81229 0.28739 0.0
C1224 C 0.83995 0.84759 0.25473 0.0
C1225 C 0.82711 0.80182 0.27788 0.0
C1226 C 0.81145 0.81418 0.25759 0.0
C1227 C 0.80211 0.84938 0.22516 0.0
C1228 C 0.80857 0.87198 0.21264 0.0
C1229 C 0.81772 0.83701 0.2458 0.0
C1230 C 0.83094 0.88212 0.22084 0.0
C1231 C 0.84644 0.87012 0.24195 0.0
H1232 H 0.17303 0.83695 0.32203 0.0
H1233 H 0.20876 0.87263 0.24347 0.0
H1234 H 0.18316 0.85137 0.20528 0.0
H1235 H 0.15122 0.8219 0.19387 0.0
H1236 H 0.11657 0.78469 0.27196 0.0
H1237 H 0.14097 0.80724 0.3105 0.0
C1238 C 0.1751 0.84011 0.29656 0.0
C1239 C 0.19277 0.85634 0.28564 0.0
C1240 C 0.16051 0.82751 0.27458 0.0
C1241 C 0.19536 0.86016 0.25253 0.0
C1242 C 0.1807 0.84803 0.23063 0.0
C1243 C 0.14893 0.81883 0.21933 0.0
C1244 C 0.1321 0.80169 0.23003 0.0
C1245 C 0.16331 0.83156 0.24134 0.0
C1246 C 0.12945 0.79777 0.2631 0.0
C1247 C 0.1434 0.81066 0.28517 0.0
H1248 H 0.87756 0.83786 0.73179 0.0
H1249 H 0.81832 0.8022 0.68424 0.0
H1250 H 0.7896 0.82449 0.71721 0.0
H1251 H 0.78133 0.85298 0.76063 0.0
H1252 H 0.84023 0.88899 0.80835 0.0
H1253 H 0.86913 0.86765 0.77422 0.0
C1254 C 0.85836 0.83511 0.72851 0.0
C1255 C 0.85007 0.81836 0.70567 0.0
C1256 C 0.84193 0.84791 0.74769 0.0
C1257 C 0.82515 0.81497 0.70167 0.0
C1258 C 0.80872 0.82766 0.72056 0.0
C1259 C 0.8005 0.85619 0.76356 0.0
C1260 C 0.80866 0.87241 0.78709 0.0
C1261 C 0.81691 0.84397 0.74384 0.0
C1262 C 0.83352 0.87653 0.79043 0.0
C1263 C 0.85003 0.86434 0.77094 0.0
H1264 H 0.18758 0.87249 0.76126 0.0
H1265 H 0.16207 0.84217 0.6723 0.0
H1266 H 0.13536 0.81497 0.70163 0.0
H1267 H 0.12009 0.799 0.75255 0.0
H1268 H 0.14453 0.83005 0.84156 0.0
H1269 H 0.17074 0.85784 0.81224 0.0
C1270 C 0.17612 0.85996 0.74833 0.0
C1271 C 0.1769 0.85924 0.71468 0.0
C1272 C 0.16064 0.84451 0.76534 0.0
C1273 C 0.1618 0.84307 0.69821 0.0
C1274 C 0.14656 0.82748 0.71495 0.0
C1275 C 0.1311 0.81191 0.76552 0.0
C1276 C 0.13049 0.81238 0.79917 0.0
C1277 C 0.14596 0.82792 0.74852 0.0
C1278 C 0.14468 0.82934 0.81565 0.0
C1279 C 0.15971 0.84519 0.79891 0.0
H1280 H 0.11932 0.20031 0.75265 0.0
H1281 H 0.15015 0.17144 0.6659 0.0
H1282 H 0.17507 0.14375 0.69727 0.0
H1283 H 0.18878 0.12849 0.74943 0.0
H1284 H 0.15677 0.15624 0.83608 0.0
H1285 H 0.1315 0.18356 0.80468 0.0
C1286 C 0.13148 0.18792 0.74064 0.0
C1287 C 0.13306 0.188 0.70707 0.0
C1288 C 0.1455 0.17188 0.7588 0.0
C1289 C 0.14865 0.1717 0.69175 0.0
C1290 C 0.16292 0.15591 0.70966 0.0
C1291 C 0.17621 0.14048 0.76141 0.0
C1292 C 0.17472 0.14048 0.795 0.0
C1293 C 0.1616 0.15595 0.7432 0.0
C1294 C 0.15822 0.15592 0.81023 0.0
C1295 C 0.14382 0.17158 0.7923 0.0
H1296 H 0.85993 0.20726 0.74925 0.0
H1297 H 0.87371 0.14885 0.81504 0.0
H1298 H 0.85224 0.12085 0.77976 0.0
H1299 H 0.82711 0.11373 0.73199 0.0
H1300 H 0.81189 0.17288 0.66795 0.0
H1301 H 0.83676 0.19977 0.70047 0.0
C1302 C 0.85835 0.18838 0.75581 0.0
C1303 C 0.8682 0.18016 0.7848 0.0
C1304 C 0.84582 0.17251 0.73563 0.0
C1305 C 0.86612 0.15563 0.79291 0.0
C1306 C 0.85389 0.13962 0.77273 0.0
C1307 C 0.82966 0.13239 0.72487 0.0
C1308 C 0.81776 0.14136 0.69766 0.0
C1309 C 0.84338 0.14794 0.74424 0.0
C1310 C 0.8209 0.16562 0.68885 0.0
C1311 C 0.83501 0.18102 0.70749 0.0
H1312 H 0.67514 0.61269 0.7356 0.0
H1313 H 0.70841 0.67418 0.68999 0.0
H1314 H 0.68444 0.70147 0.72292 0.0
H1315 H 0.6553 0.70797 0.7658 0.0
H1316 H 0.62139 0.64706 0.81172 0.0
H1317 H 0.64435 0.61937 0.77748 0.0
C1318 C 0.67698 0.63207 0.73273 0.0
C1319 C 0.69359 0.6414 0.71044 0.0
C1320 C 0.66317 0.64772 0.75189 0.0
C1321 C 0.69578 0.66653 0.70695 0.0
C1322 C 0.68212 0.68216 0.72584 0.0
C1323 C 0.65289 0.68863 0.76836 0.0
C1324 C 0.63683 0.67955 0.79143 0.0
C1325 C 0.666 0.67296 0.7486 0.0
C1326 C 0.63373 0.65446 0.7942 0.0
C1327 C 0.64685 0.63866 0.77464 0.0
H1328 H 0.3099 0.61935 0.74888 0.0
H1329 H 0.34166 0.64054 0.83893 0.0
H1330 H 0.37049 0.66628 0.81075 0.0
H1331 H 0.38381 0.68579 0.76103 0.0
H1332 H 0.35197 0.6647 0.67099 0.0
H1333 H 0.32617 0.63563 0.69866 0.0
C1334 C 0.32334 0.62938 0.7623 0.0
C1335 C 0.32349 0.62832 0.79593 0.0
C1336 C 0.33971 0.64423 0.74597 0.0
C1337 C 0.34114 0.64116 0.81303 0.0
C1338 C 0.35755 0.65594 0.79694 0.0
C1339 C 0.37144 0.67459 0.74743 0.0
C1340 C 0.36955 0.67755 0.7141 0.0
C1341 C 0.35657 0.65808 0.7635 0.0
C1342 C 0.35367 0.66278 0.6967 0.0
C1343 C 0.33885 0.64625 0.71251 0.0
H1344 H 0.36845 0.30566 0.75081 0.0
H1345 H 0.34206 0.34046 0.83636 0.0
H1346 H 0.32009 0.36979 0.80395 0.0
H1347 H 0.30656 0.38406 0.75153 0.0
H1348 H 0.33324 0.35002 0.66566 0.0
H1349 H 0.3573 0.32209 0.69795 0.0
C1350 C 0.35794 0.31972 0.76229 0.0
C1351 C 0.35661 0.32076 0.79588 0.0
C1352 C 0.34552 0.33667 0.74349 0.0
C1353 C 0.34324 0.33924 0.81052 0.0
C1354 C 0.33068 0.35601 0.79202 0.0
C1355 C 0.31785 0.37069 0.73987 0.0
C1356 C 0.31802 0.36895 0.70632 0.0
C1357 C 0.33146 0.3547 0.75853 0.0
C1358 C 0.33286 0.35171 0.69148 0.0
C1359 C 0.34648 0.33565 0.70993 0.0
H1360 H 0.64434 0.33031 0.69567 0.0
H1361 H 0.61107 0.29392 0.77552 0.0
H1362 H 0.63452 0.31831 0.81294 0.0
H1363 H 0.66587 0.34874 0.82309 0.0
H1364 H 0.70093 0.38344 0.74331 0.0
H1365 H 0.67538 0.36118 0.70586 0.0
C1366 C 0.64213 0.32789 0.72126 0.0
C1367 C 0.62604 0.31035 0.7328 0.0
C1368 C 0.65605 0.34165 0.74269 0.0
C1369 C 0.62344 0.30725 0.76603 0.0
C1370 C 0.63682 0.3212 0.78747 0.0
C1371 C 0.66772 0.35157 0.79752 0.0
C1372 C 0.68521 0.36769 0.78596 0.0
C1373 C 0.65337 0.33828 0.77609 0.0
C1374 C 0.68761 0.37104 0.75277 0.0
C1375 C 0.67303 0.35832 0.73133 0.0
H1376 H 0.3816 0.33667 0.21888 0.0
H1377 H 0.3298 0.27878 0.21291 0.0
H1378 H 0.30159 0.30166 0.24606 0.0
H1379 H 0.29207 0.33761 0.27776 0.0
H1380 H 0.34492 0.39422 0.2878 0.0
H1381 H 0.37244 0.37237 0.25223 0.0
C1382 C 0.36404 0.32925 0.22468 0.0
C1383 C 0.3576 0.30625 0.21338 0.0
C1384 C 0.34825 0.34217 0.24464 0.0
C1385 C 0.33504 0.29651 0.22141 0.0
C1386 C 0.31894 0.30955 0.24035 0.0
C1387 C 0.3096 0.34516 0.27208 0.0
C1388 C 0.31649 0.36746 0.28519 0.0
C1389 C 0.32543 0.3323 0.25228 0.0
C1390 C 0.33932 0.37699 0.27801 0.0
C1391 C 0.35499 0.36456 0.25762 0.0
H1392 H 0.64905 0.32701 0.32377 0.0
H1393 H 0.61433 0.28742 0.24767 0.0
H1394 H 0.63529 0.31194 0.20782 0.0
H1395 H 0.66458 0.34383 0.19453 0.0
H1396 H 0.70105 0.38169 0.27072 0.0
H1397 H 0.67829 0.35881 0.31052 0.0
C1398 C 0.646 0.32386 0.29846 0.0
C1399 C 0.63017 0.30546 0.28867 0.0
C1400 C 0.65846 0.33772 0.27567 0.0
C1401 C 0.6265 0.30144 0.2558 0.0
C1402 C 0.63845 0.31547 0.23299 0.0
C1403 C 0.66736 0.34717 0.21985 0.0
C1404 C 0.6844 0.36443 0.2297 0.0
C1405 C 0.65461 0.33355 0.24263 0.0
C1406 C 0.68806 0.36843 0.26257 0.0
C1407 C 0.67506 0.35537 0.28534 0.0
H1408 H 0.69221 0.62308 0.25239 0.0
H1409 H 0.67182 0.65918 0.3398 0.0
H1410 H 0.64542 0.68632 0.30963 0.0
H1411 H 0.62908 0.70047 0.25812 0.0
H1412 H 0.64806 0.66303 0.17112 0.0
H1413 H 0.67403 0.63563 0.2014 0.0
C1414 C 0.68194 0.63687 0.26482 0.0
C1415 C 0.68408 0.63929 0.29821 0.0
C1416 C 0.66659 0.65214 0.24739 0.0
C1417 C 0.67046 0.657 0.3141 0.0
C1418 C 0.65542 0.67254 0.29686 0.0
C1419 C 0.63887 0.68627 0.24584 0.0
C1420 C 0.63683 0.68387 0.21243 0.0
C1421 C 0.6535 0.67039 0.26347 0.0
C1422 C 0.64936 0.66523 0.19683 0.0
C1423 C 0.66425 0.64961 0.21411 0.0
H1424 H 0.33897 0.61583 0.22719 0.0
H1425 H 0.28726 0.67318 0.21469 0.0
H1426 H 0.3101 0.69893 0.25132 0.0
H1427 H 0.34449 0.70502 0.28705 0.0
H1428 H 0.39434 0.64674 0.30412 0.0
H1429 H 0.37246 0.62124 0.26579 0.0
C1430 C 0.33289 0.63403 0.23245 0.0
C1431 C 0.31173 0.64283 0.21817 0.0
C1432 C 0.34564 0.64839 0.25444 0.0
C1433 C 0.3036 0.66618 0.22547 0.0
C1434 C 0.31661 0.68086 0.24637 0.0
C1435 C 0.35053 0.68672 0.28235 0.0
C1436 C 0.371 0.67773 0.29804 0.0
C1437 C 0.33759 0.67213 0.26102 0.0
C1438 C 0.37853 0.65393 0.29225 0.0
C1439 C 0.36611 0.63944 0.27029 0.0
loop_
_geom_bond_atom_site_label_1
_geom_bond_atom_site_label_2
_geom_bond_distance
_geom_bond_site_symmetry_2
_ccdc_geom_bond_type
In0 O1 2.294 . S
In0 O2 2.326 . S
In0 O6 2.266 . S
In0 O7 2.326 . S
In0 O8 2.266 . S
In0 O9 2.326 . S
In0 O11 2.294 . S
In0 O12 2.326 . S
O1 In0 2.294 . S
O1 C10 1.240 . S
O2 In0 2.326 . S
O2 C10 1.252 . S
C3 O6 1.252 . S
C3 O7 1.260 . S
C4 O11 1.240 . S
C4 O12 1.252 . S
C5 O8 1.252 . S
C5 O9 1.260 . S
O6 In0 2.266 . S
O6 C3 1.252 . S
O7 In0 2.326 . S
O7 C3 1.260 . S
O8 In0 2.266 . S
O8 C5 1.252 . S
O9 In0 2.326 . S
O9 C5 1.260 . S
C10 O1 1.240 . S
C10 O2 1.252 . S
O11 In0 2.294 . S
O11 C4 1.240 . S
O12 In0 2.326 . S
O12 C4 1.252 . S
In13 O14 2.294 . S
In13 O15 2.326 . S
In13 O19 2.266 . S
In13 O20 2.326 . S
In13 O21 2.266 . S
In13 O22 2.326 . S
In13 O24 2.294 . S
In13 O25 2.326 . S
O14 In13 2.294 . S
O14 C23 1.240 . S
O15 In13 2.326 . S
O15 C23 1.252 . S
C16 O19 1.252 . S
C16 O20 1.260 . S
C17 O24 1.240 . S
C17 O25 1.252 . S
C18 O21 1.252 . S
C18 O22 1.260 . S
O19 In13 2.266 . S
O19 C16 1.252 . S
O20 In13 2.326 . S
O20 C16 1.260 . S
O21 In13 2.266 . S
O21 C18 1.252 . S
O22 In13 2.326 . S
O22 C18 1.260 . S
C23 O14 1.240 . S
C23 O15 1.252 . S
O24 In13 2.294 . S
O24 C17 1.240 . S
O25 In13 2.326 . S
O25 C17 1.252 . S
In26 O27 2.294 . S
In26 O28 2.326 . S
In26 O32 2.266 . S
In26 O33 2.326 . S
In26 O34 2.266 . S
In26 O35 2.326 . S
In26 O37 2.294 . S
In26 O38 2.326 . S
O27 In26 2.294 . S
O27 C36 1.240 . S
O28 In26 2.326 . S
O28 C36 1.252 . S
C29 O32 1.252 . S
C29 O33 1.260 . S
C30 O37 1.240 . S
C30 O38 1.252 . S
C31 O34 1.252 . S
C31 O35 1.260 . S
O32 In26 2.266 . S
O32 C29 1.252 . S
O33 In26 2.326 . S
O33 C29 1.260 . S
O34 In26 2.266 . S
O34 C31 1.252 . S
O35 In26 2.326 . S
O35 C31 1.260 . S
C36 O27 1.240 . S
C36 O28 1.252 . S
O37 In26 2.294 . S
O37 C30 1.240 . S
O38 In26 2.326 . S
O38 C30 1.252 . S
In39 O40 2.294 . S
In39 O41 2.326 . S
In39 O45 2.266 . S
In39 O46 2.326 . S
In39 O47 2.266 . S
In39 O48 2.326 . S
In39 O50 2.294 . S
In39 O51 2.326 . S
O40 In39 2.294 . S
O40 C49 1.240 . S
O41 In39 2.326 . S
O41 C49 1.252 . S
C42 O45 1.252 . S
C42 O46 1.260 . S
C43 O50 1.240 . S
C43 O51 1.252 . S
C44 O47 1.252 . S
C44 O48 1.260 . S
O45 In39 2.266 . S
O45 C42 1.252 . S
O46 In39 2.326 . S
O46 C42 1.260 . S
O47 In39 2.266 . S
O47 C44 1.252 . S
O48 In39 2.326 . S
O48 C44 1.260 . S
C49 O40 1.240 . S
C49 O41 1.252 . S
O50 In39 2.294 . S
O50 C43 1.240 . S
O51 In39 2.326 . S
O51 C43 1.252 . S
In52 O53 2.294 . S
In52 O54 2.326 . S
In52 O58 2.266 . S
In52 O59 2.326 . S
In52 O60 2.266 . S
In52 O61 2.326 . S
In52 O63 2.294 . S
In52 O64 2.326 . S
O53 In52 2.294 . S
O53 C62 1.240 . S
O54 In52 2.326 . S
O54 C62 1.252 . S
C55 O58 1.252 . S
C55 O59 1.260 . S
C56 O63 1.240 . S
C56 O64 1.252 . S
C57 O60 1.252 . S
C57 O61 1.260 . S
O58 In52 2.266 . S
O58 C55 1.252 . S
O59 In52 2.326 . S
O59 C55 1.260 . S
O60 In52 2.266 . S
O60 C57 1.252 . S
O61 In52 2.326 . S
O61 C57 1.260 . S
C62 O53 1.240 . S
C62 O54 1.252 . S
O63 In52 2.294 . S
O63 C56 1.240 . S
O64 In52 2.326 . S
O64 C56 1.252 . S
In65 O66 2.294 . S
In65 O67 2.326 . S
In65 O71 2.266 . S
In65 O72 2.326 . S
In65 O73 2.266 . S
In65 O74 2.326 . S
In65 O76 2.294 . S
In65 O77 2.326 . S
O66 In65 2.294 . S
O66 C75 1.240 . S
O67 In65 2.326 . S
O67 C75 1.252 . S
C68 O71 1.252 . S
C68 O72 1.260 . S
C69 O76 1.240 . S
C69 O77 1.252 . S
C70 O73 1.252 . S
C70 O74 1.260 . S
O71 In65 2.266 . S
O71 C68 1.252 . S
O72 In65 2.326 . S
O72 C68 1.260 . S
O73 In65 2.266 . S
O73 C70 1.252 . S
O74 In65 2.326 . S
O74 C70 1.260 . S
C75 O66 1.240 . S
C75 O67 1.252 . S
O76 In65 2.294 . S
O76 C69 1.240 . S
O77 In65 2.326 . S
O77 C69 1.252 . S
In78 O79 2.294 . S
In78 O80 2.326 . S
In78 O84 2.266 . S
In78 O85 2.326 . S
In78 O86 2.266 . S
In78 O87 2.326 . S
In78 O89 2.294 . S
In78 O90 2.326 . S
O79 In78 2.294 . S
O79 C88 1.240 . S
O80 In78 2.326 . S
O80 C88 1.252 . S
C81 O84 1.252 . S
C81 O85 1.260 . S
C82 O89 1.240 . S
C82 O90 1.252 . S
C83 O86 1.252 . S
C83 O87 1.260 . S
O84 In78 2.266 . S
O84 C81 1.252 . S
O85 In78 2.326 . S
O85 C81 1.260 . S
O86 In78 2.266 . S
O86 C83 1.252 . S
O87 In78 2.326 . S
O87 C83 1.260 . S
C88 O79 1.240 . S
C88 O80 1.252 . S
O89 In78 2.294 . S
O89 C82 1.240 . S
O90 In78 2.326 . S
O90 C82 1.252 . S
In91 O92 2.294 . S
In91 O93 2.326 . S
In91 O97 2.266 . S
In91 O98 2.326 . S
In91 O99 2.266 . S
In91 O100 2.326 . S
In91 O102 2.294 . S
In91 O103 2.326 . S
O92 In91 2.294 . S
O92 C101 1.240 . S
O93 In91 2.326 . S
O93 C101 1.252 . S
C94 O97 1.252 . S
C94 O98 1.260 . S
C95 O102 1.240 . S
C95 O103 1.252 . S
C96 O99 1.252 . S
C96 O100 1.260 . S
O97 In91 2.266 . S
O97 C94 1.252 . S
O98 In91 2.326 . S
O98 C94 1.260 . S
O99 In91 2.266 . S
O99 C96 1.252 . S
O100 In91 2.326 . S
O100 C96 1.260 . S
C101 O92 1.240 . S
C101 O93 1.252 . S
O102 In91 2.294 . S
O102 C95 1.240 . S
O103 In91 2.326 . S
O103 C95 1.252 . S
In104 O105 2.294 . S
In104 O106 2.326 . S
In104 O110 2.266 . S
In104 O111 2.326 . S
In104 O112 2.266 . S
In104 O113 2.326 . S
In104 O115 2.294 . S
In104 O116 2.326 . S
O105 In104 2.294 . S
O105 C114 1.240 . S
O106 In104 2.326 . S
O106 C114 1.252 . S
C107 O110 1.252 . S
C107 O111 1.260 . S
C108 O115 1.240 . S
C108 O116 1.252 . S
C109 O112 1.252 . S
C109 O113 1.260 . S
O110 In104 2.266 . S
O110 C107 1.252 . S
O111 In104 2.326 . S
O111 C107 1.260 . S
O112 In104 2.266 . S
O112 C109 1.252 . S
O113 In104 2.326 . S
O113 C109 1.260 . S
C114 O105 1.240 . S
C114 O106 1.252 . S
O115 In104 2.294 . S
O115 C108 1.240 . S
O116 In104 2.326 . S
O116 C108 1.252 . S
In117 O118 2.294 . S
In117 O119 2.326 . S
In117 O123 2.266 . S
In117 O124 2.326 . S
In117 O125 2.266 . S
In117 O126 2.326 . S
In117 O128 2.294 . S
In117 O129 2.326 . S
O118 In117 2.294 . S
O118 C127 1.240 . S
O119 In117 2.326 . S
O119 C127 1.252 . S
C120 O123 1.252 . S
C120 O124 1.260 . S
C121 O128 1.240 . S
C121 O129 1.252 . S
C122 O125 1.252 . S
C122 O126 1.260 . S
O123 In117 2.266 . S
O123 C120 1.252 . S
O124 In117 2.326 . S
O124 C120 1.260 . S
O125 In117 2.266 . S
O125 C122 1.252 . S
O126 In117 2.326 . S
O126 C122 1.260 . S
C127 O118 1.240 . S
C127 O119 1.252 . S
O128 In117 2.294 . S
O128 C121 1.240 . S
O129 In117 2.326 . S
O129 C121 1.252 . S
In130 O131 2.294 . S
In130 O132 2.326 . S
In130 O136 2.266 . S
In130 O137 2.326 . S
In130 O138 2.266 . S
In130 O139 2.326 . S
In130 O141 2.294 . S
In130 O142 2.326 . S
O131 In130 2.294 . S
O131 C140 1.240 . S
O132 In130 2.326 . S
O132 C140 1.252 . S
C133 O136 1.252 . S
C133 O137 1.260 . S
C134 O141 1.240 . S
C134 O142 1.252 . S
C135 O138 1.252 . S
C135 O139 1.260 . S
O136 In130 2.266 . S
O136 C133 1.252 . S
O137 In130 2.326 . S
O137 C133 1.260 . S
O138 In130 2.266 . S
O138 C135 1.252 . S
O139 In130 2.326 . S
O139 C135 1.260 . S
C140 O131 1.240 . S
C140 O132 1.252 . S
O141 In130 2.294 . S
O141 C134 1.240 . S
O142 In130 2.326 . S
O142 C134 1.252 . S
In143 O144 2.294 . S
In143 O145 2.326 . S
In143 O149 2.266 . S
In143 O150 2.326 . S
In143 O151 2.266 . S
In143 O152 2.326 . S
In143 O154 2.294 . S
In143 O155 2.326 . S
O144 In143 2.294 . S
O144 C153 1.240 . S
O145 In143 2.326 . S
O145 C153 1.252 . S
C146 O149 1.252 . S
C146 O150 1.260 . S
C147 O154 1.240 . S
C147 O155 1.252 . S
C148 O151 1.252 . S
C148 O152 1.260 . S
O149 In143 2.266 . S
O149 C146 1.252 . S
O150 In143 2.326 . S
O150 C146 1.260 . S
O151 In143 2.266 . S
O151 C148 1.252 . S
O152 In143 2.326 . S
O152 C148 1.260 . S
C153 O144 1.240 . S
C153 O145 1.252 . S
O154 In143 2.294 . S
O154 C147 1.240 . S
O155 In143 2.326 . S
O155 C147 1.252 . S
In156 O157 2.294 . S
In156 O158 2.326 . S
In156 O162 2.266 . S
In156 O163 2.326 . S
In156 O164 2.266 . S
In156 O165 2.326 . S
In156 O167 2.294 . S
In156 O168 2.326 . S
O157 In156 2.294 . S
O157 C166 1.240 . S
O158 In156 2.326 . S
O158 C166 1.252 . S
C159 O162 1.252 . S
C159 O163 1.260 . S
C160 O167 1.240 . S
C160 O168 1.252 . S
C161 O164 1.252 . S
C161 O165 1.260 . S
O162 In156 2.266 . S
O162 C159 1.252 . S
O163 In156 2.326 . S
O163 C159 1.260 . S
O164 In156 2.266 . S
O164 C161 1.252 . S
O165 In156 2.326 . S
O165 C161 1.260 . S
C166 O157 1.240 . S
C166 O158 1.252 . S
O167 In156 2.294 . S
O167 C160 1.240 . S
O168 In156 2.326 . S
O168 C160 1.252 . S
In169 O170 2.294 . S
In169 O171 2.326 . S
In169 O175 2.266 . S
In169 O176 2.326 . S
In169 O177 2.266 . S
In169 O178 2.326 . S
In169 O180 2.294 . S
In169 O181 2.326 . S
O170 In169 2.294 . S
O170 C179 1.240 . S
O171 In169 2.326 . S
O171 C179 1.252 . S
C172 O175 1.252 . S
C172 O176 1.260 . S
C173 O180 1.240 . S
C173 O181 1.252 . S
C174 O177 1.252 . S
C174 O178 1.260 . S
O175 In169 2.266 . S
O175 C172 1.252 . S
O176 In169 2.326 . S
O176 C172 1.260 . S
O177 In169 2.266 . S
O177 C174 1.252 . S
O178 In169 2.326 . S
O178 C174 1.260 . S
C179 O170 1.240 . S
C179 O171 1.252 . S
O180 In169 2.294 . S
O180 C173 1.240 . S
O181 In169 2.326 . S
O181 C173 1.252 . S
In182 O183 2.294 . S
In182 O184 2.326 . S
In182 O188 2.266 . S
In182 O189 2.326 . S
In182 O190 2.266 . S
In182 O191 2.326 . S
In182 O193 2.294 . S
In182 O194 2.326 . S
O183 In182 2.294 . S
O183 C192 1.240 . S
O184 In182 2.326 . S
O184 C192 1.252 . S
C185 O188 1.252 . S
C185 O189 1.260 . S
C186 O193 1.240 . S
C186 O194 1.252 . S
C187 O190 1.252 . S
C187 O191 1.260 . S
O188 In182 2.266 . S
O188 C185 1.252 . S
O189 In182 2.326 . S
O189 C185 1.260 . S
O190 In182 2.266 . S
O190 C187 1.252 . S
O191 In182 2.326 . S
O191 C187 1.260 . S
C192 O183 1.240 . S
C192 O184 1.252 . S
O193 In182 2.294 . S
O193 C186 1.240 . S
O194 In182 2.326 . S
O194 C186 1.252 . S
In195 O196 2.294 . S
In195 O197 2.326 . S
In195 O201 2.266 . S
In195 O202 2.326 . S
In195 O203 2.266 . S
In195 O204 2.326 . S
In195 O206 2.294 . S
In195 O207 2.326 . S
O196 In195 2.294 . S
O196 C205 1.240 . S
O197 In195 2.326 . S
O197 C205 1.252 . S
C198 O201 1.252 . S
C198 O202 1.260 . S
C199 O206 1.240 . S
C199 O207 1.252 . S
C200 O203 1.252 . S
C200 O204 1.260 . S
O201 In195 2.266 . S
O201 C198 1.252 . S
O202 In195 2.326 . S
O202 C198 1.260 . S
O203 In195 2.266 . S
O203 C200 1.252 . S
O204 In195 2.326 . S
O204 C200 1.260 . S
C205 O196 1.240 . S
C205 O197 1.252 . S
O206 In195 2.294 . S
O206 C199 1.240 . S
O207 In195 2.326 . S
O207 C199 1.252 . S
In208 O209 2.294 . S
In208 O210 2.326 . S
In208 O214 2.266 . S
In208 O215 2.326 . S
In208 O216 2.266 . S
In208 O217 2.326 . S
In208 O219 2.294 . S
In208 O220 2.326 . S
O209 In208 2.294 . S
O209 C218 1.240 . S
O210 In208 2.326 . S
O210 C218 1.252 . S
C211 O214 1.252 . S
C211 O215 1.260 . S
C212 O219 1.240 . S
C212 O220 1.252 . S
C213 O216 1.252 . S
C213 O217 1.260 . S
O214 In208 2.266 . S
O214 C211 1.252 . S
O215 In208 2.326 . S
O215 C211 1.260 . S
O216 In208 2.266 . S
O216 C213 1.252 . S
O217 In208 2.326 . S
O217 C213 1.260 . S
C218 O209 1.240 . S
C218 O210 1.252 . S
O219 In208 2.294 . S
O219 C212 1.240 . S
O220 In208 2.326 . S
O220 C212 1.252 . S
In221 O222 2.294 . S
In221 O223 2.326 . S
In221 O227 2.266 . S
In221 O228 2.326 . S
In221 O229 2.266 . S
In221 O230 2.326 . S
In221 O232 2.294 . S
In221 O233 2.326 . S
O222 In221 2.294 . S
O222 C231 1.240 . S
O223 In221 2.326 . S
O223 C231 1.252 . S
C224 O227 1.252 . S
C224 O228 1.260 . S
C225 O232 1.240 . S
C225 O233 1.252 . S
C226 O229 1.252 . S
C226 O230 1.260 . S
O227 In221 2.266 . S
O227 C224 1.252 . S
O228 In221 2.326 . S
O228 C224 1.260 . S
O229 In221 2.266 . S
O229 C226 1.252 . S
O230 In221 2.326 . S
O230 C226 1.260 . S
C231 O222 1.240 . S
C231 O223 1.252 . S
O232 In221 2.294 . S
O232 C225 1.240 . S
O233 In221 2.326 . S
O233 C225 1.252 . S
In234 O235 2.294 . S
In234 O236 2.326 . S
In234 O240 2.266 . S
In234 O241 2.326 . S
In234 O242 2.266 . S
In234 O243 2.326 . S
In234 O245 2.294 . S
In234 O246 2.326 . S
O235 In234 2.294 . S
O235 C244 1.240 . S
O236 In234 2.326 . S
O236 C244 1.252 . S
C237 O240 1.252 . S
C237 O241 1.260 . S
C238 O245 1.240 . S
C238 O246 1.252 . S
C239 O242 1.252 . S
C239 O243 1.260 . S
O240 In234 2.266 . S
O240 C237 1.252 . S
O241 In234 2.326 . S
O241 C237 1.260 . S
O242 In234 2.266 . S
O242 C239 1.252 . S
O243 In234 2.326 . S
O243 C239 1.260 . S
C244 O235 1.240 . S
C244 O236 1.252 . S
O245 In234 2.294 . S
O245 C238 1.240 . S
O246 In234 2.326 . S
O246 C238 1.252 . S
In247 O248 2.294 . S
In247 O249 2.326 . S
In247 O253 2.266 . S
In247 O254 2.326 . S
In247 O255 2.266 . S
In247 O256 2.326 . S
In247 O258 2.294 . S
In247 O259 2.326 . S
O248 In247 2.294 . S
O248 C257 1.240 . S
O249 In247 2.326 . S
O249 C257 1.252 . S
C250 O253 1.252 . S
C250 O254 1.260 . S
C251 O258 1.240 . S
C251 O259 1.252 . S
C252 O255 1.252 . S
C252 O256 1.260 . S
O253 In247 2.266 . S
O253 C250 1.252 . S
O254 In247 2.326 . S
O254 C250 1.260 . S
O255 In247 2.266 . S
O255 C252 1.252 . S
O256 In247 2.326 . S
O256 C252 1.260 . S
C257 O248 1.240 . S
C257 O249 1.252 . S
O258 In247 2.294 . S
O258 C251 1.240 . S
O259 In247 2.326 . S
O259 C251 1.252 . S
In260 O261 2.294 . S
In260 O262 2.326 . S
In260 O266 2.266 . S
In260 O267 2.326 . S
In260 O268 2.266 . S
In260 O269 2.326 . S
In260 O271 2.294 . S
In260 O272 2.326 . S
O261 In260 2.294 . S
O261 C270 1.240 . S
O262 In260 2.326 . S
O262 C270 1.252 . S
C263 O266 1.252 . S
C263 O267 1.260 . S
C264 O271 1.240 . S
C264 O272 1.252 . S
C265 O268 1.252 . S
C265 O269 1.260 . S
O266 In260 2.266 . S
O266 C263 1.252 . S
O267 In260 2.326 . S
O267 C263 1.260 . S
O268 In260 2.266 . S
O268 C265 1.252 . S
O269 In260 2.326 . S
O269 C265 1.260 . S
C270 O261 1.240 . S
C270 O262 1.252 . S
O271 In260 2.294 . S
O271 C264 1.240 . S
O272 In260 2.326 . S
O272 C264 1.252 . S
In273 O274 2.294 . S
In273 O275 2.326 . S
In273 O279 2.266 . S
In273 O280 2.326 . S
In273 O281 2.266 . S
In273 O282 2.326 . S
In273 O284 2.294 . S
In273 O285 2.326 . S
O274 In273 2.294 . S
O274 C283 1.240 . S
O275 In273 2.326 . S
O275 C283 1.252 . S
C276 O279 1.252 . S
C276 O280 1.260 . S
C277 O284 1.240 . S
C277 O285 1.252 . S
C278 O281 1.252 . S
C278 O282 1.260 . S
O279 In273 2.266 . S
O279 C276 1.252 . S
O280 In273 2.326 . S
O280 C276 1.260 . S
O281 In273 2.266 . S
O281 C278 1.252 . S
O282 In273 2.326 . S
O282 C278 1.260 . S
C283 O274 1.240 . S
C283 O275 1.252 . S
O284 In273 2.294 . S
O284 C277 1.240 . S
O285 In273 2.326 . S
O285 C277 1.252 . S
In286 O287 2.294 . S
In286 O288 2.326 . S
In286 O292 2.266 . S
In286 O293 2.326 . S
In286 O294 2.266 . S
In286 O295 2.326 . S
In286 O297 2.294 . S
In286 O298 2.326 . S
O287 In286 2.294 . S
O287 C296 1.240 . S
O288 In286 2.326 . S
O288 C296 1.252 . S
C289 O292 1.252 . S
C289 O293 1.260 . S
C290 O297 1.240 . S
C290 O298 1.252 . S
C291 O294 1.252 . S
C291 O295 1.260 . S
O292 In286 2.266 . S
O292 C289 1.252 . S
O293 In286 2.326 . S
O293 C289 1.260 . S
O294 In286 2.266 . S
O294 C291 1.252 . S
O295 In286 2.326 . S
O295 C291 1.260 . S
C296 O287 1.240 . S
C296 O288 1.252 . S
O297 In286 2.294 . S
O297 C290 1.240 . S
O298 In286 2.326 . S
O298 C290 1.252 . S
In299 O300 2.294 . S
In299 O301 2.326 . S
In299 O305 2.266 . S
In299 O306 2.326 . S
In299 O307 2.266 . S
In299 O308 2.326 . S
In299 O310 2.294 . S
In299 O311 2.326 . S
O300 In299 2.294 . S
O300 C309 1.240 . S
O301 In299 2.326 . S
O301 C309 1.252 . S
C302 O305 1.252 . S
C302 O306 1.260 . S
C303 O310 1.240 . S
C303 O311 1.252 . S
C304 O307 1.252 . S
C304 O308 1.260 . S
O305 In299 2.266 . S
O305 C302 1.252 . S
O306 In299 2.326 . S
O306 C302 1.260 . S
O307 In299 2.266 . S
O307 C304 1.252 . S
O308 In299 2.326 . S
O308 C304 1.260 . S
C309 O300 1.240 . S
C309 O301 1.252 . S
O310 In299 2.294 . S
O310 C303 1.240 . S
O311 In299 2.326 . S
O311 C303 1.252 . S
In312 O313 2.294 . S
In312 O314 2.326 . S
In312 O318 2.266 . S
In312 O319 2.326 . S
In312 O320 2.266 . S
In312 O321 2.326 . S
In312 O323 2.294 . S
In312 O324 2.326 . S
O313 In312 2.294 . S
O313 C322 1.240 . S
O314 In312 2.326 . S
O314 C322 1.252 . S
C315 O318 1.252 . S
C315 O319 1.260 . S
C316 O323 1.240 . S
C316 O324 1.252 . S
C317 O320 1.252 . S
C317 O321 1.260 . S
O318 In312 2.266 . S
O318 C315 1.252 . S
O319 In312 2.326 . S
O319 C315 1.260 . S
O320 In312 2.266 . S
O320 C317 1.252 . S
O321 In312 2.326 . S
O321 C317 1.260 . S
C322 O313 1.240 . S
C322 O314 1.252 . S
O323 In312 2.294 . S
O323 C316 1.240 . S
O324 In312 2.326 . S
O324 C316 1.252 . S
In325 O326 2.294 . S
In325 O327 2.326 . S
In325 O331 2.266 . S
In325 O332 2.326 . S
In325 O333 2.266 . S
In325 O334 2.326 . S
In325 O336 2.294 . S
In325 O337 2.326 . S
O326 In325 2.294 . S
O326 C335 1.240 . S
O327 In325 2.326 . S
O327 C335 1.252 . S
C328 O331 1.252 . S
C328 O332 1.260 . S
C329 O336 1.240 . S
C329 O337 1.252 . S
C330 O333 1.252 . S
C330 O334 1.260 . S
O331 In325 2.266 . S
O331 C328 1.252 . S
O332 In325 2.326 . S
O332 C328 1.260 . S
O333 In325 2.266 . S
O333 C330 1.252 . S
O334 In325 2.326 . S
O334 C330 1.260 . S
C335 O326 1.240 . S
C335 O327 1.252 . S
O336 In325 2.294 . S
O336 C329 1.240 . S
O337 In325 2.326 . S
O337 C329 1.252 . S
In338 O339 2.294 . S
In338 O340 2.326 . S
In338 O344 2.266 . S
In338 O345 2.326 . S
In338 O346 2.266 . S
In338 O347 2.326 . S
In338 O349 2.294 . S
In338 O350 2.326 . S
O339 In338 2.294 . S
O339 C348 1.240 . S
O340 In338 2.326 . S
O340 C348 1.252 . S
C341 O344 1.252 . S
C341 O345 1.260 . S
C342 O349 1.240 . S
C342 O350 1.252 . S
C343 O346 1.252 . S
C343 O347 1.260 . S
O344 In338 2.266 . S
O344 C341 1.252 . S
O345 In338 2.326 . S
O345 C341 1.260 . S
O346 In338 2.266 . S
O346 C343 1.252 . S
O347 In338 2.326 . S
O347 C343 1.260 . S
C348 O339 1.240 . S
C348 O340 1.252 . S
O349 In338 2.294 . S
O349 C342 1.240 . S
O350 In338 2.326 . S
O350 C342 1.252 . S
In351 O352 2.294 . S
In351 O353 2.326 . S
In351 O357 2.266 . S
In351 O358 2.326 . S
In351 O359 2.266 . S
In351 O360 2.326 . S
In351 O362 2.294 . S
In351 O363 2.326 . S
O352 In351 2.294 . S
O352 C361 1.240 . S
O353 In351 2.326 . S
O353 C361 1.252 . S
C354 O357 1.252 . S
C354 O358 1.260 . S
C355 O362 1.240 . S
C355 O363 1.252 . S
C356 O359 1.252 . S
C356 O360 1.260 . S
O357 In351 2.266 . S
O357 C354 1.252 . S
O358 In351 2.326 . S
O358 C354 1.260 . S
O359 In351 2.266 . S
O359 C356 1.252 . S
O360 In351 2.326 . S
O360 C356 1.260 . S
C361 O352 1.240 . S
C361 O353 1.252 . S
O362 In351 2.294 . S
O362 C355 1.240 . S
O363 In351 2.326 . S
O363 C355 1.252 . S
In364 O365 2.294 . S
In364 O366 2.326 . S
In364 O370 2.266 . S
In364 O371 2.326 . S
In364 O372 2.266 . S
In364 O373 2.326 . S
In364 O375 2.294 . S
In364 O376 2.326 . S
O365 In364 2.294 . S
O365 C374 1.240 . S
O366 In364 2.326 . S
O366 C374 1.252 . S
C367 O370 1.252 . S
C367 O371 1.260 . S
C368 O375 1.240 . S
C368 O376 1.252 . S
C369 O372 1.252 . S
C369 O373 1.260 . S
O370 In364 2.266 . S
O370 C367 1.252 . S
O371 In364 2.326 . S
O371 C367 1.260 . S
O372 In364 2.266 . S
O372 C369 1.252 . S
O373 In364 2.326 . S
O373 C369 1.260 . S
C374 O365 1.240 . S
C374 O366 1.252 . S
O375 In364 2.294 . S
O375 C368 1.240 . S
O376 In364 2.326 . S
O376 C368 1.252 . S
In377 O378 2.294 . S
In377 O379 2.326 . S
In377 O383 2.266 . S
In377 O384 2.326 . S
In377 O385 2.266 . S
In377 O386 2.326 . S
In377 O388 2.294 . S
In377 O389 2.326 . S
O378 In377 2.294 . S
O378 C387 1.240 . S
O379 In377 2.326 . S
O379 C387 1.252 . S
C380 O383 1.252 . S
C380 O384 1.260 . S
C381 O388 1.240 . S
C381 O389 1.252 . S
C382 O385 1.252 . S
C382 O386 1.260 . S
O383 In377 2.266 . S
O383 C380 1.252 . S
O384 In377 2.326 . S
O384 C380 1.260 . S
O385 In377 2.266 . S
O385 C382 1.252 . S
O386 In377 2.326 . S
O386 C382 1.260 . S
C387 O378 1.240 . S
C387 O379 1.252 . S
O388 In377 2.294 . S
O388 C381 1.240 . S
O389 In377 2.326 . S
O389 C381 1.252 . S
In390 O391 2.294 . S
In390 O392 2.326 . S
In390 O396 2.266 . S
In390 O397 2.326 . S
In390 O398 2.266 . S
In390 O399 2.326 . S
In390 O401 2.294 . S
In390 O402 2.326 . S
O391 In390 2.294 . S
O391 C400 1.240 . S
O392 In390 2.326 . S
O392 C400 1.252 . S
C393 O396 1.252 . S
C393 O397 1.260 . S
C394 O401 1.240 . S
C394 O402 1.252 . S
C395 O398 1.252 . S
C395 O399 1.260 . S
O396 In390 2.266 . S
O396 C393 1.252 . S
O397 In390 2.326 . S
O397 C393 1.260 . S
O398 In390 2.266 . S
O398 C395 1.252 . S
O399 In390 2.326 . S
O399 C395 1.260 . S
C400 O391 1.240 . S
C400 O392 1.252 . S
O401 In390 2.294 . S
O401 C394 1.240 . S
O402 In390 2.326 . S
O402 C394 1.252 . S
In403 O404 2.294 . S
In403 O405 2.326 . S
In403 O409 2.266 . S
In403 O410 2.326 . S
In403 O411 2.266 . S
In403 O412 2.326 . S
In403 O414 2.294 . S
In403 O415 2.326 . S
O404 In403 2.294 . S
O404 C413 1.240 . S
O405 In403 2.326 . S
O405 C413 1.252 . S
C406 O409 1.252 . S
C406 O410 1.260 . S
C407 O414 1.240 . S
C407 O415 1.252 . S
C408 O411 1.252 . S
C408 O412 1.260 . S
O409 In403 2.266 . S
O409 C406 1.252 . S
O410 In403 2.326 . S
O410 C406 1.260 . S
O411 In403 2.266 . S
O411 C408 1.252 . S
O412 In403 2.326 . S
O412 C408 1.260 . S
C413 O404 1.240 . S
C413 O405 1.252 . S
O414 In403 2.294 . S
O414 C407 1.240 . S
O415 In403 2.326 . S
O415 C407 1.252 . S
H416 C422 0.930 . S
H417 C425 0.930 . S
H418 C426 0.930 . S
H419 C427 0.930 . S
H420 C430 0.930 . S
H421 C431 0.930 . S
C422 H416 0.930 . S
C422 C423 1.355 . S
C422 C424 1.415 . S
C423 C422 1.355 . S
C423 C425 1.419 . S
C424 C422 1.415 . S
C424 C429 1.425 . S
C424 C431 1.409 . S
C425 H417 0.930 . S
C425 C423 1.419 . S
C425 C426 1.362 . S
C426 H418 0.930 . S
C426 C425 1.362 . S
C426 C429 1.409 . S
C427 H419 0.930 . S
C427 C428 1.355 . S
C427 C429 1.415 . S
C428 C427 1.355 . S
C428 C430 1.419 . S
C429 C424 1.425 . S
C429 C426 1.409 . S
C429 C427 1.415 . S
C430 H420 0.930 . S
C430 C428 1.419 . S
C430 C431 1.362 . S
C431 H421 0.930 . S
C431 C424 1.409 . S
C431 C430 1.362 . S
H432 C438 0.930 . S
H433 C441 0.930 . S
H434 C442 0.930 . S
H435 C443 0.930 . S
H436 C446 0.930 . S
H437 C447 0.930 . S
C438 H432 0.930 . S
C438 C439 1.355 . S
C438 C440 1.415 . S
C439 C438 1.355 . S
C439 C441 1.419 . S
C440 C438 1.415 . S
C440 C445 1.425 . S
C440 C447 1.409 . S
C441 H433 0.930 . S
C441 C439 1.419 . S
C441 C442 1.362 . S
C442 H434 0.930 . S
C442 C441 1.362 . S
C442 C445 1.409 . S
C443 H435 0.930 . S
C443 C444 1.355 . S
C443 C445 1.415 . S
C444 C443 1.355 . S
C444 C446 1.419 . S
C445 C440 1.425 . S
C445 C442 1.409 . S
C445 C443 1.415 . S
C446 H436 0.930 . S
C446 C444 1.419 . S
C446 C447 1.362 . S
C447 H437 0.930 . S
C447 C440 1.409 . S
C447 C446 1.362 . S
H448 C454 0.930 . S
H449 C457 0.930 . S
H450 C458 0.930 . S
H451 C459 0.930 . S
H452 C462 0.930 . S
H453 C463 0.930 . S
C454 H448 0.930 . S
C454 C455 1.355 . S
C454 C456 1.415 . S
C455 C454 1.355 . S
C455 C457 1.419 . S
C456 C454 1.415 . S
C456 C461 1.425 . S
C456 C463 1.409 . S
C457 H449 0.930 . S
C457 C455 1.419 . S
C457 C458 1.362 . S
C458 H450 0.930 . S
C458 C457 1.362 . S
C458 C461 1.409 . S
C459 H451 0.930 . S
C459 C460 1.355 . S
C459 C461 1.415 . S
C460 C459 1.355 . S
C460 C462 1.419 . S
C461 C456 1.425 . S
C461 C458 1.409 . S
C461 C459 1.415 . S
C462 H452 0.930 . S
C462 C460 1.419 . S
C462 C463 1.362 . S
C463 H453 0.930 . S
C463 C456 1.409 . S
C463 C462 1.362 . S
H464 C470 0.930 . S
H465 C473 0.930 . S
H466 C474 0.930 . S
H467 C475 0.930 . S
H468 C478 0.930 . S
H469 C479 0.930 . S
C470 H464 0.930 . S
C470 C471 1.355 . S
C470 C472 1.415 . S
C471 C470 1.355 . S
C471 C473 1.419 . S
C472 C470 1.415 . S
C472 C477 1.425 . S
C472 C479 1.409 . S
C473 H465 0.930 . S
C473 C471 1.419 . S
C473 C474 1.362 . S
C474 H466 0.930 . S
C474 C473 1.362 . S
C474 C477 1.409 . S
C475 H467 0.930 . S
C475 C476 1.355 . S
C475 C477 1.415 . S
C476 C475 1.355 . S
C476 C478 1.419 . S
C477 C472 1.425 . S
C477 C474 1.409 . S
C477 C475 1.415 . S
C478 H468 0.930 . S
C478 C476 1.419 . S
C478 C479 1.362 . S
C479 H469 0.930 . S
C479 C472 1.409 . S
C479 C478 1.362 . S
H480 C486 0.930 . S
H481 C489 0.930 . S
H482 C490 0.930 . S
H483 C491 0.930 . S
H484 C494 0.930 . S
H485 C495 0.930 . S
C486 H480 0.930 . S
C486 C487 1.355 . S
C486 C488 1.415 . S
C487 C486 1.355 . S
C487 C489 1.419 . S
C488 C486 1.415 . S
C488 C493 1.425 . S
C488 C495 1.409 . S
C489 H481 0.930 . S
C489 C487 1.419 . S
C489 C490 1.362 . S
C490 H482 0.930 . S
C490 C489 1.362 . S
C490 C493 1.409 . S
C491 H483 0.930 . S
C491 C492 1.355 . S
C491 C493 1.415 . S
C492 C491 1.355 . S
C492 C494 1.419 . S
C493 C488 1.425 . S
C493 C490 1.409 . S
C493 C491 1.415 . S
C494 H484 0.930 . S
C494 C492 1.419 . S
C494 C495 1.362 . S
C495 H485 0.930 . S
C495 C488 1.409 . S
C495 C494 1.362 . S
H496 C502 0.930 . S
H497 C505 0.930 . S
H498 C506 0.930 . S
H499 C507 0.930 . S
H500 C510 0.930 . S
H501 C511 0.930 . S
C502 H496 0.930 . S
C502 C503 1.355 . S
C502 C504 1.415 . S
C503 C502 1.355 . S
C503 C505 1.419 . S
C504 C502 1.415 . S
C504 C509 1.425 . S
C504 C511 1.409 . S
C505 H497 0.930 . S
C505 C503 1.419 . S
C505 C506 1.362 . S
C506 H498 0.930 . S
C506 C505 1.362 . S
C506 C509 1.409 . S
C507 H499 0.930 . S
C507 C508 1.355 . S
C507 C509 1.415 . S
C508 C507 1.355 . S
C508 C510 1.419 . S
C509 C504 1.425 . S
C509 C506 1.409 . S
C509 C507 1.415 . S
C510 H500 0.930 . S
C510 C508 1.419 . S
C510 C511 1.362 . S
C511 H501 0.930 . S
C511 C504 1.409 . S
C511 C510 1.362 . S
H512 C518 0.930 . S
H513 C521 0.930 . S
H514 C522 0.930 . S
H515 C523 0.930 . S
H516 C526 0.930 . S
H517 C527 0.930 . S
C518 H512 0.930 . S
C518 C519 1.355 . S
C518 C520 1.415 . S
C519 C518 1.355 . S
C519 C521 1.419 . S
C520 C518 1.415 . S
C520 C525 1.425 . S
C520 C527 1.409 . S
C521 H513 0.930 . S
C521 C519 1.419 . S
C521 C522 1.362 . S
C522 H514 0.930 . S
C522 C521 1.362 . S
C522 C525 1.409 . S
C523 H515 0.930 . S
C523 C524 1.355 . S
C523 C525 1.415 . S
C524 C523 1.355 . S
C524 C526 1.419 . S
C525 C520 1.425 . S
C525 C522 1.409 . S
C525 C523 1.415 . S
C526 H516 0.930 . S
C526 C524 1.419 . S
C526 C527 1.362 . S
C527 H517 0.930 . S
C527 C520 1.409 . S
C527 C526 1.362 . S
H528 C534 0.930 . S
H529 C537 0.930 . S
H530 C538 0.930 . S
H531 C539 0.930 . S
H532 C542 0.930 . S
H533 C543 0.930 . S
C534 H528 0.930 . S
C534 C535 1.355 . S
C534 C536 1.415 . S
C535 C534 1.355 . S
C535 C537 1.419 . S
C536 C534 1.415 . S
C536 C541 1.425 . S
C536 C543 1.409 . S
C537 H529 0.930 . S
C537 C535 1.419 . S
C537 C538 1.362 . S
C538 H530 0.930 . S
C538 C537 1.362 . S
C538 C541 1.409 . S
C539 H531 0.930 . S
C539 C540 1.355 . S
C539 C541 1.415 . S
C540 C539 1.355 . S
C540 C542 1.419 . S
C541 C536 1.425 . S
C541 C538 1.409 . S
C541 C539 1.415 . S
C542 H532 0.930 . S
C542 C540 1.419 . S
C542 C543 1.362 . S
C543 H533 0.930 . S
C543 C536 1.409 . S
C543 C542 1.362 . S
H544 C550 0.930 . S
H545 C553 0.930 . S
H546 C554 0.930 . S
H547 C555 0.930 . S
H548 C558 0.930 . S
H549 C559 0.930 . S
C550 H544 0.930 . S
C550 C551 1.355 . S
C550 C552 1.415 . S
C551 C550 1.355 . S
C551 C553 1.419 . S
C552 C550 1.415 . S
C552 C557 1.425 . S
C552 C559 1.409 . S
C553 H545 0.930 . S
C553 C551 1.419 . S
C553 C554 1.362 . S
C554 H546 0.930 . S
C554 C553 1.362 . S
C554 C557 1.409 . S
C555 H547 0.930 . S
C555 C556 1.355 . S
C555 C557 1.415 . S
C556 C555 1.355 . S
C556 C558 1.419 . S
C557 C552 1.425 . S
C557 C554 1.409 . S
C557 C555 1.415 . S
C558 H548 0.930 . S
C558 C556 1.419 . S
C558 C559 1.362 . S
C559 H549 0.930 . S
C559 C552 1.409 . S
C559 C558 1.362 . S
H560 C566 0.930 . S
H561 C569 0.930 . S
H562 C570 0.930 . S
H563 C571 0.930 . S
H564 C574 0.930 . S
H565 C575 0.930 . S
C566 H560 0.930 . S
C566 C567 1.355 . S
C566 C568 1.415 . S
C567 C566 1.355 . S
C567 C569 1.419 . S
C568 C566 1.415 . S
C568 C573 1.425 . S
C568 C575 1.409 . S
C569 H561 0.930 . S
C569 C567 1.419 . S
C569 C570 1.362 . S
C570 H562 0.930 . S
C570 C569 1.362 . S
C570 C573 1.409 . S
C571 H563 0.930 . S
C571 C572 1.355 . S
C571 C573 1.415 . S
C572 C571 1.355 . S
C572 C574 1.419 . S
C573 C568 1.425 . S
C573 C570 1.409 . S
C573 C571 1.415 . S
C574 H564 0.930 . S
C574 C572 1.419 . S
C574 C575 1.362 . S
C575 H565 0.930 . S
C575 C568 1.409 . S
C575 C574 1.362 . S
H576 C582 0.930 . S
H577 C585 0.930 . S
H578 C586 0.930 . S
H579 C587 0.930 . S
H580 C590 0.930 . S
H581 C591 0.930 . S
C582 H576 0.930 . S
C582 C583 1.355 . S
C582 C584 1.415 . S
C583 C582 1.355 . S
C583 C585 1.419 . S
C584 C582 1.415 . S
C584 C589 1.425 . S
C584 C591 1.409 . S
C585 H577 0.930 . S
C585 C583 1.419 . S
C585 C586 1.362 . S
C586 H578 0.930 . S
C586 C585 1.362 . S
C586 C589 1.409 . S
C587 H579 0.930 . S
C587 C588 1.355 . S
C587 C589 1.415 . S
C588 C587 1.355 . S
C588 C590 1.419 . S
C589 C584 1.425 . S
C589 C586 1.409 . S
C589 C587 1.415 . S
C590 H580 0.930 . S
C590 C588 1.419 . S
C590 C591 1.362 . S
C591 H581 0.930 . S
C591 C584 1.409 . S
C591 C590 1.362 . S
H592 C598 0.930 . S
H593 C601 0.930 . S
H594 C602 0.930 . S
H595 C603 0.930 . S
H596 C606 0.930 . S
H597 C607 0.930 . S
C598 H592 0.930 . S
C598 C599 1.355 . S
C598 C600 1.415 . S
C599 C598 1.355 . S
C599 C601 1.419 . S
C600 C598 1.415 . S
C600 C605 1.425 . S
C600 C607 1.409 . S
C601 H593 0.930 . S
C601 C599 1.419 . S
C601 C602 1.362 . S
C602 H594 0.930 . S
C602 C601 1.362 . S
C602 C605 1.409 . S
C603 H595 0.930 . S
C603 C604 1.355 . S
C603 C605 1.415 . S
C604 C603 1.355 . S
C604 C606 1.419 . S
C605 C600 1.425 . S
C605 C602 1.409 . S
C605 C603 1.415 . S
C606 H596 0.930 . S
C606 C604 1.419 . S
C606 C607 1.362 . S
C607 H597 0.930 . S
C607 C600 1.409 . S
C607 C606 1.362 . S
H608 C614 0.930 . S
H609 C617 0.930 . S
H610 C618 0.930 . S
H611 C619 0.930 . S
H612 C622 0.930 . S
H613 C623 0.930 . S
C614 H608 0.930 . S
C614 C615 1.355 . S
C614 C616 1.415 . S
C615 C614 1.355 . S
C615 C617 1.419 . S
C616 C614 1.415 . S
C616 C621 1.425 . S
C616 C623 1.409 . S
C617 H609 0.930 . S
C617 C615 1.419 . S
C617 C618 1.362 . S
C618 H610 0.930 . S
C618 C617 1.362 . S
C618 C621 1.409 . S
C619 H611 0.930 . S
C619 C620 1.355 . S
C619 C621 1.415 . S
C620 C619 1.355 . S
C620 C622 1.419 . S
C621 C616 1.425 . S
C621 C618 1.409 . S
C621 C619 1.415 . S
C622 H612 0.930 . S
C622 C620 1.419 . S
C622 C623 1.362 . S
C623 H613 0.930 . S
C623 C616 1.409 . S
C623 C622 1.362 . S
H624 C630 0.930 . S
H625 C633 0.930 . S
H626 C634 0.930 . S
H627 C635 0.930 . S
H628 C638 0.930 . S
H629 C639 0.930 . S
C630 H624 0.930 . S
C630 C631 1.355 . S
C630 C632 1.415 . S
C631 C630 1.355 . S
C631 C633 1.419 . S
C632 C630 1.415 . S
C632 C637 1.425 . S
C632 C639 1.409 . S
C633 H625 0.930 . S
C633 C631 1.419 . S
C633 C634 1.362 . S
C634 H626 0.930 . S
C634 C633 1.362 . S
C634 C637 1.409 . S
C635 H627 0.930 . S
C635 C636 1.355 . S
C635 C637 1.415 . S
C636 C635 1.355 . S
C636 C638 1.419 . S
C637 C632 1.425 . S
C637 C634 1.409 . S
C637 C635 1.415 . S
C638 H628 0.930 . S
C638 C636 1.419 . S
C638 C639 1.362 . S
C639 H629 0.930 . S
C639 C632 1.409 . S
C639 C638 1.362 . S
H640 C646 0.930 . S
H641 C649 0.930 . S
H642 C650 0.930 . S
H643 C651 0.930 . S
H644 C654 0.930 . S
H645 C655 0.930 . S
C646 H640 0.930 . S
C646 C647 1.355 . S
C646 C648 1.415 . S
C647 C646 1.355 . S
C647 C649 1.419 . S
C648 C646 1.415 . S
C648 C653 1.425 . S
C648 C655 1.409 . S
C649 H641 0.930 . S
C649 C647 1.419 . S
C649 C650 1.362 . S
C650 H642 0.930 . S
C650 C649 1.362 . S
C650 C653 1.409 . S
C651 H643 0.930 . S
C651 C652 1.355 . S
C651 C653 1.415 . S
C652 C651 1.355 . S
C652 C654 1.419 . S
C653 C648 1.425 . S
C653 C650 1.409 . S
C653 C651 1.415 . S
C654 H644 0.930 . S
C654 C652 1.419 . S
C654 C655 1.362 . S
C655 H645 0.930 . S
C655 C648 1.409 . S
C655 C654 1.362 . S
H656 C662 0.930 . S
H657 C665 0.930 . S
H658 C666 0.930 . S
H659 C667 0.930 . S
H660 C670 0.930 . S
H661 C671 0.930 . S
C662 H656 0.930 . S
C662 C663 1.355 . S
C662 C664 1.415 . S
C663 C662 1.355 . S
C663 C665 1.419 . S
C664 C662 1.415 . S
C664 C669 1.425 . S
C664 C671 1.409 . S
C665 H657 0.930 . S
C665 C663 1.419 . S
C665 C666 1.362 . S
C666 H658 0.930 . S
C666 C665 1.362 . S
C666 C669 1.409 . S
C667 H659 0.930 . S
C667 C668 1.355 . S
C667 C669 1.415 . S
C668 C667 1.355 . S
C668 C670 1.419 . S
C669 C664 1.425 . S
C669 C666 1.409 . S
C669 C667 1.415 . S
C670 H660 0.930 . S
C670 C668 1.419 . S
C670 C671 1.362 . S
C671 H661 0.930 . S
C671 C664 1.409 . S
C671 C670 1.362 . S
H672 C678 0.930 . S
H673 C681 0.930 . S
H674 C682 0.930 . S
H675 C683 0.930 . S
H676 C686 0.930 . S
H677 C687 0.930 . S
C678 H672 0.930 . S
C678 C679 1.355 . S
C678 C680 1.415 . S
C679 C678 1.355 . S
C679 C681 1.419 . S
C680 C678 1.415 . S
C680 C685 1.425 1_554 S
C680 C687 1.409 1_554 S
C681 H673 0.930 . S
C681 C679 1.419 . S
C681 C682 1.362 . S
C682 H674 0.930 . S
C682 C681 1.362 . S
C682 C685 1.409 1_554 S
C683 H675 0.930 . S
C683 C684 1.355 . S
C683 C685 1.415 . S
C684 C683 1.355 . S
C684 C686 1.419 . S
C685 C680 1.425 1_556 S
C685 C682 1.409 1_556 S
C685 C683 1.415 . S
C686 H676 0.930 . S
C686 C684 1.419 . S
C686 C687 1.362 . S
C687 H677 0.930 . S
C687 C680 1.409 1_556 S
C687 C686 1.362 . S
H688 C694 0.930 . S
H689 C697 0.930 . S
H690 C698 0.930 . S
H691 C699 0.930 . S
H692 C702 0.930 . S
H693 C703 0.930 . S
C694 H688 0.930 . S
C694 C695 1.355 . S
C694 C696 1.415 . S
C695 C694 1.355 . S
C695 C697 1.419 . S
C696 C694 1.415 . S
C696 C701 1.425 1_556 S
C696 C703 1.409 1_556 S
C697 H689 0.930 . S
C697 C695 1.419 . S
C697 C698 1.362 . S
C698 H690 0.930 . S
C698 C697 1.362 . S
C698 C701 1.409 1_556 S
C699 H691 0.930 . S
C699 C700 1.355 . S
C699 C701 1.415 . S
C700 C699 1.355 . S
C700 C702 1.419 . S
C701 C696 1.425 1_554 S
C701 C698 1.409 1_554 S
C701 C699 1.415 . S
C702 H692 0.930 . S
C702 C700 1.419 . S
C702 C703 1.362 . S
C703 H693 0.930 . S
C703 C696 1.409 1_554 S
C703 C702 1.362 . S
H704 C710 0.930 . S
H705 C713 0.930 . S
H706 C714 0.930 . S
H707 C715 0.930 . S
H708 C718 0.930 . S
H709 C719 0.930 . S
C710 H704 0.930 . S
C710 C711 1.355 . S
C710 C712 1.415 . S
C711 C710 1.355 . S
C711 C713 1.419 . S
C712 C710 1.415 . S
C712 C717 1.425 1_556 S
C712 C719 1.409 1_556 S
C713 H705 0.930 . S
C713 C711 1.419 . S
C713 C714 1.362 . S
C714 H706 0.930 . S
C714 C713 1.362 . S
C714 C717 1.409 1_556 S
C715 H707 0.930 . S
C715 C716 1.355 . S
C715 C717 1.415 . S
C716 C715 1.355 . S
C716 C718 1.419 . S
C717 C712 1.425 1_554 S
C717 C714 1.409 1_554 S
C717 C715 1.415 . S
C718 H708 0.930 . S
C718 C716 1.419 . S
C718 C719 1.362 . S
C719 H709 0.930 . S
C719 C712 1.409 1_554 S
C719 C718 1.362 . S
H720 C726 0.930 . S
H721 C729 0.930 . S
H722 C730 0.930 . S
H723 C731 0.930 . S
H724 C734 0.930 . S
H725 C735 0.930 . S
C726 H720 0.930 . S
C726 C727 1.355 . S
C726 C728 1.415 . S
C727 C726 1.355 . S
C727 C729 1.419 . S
C728 C726 1.415 . S
C728 C733 1.425 1_556 S
C728 C735 1.409 1_556 S
C729 H721 0.930 . S
C729 C727 1.419 . S
C729 C730 1.362 . S
C730 H722 0.930 . S
C730 C729 1.362 . S
C730 C733 1.409 1_556 S
C731 H723 0.930 . S
C731 C732 1.355 . S
C731 C733 1.415 . S
C732 C731 1.355 . S
C732 C734 1.419 . S
C733 C728 1.425 1_554 S
C733 C730 1.409 1_554 S
C733 C731 1.415 . S
C734 H724 0.930 . S
C734 C732 1.419 . S
C734 C735 1.362 . S
C735 H725 0.930 . S
C735 C728 1.409 1_554 S
C735 C734 1.362 . S
H736 C742 0.930 . S
H737 C745 0.930 . S
H738 C746 0.930 . S
H739 C747 0.930 . S
H740 C750 0.930 . S
H741 C751 0.930 . S
C742 H736 0.930 . S
C742 C743 1.355 . S
C742 C744 1.415 . S
C743 C742 1.355 . S
C743 C745 1.419 . S
C744 C742 1.415 . S
C744 C749 1.425 . S
C744 C751 1.409 . S
C745 H737 0.930 . S
C745 C743 1.419 . S
C745 C746 1.362 . S
C746 H738 0.930 . S
C746 C745 1.362 . S
C746 C749 1.409 . S
C747 H739 0.930 . S
C747 C748 1.355 . S
C747 C749 1.415 . S
C748 C747 1.355 . S
C748 C750 1.419 . S
C749 C744 1.425 . S
C749 C746 1.409 . S
C749 C747 1.415 . S
C750 H740 0.930 . S
C750 C748 1.419 . S
C750 C751 1.362 . S
C751 H741 0.930 . S
C751 C744 1.409 . S
C751 C750 1.362 . S
H752 C758 0.930 . S
H753 C761 0.930 . S
H754 C762 0.930 . S
H755 C763 0.930 . S
H756 C766 0.930 . S
H757 C767 0.930 . S
C758 H752 0.930 . S
C758 C759 1.355 . S
C758 C760 1.415 . S
C759 C758 1.355 . S
C759 C761 1.419 . S
C760 C758 1.415 . S
C760 C765 1.425 . S
C760 C767 1.409 . S
C761 H753 0.930 . S
C761 C759 1.419 . S
C761 C762 1.362 . S
C762 H754 0.930 . S
C762 C761 1.362 . S
C762 C765 1.409 . S
C763 H755 0.930 . S
C763 C764 1.355 . S
C763 C765 1.415 . S
C764 C763 1.355 . S
C764 C766 1.419 . S
C765 C760 1.425 . S
C765 C762 1.409 . S
C765 C763 1.415 . S
C766 H756 0.930 . S
C766 C764 1.419 . S
C766 C767 1.362 . S
C767 H757 0.930 . S
C767 C760 1.409 . S
C767 C766 1.362 . S
H768 C774 0.930 . S
H769 C777 0.930 . S
H770 C778 0.930 . S
H771 C779 0.930 . S
H772 C782 0.930 . S
H773 C783 0.930 . S
C774 H768 0.930 . S
C774 C775 1.355 . S
C774 C776 1.415 . S
C775 C774 1.355 . S
C775 C777 1.419 . S
C776 C774 1.415 . S
C776 C781 1.425 . S
C776 C783 1.409 . S
C777 H769 0.930 . S
C777 C775 1.419 . S
C777 C778 1.362 . S
C778 H770 0.930 . S
C778 C777 1.362 . S
C778 C781 1.409 . S
C779 H771 0.930 . S
C779 C780 1.355 . S
C779 C781 1.415 . S
C780 C779 1.355 . S
C780 C782 1.419 . S
C781 C776 1.425 . S
C781 C778 1.409 . S
C781 C779 1.415 . S
C782 H772 0.930 . S
C782 C780 1.419 . S
C782 C783 1.362 . S
C783 H773 0.930 . S
C783 C776 1.409 . S
C783 C782 1.362 . S
H784 C790 0.930 . S
H785 C793 0.930 . S
H786 C794 0.930 . S
H787 C795 0.930 . S
H788 C798 0.930 . S
H789 C799 0.930 . S
C790 H784 0.930 . S
C790 C791 1.355 . S
C790 C792 1.415 . S
C791 C790 1.355 . S
C791 C793 1.419 . S
C792 C790 1.415 . S
C792 C797 1.425 . S
C792 C799 1.409 . S
C793 H785 0.930 . S
C793 C791 1.419 . S
C793 C794 1.362 . S
C794 H786 0.930 . S
C794 C793 1.362 . S
C794 C797 1.409 . S
C795 H787 0.930 . S
C795 C796 1.355 . S
C795 C797 1.415 . S
C796 C795 1.355 . S
C796 C798 1.419 . S
C797 C792 1.425 . S
C797 C794 1.409 . S
C797 C795 1.415 . S
C798 H788 0.930 . S
C798 C796 1.419 . S
C798 C799 1.362 . S
C799 H789 0.930 . S
C799 C792 1.409 . S
C799 C798 1.362 . S
H800 C806 0.930 . S
H801 C809 0.930 . S
H802 C810 0.930 . S
H803 C811 0.930 . S
H804 C814 0.930 . S
H805 C815 0.930 . S
C806 H800 0.930 . S
C806 C807 1.355 . S
C806 C808 1.415 . S
C807 C806 1.355 . S
C807 C809 1.419 . S
C808 C806 1.415 . S
C808 C813 1.425 . S
C808 C815 1.409 . S
C809 H801 0.930 . S
C809 C807 1.419 . S
C809 C810 1.362 . S
C810 H802 0.930 . S
C810 C809 1.362 . S
C810 C813 1.409 . S
C811 H803 0.930 . S
C811 C812 1.355 . S
C811 C813 1.415 . S
C812 C811 1.355 . S
C812 C814 1.419 . S
C813 C808 1.425 . S
C813 C810 1.409 . S
C813 C811 1.415 . S
C814 H804 0.930 . S
C814 C812 1.419 . S
C814 C815 1.362 . S
C815 H805 0.930 . S
C815 C808 1.409 . S
C815 C814 1.362 . S
H816 C822 0.930 . S
H817 C825 0.930 . S
H818 C826 0.930 . S
H819 C827 0.930 . S
H820 C830 0.930 . S
H821 C831 0.930 . S
C822 H816 0.930 . S
C822 C823 1.355 . S
C822 C824 1.415 . S
C823 C822 1.355 . S
C823 C825 1.419 . S
C824 C822 1.415 . S
C824 C829 1.425 . S
C824 C831 1.409 . S
C825 H817 0.930 . S
C825 C823 1.419 . S
C825 C826 1.362 . S
C826 H818 0.930 . S
C826 C825 1.362 . S
C826 C829 1.409 . S
C827 H819 0.930 . S
C827 C828 1.355 . S
C827 C829 1.415 . S
C828 C827 1.355 . S
C828 C830 1.419 . S
C829 C824 1.425 . S
C829 C826 1.409 . S
C829 C827 1.415 . S
C830 H820 0.930 . S
C830 C828 1.419 . S
C830 C831 1.362 . S
C831 H821 0.930 . S
C831 C824 1.409 . S
C831 C830 1.362 . S
H832 C838 0.930 . S
H833 C841 0.930 . S
H834 C842 0.930 . S
H835 C843 0.930 . S
H836 C846 0.930 . S
H837 C847 0.930 . S
C838 H832 0.930 . S
C838 C839 1.355 . S
C838 C840 1.415 . S
C839 C838 1.355 . S
C839 C841 1.419 . S
C840 C838 1.415 . S
C840 C845 1.425 . S
C840 C847 1.409 . S
C841 H833 0.930 . S
C841 C839 1.419 . S
C841 C842 1.362 . S
C842 H834 0.930 . S
C842 C841 1.362 . S
C842 C845 1.409 . S
C843 H835 0.930 . S
C843 C844 1.355 . S
C843 C845 1.415 . S
C844 C843 1.355 . S
C844 C846 1.419 . S
C845 C840 1.425 . S
C845 C842 1.409 . S
C845 C843 1.415 . S
C846 H836 0.930 . S
C846 C844 1.419 . S
C846 C847 1.362 . S
C847 H837 0.930 . S
C847 C840 1.409 . S
C847 C846 1.362 . S
H848 C854 0.930 . S
H849 C857 0.930 . S
H850 C858 0.930 . S
H851 C859 0.930 . S
H852 C862 0.930 . S
H853 C863 0.930 . S
C854 H848 0.930 . S
C854 C855 1.355 . S
C854 C856 1.415 . S
C855 C854 1.355 . S
C855 C857 1.419 . S
C856 C854 1.415 . S
C856 C861 1.425 . S
C856 C863 1.409 . S
C857 H849 0.930 . S
C857 C855 1.419 . S
C857 C858 1.362 . S
C858 H850 0.930 . S
C858 C857 1.362 . S
C858 C861 1.409 . S
C859 H851 0.930 . S
C859 C860 1.355 . S
C859 C861 1.415 . S
C860 C859 1.355 . S
C860 C862 1.419 . S
C861 C856 1.425 . S
C861 C858 1.409 . S
C861 C859 1.415 . S
C862 H852 0.930 . S
C862 C860 1.419 . S
C862 C863 1.362 . S
C863 H853 0.930 . S
C863 C856 1.409 . S
C863 C862 1.362 . S
H864 C870 0.930 . S
H865 C873 0.930 . S
H866 C874 0.930 . S
H867 C875 0.930 . S
H868 C878 0.930 . S
H869 C879 0.930 . S
C870 H864 0.930 . S
C870 C871 1.355 . S
C870 C872 1.415 . S
C871 C870 1.355 . S
C871 C873 1.419 . S
C872 C870 1.415 . S
C872 C877 1.425 1_556 S
C872 C879 1.409 1_556 S
C873 H865 0.930 . S
C873 C871 1.419 . S
C873 C874 1.362 . S
C874 H866 0.930 . S
C874 C873 1.362 . S
C874 C877 1.409 1_556 S
C875 H867 0.930 . S
C875 C876 1.355 . S
C875 C877 1.415 . S
C876 C875 1.355 . S
C876 C878 1.419 . S
C877 C872 1.425 1_554 S
C877 C874 1.409 1_554 S
C877 C875 1.415 . S
C878 H868 0.930 . S
C878 C876 1.419 . S
C878 C879 1.362 . S
C879 H869 0.930 . S
C879 C872 1.409 1_554 S
C879 C878 1.362 . S
H880 C886 0.930 . S
H881 C889 0.930 . S
H882 C890 0.930 . S
H883 C891 0.930 . S
H884 C894 0.930 . S
H885 C895 0.930 . S
C886 H880 0.930 . S
C886 C887 1.355 . S
C886 C888 1.415 . S
C887 C886 1.355 . S
C887 C889 1.419 . S
C888 C886 1.415 . S
C888 C893 1.425 1_554 S
C888 C895 1.409 1_554 S
C889 H881 0.930 . S
C889 C887 1.419 . S
C889 C890 1.362 . S
C890 H882 0.930 . S
C890 C889 1.362 . S
C890 C893 1.409 1_554 S
C891 H883 0.930 . S
C891 C892 1.355 . S
C891 C893 1.415 . S
C892 C891 1.355 . S
C892 C894 1.419 . S
C893 C888 1.425 1_556 S
C893 C890 1.409 1_556 S
C893 C891 1.415 . S
C894 H884 0.930 . S
C894 C892 1.419 . S
C894 C895 1.362 . S
C895 H885 0.930 . S
C895 C888 1.409 1_556 S
C895 C894 1.362 . S
H896 C902 0.930 . S
H897 C905 0.930 . S
H898 C906 0.930 . S
H899 C907 0.930 . S
H900 C910 0.930 . S
H901 C911 0.930 . S
C902 H896 0.930 . S
C902 C903 1.355 . S
C902 C904 1.415 . S
C903 C902 1.355 . S
C903 C905 1.419 . S
C904 C902 1.415 . S
C904 C909 1.425 1_554 S
C904 C911 1.409 1_554 S
C905 H897 0.930 . S
C905 C903 1.419 . S
C905 C906 1.362 . S
C906 H898 0.930 . S
C906 C905 1.362 . S
C906 C909 1.409 1_554 S
C907 H899 0.930 . S
C907 C908 1.355 . S
C907 C909 1.415 . S
C908 C907 1.355 . S
C908 C910 1.419 . S
C909 C904 1.425 1_556 S
C909 C906 1.409 1_556 S
C909 C907 1.415 . S
C910 H900 0.930 . S
C910 C908 1.419 . S
C910 C911 1.362 . S
C911 H901 0.930 . S
C911 C904 1.409 1_556 S
C911 C910 1.362 . S
H912 C918 0.930 . S
H913 C921 0.930 . S
H914 C922 0.930 . S
H915 C923 0.930 . S
H916 C926 0.930 . S
H917 C927 0.930 . S
C918 H912 0.930 . S
C918 C919 1.355 . S
C918 C920 1.415 . S
C919 C918 1.355 . S
C919 C921 1.419 . S
C920 C918 1.415 . S
C920 C925 1.425 1_556 S
C920 C927 1.409 1_556 S
C921 H913 0.930 . S
C921 C919 1.419 . S
C921 C922 1.362 . S
C922 H914 0.930 . S
C922 C921 1.362 . S
C922 C925 1.409 1_556 S
C923 H915 0.930 . S
C923 C924 1.355 . S
C923 C925 1.415 . S
C924 C923 1.355 . S
C924 C926 1.419 . S
C925 C920 1.425 1_554 S
C925 C922 1.409 1_554 S
C925 C923 1.415 . S
C926 H916 0.930 . S
C926 C924 1.419 . S
C926 C927 1.362 . S
C927 H917 0.930 . S
C927 C920 1.409 1_554 S
C927 C926 1.362 . S
H928 C934 0.930 . S
H929 C937 0.930 . S
H930 C938 0.930 . S
H931 C939 0.930 . S
H932 C942 0.930 . S
H933 C943 0.930 . S
C934 H928 0.930 . S
C934 C935 1.355 . S
C934 C936 1.415 . S
C935 C934 1.355 . S
C935 C937 1.419 . S
C936 C934 1.415 . S
C936 C941 1.425 1_545 S
C936 C943 1.409 . S
C937 H929 0.930 . S
C937 C935 1.419 . S
C937 C938 1.362 1_545 S
C938 H930 0.930 . S
C938 C937 1.362 1_565 S
C938 C941 1.409 . S
C939 H931 0.930 . S
C939 C940 1.355 . S
C939 C941 1.415 . S
C940 C939 1.355 . S
C940 C942 1.419 . S
C941 C936 1.425 1_565 S
C941 C938 1.409 . S
C941 C939 1.415 . S
C942 H932 0.930 . S
C942 C940 1.419 . S
C942 C943 1.362 1_565 S
C943 H933 0.930 . S
C943 C936 1.409 . S
C943 C942 1.362 1_545 S
H944 C950 0.930 . S
H945 C953 0.930 . S
H946 C954 0.930 . S
H947 C955 0.930 . S
H948 C958 0.930 . S
H949 C959 0.930 . S
C950 H944 0.930 . S
C950 C951 1.355 . S
C950 C952 1.415 . S
C951 C950 1.355 . S
C951 C953 1.419 . S
C952 C950 1.415 . S
C952 C957 1.425 1_655 S
C952 C959 1.409 . S
C953 H945 0.930 . S
C953 C951 1.419 . S
C953 C954 1.362 1_655 S
C954 H946 0.930 . S
C954 C953 1.362 1_455 S
C954 C957 1.409 . S
C955 H947 0.930 . S
C955 C956 1.355 . S
C955 C957 1.415 . S
C956 C955 1.355 . S
C956 C958 1.419 . S
C957 C952 1.425 1_455 S
C957 C954 1.409 . S
C957 C955 1.415 . S
C958 H948 0.930 . S
C958 C956 1.419 . S
C958 C959 1.362 1_455 S
C959 H949 0.930 . S
C959 C952 1.409 . S
C959 C958 1.362 1_655 S
H960 C966 0.930 . S
H961 C969 0.930 . S
H962 C970 0.930 . S
H963 C971 0.930 . S
H964 C974 0.930 . S
H965 C975 0.930 . S
C966 H960 0.930 . S
C966 C967 1.355 . S
C966 C968 1.415 . S
C967 C966 1.355 . S
C967 C969 1.419 . S
C968 C966 1.415 . S
C968 C973 1.425 1_545 S
C968 C975 1.408 1_545 S
C969 H961 0.930 . S
C969 C967 1.419 . S
C969 C970 1.362 . S
C970 H962 0.930 . S
C970 C969 1.362 . S
C970 C973 1.408 1_545 S
C971 H963 0.930 . S
C971 C972 1.355 . S
C971 C973 1.415 . S
C972 C971 1.355 . S
C972 C974 1.419 . S
C973 C968 1.425 1_565 S
C973 C970 1.408 1_565 S
C973 C971 1.415 . S
C974 H964 0.930 . S
C974 C972 1.419 . S
C974 C975 1.362 . S
C975 H965 0.930 . S
C975 C968 1.408 1_565 S
C975 C974 1.362 . S
H976 C982 0.930 . S
H977 C985 0.930 . S
H978 C986 0.930 . S
H979 C987 0.930 . S
H980 C990 0.930 . S
H981 C991 0.930 . S
C982 H976 0.930 . S
C982 C983 1.355 . S
C982 C984 1.415 1_455 S
C983 C982 1.355 . S
C983 C985 1.419 . S
C984 C982 1.415 1_655 S
C984 C989 1.425 1_655 S
C984 C991 1.409 . S
C985 H977 0.930 . S
C985 C983 1.419 . S
C985 C986 1.362 . S
C986 H978 0.930 . S
C986 C985 1.362 . S
C986 C989 1.409 . S
C987 H979 0.930 . S
C987 C988 1.355 . S
C987 C989 1.415 1_655 S
C988 C987 1.355 . S
C988 C990 1.419 . S
C989 C984 1.425 1_455 S
C989 C986 1.409 . S
C989 C987 1.415 1_455 S
C990 H980 0.930 . S
C990 C988 1.419 . S
C990 C991 1.362 . S
C991 H981 0.930 . S
C991 C984 1.409 . S
C991 C990 1.362 . S
H992 C998 0.930 . S
H993 C1001 0.930 . S
H994 C1002 0.930 . S
H995 C1003 0.930 . S
H996 C1006 0.930 . S
H997 C1007 0.930 . S
C998 H992 0.930 . S
C998 C999 1.355 . S
C998 C1000 1.415 1_565 S
C999 C998 1.355 . S
C999 C1001 1.419 . S
C1000 C998 1.415 1_545 S
C1000 C1005 1.425 1_545 S
C1000 C1007 1.409 . S
C1001 H993 0.930 . S
C1001 C999 1.419 . S
C1001 C1002 1.362 . S
C1002 H994 0.930 . S
C1002 C1001 1.362 . S
C1002 C1005 1.409 . S
C1003 H995 0.930 . S
C1003 C1004 1.355 . S
C1003 C1005 1.415 1_545 S
C1004 C1003 1.355 . S
C1004 C1006 1.419 . S
C1005 C1000 1.425 1_565 S
C1005 C1002 1.409 . S
C1005 C1003 1.415 1_565 S
C1006 H996 0.930 . S
C1006 C1004 1.419 . S
C1006 C1007 1.362 . S
C1007 H997 0.930 . S
C1007 C1000 1.409 . S
C1007 C1006 1.362 . S
H1008 C1014 0.930 . S
H1009 C1017 0.930 . S
H1010 C1018 0.930 . S
H1011 C1019 0.930 . S
H1012 C1022 0.930 . S
H1013 C1023 0.930 . S
C1014 H1008 0.930 . S
C1014 C1015 1.355 . S
C1014 C1016 1.415 1_655 S
C1015 C1014 1.355 . S
C1015 C1017 1.419 . S
C1016 C1014 1.415 1_455 S
C1016 C1021 1.425 1_455 S
C1016 C1023 1.409 . S
C1017 H1009 0.930 . S
C1017 C1015 1.419 . S
C1017 C1018 1.362 . S
C1018 H1010 0.930 . S
C1018 C1017 1.362 . S
C1018 C1021 1.409 . S
C1019 H1011 0.930 . S
C1019 C1020 1.355 . S
C1019 C1021 1.415 1_455 S
C1020 C1019 1.355 . S
C1020 C1022 1.419 . S
C1021 C1016 1.425 1_655 S
C1021 C1018 1.409 . S
C1021 C1019 1.415 1_655 S
C1022 H1012 0.930 . S
C1022 C1020 1.419 . S
C1022 C1023 1.362 . S
C1023 H1013 0.930 . S
C1023 C1016 1.409 . S
C1023 C1022 1.362 . S
H1024 C1030 0.930 . S
H1025 C1033 0.930 . S
H1026 C1034 0.930 1_545 S
H1027 C1035 0.930 . S
H1028 C1038 0.930 . S
H1029 C1039 0.930 1_565 S
C1030 H1024 0.930 . S
C1030 C1031 1.355 . S
C1030 C1032 1.415 . S
C1031 C1030 1.355 . S
C1031 C1033 1.419 . S
C1032 C1030 1.415 . S
C1032 C1037 1.425 1_565 S
C1032 C1039 1.409 1_565 S
C1033 H1025 0.930 . S
C1033 C1031 1.419 . S
C1033 C1034 1.362 . S
C1034 H1026 0.930 1_565 S
C1034 C1033 1.362 . S
C1034 C1037 1.409 1_565 S
C1035 H1027 0.930 . S
C1035 C1036 1.355 . S
C1035 C1037 1.415 . S
C1036 C1035 1.355 . S
C1036 C1038 1.419 . S
C1037 C1032 1.425 1_545 S
C1037 C1034 1.409 1_545 S
C1037 C1035 1.415 . S
C1038 H1028 0.930 . S
C1038 C1036 1.419 . S
C1038 C1039 1.362 . S
C1039 H1029 0.930 1_545 S
C1039 C1032 1.409 1_545 S
C1039 C1038 1.362 . S
H1040 C1046 0.930 . S
H1041 C1049 0.930 . S
H1042 C1050 0.930 . S
H1043 C1051 0.930 . S
H1044 C1054 0.930 . S
H1045 C1055 0.930 . S
C1046 H1040 0.930 . S
C1046 C1047 1.355 . S
C1046 C1048 1.415 . S
C1047 C1046 1.355 . S
C1047 C1049 1.419 . S
C1048 C1046 1.415 . S
C1048 C1053 1.425 1_655 S
C1048 C1055 1.409 . S
C1049 H1041 0.930 . S
C1049 C1047 1.419 . S
C1049 C1050 1.362 1_655 S
C1050 H1042 0.930 . S
C1050 C1049 1.362 1_455 S
C1050 C1053 1.409 . S
C1051 H1043 0.930 . S
C1051 C1052 1.355 . S
C1051 C1053 1.415 . S
C1052 C1051 1.355 . S
C1052 C1054 1.419 . S
C1053 C1048 1.425 1_455 S
C1053 C1050 1.409 . S
C1053 C1051 1.415 . S
C1054 H1044 0.930 . S
C1054 C1052 1.419 . S
C1054 C1055 1.362 1_455 S
C1055 H1045 0.930 . S
C1055 C1048 1.409 . S
C1055 C1054 1.362 1_655 S
H1056 C1062 0.930 . S
H1057 C1065 0.930 . S
H1058 C1066 0.930 . S
H1059 C1067 0.930 . S
H1060 C1070 0.930 . S
H1061 C1071 0.930 . S
C1062 H1056 0.930 . S
C1062 C1063 1.355 . S
C1062 C1064 1.415 . S
C1063 C1062 1.355 . S
C1063 C1065 1.419 . S
C1064 C1062 1.415 . S
C1064 C1069 1.425 . S
C1064 C1071 1.409 . S
C1065 H1057 0.930 . S
C1065 C1063 1.419 . S
C1065 C1066 1.362 . S
C1066 H1058 0.930 . S
C1066 C1065 1.362 . S
C1066 C1069 1.409 . S
C1067 H1059 0.930 . S
C1067 C1068 1.355 . S
C1067 C1069 1.415 . S
C1068 C1067 1.355 . S
C1068 C1070 1.419 . S
C1069 C1064 1.425 . S
C1069 C1066 1.409 . S
C1069 C1067 1.415 . S
C1070 H1060 0.930 . S
C1070 C1068 1.419 . S
C1070 C1071 1.362 . S
C1071 H1061 0.930 . S
C1071 C1064 1.409 . S
C1071 C1070 1.362 . S
H1072 C1078 0.930 . S
H1073 C1081 0.930 . S
H1074 C1082 0.930 . S
H1075 C1083 0.930 . S
H1076 C1086 0.930 . S
H1077 C1087 0.930 . S
C1078 H1072 0.930 . S
C1078 C1079 1.355 . S
C1078 C1080 1.415 . S
C1079 C1078 1.355 . S
C1079 C1081 1.419 . S
C1080 C1078 1.415 . S
C1080 C1085 1.425 . S
C1080 C1087 1.409 . S
C1081 H1073 0.930 . S
C1081 C1079 1.419 . S
C1081 C1082 1.362 . S
C1082 H1074 0.930 . S
C1082 C1081 1.362 . S
C1082 C1085 1.409 . S
C1083 H1075 0.930 . S
C1083 C1084 1.355 . S
C1083 C1085 1.415 . S
C1084 C1083 1.355 . S
C1084 C1086 1.419 . S
C1085 C1080 1.425 . S
C1085 C1082 1.409 . S
C1085 C1083 1.415 . S
C1086 H1076 0.930 . S
C1086 C1084 1.419 . S
C1086 C1087 1.362 . S
C1087 H1077 0.930 . S
C1087 C1080 1.409 . S
C1087 C1086 1.362 . S
H1088 C1094 0.930 . S
H1089 C1097 0.930 . S
H1090 C1098 0.930 . S
H1091 C1099 0.930 . S
H1092 C1102 0.930 . S
H1093 C1103 0.930 . S
C1094 H1088 0.930 . S
C1094 C1095 1.355 . S
C1094 C1096 1.415 . S
C1095 C1094 1.355 . S
C1095 C1097 1.419 . S
C1096 C1094 1.415 . S
C1096 C1101 1.425 . S
C1096 C1103 1.409 . S
C1097 H1089 0.930 . S
C1097 C1095 1.419 . S
C1097 C1098 1.362 . S
C1098 H1090 0.930 . S
C1098 C1097 1.362 . S
C1098 C1101 1.409 . S
C1099 H1091 0.930 . S
C1099 C1100 1.355 . S
C1099 C1101 1.415 . S
C1100 C1099 1.355 . S
C1100 C1102 1.419 . S
C1101 C1096 1.425 . S
C1101 C1098 1.409 . S
C1101 C1099 1.415 . S
C1102 H1092 0.930 . S
C1102 C1100 1.419 . S
C1102 C1103 1.362 . S
C1103 H1093 0.930 . S
C1103 C1096 1.409 . S
C1103 C1102 1.362 . S
H1104 C1110 0.930 . S
H1105 C1113 0.930 . S
H1106 C1114 0.930 . S
H1107 C1115 0.930 . S
H1108 C1118 0.930 . S
H1109 C1119 0.930 . S
C1110 H1104 0.930 . S
C1110 C1111 1.355 . S
C1110 C1112 1.415 . S
C1111 C1110 1.355 . S
C1111 C1113 1.419 . S
C1112 C1110 1.415 . S
C1112 C1117 1.425 . S
C1112 C1119 1.409 . S
C1113 H1105 0.930 . S
C1113 C1111 1.419 . S
C1113 C1114 1.362 . S
C1114 H1106 0.930 . S
C1114 C1113 1.362 . S
C1114 C1117 1.409 . S
C1115 H1107 0.930 . S
C1115 C1116 1.355 . S
C1115 C1117 1.415 . S
C1116 C1115 1.355 . S
C1116 C1118 1.419 . S
C1117 C1112 1.425 . S
C1117 C1114 1.409 . S
C1117 C1115 1.415 . S
C1118 H1108 0.930 . S
C1118 C1116 1.419 . S
C1118 C1119 1.362 . S
C1119 H1109 0.930 . S
C1119 C1112 1.409 . S
C1119 C1118 1.362 . S
H1120 C1126 0.930 . S
H1121 C1129 0.930 . S
H1122 C1130 0.930 . S
H1123 C1131 0.930 . S
H1124 C1134 0.930 . S
H1125 C1135 0.930 . S
C1126 H1120 0.930 . S
C1126 C1127 1.355 . S
C1126 C1128 1.415 . S
C1127 C1126 1.355 . S
C1127 C1129 1.419 . S
C1128 C1126 1.415 . S
C1128 C1133 1.425 . S
C1128 C1135 1.409 . S
C1129 H1121 0.930 . S
C1129 C1127 1.419 . S
C1129 C1130 1.362 . S
C1130 H1122 0.930 . S
C1130 C1129 1.362 . S
C1130 C1133 1.409 . S
C1131 H1123 0.930 . S
C1131 C1132 1.355 . S
C1131 C1133 1.415 . S
C1132 C1131 1.355 . S
C1132 C1134 1.419 . S
C1133 C1128 1.425 . S
C1133 C1130 1.409 . S
C1133 C1131 1.415 . S
C1134 H1124 0.930 . S
C1134 C1132 1.419 . S
C1134 C1135 1.362 . S
C1135 H1125 0.930 . S
C1135 C1128 1.409 . S
C1135 C1134 1.362 . S
H1136 C1142 0.930 . S
H1137 C1145 0.930 . S
H1138 C1146 0.930 . S
H1139 C1147 0.930 . S
H1140 C1150 0.930 . S
H1141 C1151 0.930 . S
C1142 H1136 0.930 . S
C1142 C1143 1.355 . S
C1142 C1144 1.415 . S
C1143 C1142 1.355 . S
C1143 C1145 1.419 . S
C1144 C1142 1.415 . S
C1144 C1149 1.425 . S
C1144 C1151 1.409 . S
C1145 H1137 0.930 . S
C1145 C1143 1.419 . S
C1145 C1146 1.362 . S
C1146 H1138 0.930 . S
C1146 C1145 1.362 . S
C1146 C1149 1.409 . S
C1147 H1139 0.930 . S
C1147 C1148 1.355 . S
C1147 C1149 1.415 . S
C1148 C1147 1.355 . S
C1148 C1150 1.419 . S
C1149 C1144 1.425 . S
C1149 C1146 1.409 . S
C1149 C1147 1.415 . S
C1150 H1140 0.930 . S
C1150 C1148 1.419 . S
C1150 C1151 1.362 . S
C1151 H1141 0.930 . S
C1151 C1144 1.409 . S
C1151 C1150 1.362 . S
H1152 C1158 0.930 . S
H1153 C1161 0.930 . S
H1154 C1162 0.930 . S
H1155 C1163 0.930 . S
H1156 C1166 0.930 . S
H1157 C1167 0.930 . S
C1158 H1152 0.930 . S
C1158 C1159 1.355 . S
C1158 C1160 1.415 . S
C1159 C1158 1.355 . S
C1159 C1161 1.419 . S
C1160 C1158 1.415 . S
C1160 C1165 1.425 . S
C1160 C1167 1.409 . S
C1161 H1153 0.930 . S
C1161 C1159 1.419 . S
C1161 C1162 1.362 . S
C1162 H1154 0.930 . S
C1162 C1161 1.362 . S
C1162 C1165 1.409 . S
C1163 H1155 0.930 . S
C1163 C1164 1.355 . S
C1163 C1165 1.415 . S
C1164 C1163 1.355 . S
C1164 C1166 1.419 . S
C1165 C1160 1.425 . S
C1165 C1162 1.409 . S
C1165 C1163 1.415 . S
C1166 H1156 0.930 . S
C1166 C1164 1.419 . S
C1166 C1167 1.362 . S
C1167 H1157 0.930 . S
C1167 C1160 1.409 . S
C1167 C1166 1.362 . S
H1168 C1174 0.930 . S
H1169 C1177 0.930 . S
H1170 C1178 0.930 . S
H1171 C1179 0.930 . S
H1172 C1182 0.930 . S
H1173 C1183 0.930 . S
C1174 H1168 0.930 . S
C1174 C1175 1.355 . S
C1174 C1176 1.415 . S
C1175 C1174 1.355 . S
C1175 C1177 1.419 . S
C1176 C1174 1.415 . S
C1176 C1181 1.425 . S
C1176 C1183 1.409 . S
C1177 H1169 0.930 . S
C1177 C1175 1.419 . S
C1177 C1178 1.362 . S
C1178 H1170 0.930 . S
C1178 C1177 1.362 . S
C1178 C1181 1.409 . S
C1179 H1171 0.930 . S
C1179 C1180 1.355 . S
C1179 C1181 1.415 . S
C1180 C1179 1.355 . S
C1180 C1182 1.419 . S
C1181 C1176 1.425 . S
C1181 C1178 1.409 . S
C1181 C1179 1.415 . S
C1182 H1172 0.930 . S
C1182 C1180 1.419 . S
C1182 C1183 1.362 . S
C1183 H1173 0.930 . S
C1183 C1176 1.409 . S
C1183 C1182 1.362 . S
H1184 C1190 0.930 . S
H1185 C1193 0.930 . S
H1186 C1194 0.930 . S
H1187 C1195 0.930 . S
H1188 C1198 0.930 . S
H1189 C1199 0.930 . S
C1190 H1184 0.930 . S
C1190 C1191 1.355 . S
C1190 C1192 1.415 . S
C1191 C1190 1.355 . S
C1191 C1193 1.419 . S
C1192 C1190 1.415 . S
C1192 C1197 1.425 . S
C1192 C1199 1.409 . S
C1193 H1185 0.930 . S
C1193 C1191 1.419 . S
C1193 C1194 1.362 . S
C1194 H1186 0.930 . S
C1194 C1193 1.362 . S
C1194 C1197 1.409 . S
C1195 H1187 0.930 . S
C1195 C1196 1.355 . S
C1195 C1197 1.415 . S
C1196 C1195 1.355 . S
C1196 C1198 1.419 . S
C1197 C1192 1.425 . S
C1197 C1194 1.409 . S
C1197 C1195 1.415 . S
C1198 H1188 0.930 . S
C1198 C1196 1.419 . S
C1198 C1199 1.362 . S
C1199 H1189 0.930 . S
C1199 C1192 1.409 . S
C1199 C1198 1.362 . S
H1200 C1206 0.930 . S
H1201 C1209 0.930 . S
H1202 C1210 0.930 . S
H1203 C1211 0.930 . S
H1204 C1214 0.930 . S
H1205 C1215 0.930 . S
C1206 H1200 0.930 . S
C1206 C1207 1.355 . S
C1206 C1208 1.415 . S
C1207 C1206 1.355 . S
C1207 C1209 1.419 . S
C1208 C1206 1.415 . S
C1208 C1213 1.425 . S
C1208 C1215 1.409 . S
C1209 H1201 0.930 . S
C1209 C1207 1.419 . S
C1209 C1210 1.362 . S
C1210 H1202 0.930 . S
C1210 C1209 1.362 . S
C1210 C1213 1.409 . S
C1211 H1203 0.930 . S
C1211 C1212 1.355 . S
C1211 C1213 1.415 . S
C1212 C1211 1.355 . S
C1212 C1214 1.419 . S
C1213 C1208 1.425 . S
C1213 C1210 1.409 . S
C1213 C1211 1.415 . S
C1214 H1204 0.930 . S
C1214 C1212 1.419 . S
C1214 C1215 1.362 . S
C1215 H1205 0.930 . S
C1215 C1208 1.409 . S
C1215 C1214 1.362 . S
H1216 C1222 0.930 . S
H1217 C1225 0.930 . S
H1218 C1226 0.930 . S
H1219 C1227 0.930 . S
H1220 C1230 0.930 . S
H1221 C1231 0.930 . S
C1222 H1216 0.930 . S
C1222 C1223 1.355 . S
C1222 C1224 1.415 . S
C1223 C1222 1.355 . S
C1223 C1225 1.419 . S
C1224 C1222 1.415 . S
C1224 C1229 1.425 . S
C1224 C1231 1.409 . S
C1225 H1217 0.930 . S
C1225 C1223 1.419 . S
C1225 C1226 1.362 . S
C1226 H1218 0.930 . S
C1226 C1225 1.362 . S
C1226 C1229 1.409 . S
C1227 H1219 0.930 . S
C1227 C1228 1.355 . S
C1227 C1229 1.415 . S
C1228 C1227 1.355 . S
C1228 C1230 1.419 . S
C1229 C1224 1.425 . S
C1229 C1226 1.409 . S
C1229 C1227 1.415 . S
C1230 H1220 0.930 . S
C1230 C1228 1.419 . S
C1230 C1231 1.362 . S
C1231 H1221 0.930 . S
C1231 C1224 1.409 . S
C1231 C1230 1.362 . S
H1232 C1238 0.930 . S
H1233 C1241 0.930 . S
H1234 C1242 0.930 . S
H1235 C1243 0.930 . S
H1236 C1246 0.930 . S
H1237 C1247 0.930 . S
C1238 H1232 0.930 . S
C1238 C1239 1.355 . S
C1238 C1240 1.415 . S
C1239 C1238 1.355 . S
C1239 C1241 1.419 . S
C1240 C1238 1.415 . S
C1240 C1245 1.425 . S
C1240 C1247 1.409 . S
C1241 H1233 0.930 . S
C1241 C1239 1.419 . S
C1241 C1242 1.362 . S
C1242 H1234 0.930 . S
C1242 C1241 1.362 . S
C1242 C1245 1.409 . S
C1243 H1235 0.930 . S
C1243 C1244 1.355 . S
C1243 C1245 1.415 . S
C1244 C1243 1.355 . S
C1244 C1246 1.419 . S
C1245 C1240 1.425 . S
C1245 C1242 1.409 . S
C1245 C1243 1.415 . S
C1246 H1236 0.930 . S
C1246 C1244 1.419 . S
C1246 C1247 1.362 . S
C1247 H1237 0.930 . S
C1247 C1240 1.409 . S
C1247 C1246 1.362 . S
H1248 C1254 0.930 . S
H1249 C1257 0.930 . S
H1250 C1258 0.930 . S
H1251 C1259 0.930 . S
H1252 C1262 0.930 . S
H1253 C1263 0.930 . S
C1254 H1248 0.930 . S
C1254 C1255 1.355 . S
C1254 C1256 1.415 . S
C1255 C1254 1.355 . S
C1255 C1257 1.419 . S
C1256 C1254 1.415 . S
C1256 C1261 1.425 . S
C1256 C1263 1.409 . S
C1257 H1249 0.930 . S
C1257 C1255 1.419 . S
C1257 C1258 1.362 . S
C1258 H1250 0.930 . S
C1258 C1257 1.362 . S
C1258 C1261 1.409 . S
C1259 H1251 0.930 . S
C1259 C1260 1.355 . S
C1259 C1261 1.415 . S
C1260 C1259 1.355 . S
C1260 C1262 1.419 . S
C1261 C1256 1.425 . S
C1261 C1258 1.409 . S
C1261 C1259 1.415 . S
C1262 H1252 0.930 . S
C1262 C1260 1.419 . S
C1262 C1263 1.362 . S
C1263 H1253 0.930 . S
C1263 C1256 1.409 . S
C1263 C1262 1.362 . S
H1264 C1270 0.930 . S
H1265 C1273 0.930 . S
H1266 C1274 0.930 . S
H1267 C1275 0.930 . S
H1268 C1278 0.930 . S
H1269 C1279 0.930 . S
C1270 H1264 0.930 . S
C1270 C1271 1.355 . S
C1270 C1272 1.415 . S
C1271 C1270 1.355 . S
C1271 C1273 1.419 . S
C1272 C1270 1.415 . S
C1272 C1277 1.425 . S
C1272 C1279 1.409 . S
C1273 H1265 0.930 . S
C1273 C1271 1.419 . S
C1273 C1274 1.362 . S
C1274 H1266 0.930 . S
C1274 C1273 1.362 . S
C1274 C1277 1.409 . S
C1275 H1267 0.930 . S
C1275 C1276 1.355 . S
C1275 C1277 1.415 . S
C1276 C1275 1.355 . S
C1276 C1278 1.419 . S
C1277 C1272 1.425 . S
C1277 C1274 1.409 . S
C1277 C1275 1.415 . S
C1278 H1268 0.930 . S
C1278 C1276 1.419 . S
C1278 C1279 1.362 . S
C1279 H1269 0.930 . S
C1279 C1272 1.409 . S
C1279 C1278 1.362 . S
H1280 C1286 0.930 . S
H1281 C1289 0.930 . S
H1282 C1290 0.930 . S
H1283 C1291 0.930 . S
H1284 C1294 0.930 . S
H1285 C1295 0.930 . S
C1286 H1280 0.930 . S
C1286 C1287 1.355 . S
C1286 C1288 1.415 . S
C1287 C1286 1.355 . S
C1287 C1289 1.419 . S
C1288 C1286 1.415 . S
C1288 C1293 1.425 . S
C1288 C1295 1.409 . S
C1289 H1281 0.930 . S
C1289 C1287 1.419 . S
C1289 C1290 1.362 . S
C1290 H1282 0.930 . S
C1290 C1289 1.362 . S
C1290 C1293 1.409 . S
C1291 H1283 0.930 . S
C1291 C1292 1.355 . S
C1291 C1293 1.415 . S
C1292 C1291 1.355 . S
C1292 C1294 1.419 . S
C1293 C1288 1.425 . S
C1293 C1290 1.409 . S
C1293 C1291 1.415 . S
C1294 H1284 0.930 . S
C1294 C1292 1.419 . S
C1294 C1295 1.362 . S
C1295 H1285 0.930 . S
C1295 C1288 1.409 . S
C1295 C1294 1.362 . S
H1296 C1302 0.930 . S
H1297 C1305 0.930 . S
H1298 C1306 0.930 . S
H1299 C1307 0.930 . S
H1300 C1310 0.930 . S
H1301 C1311 0.930 . S
C1302 H1296 0.930 . S
C1302 C1303 1.355 . S
C1302 C1304 1.415 . S
C1303 C1302 1.355 . S
C1303 C1305 1.419 . S
C1304 C1302 1.415 . S
C1304 C1309 1.425 . S
C1304 C1311 1.409 . S
C1305 H1297 0.930 . S
C1305 C1303 1.419 . S
C1305 C1306 1.362 . S
C1306 H1298 0.930 . S
C1306 C1305 1.362 . S
C1306 C1309 1.409 . S
C1307 H1299 0.930 . S
C1307 C1308 1.355 . S
C1307 C1309 1.415 . S
C1308 C1307 1.355 . S
C1308 C1310 1.419 . S
C1309 C1304 1.425 . S
C1309 C1306 1.409 . S
C1309 C1307 1.415 . S
C1310 H1300 0.930 . S
C1310 C1308 1.419 . S
C1310 C1311 1.362 . S
C1311 H1301 0.930 . S
C1311 C1304 1.409 . S
C1311 C1310 1.362 . S
H1312 C1318 0.930 . S
H1313 C1321 0.930 . S
H1314 C1322 0.930 . S
H1315 C1323 0.930 . S
H1316 C1326 0.930 . S
H1317 C1327 0.930 . S
C1318 H1312 0.930 . S
C1318 C1319 1.355 . S
C1318 C1320 1.415 . S
C1319 C1318 1.355 . S
C1319 C1321 1.419 . S
C1320 C1318 1.415 . S
C1320 C1325 1.425 . S
C1320 C1327 1.409 . S
C1321 H1313 0.930 . S
C1321 C1319 1.419 . S
C1321 C1322 1.362 . S
C1322 H1314 0.930 . S
C1322 C1321 1.362 . S
C1322 C1325 1.409 . S
C1323 H1315 0.930 . S
C1323 C1324 1.355 . S
C1323 C1325 1.415 . S
C1324 C1323 1.355 . S
C1324 C1326 1.419 . S
C1325 C1320 1.425 . S
C1325 C1322 1.409 . S
C1325 C1323 1.415 . S
C1326 H1316 0.930 . S
C1326 C1324 1.419 . S
C1326 C1327 1.362 . S
C1327 H1317 0.930 . S
C1327 C1320 1.409 . S
C1327 C1326 1.362 . S
H1328 C1334 0.930 . S
H1329 C1337 0.930 . S
H1330 C1338 0.930 . S
H1331 C1339 0.930 . S
H1332 C1342 0.930 . S
H1333 C1343 0.930 . S
C1334 H1328 0.930 . S
C1334 C1335 1.355 . S
C1334 C1336 1.415 . S
C1335 C1334 1.355 . S
C1335 C1337 1.419 . S
C1336 C1334 1.415 . S
C1336 C1341 1.425 . S
C1336 C1343 1.409 . S
C1337 H1329 0.930 . S
C1337 C1335 1.419 . S
C1337 C1338 1.362 . S
C1338 H1330 0.930 . S
C1338 C1337 1.362 . S
C1338 C1341 1.409 . S
C1339 H1331 0.930 . S
C1339 C1340 1.355 . S
C1339 C1341 1.415 . S
C1340 C1339 1.355 . S
C1340 C1342 1.419 . S
C1341 C1336 1.425 . S
C1341 C1338 1.409 . S
C1341 C1339 1.415 . S
C1342 H1332 0.930 . S
C1342 C1340 1.419 . S
C1342 C1343 1.362 . S
C1343 H1333 0.930 . S
C1343 C1336 1.409 . S
C1343 C1342 1.362 . S
H1344 C1350 0.930 . S
H1345 C1353 0.930 . S
H1346 C1354 0.930 . S
H1347 C1355 0.930 . S
H1348 C1358 0.930 . S
H1349 C1359 0.930 . S
C1350 H1344 0.930 . S
C1350 C1351 1.355 . S
C1350 C1352 1.415 . S
C1351 C1350 1.355 . S
C1351 C1353 1.419 . S
C1352 C1350 1.415 . S
C1352 C1357 1.425 . S
C1352 C1359 1.409 . S
C1353 H1345 0.930 . S
C1353 C1351 1.419 . S
C1353 C1354 1.362 . S
C1354 H1346 0.930 . S
C1354 C1353 1.362 . S
C1354 C1357 1.409 . S
C1355 H1347 0.930 . S
C1355 C1356 1.355 . S
C1355 C1357 1.415 . S
C1356 C1355 1.355 . S
C1356 C1358 1.419 . S
C1357 C1352 1.425 . S
C1357 C1354 1.409 . S
C1357 C1355 1.415 . S
C1358 H1348 0.930 . S
C1358 C1356 1.419 . S
C1358 C1359 1.362 . S
C1359 H1349 0.930 . S
C1359 C1352 1.409 . S
C1359 C1358 1.362 . S
H1360 C1366 0.930 . S
H1361 C1369 0.930 . S
H1362 C1370 0.930 . S
H1363 C1371 0.930 . S
H1364 C1374 0.930 . S
H1365 C1375 0.930 . S
C1366 H1360 0.930 . S
C1366 C1367 1.355 . S
C1366 C1368 1.415 . S
C1367 C1366 1.355 . S
C1367 C1369 1.419 . S
C1368 C1366 1.415 . S
C1368 C1373 1.425 . S
C1368 C1375 1.409 . S
C1369 H1361 0.930 . S
C1369 C1367 1.419 . S
C1369 C1370 1.362 . S
C1370 H1362 0.930 . S
C1370 C1369 1.362 . S
C1370 C1373 1.409 . S
C1371 H1363 0.930 . S
C1371 C1372 1.355 . S
C1371 C1373 1.415 . S
C1372 C1371 1.355 . S
C1372 C1374 1.419 . S
C1373 C1368 1.425 . S
C1373 C1370 1.409 . S
C1373 C1371 1.415 . S
C1374 H1364 0.930 . S
C1374 C1372 1.419 . S
C1374 C1375 1.362 . S
C1375 H1365 0.930 . S
C1375 C1368 1.409 . S
C1375 C1374 1.362 . S
H1376 C1382 0.930 . S
H1377 C1385 0.930 . S
H1378 C1386 0.930 . S
H1379 C1387 0.930 . S
H1380 C1390 0.930 . S
H1381 C1391 0.930 . S
C1382 H1376 0.930 . S
C1382 C1383 1.355 . S
C1382 C1384 1.415 . S
C1383 C1382 1.355 . S
C1383 C1385 1.419 . S
C1384 C1382 1.415 . S
C1384 C1389 1.425 . S
C1384 C1391 1.409 . S
C1385 H1377 0.930 . S
C1385 C1383 1.419 . S
C1385 C1386 1.362 . S
C1386 H1378 0.930 . S
C1386 C1385 1.362 . S
C1386 C1389 1.409 . S
C1387 H1379 0.930 . S
C1387 C1388 1.355 . S
C1387 C1389 1.415 . S
C1388 C1387 1.355 . S
C1388 C1390 1.419 . S
C1389 C1384 1.425 . S
C1389 C1386 1.409 . S
C1389 C1387 1.415 . S
C1390 H1380 0.930 . S
C1390 C1388 1.419 . S
C1390 C1391 1.362 . S
C1391 H1381 0.930 . S
C1391 C1384 1.409 . S
C1391 C1390 1.362 . S
H1392 C1398 0.930 . S
H1393 C1401 0.930 . S
H1394 C1402 0.930 . S
H1395 C1403 0.930 . S
H1396 C1406 0.930 . S
H1397 C1407 0.930 . S
C1398 H1392 0.930 . S
C1398 C1399 1.355 . S
C1398 C1400 1.415 . S
C1399 C1398 1.355 . S
C1399 C1401 1.419 . S
C1400 C1398 1.415 . S
C1400 C1405 1.425 . S
C1400 C1407 1.409 . S
C1401 H1393 0.930 . S
C1401 C1399 1.419 . S
C1401 C1402 1.362 . S
C1402 H1394 0.930 . S
C1402 C1401 1.362 . S
C1402 C1405 1.409 . S
C1403 H1395 0.930 . S
C1403 C1404 1.355 . S
C1403 C1405 1.415 . S
C1404 C1403 1.355 . S
C1404 C1406 1.419 . S
C1405 C1400 1.425 . S
C1405 C1402 1.409 . S
C1405 C1403 1.415 . S
C1406 H1396 0.930 . S
C1406 C1404 1.419 . S
C1406 C1407 1.362 . S
C1407 H1397 0.930 . S
C1407 C1400 1.409 . S
C1407 C1406 1.362 . S
H1408 C1414 0.930 . S
H1409 C1417 0.930 . S
H1410 C1418 0.930 . S
H1411 C1419 0.930 . S
H1412 C1422 0.930 . S
H1413 C1423 0.930 . S
C1414 H1408 0.930 . S
C1414 C1415 1.355 . S
C1414 C1416 1.415 . S
C1415 C1414 1.355 . S
C1415 C1417 1.419 . S
C1416 C1414 1.415 . S
C1416 C1421 1.425 . S
C1416 C1423 1.409 . S
C1417 H1409 0.930 . S
C1417 C1415 1.419 . S
C1417 C1418 1.362 . S
C1418 H1410 0.930 . S
C1418 C1417 1.362 . S
C1418 C1421 1.409 . S
C1419 H1411 0.930 . S
C1419 C1420 1.355 . S
C1419 C1421 1.415 . S
C1420 C1419 1.355 . S
C1420 C1422 1.419 . S
C1421 C1416 1.425 . S
C1421 C1418 1.409 . S
C1421 C1419 1.415 . S
C1422 H1412 0.930 . S
C1422 C1420 1.419 . S
C1422 C1423 1.362 . S
C1423 H1413 0.930 . S
C1423 C1416 1.409 . S
C1423 C1422 1.362 . S
H1424 C1430 0.930 . S
H1425 C1433 0.930 . S
H1426 C1434 0.930 . S
H1427 C1435 0.930 . S
H1428 C1438 0.930 . S
H1429 C1439 0.930 . S
C1430 H1424 0.930 . S
C1430 C1431 1.355 . S
C1430 C1432 1.415 . S
C1431 C1430 1.355 . S
C1431 C1433 1.419 . S
C1432 C1430 1.415 . S
C1432 C1437 1.425 . S
C1432 C1439 1.409 . S
C1433 H1425 0.930 . S
C1433 C1431 1.419 . S
C1433 C1434 1.362 . S
C1434 H1426 0.930 . S
C1434 C1433 1.362 . S
C1434 C1437 1.409 . S
C1435 H1427 0.930 . S
C1435 C1436 1.355 . S
C1435 C1437 1.415 . S
C1436 C1435 1.355 . S
C1436 C1438 1.419 . S
C1437 C1432 1.425 . S
C1437 C1434 1.409 . S
C1437 C1435 1.415 . S
C1438 H1428 0.930 . S
C1438 C1436 1.419 . S
C1438 C1439 1.362 . S
C1439 H1429 0.930 . S
C1439 C1432 1.409 . S
C1439 C1438 1.362 . S
C423 C382 1.656 . S
C428 C5 1.660 . S
C439 C18 1.663 . S
C444 C395 1.653 . S
C455 C408 1.650 . S
C460 C29 1.666 . S
C471 C367 1.656 . S
C476 C44 1.660 . S
C487 C57 1.665 . S
C492 C356 1.651 . S
C503 C317 1.659 . S
C508 C68 1.657 . S
C519 C83 1.650 . S
C524 C328 1.666 . S
C535 C343 1.666 . S
C540 C96 1.650 . S
C551 C109 1.666 . S
C556 C278 1.650 . S
C567 C120 1.650 . S
C572 C289 1.667 . S
C583 C304 1.653 . S
C588 C135 1.663 . S
C599 C148 1.663 . S
C604 C265 1.653 . S
C615 C250 1.663 . S
C620 C161 1.653 . S
C631 C213 1.653 . S
C636 C172 1.663 . S
C647 C187 1.662 . S
C652 C226 1.654 . S
C663 C200 1.654 . S
C668 C237 1.663 . S
C679 C3 1.394 . S
C684 C133 1.374 . S
C695 C146 1.391 . S
C700 C16 1.377 . S
C711 C107 1.373 . S
C716 C31 1.395 . S
C727 C122 1.372 . S
C732 C42 1.395 . S
C743 C55 1.375 . S
C748 C185 1.393 . S
C759 C198 1.372 . S
C764 C70 1.396 . S
C775 C159 1.374 . S
C780 C81 1.393 . S
C791 C174 1.378 . S
C796 C94 1.390 . S
C807 C211 1.389 . S
C812 C341 1.379 . S
C823 C354 1.386 . S
C828 C224 1.382 . S
C839 C315 1.387 . S
C844 C239 1.381 . S
C855 C252 1.392 . S
C860 C330 1.376 . S
C871 C263 1.389 . S
C876 C393 1.379 . S
C887 C406 1.383 . S
C892 C276 1.385 . S
C903 C369 1.386 . S
C908 C291 1.382 . S
C919 C302 1.375 . S
C924 C380 1.393 . S
C935 C4 1.651 . S
C940 C56 1.658 . S
C951 C17 1.666 . S
C956 C75 1.663 . S
C967 C82 1.650 . S
C972 C36 1.641 . S
C983 C43 1.624 . S
C988 C95 1.626 . S
C999 C108 1.624 . S
C1004 C160 1.626 . S
C1015 C179 1.625 . S
C1020 C127 1.624 . S
C1031 C186 1.653 . S
C1036 C134 1.660 . S
C1047 C147 1.662 . S
C1052 C199 1.655 . S
C1063 C212 1.666 . S
C1068 C264 1.667 . S
C1079 C277 1.629 . S
C1084 C225 1.625 . S
C1095 C244 1.665 . S
C1100 C296 1.667 . S
C1111 C303 1.633 . S
C1116 C257 1.641 . S
C1127 C374 1.658 . S
C1132 C316 1.650 . S
C1143 C335 1.628 . S
C1148 C381 1.634 . S
C1159 C342 1.647 . S
C1164 C394 1.639 . S
C1175 C355 1.661 . S
C1180 C407 1.653 . S
C1191 C10 1.416 . S
C1196 C69 1.435 . S
C1207 C23 1.437 . S
C1212 C88 1.425 . S
C1223 C101 1.416 . S
C1228 C30 1.435 . S
C1239 C62 1.420 . S
C1244 C49 1.437 . S
C1255 C173 1.415 . S
C1260 C114 1.431 . S
C1271 C192 1.415 . S
C1276 C121 1.433 . S
C1287 C205 1.415 . S
C1292 C140 1.434 . S
C1303 C153 1.432 . S
C1308 C166 1.415 . S
C1319 C218 1.415 . S
C1324 C283 1.430 . S
C1335 C290 1.432 . S
C1340 C231 1.415 . S
C1351 C309 1.416 . S
C1356 C238 1.426 . S
C1367 C251 1.434 . S
C1372 C270 1.430 . S
C1383 C387 1.423 . S
C1388 C322 1.437 . S
C1399 C329 1.436 . S
C1404 C400 1.427 . S
C1415 C348 1.421 . S
C1420 C413 1.420 . S
C1431 C368 1.417 . S
C1436 C361 1.436 . S
