# Generated by pormake.
# Topology smc, (6)-cn, num edge types: 1
# Building blocks:
#     Node 0, Type 0, BuildingBlock: NUHQIS_clean_sbu_0, # of connection points: 6
#     Node 1, Type 0, BuildingBlock: NUHQIS_clean_sbu_0, # of connection points: 6
#     Node 2, Type 0, BuildingBlock: NUHQIS_clean_sbu_0, # of connection points: 6
#     Node 3, Type 0, BuildingBlock: NUHQIS_clean_sbu_0, # of connection points: 6
#     Node 4, Type 0, BuildingBlock: NUHQIS_clean_sbu_0, # of connection points: 6
#     Node 5, Type 0, BuildingBlock: NUHQIS_clean_sbu_0, # of connection points: 6
#     Node 6, Type 0, BuildingBlock: NUHQIS_clean_sbu_0, # of connection points: 6
#     Node 7, Type 0, BuildingBlock: NUHQIS_clean_sbu_0, # of connection points: 6
#     Node 8, Type 0, BuildingBlock: NUHQIS_clean_sbu_0, # of connection points: 6
#     Edge 9, Type (0, 0), BuildingBlock: ZUJKAS_clean_linker_0, # of connection points: 2
#     Edge 10, Type (0, 0), BuildingBlock: ZUJKAS_clean_linker_0, # of connection points: 2
#     Edge 11, Type (0, 0), BuildingBlock: ZUJKAS_clean_linker_0, # of connection points: 2
#     Edge 12, Type (0, 0), BuildingBlock: ZUJKAS_clean_linker_0, # of connection points: 2
#     Edge 13, Type (0, 0), BuildingBlock: ZUJKAS_clean_linker_0, # of connection points: 2
#     Edge 14, Type (0, 0), BuildingBlock: ZUJKAS_clean_linker_0, # of connection points: 2
#     Edge 15, Type (0, 0), BuildingBlock: ZUJKAS_clean_linker_0, # of connection points: 2
#     Edge 16, Type (0, 0), BuildingBlock: ZUJKAS_clean_linker_0, # of connection points: 2
#     Edge 17, Type (0, 0), BuildingBlock: ZUJKAS_clean_linker_0, # of connection points: 2
#     Edge 18, Type (0, 0), BuildingBlock: ZUJKAS_clean_linker_0, # of connection points: 2
#     Edge 19, Type (0, 0), BuildingBlock: ZUJKAS_clean_linker_0, # of connection points: 2
#     Edge 20, Type (0, 0), BuildingBlock: ZUJKAS_clean_linker_0, # of connection points: 2
#     Edge 21, Type (0, 0), BuildingBlock: ZUJKAS_clean_linker_0, # of connection points: 2
#     Edge 22, Type (0, 0), BuildingBlock: ZUJKAS_clean_linker_0, # of connection points: 2
#     Edge 23, Type (0, 0), BuildingBlock: ZUJKAS_clean_linker_0, # of connection points: 2
#     Edge 24, Type (0, 0), BuildingBlock: ZUJKAS_clean_linker_0, # of connection points: 2
#     Edge 25, Type (0, 0), BuildingBlock: ZUJKAS_clean_linker_0, # of connection points: 2
#     Edge 26, Type (0, 0), BuildingBlock: ZUJKAS_clean_linker_0, # of connection points: 2
#     Edge 27, Type (0, 0), BuildingBlock: ZUJKAS_clean_linker_0, # of connection points: 2
#     Edge 28, Type (0, 0), BuildingBlock: ZUJKAS_clean_linker_0, # of connection points: 2
#     Edge 29, Type (0, 0), BuildingBlock: ZUJKAS_clean_linker_0, # of connection points: 2
#     Edge 30, Type (0, 0), BuildingBlock: ZUJKAS_clean_linker_0, # of connection points: 2
#     Edge 31, Type (0, 0), BuildingBlock: ZUJKAS_clean_linker_0, # of connection points: 2
#     Edge 32, Type (0, 0), BuildingBlock: ZUJKAS_clean_linker_0, # of connection points: 2
#     Edge 33, Type (0, 0), BuildingBlock: ZUJKAS_clean_linker_0, # of connection points: 2
#     Edge 34, Type (0, 0), BuildingBlock: ZUJKAS_clean_linker_0, # of connection points: 2
#     Edge 35, Type (0, 0), BuildingBlock: ZUJKAS_clean_linker_0, # of connection points: 2
# Relax obj value: 0.267
# Max RMSD: 0.347
# Mean RMSD: 0.306
data_MOF--net-smc--node1-NUHQIS_clean_sbu_0--edge1-ZUJKAS_clean_linker_0
_symmetry_space_group_name_H-M    P1
_symmetry_Int_Tables_number       1
_symmetry_cell_setting            triclinic
loop_
_symmetry_equiv_pos_as_xyz
'x, y, z'
_cell_length_a     51.70793
_cell_length_b     40.587995
_cell_length_c     52.232538
_cell_angle_alpha  91.569225
_cell_angle_beta   90.732318
_cell_angle_gamma 119.23058
loop_
_atom_site_label
_atom_site_type_symbol
_atom_site_fract_x
_atom_site_fract_y
_atom_site_fract_z
_atom_type_partial_charge
Tb0 Tb 0.05689 0.48431 0.02852 0.0
Eu1 Eu 0.07678 0.42227 1.01401 0.0
C2 C 0.09138 0.46322 0.06966 0.0
C3 C 0.12059 0.51139 1.00922 0.0
C4 C 1.00919 0.52642 0.04363 0.0
C5 C 0.9624 0.49964 0.06553 0.0
C6 C 0.98989 0.50193 0.0617 0.0
C7 C 1.00022 0.5478 0.02909 0.0
C8 C 0.97256 0.54511 0.03268 0.0
C9 C 0.95358 0.52132 0.05112 0.0
C10 C 1.03864 0.5301 0.03974 0.0
O11 O 1.03076 0.45344 0.99349 0.0
O12 O 0.06294 0.43587 0.97639 0.0
O13 O 1.02672 0.39105 1.01622 0.0
O14 O 1.02408 0.43242 0.04492 0.0
C15 C 1.04008 0.44144 0.97375 0.0
O16 O 0.10538 0.40394 0.99518 0.0
O17 O 0.06897 0.36479 1.01767 0.0
O18 O 0.08193 0.43091 0.05693 0.0
O19 O 0.08885 0.49091 0.05941 0.0
O20 O 0.09662 0.51443 1.00674 0.0
O21 O 0.11893 0.47968 1.01666 0.0
C22 C 1.01179 0.39931 0.03292 0.0
O23 O 0.04793 0.5149 0.05659 0.0
O24 O 1.04415 0.52351 1.01647 0.0
C25 C 0.11473 0.36602 0.0227 0.0
C26 C 0.16434 0.37873 0.05271 0.0
C27 C 0.16334 0.37119 0.02617 0.0
C28 C 0.1387 0.36509 1.0112 0.0
C29 C 0.11431 0.36886 0.04958 0.0
C30 C 0.13906 0.37548 0.06448 0.0
C31 C 0.09372 0.37202 1.00691 0.0
H32 H 0.94801 0.48093 0.07974 0.0
H33 H 0.99607 0.48475 0.07302 0.0
H34 H 1.01472 0.5668 1.01506 0.0
H35 H 0.96634 0.5624 0.02153 0.0
H36 H 0.18276 0.37394 1.01664 0.0
H37 H 0.13948 0.36297 0.99053 0.0
H38 H 0.09589 0.36918 0.05897 0.0
H39 H 0.13941 0.38119 0.08491 0.0
Tb40 Tb 0.56762 0.6132 0.99567 0.0
Eu41 Eu 0.62799 0.64589 0.02699 0.0
C42 C 0.62809 0.64323 0.96594 0.0
C43 C 0.59 0.55413 1.01009 0.0
C44 C 0.49457 0.60093 0.98252 0.0
C45 C 0.44278 0.58384 0.98299 0.0
C46 C 0.46585 0.58051 0.97188 0.0
C47 C 0.50058 0.62716 1.00294 0.0
C48 C 0.47748 0.6301 1.0143 0.0
C49 C 0.44823 0.6072 1.00509 0.0
C50 C 0.51696 0.59039 0.97565 0.0
O51 O 0.56307 0.62807 0.03631 0.0
O52 O 0.59175 0.60605 0.05098 0.0
O53 O 0.61394 0.69292 0.03054 0.0
O54 O 0.58327 0.67403 0.99511 0.0
C55 C 0.57266 0.617 0.05598 0.0
O56 O 0.65195 0.66276 0.06412 0.0
O57 O 0.67583 0.66997 0.02911 0.0
O58 O 0.64118 0.66338 0.98683 0.0
O59 O 0.59965 0.61749 0.96602 0.0
O60 O 0.56811 0.56009 1.00286 0.0
O61 O 0.61613 0.58339 1.01736 0.0
C62 C 0.59731 0.69923 1.0138 0.0
O63 O 0.54116 0.61687 0.96617 0.0
O64 O 0.5226 0.57276 0.99349 0.0
C65 C 0.69175 0.64986 0.06446 0.0
C66 C 0.72479 0.61514 0.07998 0.0
C67 C 0.72878 0.64847 0.09271 0.0
C68 C 0.71247 0.66581 0.08488 0.0
C69 C 0.68637 0.61545 0.05284 0.0
C70 C 0.70282 0.59842 0.06037 0.0
C71 C 0.67703 0.66989 0.05406 0.0
H72 H 0.42033 0.56552 0.97574 0.0
H73 H 0.46089 0.56006 0.95622 0.0
H74 H 0.52274 0.64323 1.01134 0.0
H75 H 0.48216 0.64821 0.03131 0.0
H76 H 0.74508 0.66175 0.10822 0.0
H77 H 0.71665 0.69217 0.09424 0.0
H78 H 0.67035 0.60256 0.03709 0.0
H79 H 0.69932 0.57321 0.04976 0.0
Tb80 Tb 0.54939 0.0988 0.03686 0.0
Eu81 Eu 0.48187 0.05414 1.01935 0.0
C82 C 0.498 0.07233 0.07609 0.0
C83 C 0.52219 1.01176 0.02494 0.0
C84 C 0.63287 0.16143 0.04968 0.0
C85 C 0.68237 0.2001 0.06846 0.0
C86 C 0.65205 0.17589 0.07124 0.0
C87 C 0.64416 0.17338 0.02529 0.0
C88 C 0.67454 0.19757 0.02247 0.0
C89 C 0.69414 0.21025 0.04397 0.0
C90 C 0.60279 0.12957 0.05288 0.0
O91 O 0.54699 0.11558 0.99704 0.0
O92 O 0.50693 0.06016 0.98376 0.0
O93 O 0.49479 0.11822 1.015 0.0
O94 O 0.54056 0.14648 0.03586 0.0
C95 C 0.52914 0.09289 0.97834 0.0
O96 O 0.44394 1.02885 0.99195 0.0
O97 O 0.43707 1.01885 0.03239 0.0
O98 O 0.48506 0.08067 0.05797 0.0
O99 O 0.52127 0.06887 0.06991 0.0
O100 O 0.54456 0.0454 0.02126 0.0
O101 O 0.49597 1.00899 0.02934 0.0
C102 C 0.51876 0.14938 0.02456 0.0
O103 O 0.58292 0.13607 0.06345 0.0
O104 O 0.59163 0.10468 0.03392 0.0
C105 C 0.40453 0.96918 1.00421 0.0
C106 C 0.3639 0.89037 1.00046 0.0
C107 C 0.39476 0.90397 1.00183 0.0
C108 C 0.41484 0.94293 1.00374 0.0
C109 C 0.37392 0.95588 1.00231 0.0
C110 C 0.35385 0.91701 1.00044 0.0
C111 C 0.42498 1.00998 1.00942 0.0
H112 H 0.69678 0.20901 0.08541 0.0
H113 H 0.64386 0.16674 0.0902 0.0
H114 H 0.62978 0.16261 1.00833 0.0
H115 H 0.68282 0.20536 1.00339 0.0
H116 H 0.40346 0.88452 1.00158 0.0
H117 H 0.43839 0.95255 1.00542 0.0
H118 H 0.36544 0.97558 1.00302 0.0
H119 H 0.33036 0.90788 0.99985 0.0
Tb120 Tb 0.69019 0.81979 0.36173 0.0
Eu121 Eu 0.7418 0.78854 0.34708 0.0
C122 C 0.72966 0.80723 0.40547 0.0
C123 C 0.75719 0.87495 0.35264 0.0
C124 C 0.6273 0.84902 0.36329 0.0
C125 C 0.57725 0.83629 0.37514 0.0
C126 C 0.60178 0.83003 0.37803 0.0
C127 C 0.62707 0.87423 0.3453 0.0
C128 C 0.60256 0.88053 0.34241 0.0
C129 C 0.57718 0.86212 0.35751 0.0
C130 C 0.65542 0.84733 0.36964 0.0
O131 O 0.6882 0.80818 0.31963 0.0
O132 O 0.70928 0.76932 0.31365 0.0
O133 O 0.6962 0.73538 0.35494 0.0
O134 O 0.66313 0.75953 0.35747 0.0
C135 C 0.6924 0.78329 0.30569 0.0
O136 O 0.77659 0.79202 0.3213 0.0
O137 O 0.77193 0.76602 0.35752 0.0
O138 O 0.74814 0.80682 0.38859 0.0
O139 O 0.70518 0.80861 0.39912 0.0
O140 O 0.73496 0.86627 0.3678 0.0
O141 O 0.75846 0.84938 0.33762 0.0
C142 C 0.66891 0.73139 0.35692 0.0
O143 O 0.65391 0.81839 0.3813 0.0
O144 O 0.67738 0.86088 0.35388 0.0
C145 C 0.82192 0.79413 0.33882 0.0
C146 C 0.88551 0.81775 0.33863 0.0
C147 C 0.87129 0.82701 0.3189 0.0
C148 C 0.84045 0.81548 0.31897 0.0
C149 C 0.83604 0.78511 0.35868 0.0
C150 C 0.86693 0.79673 0.35866 0.0
C151 C 0.78796 0.77775 0.3371 0.0
H152 H 0.55873 0.82171 0.38755 0.0
H153 H 0.60109 0.81111 0.39256 0.0
H154 H 0.64628 0.89007 0.33382 0.0
H155 H 0.60372 0.90019 0.32829 0.0
H156 H 0.88398 0.84343 0.30313 0.0
H157 H 0.83099 0.82288 0.303 0.0
H158 H 0.82301 0.76817 0.37416 0.0
H159 H 0.876 0.7881 0.37423 0.0
Tb160 Tb 0.251 0.88278 0.32845 0.0
Eu161 Eu 0.27916 0.9713 0.33458 0.0
C162 C 0.25657 0.92081 0.3836 0.0
C163 C 0.20615 0.91786 0.33087 0.0
C164 C 0.24254 0.79797 0.29718 0.0
C165 C 0.28265 0.78396 0.29109 0.0
C166 C 0.26839 0.7985 0.3063 0.0
C167 C 0.23201 0.78412 0.27208 0.0
C168 C 0.2465 0.76986 0.25669 0.0
C169 C 0.27165 0.76879 0.26621 0.0
C170 C 0.22846 0.81556 0.31253 0.0
O171 O 0.28096 0.90742 0.29576 0.0
O172 O 0.28316 0.96429 0.29248 0.0
O173 O 0.31857 0.9581 0.33814 0.0
O174 O 0.29474 0.89343 0.3398 0.0
C175 C 0.28886 0.93848 0.28318 0.0
O176 O 0.2871 1.02697 0.3239 0.0
O177 O 0.31014 1.02151 0.35713 0.0
O178 O 0.25754 0.94923 0.37172 0.0
O179 O 0.25645 0.89233 0.37063 0.0
O180 O 0.21085 0.88877 0.3318 0.0
O181 O 0.22905 0.95249 0.33003 0.0
C182 C 0.3193 0.92598 0.34095 0.0
O183 O 0.23847 0.8265 0.33612 0.0
O184 O 0.22488 0.84101 0.30065 0.0
C185 C 0.29325 0.06566 0.36004 0.0
C186 C 0.26781 0.10437 0.3854 0.0
C187 C 0.28824 0.12162 0.36593 0.0
C188 C 0.30084 0.10235 0.35335 0.0
C189 C 0.27371 0.04883 0.38006 0.0
C190 C 0.26118 0.06809 0.3927 0.0
C191 C 0.30326 1.04364 0.34454 0.0
H192 H 0.30146 0.78291 0.29953 0.0
H193 H 0.27754 0.80979 0.32533 0.0
H194 H 0.21254 0.78434 0.26438 0.0
H195 H 0.23749 0.75866 0.23762 0.0
H196 H 0.29344 0.1493 0.35957 0.0
H197 H 0.31563 0.11554 0.33776 0.0
H198 H 0.26743 1.02036 0.38542 0.0
H199 H 0.24576 0.05423 0.40777 0.0
Tb200 Tb 0.20308 0.44608 0.38404 0.0
Eu201 Eu 0.13049 0.39987 0.3642 0.0
C202 C 0.14866 0.4131 0.42463 0.0
C203 C 0.16705 0.35855 0.37886 0.0
C204 C 0.2896 0.49357 0.38918 0.0
C205 C 0.33729 0.49686 0.39984 0.0
C206 C 0.30677 0.48234 0.40391 0.0
C207 C 0.304 0.51944 0.36984 0.0
C208 C 0.33456 0.5339 0.36568 0.0
C209 C 0.35196 0.52337 0.38088 0.0
C210 C 0.25836 0.48231 0.3967 0.0
O211 O 0.20074 0.45563 0.34243 0.0
O212 O 0.15901 0.40002 0.33237 0.0
O213 O 0.15058 0.46177 0.35666 0.0
O214 O 0.18084 0.47851 0.39155 0.0
C215 C 0.18175 0.43105 0.32506 0.0
O216 O 0.09757 0.35995 0.33652 0.0
O217 O 0.08492 0.38978 0.36433 0.0
O218 O 0.12863 0.40605 0.40651 0.0
O219 O 0.17737 0.42585 0.42007 0.0
O220 O 0.19083 0.38882 0.37152 0.0
O221 O 0.14164 0.35812 0.38163 0.0
C222 C 0.17056 0.48851 0.37198 0.0
O223 O 0.24044 0.44742 0.40253 0.0
O224 O 0.2441 0.49655 0.38467 0.0
C225 C 0.04877 0.32789 0.35028 0.0
C226 C 0.99941 0.25558 0.35479 0.0
C227 C 1.0027 0.27619 0.33272 0.0
C228 C 1.02717 0.31204 0.33052 0.0
C229 C 1.04531 0.30794 0.37266 0.0
C230 C 1.02067 0.27207 0.37497 0.0
C231 C 0.07588 0.36352 0.34611 0.0
H232 H 0.34943 0.48735 0.41178 0.0
H233 H 0.29671 0.46295 0.41922 0.0
H234 H 0.29188 0.52945 0.35831 0.0
H235 H 0.34473 0.55445 0.35107 0.0
H236 H 0.98649 0.26438 0.31702 0.0
H237 H 1.02962 0.32703 0.31307 0.0
H238 H 0.06203 0.31964 0.38799 0.0
H239 H 1.01879 0.25669 0.3921 0.0
Tb240 Tb 0.38001 0.13401 0.68859 0.0
Eu241 Eu 0.40032 0.07101 0.68673 0.0
C242 C 0.40854 0.11819 0.73719 0.0
C243 C 0.44492 0.15917 0.67635 0.0
C244 C 0.33528 0.18313 0.69837 0.0
C245 C 0.30982 0.20893 0.72372 0.0
C246 C 0.33562 0.20778 0.71787 0.0
C247 C 0.30858 0.15941 0.68477 0.0
C248 C 0.28274 0.16084 0.69046 0.0
C249 C 0.28314 0.18561 0.71002 0.0
C250 C 0.36302 0.18268 0.69304 0.0
O251 O 0.35948 0.10018 0.65238 0.0
O252 O 0.39079 0.07597 0.64561 0.0
O253 O 0.34994 1.03962 0.68339 0.0
O254 O 0.34458 0.08491 0.70561 0.0
C255 C 0.36997 0.08291 0.63725 0.0
O256 O 0.43044 0.05037 0.67511 0.0
O257 O 0.39439 1.01729 0.70002 0.0
O258 O 0.39617 0.08359 0.72792 0.0
O259 O 0.41025 0.14493 0.72236 0.0
O260 O 0.42113 0.15999 0.66852 0.0
O261 O 0.44231 0.1295 0.68835 0.0
C262 C 0.33328 0.0503 0.69606 0.0
O263 O 0.37404 0.17262 0.71183 0.0
O264 O 0.36482 0.16783 0.67117 0.0
C265 C 0.44166 1.026 0.71088 0.0
C266 C 0.49338 0.05734 0.74189 0.0
C267 C 0.49164 1.03735 0.71894 0.0
C268 C 0.4659 1.02193 0.7034 0.0
C269 C 0.44221 1.04169 0.73538 0.0
C270 C 0.46797 0.05747 0.75072 0.0
C271 C 0.41988 1.02338 0.69144 0.0
H272 H 0.31089 0.22867 0.73864 0.0
H273 H 0.35596 0.2263 0.72859 0.0
H274 H 0.30766 0.13985 0.66979 0.0
H275 H 0.26242 0.14242 0.67971 0.0
H276 H 0.51115 1.03729 0.71168 0.0
H277 H 0.466 1.0102 0.68453 0.0
H278 H 0.42379 0.04512 0.7417 0.0
H279 H 0.46885 0.07274 0.76833 0.0
Tb280 Tb 0.88918 0.27612 0.66831 0.0
Eu281 Eu 0.95111 0.30956 0.69625 0.0
C282 C 0.94723 0.30971 0.63636 0.0
C283 C 0.91156 0.21699 0.68089 0.0
C284 C 0.81633 0.26534 0.65589 0.0
C285 C 0.76502 0.25036 0.6572 0.0
C286 C 0.78704 0.24418 0.64666 0.0
C287 C 0.82389 0.29472 0.67431 0.0
C288 C 0.80189 0.30077 0.68497 0.0
C289 C 0.77208 0.27755 0.67728 0.0
C290 C 0.83794 0.2532 0.64954 0.0
O291 O 0.88708 0.29155 0.70943 0.0
O292 O 0.91763 0.27137 0.72302 0.0
O293 O 0.93697 0.35653 0.70149 0.0
O294 O 0.90401 0.33672 0.66764 0.0
C295 C 0.89788 0.281 0.72859 0.0
O296 O 0.98006 0.33179 0.73063 0.0
O297 O 0.99829 0.32992 0.69374 0.0
O298 O 0.95936 0.33159 0.65669 0.0
O299 O 0.92059 0.28 0.63809 0.0
O300 O 0.88928 0.22304 0.67556 0.0
O301 O 0.93836 0.24645 0.68633 0.0
C302 C 0.91926 0.36247 0.6857 0.0
O303 O 0.86195 0.27811 0.63884 0.0
O304 O 0.84386 0.23693 0.66815 0.0
C305 C 1.02105 0.32071 0.72953 0.0
C306 C 0.05979 0.29249 0.74091 0.0
C307 C 0.06921 0.33128 0.74436 0.0
C308 C 0.05 0.34526 0.73863 0.0
C309 C 1.01086 0.2817 0.72771 0.0
C310 C 1.03008 0.26766 0.7334 0.0
C311 C 1.00343 0.33642 0.71839 0.0
H312 H 0.74218 0.23166 0.65112 0.0
H313 H 0.78088 0.22128 0.63257 0.0
H314 H 0.84648 0.31126 0.68171 0.0
H315 H 0.80791 0.32194 0.70033 0.0
H316 H 0.09181 0.35102 0.75053 0.0
H317 H 0.05821 0.37546 0.74008 0.0
H318 H 0.98857 0.26238 0.72052 0.0
H319 H 1.02218 0.23771 0.73038 0.0
Tb320 Tb 0.86798 0.76011 0.70303 0.0
Eu321 Eu 0.7997 0.71415 0.68887 0.0
C322 C 0.81884 0.73866 0.74456 0.0
C323 C 0.84059 0.67291 0.69394 0.0
C324 C 0.95306 0.82022 0.71176 0.0
C325 C 1.00299 0.85914 0.72984 0.0
C326 C 0.97242 0.83725 0.73302 0.0
C327 C 0.96466 0.82724 0.68707 0.0
C328 C 0.99529 0.84911 0.68386 0.0
C329 C 1.01494 0.86438 0.70526 0.0
C330 C 0.92239 0.79021 0.71616 0.0
O331 O 0.86277 0.77612 0.66347 0.0
O332 O 0.82212 0.7204 0.65173 0.0
O333 O 0.81184 0.77843 0.6845 0.0
O334 O 0.85945 0.80782 0.70199 0.0
C335 C 0.84351 0.75328 0.64552 0.0
O336 O 0.7606 0.68373 0.66277 0.0
O337 O 0.75557 0.68061 0.70379 0.0
O338 O 0.80439 0.74411 0.72623 0.0
O339 O 0.84189 0.73461 0.73823 0.0
O340 O 0.86188 0.70592 0.68755 0.0
O341 O 0.81516 0.67085 0.70051 0.0
C342 C 0.83661 0.81014 0.69252 0.0
O343 O 0.90391 0.79881 0.72729 0.0
O344 O 0.90942 0.76415 0.69812 0.0
C345 C 0.72351 0.62475 0.67907 0.0
C346 C 0.68349 0.5452 0.67631 0.0
C347 C 0.68319 0.56889 0.65713 0.0
C348 C 0.70282 0.60807 0.65856 0.0
C349 C 0.72435 0.60111 0.69793 0.0
C350 C 0.70462 0.56206 0.69663 0.0
C351 C 0.74284 0.6667 0.68141 0.0
H352 H 1.01737 0.8701 0.74679 0.0
H353 H 0.96408 0.83185 0.75225 0.0
H354 H 0.95027 0.81439 0.67029 0.0
H355 H 1.00365 0.85312 0.66464 0.0
H356 H 0.66778 0.55723 0.64088 0.0
H357 H 0.70159 0.62544 0.64373 0.0
H358 H 0.73995 0.61283 0.71407 0.0
H359 H 0.70551 0.54531 0.71203 0.0
H360 H 0.44189 0.58986 0.0551 0.0
H361 H 0.39486 0.55722 0.07675 0.0
H362 H 0.35061 0.57673 1.01321 0.0
H363 H 0.39758 0.60835 0.99098 0.0
H364 H 0.34341 0.56154 0.09108 0.0
H365 H 0.32411 0.46295 1.00823 0.0
H366 H 0.3597 0.50377 1.01552 0.0
H367 H 0.33116 0.50876 0.99893 0.0
C368 C 0.42238 0.58869 0.04624 0.0
C369 C 0.42311 0.60093 0.02119 0.0
C370 C 0.39553 0.57 0.05865 0.0
C371 C 0.36928 0.56376 0.04622 0.0
C372 C 0.37069 0.58077 0.02283 0.0
H373 H 0.18833 0.44778 0.07592 0.0
H374 H 0.24092 0.49066 0.08314 0.0
C375 C 0.39744 0.59884 1.01019 0.0
C376 C 0.3406 0.53342 0.05475 0.0
H377 H 0.28344 0.44821 0.03451 0.0
C378 C 0.33023 0.53658 0.07888 0.0
C379 C 0.32422 0.50017 0.03926 0.0
C380 C 0.33547 0.49341 1.01418 0.0
C381 C 0.3029 0.50803 0.08732 0.0
C382 C 0.28544 0.47611 0.07088 0.0
C383 C 0.29668 0.47246 0.04728 0.0
C384 C 0.25414 0.44826 0.07569 0.0
C385 C 0.29316 0.51242 0.11368 0.0
C386 C 0.24364 0.40957 0.07014 0.0
C387 C 0.21349 0.38522 0.065 0.0
C388 C 0.19343 0.39904 0.06621 0.0
C389 C 0.20341 0.43639 0.07514 0.0
C390 C 0.2336 0.46097 0.07949 0.0
H391 H 0.31259 0.5276 0.12711 0.0
H392 H 0.28187 0.52963 0.11263 0.0
H393 H 0.2777 0.48469 0.12161 0.0
H394 H 0.25907 0.39905 0.06723 0.0
H395 H 0.20619 0.3565 0.05813 0.0
H396 H 0.48399 0.93419 0.03341 0.0
H397 H 0.49568 0.88205 0.03271 0.0
H398 H 0.58597 0.96006 1.01485 0.0
H399 H 0.5744 1.01151 1.01513 0.0
H400 H 0.57118 0.89958 0.98717 0.0
H401 H 0.5344 0.84798 0.08401 0.0
H402 H 0.50536 0.84666 0.06408 0.0
H403 H 0.53706 0.89139 0.07333 0.0
C404 C 0.50638 0.94039 0.02937 0.0
C405 C 0.52805 0.97793 0.0244 0.0
C406 C 0.51326 0.91025 0.02921 0.0
C407 C 0.54216 0.91619 0.02417 0.0
C408 C 0.56352 0.95362 1.01891 0.0
H409 H 0.61257 0.75531 0.05342 0.0
H410 H 0.59996 0.80672 0.05634 0.0
C411 C 0.55673 0.98353 1.01912 0.0
C412 C 0.55041 0.88422 0.0236 0.0
H413 H 0.54826 0.81091 0.05755 0.0
C414 C 0.566 0.88036 1.0027 0.0
C415 C 0.5446 0.85864 0.04377 0.0
C416 C 0.52972 0.86147 0.0677 0.0
C417 C 0.57519 0.8524 1.00118 0.0
C418 C 0.56855 0.82604 0.02093 0.0
C419 C 0.55344 0.83025 0.04209 0.0
C420 C 0.57662 0.79397 1.01956 0.0
C421 C 0.5928 0.85224 0.97843 0.0
C422 C 0.56782 0.76832 0.99822 0.0
C423 C 0.57516 0.73892 0.9965 0.0
C424 C 0.59171 0.7332 1.01603 0.0
C425 C 0.60034 0.75857 0.03763 0.0
C426 C 0.59283 0.78814 0.03939 0.0
H427 H 0.6042 0.88037 0.96975 0.0
H428 H 0.6097 0.84412 0.98385 0.0
H429 H 0.57754 0.83158 0.96357 0.0
H430 H 0.55469 0.77054 0.98276 0.0
H431 H 0.56739 0.7202 0.97962 0.0
H432 H 0.31056 0.85169 0.97363 0.0
H433 H 0.27385 0.78473 0.97484 0.0
H434 H 0.33144 0.76691 0.02613 0.0
H435 H 0.36777 0.83421 0.02595 0.0
H436 H 0.27622 0.72096 0.96107 0.0
H437 H 0.25539 0.72089 0.06513 0.0
H438 H 0.27594 0.76395 0.04827 0.0
H439 H 0.2934 0.73702 0.05766 0.0
C440 C 0.31538 0.83373 0.98543 0.0
C441 C 0.34219 0.84878 0.9999 0.0
C442 C 0.29439 0.79524 0.98593 0.0
C443 C 0.2995 0.77066 1.00094 0.0
C444 C 0.32657 0.78529 1.01484 0.0
H445 H 0.17627 0.52918 0.02811 0.0
H446 H 0.2224 0.58989 0.02525 0.0
C447 C 0.34758 0.82384 1.01441 0.0
C448 C 0.27642 0.72991 1.00192 0.0
H449 H 0.2302 0.66223 0.04227 0.0
C450 C 0.26629 0.70815 0.97887 0.0
C451 C 0.26342 0.71287 0.02513 0.0
C452 C 0.27235 0.73489 0.05044 0.0
C453 C 0.24341 0.67028 0.97835 0.0
C454 C 0.22991 0.6536 1.00144 0.0
C455 C 0.24062 0.67489 0.02458 0.0
C456 C 0.20287 0.61555 1.00167 0.0
C457 C 0.23377 0.64844 0.953 0.0
C458 C 0.1766 0.60963 0.98934 0.0
C459 C 0.15038 0.57526 0.99104 0.0
C460 C 0.14962 0.5457 1.0051 0.0
C461 C 0.17613 0.55116 1.0169 0.0
C462 C 0.20246 0.58593 1.0154 0.0
H463 H 0.25155 0.66065 0.93878 0.0
H464 H 0.22743 0.61832 0.95526 0.0
H465 H 0.21419 0.64961 0.94518 0.0
H466 H 0.17613 0.63212 0.97901 0.0
H467 H 0.13044 0.57218 0.98173 0.0
H468 H 0.56649 0.21668 0.04223 0.0
H469 H 0.57671 0.28156 0.03884 0.0
H470 H 0.49367 0.24248 0.99762 0.0
H471 H 0.48303 0.1765 1.00121 0.0
H472 H 0.58707 0.32797 1.00178 0.0
H473 H 0.48607 0.31473 0.04609 0.0
H474 H 0.49556 0.27749 0.04694 0.0
H475 H 0.47843 0.28356 1.01858 0.0
C476 C 0.54997 0.22128 0.0325 0.0
C477 C 0.52354 0.18994 0.02225 0.0
C478 C 0.55608 0.2592 0.03049 0.0
C479 C 0.53609 0.26849 1.0183 0.0
C480 C 0.5096 0.23731 1.00781 0.0
H481 H 0.53979 0.48833 0.99302 0.0
H482 H 0.52814 0.42239 0.99459 0.0
C483 C 0.50346 0.199 1.00974 0.0
C484 C 0.54373 0.31043 1.01639 0.0
H485 H 0.51805 0.37349 0.02836 0.0
C486 C 0.57179 0.33761 1.00772 0.0
C487 C 0.52443 0.32457 0.02392 0.0
C488 C 0.49456 0.29874 0.03464 0.0
C489 C 0.58059 0.37684 1.00596 0.0
C490 C 0.56143 0.39112 1.01375 0.0
C491 C 0.5333 0.36387 0.02231 0.0
C492 C 0.56961 0.4334 1.01269 0.0
C493 C 0.61027 0.40231 0.99474 0.0
C494 C 0.597 0.46372 0.02241 0.0
C495 C 0.60398 0.50236 0.0213 0.0
C496 C 0.58379 0.51281 1.01069 0.0
C497 C 0.55635 0.48246 1.00128 0.0
C498 C 0.54948 0.44403 1.00228 0.0
H499 H 0.6177 0.3861 0.98227 0.0
H500 H 0.60955 0.42449 0.98328 0.0
H501 H 0.62709 0.41619 1.01053 0.0
H502 H 0.61307 0.45764 0.03142 0.0
H503 H 0.62518 0.52409 0.02917 0.0
H504 H 0.72623 0.19695 1.00791 0.0
H505 H 0.78016 0.2267 1.00547 0.0
H506 H 0.79015 0.29962 0.07081 0.0
H507 H 0.73619 0.27021 0.07332 0.0
H508 H 0.82409 0.30229 1.00004 0.0
H509 H 0.83771 0.24789 0.09267 0.0
H510 H 0.80214 0.23008 0.07636 0.0
H511 H 0.81803 0.27404 0.09473 0.0
C512 C 0.73986 0.21977 0.0215 0.0
C513 C 0.72684 0.23106 0.0409 0.0
C514 C 0.7707 0.23656 0.02018 0.0
C515 C 0.78914 0.2648 0.03827 0.0
C516 C 0.7763 0.27721 0.05704 0.0
H517 H 0.97585 0.40595 0.06803 0.0
H518 H 0.92186 0.37055 0.06861 0.0
C519 C 0.74546 0.26043 0.0584 0.0
C520 C 0.8218 0.28098 0.0377 0.0
H521 H 0.88182 0.29282 0.07332 0.0
C522 C 0.83672 0.3 1.01595 0.0
C523 C 0.83819 0.27775 0.05846 0.0
C524 C 0.82323 0.25604 0.08179 0.0
C525 C 0.86774 0.31701 1.01477 0.0
C526 C 0.88415 0.3143 0.03571 0.0
C527 C 0.86917 0.29478 0.05729 0.0
C528 C 0.91701 0.33341 0.03622 0.0
C529 C 0.88279 0.33885 0.99149 0.0
C530 C 0.93229 0.32348 1.01829 0.0
C531 C 0.96331 0.34367 1.01792 0.0
C532 C 0.97952 0.37407 0.03552 0.0
C533 C 0.96411 0.38276 0.05415 0.0
C534 C 0.9332 0.36257 0.05452 0.0
H535 H 0.86772 0.34484 0.97958 0.0
H536 H 0.90273 0.36604 0.99722 0.0
H537 H 0.89005 0.32207 0.97948 0.0
H538 H 0.9202 0.3006 1.00428 0.0
H539 H 0.97447 0.33633 1.00328 0.0
H540 H 0.93347 0.53063 0.0971 0.0
H541 H 0.88986 0.53767 0.10479 0.0
H542 H 0.86628 0.51727 0.02407 0.0
H543 H 0.91055 0.51157 1.01624 0.0
H544 H 0.86709 0.57866 0.04039 0.0
H545 H 0.80274 0.46766 0.10839 0.0
H546 H 0.84022 0.49704 0.11991 0.0
H547 H 0.8329 0.46852 0.09086 0.0
C548 C 0.91859 0.52686 0.08112 0.0
C549 C 0.9253 0.52069 0.05608 0.0
C550 C 0.89357 0.53062 0.08554 0.0
C551 C 0.87453 0.52745 0.06507 0.0
C552 C 0.88062 0.51972 0.04017 0.0
H553 H 0.7124 0.54094 0.07867 0.0
H554 H 0.74826 0.51829 0.07648 0.0
C555 C 0.90588 0.51655 0.03569 0.0
C556 C 0.85041 0.53664 0.06914 0.0
H557 H 0.79137 0.51854 0.10629 0.0
C558 C 0.85035 0.56516 0.05461 0.0
C559 C 0.82835 0.51876 0.08748 0.0
C560 C 0.82583 0.48602 0.10233 0.0
C561 C 0.8293 0.57693 0.05826 0.0
C562 C 0.80843 0.56081 0.07775 0.0
C563 C 0.80786 0.53149 0.0918 0.0
C564 C 0.78661 0.57357 0.08312 0.0
C565 C 0.82942 0.6061 0.04083 0.0
C566 C 0.79618 0.61182 0.08894 0.0
C567 C 0.77587 0.62507 0.08947 0.0
C568 C 0.74545 0.6001 0.08478 0.0
C569 C 0.73572 0.56117 0.08155 0.0
C570 C 0.75615 0.54806 0.08055 0.0
H571 H 0.84047 0.60689 0.02257 0.0
H572 H 0.80654 0.6004 0.03625 0.0
H573 H 0.84188 0.63448 0.05048 0.0
H574 H 0.81957 0.63179 0.09177 0.0
H575 H 0.78433 0.6552 0.09198 0.0
H576 H 0.92261 0.83046 0.29674 0.0
H577 H 0.97511 0.84823 0.296 0.0
H578 H 0.97891 0.85042 0.37838 0.0
H579 H 0.92643 0.83246 0.37931 0.0
H580 H 1.02632 0.90506 0.30969 0.0
H581 H 1.01877 0.78986 0.36822 0.0
H582 H 0.98623 0.79118 0.35695 0.0
H583 H 1.00654 0.81841 0.38528 0.0
C584 C 0.93433 0.83478 0.3149 0.0
C585 C 0.91898 0.82935 0.33812 0.0
C586 C 0.96491 0.845 0.31441 0.0
C587 C 0.98204 0.85023 0.33708 0.0
C588 C 0.96693 0.84555 0.3603 0.0
H589 H 0.15399 0.8492 0.32727 0.0
H590 H 0.10241 0.83514 0.32832 0.0
C591 C 0.93632 0.8352 0.36081 0.0
C592 C 1.01528 0.86093 0.33631 0.0
H593 H 0.06736 0.8387 0.36007 0.0
C594 C 1.03504 0.89029 0.32079 0.0
C595 C 1.0278 0.84199 0.35019 0.0
C596 C 1.00872 0.80837 0.36588 0.0
C597 C 0.06582 0.9012 0.31905 0.0
C598 C 0.07857 0.88315 0.33366 0.0
C599 C 0.05869 0.85347 0.34892 0.0
C600 C 0.11166 0.89309 0.33268 0.0
C601 C 0.08407 0.93136 0.30065 0.0
C602 C 0.13574 0.93066 0.33491 0.0
C603 C 0.16597 0.93899 0.33403 0.0
C604 C 0.17376 0.91014 0.33125 0.0
C605 C 0.14968 0.87268 0.32937 0.0
C606 C 0.11962 0.86443 0.33007 0.0
H607 H 0.06992 0.93371 0.28541 0.0
H608 H 0.09588 0.95906 0.31126 0.0
H609 H 0.1007 0.92555 0.29137 0.0
H610 H 0.13135 0.95393 0.3378 0.0
H611 H 0.1833 0.9682 0.3359 0.0
H612 H 0.21653 0.35118 0.37706 0.0
H613 H 0.22174 0.29704 0.38866 0.0
H614 H 0.1291 0.23554 0.40633 0.0
H615 H 0.12347 0.29001 0.39473 0.0
H616 H 0.20371 0.25721 0.44003 0.0
H617 H 0.14782 0.16946 0.35142 0.0
H618 H 0.16378 0.22019 0.35163 0.0
H619 H 0.13102 0.19247 0.36919 0.0
C620 C 0.19713 0.3262 0.38329 0.0
C621 C 0.16952 0.32485 0.38483 0.0
C622 C 0.20024 0.29539 0.39007 0.0
C623 C 0.17584 0.26258 0.3984 0.0
C624 C 0.14814 0.26079 0.39992 0.0
H625 H 0.20876 0.0718 0.39523 0.0
H626 H 0.18082 0.10391 0.40675 0.0
C627 C 0.14499 0.29182 0.3932 0.0
C628 C 0.17997 0.23029 0.40464 0.0
H629 H 0.17767 0.15269 0.3758 0.0
C630 C 0.19737 0.23367 0.42641 0.0
C631 C 0.17131 0.19956 0.38696 0.0
C632 C 0.15245 0.19488 0.36342 0.0
C633 C 0.20828 0.20853 0.42995 0.0
C634 C 0.20214 0.18007 0.41089 0.0
C635 C 0.18251 0.17469 0.39034 0.0
C636 C 0.21927 0.15971 0.40948 0.0
C637 C 0.22728 0.21374 0.45349 0.0
C638 C 0.25024 0.18036 0.40775 0.0
C639 C 0.26629 0.16211 0.40139 0.0
C640 C 0.25162 0.12289 0.39631 0.0
C641 C 0.22077 0.102 0.39932 0.0
C642 C 0.20473 0.12029 0.4058 0.0
H643 H 0.22031 0.22504 0.47003 0.0
H644 H 0.22621 0.18679 0.45877 0.0
H645 H 0.25066 0.23458 0.44973 0.0
H646 H 0.26188 0.2109 0.40986 0.0
H647 H 0.29005 0.17888 0.39946 0.0
H648 H 0.98024 0.19942 0.31778 0.0
H649 H 0.9389 0.13486 0.31945 0.0
H650 H 0.92134 0.15825 0.39634 0.0
H651 H 0.96275 0.22318 0.39482 0.0
H652 H 0.93098 0.07937 0.36221 0.0
H653 H 0.841 0.11612 0.34946 0.0
H654 H 0.87804 0.14597 0.33847 0.0
H655 H 0.87101 0.1441 0.37205 0.0
C656 C 0.96745 0.19092 0.33499 0.0
C657 C 0.97455 0.21639 0.35611 0.0
C658 C 0.94401 0.15402 0.33595 0.0
C659 C 0.92709 0.14206 0.35793 0.0
C660 C 0.93415 0.1672 0.37917 0.0
H661 H 0.76621 0.93293 0.38597 0.0
H662 H 0.80796 0.99722 0.38808 0.0
C663 C 0.95782 0.2041 0.37831 0.0
C664 C 0.90202 0.10315 0.35849 0.0
H665 H 0.82658 0.05191 0.35358 0.0
C666 C 0.90812 0.07323 0.36041 0.0
C667 C 0.87236 0.09554 0.35625 0.0
C668 C 0.86495 0.12697 0.35382 0.0
C669 C 0.88516 1.0356 0.36023 0.0
C670 C 0.85541 1.02781 0.3573 0.0
C671 C 0.84938 0.05791 0.3557 0.0
C672 C 0.83018 0.98867 0.35585 0.0
C673 C 0.89299 1.00468 0.36364 0.0
C674 C 0.82855 0.96263 0.33676 0.0
C675 C 0.80479 0.9257 0.33559 0.0
C676 C 0.78197 0.9143 0.35328 0.0
C677 C 0.78337 0.94073 0.37203 0.0
C678 C 0.80724 0.97752 0.37329 0.0
H679 H 0.91518 1.0157 0.37312 0.0
H680 H 0.87633 0.98175 0.37519 0.0
H681 H 0.89357 0.9924 0.34455 0.0
H682 H 0.84561 0.9709 0.32267 0.0
H683 H 0.8043 0.90616 0.3208 0.0
H684 H 0.32912 0.781 0.26406 0.0
H685 H 0.33901 0.72858 0.26835 0.0
H686 H 0.24966 0.65104 0.24179 0.0
H687 H 0.23937 0.70227 0.23841 0.0
H688 H 0.302 0.7017 0.30726 0.0
H689 H 0.28085 0.57868 0.24654 0.0
H690 H 0.29628 0.62538 0.23379 0.0
H691 H 0.25661 0.59515 0.23508 0.0
C692 C 0.31205 0.75292 0.25784 0.0
C693 C 0.28272 0.7453 0.25311 0.0
C694 C 0.31795 0.72294 0.25984 0.0
C695 C 0.29443 0.68567 0.25721 0.0
C696 C 0.268 0.67944 0.24493 0.0
H697 H 0.16176 0.51517 0.32708 0.0
H698 H 0.2 0.56459 0.30236 0.0
C699 C 0.26194 0.7092 0.24322 0.0
C700 C 0.29099 0.65881 0.27726 0.0
H701 H 0.24961 0.56441 0.28582 0.0
C702 C 0.29156 0.67161 0.30272 0.0
C703 C 0.27765 0.61962 0.27165 0.0
C704 C 0.27814 0.60411 0.24524 0.0
C705 C 0.27471 0.64667 0.32147 0.0
C706 C 0.25823 0.60768 0.31487 0.0
C707 C 0.26146 0.59445 0.29059 0.0
C708 C 0.23481 0.58087 0.33141 0.0
C709 C 0.27224 0.66284 0.34715 0.0
C710 C 0.24122 0.5754 0.35658 0.0
C711 C 0.21897 0.54838 0.37124 0.0
C712 C 0.19044 0.52491 0.36043 0.0
C713 C 0.18359 0.53239 0.3359 0.0
C714 C 0.20557 0.56025 0.32159 0.0
H715 H 0.28133 0.69394 0.34706 0.0
H716 H 0.24879 0.64972 0.35291 0.0
H717 H 0.28496 0.65703 0.3619 0.0
H718 H 0.26358 0.5909 0.3646 0.0
H719 H 0.22476 0.54408 0.39037 0.0
H720 H 0.39647 0.54252 0.41791 0.0
H721 H 0.44998 0.57109 0.4126 0.0
H722 H 0.43729 0.57199 0.33102 0.0
H723 H 0.38374 0.54356 0.33616 0.0
H724 H 0.48528 0.54999 0.38855 0.0
H725 H 0.49972 0.67962 0.34371 0.0
H726 H 0.46555 0.64685 0.3581 0.0
H727 H 0.4737 0.63739 0.3262 0.0
C728 C 0.40486 0.54848 0.39874 0.0
C729 C 0.38521 0.54059 0.37751 0.0
C730 C 0.43577 0.56511 0.39573 0.0
C731 C 0.44832 0.5747 0.37143 0.0
C732 C 0.42873 0.56618 0.35014 0.0
H733 H 0.6313 0.69106 0.3172 0.0
H734 H 0.57776 0.64913 0.32033 0.0
C735 C 0.39781 0.54969 0.35313 0.0
C736 C 0.48165 0.59323 0.36845 0.0
H737 H 0.54135 0.66991 0.34386 0.0
C738 C 0.49744 0.57628 0.37881 0.0
C739 C 0.49811 0.62772 0.35582 0.0
C740 C 0.48349 0.64919 0.34555 0.0
C741 C 0.52856 0.59221 0.37655 0.0
C742 C 0.54494 0.62659 0.36382 0.0
C743 C 0.52915 0.64347 0.35343 0.0
C744 C 0.57838 0.64628 0.36162 0.0
C745 C 0.54351 0.57152 0.3874 0.0
C746 C 0.5974 0.65784 0.38355 0.0
C747 C 0.62831 0.68141 0.38166 0.0
C748 C 0.6413 0.69402 0.3578 0.0
C749 C 0.62246 0.6806 0.33577 0.0
C750 C 0.59157 0.65716 0.33763 0.0
H751 H 0.52755 0.54103 0.38937 0.0
H752 H 0.5618 0.57422 0.37516 0.0
H753 H 0.55299 0.5838 0.40674 0.0
H754 H 0.58818 0.65096 0.4024 0.0
H755 H 0.64171 0.69263 0.39914 0.0
H756 H 0.32578 0.86519 0.35342 0.0
H757 H 0.37007 0.85882 0.35575 0.0
H758 H 0.42336 0.97538 0.33678 0.0
H759 H 0.37852 0.9822 0.33478 0.0
H760 H 0.40745 0.86241 0.32121 0.0
H761 H 0.47362 0.97388 0.39513 0.0
H762 H 0.43502 0.95863 0.38843 0.0
H763 H 0.46302 0.9909 0.3678 0.0
C764 C 0.34684 0.88989 0.34994 0.0
C765 C 0.34804 0.92444 0.34403 0.0
C766 C 0.37246 0.88604 0.35123 0.0
C767 C 0.40075 0.91652 0.34678 0.0
C768 C 0.40224 0.95132 0.34097 0.0
H769 H 0.57777 0.92914 0.34564 0.0
H770 H 0.53637 0.94212 0.34214 0.0
C771 C 0.37637 0.95526 0.33972 0.0
C772 C 0.42786 0.91073 0.34745 0.0
H773 H 0.49723 0.94294 0.37525 0.0
C774 C 0.42698 0.88015 0.33314 0.0
C775 C 0.45389 0.93355 0.36279 0.0
C776 C 0.45649 0.96587 0.37961 0.0
C777 C 0.45076 0.87201 0.33358 0.0
C778 C 0.47659 0.8944 0.34924 0.0
C779 C 0.47773 0.92538 0.36325 0.0
C780 C 0.50235 0.88607 0.3514 0.0
C781 C 0.4481 0.83975 0.31661 0.0
C782 C 0.49793 0.85025 0.35811 0.0
C783 C 0.52178 0.84252 0.35993 0.0
C784 C 0.55128 0.87035 0.3553 0.0
C785 C 0.55567 0.90638 0.34891 0.0
C786 C 0.53178 0.91408 0.34712 0.0
H787 H 0.43219 0.83344 0.30027 0.0
H788 H 0.46987 0.84601 0.30889 0.0
H789 H 0.43971 0.81397 0.32795 0.0
H790 H 0.47588 0.82803 0.3622 0.0
H791 H 0.51687 0.81432 0.36475 0.0
H792 H 0.76935 0.27576 0.72917 0.0
H793 H 0.72414 0.25084 0.75357 0.0
H794 H 0.6749 0.24896 0.68582 0.0
H795 H 0.72012 0.2738 0.66114 0.0
H796 H 0.66786 0.26039 0.76006 0.0
H797 H 0.65707 0.13644 0.70286 0.0
H798 H 0.69175 0.17992 0.70698 0.0
H799 H 0.66384 0.17665 0.6846 0.0
C800 C 0.74923 0.27189 0.71973 0.0
C801 C 0.74805 0.27599 0.69313 0.0
C802 C 0.72342 0.25766 0.73375 0.0
C803 C 0.6963 0.24765 0.72134 0.0
C804 C 0.69576 0.25649 0.69562 0.0
H805 H 0.51517 0.13247 0.74476 0.0
H806 H 0.56703 0.18036 0.74932 0.0
C807 C 0.72151 0.27045 0.68153 0.0
C808 C 0.66857 0.21999 0.7329 0.0
H809 H 0.61544 0.12775 0.72583 0.0
C810 C 0.65638 0.23126 0.75285 0.0
C811 C 0.65439 0.18182 0.72402 0.0
C812 C 0.66749 0.16775 0.7036 0.0
C813 C 0.62916 0.20544 0.76315 0.0
C814 C 0.61387 0.16785 0.75286 0.0
C815 C 0.62711 0.15642 0.73389 0.0
C816 C 0.58259 0.14108 0.75839 0.0
C817 C 0.617 0.21879 0.78471 0.0
C818 C 0.57375 0.10295 0.7626 0.0
C819 C 0.544 0.07528 0.75929 0.0
C820 C 0.52274 0.08559 0.75237 0.0
C821 C 0.53119 0.12397 0.75057 0.0
C822 C 0.56088 0.15148 0.75342 0.0
H823 H 0.63526 0.24073 0.79709 0.0
H824 H 0.60436 0.23183 0.77655 0.0
H825 H 0.60204 0.19517 0.79674 0.0
H826 H 0.59017 0.09427 0.7663 0.0
H827 H 0.53791 0.04577 0.7605 0.0
H828 H 0.88983 0.3844 0.65166 0.0
H829 H 0.87736 0.43492 0.65502 0.0
H830 H 0.92102 0.46856 0.72943 0.0
H831 H 0.93456 0.41828 0.72564 0.0
H832 H 0.84427 0.45103 0.68078 0.0
H833 H 0.9551 0.57139 0.70513 0.0
H834 H 0.94991 0.52548 0.6957 0.0
H835 H 0.94353 0.5353 0.72818 0.0
C836 C 0.89736 0.40271 0.66874 0.0
C837 C 0.91385 0.39666 0.68817 0.0
C838 C 0.88987 0.432 0.67073 0.0
C839 C 0.89829 0.45721 0.69232 0.0
C840 C 0.91466 0.45113 0.71198 0.0
H841 H 0.88918 0.66933 0.67582 0.0
H842 H 0.90112 0.61816 0.67606 0.0
C843 C 0.92242 0.42179 0.70989 0.0
C844 C 0.88916 0.48851 0.69399 0.0
H845 H 0.9148 0.58344 0.7078 0.0
C846 C 0.85996 0.47994 0.68672 0.0
C847 C 0.90898 0.52711 0.70132 0.0
C848 C 0.94119 0.54056 0.70777 0.0
C849 C 0.85034 0.50758 0.68654 0.0
C850 C 0.86991 0.54597 0.69457 0.0
C851 C 0.89913 0.55456 0.70181 0.0
C852 C 0.86134 0.57779 0.69442 0.0
C853 C 0.81931 0.4952 0.67659 0.0
C854 C 0.83471 0.57404 0.7047 0.0
C855 C 0.82747 0.60385 0.70426 0.0
C856 C 0.8467 0.63923 0.6939 0.0
C857 C 0.87337 0.64299 0.68397 0.0
C858 C 0.88045 0.61327 0.6842 0.0
H859 H 0.81065 0.46932 0.66396 0.0
H860 H 0.80436 0.4885 0.69301 0.0
H861 H 0.81841 0.51768 0.66564 0.0
H862 H 0.81949 0.54813 0.71359 0.0
H863 H 0.80691 0.5993 0.71248 0.0
H864 H 0.69143 0.48633 0.69283 0.0
H865 H 0.65518 0.41894 0.69274 0.0
H866 H 0.58971 0.44089 0.65739 0.0
H867 H 0.62528 0.50843 0.65822 0.0
H868 H 0.59568 0.38251 0.71573 0.0
H869 H 0.5915 0.35615 0.61054 0.0
H870 H 0.62193 0.39663 0.62685 0.0
H871 H 0.58748 0.39609 0.62065 0.0
C872 C 0.66927 0.47712 0.68525 0.0
C873 C 0.66159 0.50342 0.67549 0.0
C874 C 0.64856 0.43834 0.68509 0.0
C875 C 0.61972 0.42463 0.67485 0.0
C876 C 0.61193 0.4506 0.66506 0.0
H877 H 0.4561 0.22016 0.64848 0.0
H878 H 0.50034 0.28165 0.64904 0.0
C879 C 0.6325 0.48939 0.66541 0.0
C880 C 0.59759 0.38334 0.67465 0.0
H881 H 0.55483 0.30723 0.63444 0.0
C882 C 0.58692 0.36587 0.69799 0.0
C883 C 0.58619 0.36156 0.65153 0.0
C884 C 0.59746 0.37833 0.62592 0.0
C885 C 0.56419 0.32785 0.69878 0.0
C886 C 0.55226 0.30617 0.67557 0.0
C887 C 0.56378 0.32349 0.65229 0.0
C888 C 0.52599 0.26698 0.67469 0.0
C889 C 0.55219 0.31196 0.72445 0.0
C890 C 0.52545 0.23716 0.68841 0.0
C891 C 0.49967 0.2014 0.6883 0.0
C892 C 0.47399 0.19463 0.67426 0.0
C893 C 0.47523 0.22408 0.65968 0.0
C894 C 0.50072 0.25954 0.65993 0.0
H895 H 0.55866 0.33458 0.7396 0.0
H896 H 0.52763 0.29486 0.72343 0.0
H897 H 0.56123 0.29341 0.73029 0.0
H898 H 0.54482 0.24158 0.69943 0.0
H899 H 0.49959 0.17951 0.69975 0.0
H900 H 0.79984 0.83835 0.67192 0.0
H901 H 0.81137 0.90501 0.66895 0.0
H902 H 0.89642 0.94204 0.70588 0.0
H903 H 0.88543 0.87702 0.70875 0.0
H904 H 0.82479 0.96544 0.70365 0.0
H905 H 0.92447 1.00946 0.64638 0.0
H906 H 0.89878 0.9604 0.65142 0.0
H907 H 0.92671 0.98863 0.67556 0.0
C908 C 0.82102 0.86057 0.67942 0.0
C909 C 0.84148 0.85088 0.6905 0.0
C910 C 0.82775 0.89922 0.6777 0.0
C911 C 0.85538 0.93005 0.68661 0.0
C912 C 0.87534 0.92008 0.698 0.0
H913 H 0.94736 0.18518 0.69609 0.0
H914 H 0.93384 0.11787 0.69763 0.0
C915 C 0.86868 0.88195 0.69982 0.0
C916 C 0.86359 0.9722 0.68465 0.0
H917 H 0.91841 0.05919 0.66543 0.0
C918 C 0.84517 0.98563 0.695 0.0
C919 C 0.89037 1.00003 0.67374 0.0
C920 C 0.9111 0.98893 0.66092 0.0
C921 C 0.85282 1.02471 0.69539 0.0
C922 C 0.87962 0.05258 0.68444 0.0
C923 C 0.89796 1.03906 0.67401 0.0
C924 C 0.8886 0.09515 0.68324 0.0
C925 C 0.83231 1.03574 0.70868 0.0
C926 C 0.86861 0.10683 0.67408 0.0
C927 C 0.87638 0.14556 0.67326 0.0
C928 C 0.90481 0.17535 0.68119 0.0
C929 C 0.92525 0.16392 0.68976 0.0
C930 C 0.91737 0.12485 0.69066 0.0
H931 H 0.81926 1.01518 0.72333 0.0
H932 H 0.84473 0.06423 0.71821 0.0
H933 H 0.81635 1.03592 0.69436 0.0
H934 H 0.84668 0.08586 0.6672 0.0
H935 H 0.85968 0.1521 0.66622 0.0
H936 H 1.04599 0.84384 0.67233 0.0
H937 H 0.09978 0.87126 0.66988 0.0
H938 H 0.11213 0.95417 0.7291 0.0
H939 H 0.05837 0.92714 0.73157 0.0
H940 H 0.14456 0.94409 0.65954 0.0
H941 H 0.15919 0.90572 0.75763 0.0
H942 H 0.12333 0.8862 0.74156 0.0
H943 H 0.14021 0.93275 0.75655 0.0
C944 C 0.0601 0.86828 0.68459 0.0
C945 C 0.04774 0.88313 0.70226 0.0
C946 C 0.09089 0.88376 0.68327 0.0
C947 C 0.11001 0.91427 0.69967 0.0
C948 C 0.09782 0.93001 0.7167 0.0
H949 H 0.29555 0.06066 0.72682 0.0
H950 H 0.24165 1.02416 0.72671 0.0
C951 C 0.06704 0.91455 0.71806 0.0
C952 C 0.14267 0.9296 0.69906 0.0
H953 H 0.20319 0.94781 0.73657 0.0
C954 C 0.15738 0.94457 0.67629 0.0
C955 C 0.15936 0.92997 0.72088 0.0
C956 C 0.14473 0.91247 0.74547 0.0
C957 C 0.18842 0.96136 0.67508 0.0
C958 C 0.20516 0.96262 0.69712 0.0
C959 C 0.19036 0.9468 0.71969 0.0
C960 C 0.23815 0.98289 0.69781 0.0
C961 C 0.20319 0.97898 0.65056 0.0
C962 C 0.25431 0.9713 0.68204 0.0
C963 C 0.28541 0.99218 0.6821 0.0
C964 C 0.30082 1.02501 0.69793 0.0
C965 C 0.28449 1.03563 0.7143 0.0
C966 C 0.25359 1.01477 0.71429 0.0
H967 H 0.18777 0.98193 0.63701 0.0
H968 H 0.2227 1.00731 0.65462 0.0
H969 H 0.21109 0.96091 0.64102 0.0
H970 H 0.24286 0.9464 0.66946 0.0
H971 H 0.29728 0.9833 0.66921 0.0
H972 H 0.24494 0.19083 0.67594 0.0
H973 H 0.20397 0.2028 0.68557 0.0
H974 H 0.21948 0.19836 0.76643 0.0
H975 H 0.2608 0.18703 0.75691 0.0
H976 H 0.15204 0.16485 0.71151 0.0
H977 H 0.22791 0.30271 0.76098 0.0
H978 H 0.24129 0.27634 0.74238 0.0
H979 H 0.22864 0.26286 0.77429 0.0
C980 C 0.23933 0.19188 0.69574 0.0
C981 C 0.25625 0.18845 0.71569 0.0
C982 C 0.21598 0.19879 0.70123 0.0
C983 C 0.20909 0.20225 0.72673 0.0
C984 C 0.22491 0.19677 0.74664 0.0
H985 H 0.05318 0.22769 0.76228 0.0
H986 H 0.08835 0.20343 0.76146 0.0
C987 C 0.24844 0.19021 0.74118 0.0
C988 C 0.18632 0.21339 0.73236 0.0
H989 H 0.177 0.2839 0.76011 0.0
C990 C 0.15739 0.19074 0.72227 0.0
C991 C 0.19351 0.24742 0.7462 0.0
C992 C 0.22456 0.27396 0.75641 0.0
C993 C 0.13555 0.20151 0.72527 0.0
C994 C 0.14274 0.23547 0.73917 0.0
C995 C 0.1715 0.25771 0.74967 0.0
C996 C 0.12169 0.25033 0.74104 0.0
C997 C 0.10537 0.17728 0.71262 0.0
C998 C 0.12918 0.28524 0.73062 0.0
C999 C 0.10936 0.29924 0.73125 0.0
C1000 C 0.08156 0.27866 0.74239 0.0
C1001 C 0.07431 0.24402 0.75336 0.0
C1002 C 0.09431 0.23007 0.75282 0.0
H1003 H 0.10546 0.15669 0.69821 0.0
H1004 H 0.08925 0.16116 0.72741 0.0
H1005 H 0.09753 0.19502 0.70303 0.0
H1006 H 0.15018 0.30132 0.72141 0.0
H1007 H 0.11546 0.32567 0.72223 0.0
H1008 H 0.14731 0.3836 0.2858 0.0
H1009 H 0.13881 0.39946 0.24312 0.0
H1010 H 0.20579 0.51534 0.25814 0.0
H1011 H 0.21466 0.49946 0.30153 0.0
H1012 H 0.12017 0.45582 0.23427 0.0
H1013 H 0.22349 0.48524 0.18455 0.0
H1014 H 0.21188 0.45707 0.21265 0.0
H1015 H 0.22668 0.50721 0.21577 0.0
C1016 C 0.16074 0.41247 0.2801 0.0
C1017 C 0.18158 0.44035 0.29746 0.0
C1018 C 0.15568 0.4215 0.25555 0.0
C1019 C 0.17143 0.45862 0.24729 0.0
C1020 C 0.19337 0.48641 0.26396 0.0
H1021 H 0.10486 0.51906 0.10754 0.0
H1022 H 0.12648 0.52383 0.15071 0.0
C1023 C 0.19846 0.47731 0.28878 0.0
C1024 C 0.16324 0.46768 0.22178 0.0
H1025 H 0.18542 0.48602 0.15978 0.0
C1026 C 0.13464 0.46308 0.21808 0.0
C1027 C 0.18197 0.47688 0.20054 0.0
C1028 C 0.21272 0.48181 0.2033 0.0
C1029 C 0.12405 0.46641 0.19379 0.0
C1030 C 0.14244 0.47456 0.17237 0.0
C1031 C 0.17132 0.48003 0.17615 0.0
C1032 C 0.13098 0.47377 0.14567 0.0
C1033 C 0.09268 0.45942 0.19094 0.0
C1034 C 0.12663 0.4445 0.12821 0.0
C1035 C 0.11403 0.44153 0.10374 0.0
C1036 C 0.10571 0.46801 0.09571 0.0
C1037 C 0.11086 0.49806 0.11296 0.0
C1038 C 0.1232 0.50077 0.13771 0.0
H1039 H 0.08001 0.44859 0.20864 0.0
H1040 H 0.0931 0.48625 0.18648 0.0
H1041 H 0.08081 0.43878 0.17482 0.0
H1042 H 0.13236 0.42327 0.13373 0.0
H1043 H 0.11066 0.41815 0.09114 0.0
H1044 H 0.68691 0.72316 0.27625 0.0
H1045 H 0.66079 0.69818 0.23507 0.0
H1046 H 0.63582 0.78505 0.23492 0.0
H1047 H 0.66192 0.81037 0.27659 0.0
H1048 H 0.59731 0.67269 0.22327 0.0
H1049 H 0.67448 0.78966 0.16305 0.0
H1050 H 0.6859 0.78146 0.19397 0.0
H1051 H 0.66197 0.80172 0.19204 0.0
C1052 C 0.67612 0.73736 0.26753 0.0
C1053 C 0.6769 0.76919 0.27992 0.0
C1054 C 0.66101 0.7228 0.24388 0.0
C1055 C 0.64644 0.73977 0.23161 0.0
C1056 C 0.64713 0.77161 0.24378 0.0
H1057 H 0.56814 0.67914 0.07337 0.0
H1058 H 0.58175 0.70938 0.11661 0.0
C1059 C 0.66205 0.78604 0.2677 0.0
C1060 C 0.63027 0.72335 0.20639 0.0
H1061 H 0.63442 0.7376 0.14185 0.0
C1062 C 0.6053 0.68707 0.2055 0.0
C1063 C 0.64035 0.74206 0.18311 0.0
C1064 C 0.66722 0.78082 0.18282 0.0
C1065 C 0.59054 0.66885 0.18214 0.0
C1066 C 0.60148 0.68672 0.15865 0.0
C1067 C 0.62587 0.72362 0.15965 0.0
C1068 C 0.58965 0.66651 0.13298 0.0
C1069 C 0.5632 0.63056 0.18299 0.0
C1070 C 0.58891 0.63195 0.12754 0.0
C1071 C 0.58082 0.6145 0.10302 0.0
C1072 C 0.57342 0.63111 0.08291 0.0
C1073 C 0.57303 0.66503 0.08845 0.0
C1074 C 0.58122 0.68263 0.11316 0.0
H1075 H 0.55163 0.62739 0.2013 0.0
H1076 H 0.54739 0.62572 0.16687 0.0
H1077 H 0.56979 0.60833 0.18179 0.0
H1078 H 0.59599 0.61916 0.14198 0.0
H1079 H 0.58189 0.58878 0.09942 0.0
H1080 H 0.46264 0.09683 0.09754 0.0
H1081 H 0.42939 0.07126 0.13314 0.0
H1082 H 0.46128 0.99257 0.1457 0.0
H1083 H 0.49542 1.01902 0.11005 0.0
H1084 H 0.38382 1.00308 0.13655 0.0
H1085 H 0.46057 1.02593 0.21864 0.0
H1086 H 0.47351 0.04806 0.18847 0.0
H1087 H 0.46383 0.99945 0.19199 0.0
C1088 C 0.46316 0.07461 0.10819 0.0
C1089 C 0.48207 0.06032 0.10089 0.0
C1090 C 0.44386 0.05975 0.12859 0.0
C1091 C 0.44252 1.02984 0.14254 0.0
C1092 C 0.46203 1.01609 0.13582 0.0
H1093 H 0.31903 0.90228 0.26531 0.0
H1094 H 0.35532 0.9216 0.23114 0.0
C1095 C 0.4817 1.0313 0.11536 0.0
C1096 C 0.4194 1.01221 0.16277 0.0
H1097 H 0.40917 0.99102 0.22637 0.0
C1098 C 0.38956 1.00056 0.15617 0.0
C1099 C 0.42633 1.00834 0.18854 0.0
C1100 C 0.4578 1.02138 0.19749 0.0
C1101 C 0.3669 0.98575 0.17427 0.0
C1102 C 0.37391 0.98265 0.20011 0.0
C1103 C 0.40356 0.99332 0.20667 0.0
C1104 C 0.351 0.96992 0.22064 0.0
C1105 C 0.33546 0.9732 0.16541 0.0
C1106 C 0.33614 0.99034 0.22641 0.0
C1107 C 0.31536 0.97935 0.24597 0.0
C1108 C 0.30859 0.94744 0.26045 0.0
C1109 C 0.3232 0.92667 0.25446 0.0
C1110 C 0.34424 0.93792 0.23498 0.0
H1111 H 0.33235 0.96718 0.14439 0.0
H1112 H 0.31947 0.94752 0.17526 0.0
H1113 H 0.33017 0.99607 0.16998 0.0
H1114 H 0.34109 1.01545 0.21611 0.0
H1115 H 0.30496 0.99641 0.25004 0.0
H1116 H 0.54142 0.16395 0.96439 0.0
H1117 H 0.52723 0.1804 0.92345 0.0
H1118 H 0.49904 0.06805 0.89269 0.0
H1119 H 0.51266 0.05134 0.93344 0.0
H1120 H 0.53559 0.14143 0.85818 0.0
H1121 H 0.43112 0.11955 0.90241 0.0
H1122 H 0.46601 0.1459 0.91993 0.0
H1123 H 0.45067 0.09606 0.91409 0.0
C1124 C 0.53322 0.1432 0.9486 0.0
C1125 C 0.5285 0.1064 0.95215 0.0
C1126 C 0.52482 0.15253 0.92526 0.0
C1127 C 0.51192 0.12541 0.90494 0.0
C1128 C 0.50897 0.08949 0.90797 0.0
H1129 H 0.39438 0.06936 0.7758 0.0
H1130 H 0.42133 0.07723 0.81616 0.0
C1131 C 0.51693 0.08003 0.9313 0.0
C1132 C 0.49895 0.13282 0.88142 0.0
H1133 H 0.43515 0.12863 0.85814 0.0
C1134 C 0.51387 0.13935 0.85822 0.0
C1135 C 0.47048 0.12973 0.88136 0.0
C1136 C 0.45339 0.12236 0.90568 0.0
C1137 C 0.50077 0.14193 0.83497 0.0
C1138 C 0.47186 0.13773 0.83476 0.0
C1139 C 0.45732 0.1321 0.85814 0.0
C1140 C 0.45504 0.13485 0.81033 0.0
C1141 C 0.51737 0.14727 0.81057 0.0
C1142 C 0.46443 0.16492 0.79348 0.0
C1143 C 0.44867 0.16059 0.77019 0.0
C1144 C 0.42333 0.12599 0.7632 0.0
C1145 C 0.41372 0.09646 0.78046 0.0
C1146 C 0.42919 0.10089 0.80366 0.0
H1147 H 0.53694 0.1431 0.81312 0.0
H1148 H 0.50249 0.1272 0.79531 0.0
H1149 H 0.52519 0.17633 0.80403 0.0
H1150 H 0.48409 0.19163 0.7982 0.0
H1151 H 0.45692 0.18379 0.75728 0.0
H1152 H 0.06058 0.4423 0.92565 0.0
H1153 H 1.03207 0.41819 0.88529 0.0
H1154 H 0.95116 0.38527 0.92551 0.0
H1155 H 0.97997 0.41166 0.96566 0.0
H1156 H 0.99631 0.35321 0.86912 0.0
H1157 H 0.93177 0.42857 0.86712 0.0
H1158 H 0.96153 0.44084 0.89027 0.0
H1159 H 0.92497 0.40212 0.89552 0.0
C1160 C 1.03674 0.43062 0.92581 0.0
C1161 C 1.02267 0.42942 0.94891 0.0
C1162 C 1.02032 0.41658 0.90264 0.0
C1163 C 0.98917 0.40014 0.90182 0.0
C1164 C 0.97508 0.39885 0.92503 0.0
H1165 H 0.89367 0.24339 0.77188 0.0
H1166 H 0.9121 0.27128 0.81486 0.0
C1167 C 0.99163 0.41381 0.94816 0.0
C1168 C 0.97178 0.38241 0.87706 0.0
H1169 H 0.91572 0.37577 0.83751 0.0
C1170 C 0.97884 0.35851 0.86228 0.0
C1171 C 0.94907 0.38932 0.86746 0.0
C1172 C 0.94161 0.41693 0.88078 0.0
C1173 C 0.96415 0.34152 0.83868 0.0
C1174 C 0.94034 0.3467 0.82979 0.0
C1175 C 0.93342 0.37093 0.84435 0.0
C1176 C 0.92326 0.32814 0.80511 0.0
C1177 C 0.97529 0.31932 0.82313 0.0
C1178 C 0.92026 0.34962 0.78569 0.0
C1179 C 0.90831 0.33313 0.76125 0.0
C1180 C 0.8994 0.29488 0.75559 0.0
C1181 C 0.90014 0.27284 0.77562 0.0
C1182 C 0.91134 0.28906 0.80013 0.0
H1183 H 0.99879 0.32826 0.8282 0.0
H1184 H 0.96193 0.28892 0.82719 0.0
H1185 H 0.97357 0.32275 0.80226 0.0
H1186 H 0.92881 0.37969 0.7889 0.0
H1187 H 0.9084 0.35107 0.74626 0.0
H1188 H 0.81872 0.69181 0.78309 0.0
H1189 H 0.78779 0.67341 0.82135 0.0
H1190 H 0.75456 0.74857 0.80148 0.0
H1191 H 0.78553 0.76739 0.76419 0.0
H1192 H 0.7639 0.75396 0.85078 0.0
H1193 H 0.69991 0.60136 0.82359 0.0
H1194 H 0.73917 0.61925 0.82705 0.0
H1195 H 0.7248 0.63595 0.80203 0.0
C1196 C 0.8053 0.70496 0.78723 0.0
C1197 C 0.80485 0.73126 0.77041 0.0
C1198 C 0.7871 0.6939 0.80893 0.0
C1199 C 0.76796 0.70878 0.81431 0.0
C1200 C 0.76868 0.7362 0.79803 0.0
H1201 H 0.61165 0.62059 0.91434 0.0
H1202 H 0.6447 0.63528 0.87761 0.0
C1203 C 0.78663 0.74709 0.77656 0.0
C1204 C 0.74718 0.69665 0.83664 0.0
H1205 H 0.68928 0.62036 0.86363 0.0
C1206 C 0.7477 0.72466 0.85351 0.0
C1207 C 0.72529 0.65853 0.84026 0.0
C1208 C 0.72193 0.627 0.82217 0.0
C1209 C 0.72754 0.71591 0.87359 0.0
C1210 C 0.7063 0.6777 0.8778 0.0
C1211 C 0.70549 0.64962 0.8608 0.0
C1212 C 0.68555 0.66673 0.9001 0.0
C1213 C 0.72878 0.74816 0.88966 0.0
C1214 C 0.69704 0.67838 0.92526 0.0
C1215 C 0.67828 0.67042 0.94609 0.0
C1216 C 0.64709 0.64984 0.94282 0.0
C1217 C 0.63541 0.63671 0.91775 0.0
C1218 C 0.6544 0.64509 0.89668 0.0
H1219 H 0.73879 0.77484 0.87914 0.0
H1220 H 0.70635 0.74195 0.89561 0.0
H1221 H 0.74281 0.75296 0.90711 0.0
H1222 H 0.72079 0.69391 0.92889 0.0
H1223 H 0.68847 0.68052 0.96497 0.0
H1224 H 0.74054 0.75325 0.4229 0.0
H1225 H 0.7612 0.75031 0.46445 0.0
H1226 H 0.7597 0.85108 0.49056 0.0
H1227 H 0.73777 0.85313 0.44881 0.0
H1228 H 0.81258 0.79677 0.48503 0.0
H1229 H 0.72905 0.79093 0.553 0.0
H1230 H 0.72179 0.78431 0.51884 0.0
H1231 H 0.74341 0.8311 0.5331 0.0
C1232 C 0.74384 0.77426 0.43773 0.0
C1233 C 0.737 0.80306 0.43259 0.0
C1234 C 0.75596 0.77275 0.46154 0.0
C1235 C 0.76211 0.80029 0.48111 0.0
C1236 C 0.75467 0.82882 0.47626 0.0
H1237 H 0.85256 0.82359 0.6326 0.0
H1238 H 0.83546 0.83938 0.59286 0.0
C1239 C 0.74204 0.83003 0.45232 0.0
C1240 C 0.77785 0.79971 0.50559 0.0
H1241 H 0.77321 0.79628 0.57112 0.0
C1242 C 0.80383 0.79674 0.50379 0.0
C1243 C 0.76693 0.79989 0.5304 0.0
C1244 C 0.73863 0.80138 0.53406 0.0
C1245 C 0.81862 0.79327 0.52562 0.0
C1246 C 0.80739 0.79269 0.55027 0.0
C1247 C 0.78201 0.79687 0.5523 0.0
C1248 C 0.82033 0.78478 0.57379 0.0
C1249 C 0.8462 0.79002 0.52211 0.0
C1250 C 0.81816 0.74913 0.57635 0.0
C1251 C 0.82783 0.74008 0.599 0.0
C1252 C 0.8404 0.76653 0.61975 0.0
C1253 C 0.84376 0.80283 0.61683 0.0
C1254 C 0.83358 0.81172 0.5942 0.0
H1255 H 0.8561 0.80012 0.50321 0.0
H1256 H 0.86308 0.80642 0.53746 0.0
H1257 H 0.84045 0.75995 0.52321 0.0
H1258 H 0.80782 0.72763 0.56115 0.0
H1259 H 0.82436 0.71167 0.60069 0.0
H1260 H 0.28904 0.90157 0.4161 0.0
H1261 H 0.30482 0.92531 0.46064 0.0
H1262 H 0.24928 0.97707 0.45948 0.0
H1263 H 0.23373 0.9538 0.41524 0.0
H1264 H 0.33436 1.00582 0.47418 0.0
H1265 H 0.2329 0.92748 0.53021 0.0
H1266 H 0.23761 0.91024 0.49932 0.0
H1267 H 0.22819 0.94734 0.50133 0.0
C1268 C 0.2793 0.9167 0.42569 0.0
C1269 C 0.25977 0.92526 0.41214 0.0
C1270 C 0.28861 0.93069 0.45109 0.0
C1271 C 0.27816 0.95291 0.46365 0.0
C1272 C 0.25739 0.9596 0.45056 0.0
H1273 H 0.32222 0.0829 0.61187 0.0
H1274 H 0.29993 0.05315 0.56965 0.0
C1275 C 0.24843 0.94613 0.42518 0.0
C1276 C 0.291 0.97228 0.48925 0.0
H1277 H 0.27357 0.98 0.55144 0.0
C1278 C 0.32109 0.99991 0.49111 0.0
C1279 C 0.27366 0.96538 0.51131 0.0
C1280 C 0.24133 0.93582 0.51065 0.0
C1281 C 0.3342 1.02088 0.51415 0.0
C1282 C 0.31709 1.01339 0.53648 0.0
C1283 C 0.28686 0.98596 0.53453 0.0
C1284 C 0.3306 1.03231 0.56213 0.0
C1285 C 0.36617 0.05166 0.51403 0.0
C1286 C 0.35506 1.03042 0.57234 0.0
C1287 C 0.36795 0.04767 0.59619 0.0
C1288 C 0.35661 0.06704 0.61103 0.0
C1289 C 0.33185 0.06869 0.601 0.0
C1290 C 0.31896 0.05145 0.57686 0.0
H1291 H 0.3727 0.06258 0.49453 0.0
H1292 H 0.37037 0.07567 0.52734 0.0
H1293 H 0.38063 1.03998 0.52008 0.0
H1294 H 0.36409 1.01504 0.56199 0.0
H1295 H 0.38673 0.04518 0.60312 0.0
H1296 H 0.94384 0.26254 0.59489 0.0
H1297 H 0.97938 0.27807 0.56006 0.0
H1298 H 1.02784 0.39311 0.58972 0.0
H1299 H 0.99325 0.37779 0.62437 0.0
H1300 H 0.99795 0.32742 0.52108 0.0
H1301 H 0.09424 0.36928 0.58702 0.0
H1302 H 0.05665 0.34558 0.59781 0.0
H1303 H 0.07566 0.39586 0.59374 0.0
C1304 C 0.9619 0.29121 0.59381 0.0
C1305 C 0.96562 0.31871 0.61275 0.0
C1306 C 0.98241 0.30009 0.57391 0.0
C1307 C 1.00717 0.33665 0.57248 0.0
C1308 C 1.00983 0.36439 0.59065 0.0
H1309 H 0.15255 0.45862 0.46657 0.0
H1310 H 0.11904 0.43935 0.50308 0.0
C1311 C 0.98966 0.35555 0.61046 0.0
C1312 C 1.03022 0.3463 0.55219 0.0
H1313 H 0.10533 0.38703 0.54359 0.0
C1314 C 1.02137 0.34009 0.52611 0.0
C1315 C 0.06107 0.36302 0.55836 0.0
C1316 C 0.07247 0.36848 0.58574 0.0
C1317 C 1.0422 0.35095 0.50636 0.0
C1318 C 0.07303 0.3682 0.51256 0.0
C1319 C 0.08189 0.37415 0.5386 0.0
C1320 C 0.09616 0.37973 0.49225 0.0
C1321 C 1.03096 0.34478 0.47888 0.0
C1322 C 0.09581 0.35275 0.47456 0.0
C1323 C 0.11524 0.36371 0.454 0.0
C1324 C 0.13602 0.40195 0.45059 0.0
C1325 C 0.13757 0.42886 0.46904 0.0
C1326 C 0.11805 0.41782 0.48975 0.0
H1327 H 1.0081 0.34063 0.47735 0.0
H1328 H 1.04569 0.36905 0.46723 0.0
H1329 H 1.03054 0.31906 0.47057 0.0
H1330 H 0.07972 0.32315 0.4761 0.0
H1331 H 0.1129 0.34233 0.43984 0.0
loop_
_geom_bond_atom_site_label_1
_geom_bond_atom_site_label_2
_geom_bond_distance
_geom_bond_site_symmetry_2
_ccdc_geom_bond_type
Tb0 C10 2.825 . S
Tb0 O11 2.347 1_554 S
Tb0 O14 2.366 . S
Tb0 O19 2.418 . S
Tb0 O20 2.384 1_655 S
Tb0 O23 2.479 . S
Tb0 O24 2.471 1_554 S
Eu1 O12 2.418 1_554 S
Eu1 O13 2.384 1_455 S
Eu1 O16 2.479 1_554 S
Eu1 O17 2.471 . S
Eu1 O18 2.347 . S
Eu1 O21 2.366 1_554 S
Eu1 C31 2.825 . S
C2 O18 1.259 . S
C2 O19 1.265 1_455 S
C3 O20 1.255 . S
C3 O21 1.265 1_554 S
C4 C6 1.380 . S
C4 C7 1.374 1_554 S
C4 C10 1.507 . S
C5 C6 1.384 . S
C5 C9 1.387 . S
C5 H32 0.930 . S
C6 C4 1.380 . S
C6 C5 1.384 . S
C6 H33 0.931 . S
C7 C4 1.374 1_556 S
C7 C8 1.390 . S
C7 H34 0.930 . S
C8 C7 1.390 . S
C8 C9 1.391 1_556 S
C8 H35 0.930 . S
C9 C5 1.387 . S
C9 C8 1.391 1_554 S
C10 Tb0 2.825 . S
C10 C4 1.507 . S
C10 O23 1.238 . S
C10 O24 1.247 1_554 S
O11 Tb0 2.347 1_556 S
O11 C15 1.259 . S
O12 Eu1 2.418 1_556 S
O12 C15 1.265 1_455 S
O13 Eu1 2.384 1_655 S
O13 C22 1.255 . S
O14 Tb0 2.366 . S
O14 C22 1.265 . S
C15 O11 1.259 . S
C15 O12 1.265 1_655 S
O16 Eu1 2.479 1_556 S
O16 C31 1.238 1_556 S
O17 Eu1 2.471 . S
O17 C31 1.247 . S
O18 Eu1 2.347 . S
O18 C2 1.259 . S
O19 Tb0 2.418 . S
O19 C2 1.265 1_655 S
O20 Tb0 2.384 1_455 S
O20 C3 1.255 . S
O21 Eu1 2.366 1_556 S
O21 C3 1.265 1_556 S
C22 O13 1.255 . S
C22 O14 1.265 . S
O23 Tb0 2.479 . S
O23 C10 1.238 . S
O24 Tb0 2.471 1_556 S
O24 C10 1.247 1_556 S
C25 C28 1.380 1_554 S
C25 C29 1.374 . S
C25 C31 1.507 . S
C26 C27 1.387 1_554 S
C26 C30 1.391 . S
C27 C26 1.387 1_556 S
C27 C28 1.384 . S
C27 H36 0.930 . S
C28 C25 1.380 1_556 S
C28 C27 1.384 . S
C28 H37 0.931 . S
C29 C25 1.374 . S
C29 C30 1.390 . S
C29 H38 0.930 . S
C30 C26 1.391 . S
C30 C29 1.390 . S
C30 H39 0.930 . S
C31 Eu1 2.825 . S
C31 O16 1.238 1_554 S
C31 O17 1.247 . S
C31 C25 1.507 . S
H32 C5 0.930 . S
H33 C6 0.931 . S
H34 C7 0.930 . S
H35 C8 0.930 . S
H36 C27 0.930 . S
H37 C28 0.931 . S
H38 C29 0.930 . S
H39 C30 0.930 . S
Tb40 C50 2.825 . S
Tb40 O51 2.347 1_556 S
Tb40 O54 2.366 . S
Tb40 O59 2.418 . S
Tb40 O60 2.384 . S
Tb40 O63 2.479 . S
Tb40 O64 2.471 1_556 S
Eu41 O52 2.418 . S
Eu41 O53 2.384 . S
Eu41 O56 2.479 . S
Eu41 O57 2.471 1_554 S
Eu41 O58 2.347 1_554 S
Eu41 O61 2.366 . S
Eu41 C71 2.825 . S
C42 O58 1.259 . S
C42 O59 1.265 . S
C43 O60 1.255 1_554 S
C43 O61 1.265 . S
C44 C46 1.380 . S
C44 C47 1.374 1_556 S
C44 C50 1.507 . S
C45 C46 1.384 . S
C45 C49 1.387 . S
C45 H72 0.930 . S
C46 C44 1.380 . S
C46 C45 1.384 . S
C46 H73 0.931 . S
C47 C44 1.374 1_554 S
C47 C48 1.390 . S
C47 H74 0.930 . S
C48 C47 1.390 . S
C48 C49 1.391 1_554 S
C48 H75 0.930 . S
C49 C45 1.387 . S
C49 C48 1.391 1_556 S
C50 Tb40 2.825 . S
C50 C44 1.507 . S
C50 O63 1.238 . S
C50 O64 1.247 1_556 S
O51 Tb40 2.347 1_554 S
O51 C55 1.259 . S
O52 Eu41 2.418 . S
O52 C55 1.265 . S
O53 Eu41 2.384 . S
O53 C62 1.255 1_554 S
O54 Tb40 2.366 . S
O54 C62 1.265 . S
C55 O51 1.259 . S
C55 O52 1.265 . S
O56 Eu41 2.479 . S
O56 C71 1.238 . S
O57 Eu41 2.471 1_556 S
O57 C71 1.247 1_556 S
O58 Eu41 2.347 1_556 S
O58 C42 1.259 . S
O59 Tb40 2.418 . S
O59 C42 1.265 . S
O60 Tb40 2.384 . S
O60 C43 1.255 1_556 S
O61 Eu41 2.366 . S
O61 C43 1.265 . S
C62 O53 1.255 1_556 S
C62 O54 1.265 . S
O63 Tb40 2.479 . S
O63 C50 1.238 . S
O64 Tb40 2.471 1_554 S
O64 C50 1.247 1_554 S
C65 C68 1.380 . S
C65 C69 1.374 1_554 S
C65 C71 1.507 . S
C66 C67 1.387 . S
C66 C70 1.391 1_554 S
C67 C66 1.387 . S
C67 C68 1.384 . S
C67 H76 0.930 . S
C68 C65 1.380 . S
C68 C67 1.384 . S
C68 H77 0.931 . S
C69 C65 1.374 1_556 S
C69 C70 1.390 . S
C69 H78 0.930 . S
C70 C66 1.391 1_556 S
C70 C69 1.390 . S
C70 H79 0.930 . S
C71 Eu41 2.825 . S
C71 O56 1.238 . S
C71 O57 1.247 1_554 S
C71 C65 1.507 . S
H72 C45 0.930 . S
H73 C46 0.931 . S
H74 C47 0.930 . S
H75 C48 0.930 . S
H76 C67 0.930 . S
H77 C68 0.931 . S
H78 C69 0.930 . S
H79 C70 0.930 . S
Tb80 C90 2.825 . S
Tb80 O91 2.347 1_554 S
Tb80 O94 2.366 . S
Tb80 O99 2.418 . S
Tb80 O100 2.384 1_545 S
Tb80 O103 2.479 . S
Tb80 O104 2.471 1_554 S
Eu81 O92 2.402 1_554 S
Eu81 O93 2.385 1_565 S
Eu81 O96 2.473 1_554 S
Eu81 O97 2.480 . S
Eu81 O98 2.360 . S
Eu81 O101 2.365 1_554 S
Eu81 C111 2.823 . S
C82 O98 1.258 . S
C82 O99 1.265 1_565 S
C83 O100 1.255 . S
C83 O101 1.265 1_554 S
C84 C86 1.380 . S
C84 C87 1.374 1_554 S
C84 C90 1.507 . S
C85 C86 1.384 . S
C85 C89 1.387 . S
C85 H112 0.930 . S
C86 C84 1.380 . S
C86 C85 1.384 . S
C86 H113 0.931 . S
C87 C84 1.374 1_556 S
C87 C88 1.390 . S
C87 H114 0.930 . S
C88 C87 1.390 . S
C88 C89 1.391 1_556 S
C88 H115 0.930 . S
C89 C85 1.387 . S
C89 C88 1.391 1_554 S
C90 Tb80 2.825 . S
C90 C84 1.507 . S
C90 O103 1.238 . S
C90 O104 1.247 1_554 S
O91 Tb80 2.347 1_556 S
O91 C95 1.259 . S
O92 Eu81 2.402 1_556 S
O92 C95 1.265 1_565 S
O93 Eu81 2.385 1_545 S
O93 C102 1.255 . S
O94 Tb80 2.366 . S
O94 C102 1.265 . S
C95 O91 1.259 . S
C95 O92 1.265 1_545 S
O96 Eu81 2.473 1_556 S
O96 C111 1.196 1_556 S
O97 Eu81 2.480 . S
O97 C111 1.286 . S
O98 Eu81 2.360 . S
O98 C82 1.258 . S
O99 Tb80 2.418 . S
O99 C82 1.265 1_545 S
O100 Tb80 2.384 1_565 S
O100 C83 1.255 . S
O101 Eu81 2.365 1_556 S
O101 C83 1.265 1_556 S
C102 O93 1.255 . S
C102 O94 1.265 . S
O103 Tb80 2.479 . S
O103 C90 1.238 . S
O104 Tb80 2.471 1_556 S
O104 C90 1.247 1_556 S
C105 C108 1.345 1_554 S
C105 C109 1.413 . S
C105 C111 1.507 . S
C106 C107 1.387 1_554 S
C106 C110 1.391 . S
C107 C106 1.387 1_556 S
C107 C108 1.384 . S
C107 H116 0.930 . S
C108 C105 1.345 1_556 S
C108 C107 1.384 . S
C108 H117 0.931 . S
C109 C105 1.413 . S
C109 C110 1.390 . S
C109 H118 0.930 . S
C110 C106 1.391 . S
C110 C109 1.390 . S
C110 H119 0.930 . S
C111 Eu81 2.823 . S
C111 O96 1.196 1_554 S
C111 O97 1.286 . S
C111 C105 1.507 . S
H112 C85 0.930 . S
H113 C86 0.931 . S
H114 C87 0.930 . S
H115 C88 0.930 . S
H116 C107 0.930 . S
H117 C108 0.931 . S
H118 C109 0.930 . S
H119 C110 0.930 . S
Tb120 C130 2.825 . S
Tb120 O131 2.347 . S
Tb120 O134 2.366 . S
Tb120 O139 2.418 . S
Tb120 O140 2.384 . S
Tb120 O143 2.479 . S
Tb120 O144 2.471 . S
Eu121 O132 2.418 . S
Eu121 O133 2.384 . S
Eu121 O136 2.479 . S
Eu121 O137 2.471 . S
Eu121 O138 2.347 . S
Eu121 O141 2.366 . S
Eu121 C151 2.825 . S
C122 O138 1.259 . S
C122 O139 1.265 . S
C123 O140 1.255 . S
C123 O141 1.265 . S
C124 C126 1.380 . S
C124 C127 1.374 . S
C124 C130 1.507 . S
C125 C126 1.384 . S
C125 C129 1.387 . S
C125 H152 0.930 . S
C126 C124 1.380 . S
C126 C125 1.384 . S
C126 H153 0.931 . S
C127 C124 1.374 . S
C127 C128 1.390 . S
C127 H154 0.930 . S
C128 C127 1.390 . S
C128 C129 1.391 . S
C128 H155 0.930 . S
C129 C125 1.387 . S
C129 C128 1.391 . S
C130 Tb120 2.825 . S
C130 C124 1.507 . S
C130 O143 1.238 . S
C130 O144 1.247 . S
O131 Tb120 2.347 . S
O131 C135 1.259 . S
O132 Eu121 2.418 . S
O132 C135 1.265 . S
O133 Eu121 2.384 . S
O133 C142 1.255 . S
O134 Tb120 2.366 . S
O134 C142 1.265 . S
C135 O131 1.259 . S
C135 O132 1.265 . S
O136 Eu121 2.479 . S
O136 C151 1.238 . S
O137 Eu121 2.471 . S
O137 C151 1.247 . S
O138 Eu121 2.347 . S
O138 C122 1.259 . S
O139 Tb120 2.418 . S
O139 C122 1.265 . S
O140 Tb120 2.384 . S
O140 C123 1.255 . S
O141 Eu121 2.366 . S
O141 C123 1.265 . S
C142 O133 1.255 . S
C142 O134 1.265 . S
O143 Tb120 2.479 . S
O143 C130 1.238 . S
O144 Tb120 2.471 . S
O144 C130 1.247 . S
C145 C148 1.380 . S
C145 C149 1.374 . S
C145 C151 1.507 . S
C146 C147 1.387 . S
C146 C150 1.391 . S
C147 C146 1.387 . S
C147 C148 1.384 . S
C147 H156 0.930 . S
C148 C145 1.380 . S
C148 C147 1.384 . S
C148 H157 0.931 . S
C149 C145 1.374 . S
C149 C150 1.390 . S
C149 H158 0.930 . S
C150 C146 1.391 . S
C150 C149 1.390 . S
C150 H159 0.930 . S
C151 Eu121 2.825 . S
C151 O136 1.238 . S
C151 O137 1.247 . S
C151 C145 1.507 . S
H152 C125 0.930 . S
H153 C126 0.931 . S
H154 C127 0.930 . S
H155 C128 0.930 . S
H156 C147 0.930 . S
H157 C148 0.931 . S
H158 C149 0.930 . S
H159 C150 0.930 . S
Tb160 C170 2.825 . S
Tb160 O171 2.347 . S
Tb160 O174 2.366 . S
Tb160 O179 2.418 . S
Tb160 O180 2.384 . S
Tb160 O183 2.479 . S
Tb160 O184 2.471 . S
Eu161 O172 2.418 . S
Eu161 O173 2.384 . S
Eu161 O176 2.479 . S
Eu161 O177 2.471 . S
Eu161 O178 2.347 . S
Eu161 O181 2.366 . S
Eu161 C191 2.859 . S
C162 O178 1.259 . S
C162 O179 1.265 . S
C163 O180 1.255 . S
C163 O181 1.265 . S
C164 C166 1.380 . S
C164 C167 1.374 . S
C164 C170 1.507 . S
C165 C166 1.384 . S
C165 C169 1.387 . S
C165 H192 0.930 . S
C166 C164 1.380 . S
C166 C165 1.384 . S
C166 H193 0.931 . S
C167 C164 1.374 . S
C167 C168 1.390 . S
C167 H194 0.930 . S
C168 C167 1.390 . S
C168 C169 1.391 . S
C168 H195 0.930 . S
C169 C165 1.387 . S
C169 C168 1.391 . S
C170 Tb160 2.825 . S
C170 C164 1.507 . S
C170 O183 1.238 . S
C170 O184 1.247 . S
O171 Tb160 2.347 . S
O171 C175 1.259 . S
O172 Eu161 2.418 . S
O172 C175 1.265 . S
O173 Eu161 2.384 . S
O173 C182 1.255 . S
O174 Tb160 2.366 . S
O174 C182 1.265 . S
C175 O171 1.259 . S
C175 O172 1.265 . S
O176 Eu161 2.479 . S
O176 C191 1.252 . S
O177 Eu161 2.471 . S
O177 C191 1.266 . S
O178 Eu161 2.347 . S
O178 C162 1.259 . S
O179 Tb160 2.418 . S
O179 C162 1.265 . S
O180 Tb160 2.384 . S
O180 C163 1.255 . S
O181 Eu161 2.366 . S
O181 C163 1.265 . S
C182 O173 1.255 . S
C182 O174 1.265 . S
O183 Tb160 2.479 . S
O183 C170 1.238 . S
O184 Tb160 2.471 . S
O184 C170 1.247 . S
C185 C188 1.380 . S
C185 C189 1.374 . S
C185 C191 1.473 1_545 S
C186 C187 1.387 . S
C186 C190 1.391 . S
C187 C186 1.387 . S
C187 C188 1.384 . S
C187 H196 0.930 . S
C188 C185 1.380 . S
C188 C187 1.384 . S
C188 H197 0.931 . S
C189 C185 1.374 . S
C189 C190 1.390 . S
C189 H198 0.930 . S
C190 C186 1.391 . S
C190 C189 1.390 . S
C190 H199 0.930 . S
C191 Eu161 2.859 . S
C191 O176 1.252 . S
C191 O177 1.266 . S
C191 C185 1.473 1_565 S
H192 C165 0.930 . S
H193 C166 0.931 . S
H194 C167 0.930 . S
H195 C168 0.930 . S
H196 C187 0.930 . S
H197 C188 0.931 . S
H198 C189 0.930 . S
H199 C190 0.930 . S
Tb200 C210 2.825 . S
Tb200 O211 2.347 . S
Tb200 O214 2.366 . S
Tb200 O219 2.418 . S
Tb200 O220 2.384 . S
Tb200 O223 2.479 . S
Tb200 O224 2.471 . S
Eu201 O212 2.418 . S
Eu201 O213 2.384 . S
Eu201 O216 2.479 . S
Eu201 O217 2.471 . S
Eu201 O218 2.347 . S
Eu201 O221 2.366 . S
Eu201 C231 2.825 . S
C202 O218 1.259 . S
C202 O219 1.265 . S
C203 O220 1.255 . S
C203 O221 1.265 . S
C204 C206 1.380 . S
C204 C207 1.374 . S
C204 C210 1.507 . S
C205 C206 1.384 . S
C205 C209 1.387 . S
C205 H232 0.930 . S
C206 C204 1.380 . S
C206 C205 1.384 . S
C206 H233 0.931 . S
C207 C204 1.374 . S
C207 C208 1.390 . S
C207 H234 0.930 . S
C208 C207 1.390 . S
C208 C209 1.391 . S
C208 H235 0.930 . S
C209 C205 1.387 . S
C209 C208 1.391 . S
C210 Tb200 2.825 . S
C210 C204 1.507 . S
C210 O223 1.238 . S
C210 O224 1.247 . S
O211 Tb200 2.347 . S
O211 C215 1.259 . S
O212 Eu201 2.418 . S
O212 C215 1.265 . S
O213 Eu201 2.384 . S
O213 C222 1.255 . S
O214 Tb200 2.366 . S
O214 C222 1.265 . S
C215 O211 1.259 . S
C215 O212 1.265 . S
O216 Eu201 2.479 . S
O216 C231 1.238 . S
O217 Eu201 2.471 . S
O217 C231 1.247 . S
O218 Eu201 2.347 . S
O218 C202 1.259 . S
O219 Tb200 2.418 . S
O219 C202 1.265 . S
O220 Tb200 2.384 . S
O220 C203 1.255 . S
O221 Eu201 2.366 . S
O221 C203 1.265 . S
C222 O213 1.255 . S
C222 O214 1.265 . S
O223 Tb200 2.479 . S
O223 C210 1.238 . S
O224 Tb200 2.471 . S
O224 C210 1.247 . S
C225 C228 1.380 1_455 S
C225 C229 1.374 . S
C225 C231 1.507 . S
C226 C227 1.387 . S
C226 C230 1.391 . S
C227 C226 1.387 . S
C227 C228 1.384 . S
C227 H236 0.930 . S
C228 C225 1.380 1_655 S
C228 C227 1.384 . S
C228 H237 0.931 . S
C229 C225 1.374 . S
C229 C230 1.390 1_455 S
C229 H238 0.930 . S
C230 C226 1.391 . S
C230 C229 1.390 1_655 S
C230 H239 0.930 . S
C231 Eu201 2.825 . S
C231 O216 1.238 . S
C231 O217 1.247 . S
C231 C225 1.507 . S
H232 C205 0.930 . S
H233 C206 0.931 . S
H234 C207 0.930 . S
H235 C208 0.930 . S
H236 C227 0.930 . S
H237 C228 0.931 . S
H238 C229 0.930 . S
H239 C230 0.930 . S
Tb240 C250 2.825 . S
Tb240 O251 2.347 . S
Tb240 O254 2.366 . S
Tb240 O259 2.418 . S
Tb240 O260 2.384 . S
Tb240 O263 2.479 . S
Tb240 O264 2.471 . S
Eu241 O252 2.418 . S
Eu241 O253 2.384 . S
Eu241 O256 2.479 . S
Eu241 O257 2.471 . S
Eu241 O258 2.347 . S
Eu241 O261 2.366 . S
Eu241 C271 2.825 . S
C242 O258 1.259 . S
C242 O259 1.265 . S
C243 O260 1.255 . S
C243 O261 1.265 . S
C244 C246 1.380 . S
C244 C247 1.374 . S
C244 C250 1.507 . S
C245 C246 1.384 . S
C245 C249 1.387 . S
C245 H272 0.930 . S
C246 C244 1.380 . S
C246 C245 1.384 . S
C246 H273 0.931 . S
C247 C244 1.374 . S
C247 C248 1.390 . S
C247 H274 0.930 . S
C248 C247 1.390 . S
C248 C249 1.391 . S
C248 H275 0.930 . S
C249 C245 1.387 . S
C249 C248 1.391 . S
C250 Tb240 2.825 . S
C250 C244 1.507 . S
C250 O263 1.238 . S
C250 O264 1.247 . S
O251 Tb240 2.347 . S
O251 C255 1.259 . S
O252 Eu241 2.418 . S
O252 C255 1.265 . S
O253 Eu241 2.384 . S
O253 C262 1.255 . S
O254 Tb240 2.366 . S
O254 C262 1.265 . S
C255 O251 1.259 . S
C255 O252 1.265 . S
O256 Eu241 2.479 . S
O256 C271 1.238 . S
O257 Eu241 2.471 . S
O257 C271 1.247 . S
O258 Eu241 2.347 . S
O258 C242 1.259 . S
O259 Tb240 2.418 . S
O259 C242 1.265 . S
O260 Tb240 2.384 . S
O260 C243 1.255 . S
O261 Eu241 2.366 . S
O261 C243 1.265 . S
C262 O253 1.255 . S
C262 O254 1.265 . S
O263 Tb240 2.479 . S
O263 C250 1.238 . S
O264 Tb240 2.471 . S
O264 C250 1.247 . S
C265 C268 1.380 . S
C265 C269 1.374 . S
C265 C271 1.507 . S
C266 C267 1.387 . S
C266 C270 1.391 . S
C267 C266 1.387 . S
C267 C268 1.384 . S
C267 H276 0.930 . S
C268 C265 1.380 . S
C268 C267 1.384 . S
C268 H277 0.931 . S
C269 C265 1.374 . S
C269 C270 1.390 . S
C269 H278 0.930 . S
C270 C266 1.391 . S
C270 C269 1.390 . S
C270 H279 0.930 . S
C271 Eu241 2.825 . S
C271 O256 1.238 . S
C271 O257 1.247 . S
C271 C265 1.507 . S
H272 C245 0.930 . S
H273 C246 0.931 . S
H274 C247 0.930 . S
H275 C248 0.930 . S
H276 C267 0.930 . S
H277 C268 0.931 . S
H278 C269 0.930 . S
H279 C270 0.930 . S
Tb280 C290 2.825 . S
Tb280 O291 2.347 . S
Tb280 O294 2.366 . S
Tb280 O299 2.418 . S
Tb280 O300 2.384 . S
Tb280 O303 2.479 . S
Tb280 O304 2.471 . S
Eu281 O292 2.418 . S
Eu281 O293 2.384 . S
Eu281 O296 2.479 . S
Eu281 O297 2.471 . S
Eu281 O298 2.347 . S
Eu281 O301 2.366 . S
Eu281 C311 2.825 . S
C282 O298 1.259 . S
C282 O299 1.265 . S
C283 O300 1.255 . S
C283 O301 1.265 . S
C284 C286 1.380 . S
C284 C287 1.374 . S
C284 C290 1.507 . S
C285 C286 1.384 . S
C285 C289 1.387 . S
C285 H312 0.930 . S
C286 C284 1.380 . S
C286 C285 1.384 . S
C286 H313 0.931 . S
C287 C284 1.374 . S
C287 C288 1.390 . S
C287 H314 0.930 . S
C288 C287 1.390 . S
C288 C289 1.391 . S
C288 H315 0.930 . S
C289 C285 1.387 . S
C289 C288 1.391 . S
C290 Tb280 2.825 . S
C290 C284 1.507 . S
C290 O303 1.238 . S
C290 O304 1.247 . S
O291 Tb280 2.347 . S
O291 C295 1.259 . S
O292 Eu281 2.418 . S
O292 C295 1.265 . S
O293 Eu281 2.384 . S
O293 C302 1.255 . S
O294 Tb280 2.366 . S
O294 C302 1.265 . S
C295 O291 1.259 . S
C295 O292 1.265 . S
O296 Eu281 2.479 . S
O296 C311 1.238 . S
O297 Eu281 2.471 . S
O297 C311 1.247 . S
O298 Eu281 2.347 . S
O298 C282 1.259 . S
O299 Tb280 2.418 . S
O299 C282 1.265 . S
O300 Tb280 2.384 . S
O300 C283 1.255 . S
O301 Eu281 2.366 . S
O301 C283 1.265 . S
C302 O293 1.255 . S
C302 O294 1.265 . S
O303 Tb280 2.479 . S
O303 C290 1.238 . S
O304 Tb280 2.471 . S
O304 C290 1.247 . S
C305 C308 1.380 . S
C305 C309 1.374 . S
C305 C311 1.507 1_455 S
C306 C307 1.387 . S
C306 C310 1.391 . S
C307 C306 1.387 . S
C307 C308 1.384 . S
C307 H316 0.930 . S
C308 C305 1.380 . S
C308 C307 1.384 . S
C308 H317 0.931 . S
C309 C305 1.374 . S
C309 C310 1.390 . S
C309 H318 0.930 1_455 S
C310 C306 1.391 . S
C310 C309 1.390 . S
C310 H319 0.930 . S
C311 Eu281 2.825 . S
C311 O296 1.238 . S
C311 O297 1.247 . S
C311 C305 1.507 1_655 S
H312 C285 0.930 . S
H313 C286 0.931 . S
H314 C287 0.930 . S
H315 C288 0.930 . S
H316 C307 0.930 . S
H317 C308 0.931 . S
H318 C309 0.930 1_655 S
H319 C310 0.930 . S
Tb320 C330 2.825 . S
Tb320 O331 2.347 . S
Tb320 O334 2.366 . S
Tb320 O339 2.418 . S
Tb320 O340 2.384 . S
Tb320 O343 2.479 . S
Tb320 O344 2.471 . S
Eu321 O332 2.418 . S
Eu321 O333 2.384 . S
Eu321 O336 2.479 . S
Eu321 O337 2.471 . S
Eu321 O338 2.347 . S
Eu321 O341 2.366 . S
Eu321 C351 2.825 . S
C322 O338 1.259 . S
C322 O339 1.265 . S
C323 O340 1.255 . S
C323 O341 1.265 . S
C324 C326 1.380 . S
C324 C327 1.374 . S
C324 C330 1.507 . S
C325 C326 1.384 . S
C325 C329 1.387 . S
C325 H352 0.930 . S
C326 C324 1.380 . S
C326 C325 1.384 . S
C326 H353 0.931 . S
C327 C324 1.374 . S
C327 C328 1.390 . S
C327 H354 0.930 . S
C328 C327 1.390 . S
C328 C329 1.391 . S
C328 H355 0.930 . S
C329 C325 1.387 . S
C329 C328 1.391 . S
C330 Tb320 2.825 . S
C330 C324 1.507 . S
C330 O343 1.238 . S
C330 O344 1.247 . S
O331 Tb320 2.347 . S
O331 C335 1.259 . S
O332 Eu321 2.418 . S
O332 C335 1.265 . S
O333 Eu321 2.384 . S
O333 C342 1.255 . S
O334 Tb320 2.366 . S
O334 C342 1.265 . S
C335 O331 1.259 . S
C335 O332 1.265 . S
O336 Eu321 2.479 . S
O336 C351 1.238 . S
O337 Eu321 2.471 . S
O337 C351 1.247 . S
O338 Eu321 2.347 . S
O338 C322 1.259 . S
O339 Tb320 2.418 . S
O339 C322 1.265 . S
O340 Tb320 2.384 . S
O340 C323 1.255 . S
O341 Eu321 2.366 . S
O341 C323 1.265 . S
C342 O333 1.255 . S
C342 O334 1.265 . S
O343 Tb320 2.479 . S
O343 C330 1.238 . S
O344 Tb320 2.471 . S
O344 C330 1.247 . S
C345 C348 1.380 . S
C345 C349 1.374 . S
C345 C351 1.507 . S
C346 C347 1.387 . S
C346 C350 1.391 . S
C347 C346 1.387 . S
C347 C348 1.384 . S
C347 H356 0.930 . S
C348 C345 1.380 . S
C348 C347 1.384 . S
C348 H357 0.931 . S
C349 C345 1.374 . S
C349 C350 1.390 . S
C349 H358 0.930 . S
C350 C346 1.391 . S
C350 C349 1.390 . S
C350 H359 0.930 . S
C351 Eu321 2.825 . S
C351 O336 1.238 . S
C351 O337 1.247 . S
C351 C345 1.507 . S
H352 C325 0.930 . S
H353 C326 0.931 . S
H354 C327 0.930 . S
H355 C328 0.930 . S
H356 C347 0.930 . S
H357 C348 0.931 . S
H358 C349 0.930 . S
H359 C350 0.930 . S
H360 C368 0.929 . S
H361 C370 0.930 . S
H362 C372 0.930 . S
H363 C375 0.929 . S
H364 C378 0.930 . S
H365 C380 0.960 . S
H366 C380 0.960 . S
H367 C380 0.960 . S
C368 H360 0.929 . S
C368 C369 1.377 1_554 S
C368 C370 1.384 . S
C369 C368 1.377 1_556 S
C369 C375 1.390 . S
C370 H361 0.930 . S
C370 C368 1.384 . S
C370 C371 1.353 1_554 S
C371 C370 1.353 1_556 S
C371 C372 1.426 . S
C371 C376 1.484 1_556 S
C372 H362 0.930 . S
C372 C371 1.426 . S
C372 C375 1.386 . S
H373 C389 0.939 . S
H374 C390 0.932 . S
C375 H363 0.929 . S
C375 C369 1.390 . S
C375 C372 1.386 . S
C376 C371 1.484 1_554 S
C376 C378 1.395 . S
C376 C379 1.403 1_554 S
H377 C383 0.930 . S
C378 H364 0.930 . S
C378 C376 1.395 . S
C378 C381 1.403 . S
C379 C376 1.403 1_556 S
C379 C380 1.524 . S
C379 C383 1.400 . S
C380 H365 0.960 . S
C380 H366 0.960 . S
C380 H367 0.960 . S
C380 C379 1.524 . S
C381 C378 1.403 . S
C381 C382 1.392 . S
C381 C385 1.495 . S
C382 C381 1.392 . S
C382 C383 1.385 1_554 S
C382 C384 1.478 . S
C383 H377 0.930 . S
C383 C379 1.400 . S
C383 C382 1.385 1_556 S
C384 C382 1.478 . S
C384 C386 1.381 . S
C384 C390 1.381 1_554 S
C385 C381 1.495 . S
C385 H391 0.959 . S
C385 H392 0.961 . S
C385 H393 0.960 . S
C386 C384 1.381 . S
C386 C387 1.394 . S
C386 H394 0.930 . S
C387 C386 1.394 . S
C387 C388 1.383 . S
C387 H395 0.929 . S
C388 C387 1.383 . S
C388 C389 1.367 1_554 S
C389 H373 0.939 . S
C389 C388 1.367 1_556 S
C389 C390 1.380 . S
C390 H374 0.932 . S
C390 C384 1.381 1_556 S
C390 C389 1.380 . S
H391 C385 0.959 . S
H392 C385 0.961 . S
H393 C385 0.960 . S
H394 C386 0.930 . S
H395 C387 0.929 . S
H396 C404 0.929 . S
H397 C406 0.930 . S
H398 C408 0.930 . S
H399 C411 0.929 . S
H400 C414 0.930 . S
H401 C416 0.960 . S
H402 C416 0.960 . S
H403 C416 0.960 . S
C404 H396 0.929 . S
C404 C405 1.377 1_556 S
C404 C406 1.384 . S
C405 C404 1.377 1_554 S
C405 C411 1.390 . S
C406 H397 0.930 . S
C406 C404 1.384 . S
C406 C407 1.372 . S
C407 C406 1.372 . S
C407 C408 1.400 1_556 S
C407 C412 1.490 . S
C408 H398 0.930 . S
C408 C407 1.400 1_554 S
C408 C411 1.386 . S
H409 C425 0.937 . S
H410 C426 0.926 1_554 S
C411 H399 0.929 . S
C411 C405 1.390 . S
C411 C408 1.386 . S
C412 C407 1.490 . S
C412 C414 1.395 . S
C412 C415 1.403 1_556 S
H413 C419 0.930 . S
C414 H400 0.930 . S
C414 C412 1.395 . S
C414 C417 1.403 . S
C415 C412 1.403 1_554 S
C415 C416 1.524 . S
C415 C419 1.400 . S
C416 H401 0.960 . S
C416 H402 0.960 . S
C416 H403 0.960 . S
C416 C415 1.524 . S
C417 C414 1.403 . S
C417 C418 1.392 . S
C417 C421 1.495 . S
C418 C417 1.392 . S
C418 C419 1.385 1_556 S
C418 C420 1.478 . S
C419 H413 0.930 . S
C419 C415 1.400 . S
C419 C418 1.385 1_554 S
C420 C418 1.478 . S
C420 C422 1.381 . S
C420 C426 1.390 . S
C421 C417 1.495 . S
C421 H427 0.959 . S
C421 H428 0.961 . S
C421 H429 0.960 . S
C422 C420 1.381 . S
C422 C423 1.394 . S
C422 H430 0.930 . S
C423 C422 1.394 . S
C423 C424 1.383 . S
C423 H431 0.929 . S
C424 C423 1.383 . S
C424 C425 1.372 1_556 S
C425 H409 0.937 . S
C425 C424 1.372 1_554 S
C425 C426 1.377 1_554 S
C426 H410 0.926 1_556 S
C426 C420 1.390 . S
C426 C425 1.377 1_556 S
H427 C421 0.959 . S
H428 C421 0.961 . S
H429 C421 0.960 . S
H430 C422 0.930 . S
H431 C423 0.929 . S
H432 C440 0.929 . S
H433 C442 0.930 . S
H434 C444 0.930 . S
H435 C447 0.929 . S
H436 C450 0.930 . S
H437 C452 0.960 . S
H438 C452 0.960 1_554 S
H439 C452 0.960 . S
C440 H432 0.929 . S
C440 C441 1.377 . S
C440 C442 1.384 . S
C441 C440 1.377 . S
C441 C447 1.390 1_554 S
C442 H433 0.930 . S
C442 C440 1.384 . S
C442 C443 1.372 . S
C443 C442 1.372 . S
C443 C444 1.400 1_554 S
C443 C448 1.490 . S
C444 H434 0.930 . S
C444 C443 1.400 1_556 S
C444 C447 1.386 . S
H445 C461 0.930 . S
H446 C462 0.931 . S
C447 H435 0.929 . S
C447 C441 1.390 1_556 S
C447 C444 1.386 . S
C448 C443 1.490 . S
C448 C450 1.395 . S
C448 C451 1.405 . S
H449 C455 0.928 1_556 S
C450 H436 0.930 . S
C450 C448 1.395 . S
C450 C453 1.403 . S
C451 C448 1.405 . S
C451 C452 1.521 1_554 S
C451 C455 1.400 . S
C452 H437 0.960 . S
C452 H438 0.960 1_556 S
C452 H439 0.960 . S
C452 C451 1.521 1_556 S
C453 C450 1.403 . S
C453 C454 1.392 . S
C453 C457 1.495 . S
C454 C453 1.392 . S
C454 C455 1.388 . S
C454 C456 1.478 . S
C455 H449 0.928 1_554 S
C455 C451 1.400 . S
C455 C454 1.388 . S
C456 C454 1.478 . S
C456 C458 1.381 . S
C456 C462 1.383 1_554 S
C457 C453 1.495 . S
C457 H463 0.959 . S
C457 H464 0.961 1_554 S
C457 H465 0.960 . S
C458 C456 1.381 . S
C458 C459 1.394 . S
C458 H466 0.930 . S
C459 C458 1.394 . S
C459 C460 1.383 . S
C459 H467 0.929 . S
C460 C459 1.383 . S
C460 C461 1.377 1_554 S
C461 H445 0.930 . S
C461 C460 1.377 1_556 S
C461 C462 1.379 . S
C462 H446 0.931 . S
C462 C456 1.383 1_556 S
C462 C461 1.379 . S
H463 C457 0.959 . S
H464 C457 0.961 1_556 S
H465 C457 0.960 . S
H466 C458 0.930 . S
H467 C459 0.929 . S
H468 C476 0.929 . S
H469 C478 0.930 . S
H470 C480 0.930 . S
H471 C483 0.929 . S
H472 C486 0.930 . S
H473 C488 0.960 . S
H474 C488 0.960 . S
H475 C488 0.960 . S
C476 H468 0.929 . S
C476 C477 1.377 . S
C476 C478 1.384 . S
C477 C476 1.377 . S
C477 C483 1.390 . S
C478 H469 0.930 . S
C478 C476 1.384 . S
C478 C479 1.372 . S
C479 C478 1.372 . S
C479 C480 1.400 . S
C479 C484 1.490 . S
C480 H470 0.930 . S
C480 C479 1.400 . S
C480 C483 1.386 . S
H481 C497 0.930 . S
H482 C498 0.931 . S
C483 H471 0.929 . S
C483 C477 1.390 . S
C483 C480 1.386 . S
C484 C479 1.490 . S
C484 C486 1.395 1_554 S
C484 C487 1.403 . S
H485 C491 0.930 . S
C486 H472 0.930 . S
C486 C484 1.395 1_556 S
C486 C489 1.403 . S
C487 C484 1.403 . S
C487 C488 1.524 . S
C487 C491 1.400 . S
C488 H473 0.960 . S
C488 H474 0.960 . S
C488 H475 0.960 . S
C488 C487 1.524 . S
C489 C486 1.403 . S
C489 C490 1.392 1_556 S
C489 C493 1.495 . S
C490 C489 1.392 1_554 S
C490 C491 1.385 . S
C490 C492 1.478 . S
C491 H485 0.930 . S
C491 C487 1.400 . S
C491 C490 1.385 . S
C492 C490 1.478 . S
C492 C494 1.381 . S
C492 C498 1.383 . S
C493 C489 1.495 . S
C493 H499 0.959 . S
C493 H500 0.961 . S
C493 H501 0.960 . S
C494 C492 1.381 . S
C494 C495 1.394 . S
C494 H502 0.930 1_554 S
C495 C494 1.394 . S
C495 C496 1.383 . S
C495 H503 0.928 1_554 S
C496 C495 1.383 . S
C496 C497 1.377 . S
C497 H481 0.930 . S
C497 C496 1.377 . S
C497 C498 1.379 . S
C498 H482 0.931 . S
C498 C492 1.383 . S
C498 C497 1.379 . S
H499 C493 0.959 . S
H500 C493 0.961 . S
H501 C493 0.960 . S
H502 C494 0.930 1_556 S
H503 C495 0.928 1_556 S
H504 C512 0.927 1_556 S
H505 C514 0.916 1_556 S
H506 C516 0.930 . S
H507 C519 0.929 . S
H508 C522 0.930 . S
H509 C524 0.960 . S
H510 C524 0.960 . S
H511 C524 0.960 . S
C512 H504 0.927 1_554 S
C512 C513 1.377 . S
C512 C514 1.384 . S
C513 C512 1.377 . S
C513 C519 1.390 . S
C514 H505 0.916 1_554 S
C514 C512 1.384 . S
C514 C515 1.372 . S
C515 C514 1.372 . S
C515 C516 1.400 . S
C515 C520 1.490 . S
C516 H506 0.930 . S
C516 C515 1.400 . S
C516 C519 1.386 . S
H517 C533 0.930 . S
H518 C534 0.931 . S
C519 H507 0.929 . S
C519 C513 1.390 . S
C519 C516 1.386 . S
C520 C515 1.490 . S
C520 C522 1.395 1_554 S
C520 C523 1.403 . S
H521 C527 0.930 . S
C522 H508 0.930 . S
C522 C520 1.395 1_556 S
C522 C525 1.403 . S
C523 C520 1.403 . S
C523 C524 1.524 . S
C523 C527 1.400 . S
C524 H509 0.960 . S
C524 H510 0.960 . S
C524 H511 0.960 . S
C524 C523 1.524 . S
C525 C522 1.403 . S
C525 C526 1.392 1_556 S
C525 C529 1.495 . S
C526 C525 1.392 1_554 S
C526 C527 1.385 . S
C526 C528 1.478 . S
C527 H521 0.930 . S
C527 C523 1.400 . S
C527 C526 1.385 . S
C528 C526 1.478 . S
C528 C530 1.381 . S
C528 C534 1.383 . S
C529 C525 1.495 . S
C529 H535 0.959 . S
C529 H536 0.961 . S
C529 H537 0.960 . S
C530 C528 1.381 . S
C530 C531 1.394 . S
C530 H538 0.930 1_554 S
C531 C530 1.394 . S
C531 C532 1.383 . S
C531 H539 0.929 . S
C532 C531 1.383 . S
C532 C533 1.377 . S
C533 H517 0.930 . S
C533 C532 1.377 . S
C533 C534 1.379 . S
C534 H518 0.931 . S
C534 C528 1.383 . S
C534 C533 1.379 . S
H535 C529 0.959 . S
H536 C529 0.961 . S
H537 C529 0.960 . S
H538 C530 0.930 1_556 S
H539 C531 0.929 . S
H540 C548 0.929 . S
H541 C550 0.930 . S
H542 C552 0.930 1_556 S
H543 C555 0.929 1_556 S
H544 C558 0.934 . S
H545 C560 0.960 . S
H546 C560 0.960 . S
H547 C560 0.960 . S
C548 H540 0.929 . S
C548 C549 1.377 . S
C548 C550 1.384 . S
C549 C548 1.377 . S
C549 C555 1.390 . S
C550 H541 0.930 . S
C550 C548 1.384 . S
C550 C551 1.372 . S
C551 C550 1.372 . S
C551 C552 1.400 . S
C551 C556 1.490 . S
C552 H542 0.930 1_554 S
C552 C551 1.400 . S
C552 C555 1.386 . S
H553 C569 0.930 . S
H554 C570 0.931 . S
C555 H543 0.929 1_554 S
C555 C549 1.390 . S
C555 C552 1.386 . S
C556 C551 1.490 . S
C556 C558 1.390 1_554 S
C556 C559 1.403 . S
H557 C563 0.930 . S
C558 H544 0.934 . S
C558 C556 1.390 1_556 S
C558 C561 1.404 . S
C559 C556 1.403 . S
C559 C560 1.524 . S
C559 C563 1.400 . S
C560 H545 0.960 . S
C560 H546 0.960 . S
C560 H547 0.960 . S
C560 C559 1.524 . S
C561 C558 1.404 . S
C561 C562 1.392 1_556 S
C561 C565 1.495 . S
C562 C561 1.392 1_554 S
C562 C563 1.385 . S
C562 C564 1.478 . S
C563 H557 0.930 . S
C563 C559 1.400 . S
C563 C562 1.385 . S
C564 C562 1.478 . S
C564 C566 1.381 . S
C564 C570 1.383 1_554 S
C565 C561 1.495 . S
C565 H571 0.959 . S
C565 H572 0.961 . S
C565 H573 0.960 . S
C566 C564 1.381 . S
C566 C567 1.394 . S
C566 H574 0.930 . S
C567 C566 1.394 . S
C567 C568 1.383 . S
C567 H575 0.929 . S
C568 C567 1.383 . S
C568 C569 1.377 1_554 S
C569 H553 0.930 . S
C569 C568 1.377 1_556 S
C569 C570 1.379 . S
C570 H554 0.931 . S
C570 C564 1.383 1_556 S
C570 C569 1.379 . S
H571 C565 0.959 . S
H572 C565 0.961 . S
H573 C565 0.960 . S
H574 C566 0.930 . S
H575 C567 0.929 . S
H576 C584 0.929 . S
H577 C586 0.930 . S
H578 C588 0.930 . S
H579 C591 0.929 . S
H580 C594 0.930 . S
H581 C596 0.960 . S
H582 C596 0.960 . S
H583 C596 0.960 . S
C584 H576 0.929 . S
C584 C585 1.377 . S
C584 C586 1.384 . S
C585 C584 1.377 . S
C585 C591 1.390 . S
C586 H577 0.930 . S
C586 C584 1.384 . S
C586 C587 1.372 . S
C587 C586 1.372 . S
C587 C588 1.400 . S
C587 C592 1.490 . S
C588 H578 0.930 . S
C588 C587 1.400 . S
C588 C591 1.386 . S
H589 C605 0.930 . S
H590 C606 0.931 . S
C591 H579 0.929 . S
C591 C585 1.390 . S
C591 C588 1.386 . S
C592 C587 1.490 . S
C592 C594 1.395 . S
C592 C595 1.403 . S
H593 C599 0.930 . S
C594 H580 0.930 . S
C594 C592 1.395 . S
C594 C597 1.403 1_655 S
C595 C592 1.403 . S
C595 C596 1.524 . S
C595 C599 1.400 1_655 S
C596 H581 0.960 . S
C596 H582 0.960 . S
C596 H583 0.960 . S
C596 C595 1.524 . S
C597 C594 1.403 1_455 S
C597 C598 1.392 . S
C597 C601 1.495 . S
C598 C597 1.392 . S
C598 C599 1.385 . S
C598 C600 1.478 . S
C599 H593 0.930 . S
C599 C595 1.400 1_455 S
C599 C598 1.385 . S
C600 C598 1.478 . S
C600 C602 1.381 . S
C600 C606 1.383 . S
C601 C597 1.495 . S
C601 H607 0.959 . S
C601 H608 0.961 . S
C601 H609 0.960 . S
C602 C600 1.381 . S
C602 C603 1.394 . S
C602 H610 0.930 . S
C603 C602 1.394 . S
C603 C604 1.383 . S
C603 H611 0.929 . S
C604 C603 1.383 . S
C604 C605 1.377 . S
C605 H589 0.930 . S
C605 C604 1.377 . S
C605 C606 1.379 . S
C606 H590 0.931 . S
C606 C600 1.383 . S
C606 C605 1.379 . S
H607 C601 0.959 . S
H608 C601 0.961 . S
H609 C601 0.960 . S
H610 C602 0.930 . S
H611 C603 0.929 . S
H612 C620 0.929 . S
H613 C622 0.930 . S
H614 C624 0.930 . S
H615 C627 0.929 . S
H616 C630 0.930 . S
H617 C632 0.960 . S
H618 C632 0.960 . S
H619 C632 0.960 . S
C620 H612 0.929 . S
C620 C621 1.377 . S
C620 C622 1.384 . S
C621 C620 1.377 . S
C621 C627 1.390 . S
C622 H613 0.930 . S
C622 C620 1.384 . S
C622 C623 1.372 . S
C623 C622 1.372 . S
C623 C624 1.400 . S
C623 C628 1.490 . S
C624 H614 0.930 . S
C624 C623 1.400 . S
C624 C627 1.386 . S
H625 C641 0.930 . S
H626 C642 0.931 . S
C627 H615 0.929 . S
C627 C621 1.390 . S
C627 C624 1.386 . S
C628 C623 1.490 . S
C628 C630 1.395 . S
C628 C631 1.403 . S
H629 C635 0.930 . S
C630 H616 0.930 . S
C630 C628 1.395 . S
C630 C633 1.403 . S
C631 C628 1.403 . S
C631 C632 1.524 . S
C631 C635 1.400 . S
C632 H617 0.960 . S
C632 H618 0.960 . S
C632 H619 0.960 . S
C632 C631 1.524 . S
C633 C630 1.403 . S
C633 C634 1.392 . S
C633 C637 1.495 . S
C634 C633 1.392 . S
C634 C635 1.385 . S
C634 C636 1.478 . S
C635 H629 0.930 . S
C635 C631 1.400 . S
C635 C634 1.385 . S
C636 C634 1.478 . S
C636 C638 1.381 . S
C636 C642 1.383 . S
C637 C633 1.495 . S
C637 H643 0.959 . S
C637 H644 0.961 . S
C637 H645 0.960 . S
C638 C636 1.381 . S
C638 C639 1.394 . S
C638 H646 0.930 . S
C639 C638 1.394 . S
C639 C640 1.383 . S
C639 H647 0.929 . S
C640 C639 1.383 . S
C640 C641 1.377 . S
C641 H625 0.930 . S
C641 C640 1.377 . S
C641 C642 1.379 . S
C642 H626 0.931 . S
C642 C636 1.383 . S
C642 C641 1.379 . S
H643 C637 0.959 . S
H644 C637 0.961 . S
H645 C637 0.960 . S
H646 C638 0.930 . S
H647 C639 0.929 . S
H648 C656 0.929 . S
H649 C658 0.930 . S
H650 C660 0.930 . S
H651 C663 0.929 . S
H652 C666 0.930 . S
H653 C668 0.960 . S
H654 C668 0.960 . S
H655 C668 0.960 . S
C656 H648 0.929 . S
C656 C657 1.377 . S
C656 C658 1.384 . S
C657 C656 1.377 . S
C657 C663 1.390 . S
C658 H649 0.930 . S
C658 C656 1.384 . S
C658 C659 1.372 . S
C659 C658 1.372 . S
C659 C660 1.400 . S
C659 C664 1.490 . S
C660 H650 0.930 . S
C660 C659 1.400 . S
C660 C663 1.386 . S
H661 C677 0.930 . S
H662 C678 0.931 . S
C663 H651 0.929 . S
C663 C657 1.390 . S
C663 C660 1.386 . S
C664 C659 1.490 . S
C664 C666 1.395 1_545 S
C664 C667 1.403 . S
H665 C671 0.930 . S
C666 H652 0.930 . S
C666 C664 1.395 1_565 S
C666 C669 1.403 . S
C667 C664 1.403 . S
C667 C668 1.524 . S
C667 C671 1.400 1_545 S
C668 H653 0.960 . S
C668 H654 0.960 . S
C668 H655 0.960 . S
C668 C667 1.524 . S
C669 C666 1.403 . S
C669 C670 1.392 . S
C669 C673 1.495 . S
C670 C669 1.392 . S
C670 C671 1.385 . S
C670 C672 1.478 . S
C671 H665 0.930 . S
C671 C667 1.400 1_565 S
C671 C670 1.385 . S
C672 C670 1.478 . S
C672 C674 1.381 . S
C672 C678 1.383 . S
C673 C669 1.495 . S
C673 H679 0.959 . S
C673 H680 0.961 . S
C673 H681 0.960 . S
C674 C672 1.381 . S
C674 C675 1.394 . S
C674 H682 0.930 . S
C675 C674 1.394 . S
C675 C676 1.383 . S
C675 H683 0.929 . S
C676 C675 1.383 . S
C676 C677 1.377 . S
C677 H661 0.930 . S
C677 C676 1.377 . S
C677 C678 1.379 . S
C678 H662 0.931 . S
C678 C672 1.383 . S
C678 C677 1.379 . S
H679 C673 0.959 . S
H680 C673 0.961 . S
H681 C673 0.960 . S
H682 C674 0.930 . S
H683 C675 0.929 . S
H684 C692 0.929 . S
H685 C694 0.930 . S
H686 C696 0.930 . S
H687 C699 0.929 . S
H688 C702 0.930 . S
H689 C704 0.960 . S
H690 C704 0.960 . S
H691 C704 0.960 . S
C692 H684 0.929 . S
C692 C693 1.377 . S
C692 C694 1.384 . S
C693 C692 1.377 . S
C693 C699 1.390 . S
C694 H685 0.930 . S
C694 C692 1.384 . S
C694 C695 1.372 . S
C695 C694 1.372 . S
C695 C696 1.400 . S
C695 C700 1.490 . S
C696 H686 0.930 . S
C696 C695 1.400 . S
C696 C699 1.386 . S
H697 C713 0.930 . S
H698 C714 0.931 . S
C699 H687 0.929 . S
C699 C693 1.390 . S
C699 C696 1.386 . S
C700 C695 1.490 . S
C700 C702 1.395 . S
C700 C703 1.403 . S
H701 C707 0.930 . S
C702 H688 0.930 . S
C702 C700 1.395 . S
C702 C705 1.403 . S
C703 C700 1.403 . S
C703 C704 1.524 . S
C703 C707 1.400 . S
C704 H689 0.960 . S
C704 H690 0.960 . S
C704 H691 0.960 . S
C704 C703 1.524 . S
C705 C702 1.403 . S
C705 C706 1.392 . S
C705 C709 1.495 . S
C706 C705 1.392 . S
C706 C707 1.385 . S
C706 C708 1.478 . S
C707 H701 0.930 . S
C707 C703 1.400 . S
C707 C706 1.385 . S
C708 C706 1.478 . S
C708 C710 1.381 . S
C708 C714 1.383 . S
C709 C705 1.495 . S
C709 H715 0.959 . S
C709 H716 0.961 . S
C709 H717 0.960 . S
C710 C708 1.381 . S
C710 C711 1.394 . S
C710 H718 0.930 . S
C711 C710 1.394 . S
C711 C712 1.383 . S
C711 H719 0.929 . S
C712 C711 1.383 . S
C712 C713 1.377 . S
C713 H697 0.930 . S
C713 C712 1.377 . S
C713 C714 1.379 . S
C714 H698 0.931 . S
C714 C708 1.383 . S
C714 C713 1.379 . S
H715 C709 0.959 . S
H716 C709 0.961 . S
H717 C709 0.960 . S
H718 C710 0.930 . S
H719 C711 0.929 . S
H720 C728 0.929 . S
H721 C730 0.930 . S
H722 C732 0.930 . S
H723 C735 0.929 . S
H724 C738 0.930 . S
H725 C740 0.960 . S
H726 C740 0.960 . S
H727 C740 0.960 . S
C728 H720 0.929 . S
C728 C729 1.377 . S
C728 C730 1.384 . S
C729 C728 1.377 . S
C729 C735 1.390 . S
C730 H721 0.930 . S
C730 C728 1.384 . S
C730 C731 1.372 . S
C731 C730 1.372 . S
C731 C732 1.400 . S
C731 C736 1.490 . S
C732 H722 0.930 . S
C732 C731 1.400 . S
C732 C735 1.386 . S
H733 C749 0.930 . S
H734 C750 0.931 . S
C735 H723 0.929 . S
C735 C729 1.390 . S
C735 C732 1.386 . S
C736 C731 1.490 . S
C736 C738 1.395 . S
C736 C739 1.403 . S
H737 C743 0.930 . S
C738 H724 0.930 . S
C738 C736 1.395 . S
C738 C741 1.403 . S
C739 C736 1.403 . S
C739 C740 1.524 . S
C739 C743 1.400 . S
C740 H725 0.960 . S
C740 H726 0.960 . S
C740 H727 0.960 . S
C740 C739 1.524 . S
C741 C738 1.403 . S
C741 C742 1.392 . S
C741 C745 1.495 . S
C742 C741 1.392 . S
C742 C743 1.385 . S
C742 C744 1.478 . S
C743 H737 0.930 . S
C743 C739 1.400 . S
C743 C742 1.385 . S
C744 C742 1.478 . S
C744 C746 1.381 . S
C744 C750 1.383 . S
C745 C741 1.495 . S
C745 H751 0.959 . S
C745 H752 0.961 . S
C745 H753 0.960 . S
C746 C744 1.381 . S
C746 C747 1.394 . S
C746 H754 0.930 . S
C747 C746 1.394 . S
C747 C748 1.383 . S
C747 H755 0.929 . S
C748 C747 1.383 . S
C748 C749 1.377 . S
C749 H733 0.930 . S
C749 C748 1.377 . S
C749 C750 1.379 . S
C750 H734 0.931 . S
C750 C744 1.383 . S
C750 C749 1.379 . S
H751 C745 0.959 . S
H752 C745 0.961 . S
H753 C745 0.960 . S
H754 C746 0.930 . S
H755 C747 0.929 . S
H756 C764 0.929 . S
H757 C766 0.930 . S
H758 C768 0.930 . S
H759 C771 0.929 . S
H760 C774 0.930 . S
H761 C776 0.960 . S
H762 C776 0.960 . S
H763 C776 0.960 . S
C764 H756 0.929 . S
C764 C765 1.377 . S
C764 C766 1.384 . S
C765 C764 1.377 . S
C765 C771 1.390 . S
C766 H757 0.930 . S
C766 C764 1.384 . S
C766 C767 1.372 . S
C767 C766 1.372 . S
C767 C768 1.400 . S
C767 C772 1.490 . S
C768 H758 0.930 . S
C768 C767 1.400 . S
C768 C771 1.386 . S
H769 C785 0.930 . S
H770 C786 0.931 . S
C771 H759 0.929 . S
C771 C765 1.390 . S
C771 C768 1.386 . S
C772 C767 1.490 . S
C772 C774 1.395 . S
C772 C775 1.403 . S
H773 C779 0.930 . S
C774 H760 0.930 . S
C774 C772 1.395 . S
C774 C777 1.403 . S
C775 C772 1.403 . S
C775 C776 1.524 . S
C775 C779 1.400 . S
C776 H761 0.960 . S
C776 H762 0.960 . S
C776 H763 0.960 . S
C776 C775 1.524 . S
C777 C774 1.403 . S
C777 C778 1.392 . S
C777 C781 1.495 . S
C778 C777 1.392 . S
C778 C779 1.385 . S
C778 C780 1.478 . S
C779 H773 0.930 . S
C779 C775 1.400 . S
C779 C778 1.385 . S
C780 C778 1.478 . S
C780 C782 1.381 . S
C780 C786 1.383 . S
C781 C777 1.495 . S
C781 H787 0.959 . S
C781 H788 0.961 . S
C781 H789 0.960 . S
C782 C780 1.381 . S
C782 C783 1.394 . S
C782 H790 0.930 . S
C783 C782 1.394 . S
C783 C784 1.383 . S
C783 H791 0.929 . S
C784 C783 1.383 . S
C784 C785 1.377 . S
C785 H769 0.930 . S
C785 C784 1.377 . S
C785 C786 1.379 . S
C786 H770 0.931 . S
C786 C780 1.383 . S
C786 C785 1.379 . S
H787 C781 0.959 . S
H788 C781 0.961 . S
H789 C781 0.960 . S
H790 C782 0.930 . S
H791 C783 0.929 . S
H792 C800 0.929 . S
H793 C802 0.930 . S
H794 C804 0.930 . S
H795 C807 0.929 . S
H796 C810 0.930 . S
H797 C812 0.960 . S
H798 C812 0.960 . S
H799 C812 0.960 . S
C800 H792 0.929 . S
C800 C801 1.377 . S
C800 C802 1.384 . S
C801 C800 1.377 . S
C801 C807 1.390 . S
C802 H793 0.930 . S
C802 C800 1.384 . S
C802 C803 1.372 . S
C803 C802 1.372 . S
C803 C804 1.400 . S
C803 C808 1.490 . S
C804 H794 0.930 . S
C804 C803 1.400 . S
C804 C807 1.386 . S
H805 C821 0.930 . S
H806 C822 0.931 . S
C807 H795 0.929 . S
C807 C801 1.390 . S
C807 C804 1.386 . S
C808 C803 1.490 . S
C808 C810 1.395 . S
C808 C811 1.403 . S
H809 C815 0.930 . S
C810 H796 0.930 . S
C810 C808 1.395 . S
C810 C813 1.403 . S
C811 C808 1.403 . S
C811 C812 1.524 . S
C811 C815 1.400 . S
C812 H797 0.960 . S
C812 H798 0.960 . S
C812 H799 0.960 . S
C812 C811 1.524 . S
C813 C810 1.403 . S
C813 C814 1.392 . S
C813 C817 1.495 . S
C814 C813 1.392 . S
C814 C815 1.385 . S
C814 C816 1.478 . S
C815 H809 0.930 . S
C815 C811 1.400 . S
C815 C814 1.385 . S
C816 C814 1.478 . S
C816 C818 1.381 . S
C816 C822 1.383 . S
C817 C813 1.495 . S
C817 H823 0.959 . S
C817 H824 0.961 . S
C817 H825 0.960 . S
C818 C816 1.381 . S
C818 C819 1.394 . S
C818 H826 0.930 . S
C819 C818 1.394 . S
C819 C820 1.383 . S
C819 H827 0.929 . S
C820 C819 1.383 . S
C820 C821 1.377 . S
C821 H805 0.930 . S
C821 C820 1.377 . S
C821 C822 1.379 . S
C822 H806 0.931 . S
C822 C816 1.383 . S
C822 C821 1.379 . S
H823 C817 0.959 . S
H824 C817 0.961 . S
H825 C817 0.960 . S
H826 C818 0.930 . S
H827 C819 0.929 . S
H828 C836 0.929 . S
H829 C838 0.930 . S
H830 C840 0.930 . S
H831 C843 0.929 . S
H832 C846 0.930 . S
H833 C848 0.960 . S
H834 C848 0.960 . S
H835 C848 0.960 . S
C836 H828 0.929 . S
C836 C837 1.377 . S
C836 C838 1.384 . S
C837 C836 1.377 . S
C837 C843 1.390 . S
C838 H829 0.930 . S
C838 C836 1.384 . S
C838 C839 1.372 . S
C839 C838 1.372 . S
C839 C840 1.400 . S
C839 C844 1.490 . S
C840 H830 0.930 . S
C840 C839 1.400 . S
C840 C843 1.386 . S
H841 C857 0.930 . S
H842 C858 0.931 . S
C843 H831 0.929 . S
C843 C837 1.390 . S
C843 C840 1.386 . S
C844 C839 1.490 . S
C844 C846 1.395 . S
C844 C847 1.403 . S
H845 C851 0.930 . S
C846 H832 0.930 . S
C846 C844 1.395 . S
C846 C849 1.403 . S
C847 C844 1.403 . S
C847 C848 1.524 . S
C847 C851 1.400 . S
C848 H833 0.960 . S
C848 H834 0.960 . S
C848 H835 0.960 . S
C848 C847 1.524 . S
C849 C846 1.403 . S
C849 C850 1.392 . S
C849 C853 1.495 . S
C850 C849 1.392 . S
C850 C851 1.385 . S
C850 C852 1.478 . S
C851 H845 0.930 . S
C851 C847 1.400 . S
C851 C850 1.385 . S
C852 C850 1.478 . S
C852 C854 1.381 . S
C852 C858 1.383 . S
C853 C849 1.495 . S
C853 H859 0.959 . S
C853 H860 0.961 . S
C853 H861 0.960 . S
C854 C852 1.381 . S
C854 C855 1.394 . S
C854 H862 0.930 . S
C855 C854 1.394 . S
C855 C856 1.383 . S
C855 H863 0.929 . S
C856 C855 1.383 . S
C856 C857 1.377 . S
C857 H841 0.930 . S
C857 C856 1.377 . S
C857 C858 1.379 . S
C858 H842 0.931 . S
C858 C852 1.383 . S
C858 C857 1.379 . S
H859 C853 0.959 . S
H860 C853 0.961 . S
H861 C853 0.960 . S
H862 C854 0.930 . S
H863 C855 0.929 . S
H864 C872 0.929 . S
H865 C874 0.930 . S
H866 C876 0.930 . S
H867 C879 0.929 . S
H868 C882 0.930 . S
H869 C884 0.960 . S
H870 C884 0.960 . S
H871 C884 0.960 . S
C872 H864 0.929 . S
C872 C873 1.377 . S
C872 C874 1.384 . S
C873 C872 1.377 . S
C873 C879 1.390 . S
C874 H865 0.930 . S
C874 C872 1.384 . S
C874 C875 1.372 . S
C875 C874 1.372 . S
C875 C876 1.400 . S
C875 C880 1.490 . S
C876 H866 0.930 . S
C876 C875 1.400 . S
C876 C879 1.386 . S
H877 C893 0.930 . S
H878 C894 0.931 . S
C879 H867 0.929 . S
C879 C873 1.390 . S
C879 C876 1.386 . S
C880 C875 1.490 . S
C880 C882 1.395 . S
C880 C883 1.403 . S
H881 C887 0.930 . S
C882 H868 0.930 . S
C882 C880 1.395 . S
C882 C885 1.403 . S
C883 C880 1.403 . S
C883 C884 1.524 . S
C883 C887 1.400 . S
C884 H869 0.960 . S
C884 H870 0.960 . S
C884 H871 0.960 . S
C884 C883 1.524 . S
C885 C882 1.403 . S
C885 C886 1.392 . S
C885 C889 1.495 . S
C886 C885 1.392 . S
C886 C887 1.385 . S
C886 C888 1.478 . S
C887 H881 0.930 . S
C887 C883 1.400 . S
C887 C886 1.385 . S
C888 C886 1.478 . S
C888 C890 1.381 . S
C888 C894 1.383 . S
C889 C885 1.495 . S
C889 H895 0.959 . S
C889 H896 0.961 . S
C889 H897 0.960 . S
C890 C888 1.381 . S
C890 C891 1.394 . S
C890 H898 0.930 . S
C891 C890 1.394 . S
C891 C892 1.383 . S
C891 H899 0.929 . S
C892 C891 1.383 . S
C892 C893 1.377 . S
C893 H877 0.930 . S
C893 C892 1.377 . S
C893 C894 1.379 . S
C894 H878 0.931 . S
C894 C888 1.383 . S
C894 C893 1.379 . S
H895 C889 0.959 . S
H896 C889 0.961 . S
H897 C889 0.960 . S
H898 C890 0.930 . S
H899 C891 0.929 . S
H900 C908 0.929 . S
H901 C910 0.930 . S
H902 C912 0.930 . S
H903 C915 0.929 . S
H904 C918 0.930 . S
H905 C920 0.960 . S
H906 C920 0.960 . S
H907 C920 0.960 . S
C908 H900 0.929 . S
C908 C909 1.377 . S
C908 C910 1.384 . S
C909 C908 1.377 . S
C909 C915 1.390 . S
C910 H901 0.930 . S
C910 C908 1.384 . S
C910 C911 1.372 . S
C911 C910 1.372 . S
C911 C912 1.400 . S
C911 C916 1.490 . S
C912 H902 0.930 . S
C912 C911 1.400 . S
C912 C915 1.386 . S
H913 C929 0.930 . S
H914 C930 0.931 . S
C915 H903 0.929 . S
C915 C909 1.390 . S
C915 C912 1.386 . S
C916 C911 1.490 . S
C916 C918 1.395 . S
C916 C919 1.403 . S
H917 C923 0.930 1_545 S
C918 H904 0.930 . S
C918 C916 1.395 . S
C918 C921 1.403 . S
C919 C916 1.403 . S
C919 C920 1.524 . S
C919 C923 1.400 . S
C920 H905 0.960 . S
C920 H906 0.960 . S
C920 H907 0.960 . S
C920 C919 1.524 . S
C921 C918 1.403 . S
C921 C922 1.392 . S
C921 C925 1.495 . S
C922 C921 1.392 . S
C922 C923 1.385 . S
C922 C924 1.478 1_565 S
C923 H917 0.930 1_565 S
C923 C919 1.400 . S
C923 C922 1.385 . S
C924 C922 1.478 1_545 S
C924 C926 1.381 . S
C924 C930 1.383 . S
C925 C921 1.495 . S
C925 H931 0.959 . S
C925 H932 0.961 . S
C925 H933 0.960 . S
C926 C924 1.381 . S
C926 C927 1.394 . S
C926 H934 0.930 . S
C927 C926 1.394 . S
C927 C928 1.383 . S
C927 H935 0.929 . S
C928 C927 1.383 . S
C928 C929 1.377 . S
C929 H913 0.930 . S
C929 C928 1.377 . S
C929 C930 1.379 . S
C930 H914 0.931 . S
C930 C924 1.383 . S
C930 C929 1.379 . S
H931 C925 0.959 . S
H932 C925 0.961 . S
H933 C925 0.960 . S
H934 C926 0.930 . S
H935 C927 0.929 . S
H936 C944 0.929 . S
H937 C946 0.930 . S
H938 C948 0.930 . S
H939 C951 0.929 . S
H940 C954 0.930 . S
H941 C956 0.960 . S
H942 C956 0.960 . S
H943 C956 0.960 . S
C944 H936 0.929 . S
C944 C945 1.377 . S
C944 C946 1.384 . S
C945 C944 1.377 . S
C945 C951 1.390 . S
C946 H937 0.930 . S
C946 C944 1.384 . S
C946 C947 1.372 . S
C947 C946 1.372 . S
C947 C948 1.400 . S
C947 C952 1.490 . S
C948 H938 0.930 . S
C948 C947 1.400 . S
C948 C951 1.386 . S
H949 C965 0.930 . S
H950 C966 0.931 . S
C951 H939 0.929 . S
C951 C945 1.390 . S
C951 C948 1.386 . S
C952 C947 1.490 . S
C952 C954 1.395 . S
C952 C955 1.403 . S
H953 C959 0.930 . S
C954 H940 0.930 . S
C954 C952 1.395 . S
C954 C957 1.403 . S
C955 C952 1.403 . S
C955 C956 1.524 . S
C955 C959 1.400 . S
C956 H941 0.960 . S
C956 H942 0.960 . S
C956 H943 0.960 . S
C956 C955 1.524 . S
C957 C954 1.403 . S
C957 C958 1.392 . S
C957 C961 1.495 . S
C958 C957 1.392 . S
C958 C959 1.385 . S
C958 C960 1.478 . S
C959 H953 0.930 . S
C959 C955 1.400 . S
C959 C958 1.385 . S
C960 C958 1.478 . S
C960 C962 1.381 . S
C960 C966 1.383 1_565 S
C961 C957 1.495 . S
C961 H967 0.959 . S
C961 H968 0.961 . S
C961 H969 0.960 . S
C962 C960 1.381 . S
C962 C963 1.394 . S
C962 H970 0.930 . S
C963 C962 1.394 . S
C963 C964 1.383 1_565 S
C963 H971 0.929 . S
C964 C963 1.383 1_545 S
C964 C965 1.377 . S
C965 H949 0.930 . S
C965 C964 1.377 . S
C965 C966 1.379 . S
C966 H950 0.931 . S
C966 C960 1.383 1_545 S
C966 C965 1.379 . S
H967 C961 0.959 . S
H968 C961 0.961 . S
H969 C961 0.960 . S
H970 C962 0.930 . S
H971 C963 0.929 . S
H972 C980 0.929 . S
H973 C982 0.930 . S
H974 C984 0.930 . S
H975 C987 0.929 . S
H976 C990 0.930 . S
H977 C992 0.960 . S
H978 C992 0.960 . S
H979 C992 0.960 . S
C980 H972 0.929 . S
C980 C981 1.377 . S
C980 C982 1.384 . S
C981 C980 1.377 . S
C981 C987 1.390 . S
C982 H973 0.930 . S
C982 C980 1.384 . S
C982 C983 1.372 . S
C983 C982 1.372 . S
C983 C984 1.400 . S
C983 C988 1.490 . S
C984 H974 0.930 . S
C984 C983 1.400 . S
C984 C987 1.386 . S
H985 C1001 0.930 . S
H986 C1002 0.931 . S
C987 H975 0.929 . S
C987 C981 1.390 . S
C987 C984 1.386 . S
C988 C983 1.490 . S
C988 C990 1.395 . S
C988 C991 1.403 . S
H989 C995 0.930 . S
C990 H976 0.930 . S
C990 C988 1.395 . S
C990 C993 1.403 . S
C991 C988 1.403 . S
C991 C992 1.524 . S
C991 C995 1.400 . S
C992 H977 0.960 . S
C992 H978 0.960 . S
C992 H979 0.960 . S
C992 C991 1.524 . S
C993 C990 1.403 . S
C993 C994 1.392 . S
C993 C997 1.495 . S
C994 C993 1.392 . S
C994 C995 1.385 . S
C994 C996 1.478 . S
C995 H989 0.930 . S
C995 C991 1.400 . S
C995 C994 1.385 . S
C996 C994 1.478 . S
C996 C998 1.381 . S
C996 C1002 1.383 . S
C997 C993 1.495 . S
C997 H1003 0.959 . S
C997 H1004 0.961 . S
C997 H1005 0.960 . S
C998 C996 1.381 . S
C998 C999 1.394 . S
C998 H1006 0.930 . S
C999 C998 1.394 . S
C999 C1000 1.383 . S
C999 H1007 0.929 . S
C1000 C999 1.383 . S
C1000 C1001 1.377 . S
C1001 H985 0.930 . S
C1001 C1000 1.377 . S
C1001 C1002 1.379 . S
C1002 H986 0.931 . S
C1002 C996 1.383 . S
C1002 C1001 1.379 . S
H1003 C997 0.959 . S
H1004 C997 0.961 . S
H1005 C997 0.960 . S
H1006 C998 0.930 . S
H1007 C999 0.929 . S
H1008 C1016 0.929 . S
H1009 C1018 0.930 . S
H1010 C1020 0.930 . S
H1011 C1023 0.929 . S
H1012 C1026 0.930 . S
H1013 C1028 0.960 . S
H1014 C1028 0.960 . S
H1015 C1028 0.960 . S
C1016 H1008 0.929 . S
C1016 C1017 1.377 . S
C1016 C1018 1.384 . S
C1017 C1016 1.377 . S
C1017 C1023 1.390 . S
C1018 H1009 0.930 . S
C1018 C1016 1.384 . S
C1018 C1019 1.372 . S
C1019 C1018 1.372 . S
C1019 C1020 1.400 . S
C1019 C1024 1.490 . S
C1020 H1010 0.930 . S
C1020 C1019 1.400 . S
C1020 C1023 1.386 . S
H1021 C1037 0.930 . S
H1022 C1038 0.931 . S
C1023 H1011 0.929 . S
C1023 C1017 1.390 . S
C1023 C1020 1.386 . S
C1024 C1019 1.490 . S
C1024 C1026 1.395 . S
C1024 C1027 1.403 . S
H1025 C1031 0.930 . S
C1026 H1012 0.930 . S
C1026 C1024 1.395 . S
C1026 C1029 1.403 . S
C1027 C1024 1.403 . S
C1027 C1028 1.524 . S
C1027 C1031 1.400 . S
C1028 H1013 0.960 . S
C1028 H1014 0.960 . S
C1028 H1015 0.960 . S
C1028 C1027 1.524 . S
C1029 C1026 1.403 . S
C1029 C1030 1.392 . S
C1029 C1033 1.495 . S
C1030 C1029 1.392 . S
C1030 C1031 1.385 . S
C1030 C1032 1.478 . S
C1031 H1025 0.930 . S
C1031 C1027 1.400 . S
C1031 C1030 1.385 . S
C1032 C1030 1.478 . S
C1032 C1034 1.381 . S
C1032 C1038 1.383 . S
C1033 C1029 1.495 . S
C1033 H1039 0.959 . S
C1033 H1040 0.961 . S
C1033 H1041 0.960 . S
C1034 C1032 1.381 . S
C1034 C1035 1.394 . S
C1034 H1042 0.930 . S
C1035 C1034 1.394 . S
C1035 C1036 1.383 . S
C1035 H1043 0.929 1_455 S
C1036 C1035 1.383 . S
C1036 C1037 1.377 . S
C1037 H1021 0.930 . S
C1037 C1036 1.377 . S
C1037 C1038 1.379 . S
C1038 H1022 0.931 . S
C1038 C1032 1.383 . S
C1038 C1037 1.379 . S
H1039 C1033 0.959 . S
H1040 C1033 0.961 . S
H1041 C1033 0.960 . S
H1042 C1034 0.930 . S
H1043 C1035 0.929 1_655 S
H1044 C1052 0.929 . S
H1045 C1054 0.930 . S
H1046 C1056 0.930 . S
H1047 C1059 0.929 . S
H1048 C1062 0.930 . S
H1049 C1064 0.960 . S
H1050 C1064 0.960 . S
H1051 C1064 0.960 . S
C1052 H1044 0.929 . S
C1052 C1053 1.377 . S
C1052 C1054 1.384 . S
C1053 C1052 1.377 . S
C1053 C1059 1.390 . S
C1054 H1045 0.930 . S
C1054 C1052 1.384 . S
C1054 C1055 1.372 . S
C1055 C1054 1.372 . S
C1055 C1056 1.400 . S
C1055 C1060 1.490 . S
C1056 H1046 0.930 . S
C1056 C1055 1.400 . S
C1056 C1059 1.386 . S
H1057 C1073 0.930 . S
H1058 C1074 0.931 . S
C1059 H1047 0.929 . S
C1059 C1053 1.390 . S
C1059 C1056 1.386 . S
C1060 C1055 1.490 . S
C1060 C1062 1.395 . S
C1060 C1063 1.403 . S
H1061 C1067 0.930 . S
C1062 H1048 0.930 . S
C1062 C1060 1.395 . S
C1062 C1065 1.403 . S
C1063 C1060 1.403 . S
C1063 C1064 1.524 . S
C1063 C1067 1.400 . S
C1064 H1049 0.960 . S
C1064 H1050 0.960 . S
C1064 H1051 0.960 . S
C1064 C1063 1.524 . S
C1065 C1062 1.403 . S
C1065 C1066 1.392 . S
C1065 C1069 1.495 . S
C1066 C1065 1.392 . S
C1066 C1067 1.385 . S
C1066 C1068 1.478 . S
C1067 H1061 0.930 . S
C1067 C1063 1.400 . S
C1067 C1066 1.385 . S
C1068 C1066 1.478 . S
C1068 C1070 1.381 . S
C1068 C1074 1.383 . S
C1069 C1065 1.495 . S
C1069 H1075 0.959 . S
C1069 H1076 0.961 . S
C1069 H1077 0.960 . S
C1070 C1068 1.381 . S
C1070 C1071 1.394 . S
C1070 H1078 0.930 . S
C1071 C1070 1.394 . S
C1071 C1072 1.383 . S
C1071 H1079 0.929 . S
C1072 C1071 1.383 . S
C1072 C1073 1.377 . S
C1073 H1057 0.930 . S
C1073 C1072 1.377 . S
C1073 C1074 1.379 . S
C1074 H1058 0.931 . S
C1074 C1068 1.383 . S
C1074 C1073 1.379 . S
H1075 C1069 0.959 . S
H1076 C1069 0.961 . S
H1077 C1069 0.960 . S
H1078 C1070 0.930 . S
H1079 C1071 0.929 . S
H1080 C1088 0.929 1_545 S
H1081 C1090 0.930 . S
H1082 C1092 0.930 . S
H1083 C1095 0.929 . S
H1084 C1098 0.930 . S
H1085 C1100 0.960 . S
H1086 C1100 0.960 . S
H1087 C1100 0.960 . S
C1088 H1080 0.929 1_565 S
C1088 C1089 1.377 . S
C1088 C1090 1.384 . S
C1089 C1088 1.377 . S
C1089 C1095 1.390 . S
C1090 H1081 0.930 . S
C1090 C1088 1.384 . S
C1090 C1091 1.372 . S
C1091 C1090 1.372 . S
C1091 C1092 1.400 . S
C1091 C1096 1.490 . S
C1092 H1082 0.930 . S
C1092 C1091 1.400 . S
C1092 C1095 1.386 . S
H1093 C1109 0.930 . S
H1094 C1110 0.931 . S
C1095 H1083 0.929 . S
C1095 C1089 1.390 . S
C1095 C1092 1.386 . S
C1096 C1091 1.490 . S
C1096 C1098 1.395 . S
C1096 C1099 1.403 . S
H1097 C1103 0.930 . S
C1098 H1084 0.930 . S
C1098 C1096 1.395 . S
C1098 C1101 1.403 . S
C1099 C1096 1.403 . S
C1099 C1100 1.524 . S
C1099 C1103 1.400 . S
C1100 H1085 0.960 . S
C1100 H1086 0.960 . S
C1100 H1087 0.960 . S
C1100 C1099 1.524 . S
C1101 C1098 1.403 . S
C1101 C1102 1.392 . S
C1101 C1105 1.495 . S
C1102 C1101 1.392 . S
C1102 C1103 1.385 . S
C1102 C1104 1.478 . S
C1103 H1097 0.930 . S
C1103 C1099 1.400 . S
C1103 C1102 1.385 . S
C1104 C1102 1.478 . S
C1104 C1106 1.381 . S
C1104 C1110 1.383 . S
C1105 C1101 1.495 . S
C1105 H1111 0.959 1_565 S
C1105 H1112 0.961 . S
C1105 H1113 0.960 . S
C1106 C1104 1.381 . S
C1106 C1107 1.394 . S
C1106 H1114 0.930 . S
C1107 C1106 1.394 . S
C1107 C1108 1.383 . S
C1107 H1115 0.929 . S
C1108 C1107 1.383 . S
C1108 C1109 1.377 . S
C1109 H1093 0.930 . S
C1109 C1108 1.377 . S
C1109 C1110 1.379 . S
C1110 H1094 0.931 . S
C1110 C1104 1.383 . S
C1110 C1109 1.379 . S
H1111 C1105 0.959 1_545 S
H1112 C1105 0.961 . S
H1113 C1105 0.960 . S
H1114 C1106 0.930 . S
H1115 C1107 0.929 . S
H1116 C1124 0.929 . S
H1117 C1126 0.930 . S
H1118 C1128 0.930 . S
H1119 C1131 0.929 1_565 S
H1120 C1134 0.930 . S
H1121 C1136 0.960 . S
H1122 C1136 0.960 . S
H1123 C1136 0.960 . S
C1124 H1116 0.929 . S
C1124 C1125 1.377 . S
C1124 C1126 1.384 . S
C1125 C1124 1.377 . S
C1125 C1131 1.390 . S
C1126 H1117 0.930 . S
C1126 C1124 1.384 . S
C1126 C1127 1.372 . S
C1127 C1126 1.372 . S
C1127 C1128 1.400 . S
C1127 C1132 1.490 . S
C1128 H1118 0.930 . S
C1128 C1127 1.400 . S
C1128 C1131 1.386 . S
H1129 C1145 0.930 . S
H1130 C1146 0.931 . S
C1131 H1119 0.929 1_545 S
C1131 C1125 1.390 . S
C1131 C1128 1.386 . S
C1132 C1127 1.490 . S
C1132 C1134 1.395 . S
C1132 C1135 1.403 . S
H1133 C1139 0.930 . S
C1134 H1120 0.930 . S
C1134 C1132 1.395 . S
C1134 C1137 1.403 . S
C1135 C1132 1.403 . S
C1135 C1136 1.524 . S
C1135 C1139 1.400 . S
C1136 H1121 0.960 . S
C1136 H1122 0.960 . S
C1136 H1123 0.960 . S
C1136 C1135 1.524 . S
C1137 C1134 1.403 . S
C1137 C1138 1.392 . S
C1137 C1141 1.495 . S
C1138 C1137 1.392 . S
C1138 C1139 1.385 . S
C1138 C1140 1.478 . S
C1139 H1133 0.930 . S
C1139 C1135 1.400 . S
C1139 C1138 1.385 . S
C1140 C1138 1.478 . S
C1140 C1142 1.381 . S
C1140 C1146 1.383 . S
C1141 C1137 1.495 . S
C1141 H1147 0.959 . S
C1141 H1148 0.961 . S
C1141 H1149 0.960 . S
C1142 C1140 1.381 . S
C1142 C1143 1.394 . S
C1142 H1150 0.930 . S
C1143 C1142 1.394 . S
C1143 C1144 1.383 . S
C1143 H1151 0.929 . S
C1144 C1143 1.383 . S
C1144 C1145 1.377 . S
C1145 H1129 0.930 . S
C1145 C1144 1.377 . S
C1145 C1146 1.379 . S
C1146 H1130 0.931 . S
C1146 C1140 1.383 . S
C1146 C1145 1.379 . S
H1147 C1141 0.959 . S
H1148 C1141 0.961 . S
H1149 C1141 0.960 . S
H1150 C1142 0.930 . S
H1151 C1143 0.929 . S
H1152 C1160 0.929 1_455 S
H1153 C1162 0.930 . S
H1154 C1164 0.930 . S
H1155 C1167 0.929 . S
H1156 C1170 0.930 . S
H1157 C1172 0.960 . S
H1158 C1172 0.960 . S
H1159 C1172 0.960 . S
C1160 H1152 0.929 1_655 S
C1160 C1161 1.377 . S
C1160 C1162 1.384 . S
C1161 C1160 1.377 . S
C1161 C1167 1.390 . S
C1162 H1153 0.930 . S
C1162 C1160 1.384 . S
C1162 C1163 1.372 . S
C1163 C1162 1.372 . S
C1163 C1164 1.400 . S
C1163 C1168 1.490 . S
C1164 H1154 0.930 . S
C1164 C1163 1.400 . S
C1164 C1167 1.386 . S
H1165 C1181 0.930 . S
H1166 C1182 0.931 . S
C1167 H1155 0.929 . S
C1167 C1161 1.390 . S
C1167 C1164 1.386 . S
C1168 C1163 1.490 . S
C1168 C1170 1.395 . S
C1168 C1171 1.403 . S
H1169 C1175 0.930 . S
C1170 H1156 0.930 . S
C1170 C1168 1.395 . S
C1170 C1173 1.403 . S
C1171 C1168 1.403 . S
C1171 C1172 1.524 . S
C1171 C1175 1.400 . S
C1172 H1157 0.960 . S
C1172 H1158 0.960 . S
C1172 H1159 0.960 . S
C1172 C1171 1.524 . S
C1173 C1170 1.403 . S
C1173 C1174 1.392 . S
C1173 C1177 1.495 . S
C1174 C1173 1.392 . S
C1174 C1175 1.385 . S
C1174 C1176 1.478 . S
C1175 H1169 0.930 . S
C1175 C1171 1.400 . S
C1175 C1174 1.385 . S
C1176 C1174 1.478 . S
C1176 C1178 1.381 . S
C1176 C1182 1.383 . S
C1177 C1173 1.495 . S
C1177 H1183 0.959 . S
C1177 H1184 0.961 . S
C1177 H1185 0.960 . S
C1178 C1176 1.381 . S
C1178 C1179 1.394 . S
C1178 H1186 0.930 . S
C1179 C1178 1.394 . S
C1179 C1180 1.383 . S
C1179 H1187 0.929 . S
C1180 C1179 1.383 . S
C1180 C1181 1.377 . S
C1181 H1165 0.930 . S
C1181 C1180 1.377 . S
C1181 C1182 1.379 . S
C1182 H1166 0.931 . S
C1182 C1176 1.383 . S
C1182 C1181 1.379 . S
H1183 C1177 0.959 . S
H1184 C1177 0.961 . S
H1185 C1177 0.960 . S
H1186 C1178 0.930 . S
H1187 C1179 0.929 . S
H1188 C1196 0.929 . S
H1189 C1198 0.930 . S
H1190 C1200 0.930 . S
H1191 C1203 0.929 . S
H1192 C1206 0.930 . S
H1193 C1208 0.960 . S
H1194 C1208 0.960 . S
H1195 C1208 0.960 . S
C1196 H1188 0.929 . S
C1196 C1197 1.377 . S
C1196 C1198 1.384 . S
C1197 C1196 1.377 . S
C1197 C1203 1.390 . S
C1198 H1189 0.930 . S
C1198 C1196 1.384 . S
C1198 C1199 1.372 . S
C1199 C1198 1.372 . S
C1199 C1200 1.400 . S
C1199 C1204 1.490 . S
C1200 H1190 0.930 . S
C1200 C1199 1.400 . S
C1200 C1203 1.386 . S
H1201 C1217 0.930 . S
H1202 C1218 0.931 . S
C1203 H1191 0.929 . S
C1203 C1197 1.390 . S
C1203 C1200 1.386 . S
C1204 C1199 1.490 . S
C1204 C1206 1.395 . S
C1204 C1207 1.403 . S
H1205 C1211 0.930 . S
C1206 H1192 0.930 . S
C1206 C1204 1.395 . S
C1206 C1209 1.403 . S
C1207 C1204 1.403 . S
C1207 C1208 1.524 . S
C1207 C1211 1.400 . S
C1208 H1193 0.960 . S
C1208 H1194 0.960 . S
C1208 H1195 0.960 . S
C1208 C1207 1.524 . S
C1209 C1206 1.403 . S
C1209 C1210 1.392 . S
C1209 C1213 1.495 . S
C1210 C1209 1.392 . S
C1210 C1211 1.385 . S
C1210 C1212 1.478 . S
C1211 H1205 0.930 . S
C1211 C1207 1.400 . S
C1211 C1210 1.385 . S
C1212 C1210 1.478 . S
C1212 C1214 1.381 . S
C1212 C1218 1.383 . S
C1213 C1209 1.495 . S
C1213 H1219 0.959 . S
C1213 H1220 0.961 . S
C1213 H1221 0.960 . S
C1214 C1212 1.381 . S
C1214 C1215 1.394 . S
C1214 H1222 0.930 . S
C1215 C1214 1.394 . S
C1215 C1216 1.383 . S
C1215 H1223 0.929 . S
C1216 C1215 1.383 . S
C1216 C1217 1.377 . S
C1217 H1201 0.930 . S
C1217 C1216 1.377 . S
C1217 C1218 1.379 . S
C1218 H1202 0.931 . S
C1218 C1212 1.383 . S
C1218 C1217 1.379 . S
H1219 C1213 0.959 . S
H1220 C1213 0.961 . S
H1221 C1213 0.960 . S
H1222 C1214 0.930 . S
H1223 C1215 0.929 . S
H1224 C1232 0.929 . S
H1225 C1234 0.930 . S
H1226 C1236 0.930 . S
H1227 C1239 0.929 . S
H1228 C1242 0.930 . S
H1229 C1244 0.960 . S
H1230 C1244 0.960 . S
H1231 C1244 0.960 . S
C1232 H1224 0.929 . S
C1232 C1233 1.377 . S
C1232 C1234 1.384 . S
C1233 C1232 1.377 . S
C1233 C1239 1.390 . S
C1234 H1225 0.930 . S
C1234 C1232 1.384 . S
C1234 C1235 1.372 . S
C1235 C1234 1.372 . S
C1235 C1236 1.400 . S
C1235 C1240 1.490 . S
C1236 H1226 0.930 . S
C1236 C1235 1.400 . S
C1236 C1239 1.386 . S
H1237 C1253 0.930 . S
H1238 C1254 0.931 . S
C1239 H1227 0.929 . S
C1239 C1233 1.390 . S
C1239 C1236 1.386 . S
C1240 C1235 1.490 . S
C1240 C1242 1.395 . S
C1240 C1243 1.403 . S
H1241 C1247 0.930 . S
C1242 H1228 0.930 . S
C1242 C1240 1.395 . S
C1242 C1245 1.403 . S
C1243 C1240 1.403 . S
C1243 C1244 1.524 . S
C1243 C1247 1.400 . S
C1244 H1229 0.960 . S
C1244 H1230 0.960 . S
C1244 H1231 0.960 . S
C1244 C1243 1.524 . S
C1245 C1242 1.403 . S
C1245 C1246 1.392 . S
C1245 C1249 1.495 . S
C1246 C1245 1.392 . S
C1246 C1247 1.385 . S
C1246 C1248 1.478 . S
C1247 H1241 0.930 . S
C1247 C1243 1.400 . S
C1247 C1246 1.385 . S
C1248 C1246 1.478 . S
C1248 C1250 1.381 . S
C1248 C1254 1.383 . S
C1249 C1245 1.495 . S
C1249 H1255 0.959 . S
C1249 H1256 0.961 . S
C1249 H1257 0.960 . S
C1250 C1248 1.381 . S
C1250 C1251 1.394 . S
C1250 H1258 0.930 . S
C1251 C1250 1.394 . S
C1251 C1252 1.383 . S
C1251 H1259 0.929 . S
C1252 C1251 1.383 . S
C1252 C1253 1.377 . S
C1253 H1237 0.930 . S
C1253 C1252 1.377 . S
C1253 C1254 1.379 . S
C1254 H1238 0.931 . S
C1254 C1248 1.383 . S
C1254 C1253 1.379 . S
H1255 C1249 0.959 . S
H1256 C1249 0.961 . S
H1257 C1249 0.960 . S
H1258 C1250 0.930 . S
H1259 C1251 0.929 . S
H1260 C1268 0.929 . S
H1261 C1270 0.930 . S
H1262 C1272 0.930 . S
H1263 C1275 0.929 . S
H1264 C1278 0.930 . S
H1265 C1280 0.960 . S
H1266 C1280 0.960 . S
H1267 C1280 0.960 . S
C1268 H1260 0.929 . S
C1268 C1269 1.377 . S
C1268 C1270 1.384 . S
C1269 C1268 1.377 . S
C1269 C1275 1.390 . S
C1270 H1261 0.930 . S
C1270 C1268 1.384 . S
C1270 C1271 1.372 . S
C1271 C1270 1.372 . S
C1271 C1272 1.400 . S
C1271 C1276 1.490 . S
C1272 H1262 0.930 . S
C1272 C1271 1.400 . S
C1272 C1275 1.386 . S
H1273 C1289 0.930 . S
H1274 C1290 0.931 . S
C1275 H1263 0.929 . S
C1275 C1269 1.390 . S
C1275 C1272 1.386 . S
C1276 C1271 1.490 . S
C1276 C1278 1.395 1_565 S
C1276 C1279 1.403 . S
H1277 C1283 0.930 1_565 S
C1278 H1264 0.930 . S
C1278 C1276 1.395 1_545 S
C1278 C1281 1.403 . S
C1279 C1276 1.403 . S
C1279 C1280 1.524 . S
C1279 C1283 1.400 1_565 S
C1280 H1265 0.960 . S
C1280 H1266 0.960 . S
C1280 H1267 0.960 . S
C1280 C1279 1.524 . S
C1281 C1278 1.403 . S
C1281 C1282 1.392 . S
C1281 C1285 1.495 . S
C1282 C1281 1.392 . S
C1282 C1283 1.385 . S
C1282 C1284 1.478 . S
C1283 H1277 0.930 1_545 S
C1283 C1279 1.400 1_545 S
C1283 C1282 1.385 . S
C1284 C1282 1.478 . S
C1284 C1286 1.381 . S
C1284 C1290 1.383 . S
C1285 C1281 1.495 . S
C1285 H1291 0.959 . S
C1285 H1292 0.961 . S
C1285 H1293 0.960 . S
C1286 C1284 1.381 . S
C1286 C1287 1.394 . S
C1286 H1294 0.930 . S
C1287 C1286 1.394 . S
C1287 C1288 1.383 . S
C1287 H1295 0.929 . S
C1288 C1287 1.383 . S
C1288 C1289 1.377 . S
C1289 H1273 0.930 . S
C1289 C1288 1.377 . S
C1289 C1290 1.379 . S
C1290 H1274 0.931 . S
C1290 C1284 1.383 . S
C1290 C1289 1.379 . S
H1291 C1285 0.959 . S
H1292 C1285 0.961 . S
H1293 C1285 0.960 . S
H1294 C1286 0.930 . S
H1295 C1287 0.929 . S
H1296 C1304 0.929 . S
H1297 C1306 0.930 . S
H1298 C1308 0.930 . S
H1299 C1311 0.929 . S
H1300 C1314 0.930 . S
H1301 C1316 0.960 . S
H1302 C1316 0.960 . S
H1303 C1316 0.960 . S
C1304 H1296 0.929 . S
C1304 C1305 1.377 . S
C1304 C1306 1.384 . S
C1305 C1304 1.377 . S
C1305 C1311 1.390 . S
C1306 H1297 0.930 . S
C1306 C1304 1.384 . S
C1306 C1307 1.372 . S
C1307 C1306 1.372 . S
C1307 C1308 1.400 . S
C1307 C1312 1.490 . S
C1308 H1298 0.930 . S
C1308 C1307 1.400 . S
C1308 C1311 1.386 . S
H1309 C1325 0.930 . S
H1310 C1326 0.931 . S
C1311 H1299 0.929 . S
C1311 C1305 1.390 . S
C1311 C1308 1.386 . S
C1312 C1307 1.490 . S
C1312 C1314 1.395 . S
C1312 C1315 1.403 1_655 S
H1313 C1319 0.930 . S
C1314 H1300 0.930 . S
C1314 C1312 1.395 . S
C1314 C1317 1.403 . S
C1315 C1312 1.403 1_455 S
C1315 C1316 1.524 . S
C1315 C1319 1.400 . S
C1316 H1301 0.960 . S
C1316 H1302 0.960 . S
C1316 H1303 0.960 . S
C1316 C1315 1.524 . S
C1317 C1314 1.403 . S
C1317 C1318 1.392 1_655 S
C1317 C1321 1.495 . S
C1318 C1317 1.392 1_455 S
C1318 C1319 1.385 . S
C1318 C1320 1.478 . S
C1319 H1313 0.930 . S
C1319 C1315 1.400 . S
C1319 C1318 1.385 . S
C1320 C1318 1.478 . S
C1320 C1322 1.381 . S
C1320 C1326 1.383 . S
C1321 C1317 1.495 . S
C1321 H1327 0.959 . S
C1321 H1328 0.961 . S
C1321 H1329 0.960 . S
C1322 C1320 1.381 . S
C1322 C1323 1.394 . S
C1322 H1330 0.930 . S
C1323 C1322 1.394 . S
C1323 C1324 1.383 . S
C1323 H1331 0.929 . S
C1324 C1323 1.383 . S
C1324 C1325 1.377 . S
C1325 H1309 0.930 . S
C1325 C1324 1.377 . S
C1325 C1326 1.379 . S
C1326 H1310 0.931 . S
C1326 C1320 1.383 . S
C1326 C1325 1.379 . S
H1327 C1321 0.959 . S
H1328 C1321 0.961 . S
H1329 C1321 0.960 . S
H1330 C1322 0.930 . S
H1331 C1323 0.929 . S
C369 C49 0.508 . S
C388 C26 0.384 . S
C405 C83 3.248 . S
C424 C62 3.291 . S
C441 C106 1.023 . S
C460 C3 0.995 . S
C477 C102 3.063 . S
C496 C43 3.032 . S
C513 C89 1.993 . S
C532 C22 2.080 . S
C549 C9 0.572 . S
C568 C66 0.394 . S
C585 C146 2.842 . S
C604 C163 2.808 . S
C621 C203 0.638 . S
C640 C186 0.635 . S
C657 C226 0.884 . S
C676 C123 0.903 . S
C693 C169 0.504 . S
C712 C222 0.409 . S
C729 C209 2.070 . S
C748 C142 2.164 . S
C765 C182 2.427 . S
C784 C129 2.403 . S
C801 C289 0.504 . S
C820 C266 0.364 . S
C837 C302 3.321 . S
C856 C323 3.279 . S
C873 C346 1.024 . S
C892 C243 1.010 . S
C909 C342 2.982 . S
C928 C283 2.946 . S
C945 C329 1.999 1_455 S
C964 C262 2.089 . S
C981 C249 0.533 . S
C1000 C306 0.342 . S
C1017 C215 2.287 . S
C1036 C2 2.558 . S
C1053 C135 1.995 . S
C1072 C55 1.962 . S
C1089 C82 2.980 . S
C1108 C175 2.713 . S
C1125 C95 2.299 . S
C1144 C242 2.556 . S
C1161 C15 1.891 . S
C1180 C295 1.837 . S
C1197 C322 2.964 . S
C1216 C42 2.958 . S
C1233 C122 2.624 . S
C1252 C335 2.369 . S
C1269 C162 2.072 . S
C1288 C255 1.901 . S
C1305 C282 2.862 . S
C1324 C202 2.847 . S
