# Generated by pormake.
# Topology snp, (6)-cn, num edge types: 1
# Building blocks:
#     Node 0, Type 0, BuildingBlock: JUFBIX_clean_sbu_0, # of connection points: 6
#     Node 1, Type 0, BuildingBlock: JUFBIX_clean_sbu_0, # of connection points: 6
#     Node 2, Type 0, BuildingBlock: JUFBIX_clean_sbu_0, # of connection points: 6
#     Node 3, Type 0, BuildingBlock: JUFBIX_clean_sbu_0, # of connection points: 6
#     Edge 4, Type (0, 0), BuildingBlock: CIFDUS_clean_linker_0, # of connection points: 2
#     Edge 5, Type (0, 0), BuildingBlock: CIFDUS_clean_linker_0, # of connection points: 2
#     Edge 6, Type (0, 0), BuildingBlock: CIFDUS_clean_linker_0, # of connection points: 2
#     Edge 7, Type (0, 0), BuildingBlock: CIFDUS_clean_linker_0, # of connection points: 2
#     Edge 8, Type (0, 0), BuildingBlock: CIFDUS_clean_linker_0, # of connection points: 2
#     Edge 9, Type (0, 0), BuildingBlock: CIFDUS_clean_linker_0, # of connection points: 2
#     Edge 10, Type (0, 0), BuildingBlock: CIFDUS_clean_linker_0, # of connection points: 2
#     Edge 11, Type (0, 0), BuildingBlock: CIFDUS_clean_linker_0, # of connection points: 2
#     Edge 12, Type (0, 0), BuildingBlock: CIFDUS_clean_linker_0, # of connection points: 2
#     Edge 13, Type (0, 0), BuildingBlock: CIFDUS_clean_linker_0, # of connection points: 2
#     Edge 14, Type (0, 0), BuildingBlock: CIFDUS_clean_linker_0, # of connection points: 2
#     Edge 15, Type (0, 0), BuildingBlock: CIFDUS_clean_linker_0, # of connection points: 2
# Relax obj value: 0.728
# Max RMSD: 0.271
# Mean RMSD: 0.268
data_MOF--net-snp--node1-JUFBIX_clean_sbu_0--edge1-CIFDUS_clean_linker_0
_symmetry_space_group_name_H-M    P1
_symmetry_Int_Tables_number       1
_symmetry_cell_setting            triclinic
loop_
_symmetry_equiv_pos_as_xyz
'x, y, z'
_cell_length_a     24.032782
_cell_length_b     24.003274
_cell_length_c     24.470501
_cell_angle_alpha  88.102807
_cell_angle_beta   97.271275
_cell_angle_gamma 100.74313
loop_
_atom_site_label
_atom_site_type_symbol
_atom_site_fract_x
_atom_site_fract_y
_atom_site_fract_z
_atom_type_partial_charge
Co0 Co 0.26095 0.07838 0.10278 0.0
C1 C 0.3541 0.03855 0.08024 0.0
Co2 Co 0.24092 0.01491 0.03611 0.0
C3 C 0.24264 0.13152 0.20031 0.0
C4 C 0.31632 0.17674 0.16677 0.0
N5 N 0.27385 0.13144 0.15819 0.0
N6 N 0.26395 0.17482 0.23515 0.0
C7 C 0.31032 0.20356 0.21404 0.0
H8 H 0.20475 0.10034 0.2051 0.0
H9 H 0.34986 0.18897 0.14076 0.0
C10 C 0.14831 0.05363 0.05661 0.0
N11 N 0.2278 0.96017 0.98115 0.0
C12 C 0.1984 0.95924 0.93006 0.0
C13 C 0.24769 0.91109 0.98546 0.0
N14 N 0.19907 0.91132 0.90248 0.0
C15 C 0.23028 0.88118 0.93749 0.0
C16 C 0.22699 0.9695 0.1424 0.0
O17 O 0.18292 0.08208 0.09353 0.0
O18 O 0.16573 0.02151 0.02533 0.0
O19 O 0.22296 0.95578 0.09185 0.0
O20 O 0.24665 0.02058 0.15576 0.0
O21 O 0.31695 0.00894 0.04649 0.0
H22 H 0.27355 0.89796 0.02127 0.0
H23 H 0.17632 -0.00724 0.91385 0.0
O24 O 0.33936 0.07337 0.11113 0.0
O25 O 0.27304 0.13635 0.05011 0.0
O26 O 0.25651 0.07453 0.98303 0.0
C27 C 0.26726 0.12589 0.99902 0.0
H28 H 0.33876 0.24046 0.23211 0.0
H29 H 0.2406 0.84059 0.92896 0.0
Co30 Co 0.02317 0.24683 0.6955 0.0
C31 C 0.03996 0.35806 0.66049 0.0
Co32 Co 0.08334 0.26663 0.63345 0.0
C33 C 0.97208 0.20241 0.79392 0.0
C34 C 0.92015 0.24986 0.74048 0.0
N35 N 0.97021 0.23144 0.74558 0.0
N36 N 0.92494 0.20199 0.81908 0.0
C37 C 0.89242 0.23206 0.78538 0.0
H38 H 0.00709 0.18159 0.8099 0.0
H39 H 0.90496 0.27515 0.70638 0.0
C40 C 0.06328 0.15513 0.66608 0.0
N41 N 0.13626 0.28409 0.58365 0.0
C42 C 0.13835 0.2605 0.53473 0.0
C43 C 0.18131 0.32726 0.58914 0.0
N44 N 0.18279 0.28768 0.50941 0.0
C45 C 0.20991 0.32954 0.5438 0.0
C46 C 0.13439 0.27409 0.74223 0.0
O47 O 0.03411 0.1722 0.69962 0.0
O48 O 0.08872 0.18989 0.63299 0.0
O49 O 0.14328 0.27791 0.69213 0.0
O50 O 0.08334 0.26544 0.75386 0.0
O51 O 0.0763 0.34299 0.6336 0.0
H52 H 0.1923 0.35577 0.62376 0.0
H53 H 0.10707 0.22506 0.51749 0.0
O54 O 0.01207 0.32224 0.69066 0.0
O55 O 0.96329 0.22548 0.63552 0.0
O56 O 0.02301 0.25304 0.57488 0.0
C57 C 0.97307 0.23149 0.5855 0.0
H58 H 0.85171 0.24141 0.79281 0.0
H59 H 0.24797 0.35962 0.53689 0.0
Co60 Co 0.78291 -0.01362 0.17455 0.0
C61 C 0.85784 0.92478 0.14115 0.0
Co62 Co 0.7464 0.92591 0.10661 0.0
C63 C 0.807 0.05832 0.27684 0.0
C64 C 0.87207 0.0689 0.22318 0.0
N65 N 0.81974 0.03876 0.22924 0.0
N66 N 0.84934 0.09983 0.29927 0.0
C67 C 0.89002 0.10605 0.26551 0.0
H68 H 0.76729 0.0437 0.29377 0.0
H69 H 0.89588 0.0647 0.18934 0.0
C70 C 0.67102 -0.01276 0.14083 0.0
N71 N 0.71774 0.87631 0.04839 0.0
C72 C 0.74726 0.87359 1.00539 0.0
C73 C 0.67129 0.83506 0.03893 0.0
N74 N 0.72233 0.83205 0.96988 0.0
C75 C 0.67391 0.80781 0.99044 0.0
C76 C 0.74056 0.87877 0.21043 0.0
O77 O 0.71357 0.01157 0.1733 0.0
O78 O 0.6761 0.94746 0.10951 0.0
O79 O 0.73016 0.86841 0.15911 0.0
O80 O 0.76061 0.9293 0.22705 0.0
O81 O 0.81726 0.90554 0.10493 0.0
H82 H 0.63866 0.82443 0.06615 0.0
H83 H 0.78727 0.90154 1.00067 0.0
O84 O 0.85078 0.9599 0.17571 0.0
O85 O 0.80591 0.04269 0.1192 0.0
O86 O 0.76333 -0.0165 0.0544 0.0
C87 C 0.79174 0.03166 0.06843 0.0
H88 H 0.93013 0.13577 0.27114 0.0
H89 H 0.64371 0.77173 0.97297 0.0
Co90 Co 0.91838 0.74145 0.57775 0.0
C91 C 0.94506 0.85349 0.54804 0.0
Co92 Co -0.01813 0.76004 0.51721 0.0
C93 C 0.85423 0.75329 0.67022 0.0
C94 C 0.8183 0.68145 0.61942 0.0
N95 N 0.86267 0.72532 0.62567 0.0
N96 N 0.806 0.7287 0.69143 0.0
C97 C 0.78359 0.68343 0.65948 0.0
H98 H 0.88205 0.79171 0.68583 0.0
H99 H 0.81116 0.6503 0.58713 0.0
C100 C 0.95798 0.64792 0.54887 0.0
N101 N 0.03676 0.77494 0.46711 0.0
C102 C 0.04179 0.81351 0.42532 0.0
C103 C 0.07949 0.74614 0.46424 0.0
N104 N 0.08541 0.80926 0.3964 0.0
C105 C 0.10904 0.76678 0.42093 0.0
C106 C 0.02807 0.76889 0.62883 0.0
O107 O 0.92286 0.66432 0.57649 0.0
O108 O -0.01245 0.68322 0.51946 0.0
O109 O 0.04091 0.77524 0.57959 0.0
O110 O -0.02345 0.75179 0.63721 0.0
O111 O -0.02452 0.83581 0.51611 0.0
H112 H 0.08878 0.7121 0.49194 0.0
H113 H 0.01356 0.8437 0.41581 0.0
O114 O 0.91613 0.81903 0.57894 0.0
O115 O 0.86059 0.73268 0.51808 0.0
O116 O 0.92212 0.74654 0.45762 0.0
C117 C 0.87071 0.73748 0.46841 0.0
H118 H 0.74487 0.6536 0.66479 0.0
H119 H 0.14598 0.75252 0.40919 0.0
H120 H 0.89617 0.93741 0.04417 0.0
H121 H 0.94763 0.91711 0.21799 0.0
H122 H 0.04441 0.96596 0.20709 0.0
H123 H 0.10884 0.02434 0.15048 0.0
H124 H 0.05805 0.04569 0.97681 0.0
H125 H 0.96279 -0.00919 0.98614 0.0
C126 C 0.92932 0.94154 0.07913 0.0
C127 C 0.91575 0.92433 0.13175 0.0
C128 C -0.01733 0.97352 0.07333 0.0
C129 C 0.95819 0.92997 0.17711 0.0
C130 C 0.01264 0.95923 0.17117 0.0
C131 C 0.07623 0.01832 0.11511 0.0
C132 C 0.08875 0.03998 0.06349 0.0
C133 C 0.02407 -0.01625 0.12012 0.0
C134 C 0.0477 0.03049 0.01717 0.0
C135 C -0.00571 -0.00201 0.02224 0.0
H136 H 0.96192 0.89838 0.64776 0.0
H137 H 0.95979 0.9406 0.47487 0.0
H138 H 0.00475 0.03862 0.49758 0.0
H139 H 0.0472 0.10986 0.56655 0.0
H140 H 0.04967 0.06783 0.73956 0.0
H141 H 0.00485 0.96974 0.71689 0.0
C142 C 0.96982 0.9296 0.61517 0.0
C143 C 0.95679 0.91353 0.55989 0.0
C144 C -0.00188 -0.01566 0.62856 0.0
C145 C 0.96874 0.95317 0.51769 0.0
C146 C -0.00475 0.00852 0.53065 0.0
C147 C 0.03949 0.07873 0.59926 0.0
C148 C 0.0524 0.09497 0.65451 0.0
C149 C 0.01134 0.02398 0.58591 0.0
C150 C 0.04072 0.05526 0.69675 0.0
C151 C 0.01427 -0.00016 0.68381 0.0
H152 H 0.58647 0.96741 0.05812 0.0
H153 H 0.63371 0.04992 0.2156 0.0
H154 H 0.53967 0.07714 0.20947 0.0
H155 H 0.44221 0.0723 0.16075 0.0
H156 H 0.39837 -0.01172 1.00341 0.0
H157 H 0.49352 0.96712 1.00809 0.0
C158 C 0.57625 -0.00876 0.09126 0.0
C159 C 0.61617 0.00592 0.13755 0.0
C160 C 0.5229 0.0065 0.08744 0.0
C161 C 0.60306 0.03788 0.17965 0.0
C162 C 0.54949 0.05338 0.17618 0.0
C163 C 0.45389 0.04989 0.12742 0.0
C164 C 0.41336 0.03121 0.08229 0.0
C165 C 0.5088 0.03724 0.13047 0.0
C166 C 0.42872 0.00238 0.03907 0.0
C167 C 0.48307 -0.00974 0.04155 0.0
H168 H 0.06314 0.42784 0.57473 0.0
H169 H -0.02202 0.41081 0.72122 0.0
H170 H 0.94032 0.49723 0.69636 0.0
H171 H 0.93163 0.57669 0.63298 0.0
H172 H 0.01697 0.59357 0.48659 0.0
H173 H 0.0533 0.50639 0.51075 0.0
C174 C 0.03702 0.44347 0.60165 0.0
C175 C 0.02371 0.41358 0.64992 0.0
C176 C 0.01455 0.49207 0.5865 0.0
C177 C -0.01095 0.4336 0.68399 0.0
C178 C 0.96717 0.48259 0.66961 0.0
C179 C 0.95735 0.56077 0.60586 0.0
C180 C 0.97151 0.59113 0.55805 0.0
C181 C -0.02078 0.51173 0.62068 0.0
C182 C 0.00543 0.57057 0.52358 0.0
C183 C 0.02659 0.52115 0.53757 0.0
H184 H 0.16348 0.18626 0.4588 0.0
H185 H 0.23667 0.36313 0.44023 0.0
H186 H 0.2679 0.34369 0.35312 0.0
H187 H 0.27601 0.27653 0.2828 0.0
H188 H 0.20366 0.09939 0.30075 0.0
H189 H 0.16944 0.11902 0.38658 0.0
C190 C 0.18569 0.22058 0.43538 0.0
C191 C 0.19817 0.27597 0.45643 0.0
C192 C 0.20362 0.20911 0.38505 0.0
C193 C 0.22745 0.31992 0.42567 0.0
C194 C 0.24509 0.30892 0.37561 0.0
C195 C 0.25312 0.24214 0.30563 0.0
C196 C 0.24269 0.18661 0.2853 0.0
C197 C 0.23395 0.25363 0.35518 0.0
C198 C 0.21188 0.14269 0.315 0.0
C199 C 0.19254 0.15381 0.36435 0.0
H200 H 0.81971 0.16737 0.84847 0.0
H201 H -0.00187 0.1737 0.90545 0.0
H202 H 0.97305 0.12619 0.99141 0.0
H203 H 0.89924 0.07908 0.04896 0.0
H204 H 0.72159 0.07109 0.98851 0.0
H205 H 0.7475 0.12494 0.90609 0.0
C206 C 0.85337 0.15943 0.87989 0.0
C207 C 0.91078 0.17447 0.87029 0.0
C208 C 0.83865 0.13233 0.92902 0.0
C209 C 0.95355 0.16218 0.91129 0.0
C210 C 0.93924 0.13534 0.9607 0.0
C211 C 0.86654 0.09067 0.01826 0.0
C212 C 0.80866 0.07255 0.02492 0.0
C213 C 0.88184 0.11996 0.96994 0.0
C214 C 0.76634 0.08568 0.98431 0.0
C215 C 0.78115 0.11595 0.9371 0.0
H216 H 0.85604 0.71137 0.35957 0.0
H217 H 0.78389 0.78991 0.48302 0.0
H218 H 0.72709 0.83529 0.41177 0.0
H219 H 0.71473 0.86834 0.31545 0.0
H220 H 0.78096 0.78479 0.19141 0.0
H221 H 0.82191 0.72459 0.26147 0.0
C222 C 0.82631 0.73678 0.3706 0.0
C223 C 0.82492 0.74831 0.42606 0.0
C224 C 0.79316 0.76237 0.3294 0.0
C225 C 0.78582 0.78064 0.44032 0.0
C226 C 0.7536 0.80705 0.39966 0.0
C227 C 0.73615 0.83536 0.30376 0.0
C228 C 0.74577 0.83145 0.24894 0.0
C229 C 0.75932 0.8006 0.34418 0.0
C230 C 0.7731 0.78843 0.23368 0.0
C231 C 0.79712 0.75439 0.27374 0.0
H232 H 0.0766 0.87589 0.65907 0.0
H233 H 0.0689 0.70095 0.70816 0.0
H234 H 0.12324 0.72995 0.79745 0.0
H235 H 0.16578 0.80466 0.86376 0.0
H236 H 0.17023 -0.01977 0.81714 0.0
H237 H 0.12328 0.95159 0.72514 0.0
C238 C 0.08842 0.84436 0.6889 0.0
C239 C 0.07046 0.7864 0.67685 0.0
C240 C 0.11772 0.8615 0.74095 0.0
C241 C 0.08373 0.74571 0.71632 0.0
C242 C 0.11418 0.76234 0.76747 0.0
C243 C 0.15742 0.83688 0.83339 0.0
C244 C 0.1718 0.89467 0.84773 0.0
C245 C 0.13038 0.82007 0.78064 0.0
C246 C 0.15917 0.9355 0.80777 0.0
C247 C 0.13264 0.91913 0.75491 0.0
H248 H 0.66449 0.78154 0.87686 0.0
H249 H 0.83422 0.84525 0.95624 0.0
H250 H 0.87503 0.82163 0.87599 0.0
H251 H 0.86329 0.78135 0.78315 0.0
H252 H 0.69412 0.71581 0.70406 0.0
H253 H 0.65276 0.74099 0.78382 0.0
C254 C 0.71036 0.78987 0.8767 0.0
C255 C 0.74591 0.81574 0.92254 0.0
C256 C 0.73392 0.77575 0.83023 0.0
C257 C 0.80545 0.82654 0.92132 0.0
C258 C 0.82906 0.81269 0.87542 0.0
C259 C 0.81739 0.77314 0.78322 0.0
C260 C 0.782 0.74652 0.73773 0.0
C261 C 0.79378 0.78744 0.82952 0.0
C262 C 0.7225 0.73554 0.73879 0.0
C263 C 0.69872 0.75011 0.78438 0.0
H264 H 0.18011 -0.00276 0.22992 0.0
H265 H 0.21536 0.8528 0.14948 0.0
H266 H 0.17386 0.78991 0.22115 0.0
H267 H 0.12895 0.7768 0.30819 0.0
H268 H 0.08809 0.92176 0.38308 0.0
H269 H 0.12958 -0.01628 0.31154 0.0
C270 C 0.17905 0.952 0.22802 0.0
C271 C 0.20194 0.92989 0.18483 0.0
C272 C 0.15364 0.91626 0.26825 0.0
C273 C 0.19866 0.87098 0.18245 0.0
C274 C 0.17484 0.83509 0.22343 0.0
C275 C 0.12907 0.82195 0.30867 0.0
C276 C 0.10574 0.8447 0.3513 0.0
C277 C 0.15242 0.85731 0.26673 0.0
C278 C 0.10536 0.90315 0.35078 0.0
C279 C 0.12947 0.93861 0.31005 0.0
H280 H 0.14869 0.2961 0.85201 0.0
H281 H 0.22119 0.22165 0.72615 0.0
H282 H 0.27603 0.17254 0.79603 0.0
H283 H 0.28858 0.13685 0.89181 0.0
H284 H 0.22218 0.21726 0.01809 0.0
H285 H 0.18086 0.27842 0.94954 0.0
C286 C 0.17814 0.27082 0.84015 0.0
C287 C 0.18024 0.26186 0.78421 0.0
C288 C 0.21004 0.24291 0.88059 0.0
C289 C 0.21882 0.22931 0.76911 0.0
C290 C 0.24981 0.2006 0.80903 0.0
C291 C 0.26664 0.16902 0.90434 0.0
C292 C 0.25766 0.17189 0.9596 0.0
C293 C 0.24355 0.20491 0.86474 0.0
C294 C 0.22965 0.21412 0.97564 0.0
C295 C 0.20553 0.24894 0.93643 0.0
H296 H 0.83741 0.06304 0.40368 0.0
H297 H 0.87429 0.21276 0.30325 0.0
H298 H 0.91048 0.26993 0.38517 0.0
H299 H 0.94634 0.27405 0.48375 0.0
H300 H 0.90871 0.12575 0.58603 0.0
H301 H 0.85812 0.07139 0.50585 0.0
C302 C 0.8513 0.1085 0.40019 0.0
C303 C 0.85349 0.13375 0.3476 0.0
C304 C 0.87303 0.14114 0.44784 0.0
C305 C 0.87239 0.19262 0.34341 0.0
C306 C 0.8935 0.2252 0.39018 0.0
C307 C 0.92543 0.23035 0.48862 0.0
C308 C 0.93098 0.20399 0.54054 0.0
C309 C 0.89632 0.1995 0.4424 0.0
C310 C 0.90417 0.14719 0.54648 0.0
C311 C 0.8757 0.11593 0.50051 0.0
loop_
_geom_bond_atom_site_label_1
_geom_bond_atom_site_label_2
_geom_bond_distance
_geom_bond_site_symmetry_2
_ccdc_geom_bond_type
Co0 N5 2.057 . S
Co0 O17 2.021 . S
Co0 O20 2.062 . S
Co0 O24 2.117 . S
Co0 O25 2.020 . S
C1 O21 1.259 . S
C1 O24 1.258 . S
Co2 N11 2.057 1_544 S
Co2 O18 2.117 . S
Co2 O19 2.020 1_545 S
Co2 O21 2.021 . S
Co2 O26 2.062 1_554 S
C3 N5 1.316 . S
C3 N6 1.347 . S
C3 H8 0.931 . S
C4 N5 1.375 . S
C4 C7 1.350 . S
C4 H9 0.930 . S
N5 Co0 2.057 . S
N5 C3 1.316 . S
N5 C4 1.375 . S
N6 C3 1.347 . S
N6 C7 1.373 . S
C7 C4 1.350 . S
C7 N6 1.373 . S
C7 H28 0.931 . S
H8 C3 0.931 . S
H9 C4 0.930 . S
C10 O17 1.259 . S
C10 O18 1.258 . S
N11 Co2 2.057 1_566 S
N11 C12 1.316 . S
N11 C13 1.375 . S
C12 N11 1.316 . S
C12 N14 1.347 . S
C12 H23 0.931 . S
C13 N11 1.375 . S
C13 C15 1.350 . S
C13 H22 0.930 . S
N14 C12 1.347 . S
N14 C15 1.373 . S
C15 C13 1.350 . S
C15 N14 1.373 . S
C15 H29 0.931 . S
C16 O19 1.256 . S
C16 O20 1.255 1_565 S
O17 Co0 2.021 . S
O17 C10 1.259 . S
O18 Co2 2.117 . S
O18 C10 1.258 . S
O19 Co2 2.020 1_565 S
O19 C16 1.256 . S
O20 Co0 2.062 . S
O20 C16 1.255 1_545 S
O21 C1 1.259 . S
O21 Co2 2.021 . S
H22 C13 0.930 . S
H23 C12 0.931 . S
O24 Co0 2.117 . S
O24 C1 1.258 . S
O25 Co0 2.020 . S
O25 C27 1.256 1_554 S
O26 Co2 2.062 1_556 S
O26 C27 1.255 . S
C27 O25 1.256 1_556 S
C27 O26 1.255 . S
H28 C7 0.931 . S
H29 C15 0.931 . S
Co30 N35 2.057 1_455 S
Co30 O47 2.021 . S
Co30 O50 2.062 . S
Co30 O54 2.117 . S
Co30 O55 2.020 1_455 S
C31 O51 1.259 . S
C31 O54 1.258 . S
Co32 N41 2.057 . S
Co32 O48 2.117 . S
Co32 O49 2.020 . S
Co32 O51 2.021 . S
Co32 O56 2.062 . S
C33 N35 1.316 . S
C33 N36 1.347 . S
C33 H38 0.931 . S
C34 N35 1.375 . S
C34 C37 1.350 . S
C34 H39 0.930 . S
N35 Co30 2.057 1_655 S
N35 C33 1.316 . S
N35 C34 1.375 . S
N36 C33 1.347 . S
N36 C37 1.373 . S
C37 C34 1.350 . S
C37 N36 1.373 . S
C37 H58 0.931 . S
H38 C33 0.931 . S
H39 C34 0.930 . S
C40 O47 1.259 . S
C40 O48 1.258 . S
N41 Co32 2.057 . S
N41 C42 1.316 . S
N41 C43 1.375 . S
C42 N41 1.316 . S
C42 N44 1.347 . S
C42 H53 0.931 . S
C43 N41 1.375 . S
C43 C45 1.350 . S
C43 H52 0.930 . S
N44 C42 1.347 . S
N44 C45 1.373 . S
C45 C43 1.350 . S
C45 N44 1.373 . S
C45 H59 0.931 . S
C46 O49 1.256 . S
C46 O50 1.255 . S
O47 Co30 2.021 . S
O47 C40 1.259 . S
O48 Co32 2.117 . S
O48 C40 1.258 . S
O49 Co32 2.020 . S
O49 C46 1.256 . S
O50 Co30 2.062 . S
O50 C46 1.255 . S
O51 C31 1.259 . S
O51 Co32 2.021 . S
H52 C43 0.930 . S
H53 C42 0.931 . S
O54 Co30 2.117 . S
O54 C31 1.258 . S
O55 Co30 2.020 1_655 S
O55 C57 1.256 . S
O56 Co32 2.062 . S
O56 C57 1.255 1_455 S
C57 O55 1.256 . S
C57 O56 1.255 1_655 S
H58 C37 0.931 . S
H59 C45 0.931 . S
Co60 N65 2.057 . S
Co60 O77 2.021 . S
Co60 O80 2.062 1_545 S
Co60 O84 2.117 . S
Co60 O85 2.020 . S
C61 O81 1.259 . S
C61 O84 1.258 1_565 S
Co62 N71 2.057 . S
Co62 O78 2.117 . S
Co62 O79 2.020 . S
Co62 O81 2.021 . S
Co62 O86 2.062 1_565 S
C63 N65 1.316 . S
C63 N66 1.347 . S
C63 H68 0.931 . S
C64 N65 1.375 . S
C64 C67 1.350 . S
C64 H69 0.930 . S
N65 Co60 2.057 . S
N65 C63 1.316 . S
N65 C64 1.375 . S
N66 C63 1.347 . S
N66 C67 1.373 . S
C67 C64 1.350 . S
C67 N66 1.373 . S
C67 H88 0.931 . S
H68 C63 0.931 . S
H69 C64 0.930 . S
C70 O77 1.259 . S
C70 O78 1.258 1_545 S
N71 Co62 2.057 . S
N71 C72 1.316 1_554 S
N71 C73 1.375 1_554 S
C72 N71 1.316 1_556 S
C72 N74 1.347 . S
C72 H83 0.931 . S
C73 N71 1.375 1_556 S
C73 C75 1.350 . S
C73 H82 0.930 1_556 S
N74 C72 1.347 . S
N74 C75 1.373 . S
C75 C73 1.350 . S
C75 N74 1.373 . S
C75 H89 0.931 . S
C76 O79 1.256 . S
C76 O80 1.255 . S
O77 Co60 2.021 . S
O77 C70 1.259 . S
O78 Co62 2.117 . S
O78 C70 1.258 1_565 S
O79 Co62 2.020 . S
O79 C76 1.256 . S
O80 Co60 2.062 1_565 S
O80 C76 1.255 . S
O81 C61 1.259 . S
O81 Co62 2.021 . S
H82 C73 0.930 1_554 S
H83 C72 0.931 . S
O84 Co60 2.117 . S
O84 C61 1.258 1_545 S
O85 Co60 2.020 . S
O85 C87 1.256 . S
O86 Co62 2.062 1_545 S
O86 C87 1.255 . S
C87 O85 1.256 . S
C87 O86 1.255 . S
H88 C67 0.931 . S
H89 C75 0.931 . S
Co90 N95 2.057 . S
Co90 O107 2.021 . S
Co90 O110 2.062 1_655 S
Co90 O114 2.117 . S
Co90 O115 2.020 . S
C91 O111 1.259 . S
C91 O114 1.258 1_455 S
Co92 N101 2.057 . S
Co92 O108 2.117 . S
Co92 O109 2.020 . S
Co92 O111 2.021 . S
Co92 O116 2.062 1_455 S
C93 N95 1.316 . S
C93 N96 1.347 . S
C93 H98 0.931 . S
C94 N95 1.375 . S
C94 C97 1.350 . S
C94 H99 0.930 . S
N95 Co90 2.057 . S
N95 C93 1.316 . S
N95 C94 1.375 . S
N96 C93 1.347 . S
N96 C97 1.373 . S
C97 C94 1.350 . S
C97 N96 1.373 . S
C97 H118 0.931 . S
H98 C93 0.931 . S
H99 C94 0.930 . S
C100 O107 1.259 . S
C100 O108 1.258 1_655 S
N101 Co92 2.057 . S
N101 C102 1.316 . S
N101 C103 1.375 . S
C102 N101 1.316 . S
C102 N104 1.347 . S
C102 H113 0.931 . S
C103 N101 1.375 . S
C103 C105 1.350 . S
C103 H112 0.930 . S
N104 C102 1.347 . S
N104 C105 1.373 . S
C105 C103 1.350 . S
C105 N104 1.373 . S
C105 H119 0.931 . S
C106 O109 1.256 . S
C106 O110 1.255 . S
O107 Co90 2.021 . S
O107 C100 1.259 . S
O108 Co92 2.117 . S
O108 C100 1.258 1_455 S
O109 Co92 2.020 . S
O109 C106 1.256 . S
O110 Co90 2.062 1_455 S
O110 C106 1.255 . S
O111 C91 1.259 . S
O111 Co92 2.021 . S
H112 C103 0.930 . S
H113 C102 0.931 . S
O114 Co90 2.117 . S
O114 C91 1.258 1_655 S
O115 Co90 2.020 . S
O115 C117 1.256 . S
O116 Co92 2.062 1_655 S
O116 C117 1.255 . S
C117 O115 1.256 . S
C117 O116 1.255 . S
H118 C97 0.931 . S
H119 C105 0.931 . S
H120 C126 0.930 . S
H121 C129 0.930 . S
H122 C130 0.930 . S
H123 C131 0.930 . S
H124 C134 0.930 1_556 S
H125 C135 0.930 1_556 S
C126 H120 0.930 . S
C126 C127 1.355 1_545 S
C126 C128 1.415 1_655 S
C127 C126 1.355 1_565 S
C127 C129 1.419 . S
C128 C126 1.415 1_455 S
C128 C133 1.425 . S
C128 C135 1.409 . S
C129 H121 0.930 . S
C129 C127 1.419 . S
C129 C130 1.362 1_655 S
C130 H122 0.930 . S
C130 C129 1.362 1_455 S
C130 C133 1.409 1_565 S
C131 H123 0.930 . S
C131 C132 1.355 . S
C131 C133 1.415 . S
C132 C131 1.355 . S
C132 C134 1.419 . S
C133 C128 1.425 . S
C133 C130 1.409 1_545 S
C133 C131 1.415 . S
C134 H124 0.930 1_554 S
C134 C132 1.419 . S
C134 C135 1.362 . S
C135 H125 0.930 1_554 S
C135 C128 1.409 . S
C135 C134 1.362 . S
H136 C142 0.930 1_655 S
H137 C145 0.930 . S
H138 C146 0.930 . S
H139 C147 0.930 . S
H140 C150 0.930 . S
H141 C151 0.930 . S
C142 H136 0.930 1_455 S
C142 C143 1.355 . S
C142 C144 1.415 1_565 S
C143 C142 1.355 . S
C143 C145 1.419 . S
C144 C142 1.415 1_545 S
C144 C149 1.425 . S
C144 C151 1.409 . S
C145 H137 0.930 . S
C145 C143 1.419 . S
C145 C146 1.362 . S
C146 H138 0.930 . S
C146 C145 1.362 . S
C146 C149 1.409 1_565 S
C147 H139 0.930 . S
C147 C148 1.355 . S
C147 C149 1.415 . S
C148 C147 1.355 . S
C148 C150 1.419 . S
C149 C144 1.425 . S
C149 C146 1.409 1_545 S
C149 C147 1.415 . S
C150 H140 0.930 . S
C150 C148 1.419 . S
C150 C151 1.362 . S
C151 H141 0.930 . S
C151 C144 1.409 . S
C151 C150 1.362 . S
H152 C158 0.930 . S
H153 C161 0.930 . S
H154 C162 0.930 . S
H155 C163 0.930 . S
H156 C166 0.930 . S
H157 C167 0.930 . S
C158 H152 0.930 . S
C158 C159 1.355 1_565 S
C158 C160 1.415 . S
C159 C158 1.355 1_545 S
C159 C161 1.419 . S
C160 C158 1.415 . S
C160 C165 1.425 1_565 S
C160 C167 1.409 . S
C161 H153 0.930 . S
C161 C159 1.419 . S
C161 C162 1.362 . S
C162 H154 0.930 . S
C162 C161 1.362 . S
C162 C165 1.409 . S
C163 H155 0.930 . S
C163 C164 1.355 . S
C163 C165 1.415 . S
C164 C163 1.355 . S
C164 C166 1.419 1_545 S
C165 C160 1.425 1_545 S
C165 C162 1.409 . S
C165 C163 1.415 . S
C166 H156 0.930 . S
C166 C164 1.419 1_565 S
C166 C167 1.362 . S
C167 H157 0.930 . S
C167 C160 1.409 . S
C167 C166 1.362 . S
H168 C174 0.930 . S
H169 C177 0.930 . S
H170 C178 0.930 . S
H171 C179 0.930 . S
H172 C182 0.930 1_655 S
H173 C183 0.930 . S
C174 H168 0.930 . S
C174 C175 1.355 . S
C174 C176 1.415 . S
C175 C174 1.355 . S
C175 C177 1.419 . S
C176 C174 1.415 . S
C176 C181 1.425 . S
C176 C183 1.409 . S
C177 H169 0.930 . S
C177 C175 1.419 . S
C177 C178 1.362 . S
C178 H170 0.930 . S
C178 C177 1.362 . S
C178 C181 1.409 . S
C179 H171 0.930 . S
C179 C180 1.355 1_455 S
C179 C181 1.415 . S
C180 C179 1.355 1_655 S
C180 C182 1.419 1_655 S
C181 C176 1.425 . S
C181 C178 1.409 . S
C181 C179 1.415 . S
C182 H172 0.930 1_455 S
C182 C180 1.419 1_455 S
C182 C183 1.362 . S
C183 H173 0.930 . S
C183 C176 1.409 . S
C183 C182 1.362 . S
H184 C190 0.930 . S
H185 C193 0.930 . S
H186 C194 0.930 . S
H187 C195 0.930 . S
H188 C198 0.930 . S
H189 C199 0.930 . S
C190 H184 0.930 . S
C190 C191 1.355 . S
C190 C192 1.415 . S
C191 C190 1.355 . S
C191 C193 1.419 . S
C192 C190 1.415 . S
C192 C197 1.425 . S
C192 C199 1.409 . S
C193 H185 0.930 . S
C193 C191 1.419 . S
C193 C194 1.362 . S
C194 H186 0.930 . S
C194 C193 1.362 . S
C194 C197 1.409 . S
C195 H187 0.930 . S
C195 C196 1.355 . S
C195 C197 1.415 . S
C196 C195 1.355 . S
C196 C198 1.419 . S
C197 C192 1.425 . S
C197 C194 1.409 . S
C197 C195 1.415 . S
C198 H188 0.930 . S
C198 C196 1.419 . S
C198 C199 1.362 . S
C199 H189 0.930 . S
C199 C192 1.409 . S
C199 C198 1.362 . S
H200 C206 0.930 . S
H201 C209 0.930 . S
H202 C210 0.930 . S
H203 C211 0.930 . S
H204 C214 0.930 . S
H205 C215 0.930 . S
C206 H200 0.930 . S
C206 C207 1.355 . S
C206 C208 1.415 . S
C207 C206 1.355 . S
C207 C209 1.419 . S
C208 C206 1.415 . S
C208 C213 1.425 . S
C208 C215 1.409 . S
C209 H201 0.930 . S
C209 C207 1.419 . S
C209 C210 1.362 . S
C210 H202 0.930 . S
C210 C209 1.362 . S
C210 C213 1.409 . S
C211 H203 0.930 . S
C211 C212 1.355 . S
C211 C213 1.415 . S
C212 C211 1.355 . S
C212 C214 1.419 . S
C213 C208 1.425 . S
C213 C210 1.409 . S
C213 C211 1.415 . S
C214 H204 0.930 . S
C214 C212 1.419 . S
C214 C215 1.362 . S
C215 H205 0.930 . S
C215 C208 1.409 . S
C215 C214 1.362 . S
H216 C222 0.930 . S
H217 C225 0.930 . S
H218 C226 0.930 . S
H219 C227 0.930 . S
H220 C230 0.930 . S
H221 C231 0.930 . S
C222 H216 0.930 . S
C222 C223 1.355 . S
C222 C224 1.415 . S
C223 C222 1.355 . S
C223 C225 1.419 . S
C224 C222 1.415 . S
C224 C229 1.425 . S
C224 C231 1.409 . S
C225 H217 0.930 . S
C225 C223 1.419 . S
C225 C226 1.362 . S
C226 H218 0.930 . S
C226 C225 1.362 . S
C226 C229 1.409 . S
C227 H219 0.930 . S
C227 C228 1.355 . S
C227 C229 1.415 . S
C228 C227 1.355 . S
C228 C230 1.419 . S
C229 C224 1.425 . S
C229 C226 1.409 . S
C229 C227 1.415 . S
C230 H220 0.930 . S
C230 C228 1.419 . S
C230 C231 1.362 . S
C231 H221 0.930 . S
C231 C224 1.409 . S
C231 C230 1.362 . S
H232 C238 0.930 . S
H233 C241 0.930 . S
H234 C242 0.930 . S
H235 C243 0.930 . S
H236 C246 0.930 . S
H237 C247 0.930 . S
C238 H232 0.930 . S
C238 C239 1.355 . S
C238 C240 1.415 . S
C239 C238 1.355 . S
C239 C241 1.419 . S
C240 C238 1.415 . S
C240 C245 1.425 . S
C240 C247 1.409 . S
C241 H233 0.930 . S
C241 C239 1.419 . S
C241 C242 1.362 . S
C242 H234 0.930 . S
C242 C241 1.362 . S
C242 C245 1.409 . S
C243 H235 0.930 . S
C243 C244 1.355 . S
C243 C245 1.415 . S
C244 C243 1.355 . S
C244 C246 1.419 . S
C245 C240 1.425 . S
C245 C242 1.409 . S
C245 C243 1.415 . S
C246 H236 0.930 . S
C246 C244 1.419 . S
C246 C247 1.362 . S
C247 H237 0.930 . S
C247 C240 1.409 . S
C247 C246 1.362 . S
H248 C254 0.930 . S
H249 C257 0.930 . S
H250 C258 0.930 . S
H251 C259 0.930 . S
H252 C262 0.930 . S
H253 C263 0.930 . S
C254 H248 0.930 . S
C254 C255 1.355 . S
C254 C256 1.415 . S
C255 C254 1.355 . S
C255 C257 1.419 . S
C256 C254 1.415 . S
C256 C261 1.425 . S
C256 C263 1.409 . S
C257 H249 0.930 . S
C257 C255 1.419 . S
C257 C258 1.362 . S
C258 H250 0.930 . S
C258 C257 1.362 . S
C258 C261 1.409 . S
C259 H251 0.930 . S
C259 C260 1.355 . S
C259 C261 1.415 . S
C260 C259 1.355 . S
C260 C262 1.419 . S
C261 C256 1.425 . S
C261 C258 1.409 . S
C261 C259 1.415 . S
C262 H252 0.930 . S
C262 C260 1.419 . S
C262 C263 1.362 . S
C263 H253 0.930 . S
C263 C256 1.409 . S
C263 C262 1.362 . S
H264 C270 0.930 . S
H265 C273 0.930 . S
H266 C274 0.930 . S
H267 C275 0.930 . S
H268 C278 0.930 . S
H269 C279 0.930 . S
C270 H264 0.930 . S
C270 C271 1.355 . S
C270 C272 1.415 . S
C271 C270 1.355 . S
C271 C273 1.419 . S
C272 C270 1.415 . S
C272 C277 1.425 . S
C272 C279 1.409 . S
C273 H265 0.930 . S
C273 C271 1.419 . S
C273 C274 1.362 . S
C274 H266 0.930 . S
C274 C273 1.362 . S
C274 C277 1.409 . S
C275 H267 0.930 . S
C275 C276 1.355 . S
C275 C277 1.415 . S
C276 C275 1.355 . S
C276 C278 1.419 . S
C277 C272 1.425 . S
C277 C274 1.409 . S
C277 C275 1.415 . S
C278 H268 0.930 . S
C278 C276 1.419 . S
C278 C279 1.362 . S
C279 H269 0.930 . S
C279 C272 1.409 . S
C279 C278 1.362 . S
H280 C286 0.930 . S
H281 C289 0.930 . S
H282 C290 0.930 . S
H283 C291 0.930 . S
H284 C294 0.930 . S
H285 C295 0.930 . S
C286 H280 0.930 . S
C286 C287 1.355 . S
C286 C288 1.415 . S
C287 C286 1.355 . S
C287 C289 1.419 . S
C288 C286 1.415 . S
C288 C293 1.425 . S
C288 C295 1.409 . S
C289 H281 0.930 . S
C289 C287 1.419 . S
C289 C290 1.362 . S
C290 H282 0.930 . S
C290 C289 1.362 . S
C290 C293 1.409 . S
C291 H283 0.930 . S
C291 C292 1.355 . S
C291 C293 1.415 . S
C292 C291 1.355 . S
C292 C294 1.419 . S
C293 C288 1.425 . S
C293 C290 1.409 . S
C293 C291 1.415 . S
C294 H284 0.930 . S
C294 C292 1.419 . S
C294 C295 1.362 . S
C295 H285 0.930 . S
C295 C288 1.409 . S
C295 C294 1.362 . S
H296 C302 0.930 . S
H297 C305 0.930 . S
H298 C306 0.930 . S
H299 C307 0.948 . S
H300 C310 0.930 . S
H301 C311 0.930 . S
C302 H296 0.930 . S
C302 C303 1.355 . S
C302 C304 1.415 . S
C303 C302 1.355 . S
C303 C305 1.419 . S
C304 C302 1.415 . S
C304 C309 1.425 . S
C304 C311 1.409 . S
C305 H297 0.930 . S
C305 C303 1.419 . S
C305 C306 1.362 . S
C306 H298 0.930 . S
C306 C305 1.362 . S
C306 C309 1.409 . S
C307 H299 0.948 . S
C307 C308 1.355 . S
C307 C309 1.415 . S
C308 C307 1.355 . S
C308 C310 1.419 . S
C309 C304 1.425 . S
C309 C306 1.409 . S
C309 C307 1.415 . S
C310 H300 0.930 . S
C310 C308 1.419 . S
C310 C311 1.362 . S
C311 H301 0.930 . S
C311 C304 1.409 . S
C311 C310 1.362 . S
C127 C61 0.792 . S
C132 C10 0.792 . S
C143 C91 0.780 . S
C148 C40 0.780 . S
C159 C70 0.737 . S
C164 C1 0.737 . S
C175 C31 0.903 . S
C180 C100 0.903 . S
C191 N44 1.210 . S
C196 N6 1.247 . S
C207 N36 1.514 . S
C212 C87 1.507 1_556 S
C223 C117 1.564 . S
C228 C76 1.609 . S
C239 C106 1.380 . S
C244 N14 1.279 . S
C255 N74 1.258 . S
C260 N96 1.115 . S
C271 C16 1.510 . S
C276 N104 1.514 . S
C287 C46 1.621 . S
C292 C27 1.570 . S
C303 N66 1.222 . S
C308 C57 1.374 . S
