# Generated by pormake.
# Topology smc, (6)-cn, num edge types: 1
# Building blocks:
#     Node 0, Type 0, BuildingBlock: VOLQOD_clean_sbu_1, # of connection points: 6
#     Node 1, Type 0, BuildingBlock: VOLQOD_clean_sbu_1, # of connection points: 6
#     Node 2, Type 0, BuildingBlock: VOLQOD_clean_sbu_1, # of connection points: 6
#     Node 3, Type 0, BuildingBlock: VOLQOD_clean_sbu_1, # of connection points: 6
#     Node 4, Type 0, BuildingBlock: VOLQOD_clean_sbu_1, # of connection points: 6
#     Node 5, Type 0, BuildingBlock: VOLQOD_clean_sbu_1, # of connection points: 6
#     Node 6, Type 0, BuildingBlock: VOLQOD_clean_sbu_1, # of connection points: 6
#     Node 7, Type 0, BuildingBlock: VOLQOD_clean_sbu_1, # of connection points: 6
#     Node 8, Type 0, BuildingBlock: VOLQOD_clean_sbu_1, # of connection points: 6
#     Edge 9, Type (0, 0), BuildingBlock: XIVTED_clean_linker_0, # of connection points: 2
#     Edge 10, Type (0, 0), BuildingBlock: XIVTED_clean_linker_0, # of connection points: 2
#     Edge 11, Type (0, 0), BuildingBlock: XIVTED_clean_linker_0, # of connection points: 2
#     Edge 12, Type (0, 0), BuildingBlock: XIVTED_clean_linker_0, # of connection points: 2
#     Edge 13, Type (0, 0), BuildingBlock: XIVTED_clean_linker_0, # of connection points: 2
#     Edge 14, Type (0, 0), BuildingBlock: XIVTED_clean_linker_0, # of connection points: 2
#     Edge 15, Type (0, 0), BuildingBlock: XIVTED_clean_linker_0, # of connection points: 2
#     Edge 16, Type (0, 0), BuildingBlock: XIVTED_clean_linker_0, # of connection points: 2
#     Edge 17, Type (0, 0), BuildingBlock: XIVTED_clean_linker_0, # of connection points: 2
#     Edge 18, Type (0, 0), BuildingBlock: XIVTED_clean_linker_0, # of connection points: 2
#     Edge 19, Type (0, 0), BuildingBlock: XIVTED_clean_linker_0, # of connection points: 2
#     Edge 20, Type (0, 0), BuildingBlock: XIVTED_clean_linker_0, # of connection points: 2
#     Edge 21, Type (0, 0), BuildingBlock: XIVTED_clean_linker_0, # of connection points: 2
#     Edge 22, Type (0, 0), BuildingBlock: XIVTED_clean_linker_0, # of connection points: 2
#     Edge 23, Type (0, 0), BuildingBlock: XIVTED_clean_linker_0, # of connection points: 2
#     Edge 24, Type (0, 0), BuildingBlock: XIVTED_clean_linker_0, # of connection points: 2
#     Edge 25, Type (0, 0), BuildingBlock: XIVTED_clean_linker_0, # of connection points: 2
#     Edge 26, Type (0, 0), BuildingBlock: XIVTED_clean_linker_0, # of connection points: 2
#     Edge 27, Type (0, 0), BuildingBlock: XIVTED_clean_linker_0, # of connection points: 2
#     Edge 28, Type (0, 0), BuildingBlock: XIVTED_clean_linker_0, # of connection points: 2
#     Edge 29, Type (0, 0), BuildingBlock: XIVTED_clean_linker_0, # of connection points: 2
#     Edge 30, Type (0, 0), BuildingBlock: XIVTED_clean_linker_0, # of connection points: 2
#     Edge 31, Type (0, 0), BuildingBlock: XIVTED_clean_linker_0, # of connection points: 2
#     Edge 32, Type (0, 0), BuildingBlock: XIVTED_clean_linker_0, # of connection points: 2
#     Edge 33, Type (0, 0), BuildingBlock: XIVTED_clean_linker_0, # of connection points: 2
#     Edge 34, Type (0, 0), BuildingBlock: XIVTED_clean_linker_0, # of connection points: 2
#     Edge 35, Type (0, 0), BuildingBlock: XIVTED_clean_linker_0, # of connection points: 2
# Relax obj value: 0.338
# Max RMSD: 0.273
# Mean RMSD: 0.261
data_MOF--net-smc--node1-VOLQOD_clean_sbu_1--edge1-XIVTED_clean_linker_0
_symmetry_space_group_name_H-M    P1
_symmetry_Int_Tables_number       1
_symmetry_cell_setting            triclinic
loop_
_symmetry_equiv_pos_as_xyz
'x, y, z'
_cell_length_a     30.916052
_cell_length_b     31.291157
_cell_length_c     48.657417
_cell_angle_alpha  89.762467
_cell_angle_beta   90.403131
_cell_angle_gamma 121.02933
loop_
_atom_site_label
_atom_site_type_symbol
_atom_site_fract_x
_atom_site_fract_y
_atom_site_fract_z
_atom_type_partial_charge
O0 O 0.93371 0.48373 0.02397 0.0
Zn1 Zn 0.98026 0.46096 0.01454 0.0
O2 O -0.01131 0.42965 0.04643 0.0
Zn3 Zn -0.01498 0.36901 0.0343 0.0
Zn4 Zn 0.93923 0.4168 0.07422 0.0
Zn5 Zn 0.05298 0.4766 0.06184 0.0
O6 O 0.0543 0.3776 0.03452 0.0
O7 O 0.10009 0.4549 0.05104 0.0
O8 O 0.95333 0.41637 0.98158 0.0
O9 O 0.95945 0.35206 0.99515 0.0
O10 O 0.93322 0.31113 0.05645 0.0
O11 O 0.88983 0.34334 0.07426 0.0
O12 O 0.97062 0.4336 0.11211 0.0
O13 O 0.04361 0.5239 0.00474 0.0
O14 O 0.05243 0.47702 0.10302 0.0
O15 O 0.0782 0.54537 0.04632 0.0
C16 C 0.90816 0.48169 0.04478 0.0
C17 C 0.09658 0.41557 0.04125 0.0
C18 C 0.8944 0.30605 0.06861 0.0
C19 C 0.94791 0.37392 0.97695 0.0
C20 C 0.01642 0.45757 0.12018 0.0
C21 C 0.0744 0.55665 0.02157 0.0
O22 O 0.90581 0.45701 0.06625 0.0
O23 O 0.50332 0.47635 0.96903 0.0
Zn24 Zn 0.52103 0.54404 0.95548 0.0
O25 O 0.5678 0.59533 0.9808 0.0
Zn26 Zn 0.63304 0.63735 0.96322 0.0
Zn27 Zn 0.57272 0.56449 0.01402 0.0
Zn28 Zn 0.5409 0.63535 0.99189 0.0
O29 O 0.64783 0.70851 0.95824 0.0
O30 O 0.57362 0.6978 0.9708 0.0
O31 O 0.55004 0.55439 0.91743 0.0
O32 O 0.63073 0.61186 0.92481 0.0
O33 O 0.68806 0.63504 0.98503 0.0
O34 O 0.64301 0.58065 0.01786 0.0
O35 O 0.56026 0.59159 0.04837 0.0
O36 O 0.454 0.53938 0.95515 0.0
O37 O 0.55214 0.65325 0.0322 0.0
O38 O 0.4671 0.5982 0.9851 0.0
C39 C 0.50533 0.46042 0.99284 0.0
C40 C 0.61699 0.72393 0.9601 0.0
C41 C 0.68492 0.60939 0.00621 0.0
C42 C 0.59528 0.58112 0.90897 0.0
C43 C 0.55649 0.62967 0.05235 0.0
C44 C 0.43768 0.56163 0.96977 0.0
O45 O 0.52838 0.4902 0.01267 0.0
O46 O 0.47281 0.93395 0.00276 0.0
Zn47 Zn 0.45152 0.97907 0.01902 0.0
O48 O 0.42601 0.00291 0.99053 0.0
Zn49 Zn 0.36703 0.00158 0.00357 0.0
Zn50 Zn 0.41018 0.96201 0.95897 0.0
Zn51 Zn 0.47732 0.06847 0.9799 0.0
O52 O 0.37406 0.06924 0.99901 0.0
O53 O 0.45802 0.11504 0.99549 0.0
O54 O 0.40504 0.95102 0.0518 0.0
O55 O 0.3597 0.98654 0.04408 0.0
O56 O 0.3048 0.94316 0.98675 0.0
O57 O 0.33792 0.90833 0.96117 0.0
O58 O 0.42121 0.00224 0.92508 0.0
O59 O 0.51664 0.0354 0.03303 0.0
O60 O 0.47988 0.07836 0.93839 0.0
O61 O 0.54416 0.08481 0.99627 0.0
C62 C 0.47636 0.92367 0.97784 0.0
C63 C 0.41548 0.11115 0.99962 0.0
C64 C 0.3 0.90715 0.97213 0.0
C65 C 0.37358 0.9631 0.05982 0.0
C66 C 0.45192 0.04802 0.91969 0.0
C67 C 0.55193 0.07121 0.01961 0.0
O68 O 0.45537 0.93369 0.95829 0.0
O69 O 0.62706 0.85704 0.30097 0.0
Zn70 Zn 0.67671 0.83828 0.28823 0.0
O71 O 0.68487 0.79785 0.31557 0.0
Zn72 Zn 0.66154 0.73143 0.30209 0.0
Zn73 Zn 0.65259 0.79892 0.34901 0.0
Zn74 Zn 0.75429 0.82635 0.32424 0.0
O75 O 0.71864 0.71677 0.30134 0.0
O76 O 0.78367 0.79485 0.30192 0.0
O77 O 0.65412 0.80249 0.25181 0.0
O78 O 0.63757 0.7264 0.26283 0.0
O79 O 0.60341 0.68184 0.3254 0.0
O80 O 0.59392 0.73054 0.355 0.0
O81 O 0.69686 0.81277 0.38244 0.0
O82 O 0.74 0.90553 0.2854 0.0
O83 O 0.76397 0.81565 0.36437 0.0
O84 O 0.78873 0.89893 0.31682 0.0
C85 C 0.61614 0.86373 0.32516 0.0
C86 C 0.76531 0.74858 0.29762 0.0
C87 C 0.58007 0.68764 0.34521 0.0
C88 C 0.63818 0.75723 0.24535 0.0
C89 C 0.73849 0.81404 0.38524 0.0
C90 C 0.77956 0.9251 0.30038 0.0
O91 O 0.62745 0.8469 0.34619 0.0
O92 O 0.20399 0.80073 0.32419 0.0
Zn93 Zn 0.20977 0.86077 0.30576 0.0
O94 O 0.24044 0.91681 0.33089 0.0
Zn95 Zn 0.29042 0.97609 0.31155 0.0
Zn96 Zn 0.2708 0.90311 0.36126 0.0
Zn97 Zn 0.18777 0.92395 0.34638 0.0
O98 O 0.27262 0.03058 0.31401 0.0
O99 O 0.19393 0.98422 0.32966 0.0
O100 O 0.24563 0.87688 0.26921 0.0
O101 O 0.28893 0.95973 0.27139 0.0
O102 O 0.36151 -0.00487 0.32421 0.0
O103 O 0.34414 0.93597 0.3553 0.0
O104 O 0.25957 0.92695 0.39683 0.0
O105 O 0.13716 0.83893 0.29852 0.0
O106 O 0.19453 0.93602 0.38762 0.0
O107 O 0.11934 0.86558 0.33664 0.0
C108 C 0.21442 0.79376 0.34856 0.0
C109 C 0.22925 0.02441 0.31922 0.0
C110 C 0.37562 0.97292 0.3409 0.0
C111 C 0.27305 0.91939 0.25796 0.0
C112 C 0.22667 0.93707 0.40453 0.0
C113 C 0.10532 0.83856 0.31511 0.0
O114 O 0.23956 0.82986 0.36503 0.0
O115 O 0.20456 0.41621 0.36248 0.0
Zn116 Zn 0.13414 0.36642 0.3523 0.0
O117 O 0.09014 0.35398 0.38337 0.0
Zn118 Zn 0.03475 0.36292 0.37161 0.0
Zn119 Zn 0.12795 0.39906 0.41313 0.0
Zn120 Zn 0.06441 0.28727 0.3968 0.0
O121 O 0.96785 0.29817 0.37124 0.0
O122 O -0.00778 0.24698 0.38688 0.0
O123 O 0.11417 0.39004 0.31855 0.0
O124 O 0.04438 0.38662 0.33252 0.0
O125 O 0.03459 0.41733 0.39323 0.0
O126 O 0.10814 0.45006 0.41533 0.0
O127 O 0.11219 0.36404 0.4495 0.0
O128 O 0.13765 0.30627 0.34311 0.0
O129 O 0.0687 0.28414 0.43792 0.0
O130 O 0.09834 0.25516 0.37818 0.0
C131 C 0.2271 0.4381 0.38457 0.0
C132 C 0.95832 0.25464 0.3775 0.0
C133 C 0.06948 0.45172 0.40784 0.0
C134 C 0.07691 0.39586 0.31401 0.0
C135 C 0.08834 0.31814 0.45612 0.0
C136 C 0.12424 0.26617 0.35624 0.0
O137 O 0.20292 0.43419 0.40644 0.0
O138 O 0.25077 0.14641 0.66074 0.0
Zn139 Zn 0.29874 0.13048 0.6417 0.0
O140 O 0.3269 0.10287 0.66735 0.0
Zn141 Zn 0.31649 0.04026 0.65371 0.0
Zn142 Zn 0.29297 0.09097 0.70179 0.0
Zn143 Zn 0.39837 0.14837 0.67352 0.0
O144 O 0.38055 0.03865 0.6529 0.0
O145 O 0.43642 0.11989 0.65668 0.0
O146 O 0.26889 0.08716 0.60762 0.0
O147 O 0.28994 0.0301 0.61526 0.0
O148 O 0.26387 0.98266 0.67522 0.0
O149 O 0.2417 0.01898 0.70653 0.0
O150 O 0.34109 0.1117 0.73273 0.0
O151 O 0.35361 0.19737 0.62922 0.0
O152 O 0.41726 0.15687 0.71451 0.0
O153 O 0.42073 0.21358 0.65454 0.0
C154 C 0.24252 0.14767 0.68628 0.0
C155 C 0.42547 0.0756 0.65152 0.0
C156 C 0.23592 0.97995 0.69502 0.0
C157 C 0.27103 0.04938 0.59986 0.0
C158 C 0.38874 0.13811 0.7354 0.0
C159 C 0.39914 0.22641 0.63669 0.0
O160 O 0.25859 0.12948 0.70423 0.0
O161 O 0.83938 0.12437 0.69147 0.0
Zn162 Zn 0.86585 0.19464 0.68153 0.0
O163 O 0.89599 0.23491 0.71336 0.0
Zn164 Zn 0.95752 0.29446 0.70272 0.0
Zn165 Zn 0.90614 0.19847 0.74169 0.0
Zn166 Zn 0.84763 0.24973 0.72646 0.0
O167 O 0.94683 0.35347 0.70038 0.0
O168 O 0.86432 0.31402 0.70914 0.0
O169 O 0.91333 0.21389 0.64987 0.0
O170 O 0.97664 0.28656 0.66444 0.0
O171 O 0.01549 0.30119 0.72558 0.0
O172 O 0.9798 0.22325 0.7417 0.0
O173 O 0.89001 0.2153 0.7785 0.0
O174 O 0.80402 0.19474 0.67034 0.0
O175 O 0.85085 0.25602 0.76793 0.0
O176 O 0.77893 0.19727 0.71259 0.0
C177 C 0.83886 0.10086 0.71293 0.0
C178 C 0.9048 0.35212 0.70067 0.0
C179 C 0.01873 0.26579 0.73665 0.0
C180 C 0.95642 0.25275 0.64616 0.0
C181 C 0.86902 0.23939 0.78573 0.0
C182 C 0.76903 0.18479 0.68737 0.0
O183 O 0.86316 0.12366 0.73462 0.0
O184 O 0.81352 0.61557 0.66324 0.0
Zn185 Zn 0.7878 0.65876 0.67522 0.0
O186 O 0.7541 0.66915 0.64493 0.0
Zn187 Zn 0.68745 0.65333 0.6569 0.0
Zn188 Zn 0.75268 0.63259 0.61268 0.0
Zn189 Zn 0.79462 0.73786 0.63573 0.0
O190 O 0.68561 0.71671 0.66206 0.0
O191 O 0.76708 0.7735 0.65582 0.0
O192 O 0.74382 0.62875 0.7079 0.0
O193 O 0.67185 0.62237 0.69505 0.0
O194 O 0.63459 0.60218 0.6312 0.0
O195 O 0.68068 0.58043 0.60643 0.0
O196 O 0.77434 0.67591 0.57829 0.0
O197 O 0.84918 0.72127 0.68718 0.0
O198 O 0.79305 0.7493 0.59516 0.0
O199 O 0.86591 0.76425 0.64836 0.0
C200 C 0.81499 0.59583 0.64077 0.0
C201 C 0.72298 0.76133 0.6636 0.0
C202 C 0.6381 0.57399 0.61355 0.0
C203 C 0.69851 0.61625 0.71292 0.0
C204 C 0.78634 0.72114 0.57475 0.0
C205 C 0.87974 0.75647 0.67163 0.0
O206 O 0.79372 0.59907 0.61892 0.0
H207 H 0.36113 0.47143 0.95011 0.0
H208 H 0.1849 0.46331 0.06903 0.0
H209 H 0.38966 0.59739 1.00009 0.0
H210 H 0.11591 0.37804 0.99538 0.0
H211 H 0.26776 0.49523 0.04866 0.0
H212 H 0.27507 0.42439 0.9686 0.0
C213 C 0.34907 0.48961 0.96442 0.0
C214 C 0.38294 0.53817 0.97397 0.0
C215 C 0.23449 0.4688 0.03715 0.0
C216 C 0.28623 0.48417 0.99564 0.0
C217 C 0.1874 0.45011 0.04888 0.0
C218 C 0.14386 0.41884 0.03359 0.0
C219 C 0.23788 0.45618 0.00999 0.0
C220 C 0.14889 0.40236 0.00768 0.0
C221 C 0.3003 0.46254 0.97511 0.0
C222 C 0.36526 0.55986 0.99247 0.0
N223 N 0.19542 0.42212 0.9963 0.0
N224 N 0.31842 0.53235 0.00307 0.0
H225 H 0.54696 0.92246 0.01126 0.0
H226 H 0.58945 0.75059 0.91342 0.0
H227 H 0.4847 0.88459 0.92915 0.0
H228 H 0.66934 0.80829 0.98983 0.0
H229 H 0.5682 0.81563 0.91308 0.0
H230 H 0.60422 0.8936 1.00003 0.0
C231 C 0.54509 0.90776 0.99088 0.0
C232 C 0.51008 0.90479 0.97132 0.0
C233 C 0.5921 0.81549 0.92942 0.0
C234 C 0.57626 0.87222 0.95816 0.0
C235 C 0.60505 0.77892 0.92929 0.0
C236 C 0.63079 0.77418 0.95178 0.0
C237 C 0.60418 0.84645 0.95253 0.0
C238 C 0.64939 0.81096 0.97214 0.0
C239 C 0.57838 0.89194 0.98434 0.0
C240 C 0.51046 0.88673 0.94502 0.0
N241 N 0.63434 0.84474 0.97253 0.0
N242 N 0.54255 0.87044 0.93933 0.0
H243 H 0.26619 0.8293 0.93618 0.0
H244 H 0.11603 0.64 0.05372 0.0
H245 H 0.22677 0.8742 0.01116 0.0
H246 H 0.09579 0.59245 0.96902 0.0
H247 H 0.15904 0.7267 0.03827 0.0
H248 H 0.20261 0.74256 0.94632 0.0
C249 C 0.24311 0.82104 0.95435 0.0
C250 C 0.25223 0.85883 0.97307 0.0
C251 C 0.14483 0.69723 0.02308 0.0
C252 C 0.18094 0.75997 0.98516 0.0
C253 C 0.12094 0.64784 0.03189 0.0
C254 C 0.10281 0.6091 0.01262 0.0
C255 C 0.15141 0.70792 0.99484 0.0
C256 C 0.10946 0.6213 0.98455 0.0
C257 C 0.20705 0.77156 0.96018 0.0
C258 C 0.22117 0.8462 0.99623 0.0
N259 N 0.13377 0.66976 0.97648 0.0
N260 N 0.18773 0.79759 1.00201 0.0
H261 H 0.47755 0.18501 0.03407 0.0
H262 H 0.43891 0.38452 0.95912 0.0
H263 H 0.35506 0.142 0.97667 0.0
H264 H 0.51633 0.41295 0.03721 0.0
H265 H 0.40483 0.29526 0.9657 0.0
H266 H 0.48915 0.26805 0.03693 0.0
C267 C 0.45253 0.19304 0.02245 0.0
C268 C 0.41558 0.15718 0.00499 0.0
C269 C 0.42866 0.32104 0.98155 0.0
C270 C 0.42935 0.25215 0.00753 0.0
C271 C 0.44848 0.37199 0.97772 0.0
C272 C 0.48123 0.40628 0.99743 0.0
C273 C 0.44236 0.30448 0.00503 0.0
C274 C 0.4917 0.38792 0.02133 0.0
C275 C 0.45905 0.24031 0.02409 0.0
C276 C 0.38391 0.16895 0.99037 0.0
N277 N 0.47291 0.3383 0.02426 0.0
N278 N 0.39222 0.21604 0.9915 0.0
H279 H 0.57952 0.08664 0.07363 0.0
H280 H 0.87177 0.22393 0.03834 0.0
H281 H 0.64012 0.11 0.99165 0.0
H282 H 0.81372 0.2748 0.10278 0.0
H283 H 0.78679 0.15279 0.03065 0.0
H284 H 0.66596 0.12972 0.09224 0.0
C285 C 0.61105 0.10047 0.05962 0.0
C286 C 0.60314 0.09586 0.03109 0.0
C287 C 0.79315 0.17879 0.04703 0.0
C288 C 0.70082 0.14283 0.05215 0.0
C289 C 0.84159 0.21916 0.05161 0.0
C290 C 0.84933 0.25594 0.07072 0.0
C291 C 0.75277 0.17511 0.06195 0.0
C292 C 0.80892 0.24774 0.08741 0.0
C293 C 0.66 0.12461 0.07024 0.0
C294 C 0.6449 0.11387 0.01375 0.0
N295 N 0.76191 0.20849 0.08229 0.0
N296 N 0.69213 0.1367 0.02457 0.0
H297 H 0.83998 0.4811 0.08119 0.0
H298 H 0.77501 0.64105 0.98017 0.0
H299 H 0.91987 0.5496 0.00602 0.0
H300 H 0.69564 0.57532 0.0558 0.0
H301 H 0.83913 0.62167 0.99404 0.0
H302 H 0.79581 0.52705 0.07648 0.0
C303 C 0.8484 0.50591 0.06383 0.0
C304 C 0.88273 0.5106 0.04367 0.0
C305 C 0.80805 0.61218 0.00779 0.0
C306 C 0.83294 0.56339 0.03824 0.0
C307 C 0.77163 0.6235 0.99992 0.0
C308 C 0.72934 0.60853 0.0165 0.0
C309 C 0.80174 0.58553 0.03229 0.0
C310 C 0.72703 0.5863 0.04203 0.0
C311 C 0.82341 0.53229 0.06119 0.0
C312 C 0.89283 0.54386 0.02177 0.0
N313 N 0.76224 0.57466 0.04893 0.0
N314 N 0.8677 0.56855 0.01952 0.0
H315 H 0.78557 0.69086 0.33041 0.0
H316 H 0.05922 0.80861 0.26485 0.0
H317 H 0.82968 0.77475 0.25489 0.0
H318 H 0.02817 0.79592 0.35178 0.0
H319 H 0.96802 0.7637 0.25551 0.0
H320 H 0.86681 0.69453 0.33153 0.0
C321 C 0.81133 0.70775 0.31335 0.0
C322 C 0.80149 0.7327 0.29257 0.0
C323 C 0.98138 0.76992 0.2766 0.0
C324 C 0.89388 0.73775 0.29393 0.0
C325 C 0.0332 0.79558 0.28194 0.0
C326 C 0.05101 0.80685 0.30911 0.0
C327 C 0.94748 0.75468 0.2986 0.0
C328 C 0.01586 0.78891 0.33053 0.0
C329 C 0.85777 0.71035 0.31416 0.0
C330 C 0.83629 0.75513 0.27122 0.0
N331 N 0.96568 0.76397 0.32482 0.0
N332 N 0.88148 0.75783 0.27263 0.0
H333 H 0.07403 0.16537 0.36136 0.0
H334 H 0.29491 0.12638 0.32111 0.0
H335 H 0.20997 0.28988 0.32807 0.0
H336 H 0.13845 0.01336 0.30826 0.0
H337 H 0.26969 0.18912 0.32508 0.0
H338 H 0.10145 0.10926 0.34541 0.0
C339 C 0.10962 0.18079 0.35065 0.0
C340 C 0.13983 0.23209 0.34599 0.0
C341 C 0.24127 0.15067 0.32079 0.0
C342 C 0.17163 0.16849 0.32795 0.0
C343 C 0.25561 0.11506 0.31842 0.0
C344 C 0.21852 0.06464 0.315 0.0
C345 C 0.18973 0.13509 0.31998 0.0
C346 C 0.1681 0.05173 0.3116 0.0
C347 C 0.12509 0.14884 0.34137 0.0
C348 C 0.18557 0.25033 0.33188 0.0
N349 N 0.15507 0.08654 0.31472 0.0
N350 N 0.20058 0.21853 0.32364 0.0
H351 H 0.90687 0.24281 0.32954 0.0
H352 H 0.86864 0.98013 0.32764 0.0
H353 H 0.90667 0.16556 0.4032 0.0
H354 H 0.75528 -0.00606 0.28275 0.0
H355 H 0.90022 0.06277 0.34683 0.0
H356 H 0.85835 0.16205 0.30589 0.0
C357 C 0.8944 0.20879 0.34111 0.0
C358 C 0.91147 0.21052 0.36815 0.0
C359 C 0.86875 0.04776 0.33251 0.0
C360 C 0.85865 0.11977 0.34118 0.0
C361 C 0.85115 0.00097 0.32125 0.0
C362 C 0.80853 0.97962 0.30408 0.0
C363 C 0.84412 0.07368 0.32626 0.0
C364 C 0.78794 0.00887 0.29618 0.0
C365 C 0.86748 0.163 0.32749 0.0
C366 C 0.89484 0.16562 0.38219 0.0
N367 N 0.80563 0.05458 0.30765 0.0
N368 N 0.87066 0.12202 0.36828 0.0
H369 H 0.13787 0.70908 0.32506 0.0
H370 H 0.1305 0.53026 0.44139 0.0
H371 H 0.23208 0.76264 0.39775 0.0
H372 H 0.01693 0.48421 0.37779 0.0
H373 H 0.16021 0.61704 0.43028 0.0
H374 H 0.08935 0.62714 0.34622 0.0
C375 C 0.14881 0.70347 0.34534 0.0
C376 C 0.18949 0.74264 0.35953 0.0
C377 C 0.12798 0.58798 0.41921 0.0
C378 C 0.13329 0.64914 0.38415 0.0
C379 C 0.11069 0.53839 0.42571 0.0
C380 C 0.07245 0.50006 0.40978 0.0
C381 C 0.10708 0.5989 0.3965 0.0
C382 C 0.04739 0.51262 0.39016 0.0
C383 C 0.12051 0.65686 0.35761 0.0
C384 C 0.20127 0.73337 0.38597 0.0
N385 N 0.06617 0.56113 0.38347 0.0
N386 N 0.17344 0.68743 0.39738 0.0
H387 H 0.2904 0.51149 0.42071 0.0
H388 H 0.53011 0.59161 0.32597 0.0
H389 H 0.28991 0.43262 0.34795 0.0
H390 H 0.52525 0.68473 0.38974 0.0
H391 H 0.44788 0.52367 0.3409 0.0
H392 H 0.38207 0.56622 0.41635 0.0
C393 C 0.30964 0.50537 0.40404 0.0
C394 C 0.28255 0.4683 0.38432 0.0
C395 C 0.46512 0.55884 0.3518 0.0
C396 C 0.38672 0.53013 0.37931 0.0
C397 C 0.51208 0.59761 0.34331 0.0
C398 C 0.53402 0.64423 0.35622 0.0
C399 C 0.44 0.56689 0.37328 0.0
C400 C 0.50923 0.64968 0.37881 0.0
C401 C 0.36182 0.53653 0.40155 0.0
C402 C 0.30923 0.46154 0.36326 0.0
N403 N 0.46318 0.61164 0.38642 0.0
N404 N 0.35978 0.49247 0.36118 0.0
H405 H 0.43943 -0.00036 0.29707 0.0
H406 H 0.58838 0.88798 0.37333 0.0
H407 H 0.42859 0.96619 0.38369 0.0
H408 H 0.58778 0.90696 0.28537 0.0
H409 H 0.54465 0.93374 0.37869 0.0
H410 H 0.51067 0.98626 0.29404 0.0
C411 C 0.45333 -0.00857 0.31565 0.0
C412 C 0.42777 0.98323 0.34059 0.0
C413 C 0.55444 0.92824 0.35822 0.0
C414 C 0.50792 0.96657 0.33718 0.0
C415 C 0.57917 0.90182 0.35513 0.0
C416 C 0.59096 0.89272 0.32882 0.0
C417 C 0.54114 0.94558 0.33485 0.0
C418 C 0.57875 0.91235 0.30604 0.0
C419 C 0.49353 0.98311 0.31385 0.0
C420 C 0.44695 0.97217 0.36399 0.0
N421 N 0.55408 0.9374 0.30957 0.0
N422 N 0.48529 0.96327 0.36163 0.0
H423 H 0.73406 0.17386 0.63471 0.0
H424 H 0.44705 0.01545 0.68125 0.0
H425 H 0.68476 0.12841 0.7182 0.0
H426 H 0.50033 0.12083 0.61435 0.0
H427 H 0.53173 0.02738 0.68579 0.0
H428 H 0.64591 0.12711 0.61943 0.0
C429 C 0.70471 0.15376 0.64978 0.0
C430 C 0.71641 0.15592 0.67784 0.0
C431 C 0.52425 0.04643 0.66949 0.0
C432 C 0.61633 0.10159 0.6604 0.0
C433 C 0.47604 0.03926 0.66672 0.0
C434 C 0.46754 0.06772 0.64761 0.0
C435 C 0.56332 0.08183 0.65282 0.0
C436 C 0.50605 0.09866 0.62945 0.0
C437 C 0.65466 0.12689 0.64101 0.0
C438 C 0.67714 0.12869 0.69647 0.0
N439 N 0.55276 0.10554 0.63275 0.0
N440 N 0.62865 0.10283 0.68742 0.0
H441 H 0.97473 0.45308 0.69882 0.0
H442 H 0.78891 0.51045 0.61231 0.0
H443 H 0.82508 0.34152 0.67177 0.0
H444 H 0.89702 0.61426 0.67095 0.0
H445 H 0.81989 0.45362 0.62173 0.0
H446 H 0.96246 0.51773 0.67738 0.0
C447 C 0.9396 0.44228 0.68826 0.0
C448 C 0.90042 0.39224 0.68755 0.0
C449 C 0.83743 0.48935 0.63208 0.0
C450 C 0.88695 0.46492 0.66244 0.0
C451 C 0.82003 0.5218 0.62657 0.0
C452 C 0.83993 0.5665 0.64124 0.0
C453 C 0.87528 0.50225 0.65206 0.0
C454 C 0.88015 0.57957 0.65959 0.0
C455 C 0.9327 0.47894 0.67601 0.0
C456 C 0.85578 0.37989 0.67335 0.0
N457 N 0.89625 0.54733 0.66471 0.0
N458 N 0.85026 0.41595 0.66138 0.0
H459 H 0.53977 0.53844 0.6288 0.0
H460 H 0.36148 0.28438 0.62011 0.0
H461 H 0.63197 0.50273 0.57888 0.0
H462 H 0.49968 0.28226 0.62641 0.0
H463 H 0.41033 0.37143 0.60438 0.0
H464 H 0.4713 0.45145 0.62573 0.0
C465 C 0.54511 0.51282 0.61645 0.0
C466 C 0.59222 0.52752 0.60483 0.0
C467 C 0.42962 0.35154 0.60897 0.0
C468 C 0.51448 0.42847 0.6014 0.0
C469 C 0.40199 0.3021 0.61783 0.0
C470 C 0.42698 0.27676 0.62496 0.0
C471 C 0.48219 0.37493 0.60679 0.0
C472 C 0.47929 0.30097 0.62158 0.0
C473 C 0.50591 0.4632 0.61462 0.0
C474 C 0.59677 0.4928 0.58882 0.0
N475 N 0.50523 0.34885 0.61271 0.0
N476 N 0.55895 0.44444 0.58835 0.0
H477 H 0.75678 0.79633 0.71434 0.0
H478 H 0.75919 0.04476 0.6792 0.0
H479 H 0.68157 0.81437 0.64437 0.0
H480 H 0.84645 0.03209 0.74494 0.0
H481 H 0.71365 0.95479 0.67347 0.0
H482 H 0.77139 0.87513 0.73311 0.0
C483 C 0.74191 0.81635 0.70344 0.0
C484 C 0.71798 0.7994 0.67791 0.0
C485 C 0.74234 0.97146 0.68935 0.0
C486 C 0.73593 0.88985 0.69858 0.0
C487 C 0.76865 0.02293 0.69256 0.0
C488 C 0.80769 0.046 0.7121 0.0
C489 C 0.75545 0.9427 0.70557 0.0
C490 C 0.81718 0.01579 0.72936 0.0
C491 C 0.75055 0.86137 0.71402 0.0
C492 C 0.69989 0.82643 0.66423 0.0
N493 N 0.7918 0.96559 0.72535 0.0
N494 N 0.71 0.87095 0.67455 0.0
H495 H 0.92023 0.78021 0.72326 0.0
H496 H 0.19827 0.89319 0.66606 0.0
H497 H 0.95996 0.79229 0.63754 0.0
H498 H 0.16722 0.95743 0.73613 0.0
H499 H 0.10974 0.82714 0.66486 0.0
H500 H 0.01031 0.82135 0.73549 0.0
C501 C 0.94797 0.7916 0.70709 0.0
C502 C 0.93317 0.78391 0.67936 0.0
C503 C 0.1228 0.85504 0.68093 0.0
C504 C 0.03463 0.82813 0.69318 0.0
C505 C 0.17333 0.89259 0.68178 0.0
C506 C 0.18959 0.93195 0.70055 0.0
C507 C 0.08885 0.85682 0.69912 0.0
C508 C 0.15576 0.92856 0.72077 0.0
C509 C -0.00107 0.81447 0.71408 0.0
C510 C 0.9701 0.7986 0.65911 0.0
N511 N 0.10639 0.89215 0.71915 0.0
N512 N 0.01928 0.81993 0.66645 0.0
H513 H 0.2208 0.20942 0.6569 0.0
H514 H 0.04971 0.2195 0.77228 0.0
H515 H 0.20709 0.14602 0.7377 0.0
H516 H 0.09733 0.31632 0.70145 0.0
H517 H 0.11511 0.20015 0.76277 0.0
H518 H 0.18023 0.25355 0.674 0.0
C519 C 0.20912 0.20464 0.67818 0.0
C520 C 0.21668 0.17344 0.69579 0.0
C521 C 0.11222 0.22667 0.74969 0.0
C522 C 0.17101 0.22427 0.71556 0.0
C523 C 0.07516 0.23801 0.75528 0.0
C524 C 0.0678 0.26896 0.73741 0.0
C525 C 0.14115 0.24554 0.72573 0.0
C526 C 0.10172 0.2921 0.71568 0.0
C527 C 0.18657 0.23033 0.68803 0.0
C528 C 0.20161 0.16932 0.72331 0.0
N529 N 0.13615 0.27883 0.70997 0.0
N530 N 0.17908 0.19406 0.73226 0.0
H531 H -0.00433 0.4 0.29488 0.0
H532 H 0.1087 0.49065 0.14429 0.0
H533 H 0.14245 0.42891 0.27047 0.0
H534 H 0.95089 0.42606 0.16364 0.0
H535 H 0.12574 0.48219 0.19246 0.0
H536 H -0.01701 0.42273 0.24878 0.0
C537 C 0.02542 0.41141 0.2799 0.0
C538 C 0.07009 0.41213 0.28654 0.0
C539 C 0.08747 0.47025 0.18618 0.0
C540 C 0.05571 0.43838 0.23369 0.0
C541 C 0.07769 0.47529 0.1587 0.0
C542 C 0.02815 0.45862 0.14981 0.0
C543 C 0.04753 0.44869 0.20498 0.0
C544 C -0.01042 0.43905 0.16949 0.0
C545 C 0.01805 0.42431 0.25356 0.0
C546 C 0.10727 0.4274 0.26624 0.0
N547 N 6e-05 0.43439 0.19612 0.0
N548 N 0.09919 0.4398 0.2407 0.0
H549 H 0.63796 0.81215 0.20117 0.0
H550 H 0.55633 0.71322 0.06956 0.0
H551 H 0.59955 0.66331 0.22433 0.0
H552 H 0.5671 0.5892 0.10001 0.0
H553 H 0.57063 0.74662 0.11609 0.0
H554 H 0.61358 0.7839 0.15401 0.0
C555 C 0.62378 0.77333 0.19641 0.0
C556 C 0.62096 0.74014 0.21683 0.0
C557 C 0.57051 0.71245 0.11268 0.0
C558 C 0.59171 0.70691 0.16268 0.0
C559 C 0.56172 0.693 0.08604 0.0
C560 C 0.56103 0.64857 0.08074 0.0
C561 C 0.57904 0.68741 0.13417 0.0
C562 C 0.56772 0.62378 0.10298 0.0
C563 C 0.60936 0.75699 0.16937 0.0
C564 C 0.60255 0.69035 0.20935 0.0
N565 N 0.57662 0.64363 0.12861 0.0
N566 N 0.58896 0.67543 0.18292 0.0
H567 H 0.32858 0.00498 0.08779 0.0
H568 H 0.27518 0.84847 0.22571 0.0
H569 H 0.37616 0.89792 0.09716 0.0
H570 H 0.30053 -0.00239 0.22321 0.0
H571 H 0.29771 0.85608 0.17679 0.0
H572 H 0.30224 -0.00819 0.13569 0.0
C573 C 0.33313 0.97834 0.09984 0.0
C574 C 0.35486 0.95266 0.08844 0.0
C575 C 0.2983 0.887 0.18709 0.0
C576 C 0.3245 0.93738 0.14338 0.0
C577 C 0.2853 0.88266 0.21488 0.0
C578 C 0.28613 0.92254 0.22855 0.0
C579 C 0.31104 0.93104 0.17284 0.0
C580 C 0.29969 0.96607 0.21357 0.0
C581 C 0.31832 0.9711 0.12724 0.0
C582 C 0.35988 0.91873 0.10517 0.0
N583 N 0.31125 0.96901 0.18652 0.0
N584 N 0.34467 0.91192 0.13186 0.0
H585 H 0.37756 0.00244 0.88153 0.0
H586 H 0.4841 0.15872 0.75085 0.0
H587 H 0.52304 0.13579 0.89442 0.0
H588 H 0.34033 0.12478 0.78366 0.0
H589 H 0.50796 0.14393 0.79696 0.0
H590 H 0.37085 0.03521 0.83733 0.0
C591 C 0.40849 0.03835 0.87495 0.0
C592 C 0.45085 0.06654 0.89181 0.0
C593 C 0.4718 0.14105 0.79394 0.0
C594 C 0.44323 0.10388 0.84102 0.0
C595 C 0.4582 0.14956 0.76778 0.0
C596 C 0.40975 0.14197 0.76331 0.0
C597 C 0.43632 0.12438 0.81522 0.0
C598 C 0.37761 0.12996 0.78596 0.0
C599 C 0.40441 0.05706 0.84979 0.0
C600 C 0.48961 0.11306 0.88208 0.0
N601 N 0.391 0.12044 0.81074 0.0
N602 N 0.48501 0.13044 0.85711 0.0
H603 H 0.9131 0.40587 0.93431 0.0
H604 H 0.89266 0.20051 0.82979 0.0
H605 H 0.93908 0.28754 0.95756 0.0
H606 H 0.84891 0.30727 0.80877 0.0
H607 H 0.90512 0.22895 0.87732 0.0
H608 H 0.88565 0.36812 0.8889 0.0
C609 C 0.91287 0.37185 0.92994 0.0
C610 C 0.92886 0.3501 0.94978 0.0
C611 C 0.89231 0.24586 0.8624 0.0
C612 C 0.89746 0.30669 0.8977 0.0
C613 C 0.88515 0.22962 0.83521 0.0
C614 C 0.87012 0.25183 0.81516 0.0
C615 C 0.88489 0.285 0.86965 0.0
C616 C 0.86065 0.28914 0.8235 0.0
C617 C 0.89703 0.35023 0.90399 0.0
C618 C 0.92736 0.30581 0.94292 0.0
N619 N 0.86874 0.30494 0.85005 0.0
N620 N 0.91233 0.2858 0.91741 0.0
H621 H 0.74801 0.60645 0.75699 0.0
H622 H 0.52962 0.54286 0.86523 0.0
H623 H 0.60449 0.58813 0.73324 0.0
H624 H 0.68747 0.61157 0.88652 0.0
H625 H 0.55111 0.54252 0.81683 0.0
H626 H 0.72002 0.59015 0.80454 0.0
C627 C 0.71033 0.5984 0.76166 0.0
C628 C 0.6788 0.59932 0.74104 0.0
C629 C 0.58088 0.55735 0.83218 0.0
C630 C 0.64665 0.58075 0.79567 0.0
C631 C 0.5687 0.55744 0.85978 0.0
C632 C 0.6069 0.57764 0.87992 0.0
C633 C 0.63147 0.5769 0.82479 0.0
C634 C 0.65687 0.59608 0.87168 0.0
C635 C 0.6945 0.58931 0.78889 0.0
C636 C 0.63023 0.58823 0.74846 0.0
N637 N 0.66768 0.59527 0.84477 0.0
N638 N 0.61573 0.57973 0.77525 0.0
H639 H 0.71569 0.8401 0.43419 0.0
H640 H 0.79513 0.68262 0.52582 0.0
H641 H 0.79694 0.775 0.39983 0.0
H642 H 0.78177 0.80283 0.55931 0.0
H643 H 0.7912 0.71133 0.47936 0.0
H644 H 0.73472 0.82268 0.48035 0.0
C645 C 0.73798 0.82259 0.43638 0.0
C646 C 0.75476 0.80898 0.41314 0.0
C647 C 0.78972 0.73166 0.49693 0.0
C648 C 0.77575 0.78801 0.46587 0.0
C649 C 0.79178 0.71524 0.52342 0.0
C650 C 0.78862 0.74025 0.54652 0.0
C651 C 0.78336 0.7727 0.49352 0.0
C652 C 0.78444 0.7824 0.54215 0.0
C653 C 0.7489 0.81275 0.46271 0.0
C654 C 0.78352 0.78637 0.41719 0.0
N655 N 0.78124 0.79687 0.51621 0.0
N656 N 0.79247 0.77589 0.44306 0.0
H657 H 0.26519 0.91253 0.44793 0.0
H658 H 0.23737 0.08413 0.55739 0.0
H659 H 0.18728 -0.00994 0.42764 0.0
H660 H 0.26708 0.96727 0.57824 0.0
H661 H 0.21964 0.0532 0.50983 0.0
H662 H 0.26851 0.93593 0.49577 0.0
C663 C 0.24865 0.93448 0.45358 0.0
C664 C 0.22613 0.94957 0.43374 0.0
C665 C 0.2295 0.03416 0.525 0.0
C666 C 0.23004 0.97687 0.48875 0.0
C667 C 0.23963 0.05175 0.55211 0.0
C668 C 0.25439 0.0287 0.57183 0.0
C669 C 0.23465 -0.00637 0.51763 0.0
C670 C 0.25651 0.98676 0.5638 0.0
C671 C 0.25033 0.94764 0.48098 0.0
C672 C 0.20493 0.97762 0.44234 0.0
N673 N 0.2473 0.97101 0.53736 0.0
N674 N 0.20788 -0.0091 0.46924 0.0
H675 H 0.0459 0.33343 0.62941 0.0
H676 H 0.02615 0.22554 0.47832 0.0
H677 H 0.92766 0.18735 0.60303 0.0
H678 H 0.12759 0.37944 0.50092 0.0
H679 H 0.00036 0.20631 0.52626 0.0
H680 H 0.08597 0.34611 0.58468 0.0
C681 C 0.02849 0.30386 0.6143 0.0
C682 C -0.01707 0.2595 0.61988 0.0
C683 C 0.02866 0.24417 0.52076 0.0
C684 C 0.02878 0.27382 0.56864 0.0
C685 C 0.04361 0.25517 0.4934 0.0
C686 C 0.07857 0.30437 0.48549 0.0
C687 C 0.04888 0.28259 0.54035 0.0
C688 C 0.10005 0.34111 0.50599 0.0
C689 C 0.05144 0.31116 0.58876 0.0
C690 C 0.96243 0.22237 0.59955 0.0
N691 N 0.08449 0.32956 0.53243 0.0
N692 N -0.01467 0.23051 0.57476 0.0
loop_
_geom_bond_atom_site_label_1
_geom_bond_atom_site_label_2
_geom_bond_distance
_geom_bond_site_symmetry_2
_ccdc_geom_bond_type
O0 Zn1 1.953 . S
O0 C16 1.225 1_556 S
Zn1 O0 1.953 . S
Zn1 O2 1.949 1_656 S
Zn1 O8 1.919 . S
Zn1 O13 1.924 1_655 S
O2 Zn1 1.949 1_454 S
O2 Zn3 1.923 1_454 S
O2 Zn4 1.950 1_455 S
O2 Zn5 1.945 . S
Zn3 O2 1.923 1_656 S
Zn3 O6 1.933 1_655 S
Zn3 O9 1.941 . S
Zn3 O10 1.965 1_556 S
Zn4 O2 1.950 1_655 S
Zn4 O11 1.938 . S
Zn4 O12 1.906 . S
Zn4 O22 1.953 . S
Zn5 O2 1.945 . S
Zn5 O7 1.932 . S
Zn5 O14 1.977 . S
Zn5 O15 1.910 . S
O6 Zn3 1.933 1_455 S
O6 C17 1.226 1_556 S
O7 Zn5 1.932 . S
O7 C17 1.307 . S
O8 Zn1 1.919 . S
O8 C19 1.253 . S
O9 Zn3 1.941 . S
O9 C19 1.283 . S
O10 Zn3 1.965 1_554 S
O10 C18 1.303 . S
O11 Zn4 1.938 . S
O11 C18 1.247 . S
O12 Zn4 1.906 . S
O12 C20 1.304 1_655 S
O13 Zn1 1.924 1_455 S
O13 C21 1.311 1_556 S
O14 Zn5 1.977 . S
O14 C20 1.272 . S
O15 Zn5 1.910 . S
O15 C21 1.231 . S
C16 O0 1.225 1_554 S
C16 O22 1.298 . S
C17 O6 1.226 1_554 S
C17 O7 1.307 . S
C18 O10 1.303 . S
C18 O11 1.247 . S
C19 O8 1.253 . S
C19 O9 1.283 . S
C20 O12 1.304 1_455 S
C20 O14 1.272 . S
C21 O13 1.311 1_554 S
C21 O15 1.231 . S
O22 Zn4 1.953 . S
O22 C16 1.298 . S
O23 Zn24 1.953 . S
O23 C39 1.225 1_556 S
Zn24 O23 1.953 . S
Zn24 O25 1.949 1_556 S
Zn24 O31 1.919 . S
Zn24 O36 1.924 . S
O25 Zn24 1.949 1_554 S
O25 Zn26 1.923 1_554 S
O25 Zn27 1.950 . S
O25 Zn28 1.945 . S
Zn26 O25 1.923 1_556 S
Zn26 O29 1.933 . S
Zn26 O32 1.941 . S
Zn26 O33 1.965 1_556 S
Zn27 O25 1.950 . S
Zn27 O34 1.938 . S
Zn27 O35 1.906 . S
Zn27 O45 1.953 . S
Zn28 O25 1.945 . S
Zn28 O30 1.932 . S
Zn28 O37 1.977 . S
Zn28 O38 1.910 . S
O29 Zn26 1.933 . S
O29 C40 1.212 1_556 S
O30 Zn28 1.932 . S
O30 C40 1.326 . S
O31 Zn24 1.919 . S
O31 C42 1.253 . S
O32 Zn26 1.941 . S
O32 C42 1.283 . S
O33 Zn26 1.965 1_554 S
O33 C41 1.304 . S
O34 Zn27 1.938 . S
O34 C41 1.247 . S
O35 Zn27 1.906 . S
O35 C43 1.304 . S
O36 Zn24 1.924 . S
O36 C44 1.311 1_556 S
O37 Zn28 1.977 . S
O37 C43 1.272 . S
O38 Zn28 1.910 . S
O38 C44 1.231 . S
C39 O23 1.225 1_554 S
C39 O45 1.298 . S
C40 O29 1.212 1_554 S
C40 O30 1.326 . S
C41 O33 1.304 . S
C41 O34 1.247 . S
C42 O31 1.253 . S
C42 O32 1.283 . S
C43 O35 1.304 . S
C43 O37 1.272 . S
C44 O36 1.311 1_554 S
C44 O38 1.231 . S
O45 Zn27 1.953 . S
O45 C39 1.298 . S
O46 Zn47 1.953 1_565 S
O46 C62 1.225 . S
Zn47 O46 1.953 1_545 S
Zn47 O48 1.949 . S
Zn47 O54 1.919 . S
Zn47 O59 1.924 . S
O48 Zn47 1.949 . S
O48 Zn49 1.923 . S
O48 Zn50 1.950 1_544 S
O48 Zn51 1.945 1_554 S
Zn49 O48 1.923 . S
Zn49 O52 1.933 . S
Zn49 O55 1.941 . S
Zn49 O56 1.965 1_545 S
Zn50 O48 1.950 1_566 S
Zn50 O57 1.938 . S
Zn50 O58 1.906 . S
Zn50 O68 1.953 . S
Zn51 O48 1.945 1_556 S
Zn51 O53 1.932 . S
Zn51 O60 1.977 . S
Zn51 O61 1.910 . S
O52 Zn49 1.933 . S
O52 C63 1.226 . S
O53 Zn51 1.932 . S
O53 C63 1.307 1_556 S
O54 Zn47 1.919 . S
O54 C65 1.253 . S
O55 Zn49 1.941 . S
O55 C65 1.283 . S
O56 Zn49 1.965 1_565 S
O56 C64 1.286 1_554 S
O57 Zn50 1.938 . S
O57 C64 1.272 . S
O58 Zn50 1.906 . S
O58 C66 1.304 1_565 S
O59 Zn47 1.924 . S
O59 C67 1.311 . S
O60 Zn51 1.977 . S
O60 C66 1.272 . S
O61 Zn51 1.910 . S
O61 C67 1.231 1_556 S
C62 O46 1.225 . S
C62 O68 1.298 1_554 S
C63 O52 1.226 . S
C63 O53 1.307 1_554 S
C64 O56 1.286 1_556 S
C64 O57 1.272 . S
C65 O54 1.253 . S
C65 O55 1.283 . S
C66 O58 1.304 1_545 S
C66 O60 1.272 . S
C67 O59 1.311 . S
C67 O61 1.231 1_554 S
O68 Zn50 1.953 . S
O68 C62 1.298 1_556 S
O69 Zn70 1.953 . S
O69 C85 1.225 . S
Zn70 O69 1.953 . S
Zn70 O71 1.949 . S
Zn70 O77 1.919 . S
Zn70 O82 1.924 . S
O71 Zn70 1.949 . S
O71 Zn72 1.923 . S
O71 Zn73 1.950 . S
O71 Zn74 1.945 . S
Zn72 O71 1.923 . S
Zn72 O75 1.933 . S
Zn72 O78 1.941 . S
Zn72 O79 1.965 . S
Zn73 O71 1.950 . S
Zn73 O80 1.938 . S
Zn73 O81 1.906 . S
Zn73 O91 1.953 . S
Zn74 O71 1.945 . S
Zn74 O76 1.932 . S
Zn74 O83 1.977 . S
Zn74 O84 1.910 . S
O75 Zn72 1.933 . S
O75 C86 1.226 . S
O76 Zn74 1.932 . S
O76 C86 1.307 . S
O77 Zn70 1.919 . S
O77 C88 1.253 . S
O78 Zn72 1.941 . S
O78 C88 1.283 . S
O79 Zn72 1.965 . S
O79 C87 1.303 . S
O80 Zn73 1.938 . S
O80 C87 1.247 . S
O81 Zn73 1.906 . S
O81 C89 1.304 . S
O82 Zn70 1.924 . S
O82 C90 1.311 . S
O83 Zn74 1.977 . S
O83 C89 1.272 . S
O84 Zn74 1.910 . S
O84 C90 1.231 . S
C85 O69 1.225 . S
C85 O91 1.298 . S
C86 O75 1.226 . S
C86 O76 1.307 . S
C87 O79 1.303 . S
C87 O80 1.247 . S
C88 O77 1.253 . S
C88 O78 1.283 . S
C89 O81 1.304 . S
C89 O83 1.272 . S
C90 O82 1.311 . S
C90 O84 1.231 . S
O91 Zn73 1.953 . S
O91 C85 1.298 . S
O92 Zn93 1.953 . S
O92 C108 1.225 . S
Zn93 O92 1.953 . S
Zn93 O94 1.949 . S
Zn93 O100 1.919 . S
Zn93 O105 1.924 . S
O94 Zn93 1.949 . S
O94 Zn95 1.923 1_565 S
O94 Zn96 1.950 . S
O94 Zn97 1.945 . S
Zn95 O94 1.923 1_545 S
Zn95 O98 1.933 . S
Zn95 O101 1.941 1_545 S
Zn95 O102 1.965 . S
Zn96 O94 1.950 . S
Zn96 O103 1.938 . S
Zn96 O104 1.906 . S
Zn96 O114 1.953 . S
Zn97 O94 1.945 . S
Zn97 O99 1.932 1_565 S
Zn97 O106 1.977 . S
Zn97 O107 1.910 . S
O98 Zn95 1.933 . S
O98 C109 1.226 . S
O99 Zn97 1.932 1_545 S
O99 C109 1.307 . S
O100 Zn93 1.919 . S
O100 C111 1.253 . S
O101 Zn95 1.941 1_565 S
O101 C111 1.283 . S
O102 Zn95 1.965 . S
O102 C110 1.303 1_545 S
O103 Zn96 1.938 . S
O103 C110 1.247 . S
O104 Zn96 1.906 . S
O104 C112 1.304 . S
O105 Zn93 1.924 . S
O105 C113 1.311 . S
O106 Zn97 1.977 . S
O106 C112 1.272 . S
O107 Zn97 1.910 . S
O107 C113 1.231 . S
C108 O92 1.225 . S
C108 O114 1.298 . S
C109 O98 1.226 . S
C109 O99 1.307 . S
C110 O102 1.303 1_565 S
C110 O103 1.247 . S
C111 O100 1.253 . S
C111 O101 1.283 . S
C112 O104 1.304 . S
C112 O106 1.272 . S
C113 O105 1.311 . S
C113 O107 1.231 . S
O114 Zn96 1.953 . S
O114 C108 1.298 . S
O115 Zn116 1.953 . S
O115 C131 1.225 . S
Zn116 O115 1.953 . S
Zn116 O117 1.949 . S
Zn116 O123 1.919 . S
Zn116 O128 1.924 . S
O117 Zn116 1.949 . S
O117 Zn118 1.923 . S
O117 Zn119 1.950 . S
O117 Zn120 1.945 . S
Zn118 O117 1.923 . S
Zn118 O121 1.933 1_455 S
Zn118 O124 1.941 . S
Zn118 O125 1.965 . S
Zn119 O117 1.950 . S
Zn119 O126 1.938 . S
Zn119 O127 1.906 . S
Zn119 O137 1.953 . S
Zn120 O117 1.945 . S
Zn120 O122 1.932 . S
Zn120 O129 1.977 . S
Zn120 O130 1.910 . S
O121 Zn118 1.933 1_655 S
O121 C132 1.226 . S
O122 Zn120 1.932 . S
O122 C132 1.307 1_455 S
O123 Zn116 1.919 . S
O123 C134 1.253 . S
O124 Zn118 1.941 . S
O124 C134 1.283 . S
O125 Zn118 1.965 . S
O125 C133 1.303 . S
O126 Zn119 1.938 . S
O126 C133 1.247 . S
O127 Zn119 1.906 . S
O127 C135 1.304 . S
O128 Zn116 1.924 . S
O128 C136 1.311 . S
O129 Zn120 1.977 . S
O129 C135 1.272 . S
O130 Zn120 1.910 . S
O130 C136 1.231 . S
C131 O115 1.225 . S
C131 O137 1.298 . S
C132 O121 1.226 . S
C132 O122 1.307 1_655 S
C133 O125 1.303 . S
C133 O126 1.247 . S
C134 O123 1.253 . S
C134 O124 1.283 . S
C135 O127 1.304 . S
C135 O129 1.272 . S
C136 O128 1.311 . S
C136 O130 1.231 . S
O137 Zn119 1.953 . S
O137 C131 1.298 . S
O138 Zn139 1.953 . S
O138 C154 1.225 . S
Zn139 O138 1.953 . S
Zn139 O140 1.949 . S
Zn139 O146 1.919 . S
Zn139 O151 1.924 . S
O140 Zn139 1.949 . S
O140 Zn141 1.923 . S
O140 Zn142 1.950 . S
O140 Zn143 1.945 . S
Zn141 O140 1.923 . S
Zn141 O144 1.933 . S
Zn141 O147 1.941 . S
Zn141 O148 1.965 1_545 S
Zn142 O140 1.950 . S
Zn142 O149 1.938 . S
Zn142 O150 1.906 . S
Zn142 O160 1.953 . S
Zn143 O140 1.945 . S
Zn143 O145 1.932 . S
Zn143 O152 1.977 . S
Zn143 O153 1.910 . S
O144 Zn141 1.933 . S
O144 C155 1.226 . S
O145 Zn143 1.932 . S
O145 C155 1.307 . S
O146 Zn139 1.919 . S
O146 C157 1.253 . S
O147 Zn141 1.941 . S
O147 C157 1.283 . S
O148 Zn141 1.965 1_565 S
O148 C156 1.303 . S
O149 Zn142 1.938 . S
O149 C156 1.247 1_545 S
O150 Zn142 1.906 . S
O150 C158 1.304 . S
O151 Zn139 1.924 . S
O151 C159 1.311 . S
O152 Zn143 1.977 . S
O152 C158 1.272 . S
O153 Zn143 1.910 . S
O153 C159 1.231 . S
C154 O138 1.225 . S
C154 O160 1.298 . S
C155 O144 1.226 . S
C155 O145 1.307 . S
C156 O148 1.303 . S
C156 O149 1.247 1_565 S
C157 O146 1.253 . S
C157 O147 1.283 . S
C158 O150 1.304 . S
C158 O152 1.272 . S
C159 O151 1.311 . S
C159 O153 1.231 . S
O160 Zn142 1.953 . S
O160 C154 1.298 . S
O161 Zn162 1.953 . S
O161 C177 1.225 . S
Zn162 O161 1.953 . S
Zn162 O163 1.949 . S
Zn162 O169 1.919 . S
Zn162 O174 1.924 . S
O163 Zn162 1.949 . S
O163 Zn164 1.923 . S
O163 Zn165 1.950 . S
O163 Zn166 1.945 . S
Zn164 O163 1.923 . S
Zn164 O167 1.933 . S
Zn164 O170 1.941 . S
Zn164 O171 1.965 1_655 S
Zn165 O163 1.950 . S
Zn165 O172 1.938 . S
Zn165 O173 1.906 . S
Zn165 O183 1.953 . S
Zn166 O163 1.945 . S
Zn166 O168 1.932 . S
Zn166 O175 1.977 . S
Zn166 O176 1.910 . S
O167 Zn164 1.933 . S
O167 C178 1.226 . S
O168 Zn166 1.932 . S
O168 C178 1.307 . S
O169 Zn162 1.919 . S
O169 C180 1.253 . S
O170 Zn164 1.941 . S
O170 C180 1.283 . S
O171 Zn164 1.965 1_455 S
O171 C179 1.303 . S
O172 Zn165 1.938 . S
O172 C179 1.247 1_655 S
O173 Zn165 1.906 . S
O173 C181 1.304 . S
O174 Zn162 1.924 . S
O174 C182 1.311 . S
O175 Zn166 1.977 . S
O175 C181 1.272 . S
O176 Zn166 1.910 . S
O176 C182 1.231 . S
C177 O161 1.225 . S
C177 O183 1.298 . S
C178 O167 1.226 . S
C178 O168 1.307 . S
C179 O171 1.303 . S
C179 O172 1.247 1_455 S
C180 O169 1.253 . S
C180 O170 1.283 . S
C181 O173 1.304 . S
C181 O175 1.272 . S
C182 O174 1.311 . S
C182 O176 1.231 . S
O183 Zn165 1.953 . S
O183 C177 1.298 . S
O184 Zn185 1.953 . S
O184 C200 1.225 . S
Zn185 O184 1.953 . S
Zn185 O186 1.949 . S
Zn185 O192 1.919 . S
Zn185 O197 1.924 . S
O186 Zn185 1.949 . S
O186 Zn187 1.923 . S
O186 Zn188 1.950 . S
O186 Zn189 1.945 . S
Zn187 O186 1.923 . S
Zn187 O190 1.933 . S
Zn187 O193 1.941 . S
Zn187 O194 1.965 . S
Zn188 O186 1.950 . S
Zn188 O195 1.938 . S
Zn188 O196 1.906 . S
Zn188 O206 1.953 . S
Zn189 O186 1.945 . S
Zn189 O191 1.932 . S
Zn189 O198 1.977 . S
Zn189 O199 1.910 . S
O190 Zn187 1.933 . S
O190 C201 1.226 . S
O191 Zn189 1.932 . S
O191 C201 1.307 . S
O192 Zn185 1.919 . S
O192 C203 1.253 . S
O193 Zn187 1.941 . S
O193 C203 1.283 . S
O194 Zn187 1.965 . S
O194 C202 1.303 . S
O195 Zn188 1.938 . S
O195 C202 1.247 . S
O196 Zn188 1.906 . S
O196 C204 1.304 . S
O197 Zn185 1.924 . S
O197 C205 1.311 . S
O198 Zn189 1.977 . S
O198 C204 1.272 . S
O199 Zn189 1.910 . S
O199 C205 1.231 . S
C200 O184 1.225 . S
C200 O206 1.298 . S
C201 O190 1.226 . S
C201 O191 1.307 . S
C202 O194 1.303 . S
C202 O195 1.247 . S
C203 O192 1.253 . S
C203 O193 1.283 . S
C204 O196 1.304 . S
C204 O198 1.272 . S
C205 O197 1.311 . S
C205 O199 1.231 . S
O206 Zn188 1.953 . S
O206 C200 1.298 . S
H207 C213 0.930 . S
H208 C217 0.930 . S
H209 C222 0.929 . S
H210 C220 0.929 . S
H211 C215 0.929 . S
H212 C221 0.929 . S
C213 H207 0.930 . S
C213 C214 1.367 1_556 S
C213 C221 1.378 . S
C214 C213 1.367 1_554 S
C214 C222 1.433 . S
C215 H211 0.929 . S
C215 C217 1.378 . S
C215 C219 1.350 . S
C216 C219 1.463 . S
C216 C221 1.350 1_554 S
C216 N224 1.427 . S
C217 H208 0.930 . S
C217 C215 1.378 . S
C217 C218 1.367 . S
C218 C217 1.367 . S
C218 C220 1.433 1_554 S
C219 C215 1.350 . S
C219 C216 1.463 . S
C219 N223 1.427 1_554 S
C220 H210 0.929 . S
C220 C218 1.433 1_556 S
C220 N223 1.384 . S
C221 H212 0.929 . S
C221 C213 1.378 . S
C221 C216 1.350 1_556 S
C222 H209 0.929 . S
C222 C214 1.433 . S
C222 N224 1.384 . S
N223 C219 1.427 1_556 S
N223 C220 1.384 . S
N224 C216 1.427 . S
N224 C222 1.384 . S
H225 C231 0.930 . S
H226 C235 0.930 . S
H227 C240 0.929 . S
H228 C238 0.929 . S
H229 C233 0.929 . S
H230 C239 0.929 . S
C231 H225 0.930 . S
C231 C232 1.367 . S
C231 C239 1.378 . S
C232 C231 1.367 . S
C232 C240 1.433 1_554 S
C233 H229 0.929 . S
C233 C235 1.378 . S
C233 C237 1.348 1_556 S
C234 C237 1.463 . S
C234 C239 1.350 . S
C234 N242 1.427 1_554 S
C235 H226 0.930 . S
C235 C233 1.378 . S
C235 C236 1.379 . S
C236 C235 1.379 . S
C236 C238 1.421 1_556 S
C237 C233 1.348 1_554 S
C237 C234 1.463 . S
C237 N241 1.429 . S
C238 H228 0.929 . S
C238 C236 1.421 1_554 S
C238 N241 1.384 . S
C239 H230 0.929 . S
C239 C231 1.378 . S
C239 C234 1.350 . S
C240 H227 0.929 . S
C240 C232 1.433 1_556 S
C240 N242 1.384 . S
N241 C237 1.429 . S
N241 C238 1.384 . S
N242 C234 1.427 1_556 S
N242 C240 1.384 . S
H243 C249 0.930 . S
H244 C253 0.930 . S
H245 C258 0.929 . S
H246 C256 0.929 . S
H247 C251 0.929 . S
H248 C257 0.929 . S
C249 H243 0.930 . S
C249 C250 1.367 1_556 S
C249 C257 1.378 . S
C250 C249 1.367 1_554 S
C250 C258 1.433 . S
C251 H247 0.929 . S
C251 C253 1.378 . S
C251 C255 1.350 . S
C252 C255 1.463 . S
C252 C257 1.350 1_554 S
C252 N260 1.427 . S
C253 H244 0.930 . S
C253 C251 1.378 . S
C253 C254 1.367 . S
C254 C253 1.367 . S
C254 C256 1.433 1_554 S
C255 C251 1.350 . S
C255 C252 1.463 . S
C255 N259 1.427 1_554 S
C256 H246 0.929 . S
C256 C254 1.433 1_556 S
C256 N259 1.384 . S
C257 H248 0.929 . S
C257 C249 1.378 . S
C257 C252 1.350 1_556 S
C258 H245 0.929 . S
C258 C250 1.433 . S
C258 N260 1.384 . S
N259 C255 1.427 1_556 S
N259 C256 1.384 . S
N260 C252 1.427 . S
N260 C258 1.384 . S
H261 C267 0.930 . S
H262 C271 0.930 . S
H263 C276 0.929 . S
H264 C274 0.929 . S
H265 C269 0.929 . S
H266 C275 0.929 . S
C267 H261 0.930 . S
C267 C268 1.367 . S
C267 C275 1.378 . S
C268 C267 1.367 . S
C268 C276 1.433 1_554 S
C269 H265 0.929 . S
C269 C271 1.378 . S
C269 C273 1.350 1_556 S
C270 C273 1.463 . S
C270 C275 1.350 . S
C270 N278 1.427 1_554 S
C271 H262 0.930 . S
C271 C269 1.378 . S
C271 C272 1.367 1_556 S
C272 C271 1.367 1_554 S
C272 C274 1.433 . S
C273 C269 1.350 1_554 S
C273 C270 1.463 . S
C273 N277 1.427 . S
C274 H264 0.929 . S
C274 C272 1.433 . S
C274 N277 1.384 . S
C275 H266 0.929 . S
C275 C267 1.378 . S
C275 C270 1.350 . S
C276 H263 0.929 . S
C276 C268 1.433 1_556 S
C276 N278 1.384 . S
N277 C273 1.427 . S
N277 C274 1.384 . S
N278 C270 1.427 1_556 S
N278 C276 1.384 . S
H279 C285 0.930 . S
H280 C289 0.930 . S
H281 C294 0.929 . S
H282 C292 0.929 . S
H283 C287 0.929 . S
H284 C293 0.929 . S
C285 H279 0.930 . S
C285 C286 1.367 . S
C285 C293 1.378 . S
C286 C285 1.367 . S
C286 C294 1.433 1_554 S
C287 H283 0.929 . S
C287 C289 1.378 . S
C287 C291 1.350 1_556 S
C288 C291 1.463 . S
C288 C293 1.350 . S
C288 N296 1.427 1_554 S
C289 H280 0.930 . S
C289 C287 1.378 . S
C289 C290 1.367 1_556 S
C290 C289 1.367 1_554 S
C290 C292 1.433 . S
C291 C287 1.350 1_554 S
C291 C288 1.463 . S
C291 N295 1.427 . S
C292 H282 0.929 . S
C292 C290 1.433 . S
C292 N295 1.384 . S
C293 H284 0.929 . S
C293 C285 1.378 . S
C293 C288 1.350 . S
C294 H281 0.929 . S
C294 C286 1.433 1_556 S
C294 N296 1.384 . S
N295 C291 1.427 . S
N295 C292 1.384 . S
N296 C288 1.427 1_556 S
N296 C294 1.384 . S
H297 C303 0.930 . S
H298 C307 0.930 . S
H299 C312 0.929 . S
H300 C310 0.929 . S
H301 C305 0.929 . S
H302 C311 0.929 . S
C303 H297 0.930 . S
C303 C304 1.367 . S
C303 C311 1.378 . S
C304 C303 1.367 . S
C304 C312 1.433 1_554 S
C305 H301 0.929 . S
C305 C307 1.378 . S
C305 C309 1.350 1_556 S
C306 C309 1.463 . S
C306 C311 1.350 . S
C306 N314 1.427 1_554 S
C307 H298 0.930 . S
C307 C305 1.378 . S
C307 C308 1.367 1_556 S
C308 C307 1.367 1_554 S
C308 C310 1.433 . S
C309 C305 1.350 1_554 S
C309 C306 1.463 . S
C309 N313 1.427 . S
C310 H300 0.929 . S
C310 C308 1.433 . S
C310 N313 1.384 . S
C311 H302 0.929 . S
C311 C303 1.378 . S
C311 C306 1.350 . S
C312 H299 0.929 . S
C312 C304 1.433 1_556 S
C312 N314 1.384 . S
N313 C309 1.427 . S
N313 C310 1.384 . S
N314 C306 1.427 1_556 S
N314 C312 1.384 . S
H315 C321 0.930 . S
H316 C325 0.930 . S
H317 C330 0.929 . S
H318 C328 0.929 . S
H319 C323 0.929 1_655 S
H320 C329 0.929 . S
C321 H315 0.930 . S
C321 C322 1.367 . S
C321 C329 1.378 . S
C322 C321 1.367 . S
C322 C330 1.433 . S
C323 H319 0.929 1_455 S
C323 C325 1.378 . S
C323 C327 1.350 1_455 S
C324 C327 1.463 . S
C324 C329 1.350 . S
C324 N332 1.427 . S
C325 H316 0.930 . S
C325 C323 1.378 . S
C325 C326 1.367 . S
C326 C325 1.367 . S
C326 C328 1.433 . S
C327 C323 1.350 1_655 S
C327 C324 1.463 . S
C327 N331 1.427 1_655 S
C328 H318 0.929 . S
C328 C326 1.433 . S
C328 N331 1.384 . S
C329 H320 0.929 . S
C329 C321 1.378 . S
C329 C324 1.350 . S
C330 H317 0.929 . S
C330 C322 1.433 . S
C330 N332 1.384 . S
N331 C327 1.427 1_455 S
N331 C328 1.384 . S
N332 C324 1.427 . S
N332 C330 1.384 . S
H333 C339 0.930 . S
H334 C343 0.930 . S
H335 C348 0.929 . S
H336 C346 0.929 . S
H337 C341 0.929 . S
H338 C347 0.929 . S
C339 H333 0.930 . S
C339 C340 1.367 . S
C339 C347 1.378 . S
C340 C339 1.367 . S
C340 C348 1.433 . S
C341 H337 0.929 . S
C341 C343 1.378 . S
C341 C345 1.350 . S
C342 C345 1.463 . S
C342 C347 1.350 . S
C342 N350 1.427 . S
C343 H334 0.930 . S
C343 C341 1.378 . S
C343 C344 1.367 . S
C344 C343 1.367 . S
C344 C346 1.433 . S
C345 C341 1.350 . S
C345 C342 1.463 . S
C345 N349 1.427 . S
C346 H336 0.929 . S
C346 C344 1.433 . S
C346 N349 1.384 . S
C347 H338 0.929 . S
C347 C339 1.378 . S
C347 C342 1.350 . S
C348 H335 0.929 . S
C348 C340 1.433 . S
C348 N350 1.384 . S
N349 C345 1.427 . S
N349 C346 1.384 . S
N350 C342 1.427 . S
N350 C348 1.384 . S
H351 C357 0.930 . S
H352 C361 0.930 1_565 S
H353 C366 0.929 . S
H354 C364 0.929 1_565 S
H355 C359 0.929 . S
H356 C365 0.929 . S
C357 H351 0.930 . S
C357 C358 1.367 . S
C357 C365 1.378 . S
C358 C357 1.367 . S
C358 C366 1.433 . S
C359 H355 0.929 . S
C359 C361 1.378 . S
C359 C363 1.350 . S
C360 C363 1.463 . S
C360 C365 1.350 . S
C360 N368 1.427 . S
C361 H352 0.930 1_545 S
C361 C359 1.378 . S
C361 C362 1.367 1_545 S
C362 C361 1.367 1_565 S
C362 C364 1.433 1_565 S
C363 C359 1.350 . S
C363 C360 1.463 . S
C363 N367 1.427 . S
C364 H354 0.929 1_545 S
C364 C362 1.433 1_545 S
C364 N367 1.384 . S
C365 H356 0.929 . S
C365 C357 1.378 . S
C365 C360 1.350 . S
C366 H353 0.929 . S
C366 C358 1.433 . S
C366 N368 1.384 . S
N367 C363 1.427 . S
N367 C364 1.384 . S
N368 C360 1.427 . S
N368 C366 1.384 . S
H369 C375 0.930 . S
H370 C379 0.930 . S
H371 C384 0.929 . S
H372 C382 0.929 . S
H373 C377 0.929 . S
H374 C383 0.929 . S
C375 H369 0.930 . S
C375 C376 1.367 . S
C375 C383 1.378 . S
C376 C375 1.367 . S
C376 C384 1.433 . S
C377 H373 0.929 . S
C377 C379 1.378 . S
C377 C381 1.350 . S
C378 C381 1.463 . S
C378 C383 1.350 . S
C378 N386 1.427 . S
C379 H370 0.930 . S
C379 C377 1.378 . S
C379 C380 1.367 . S
C380 C379 1.367 . S
C380 C382 1.433 . S
C381 C377 1.350 . S
C381 C378 1.463 . S
C381 N385 1.427 . S
C382 H372 0.929 . S
C382 C380 1.433 . S
C382 N385 1.384 . S
C383 H374 0.929 . S
C383 C375 1.378 . S
C383 C378 1.350 . S
C384 H371 0.929 . S
C384 C376 1.433 . S
C384 N386 1.384 . S
N385 C381 1.427 . S
N385 C382 1.384 . S
N386 C378 1.427 . S
N386 C384 1.384 . S
H387 C393 0.930 . S
H388 C397 0.930 . S
H389 C402 0.929 . S
H390 C400 0.929 . S
H391 C395 0.929 . S
H392 C401 0.929 . S
C393 H387 0.930 . S
C393 C394 1.367 . S
C393 C401 1.378 . S
C394 C393 1.367 . S
C394 C402 1.433 . S
C395 H391 0.929 . S
C395 C397 1.378 . S
C395 C399 1.350 . S
C396 C399 1.463 . S
C396 C401 1.350 . S
C396 N404 1.427 . S
C397 H388 0.930 . S
C397 C395 1.378 . S
C397 C398 1.367 . S
C398 C397 1.367 . S
C398 C400 1.433 . S
C399 C395 1.350 . S
C399 C396 1.463 . S
C399 N403 1.427 . S
C400 H390 0.929 . S
C400 C398 1.433 . S
C400 N403 1.384 . S
C401 H392 0.929 . S
C401 C393 1.378 . S
C401 C396 1.350 . S
C402 H389 0.929 . S
C402 C394 1.433 . S
C402 N404 1.384 . S
N403 C399 1.427 . S
N403 C400 1.384 . S
N404 C396 1.427 . S
N404 C402 1.384 . S
H405 C411 0.930 1_545 S
H406 C415 0.930 . S
H407 C420 0.929 . S
H408 C418 0.929 . S
H409 C413 0.929 . S
H410 C419 0.929 . S
C411 H405 0.930 1_565 S
C411 C412 1.367 . S
C411 C419 1.378 . S
C412 C411 1.367 . S
C412 C420 1.433 . S
C413 H409 0.929 . S
C413 C415 1.378 . S
C413 C417 1.350 . S
C414 C417 1.463 . S
C414 C419 1.350 . S
C414 N422 1.427 . S
C415 H406 0.930 . S
C415 C413 1.378 . S
C415 C416 1.367 . S
C416 C415 1.367 . S
C416 C418 1.433 . S
C417 C413 1.350 . S
C417 C414 1.463 . S
C417 N421 1.427 . S
C418 H408 0.929 . S
C418 C416 1.433 . S
C418 N421 1.384 . S
C419 H410 0.929 . S
C419 C411 1.378 . S
C419 C414 1.350 . S
C420 H407 0.929 . S
C420 C412 1.433 . S
C420 N422 1.384 . S
N421 C417 1.427 . S
N421 C418 1.384 . S
N422 C414 1.427 . S
N422 C420 1.384 . S
H423 C429 0.930 . S
H424 C433 0.930 . S
H425 C438 0.929 . S
H426 C436 0.929 . S
H427 C431 0.929 . S
H428 C437 0.929 . S
C429 H423 0.930 . S
C429 C430 1.367 . S
C429 C437 1.378 . S
C430 C429 1.367 . S
C430 C438 1.433 . S
C431 H427 0.929 . S
C431 C433 1.378 . S
C431 C435 1.350 . S
C432 C435 1.463 . S
C432 C437 1.350 . S
C432 N440 1.427 . S
C433 H424 0.930 . S
C433 C431 1.378 . S
C433 C434 1.367 . S
C434 C433 1.367 . S
C434 C436 1.433 . S
C435 C431 1.350 . S
C435 C432 1.463 . S
C435 N439 1.427 . S
C436 H426 0.929 . S
C436 C434 1.433 . S
C436 N439 1.384 . S
C437 H428 0.929 . S
C437 C429 1.378 . S
C437 C432 1.350 . S
C438 H425 0.929 . S
C438 C430 1.433 . S
C438 N440 1.384 . S
N439 C435 1.427 . S
N439 C436 1.384 . S
N440 C432 1.427 . S
N440 C438 1.384 . S
H441 C447 0.930 1_455 S
H442 C451 0.930 . S
H443 C456 0.929 . S
H444 C454 0.929 . S
H445 C449 0.929 . S
H446 C455 0.929 . S
C447 H441 0.930 1_655 S
C447 C448 1.367 . S
C447 C455 1.378 . S
C448 C447 1.367 . S
C448 C456 1.433 . S
C449 H445 0.929 . S
C449 C451 1.378 . S
C449 C453 1.350 . S
C450 C453 1.463 . S
C450 C455 1.350 . S
C450 N458 1.427 . S
C451 H442 0.930 . S
C451 C449 1.378 . S
C451 C452 1.367 . S
C452 C451 1.367 . S
C452 C454 1.433 . S
C453 C449 1.350 . S
C453 C450 1.463 . S
C453 N457 1.427 . S
C454 H444 0.929 . S
C454 C452 1.433 . S
C454 N457 1.384 . S
C455 H446 0.929 . S
C455 C447 1.378 . S
C455 C450 1.350 . S
C456 H443 0.929 . S
C456 C448 1.433 . S
C456 N458 1.384 . S
N457 C453 1.427 . S
N457 C454 1.384 . S
N458 C450 1.427 . S
N458 C456 1.384 . S
H459 C465 0.930 . S
H460 C469 0.930 . S
H461 C474 0.929 . S
H462 C472 0.929 . S
H463 C467 0.929 . S
H464 C473 0.929 . S
C465 H459 0.930 . S
C465 C466 1.367 . S
C465 C473 1.378 . S
C466 C465 1.367 . S
C466 C474 1.433 . S
C467 H463 0.929 . S
C467 C469 1.378 . S
C467 C471 1.350 . S
C468 C471 1.463 . S
C468 C473 1.350 . S
C468 N476 1.427 . S
C469 H460 0.930 . S
C469 C467 1.378 . S
C469 C470 1.367 . S
C470 C469 1.367 . S
C470 C472 1.433 . S
C471 C467 1.350 . S
C471 C468 1.463 . S
C471 N475 1.427 . S
C472 H462 0.929 . S
C472 C470 1.433 . S
C472 N475 1.384 . S
C473 H464 0.929 . S
C473 C465 1.378 . S
C473 C468 1.350 . S
C474 H461 0.929 . S
C474 C466 1.433 . S
C474 N476 1.384 . S
N475 C471 1.427 . S
N475 C472 1.384 . S
N476 C468 1.427 . S
N476 C474 1.384 . S
H477 C483 0.930 . S
H478 C487 0.930 . S
H479 C492 0.929 . S
H480 C490 0.929 . S
H481 C485 0.929 . S
H482 C491 0.929 . S
C483 H477 0.930 . S
C483 C484 1.367 . S
C483 C491 1.378 . S
C484 C483 1.367 . S
C484 C492 1.433 . S
C485 H481 0.929 . S
C485 C487 1.378 1_565 S
C485 C489 1.350 . S
C486 C489 1.463 . S
C486 C491 1.350 . S
C486 N494 1.427 . S
C487 H478 0.930 . S
C487 C485 1.378 1_545 S
C487 C488 1.367 . S
C488 C487 1.367 . S
C488 C490 1.433 . S
C489 C485 1.350 . S
C489 C486 1.463 . S
C489 N493 1.427 . S
C490 H480 0.929 . S
C490 C488 1.433 . S
C490 N493 1.384 1_545 S
C491 H482 0.929 . S
C491 C483 1.378 . S
C491 C486 1.350 . S
C492 H479 0.929 . S
C492 C484 1.433 . S
C492 N494 1.384 . S
N493 C489 1.427 . S
N493 C490 1.384 1_565 S
N494 C486 1.427 . S
N494 C492 1.384 . S
H495 C501 0.930 . S
H496 C505 0.930 . S
H497 C510 0.929 . S
H498 C508 0.929 . S
H499 C503 0.929 . S
H500 C509 0.929 . S
C501 H495 0.930 . S
C501 C502 1.367 . S
C501 C509 1.378 1_655 S
C502 C501 1.367 . S
C502 C510 1.433 . S
C503 H499 0.929 . S
C503 C505 1.378 . S
C503 C507 1.350 . S
C504 C507 1.463 . S
C504 C509 1.350 . S
C504 N512 1.427 . S
C505 H496 0.930 . S
C505 C503 1.378 . S
C505 C506 1.367 . S
C506 C505 1.367 . S
C506 C508 1.433 . S
C507 C503 1.350 . S
C507 C504 1.463 . S
C507 N511 1.427 . S
C508 H498 0.929 . S
C508 C506 1.433 . S
C508 N511 1.384 . S
C509 H500 0.929 . S
C509 C501 1.378 1_455 S
C509 C504 1.350 . S
C510 H497 0.929 . S
C510 C502 1.433 . S
C510 N512 1.384 1_655 S
N511 C507 1.427 . S
N511 C508 1.384 . S
N512 C504 1.427 . S
N512 C510 1.384 1_455 S
H513 C519 0.930 . S
H514 C523 0.930 . S
H515 C528 0.929 . S
H516 C526 0.929 . S
H517 C521 0.929 . S
H518 C527 0.929 . S
C519 H513 0.930 . S
C519 C520 1.367 . S
C519 C527 1.378 . S
C520 C519 1.367 . S
C520 C528 1.433 . S
C521 H517 0.929 . S
C521 C523 1.378 . S
C521 C525 1.350 . S
C522 C525 1.463 . S
C522 C527 1.350 . S
C522 N530 1.427 . S
C523 H514 0.930 . S
C523 C521 1.378 . S
C523 C524 1.367 . S
C524 C523 1.367 . S
C524 C526 1.433 . S
C525 C521 1.350 . S
C525 C522 1.463 . S
C525 N529 1.427 . S
C526 H516 0.929 . S
C526 C524 1.433 . S
C526 N529 1.384 . S
C527 H518 0.929 . S
C527 C519 1.378 . S
C527 C522 1.350 . S
C528 H515 0.929 . S
C528 C520 1.433 . S
C528 N530 1.384 . S
N529 C525 1.427 . S
N529 C526 1.384 . S
N530 C522 1.427 . S
N530 C528 1.384 . S
H531 C537 0.930 . S
H532 C541 0.930 . S
H533 C546 0.929 . S
H534 C544 0.914 1_655 S
H535 C539 0.929 . S
H536 C545 0.929 1_655 S
C537 H531 0.930 . S
C537 C538 1.367 . S
C537 C545 1.378 . S
C538 C537 1.367 . S
C538 C546 1.433 . S
C539 H535 0.929 . S
C539 C541 1.378 . S
C539 C543 1.350 . S
C540 C543 1.463 . S
C540 C545 1.350 . S
C540 N548 1.427 . S
C541 H532 0.930 . S
C541 C539 1.378 . S
C541 C542 1.367 . S
C542 C541 1.367 . S
C542 C544 1.443 . S
C543 C539 1.350 . S
C543 C540 1.463 . S
C543 N547 1.427 . S
C544 H534 0.914 1_455 S
C544 C542 1.443 . S
C544 N547 1.390 . S
C545 H536 0.929 1_455 S
C545 C537 1.378 . S
C545 C540 1.350 . S
C546 H533 0.929 . S
C546 C538 1.433 . S
C546 N548 1.384 . S
N547 C543 1.427 . S
N547 C544 1.390 . S
N548 C540 1.427 . S
N548 C546 1.384 . S
H549 C555 0.930 . S
H550 C559 0.930 . S
H551 C564 0.929 . S
H552 C562 0.929 . S
H553 C557 0.929 . S
H554 C563 0.929 . S
C555 H549 0.930 . S
C555 C556 1.367 . S
C555 C563 1.378 . S
C556 C555 1.367 . S
C556 C564 1.433 . S
C557 H553 0.929 . S
C557 C559 1.378 . S
C557 C561 1.350 . S
C558 C561 1.463 . S
C558 C563 1.350 . S
C558 N566 1.427 . S
C559 H550 0.930 . S
C559 C557 1.378 . S
C559 C560 1.367 . S
C560 C559 1.367 . S
C560 C562 1.433 . S
C561 C557 1.350 . S
C561 C558 1.463 . S
C561 N565 1.427 . S
C562 H552 0.929 . S
C562 C560 1.433 . S
C562 N565 1.384 . S
C563 H554 0.929 . S
C563 C555 1.378 . S
C563 C558 1.350 . S
C564 H551 0.929 . S
C564 C556 1.433 . S
C564 N566 1.384 . S
N565 C561 1.427 . S
N565 C562 1.384 . S
N566 C558 1.427 . S
N566 C564 1.384 . S
H567 C573 0.930 . S
H568 C577 0.930 . S
H569 C582 0.929 . S
H570 C580 0.929 . S
H571 C575 0.929 . S
H572 C581 0.929 . S
C573 H567 0.930 . S
C573 C574 1.367 . S
C573 C581 1.378 . S
C574 C573 1.367 . S
C574 C582 1.433 1_545 S
C575 H571 0.929 . S
C575 C577 1.378 . S
C575 C579 1.350 . S
C576 C579 1.463 1_545 S
C576 C581 1.350 . S
C576 N584 1.427 1_545 S
C577 H568 0.930 . S
C577 C575 1.378 . S
C577 C578 1.367 . S
C578 C577 1.367 . S
C578 C580 1.433 1_565 S
C579 C575 1.350 . S
C579 C576 1.463 1_565 S
C579 N583 1.427 1_565 S
C580 H570 0.929 . S
C580 C578 1.433 1_545 S
C580 N583 1.384 . S
C581 H572 0.929 . S
C581 C573 1.378 . S
C581 C576 1.350 . S
C582 H569 0.929 . S
C582 C574 1.433 1_565 S
C582 N584 1.384 . S
N583 C579 1.427 1_545 S
N583 C580 1.384 . S
N584 C576 1.427 1_565 S
N584 C582 1.384 . S
H585 C591 0.930 1_565 S
H586 C595 0.930 . S
H587 C600 0.929 . S
H588 C598 0.929 . S
H589 C593 0.929 . S
H590 C599 0.929 . S
C591 H585 0.930 1_545 S
C591 C592 1.367 . S
C591 C599 1.378 . S
C592 C591 1.367 . S
C592 C600 1.433 . S
C593 H589 0.929 . S
C593 C595 1.378 . S
C593 C597 1.350 . S
C594 C597 1.463 . S
C594 C599 1.350 . S
C594 N602 1.427 . S
C595 H586 0.930 . S
C595 C593 1.378 . S
C595 C596 1.367 . S
C596 C595 1.367 . S
C596 C598 1.433 . S
C597 C593 1.350 . S
C597 C594 1.463 . S
C597 N601 1.427 . S
C598 H588 0.929 . S
C598 C596 1.433 . S
C598 N601 1.384 . S
C599 H590 0.929 . S
C599 C591 1.378 . S
C599 C594 1.350 . S
C600 H587 0.929 . S
C600 C592 1.433 . S
C600 N602 1.384 . S
N601 C597 1.427 . S
N601 C598 1.384 . S
N602 C594 1.427 . S
N602 C600 1.384 . S
H603 C609 0.930 . S
H604 C613 0.930 . S
H605 C618 0.929 . S
H606 C616 0.929 . S
H607 C611 0.929 . S
H608 C617 0.929 . S
C609 H603 0.930 . S
C609 C610 1.367 1_455 S
C609 C617 1.378 1_455 S
C610 C609 1.367 1_655 S
C610 C618 1.433 . S
C611 H607 0.929 . S
C611 C613 1.378 . S
C611 C615 1.350 . S
C612 C615 1.463 . S
C612 C617 1.350 . S
C612 N620 1.427 . S
C613 H604 0.930 . S
C613 C611 1.378 . S
C613 C614 1.367 . S
C614 C613 1.367 . S
C614 C616 1.433 . S
C615 C611 1.350 . S
C615 C612 1.463 . S
C615 N619 1.427 . S
C616 H606 0.929 . S
C616 C614 1.433 . S
C616 N619 1.384 . S
C617 H608 0.929 . S
C617 C609 1.378 1_655 S
C617 C612 1.350 . S
C618 H605 0.929 . S
C618 C610 1.433 . S
C618 N620 1.384 . S
N619 C615 1.427 . S
N619 C616 1.384 . S
N620 C612 1.427 . S
N620 C618 1.384 . S
H621 C627 0.930 . S
H622 C631 0.930 . S
H623 C636 0.929 . S
H624 C634 0.929 . S
H625 C629 0.929 . S
H626 C635 0.929 . S
C627 H621 0.930 . S
C627 C628 1.367 . S
C627 C635 1.378 . S
C628 C627 1.367 . S
C628 C636 1.433 . S
C629 H625 0.929 . S
C629 C631 1.378 . S
C629 C633 1.350 . S
C630 C633 1.463 . S
C630 C635 1.350 . S
C630 N638 1.427 . S
C631 H622 0.930 . S
C631 C629 1.378 . S
C631 C632 1.367 . S
C632 C631 1.367 . S
C632 C634 1.433 . S
C633 C629 1.350 . S
C633 C630 1.463 . S
C633 N637 1.427 . S
C634 H624 0.929 . S
C634 C632 1.433 . S
C634 N637 1.384 . S
C635 H626 0.929 . S
C635 C627 1.378 . S
C635 C630 1.350 . S
C636 H623 0.929 . S
C636 C628 1.433 . S
C636 N638 1.384 . S
N637 C633 1.427 . S
N637 C634 1.384 . S
N638 C630 1.427 . S
N638 C636 1.384 . S
H639 C645 0.930 . S
H640 C649 0.930 . S
H641 C654 0.929 . S
H642 C652 0.929 . S
H643 C647 0.929 . S
H644 C653 0.929 . S
C645 H639 0.930 . S
C645 C646 1.367 . S
C645 C653 1.378 . S
C646 C645 1.367 . S
C646 C654 1.433 . S
C647 H643 0.929 . S
C647 C649 1.378 . S
C647 C651 1.350 . S
C648 C651 1.463 . S
C648 C653 1.350 . S
C648 N656 1.427 . S
C649 H640 0.930 . S
C649 C647 1.378 . S
C649 C650 1.367 . S
C650 C649 1.367 . S
C650 C652 1.433 . S
C651 C647 1.350 . S
C651 C648 1.463 . S
C651 N655 1.427 . S
C652 H642 0.929 . S
C652 C650 1.433 . S
C652 N655 1.384 . S
C653 H644 0.929 . S
C653 C645 1.378 . S
C653 C648 1.350 . S
C654 H641 0.929 . S
C654 C646 1.433 . S
C654 N656 1.384 . S
N655 C651 1.427 . S
N655 C652 1.384 . S
N656 C648 1.427 . S
N656 C654 1.384 . S
H657 C663 0.930 . S
H658 C667 0.930 . S
H659 C672 0.929 . S
H660 C670 0.929 . S
H661 C665 0.929 . S
H662 C671 0.929 . S
C663 H657 0.930 . S
C663 C664 1.367 . S
C663 C671 1.378 . S
C664 C663 1.367 . S
C664 C672 1.433 1_565 S
C665 H661 0.929 . S
C665 C667 1.378 . S
C665 C669 1.350 . S
C666 C669 1.463 . S
C666 C671 1.350 1_545 S
C666 N674 1.427 . S
C667 H658 0.930 . S
C667 C665 1.378 . S
C667 C668 1.367 . S
C668 C667 1.367 . S
C668 C670 1.433 . S
C669 C665 1.350 . S
C669 C666 1.463 . S
C669 N673 1.427 . S
C670 H660 0.929 . S
C670 C668 1.433 . S
C670 N673 1.384 . S
C671 H662 0.929 . S
C671 C663 1.378 . S
C671 C666 1.350 1_565 S
C672 H659 0.929 . S
C672 C664 1.433 1_545 S
C672 N674 1.384 . S
N673 C669 1.427 . S
N673 C670 1.384 . S
N674 C666 1.427 . S
N674 C672 1.384 . S
H675 C681 0.930 . S
H676 C685 0.930 . S
H677 C690 0.929 . S
H678 C688 0.929 . S
H679 C683 0.929 1_655 S
H680 C689 0.929 . S
C681 H675 0.930 . S
C681 C682 1.367 . S
C681 C689 1.378 1_655 S
C682 C681 1.367 . S
C682 C690 1.433 . S
C683 H679 0.929 1_455 S
C683 C685 1.378 . S
C683 C687 1.350 . S
C684 C687 1.463 1_655 S
C684 C689 1.350 1_655 S
C684 N692 1.427 . S
C685 H676 0.930 . S
C685 C683 1.378 . S
C685 C686 1.367 . S
C686 C685 1.367 . S
C686 C688 1.433 . S
C687 C683 1.350 . S
C687 C684 1.463 1_455 S
C687 N691 1.427 . S
C688 H678 0.929 . S
C688 C686 1.433 . S
C688 N691 1.384 . S
C689 H680 0.929 . S
C689 C681 1.378 1_455 S
C689 C684 1.350 1_455 S
C690 H677 0.929 . S
C690 C682 1.433 . S
C690 N692 1.384 . S
N691 C687 1.427 . S
N691 C688 1.384 . S
N692 C684 1.427 . S
N692 C690 1.384 . S
C214 C44 1.086 . S
C218 C17 1.035 . S
C232 C62 1.329 . S
C236 C40 1.261 1_556 S
C250 C64 1.119 1_554 S
C254 C21 1.134 . S
C268 C63 1.084 . S
C272 C39 1.140 . S
C286 C67 0.733 . S
C290 C18 0.727 . S
C304 C16 1.155 . S
C308 C41 1.142 . S
C322 C86 1.141 . S
C326 C113 1.183 . S
C340 C136 1.314 . S
C344 C109 1.268 . S
C358 C132 0.987 . S
C362 C90 1.020 . S
C376 C108 1.101 . S
C380 C133 1.090 . S
C394 C131 0.810 . S
C398 C87 0.812 . S
C412 C110 0.934 . S
C416 C85 0.937 . S
C430 C182 0.953 . S
C434 C155 0.934 . S
C448 C178 1.329 . S
C452 C200 1.392 . S
C466 C202 0.994 . S
C470 C159 0.979 . S
C484 C201 0.944 . S
C488 C177 0.986 . S
C502 C205 0.802 . S
C506 C156 0.811 . S
C520 C154 1.040 . S
C524 C179 1.028 . S
C538 C134 1.567 . S
C542 C20 1.629 . S
C556 C88 1.764 . S
C560 C43 1.856 . S
C574 C65 1.652 . S
C578 C111 1.625 . S
C592 C66 1.582 . S
C596 C158 1.581 . S
C610 C19 1.649 . S
C614 C181 1.730 . S
C628 C203 1.775 . S
C632 C42 1.766 . S
C646 C89 1.725 . S
C650 C204 1.723 . S
C664 C112 1.603 . S
C668 C157 1.536 . S
C682 C180 1.720 . S
C686 C135 1.801 . S
