# Generated by pormake.
# Topology wjw, (5)-cn, num edge types: 1
# Building blocks:
#     Node 0, Type 0, BuildingBlock: BEQFEK_clean_sbu_0, # of connection points: 5
#     Node 1, Type 0, BuildingBlock: BEQFEK_clean_sbu_0, # of connection points: 5
#     Node 2, Type 0, BuildingBlock: BEQFEK_clean_sbu_0, # of connection points: 5
#     Node 3, Type 0, BuildingBlock: BEQFEK_clean_sbu_0, # of connection points: 5
#     Node 4, Type 0, BuildingBlock: BEQFEK_clean_sbu_0, # of connection points: 5
#     Node 5, Type 0, BuildingBlock: BEQFEK_clean_sbu_0, # of connection points: 5
#     Node 6, Type 0, BuildingBlock: BEQFEK_clean_sbu_0, # of connection points: 5
#     Node 7, Type 0, BuildingBlock: BEQFEK_clean_sbu_0, # of connection points: 5
#     Node 8, Type 0, BuildingBlock: BEQFEK_clean_sbu_0, # of connection points: 5
#     Node 9, Type 0, BuildingBlock: BEQFEK_clean_sbu_0, # of connection points: 5
#     Node 10, Type 0, BuildingBlock: BEQFEK_clean_sbu_0, # of connection points: 5
#     Node 11, Type 0, BuildingBlock: BEQFEK_clean_sbu_0, # of connection points: 5
#     Edge 12, Type (0, 0), BuildingBlock: AJUNOK_clean_linker_0, # of connection points: 2
#     Edge 13, Type (0, 0), BuildingBlock: AJUNOK_clean_linker_0, # of connection points: 2
#     Edge 14, Type (0, 0), BuildingBlock: AJUNOK_clean_linker_0, # of connection points: 2
#     Edge 15, Type (0, 0), BuildingBlock: AJUNOK_clean_linker_0, # of connection points: 2
#     Edge 16, Type (0, 0), BuildingBlock: AJUNOK_clean_linker_0, # of connection points: 2
#     Edge 17, Type (0, 0), BuildingBlock: AJUNOK_clean_linker_0, # of connection points: 2
#     Edge 18, Type (0, 0), BuildingBlock: AJUNOK_clean_linker_0, # of connection points: 2
#     Edge 19, Type (0, 0), BuildingBlock: AJUNOK_clean_linker_0, # of connection points: 2
#     Edge 20, Type (0, 0), BuildingBlock: AJUNOK_clean_linker_0, # of connection points: 2
#     Edge 21, Type (0, 0), BuildingBlock: AJUNOK_clean_linker_0, # of connection points: 2
#     Edge 22, Type (0, 0), BuildingBlock: AJUNOK_clean_linker_0, # of connection points: 2
#     Edge 23, Type (0, 0), BuildingBlock: AJUNOK_clean_linker_0, # of connection points: 2
#     Edge 24, Type (0, 0), BuildingBlock: AJUNOK_clean_linker_0, # of connection points: 2
#     Edge 25, Type (0, 0), BuildingBlock: AJUNOK_clean_linker_0, # of connection points: 2
#     Edge 26, Type (0, 0), BuildingBlock: AJUNOK_clean_linker_0, # of connection points: 2
#     Edge 27, Type (0, 0), BuildingBlock: AJUNOK_clean_linker_0, # of connection points: 2
#     Edge 28, Type (0, 0), BuildingBlock: AJUNOK_clean_linker_0, # of connection points: 2
#     Edge 29, Type (0, 0), BuildingBlock: AJUNOK_clean_linker_0, # of connection points: 2
#     Edge 30, Type (0, 0), BuildingBlock: AJUNOK_clean_linker_0, # of connection points: 2
#     Edge 31, Type (0, 0), BuildingBlock: AJUNOK_clean_linker_0, # of connection points: 2
#     Edge 32, Type (0, 0), BuildingBlock: AJUNOK_clean_linker_0, # of connection points: 2
#     Edge 33, Type (0, 0), BuildingBlock: AJUNOK_clean_linker_0, # of connection points: 2
#     Edge 34, Type (0, 0), BuildingBlock: AJUNOK_clean_linker_0, # of connection points: 2
#     Edge 35, Type (0, 0), BuildingBlock: AJUNOK_clean_linker_0, # of connection points: 2
#     Edge 36, Type (0, 0), BuildingBlock: AJUNOK_clean_linker_0, # of connection points: 2
#     Edge 37, Type (0, 0), BuildingBlock: AJUNOK_clean_linker_0, # of connection points: 2
#     Edge 38, Type (0, 0), BuildingBlock: AJUNOK_clean_linker_0, # of connection points: 2
#     Edge 39, Type (0, 0), BuildingBlock: AJUNOK_clean_linker_0, # of connection points: 2
#     Edge 40, Type (0, 0), BuildingBlock: AJUNOK_clean_linker_0, # of connection points: 2
#     Edge 41, Type (0, 0), BuildingBlock: AJUNOK_clean_linker_0, # of connection points: 2
# Relax obj value: 0.314
# Max RMSD: 0.155
# Mean RMSD: 0.148
data_MOF--net-wjw--node1-BEQFEK_clean_sbu_0--edge1-AJUNOK_clean_linker_0
_symmetry_space_group_name_H-M    P1
_symmetry_Int_Tables_number       1
_symmetry_cell_setting            triclinic
loop_
_symmetry_equiv_pos_as_xyz
'x, y, z'
_cell_length_a     31.146709
_cell_length_b     31.090069
_cell_length_c     27.481797
_cell_angle_alpha  90.221018
_cell_angle_beta   89.923165
_cell_angle_gamma 120.01948
loop_
_atom_site_label
_atom_site_type_symbol
_atom_site_fract_x
_atom_site_fract_y
_atom_site_fract_z
_atom_type_partial_charge
Co0 Co 0.25639 0.43145 0.34691 0.0
Co1 Co 0.21408 0.49809 0.37191 0.0
C2 C 0.22129 0.43063 0.446 0.0
O3 O 0.2368 0.41164 0.41492 0.0
O4 O 0.21312 0.46503 0.43364 0.0
C5 C 0.25318 0.34141 0.34913 0.0
O6 O 0.20776 0.32784 0.36291 0.0
C7 C 0.12621 0.49164 0.40545 0.0
C8 C 0.13277 0.56378 0.38725 0.0
C9 C 0.10026 0.51663 0.405 0.0
N10 N 0.17161 0.52196 0.38767 0.0
N11 N 0.17608 0.56553 0.37788 0.0
C12 C 0.1078 0.43885 0.42067 0.0
H13 H 0.12775 0.43886 0.45361 0.0
H14 H 0.11513 0.41841 0.39174 0.0
H15 H 0.0682 0.41864 0.43097 0.0
C16 C 0.16561 0.38676 0.27647 0.0
N17 N 0.19889 0.42115 0.3082 0.0
N18 N 0.18521 0.45412 0.31689 0.0
C19 C 0.14503 0.4435 0.28934 0.0
C20 C 0.12956 0.39946 0.2638 0.0
C21 C 0.16515 0.34 0.26264 0.0
H22 H 0.20358 0.34666 0.26091 0.0
H23 H 0.14439 0.31139 0.29065 0.0
H24 H 0.14636 0.32536 0.22727 0.0
O25 O 0.31656 0.50393 0.35093 0.0
O26 O 0.28307 0.55158 0.36256 0.0
H27 H 0.1515 0.51566 0.29176 0.0
H28 H 0.10774 0.47339 0.24746 0.0
C29 C 0.12306 0.47646 0.28459 0.0
H30 H 0.09216 0.4647 0.31059 0.0
H31 H 0.20746 0.59527 0.36227 0.0
O32 O 0.27993 0.38467 0.33137 0.0
C33 C 0.32136 0.54706 0.35788 0.0
Co34 Co 0.84572 0.25071 0.6779 0.0
Co35 Co 0.73743 0.21691 0.69302 0.0
C36 C 0.8091 0.23196 0.77484 0.0
O37 O 0.84224 0.23327 0.74737 0.0
O38 O 0.7708 0.22999 0.75684 0.0
C39 C 0.93424 0.24968 0.68653 0.0
O40 O 0.90357 0.205 0.7031 0.0
C41 C 0.65274 0.14555 0.74472 0.0
C42 C 0.59042 0.13677 0.69955 0.0
C43 C 0.60259 0.1161 0.73803 0.0
N44 N 0.67028 0.18063 0.7102 0.0
N45 N 0.63268 0.17671 0.68451 0.0
C46 C 0.68352 0.1392 0.78286 0.0
H47 H 0.69996 0.17222 0.80706 0.0
H48 H 0.71372 0.13561 0.76539 0.0
H49 H 0.661 0.10649 0.80628 0.0
C50 C 0.80065 0.15715 0.61126 0.0
N51 N 0.79884 0.19172 0.64055 0.0
N52 N 0.75203 0.17815 0.64778 0.0
C53 C 0.72295 0.13565 0.62268 0.0
C54 C 0.75226 0.11981 0.59911 0.0
C55 C 0.84749 0.15757 0.59846 0.0
H56 H 0.87851 0.19637 0.59521 0.0
H57 H 0.85651 0.13907 0.62791 0.0
H58 H 0.84329 0.137 0.56411 0.0
O59 O 0.83481 0.31211 0.67697 0.0
O60 O 0.75396 0.28198 0.66919 0.0
H61 H 0.65798 0.14038 0.60905 0.0
H62 H 0.65255 0.08219 0.59044 0.0
C63 C 0.66784 0.1118 0.61862 0.0
H64 H 0.6507 0.09545 0.65398 0.0
H65 H 0.63635 0.19852 0.65429 0.0
O66 O 0.91655 0.2738 0.66534 0.0
C67 C 0.79758 0.31902 0.6727 0.0
Co68 Co 0.6192 0.83564 1.00832 0.0
Co69 Co 0.55809 0.73063 0.04833 0.0
C70 C 0.63245 0.80881 0.11111 0.0
O71 O 0.6421 0.84065 0.07777 0.0
O72 O 0.60058 0.76352 0.10438 0.0
C73 C 0.7099 0.92179 0.99993 0.0
O74 O 0.72533 0.89262 1.0175 0.0
C75 C 0.52816 0.637 0.09535 0.0
C76 C 0.45544 0.58776 0.06178 0.0
C77 C 0.49041 0.58812 0.09332 0.0
N78 N 0.51706 0.66379 0.06532 0.0
N79 N 0.47254 0.63468 0.04685 0.0
C80 C 0.57719 0.6566 0.12061 0.0
H81 H 0.60691 0.68855 0.10076 0.0
H82 H 0.58814 0.6279 0.12427 0.0
H83 H 0.57396 0.66891 0.15767 0.0
C84 C 0.65146 0.78118 0.93538 0.0
N85 N 0.62344 0.78303 0.97258 0.0
N86 N 0.59758 0.73829 0.99114 0.0
C87 C 0.60913 0.7072 0.96736 0.0
C88 C 0.64322 0.73255 0.93011 0.0
C89 C 0.68626 0.82541 0.90601 0.0
H90 H 0.67312 0.85262 0.90473 0.0
H91 H 0.72338 0.84357 0.92345 0.0
H92 H 0.68982 0.81412 0.86853 0.0
O93 O 0.55098 0.83039 1.01227 0.0
O94 O 0.5107 0.75507 0.04297 0.0
H95 H 0.55247 0.63206 0.97299 0.0
H96 H 0.61433 0.64008 0.96839 0.0
C97 C 0.59183 0.65539 0.98376 0.0
H98 H 0.5943 0.65445 1.02361 0.0
H99 H 0.45521 0.64629 1.02191 0.0
O100 O 0.66575 0.90222 0.98408 0.0
C101 C 0.5113 0.79444 1.02983 0.0
Co102 Co 0.79637 0.60207 0.33072 0.0
Co103 Co 0.83249 0.53131 0.35933 0.0
C104 C 0.83889 0.60141 0.43169 0.0
O105 O 0.81822 0.61567 0.40074 0.0
O106 O 0.84822 0.5671 0.42121 0.0
C107 C 0.8077 0.6971 0.33983 0.0
O108 O 0.85127 0.70759 0.35688 0.0
C109 C 0.86784 0.46895 0.3969 0.0
C110 C 0.89177 0.44887 0.32947 0.0
C111 C 0.89631 0.44954 0.37982 0.0
N112 N 0.85208 0.4838 0.3588 0.0
N113 N 0.86356 0.46882 0.31848 0.0
C114 C 0.85258 0.46967 0.44848 0.0
H115 H 0.8117 0.45304 0.45008 0.0
H116 H 0.86892 0.5082 0.46188 0.0
H117 H 0.8642 0.44872 0.47259 0.0
C118 C 0.88699 0.63977 0.2609 0.0
N119 N 0.85213 0.60688 0.29231 0.0
N120 N 0.86843 0.57841 0.30959 0.0
C121 C 0.91498 0.59442 0.29357 0.0
C122 C 0.9283 0.63239 0.25948 0.0
C123 C 0.88246 0.67985 0.23583 0.0
H124 H 0.84298 0.66994 0.23365 0.0
H125 H 0.90307 0.71486 0.25697 0.0
H126 H 0.89872 0.68611 0.19879 0.0
O127 O 0.7297 0.53579 0.32963 0.0
O128 O 0.76086 0.48951 0.35278 0.0
H129 H 0.94999 0.55072 0.30592 0.0
H130 H 0.98889 0.61582 0.31902 0.0
C131 C 0.95043 0.58395 0.32103 0.0
H132 H 0.93917 0.5764 0.35979 0.0
H133 H 0.85655 0.4768 0.28341 0.0
O134 O 0.78106 0.65558 0.31855 0.0
C135 C 0.72365 0.49354 0.34187 0.0
Co136 Co 0.21663 0.79159 0.67864 0.0
Co137 Co 0.32317 0.83577 0.71466 0.0
C138 C 0.24972 0.83316 0.78121 0.0
O139 O 0.21676 0.80975 0.74896 0.0
O140 O 0.29494 0.84763 0.7729 0.0
C141 C 0.12992 0.79725 0.67922 0.0
O142 O 0.16049 0.84122 0.6977 0.0
C143 C 0.41866 0.88737 0.76137 0.0
C144 C 0.46761 0.8939 0.70056 0.0
C145 C 0.46776 0.91109 0.74732 0.0
N146 N 0.3909 0.86079 0.7236 0.0
N147 N 0.42032 0.86252 0.68818 0.0
C148 C 0.39834 0.89297 0.80882 0.0
H149 H 0.36967 0.85594 0.82216 0.0
H150 H 0.38071 0.91588 0.80328 0.0
H151 H 0.4281 0.91103 0.83655 0.0
C152 C 0.26813 0.881 0.60867 0.0
N153 N 0.26779 0.84941 0.64302 0.0
N154 N 0.31264 0.86881 0.66129 0.0
C155 C 0.34206 0.91405 0.64148 0.0
C156 C 0.3157 0.92394 0.6063 0.0
C157 C 0.2236 0.86949 0.57872 0.0
H158 H 0.20025 0.82872 0.57358 0.0
H159 H 0.20097 0.88247 0.5983 0.0
H160 H 0.23469 0.88803 0.54277 0.0
O161 O 0.2222 0.72848 0.67882 0.0
O162 O 0.2982 0.76405 0.70781 0.0
H163 H 0.42072 0.94482 0.64429 0.0
H164 H 0.40087 0.98941 0.65563 0.0
C165 C 0.3919 0.95056 0.66187 0.0
H166 H 0.3926 0.94494 0.70156 0.0
H167 H 0.40795 0.84591 0.65412 0.0
O168 O 0.14797 0.77236 0.66018 0.0
C169 C 0.25901 0.72518 0.69454 0.0
Co170 Co 0.43918 0.20376 1.01657 0.0
Co171 Co 0.49831 0.30938 0.05728 0.0
C172 C 0.42226 0.23168 0.11785 0.0
O173 O 0.414 0.19982 0.08474 0.0
O174 O 0.45441 0.27685 0.11171 0.0
C175 C 0.34799 0.11791 1.00933 0.0
O176 O 0.33291 0.14879 1.02274 0.0
C177 C 0.52476 0.40338 0.10299 0.0
C178 C 0.59926 0.45247 0.07302 0.0
C179 C 0.56231 0.45239 0.10143 0.0
N180 N 0.53779 0.37633 0.07515 0.0
N181 N 0.58331 0.40539 0.05905 0.0
C182 C 0.47451 0.3839 0.12579 0.0
H183 H 0.44621 0.3497 0.10741 0.0
H184 H 0.46205 0.41159 0.12445 0.0
H185 H 0.47677 0.37549 0.16457 0.0
C186 C 0.40725 0.25754 0.94246 0.0
N187 N 0.43498 0.2559 0.97998 0.0
N188 N 0.46043 0.30077 0.99877 0.0
C189 C 0.44915 0.3317 0.9747 0.0
C190 C 0.41551 0.30614 0.93718 0.0
C191 C 0.37229 0.21314 0.91312 0.0
H192 H 0.38447 0.18516 0.91299 0.0
H193 H 0.33485 0.19614 0.92973 0.0
H194 H 0.36979 0.2241 0.87529 0.0
O195 O 0.50834 0.21041 1.02267 0.0
O196 O 0.54605 0.28551 0.05447 0.0
H197 H 0.50647 0.40588 0.98567 0.0
H198 H 0.44671 0.40057 0.9728 0.0
C199 C 0.46594 0.38346 0.99139 0.0
H200 H 0.45821 0.38327 1.03043 0.0
H201 H 0.6022 0.39361 1.03616 0.0
O202 O 0.39236 0.1357 0.99441 0.0
C203 C 0.547 0.24676 1.04165 0.0
Co204 Co 0.62009 0.79665 0.41673 0.0
Co205 Co 0.56006 0.84307 0.37905 0.0
C206 C 0.63146 0.83597 0.31424 0.0
O207 O 0.64036 0.81284 0.34703 0.0
O208 O 0.60169 0.85174 0.3223 0.0
C209 C 0.71115 0.80041 0.41961 0.0
O210 O 0.72624 0.84562 0.40393 0.0
C211 C 0.52211 0.8945 0.32212 0.0
C212 C 0.48217 0.91238 0.3773 0.0
C213 C 0.49959 0.92229 0.32985 0.0
N214 N 0.52124 0.87189 0.36384 0.0
N215 N 0.4948 0.88036 0.39599 0.0
C216 C 0.54467 0.89056 0.27545 0.0
H217 H 0.53416 0.85129 0.26861 0.0
H218 H 0.58546 0.91305 0.27812 0.0
H219 H 0.53227 0.90445 0.24442 0.0
C220 C 0.66083 0.88808 0.48532 0.0
N221 N 0.62851 0.85616 0.45149 0.0
N222 N 0.6028 0.87579 0.43405 0.0
C223 C 0.61893 0.92095 0.45497 0.0
C224 C 0.6562 0.93066 0.48862 0.0
C225 C 0.69884 0.88048 0.51075 0.0
H226 H 0.68671 0.84035 0.51251 0.0
H227 H 0.73425 0.89994 0.4903 0.0
H228 H 0.7056 0.89655 0.54798 0.0
O229 O 0.55001 0.73494 0.41528 0.0
O230 O 0.51082 0.77152 0.38567 0.0
H231 H 0.62687 0.99444 0.45328 0.0
H232 H 0.59715 0.95574 0.40077 0.0
C233 C 0.60128 0.95596 0.44081 0.0
H234 H 0.56473 0.94365 0.45791 0.0
H235 H 0.48889 0.86755 0.43178 0.0
O236 O 0.66734 0.77509 0.43644 0.0
C237 C 0.51028 0.73217 0.39892 0.0
Co238 Co 0.83967 0.61095 0.7404 0.0
Co239 Co 0.73891 0.55722 0.69019 0.0
C240 C 0.82257 0.62533 0.63365 0.0
O241 O 0.85073 0.63013 0.66922 0.0
O242 O 0.77607 0.60055 0.63805 0.0
C243 C 0.92641 0.70117 0.74854 0.0
O244 O 0.89802 0.71739 0.73075 0.0
C245 C 0.6528 0.52644 0.62867 0.0
C246 C 0.59317 0.47179 0.67551 0.0
C247 C 0.60192 0.49752 0.63205 0.0
N248 N 0.67296 0.51981 0.66905 0.0
N249 N 0.63729 0.48558 0.69607 0.0
C250 C 0.68145 0.5611 0.5881 0.0
H251 H 0.71039 0.55296 0.57516 0.0
H252 H 0.69976 0.60002 0.60146 0.0
H253 H 0.65698 0.55688 0.55692 0.0
C254 C 0.78137 0.64586 0.8063 0.0
N255 N 0.78583 0.61838 0.76999 0.0
N256 N 0.74391 0.59653 0.74573 0.0
C257 C 0.71308 0.61177 0.76303 0.0
C258 C 0.73437 0.64244 0.80392 0.0
C259 C 0.82188 0.67556 0.84189 0.0
H260 H 0.84752 0.66059 0.84451 0.0
H261 H 0.8433 0.71456 0.82914 0.0
H262 H 0.80618 0.67524 0.87826 0.0
O263 O 0.83055 0.54145 0.74048 0.0
O264 O 0.76145 0.50783 0.69767 0.0
H265 H 0.63714 0.56806 0.74078 0.0
H266 H 0.65962 0.63427 0.74379 0.0
C267 C 0.66943 0.60554 0.73425 0.0
H268 H 0.67814 0.60849 0.69485 0.0
H269 H 0.64288 0.47418 0.73 0.0
O270 O 0.90618 0.65748 0.76594 0.0
C271 C 0.79687 0.50457 0.71683 0.0
Co272 Co 0.2579 0.83574 0.08926 0.0
Co273 Co 0.21743 0.73143 0.04789 0.0
C274 C 0.2229 0.8075 0.98416 0.0
O275 O 0.24323 0.83921 1.01824 0.0
O276 O 0.20912 0.7622 0.99087 0.0
C277 C 0.24849 0.91947 0.09166 0.0
O278 O 0.20435 0.88741 0.07479 0.0
C279 C 0.16405 0.63762 0.99778 0.0
C280 C 0.1592 0.5865 0.05552 0.0
C281 C 0.14011 0.588 1.0103 0.0
N282 N 0.19255 0.66407 1.03529 0.0
N283 N 0.19169 0.63333 0.06867 0.0
C284 C 0.15735 0.65967 0.95205 0.0
H285 H 0.19417 0.68724 0.93736 0.0
H286 H 0.13654 0.67915 0.96017 0.0
H287 H 0.13694 0.63055 0.92411 0.0
C288 C 0.16448 0.77853 0.15498 0.0
N289 N 0.19875 0.78218 0.12176 0.0
N290 N 0.18116 0.73888 0.10016 0.0
C291 C 0.13449 0.70791 0.11567 0.0
C292 C 0.12212 0.73047 0.15313 0.0
C293 C 0.17119 0.82099 0.18604 0.0
H294 H 0.21117 0.84886 0.18978 0.0
H295 H 0.15226 0.83912 0.1686 0.0
H296 H 0.1545 0.80754 0.22248 0.0
O297 O 0.32176 0.83152 0.08979 0.0
O298 O 0.28859 0.75665 0.0577 0.0
H299 H 0.10346 0.63133 0.09543 0.0
H300 H 0.05977 0.6536 0.093 0.0
C301 C 0.09879 0.66347 0.08644 0.0
H302 H 0.10684 0.67163 0.04722 0.0
H303 H 0.20959 0.64451 0.10231 0.0
O304 O 0.2749 0.90307 0.11021 0.0
C305 C 0.32645 0.79575 0.07289 0.0
Co306 Co 0.43733 0.24368 0.42063 0.0
Co307 Co 0.48894 0.19435 0.37167 0.0
C308 C 0.41297 0.19959 0.31775 0.0
O309 O 0.41118 0.22678 0.35156 0.0
O310 O 0.44051 0.18071 0.32164 0.0
C311 C 0.34777 0.23875 0.43291 0.0
O312 O 0.33231 0.19314 0.41786 0.0
C313 C 0.52349 0.141 0.31222 0.0
C314 C 0.57638 0.13628 0.36184 0.0
C315 C 0.55232 0.11915 0.31748 0.0
N316 N 0.52815 0.1674 0.35252 0.0
N317 N 0.56153 0.16637 0.38119 0.0
C318 C 0.48995 0.13447 0.27046 0.0
H319 H 0.49557 0.17116 0.25917 0.0
H320 H 0.45092 0.11088 0.28213 0.0
H321 H 0.49726 0.11667 0.23889 0.0
C322 C 0.40469 0.15455 0.48998 0.0
N323 N 0.43243 0.18513 0.45325 0.0
N324 N 0.45375 0.16385 0.43001 0.0
C325 C 0.43844 0.11839 0.44901 0.0
C326 C 0.40693 0.11021 0.48865 0.0
C327 C 0.37743 0.16842 0.52576 0.0
H328 H 0.3974 0.20931 0.53109 0.0
H329 H 0.34011 0.15731 0.51116 0.0
H330 H 0.37347 0.14974 0.56118 0.0
O331 O 0.50609 0.30553 0.41482 0.0
O332 O 0.53655 0.26682 0.37277 0.0
H333 H 0.48342 0.0853 0.43658 0.0
H334 H 0.41759 0.04208 0.43272 0.0
C335 C 0.44733 0.08045 0.42434 0.0
H336 H 0.44878 0.08554 0.38437 0.0
H337 H 0.57137 0.18322 0.4154 0.0
O338 O 0.39227 0.26458 0.44767 0.0
C339 C 0.54118 0.30702 0.38951 0.0
Co340 Co 0.22211 0.43437 0.756 0.0
Co341 Co 0.32376 0.49099 0.70734 0.0
C342 C 0.24089 0.41978 0.65018 0.0
O343 O 0.21173 0.41358 0.68527 0.0
O344 O 0.28708 0.44777 0.65457 0.0
C345 C 0.13506 0.34484 0.76323 0.0
O346 O 0.16328 0.32848 0.74502 0.0
C347 C 0.40794 0.52551 0.64294 0.0
C348 C 0.4701 0.56678 0.6937 0.0
C349 C 0.45879 0.54835 0.64654 0.0
N350 N 0.38984 0.52803 0.68655 0.0
N351 N 0.42724 0.55467 0.71622 0.0
C352 C 0.37743 0.5021 0.59822 0.0
H353 H 0.34943 0.51396 0.59411 0.0
H354 H 0.35754 0.46112 0.6015 0.0
H355 H 0.40115 0.5128 0.56523 0.0
C356 C 0.28012 0.39859 0.82009 0.0
N357 N 0.27624 0.42777 0.78556 0.0
N358 N 0.31823 0.45018 0.76151 0.0
C359 C 0.34821 0.43309 0.77662 0.0
C360 C 0.32667 0.40114 0.81642 0.0
C361 C 0.23918 0.36765 0.8547 0.0
H362 H 0.21373 0.38274 0.85856 0.0
H363 H 0.21769 0.32921 0.84022 0.0
H364 H 0.25448 0.36646 0.8908 0.0
O365 O 0.23022 0.50343 0.75549 0.0
O366 O 0.30155 0.54063 0.71631 0.0
H367 H 0.42408 0.47274 0.75312 0.0
H368 H 0.39645 0.40586 0.75176 0.0
C369 C 0.38968 0.43721 0.74544 0.0
H370 H 0.38038 0.43718 0.70649 0.0
H371 H 0.42332 0.56114 0.75281 0.0
O372 O 0.15571 0.38817 0.7818 0.0
C373 C 0.26455 0.54181 0.73443 0.0
Co374 Co 0.80797 0.21089 0.08126 0.0
Co375 Co 0.83765 0.31858 0.06855 0.0
C376 C 0.82621 0.24845 0.98522 0.0
O377 O 0.82564 0.21522 1.01192 0.0
O378 O 0.82679 0.28594 1.00413 0.0
C379 C 0.81178 0.1239 0.07278 0.0
O380 O 0.85599 0.15466 0.05537 0.0
C381 C 0.90477 0.40606 1.01686 0.0
C382 C 0.9156 0.46603 0.06712 0.0
C383 C 0.93454 0.45591 1.02571 0.0
N384 N 0.87137 0.38655 0.05287 0.0
N385 N 0.87636 0.4229 0.08165 0.0
C386 C 0.91034 0.37738 0.9757 0.0
H387 H 0.87589 0.36002 0.95371 0.0
H388 H 0.91699 0.34797 0.99023 0.0
H389 H 0.94117 0.40175 0.951 0.0
C390 C 0.90137 0.25718 0.14631 0.0
N391 N 0.86589 0.25859 0.11857 0.0
N392 N 0.87779 0.30528 0.11322 0.0
C393 C 0.92011 0.33458 0.13848 0.0
C394 C 0.93731 0.30547 0.15979 0.0
C395 C 0.90218 0.21083 0.15851 0.0
H396 H 0.86384 0.17897 0.16118 0.0
H397 H 0.92198 0.20305 0.12928 0.0
H398 H 0.92225 0.21545 0.19324 0.0
O399 O 0.7447 0.21812 0.08262 0.0
O400 O 0.77116 0.29829 0.09184 0.0
H401 H 0.91687 0.39959 0.15715 0.0
H402 H 0.97697 0.40559 0.16698 0.0
C403 C 0.94412 0.38979 0.14266 0.0
H404 H 0.95594 0.40652 0.10629 0.0
H405 H 0.85618 0.41764 0.11359 0.0
O406 O 0.78746 0.14122 0.09431 0.0
C407 C 0.73556 0.25385 0.08756 0.0
C408 C 0.98976 0.33766 0.23621 0.0
C409 C 0.98558 0.32356 0.18691 0.0
C410 C 0.0359 0.36014 0.26082 0.0
C411 C 0.08039 0.37007 0.23737 0.0
H412 H 0.9572 0.33229 0.2557 0.0
H413 H 0.03687 0.37073 0.29857 0.0
S414 S 0.09004 0.34232 0.10762 0.0
N415 N 0.03023 0.32177 0.1153 0.0
N416 N 0.11662 0.36491 0.16085 0.0
C417 C 0.07657 0.35585 0.18806 0.0
C418 C 0.02943 0.33257 0.16309 0.0
C419 C 0.67943 0.97998 0.56786 0.0
C420 C 0.68664 0.9782 0.51738 0.0
C421 C 0.70228 0.02547 0.59408 0.0
C422 C 0.73391 0.07144 0.57133 0.0
H423 H 0.65438 0.94613 0.58695 0.0
H424 H 0.69411 0.02484 0.63246 0.0
S425 S 0.76584 0.08736 0.44002 0.0
N426 N 0.72883 0.0268 0.44599 0.0
N427 N 0.77118 0.11154 0.49487 0.0
C428 C 0.74246 0.06993 0.52117 0.0
C429 C 0.71905 0.02368 0.49443 0.0
C430 C 0.71772 0.73616 0.88536 0.0
C431 C 0.66623 0.71149 0.89509 0.0
C432 C 0.73955 0.71426 0.85615 0.0
C433 C 0.71133 0.6659 0.83614 0.0
H434 H 0.74166 0.77247 0.90104 0.0
H435 H 0.77892 0.73579 0.8491 0.0
S436 S 0.57467 0.58559 0.84992 0.0
N437 N 0.58729 0.63766 0.8778 0.0
N438 N 0.62852 0.59362 0.83125 0.0
C439 C 0.65991 0.64084 0.84639 0.0
C440 C 0.63746 0.66425 0.87346 0.0
C441 C 0.04952 0.73339 0.19639 0.0
C442 C 0.07362 0.70693 0.18209 0.0
C443 C 1.00282 0.70986 0.22077 0.0
C444 C 0.97691 0.65827 0.23076 0.0
H445 H 0.06641 0.77255 0.18832 0.0
H446 H 0.98737 0.73261 0.2322 0.0
S447 S 1.02253 0.57133 0.20009 0.0
N448 N 0.06845 0.62632 0.18423 0.0
N449 N 0.97827 0.58136 0.21975 0.0
C450 C 1.00004 0.63145 0.21502 0.0
C451 C 0.04869 0.6558 0.19359 0.0
C452 C 0.40757 0.03841 0.53187 0.0
C453 C 0.38165 0.06338 0.5198 0.0
C454 C 0.38524 0.99317 0.5577 0.0
C455 C 0.33611 0.97081 0.57534 0.0
H456 H 0.44591 0.05385 0.52106 0.0
H457 H 0.40722 0.97563 0.56405 0.0
S458 S 0.25117 0.02078 0.55542 0.0
N459 N 0.30223 0.06018 0.5263 0.0
N460 N 0.26271 0.97923 0.57998 0.0
C461 C 0.30979 0.99577 0.56454 0.0
C462 C 0.33198 0.04102 0.53614 0.0
C463 C 0.32009 0.32737 0.8659 0.0
C464 C 0.34912 0.37571 0.84632 0.0
C465 C 0.34132 0.30413 0.89373 0.0
C466 C 0.39293 0.32732 0.90222 0.0
H467 H 0.28051 0.30696 0.85979 0.0
H468 H 0.31688 0.26812 0.90953 0.0
S469 S 0.48661 0.45176 0.85677 0.0
N470 N 0.43311 0.44594 0.84012 0.0
N471 N 0.47279 0.39908 0.88362 0.0
C472 C 0.42248 0.37409 0.88041 0.0
C473 C 0.4008 0.39901 0.85502 0.0
C474 C 0.19241 0.43165 0.53086 0.0
C475 C 0.21657 0.4159 0.49793 0.0
C476 C 0.19437 0.42582 0.58108 0.0
C477 C 0.22209 0.40571 0.60037 0.0
H478 H 0.17452 0.45168 0.5184 0.0
H479 H 0.17849 0.44201 0.60501 0.0
S480 S 0.28807 0.35396 0.53098 0.0
N481 N 0.26456 0.37394 0.48882 0.0
N482 N 0.27055 0.36589 0.58367 0.0
C483 C 0.24366 0.38674 0.56824 0.0
C484 C 0.24046 0.39124 0.51689 0.0
C485 C 0.79466 0.2594 0.85496 0.0
C486 C 0.81522 0.23544 0.82826 0.0
C487 C 0.79895 0.26355 0.90553 0.0
C488 C 0.82318 0.2431 0.9317 0.0
H489 H 0.77538 0.2756 0.83658 0.0
H490 H 0.7825 0.28248 0.92434 0.0
S491 S 0.88294 0.17602 0.87918 0.0
N492 N 0.86098 0.19107 0.83149 0.0
N493 N 0.86794 0.19773 0.92732 0.0
C494 C 0.84361 0.21859 0.90565 0.0
C495 C 0.84007 0.21521 0.85372 0.0
C496 C 0.64997 0.87322 0.23108 0.0
C497 C 0.64912 0.83796 0.26371 0.0
C498 C 0.65058 0.8668 0.18063 0.0
C499 C 0.65059 0.82495 0.16125 0.0
H500 H 0.64694 0.90432 0.24444 0.0
H501 H 0.64637 0.89224 0.15695 0.0
S502 S 0.66476 0.73078 0.23074 0.0
N503 N 0.65991 0.7661 0.27291 0.0
N504 N 0.66189 0.75458 0.17802 0.0
C505 C 0.6571 0.79356 0.19335 0.0
C506 C 0.6564 0.80004 0.24472 0.0
C507 C 0.81597 0.64951 0.54946 0.0
C508 C 0.84175 0.63728 0.58356 0.0
C509 C 0.81871 0.64187 0.4996 0.0
C510 C 0.84686 0.62107 0.48215 0.0
H511 H 0.79016 0.66103 0.56173 0.0
H512 H 0.79536 0.6485 0.47519 0.0
S513 S 0.92934 0.59263 0.55585 0.0
N514 N 0.90227 0.61088 0.59606 0.0
N515 N 0.90809 0.59706 0.50219 0.0
C516 C 0.87724 0.61413 0.51541 0.0
C517 C 0.87466 0.62228 0.56622 0.0
C518 C 0.18608 0.78837 0.90133 0.0
C519 C 0.22133 0.82315 0.93389 0.0
C520 C 0.19262 0.79468 0.85099 0.0
C521 C 0.23489 0.83582 0.83164 0.0
H522 H 0.15514 0.75418 0.91477 0.0
H523 H 0.16688 0.76487 0.82742 0.0
S524 S 0.33079 0.94382 0.90094 0.0
N525 N 0.29456 0.90482 0.94316 0.0
N526 N 0.30666 0.91684 0.84823 0.0
C527 C 0.26687 0.87389 0.86359 0.0
C528 C 0.26005 0.8676 0.91493 0.0
C529 C 0.40386 0.25262 0.19994 0.0
C530 C 0.40046 0.21618 0.16698 0.0
C531 C 0.40026 0.24433 0.25017 0.0
C532 C 0.39338 0.19939 0.26889 0.0
H533 H 0.41376 0.28934 0.18724 0.0
H534 H 0.40868 0.27525 0.27426 0.0
S535 S 0.36551 0.08668 0.19786 0.0
N536 N 0.37748 0.12948 0.15631 0.0
N537 N 0.37048 0.11392 0.25095 0.0
C538 C 0.38191 0.16012 0.23624 0.0
C539 C 0.38548 0.16849 0.18504 0.0
C540 C 0.96374 0.43082 0.38382 0.0
C541 C 0.94337 0.45903 0.40146 0.0
C542 C 1.01451 0.44893 0.38646 0.0
C543 C 0.04642 0.49463 0.4093 0.0
H544 H 0.94106 0.39698 0.36333 0.0
H545 H 1.02877 0.42825 0.36743 0.0
S546 S 1.01208 0.58147 0.46484 0.0
N547 N 0.95961 0.53515 0.44388 0.0
N548 N 0.05457 0.56623 0.45252 0.0
C549 C 1.02634 0.52146 0.43041 0.0
C550 C 0.97477 0.50409 0.42623 0.0
C551 C 0.52347 0.04738 0.76765 0.0
C552 C 0.57244 0.06445 0.75365 0.0
C553 C 0.49029 0.99671 0.77173 0.0
C554 C 0.50525 0.96149 0.76216 0.0
H555 H 0.50984 0.07315 0.77198 0.0
H556 H 0.45187 0.98577 0.77724 0.0
S557 S 0.63085 0.98752 0.7284 0.0
N558 N 0.63545 0.04261 0.73264 0.0
N559 N 0.57297 0.94715 0.74285 0.0
C560 C 0.55519 0.97834 0.7524 0.0
C561 C 0.5889 0.02995 0.74729 0.0
C562 C 0.53572 0.50598 0.14369 0.0
C563 C 0.55066 0.4924 0.10082 0.0
C564 C 0.51219 0.53431 0.1415 0.0
C565 C 0.50146 0.54781 0.09634 0.0
H566 H 0.54137 0.49376 0.17875 0.0
H567 H 0.50337 0.54669 0.17501 0.0
S568 S 0.5322 0.52029 0.97407 0.0
N569 N 0.55506 0.49633 1.01249 0.0
N570 N 0.50571 0.54411 1.00827 0.0
C571 C 0.51498 0.53307 0.05349 0.0
C572 C 0.54135 0.50713 0.05576 0.0
C573 C 0.47719 0.98278 0.29975 0.0
C574 C 0.51362 0.96963 0.30619 0.0
C575 C 0.49038 0.03254 0.29567 0.0
C576 C 0.54053 0.07048 0.29793 0.0
H577 H 0.43829 0.95503 0.30313 0.0
H578 H 0.46066 0.04089 0.2973 0.0
S579 S 0.65019 0.05471 0.306 0.0
N580 N 0.60218 0.99787 0.30865 0.0
N581 N 0.62655 0.09137 0.29888 0.0
C582 C 0.57731 0.05729 0.29773 0.0
C583 C 0.56399 1.0067 0.30258 0.0
C584 C 0.57777 0.55961 0.60993 0.0
C585 C 0.56572 0.50947 0.61128 0.0
C586 C 0.5409 0.57237 0.61352 0.0
C587 C 0.4912 0.53551 0.61896 0.0
H588 H 0.61573 0.58947 0.61298 0.0
H589 H 0.55189 0.61117 0.61836 0.0
S590 S 0.44029 0.39896 0.61292 0.0
N591 N 0.50086 0.42318 0.60813 0.0
N592 N 0.4311 0.44671 0.6168 0.0
C593 C 0.47824 0.48534 0.61311 0.0
C594 C 0.51586 0.47246 0.60879 0.0
C595 C 1.00356 0.53534 0.99646 0.0
C596 C 0.98597 0.48599 1.00945 0.0
C597 C 0.05416 0.56762 0.99031 0.0
C598 C 0.0888 0.55147 0.99718 0.0
H599 H 0.9784 0.54983 0.99407 0.0
H600 H 0.06573 0.60627 0.98508 0.0
S601 S 0.06087 0.42434 1.0275 0.0
N602 N 1.00645 0.42125 1.02643 0.0
N603 N 0.10165 0.48212 1.01298 0.0
C604 C 0.07117 0.50116 1.00612 0.0
C605 C 1.0197 0.46833 1.01305 0.0
C606 C 0.32725 0.3394 0.38036 0.0
C607 C 0.27667 0.31364 0.36795 0.0
C608 C 0.34924 0.31545 0.40394 0.0
C609 C 0.3217 0.26456 0.41543 0.0
H610 H 0.34998 0.37871 0.37281 0.0
H611 H 0.38853 0.33688 0.41194 0.0
S612 S 0.18779 0.18043 0.39123 0.0
N613 N 0.19934 0.23469 0.36963 0.0
N614 N 0.241 0.18935 0.41313 0.0
C615 C 0.27104 0.2384 0.40338 0.0
C616 C 0.24848 0.26297 0.37983 0.0
C617 C 1.0089 0.24732 0.71597 0.0
C618 C 0.98637 0.27531 0.70352 0.0
C619 C 0.05643 0.26988 0.7367 0.0
C620 C 0.08275 0.32109 0.74699 0.0
H621 H 0.98967 0.20759 0.70954 0.0
H622 H 0.07277 0.24704 0.74464 0.0
S623 S 0.03992 0.41106 0.72217 0.0
N624 N 0.99396 0.35713 0.70328 0.0
N625 N 0.08272 0.39935 0.74288 0.0
C626 C 0.0604 0.3495 0.73521 0.0
C627 C 1.01244 0.32669 0.71322 0.0
C628 C 0.8099 0.04511 0.0507 0.0
C629 C 0.78541 0.07254 0.05433 0.0
C630 C 0.78593 0.99703 1.03091 0.0
C631 C 0.73707 0.97524 1.01294 0.0
H632 H 0.84754 0.06062 0.06398 0.0
H633 H 0.80557 0.97648 1.03049 0.0
S634 S 0.65942 0.03512 1.00853 0.0
N635 N 0.71143 0.07668 1.03492 0.0
N636 N 0.66662 0.98702 0.99678 0.0
C637 C 0.71317 1.00358 1.01423 0.0
C638 C 0.73723 0.05201 1.03528 0.0
C639 C 0.7326 0.7008 0.36508 0.0
C640 C 0.78427 0.72547 0.3579 0.0
C641 C 0.7097 0.72467 0.38737 0.0
C642 C 0.73739 0.77449 0.40267 0.0
H643 H 0.70957 0.66228 0.35438 0.0
H644 H 0.66974 0.70418 0.39139 0.0
S645 S 0.87356 0.85604 0.39187 0.0
N646 N 0.86251 0.80252 0.36821 0.0
N647 N 0.81909 0.84792 0.4088 0.0
C648 C 0.78896 0.7998 0.3954 0.0
C649 C 0.81248 0.77518 0.3734 0.0
C650 C 0.05716 0.80004 0.71475 0.0
C651 C 0.0765 0.7724 0.69242 0.0
C652 C 1.00877 0.77676 0.73354 0.0
C653 C 0.97837 0.72491 0.73184 0.0
H654 H 0.07975 0.84 0.71832 0.0
H655 H 0.99523 0.79943 0.75002 0.0
S656 S 1.00895 0.63554 0.67379 0.0
N657 N 0.05946 0.69016 0.66687 0.0
N658 N 0.96924 0.6467 0.70309 0.0
C659 C 0.9966 0.69684 0.70869 0.0
C660 C 0.04542 0.72051 0.68869 0.0
C661 C 0.34762 0.04273 1.04126 0.0
C662 C 0.32087 0.06617 1.0274 0.0
C663 C 0.32427 0.99649 0.06433 0.0
C664 C 0.27299 0.97129 0.07383 0.0
H665 H 0.38728 0.06069 1.03535 0.0
H666 H 0.34655 0.97988 0.07362 0.0
S667 S 0.18601 1.01637 0.04468 0.0
N668 N 0.24038 0.06095 1.02526 0.0
N669 N 0.19611 0.97318 0.06756 0.0
C670 C 0.2457 0.99413 0.06001 0.0
C671 C 0.26969 0.04169 1.03707 0.0
C672 C 0.41966 0.68374 0.37657 0.0
C673 C 0.46305 0.68325 0.39055 0.0
C674 C 0.37537 0.64003 0.36472 0.0
C675 C 0.37148 0.59286 0.3658 0.0
H676 H 0.41962 0.71851 0.37458 0.0
H677 H 0.34357 0.64349 0.35484 0.0
S678 S 0.47358 0.56965 0.40005 0.0
N679 N 0.49892 0.6306 0.40463 0.0
N680 N 0.41563 0.54844 0.38263 0.0
C681 C 0.4145 0.59144 0.37952 0.0
C682 C 0.45999 0.63637 0.3919 0.0
C683 C 0.76017 0.41836 0.68188 0.0
C684 C 0.79976 0.45836 0.70666 0.0
C685 C 0.76144 0.37528 0.66892 0.0
C686 C 0.80237 0.36931 0.67989 0.0
H687 H 0.72727 0.41997 0.67232 0.0
H688 H 0.72919 0.34579 0.65082 0.0
S689 S 0.91714 0.46325 0.74272 0.0
N690 N 0.88245 0.48962 0.74017 0.0
N691 N 0.88453 0.40829 0.7164 0.0
C692 C 0.8429 0.40931 0.7038 0.0
C693 C 0.84161 0.45361 0.71712 0.0
C694 C 0.42051 0.7538 0.04915 0.0
C695 C 0.46543 0.79783 1.03934 0.0
C696 C 0.37712 0.7543 0.0619 0.0
C697 C 0.37587 0.79888 0.06606 0.0
H698 H 0.41853 0.71805 0.04685 0.0
H699 H 0.34383 0.71892 0.06812 0.0
S700 S 0.4832 0.9252 0.04534 0.0
N701 N 0.50599 0.88798 1.03563 0.0
N702 N 0.42414 0.88883 0.05946 0.0
C703 C 0.42054 0.84351 0.05703 0.0
C704 C 0.46513 0.843 0.04357 0.0
C705 C 0.59222 0.40221 0.38752 0.0
C706 C 0.58683 0.3554 0.37566 0.0
C707 C 0.63483 0.44737 0.37352 0.0
C708 C 0.67381 0.44761 0.34703 0.0
H709 H 0.56363 0.40408 0.40829 0.0
H710 H 0.63823 0.48219 0.38539 0.0
S711 S 0.67756 0.3363 0.30369 0.0
N712 N 0.62453 0.31345 0.33323 0.0
N713 N 0.70299 0.39717 0.30751 0.0
C714 C 0.66812 0.4013 0.33371 0.0
C715 C 0.62525 0.35568 0.34781 0.0
C716 C 0.30228 0.67584 0.70326 0.0
C717 C 0.25728 0.67637 0.70152 0.0
C718 C 0.30395 0.63273 0.71497 0.0
C719 C 0.26077 0.58767 0.72638 0.0
H720 H 0.33703 0.70937 0.69565 0.0
H721 H 0.33979 0.63496 0.71516 0.0
S722 S 0.13286 0.56819 0.72711 0.0
N723 N 0.16795 0.62725 0.71213 0.0
N724 N 0.171 0.5462 0.7344 0.0
C725 C 0.21526 0.58738 0.72482 0.0
C726 C 0.21352 0.63149 0.71221 0.0
C727 C 0.63172 0.28466 0.07959 0.0
C728 C 0.59326 0.24464 0.05357 0.0
C729 C 0.67564 0.28544 0.09265 0.0
C730 C 0.68425 0.24634 0.0805 0.0
H731 H 0.62835 0.31647 0.09001 0.0
H732 H 0.70379 0.31798 0.11163 0.0
S733 S 0.5954 0.13123 1.01426 0.0
N734 N 0.56635 0.1634 1.01779 0.0
N735 N 0.64939 0.16517 1.04171 0.0
C736 C 0.64577 0.20521 0.0556 0.0
C737 C 0.60046 0.20433 1.04227 0.0
loop_
_geom_bond_atom_site_label_1
_geom_bond_atom_site_label_2
_geom_bond_distance
_geom_bond_site_symmetry_2
_ccdc_geom_bond_type
Co0 O3 1.970 . S
Co0 N17 1.989 . S
Co0 O25 1.967 . S
Co0 O32 1.920 . S
Co1 O4 1.966 . S
Co1 N10 2.022 . S
Co1 N18 1.993 . S
Co1 O26 1.941 . S
C2 O3 1.258 . S
C2 O4 1.263 . S
O3 Co0 1.970 . S
O3 C2 1.258 . S
O4 Co1 1.966 . S
O4 C2 1.263 . S
C5 O6 1.235 . S
C5 O32 1.289 . S
O6 C5 1.235 . S
C7 C9 1.400 . S
C7 N10 1.351 . S
C7 C12 1.501 . S
C8 C9 1.387 . S
C8 N11 1.341 . S
C9 C7 1.400 . S
C9 C8 1.387 . S
N10 Co1 2.022 . S
N10 C7 1.351 . S
N10 N11 1.365 . S
N11 C8 1.341 . S
N11 N10 1.365 . S
N11 H31 0.862 . S
C12 C7 1.501 . S
C12 H13 0.961 . S
C12 H14 0.961 . S
C12 H15 0.960 . S
H13 C12 0.961 . S
H14 C12 0.961 . S
H15 C12 0.960 . S
C16 N17 1.342 . S
C16 C20 1.401 . S
C16 C21 1.499 . S
N17 Co0 1.989 . S
N17 C16 1.342 . S
N17 N18 1.388 . S
N18 Co1 1.993 . S
N18 N17 1.388 . S
N18 C19 1.346 . S
C19 N18 1.346 . S
C19 C20 1.396 . S
C19 C29 1.510 . S
C20 C16 1.401 . S
C20 C19 1.396 . S
C21 C16 1.499 . S
C21 H22 0.959 . S
C21 H23 0.960 . S
C21 H24 0.961 . S
H22 C21 0.959 . S
H23 C21 0.960 . S
H24 C21 0.961 . S
O25 Co0 1.967 . S
O25 C33 1.258 . S
O26 Co1 1.941 . S
O26 C33 1.266 . S
H27 C29 0.959 . S
H28 C29 0.961 . S
C29 C19 1.510 . S
C29 H27 0.959 . S
C29 H28 0.961 . S
C29 H30 0.960 . S
H30 C29 0.960 . S
H31 N11 0.862 . S
O32 Co0 1.920 . S
O32 C5 1.289 . S
C33 O25 1.258 . S
C33 O26 1.266 . S
Co34 O37 1.970 . S
Co34 N51 1.989 . S
Co34 O59 1.967 . S
Co34 O66 1.920 . S
Co35 O38 1.966 . S
Co35 N44 2.022 . S
Co35 N52 1.993 . S
Co35 O60 1.941 . S
C36 O37 1.258 . S
C36 O38 1.263 . S
O37 Co34 1.970 . S
O37 C36 1.258 . S
O38 Co35 1.966 . S
O38 C36 1.263 . S
C39 O40 1.235 . S
C39 O66 1.289 . S
O40 C39 1.235 . S
C41 C43 1.400 . S
C41 N44 1.351 . S
C41 C46 1.501 . S
C42 C43 1.387 . S
C42 N45 1.341 . S
C43 C41 1.400 . S
C43 C42 1.387 . S
N44 Co35 2.022 . S
N44 C41 1.351 . S
N44 N45 1.365 . S
N45 C42 1.341 . S
N45 N44 1.365 . S
N45 H65 0.862 . S
C46 C41 1.501 . S
C46 H47 0.961 . S
C46 H48 0.961 . S
C46 H49 0.960 . S
H47 C46 0.961 . S
H48 C46 0.961 . S
H49 C46 0.960 . S
C50 N51 1.342 . S
C50 C54 1.401 . S
C50 C55 1.499 . S
N51 Co34 1.989 . S
N51 C50 1.342 . S
N51 N52 1.388 . S
N52 Co35 1.993 . S
N52 N51 1.388 . S
N52 C53 1.346 . S
C53 N52 1.346 . S
C53 C54 1.396 . S
C53 C63 1.510 . S
C54 C50 1.401 . S
C54 C53 1.396 . S
C55 C50 1.499 . S
C55 H56 0.959 . S
C55 H57 0.960 . S
C55 H58 0.961 . S
H56 C55 0.959 . S
H57 C55 0.960 . S
H58 C55 0.961 . S
O59 Co34 1.967 . S
O59 C67 1.258 . S
O60 Co35 1.941 . S
O60 C67 1.266 . S
H61 C63 0.959 . S
H62 C63 0.961 . S
C63 C53 1.510 . S
C63 H61 0.959 . S
C63 H62 0.961 . S
C63 H64 0.960 . S
H64 C63 0.960 . S
H65 N45 0.862 . S
O66 Co34 1.920 . S
O66 C39 1.289 . S
C67 O59 1.258 . S
C67 O60 1.266 . S
Co68 O71 1.970 1_556 S
Co68 N85 1.989 . S
Co68 O93 1.967 . S
Co68 O100 1.920 . S
Co69 O72 1.966 . S
Co69 N78 2.022 . S
Co69 N86 1.993 1_554 S
Co69 O94 1.941 1_554 S
C70 O71 1.258 . S
C70 O72 1.263 . S
O71 Co68 1.970 1_554 S
O71 C70 1.258 . S
O72 Co69 1.966 . S
O72 C70 1.263 . S
C73 O74 1.235 1_556 S
C73 O100 1.289 . S
O74 C73 1.235 1_554 S
C75 C77 1.400 . S
C75 N78 1.351 . S
C75 C80 1.501 . S
C76 C77 1.387 1_556 S
C76 N79 1.341 . S
C77 C75 1.400 . S
C77 C76 1.387 1_554 S
N78 Co69 2.022 . S
N78 C75 1.351 . S
N78 N79 1.365 1_554 S
N79 C76 1.341 . S
N79 N78 1.365 1_556 S
N79 H99 0.862 . S
C80 C75 1.501 . S
C80 H81 0.961 . S
C80 H82 0.961 . S
C80 H83 0.960 . S
H81 C80 0.961 . S
H82 C80 0.961 . S
H83 C80 0.960 . S
C84 N85 1.342 . S
C84 C88 1.401 . S
C84 C89 1.499 . S
N85 Co68 1.989 . S
N85 C84 1.342 . S
N85 N86 1.388 . S
N86 Co69 1.993 1_556 S
N86 N85 1.388 . S
N86 C87 1.346 . S
C87 N86 1.346 . S
C87 C88 1.396 . S
C87 C97 1.510 . S
C88 C84 1.401 . S
C88 C87 1.396 . S
C89 C84 1.499 . S
C89 H90 0.959 . S
C89 H91 0.960 . S
C89 H92 0.961 . S
H90 C89 0.959 . S
H91 C89 0.960 . S
H92 C89 0.961 . S
O93 Co68 1.967 . S
O93 C101 1.258 . S
O94 Co69 1.941 1_556 S
O94 C101 1.266 . S
H95 C97 0.959 . S
H96 C97 0.961 . S
C97 C87 1.510 . S
C97 H95 0.959 . S
C97 H96 0.961 . S
C97 H98 0.960 . S
H98 C97 0.960 . S
H99 N79 0.862 . S
O100 Co68 1.920 . S
O100 C73 1.289 . S
C101 O93 1.258 . S
C101 O94 1.266 . S
Co102 O105 1.970 . S
Co102 N119 1.989 . S
Co102 O127 1.967 . S
Co102 O134 1.920 . S
Co103 O106 1.966 . S
Co103 N112 2.022 . S
Co103 N120 1.993 . S
Co103 O128 1.941 . S
C104 O105 1.258 . S
C104 O106 1.263 . S
O105 Co102 1.970 . S
O105 C104 1.258 . S
O106 Co103 1.966 . S
O106 C104 1.263 . S
C107 O108 1.235 . S
C107 O134 1.289 . S
O108 C107 1.235 . S
C109 C111 1.400 . S
C109 N112 1.351 . S
C109 C114 1.501 . S
C110 C111 1.387 . S
C110 N113 1.341 . S
C111 C109 1.400 . S
C111 C110 1.387 . S
N112 Co103 2.022 . S
N112 C109 1.351 . S
N112 N113 1.365 . S
N113 C110 1.341 . S
N113 N112 1.365 . S
N113 H133 0.862 . S
C114 C109 1.501 . S
C114 H115 0.961 . S
C114 H116 0.961 . S
C114 H117 0.960 . S
H115 C114 0.961 . S
H116 C114 0.961 . S
H117 C114 0.960 . S
C118 N119 1.342 . S
C118 C122 1.401 . S
C118 C123 1.499 . S
N119 Co102 1.989 . S
N119 C118 1.342 . S
N119 N120 1.388 . S
N120 Co103 1.993 . S
N120 N119 1.388 . S
N120 C121 1.346 . S
C121 N120 1.346 . S
C121 C122 1.396 . S
C121 C131 1.510 . S
C122 C118 1.401 . S
C122 C121 1.396 . S
C123 C118 1.499 . S
C123 H124 0.959 . S
C123 H125 0.960 . S
C123 H126 0.961 . S
H124 C123 0.959 . S
H125 C123 0.960 . S
H126 C123 0.961 . S
O127 Co102 1.967 . S
O127 C135 1.258 . S
O128 Co103 1.941 . S
O128 C135 1.266 . S
H129 C131 0.959 . S
H130 C131 0.961 . S
C131 C121 1.510 . S
C131 H129 0.959 . S
C131 H130 0.961 . S
C131 H132 0.960 . S
H132 C131 0.960 . S
H133 N113 0.862 . S
O134 Co102 1.920 . S
O134 C107 1.289 . S
C135 O127 1.258 . S
C135 O128 1.266 . S
Co136 O139 1.970 . S
Co136 N153 1.989 . S
Co136 O161 1.967 . S
Co136 O168 1.920 . S
Co137 O140 1.966 . S
Co137 N146 2.022 . S
Co137 N154 1.993 . S
Co137 O162 1.941 . S
C138 O139 1.258 . S
C138 O140 1.263 . S
O139 Co136 1.970 . S
O139 C138 1.258 . S
O140 Co137 1.966 . S
O140 C138 1.263 . S
C141 O142 1.235 . S
C141 O168 1.289 . S
O142 C141 1.235 . S
C143 C145 1.400 . S
C143 N146 1.351 . S
C143 C148 1.501 . S
C144 C145 1.387 . S
C144 N147 1.341 . S
C145 C143 1.400 . S
C145 C144 1.387 . S
N146 Co137 2.022 . S
N146 C143 1.351 . S
N146 N147 1.365 . S
N147 C144 1.341 . S
N147 N146 1.365 . S
N147 H167 0.862 . S
C148 C143 1.501 . S
C148 H149 0.961 . S
C148 H150 0.961 . S
C148 H151 0.960 . S
H149 C148 0.961 . S
H150 C148 0.961 . S
H151 C148 0.960 . S
C152 N153 1.342 . S
C152 C156 1.401 . S
C152 C157 1.499 . S
N153 Co136 1.989 . S
N153 C152 1.342 . S
N153 N154 1.388 . S
N154 Co137 1.993 . S
N154 N153 1.388 . S
N154 C155 1.346 . S
C155 N154 1.346 . S
C155 C156 1.396 . S
C155 C165 1.510 . S
C156 C152 1.401 . S
C156 C155 1.396 . S
C157 C152 1.499 . S
C157 H158 0.959 . S
C157 H159 0.960 . S
C157 H160 0.961 . S
H158 C157 0.959 . S
H159 C157 0.960 . S
H160 C157 0.961 . S
O161 Co136 1.967 . S
O161 C169 1.258 . S
O162 Co137 1.941 . S
O162 C169 1.266 . S
H163 C165 0.959 . S
H164 C165 0.961 . S
C165 C155 1.510 . S
C165 H163 0.959 . S
C165 H164 0.961 . S
C165 H166 0.960 . S
H166 C165 0.960 . S
H167 N147 0.862 . S
O168 Co136 1.920 . S
O168 C141 1.289 . S
C169 O161 1.258 . S
C169 O162 1.266 . S
Co170 O173 1.970 1_556 S
Co170 N187 1.989 . S
Co170 O195 1.967 . S
Co170 O202 1.920 . S
Co171 O174 1.966 . S
Co171 N180 2.022 . S
Co171 N188 1.993 1_554 S
Co171 O196 1.941 1_554 S
C172 O173 1.258 . S
C172 O174 1.263 . S
O173 Co170 1.970 1_554 S
O173 C172 1.258 . S
O174 Co171 1.966 . S
O174 C172 1.263 . S
C175 O176 1.235 1_556 S
C175 O202 1.289 . S
O176 C175 1.235 1_554 S
C177 C179 1.400 . S
C177 N180 1.351 . S
C177 C182 1.501 . S
C178 C179 1.387 1_556 S
C178 N181 1.341 . S
C179 C177 1.400 . S
C179 C178 1.387 1_554 S
N180 Co171 2.022 . S
N180 C177 1.351 . S
N180 N181 1.365 1_554 S
N181 C178 1.341 . S
N181 N180 1.365 1_556 S
N181 H201 0.862 . S
C182 C177 1.501 . S
C182 H183 0.961 . S
C182 H184 0.961 . S
C182 H185 0.960 . S
H183 C182 0.961 . S
H184 C182 0.961 . S
H185 C182 0.960 . S
C186 N187 1.342 . S
C186 C190 1.401 . S
C186 C191 1.499 . S
N187 Co170 1.989 . S
N187 C186 1.342 . S
N187 N188 1.388 . S
N188 Co171 1.993 1_556 S
N188 N187 1.388 . S
N188 C189 1.346 . S
C189 N188 1.346 . S
C189 C190 1.396 . S
C189 C199 1.510 . S
C190 C186 1.401 . S
C190 C189 1.396 . S
C191 C186 1.499 . S
C191 H192 0.959 . S
C191 H193 0.960 . S
C191 H194 0.961 . S
H192 C191 0.959 . S
H193 C191 0.960 . S
H194 C191 0.961 . S
O195 Co170 1.967 . S
O195 C203 1.258 . S
O196 Co171 1.941 1_556 S
O196 C203 1.266 . S
H197 C199 0.959 . S
H198 C199 0.961 . S
C199 C189 1.510 . S
C199 H197 0.959 . S
C199 H198 0.961 . S
C199 H200 0.960 . S
H200 C199 0.960 . S
H201 N181 0.862 . S
O202 Co170 1.920 . S
O202 C175 1.289 . S
C203 O195 1.258 . S
C203 O196 1.266 . S
Co204 O207 1.970 . S
Co204 N221 1.989 . S
Co204 O229 1.967 . S
Co204 O236 1.920 . S
Co205 O208 1.966 . S
Co205 N214 2.022 . S
Co205 N222 1.993 . S
Co205 O230 1.941 . S
C206 O207 1.258 . S
C206 O208 1.263 . S
O207 Co204 1.970 . S
O207 C206 1.258 . S
O208 Co205 1.966 . S
O208 C206 1.263 . S
C209 O210 1.235 . S
C209 O236 1.289 . S
O210 C209 1.235 . S
C211 C213 1.400 . S
C211 N214 1.351 . S
C211 C216 1.501 . S
C212 C213 1.387 . S
C212 N215 1.341 . S
C213 C211 1.400 . S
C213 C212 1.387 . S
N214 Co205 2.022 . S
N214 C211 1.351 . S
N214 N215 1.365 . S
N215 C212 1.341 . S
N215 N214 1.365 . S
N215 H235 0.862 . S
C216 C211 1.501 . S
C216 H217 0.961 . S
C216 H218 0.961 . S
C216 H219 0.960 . S
H217 C216 0.961 . S
H218 C216 0.961 . S
H219 C216 0.960 . S
C220 N221 1.342 . S
C220 C224 1.401 . S
C220 C225 1.499 . S
N221 Co204 1.989 . S
N221 C220 1.342 . S
N221 N222 1.388 . S
N222 Co205 1.993 . S
N222 N221 1.388 . S
N222 C223 1.346 . S
C223 N222 1.346 . S
C223 C224 1.396 . S
C223 C233 1.510 . S
C224 C220 1.401 . S
C224 C223 1.396 . S
C225 C220 1.499 . S
C225 H226 0.959 . S
C225 H227 0.960 . S
C225 H228 0.961 . S
H226 C225 0.959 . S
H227 C225 0.960 . S
H228 C225 0.961 . S
O229 Co204 1.967 . S
O229 C237 1.258 . S
O230 Co205 1.941 . S
O230 C237 1.266 . S
H231 C233 0.959 . S
H232 C233 0.961 . S
C233 C223 1.510 . S
C233 H231 0.959 . S
C233 H232 0.961 . S
C233 H234 0.960 . S
H234 C233 0.960 . S
H235 N215 0.862 . S
O236 Co204 1.920 . S
O236 C209 1.289 . S
C237 O229 1.258 . S
C237 O230 1.266 . S
Co238 O241 1.970 . S
Co238 N255 1.989 . S
Co238 O263 1.967 . S
Co238 O270 1.920 . S
Co239 O242 1.966 . S
Co239 N248 2.022 . S
Co239 N256 1.993 . S
Co239 O264 1.941 . S
C240 O241 1.258 . S
C240 O242 1.263 . S
O241 Co238 1.970 . S
O241 C240 1.258 . S
O242 Co239 1.966 . S
O242 C240 1.263 . S
C243 O244 1.235 . S
C243 O270 1.289 . S
O244 C243 1.235 . S
C245 C247 1.400 . S
C245 N248 1.351 . S
C245 C250 1.501 . S
C246 C247 1.387 . S
C246 N249 1.341 . S
C247 C245 1.400 . S
C247 C246 1.387 . S
N248 Co239 2.022 . S
N248 C245 1.351 . S
N248 N249 1.365 . S
N249 C246 1.341 . S
N249 N248 1.365 . S
N249 H269 0.862 . S
C250 C245 1.501 . S
C250 H251 0.961 . S
C250 H252 0.961 . S
C250 H253 0.960 . S
H251 C250 0.961 . S
H252 C250 0.961 . S
H253 C250 0.960 . S
C254 N255 1.342 . S
C254 C258 1.401 . S
C254 C259 1.499 . S
N255 Co238 1.989 . S
N255 C254 1.342 . S
N255 N256 1.388 . S
N256 Co239 1.993 . S
N256 N255 1.388 . S
N256 C257 1.346 . S
C257 N256 1.346 . S
C257 C258 1.396 . S
C257 C267 1.510 . S
C258 C254 1.401 . S
C258 C257 1.396 . S
C259 C254 1.499 . S
C259 H260 0.959 . S
C259 H261 0.960 . S
C259 H262 0.961 . S
H260 C259 0.959 . S
H261 C259 0.960 . S
H262 C259 0.961 . S
O263 Co238 1.967 . S
O263 C271 1.258 . S
O264 Co239 1.941 . S
O264 C271 1.266 . S
H265 C267 0.959 . S
H266 C267 0.961 . S
C267 C257 1.510 . S
C267 H265 0.959 . S
C267 H266 0.961 . S
C267 H268 0.960 . S
H268 C267 0.960 . S
H269 N249 0.862 . S
O270 Co238 1.920 . S
O270 C243 1.289 . S
C271 O263 1.258 . S
C271 O264 1.266 . S
Co272 O275 1.970 1_554 S
Co272 N289 1.989 . S
Co272 O297 1.967 . S
Co272 O304 1.920 . S
Co273 O276 1.966 . S
Co273 N282 2.022 . S
Co273 N290 1.993 1_556 S
Co273 O298 1.941 1_556 S
C274 O275 1.258 . S
C274 O276 1.263 . S
O275 Co272 1.970 1_556 S
O275 C274 1.258 . S
O276 Co273 1.966 . S
O276 C274 1.263 . S
C277 O278 1.235 1_554 S
C277 O304 1.289 . S
O278 C277 1.235 1_556 S
C279 C281 1.400 . S
C279 N282 1.351 . S
C279 C284 1.501 . S
C280 C281 1.387 1_554 S
C280 N283 1.341 . S
C281 C279 1.400 . S
C281 C280 1.387 1_556 S
N282 Co273 2.022 . S
N282 C279 1.351 . S
N282 N283 1.365 1_556 S
N283 C280 1.341 . S
N283 N282 1.365 1_554 S
N283 H303 0.862 . S
C284 C279 1.501 . S
C284 H285 0.961 . S
C284 H286 0.961 . S
C284 H287 0.960 . S
H285 C284 0.961 . S
H286 C284 0.961 . S
H287 C284 0.960 . S
C288 N289 1.342 . S
C288 C292 1.401 . S
C288 C293 1.499 . S
N289 Co272 1.989 . S
N289 C288 1.342 . S
N289 N290 1.388 . S
N290 Co273 1.993 1_554 S
N290 N289 1.388 . S
N290 C291 1.346 . S
C291 N290 1.346 . S
C291 C292 1.396 . S
C291 C301 1.510 . S
C292 C288 1.401 . S
C292 C291 1.396 . S
C293 C288 1.499 . S
C293 H294 0.959 . S
C293 H295 0.960 . S
C293 H296 0.961 . S
H294 C293 0.959 . S
H295 C293 0.960 . S
H296 C293 0.961 . S
O297 Co272 1.967 . S
O297 C305 1.258 . S
O298 Co273 1.941 1_554 S
O298 C305 1.266 . S
H299 C301 0.959 . S
H300 C301 0.961 . S
C301 C291 1.510 . S
C301 H299 0.959 . S
C301 H300 0.961 . S
C301 H302 0.960 . S
H302 C301 0.960 . S
H303 N283 0.862 . S
O304 Co272 1.920 . S
O304 C277 1.289 . S
C305 O297 1.258 . S
C305 O298 1.266 . S
Co306 O309 1.970 . S
Co306 N323 1.989 . S
Co306 O331 1.967 . S
Co306 O338 1.920 . S
Co307 O310 1.966 . S
Co307 N316 2.022 . S
Co307 N324 1.993 . S
Co307 O332 1.941 . S
C308 O309 1.258 . S
C308 O310 1.263 . S
O309 Co306 1.970 . S
O309 C308 1.258 . S
O310 Co307 1.966 . S
O310 C308 1.263 . S
C311 O312 1.235 . S
C311 O338 1.289 . S
O312 C311 1.235 . S
C313 C315 1.400 . S
C313 N316 1.351 . S
C313 C318 1.501 . S
C314 C315 1.387 . S
C314 N317 1.341 . S
C315 C313 1.400 . S
C315 C314 1.387 . S
N316 Co307 2.022 . S
N316 C313 1.351 . S
N316 N317 1.365 . S
N317 C314 1.341 . S
N317 N316 1.365 . S
N317 H337 0.862 . S
C318 C313 1.501 . S
C318 H319 0.961 . S
C318 H320 0.961 . S
C318 H321 0.960 . S
H319 C318 0.961 . S
H320 C318 0.961 . S
H321 C318 0.960 . S
C322 N323 1.342 . S
C322 C326 1.401 . S
C322 C327 1.499 . S
N323 Co306 1.989 . S
N323 C322 1.342 . S
N323 N324 1.388 . S
N324 Co307 1.993 . S
N324 N323 1.388 . S
N324 C325 1.346 . S
C325 N324 1.346 . S
C325 C326 1.396 . S
C325 C335 1.510 . S
C326 C322 1.401 . S
C326 C325 1.396 . S
C327 C322 1.499 . S
C327 H328 0.959 . S
C327 H329 0.960 . S
C327 H330 0.961 . S
H328 C327 0.959 . S
H329 C327 0.960 . S
H330 C327 0.961 . S
O331 Co306 1.967 . S
O331 C339 1.258 . S
O332 Co307 1.941 . S
O332 C339 1.266 . S
H333 C335 0.959 . S
H334 C335 0.961 . S
C335 C325 1.510 . S
C335 H333 0.959 . S
C335 H334 0.961 . S
C335 H336 0.960 . S
H336 C335 0.960 . S
H337 N317 0.862 . S
O338 Co306 1.920 . S
O338 C311 1.289 . S
C339 O331 1.258 . S
C339 O332 1.266 . S
Co340 O343 1.970 . S
Co340 N357 1.989 . S
Co340 O365 1.967 . S
Co340 O372 1.920 . S
Co341 O344 1.966 . S
Co341 N350 2.022 . S
Co341 N358 1.993 . S
Co341 O366 1.941 . S
C342 O343 1.258 . S
C342 O344 1.263 . S
O343 Co340 1.970 . S
O343 C342 1.258 . S
O344 Co341 1.966 . S
O344 C342 1.263 . S
C345 O346 1.235 . S
C345 O372 1.289 . S
O346 C345 1.235 . S
C347 C349 1.400 . S
C347 N350 1.351 . S
C347 C352 1.501 . S
C348 C349 1.387 . S
C348 N351 1.341 . S
C349 C347 1.400 . S
C349 C348 1.387 . S
N350 Co341 2.022 . S
N350 C347 1.351 . S
N350 N351 1.365 . S
N351 C348 1.341 . S
N351 N350 1.365 . S
N351 H371 0.862 . S
C352 C347 1.501 . S
C352 H353 0.961 . S
C352 H354 0.961 . S
C352 H355 0.960 . S
H353 C352 0.961 . S
H354 C352 0.961 . S
H355 C352 0.960 . S
C356 N357 1.342 . S
C356 C360 1.401 . S
C356 C361 1.499 . S
N357 Co340 1.989 . S
N357 C356 1.342 . S
N357 N358 1.388 . S
N358 Co341 1.993 . S
N358 N357 1.388 . S
N358 C359 1.346 . S
C359 N358 1.346 . S
C359 C360 1.396 . S
C359 C369 1.510 . S
C360 C356 1.401 . S
C360 C359 1.396 . S
C361 C356 1.499 . S
C361 H362 0.959 . S
C361 H363 0.960 . S
C361 H364 0.961 . S
H362 C361 0.959 . S
H363 C361 0.960 . S
H364 C361 0.961 . S
O365 Co340 1.967 . S
O365 C373 1.258 . S
O366 Co341 1.941 . S
O366 C373 1.266 . S
H367 C369 0.959 . S
H368 C369 0.961 . S
C369 C359 1.510 . S
C369 H367 0.959 . S
C369 H368 0.961 . S
C369 H370 0.960 . S
H370 C369 0.960 . S
H371 N351 0.862 . S
O372 Co340 1.920 . S
O372 C345 1.289 . S
C373 O365 1.258 . S
C373 O366 1.266 . S
Co374 O377 1.970 1_554 S
Co374 N391 1.989 . S
Co374 O399 1.967 . S
Co374 O406 1.920 . S
Co375 O378 1.966 . S
Co375 N384 2.022 . S
Co375 N392 1.993 1_556 S
Co375 O400 1.941 1_556 S
C376 O377 1.258 . S
C376 O378 1.263 . S
O377 Co374 1.970 1_556 S
O377 C376 1.258 . S
O378 Co375 1.966 . S
O378 C376 1.263 . S
C379 O380 1.235 1_554 S
C379 O406 1.289 . S
O380 C379 1.235 1_556 S
C381 C383 1.400 . S
C381 N384 1.351 . S
C381 C386 1.501 . S
C382 C383 1.387 1_554 S
C382 N385 1.341 . S
C383 C381 1.400 . S
C383 C382 1.387 1_556 S
N384 Co375 2.022 . S
N384 C381 1.351 . S
N384 N385 1.365 1_556 S
N385 C382 1.341 . S
N385 N384 1.365 1_554 S
N385 H405 0.862 . S
C386 C381 1.501 . S
C386 H387 0.961 . S
C386 H388 0.961 . S
C386 H389 0.960 . S
H387 C386 0.961 . S
H388 C386 0.961 . S
H389 C386 0.960 . S
C390 N391 1.342 . S
C390 C394 1.401 . S
C390 C395 1.499 . S
N391 Co374 1.989 . S
N391 C390 1.342 . S
N391 N392 1.388 . S
N392 Co375 1.993 1_554 S
N392 N391 1.388 . S
N392 C393 1.346 . S
C393 N392 1.346 . S
C393 C394 1.396 . S
C393 C403 1.510 . S
C394 C390 1.401 . S
C394 C393 1.396 . S
C395 C390 1.499 . S
C395 H396 0.959 . S
C395 H397 0.960 . S
C395 H398 0.961 . S
H396 C395 0.959 . S
H397 C395 0.960 . S
H398 C395 0.961 . S
O399 Co374 1.967 . S
O399 C407 1.258 . S
O400 Co375 1.941 1_554 S
O400 C407 1.266 . S
H401 C403 0.959 . S
H402 C403 0.961 . S
C403 C393 1.510 . S
C403 H401 0.959 . S
C403 H402 0.961 . S
C403 H404 0.960 . S
H404 C403 0.960 . S
H405 N385 0.862 . S
O406 Co374 1.920 . S
O406 C379 1.289 . S
C407 O399 1.258 . S
C407 O400 1.266 . S
C408 C409 1.369 . S
C408 C410 1.419 . S
C408 H412 0.930 . S
C409 C408 1.369 . S
C409 C418 1.429 1_655 S
C410 C408 1.419 . S
C410 C411 1.363 1_655 S
C410 H413 0.929 . S
C411 C410 1.363 1_455 S
C411 C417 1.428 . S
H412 C408 0.930 . S
H413 C410 0.929 . S
S414 N415 1.613 . S
S414 N416 1.610 . S
N415 S414 1.613 . S
N415 C418 1.350 . S
N416 S414 1.610 . S
N416 C417 1.351 . S
C417 C411 1.428 . S
C417 N416 1.351 . S
C417 C418 1.434 . S
C418 C409 1.429 1_455 S
C418 N415 1.350 . S
C418 C417 1.434 . S
C419 C420 1.369 . S
C419 C421 1.403 1_565 S
C419 H423 0.930 . S
C420 C419 1.369 . S
C420 C429 1.429 1_565 S
C421 C419 1.403 1_545 S
C421 C422 1.386 . S
C421 H424 0.918 1_545 S
C422 C421 1.386 . S
C422 C428 1.428 . S
H423 C419 0.930 . S
H424 C421 0.918 1_565 S
S425 N426 1.613 . S
S425 N427 1.610 . S
N426 S425 1.613 . S
N426 C429 1.350 . S
N427 S425 1.610 . S
N427 C428 1.351 . S
C428 C422 1.428 . S
C428 N427 1.351 . S
C428 C429 1.434 . S
C429 C420 1.429 1_545 S
C429 N426 1.350 . S
C429 C428 1.434 . S
C430 C431 1.369 . S
C430 C432 1.419 . S
C430 H434 0.930 . S
C431 C430 1.369 . S
C431 C440 1.429 . S
C432 C430 1.419 . S
C432 C433 1.363 . S
C432 H435 0.929 . S
C433 C432 1.363 . S
C433 C439 1.428 . S
H434 C430 0.930 . S
H435 C432 0.929 . S
S436 N437 1.613 . S
S436 N438 1.610 . S
N437 S436 1.613 . S
N437 C440 1.350 . S
N438 S436 1.610 . S
N438 C439 1.351 . S
C439 C433 1.428 . S
C439 N438 1.351 . S
C439 C440 1.434 . S
C440 C431 1.429 . S
C440 N437 1.350 . S
C440 C439 1.434 . S
C441 C442 1.369 . S
C441 C443 1.419 1_455 S
C441 H445 0.930 . S
C442 C441 1.369 . S
C442 C451 1.429 . S
C443 C441 1.419 1_655 S
C443 C444 1.363 . S
C443 H446 0.929 . S
C444 C443 1.363 . S
C444 C450 1.428 . S
H445 C441 0.930 . S
H446 C443 0.929 . S
S447 N448 1.613 1_655 S
S447 N449 1.610 . S
N448 S447 1.613 1_455 S
N448 C451 1.350 . S
N449 S447 1.610 . S
N449 C450 1.351 . S
C450 C444 1.428 . S
C450 N449 1.351 . S
C450 C451 1.434 1_655 S
C451 C442 1.429 . S
C451 N448 1.350 . S
C451 C450 1.434 1_455 S
C452 C453 1.369 . S
C452 C454 1.419 1_545 S
C452 H456 0.930 . S
C453 C452 1.369 . S
C453 C462 1.429 . S
C454 C452 1.419 1_565 S
C454 C455 1.363 . S
C454 H457 0.929 . S
C455 C454 1.363 . S
C455 C461 1.428 . S
H456 C452 0.930 . S
H457 C454 0.929 . S
S458 N459 1.613 . S
S458 N460 1.610 . S
N459 S458 1.613 . S
N459 C462 1.350 . S
N460 S458 1.610 . S
N460 C461 1.351 1_545 S
C461 C455 1.428 . S
C461 N460 1.351 1_565 S
C461 C462 1.434 1_565 S
C462 C453 1.429 . S
C462 N459 1.350 . S
C462 C461 1.434 1_545 S
C463 C464 1.369 . S
C463 C465 1.419 . S
C463 H467 0.930 . S
C464 C463 1.369 . S
C464 C473 1.429 . S
C465 C463 1.419 . S
C465 C466 1.363 . S
C465 H468 0.929 . S
C466 C465 1.363 . S
C466 C472 1.428 . S
H467 C463 0.930 . S
H468 C465 0.929 . S
S469 N470 1.613 . S
S469 N471 1.610 . S
N470 S469 1.613 . S
N470 C473 1.350 . S
N471 S469 1.610 . S
N471 C472 1.351 . S
C472 C466 1.428 . S
C472 N471 1.351 . S
C472 C473 1.434 . S
C473 C464 1.429 . S
C473 N470 1.350 . S
C473 C472 1.434 . S
C474 C475 1.369 . S
C474 C476 1.419 . S
C474 H478 0.930 . S
C475 C474 1.369 . S
C475 C484 1.429 . S
C476 C474 1.419 . S
C476 C477 1.363 . S
C476 H479 0.929 . S
C477 C476 1.363 . S
C477 C483 1.428 . S
H478 C474 0.930 . S
H479 C476 0.929 . S
S480 N481 1.613 . S
S480 N482 1.610 . S
N481 S480 1.613 . S
N481 C484 1.350 . S
N482 S480 1.610 . S
N482 C483 1.351 . S
C483 C477 1.428 . S
C483 N482 1.351 . S
C483 C484 1.434 . S
C484 C475 1.429 . S
C484 N481 1.350 . S
C484 C483 1.434 . S
C485 C486 1.369 . S
C485 C487 1.419 . S
C485 H489 0.930 . S
C486 C485 1.369 . S
C486 C495 1.429 . S
C487 C485 1.419 . S
C487 C488 1.363 . S
C487 H490 0.929 . S
C488 C487 1.363 . S
C488 C494 1.428 . S
H489 C485 0.930 . S
H490 C487 0.929 . S
S491 N492 1.613 . S
S491 N493 1.610 . S
N492 S491 1.613 . S
N492 C495 1.350 . S
N493 S491 1.610 . S
N493 C494 1.351 . S
C494 C488 1.428 . S
C494 N493 1.351 . S
C494 C495 1.434 . S
C495 C486 1.429 . S
C495 N492 1.350 . S
C495 C494 1.434 . S
C496 C497 1.369 . S
C496 C498 1.419 . S
C496 H500 0.930 . S
C497 C496 1.369 . S
C497 C506 1.429 . S
C498 C496 1.419 . S
C498 C499 1.363 . S
C498 H501 0.929 . S
C499 C498 1.363 . S
C499 C505 1.428 . S
H500 C496 0.930 . S
H501 C498 0.929 . S
S502 N503 1.613 . S
S502 N504 1.610 . S
N503 S502 1.613 . S
N503 C506 1.350 . S
N504 S502 1.610 . S
N504 C505 1.351 . S
C505 C499 1.428 . S
C505 N504 1.351 . S
C505 C506 1.434 . S
C506 C497 1.429 . S
C506 N503 1.350 . S
C506 C505 1.434 . S
C507 C508 1.369 . S
C507 C509 1.419 . S
C507 H511 0.930 . S
C508 C507 1.369 . S
C508 C517 1.429 . S
C509 C507 1.419 . S
C509 C510 1.363 . S
C509 H512 0.929 . S
C510 C509 1.363 . S
C510 C516 1.428 . S
H511 C507 0.930 . S
H512 C509 0.929 . S
S513 N514 1.613 . S
S513 N515 1.610 . S
N514 S513 1.613 . S
N514 C517 1.350 . S
N515 S513 1.610 . S
N515 C516 1.351 . S
C516 C510 1.428 . S
C516 N515 1.351 . S
C516 C517 1.434 . S
C517 C508 1.429 . S
C517 N514 1.350 . S
C517 C516 1.434 . S
C518 C519 1.369 . S
C518 C520 1.419 . S
C518 H522 0.930 . S
C519 C518 1.369 . S
C519 C528 1.429 . S
C520 C518 1.419 . S
C520 C521 1.363 . S
C520 H523 0.929 . S
C521 C520 1.363 . S
C521 C527 1.428 . S
H522 C518 0.930 . S
H523 C520 0.929 . S
S524 N525 1.613 . S
S524 N526 1.610 . S
N525 S524 1.613 . S
N525 C528 1.350 . S
N526 S524 1.610 . S
N526 C527 1.351 . S
C527 C521 1.428 . S
C527 N526 1.351 . S
C527 C528 1.434 . S
C528 C519 1.429 . S
C528 N525 1.350 . S
C528 C527 1.434 . S
C529 C530 1.369 . S
C529 C531 1.419 . S
C529 H533 0.930 . S
C530 C529 1.369 . S
C530 C539 1.429 . S
C531 C529 1.419 . S
C531 C532 1.363 . S
C531 H534 0.929 . S
C532 C531 1.363 . S
C532 C538 1.428 . S
H533 C529 0.930 . S
H534 C531 0.929 . S
S535 N536 1.613 . S
S535 N537 1.610 . S
N536 S535 1.613 . S
N536 C539 1.350 . S
N537 S535 1.610 . S
N537 C538 1.351 . S
C538 C532 1.428 . S
C538 N537 1.351 . S
C538 C539 1.434 . S
C539 C530 1.429 . S
C539 N536 1.350 . S
C539 C538 1.434 . S
C540 C541 1.369 . S
C540 C542 1.419 . S
C540 H544 0.930 . S
C541 C540 1.369 . S
C541 C550 1.429 1_655 S
C542 C540 1.419 . S
C542 C543 1.363 1_655 S
C542 H545 0.929 . S
C543 C542 1.363 1_455 S
C543 C549 1.428 . S
H544 C540 0.930 . S
H545 C542 0.929 . S
S546 N547 1.613 . S
S546 N548 1.610 . S
N547 S546 1.613 . S
N547 C550 1.350 . S
N548 S546 1.610 . S
N548 C549 1.351 . S
C549 C543 1.428 . S
C549 N548 1.351 . S
C549 C550 1.434 . S
C550 C541 1.429 1_455 S
C550 N547 1.350 . S
C550 C549 1.434 . S
C551 C552 1.369 . S
C551 C553 1.419 . S
C551 H555 0.930 . S
C552 C551 1.369 . S
C552 C561 1.429 1_545 S
C553 C551 1.419 . S
C553 C554 1.363 1_545 S
C553 H556 0.929 . S
C554 C553 1.363 1_565 S
C554 C560 1.428 . S
H555 C551 0.930 . S
H556 C553 0.929 . S
S557 N558 1.613 . S
S557 N559 1.610 . S
N558 S557 1.613 . S
N558 C561 1.350 . S
N559 S557 1.610 . S
N559 C560 1.351 . S
C560 C554 1.428 . S
C560 N559 1.351 . S
C560 C561 1.434 . S
C561 C552 1.429 1_565 S
C561 N558 1.350 . S
C561 C560 1.434 . S
C562 C563 1.369 . S
C562 C564 1.419 . S
C562 H566 0.930 . S
C563 C562 1.369 . S
C563 C572 1.429 1_554 S
C564 C562 1.419 . S
C564 C565 1.363 . S
C564 H567 0.929 . S
C565 C564 1.363 . S
C565 C571 1.428 1_554 S
H566 C562 0.930 . S
H567 C564 0.929 . S
S568 N569 1.613 . S
S568 N570 1.610 . S
N569 S568 1.613 . S
N569 C572 1.350 . S
N570 S568 1.610 . S
N570 C571 1.351 . S
C571 C565 1.428 1_556 S
C571 N570 1.351 . S
C571 C572 1.434 . S
C572 C563 1.429 1_556 S
C572 N569 1.350 . S
C572 C571 1.434 . S
C573 C574 1.369 . S
C573 C575 1.419 . S
C573 H577 0.930 . S
C574 C573 1.369 . S
C574 C583 1.429 1_565 S
C575 C573 1.419 . S
C575 C576 1.363 1_565 S
C575 H578 0.929 . S
C576 C575 1.363 1_545 S
C576 C582 1.428 . S
H577 C573 0.930 . S
H578 C575 0.929 . S
S579 N580 1.613 . S
S579 N581 1.610 . S
N580 S579 1.613 . S
N580 C583 1.350 . S
N581 S579 1.610 . S
N581 C582 1.351 . S
C582 C576 1.428 . S
C582 N581 1.351 . S
C582 C583 1.434 . S
C583 C574 1.429 1_545 S
C583 N580 1.350 . S
C583 C582 1.434 . S
C584 C585 1.369 . S
C584 C586 1.419 . S
C584 H588 0.930 . S
C585 C584 1.369 . S
C585 C594 1.429 . S
C586 C584 1.419 . S
C586 C587 1.363 . S
C586 H589 0.929 . S
C587 C586 1.363 . S
C587 C593 1.428 . S
H588 C584 0.930 . S
H589 C586 0.929 . S
S590 N591 1.613 . S
S590 N592 1.610 . S
N591 S590 1.613 . S
N591 C594 1.350 . S
N592 S590 1.610 . S
N592 C593 1.351 . S
C593 C587 1.428 . S
C593 N592 1.351 . S
C593 C594 1.434 . S
C594 C585 1.429 . S
C594 N591 1.350 . S
C594 C593 1.434 . S
C595 C596 1.369 . S
C595 C597 1.419 . S
C595 H599 0.930 . S
C596 C595 1.369 . S
C596 C605 1.429 1_655 S
C597 C595 1.419 . S
C597 C598 1.363 1_655 S
C597 H600 0.929 . S
C598 C597 1.363 1_455 S
C598 C604 1.428 . S
H599 C595 0.930 . S
H600 C597 0.929 . S
S601 N602 1.613 . S
S601 N603 1.610 . S
N602 S601 1.613 . S
N602 C605 1.350 1_554 S
N603 S601 1.610 . S
N603 C604 1.351 1_554 S
C604 C598 1.428 . S
C604 N603 1.351 1_556 S
C604 C605 1.434 . S
C605 C596 1.429 1_455 S
C605 N602 1.350 1_556 S
C605 C604 1.434 . S
C606 C607 1.369 . S
C606 C608 1.419 . S
C606 H610 0.930 . S
C607 C606 1.369 . S
C607 C616 1.429 . S
C608 C606 1.419 . S
C608 C609 1.363 . S
C608 H611 0.929 . S
C609 C608 1.363 . S
C609 C615 1.428 . S
H610 C606 0.930 . S
H611 C608 0.929 . S
S612 N613 1.613 . S
S612 N614 1.610 . S
N613 S612 1.613 . S
N613 C616 1.350 . S
N614 S612 1.610 . S
N614 C615 1.351 . S
C615 C609 1.428 . S
C615 N614 1.351 . S
C615 C616 1.434 . S
C616 C607 1.429 . S
C616 N613 1.350 . S
C616 C615 1.434 . S
C617 C618 1.369 . S
C617 C619 1.419 1_655 S
C617 H621 0.930 . S
C618 C617 1.369 . S
C618 C627 1.429 . S
C619 C617 1.419 1_455 S
C619 C620 1.363 . S
C619 H622 0.929 . S
C620 C619 1.363 . S
C620 C626 1.428 . S
H621 C617 0.930 . S
H622 C619 0.929 . S
S623 N624 1.613 . S
S623 N625 1.610 1_655 S
N624 S623 1.613 . S
N624 C627 1.350 . S
N625 S623 1.610 1_455 S
N625 C626 1.351 . S
C626 C620 1.428 . S
C626 N625 1.351 . S
C626 C627 1.434 1_455 S
C627 C618 1.429 . S
C627 N624 1.350 . S
C627 C626 1.434 1_655 S
C628 C629 1.369 . S
C628 C630 1.419 1_545 S
C628 H632 0.930 . S
C629 C628 1.369 . S
C629 C638 1.429 1_554 S
C630 C628 1.419 1_565 S
C630 C631 1.363 1_554 S
C630 H633 0.929 . S
C631 C630 1.363 1_556 S
C631 C637 1.428 . S
H632 C628 0.930 . S
H633 C630 0.929 . S
S634 N635 1.613 . S
S634 N636 1.610 1_545 S
N635 S634 1.613 . S
N635 C638 1.350 . S
N636 S634 1.610 1_565 S
N636 C637 1.351 . S
C637 C631 1.428 . S
C637 N636 1.351 . S
C637 C638 1.434 1_565 S
C638 C629 1.429 1_556 S
C638 N635 1.350 . S
C638 C637 1.434 1_545 S
C639 C640 1.369 . S
C639 C641 1.419 . S
C639 H643 0.930 . S
C640 C639 1.369 . S
C640 C649 1.429 . S
C641 C639 1.419 . S
C641 C642 1.363 . S
C641 H644 0.929 . S
C642 C641 1.363 . S
C642 C648 1.428 . S
H643 C639 0.930 . S
H644 C641 0.929 . S
S645 N646 1.613 . S
S645 N647 1.610 . S
N646 S645 1.613 . S
N646 C649 1.350 . S
N647 S645 1.610 . S
N647 C648 1.351 . S
C648 C642 1.428 . S
C648 N647 1.351 . S
C648 C649 1.434 . S
C649 C640 1.429 . S
C649 N646 1.350 . S
C649 C648 1.434 . S
C650 C651 1.369 . S
C650 C652 1.419 1_455 S
C650 H654 0.930 . S
C651 C650 1.369 . S
C651 C660 1.429 . S
C652 C650 1.419 1_655 S
C652 C653 1.363 . S
C652 H655 0.929 . S
C653 C652 1.363 . S
C653 C659 1.428 . S
H654 C650 0.930 . S
H655 C652 0.929 . S
S656 N657 1.613 1_655 S
S656 N658 1.610 . S
N657 S656 1.613 1_455 S
N657 C660 1.350 . S
N658 S656 1.610 . S
N658 C659 1.351 . S
C659 C653 1.428 . S
C659 N658 1.351 . S
C659 C660 1.434 1_655 S
C660 C651 1.429 . S
C660 N657 1.350 . S
C660 C659 1.434 1_455 S
C661 C662 1.369 . S
C661 C663 1.419 1_545 S
C661 H665 0.930 . S
C662 C661 1.369 . S
C662 C671 1.429 1_556 S
C663 C661 1.419 1_565 S
C663 C664 1.363 1_556 S
C663 H666 0.929 . S
C664 C663 1.363 1_554 S
C664 C670 1.428 . S
H665 C661 0.930 . S
H666 C663 0.929 . S
S667 N668 1.613 . S
S667 N669 1.610 1_545 S
N668 S667 1.613 . S
N668 C671 1.350 . S
N669 S667 1.610 1_565 S
N669 C670 1.351 . S
C670 C664 1.428 . S
C670 N669 1.351 . S
C670 C671 1.434 1_565 S
C671 C662 1.429 1_554 S
C671 N668 1.350 . S
C671 C670 1.434 1_545 S
C672 C673 1.369 . S
C672 C674 1.419 . S
C672 H676 0.930 . S
C673 C672 1.369 . S
C673 C682 1.429 . S
C674 C672 1.419 . S
C674 C675 1.363 . S
C674 H677 0.929 . S
C675 C674 1.363 . S
C675 C681 1.428 . S
H676 C672 0.930 . S
H677 C674 0.929 . S
S678 N679 1.613 . S
S678 N680 1.610 . S
N679 S678 1.613 . S
N679 C682 1.350 . S
N680 S678 1.610 . S
N680 C681 1.351 . S
C681 C675 1.428 . S
C681 N680 1.351 . S
C681 C682 1.434 . S
C682 C673 1.429 . S
C682 N679 1.350 . S
C682 C681 1.434 . S
C683 C684 1.369 . S
C683 C685 1.419 . S
C683 H687 0.930 . S
C684 C683 1.369 . S
C684 C693 1.429 . S
C685 C683 1.419 . S
C685 C686 1.363 . S
C685 H688 0.929 . S
C686 C685 1.363 . S
C686 C692 1.428 . S
H687 C683 0.930 . S
H688 C685 0.929 . S
S689 N690 1.613 . S
S689 N691 1.610 . S
N690 S689 1.613 . S
N690 C693 1.350 . S
N691 S689 1.610 . S
N691 C692 1.351 . S
C692 C686 1.428 . S
C692 N691 1.351 . S
C692 C693 1.434 . S
C693 C684 1.429 . S
C693 N690 1.350 . S
C693 C692 1.434 . S
C694 C695 1.369 1_554 S
C694 C696 1.419 . S
C694 H698 0.930 . S
C695 C694 1.369 1_556 S
C695 C704 1.429 . S
C696 C694 1.419 . S
C696 C697 1.363 . S
C696 H699 0.929 . S
C697 C696 1.363 . S
C697 C703 1.428 1_554 S
H698 C694 0.930 . S
H699 C696 0.929 . S
S700 N701 1.613 . S
S700 N702 1.610 . S
N701 S700 1.613 . S
N701 C704 1.350 . S
N702 S700 1.610 . S
N702 C703 1.351 . S
C703 C697 1.428 1_556 S
C703 N702 1.351 . S
C703 C704 1.434 . S
C704 C695 1.429 . S
C704 N701 1.350 . S
C704 C703 1.434 . S
C705 C706 1.369 . S
C705 C707 1.419 . S
C705 H709 0.930 . S
C706 C705 1.369 . S
C706 C715 1.429 . S
C707 C705 1.419 . S
C707 C708 1.363 . S
C707 H710 0.929 . S
C708 C707 1.363 . S
C708 C714 1.428 . S
H709 C705 0.930 . S
H710 C707 0.929 . S
S711 N712 1.613 . S
S711 N713 1.610 . S
N712 S711 1.613 . S
N712 C715 1.350 . S
N713 S711 1.610 . S
N713 C714 1.351 . S
C714 C708 1.428 . S
C714 N713 1.351 . S
C714 C715 1.434 . S
C715 C706 1.429 . S
C715 N712 1.350 . S
C715 C714 1.434 . S
C716 C717 1.369 . S
C716 C718 1.419 . S
C716 H720 0.930 . S
C717 C716 1.369 . S
C717 C726 1.429 . S
C718 C716 1.419 . S
C718 C719 1.363 . S
C718 H721 0.929 . S
C719 C718 1.363 . S
C719 C725 1.428 . S
H720 C716 0.930 . S
H721 C718 0.929 . S
S722 N723 1.613 . S
S722 N724 1.610 . S
N723 S722 1.613 . S
N723 C726 1.350 . S
N724 S722 1.610 . S
N724 C725 1.351 . S
C725 C719 1.428 . S
C725 N724 1.351 . S
C725 C726 1.434 . S
C726 C717 1.429 . S
C726 N723 1.350 . S
C726 C725 1.434 . S
C727 C728 1.369 1_554 S
C727 C729 1.419 . S
C727 H731 0.930 . S
C728 C727 1.369 1_556 S
C728 C737 1.429 . S
C729 C727 1.419 . S
C729 C730 1.363 . S
C729 H732 0.929 . S
C730 C729 1.363 . S
C730 C736 1.428 1_554 S
H731 C727 0.930 . S
H732 C729 0.929 . S
S733 N734 1.613 . S
S733 N735 1.610 . S
N734 S733 1.613 . S
N734 C737 1.350 . S
N735 S733 1.610 . S
N735 C736 1.351 . S
C736 C730 1.428 1_556 S
C736 N735 1.351 . S
C736 C737 1.434 . S
C737 C728 1.429 . S
C737 N734 1.350 . S
C737 C736 1.434 . S
C409 C394 2.165 . S
C411 C20 2.172 . S
C420 C224 2.266 . S
C422 C54 2.269 . S
C431 C88 2.166 . S
C433 C258 2.169 . S
C442 C292 2.165 . S
C444 C122 2.171 . S
C453 C326 2.270 . S
C455 C156 2.267 . S
C464 C360 2.170 . S
C466 C190 2.165 . S
C475 C2 0.745 . S
C477 C342 0.746 . S
C486 C36 0.932 . S
C488 C376 0.930 . S
C497 C206 0.924 . S
C499 C70 0.934 . S
C508 C240 0.741 . S
C510 C104 0.744 . S
C519 C274 0.926 . S
C521 C138 0.934 . S
C530 C172 0.930 . S
C532 C308 0.931 . S
C541 C111 0.666 . S
C543 C9 0.659 . S
C552 C43 0.675 . S
C554 C145 0.663 . S
C563 C179 0.654 . S
C565 C77 0.657 . S
C574 C213 0.678 . S
C576 C315 0.664 . S
C585 C247 0.673 . S
C587 C349 0.678 . S
C596 C383 0.660 . S
C598 C281 0.654 . S
C607 C5 0.918 . S
C609 C311 0.916 . S
C618 C39 0.921 . S
C620 C345 0.921 . S
C629 C379 0.927 . S
C631 C73 0.936 . S
C640 C107 0.914 . S
C642 C209 0.919 . S
C651 C141 0.921 . S
C653 C243 0.915 . S
C662 C175 0.924 . S
C664 C277 0.935 . S
C673 C237 2.557 . S
C675 C33 2.556 . S
C684 C271 2.556 . S
C686 C67 2.557 . S
C695 C101 2.501 . S
C697 C305 2.499 . S
C706 C339 2.556 . S
C708 C135 2.556 . S
C717 C169 2.556 . S
C719 C373 2.557 . S
C728 C203 2.500 . S
C730 C407 2.500 . S
