# Generated by pormake.
# Topology vbf, (5)-cn, num edge types: 1
# Building blocks:
#     Node 0, Type 0, BuildingBlock: BEQFEK_clean_sbu_0, # of connection points: 5
#     Node 1, Type 0, BuildingBlock: BEQFEK_clean_sbu_0, # of connection points: 5
#     Node 2, Type 0, BuildingBlock: BEQFEK_clean_sbu_0, # of connection points: 5
#     Node 3, Type 0, BuildingBlock: BEQFEK_clean_sbu_0, # of connection points: 5
#     Node 4, Type 0, BuildingBlock: BEQFEK_clean_sbu_0, # of connection points: 5
#     Node 5, Type 0, BuildingBlock: BEQFEK_clean_sbu_0, # of connection points: 5
#     Node 6, Type 0, BuildingBlock: BEQFEK_clean_sbu_0, # of connection points: 5
#     Node 7, Type 0, BuildingBlock: BEQFEK_clean_sbu_0, # of connection points: 5
#     Node 8, Type 0, BuildingBlock: BEQFEK_clean_sbu_0, # of connection points: 5
#     Node 9, Type 0, BuildingBlock: BEQFEK_clean_sbu_0, # of connection points: 5
#     Node 10, Type 0, BuildingBlock: BEQFEK_clean_sbu_0, # of connection points: 5
#     Node 11, Type 0, BuildingBlock: BEQFEK_clean_sbu_0, # of connection points: 5
#     Node 12, Type 0, BuildingBlock: BEQFEK_clean_sbu_0, # of connection points: 5
#     Node 13, Type 0, BuildingBlock: BEQFEK_clean_sbu_0, # of connection points: 5
#     Node 14, Type 0, BuildingBlock: BEQFEK_clean_sbu_0, # of connection points: 5
#     Node 15, Type 0, BuildingBlock: BEQFEK_clean_sbu_0, # of connection points: 5
#     Edge 16, Type (0, 0), BuildingBlock: CIFDUS_clean_linker_0, # of connection points: 2
#     Edge 17, Type (0, 0), BuildingBlock: CIFDUS_clean_linker_0, # of connection points: 2
#     Edge 18, Type (0, 0), BuildingBlock: CIFDUS_clean_linker_0, # of connection points: 2
#     Edge 19, Type (0, 0), BuildingBlock: CIFDUS_clean_linker_0, # of connection points: 2
#     Edge 20, Type (0, 0), BuildingBlock: CIFDUS_clean_linker_0, # of connection points: 2
#     Edge 21, Type (0, 0), BuildingBlock: CIFDUS_clean_linker_0, # of connection points: 2
#     Edge 22, Type (0, 0), BuildingBlock: CIFDUS_clean_linker_0, # of connection points: 2
#     Edge 23, Type (0, 0), BuildingBlock: CIFDUS_clean_linker_0, # of connection points: 2
#     Edge 24, Type (0, 0), BuildingBlock: CIFDUS_clean_linker_0, # of connection points: 2
#     Edge 25, Type (0, 0), BuildingBlock: CIFDUS_clean_linker_0, # of connection points: 2
#     Edge 26, Type (0, 0), BuildingBlock: CIFDUS_clean_linker_0, # of connection points: 2
#     Edge 27, Type (0, 0), BuildingBlock: CIFDUS_clean_linker_0, # of connection points: 2
#     Edge 28, Type (0, 0), BuildingBlock: CIFDUS_clean_linker_0, # of connection points: 2
#     Edge 29, Type (0, 0), BuildingBlock: CIFDUS_clean_linker_0, # of connection points: 2
#     Edge 30, Type (0, 0), BuildingBlock: CIFDUS_clean_linker_0, # of connection points: 2
#     Edge 31, Type (0, 0), BuildingBlock: CIFDUS_clean_linker_0, # of connection points: 2
#     Edge 32, Type (0, 0), BuildingBlock: CIFDUS_clean_linker_0, # of connection points: 2
#     Edge 33, Type (0, 0), BuildingBlock: CIFDUS_clean_linker_0, # of connection points: 2
#     Edge 34, Type (0, 0), BuildingBlock: CIFDUS_clean_linker_0, # of connection points: 2
#     Edge 35, Type (0, 0), BuildingBlock: CIFDUS_clean_linker_0, # of connection points: 2
#     Edge 36, Type (0, 0), BuildingBlock: CIFDUS_clean_linker_0, # of connection points: 2
#     Edge 37, Type (0, 0), BuildingBlock: CIFDUS_clean_linker_0, # of connection points: 2
#     Edge 38, Type (0, 0), BuildingBlock: CIFDUS_clean_linker_0, # of connection points: 2
#     Edge 39, Type (0, 0), BuildingBlock: CIFDUS_clean_linker_0, # of connection points: 2
#     Edge 40, Type (0, 0), BuildingBlock: CIFDUS_clean_linker_0, # of connection points: 2
#     Edge 41, Type (0, 0), BuildingBlock: CIFDUS_clean_linker_0, # of connection points: 2
#     Edge 42, Type (0, 0), BuildingBlock: CIFDUS_clean_linker_0, # of connection points: 2
#     Edge 43, Type (0, 0), BuildingBlock: CIFDUS_clean_linker_0, # of connection points: 2
#     Edge 44, Type (0, 0), BuildingBlock: CIFDUS_clean_linker_0, # of connection points: 2
#     Edge 45, Type (0, 0), BuildingBlock: CIFDUS_clean_linker_0, # of connection points: 2
#     Edge 46, Type (0, 0), BuildingBlock: CIFDUS_clean_linker_0, # of connection points: 2
#     Edge 47, Type (0, 0), BuildingBlock: CIFDUS_clean_linker_0, # of connection points: 2
#     Edge 48, Type (0, 0), BuildingBlock: CIFDUS_clean_linker_0, # of connection points: 2
#     Edge 49, Type (0, 0), BuildingBlock: CIFDUS_clean_linker_0, # of connection points: 2
#     Edge 50, Type (0, 0), BuildingBlock: CIFDUS_clean_linker_0, # of connection points: 2
#     Edge 51, Type (0, 0), BuildingBlock: CIFDUS_clean_linker_0, # of connection points: 2
#     Edge 52, Type (0, 0), BuildingBlock: CIFDUS_clean_linker_0, # of connection points: 2
#     Edge 53, Type (0, 0), BuildingBlock: CIFDUS_clean_linker_0, # of connection points: 2
#     Edge 54, Type (0, 0), BuildingBlock: CIFDUS_clean_linker_0, # of connection points: 2
#     Edge 55, Type (0, 0), BuildingBlock: CIFDUS_clean_linker_0, # of connection points: 2
# Relax obj value: 0.045
# Max RMSD: 0.098
# Mean RMSD: 0.098
data_MOF--net-vbf--node1-BEQFEK_clean_sbu_0--edge1-CIFDUS_clean_linker_0
_symmetry_space_group_name_H-M    P1
_symmetry_Int_Tables_number       1
_symmetry_cell_setting            triclinic
loop_
_symmetry_equiv_pos_as_xyz
'x, y, z'
_cell_length_a     33.09066
_cell_length_b     76.016944
_cell_length_c     26.130838
_cell_angle_alpha  90.107611
_cell_angle_beta   89.997681
_cell_angle_gamma 90.152835
loop_
_atom_site_label
_atom_site_type_symbol
_atom_site_fract_x
_atom_site_fract_y
_atom_site_fract_z
_atom_type_partial_charge
Co0 Co 0.11603 0.31716 0.95689 0.0
Co1 Co 0.06877 0.28958 0.02415 0.0
C2 C 0.15939 0.28863 0.01306 0.0
O3 O 0.15942 0.30237 0.98547 0.0
O4 O 0.12656 0.28206 0.02986 0.0
C5 C 0.17151 0.34498 0.94808 0.0
O6 O 0.17945 0.33974 0.99489 0.0
C7 C 0.04629 0.27341 0.12313 0.0
C8 C 0.98967 0.25956 0.10346 0.0
C9 C 0.01561 0.2631 0.14391 0.0
N10 N 0.03842 0.276 0.07305 0.0
N11 N 0.00457 0.26762 0.06162 0.0
C12 C 0.08353 0.27995 0.14973 0.0
H13 H 0.10724 0.2836 0.12185 0.0
H14 H 0.07624 0.29183 0.17251 0.0
H15 H 0.09518 0.26977 0.17629 0.0
C16 C 0.07088 0.34211 0.02308 0.0
N17 N 0.08137 0.32565 1.00914 0.0
N18 N 0.06114 0.31426 0.03727 0.0
C19 C 0.0367 0.32325 0.06953 0.0
C20 C 0.04269 0.34115 0.06205 0.0
C21 C 0.08495 0.35855 0.99709 0.0
H22 H 0.08721 0.35637 0.95525 0.0
H23 H 0.11511 0.36227 0.01218 0.0
H24 H 0.06393 0.36964 1.00436 0.0
O25 O 0.08449 0.30324 0.90577 0.0
O26 O 0.05039 0.28381 0.95277 0.0
H27 H 0.99108 0.30408 0.08673 0.0
H28 H 0.98533 0.32464 0.12076 0.0
C29 C 0.00747 0.31496 0.10598 0.0
H30 H 0.02424 0.30954 0.13897 0.0
H31 H 0.99152 0.26746 0.02527 0.0
O32 O 0.14419 0.33704 0.92267 0.0
C33 C 0.05973 0.29038 0.9093 0.0
Co34 Co 0.89519 0.69292 0.95507 0.0
Co35 Co 0.9428 0.72089 0.02119 0.0
C36 C 0.85222 0.72181 0.01074 0.0
O37 O 0.85204 0.70807 0.98282 0.0
O38 O 0.88509 0.72835 0.02787 0.0
C39 C 0.83403 0.6675 0.92871 0.0
O40 O 0.81175 0.67657 0.96085 0.0
C41 C 0.97042 0.74099 0.11295 0.0
C42 C 0.02919 0.75097 0.08516 0.0
C43 C 0.00363 0.75119 0.12715 0.0
N44 N 0.97642 0.73501 0.06493 0.0
N45 N 0.01166 0.74102 0.04877 0.0
C46 C 0.93277 0.73774 0.14329 0.0
H47 H 0.90756 0.73364 0.11813 0.0
H48 H 0.93828 0.72701 0.17109 0.0
H49 H 0.9242 0.74974 0.16498 0.0
C50 C 0.93682 0.66865 0.02503 0.0
N51 N 0.92884 0.68502 1.00849 0.0
N52 N 0.94947 0.69646 0.03604 0.0
C53 C 0.97194 0.68757 0.07051 0.0
C54 C 0.96425 0.6697 0.06485 0.0
C55 C 0.91939 0.65226 1.00197 0.0
H56 H 0.92545 0.65213 0.96023 0.0
H57 H 0.88617 0.65222 1.00764 0.0
H58 H 0.93235 0.64022 0.01934 0.0
O59 O 0.92653 0.70629 0.9032 0.0
O60 O 0.96004 0.72595 0.94975 0.0
H61 H 0.02039 0.70525 0.08818 0.0
H62 H 0.01817 0.68601 0.12893 0.0
C63 C 0.99995 0.69597 0.10826 0.0
H64 H 0.98203 0.70355 0.13646 0.0
H65 H 0.02366 0.73844 0.01261 0.0
O66 O 0.87022 0.67232 0.92026 0.0
C67 C 0.95101 0.71921 0.90653 0.0
Co68 Co 0.14063 0.56045 0.20016 0.0
Co69 Co 0.19538 0.53419 0.26078 0.0
C70 C 0.10425 0.52964 0.25155 0.0
O71 O 0.09927 0.544 0.22737 0.0
O72 O 0.13929 0.52459 0.26526 0.0
C73 C 0.07922 0.58637 0.17761 0.0
O74 O 0.0585 0.57848 0.21384 0.0
C75 C 0.21849 0.51804 0.35726 0.0
C76 C 0.27563 0.50468 0.33797 0.0
C77 C 0.24918 0.5078 0.37831 0.0
N78 N 0.2268 0.52077 0.30754 0.0
N79 N 0.26083 0.51266 0.29608 0.0
C80 C 0.18293 0.52619 0.38354 0.0
H81 H 0.17021 0.53697 0.36001 0.0
H82 H 0.1918 0.53143 0.42159 0.0
H83 H 0.15903 0.51609 0.38873 0.0
C84 C 0.18091 0.58596 0.26983 0.0
N85 N 0.17432 0.56942 0.25302 0.0
N86 N 0.19845 0.5586 0.27758 0.0
C87 C 0.22191 0.56803 0.30998 0.0
C88 C 0.21116 0.58564 0.30654 0.0
C89 C 0.16044 0.60192 0.24872 0.0
H90 H 0.16412 0.60219 0.20656 0.0
H91 H 0.12769 0.60122 0.2575 0.0
H92 H 0.17306 0.61426 0.26492 0.0
O93 O 0.17331 0.5478 0.14735 0.0
O94 O 0.21523 0.53031 0.19 0.0
H95 H 0.27048 0.54988 0.32258 0.0
H96 H 0.27584 0.5705 0.35655 0.0
C97 C 0.25404 0.56036 0.34346 0.0
H98 H 0.23976 0.55452 0.37782 0.0
H99 H 0.27413 0.51273 0.25987 0.0
O100 O 0.11385 0.58049 0.16546 0.0
C101 C 0.20185 0.53654 0.14804 0.0
Co102 Co 0.85624 0.44734 0.20219 0.0
Co103 Co 0.80304 0.47484 0.26233 0.0
C104 C 0.8938 0.47835 0.25474 0.0
O105 O 0.89772 0.46402 0.22975 0.0
O106 O 0.85921 0.48376 0.26911 0.0
C107 C 0.91922 0.42184 0.17966 0.0
O108 O 0.94111 0.43111 0.21189 0.0
C109 C 0.77279 0.49433 0.35262 0.0
C110 C 0.71483 0.50452 0.32317 0.0
C111 C 0.73924 0.50428 0.36627 0.0
N112 N 0.76802 0.48882 0.30397 0.0
N113 N 0.73334 0.495 0.28667 0.0
C114 C 0.80952 0.49065 0.38427 0.0
H115 H 0.8356 0.48725 0.35972 0.0
H116 H 0.80342 0.47927 0.40965 0.0
H117 H 0.81716 0.5022 0.40851 0.0
C118 C 0.80997 0.4228 0.2684 0.0
N119 N 0.82057 0.43923 0.25419 0.0
N120 N 0.79781 0.45062 0.27879 0.0
C121 C 0.77153 0.44178 0.30877 0.0
C122 C 0.77848 0.42387 0.30334 0.0
C123 C 0.82702 0.40644 0.24502 0.0
H124 H 0.82268 0.40684 0.20294 0.0
H125 H 0.85997 0.4059 0.25268 0.0
H126 H 0.81243 0.39439 0.26034 0.0
O127 O 0.82518 0.45972 0.14729 0.0
O128 O 0.78707 0.47862 0.19058 0.0
H129 H 0.72033 0.45874 0.3159 0.0
H130 H 0.72014 0.44049 0.36032 0.0
C131 C 0.73942 0.4503 0.34056 0.0
H132 H 0.75386 0.45877 0.36986 0.0
H133 H 0.72232 0.49273 0.24982 0.0
O134 O 0.88324 0.42665 0.16998 0.0
C135 C 0.79871 0.4719 0.14843 0.0
Co136 Co 0.10746 0.81468 0.45569 0.0
Co137 Co 0.06085 0.7867 0.5219 0.0
C138 C 0.15137 0.786 0.51098 0.0
O139 O 0.15103 0.79973 0.48322 0.0
O140 O 0.11875 0.77931 0.52834 0.0
C141 C 0.1658 0.84157 0.4364 0.0
O142 O 0.18377 0.8346 0.47631 0.0
C143 C 0.03341 0.76631 0.61309 0.0
C144 C 0.97413 0.75682 0.58548 0.0
C145 C 0.99996 0.75627 0.62717 0.0
N146 N 0.02729 0.77254 0.56543 0.0
N147 N 0.99176 0.7668 0.54936 0.0
C148 C 0.07135 0.7692 0.6432 0.0
H149 H 0.09663 0.77309 0.61793 0.0
H150 H 0.06649 0.77996 0.67124 0.0
H151 H 0.07946 0.75711 0.6646 0.0
C152 C 0.06522 0.83905 0.52564 0.0
N153 N 0.07363 0.82268 0.50905 0.0
N154 N 0.05373 0.81118 0.53708 0.0
C155 C 0.03155 0.82 0.57214 0.0
C156 C 0.03851 0.83792 0.56622 0.0
C157 C 0.08152 0.85554 0.50209 0.0
H158 H 0.07847 0.85485 0.45989 0.0
H159 H 0.11404 0.85682 0.51168 0.0
H160 H 0.06543 0.86738 0.51625 0.0
O161 O 0.0764 0.80123 0.40379 0.0
O162 O 0.04348 0.78148 0.45039 0.0
H163 H 0.98377 0.80226 0.59182 0.0
H164 H 0.9874 0.82135 0.63318 0.0
C165 C 0.00489 0.81148 0.61112 0.0
H166 H 0.02377 0.80379 0.63795 0.0
H167 H 0.9796 0.76962 0.51347 0.0
O168 O 0.1327 0.835 0.42069 0.0
C169 C 0.05223 0.78821 0.40715 0.0
Co170 Co 0.89775 0.19343 0.46838 0.0
Co171 Co 0.94651 0.22405 0.52285 0.0
C172 C 0.85512 0.22338 0.51782 0.0
O173 O 0.8545 0.20863 0.49477 0.0
O174 O 0.8883 0.2309 0.52989 0.0
C175 C 0.83733 0.16698 0.44618 0.0
O176 O 0.81489 0.17621 0.47777 0.0
C177 C 0.97354 0.24494 0.61335 0.0
C178 C 0.02901 0.25734 0.58325 0.0
C179 C 0.00531 0.25611 0.62691 0.0
N180 N 0.97871 0.23975 0.56434 0.0
N181 N 0.01193 0.24728 0.54672 0.0
C182 C 0.93783 0.23992 0.64537 0.0
H183 H 0.91264 0.23516 0.62111 0.0
H184 H 0.94636 0.22914 0.67172 0.0
H185 H 0.92772 0.2513 0.66872 0.0
C186 C 0.94388 0.17195 0.54091 0.0
N187 N 0.93387 0.18766 0.52119 0.0
N188 N 0.95507 0.20014 0.54383 0.0
C189 C 0.97979 0.19256 0.57853 0.0
C190 C 0.97331 0.17449 0.57788 0.0
C191 C 0.92438 0.15494 0.52557 0.0
H192 H 0.89108 0.15634 0.52764 0.0
H193 H 0.9337 0.14391 0.5506 0.0
H194 H 0.93251 0.15187 0.48535 0.0
O195 O 0.92659 0.2057 0.41266 0.0
O196 O 0.96213 0.2272 0.4489 0.0
H197 H 0.02582 0.21236 0.58509 0.0
H198 H 0.03458 0.19301 0.62358 0.0
C199 C 0.01117 0.20215 0.609 0.0
H200 H 0.99657 0.20864 0.64215 0.0
H201 H 0.02304 0.2455 0.5097 0.0
O202 O 0.8735 0.17186 0.43759 0.0
C203 C 0.95089 0.21867 0.40919 0.0
Co204 Co 0.14145 0.06351 0.71605 0.0
Co205 Co 0.19974 0.03713 0.77121 0.0
C206 C 0.1087 0.03155 0.76475 0.0
O207 O 0.10204 0.04625 0.74317 0.0
O208 O 0.14445 0.02673 0.7758 0.0
C209 C 0.0818 0.09097 0.69962 0.0
O210 O 0.06896 0.08726 0.74594 0.0
C211 C 0.22442 0.02201 0.86914 0.0
C212 C 0.28021 0.00763 0.84979 0.0
C213 C 0.25476 0.01173 0.8903 0.0
N214 N 0.23193 0.02406 0.81882 0.0
N215 N 0.26532 0.01539 0.80748 0.0
C216 C 0.18763 0.02904 0.89554 0.0
H217 H 0.16421 0.03285 0.86747 0.0
H218 H 0.19576 0.04092 0.91793 0.0
H219 H 0.1753 0.01908 0.9224 0.0
C220 C 0.18328 0.08897 0.78479 0.0
N221 N 0.17594 0.0725 0.76778 0.0
N222 N 0.20166 0.0616 0.7894 0.0
C223 C 0.22676 0.07093 0.82003 0.0
C224 C 0.21544 0.08849 0.81869 0.0
C225 C 0.16268 0.10513 0.76535 0.0
H226 H 0.16082 0.10466 0.72303 0.0
H227 H 0.13163 0.10568 0.78117 0.0
H228 H 0.17902 0.11728 0.77683 0.0
O229 O 0.17481 0.05217 0.66216 0.0
O230 O 0.21826 0.03378 0.69878 0.0
H231 H 0.27663 0.05299 0.82501 0.0
H232 H 0.28458 0.07358 0.85823 0.0
C233 C 0.26196 0.06335 0.84837 0.0
H234 H 0.2512 0.05743 0.88459 0.0
H235 H 0.27789 0.01476 0.7709 0.0
O236 O 0.11152 0.08257 0.681 0.0
C237 C 0.20357 0.04109 0.65892 0.0
Co238 Co 0.86668 0.94775 0.71104 0.0
Co239 Co 0.80967 0.97526 0.76546 0.0
C240 C 0.90206 0.97777 0.76617 0.0
O241 O 0.90784 0.96315 0.74343 0.0
O242 O 0.86649 0.98334 0.77522 0.0
C243 C 0.92763 0.92123 0.68737 0.0
O244 O 0.95045 0.92966 0.72051 0.0
C245 C 0.78472 0.99073 0.86299 0.0
C246 C 0.73334 0.00759 0.84175 0.0
C247 C 0.75646 1.00243 0.8836 0.0
N248 N 0.77832 0.98924 0.81224 0.0
N249 N 0.74761 0.9994 0.79975 0.0
C250 C 0.81651 0.98038 0.89026 0.0
H251 H 0.82821 0.9697 0.86542 0.0
H252 H 0.80407 0.97459 0.92591 0.0
H253 H 0.84219 0.98918 0.90007 0.0
C254 C 0.81689 0.92314 0.77172 0.0
N255 N 0.82771 0.93961 0.75848 0.0
N256 N 0.8031 0.95088 0.78056 0.0
C257 C 0.77563 0.94185 0.80839 0.0
C258 C 0.78364 0.92401 0.80378 0.0
C259 C 0.83753 0.90685 0.75307 0.0
H260 H 0.87043 0.90794 0.7605 0.0
H261 H 0.82572 0.89488 0.77224 0.0
H262 H 0.83299 0.90558 0.71116 0.0
O263 O 0.84007 0.96166 0.65624 0.0
O264 O 0.7955 0.97991 0.69183 0.0
H265 H 0.71569 0.94018 0.84085 0.0
H266 H 0.75006 0.95479 0.87324 0.0
C267 C 0.74028 0.94994 0.83515 0.0
H268 H 0.72868 0.96124 0.81279 0.0
H269 H 0.73643 1.00075 0.76263 0.0
O270 O 0.89241 0.92699 0.67769 0.0
C271 C 0.81289 0.97347 0.65232 0.0
Co272 Co 0.61984 0.31478 0.45511 0.0
Co273 Co 0.57226 0.28542 0.51649 0.0
C274 C 0.66221 0.2849 0.5087 0.0
O275 O 0.66204 0.29886 0.48191 0.0
O276 O 0.6295 0.27798 0.52474 0.0
C277 C 0.68274 0.34017 0.44298 0.0
O278 O 0.69802 0.33133 0.48149 0.0
C279 C 0.54235 0.2647 0.60543 0.0
C280 C 0.48426 0.25485 0.57494 0.0
C281 C 0.50841 0.25477 0.61824 0.0
N282 N 0.53796 0.27055 0.55707 0.0
N283 N 0.50326 0.2645 0.53913 0.0
C284 C 0.57918 0.26784 0.63753 0.0
H285 H 0.60573 0.27077 0.61325 0.0
H286 H 0.5741 0.2793 0.66301 0.0
H287 H 0.58555 0.2562 0.66178 0.0
C288 C 0.57476 0.3377 0.52664 0.0
N289 N 0.58476 0.32167 0.50874 0.0
N290 N 0.56502 0.30956 0.53482 0.0
C291 C 0.54168 0.31761 0.57012 0.0
C292 C 0.54736 0.33564 0.56631 0.0
C293 C 0.59207 0.35457 0.5068 0.0
H294 H 0.62508 0.35476 0.51408 0.0
H295 H 0.5783 0.36622 0.52541 0.0
H296 H 0.5874 0.35528 0.4648 0.0
O297 O 0.58897 0.30246 0.40006 0.0
O298 O 0.55651 0.28174 0.4438 0.0
H299 H 0.49094 0.31781 0.6225 0.0
H300 H 0.52892 0.30146 0.63491 0.0
C301 C 0.51221 0.30842 0.60437 0.0
H302 H 0.49466 0.29862 0.58207 0.0
H303 H 0.49233 0.2671 0.50246 0.0
O304 O 0.64834 0.33568 0.42536 0.0
C305 C 0.56502 0.28929 0.40161 0.0
Co306 Co 0.3871 0.69414 0.45621 0.0
Co307 Co 0.43575 0.72462 0.51169 0.0
C308 C 0.34378 0.72379 0.50514 0.0
O309 O 0.34305 0.70901 0.48229 0.0
O310 O 0.37709 0.73123 0.51713 0.0
C311 C 0.32794 0.6672 0.43161 0.0
O312 O 0.30429 0.6763 0.46207 0.0
C313 C 0.45877 0.74145 0.60949 0.0
C314 C 0.5128 0.75684 0.58832 0.0
C315 C 0.489 0.75218 0.62993 0.0
N316 N 0.46506 0.73964 0.55871 0.0
N317 N 0.49727 0.74901 0.54633 0.0
C318 C 0.42363 0.73346 0.63719 0.0
H319 H 0.39842 0.73076 0.61045 0.0
H320 H 0.43279 0.72077 0.65445 0.0
H321 H 0.41317 0.74232 0.66826 0.0
C322 C 0.43312 0.67242 0.52862 0.0
N323 N 0.42269 0.68818 0.50946 0.0
N324 N 0.44461 0.70058 0.53128 0.0
C325 C 0.47054 0.6929 0.56435 0.0
C326 C 0.46372 0.67488 0.56409 0.0
C327 C 0.41355 0.65541 0.51352 0.0
H328 H 0.42215 0.65215 0.47357 0.0
H329 H 0.38024 0.65688 0.51493 0.0
H330 H 0.42258 0.64447 0.53909 0.0
O331 O 0.41724 0.70689 0.402 0.0
O332 O 0.45341 0.72827 0.43818 0.0
H333 H 0.51563 0.7133 0.56779 0.0
H334 H 0.52992 0.69299 0.59848 0.0
C335 C 0.50451 0.70215 0.59115 0.0
H336 H 0.49385 0.70717 0.6286 0.0
H337 H 0.50916 0.74978 0.50941 0.0
O338 O 0.36403 0.67243 0.42422 0.0
C339 C 0.44207 0.7197 0.39844 0.0
Co340 Co 0.63543 0.56436 0.69985 0.0
Co341 Co 0.68537 0.53691 0.76413 0.0
C342 C 0.59461 0.53624 0.76114 0.0
O343 O 0.59325 0.54978 0.73262 0.0
O344 O 0.62816 0.52969 0.77537 0.0
C345 C 0.58016 0.59302 0.68393 0.0
O346 O 0.56981 0.59007 0.7317 0.0
C347 C 0.71563 0.51643 0.85359 0.0
C348 C 0.7761 0.50885 0.82544 0.0
C349 C 0.75051 0.50734 0.86715 0.0
N350 N 0.72077 0.52314 0.8063 0.0
N351 N 0.75696 0.51849 0.78982 0.0
C352 C 0.67747 0.51805 0.88407 0.0
H353 H 0.65103 0.51963 0.85876 0.0
H354 H 0.67947 0.52985 0.909 0.0
H355 H 0.67284 0.5063 0.90852 0.0
C356 C 0.68249 0.5893 0.76406 0.0
N357 N 0.67235 0.57287 0.74947 0.0
N358 N 0.69291 0.56147 0.77704 0.0
C359 C 0.7167 0.57039 0.81018 0.0
C360 C 0.71057 0.58828 0.80318 0.0
C361 C 0.66725 0.60575 0.73941 0.0
H362 H 0.66426 0.60379 0.69755 0.0
H363 H 0.6372 0.60903 0.75553 0.0
H364 H 0.68795 0.617 0.74669 0.0
O365 O 0.66409 0.55046 0.64715 0.0
O366 O 0.69981 0.53126 0.6921 0.0
H367 H 0.76621 0.55361 0.82903 0.0
H368 H 0.75947 0.5718 0.87294 0.0
C369 C 0.74361 0.56192 0.84891 0.0
H370 H 0.72525 0.5533 0.87398 0.0
H371 H 0.76864 0.5219 0.75408 0.0
O372 O 0.60771 0.58375 0.66347 0.0
C373 C 0.68884 0.53768 0.64933 0.0
Co374 Co 0.37075 0.44408 0.70815 0.0
Co375 Co 0.31646 0.47254 0.76165 0.0
C376 C 0.40785 0.47193 0.77162 0.0
O377 O 0.41127 0.45765 0.74659 0.0
O378 O 0.37349 0.47907 0.77891 0.0
C379 C 0.42708 0.41544 0.69269 0.0
O380 O 0.43989 0.4192 0.73903 0.0
C381 C 0.28225 0.49021 0.85226 0.0
C382 C 0.2342 0.50637 0.81768 0.0
C383 C 0.25192 0.5023 0.86439 0.0
N384 N 0.28195 0.48744 0.80134 0.0
N385 N 0.25328 0.4972 0.78093 0.0
C386 C 0.31011 0.48064 0.88761 0.0
H387 H 0.32408 0.46925 0.86778 0.0
H388 H 0.29347 0.47598 0.9219 0.0
H389 H 0.33468 0.48966 0.89997 0.0
C390 C 0.3142 0.42021 0.76165 0.0
N391 N 0.3281 0.43645 0.7509 0.0
N392 N 0.30522 0.44822 0.77392 0.0
C393 C 0.27587 0.43972 0.80003 0.0
C394 C 0.28077 0.42174 0.79318 0.0
C395 C 0.33307 0.40359 0.74248 0.0
H396 H 0.3345 0.40389 0.70008 0.0
H397 H 0.3644 0.40272 0.75726 0.0
H398 H 0.31612 0.39175 0.75495 0.0
O399 O 0.34988 0.45897 0.65226 0.0
O400 O 0.30722 0.47792 0.68793 0.0
H401 H 0.23162 0.46021 0.80614 0.0
H402 H 0.21608 0.43939 0.83332 0.0
C403 C 0.24192 0.44853 0.82778 0.0
H404 H 0.25264 0.45288 0.86594 0.0
H405 H 0.24664 0.49756 0.74191 0.0
O406 O 0.3979 0.42409 0.67378 0.0
C407 C 0.32462 0.4715 0.64864 0.0
Co408 Co 0.62312 0.81603 0.95672 0.0
Co409 Co 0.5717 0.78648 0.01195 0.0
C410 C 0.6633 0.78573 1.00642 0.0
O411 O 0.66521 0.80042 0.98347 0.0
O412 O 0.62944 0.77879 0.01806 0.0
C413 C 0.67995 0.84416 0.95212 0.0
O414 O 0.68988 0.83787 0.99719 0.0
C415 C 0.54782 0.76967 0.10939 0.0
C416 C 0.4918 0.75562 0.08855 0.0
C417 C 0.51666 0.75952 0.12985 0.0
N418 N 0.54107 0.77194 0.05885 0.0
N419 N 0.50766 0.76334 0.04668 0.0
C420 C 0.58419 0.77665 0.13699 0.0
H421 H 0.60946 0.77895 0.11011 0.0
H422 H 0.57682 0.7894 0.15534 0.0
H423 H 0.59383 0.76734 0.16727 0.0
C424 C 0.57774 0.83873 0.02856 0.0
N425 N 0.58738 0.82281 1.00942 0.0
N426 N 0.56459 0.81071 0.03124 0.0
C427 C 0.53895 0.81876 0.06409 0.0
C428 C 0.54721 0.83665 0.06409 0.0
C429 C 0.59501 0.85585 0.01049 0.0
H430 H 0.59723 0.85585 0.96818 0.0
H431 H 0.62563 0.85761 0.02692 0.0
H432 H 0.57605 0.86713 0.02264 0.0
O433 O 0.59212 0.80392 0.90173 0.0
O434 O 0.55437 0.7831 0.93815 0.0
H435 H 0.49262 0.79902 0.06997 0.0
H436 H 0.48171 0.81909 0.1041 0.0
C437 C 0.50592 0.80976 0.09326 0.0
H438 H 0.51837 0.80419 0.12902 0.0
H439 H 0.49524 0.76304 0.00998 0.0
O440 O 0.65153 0.83682 0.9271 0.0
C441 C 0.56628 0.79146 0.89835 0.0
Co442 Co 0.39589 0.19765 0.95402 0.0
Co443 Co 0.44282 0.22707 0.01585 0.0
C444 C 0.35193 0.22652 1.00921 0.0
O445 O 0.35204 0.21248 0.98253 0.0
O446 O 0.38475 0.23366 0.02436 0.0
C447 C 0.33725 0.17017 0.93488 0.0
O448 O 0.31697 0.17797 0.97166 0.0
C449 C 0.47164 0.24778 0.10584 0.0
C450 C 0.52884 0.25853 0.07538 0.0
C451 C 0.50485 0.25818 0.11882 0.0
N452 N 0.4763 0.24211 0.05726 0.0
N453 N 0.5105 0.24868 0.03938 0.0
C454 C 0.43534 0.24384 0.13809 0.0
H455 H 0.40895 0.24055 0.11384 0.0
H456 H 0.44171 0.23233 0.1628 0.0
H457 H 0.42801 0.25523 0.16303 0.0
C458 C 0.44492 0.17476 0.02083 0.0
N459 N 0.43238 0.1908 1.00605 0.0
N460 N 0.45253 0.20292 0.03167 0.0
C461 C 0.47906 0.19487 0.06309 0.0
C462 C 0.4749 0.17678 0.05745 0.0
C463 C 0.43066 0.1579 0.99716 0.0
H464 H 0.43339 0.15876 0.95493 0.0
H465 H 0.3983 0.15589 1.00662 0.0
H466 H 0.44828 0.14644 0.0108 0.0
O467 O 0.42518 0.21093 0.89974 0.0
O468 O 0.45808 0.23154 0.94354 0.0
H469 H 0.52702 0.21341 0.07427 0.0
H470 H 0.52796 0.1951 0.11845 0.0
C471 C 0.50816 0.20432 0.09736 0.0
H472 H 0.49104 0.21224 0.12553 0.0
H473 H 0.52147 0.24635 1.00256 0.0
O474 O 0.37133 0.17642 0.92143 0.0
C475 C 0.4489 0.22417 0.90124 0.0
Co476 Co 0.63006 0.06812 0.21344 0.0
Co477 Co 0.68452 0.03932 0.26645 0.0
C478 C 0.59298 0.03842 0.26946 0.0
O479 O 0.58954 0.0529 0.24579 0.0
O480 O 0.62747 0.03175 0.27846 0.0
C481 C 0.56606 0.09299 0.19972 0.0
O482 O 0.54922 0.08365 0.2362 0.0
C483 C 0.70836 0.02233 0.36172 0.0
C484 C 0.7621 0.00692 0.34024 0.0
C485 C 0.73742 0.01097 0.38171 0.0
N486 N 0.71575 0.02474 0.31152 0.0
N487 N 0.7478 0.01541 0.29881 0.0
C488 C 0.67537 0.03179 0.38961 0.0
H489 H 0.66461 0.0432 0.36702 0.0
H490 H 0.68617 0.03643 0.42752 0.0
H491 H 0.64946 0.0227 0.39527 0.0
C492 C 0.67857 0.09151 0.27949 0.0
N493 N 0.66905 0.0754 0.26171 0.0
N494 N 0.69292 0.06366 0.28294 0.0
C495 C 0.71921 0.0721 0.31411 0.0
C496 C 0.71057 0.08998 0.31339 0.0
C497 C 0.65816 0.10808 0.26273 0.0
H498 H 0.6587 0.10887 0.22035 0.0
H499 H 0.6261 0.10775 0.27509 0.0
H500 H 0.67307 0.11996 0.27875 0.0
O501 O 0.65581 0.05455 0.15697 0.0
O502 O 0.69726 0.0349 0.19215 0.0
H503 H 0.76461 0.0522 0.32282 0.0
H504 H 0.77564 0.07251 0.35612 0.0
C505 C 0.75133 0.06322 0.34494 0.0
H506 H 0.73775 0.05791 0.38047 0.0
H507 H 0.76007 0.01494 0.26205 0.0
O508 O 0.60119 0.08885 0.18394 0.0
C509 C 0.68143 0.04209 0.15273 0.0
Co510 Co 0.3676 0.94218 0.21552 0.0
Co511 Co 0.31742 0.97174 0.27079 0.0
C512 C 0.40944 0.97171 0.26563 0.0
O513 O 0.41126 0.95705 0.24235 0.0
O514 O 0.37562 0.97867 0.27707 0.0
C515 C 0.42574 0.91515 0.19416 0.0
O516 O 0.44732 0.92328 0.22918 0.0
C517 C 0.29562 0.98807 0.36866 0.0
C518 C 0.24293 1.0044 0.34871 0.0
C519 C 0.26694 0.99932 0.38964 0.0
N520 N 0.28842 0.98641 0.3181 0.0
N521 N 0.25696 0.99628 0.30641 0.0
C522 C 0.33045 0.97957 0.39557 0.0
H523 H 0.35439 0.97583 0.36814 0.0
H524 H 0.32006 0.9674 0.41483 0.0
H525 H 0.34308 0.98857 0.42504 0.0
C526 C 0.32288 0.91974 0.28741 0.0
N527 N 0.33212 0.93563 0.26809 0.0
N528 N 0.30878 0.94764 0.28908 0.0
C529 C 0.2827 0.93953 0.32118 0.0
C530 C 0.29142 0.9217 0.32171 0.0
C531 C 0.34238 0.90289 0.27109 0.0
H532 H 0.33765 0.90095 0.22944 0.0
H533 H 0.37538 0.90374 0.27816 0.0
H534 H 0.32983 0.8914 0.29187 0.0
O535 O 0.33789 0.95502 0.16156 0.0
O536 O 0.30058 0.9759 0.19788 0.0
H537 H 0.2374 0.95967 0.32655 0.0
H538 H 0.22378 0.93908 0.35659 0.0
C539 C 0.24891 0.94841 0.34908 0.0
H540 H 0.26 0.95328 0.38652 0.0
H541 H 0.24487 0.99736 0.26967 0.0
O542 O 0.39098 0.92102 0.18279 0.0
C543 C 0.31284 0.96767 0.1581 0.0
H544 H 0.17523 0.35531 0.84844 0.0
H545 H 0.21481 0.36964 1.00031 0.0
H546 H 0.25008 0.39527 0.96608 0.0
H547 H 0.27144 0.41327 0.89254 0.0
H548 H 0.23523 0.39817 0.74042 0.0
H549 H 0.19662 0.37328 0.77492 0.0
C550 C 0.19147 0.36408 0.87401 0.0
C551 C 0.19246 0.36055 0.9268 0.0
C552 C 0.21224 0.37867 0.85397 0.0
C553 C 0.2138 0.37199 0.95946 0.0
C554 C 0.2339 0.38669 0.93996 0.0
C555 C 0.25477 0.40454 0.86724 0.0
C556 C 0.25587 0.40739 0.81428 0.0
C557 C 0.23354 0.3901 0.88729 0.0
C558 C 0.23461 0.39607 0.78141 0.0
C559 C 0.21268 0.38188 0.8011 0.0
H560 H 0.75572 0.6569 0.9256 0.0
H561 H 0.87537 0.64227 0.87567 0.0
H562 H 0.84803 0.61591 0.83455 0.0
H563 H 0.78962 0.59725 0.81111 0.0
H564 H 0.67009 0.61263 0.85824 0.0
H565 H 0.69776 0.63842 0.9024 0.0
C566 C 0.77586 0.64793 0.90586 0.0
C567 C 0.81749 0.65156 0.90368 0.0
C568 C 0.75992 0.6329 0.8819 0.0
C569 C 0.84314 0.63984 0.87769 0.0
C570 C 0.82757 0.62472 0.85428 0.0
C571 C 0.7699 0.60621 0.83159 0.0
C572 C 0.72808 0.60313 0.83205 0.0
C573 C 0.78599 0.62115 0.85599 0.0
C574 C 0.70245 0.61484 0.85778 0.0
C575 C 0.71823 0.62955 0.88286 0.0
H576 H 0.0403 0.65705 0.06024 0.0
H577 H 0.92481 0.64893 0.13231 0.0
H578 H 0.95026 0.62242 0.1747 0.0
H579 H 0.00473 0.60104 0.18849 0.0
H580 H 0.11963 0.60854 0.11323 0.0
H581 H 0.09514 0.63569 0.07463 0.0
C582 C 0.0211 0.64954 0.08584 0.0
C583 C 0.98109 0.65486 0.09396 0.0
C584 C 0.03568 0.63413 0.10894 0.0
C585 C 0.95591 0.64501 0.12624 0.0
C586 C 0.97037 0.62987 0.15014 0.0
C587 C 0.02444 0.60861 0.16369 0.0
C588 C 0.06389 0.6027 0.15368 0.0
C589 C 0.01009 0.62419 0.14132 0.0
C590 C 0.08901 0.6127 0.12137 0.0
C591 C 0.0751 0.62828 0.09938 0.0
H592 H 0.96383 0.35104 0.06471 0.0
H593 H 0.08223 0.36506 0.11992 0.0
H594 H 0.05459 0.39117 0.1622 0.0
H595 H 0.99702 0.41035 0.18163 0.0
H596 H 0.87861 0.39693 0.12403 0.0
H597 H 0.90579 0.3703 0.08465 0.0
C598 C 0.98328 0.35974 0.08664 0.0
C599 C 0.02478 0.35613 0.09002 0.0
C600 C 0.96723 0.37487 0.11006 0.0
C601 C 0.05008 0.36761 0.11739 0.0
C602 C 0.03432 0.38252 0.14137 0.0
C603 C 0.9771 0.40159 0.16059 0.0
C604 C 0.93584 0.40568 0.15577 0.0
C605 C 0.99298 0.38635 0.13769 0.0
C606 C 0.91054 0.39418 0.12815 0.0
C607 C 0.92603 0.3789 0.10569 0.0
H608 H 0.23796 0.85728 0.45605 0.0
H609 H 0.13206 0.86129 0.3603 0.0
H610 H 0.16058 0.88717 0.31836 0.0
H611 H 0.21677 0.90821 0.30698 0.0
H612 H 0.32319 0.90359 0.40068 0.0
H613 H 0.29332 0.87846 0.44576 0.0
C614 C 0.22104 0.86383 0.42611 0.0
C615 C 0.18302 0.85731 0.41124 0.0
C616 C 0.23769 0.87863 0.40197 0.0
C617 C 0.16152 0.86597 0.37232 0.0
C618 C 0.17774 0.8808 0.34837 0.0
C619 C 0.23295 0.90177 0.33778 0.0
C620 C 0.27168 0.90766 0.35126 0.0
C621 C 0.21588 0.88719 0.36269 0.0
C622 C 0.29307 0.89921 0.39037 0.0
C623 C 0.27611 0.88486 0.41585 0.0
H624 H 0.7604 0.15447 0.45146 0.0
H625 H 0.87616 0.14438 0.38121 0.0
H626 H 0.84751 0.11932 0.33502 0.0
H627 H 0.78878 0.1008 0.31221 0.0
H628 H 0.67332 0.11108 0.38206 0.0
H629 H 0.70249 0.1356 0.43062 0.0
C630 C 0.77947 0.14676 0.42626 0.0
C631 C 0.82035 0.15136 0.41974 0.0
C632 C 0.76277 0.13242 0.3996 0.0
C633 C 0.84455 0.14119 0.38685 0.0
C634 C 0.8282 0.12684 0.36038 0.0
C635 C 0.77031 0.10831 0.33864 0.0
C636 C 0.72917 0.10419 0.34407 0.0
C637 C 0.78729 0.12241 0.36618 0.0
C638 C 0.70513 0.11411 0.37755 0.0
C639 C 0.72178 0.12809 0.40522 0.0
H640 H 0.01481 0.14658 0.54232 0.0
H641 H 0.97693 0.17202 0.68157 0.0
H642 H 0.00644 0.14811 0.73224 0.0
H643 H 0.04167 0.11955 0.73628 0.0
H644 H 0.08183 0.09494 0.59637 0.0
H645 H 0.05254 0.11883 0.54643 0.0
C646 C 0.01322 0.14684 0.58379 0.0
C647 C 0.99365 0.16083 0.60846 0.0
C648 C 0.03034 0.13316 0.61236 0.0
C649 C 0.992 0.16129 0.66207 0.0
C650 C 0.00864 0.14762 0.69089 0.0
C651 C 0.04379 0.11941 0.69486 0.0
C652 C 0.06352 0.10544 0.66999 0.0
C653 C 0.02757 0.13339 0.66639 0.0
C654 C 0.06672 0.10554 0.61636 0.0
C655 C 0.05 0.11919 0.58778 0.0
H656 H 0.00316 0.90711 0.69099 0.0
H657 H 0.88375 0.89801 0.62975 0.0
H658 H 0.90668 0.8707 0.59014 0.0
H659 H 0.96144 0.84974 0.57027 0.0
H660 H 0.0812 0.85956 0.62817 0.0
H661 H 0.05745 0.88609 0.67215 0.0
C662 C 0.98211 0.89915 0.66909 0.0
C663 C 0.94183 0.90468 0.66327 0.0
C664 C 0.99557 0.8835 0.64601 0.0
C665 C 0.91501 0.89416 0.63464 0.0
C666 C 0.92804 0.87849 0.61206 0.0
C667 C 0.982 0.85761 0.59322 0.0
C668 C 0.02276 0.85274 0.59675 0.0
C669 C 0.96829 0.87306 0.61725 0.0
C670 C 0.04956 0.86309 0.62558 0.0
C671 C 0.03604 0.87826 0.65042 0.0
H672 H 0.80539 0.39832 0.3662 0.0
H673 H 0.69879 0.41675 0.28885 0.0
H674 H 0.65934 0.39232 0.32458 0.0
H675 H 0.65544 0.36568 0.37819 0.0
H676 H 0.7622 0.34792 0.4575 0.0
H677 H 0.80126 0.37203 0.42084 0.0
C678 C 0.77352 0.39691 0.35733 0.0
C679 C 0.75481 0.4092 0.32525 0.0
C680 C 0.75111 0.38296 0.37836 0.0
C681 C 0.71356 0.4074 0.31383 0.0
C682 C 0.69112 0.39345 0.33413 0.0
C683 C 0.68726 0.36708 0.38733 0.0
C684 C 0.70583 0.35498 0.42047 0.0
C685 C 0.70957 0.38114 0.36649 0.0
C686 C 0.74705 0.35707 0.43225 0.0
C687 C 0.7695 0.37084 0.41123 0.0
H688 H 0.28828 0.59791 0.30616 0.0
H689 H 0.17034 0.60744 0.36997 0.0
H690 H 0.19605 0.63343 0.41515 0.0
H691 H 0.25178 0.65366 0.43512 0.0
H692 H 0.36997 0.64432 0.37075 0.0
H693 H 0.34465 0.61799 0.32755 0.0
C694 C 0.2685 0.6056 0.33054 0.0
C695 C 0.22767 0.60079 0.33534 0.0
C696 C 0.2835 0.62056 0.35608 0.0
C697 C 0.20194 0.61096 0.36607 0.0
C698 C 0.21662 0.62578 0.39179 0.0
C699 C 0.27208 0.64586 0.41178 0.0
C700 C 0.31271 0.65103 0.40615 0.0
C701 C 0.2573 0.63076 0.38688 0.0
C702 C 0.33852 0.64072 0.37567 0.0
C703 C 0.32408 0.62563 0.35094 0.0
H704 H 0.50356 0.64657 0.5273 0.0
H705 H 0.47175 0.67312 0.66726 0.0
H706 H 0.50462 0.64996 0.71735 0.0
H707 H 0.54133 0.62183 0.72094 0.0
H708 H 0.57584 0.59607 0.58033 0.0
H709 H 0.54295 0.61917 0.53076 0.0
C710 C 0.50391 0.64719 0.56878 0.0
C711 C 0.48508 0.6613 0.59386 0.0
C712 C 0.52319 0.63397 0.59706 0.0
C713 C 0.48611 0.66228 0.64744 0.0
C714 C 0.50474 0.64905 0.67596 0.0
C715 C 0.54153 0.62127 0.67946 0.0
C716 C 0.56068 0.6072 0.65433 0.0
C717 C 0.52315 0.63476 0.65117 0.0
C718 C 0.56128 0.60677 0.60056 0.0
C719 C 0.54244 0.61996 0.57218 0.0
H720 H 0.49793 0.3613 0.53262 0.0
H721 H 0.55307 0.34052 0.66883 0.0
H722 H 0.52106 0.36356 0.72058 0.0
H723 H 0.47746 0.38969 0.72656 0.0
H724 H 0.42004 0.40961 0.59019 0.0
H725 H 0.45272 0.38688 0.53897 0.0
C726 C 0.50291 0.36195 0.57362 0.0
C727 C 0.52792 0.3495 0.59714 0.0
C728 C 0.48398 0.37503 0.60297 0.0
C729 C 0.53393 0.35012 0.65024 0.0
C730 C 0.51569 0.36325 0.67967 0.0
C731 C 0.47216 0.38906 0.68564 0.0
C732 C 0.44649 0.40138 0.66225 0.0
C733 C 0.49068 0.3758 0.65642 0.0
C734 C 0.4396 0.40028 0.60922 0.0
C735 C 0.45834 0.3873 0.57982 0.0
H736 H 0.68277 0.85568 0.85364 0.0
H737 H 0.72225 0.86864 1.00653 0.0
H738 H 0.75574 0.89511 0.97463 0.0
H739 H 0.77539 0.91432 0.90267 0.0
H740 H 0.73981 0.90036 0.74941 0.0
H741 H 0.70298 0.87465 0.78176 0.0
C742 C 0.69859 0.86434 0.87996 0.0
C743 C 0.70003 0.86019 0.93234 0.0
C744 C 0.71843 0.87938 0.86121 0.0
C745 C 0.72091 0.87147 0.96595 0.0
C746 C 0.73997 0.88664 0.94779 0.0
C747 C 0.75925 0.90566 0.87667 0.0
C748 C 0.7599 0.90911 0.82399 0.0
C749 C 0.73912 0.8907 0.89548 0.0
C750 C 0.73943 0.89784 0.7902 0.0
C751 C 0.71852 0.88317 0.80867 0.0
H752 H 0.26248 0.1558 0.94684 0.0
H753 H 0.37512 0.14857 0.86624 0.0
H754 H 0.34792 0.12234 0.82432 0.0
H755 H 0.29142 0.10167 0.80915 0.0
H756 H 0.1787 0.1093 0.88838 0.0
H757 H 0.20647 0.13518 0.93218 0.0
C758 C 0.28116 0.14847 0.92022 0.0
C759 C 0.32078 0.15419 0.90971 0.0
C760 C 0.26527 0.13346 0.89601 0.0
C761 C 0.34447 0.14454 0.87493 0.0
C762 C 0.32897 0.1295 0.85096 0.0
C763 C 0.2733 0.10892 0.83656 0.0
C764 C 0.23341 0.10357 0.84634 0.0
C765 C 0.28938 0.12386 0.8611 0.0
C766 C 0.20965 0.11321 0.88082 0.0
C767 C 0.22548 0.12797 0.90571 0.0
H768 H 0.5963 0.11982 0.14176 0.0
H769 H 0.48563 0.09972 0.20706 0.0
H770 H 0.44788 0.12393 0.1693 0.0
H771 H 0.44588 0.1507 0.11671 0.0
H772 H 0.5561 0.17142 0.05301 0.0
H773 H 0.59457 0.14722 0.09124 0.0
C774 C 0.56393 0.12075 0.14763 0.0
C775 C 0.54382 0.10793 0.177 0.0
C776 C 0.54236 0.13486 0.12623 0.0
C777 C 0.50191 0.10941 0.18471 0.0
C778 C 0.48023 0.12325 0.16307 0.0
C779 C 0.47836 0.14987 0.11152 0.0
C780 C 0.49834 0.16271 0.08243 0.0
C781 C 0.50009 0.13601 0.1337 0.0
C782 C 0.54033 0.16167 0.07573 0.0
C783 C 0.56221 0.14783 0.09735 0.0
H784 H 0.46996 0.84833 0.06138 0.0
H785 H 0.58477 0.85645 0.1354 0.0
H786 H 0.55705 0.88125 0.18387 0.0
H787 H 0.50087 0.90117 0.20265 0.0
H788 H 0.38615 0.89357 0.12696 0.0
H789 H 0.41291 0.86796 0.08192 0.0
C790 C 0.4885 0.85541 0.08881 0.0
C791 C 0.529 0.85059 0.09566 0.0
C792 C 0.47248 0.86976 0.11587 0.0
C793 C 0.55334 0.85998 0.13017 0.0
C794 C 0.53755 0.87413 0.15765 0.0
C795 C 0.48163 0.89387 0.17651 0.0
C796 C 0.44164 0.89933 0.16808 0.0
C797 C 0.49727 0.87924 0.15046 0.0
C798 C 0.41714 0.88972 0.13398 0.0
C799 C 0.43238 0.87505 0.10822 0.0
H800 H 0.99072 0.24891 0.38093 0.0
H801 H 0.94146 0.20053 0.32003 0.0
H802 H 0.95846 0.20977 0.23366 0.0
H803 H 0.98449 0.23199 0.17445 0.0
H804 H 0.03178 0.28082 0.2338 0.0
H805 H 0.01896 0.27094 0.3211 0.0
C806 C 0.98407 0.24032 0.34883 0.0
C807 C 0.9646 0.22407 0.35729 0.0
C808 C 0.99366 0.24578 0.29869 0.0
C809 C 0.95616 0.21316 0.31497 0.0
C810 C 0.96587 0.21842 0.26535 0.0
C811 C 0.99223 0.24043 0.20653 0.0
C812 C 0.0099 0.25696 0.19742 0.0
C813 C 0.98411 0.23478 0.25666 0.0
C814 C 0.01952 0.26778 0.23945 0.0
C815 C 0.01167 0.26222 0.28956 0.0
H816 H 0.06335 0.79926 0.30906 0.0
H817 H 0.00486 0.75872 0.39807 0.0
H818 H 0.98303 0.74404 0.31956 0.0
H819 H 0.98449 0.74168 0.22566 0.0
H820 H 0.04286 0.78231 0.13715 0.0
H821 H 0.06132 0.79781 0.21557 0.0
C822 C 0.04555 0.78729 0.31145 0.0
C823 C 0.03601 0.7801 0.35958 0.0
C824 C 0.03331 0.77884 0.26618 0.0
C825 C 0.01278 0.76458 0.36166 0.0
C826 C 1.00033 0.75613 0.31672 0.0
C827 C 1.00018 0.75415 0.22334 0.0
C828 C 0.01168 0.76093 0.17539 0.0
C829 C 0.01085 0.76302 0.26873 0.0
C830 C 0.03359 0.77679 0.17351 0.0
C831 C 0.04412 0.7857 0.21835 0.0
H832 H 0.32008 0.49852 0.42145 0.0
H833 H 0.1928 0.5024 0.45605 0.0
H834 H 0.20563 0.49338 0.54357 0.0
H835 H 0.25295 0.48323 0.61051 0.0
H836 H 0.37855 0.47595 0.57205 0.0
H837 H 0.36633 0.4872 0.48601 0.0
C838 C 0.29499 0.49742 0.44796 0.0
C839 C 0.2557 0.50187 0.43201 0.0
C840 C 0.3023 0.49144 0.49784 0.0
C841 C 0.22369 0.50006 0.46714 0.0
C842 C 0.2309 0.49457 0.5174 0.0
C843 C 0.27758 0.48425 0.58327 0.0
C844 C 0.31659 0.47888 0.59749 0.0
C845 C 0.2701 0.49022 0.53321 0.0
C846 C 0.34822 0.47998 0.56179 0.0
C847 C 0.34129 0.48641 0.51265 0.0
H848 H 0.6771 0.5496 0.5524 0.0
H849 H 0.73465 0.50798 0.63759 0.0
H850 H 0.75637 0.49419 0.55775 0.0
H851 H 0.75585 0.49315 0.46382 0.0
H852 H 0.69927 0.53503 0.37898 0.0
H853 H 0.67961 0.54933 0.45885 0.0
C854 C 0.69455 0.53755 0.55365 0.0
C855 C 0.704 0.52982 0.60105 0.0
C856 C 0.70691 0.52967 0.50766 0.0
C857 C 0.72685 0.51424 0.60173 0.0
C858 C 0.73924 0.50631 0.55606 0.0
C859 C 0.74032 0.50565 0.46264 0.0
C860 C 0.72979 0.51317 0.41535 0.0
C861 C 0.72916 0.51383 0.50878 0.0
C862 C 0.70788 0.52898 0.41486 0.0
C863 C 0.69667 0.53719 0.4605 0.0
H864 H 0.93916 0.70832 0.80827 0.0
H865 H 0.99939 0.74837 0.89776 0.0
H866 H 0.0215 0.76298 0.81948 0.0
H867 H 0.0198 0.76548 0.72571 0.0
H868 H 0.95974 0.72537 0.63658 0.0
H869 H 0.94099 0.70987 0.71475 0.0
C870 C 0.9574 0.72017 0.8108 0.0
C871 C 0.96734 0.72724 0.85901 0.0
C872 C 0.96982 0.72859 0.76564 0.0
C873 C 0.99114 0.7426 0.86128 0.0
C874 C 0.00376 0.75102 0.81647 0.0
C875 C 0.00368 0.75311 0.72318 0.0
C876 C 0.99179 0.74648 0.67516 0.0
C877 C 0.99285 0.74426 0.76841 0.0
C878 C 0.96933 0.73077 0.67302 0.0
C879 C 0.95862 0.72187 0.71771 0.0
H880 H 0.06727 0.3026 0.81173 0.0
H881 H 0.01492 0.26011 0.89901 0.0
H882 H 0.99193 0.24605 0.81996 0.0
H883 H 0.99039 0.24493 0.72569 0.0
H884 H 0.04213 0.28771 0.63912 0.0
H885 H 0.06214 0.30235 0.71826 0.0
C886 C 0.05062 0.29032 0.81366 0.0
C887 C 0.04311 0.28243 0.86151 0.0
C888 C 0.03755 0.28226 0.76804 0.0
C889 C 0.02124 0.26653 0.86291 0.0
C890 C 0.00813 0.25843 0.81761 0.0
C891 C 0.00494 0.25767 0.72395 0.0
C892 C 0.01409 0.26528 0.67616 0.0
C893 C 0.01647 0.26608 0.76987 0.0
C894 C 0.03461 0.28151 0.6752 0.0
C895 C 0.04606 0.28993 0.72051 0.0
H896 H 0.28215 0.98026 0.92263 0.0
H897 H 0.2409 0.03042 0.97894 0.0
H898 H 0.2518 0.02081 0.06694 0.0
H899 H 0.27665 0.99852 0.12824 0.0
H900 H 0.31979 0.94875 0.07025 0.0
H901 H 0.30462 0.95782 0.98324 0.0
C902 C 0.27536 0.98905 0.9542 0.0
C903 C 0.25995 0.00589 0.9441 0.0
C904 C 0.28226 0.98352 1.00471 0.0
C905 C 0.25147 0.01717 0.98545 0.0
C906 C 0.25817 0.01174 0.03593 0.0
C907 C 0.28227 0.9896 0.09662 0.0
C908 C 0.29957 0.973 0.10604 0.0
C909 C 0.27384 0.99497 0.04609 0.0
C910 C 0.30681 0.96165 0.06438 0.0
C911 C 0.29816 0.96682 0.01441 0.0
H912 H 0.68942 0.01809 0.92163 0.0
H913 H 0.80886 1.00181 0.96806 0.0
H914 H 0.79521 0.0113 0.05483 0.0
H915 H 0.74965 0.02506 0.11871 0.0
H916 H 0.63321 0.04397 0.06909 0.0
H917 H 0.64585 0.03298 0.98307 0.0
C918 C 0.71268 0.01655 0.9505 0.0
C919 C 0.74965 0.00849 0.9376 0.0
C920 C 0.70529 0.02276 1.00035 0.0
C921 C 0.77931 0.007 0.9761 0.0
C922 C 0.77177 0.01276 0.02619 0.0
C923 C 0.72708 0.02673 0.08904 0.0
C924 C 0.69052 0.03534 0.10055 0.0
C925 C 0.73483 0.02066 0.03888 0.0
C926 C 0.66174 0.03752 0.06143 0.0
C927 C 0.66885 0.03118 0.01211 0.0
H928 H 0.52326 0.26644 0.71569 0.0
H929 H 0.46722 0.22419 0.63091 0.0
H930 H 0.44461 0.2107 0.71074 0.0
H931 H 0.43913 0.21134 0.80439 0.0
H932 H 0.49581 0.25356 0.88907 0.0
H933 H 0.52057 0.26637 0.80951 0.0
C934 C 0.50719 0.25403 0.7146 0.0
C935 C 0.49772 0.24616 0.66732 0.0
C936 C 0.49416 0.24636 0.76068 0.0
C937 C 0.47512 0.23047 0.66681 0.0
C938 C 0.46217 0.22274 0.71244 0.0
C939 C 0.45705 0.2233 0.80557 0.0
C940 C 0.46536 0.23147 0.85282 0.0
C941 C 0.47122 0.23065 0.7596 0.0
C942 C 0.48879 0.24696 0.85338 0.0
C943 C 0.50299 0.25433 0.80783 0.0
H944 H 0.52446 0.76178 0.86767 0.0
H945 H 0.57336 0.8108 0.81135 0.0
H946 H 0.55243 0.80327 0.72494 0.0
H947 H 0.52262 0.78249 0.664 0.0
H948 H 0.47614 0.73286 0.71813 0.0
H949 H 0.49303 0.74099 0.80591 0.0
C950 C 0.53022 0.77087 0.83657 0.0
C951 C 0.55072 0.78682 0.84642 0.0
C952 C 0.51835 0.76639 0.7862 0.0
C953 C 0.55799 0.79837 0.8053 0.0
C954 C 0.54597 0.7941 0.7556 0.0
C955 C 0.51591 0.77348 0.69502 0.0
C956 C 0.49713 0.75726 0.6842 0.0
C957 C 0.52655 0.77808 0.74545 0.0
C958 C 0.48906 0.74571 0.72503 0.0
C959 C 0.49929 0.75027 0.77546 0.0
H960 H 0.8157 0.46145 0.0506 0.0
H961 H 0.74646 0.49936 0.13706 0.0
H962 H 0.72482 0.51338 0.05807 0.0
H963 H 0.72889 0.51612 0.96499 0.0
H964 H 0.79636 0.47798 0.87769 0.0
H965 H 0.81614 0.46311 0.95661 0.0
C966 C 0.7956 0.47268 0.05221 0.0
C967 C 0.78298 0.47934 0.0999 0.0
C968 C 0.78323 0.48078 1.0065 0.0
C969 C 0.75682 0.49391 0.10105 0.0
C970 C 0.74444 0.50201 0.05583 0.0
C971 C 0.74679 0.50424 0.96291 0.0
C972 C 0.76029 0.49795 0.91529 0.0
C973 C 0.75781 0.49569 1.00839 0.0
C974 C 0.78534 0.48305 0.91385 0.0
C975 C 0.79661 0.47451 0.95895 0.0
H976 H 0.16445 0.53617 0.05583 0.0
H977 H 0.27599 0.52182 0.13005 0.0
H978 H 0.3022 0.51038 0.04894 0.0
H979 H 0.29336 0.50481 0.95707 0.0
H980 H 0.17911 0.51695 0.88533 0.0
H981 H 0.15465 0.52936 0.96515 0.0
C982 C 0.19461 0.53063 0.05424 0.0
C983 C 0.21833 0.52997 0.09884 0.0
C984 C 0.20907 0.5237 1.00789 0.0
C985 C 0.25711 0.52251 0.09625 0.0
C986 C 0.27211 0.51597 0.04987 0.0
C987 C 0.26274 0.5096 0.95873 0.0
C988 C 0.23804 0.50944 0.91472 0.0
C989 C 0.24824 0.5164 1.00543 0.0
C990 C 0.19904 0.51674 0.9182 0.0
C991 C 0.18482 0.52385 0.96402 0.0
H992 H 0.48407 0.74936 0.3679 0.0
H993 H 0.43326 0.70073 0.31079 0.0
H994 H 0.45291 0.70849 0.22423 0.0
H995 H 0.48224 0.72935 0.16335 0.0
H996 H 0.53131 0.77845 0.21833 0.0
H997 H 0.51525 0.77017 0.30621 0.0
C998 C 0.47759 0.74041 0.33659 0.0
C999 C 0.45693 0.7245 0.34632 0.0
C1000 C 0.48882 0.745 0.2861 0.0
C1001 C 0.44879 0.71312 0.3049 0.0
C1002 C 0.46006 0.71753 0.25508 0.0
C1003 C 0.48968 0.73821 0.19459 0.0
C1004 C 0.50888 0.75432 0.18401 0.0
C1005 C 0.47968 0.73349 0.24509 0.0
C1006 C 0.51794 0.76568 0.22508 0.0
C1007 C 0.50823 0.76104 0.27555 0.0
H1008 H 0.5734 0.30227 0.30473 0.0
H1009 H 0.51795 0.25993 0.38972 0.0
H1010 H 0.49294 0.24698 0.31038 0.0
H1011 H 0.49018 0.24667 0.21657 0.0
H1012 H 0.54482 0.28908 0.13144 0.0
H1013 H 0.56723 0.30282 0.2111 0.0
C1014 C 0.55565 0.29027 0.30602 0.0
C1015 C 0.54785 0.28209 0.35332 0.0
C1016 C 0.54133 0.28282 0.26014 0.0
C1017 C 0.5246 0.26655 0.35402 0.0
C1018 C 0.51027 0.25908 0.30857 0.0
C1019 C 0.50586 0.25917 0.21533 0.0
C1020 C 0.51508 0.26698 0.16796 0.0
C1021 C 0.51876 0.267 0.26136 0.0
C1022 C 0.53716 0.28281 0.16737 0.0
C1023 C 0.54999 0.29069 0.21292 0.0
H1024 H 0.74135 0.98658 0.6149 0.0
H1025 H 0.86501 0.97587 0.573 0.0
H1026 H 0.85272 0.98686 0.48698 0.0
H1027 H 0.80729 0.99933 0.4232 0.0
H1028 H 0.68169 0.00724 0.46115 0.0
H1029 H 0.69444 0.99787 0.54849 0.0
C1030 C 0.76554 0.98674 0.58691 0.0
C1031 C 0.80404 0.98043 0.60048 0.0
C1032 C 0.75805 0.99273 0.53666 0.0
C1033 C 0.83501 0.98053 0.56358 0.0
C1034 C 0.82807 0.98686 0.5143 0.0
C1035 C 0.78254 0.99903 0.45041 0.0
C1036 C 0.74388 1.00475 0.43538 0.0
C1037 C 0.78971 0.99292 0.50032 0.0
C1038 C 0.71228 1.00392 0.47146 0.0
C1039 C 0.7194 0.99823 0.52165 0.0
H1040 H 0.24114 0.01078 0.62795 0.0
H1041 H 0.19857 0.06091 0.57285 0.0
H1042 H 0.21606 0.05269 0.48552 0.0
H1043 H 0.23996 0.03076 0.42379 0.0
H1044 H 0.27871 0.97993 0.4775 0.0
H1045 H 0.26676 0.98894 0.56571 0.0
C1046 C 0.23625 0.01998 0.5969 0.0
C1047 C 0.21848 0.03642 0.60706 0.0
C1048 C 0.24567 0.01503 0.54624 0.0
C1049 C 0.21197 0.04812 0.56621 0.0
C1050 C 0.22192 0.04343 0.51613 0.0
C1051 C 0.24604 0.02168 0.45483 0.0
C1052 C 0.26124 1.00484 0.44382 0.0
C1053 C 0.23814 0.02682 0.50556 0.0
C1054 C 0.26858 0.9932 0.48457 0.0
C1055 C 0.2612 0.99828 0.53524 0.0
H1056 H 0.33879 0.26143 0.02346 0.0
H1057 H 0.2773 0.21139 0.01598 0.0
H1058 H 0.212 0.22618 0.02289 0.0
H1059 H 0.17217 0.25351 0.02318 0.0
H1060 H 0.23382 0.30356 0.02198 0.0
H1061 H 0.29909 0.28867 0.02687 0.0
C1062 C 0.31111 0.25376 0.0242 0.0
C1063 C 0.31288 0.23535 0.01923 0.0
C1064 C 0.27362 0.26239 0.0263 0.0
C1065 C 0.27673 0.22559 0.01954 0.0
C1066 C 0.23937 0.23404 0.02345 0.0
C1067 C 0.1999 0.26113 0.0249 0.0
C1068 C 0.19823 0.27959 0.02232 0.0
C1069 C 0.2374 0.25246 0.02571 0.0
C1070 C 0.23439 0.28932 0.02378 0.0
C1071 C 0.2717 0.28082 0.0265 0.0
H1072 H 0.84068 0.75675 0.02621 0.0
H1073 H 0.77688 0.70737 0.01397 0.0
H1074 H 0.71222 0.72276 0.01749 0.0
H1075 H 0.67396 0.75043 0.01565 0.0
H1076 H 0.73814 0.79988 0.02017 0.0
H1077 H 0.80231 0.78435 0.02848 0.0
C1078 C 0.8126 0.74936 0.02524 0.0
C1079 C 0.81352 0.73097 0.01975 0.0
C1080 C 0.77555 0.75834 0.02542 0.0
C1081 C 0.77692 0.72155 0.01791 0.0
C1082 C 0.73994 0.73035 0.01985 0.0
C1083 C 0.70195 0.75779 0.01925 0.0
C1084 C 0.70133 0.77626 0.0171 0.0
C1085 C 0.73889 0.74876 0.02232 0.0
C1086 C 0.73787 0.78564 0.02133 0.0
C1087 C 0.77458 0.77677 0.02609 0.0
H1088 H 0.02505 0.5386 0.26185 0.0
H1089 H 0.10509 0.49392 0.25879 0.0
H1090 H 0.04723 0.47392 0.26159 0.0
H1091 H 0.97348 0.46911 0.25865 0.0
H1092 H 0.89377 0.51386 0.2673 0.0
H1093 H 0.95171 0.53374 0.26906 0.0
C1094 C 0.02978 0.52448 0.26231 0.0
C1095 C 0.06926 0.51777 0.25957 0.0
C1096 C 0.99638 0.51303 0.26473 0.0
C1097 C 0.07499 0.49944 0.26091 0.0
C1098 C 0.0419 0.48798 0.26226 0.0
C1099 C 0.96886 0.4832 0.26148 0.0
C1100 C 0.92935 0.48997 0.26232 0.0
C1101 C 1.00241 0.49462 0.26323 0.0
C1102 C 0.92385 0.50827 0.26663 0.0
C1103 C 0.95698 0.51968 0.26738 0.0
H1104 H 0.33101 0.75894 0.51588 0.0
H1105 H 0.26934 0.70886 0.51631 0.0
H1106 H 0.20431 0.72373 0.52452 0.0
H1107 H 0.1645 0.75101 0.52389 0.0
H1108 H 0.22597 0.80103 0.51575 0.0
H1109 H 0.29135 0.78621 0.51885 0.0
C1110 C 0.30337 0.75128 0.51853 0.0
C1111 C 0.30501 0.73283 0.51533 0.0
C1112 C 0.26595 0.75994 0.52162 0.0
C1113 C 0.26889 0.72309 0.51831 0.0
C1114 C 0.23167 0.73158 0.52303 0.0
C1115 C 0.19223 0.75866 0.52373 0.0
C1116 C 0.19044 0.77707 0.51962 0.0
C1117 C 0.22975 0.75001 0.52362 0.0
C1118 C 0.2266 0.78682 0.51871 0.0
C1119 C 0.26399 0.77835 0.52039 0.0
H1120 H 0.84204 0.25855 0.5232 0.0
H1121 H 0.78106 0.2084 0.5313 0.0
H1122 H 0.71568 0.22321 0.53498 0.0
H1123 H 0.67561 0.25026 0.52757 0.0
H1124 H 0.73667 0.30018 0.51202 0.0
H1125 H 0.80207 0.28568 0.51993 0.0
C1126 C 0.81446 0.25089 0.5267 0.0
C1127 C 0.81633 0.23243 0.52688 0.0
C1128 C 0.77691 0.25946 0.52694 0.0
C1129 C 0.78035 0.22265 0.5308 0.0
C1130 C 0.74295 0.2311 0.53283 0.0
C1131 C 0.70323 0.25797 0.52668 0.0
C1132 C 0.70131 0.27624 0.51896 0.0
C1133 C 0.74081 0.24948 0.52964 0.0
C1134 C 0.73736 0.28607 0.51746 0.0
C1135 C 0.77478 0.27779 0.52202 0.0
H1136 H 0.02932 0.03936 0.77926 0.0
H1137 H 0.11212 0.99579 0.76836 0.0
H1138 H 0.05568 0.97504 0.77131 0.0
H1139 H 0.98232 0.96938 0.7697 0.0
H1140 H 0.8999 0.01303 0.78486 0.0
H1141 H 0.95654 0.03351 0.78828 0.0
C1142 C 0.03498 0.02532 0.77807 0.0
C1143 C 0.07477 0.01914 0.77298 0.0
C1144 C 1.00242 0.01343 0.78042 0.0
C1145 C 0.08174 1.0009 0.77224 0.0
C1146 C 0.04946 0.98901 0.77371 0.0
C1147 C 0.97678 0.98335 0.77444 0.0
C1148 C 0.93684 0.98962 0.77636 0.0
C1149 C 0.0096 0.99514 0.77673 0.0
C1150 C 0.93026 0.00777 0.78315 0.0
C1151 C 0.96267 0.01956 0.78484 0.0
H1152 H 0.41737 0.50721 0.77921 0.0
H1153 H 0.48217 0.45827 0.79246 0.0
H1154 H 0.54619 0.47431 0.79766 0.0
H1155 H 0.58406 0.5019 0.78671 0.0
H1156 H 0.51918 0.55048 0.76476 0.0
H1157 H 0.45497 0.53499 0.77509 0.0
C1158 C 0.44542 0.50009 0.78455 0.0
C1159 C 0.4451 0.4816 0.78536 0.0
C1160 C 0.48218 0.50934 0.78515 0.0
C1161 C 0.48171 0.47252 0.79158 0.0
C1162 C 0.51832 0.48168 0.79431 0.0
C1163 C 0.55588 0.50914 0.78513 0.0
C1164 C 0.55635 0.52727 0.77455 0.0
C1165 C 0.51901 0.50005 0.7893 0.0
C1166 C 0.51959 0.53647 0.77233 0.0
C1167 C 0.48286 0.52763 0.77824 0.0
H1168 H 0.41825 0.00663 0.2849 0.0
H1169 H 0.48588 0.95843 0.2697 0.0
H1170 H 0.54919 0.9748 0.27702 0.0
H1171 H 0.58523 1.00305 0.2782 0.0
H1172 H 0.51744 0.05138 0.28613 0.0
H1173 H 0.45438 0.03473 0.29197 0.0
C1174 C 0.44682 0.99967 0.28399 0.0
C1175 C 0.44736 0.98137 0.27634 0.0
C1176 C 0.48313 0.00922 0.28666 0.0
C1177 C 0.48465 0.97255 0.27504 0.0
C1178 C 0.52088 0.98189 0.27924 0.0
C1179 C 0.55671 0.00991 0.28228 0.0
C1180 C 0.55593 0.02839 0.2815 0.0
C1181 C 0.52049 1.00027 0.28368 0.0
C1182 C 0.51875 0.03714 0.28629 0.0
C1183 C 0.48269 0.02764 0.28951 0.0
loop_
_geom_bond_atom_site_label_1
_geom_bond_atom_site_label_2
_geom_bond_distance
_geom_bond_site_symmetry_2
_ccdc_geom_bond_type
Co0 O3 1.970 . S
Co0 N17 1.989 . S
Co0 O25 1.967 . S
Co0 O32 1.920 . S
Co1 O4 1.966 . S
Co1 N10 2.022 . S
Co1 N18 1.993 . S
Co1 O26 1.941 1_554 S
C2 O3 1.258 . S
C2 O4 1.263 1_556 S
O3 Co0 1.970 . S
O3 C2 1.258 . S
O4 Co1 1.966 . S
O4 C2 1.263 1_554 S
C5 O6 1.235 . S
C5 O32 1.289 . S
O6 C5 1.235 . S
C7 C9 1.400 . S
C7 N10 1.351 . S
C7 C12 1.501 . S
C8 C9 1.387 1_655 S
C8 N11 1.341 . S
C9 C7 1.400 . S
C9 C8 1.387 1_455 S
N10 Co1 2.022 . S
N10 C7 1.351 . S
N10 N11 1.365 1_455 S
N11 C8 1.341 . S
N11 N10 1.365 1_655 S
N11 H31 0.862 . S
C12 C7 1.501 . S
C12 H13 0.961 . S
C12 H14 0.961 . S
C12 H15 0.960 . S
H13 C12 0.961 . S
H14 C12 0.961 . S
H15 C12 0.960 . S
C16 N17 1.342 1_554 S
C16 C20 1.401 . S
C16 C21 1.499 1_554 S
N17 Co0 1.989 . S
N17 C16 1.342 1_556 S
N17 N18 1.388 1_556 S
N18 Co1 1.993 . S
N18 N17 1.388 1_554 S
N18 C19 1.346 . S
C19 N18 1.346 . S
C19 C20 1.396 . S
C19 C29 1.510 . S
C20 C16 1.401 . S
C20 C19 1.396 . S
C21 C16 1.499 1_556 S
C21 H22 0.959 . S
C21 H23 0.967 . S
C21 H24 0.961 . S
H22 C21 0.959 . S
H23 C21 0.967 . S
H24 C21 0.961 . S
O25 Co0 1.967 . S
O25 C33 1.258 . S
O26 Co1 1.941 1_556 S
O26 C33 1.266 . S
H27 C29 0.959 1_655 S
H28 C29 0.961 . S
C29 C19 1.510 . S
C29 H27 0.959 1_455 S
C29 H28 0.961 . S
C29 H30 0.960 . S
H30 C29 0.960 . S
H31 N11 0.862 . S
O32 Co0 1.920 . S
O32 C5 1.289 . S
C33 O25 1.258 . S
C33 O26 1.266 . S
Co34 O37 1.970 . S
Co34 N51 1.989 . S
Co34 O59 1.967 . S
Co34 O66 1.920 . S
Co35 O38 1.966 . S
Co35 N44 2.022 . S
Co35 N52 1.993 . S
Co35 O60 1.941 1_554 S
C36 O37 1.258 . S
C36 O38 1.263 1_556 S
O37 Co34 1.970 . S
O37 C36 1.258 . S
O38 Co35 1.966 . S
O38 C36 1.263 1_554 S
C39 O40 1.235 . S
C39 O66 1.289 . S
O40 C39 1.235 . S
C41 C43 1.400 . S
C41 N44 1.351 . S
C41 C46 1.501 . S
C42 C43 1.387 1_455 S
C42 N45 1.341 . S
C43 C41 1.400 . S
C43 C42 1.387 1_655 S
N44 Co35 2.022 . S
N44 C41 1.351 . S
N44 N45 1.365 1_655 S
N45 C42 1.341 . S
N45 N44 1.365 1_455 S
N45 H65 0.862 . S
C46 C41 1.501 . S
C46 H47 0.961 . S
C46 H48 0.961 . S
C46 H49 0.960 . S
H47 C46 0.961 . S
H48 C46 0.961 . S
H49 C46 0.960 . S
C50 N51 1.342 1_554 S
C50 C54 1.401 . S
C50 C55 1.499 1_554 S
N51 Co34 1.989 . S
N51 C50 1.342 1_556 S
N51 N52 1.388 1_556 S
N52 Co35 1.993 . S
N52 N51 1.388 1_554 S
N52 C53 1.346 . S
C53 N52 1.346 . S
C53 C54 1.396 . S
C53 C63 1.510 . S
C54 C50 1.401 . S
C54 C53 1.396 . S
C55 C50 1.499 1_556 S
C55 H56 0.959 . S
C55 H57 0.967 . S
C55 H58 0.961 . S
H56 C55 0.959 . S
H57 C55 0.967 . S
H58 C55 0.961 . S
O59 Co34 1.967 . S
O59 C67 1.258 . S
O60 Co35 1.941 1_556 S
O60 C67 1.266 . S
H61 C63 0.959 1_455 S
H62 C63 0.961 . S
C63 C53 1.510 . S
C63 H61 0.959 1_655 S
C63 H62 0.961 . S
C63 H64 0.960 . S
H64 C63 0.960 . S
H65 N45 0.862 . S
O66 Co34 1.920 . S
O66 C39 1.289 . S
C67 O59 1.258 . S
C67 O60 1.266 . S
Co68 O71 1.970 . S
Co68 N85 1.989 . S
Co68 O93 1.967 . S
Co68 O100 1.920 . S
Co69 O72 1.966 . S
Co69 N78 2.022 . S
Co69 N86 1.993 . S
Co69 O94 1.941 . S
C70 O71 1.258 . S
C70 O72 1.263 . S
O71 Co68 1.970 . S
O71 C70 1.258 . S
O72 Co69 1.966 . S
O72 C70 1.263 . S
C73 O74 1.235 . S
C73 O100 1.289 . S
O74 C73 1.235 . S
C75 C77 1.400 . S
C75 N78 1.351 . S
C75 C80 1.501 . S
C76 C77 1.387 . S
C76 N79 1.341 . S
C77 C75 1.400 . S
C77 C76 1.387 . S
N78 Co69 2.022 . S
N78 C75 1.351 . S
N78 N79 1.365 . S
N79 C76 1.341 . S
N79 N78 1.365 . S
N79 H99 0.862 . S
C80 C75 1.501 . S
C80 H81 0.961 . S
C80 H82 0.961 . S
C80 H83 0.960 . S
H81 C80 0.961 . S
H82 C80 0.961 . S
H83 C80 0.960 . S
C84 N85 1.342 . S
C84 C88 1.401 . S
C84 C89 1.499 . S
N85 Co68 1.989 . S
N85 C84 1.342 . S
N85 N86 1.388 . S
N86 Co69 1.993 . S
N86 N85 1.388 . S
N86 C87 1.346 . S
C87 N86 1.346 . S
C87 C88 1.396 . S
C87 C97 1.510 . S
C88 C84 1.401 . S
C88 C87 1.396 . S
C89 C84 1.499 . S
C89 H90 0.959 . S
C89 H91 0.960 . S
C89 H92 0.961 . S
H90 C89 0.959 . S
H91 C89 0.960 . S
H92 C89 0.961 . S
O93 Co68 1.967 . S
O93 C101 1.258 . S
O94 Co69 1.941 . S
O94 C101 1.266 . S
H95 C97 0.959 . S
H96 C97 0.961 . S
C97 C87 1.510 . S
C97 H95 0.959 . S
C97 H96 0.961 . S
C97 H98 0.960 . S
H98 C97 0.960 . S
H99 N79 0.862 . S
O100 Co68 1.920 . S
O100 C73 1.289 . S
C101 O93 1.258 . S
C101 O94 1.266 . S
Co102 O105 1.970 . S
Co102 N119 1.989 . S
Co102 O127 1.967 . S
Co102 O134 1.920 . S
Co103 O106 1.966 . S
Co103 N112 2.022 . S
Co103 N120 1.993 . S
Co103 O128 1.941 . S
C104 O105 1.258 . S
C104 O106 1.263 . S
O105 Co102 1.970 . S
O105 C104 1.258 . S
O106 Co103 1.966 . S
O106 C104 1.263 . S
C107 O108 1.235 . S
C107 O134 1.289 . S
O108 C107 1.235 . S
C109 C111 1.400 . S
C109 N112 1.351 . S
C109 C114 1.501 . S
C110 C111 1.387 . S
C110 N113 1.341 . S
C111 C109 1.400 . S
C111 C110 1.387 . S
N112 Co103 2.022 . S
N112 C109 1.351 . S
N112 N113 1.365 . S
N113 C110 1.341 . S
N113 N112 1.365 . S
N113 H133 0.862 . S
C114 C109 1.501 . S
C114 H115 0.961 . S
C114 H116 0.961 . S
C114 H117 0.960 . S
H115 C114 0.961 . S
H116 C114 0.961 . S
H117 C114 0.960 . S
C118 N119 1.342 . S
C118 C122 1.401 . S
C118 C123 1.499 . S
N119 Co102 1.989 . S
N119 C118 1.342 . S
N119 N120 1.388 . S
N120 Co103 1.993 . S
N120 N119 1.388 . S
N120 C121 1.346 . S
C121 N120 1.346 . S
C121 C122 1.396 . S
C121 C131 1.510 . S
C122 C118 1.401 . S
C122 C121 1.396 . S
C123 C118 1.499 . S
C123 H124 0.959 . S
C123 H125 0.960 . S
C123 H126 0.961 . S
H124 C123 0.959 . S
H125 C123 0.960 . S
H126 C123 0.961 . S
O127 Co102 1.967 . S
O127 C135 1.258 . S
O128 Co103 1.941 . S
O128 C135 1.266 . S
H129 C131 0.959 . S
H130 C131 0.961 . S
C131 C121 1.510 . S
C131 H129 0.959 . S
C131 H130 0.961 . S
C131 H132 0.960 . S
H132 C131 0.960 . S
H133 N113 0.862 . S
O134 Co102 1.920 . S
O134 C107 1.289 . S
C135 O127 1.258 . S
C135 O128 1.266 . S
Co136 O139 1.970 . S
Co136 N153 1.989 . S
Co136 O161 1.967 . S
Co136 O168 1.920 . S
Co137 O140 1.966 . S
Co137 N146 2.022 . S
Co137 N154 1.993 . S
Co137 O162 1.941 . S
C138 O139 1.258 . S
C138 O140 1.263 . S
O139 Co136 1.970 . S
O139 C138 1.258 . S
O140 Co137 1.966 . S
O140 C138 1.263 . S
C141 O142 1.235 . S
C141 O168 1.289 . S
O142 C141 1.235 . S
C143 C145 1.400 . S
C143 N146 1.351 . S
C143 C148 1.501 . S
C144 C145 1.387 1_655 S
C144 N147 1.341 . S
C145 C143 1.400 . S
C145 C144 1.387 1_455 S
N146 Co137 2.022 . S
N146 C143 1.351 . S
N146 N147 1.365 1_455 S
N147 C144 1.341 . S
N147 N146 1.365 1_655 S
N147 H167 0.862 . S
C148 C143 1.501 . S
C148 H149 0.961 . S
C148 H150 0.961 . S
C148 H151 0.960 . S
H149 C148 0.961 . S
H150 C148 0.961 . S
H151 C148 0.960 . S
C152 N153 1.342 . S
C152 C156 1.401 . S
C152 C157 1.499 . S
N153 Co136 1.989 . S
N153 C152 1.342 . S
N153 N154 1.388 . S
N154 Co137 1.993 . S
N154 N153 1.388 . S
N154 C155 1.346 . S
C155 N154 1.346 . S
C155 C156 1.396 . S
C155 C165 1.510 . S
C156 C152 1.401 . S
C156 C155 1.396 . S
C157 C152 1.499 . S
C157 H158 0.959 . S
C157 H159 0.960 . S
C157 H160 0.961 . S
H158 C157 0.959 . S
H159 C157 0.960 . S
H160 C157 0.961 . S
O161 Co136 1.967 . S
O161 C169 1.258 . S
O162 Co137 1.941 . S
O162 C169 1.266 . S
H163 C165 0.959 1_655 S
H164 C165 0.961 . S
C165 C155 1.510 . S
C165 H163 0.959 1_455 S
C165 H164 0.961 . S
C165 H166 0.960 . S
H166 C165 0.960 . S
H167 N147 0.862 . S
O168 Co136 1.920 . S
O168 C141 1.289 . S
C169 O161 1.258 . S
C169 O162 1.266 . S
Co170 O173 1.970 . S
Co170 N187 1.989 . S
Co170 O195 1.967 . S
Co170 O202 1.920 . S
Co171 O174 1.966 . S
Co171 N180 2.022 . S
Co171 N188 1.993 . S
Co171 O196 1.941 . S
C172 O173 1.258 . S
C172 O174 1.263 . S
O173 Co170 1.970 . S
O173 C172 1.258 . S
O174 Co171 1.966 . S
O174 C172 1.263 . S
C175 O176 1.235 . S
C175 O202 1.289 . S
O176 C175 1.235 . S
C177 C179 1.400 . S
C177 N180 1.351 . S
C177 C182 1.501 . S
C178 C179 1.387 1_455 S
C178 N181 1.341 . S
C179 C177 1.400 . S
C179 C178 1.387 1_655 S
N180 Co171 2.022 . S
N180 C177 1.351 . S
N180 N181 1.365 1_655 S
N181 C178 1.341 . S
N181 N180 1.365 1_455 S
N181 H201 0.862 . S
C182 C177 1.501 . S
C182 H183 0.961 . S
C182 H184 0.961 . S
C182 H185 0.960 . S
H183 C182 0.961 . S
H184 C182 0.961 . S
H185 C182 0.960 . S
C186 N187 1.342 . S
C186 C190 1.401 . S
C186 C191 1.499 . S
N187 Co170 1.989 . S
N187 C186 1.342 . S
N187 N188 1.388 . S
N188 Co171 1.993 . S
N188 N187 1.388 . S
N188 C189 1.346 . S
C189 N188 1.346 . S
C189 C190 1.396 . S
C189 C199 1.510 . S
C190 C186 1.401 . S
C190 C189 1.396 . S
C191 C186 1.499 . S
C191 H192 0.959 . S
C191 H193 0.960 . S
C191 H194 0.961 . S
H192 C191 0.959 . S
H193 C191 0.960 . S
H194 C191 0.961 . S
O195 Co170 1.967 . S
O195 C203 1.258 . S
O196 Co171 1.941 . S
O196 C203 1.266 . S
H197 C199 0.959 1_455 S
H198 C199 0.961 . S
C199 C189 1.510 . S
C199 H197 0.959 1_655 S
C199 H198 0.961 . S
C199 H200 0.960 . S
H200 C199 0.960 . S
H201 N181 0.862 . S
O202 Co170 1.920 . S
O202 C175 1.289 . S
C203 O195 1.258 . S
C203 O196 1.266 . S
Co204 O207 1.970 . S
Co204 N221 1.989 . S
Co204 O229 1.967 . S
Co204 O236 1.920 . S
Co205 O208 1.966 . S
Co205 N214 2.022 . S
Co205 N222 1.993 . S
Co205 O230 1.941 . S
C206 O207 1.258 . S
C206 O208 1.263 . S
O207 Co204 1.970 . S
O207 C206 1.258 . S
O208 Co205 1.966 . S
O208 C206 1.263 . S
C209 O210 1.235 . S
C209 O236 1.289 . S
O210 C209 1.235 . S
C211 C213 1.400 . S
C211 N214 1.351 . S
C211 C216 1.501 . S
C212 C213 1.387 . S
C212 N215 1.341 . S
C213 C211 1.400 . S
C213 C212 1.387 . S
N214 Co205 2.022 . S
N214 C211 1.351 . S
N214 N215 1.365 . S
N215 C212 1.341 . S
N215 N214 1.365 . S
N215 H235 0.862 . S
C216 C211 1.501 . S
C216 H217 0.961 . S
C216 H218 0.961 . S
C216 H219 0.960 1_545 S
H217 C216 0.961 . S
H218 C216 0.961 . S
H219 C216 0.960 1_565 S
C220 N221 1.342 . S
C220 C224 1.401 . S
C220 C225 1.499 . S
N221 Co204 1.989 . S
N221 C220 1.342 . S
N221 N222 1.388 . S
N222 Co205 1.993 . S
N222 N221 1.388 . S
N222 C223 1.346 . S
C223 N222 1.346 . S
C223 C224 1.396 . S
C223 C233 1.510 . S
C224 C220 1.401 . S
C224 C223 1.396 . S
C225 C220 1.499 . S
C225 H226 0.959 . S
C225 H227 0.960 . S
C225 H228 0.961 . S
H226 C225 0.959 . S
H227 C225 0.960 . S
H228 C225 0.961 . S
O229 Co204 1.967 . S
O229 C237 1.258 . S
O230 Co205 1.941 . S
O230 C237 1.266 . S
H231 C233 0.959 . S
H232 C233 0.961 . S
C233 C223 1.510 . S
C233 H231 0.959 . S
C233 H232 0.961 . S
C233 H234 0.960 . S
H234 C233 0.960 . S
H235 N215 0.862 . S
O236 Co204 1.920 . S
O236 C209 1.289 . S
C237 O229 1.258 . S
C237 O230 1.266 . S
Co238 O241 1.970 . S
Co238 N255 1.989 . S
Co238 O263 1.967 . S
Co238 O270 1.920 . S
Co239 O242 1.966 . S
Co239 N248 2.022 . S
Co239 N256 1.993 . S
Co239 O264 1.941 . S
C240 O241 1.258 . S
C240 O242 1.263 . S
O241 Co238 1.970 . S
O241 C240 1.258 . S
O242 Co239 1.966 . S
O242 C240 1.263 . S
C243 O244 1.235 . S
C243 O270 1.289 . S
O244 C243 1.235 . S
C245 C247 1.400 . S
C245 N248 1.351 . S
C245 C250 1.501 . S
C246 C247 1.387 . S
C246 N249 1.341 . S
C247 C245 1.400 . S
C247 C246 1.387 . S
N248 Co239 2.022 . S
N248 C245 1.351 . S
N248 N249 1.365 . S
N249 C246 1.341 . S
N249 N248 1.365 . S
N249 H269 0.862 . S
C250 C245 1.501 . S
C250 H251 0.961 . S
C250 H252 0.961 . S
C250 H253 0.960 1_565 S
H251 C250 0.961 . S
H252 C250 0.961 . S
H253 C250 0.960 1_545 S
C254 N255 1.342 . S
C254 C258 1.401 . S
C254 C259 1.499 . S
N255 Co238 1.989 . S
N255 C254 1.342 . S
N255 N256 1.388 . S
N256 Co239 1.993 . S
N256 N255 1.388 . S
N256 C257 1.346 . S
C257 N256 1.346 . S
C257 C258 1.396 . S
C257 C267 1.510 . S
C258 C254 1.401 . S
C258 C257 1.396 . S
C259 C254 1.499 . S
C259 H260 0.959 . S
C259 H261 0.960 . S
C259 H262 0.961 . S
H260 C259 0.959 . S
H261 C259 0.960 . S
H262 C259 0.961 . S
O263 Co238 1.967 . S
O263 C271 1.258 . S
O264 Co239 1.941 . S
O264 C271 1.266 . S
H265 C267 0.959 . S
H266 C267 0.961 . S
C267 C257 1.510 . S
C267 H265 0.959 . S
C267 H266 0.961 . S
C267 H268 0.960 . S
H268 C267 0.960 . S
H269 N249 0.862 . S
O270 Co238 1.920 . S
O270 C243 1.289 . S
C271 O263 1.258 . S
C271 O264 1.266 . S
Co272 O275 1.970 . S
Co272 N289 1.989 . S
Co272 O297 1.967 . S
Co272 O304 1.920 . S
Co273 O276 1.966 . S
Co273 N282 2.022 . S
Co273 N290 1.993 . S
Co273 O298 1.941 . S
C274 O275 1.258 . S
C274 O276 1.263 . S
O275 Co272 1.970 . S
O275 C274 1.258 . S
O276 Co273 1.966 . S
O276 C274 1.263 . S
C277 O278 1.235 . S
C277 O304 1.289 . S
O278 C277 1.235 . S
C279 C281 1.400 . S
C279 N282 1.351 . S
C279 C284 1.501 . S
C280 C281 1.387 . S
C280 N283 1.341 . S
C281 C279 1.400 . S
C281 C280 1.387 . S
N282 Co273 2.022 . S
N282 C279 1.351 . S
N282 N283 1.365 . S
N283 C280 1.341 . S
N283 N282 1.365 . S
N283 H303 0.862 . S
C284 C279 1.501 . S
C284 H285 0.961 . S
C284 H286 0.961 . S
C284 H287 0.960 . S
H285 C284 0.961 . S
H286 C284 0.961 . S
H287 C284 0.960 . S
C288 N289 1.342 . S
C288 C292 1.401 . S
C288 C293 1.499 . S
N289 Co272 1.989 . S
N289 C288 1.342 . S
N289 N290 1.388 . S
N290 Co273 1.993 . S
N290 N289 1.388 . S
N290 C291 1.346 . S
C291 N290 1.346 . S
C291 C292 1.396 . S
C291 C301 1.510 . S
C292 C288 1.401 . S
C292 C291 1.396 . S
C293 C288 1.499 . S
C293 H294 0.959 . S
C293 H295 0.960 . S
C293 H296 0.961 . S
H294 C293 0.959 . S
H295 C293 0.960 . S
H296 C293 0.961 . S
O297 Co272 1.967 . S
O297 C305 1.258 . S
O298 Co273 1.941 . S
O298 C305 1.266 . S
H299 C301 0.959 . S
H300 C301 0.961 . S
C301 C291 1.510 . S
C301 H299 0.959 . S
C301 H300 0.961 . S
C301 H302 0.960 . S
H302 C301 0.960 . S
H303 N283 0.862 . S
O304 Co272 1.920 . S
O304 C277 1.289 . S
C305 O297 1.258 . S
C305 O298 1.266 . S
Co306 O309 1.970 . S
Co306 N323 1.989 . S
Co306 O331 1.967 . S
Co306 O338 1.920 . S
Co307 O310 1.966 . S
Co307 N316 2.022 . S
Co307 N324 1.993 . S
Co307 O332 1.941 . S
C308 O309 1.258 . S
C308 O310 1.263 . S
O309 Co306 1.970 . S
O309 C308 1.258 . S
O310 Co307 1.966 . S
O310 C308 1.263 . S
C311 O312 1.235 . S
C311 O338 1.289 . S
O312 C311 1.235 . S
C313 C315 1.400 . S
C313 N316 1.351 . S
C313 C318 1.501 . S
C314 C315 1.387 . S
C314 N317 1.341 . S
C315 C313 1.400 . S
C315 C314 1.387 . S
N316 Co307 2.022 . S
N316 C313 1.351 . S
N316 N317 1.365 . S
N317 C314 1.341 . S
N317 N316 1.365 . S
N317 H337 0.862 . S
C318 C313 1.501 . S
C318 H319 0.961 . S
C318 H320 0.961 . S
C318 H321 0.960 . S
H319 C318 0.961 . S
H320 C318 0.961 . S
H321 C318 0.960 . S
C322 N323 1.342 . S
C322 C326 1.401 . S
C322 C327 1.499 . S
N323 Co306 1.989 . S
N323 C322 1.342 . S
N323 N324 1.388 . S
N324 Co307 1.993 . S
N324 N323 1.388 . S
N324 C325 1.346 . S
C325 N324 1.346 . S
C325 C326 1.396 . S
C325 C335 1.510 . S
C326 C322 1.401 . S
C326 C325 1.396 . S
C327 C322 1.499 . S
C327 H328 0.959 . S
C327 H329 0.960 . S
C327 H330 0.961 . S
H328 C327 0.959 . S
H329 C327 0.960 . S
H330 C327 0.961 . S
O331 Co306 1.967 . S
O331 C339 1.258 . S
O332 Co307 1.941 . S
O332 C339 1.266 . S
H333 C335 0.959 . S
H334 C335 0.961 . S
C335 C325 1.510 . S
C335 H333 0.959 . S
C335 H334 0.961 . S
C335 H336 0.960 . S
H336 C335 0.960 . S
H337 N317 0.862 . S
O338 Co306 1.920 . S
O338 C311 1.289 . S
C339 O331 1.258 . S
C339 O332 1.266 . S
Co340 O343 1.970 . S
Co340 N357 1.989 . S
Co340 O365 1.967 . S
Co340 O372 1.920 . S
Co341 O344 1.966 . S
Co341 N350 2.022 . S
Co341 N358 1.993 . S
Co341 O366 1.941 . S
C342 O343 1.258 . S
C342 O344 1.263 . S
O343 Co340 1.970 . S
O343 C342 1.258 . S
O344 Co341 1.966 . S
O344 C342 1.263 . S
C345 O346 1.235 . S
C345 O372 1.289 . S
O346 C345 1.235 . S
C347 C349 1.400 . S
C347 N350 1.351 . S
C347 C352 1.501 . S
C348 C349 1.387 . S
C348 N351 1.341 . S
C349 C347 1.400 . S
C349 C348 1.387 . S
N350 Co341 2.022 . S
N350 C347 1.351 . S
N350 N351 1.365 . S
N351 C348 1.341 . S
N351 N350 1.365 . S
N351 H371 0.862 . S
C352 C347 1.501 . S
C352 H353 0.961 . S
C352 H354 0.961 . S
C352 H355 0.960 . S
H353 C352 0.961 . S
H354 C352 0.961 . S
H355 C352 0.960 . S
C356 N357 1.342 . S
C356 C360 1.401 . S
C356 C361 1.499 . S
N357 Co340 1.989 . S
N357 C356 1.342 . S
N357 N358 1.388 . S
N358 Co341 1.993 . S
N358 N357 1.388 . S
N358 C359 1.346 . S
C359 N358 1.346 . S
C359 C360 1.396 . S
C359 C369 1.510 . S
C360 C356 1.401 . S
C360 C359 1.396 . S
C361 C356 1.499 . S
C361 H362 0.959 . S
C361 H363 0.960 . S
C361 H364 0.961 . S
H362 C361 0.959 . S
H363 C361 0.960 . S
H364 C361 0.961 . S
O365 Co340 1.967 . S
O365 C373 1.258 . S
O366 Co341 1.941 . S
O366 C373 1.266 . S
H367 C369 0.959 . S
H368 C369 0.961 . S
C369 C359 1.510 . S
C369 H367 0.959 . S
C369 H368 0.961 . S
C369 H370 0.960 . S
H370 C369 0.960 . S
H371 N351 0.862 . S
O372 Co340 1.920 . S
O372 C345 1.289 . S
C373 O365 1.258 . S
C373 O366 1.266 . S
Co374 O377 1.970 . S
Co374 N391 1.989 . S
Co374 O399 1.967 . S
Co374 O406 1.920 . S
Co375 O378 1.966 . S
Co375 N384 2.022 . S
Co375 N392 1.993 . S
Co375 O400 1.941 . S
C376 O377 1.258 . S
C376 O378 1.263 . S
O377 Co374 1.970 . S
O377 C376 1.258 . S
O378 Co375 1.966 . S
O378 C376 1.263 . S
C379 O380 1.235 . S
C379 O406 1.289 . S
O380 C379 1.235 . S
C381 C383 1.400 . S
C381 N384 1.351 . S
C381 C386 1.501 . S
C382 C383 1.387 . S
C382 N385 1.341 . S
C383 C381 1.400 . S
C383 C382 1.387 . S
N384 Co375 2.022 . S
N384 C381 1.351 . S
N384 N385 1.365 . S
N385 C382 1.341 . S
N385 N384 1.365 . S
N385 H405 0.862 . S
C386 C381 1.501 . S
C386 H387 0.961 . S
C386 H388 0.961 . S
C386 H389 0.960 . S
H387 C386 0.961 . S
H388 C386 0.961 . S
H389 C386 0.960 . S
C390 N391 1.342 . S
C390 C394 1.401 . S
C390 C395 1.499 . S
N391 Co374 1.989 . S
N391 C390 1.342 . S
N391 N392 1.388 . S
N392 Co375 1.993 . S
N392 N391 1.388 . S
N392 C393 1.346 . S
C393 N392 1.346 . S
C393 C394 1.396 . S
C393 C403 1.510 . S
C394 C390 1.401 . S
C394 C393 1.396 . S
C395 C390 1.499 . S
C395 H396 0.959 . S
C395 H397 0.960 . S
C395 H398 0.961 . S
H396 C395 0.959 . S
H397 C395 0.960 . S
H398 C395 0.961 . S
O399 Co374 1.967 . S
O399 C407 1.258 . S
O400 Co375 1.941 . S
O400 C407 1.266 . S
H401 C403 0.959 . S
H402 C403 0.961 . S
C403 C393 1.510 . S
C403 H401 0.959 . S
C403 H402 0.961 . S
C403 H404 0.960 . S
H404 C403 0.960 . S
H405 N385 0.862 . S
O406 Co374 1.920 . S
O406 C379 1.289 . S
C407 O399 1.258 . S
C407 O400 1.266 . S
Co408 O411 1.970 . S
Co408 N425 1.989 . S
Co408 O433 1.967 . S
Co408 O440 1.920 . S
Co409 O412 1.966 . S
Co409 N418 2.022 . S
Co409 N426 1.993 . S
Co409 O434 1.941 1_554 S
C410 O411 1.258 . S
C410 O412 1.263 1_556 S
O411 Co408 1.970 . S
O411 C410 1.258 . S
O412 Co409 1.966 . S
O412 C410 1.263 1_554 S
C413 O414 1.235 . S
C413 O440 1.289 . S
O414 C413 1.235 . S
C415 C417 1.400 . S
C415 N418 1.351 . S
C415 C420 1.501 . S
C416 C417 1.387 . S
C416 N419 1.341 . S
C417 C415 1.400 . S
C417 C416 1.387 . S
N418 Co409 2.022 . S
N418 C415 1.351 . S
N418 N419 1.365 . S
N419 C416 1.341 . S
N419 N418 1.365 . S
N419 H439 0.862 . S
C420 C415 1.501 . S
C420 H421 0.961 . S
C420 H422 0.961 . S
C420 H423 0.960 . S
H421 C420 0.961 . S
H422 C420 0.961 . S
H423 C420 0.960 . S
C424 N425 1.342 1_554 S
C424 C428 1.401 . S
C424 C429 1.499 1_554 S
N425 Co408 1.989 . S
N425 C424 1.342 1_556 S
N425 N426 1.388 1_556 S
N426 Co409 1.993 . S
N426 N425 1.388 1_554 S
N426 C427 1.346 . S
C427 N426 1.346 . S
C427 C428 1.396 . S
C427 C437 1.510 . S
C428 C424 1.401 . S
C428 C427 1.396 . S
C429 C424 1.499 1_556 S
C429 H430 0.959 . S
C429 H431 0.967 . S
C429 H432 0.961 . S
H430 C429 0.959 . S
H431 C429 0.967 . S
H432 C429 0.961 . S
O433 Co408 1.967 . S
O433 C441 1.258 . S
O434 Co409 1.941 1_556 S
O434 C441 1.266 . S
H435 C437 0.959 . S
H436 C437 0.961 . S
C437 C427 1.510 . S
C437 H435 0.959 . S
C437 H436 0.961 . S
C437 H438 0.960 . S
H438 C437 0.960 . S
H439 N419 0.862 . S
O440 Co408 1.920 . S
O440 C413 1.289 . S
C441 O433 1.258 . S
C441 O434 1.266 . S
Co442 O445 1.970 . S
Co442 N459 1.989 . S
Co442 O467 1.967 . S
Co442 O474 1.920 . S
Co443 O446 1.966 . S
Co443 N452 2.022 . S
Co443 N460 1.993 . S
Co443 O468 1.941 1_554 S
C444 O445 1.258 . S
C444 O446 1.263 1_556 S
O445 Co442 1.970 . S
O445 C444 1.258 . S
O446 Co443 1.966 . S
O446 C444 1.263 1_554 S
C447 O448 1.235 . S
C447 O474 1.289 . S
O448 C447 1.235 . S
C449 C451 1.400 . S
C449 N452 1.351 . S
C449 C454 1.501 . S
C450 C451 1.387 . S
C450 N453 1.341 . S
C451 C449 1.400 . S
C451 C450 1.387 . S
N452 Co443 2.022 . S
N452 C449 1.351 . S
N452 N453 1.365 . S
N453 C450 1.341 . S
N453 N452 1.365 . S
N453 H473 0.862 . S
C454 C449 1.501 . S
C454 H455 0.961 . S
C454 H456 0.961 . S
C454 H457 0.960 . S
H455 C454 0.961 . S
H456 C454 0.961 . S
H457 C454 0.960 . S
C458 N459 1.342 1_554 S
C458 C462 1.401 . S
C458 C463 1.499 1_554 S
N459 Co442 1.989 . S
N459 C458 1.342 1_556 S
N459 N460 1.388 1_556 S
N460 Co443 1.993 . S
N460 N459 1.388 1_554 S
N460 C461 1.346 . S
C461 N460 1.346 . S
C461 C462 1.396 . S
C461 C471 1.510 . S
C462 C458 1.401 . S
C462 C461 1.396 . S
C463 C458 1.499 1_556 S
C463 H464 0.959 . S
C463 H465 0.967 . S
C463 H466 0.961 . S
H464 C463 0.959 . S
H465 C463 0.967 . S
H466 C463 0.961 . S
O467 Co442 1.967 . S
O467 C475 1.258 . S
O468 Co443 1.941 1_556 S
O468 C475 1.266 . S
H469 C471 0.959 . S
H470 C471 0.961 . S
C471 C461 1.510 . S
C471 H469 0.959 . S
C471 H470 0.961 . S
C471 H472 0.960 . S
H472 C471 0.960 . S
H473 N453 0.862 . S
O474 Co442 1.920 . S
O474 C447 1.289 . S
C475 O467 1.258 . S
C475 O468 1.266 . S
Co476 O479 1.970 . S
Co476 N493 1.989 . S
Co476 O501 1.967 . S
Co476 O508 1.920 . S
Co477 O480 1.966 . S
Co477 N486 2.022 . S
Co477 N494 1.993 . S
Co477 O502 1.941 . S
C478 O479 1.258 . S
C478 O480 1.263 . S
O479 Co476 1.970 . S
O479 C478 1.258 . S
O480 Co477 1.966 . S
O480 C478 1.263 . S
C481 O482 1.235 . S
C481 O508 1.289 . S
O482 C481 1.235 . S
C483 C485 1.400 . S
C483 N486 1.351 . S
C483 C488 1.501 . S
C484 C485 1.387 . S
C484 N487 1.341 . S
C485 C483 1.400 . S
C485 C484 1.387 . S
N486 Co477 2.022 . S
N486 C483 1.351 . S
N486 N487 1.365 . S
N487 C484 1.341 . S
N487 N486 1.365 . S
N487 H507 0.862 . S
C488 C483 1.501 . S
C488 H489 0.961 . S
C488 H490 0.961 . S
C488 H491 0.960 1_545 S
H489 C488 0.961 . S
H490 C488 0.961 . S
H491 C488 0.960 1_565 S
C492 N493 1.342 . S
C492 C496 1.401 . S
C492 C497 1.499 . S
N493 Co476 1.989 . S
N493 C492 1.342 . S
N493 N494 1.388 . S
N494 Co477 1.993 . S
N494 N493 1.388 . S
N494 C495 1.346 . S
C495 N494 1.346 . S
C495 C496 1.396 . S
C495 C505 1.510 . S
C496 C492 1.401 . S
C496 C495 1.396 . S
C497 C492 1.499 . S
C497 H498 0.959 . S
C497 H499 0.960 . S
C497 H500 0.961 . S
H498 C497 0.959 . S
H499 C497 0.960 . S
H500 C497 0.961 . S
O501 Co476 1.967 . S
O501 C509 1.258 . S
O502 Co477 1.941 . S
O502 C509 1.266 . S
H503 C505 0.959 . S
H504 C505 0.961 . S
C505 C495 1.510 . S
C505 H503 0.959 . S
C505 H504 0.961 . S
C505 H506 0.960 . S
H506 C505 0.960 . S
H507 N487 0.862 . S
O508 Co476 1.920 . S
O508 C481 1.289 . S
C509 O501 1.258 . S
C509 O502 1.266 . S
Co510 O513 1.970 . S
Co510 N527 1.989 . S
Co510 O535 1.967 . S
Co510 O542 1.920 . S
Co511 O514 1.966 . S
Co511 N520 2.022 . S
Co511 N528 1.993 . S
Co511 O536 1.941 . S
C512 O513 1.258 . S
C512 O514 1.263 . S
O513 Co510 1.970 . S
O513 C512 1.258 . S
O514 Co511 1.966 . S
O514 C512 1.263 . S
C515 O516 1.235 . S
C515 O542 1.289 . S
O516 C515 1.235 . S
C517 C519 1.400 . S
C517 N520 1.351 . S
C517 C522 1.501 . S
C518 C519 1.387 . S
C518 N521 1.341 . S
C519 C517 1.400 . S
C519 C518 1.387 . S
N520 Co511 2.022 . S
N520 C517 1.351 . S
N520 N521 1.365 . S
N521 C518 1.341 . S
N521 N520 1.365 . S
N521 H541 0.862 . S
C522 C517 1.501 . S
C522 H523 0.961 . S
C522 H524 0.961 . S
C522 H525 0.960 1_565 S
H523 C522 0.961 . S
H524 C522 0.961 . S
H525 C522 0.960 1_545 S
C526 N527 1.342 . S
C526 C530 1.401 . S
C526 C531 1.499 . S
N527 Co510 1.989 . S
N527 C526 1.342 . S
N527 N528 1.388 . S
N528 Co511 1.993 . S
N528 N527 1.388 . S
N528 C529 1.346 . S
C529 N528 1.346 . S
C529 C530 1.396 . S
C529 C539 1.510 . S
C530 C526 1.401 . S
C530 C529 1.396 . S
C531 C526 1.499 . S
C531 H532 0.959 . S
C531 H533 0.960 . S
C531 H534 0.961 . S
H532 C531 0.959 . S
H533 C531 0.960 . S
H534 C531 0.961 . S
O535 Co510 1.967 . S
O535 C543 1.258 . S
O536 Co511 1.941 . S
O536 C543 1.266 . S
H537 C539 0.959 . S
H538 C539 0.961 . S
C539 C529 1.510 . S
C539 H537 0.959 . S
C539 H538 0.961 . S
C539 H540 0.960 . S
H540 C539 0.960 . S
H541 N521 0.862 . S
O542 Co510 1.920 . S
O542 C515 1.289 . S
C543 O535 1.258 . S
C543 O536 1.266 . S
H544 C550 0.930 . S
H545 C553 0.930 . S
H546 C554 0.930 . S
H547 C555 0.930 . S
H548 C558 0.930 . S
H549 C559 0.930 . S
C550 H544 0.930 . S
C550 C551 1.355 . S
C550 C552 1.415 . S
C551 C550 1.355 . S
C551 C553 1.419 . S
C552 C550 1.415 . S
C552 C557 1.425 . S
C552 C559 1.409 . S
C553 H545 0.930 . S
C553 C551 1.419 . S
C553 C554 1.362 . S
C554 H546 0.930 . S
C554 C553 1.362 . S
C554 C557 1.409 . S
C555 H547 0.930 . S
C555 C556 1.355 . S
C555 C557 1.415 . S
C556 C555 1.355 . S
C556 C558 1.419 . S
C557 C552 1.425 . S
C557 C554 1.409 . S
C557 C555 1.415 . S
C558 H548 0.930 . S
C558 C556 1.419 . S
C558 C559 1.362 . S
C559 H549 0.930 . S
C559 C552 1.409 . S
C559 C558 1.362 . S
H560 C566 0.930 . S
H561 C569 0.930 . S
H562 C570 0.930 . S
H563 C571 0.930 . S
H564 C574 0.930 . S
H565 C575 0.930 . S
C566 H560 0.930 . S
C566 C567 1.355 . S
C566 C568 1.415 . S
C567 C566 1.355 . S
C567 C569 1.419 . S
C568 C566 1.415 . S
C568 C573 1.425 . S
C568 C575 1.409 . S
C569 H561 0.930 . S
C569 C567 1.419 . S
C569 C570 1.362 . S
C570 H562 0.930 . S
C570 C569 1.362 . S
C570 C573 1.409 . S
C571 H563 0.930 . S
C571 C572 1.355 . S
C571 C573 1.415 . S
C572 C571 1.355 . S
C572 C574 1.419 . S
C573 C568 1.425 . S
C573 C570 1.409 . S
C573 C571 1.415 . S
C574 H564 0.930 . S
C574 C572 1.419 . S
C574 C575 1.362 . S
C575 H565 0.930 . S
C575 C568 1.409 . S
C575 C574 1.362 . S
H576 C582 0.930 . S
H577 C585 0.930 . S
H578 C586 0.930 . S
H579 C587 0.930 . S
H580 C590 0.930 . S
H581 C591 0.930 . S
C582 H576 0.930 . S
C582 C583 1.355 1_455 S
C582 C584 1.415 . S
C583 C582 1.355 1_655 S
C583 C585 1.419 . S
C584 C582 1.415 . S
C584 C589 1.425 . S
C584 C591 1.409 . S
C585 H577 0.930 . S
C585 C583 1.419 . S
C585 C586 1.362 . S
C586 H578 0.930 . S
C586 C585 1.362 . S
C586 C589 1.409 1_655 S
C587 H579 0.930 . S
C587 C588 1.355 . S
C587 C589 1.415 . S
C588 C587 1.355 . S
C588 C590 1.419 . S
C589 C584 1.425 . S
C589 C586 1.409 1_455 S
C589 C587 1.415 . S
C590 H580 0.930 . S
C590 C588 1.419 . S
C590 C591 1.362 . S
C591 H581 0.930 . S
C591 C584 1.409 . S
C591 C590 1.362 . S
H592 C598 0.930 . S
H593 C601 0.930 . S
H594 C602 0.930 . S
H595 C603 0.930 . S
H596 C606 0.930 . S
H597 C607 0.930 . S
C598 H592 0.930 . S
C598 C599 1.355 1_655 S
C598 C600 1.415 . S
C599 C598 1.355 1_455 S
C599 C601 1.419 . S
C600 C598 1.415 . S
C600 C605 1.425 . S
C600 C607 1.409 . S
C601 H593 0.930 . S
C601 C599 1.419 . S
C601 C602 1.362 . S
C602 H594 0.930 . S
C602 C601 1.362 . S
C602 C605 1.409 1_455 S
C603 H595 0.930 . S
C603 C604 1.355 . S
C603 C605 1.415 . S
C604 C603 1.355 . S
C604 C606 1.419 . S
C605 C600 1.425 . S
C605 C602 1.409 1_655 S
C605 C603 1.415 . S
C606 H596 0.930 . S
C606 C604 1.419 . S
C606 C607 1.362 . S
C607 H597 0.930 . S
C607 C600 1.409 . S
C607 C606 1.362 . S
H608 C614 0.930 . S
H609 C617 0.930 . S
H610 C618 0.930 . S
H611 C619 0.930 . S
H612 C622 0.930 . S
H613 C623 0.930 . S
C614 H608 0.930 . S
C614 C615 1.355 . S
C614 C616 1.415 . S
C615 C614 1.355 . S
C615 C617 1.419 . S
C616 C614 1.415 . S
C616 C621 1.425 . S
C616 C623 1.409 . S
C617 H609 0.930 . S
C617 C615 1.419 . S
C617 C618 1.362 . S
C618 H610 0.930 . S
C618 C617 1.362 . S
C618 C621 1.409 . S
C619 H611 0.930 . S
C619 C620 1.355 . S
C619 C621 1.415 . S
C620 C619 1.355 . S
C620 C622 1.419 . S
C621 C616 1.425 . S
C621 C618 1.409 . S
C621 C619 1.415 . S
C622 H612 0.930 . S
C622 C620 1.419 . S
C622 C623 1.362 . S
C623 H613 0.930 . S
C623 C616 1.409 . S
C623 C622 1.362 . S
H624 C630 0.930 . S
H625 C633 0.930 . S
H626 C634 0.930 . S
H627 C635 0.930 . S
H628 C638 0.930 . S
H629 C639 0.930 . S
C630 H624 0.930 . S
C630 C631 1.355 . S
C630 C632 1.415 . S
C631 C630 1.355 . S
C631 C633 1.419 . S
C632 C630 1.415 . S
C632 C637 1.425 . S
C632 C639 1.409 . S
C633 H625 0.930 . S
C633 C631 1.419 . S
C633 C634 1.362 . S
C634 H626 0.930 . S
C634 C633 1.362 . S
C634 C637 1.409 . S
C635 H627 0.930 . S
C635 C636 1.355 . S
C635 C637 1.415 . S
C636 C635 1.355 . S
C636 C638 1.419 . S
C637 C632 1.425 . S
C637 C634 1.409 . S
C637 C635 1.415 . S
C638 H628 0.930 . S
C638 C636 1.419 . S
C638 C639 1.362 . S
C639 H629 0.930 . S
C639 C632 1.409 . S
C639 C638 1.362 . S
H640 C646 0.930 . S
H641 C649 0.930 . S
H642 C650 0.930 . S
H643 C651 0.930 . S
H644 C654 0.930 . S
H645 C655 0.930 . S
C646 H640 0.930 . S
C646 C647 1.355 1_455 S
C646 C648 1.415 . S
C647 C646 1.355 1_655 S
C647 C649 1.419 . S
C648 C646 1.415 . S
C648 C653 1.425 . S
C648 C655 1.409 . S
C649 H641 0.930 . S
C649 C647 1.419 . S
C649 C650 1.362 1_655 S
C650 H642 0.930 . S
C650 C649 1.362 1_455 S
C650 C653 1.409 . S
C651 H643 0.930 . S
C651 C652 1.355 . S
C651 C653 1.415 . S
C652 C651 1.355 . S
C652 C654 1.419 . S
C653 C648 1.425 . S
C653 C650 1.409 . S
C653 C651 1.415 . S
C654 H644 0.930 . S
C654 C652 1.419 . S
C654 C655 1.362 . S
C655 H645 0.930 . S
C655 C648 1.409 . S
C655 C654 1.362 . S
H656 C662 0.930 . S
H657 C665 0.930 . S
H658 C666 0.930 . S
H659 C667 0.930 . S
H660 C670 0.930 . S
H661 C671 0.930 . S
C662 H656 0.930 . S
C662 C663 1.355 . S
C662 C664 1.415 . S
C663 C662 1.355 . S
C663 C665 1.419 . S
C664 C662 1.415 . S
C664 C669 1.425 . S
C664 C671 1.409 1_655 S
C665 H657 0.930 . S
C665 C663 1.419 . S
C665 C666 1.362 . S
C666 H658 0.930 . S
C666 C665 1.362 . S
C666 C669 1.409 . S
C667 H659 0.930 . S
C667 C668 1.355 1_655 S
C667 C669 1.415 . S
C668 C667 1.355 1_455 S
C668 C670 1.419 . S
C669 C664 1.425 . S
C669 C666 1.409 . S
C669 C667 1.415 . S
C670 H660 0.930 . S
C670 C668 1.419 . S
C670 C671 1.362 . S
C671 H661 0.930 . S
C671 C664 1.409 1_455 S
C671 C670 1.362 . S
H672 C678 0.930 . S
H673 C681 0.930 . S
H674 C682 0.930 . S
H675 C683 0.930 . S
H676 C686 0.930 . S
H677 C687 0.930 . S
C678 H672 0.930 . S
C678 C679 1.355 . S
C678 C680 1.415 . S
C679 C678 1.355 . S
C679 C681 1.419 . S
C680 C678 1.415 . S
C680 C685 1.425 . S
C680 C687 1.409 . S
C681 H673 0.930 . S
C681 C679 1.419 . S
C681 C682 1.362 . S
C682 H674 0.930 . S
C682 C681 1.362 . S
C682 C685 1.409 . S
C683 H675 0.930 . S
C683 C684 1.355 . S
C683 C685 1.415 . S
C684 C683 1.355 . S
C684 C686 1.419 . S
C685 C680 1.425 . S
C685 C682 1.409 . S
C685 C683 1.415 . S
C686 H676 0.930 . S
C686 C684 1.419 . S
C686 C687 1.362 . S
C687 H677 0.930 . S
C687 C680 1.409 . S
C687 C686 1.362 . S
H688 C694 0.930 . S
H689 C697 0.930 . S
H690 C698 0.930 . S
H691 C699 0.930 . S
H692 C702 0.930 . S
H693 C703 0.930 . S
C694 H688 0.930 . S
C694 C695 1.355 . S
C694 C696 1.415 . S
C695 C694 1.355 . S
C695 C697 1.419 . S
C696 C694 1.415 . S
C696 C701 1.425 . S
C696 C703 1.409 . S
C697 H689 0.930 . S
C697 C695 1.419 . S
C697 C698 1.362 . S
C698 H690 0.930 . S
C698 C697 1.362 . S
C698 C701 1.409 . S
C699 H691 0.930 . S
C699 C700 1.355 . S
C699 C701 1.415 . S
C700 C699 1.355 . S
C700 C702 1.419 . S
C701 C696 1.425 . S
C701 C698 1.409 . S
C701 C699 1.415 . S
C702 H692 0.930 . S
C702 C700 1.419 . S
C702 C703 1.362 . S
C703 H693 0.930 . S
C703 C696 1.409 . S
C703 C702 1.362 . S
H704 C710 0.930 . S
H705 C713 0.930 . S
H706 C714 0.930 . S
H707 C715 0.930 . S
H708 C718 0.930 . S
H709 C719 0.930 . S
C710 H704 0.930 . S
C710 C711 1.355 . S
C710 C712 1.415 . S
C711 C710 1.355 . S
C711 C713 1.419 . S
C712 C710 1.415 . S
C712 C717 1.425 . S
C712 C719 1.409 . S
C713 H705 0.930 . S
C713 C711 1.419 . S
C713 C714 1.362 . S
C714 H706 0.930 . S
C714 C713 1.362 . S
C714 C717 1.409 . S
C715 H707 0.930 . S
C715 C716 1.355 . S
C715 C717 1.415 . S
C716 C715 1.355 . S
C716 C718 1.419 . S
C717 C712 1.425 . S
C717 C714 1.409 . S
C717 C715 1.415 . S
C718 H708 0.930 . S
C718 C716 1.419 . S
C718 C719 1.362 . S
C719 H709 0.930 . S
C719 C712 1.409 . S
C719 C718 1.362 . S
H720 C726 0.930 . S
H721 C729 0.930 . S
H722 C730 0.930 . S
H723 C731 0.930 . S
H724 C734 0.930 . S
H725 C735 0.930 . S
C726 H720 0.930 . S
C726 C727 1.355 . S
C726 C728 1.415 . S
C727 C726 1.355 . S
C727 C729 1.419 . S
C728 C726 1.415 . S
C728 C733 1.425 . S
C728 C735 1.409 . S
C729 H721 0.930 . S
C729 C727 1.419 . S
C729 C730 1.362 . S
C730 H722 0.930 . S
C730 C729 1.362 . S
C730 C733 1.409 . S
C731 H723 0.930 . S
C731 C732 1.355 . S
C731 C733 1.415 . S
C732 C731 1.355 . S
C732 C734 1.419 . S
C733 C728 1.425 . S
C733 C730 1.409 . S
C733 C731 1.415 . S
C734 H724 0.930 . S
C734 C732 1.419 . S
C734 C735 1.362 . S
C735 H725 0.930 . S
C735 C728 1.409 . S
C735 C734 1.362 . S
H736 C742 0.930 . S
H737 C745 0.930 . S
H738 C746 0.930 . S
H739 C747 0.930 . S
H740 C750 0.930 . S
H741 C751 0.930 . S
C742 H736 0.930 . S
C742 C743 1.355 . S
C742 C744 1.415 . S
C743 C742 1.355 . S
C743 C745 1.419 . S
C744 C742 1.415 . S
C744 C749 1.425 . S
C744 C751 1.409 . S
C745 H737 0.930 . S
C745 C743 1.419 . S
C745 C746 1.362 . S
C746 H738 0.930 . S
C746 C745 1.362 . S
C746 C749 1.409 . S
C747 H739 0.930 . S
C747 C748 1.355 . S
C747 C749 1.415 . S
C748 C747 1.355 . S
C748 C750 1.419 . S
C749 C744 1.425 . S
C749 C746 1.409 . S
C749 C747 1.415 . S
C750 H740 0.930 . S
C750 C748 1.419 . S
C750 C751 1.362 . S
C751 H741 0.930 . S
C751 C744 1.409 . S
C751 C750 1.362 . S
H752 C758 0.930 . S
H753 C761 0.930 . S
H754 C762 0.930 . S
H755 C763 0.930 . S
H756 C766 0.930 . S
H757 C767 0.930 . S
C758 H752 0.930 . S
C758 C759 1.355 . S
C758 C760 1.415 . S
C759 C758 1.355 . S
C759 C761 1.419 . S
C760 C758 1.415 . S
C760 C765 1.425 . S
C760 C767 1.409 . S
C761 H753 0.930 . S
C761 C759 1.419 . S
C761 C762 1.362 . S
C762 H754 0.930 . S
C762 C761 1.362 . S
C762 C765 1.409 . S
C763 H755 0.930 . S
C763 C764 1.355 . S
C763 C765 1.415 . S
C764 C763 1.355 . S
C764 C766 1.419 . S
C765 C760 1.425 . S
C765 C762 1.409 . S
C765 C763 1.415 . S
C766 H756 0.930 . S
C766 C764 1.419 . S
C766 C767 1.362 . S
C767 H757 0.930 . S
C767 C760 1.409 . S
C767 C766 1.362 . S
H768 C774 0.930 . S
H769 C777 0.930 . S
H770 C778 0.930 . S
H771 C779 0.930 . S
H772 C782 0.930 . S
H773 C783 0.930 . S
C774 H768 0.930 . S
C774 C775 1.355 . S
C774 C776 1.415 . S
C775 C774 1.355 . S
C775 C777 1.419 . S
C776 C774 1.415 . S
C776 C781 1.425 . S
C776 C783 1.409 . S
C777 H769 0.930 . S
C777 C775 1.419 . S
C777 C778 1.362 . S
C778 H770 0.930 . S
C778 C777 1.362 . S
C778 C781 1.409 . S
C779 H771 0.930 . S
C779 C780 1.355 . S
C779 C781 1.415 . S
C780 C779 1.355 . S
C780 C782 1.419 . S
C781 C776 1.425 . S
C781 C778 1.409 . S
C781 C779 1.415 . S
C782 H772 0.930 . S
C782 C780 1.419 . S
C782 C783 1.362 . S
C783 H773 0.930 . S
C783 C776 1.409 . S
C783 C782 1.362 . S
H784 C790 0.930 . S
H785 C793 0.930 . S
H786 C794 0.930 . S
H787 C795 0.930 . S
H788 C798 0.930 . S
H789 C799 0.930 . S
C790 H784 0.930 . S
C790 C791 1.355 . S
C790 C792 1.415 . S
C791 C790 1.355 . S
C791 C793 1.419 . S
C792 C790 1.415 . S
C792 C797 1.425 . S
C792 C799 1.409 . S
C793 H785 0.930 . S
C793 C791 1.419 . S
C793 C794 1.362 . S
C794 H786 0.930 . S
C794 C793 1.362 . S
C794 C797 1.409 . S
C795 H787 0.930 . S
C795 C796 1.355 . S
C795 C797 1.415 . S
C796 C795 1.355 . S
C796 C798 1.419 . S
C797 C792 1.425 . S
C797 C794 1.409 . S
C797 C795 1.415 . S
C798 H788 0.930 . S
C798 C796 1.419 . S
C798 C799 1.362 . S
C799 H789 0.930 . S
C799 C792 1.409 . S
C799 C798 1.362 . S
H800 C806 0.930 1_455 S
H801 C809 0.930 . S
H802 C810 0.930 . S
H803 C811 0.930 . S
H804 C814 0.930 . S
H805 C815 0.930 . S
C806 H800 0.930 1_655 S
C806 C807 1.355 . S
C806 C808 1.415 1_655 S
C807 C806 1.355 . S
C807 C809 1.419 . S
C808 C806 1.415 1_455 S
C808 C813 1.425 1_455 S
C808 C815 1.409 . S
C809 H801 0.930 . S
C809 C807 1.419 . S
C809 C810 1.362 . S
C810 H802 0.930 . S
C810 C809 1.362 . S
C810 C813 1.409 . S
C811 H803 0.930 . S
C811 C812 1.355 1_655 S
C811 C813 1.415 . S
C812 C811 1.355 1_455 S
C812 C814 1.419 . S
C813 C808 1.425 1_655 S
C813 C810 1.409 . S
C813 C811 1.415 . S
C814 H804 0.930 . S
C814 C812 1.419 . S
C814 C815 1.362 . S
C815 H805 0.930 . S
C815 C808 1.409 . S
C815 C814 1.362 . S
H816 C822 0.930 . S
H817 C825 0.930 . S
H818 C826 0.930 . S
H819 C827 0.930 . S
H820 C830 0.930 . S
H821 C831 0.930 . S
C822 H816 0.930 . S
C822 C823 1.355 . S
C822 C824 1.415 . S
C823 C822 1.355 . S
C823 C825 1.419 1_455 S
C824 C822 1.415 . S
C824 C829 1.425 1_455 S
C824 C831 1.409 . S
C825 H817 0.930 . S
C825 C823 1.419 1_655 S
C825 C826 1.363 . S
C826 H818 0.930 . S
C826 C825 1.363 . S
C826 C829 1.409 . S
C827 H819 0.930 . S
C827 C828 1.355 . S
C827 C829 1.415 . S
C828 C827 1.355 . S
C828 C830 1.419 1_655 S
C829 C824 1.425 1_655 S
C829 C826 1.409 . S
C829 C827 1.415 . S
C830 H820 0.930 . S
C830 C828 1.419 1_455 S
C830 C831 1.362 . S
C831 H821 0.930 . S
C831 C824 1.409 . S
C831 C830 1.362 . S
H832 C838 0.930 . S
H833 C841 0.930 . S
H834 C842 0.930 . S
H835 C843 0.930 . S
H836 C846 0.930 . S
H837 C847 0.930 . S
C838 H832 0.930 . S
C838 C839 1.355 . S
C838 C840 1.415 . S
C839 C838 1.355 . S
C839 C841 1.419 . S
C840 C838 1.415 . S
C840 C845 1.425 . S
C840 C847 1.409 . S
C841 H833 0.930 . S
C841 C839 1.419 . S
C841 C842 1.362 . S
C842 H834 0.930 . S
C842 C841 1.362 . S
C842 C845 1.409 . S
C843 H835 0.930 . S
C843 C844 1.355 . S
C843 C845 1.415 . S
C844 C843 1.355 . S
C844 C846 1.419 . S
C845 C840 1.425 . S
C845 C842 1.409 . S
C845 C843 1.415 . S
C846 H836 0.930 . S
C846 C844 1.419 . S
C846 C847 1.362 . S
C847 H837 0.930 . S
C847 C840 1.409 . S
C847 C846 1.362 . S
H848 C854 0.930 . S
H849 C857 0.930 . S
H850 C858 0.930 . S
H851 C859 0.930 . S
H852 C862 0.930 . S
H853 C863 0.930 . S
C854 H848 0.930 . S
C854 C855 1.355 . S
C854 C856 1.415 . S
C855 C854 1.355 . S
C855 C857 1.419 . S
C856 C854 1.415 . S
C856 C861 1.425 . S
C856 C863 1.409 . S
C857 H849 0.930 . S
C857 C855 1.419 . S
C857 C858 1.362 . S
C858 H850 0.930 . S
C858 C857 1.362 . S
C858 C861 1.409 . S
C859 H851 0.930 . S
C859 C860 1.355 . S
C859 C861 1.415 . S
C860 C859 1.355 . S
C860 C862 1.419 . S
C861 C856 1.425 . S
C861 C858 1.409 . S
C861 C859 1.415 . S
C862 H852 0.930 . S
C862 C860 1.419 . S
C862 C863 1.362 . S
C863 H853 0.930 . S
C863 C856 1.409 . S
C863 C862 1.362 . S
H864 C870 0.930 . S
H865 C873 0.930 . S
H866 C874 0.930 . S
H867 C875 0.930 . S
H868 C878 0.930 . S
H869 C879 0.930 . S
C870 H864 0.930 . S
C870 C871 1.355 . S
C870 C872 1.415 . S
C871 C870 1.355 . S
C871 C873 1.419 1_655 S
C872 C870 1.415 . S
C872 C877 1.425 1_655 S
C872 C879 1.409 . S
C873 H865 0.930 . S
C873 C871 1.419 1_455 S
C873 C874 1.362 . S
C874 H866 0.930 . S
C874 C873 1.362 . S
C874 C877 1.409 . S
C875 H867 0.930 . S
C875 C876 1.355 . S
C875 C877 1.415 . S
C876 C875 1.355 . S
C876 C878 1.419 1_455 S
C877 C872 1.425 1_455 S
C877 C874 1.409 . S
C877 C875 1.415 . S
C878 H868 0.930 . S
C878 C876 1.419 1_655 S
C878 C879 1.362 . S
C879 H869 0.930 . S
C879 C872 1.409 . S
C879 C878 1.362 . S
H880 C886 0.930 . S
H881 C889 0.930 . S
H882 C890 0.930 . S
H883 C891 0.930 . S
H884 C894 0.930 . S
H885 C895 0.930 . S
C886 H880 0.930 . S
C886 C887 1.355 . S
C886 C888 1.415 . S
C887 C886 1.355 . S
C887 C889 1.419 . S
C888 C886 1.415 . S
C888 C893 1.425 . S
C888 C895 1.409 1_455 S
C889 H881 0.930 . S
C889 C887 1.419 . S
C889 C890 1.362 . S
C890 H882 0.930 . S
C890 C889 1.362 . S
C890 C893 1.409 . S
C891 H883 0.930 . S
C891 C892 1.355 1_455 S
C891 C893 1.415 . S
C892 C891 1.355 1_655 S
C892 C894 1.419 . S
C893 C888 1.425 . S
C893 C890 1.409 . S
C893 C891 1.415 . S
C894 H884 0.930 . S
C894 C892 1.419 . S
C894 C895 1.362 . S
C895 H885 0.930 . S
C895 C888 1.409 1_655 S
C895 C894 1.362 . S
H896 C902 0.930 . S
H897 C905 0.930 . S
H898 C906 0.930 . S
H899 C907 0.930 . S
H900 C910 0.930 . S
H901 C911 0.930 1_556 S
C902 H896 0.930 . S
C902 C903 1.355 1_565 S
C902 C904 1.415 1_556 S
C903 C902 1.355 1_545 S
C903 C905 1.419 . S
C904 C902 1.415 1_554 S
C904 C909 1.425 . S
C904 C911 1.409 . S
C905 H897 0.930 . S
C905 C903 1.419 . S
C905 C906 1.362 1_556 S
C906 H898 0.930 . S
C906 C905 1.362 1_554 S
C906 C909 1.409 1_545 S
C907 H899 0.930 . S
C907 C908 1.355 . S
C907 C909 1.415 . S
C908 C907 1.355 . S
C908 C910 1.419 . S
C909 C904 1.425 . S
C909 C906 1.409 1_565 S
C909 C907 1.415 . S
C910 H900 0.930 . S
C910 C908 1.419 . S
C910 C911 1.362 . S
C911 H901 0.930 1_554 S
C911 C904 1.409 . S
C911 C910 1.362 . S
H912 C918 0.930 . S
H913 C921 0.934 . S
H914 C922 0.930 . S
H915 C923 0.930 . S
H916 C926 0.930 . S
H917 C927 0.930 . S
C918 H912 0.930 . S
C918 C919 1.354 . S
C918 C920 1.415 1_556 S
C919 C918 1.354 . S
C919 C921 1.419 . S
C920 C918 1.415 1_554 S
C920 C925 1.425 . S
C920 C927 1.409 . S
C921 H913 0.934 . S
C921 C919 1.419 . S
C921 C922 1.362 1_556 S
C922 H914 0.930 . S
C922 C921 1.362 1_554 S
C922 C925 1.409 . S
C923 H915 0.930 . S
C923 C924 1.355 . S
C923 C925 1.415 . S
C924 C923 1.355 . S
C924 C926 1.419 . S
C925 C920 1.425 . S
C925 C922 1.409 . S
C925 C923 1.415 . S
C926 H916 0.930 . S
C926 C924 1.419 . S
C926 C927 1.362 . S
C927 H917 0.930 . S
C927 C920 1.409 . S
C927 C926 1.362 . S
H928 C934 0.930 . S
H929 C937 0.930 . S
H930 C938 0.930 . S
H931 C939 0.930 . S
H932 C942 0.930 . S
H933 C943 0.930 . S
C934 H928 0.930 . S
C934 C935 1.355 . S
C934 C936 1.415 . S
C935 C934 1.355 . S
C935 C937 1.419 . S
C936 C934 1.415 . S
C936 C941 1.425 . S
C936 C943 1.409 . S
C937 H929 0.930 . S
C937 C935 1.419 . S
C937 C938 1.362 . S
C938 H930 0.930 . S
C938 C937 1.362 . S
C938 C941 1.409 . S
C939 H931 0.930 . S
C939 C940 1.355 . S
C939 C941 1.415 . S
C940 C939 1.355 . S
C940 C942 1.419 . S
C941 C936 1.425 . S
C941 C938 1.409 . S
C941 C939 1.415 . S
C942 H932 0.930 . S
C942 C940 1.419 . S
C942 C943 1.362 . S
C943 H933 0.930 . S
C943 C936 1.409 . S
C943 C942 1.362 . S
H944 C950 0.930 . S
H945 C953 0.930 . S
H946 C954 0.930 . S
H947 C955 0.930 . S
H948 C958 0.930 . S
H949 C959 0.930 . S
C950 H944 0.930 . S
C950 C951 1.355 . S
C950 C952 1.415 . S
C951 C950 1.355 . S
C951 C953 1.419 . S
C952 C950 1.415 . S
C952 C957 1.425 . S
C952 C959 1.409 . S
C953 H945 0.930 . S
C953 C951 1.419 . S
C953 C954 1.362 . S
C954 H946 0.930 . S
C954 C953 1.362 . S
C954 C957 1.409 . S
C955 H947 0.930 . S
C955 C956 1.355 . S
C955 C957 1.415 . S
C956 C955 1.355 . S
C956 C958 1.419 . S
C957 C952 1.425 . S
C957 C954 1.409 . S
C957 C955 1.415 . S
C958 H948 0.930 . S
C958 C956 1.419 . S
C958 C959 1.362 . S
C959 H949 0.930 . S
C959 C952 1.409 . S
C959 C958 1.362 . S
H960 C966 0.930 . S
H961 C969 0.930 . S
H962 C970 0.930 . S
H963 C971 0.930 . S
H964 C974 0.930 . S
H965 C975 0.930 . S
C966 H960 0.930 . S
C966 C967 1.355 . S
C966 C968 1.415 . S
C967 C966 1.355 . S
C967 C969 1.419 . S
C968 C966 1.415 . S
C968 C973 1.425 . S
C968 C975 1.409 1_554 S
C969 H961 0.930 . S
C969 C967 1.419 . S
C969 C970 1.362 . S
C970 H962 0.930 . S
C970 C969 1.362 . S
C970 C973 1.409 . S
C971 H963 0.930 . S
C971 C972 1.355 . S
C971 C973 1.415 1_556 S
C972 C971 1.355 . S
C972 C974 1.419 . S
C973 C968 1.425 . S
C973 C970 1.409 . S
C973 C971 1.415 1_554 S
C974 H964 0.930 . S
C974 C972 1.419 . S
C974 C975 1.362 . S
C975 H965 0.930 . S
C975 C968 1.409 1_556 S
C975 C974 1.362 . S
H976 C982 0.930 . S
H977 C985 0.930 . S
H978 C986 0.930 . S
H979 C987 0.930 . S
H980 C990 0.930 . S
H981 C991 0.930 . S
C982 H976 0.930 . S
C982 C983 1.355 . S
C982 C984 1.415 . S
C983 C982 1.355 . S
C983 C985 1.419 . S
C984 C982 1.415 . S
C984 C989 1.425 . S
C984 C991 1.409 1_554 S
C985 H977 0.930 . S
C985 C983 1.419 . S
C985 C986 1.362 . S
C986 H978 0.930 . S
C986 C985 1.362 . S
C986 C989 1.409 . S
C987 H979 0.930 . S
C987 C988 1.355 . S
C987 C989 1.415 1_556 S
C988 C987 1.355 . S
C988 C990 1.419 . S
C989 C984 1.425 . S
C989 C986 1.409 . S
C989 C987 1.415 1_554 S
C990 H980 0.930 . S
C990 C988 1.419 . S
C990 C991 1.362 . S
C991 H981 0.930 . S
C991 C984 1.409 1_556 S
C991 C990 1.362 . S
H992 C998 0.930 . S
H993 C1001 0.930 . S
H994 C1002 0.930 . S
H995 C1003 0.930 . S
H996 C1006 0.930 . S
H997 C1007 0.930 . S
C998 H992 0.930 . S
C998 C999 1.355 . S
C998 C1000 1.415 . S
C999 C998 1.355 . S
C999 C1001 1.419 . S
C1000 C998 1.415 . S
C1000 C1005 1.425 . S
C1000 C1007 1.409 . S
C1001 H993 0.930 . S
C1001 C999 1.419 . S
C1001 C1002 1.362 . S
C1002 H994 0.930 . S
C1002 C1001 1.362 . S
C1002 C1005 1.409 . S
C1003 H995 0.930 . S
C1003 C1004 1.355 . S
C1003 C1005 1.415 . S
C1004 C1003 1.355 . S
C1004 C1006 1.419 . S
C1005 C1000 1.425 . S
C1005 C1002 1.409 . S
C1005 C1003 1.415 . S
C1006 H996 0.930 . S
C1006 C1004 1.419 . S
C1006 C1007 1.362 . S
C1007 H997 0.930 . S
C1007 C1000 1.409 . S
C1007 C1006 1.362 . S
H1008 C1014 0.930 . S
H1009 C1017 0.930 . S
H1010 C1018 0.930 . S
H1011 C1019 0.930 . S
H1012 C1022 0.930 . S
H1013 C1023 0.930 . S
C1014 H1008 0.930 . S
C1014 C1015 1.355 . S
C1014 C1016 1.415 . S
C1015 C1014 1.355 . S
C1015 C1017 1.419 . S
C1016 C1014 1.415 . S
C1016 C1021 1.425 . S
C1016 C1023 1.409 . S
C1017 H1009 0.930 . S
C1017 C1015 1.419 . S
C1017 C1018 1.362 . S
C1018 H1010 0.930 . S
C1018 C1017 1.362 . S
C1018 C1021 1.409 . S
C1019 H1011 0.930 . S
C1019 C1020 1.355 . S
C1019 C1021 1.415 . S
C1020 C1019 1.355 . S
C1020 C1022 1.419 . S
C1021 C1016 1.425 . S
C1021 C1018 1.409 . S
C1021 C1019 1.415 . S
C1022 H1012 0.930 . S
C1022 C1020 1.419 . S
C1022 C1023 1.362 . S
C1023 H1013 0.930 . S
C1023 C1016 1.409 . S
C1023 C1022 1.362 . S
H1024 C1030 0.930 . S
H1025 C1033 0.930 . S
H1026 C1034 0.930 . S
H1027 C1035 0.930 1_545 S
H1028 C1038 0.930 . S
H1029 C1039 0.930 . S
C1030 H1024 0.930 . S
C1030 C1031 1.355 . S
C1030 C1032 1.415 . S
C1031 C1030 1.355 . S
C1031 C1033 1.419 . S
C1032 C1030 1.415 . S
C1032 C1037 1.425 . S
C1032 C1039 1.409 . S
C1033 H1025 0.930 . S
C1033 C1031 1.419 . S
C1033 C1034 1.362 . S
C1034 H1026 0.930 . S
C1034 C1033 1.362 . S
C1034 C1037 1.409 . S
C1035 H1027 0.930 1_565 S
C1035 C1036 1.347 1_565 S
C1035 C1037 1.415 . S
C1036 C1035 1.347 1_545 S
C1036 C1038 1.406 1_545 S
C1037 C1032 1.425 . S
C1037 C1034 1.409 . S
C1037 C1035 1.415 . S
C1038 H1028 0.930 . S
C1038 C1036 1.406 1_565 S
C1038 C1039 1.362 . S
C1039 H1029 0.930 . S
C1039 C1032 1.409 . S
C1039 C1038 1.362 . S
H1040 C1046 0.962 . S
H1041 C1049 0.930 . S
H1042 C1050 0.930 . S
H1043 C1051 0.930 . S
H1044 C1054 0.930 . S
H1045 C1055 0.930 . S
C1046 H1040 0.962 . S
C1046 C1047 1.355 . S
C1046 C1048 1.415 . S
C1047 C1046 1.355 . S
C1047 C1049 1.419 . S
C1048 C1046 1.415 . S
C1048 C1053 1.425 . S
C1048 C1055 1.409 1_545 S
C1049 H1041 0.930 . S
C1049 C1047 1.419 . S
C1049 C1050 1.362 . S
C1050 H1042 0.930 . S
C1050 C1049 1.362 . S
C1050 C1053 1.409 . S
C1051 H1043 0.930 . S
C1051 C1052 1.355 1_545 S
C1051 C1053 1.415 . S
C1052 C1051 1.355 1_565 S
C1052 C1054 1.419 . S
C1053 C1048 1.425 . S
C1053 C1050 1.409 . S
C1053 C1051 1.415 . S
C1054 H1044 0.930 . S
C1054 C1052 1.419 . S
C1054 C1055 1.362 . S
C1055 H1045 0.930 . S
C1055 C1048 1.409 1_565 S
C1055 C1054 1.362 . S
H1056 C1062 0.930 . S
H1057 C1065 0.930 . S
H1058 C1066 0.930 . S
H1059 C1067 0.930 . S
H1060 C1070 0.930 . S
H1061 C1071 0.930 . S
C1062 H1056 0.930 . S
C1062 C1063 1.355 1_556 S
C1062 C1064 1.415 . S
C1063 C1062 1.355 1_554 S
C1063 C1065 1.419 . S
C1064 C1062 1.415 . S
C1064 C1069 1.425 1_556 S
C1064 C1071 1.409 . S
C1065 H1057 0.930 . S
C1065 C1063 1.419 . S
C1065 C1066 1.362 . S
C1066 H1058 0.930 . S
C1066 C1065 1.362 . S
C1066 C1069 1.409 . S
C1067 H1059 0.930 . S
C1067 C1068 1.355 1_554 S
C1067 C1069 1.415 . S
C1068 C1067 1.355 1_556 S
C1068 C1070 1.419 . S
C1069 C1064 1.425 1_554 S
C1069 C1066 1.409 . S
C1069 C1067 1.415 . S
C1070 H1060 0.930 . S
C1070 C1068 1.419 . S
C1070 C1071 1.362 . S
C1071 H1061 0.930 . S
C1071 C1064 1.409 . S
C1071 C1070 1.362 . S
H1072 C1078 0.930 . S
H1073 C1081 0.930 . S
H1074 C1082 0.930 . S
H1075 C1083 0.930 . S
H1076 C1086 0.930 . S
H1077 C1087 0.930 . S
C1078 H1072 0.930 . S
C1078 C1079 1.352 1_554 S
C1078 C1080 1.415 . S
C1079 C1078 1.352 1_556 S
C1079 C1081 1.423 . S
C1080 C1078 1.415 . S
C1080 C1085 1.425 1_554 S
C1080 C1087 1.409 . S
C1081 H1073 0.930 . S
C1081 C1079 1.423 . S
C1081 C1082 1.362 . S
C1082 H1074 0.930 . S
C1082 C1081 1.362 . S
C1082 C1085 1.409 . S
C1083 H1075 0.930 . S
C1083 C1084 1.355 . S
C1083 C1085 1.415 . S
C1084 C1083 1.355 . S
C1084 C1086 1.419 1_556 S
C1085 C1080 1.425 1_556 S
C1085 C1082 1.409 . S
C1085 C1083 1.415 . S
C1086 H1076 0.930 . S
C1086 C1084 1.419 1_554 S
C1086 C1087 1.362 . S
C1087 H1077 0.930 . S
C1087 C1080 1.409 . S
C1087 C1086 1.362 . S
H1088 C1094 0.930 . S
H1089 C1097 0.930 . S
H1090 C1098 0.930 . S
H1091 C1099 0.930 . S
H1092 C1102 0.930 . S
H1093 C1103 0.930 . S
C1094 H1088 0.930 . S
C1094 C1095 1.355 . S
C1094 C1096 1.415 1_455 S
C1095 C1094 1.355 . S
C1095 C1097 1.419 . S
C1096 C1094 1.415 1_655 S
C1096 C1101 1.425 1_655 S
C1096 C1103 1.409 . S
C1097 H1089 0.930 . S
C1097 C1095 1.419 . S
C1097 C1098 1.362 . S
C1098 H1090 0.930 . S
C1098 C1097 1.362 . S
C1098 C1101 1.409 . S
C1099 H1091 0.930 . S
C1099 C1100 1.355 . S
C1099 C1101 1.415 1_655 S
C1100 C1099 1.355 . S
C1100 C1102 1.419 . S
C1101 C1096 1.425 1_455 S
C1101 C1098 1.409 . S
C1101 C1099 1.415 1_455 S
C1102 H1092 0.930 . S
C1102 C1100 1.419 . S
C1102 C1103 1.362 . S
C1103 H1093 0.930 . S
C1103 C1096 1.409 . S
C1103 C1102 1.362 . S
H1104 C1110 0.930 . S
H1105 C1113 0.930 . S
H1106 C1114 0.930 . S
H1107 C1115 0.930 . S
H1108 C1118 0.930 . S
H1109 C1119 0.930 . S
C1110 H1104 0.930 . S
C1110 C1111 1.355 . S
C1110 C1112 1.415 . S
C1111 C1110 1.355 . S
C1111 C1113 1.419 . S
C1112 C1110 1.415 . S
C1112 C1117 1.425 . S
C1112 C1119 1.409 . S
C1113 H1105 0.930 . S
C1113 C1111 1.419 . S
C1113 C1114 1.362 . S
C1114 H1106 0.930 . S
C1114 C1113 1.362 . S
C1114 C1117 1.409 . S
C1115 H1107 0.930 . S
C1115 C1116 1.355 . S
C1115 C1117 1.415 . S
C1116 C1115 1.355 . S
C1116 C1118 1.419 . S
C1117 C1112 1.425 . S
C1117 C1114 1.409 . S
C1117 C1115 1.415 . S
C1118 H1108 0.930 . S
C1118 C1116 1.419 . S
C1118 C1119 1.362 . S
C1119 H1109 0.930 . S
C1119 C1112 1.409 . S
C1119 C1118 1.362 . S
H1120 C1126 0.930 . S
H1121 C1129 0.930 . S
H1122 C1130 0.930 . S
H1123 C1131 0.930 . S
H1124 C1134 0.930 . S
H1125 C1135 0.930 . S
C1126 H1120 0.930 . S
C1126 C1127 1.355 . S
C1126 C1128 1.415 . S
C1127 C1126 1.355 . S
C1127 C1129 1.419 . S
C1128 C1126 1.415 . S
C1128 C1133 1.425 . S
C1128 C1135 1.409 . S
C1129 H1121 0.930 . S
C1129 C1127 1.419 . S
C1129 C1130 1.362 . S
C1130 H1122 0.930 . S
C1130 C1129 1.362 . S
C1130 C1133 1.409 . S
C1131 H1123 0.930 . S
C1131 C1132 1.355 . S
C1131 C1133 1.415 . S
C1132 C1131 1.355 . S
C1132 C1134 1.419 . S
C1133 C1128 1.425 . S
C1133 C1130 1.409 . S
C1133 C1131 1.415 . S
C1134 H1124 0.930 . S
C1134 C1132 1.419 . S
C1134 C1135 1.362 . S
C1135 H1125 0.930 . S
C1135 C1128 1.409 . S
C1135 C1134 1.362 . S
H1136 C1142 0.930 . S
H1137 C1145 0.930 . S
H1138 C1146 0.930 . S
H1139 C1147 0.930 . S
H1140 C1150 0.930 . S
H1141 C1151 0.930 . S
C1142 H1136 0.930 . S
C1142 C1143 1.355 . S
C1142 C1144 1.415 . S
C1143 C1142 1.355 . S
C1143 C1145 1.419 . S
C1144 C1142 1.415 . S
C1144 C1149 1.425 1_445 S
C1144 C1151 1.409 1_445 S
C1145 H1137 0.930 . S
C1145 C1143 1.419 . S
C1145 C1146 1.362 . S
C1146 H1138 0.930 . S
C1146 C1145 1.362 . S
C1146 C1149 1.409 1_445 S
C1147 H1139 0.930 . S
C1147 C1148 1.355 . S
C1147 C1149 1.415 . S
C1148 C1147 1.355 . S
C1148 C1150 1.419 . S
C1149 C1144 1.425 1_665 S
C1149 C1146 1.409 1_665 S
C1149 C1147 1.415 . S
C1150 H1140 0.930 . S
C1150 C1148 1.419 . S
C1150 C1151 1.362 . S
C1151 H1141 0.930 . S
C1151 C1144 1.409 1_665 S
C1151 C1150 1.362 . S
H1152 C1158 0.930 . S
H1153 C1161 0.930 . S
H1154 C1162 0.930 . S
H1155 C1163 0.930 . S
H1156 C1166 0.930 . S
H1157 C1167 0.930 . S
C1158 H1152 0.930 . S
C1158 C1159 1.355 . S
C1158 C1160 1.415 . S
C1159 C1158 1.355 . S
C1159 C1161 1.419 . S
C1160 C1158 1.415 . S
C1160 C1165 1.425 . S
C1160 C1167 1.409 . S
C1161 H1153 0.930 . S
C1161 C1159 1.419 . S
C1161 C1162 1.362 . S
C1162 H1154 0.930 . S
C1162 C1161 1.362 . S
C1162 C1165 1.409 . S
C1163 H1155 0.930 . S
C1163 C1164 1.355 . S
C1163 C1165 1.415 . S
C1164 C1163 1.355 . S
C1164 C1166 1.419 . S
C1165 C1160 1.425 . S
C1165 C1162 1.409 . S
C1165 C1163 1.415 . S
C1166 H1156 0.930 . S
C1166 C1164 1.419 . S
C1166 C1167 1.362 . S
C1167 H1157 0.930 . S
C1167 C1160 1.409 . S
C1167 C1166 1.362 . S
H1168 C1174 0.930 1_545 S
H1169 C1177 0.930 . S
H1170 C1178 0.930 . S
H1171 C1179 0.930 1_565 S
H1172 C1182 0.930 . S
H1173 C1183 0.930 . S
C1174 H1168 0.930 1_565 S
C1174 C1175 1.355 . S
C1174 C1176 1.415 1_565 S
C1175 C1174 1.355 . S
C1175 C1177 1.419 . S
C1176 C1174 1.415 1_545 S
C1176 C1181 1.425 1_545 S
C1176 C1183 1.409 . S
C1177 H1169 0.930 . S
C1177 C1175 1.419 . S
C1177 C1178 1.362 . S
C1178 H1170 0.930 . S
C1178 C1177 1.362 . S
C1178 C1181 1.409 . S
C1179 H1171 0.930 1_545 S
C1179 C1180 1.355 . S
C1179 C1181 1.415 1_545 S
C1180 C1179 1.355 . S
C1180 C1182 1.419 . S
C1181 C1176 1.425 1_565 S
C1181 C1178 1.409 . S
C1181 C1179 1.415 1_565 S
C1182 H1172 0.930 . S
C1182 C1180 1.419 . S
C1182 C1183 1.362 . S
C1183 H1173 0.930 . S
C1183 C1176 1.409 . S
C1183 C1182 1.362 . S
C551 C5 1.369 . S
C556 C394 1.438 . S
C567 C39 1.380 . S
C572 C360 1.431 . S
C583 C54 1.430 . S
C588 C73 1.374 . S
C599 C20 1.430 . S
C604 C107 1.383 . S
C615 C141 1.413 . S
C620 C530 1.433 . S
C631 C175 1.405 . S
C636 C496 1.432 . S
C647 C190 1.438 . S
C652 C209 1.429 . S
C663 C243 1.419 . S
C668 C156 1.434 . S
C679 C122 1.437 . S
C684 C277 1.368 . S
C695 C88 1.432 . S
C700 C311 1.407 . S
C711 C326 1.435 . S
C716 C345 1.421 . S
C727 C292 1.439 . S
C732 C379 1.428 . S
C743 C413 1.364 . S
C748 C258 1.432 . S
C759 C447 1.399 . S
C764 C224 1.432 . S
C775 C481 1.363 . S
C780 C462 1.434 . S
C791 C428 1.432 . S
C796 C515 1.408 . S
C807 C203 1.537 . S
C812 C9 1.533 . S
C823 C169 1.545 . S
C828 C43 1.480 . S
C839 C77 1.527 . S
C844 C407 1.538 . S
C855 C373 1.542 . S
C860 C111 1.499 . S
C871 C67 1.545 . S
C876 C145 1.488 . S
C887 C33 1.540 . S
C892 C179 1.512 . S
C903 C213 1.527 . S
C908 C543 1.539 . S
C919 C247 1.535 1_545 S
C924 C509 1.537 . S
C935 C281 1.482 . S
C940 C475 1.548 . S
C951 C441 1.537 . S
C956 C315 1.539 . S
C967 C135 1.545 . S
C972 C349 1.482 . S
C983 C101 1.545 . S
C988 C383 1.483 . S
C999 C339 1.539 . S
C1004 C417 1.528 . S
C1015 C305 1.543 . S
C1020 C451 1.488 . S
C1031 C271 1.538 . S
C1036 C485 1.557 . S
C1047 C237 1.544 . S
C1052 C519 1.497 . S
C1063 C444 1.706 1_554 S
C1068 C2 1.698 . S
C1079 C36 1.704 . S
C1084 C410 1.702 . S
C1095 C70 1.702 . S
C1100 C104 1.696 . S
C1111 C308 1.702 . S
C1116 C138 1.703 . S
C1127 C172 1.706 . S
C1132 C274 1.698 . S
C1143 C206 1.694 . S
C1148 C240 1.706 . S
C1159 C376 1.699 . S
C1164 C342 1.705 . S
C1175 C512 1.700 . S
C1180 C478 1.704 . S
