# Generated by pormake.
# Topology vck, (7)-cn, num edge types: 1
# Building blocks:
#     Node 0, Type 0, BuildingBlock: HICVOG_clean_sbu_0, # of connection points: 7
#     Node 1, Type 0, BuildingBlock: HICVOG_clean_sbu_0, # of connection points: 7
#     Node 2, Type 0, BuildingBlock: HICVOG_clean_sbu_0, # of connection points: 7
#     Node 3, Type 0, BuildingBlock: HICVOG_clean_sbu_0, # of connection points: 7
#     Node 4, Type 0, BuildingBlock: HICVOG_clean_sbu_0, # of connection points: 7
#     Node 5, Type 0, BuildingBlock: HICVOG_clean_sbu_0, # of connection points: 7
#     Node 6, Type 0, BuildingBlock: HICVOG_clean_sbu_0, # of connection points: 7
#     Node 7, Type 0, BuildingBlock: HICVOG_clean_sbu_0, # of connection points: 7
#     Node 8, Type 0, BuildingBlock: HICVOG_clean_sbu_0, # of connection points: 7
#     Node 9, Type 0, BuildingBlock: HICVOG_clean_sbu_0, # of connection points: 7
#     Node 10, Type 0, BuildingBlock: HICVOG_clean_sbu_0, # of connection points: 7
#     Node 11, Type 0, BuildingBlock: HICVOG_clean_sbu_0, # of connection points: 7
#     Node 12, Type 0, BuildingBlock: HICVOG_clean_sbu_0, # of connection points: 7
#     Node 13, Type 0, BuildingBlock: HICVOG_clean_sbu_0, # of connection points: 7
#     Node 14, Type 0, BuildingBlock: HICVOG_clean_sbu_0, # of connection points: 7
#     Node 15, Type 0, BuildingBlock: HICVOG_clean_sbu_0, # of connection points: 7
#     Edge 16, Type (0, 0), BuildingBlock: OJICUG_clean_linker_0, # of connection points: 2
#     Edge 17, Type (0, 0), BuildingBlock: OJICUG_clean_linker_0, # of connection points: 2
#     Edge 18, Type (0, 0), BuildingBlock: OJICUG_clean_linker_0, # of connection points: 2
#     Edge 19, Type (0, 0), BuildingBlock: OJICUG_clean_linker_0, # of connection points: 2
#     Edge 20, Type (0, 0), BuildingBlock: OJICUG_clean_linker_0, # of connection points: 2
#     Edge 21, Type (0, 0), BuildingBlock: OJICUG_clean_linker_0, # of connection points: 2
#     Edge 22, Type (0, 0), BuildingBlock: OJICUG_clean_linker_0, # of connection points: 2
#     Edge 23, Type (0, 0), BuildingBlock: OJICUG_clean_linker_0, # of connection points: 2
#     Edge 24, Type (0, 0), BuildingBlock: OJICUG_clean_linker_0, # of connection points: 2
#     Edge 25, Type (0, 0), BuildingBlock: OJICUG_clean_linker_0, # of connection points: 2
#     Edge 26, Type (0, 0), BuildingBlock: OJICUG_clean_linker_0, # of connection points: 2
#     Edge 27, Type (0, 0), BuildingBlock: OJICUG_clean_linker_0, # of connection points: 2
#     Edge 28, Type (0, 0), BuildingBlock: OJICUG_clean_linker_0, # of connection points: 2
#     Edge 29, Type (0, 0), BuildingBlock: OJICUG_clean_linker_0, # of connection points: 2
#     Edge 30, Type (0, 0), BuildingBlock: OJICUG_clean_linker_0, # of connection points: 2
#     Edge 31, Type (0, 0), BuildingBlock: OJICUG_clean_linker_0, # of connection points: 2
#     Edge 32, Type (0, 0), BuildingBlock: OJICUG_clean_linker_0, # of connection points: 2
#     Edge 33, Type (0, 0), BuildingBlock: OJICUG_clean_linker_0, # of connection points: 2
#     Edge 34, Type (0, 0), BuildingBlock: OJICUG_clean_linker_0, # of connection points: 2
#     Edge 35, Type (0, 0), BuildingBlock: OJICUG_clean_linker_0, # of connection points: 2
#     Edge 36, Type (0, 0), BuildingBlock: OJICUG_clean_linker_0, # of connection points: 2
#     Edge 37, Type (0, 0), BuildingBlock: OJICUG_clean_linker_0, # of connection points: 2
#     Edge 38, Type (0, 0), BuildingBlock: OJICUG_clean_linker_0, # of connection points: 2
#     Edge 39, Type (0, 0), BuildingBlock: OJICUG_clean_linker_0, # of connection points: 2
#     Edge 40, Type (0, 0), BuildingBlock: OJICUG_clean_linker_0, # of connection points: 2
#     Edge 41, Type (0, 0), BuildingBlock: OJICUG_clean_linker_0, # of connection points: 2
#     Edge 42, Type (0, 0), BuildingBlock: OJICUG_clean_linker_0, # of connection points: 2
#     Edge 43, Type (0, 0), BuildingBlock: OJICUG_clean_linker_0, # of connection points: 2
#     Edge 44, Type (0, 0), BuildingBlock: OJICUG_clean_linker_0, # of connection points: 2
#     Edge 45, Type (0, 0), BuildingBlock: OJICUG_clean_linker_0, # of connection points: 2
#     Edge 46, Type (0, 0), BuildingBlock: OJICUG_clean_linker_0, # of connection points: 2
#     Edge 47, Type (0, 0), BuildingBlock: OJICUG_clean_linker_0, # of connection points: 2
#     Edge 48, Type (0, 0), BuildingBlock: OJICUG_clean_linker_0, # of connection points: 2
#     Edge 49, Type (0, 0), BuildingBlock: OJICUG_clean_linker_0, # of connection points: 2
#     Edge 50, Type (0, 0), BuildingBlock: OJICUG_clean_linker_0, # of connection points: 2
#     Edge 51, Type (0, 0), BuildingBlock: OJICUG_clean_linker_0, # of connection points: 2
#     Edge 52, Type (0, 0), BuildingBlock: OJICUG_clean_linker_0, # of connection points: 2
#     Edge 53, Type (0, 0), BuildingBlock: OJICUG_clean_linker_0, # of connection points: 2
#     Edge 54, Type (0, 0), BuildingBlock: OJICUG_clean_linker_0, # of connection points: 2
#     Edge 55, Type (0, 0), BuildingBlock: OJICUG_clean_linker_0, # of connection points: 2
#     Edge 56, Type (0, 0), BuildingBlock: OJICUG_clean_linker_0, # of connection points: 2
#     Edge 57, Type (0, 0), BuildingBlock: OJICUG_clean_linker_0, # of connection points: 2
#     Edge 58, Type (0, 0), BuildingBlock: OJICUG_clean_linker_0, # of connection points: 2
#     Edge 59, Type (0, 0), BuildingBlock: OJICUG_clean_linker_0, # of connection points: 2
#     Edge 60, Type (0, 0), BuildingBlock: OJICUG_clean_linker_0, # of connection points: 2
#     Edge 61, Type (0, 0), BuildingBlock: OJICUG_clean_linker_0, # of connection points: 2
#     Edge 62, Type (0, 0), BuildingBlock: OJICUG_clean_linker_0, # of connection points: 2
#     Edge 63, Type (0, 0), BuildingBlock: OJICUG_clean_linker_0, # of connection points: 2
#     Edge 64, Type (0, 0), BuildingBlock: OJICUG_clean_linker_0, # of connection points: 2
#     Edge 65, Type (0, 0), BuildingBlock: OJICUG_clean_linker_0, # of connection points: 2
#     Edge 66, Type (0, 0), BuildingBlock: OJICUG_clean_linker_0, # of connection points: 2
#     Edge 67, Type (0, 0), BuildingBlock: OJICUG_clean_linker_0, # of connection points: 2
#     Edge 68, Type (0, 0), BuildingBlock: OJICUG_clean_linker_0, # of connection points: 2
#     Edge 69, Type (0, 0), BuildingBlock: OJICUG_clean_linker_0, # of connection points: 2
#     Edge 70, Type (0, 0), BuildingBlock: OJICUG_clean_linker_0, # of connection points: 2
#     Edge 71, Type (0, 0), BuildingBlock: OJICUG_clean_linker_0, # of connection points: 2
# Relax obj value: 0.198
# Max RMSD: 0.232
# Mean RMSD: 0.232
data_MOF--net-vck--node1-HICVOG_clean_sbu_0--edge1-OJICUG_clean_linker_0
_symmetry_space_group_name_H-M    P1
_symmetry_Int_Tables_number       1
_symmetry_cell_setting            triclinic
loop_
_symmetry_equiv_pos_as_xyz
'x, y, z'
_cell_length_a     66.920281
_cell_length_b     36.716706
_cell_length_c     13.682145
_cell_angle_alpha  90.01868
_cell_angle_beta   89.96107
_cell_angle_gamma 89.966186
loop_
_atom_site_label
_atom_site_type_symbol
_atom_site_fract_x
_atom_site_fract_y
_atom_site_fract_z
_atom_type_partial_charge
Zn0 Zn 0.56847 0.18524 0.88922 0.0
C1 C 0.55626 0.26983 0.06257 0.0
N2 N 0.54259 0.27818 0.9947 0.0
C3 C 0.54676 0.25503 0.92164 0.0
N4 N 0.56245 0.23308 0.94359 0.0
N5 N 0.56883 0.24355 0.03082 0.0
C6 C 0.58922 0.20811 0.27688 0.0
O7 O 0.58567 0.17813 0.22737 0.0
O8 O 0.56884 0.18669 0.74095 0.0
Zn9 Zn 0.59609 0.23978 0.08372 0.0
N10 N 0.54801 0.15149 0.93732 0.0
C11 C 0.51829 0.14334 0.03074 0.0
C12 C 0.53379 0.16538 -0.00199 0.0
C13 C 0.54763 0.11572 0.91055 0.0
N14 N 0.51783 0.10786 0.00374 0.0
C15 C 0.53212 0.09306 0.94506 0.0
O16 O 0.61322 0.19746 0.03182 0.0
C17 C 0.61153 0.17038 0.97381 0.0
O18 O 0.59571 0.16512 0.92415 0.0
H19 H 0.53422 0.19353 0.02022 0.0
H20 H 0.55914 0.10529 0.86253 0.0
C21 C 0.62464 0.30071 0.10796 0.0
C22 C 0.63196 0.33578 0.0849 0.0
C23 C 0.60928 0.33887 0.95189 0.0
C24 C 0.60212 0.3043 0.97457 0.0
N25 N 0.60959 0.28599 0.05285 0.0
N26 N 0.62388 0.35381 0.0076 0.0
H27 H 0.63046 0.28582 0.16998 0.0
C28 C 0.57737 0.21278 0.69626 0.0
O29 O 0.58519 0.23947 0.74748 0.0
O30 O 0.5942 0.23681 0.23098 0.0
H31 H 0.59041 0.29239 0.93067 0.0
H32 H 0.50677 0.15425 0.07793 0.0
H33 H 0.60323 0.35381 0.89053 0.0
Zn34 Zn 0.49167 0.84462 0.89007 0.0
C35 C 0.50382 0.75994 0.06302 0.0
N36 N 0.51748 0.75157 0.99504 0.0
C37 C 0.51334 0.77476 0.92211 0.0
N38 N 0.49767 0.79676 0.94425 0.0
N39 N 0.49127 0.78627 0.03147 0.0
C40 C 0.47092 0.82175 0.27788 0.0
O41 O 0.47442 0.85176 0.22844 0.0
O42 O 0.49126 0.84318 0.74183 0.0
Zn43 Zn 0.46404 0.79013 0.08472 0.0
N44 N 0.51217 0.87831 0.93785 0.0
C45 C 0.54193 0.88645 0.03079 0.0
C46 C 0.52641 0.86442 -0.00167 0.0
C47 C 0.51257 0.91407 0.91099 0.0
N48 N 0.54241 0.92192 0.00373 0.0
C49 C 0.5281 0.93672 0.94524 0.0
O50 O 0.44696 0.83254 0.03332 0.0
C51 C 0.44866 0.85963 0.9754 0.0
O52 O 0.46446 0.86484 0.9255 0.0
H53 H 0.52597 0.83628 0.0206 0.0
H54 H 0.50105 0.92449 0.86312 0.0
C55 C 0.43547 0.72928 0.10925 0.0
C56 C 0.4281 0.69424 0.08617 0.0
C57 C 0.45067 0.69118 0.95256 0.0
C58 C 0.45788 0.72571 0.97527 0.0
N59 N 0.45048 0.74399 0.05384 0.0
N60 N 0.4361 0.67624 0.00856 0.0
H61 H 0.42971 0.74415 0.17151 0.0
C62 C 0.48278 0.81705 0.69713 0.0
O63 O 0.47501 0.79028 0.74831 0.0
O64 O 0.46596 0.79305 0.23194 0.0
H65 H 0.46956 0.73762 0.93117 0.0
H66 H 0.55346 0.87554 0.07783 0.0
H67 H 0.45666 0.67626 0.89097 0.0
Zn68 Zn 0.7141 0.48978 0.33325 0.0
C69 C 0.76363 0.50461 0.17169 0.0
N70 N 0.76781 0.52771 0.2448 0.0
C71 C 0.75402 0.5196 0.31235 0.0
N72 N 0.74138 0.49351 0.28034 0.0
N73 N 0.74781 0.48293 0.19323 0.0
C74 C 0.73266 0.46296 0.94568 0.0
O75 O 0.72475 0.48956 0.99705 0.0
O76 O 0.71592 0.48688 0.48047 0.0
Zn77 Zn 0.74168 0.43524 0.1383 0.0
N78 N 0.70059 0.53599 0.30238 0.0
C79 C 0.70091 0.58894 0.20173 0.0
C80 C 0.70809 0.55436 0.22427 0.0
C81 C 0.6855 0.55067 0.35749 0.0
N82 N 0.68628 0.60384 0.25745 0.0
C83 C 0.67817 0.58576 0.33461 0.0
O84 O 0.71445 0.41515 0.17356 0.0
C85 C 0.69866 0.4204 0.22352 0.0
O86 O 0.69698 0.44747 0.28161 0.0
H87 H 0.71984 0.54249 0.18041 0.0
H88 H 0.67967 0.53573 0.41942 0.0
C89 C 0.7628 0.36591 0.15454 0.0
C90 C 0.77825 0.34292 0.18826 0.0
C91 C 0.79147 0.39214 0.28033 0.0
C92 C 0.77601 0.41446 0.2484 0.0
N93 N 0.76211 0.40123 0.18512 0.0
N94 N 0.79221 0.35707 0.24984 0.0
H95 H 0.75156 0.35611 0.10419 0.0
C96 C 0.72083 0.45816 0.52644 0.0
O97 O 0.72437 0.42815 0.47701 0.0
O98 O 0.74128 0.43693 0.99017 0.0
H99 H 0.77534 0.44229 0.27329 0.0
H100 H 0.70699 0.60393 0.1405 0.0
H101 H 0.80274 0.40252 0.32968 0.0
Zn102 Zn 0.34605 0.54024 0.33539 0.0
C103 C 0.29668 0.52515 0.17322 0.0
N104 N 0.29249 0.50203 0.24625 0.0
C105 C 0.3062 0.51024 0.314 0.0
N106 N 0.31881 0.53641 0.28219 0.0
N107 N 0.31243 0.54696 0.19505 0.0
C108 C 0.32729 0.56726 0.94792 0.0
O109 O 0.33502 0.54045 -0.00097 0.0
O110 O 0.34411 0.54318 0.48263 0.0
Zn111 Zn 0.31844 0.59483 0.14098 0.0
N112 N 0.35961 0.49407 0.30444 0.0
C113 C 0.35941 0.44125 0.20316 0.0
C114 C 0.35219 0.47579 0.22598 0.0
C115 C 0.37465 0.47934 0.35962 0.0
N116 N 0.374 0.4263 0.25893 0.0
C117 C 0.38202 0.4443 0.33643 0.0
O118 O 0.34566 0.61493 0.17611 0.0
C119 C 0.36147 0.60967 0.22588 0.0
O120 O 0.36316 0.58258 0.28383 0.0
H121 H 0.34049 0.48771 0.18204 0.0
H122 H 0.38043 0.49421 0.42179 0.0
C123 C 0.2976 0.66437 0.16233 0.0
C124 C 0.28209 0.68709 0.19686 0.0
C125 C 0.26826 0.63687 0.28257 0.0
C126 C 0.28375 0.61477 0.24982 0.0
N127 N 0.29798 0.62861 0.18912 0.0
N128 N 0.2678 0.67234 0.25556 0.0
H129 H 0.30911 0.67476 0.11429 0.0
C130 C 0.3392 0.57192 0.52862 0.0
O131 O 0.33576 0.60195 0.47921 0.0
O132 O 0.31883 0.59344 0.9927 0.0
H133 H 0.28418 0.58663 0.27206 0.0
H134 H 0.3534 0.42634 0.14165 0.0
H135 H 0.25674 0.626 0.32977 0.0
Zn136 Zn 0.56835 0.68513 0.38946 0.0
C137 C 0.55614 0.76971 0.56284 0.0
N138 N 0.54248 0.77809 0.49496 0.0
C139 C 0.54665 0.75494 0.4219 0.0
N140 N 0.56232 0.73296 0.44386 0.0
N141 N 0.56869 0.74339 0.53113 0.0
C142 C 0.58909 0.70799 0.77717 0.0
O143 O 0.58556 0.678 0.72769 0.0
O144 O 0.56872 0.68659 0.24121 0.0
Zn145 Zn 0.59594 0.73961 0.584 0.0
N146 N 0.54789 0.65141 0.43748 0.0
C147 C 0.51815 0.64322 0.5308 0.0
C148 C 0.53365 0.66529 0.49813 0.0
C149 C 0.54751 0.61564 0.41067 0.0
N150 N 0.5177 0.60775 0.50377 0.0
C151 C 0.53201 0.59296 0.44513 0.0
O152 O 0.61307 0.69729 0.53221 0.0
C153 C 0.61139 0.67022 0.47415 0.0
O154 O 0.59559 0.66497 0.42439 0.0
H155 H 0.53407 0.69343 0.52038 0.0
H156 H 0.55904 0.60523 0.36268 0.0
C157 C 0.62443 0.80055 0.60817 0.0
C158 C 0.63174 0.83562 0.58507 0.0
C159 C 0.60913 0.8386 0.4518 0.0
C160 C 0.60197 0.80404 0.47452 0.0
N161 N 0.60942 0.78579 0.55295 0.0
N162 N 0.62369 0.8536 0.50762 0.0
H163 H 0.63023 0.7857 0.67031 0.0
C164 C 0.57724 0.71269 0.19652 0.0
O165 O 0.58505 0.73939 0.24773 0.0
O166 O 0.59406 0.73669 0.73125 0.0
H167 H 0.59029 0.79208 0.43054 0.0
H168 H 0.50663 0.65412 0.57796 0.0
H169 H 0.6031 0.85351 0.39032 0.0
Zn170 Zn 0.49171 0.34452 0.38976 0.0
C171 C 0.50391 0.2599 0.56274 0.0
N172 N 0.51757 0.25155 0.49475 0.0
C173 C 0.51341 0.27471 0.42177 0.0
N174 N 0.49772 0.29667 0.44391 0.0
N175 N 0.49135 0.2862 0.53116 0.0
C176 C 0.47099 0.3217 0.77758 0.0
O177 O 0.47451 0.3517 0.72813 0.0
O178 O 0.49132 0.34311 0.24154 0.0
Zn179 Zn 0.46411 0.29007 0.58443 0.0
N180 N 0.51219 0.37821 0.43767 0.0
C181 C 0.54193 0.38639 0.53074 0.0
C182 C 0.52643 0.36433 0.4982 0.0
C183 C 0.51258 0.41397 0.41085 0.0
N184 N 0.54239 0.42186 0.50371 0.0
C185 C 0.52809 0.43664 0.44518 0.0
O186 O 0.44701 0.33245 0.53302 0.0
C187 C 0.4487 0.35953 0.47504 0.0
O188 O 0.4645 0.36474 0.42511 0.0
H189 H 0.526 0.33619 0.52044 0.0
H190 H 0.50106 0.42438 0.36293 0.0
C191 C 0.43552 0.22926 0.60904 0.0
C192 C 0.42815 0.19422 0.58606 0.0
C193 C 0.45074 0.19107 0.45254 0.0
C194 C 0.45796 0.2256 0.47516 0.0
N195 N 0.45055 0.24393 0.55364 0.0
N196 N 0.43616 0.17617 0.50853 0.0
H197 H 0.42976 0.24417 0.67123 0.0
C198 C 0.48281 0.31701 0.19684 0.0
O199 O 0.475 0.29028 0.24803 0.0
O200 O 0.46603 0.293 0.73164 0.0
H201 H 0.46965 0.23747 0.43106 0.0
H202 H 0.55346 0.37549 0.57782 0.0
H203 H 0.45673 0.1761 0.39102 0.0
Zn204 Zn 0.71401 0.98977 0.83135 0.0
C205 C 0.76301 1.00481 0.66701 0.0
N206 N 0.76738 0.02783 0.73996 0.0
C207 C 0.75393 0.01942 0.80878 0.0
N208 N 0.74125 0.99322 0.77775 0.0
N209 N 0.74738 0.98287 0.6899 0.0
C210 C 0.73224 0.96251 0.44366 0.0
O211 O 0.72482 0.98962 0.49485 0.0
O212 O 0.7159 0.98695 0.97846 0.0
Zn213 Zn 0.74133 0.93494 0.63639 0.0
N214 N 0.70053 0.03602 0.80056 0.0
C215 C 0.70083 0.08897 0.69991 0.0
C216 C 0.70799 0.05436 0.7223 0.0
C217 C 0.68551 0.05075 0.85596 0.0
N218 N 0.68625 0.10392 0.75592 0.0
C219 C 0.67819 0.08586 0.83323 0.0
O220 O 0.71421 0.91477 0.67304 0.0
C221 C 0.69845 0.92019 0.7231 0.0
O222 O 0.6968 0.94747 0.7805 0.0
H223 H 0.71969 0.04246 0.67821 0.0
H224 H 0.67971 0.03582 0.918 0.0
C225 C 0.7623 0.86552 0.65723 0.0
C226 C 0.77792 0.84293 0.69105 0.0
C227 C 0.79197 0.89343 0.77468 0.0
C228 C 0.77637 0.9154 0.7427 0.0
N229 N 0.76198 0.90136 0.68334 0.0
N230 N 0.79237 0.85788 0.74836 0.0
H231 H 0.75066 0.85497 0.6103 0.0
C232 C 0.72021 0.95795 0.02465 0.0
O233 O 0.7231 0.92766 0.97546 0.0
O234 O 0.74057 0.93618 0.48825 0.0
H235 H 0.77597 0.94359 0.76455 0.0
H236 H 0.70686 0.10395 0.63856 0.0
H237 H 0.80361 0.90445 0.82083 0.0
Zn238 Zn 0.34607 0.04038 0.83557 0.0
C239 C 0.29672 0.02522 0.67342 0.0
N240 N 0.29255 1.00207 0.74641 0.0
C241 C 0.30626 1.01031 0.81417 0.0
N242 N 0.31884 0.03653 0.78239 0.0
N243 N 0.31245 0.04707 0.69525 0.0
C244 C 0.32732 0.06739 0.44811 0.0
O245 O 0.33508 0.04061 0.49924 0.0
O246 O 0.34415 0.04333 0.98282 0.0
Zn247 Zn 0.31845 0.09495 0.64115 0.0
N248 N 0.35964 0.99422 0.80459 0.0
C249 C 0.35945 0.94144 0.70322 0.0
C250 C 0.35223 0.97597 0.72606 0.0
C251 C 0.37466 0.97948 0.85985 0.0
N252 N 0.37403 0.92646 0.75906 0.0
C253 C 0.38203 0.94444 0.83664 0.0
O254 O 0.34567 0.11506 0.67622 0.0
C255 C 0.36148 0.1098 0.72597 0.0
O256 O 0.36317 0.08272 0.78394 0.0
H257 H 0.34054 0.9879 0.68206 0.0
H258 H 0.38042 0.99433 0.92208 0.0
C259 C 0.29759 0.16448 0.66251 0.0
C260 C 0.28208 0.18719 0.69703 0.0
C261 C 0.26825 0.13694 0.78268 0.0
C262 C 0.28375 0.11486 0.74994 0.0
N263 N 0.29798 0.12871 0.68926 0.0
N264 N 0.26779 0.17242 0.75569 0.0
H265 H 0.3091 0.17488 0.61449 0.0
C266 C 0.33922 0.07206 0.0288 0.0
O267 O 0.33576 0.10209 0.97939 0.0
O268 O 0.31884 0.09354 0.49288 0.0
H269 H 0.28419 0.08671 0.77216 0.0
H270 H 0.35346 0.92653 0.64165 0.0
H271 H 0.25673 0.12606 0.82986 0.0
Zn272 Zn 0.09611 0.2403 0.58645 0.0
C273 C 0.04678 0.25557 0.42416 0.0
N274 N 0.0426 0.2787 0.49724 0.0
C275 C 0.05629 0.27042 0.56502 0.0
N276 N 0.06889 0.2442 0.53318 0.0
N277 N 0.06251 0.23369 0.44598 0.0
C278 C 0.07736 0.21328 0.19894 0.0
O279 O 0.08512 0.24005 0.25011 0.0
O280 O 0.09416 0.23737 0.73368 0.0
Zn281 Zn 0.0685 0.18578 0.39193 0.0
N282 N 0.10968 0.28642 0.55556 0.0
C283 C 0.1095 0.3392 0.45423 0.0
C284 C 0.10228 0.30468 0.47702 0.0
C285 C 0.12469 0.30115 0.61087 0.0
N286 N 0.12407 0.35415 0.51013 0.0
C287 C 0.13206 0.33618 0.58771 0.0
O288 O 0.09571 0.16559 0.42709 0.0
C289 C 0.11151 0.17081 0.47691 0.0
O290 O 0.1132 0.1979 0.53488 0.0
H291 H 0.0906 0.29277 0.43298 0.0
H292 H 0.13045 0.2863 0.67311 0.0
C293 C 0.04762 0.11633 0.41356 0.0
C294 C 0.03211 0.09369 0.44822 0.0
C295 C 1.01828 0.14404 0.53361 0.0
C296 C 0.03378 0.16606 0.50075 0.0
N297 N 0.04801 0.15212 0.44014 0.0
N298 N 1.01782 0.10855 0.50682 0.0
H299 H 0.05913 0.10586 0.3656 0.0
C300 C 0.08922 0.20865 0.77959 0.0
O301 O 0.08575 0.17863 0.7301 0.0
O302 O 0.06888 0.18714 0.24367 0.0
H303 H 0.03422 0.19423 0.52283 0.0
H304 H 0.10351 0.35411 0.39266 0.0
H305 H 1.00677 0.155 0.58075 0.0
Zn306 Zn 0.99157 0.84532 0.39558 0.0
C307 C 1.00384 0.76056 0.56812 0.0
N308 N 1.01748 0.75222 0.50003 0.0
C309 C 1.01331 0.77544 0.42718 0.0
N310 N 0.99765 0.79744 0.44952 0.0
N311 N 0.99129 0.78691 0.53675 0.0
C312 C 0.97082 0.82181 0.78353 0.0
O313 O 0.97408 0.85193 0.7342 0.0
O314 O 0.99094 0.84383 0.24738 0.0
Zn315 Zn 0.96407 0.79068 0.59024 0.0
N316 N 1.01219 0.87894 0.44244 0.0
C317 C 0.04207 0.8871 0.53441 0.0
C318 C 1.0265 0.86507 0.50257 0.0
C319 C 1.01257 0.91468 0.41541 0.0
N320 N 0.04253 0.92255 0.50718 0.0
C321 C 1.02815 0.93734 0.44909 0.0
O322 O 0.9471 0.83351 0.54084 0.0
C323 C 0.94876 0.86072 0.48328 0.0
O324 O 0.96446 0.8658 0.43248 0.0
H325 H 1.02606 0.83695 0.52505 0.0
H326 H 1.00098 0.92509 0.36786 0.0
C327 C 0.93536 0.72989 0.61261 0.0
C328 C 0.9279 0.69507 0.58805 0.0
C329 C 0.95041 0.69262 0.45414 0.0
C330 C 0.95772 0.72694 0.47832 0.0
N331 N 0.95039 0.74482 0.55773 0.0
N332 N 0.93582 0.67747 0.50957 0.0
H333 H 0.92966 0.74443 0.67555 0.0
C334 C 0.98271 0.81741 0.20273 0.0
O335 O 0.97527 0.79035 0.25391 0.0
O336 O 0.96604 0.79303 0.73747 0.0
H337 H 0.96943 0.73901 0.43466 0.0
H338 H 0.05366 0.8762 0.58114 0.0
H339 H 0.95634 0.67803 0.39184 0.0
Zn340 Zn 0.21408 0.49033 0.83608 0.0
C341 C 0.26343 0.50548 0.67336 0.0
N342 N 0.26761 0.52863 0.74635 0.0
C343 C 0.2539 0.52042 0.8142 0.0
N344 N 0.24129 0.49424 0.78246 0.0
N345 N 0.24769 0.48365 0.6953 0.0
C346 C 0.23284 0.46326 0.44838 0.0
O347 O 0.22513 0.4901 0.49955 0.0
O348 O 0.21606 0.48733 0.98326 0.0
Zn349 Zn 0.24169 0.43574 0.64134 0.0
N350 N 0.20047 0.5365 0.80571 0.0
C351 C 0.2006 0.58941 0.70486 0.0
C352 C 0.20784 0.55485 0.72725 0.0
C353 C 0.18546 0.55118 0.86133 0.0
N354 N 0.18604 0.6043 0.76106 0.0
C355 C 0.17807 0.58624 0.83859 0.0
O356 O 0.21448 0.41562 0.67675 0.0
C357 C 0.19868 0.42087 0.72665 0.0
O358 O 0.19698 0.44797 0.7846 0.0
H359 H 0.21952 0.54298 0.68298 0.0
H360 H 0.17973 0.53626 0.92352 0.0
C361 C 0.26257 0.36623 0.66257 0.0
C362 C 0.27809 0.34355 0.69694 0.0
C363 C 0.29193 0.39383 0.78236 0.0
C364 C 0.27642 0.4159 0.74978 0.0
N365 N 0.26218 0.40202 0.68928 0.0
N366 N 0.29239 0.35835 0.75541 0.0
H367 H 0.25105 0.35581 0.6147 0.0
C368 C 0.22095 0.45858 0.02915 0.0
O369 O 0.22438 0.42853 0.97968 0.0
O370 O 0.24129 0.43708 0.49309 0.0
H371 H 0.27598 0.44405 0.77196 0.0
H372 H 0.20657 0.60438 0.64334 0.0
H373 H 0.30345 0.40474 0.82939 0.0
Zn374 Zn 0.8184 0.59445 0.63928 0.0
C375 C 0.8063 0.50972 0.81216 0.0
N376 N 0.79261 0.50141 0.74437 0.0
C377 C 0.79672 0.52464 0.67147 0.0
N378 N 0.8124 0.54659 0.69344 0.0
N379 N 0.81883 0.53605 0.78052 0.0
C380 C 0.83925 0.57166 0.02709 0.0
O381 O 0.83587 0.60175 0.97778 0.0
O382 O 0.81886 0.59304 0.49108 0.0
Zn383 Zn 0.84604 0.54002 0.83383 0.0
N384 N 0.79787 0.62814 0.68699 0.0
C385 C 0.76816 0.63644 0.78043 0.0
C386 C 0.78368 0.61435 0.74793 0.0
C387 C 0.79743 0.66384 0.65965 0.0
N388 N 0.76764 0.67185 0.75293 0.0
C389 C 0.7819 0.68656 0.69394 0.0
O390 O 0.86309 0.5825 0.78266 0.0
C391 C 0.86136 0.6096 0.72479 0.0
O392 O 0.84557 0.61474 0.67483 0.0
H393 H 0.78416 0.58625 0.77056 0.0
H394 H 0.80891 0.67417 0.61138 0.0
C395 C 0.87469 0.4793 0.85866 0.0
C396 C 0.88213 0.44428 0.83576 0.0
C397 C 0.85967 0.44111 0.70186 0.0
C398 C 0.85238 0.47563 0.72442 0.0
N399 N 0.8597 0.49395 0.80304 0.0
N400 N 0.87421 0.42623 0.75807 0.0
H401 H 0.88037 0.4942 0.92097 0.0
C402 C 0.8273 0.56685 0.4463 0.0
O403 O 0.835 0.53999 0.49738 0.0
O404 O 0.84409 0.54291 0.98101 0.0
H405 H 0.84071 0.48748 0.68019 0.0
H406 H 0.75667 0.6256 0.82784 0.0
H407 H 0.85375 0.42615 0.64023 0.0
Zn408 Zn 0.09602 0.74027 0.08896 0.0
C409 C 0.04666 0.75552 0.92702 0.0
N410 N 0.04247 0.77864 0.0001 0.0
C411 C 0.05616 0.77035 0.06791 0.0
N412 N 0.06876 0.74413 0.03608 0.0
N413 N 0.06239 0.73364 0.94883 0.0
C414 C 0.07732 0.71339 0.7015 0.0
O415 O 0.08509 0.74013 0.7527 0.0
O416 O 0.09415 0.7374 0.23622 0.0
Zn417 Zn 0.06842 0.6858 0.89445 0.0
N418 N 0.10957 0.78639 0.05772 0.0
C419 C 0.10933 0.83913 0.95628 0.0
C420 C 0.10211 0.80464 0.97931 0.0
C421 C 0.12465 0.8011 0.11263 0.0
N422 N 0.12396 0.85407 0.01179 0.0
C423 C 0.13202 0.83609 0.08922 0.0
O424 O 0.09563 0.6656 0.92943 0.0
C425 C 0.11144 0.6708 0.9792 0.0
O426 O 0.11313 0.69787 0.03725 0.0
H427 H 0.09038 0.79274 0.93556 0.0
H428 H 0.13046 0.78625 0.17475 0.0
C429 C 0.04756 0.61632 0.91519 0.0
C430 C 0.03205 0.59361 0.94951 0.0
C431 C 1.01822 0.64378 0.03565 0.0
C432 C 0.03372 0.66587 0.00313 0.0
N433 N 0.04795 0.65205 0.94231 0.0
N434 N 1.01776 0.60834 0.00832 0.0
H435 H 0.05907 0.60595 0.86707 0.0
C436 C 0.08922 0.70868 0.28218 0.0
O437 O 0.08573 0.67867 0.23272 0.0
O438 O 0.06882 0.68727 0.74618 0.0
H439 H 0.03416 0.69399 0.02563 0.0
H440 H 0.10329 0.85403 0.89481 0.0
H441 H 1.00671 0.65463 0.08295 0.0
Zn442 Zn 0.99181 0.3451 0.89213 0.0
C443 C 1.00398 0.26047 0.06518 0.0
N444 N 1.01765 0.25211 0.99721 0.0
C445 C 1.01349 0.27527 0.92424 0.0
N446 N 0.99781 0.29725 0.94633 0.0
N447 N 0.99142 0.28679 0.03357 0.0
C448 C 0.97107 0.3224 0.2799 0.0
O449 O 0.97462 0.35238 0.23044 0.0
O450 O 0.99147 0.34369 0.74388 0.0
Zn451 Zn 0.96418 0.29065 0.08676 0.0
N452 N 1.01227 0.37882 0.94029 0.0
C453 C 0.042 0.38696 0.03348 0.0
C454 C 1.02651 0.36491 0.00074 0.0
C455 C 1.01263 0.41461 0.91376 0.0
N456 N 0.04244 0.42245 0.00671 0.0
C457 C 1.02814 0.43728 0.94828 0.0
O458 O 0.94705 0.33293 0.03489 0.0
C459 C 0.94875 0.35999 0.97683 0.0
O460 O 0.96457 0.36523 0.92712 0.0
H461 H 1.0261 0.33674 0.02276 0.0
H462 H 1.00111 0.42506 0.86592 0.0
C463 C 0.93557 0.22991 0.11153 0.0
C464 C 0.92821 0.19484 0.08889 0.0
C465 C 0.95093 0.19138 0.95598 0.0
C466 C 0.95814 0.22596 0.97824 0.0
N467 N 0.95066 0.24445 0.05628 0.0
N468 N 0.93629 0.17662 0.01183 0.0
H469 H 0.92974 0.24496 0.17333 0.0
C470 C 0.98292 0.31764 0.69917 0.0
O471 O 0.97506 0.29097 0.75036 0.0
O472 O 0.96608 0.29371 0.23398 0.0
H473 H 0.96987 0.23773 0.93422 0.0
H474 H 0.05353 0.37603 0.08048 0.0
H475 H 0.95698 0.17629 0.89482 0.0
Zn476 Zn 0.21418 0.99024 0.33612 0.0
C477 C 0.2635 1.0054 0.17351 0.0
N478 N 0.26768 0.02855 0.24651 0.0
C479 C 0.25398 0.02031 0.31436 0.0
N480 N 0.24139 0.9941 0.28265 0.0
N481 N 0.24777 0.98355 0.19545 0.0
C482 C 0.2329 0.96323 0.94849 0.0
O483 O 0.22517 0.99005 -0.0003 0.0
O484 O 0.21612 0.98735 0.48333 0.0
Zn485 Zn 0.24177 0.93566 0.1414 0.0
N486 N 0.20058 0.03636 0.30524 0.0
C487 C 0.20073 0.08912 0.20387 0.0
C488 C 0.20797 0.05461 0.22664 0.0
C489 C 0.18556 0.05109 0.36062 0.0
N490 N 0.18615 0.10408 0.25983 0.0
C491 C 0.17816 0.0861 0.33748 0.0
O492 O 0.21456 0.9155 0.17685 0.0
C493 C 0.19877 0.92075 0.22687 0.0
O494 O 0.19709 0.94785 0.28483 0.0
H495 H 0.21966 0.04269 0.18255 0.0
H496 H 0.17981 0.03624 0.4229 0.0
C497 C 0.26264 0.86615 0.16247 0.0
C498 C 0.27816 0.84345 0.19678 0.0
C499 C 0.29202 0.89371 0.2822 0.0
C500 C 0.27651 0.91579 0.24969 0.0
N501 N 0.26226 0.90193 0.18922 0.0
N502 N 0.29247 0.85823 0.25523 0.0
H503 H 0.25111 0.85574 0.11463 0.0
C504 C 0.22102 0.95861 0.52924 0.0
O505 O 0.22446 0.92856 0.47976 0.0
O506 O 0.24135 0.93705 0.99315 0.0
H507 H 0.27608 0.94394 0.27191 0.0
H508 H 0.20671 0.10402 0.14225 0.0
H509 H 0.30355 0.90461 0.32922 0.0
Zn510 Zn 0.81917 0.09404 0.13365 0.0
C511 C 0.80628 1.01028 0.30911 0.0
N512 N 0.79298 1.00147 0.23996 0.0
C513 C 0.79736 0.02444 0.16679 0.0
N514 N 0.81279 0.04681 0.19026 0.0
N515 N 0.81881 0.03673 0.27841 0.0
C516 C 0.85517 0.05728 0.54312 0.0
O517 O 0.87359 0.06057 0.51106 0.0
O518 O 0.82188 0.08862 0.98615 0.0
Zn519 Zn 0.84543 0.04193 0.33759 0.0
N520 N 0.79794 0.12815 0.17275 0.0
C521 C 0.76699 0.13636 0.2563 0.0
C522 C 0.78292 0.11434 0.22885 0.0
C523 C 0.79796 0.16399 0.14639 0.0
N524 N 0.76694 0.17185 0.22966 0.0
C525 C 0.78202 0.1867 0.17618 0.0
O526 O 0.86284 0.08361 0.28456 0.0
C527 C 0.86132 0.11061 0.22623 0.0
O528 O 0.84577 0.11556 0.1744 0.0
H529 H 0.78309 0.08626 0.25168 0.0
H530 H 0.81016 0.17449 0.10282 0.0
C531 C 0.87433 0.98079 0.37149 0.0
C532 C 0.88187 0.94568 0.35004 0.0
C533 C 0.85959 0.94161 0.21578 0.0
C534 C 0.8523 0.97626 0.23647 0.0
N535 N 0.85937 0.9951 0.31481 0.0
N536 N 0.87408 0.92714 0.27297 0.0
H537 H 0.88004 0.99602 0.433 0.0
C538 C 0.83792 0.07376 0.95574 0.0
O539 O 0.85115 0.06266 0.02011 0.0
O540 O 0.84132 0.04962 0.48308 0.0
H541 H 0.84087 0.98787 0.19036 0.0
H542 H 0.75485 0.12545 0.29954 0.0
H543 H 0.85381 0.92631 0.15443 0.0
C544 C 0.54642 0.24174 0.21796 0.0
C545 C 0.55038 0.27363 0.16531 0.0
H546 H 0.53143 0.21745 0.33885 0.0
C547 C 0.54281 0.30692 0.19976 0.0
H548 H 0.55101 0.21543 0.1901 0.0
C549 C 0.53101 0.30801 0.28432 0.0
C550 C 0.5262 0.27575 0.33386 0.0
H551 H 0.54516 0.33173 0.15852 0.0
H552 H 0.52553 0.3339 0.30937 0.0
C553 C 0.53466 0.24284 0.30171 0.0
C554 C 0.51367 0.78798 0.2184 0.0
C555 C 0.50969 0.75611 0.1657 0.0
H556 H 0.52867 0.81224 0.33925 0.0
C557 C 0.51724 0.7228 0.2 0.0
H558 H 0.50909 0.81431 0.19064 0.0
C559 C 0.52904 0.72168 0.28449 0.0
C560 C 0.53386 0.75393 0.33407 0.0
H561 H 0.51487 0.698 0.15871 0.0
H562 H 0.53451 0.69578 0.30944 0.0
C563 C 0.52542 0.78685 0.30207 0.0
C564 C 0.76734 0.55678 0.44942 0.0
C565 C 0.75975 0.52349 0.4152 0.0
H566 H 0.78464 0.58379 0.55877 0.0
C567 C 0.76366 0.49165 0.46814 0.0
H568 H 0.76504 0.58156 0.40794 0.0
C569 C 0.7754 0.49278 0.55187 0.0
C570 C 0.7839 0.52567 0.58371 0.0
H571 H 0.75906 0.46533 0.44047 0.0
H572 H 0.7786 0.46741 0.58918 0.0
C573 C 0.77913 0.55791 0.53396 0.0
C574 C 0.29278 0.47318 0.45116 0.0
C575 C 0.30037 0.50645 0.41678 0.0
H576 H 0.2755 0.44624 0.56077 0.0
C577 C 0.29644 0.53833 0.46957 0.0
H578 H 0.29511 0.44836 0.40981 0.0
C579 C 0.2847 0.53726 0.55338 0.0
C580 C 0.27622 0.50438 0.58545 0.0
H581 H 0.30104 0.56463 0.44177 0.0
H582 H 0.28149 0.56266 0.59061 0.0
C583 C 0.281 0.47211 0.53579 0.0
C584 C 0.53094 0.808 0.78457 0.0
C585 C 0.52612 0.77576 0.83419 0.0
H586 H 0.54509 0.83166 0.65867 0.0
C587 C 0.53456 0.74283 0.80208 0.0
H588 H 0.52547 0.83391 0.80958 0.0
C589 C 0.54631 0.74169 0.7183 0.0
C590 C 0.55028 0.77355 0.66558 0.0
H591 H 0.53132 0.71745 0.83928 0.0
H592 H 0.55088 0.71536 0.6905 0.0
C593 C 0.54273 0.80686 0.69997 0.0
C594 C 0.51376 0.28799 0.71809 0.0
C595 C 0.50979 0.25611 0.66543 0.0
H596 H 0.52875 0.31229 0.83892 0.0
C597 C 0.51736 0.22282 0.69978 0.0
H598 H 0.50917 0.31431 0.69031 0.0
C599 C 0.52916 0.22172 0.78427 0.0
C600 C 0.53397 0.25399 0.83381 0.0
H601 H 0.515 0.198 0.65852 0.0
H602 H 0.53464 0.19583 0.80925 0.0
C603 C 0.52551 0.2869 0.80177 0.0
C604 C 0.76325 0.99199 0.96623 0.0
C605 C 0.76004 0.02357 0.91109 0.0
H606 H 0.77767 0.96781 0.0889 0.0
C607 C 0.76868 0.05642 0.94211 0.0
H608 H 0.75796 0.96582 0.94064 0.0
C609 C 0.78081 0.05735 0.02537 0.0
C610 C 0.78463 0.02543 0.07842 0.0
H611 H 0.767 0.08092 0.89873 0.0
H612 H 0.78724 0.08288 0.04655 0.0
C613 C 0.77515 0.99301 0.04954 0.0
C614 C 0.28475 0.03724 0.05358 0.0
C615 C 0.27629 1.00435 0.08558 0.0
H616 H 0.30107 0.06467 0.94203 0.0
C617 C 0.28108 0.97209 0.03586 0.0
H618 H 0.28153 0.06263 0.09087 0.0
C619 C 0.29286 0.97319 0.95125 0.0
C620 C 0.30043 1.00649 0.91694 0.0
H621 H 0.27559 0.94621 0.06079 0.0
H622 H 0.29519 0.94839 0.90984 0.0
C623 C 0.29649 0.03835 0.96978 0.0
C624 C 0.03472 0.2434 0.80414 0.0
C625 C 1.02628 0.27631 0.83636 0.0
H626 H 0.05104 0.21598 0.69245 0.0
C627 C 0.03111 0.30858 0.78691 0.0
H628 H 0.03147 0.218 0.84124 0.0
C629 C 0.0429 0.30749 0.70232 0.0
C630 C 0.05045 0.27419 0.66778 0.0
H631 H 1.02565 0.33447 0.81204 0.0
H632 H 0.04527 0.33231 0.66112 0.0
C633 C 0.04647 0.2423 0.72038 0.0
C634 C 1.02911 0.72226 0.78942 0.0
C635 C 0.03389 0.7545 0.83916 0.0
H636 H 1.01499 0.6986 0.66349 0.0
C637 C 1.02541 0.78741 0.80729 0.0
H638 H 0.03461 0.69637 0.81427 0.0
C639 C 1.01366 0.78855 0.72361 0.0
C640 C 1.00973 0.75669 0.67075 0.0
H641 H 1.02862 0.81278 0.84461 0.0
H642 H 1.00904 0.81487 0.69602 0.0
C643 C 1.01732 0.72339 0.7049 0.0
C644 C 0.27911 0.55853 0.03585 0.0
C645 C 0.28389 0.52625 0.08541 0.0
H646 H 0.265 0.5823 0.91005 0.0
C647 C 0.2754 0.49338 0.05333 0.0
H648 H 0.28462 0.5844 0.06084 0.0
C649 C 0.26367 0.49232 0.9696 0.0
C650 C 0.25973 0.52422 0.91693 0.0
H651 H 0.27862 0.46798 0.09048 0.0
H652 H 0.25906 0.46602 0.94177 0.0
C653 C 0.26732 0.55748 0.95133 0.0
C654 C 0.79289 0.47252 0.94903 0.0
C655 C 0.80049 0.50581 0.91492 0.0
H656 H 0.7756 0.44549 0.05846 0.0
C657 C 0.7966 0.53764 0.96802 0.0
H658 H 0.79518 0.44775 0.90743 0.0
C659 C 0.7849 0.53649 0.05194 0.0
C660 C 0.7764 0.50359 0.08375 0.0
H661 H 0.8012 0.56397 0.94041 0.0
H662 H 0.78172 0.56185 0.08944 0.0
C663 C 0.78113 0.47138 0.03372 0.0
C664 C 0.0464 0.74242 0.22364 0.0
C665 C 0.05031 0.77425 0.17067 0.0
H666 H 0.03146 0.7182 0.34476 0.0
C667 C 0.04265 0.80753 0.20474 0.0
H668 H 0.05104 0.7161 0.19603 0.0
C669 C 0.03082 0.80867 0.28924 0.0
C670 C 1.0261 0.77645 0.33918 0.0
H671 H 0.04494 0.8323 0.16321 0.0
H672 H 1.02526 0.83455 0.31388 0.0
C673 C 0.03464 0.74356 0.30738 0.0
C674 C 1.01741 0.22338 0.20222 0.0
C675 C 1.00984 0.25668 0.16787 0.0
H676 H 0.03467 0.19638 0.31173 0.0
C677 C 1.01381 0.28855 0.22057 0.0
H678 H 1.01505 0.19856 0.16093 0.0
C679 C 1.02555 0.28744 0.30429 0.0
C680 C 0.034 0.25453 0.33632 0.0
H681 H 1.00923 0.31487 0.19278 0.0
H682 H 1.02878 0.31283 0.34147 0.0
C683 C 1.02919 0.22227 0.28675 0.0
C684 C 0.26375 0.99227 0.4698 0.0
C685 C 0.2598 0.02415 0.41709 0.0
H686 H 0.27871 0.96799 0.59072 0.0
C687 C 0.26736 0.05744 0.45146 0.0
H688 H 0.25917 0.96596 0.44199 0.0
C689 C 0.27914 0.05854 0.53601 0.0
C690 C 0.28394 0.02628 0.58559 0.0
H691 H 0.26502 0.08224 0.41014 0.0
H692 H 0.28462 0.08442 0.56099 0.0
C693 C 0.27549 0.99338 0.55354 0.0
C694 C 0.78035 0.97165 0.52834 0.0
C695 C 0.7757 1.00381 0.57875 0.0
H696 H 0.79443 0.94819 0.4019 0.0
C697 C 0.78448 0.03662 0.54807 0.0
H698 H 0.77472 0.94577 0.55259 0.0
C699 C 0.79662 0.03775 0.46565 0.0
C700 C 0.80023 1.00607 0.41146 0.0
H701 H 0.78139 0.06192 0.58602 0.0
H702 H 0.80186 0.06401 0.44016 0.0
C703 C 0.79224 0.97285 0.4441 0.0
C704 C 0.58784 0.24201 0.53882 0.0
C705 C 0.57955 0.21209 0.58843 0.0
H706 H 0.59739 0.26424 0.40198 0.0
C707 C 0.57409 0.18108 0.53436 0.0
H708 H 0.59211 0.2664 0.57811 0.0
C709 C 0.57729 0.17971 0.43332 0.0
C710 C 0.58589 0.20942 0.38399 0.0
H711 H 0.56762 0.15758 0.57025 0.0
H712 H 0.57303 0.15533 0.39395 0.0
C713 C 0.5909 0.24074 0.43777 0.0
C714 C 0.48277 0.8502 0.43434 0.0
C715 C 0.47425 0.82044 0.38495 0.0
H716 H 0.49239 0.87235 0.5713 0.0
C717 C 0.46931 0.78906 0.43863 0.0
H718 H 0.48698 0.87462 0.39504 0.0
C719 C 0.47237 0.78778 0.53965 0.0
C720 C 0.48059 0.81775 0.58933 0.0
H721 H 0.46288 0.76551 0.40278 0.0
H722 H 0.46816 0.76334 0.57887 0.0
C723 C 0.48598 0.84882 0.53535 0.0
C724 C 0.71893 0.49073 0.68735 0.0
C725 C 0.72413 0.4595 0.63353 0.0
H726 H 0.71757 0.51635 0.82773 0.0
C727 C 0.73289 0.42992 0.68275 0.0
H728 H 0.71231 0.51412 0.65161 0.0
C729 C 0.73609 0.43134 0.78376 0.0
C730 C 0.73046 0.46226 0.83788 0.0
H731 H 0.73729 0.40563 0.64333 0.0
H732 H 0.7427 0.40796 0.81957 0.0
C733 C 0.72199 0.49204 0.78838 0.0
C734 C 0.32737 0.60044 0.68514 0.0
C735 C 0.33585 0.57062 0.6357 0.0
H736 H 0.31778 0.62266 0.82216 0.0
C737 C 0.34073 0.53919 0.68934 0.0
H738 H 0.32322 0.62491 0.64588 0.0
C739 C 0.33765 0.53793 0.79037 0.0
C740 C 0.32948 0.56796 0.8401 0.0
H741 H 0.34712 0.5156 0.65345 0.0
H742 H 0.34182 0.51345 0.82955 0.0
C743 C 0.32415 0.59908 0.78617 0.0
C744 C 0.57398 0.68096 0.03466 0.0
C745 C 0.57942 0.71199 0.0887 0.0
H746 H 0.57294 0.65519 0.89428 0.0
C747 C 0.58769 0.74192 0.03907 0.0
H748 H 0.56752 0.65746 0.07058 0.0
C749 C 0.59076 0.74064 0.93801 0.0
C750 C 0.58576 0.7093 0.88428 0.0
H751 H 0.59195 0.76633 0.07833 0.0
H752 H 0.59723 0.76416 0.9022 0.0
C753 C 0.57719 0.67958 0.93363 0.0
C754 C 0.47236 0.28778 0.03939 0.0
C755 C 0.48063 0.31771 0.08904 0.0
H756 H 0.46284 0.26554 0.90253 0.0
C757 C 0.48608 0.34874 0.03503 0.0
H758 H 0.4681 0.26337 0.07863 0.0
C759 C 0.48289 0.35011 0.93401 0.0
C760 C 0.47432 0.32039 0.88465 0.0
H761 H 0.49254 0.37223 0.07096 0.0
H762 H 0.48714 0.3745 0.89469 0.0
C763 C 0.46931 0.28905 0.93836 0.0
C764 C 0.72224 0.99213 0.28612 0.0
C765 C 0.72995 0.96176 0.33596 0.0
H766 H 0.71313 1.01478 0.1491 0.0
C767 C 0.73476 0.93029 0.28225 0.0
H768 H 0.71847 0.01687 0.32517 0.0
C769 C 0.73152 0.92897 0.18128 0.0
C770 C 0.72354 0.95918 0.1317 0.0
H771 H 0.74077 0.90643 0.31836 0.0
H772 H 0.73528 0.90425 0.14217 0.0
C773 C 0.71914 0.99091 0.18513 0.0
C774 C 0.32737 0.10056 0.18532 0.0
C775 C 0.33588 0.07076 0.13589 0.0
H776 H 0.31775 0.12275 0.32233 0.0
C777 C 0.34079 0.03935 0.18954 0.0
H778 H 0.32319 0.125 0.14605 0.0
C779 C 0.33771 0.03809 0.29058 0.0
C780 C 0.32951 0.06809 0.3403 0.0
H781 H 0.3472 0.01578 0.15366 0.0
H782 H 0.3419 1.01362 0.32977 0.0
C783 C 0.32415 0.09919 0.28635 0.0
C784 C 0.07417 0.18151 0.03709 0.0
C785 C 0.07954 0.21259 0.09111 0.0
H786 H 0.07318 0.15573 0.89671 0.0
C787 C 0.08774 0.24258 0.04146 0.0
H788 H 0.06777 0.15796 0.07302 0.0
C789 C 0.0908 0.24132 0.94041 0.0
C790 C 0.08588 0.20994 0.88668 0.0
H791 H 0.09194 0.26702 0.08071 0.0
H792 H 0.09722 0.26489 0.90459 0.0
C793 C 0.07737 0.18016 0.93605 0.0
C794 C 0.97261 0.78781 0.04522 0.0
C795 C 0.98051 0.81805 0.09495 0.0
H796 H 0.96337 0.76524 0.90828 0.0
C797 C 0.98558 0.84931 0.04103 0.0
H798 H 0.96864 0.76322 0.08441 0.0
C799 C 0.98238 0.85059 0.94002 0.0
C800 C 0.97418 0.82055 0.89058 0.0
H801 H 0.99175 0.87305 0.07701 0.0
H802 H 0.98634 0.87516 0.90078 0.0
C803 C 0.96955 0.78899 0.94418 0.0
C804 C 0.23275 0.43004 0.18559 0.0
C805 C 0.2243 0.45988 0.13622 0.0
H806 H 0.24232 0.40782 0.32255 0.0
C807 C 0.21944 0.49132 0.1899 0.0
H808 H 0.23689 0.40556 0.14629 0.0
C809 C 0.22251 0.49259 0.29091 0.0
C810 C 0.23066 0.46255 0.34058 0.0
H811 H 0.21307 0.51493 0.15406 0.0
H812 H 0.21836 0.51709 0.33013 0.0
C813 C 0.23596 0.43141 0.2866 0.0
C814 C 0.83765 0.53756 0.2887 0.0
C815 C 0.82952 0.5676 0.33851 0.0
H816 H 0.84709 0.51525 0.1517 0.0
C817 C 0.82424 0.59877 0.2847 0.0
H818 H 0.84178 0.51304 0.32779 0.0
C819 C 0.82747 0.60017 0.18369 0.0
C820 C 0.8359 0.57033 0.13416 0.0
H821 H 0.8179 0.62236 0.32076 0.0
H822 H 0.82335 0.62468 0.14452 0.0
C823 C 0.84074 0.53886 0.18767 0.0
C824 C 0.09083 0.74137 0.44299 0.0
C825 C 0.08588 0.70999 0.38927 0.0
H826 H 0.09197 0.76708 0.58328 0.0
C827 C 0.07735 0.68024 0.43863 0.0
H828 H 0.09727 0.7649 0.40717 0.0
C829 C 0.07413 0.68162 0.53966 0.0
C830 C 0.07951 0.71268 0.59368 0.0
H831 H 0.07314 0.65582 0.39931 0.0
H832 H 0.0677 0.65809 0.57558 0.0
C833 C 0.08775 0.74264 0.54404 0.0
C834 C 0.96936 0.28976 0.4407 0.0
C835 C 0.9744 0.32108 0.38698 0.0
H836 H 0.96814 0.26408 0.58096 0.0
C837 C 0.98301 0.35076 0.43633 0.0
H838 H 0.96286 0.26628 0.40488 0.0
C839 C 0.98622 0.34937 0.53735 0.0
C840 C 0.98074 0.31836 0.59136 0.0
H841 H 0.98729 0.37514 0.397 0.0
H842 H 0.99271 0.37284 0.57327 0.0
C843 C 0.97243 0.28847 0.54172 0.0
C844 C 0.23605 0.93142 0.78666 0.0
C845 C 0.23072 0.96254 0.84068 0.0
H846 H 0.237 0.90561 0.64631 0.0
C847 C 0.22255 0.99257 0.79106 0.0
H848 H 0.24243 0.90784 0.82256 0.0
C849 C 0.21948 0.99132 0.69004 0.0
C850 C 0.22437 0.9599 0.63631 0.0
H851 H 0.21837 0.01704 0.83032 0.0
H852 H 0.21309 1.01491 0.65423 0.0
C853 C 0.23284 0.93007 0.68564 0.0
C854 C 0.86163 0.06209 0.81789 0.0
C855 C 0.8421 0.06973 0.84993 0.0
H856 H 0.88109 0.05255 0.6962 0.0
C857 C 0.82685 0.07345 0.78007 0.0
H858 H 0.87375 0.0592 0.86977 0.0
C859 C 0.83107 0.06935 0.68036 0.0
C860 C 0.85064 0.0618 0.64846 0.0
H861 H 0.81164 0.07928 0.80242 0.0
H862 H 0.81908 0.07259 0.62817 0.0
C863 C 0.86588 0.05844 0.71833 0.0
C864 C 0.51263 0.03559 0.92228 0.0
C865 C 0.53126 0.05335 0.92503 0.0
H866 H 0.49688 0.98491 0.92539 0.0
C867 C 0.54875 0.03221 0.92166 0.0
H868 H 0.49888 0.05114 0.92465 0.0
C869 C 0.54759 0.99418 0.92221 0.0
C870 C 0.52896 0.97642 0.92514 0.0
H871 H 0.56334 0.04487 0.92505 0.0
H872 H 0.56135 0.97863 0.92452 0.0
C873 C 0.51147 0.99756 0.92184 0.0
C874 C 0.79794 0.28557 0.16498 0.0
C875 C 0.77932 0.30347 0.16449 0.0
H876 H 0.81356 0.23471 0.1679 0.0
C877 C 0.76189 0.28254 0.15403 0.0
H878 H 0.81167 0.30093 0.17264 0.0
C879 C 0.763 0.24453 0.15109 0.0
C880 C 0.78153 0.22655 0.15783 0.0
H881 H 0.74728 0.29521 0.15468 0.0
H882 H 0.74921 0.22911 0.14815 0.0
C883 C 0.79906 0.24754 0.1613 0.0
C884 C 0.26263 0.74463 0.17411 0.0
C885 C 0.28125 0.7268 0.17682 0.0
H886 H 0.24691 0.79537 0.17716 0.0
C887 C 0.29875 0.74787 0.17337 0.0
H888 H 0.24887 0.72913 0.17655 0.0
C889 C 0.29761 0.78591 0.17384 0.0
C890 C 0.27899 0.80374 0.17679 0.0
H891 H 0.31334 0.73516 0.17673 0.0
H892 H 0.31138 0.8014 0.17607 0.0
C893 C 0.26149 0.78267 0.1736 0.0
C894 C 0.54755 0.49413 0.42225 0.0
C895 C 0.52893 0.47634 0.42513 0.0
H896 H 0.56327 0.54485 0.42518 0.0
C897 C 0.51143 0.49744 0.42181 0.0
H898 H 0.56131 0.47861 0.42458 0.0
C899 C 0.51256 0.53547 0.42227 0.0
C900 C 0.53118 0.55326 0.42508 0.0
H901 H 0.49684 0.48475 0.4253 0.0
H902 H 0.49879 0.55099 0.42462 0.0
C903 C 0.54868 0.53217 0.42173 0.0
C904 C 0.79849 0.7473 0.66873 0.0
C905 C 0.78101 0.72622 0.67334 0.0
H906 H 0.81111 0.80085 0.66975 0.0
C907 C 0.76238 0.74403 0.67105 0.0
H908 H 0.81309 0.73463 0.67174 0.0
C909 C 0.76122 0.78206 0.66983 0.0
C910 C 0.77872 0.80316 0.67182 0.0
H911 H 0.74862 0.72853 0.67435 0.0
H912 H 0.74664 0.79476 0.67376 0.0
C913 C 0.79734 0.78534 0.66843 0.0
C914 C 0.29872 0.24798 0.67358 0.0
C915 C 0.28122 0.22689 0.67701 0.0
H916 H 0.31132 0.30153 0.6763 0.0
C917 C 0.2626 0.2447 0.67427 0.0
H918 H 0.31331 0.23529 0.67696 0.0
C919 C 0.26145 0.28274 0.67375 0.0
C920 C 0.27894 0.30383 0.67697 0.0
H921 H 0.24884 0.22919 0.67669 0.0
H922 H 0.24686 0.29544 0.67728 0.0
C923 C 0.29757 0.28602 0.67405 0.0
C924 C 0.04761 0.99481 0.42559 0.0
C925 C 1.02898 0.97703 0.42888 0.0
H926 H 0.06334 0.04551 0.42802 0.0
C927 C 1.01149 0.99815 0.42578 0.0
H928 H 0.06137 0.97928 0.42774 0.0
C929 C 1.01263 0.03619 0.42602 0.0
C930 C 0.03126 0.05397 0.42842 0.0
H931 H 0.9969 0.98549 0.42959 0.0
H932 H 0.99887 0.05172 0.42853 0.0
C933 C 0.04875 0.03285 0.42489 0.0
C934 C 0.04758 0.49479 0.92567 0.0
C935 C 1.02896 0.477 0.92851 0.0
H936 H 0.0633 0.54551 0.92895 0.0
C937 C 1.01146 0.4981 0.92549 0.0
H938 H 0.06135 0.47927 0.92778 0.0
C939 C 1.01259 0.53613 0.92629 0.0
C940 C 0.03121 0.55392 0.92914 0.0
H941 H 0.99688 0.48541 0.92897 0.0
H942 H 0.99883 0.55165 0.92887 0.0
C943 C 0.04871 0.53283 0.92548 0.0
C944 C 0.64859 0.15985 0.96052 0.0
C945 C 0.629 0.14616 0.95498 0.0
H946 H 0.67953 0.15131 0.92541 0.0
C947 C 0.6262 0.11029 0.9208 0.0
H948 H 0.65128 0.18739 0.98567 0.0
C949 C 0.64249 0.08926 0.88885 0.0
C950 C 0.66185 0.10396 0.8884 0.0
H951 H 0.6113 0.09892 0.91561 0.0
H952 H 0.63977 0.06244 0.85864 0.0
C953 C 0.66477 0.13919 0.92611 0.0
C954 C 0.43405 0.91977 0.92264 0.0
C955 C 0.43122 0.88395 0.95707 0.0
H956 H 0.42051 0.96765 0.86071 0.0
C957 C 0.41161 0.87041 0.96342 0.0
H958 H 0.44896 0.93104 0.91685 0.0
C959 C 0.39543 0.89115 0.92952 0.0
C960 C 0.39838 0.92633 0.89153 0.0
H961 H 0.40889 0.84291 0.98878 0.0
H962 H 0.38064 0.87913 0.92937 0.0
C963 C 0.41777 0.94088 0.89119 0.0
C964 C 0.6616 0.40976 0.21154 0.0
C965 C 0.6812 0.39615 0.20511 0.0
H966 H 0.63062 0.40113 0.17763 0.0
C967 C 0.68402 0.36032 0.1706 0.0
H968 H 0.65889 0.43727 0.23697 0.0
C969 C 0.66772 0.33925 0.13919 0.0
C970 C 0.64833 0.35387 0.13965 0.0
H971 H 0.69892 0.349 0.16475 0.0
H972 H 0.67044 0.31247 0.10869 0.0
C973 C 0.6454 0.38906 0.17768 0.0
C974 C 0.39238 0.69081 0.14133 0.0
C975 C 0.41176 0.67617 0.14126 0.0
H976 H 0.36119 0.6811 0.16755 0.0
C977 C 0.4147 0.64096 0.17909 0.0
H978 H 0.38965 0.71761 0.11099 0.0
C979 C 0.39852 0.62028 0.21325 0.0
C980 C 0.37892 0.63392 0.20732 0.0
H981 H 0.42948 0.62888 0.17864 0.0
H982 H 0.40123 0.59276 0.23848 0.0
C983 C 0.3761 0.66976 0.17304 0.0
C984 C 0.64241 0.58915 0.38927 0.0
C985 C 0.66178 0.60381 0.38948 0.0
H986 H 0.6112 0.59883 0.41528 0.0
C987 C 0.66467 0.639 0.42752 0.0
H988 H 0.63972 0.56237 0.35878 0.0
C989 C 0.64846 0.65965 0.46165 0.0
C990 C 0.62887 0.646 0.45548 0.0
H991 H 0.67944 0.6511 0.42731 0.0
H992 H 0.65114 0.68716 0.48708 0.0
C993 C 0.62609 0.61017 0.42095 0.0
C994 C 0.41778 0.44075 0.39078 0.0
C995 C 0.39839 0.4262 0.39126 0.0
H996 H 0.44898 0.43092 0.4163 0.0
C997 C 0.39545 0.39103 0.42932 0.0
H998 H 0.4205 0.46752 0.36024 0.0
C999 C 0.41164 0.37029 0.46317 0.0
C1000 C 0.43125 0.38384 0.4567 0.0
H1001 H 0.38067 0.37901 0.42927 0.0
H1002 H 0.40893 0.3428 0.4886 0.0
C1003 C 0.43407 0.41965 0.42219 0.0
C1004 C 0.68375 0.86001 0.67167 0.0
C1005 C 0.68097 0.89597 0.70526 0.0
H1006 H 0.67014 0.81207 0.61047 0.0
C1007 C 0.66139 0.90973 0.71095 0.0
H1008 H 0.69864 0.84858 0.6664 0.0
C1009 C 0.64519 0.88905 0.67713 0.0
C1010 C 0.64809 0.85373 0.6399 0.0
H1011 H 0.65872 0.93734 0.73565 0.0
H1012 H 0.63044 0.90122 0.67644 0.0
C1013 C 0.66744 0.83896 0.64032 0.0
C1014 C 0.39242 0.19086 0.64117 0.0
C1015 C 0.4118 0.17619 0.64117 0.0
H1016 H 0.36123 0.18121 0.6674 0.0
C1017 C 0.41473 0.141 0.67912 0.0
H1018 H 0.38971 0.21765 0.61074 0.0
C1019 C 0.39853 0.12036 0.71334 0.0
C1020 C 0.37894 0.13402 0.70734 0.0
H1021 H 0.4295 0.12889 0.67873 0.0
H1022 H 0.40124 0.09284 0.73867 0.0
C1023 C 0.37613 0.16985 0.67294 0.0
C1024 C 0.16475 0.13937 0.43054 0.0
C1025 C 0.16181 0.10419 0.39252 0.0
H1026 H 0.15127 0.1876 0.48999 0.0
C1027 C 0.14243 0.08961 0.39232 0.0
H1028 H 0.17953 0.15141 0.43028 0.0
C1029 C 0.12614 0.1107 0.42395 0.0
C1030 C 0.12896 0.14652 0.4584 0.0
H1031 H 0.1397 0.06283 0.36182 0.0
H1032 H 0.11123 0.09941 0.41826 0.0
C1033 C 0.14856 0.16009 0.46461 0.0
C1034 C 0.9342 0.92085 0.42981 0.0
C1035 C 0.93137 0.88539 0.46688 0.0
H1036 H 0.92054 0.96848 0.36705 0.0
C1037 C 0.91172 0.87252 0.47818 0.0
H1038 H 0.94914 0.93165 0.42029 0.0
C1039 C 0.89543 0.89344 0.44627 0.0
C1040 C 0.89835 0.92815 0.40526 0.0
H1041 H 0.90897 0.84534 0.50581 0.0
H1042 H 0.88057 0.8818 0.44952 0.0
C1043 C 0.91784 0.94214 0.40015 0.0
C1044 C 0.14545 0.38946 0.68061 0.0
C1045 C 0.1484 0.35426 0.64266 0.0
H1046 H 0.15891 0.43769 0.73988 0.0
C1047 C 0.1678 0.33966 0.64239 0.0
H1048 H 0.13067 0.40152 0.6804 0.0
C1049 C 0.18407 0.36075 0.67389 0.0
C1050 C 0.18124 0.39659 0.70828 0.0
H1051 H 0.17053 0.31288 0.61194 0.0
H1052 H 0.19899 0.34944 0.66816 0.0
C1053 C 0.16163 0.41018 0.71456 0.0
C1054 C 0.89839 0.62072 0.71379 0.0
C1055 C 0.87875 0.63406 0.70682 0.0
H1056 H 0.92939 0.62976 0.68077 0.0
C1057 C 0.87584 0.66986 0.67233 0.0
H1058 H 0.90117 0.59324 0.73922 0.0
C1059 C 0.8921 0.69114 0.64144 0.0
C1060 C 0.91154 0.67679 0.64248 0.0
H1061 H 0.8609 0.68098 0.66608 0.0
H1062 H 0.88932 0.71788 0.61089 0.0
C1063 C 0.91456 0.64164 0.68047 0.0
C1064 C 0.1485 0.66015 0.96636 0.0
C1065 C 0.1289 0.64654 0.96045 0.0
H1066 H 0.17945 0.65154 0.93152 0.0
C1067 C 0.12608 0.61072 0.92595 0.0
H1068 H 0.15121 0.68765 0.99175 0.0
C1069 C 0.14236 0.58967 0.89401 0.0
C1070 C 0.16174 0.60429 0.89393 0.0
H1071 H 0.11117 0.5994 0.92046 0.0
H1072 H 0.13963 0.5629 0.8635 0.0
C1073 C 0.16468 0.63947 0.93198 0.0
C1074 C 0.89551 0.39108 0.92905 0.0
C1075 C 0.89844 0.42628 0.89114 0.0
H1076 H 0.909 0.34295 0.98885 0.0
C1077 C 0.9178 0.44099 0.89152 0.0
H1078 H 0.88076 0.37895 0.92837 0.0
C1079 C 0.93408 0.42001 0.92361 0.0
C1080 C 0.93128 0.38417 0.95797 0.0
H1081 H 0.92051 0.46778 0.86115 0.0
H1082 H 0.94897 0.43139 0.91836 0.0
C1083 C 0.91169 0.37047 0.96359 0.0
C1084 C 0.18413 0.86066 0.17403 0.0
C1085 C 0.18132 0.89647 0.20869 0.0
H1086 H 0.17053 0.81282 0.11221 0.0
C1087 C 0.16171 0.91004 0.21555 0.0
H1088 H 0.19904 0.84937 0.16785 0.0
C1089 C 0.1455 0.88933 0.18196 0.0
C1090 C 0.14842 0.85416 0.14376 0.0
H1091 H 0.15901 0.93753 0.24112 0.0
H1092 H 0.13072 0.90137 0.18222 0.0
C1093 C 0.16782 0.83958 0.14287 0.0
C1094 C 0.87604 0.17061 0.1735 0.0
C1095 C 0.8788 0.13489 0.20884 0.0
H1096 H 0.88971 0.21825 0.11101 0.0
C1097 C 0.89839 0.12133 0.21639 0.0
H1098 H 0.86114 0.18188 0.1667 0.0
C1099 C 0.91464 0.14192 0.1827 0.0
C1100 C 0.91177 0.17698 0.14373 0.0
H1101 H 0.90105 0.09389 0.24242 0.0
H1102 H 0.92942 0.12986 0.1834 0.0
C1103 C 0.89239 0.19158 0.14227 0.0
loop_
_geom_bond_atom_site_label_1
_geom_bond_atom_site_label_2
_geom_bond_distance
_geom_bond_site_symmetry_2
_ccdc_geom_bond_type
Zn0 N4 2.020 . S
Zn0 O8 2.019 . S
Zn0 N10 2.119 . S
Zn0 O18 1.975 . S
C1 N2 1.334 . S
C1 N5 1.336 . S
N2 C1 1.334 . S
N2 C3 1.334 1_554 S
C3 N2 1.334 1_556 S
C3 N4 1.336 . S
N4 Zn0 2.020 . S
N4 C3 1.336 . S
N4 N5 1.354 1_556 S
N5 C1 1.336 . S
N5 N4 1.354 1_554 S
N5 Zn9 2.020 . S
C6 O7 1.244 . S
C6 O30 1.257 . S
O7 C6 1.244 . S
O8 Zn0 2.019 . S
O8 C28 1.257 . S
Zn9 N5 2.020 . S
Zn9 O16 1.975 . S
Zn9 N25 2.119 . S
Zn9 O30 2.019 . S
N10 Zn0 2.119 . S
N10 C12 1.334 1_556 S
N10 C13 1.328 . S
C11 C12 1.391 . S
C11 N14 1.329 1_554 S
C11 H32 0.930 . S
C12 N10 1.334 1_554 S
C12 C11 1.391 . S
C12 H19 0.930 . S
C13 N10 1.328 . S
C13 C15 1.392 . S
C13 H20 0.930 . S
N14 C11 1.329 1_556 S
N14 C15 1.331 . S
C15 C13 1.392 . S
C15 N14 1.331 . S
O16 Zn9 1.975 . S
O16 C17 1.252 1_554 S
C17 O16 1.252 1_556 S
C17 O18 1.252 . S
O18 Zn0 1.975 . S
O18 C17 1.252 . S
H19 C12 0.930 . S
H20 C13 0.930 . S
C21 C22 1.392 . S
C21 N25 1.328 . S
C21 H27 0.930 . S
C22 C21 1.392 . S
C22 N26 1.331 . S
C23 C24 1.391 . S
C23 N26 1.329 1_556 S
C23 H33 0.930 . S
C24 C23 1.391 . S
C24 N25 1.334 1_556 S
C24 H31 0.930 . S
N25 Zn9 2.119 . S
N25 C21 1.328 . S
N25 C24 1.334 1_554 S
N26 C22 1.331 . S
N26 C23 1.329 1_554 S
H27 C21 0.930 . S
C28 O8 1.257 . S
C28 O29 1.244 . S
O29 C28 1.244 . S
O30 C6 1.257 . S
O30 Zn9 2.019 . S
H31 C24 0.930 . S
H32 C11 0.930 . S
H33 C23 0.930 . S
Zn34 N38 2.020 . S
Zn34 O42 2.019 . S
Zn34 N44 2.119 . S
Zn34 O52 1.975 . S
C35 N36 1.334 . S
C35 N39 1.336 . S
N36 C35 1.334 . S
N36 C37 1.334 1_554 S
C37 N36 1.334 1_556 S
C37 N38 1.336 . S
N38 Zn34 2.020 . S
N38 C37 1.336 . S
N38 N39 1.354 1_556 S
N39 C35 1.336 . S
N39 N38 1.354 1_554 S
N39 Zn43 2.020 . S
C40 O41 1.244 . S
C40 O64 1.257 . S
O41 C40 1.244 . S
O42 Zn34 2.019 . S
O42 C62 1.257 . S
Zn43 N39 2.020 . S
Zn43 O50 1.975 . S
Zn43 N59 2.119 . S
Zn43 O64 2.019 . S
N44 Zn34 2.119 . S
N44 C46 1.334 1_556 S
N44 C47 1.328 . S
C45 C46 1.391 . S
C45 N48 1.329 1_554 S
C45 H66 0.930 . S
C46 N44 1.334 1_554 S
C46 C45 1.391 . S
C46 H53 0.930 . S
C47 N44 1.328 . S
C47 C49 1.392 . S
C47 H54 0.930 . S
N48 C45 1.329 1_556 S
N48 C49 1.331 . S
C49 C47 1.392 . S
C49 N48 1.331 . S
O50 Zn43 1.975 . S
O50 C51 1.252 1_554 S
C51 O50 1.252 1_556 S
C51 O52 1.252 . S
O52 Zn34 1.975 . S
O52 C51 1.252 . S
H53 C46 0.930 . S
H54 C47 0.930 . S
C55 C56 1.392 . S
C55 N59 1.328 . S
C55 H61 0.930 . S
C56 C55 1.392 . S
C56 N60 1.331 . S
C57 C58 1.391 . S
C57 N60 1.329 1_556 S
C57 H67 0.930 . S
C58 C57 1.391 . S
C58 N59 1.334 1_556 S
C58 H65 0.930 . S
N59 Zn43 2.119 . S
N59 C55 1.328 . S
N59 C58 1.334 1_554 S
N60 C56 1.331 . S
N60 C57 1.329 1_554 S
H61 C55 0.930 . S
C62 O42 1.257 . S
C62 O63 1.244 . S
O63 C62 1.244 . S
O64 C40 1.257 . S
O64 Zn43 2.019 . S
H65 C58 0.930 . S
H66 C45 0.930 . S
H67 C57 0.930 . S
Zn68 N72 2.020 . S
Zn68 O76 2.019 . S
Zn68 N78 2.119 . S
Zn68 O86 1.975 . S
C69 N70 1.334 . S
C69 N73 1.336 . S
N70 C69 1.334 . S
N70 C71 1.334 . S
C71 N70 1.334 . S
C71 N72 1.336 . S
N72 Zn68 2.020 . S
N72 C71 1.336 . S
N72 N73 1.354 . S
N73 C69 1.336 . S
N73 N72 1.354 . S
N73 Zn77 2.020 . S
C74 O75 1.244 . S
C74 O98 1.257 . S
O75 C74 1.244 . S
O76 Zn68 2.019 . S
O76 C96 1.257 . S
Zn77 N73 2.020 . S
Zn77 O84 1.975 . S
Zn77 N93 2.119 . S
Zn77 O98 2.019 1_554 S
N78 Zn68 2.119 . S
N78 C80 1.334 . S
N78 C81 1.328 . S
C79 C80 1.391 . S
C79 N82 1.329 . S
C79 H100 0.930 . S
C80 N78 1.334 . S
C80 C79 1.391 . S
C80 H87 0.930 . S
C81 N78 1.328 . S
C81 C83 1.392 . S
C81 H88 0.930 . S
N82 C79 1.329 . S
N82 C83 1.331 . S
C83 C81 1.392 . S
C83 N82 1.331 . S
O84 Zn77 1.975 . S
O84 C85 1.252 . S
C85 O84 1.252 . S
C85 O86 1.252 . S
O86 Zn68 1.975 . S
O86 C85 1.252 . S
H87 C80 0.930 . S
H88 C81 0.930 . S
C89 C90 1.392 . S
C89 N93 1.328 . S
C89 H95 0.930 . S
C90 C89 1.392 . S
C90 N94 1.331 . S
C91 C92 1.391 . S
C91 N94 1.329 . S
C91 H101 0.930 . S
C92 C91 1.391 . S
C92 N93 1.334 . S
C92 H99 0.930 . S
N93 Zn77 2.119 . S
N93 C89 1.328 . S
N93 C92 1.334 . S
N94 C90 1.331 . S
N94 C91 1.329 . S
H95 C89 0.930 . S
C96 O76 1.257 . S
C96 O97 1.244 . S
O97 C96 1.244 . S
O98 C74 1.257 . S
O98 Zn77 2.019 1_556 S
H99 C92 0.930 . S
H100 C79 0.930 . S
H101 C91 0.930 . S
Zn102 N106 2.020 . S
Zn102 O110 2.019 . S
Zn102 N112 2.119 . S
Zn102 O120 1.975 . S
C103 N104 1.334 . S
C103 N107 1.336 . S
N104 C103 1.334 . S
N104 C105 1.334 . S
C105 N104 1.334 . S
C105 N106 1.336 . S
N106 Zn102 2.020 . S
N106 C105 1.336 . S
N106 N107 1.354 . S
N107 C103 1.336 . S
N107 N106 1.354 . S
N107 Zn111 2.020 . S
C108 O109 1.244 . S
C108 O132 1.257 . S
O109 C108 1.244 . S
O110 Zn102 2.019 . S
O110 C130 1.257 . S
Zn111 N107 2.020 . S
Zn111 O118 1.975 . S
Zn111 N127 2.119 . S
Zn111 O132 2.019 1_554 S
N112 Zn102 2.119 . S
N112 C114 1.334 . S
N112 C115 1.328 . S
C113 C114 1.391 . S
C113 N116 1.329 . S
C113 H134 0.930 . S
C114 N112 1.334 . S
C114 C113 1.391 . S
C114 H121 0.930 . S
C115 N112 1.328 . S
C115 C117 1.392 . S
C115 H122 0.930 . S
N116 C113 1.329 . S
N116 C117 1.331 . S
C117 C115 1.392 . S
C117 N116 1.331 . S
O118 Zn111 1.975 . S
O118 C119 1.252 . S
C119 O118 1.252 . S
C119 O120 1.252 . S
O120 Zn102 1.975 . S
O120 C119 1.252 . S
H121 C114 0.930 . S
H122 C115 0.930 . S
C123 C124 1.392 . S
C123 N127 1.328 . S
C123 H129 0.930 . S
C124 C123 1.392 . S
C124 N128 1.331 . S
C125 C126 1.391 . S
C125 N128 1.329 . S
C125 H135 0.930 . S
C126 C125 1.391 . S
C126 N127 1.334 . S
C126 H133 0.930 . S
N127 Zn111 2.119 . S
N127 C123 1.328 . S
N127 C126 1.334 . S
N128 C124 1.331 . S
N128 C125 1.329 . S
H129 C123 0.930 . S
C130 O110 1.257 . S
C130 O131 1.244 . S
O131 C130 1.244 . S
O132 C108 1.257 . S
O132 Zn111 2.019 1_556 S
H133 C126 0.930 . S
H134 C113 0.930 . S
H135 C125 0.930 . S
Zn136 N140 2.020 . S
Zn136 O144 2.019 . S
Zn136 N146 2.119 . S
Zn136 O154 1.975 . S
C137 N138 1.334 . S
C137 N141 1.336 . S
N138 C137 1.334 . S
N138 C139 1.334 . S
C139 N138 1.334 . S
C139 N140 1.336 . S
N140 Zn136 2.020 . S
N140 C139 1.336 . S
N140 N141 1.354 . S
N141 C137 1.336 . S
N141 N140 1.354 . S
N141 Zn145 2.020 . S
C142 O143 1.244 . S
C142 O166 1.257 . S
O143 C142 1.244 . S
O144 Zn136 2.019 . S
O144 C164 1.257 . S
Zn145 N141 2.020 . S
Zn145 O152 1.975 . S
Zn145 N161 2.119 . S
Zn145 O166 2.019 . S
N146 Zn136 2.119 . S
N146 C148 1.334 . S
N146 C149 1.328 . S
C147 C148 1.391 . S
C147 N150 1.329 . S
C147 H168 0.930 . S
C148 N146 1.334 . S
C148 C147 1.391 . S
C148 H155 0.930 . S
C149 N146 1.328 . S
C149 C151 1.392 . S
C149 H156 0.930 . S
N150 C147 1.329 . S
N150 C151 1.331 . S
C151 C149 1.392 . S
C151 N150 1.331 . S
O152 Zn145 1.975 . S
O152 C153 1.252 . S
C153 O152 1.252 . S
C153 O154 1.252 . S
O154 Zn136 1.975 . S
O154 C153 1.252 . S
H155 C148 0.930 . S
H156 C149 0.930 . S
C157 C158 1.392 . S
C157 N161 1.328 . S
C157 H163 0.930 . S
C158 C157 1.392 . S
C158 N162 1.331 . S
C159 C160 1.391 . S
C159 N162 1.329 . S
C159 H169 0.930 . S
C160 C159 1.391 . S
C160 N161 1.334 . S
C160 H167 0.930 . S
N161 Zn145 2.119 . S
N161 C157 1.328 . S
N161 C160 1.334 . S
N162 C158 1.331 . S
N162 C159 1.329 . S
H163 C157 0.930 . S
C164 O144 1.257 . S
C164 O165 1.244 . S
O165 C164 1.244 . S
O166 C142 1.257 . S
O166 Zn145 2.019 . S
H167 C160 0.930 . S
H168 C147 0.930 . S
H169 C159 0.930 . S
Zn170 N174 2.020 . S
Zn170 O178 2.019 . S
Zn170 N180 2.119 . S
Zn170 O188 1.975 . S
C171 N172 1.334 . S
C171 N175 1.336 . S
N172 C171 1.334 . S
N172 C173 1.334 . S
C173 N172 1.334 . S
C173 N174 1.336 . S
N174 Zn170 2.020 . S
N174 C173 1.336 . S
N174 N175 1.354 . S
N175 C171 1.336 . S
N175 N174 1.354 . S
N175 Zn179 2.020 . S
C176 O177 1.244 . S
C176 O200 1.257 . S
O177 C176 1.244 . S
O178 Zn170 2.019 . S
O178 C198 1.257 . S
Zn179 N175 2.020 . S
Zn179 O186 1.975 . S
Zn179 N195 2.119 . S
Zn179 O200 2.019 . S
N180 Zn170 2.119 . S
N180 C182 1.334 . S
N180 C183 1.328 . S
C181 C182 1.391 . S
C181 N184 1.329 . S
C181 H202 0.930 . S
C182 N180 1.334 . S
C182 C181 1.391 . S
C182 H189 0.930 . S
C183 N180 1.328 . S
C183 C185 1.392 . S
C183 H190 0.930 . S
N184 C181 1.329 . S
N184 C185 1.331 . S
C185 C183 1.392 . S
C185 N184 1.331 . S
O186 Zn179 1.975 . S
O186 C187 1.252 . S
C187 O186 1.252 . S
C187 O188 1.252 . S
O188 Zn170 1.975 . S
O188 C187 1.252 . S
H189 C182 0.930 . S
H190 C183 0.930 . S
C191 C192 1.392 . S
C191 N195 1.328 . S
C191 H197 0.930 . S
C192 C191 1.392 . S
C192 N196 1.331 . S
C193 C194 1.391 . S
C193 N196 1.329 . S
C193 H203 0.930 . S
C194 C193 1.391 . S
C194 N195 1.334 . S
C194 H201 0.930 . S
N195 Zn179 2.119 . S
N195 C191 1.328 . S
N195 C194 1.334 . S
N196 C192 1.331 . S
N196 C193 1.329 . S
H197 C191 0.930 . S
C198 O178 1.257 . S
C198 O199 1.244 . S
O199 C198 1.244 . S
O200 C176 1.257 . S
O200 Zn179 2.019 . S
H201 C194 0.930 . S
H202 C181 0.930 . S
H203 C193 0.930 . S
Zn204 N208 2.020 . S
Zn204 O212 2.019 1_556 S
Zn204 N214 2.119 . S
Zn204 O222 1.975 . S
C205 N206 1.334 . S
C205 N209 1.336 . S
N206 C205 1.334 . S
N206 C207 1.334 . S
C207 N206 1.334 . S
C207 N208 1.336 . S
N208 Zn204 2.020 . S
N208 C207 1.336 . S
N208 N209 1.354 . S
N209 C205 1.336 . S
N209 N208 1.354 . S
N209 Zn213 2.020 . S
C210 O211 1.244 . S
C210 O234 1.257 . S
O211 C210 1.244 . S
O212 Zn204 2.019 1_554 S
O212 C232 1.257 . S
Zn213 N209 2.020 . S
Zn213 O220 1.975 . S
Zn213 N229 2.119 . S
Zn213 O234 2.019 . S
N214 Zn204 2.119 . S
N214 C216 1.334 . S
N214 C217 1.328 1_565 S
C215 C216 1.391 1_545 S
C215 N218 1.329 . S
C215 H236 0.930 . S
C216 N214 1.334 . S
C216 C215 1.391 1_565 S
C216 H223 0.930 . S
C217 N214 1.328 1_545 S
C217 C219 1.392 . S
C217 H224 0.930 . S
N218 C215 1.329 . S
N218 C219 1.331 . S
C219 C217 1.392 . S
C219 N218 1.331 . S
O220 Zn213 1.975 . S
O220 C221 1.252 . S
C221 O220 1.252 . S
C221 O222 1.252 . S
O222 Zn204 1.975 . S
O222 C221 1.252 . S
H223 C216 0.930 . S
H224 C217 0.930 . S
C225 C226 1.392 . S
C225 N229 1.328 . S
C225 H231 0.930 . S
C226 C225 1.392 . S
C226 N230 1.331 . S
C227 C228 1.391 . S
C227 N230 1.329 . S
C227 H237 0.930 . S
C228 C227 1.391 . S
C228 N229 1.334 . S
C228 H235 0.930 . S
N229 Zn213 2.119 . S
N229 C225 1.328 . S
N229 C228 1.334 . S
N230 C226 1.331 . S
N230 C227 1.329 . S
H231 C225 0.930 . S
C232 O212 1.257 . S
C232 O233 1.244 . S
O233 C232 1.244 . S
O234 C210 1.257 . S
O234 Zn213 2.019 . S
H235 C228 0.930 . S
H236 C215 0.930 . S
H237 C227 0.930 . S
Zn238 N242 2.020 . S
Zn238 O246 2.019 1_556 S
Zn238 N248 2.119 . S
Zn238 O256 1.975 . S
C239 N240 1.334 . S
C239 N243 1.336 . S
N240 C239 1.334 . S
N240 C241 1.334 . S
C241 N240 1.334 . S
C241 N242 1.336 . S
N242 Zn238 2.020 . S
N242 C241 1.336 . S
N242 N243 1.354 . S
N243 C239 1.336 . S
N243 N242 1.354 . S
N243 Zn247 2.020 . S
C244 O245 1.244 . S
C244 O268 1.257 . S
O245 C244 1.244 . S
O246 Zn238 2.019 1_554 S
O246 C266 1.257 . S
Zn247 N243 2.020 . S
Zn247 O254 1.975 . S
Zn247 N263 2.119 . S
Zn247 O268 2.019 . S
N248 Zn238 2.119 . S
N248 C250 1.334 . S
N248 C251 1.328 1_545 S
C249 C250 1.391 1_565 S
C249 N252 1.329 . S
C249 H270 0.930 . S
C250 N248 1.334 . S
C250 C249 1.391 1_545 S
C250 H257 0.930 . S
C251 N248 1.328 1_565 S
C251 C253 1.392 . S
C251 H258 0.930 . S
N252 C249 1.329 . S
N252 C253 1.331 . S
C253 C251 1.392 . S
C253 N252 1.331 . S
O254 Zn247 1.975 . S
O254 C255 1.252 . S
C255 O254 1.252 . S
C255 O256 1.252 . S
O256 Zn238 1.975 . S
O256 C255 1.252 . S
H257 C250 0.930 . S
H258 C251 0.930 . S
C259 C260 1.392 . S
C259 N263 1.328 . S
C259 H265 0.930 . S
C260 C259 1.392 . S
C260 N264 1.331 . S
C261 C262 1.391 . S
C261 N264 1.329 . S
C261 H271 0.930 . S
C262 C261 1.391 . S
C262 N263 1.334 . S
C262 H269 0.930 . S
N263 Zn247 2.119 . S
N263 C259 1.328 . S
N263 C262 1.334 . S
N264 C260 1.331 . S
N264 C261 1.329 . S
H265 C259 0.930 . S
C266 O246 1.257 . S
C266 O267 1.244 . S
O267 C266 1.244 . S
O268 C244 1.257 . S
O268 Zn247 2.019 . S
H269 C262 0.930 . S
H270 C249 0.930 . S
H271 C261 0.930 . S
Zn272 N276 2.020 . S
Zn272 O280 2.019 . S
Zn272 N282 2.119 . S
Zn272 O290 1.975 . S
C273 N274 1.334 . S
C273 N277 1.336 . S
N274 C273 1.334 . S
N274 C275 1.334 . S
C275 N274 1.334 . S
C275 N276 1.336 . S
N276 Zn272 2.020 . S
N276 C275 1.336 . S
N276 N277 1.354 . S
N277 C273 1.336 . S
N277 N276 1.354 . S
N277 Zn281 2.020 . S
C278 O279 1.244 . S
C278 O302 1.257 . S
O279 C278 1.244 . S
O280 Zn272 2.019 . S
O280 C300 1.257 . S
Zn281 N277 2.020 . S
Zn281 O288 1.975 . S
Zn281 N297 2.119 . S
Zn281 O302 2.019 . S
N282 Zn272 2.119 . S
N282 C284 1.334 . S
N282 C285 1.328 . S
C283 C284 1.391 . S
C283 N286 1.329 . S
C283 H304 0.930 . S
C284 N282 1.334 . S
C284 C283 1.391 . S
C284 H291 0.930 . S
C285 N282 1.328 . S
C285 C287 1.392 . S
C285 H292 0.930 . S
N286 C283 1.329 . S
N286 C287 1.331 . S
C287 C285 1.392 . S
C287 N286 1.331 . S
O288 Zn281 1.975 . S
O288 C289 1.252 . S
C289 O288 1.252 . S
C289 O290 1.252 . S
O290 Zn272 1.975 . S
O290 C289 1.252 . S
H291 C284 0.930 . S
H292 C285 0.930 . S
C293 C294 1.392 . S
C293 N297 1.328 . S
C293 H299 0.930 . S
C294 C293 1.392 . S
C294 N298 1.331 . S
C295 C296 1.391 . S
C295 N298 1.329 . S
C295 H305 0.930 . S
C296 C295 1.391 . S
C296 N297 1.334 . S
C296 H303 0.930 . S
N297 Zn281 2.119 . S
N297 C293 1.328 . S
N297 C296 1.334 . S
N298 C294 1.331 . S
N298 C295 1.329 . S
H299 C293 0.930 . S
C300 O280 1.257 . S
C300 O301 1.244 . S
O301 C300 1.244 . S
O302 C278 1.257 . S
O302 Zn281 2.019 . S
H303 C296 0.930 . S
H304 C283 0.930 . S
H305 C295 0.930 . S
Zn306 N310 2.020 . S
Zn306 O314 2.019 . S
Zn306 N316 2.119 . S
Zn306 O324 1.975 . S
C307 N308 1.334 . S
C307 N311 1.336 . S
N308 C307 1.334 . S
N308 C309 1.334 . S
C309 N308 1.334 . S
C309 N310 1.336 . S
N310 Zn306 2.020 . S
N310 C309 1.336 . S
N310 N311 1.354 . S
N311 C307 1.336 . S
N311 N310 1.354 . S
N311 Zn315 2.020 . S
C312 O313 1.244 . S
C312 O336 1.257 . S
O313 C312 1.244 . S
O314 Zn306 2.019 . S
O314 C334 1.257 . S
Zn315 N311 2.020 . S
Zn315 O322 1.975 . S
Zn315 N331 2.119 . S
Zn315 O336 2.019 . S
N316 Zn306 2.119 . S
N316 C318 1.334 . S
N316 C319 1.328 . S
C317 C318 1.391 . S
C317 N320 1.329 . S
C317 H338 0.930 . S
C318 N316 1.334 . S
C318 C317 1.391 . S
C318 H325 0.930 . S
C319 N316 1.328 . S
C319 C321 1.392 . S
C319 H326 0.930 . S
N320 C317 1.329 . S
N320 C321 1.331 . S
C321 C319 1.392 . S
C321 N320 1.331 . S
O322 Zn315 1.975 . S
O322 C323 1.252 . S
C323 O322 1.252 . S
C323 O324 1.252 . S
O324 Zn306 1.975 . S
O324 C323 1.252 . S
H325 C318 0.930 . S
H326 C319 0.930 . S
C327 C328 1.392 . S
C327 N331 1.328 . S
C327 H333 0.930 . S
C328 C327 1.392 . S
C328 N332 1.331 . S
C329 C330 1.391 . S
C329 N332 1.329 . S
C329 H339 0.930 . S
C330 C329 1.391 . S
C330 N331 1.334 . S
C330 H337 0.930 . S
N331 Zn315 2.119 . S
N331 C327 1.328 . S
N331 C330 1.334 . S
N332 C328 1.331 . S
N332 C329 1.329 . S
H333 C327 0.930 . S
C334 O314 1.257 . S
C334 O335 1.244 . S
O335 C334 1.244 . S
O336 C312 1.257 . S
O336 Zn315 2.019 . S
H337 C330 0.930 . S
H338 C317 0.930 . S
H339 C329 0.930 . S
Zn340 N344 2.020 . S
Zn340 O348 2.019 1_556 S
Zn340 N350 2.119 . S
Zn340 O358 1.975 . S
C341 N342 1.334 . S
C341 N345 1.336 . S
N342 C341 1.334 . S
N342 C343 1.334 . S
C343 N342 1.334 . S
C343 N344 1.336 . S
N344 Zn340 2.020 . S
N344 C343 1.336 . S
N344 N345 1.354 . S
N345 C341 1.336 . S
N345 N344 1.354 . S
N345 Zn349 2.020 . S
C346 O347 1.244 . S
C346 O370 1.257 . S
O347 C346 1.244 . S
O348 Zn340 2.019 1_554 S
O348 C368 1.257 . S
Zn349 N345 2.020 . S
Zn349 O356 1.975 . S
Zn349 N365 2.119 . S
Zn349 O370 2.019 . S
N350 Zn340 2.119 . S
N350 C352 1.334 . S
N350 C353 1.328 . S
C351 C352 1.391 . S
C351 N354 1.329 . S
C351 H372 0.930 . S
C352 N350 1.334 . S
C352 C351 1.391 . S
C352 H359 0.930 . S
C353 N350 1.328 . S
C353 C355 1.392 . S
C353 H360 0.930 . S
N354 C351 1.329 . S
N354 C355 1.331 . S
C355 C353 1.392 . S
C355 N354 1.331 . S
O356 Zn349 1.975 . S
O356 C357 1.252 . S
C357 O356 1.252 . S
C357 O358 1.252 . S
O358 Zn340 1.975 . S
O358 C357 1.252 . S
H359 C352 0.930 . S
H360 C353 0.930 . S
C361 C362 1.392 . S
C361 N365 1.328 . S
C361 H367 0.930 . S
C362 C361 1.392 . S
C362 N366 1.331 . S
C363 C364 1.391 . S
C363 N366 1.329 . S
C363 H373 0.930 . S
C364 C363 1.391 . S
C364 N365 1.334 . S
C364 H371 0.930 . S
N365 Zn349 2.119 . S
N365 C361 1.328 . S
N365 C364 1.334 . S
N366 C362 1.331 . S
N366 C363 1.329 . S
H367 C361 0.930 . S
C368 O348 1.257 . S
C368 O369 1.244 . S
O369 C368 1.244 . S
O370 C346 1.257 . S
O370 Zn349 2.019 . S
H371 C364 0.930 . S
H372 C351 0.930 . S
H373 C363 0.930 . S
Zn374 N378 2.020 . S
Zn374 O382 2.019 . S
Zn374 N384 2.119 . S
Zn374 O392 1.975 . S
C375 N376 1.334 . S
C375 N379 1.336 . S
N376 C375 1.334 . S
N376 C377 1.334 . S
C377 N376 1.334 . S
C377 N378 1.336 . S
N378 Zn374 2.020 . S
N378 C377 1.336 . S
N378 N379 1.354 . S
N379 C375 1.336 . S
N379 N378 1.354 . S
N379 Zn383 2.020 . S
C380 O381 1.244 . S
C380 O404 1.257 . S
O381 C380 1.244 . S
O382 Zn374 2.019 . S
O382 C402 1.257 . S
Zn383 N379 2.020 . S
Zn383 O390 1.975 . S
Zn383 N399 2.119 . S
Zn383 O404 2.019 1_556 S
N384 Zn374 2.119 . S
N384 C386 1.334 . S
N384 C387 1.328 . S
C385 C386 1.391 . S
C385 N388 1.329 . S
C385 H406 0.930 . S
C386 N384 1.334 . S
C386 C385 1.391 . S
C386 H393 0.930 . S
C387 N384 1.328 . S
C387 C389 1.392 . S
C387 H394 0.930 . S
N388 C385 1.329 . S
N388 C389 1.331 . S
C389 C387 1.392 . S
C389 N388 1.331 . S
O390 Zn383 1.975 . S
O390 C391 1.252 . S
C391 O390 1.252 . S
C391 O392 1.252 . S
O392 Zn374 1.975 . S
O392 C391 1.252 . S
H393 C386 0.930 . S
H394 C387 0.930 . S
C395 C396 1.392 . S
C395 N399 1.328 . S
C395 H401 0.930 . S
C396 C395 1.392 . S
C396 N400 1.331 . S
C397 C398 1.391 . S
C397 N400 1.329 . S
C397 H407 0.930 . S
C398 C397 1.391 . S
C398 N399 1.334 . S
C398 H405 0.930 . S
N399 Zn383 2.119 . S
N399 C395 1.328 . S
N399 C398 1.334 . S
N400 C396 1.331 . S
N400 C397 1.329 . S
H401 C395 0.930 . S
C402 O382 1.257 . S
C402 O403 1.244 . S
O403 C402 1.244 . S
O404 C380 1.257 . S
O404 Zn383 2.019 1_554 S
H405 C398 0.930 . S
H406 C385 0.930 . S
H407 C397 0.930 . S
Zn408 N412 2.020 . S
Zn408 O416 2.019 . S
Zn408 N418 2.119 . S
Zn408 O426 1.975 . S
C409 N410 1.334 1_556 S
C409 N413 1.336 . S
N410 C409 1.334 1_554 S
N410 C411 1.334 . S
C411 N410 1.334 . S
C411 N412 1.336 . S
N412 Zn408 2.020 . S
N412 C411 1.336 . S
N412 N413 1.354 1_554 S
N413 C409 1.336 . S
N413 N412 1.354 1_556 S
N413 Zn417 2.020 . S
C414 O415 1.244 . S
C414 O438 1.257 . S
O415 C414 1.244 . S
O416 Zn408 2.019 . S
O416 C436 1.257 . S
Zn417 N413 2.020 . S
Zn417 O424 1.975 . S
Zn417 N433 2.119 . S
Zn417 O438 2.019 . S
N418 Zn408 2.119 . S
N418 C420 1.334 1_554 S
N418 C421 1.328 . S
C419 C420 1.391 . S
C419 N422 1.329 1_556 S
C419 H440 0.930 . S
C420 N418 1.334 1_556 S
C420 C419 1.391 . S
C420 H427 0.930 . S
C421 N418 1.328 . S
C421 C423 1.392 . S
C421 H428 0.930 . S
N422 C419 1.329 1_554 S
N422 C423 1.331 . S
C423 C421 1.392 . S
C423 N422 1.331 . S
O424 Zn417 1.975 . S
O424 C425 1.252 . S
C425 O424 1.252 . S
C425 O426 1.252 1_556 S
O426 Zn408 1.975 . S
O426 C425 1.252 1_554 S
H427 C420 0.930 . S
H428 C421 0.930 . S
C429 C430 1.392 . S
C429 N433 1.328 . S
C429 H435 0.930 . S
C430 C429 1.392 . S
C430 N434 1.331 . S
C431 C432 1.391 . S
C431 N434 1.329 1_554 S
C431 H441 0.930 . S
C432 C431 1.391 . S
C432 N433 1.334 1_554 S
C432 H439 0.930 . S
N433 Zn417 2.119 . S
N433 C429 1.328 . S
N433 C432 1.334 1_556 S
N434 C430 1.331 . S
N434 C431 1.329 1_556 S
H435 C429 0.930 . S
C436 O416 1.257 . S
C436 O437 1.244 . S
O437 C436 1.244 . S
O438 C414 1.257 . S
O438 Zn417 2.019 . S
H439 C432 0.930 . S
H440 C419 0.930 . S
H441 C431 0.930 . S
Zn442 N446 2.020 . S
Zn442 O450 2.019 . S
Zn442 N452 2.119 . S
Zn442 O460 1.975 . S
C443 N444 1.334 . S
C443 N447 1.336 . S
N444 C443 1.334 . S
N444 C445 1.334 1_554 S
C445 N444 1.334 1_556 S
C445 N446 1.336 . S
N446 Zn442 2.020 . S
N446 C445 1.336 . S
N446 N447 1.354 1_556 S
N447 C443 1.336 . S
N447 N446 1.354 1_554 S
N447 Zn451 2.020 . S
C448 O449 1.244 . S
C448 O472 1.257 . S
O449 C448 1.244 . S
O450 Zn442 2.019 . S
O450 C470 1.257 . S
Zn451 N447 2.020 . S
Zn451 O458 1.975 . S
Zn451 N467 2.119 . S
Zn451 O472 2.019 . S
N452 Zn442 2.119 . S
N452 C454 1.334 1_556 S
N452 C455 1.328 . S
C453 C454 1.391 . S
C453 N456 1.329 1_554 S
C453 H474 0.930 . S
C454 N452 1.334 1_554 S
C454 C453 1.391 . S
C454 H461 0.930 . S
C455 N452 1.328 . S
C455 C457 1.392 . S
C455 H462 0.930 . S
N456 C453 1.329 1_556 S
N456 C457 1.331 . S
C457 C455 1.392 . S
C457 N456 1.331 . S
O458 Zn451 1.975 . S
O458 C459 1.252 1_554 S
C459 O458 1.252 1_556 S
C459 O460 1.252 . S
O460 Zn442 1.975 . S
O460 C459 1.252 . S
H461 C454 0.930 . S
H462 C455 0.930 . S
C463 C464 1.392 . S
C463 N467 1.328 . S
C463 H469 0.930 . S
C464 C463 1.392 . S
C464 N468 1.331 . S
C465 C466 1.391 . S
C465 N468 1.329 1_556 S
C465 H475 0.930 . S
C466 C465 1.391 . S
C466 N467 1.334 1_556 S
C466 H473 0.930 . S
N467 Zn451 2.119 . S
N467 C463 1.328 . S
N467 C466 1.334 1_554 S
N468 C464 1.331 . S
N468 C465 1.329 1_554 S
H469 C463 0.930 . S
C470 O450 1.257 . S
C470 O471 1.244 . S
O471 C470 1.244 . S
O472 C448 1.257 . S
O472 Zn451 2.019 . S
H473 C466 0.930 . S
H474 C453 0.930 . S
H475 C465 0.930 . S
Zn476 N480 2.020 . S
Zn476 O484 2.019 . S
Zn476 N486 2.119 . S
Zn476 O494 1.975 . S
C477 N478 1.334 . S
C477 N481 1.336 . S
N478 C477 1.334 . S
N478 C479 1.334 . S
C479 N478 1.334 . S
C479 N480 1.336 . S
N480 Zn476 2.020 . S
N480 C479 1.336 . S
N480 N481 1.354 . S
N481 C477 1.336 . S
N481 N480 1.354 . S
N481 Zn485 2.020 . S
C482 O483 1.244 . S
C482 O506 1.257 . S
O483 C482 1.244 . S
O484 Zn476 2.019 . S
O484 C504 1.257 . S
Zn485 N481 2.020 . S
Zn485 O492 1.975 . S
Zn485 N501 2.119 . S
Zn485 O506 2.019 1_554 S
N486 Zn476 2.119 . S
N486 C488 1.334 . S
N486 C489 1.328 1_565 S
C487 C488 1.391 1_545 S
C487 N490 1.329 . S
C487 H508 0.930 . S
C488 N486 1.334 . S
C488 C487 1.391 1_565 S
C488 H495 0.930 . S
C489 N486 1.328 1_545 S
C489 C491 1.392 . S
C489 H496 0.930 . S
N490 C487 1.329 . S
N490 C491 1.331 . S
C491 C489 1.392 . S
C491 N490 1.331 . S
O492 Zn485 1.975 . S
O492 C493 1.252 . S
C493 O492 1.252 . S
C493 O494 1.252 . S
O494 Zn476 1.975 . S
O494 C493 1.252 . S
H495 C488 0.930 . S
H496 C489 0.930 . S
C497 C498 1.392 . S
C497 N501 1.328 . S
C497 H503 0.930 . S
C498 C497 1.392 . S
C498 N502 1.331 . S
C499 C500 1.391 . S
C499 N502 1.329 . S
C499 H509 0.930 . S
C500 C499 1.391 . S
C500 N501 1.334 . S
C500 H507 0.930 . S
N501 Zn485 2.119 . S
N501 C497 1.328 . S
N501 C500 1.334 . S
N502 C498 1.331 . S
N502 C499 1.329 . S
H503 C497 0.930 . S
C504 O484 1.257 . S
C504 O505 1.244 . S
O505 C504 1.244 . S
O506 C482 1.257 . S
O506 Zn485 2.019 1_556 S
H507 C500 0.930 . S
H508 C487 0.930 . S
H509 C499 0.930 . S
Zn510 N514 2.020 . S
Zn510 O518 2.019 1_554 S
Zn510 N520 2.119 . S
Zn510 O528 1.975 . S
C511 N512 1.334 . S
C511 N515 1.336 . S
N512 C511 1.334 . S
N512 C513 1.334 . S
C513 N512 1.334 . S
C513 N514 1.336 . S
N514 Zn510 2.020 . S
N514 C513 1.336 . S
N514 N515 1.354 . S
N515 C511 1.336 . S
N515 N514 1.354 . S
N515 Zn519 2.020 . S
C516 O517 1.244 . S
C516 O540 1.257 . S
O517 C516 1.244 . S
O518 Zn510 2.019 1_556 S
O518 C538 1.257 . S
Zn519 N515 2.020 . S
Zn519 O526 1.975 . S
Zn519 N535 2.119 . S
Zn519 O540 2.019 . S
N520 Zn510 2.119 . S
N520 C522 1.334 . S
N520 C523 1.328 . S
C521 C522 1.391 . S
C521 N524 1.329 . S
C521 H542 0.930 . S
C522 N520 1.334 . S
C522 C521 1.391 . S
C522 H529 0.930 . S
C523 N520 1.328 . S
C523 C525 1.392 . S
C523 H530 0.930 . S
N524 C521 1.329 . S
N524 C525 1.331 . S
C525 C523 1.392 . S
C525 N524 1.331 . S
O526 Zn519 1.975 . S
O526 C527 1.252 . S
C527 O526 1.252 . S
C527 O528 1.252 . S
O528 Zn510 1.975 . S
O528 C527 1.252 . S
H529 C522 0.930 . S
H530 C523 0.930 . S
C531 C532 1.392 . S
C531 N535 1.328 1_565 S
C531 H537 0.930 . S
C532 C531 1.392 . S
C532 N536 1.331 . S
C533 C534 1.391 1_565 S
C533 N536 1.329 . S
C533 H543 0.930 . S
C534 C533 1.391 1_545 S
C534 N535 1.334 . S
C534 H541 0.930 . S
N535 Zn519 2.119 . S
N535 C531 1.328 1_545 S
N535 C534 1.334 . S
N536 C532 1.331 . S
N536 C533 1.329 . S
H537 C531 0.930 . S
C538 O518 1.257 . S
C538 O539 1.244 . S
O539 C538 1.244 . S
O540 C516 1.257 . S
O540 Zn519 2.019 . S
H541 C534 0.930 . S
H542 C521 0.930 . S
H543 C533 0.930 . S
C544 C545 1.387 . S
C544 H548 0.950 . S
C544 C553 1.390 . S
C545 C544 1.387 . S
C545 C547 1.387 . S
H546 C553 0.950 . S
C547 C545 1.387 . S
C547 C549 1.390 . S
C547 H551 0.950 . S
H548 C544 0.950 . S
C549 C547 1.390 . S
C549 C550 1.387 . S
C549 H552 0.950 . S
C550 C549 1.387 . S
C550 C553 1.387 . S
H551 C547 0.950 . S
H552 C549 0.950 . S
C553 C544 1.390 . S
C553 H546 0.950 . S
C553 C550 1.387 . S
C554 C555 1.387 . S
C554 H558 0.950 . S
C554 C563 1.390 . S
C555 C554 1.387 . S
C555 C557 1.387 . S
H556 C563 0.950 . S
C557 C555 1.387 . S
C557 C559 1.390 . S
C557 H561 0.950 . S
H558 C554 0.950 . S
C559 C557 1.390 . S
C559 C560 1.387 . S
C559 H562 0.950 . S
C560 C559 1.387 . S
C560 C563 1.387 . S
H561 C557 0.950 . S
H562 C559 0.950 . S
C563 C554 1.390 . S
C563 H556 0.950 . S
C563 C560 1.387 . S
C564 C565 1.387 . S
C564 H568 0.950 . S
C564 C573 1.390 . S
C565 C564 1.387 . S
C565 C567 1.387 . S
H566 C573 0.950 . S
C567 C565 1.387 . S
C567 C569 1.390 . S
C567 H571 0.950 . S
H568 C564 0.950 . S
C569 C567 1.390 . S
C569 C570 1.387 . S
C569 H572 0.950 . S
C570 C569 1.387 . S
C570 C573 1.387 . S
H571 C567 0.950 . S
H572 C569 0.950 . S
C573 C564 1.390 . S
C573 H566 0.950 . S
C573 C570 1.387 . S
C574 C575 1.387 . S
C574 H578 0.950 . S
C574 C583 1.390 . S
C575 C574 1.387 . S
C575 C577 1.387 . S
H576 C583 0.950 . S
C577 C575 1.387 . S
C577 C579 1.390 . S
C577 H581 0.950 . S
H578 C574 0.950 . S
C579 C577 1.390 . S
C579 C580 1.387 . S
C579 H582 0.950 . S
C580 C579 1.387 . S
C580 C583 1.387 . S
H581 C577 0.950 . S
H582 C579 0.950 . S
C583 C574 1.390 . S
C583 H576 0.950 . S
C583 C580 1.387 . S
C584 C585 1.387 . S
C584 H588 0.950 . S
C584 C593 1.390 . S
C585 C584 1.387 . S
C585 C587 1.387 . S
H586 C593 0.950 . S
C587 C585 1.387 . S
C587 C589 1.390 . S
C587 H591 0.950 . S
H588 C584 0.950 . S
C589 C587 1.390 . S
C589 C590 1.387 . S
C589 H592 0.950 . S
C590 C589 1.387 . S
C590 C593 1.387 . S
H591 C587 0.950 . S
H592 C589 0.950 . S
C593 C584 1.390 . S
C593 H586 0.950 . S
C593 C590 1.387 . S
C594 C595 1.387 . S
C594 H598 0.950 . S
C594 C603 1.390 . S
C595 C594 1.387 . S
C595 C597 1.387 . S
H596 C603 0.950 . S
C597 C595 1.387 . S
C597 C599 1.390 . S
C597 H601 0.950 . S
H598 C594 0.950 . S
C599 C597 1.390 . S
C599 C600 1.387 . S
C599 H602 0.950 . S
C600 C599 1.387 . S
C600 C603 1.387 . S
H601 C597 0.950 . S
H602 C599 0.950 . S
C603 C594 1.390 . S
C603 H596 0.950 . S
C603 C600 1.387 . S
C604 C605 1.384 1_564 S
C604 H608 0.949 1_554 S
C604 C613 1.394 . S
C605 C604 1.384 1_546 S
C605 C607 1.387 . S
H606 C613 0.950 . S
C607 C605 1.387 . S
C607 C609 1.390 1_556 S
C607 H611 0.950 . S
H608 C604 0.949 1_556 S
C609 C607 1.390 1_554 S
C609 C610 1.387 . S
C609 H612 0.950 . S
C610 C609 1.387 . S
C610 C613 1.387 1_545 S
H611 C607 0.950 . S
H612 C609 0.950 . S
C613 C604 1.394 . S
C613 H606 0.950 . S
C613 C610 1.387 1_565 S
C614 C615 1.387 1_545 S
C614 H618 0.950 . S
C614 C623 1.390 1_554 S
C615 C614 1.387 1_565 S
C615 C617 1.387 . S
H616 C623 0.950 . S
C617 C615 1.387 . S
C617 C619 1.390 1_554 S
C617 H621 0.950 . S
H618 C614 0.950 . S
C619 C617 1.390 1_556 S
C619 C620 1.387 . S
C619 H622 0.950 . S
C620 C619 1.387 . S
C620 C623 1.387 1_565 S
H621 C617 0.950 . S
H622 C619 0.950 . S
C623 C614 1.390 1_556 S
C623 H616 0.950 . S
C623 C620 1.387 1_545 S
C624 C625 1.387 1_455 S
C624 H628 0.950 . S
C624 C633 1.390 . S
C625 C624 1.387 1_655 S
C625 C627 1.387 . S
H626 C633 0.950 . S
C627 C625 1.387 . S
C627 C629 1.390 1_655 S
C627 H631 0.950 . S
H628 C624 0.950 . S
C629 C627 1.390 1_455 S
C629 C630 1.387 . S
C629 H632 0.950 . S
C630 C629 1.387 . S
C630 C633 1.387 . S
H631 C627 0.950 . S
H632 C629 0.950 . S
C633 C624 1.390 . S
C633 H626 0.950 . S
C633 C630 1.387 . S
C634 C635 1.387 1_655 S
C634 H638 0.941 1_655 S
C634 C643 1.390 . S
C635 C634 1.387 1_455 S
C635 C637 1.387 . S
H636 C643 0.950 . S
C637 C635 1.387 . S
C637 C639 1.392 1_455 S
C637 H641 0.949 . S
H638 C634 0.941 1_455 S
C639 C637 1.392 1_655 S
C639 C640 1.387 . S
C639 H642 0.950 . S
C640 C639 1.387 . S
C640 C643 1.387 . S
H641 C637 0.949 . S
H642 C639 0.950 . S
C643 C634 1.390 . S
C643 H636 0.950 . S
C643 C640 1.387 . S
C644 C645 1.387 . S
C644 H648 0.950 . S
C644 C653 1.390 1_554 S
C645 C644 1.387 . S
C645 C647 1.387 . S
H646 C653 0.950 . S
C647 C645 1.387 . S
C647 C649 1.390 . S
C647 H651 0.950 . S
H648 C644 0.950 . S
C649 C647 1.390 . S
C649 C650 1.387 1_554 S
C649 H652 0.950 . S
C650 C649 1.387 1_556 S
C650 C653 1.387 . S
H651 C647 0.950 . S
H652 C649 0.950 . S
C653 C644 1.390 1_556 S
C653 H646 0.950 . S
C653 C650 1.387 . S
C654 C655 1.387 . S
C654 H658 0.950 . S
C654 C663 1.390 . S
C655 C654 1.387 . S
C655 C657 1.387 1_556 S
H656 C663 0.950 . S
C657 C655 1.387 1_554 S
C657 C659 1.390 . S
C657 H661 0.950 . S
H658 C654 0.950 . S
C659 C657 1.390 . S
C659 C660 1.387 . S
C659 H662 0.950 . S
C660 C659 1.387 . S
C660 C663 1.387 1_554 S
H661 C657 0.950 . S
H662 C659 0.950 . S
C663 C654 1.390 . S
C663 H656 0.950 . S
C663 C660 1.387 1_556 S
C664 C665 1.387 . S
C664 H668 0.950 . S
C664 C673 1.390 1_455 S
C665 C664 1.387 . S
C665 C667 1.387 . S
H666 C673 0.950 . S
C667 C665 1.387 . S
C667 C669 1.390 . S
C667 H671 0.950 . S
H668 C664 0.950 . S
C669 C667 1.390 . S
C669 C670 1.387 1_455 S
C669 H672 0.950 . S
C670 C669 1.387 1_655 S
C670 C673 1.387 . S
H671 C667 0.950 . S
H672 C669 0.950 . S
C673 C664 1.390 1_655 S
C673 H666 0.950 . S
C673 C670 1.387 . S
C674 C675 1.387 . S
C674 H678 0.950 . S
C674 C683 1.390 1_655 S
C675 C674 1.387 . S
C675 C677 1.387 . S
H676 C683 0.950 . S
C677 C675 1.387 . S
C677 C679 1.390 . S
C677 H681 0.950 . S
H678 C674 0.950 . S
C679 C677 1.390 . S
C679 C680 1.387 1_655 S
C679 H682 0.950 . S
C680 C679 1.387 1_455 S
C680 C683 1.387 . S
H681 C677 0.950 . S
H682 C679 0.950 . S
C683 C674 1.390 1_455 S
C683 H676 0.950 . S
C683 C680 1.387 . S
C684 C685 1.387 1_565 S
C684 H688 0.950 . S
C684 C693 1.390 . S
C685 C684 1.387 1_545 S
C685 C687 1.387 . S
H686 C693 0.950 . S
C687 C685 1.387 . S
C687 C689 1.390 . S
C687 H691 0.950 . S
H688 C684 0.950 . S
C689 C687 1.390 . S
C689 C690 1.387 . S
C689 H692 0.950 . S
C690 C689 1.387 . S
C690 C693 1.387 1_545 S
H691 C687 0.950 . S
H692 C689 0.950 . S
C693 C684 1.390 . S
C693 H686 0.950 . S
C693 C690 1.387 1_565 S
C694 C695 1.387 . S
C694 H698 0.950 . S
C694 C703 1.390 . S
C695 C694 1.387 . S
C695 C697 1.387 . S
H696 C703 0.950 . S
C697 C695 1.387 . S
C697 C699 1.390 . S
C697 H701 0.950 . S
H698 C694 0.950 . S
C699 C697 1.390 . S
C699 C700 1.387 . S
C699 H702 0.950 . S
C700 C699 1.387 . S
C700 C703 1.387 . S
H701 C697 0.950 . S
H702 C699 0.950 . S
C703 C694 1.390 . S
C703 H696 0.950 . S
C703 C700 1.387 . S
C704 C705 1.387 . S
C704 H708 0.950 . S
C704 C713 1.390 . S
C705 C704 1.387 . S
C705 C707 1.387 . S
H706 C713 0.950 . S
C707 C705 1.387 . S
C707 C709 1.390 . S
C707 H711 0.950 . S
H708 C704 0.950 . S
C709 C707 1.390 . S
C709 C710 1.387 . S
C709 H712 0.950 . S
C710 C709 1.387 . S
C710 C713 1.387 . S
H711 C707 0.950 . S
H712 C709 0.950 . S
C713 C704 1.390 . S
C713 H706 0.950 . S
C713 C710 1.387 . S
C714 C715 1.387 . S
C714 H718 0.950 . S
C714 C723 1.390 . S
C715 C714 1.387 . S
C715 C717 1.387 . S
H716 C723 0.950 . S
C717 C715 1.387 . S
C717 C719 1.390 . S
C717 H721 0.950 . S
H718 C714 0.950 . S
C719 C717 1.390 . S
C719 C720 1.387 . S
C719 H722 0.950 . S
C720 C719 1.387 . S
C720 C723 1.387 . S
H721 C717 0.950 . S
H722 C719 0.950 . S
C723 C714 1.390 . S
C723 H716 0.950 . S
C723 C720 1.387 . S
C724 C725 1.387 . S
C724 H728 0.950 . S
C724 C733 1.390 . S
C725 C724 1.387 . S
C725 C727 1.387 . S
H726 C733 0.950 . S
C727 C725 1.387 . S
C727 C729 1.390 . S
C727 H731 0.950 . S
H728 C724 0.950 . S
C729 C727 1.390 . S
C729 C730 1.387 . S
C729 H732 0.950 . S
C730 C729 1.387 . S
C730 C733 1.387 . S
H731 C727 0.950 . S
H732 C729 0.950 . S
C733 C724 1.390 . S
C733 H726 0.950 . S
C733 C730 1.387 . S
C734 C735 1.387 . S
C734 H738 0.950 . S
C734 C743 1.390 . S
C735 C734 1.387 . S
C735 C737 1.387 . S
H736 C743 0.950 . S
C737 C735 1.387 . S
C737 C739 1.390 . S
C737 H741 0.950 . S
H738 C734 0.950 . S
C739 C737 1.390 . S
C739 C740 1.387 . S
C739 H742 0.950 . S
C740 C739 1.387 . S
C740 C743 1.387 . S
H741 C737 0.950 . S
H742 C739 0.950 . S
C743 C734 1.390 . S
C743 H736 0.950 . S
C743 C740 1.387 . S
C744 C745 1.387 . S
C744 H748 0.950 . S
C744 C753 1.390 1_554 S
C745 C744 1.387 . S
C745 C747 1.387 . S
H746 C753 0.950 . S
C747 C745 1.387 . S
C747 C749 1.390 1_554 S
C747 H751 0.950 . S
H748 C744 0.950 . S
C749 C747 1.390 1_556 S
C749 C750 1.387 . S
C749 H752 0.950 . S
C750 C749 1.387 . S
C750 C753 1.387 . S
H751 C747 0.950 . S
H752 C749 0.950 . S
C753 C744 1.390 1_556 S
C753 H746 0.950 . S
C753 C750 1.387 . S
C754 C755 1.387 . S
C754 H758 0.950 . S
C754 C763 1.390 1_554 S
C755 C754 1.387 . S
C755 C757 1.387 . S
H756 C763 0.950 . S
C757 C755 1.387 . S
C757 C759 1.390 1_554 S
C757 H761 0.950 . S
H758 C754 0.950 . S
C759 C757 1.390 1_556 S
C759 C760 1.387 . S
C759 H762 0.950 . S
C760 C759 1.387 . S
C760 C763 1.387 . S
H761 C757 0.950 . S
H762 C759 0.950 . S
C763 C754 1.390 1_556 S
C763 H756 0.950 . S
C763 C760 1.387 . S
C764 C765 1.387 . S
C764 H768 0.950 . S
C764 C773 1.390 . S
C765 C764 1.387 . S
C765 C767 1.387 . S
H766 C773 0.950 . S
C767 C765 1.387 . S
C767 C769 1.390 . S
C767 H771 0.950 . S
H768 C764 0.950 . S
C769 C767 1.390 . S
C769 C770 1.387 . S
C769 H772 0.950 . S
C770 C769 1.387 . S
C770 C773 1.387 . S
H771 C767 0.950 . S
H772 C769 0.950 . S
C773 C764 1.390 . S
C773 H766 0.950 . S
C773 C770 1.387 . S
C774 C775 1.387 . S
C774 H778 0.950 . S
C774 C783 1.390 . S
C775 C774 1.387 . S
C775 C777 1.387 . S
H776 C783 0.950 . S
C777 C775 1.387 . S
C777 C779 1.390 . S
C777 H781 0.950 . S
H778 C774 0.950 . S
C779 C777 1.390 . S
C779 C780 1.387 . S
C779 H782 0.950 . S
C780 C779 1.387 . S
C780 C783 1.387 . S
H781 C777 0.950 . S
H782 C779 0.950 . S
C783 C774 1.390 . S
C783 H776 0.950 . S
C783 C780 1.387 . S
C784 C785 1.387 . S
C784 H788 0.950 . S
C784 C793 1.390 1_554 S
C785 C784 1.387 . S
C785 C787 1.387 . S
H786 C793 0.950 . S
C787 C785 1.387 . S
C787 C789 1.390 1_554 S
C787 H791 0.950 . S
H788 C784 0.950 . S
C789 C787 1.390 1_556 S
C789 C790 1.387 . S
C789 H792 0.950 . S
C790 C789 1.387 . S
C790 C793 1.387 . S
H791 C787 0.950 . S
H792 C789 0.950 . S
C793 C784 1.390 1_556 S
C793 H786 0.950 . S
C793 C790 1.387 . S
C794 C795 1.387 . S
C794 H798 0.950 . S
C794 C803 1.390 1_554 S
C795 C794 1.387 . S
C795 C797 1.387 . S
H796 C803 0.950 . S
C797 C795 1.387 . S
C797 C799 1.390 1_554 S
C797 H801 0.950 . S
H798 C794 0.950 . S
C799 C797 1.390 1_556 S
C799 C800 1.387 . S
C799 H802 0.950 . S
C800 C799 1.387 . S
C800 C803 1.387 . S
H801 C797 0.950 . S
H802 C799 0.950 . S
C803 C794 1.390 1_556 S
C803 H796 0.950 . S
C803 C800 1.387 . S
C804 C805 1.387 . S
C804 H808 0.950 . S
C804 C813 1.390 . S
C805 C804 1.387 . S
C805 C807 1.387 . S
H806 C813 0.950 . S
C807 C805 1.387 . S
C807 C809 1.390 . S
C807 H811 0.950 . S
H808 C804 0.950 . S
C809 C807 1.390 . S
C809 C810 1.387 . S
C809 H812 0.950 . S
C810 C809 1.387 . S
C810 C813 1.387 . S
H811 C807 0.950 . S
H812 C809 0.950 . S
C813 C804 1.390 . S
C813 H806 0.950 . S
C813 C810 1.387 . S
C814 C815 1.387 . S
C814 H818 0.950 . S
C814 C823 1.390 . S
C815 C814 1.387 . S
C815 C817 1.387 . S
H816 C823 0.950 . S
C817 C815 1.387 . S
C817 C819 1.390 . S
C817 H821 0.950 . S
H818 C814 0.950 . S
C819 C817 1.390 . S
C819 C820 1.387 . S
C819 H822 0.950 . S
C820 C819 1.387 . S
C820 C823 1.387 . S
H821 C817 0.950 . S
H822 C819 0.950 . S
C823 C814 1.390 . S
C823 H816 0.950 . S
C823 C820 1.387 . S
C824 C825 1.387 . S
C824 H828 0.950 . S
C824 C833 1.390 . S
C825 C824 1.387 . S
C825 C827 1.387 . S
H826 C833 0.950 . S
C827 C825 1.387 . S
C827 C829 1.390 . S
C827 H831 0.950 . S
H828 C824 0.950 . S
C829 C827 1.390 . S
C829 C830 1.387 . S
C829 H832 0.950 . S
C830 C829 1.387 . S
C830 C833 1.387 . S
H831 C827 0.950 . S
H832 C829 0.950 . S
C833 C824 1.390 . S
C833 H826 0.950 . S
C833 C830 1.387 . S
C834 C835 1.387 . S
C834 H838 0.950 . S
C834 C843 1.390 . S
C835 C834 1.387 . S
C835 C837 1.387 . S
H836 C843 0.950 . S
C837 C835 1.387 . S
C837 C839 1.390 . S
C837 H841 0.950 . S
H838 C834 0.950 . S
C839 C837 1.390 . S
C839 C840 1.387 . S
C839 H842 0.950 . S
C840 C839 1.387 . S
C840 C843 1.387 . S
H841 C837 0.950 . S
H842 C839 0.950 . S
C843 C834 1.390 . S
C843 H836 0.950 . S
C843 C840 1.387 . S
C844 C845 1.387 . S
C844 H848 0.950 . S
C844 C853 1.390 . S
C845 C844 1.387 . S
C845 C847 1.387 . S
H846 C853 0.950 . S
C847 C845 1.387 . S
C847 C849 1.390 . S
C847 H851 0.950 . S
H848 C844 0.950 . S
C849 C847 1.390 . S
C849 C850 1.387 . S
C849 H852 0.950 . S
C850 C849 1.387 . S
C850 C853 1.387 . S
H851 C847 0.950 . S
H852 C849 0.950 . S
C853 C844 1.390 . S
C853 H846 0.950 . S
C853 C850 1.387 . S
C854 C855 1.387 . S
C854 H858 0.950 . S
C854 C863 1.390 . S
C855 C854 1.387 . S
C855 C857 1.387 . S
H856 C863 0.950 . S
C857 C855 1.387 . S
C857 C859 1.390 . S
C857 H861 0.950 . S
H858 C854 0.950 . S
C859 C857 1.390 . S
C859 C860 1.387 . S
C859 H862 0.950 . S
C860 C859 1.387 . S
C860 C863 1.387 . S
H861 C857 0.950 . S
H862 C859 0.950 . S
C863 C854 1.390 . S
C863 H856 0.950 . S
C863 C860 1.387 . S
C864 C865 1.387 . S
C864 H868 0.950 . S
C864 C873 1.390 1_545 S
C865 C864 1.387 . S
C865 C867 1.387 . S
H866 C873 0.950 . S
C867 C865 1.387 . S
C867 C869 1.390 1_545 S
C867 H871 0.950 . S
H868 C864 0.950 . S
C869 C867 1.390 1_565 S
C869 C870 1.387 . S
C869 H872 0.950 . S
C870 C869 1.387 . S
C870 C873 1.387 . S
H871 C867 0.950 . S
H872 C869 0.950 . S
C873 C864 1.390 1_565 S
C873 H866 0.950 . S
C873 C870 1.387 . S
C874 C875 1.387 . S
C874 H878 0.950 1_554 S
C874 C883 1.390 . S
C875 C874 1.387 . S
C875 C877 1.387 . S
H876 C883 0.950 1_556 S
C877 C875 1.387 . S
C877 C879 1.390 . S
C877 H881 0.950 . S
H878 C874 0.950 1_556 S
C879 C877 1.390 . S
C879 C880 1.387 . S
C879 H882 0.950 . S
C880 C879 1.387 . S
C880 C883 1.387 . S
H881 C877 0.950 . S
H882 C879 0.950 . S
C883 C874 1.390 . S
C883 H876 0.950 1_554 S
C883 C880 1.387 . S
C884 C885 1.387 . S
C884 H888 0.950 1_554 S
C884 C893 1.390 . S
C885 C884 1.387 . S
C885 C887 1.387 . S
H886 C893 0.950 1_556 S
C887 C885 1.387 . S
C887 C889 1.390 . S
C887 H891 0.950 . S
H888 C884 0.950 1_556 S
C889 C887 1.390 . S
C889 C890 1.387 . S
C889 H892 0.950 . S
C890 C889 1.387 . S
C890 C893 1.387 . S
H891 C887 0.950 . S
H892 C889 0.950 . S
C893 C884 1.390 . S
C893 H886 0.950 1_554 S
C893 C890 1.387 . S
C894 C895 1.387 . S
C894 H898 0.950 . S
C894 C903 1.390 . S
C895 C894 1.387 . S
C895 C897 1.387 . S
H896 C903 0.950 . S
C897 C895 1.387 . S
C897 C899 1.390 . S
C897 H901 0.950 . S
H898 C894 0.950 . S
C899 C897 1.390 . S
C899 C900 1.387 . S
C899 H902 0.950 . S
C900 C899 1.387 . S
C900 C903 1.387 . S
H901 C897 0.950 . S
H902 C899 0.950 . S
C903 C894 1.390 . S
C903 H896 0.950 . S
C903 C900 1.387 . S
C904 C905 1.387 . S
C904 H908 0.950 . S
C904 C913 1.390 . S
C905 C904 1.387 . S
C905 C907 1.387 . S
H906 C913 0.950 . S
C907 C905 1.387 . S
C907 C909 1.390 . S
C907 H911 0.950 . S
H908 C904 0.950 . S
C909 C907 1.390 . S
C909 C910 1.387 . S
C909 H912 0.950 . S
C910 C909 1.387 . S
C910 C913 1.387 . S
H911 C907 0.950 . S
H912 C909 0.950 . S
C913 C904 1.390 . S
C913 H906 0.950 . S
C913 C910 1.387 . S
C914 C915 1.387 . S
C914 H918 0.950 . S
C914 C923 1.390 . S
C915 C914 1.387 . S
C915 C917 1.387 . S
H916 C923 0.950 . S
C917 C915 1.387 . S
C917 C919 1.390 . S
C917 H921 0.950 . S
H918 C914 0.950 . S
C919 C917 1.390 . S
C919 C920 1.387 . S
C919 H922 0.950 . S
C920 C919 1.387 . S
C920 C923 1.387 . S
H921 C917 0.950 . S
H922 C919 0.950 . S
C923 C914 1.390 . S
C923 H916 0.950 . S
C923 C920 1.387 . S
C924 C925 1.387 . S
C924 H928 0.950 . S
C924 C933 1.390 1_665 S
C925 C924 1.387 . S
C925 C927 1.387 . S
H926 C933 0.950 . S
C927 C925 1.387 . S
C927 C929 1.390 1_665 S
C927 H931 0.950 . S
H928 C924 0.950 . S
C929 C927 1.390 1_445 S
C929 C930 1.387 . S
C929 H932 0.950 . S
C930 C929 1.387 . S
C930 C933 1.387 . S
H931 C927 0.950 . S
H932 C929 0.950 . S
C933 C924 1.390 1_445 S
C933 H926 0.950 . S
C933 C930 1.387 . S
C934 C935 1.387 . S
C934 H938 0.950 . S
C934 C943 1.390 1_655 S
C935 C934 1.387 . S
C935 C937 1.387 . S
H936 C943 0.950 . S
C937 C935 1.387 . S
C937 C939 1.390 1_655 S
C937 H941 0.950 . S
H938 C934 0.950 . S
C939 C937 1.390 1_455 S
C939 C940 1.387 . S
C939 H942 0.950 . S
C940 C939 1.387 . S
C940 C943 1.387 . S
H941 C937 0.950 . S
H942 C939 0.950 . S
C943 C934 1.390 1_455 S
C943 H936 0.950 . S
C943 C940 1.387 . S
C944 C945 1.387 1_554 S
C944 H948 0.950 . S
C944 C953 1.390 . S
C945 C944 1.387 1_556 S
C945 C947 1.387 . S
H946 C953 0.950 . S
C947 C945 1.387 . S
C947 C949 1.390 . S
C947 H951 0.950 . S
H948 C944 0.950 . S
C949 C947 1.390 . S
C949 C950 1.387 . S
C949 H952 0.950 . S
C950 C949 1.387 . S
C950 C953 1.387 1_556 S
H951 C947 0.950 . S
H952 C949 0.950 . S
C953 C944 1.390 . S
C953 H946 0.950 . S
C953 C950 1.387 1_554 S
C954 C955 1.387 . S
C954 H958 0.950 . S
C954 C963 1.390 . S
C955 C954 1.387 . S
C955 C957 1.387 1_556 S
H956 C963 0.950 . S
C957 C955 1.387 1_554 S
C957 C959 1.390 . S
C957 H961 0.950 . S
H958 C954 0.950 . S
C959 C957 1.390 . S
C959 C960 1.387 1_554 S
C959 H962 0.950 . S
C960 C959 1.387 1_556 S
C960 C963 1.387 . S
H961 C957 0.950 . S
H962 C959 0.950 . S
C963 C954 1.390 . S
C963 H956 0.950 . S
C963 C960 1.387 . S
C964 C965 1.387 . S
C964 H968 0.950 . S
C964 C973 1.390 . S
C965 C964 1.387 . S
C965 C967 1.387 . S
H966 C973 0.950 . S
C967 C965 1.387 . S
C967 C969 1.390 . S
C967 H971 0.950 . S
H968 C964 0.950 . S
C969 C967 1.390 . S
C969 C970 1.387 . S
C969 H972 0.950 . S
C970 C969 1.387 . S
C970 C973 1.387 . S
H971 C967 0.950 . S
H972 C969 0.950 . S
C973 C964 1.390 . S
C973 H966 0.950 . S
C973 C970 1.387 . S
C974 C975 1.387 . S
C974 H978 0.950 . S
C974 C983 1.390 . S
C975 C974 1.387 . S
C975 C977 1.387 . S
H976 C983 0.950 . S
C977 C975 1.387 . S
C977 C979 1.390 . S
C977 H981 0.950 . S
H978 C974 0.950 . S
C979 C977 1.390 . S
C979 C980 1.387 . S
C979 H982 0.950 . S
C980 C979 1.387 . S
C980 C983 1.387 . S
H981 C977 0.950 . S
H982 C979 0.950 . S
C983 C974 1.390 . S
C983 H976 0.950 . S
C983 C980 1.387 . S
C984 C985 1.387 . S
C984 H988 0.950 . S
C984 C993 1.390 . S
C985 C984 1.387 . S
C985 C987 1.387 . S
H986 C993 0.950 . S
C987 C985 1.387 . S
C987 C989 1.390 . S
C987 H991 0.950 . S
H988 C984 0.950 . S
C989 C987 1.390 . S
C989 C990 1.387 . S
C989 H992 0.950 . S
C990 C989 1.387 . S
C990 C993 1.387 . S
H991 C987 0.950 . S
H992 C989 0.950 . S
C993 C984 1.390 . S
C993 H986 0.950 . S
C993 C990 1.387 . S
C994 C995 1.387 . S
C994 H998 0.950 . S
C994 C1003 1.390 . S
C995 C994 1.387 . S
C995 C997 1.387 . S
H996 C1003 0.950 . S
C997 C995 1.387 . S
C997 C999 1.390 . S
C997 H1001 0.950 . S
H998 C994 0.950 . S
C999 C997 1.390 . S
C999 C1000 1.387 . S
C999 H1002 0.950 . S
C1000 C999 1.387 . S
C1000 C1003 1.387 . S
H1001 C997 0.950 . S
H1002 C999 0.950 . S
C1003 C994 1.390 . S
C1003 H996 0.950 . S
C1003 C1000 1.387 . S
C1004 C1005 1.387 . S
C1004 H1008 0.950 . S
C1004 C1013 1.390 . S
C1005 C1004 1.387 . S
C1005 C1007 1.387 . S
H1006 C1013 0.950 . S
C1007 C1005 1.387 . S
C1007 C1009 1.390 . S
C1007 H1011 0.950 . S
H1008 C1004 0.950 . S
C1009 C1007 1.390 . S
C1009 C1010 1.387 . S
C1009 H1012 0.950 . S
C1010 C1009 1.387 . S
C1010 C1013 1.387 . S
H1011 C1007 0.950 . S
H1012 C1009 0.950 . S
C1013 C1004 1.390 . S
C1013 H1006 0.950 . S
C1013 C1010 1.387 . S
C1014 C1015 1.387 . S
C1014 H1018 0.950 . S
C1014 C1023 1.390 . S
C1015 C1014 1.387 . S
C1015 C1017 1.387 . S
H1016 C1023 0.950 . S
C1017 C1015 1.387 . S
C1017 C1019 1.390 . S
C1017 H1021 0.950 . S
H1018 C1014 0.950 . S
C1019 C1017 1.390 . S
C1019 C1020 1.387 . S
C1019 H1022 0.950 . S
C1020 C1019 1.387 . S
C1020 C1023 1.387 . S
H1021 C1017 0.950 . S
H1022 C1019 0.950 . S
C1023 C1014 1.390 . S
C1023 H1016 0.950 . S
C1023 C1020 1.387 . S
C1024 C1025 1.387 . S
C1024 H1028 0.950 . S
C1024 C1033 1.390 . S
C1025 C1024 1.387 . S
C1025 C1027 1.387 . S
H1026 C1033 0.950 . S
C1027 C1025 1.387 . S
C1027 C1029 1.390 . S
C1027 H1031 0.950 . S
H1028 C1024 0.950 . S
C1029 C1027 1.390 . S
C1029 C1030 1.387 . S
C1029 H1032 0.950 . S
C1030 C1029 1.387 . S
C1030 C1033 1.387 . S
H1031 C1027 0.950 . S
H1032 C1029 0.950 . S
C1033 C1024 1.390 . S
C1033 H1026 0.950 . S
C1033 C1030 1.387 . S
C1034 C1035 1.387 . S
C1034 H1038 0.950 . S
C1034 C1043 1.390 . S
C1035 C1034 1.387 . S
C1035 C1037 1.387 . S
H1036 C1043 0.950 . S
C1037 C1035 1.387 . S
C1037 C1039 1.390 . S
C1037 H1041 0.950 . S
H1038 C1034 0.950 . S
C1039 C1037 1.390 . S
C1039 C1040 1.387 . S
C1039 H1042 0.950 . S
C1040 C1039 1.387 . S
C1040 C1043 1.387 . S
H1041 C1037 0.950 . S
H1042 C1039 0.950 . S
C1043 C1034 1.390 . S
C1043 H1036 0.950 . S
C1043 C1040 1.387 . S
C1044 C1045 1.387 . S
C1044 H1048 0.950 . S
C1044 C1053 1.390 . S
C1045 C1044 1.387 . S
C1045 C1047 1.387 . S
H1046 C1053 0.950 . S
C1047 C1045 1.387 . S
C1047 C1049 1.390 . S
C1047 H1051 0.950 . S
H1048 C1044 0.950 . S
C1049 C1047 1.390 . S
C1049 C1050 1.387 . S
C1049 H1052 0.950 . S
C1050 C1049 1.387 . S
C1050 C1053 1.387 . S
H1051 C1047 0.950 . S
H1052 C1049 0.950 . S
C1053 C1044 1.390 . S
C1053 H1046 0.950 . S
C1053 C1050 1.387 . S
C1054 C1055 1.387 . S
C1054 H1058 0.950 . S
C1054 C1063 1.390 . S
C1055 C1054 1.387 . S
C1055 C1057 1.387 . S
H1056 C1063 0.950 . S
C1057 C1055 1.387 . S
C1057 C1059 1.390 . S
C1057 H1061 0.950 . S
H1058 C1054 0.950 . S
C1059 C1057 1.390 . S
C1059 C1060 1.387 . S
C1059 H1062 0.950 . S
C1060 C1059 1.387 . S
C1060 C1063 1.387 . S
H1061 C1057 0.950 . S
H1062 C1059 0.950 . S
C1063 C1054 1.390 . S
C1063 H1056 0.950 . S
C1063 C1060 1.387 . S
C1064 C1065 1.387 1_554 S
C1064 H1068 0.950 . S
C1064 C1073 1.390 1_554 S
C1065 C1064 1.387 1_556 S
C1065 C1067 1.387 . S
H1066 C1073 0.950 . S
C1067 C1065 1.387 . S
C1067 C1069 1.390 . S
C1067 H1071 0.950 . S
H1068 C1064 0.950 . S
C1069 C1067 1.390 . S
C1069 C1070 1.387 . S
C1069 H1072 0.950 . S
C1070 C1069 1.387 . S
C1070 C1073 1.387 . S
H1071 C1067 0.950 . S
H1072 C1069 0.950 . S
C1073 C1064 1.390 1_556 S
C1073 H1066 0.950 . S
C1073 C1070 1.387 . S
C1074 C1075 1.387 . S
C1074 H1078 0.950 1_556 S
C1074 C1083 1.390 1_556 S
C1075 C1074 1.387 . S
C1075 C1077 1.387 . S
H1076 C1083 0.950 . S
C1077 C1075 1.387 . S
C1077 C1079 1.390 . S
C1077 H1081 0.950 . S
H1078 C1074 0.950 1_554 S
C1079 C1077 1.390 . S
C1079 C1080 1.387 . S
C1079 H1082 0.950 . S
C1080 C1079 1.387 . S
C1080 C1083 1.387 1_556 S
H1081 C1077 0.950 . S
H1082 C1079 0.950 . S
C1083 C1074 1.390 1_554 S
C1083 H1076 0.950 . S
C1083 C1080 1.387 1_554 S
C1084 C1085 1.387 . S
C1084 H1088 0.950 . S
C1084 C1093 1.390 . S
C1085 C1084 1.387 . S
C1085 C1087 1.387 . S
H1086 C1093 0.950 . S
C1087 C1085 1.387 . S
C1087 C1089 1.390 . S
C1087 H1091 0.950 . S
H1088 C1084 0.950 . S
C1089 C1087 1.390 . S
C1089 C1090 1.387 . S
C1089 H1092 0.950 . S
C1090 C1089 1.387 . S
C1090 C1093 1.387 . S
H1091 C1087 0.950 . S
H1092 C1089 0.950 . S
C1093 C1084 1.390 . S
C1093 H1086 0.950 . S
C1093 C1090 1.387 . S
C1094 C1095 1.387 . S
C1094 H1098 0.950 . S
C1094 C1103 1.390 . S
C1095 C1094 1.387 . S
C1095 C1097 1.387 . S
H1096 C1103 0.950 . S
C1097 C1095 1.387 . S
C1097 C1099 1.390 . S
C1097 H1101 0.950 . S
H1098 C1094 0.950 . S
C1099 C1097 1.390 . S
C1099 C1100 1.387 . S
C1099 H1102 0.950 . S
C1100 C1099 1.387 . S
C1100 C1103 1.387 . S
H1101 C1097 0.950 . S
H1102 C1099 0.950 . S
C1103 C1094 1.390 . S
C1103 H1096 0.950 . S
C1103 C1100 1.387 . S
C545 C1 1.811 . S
C550 C173 1.894 . S
C555 C35 1.811 . S
C560 C139 1.894 . S
C565 C71 1.811 . S
C570 C377 1.895 . S
C575 C105 1.811 . S
C580 C341 1.896 . S
C585 C37 1.895 . S
C590 C137 1.815 . S
C595 C171 1.813 . S
C600 C3 1.895 . S
C605 C207 1.814 1_545 S
C610 C513 1.895 . S
C615 C477 1.895 . S
C620 C241 1.814 1_565 S
C625 C445 1.895 . S
C630 C275 1.812 . S
C635 C409 1.895 . S
C640 C307 1.815 . S
C645 C103 1.895 . S
C650 C343 1.811 . S
C655 C375 1.811 . S
C660 C69 1.895 . S
C665 C411 1.811 . S
C670 C309 1.894 . S
C675 C443 1.814 . S
C680 C273 1.893 . S
C685 C479 1.814 1_545 S
C690 C239 1.895 . S
C695 C205 1.894 . S
C700 C511 1.813 1_565 S
C705 C28 1.256 . S
C710 C6 1.247 . S
C715 C40 1.245 . S
C720 C62 1.255 . S
C725 C96 1.245 . S
C730 C74 1.255 . S
C735 C130 1.247 . S
C740 C108 1.256 . S
C745 C164 1.255 . S
C750 C142 1.245 . S
C755 C198 1.256 . S
C760 C176 1.246 . S
C765 C210 1.255 . S
C770 C232 1.245 . S
C775 C266 1.247 . S
C780 C244 1.256 . S
C785 C278 1.255 . S
C790 C300 1.245 . S
C795 C334 1.256 . S
C800 C312 1.247 . S
C805 C368 1.247 . S
C810 C346 1.256 . S
C815 C402 1.255 . S
C820 C380 1.245 . S
C825 C436 1.247 . S
C830 C414 1.256 . S
C835 C448 1.247 . S
C840 C470 1.256 . S
C845 C482 1.255 . S
C850 C504 1.246 . S
C855 C538 1.256 . S
C860 C516 1.247 . S
C865 C15 1.432 . S
C870 C49 1.432 . S
C875 C90 1.431 . S
C880 C525 1.431 . S
C885 C124 1.431 . S
C890 C498 1.431 . S
C895 C185 1.431 . S
C900 C151 1.431 . S
C905 C389 1.431 . S
C910 C226 1.431 . S
C915 C260 1.431 . S
C920 C362 1.431 . S
C925 C321 1.432 . S
C930 C294 1.432 . S
C935 C457 1.431 . S
C940 C430 1.431 . S
C945 C17 1.807 . S
C950 C219 1.766 . S
C955 C51 1.806 . S
C960 C253 1.766 . S
C965 C85 1.806 . S
C970 C22 1.765 . S
C975 C56 1.765 . S
C980 C119 1.807 . S
C985 C83 1.765 . S
C990 C153 1.807 . S
C995 C117 1.766 . S
C1000 C187 1.806 . S
C1005 C221 1.807 . S
C1010 C158 1.766 . S
C1015 C192 1.765 . S
C1020 C255 1.807 . S
C1025 C491 1.765 . S
C1030 C289 1.807 . S
C1035 C323 1.806 . S
C1040 C532 1.766 . S
C1045 C287 1.765 . S
C1050 C357 1.806 . S
C1055 C391 1.806 . S
C1060 C328 1.766 . S
C1065 C425 1.807 . S
C1070 C355 1.767 . S
C1075 C396 1.764 . S
C1080 C459 1.808 . S
C1085 C493 1.807 . S
C1090 C423 1.764 . S
C1095 C527 1.807 . S
C1100 C464 1.765 . S
