# Generated by pormake.
# Topology umc, (4)-cn, num edge types: 1
# Building blocks:
#     Node 0, Type 0, BuildingBlock: QUQFOY_clean_sbu_3, # of connection points: 4
#     Node 1, Type 0, BuildingBlock: QUQFOY_clean_sbu_3, # of connection points: 4
#     Node 2, Type 0, BuildingBlock: QUQFOY_clean_sbu_3, # of connection points: 4
#     Node 3, Type 0, BuildingBlock: QUQFOY_clean_sbu_3, # of connection points: 4
#     Node 4, Type 0, BuildingBlock: QUQFOY_clean_sbu_3, # of connection points: 4
#     Node 5, Type 0, BuildingBlock: QUQFOY_clean_sbu_3, # of connection points: 4
#     Node 6, Type 0, BuildingBlock: QUQFOY_clean_sbu_3, # of connection points: 4
#     Node 7, Type 0, BuildingBlock: QUQFOY_clean_sbu_3, # of connection points: 4
#     Node 8, Type 0, BuildingBlock: QUQFOY_clean_sbu_3, # of connection points: 4
#     Node 9, Type 0, BuildingBlock: QUQFOY_clean_sbu_3, # of connection points: 4
#     Node 10, Type 0, BuildingBlock: QUQFOY_clean_sbu_3, # of connection points: 4
#     Node 11, Type 0, BuildingBlock: QUQFOY_clean_sbu_3, # of connection points: 4
#     Node 12, Type 0, BuildingBlock: QUQFOY_clean_sbu_3, # of connection points: 4
#     Node 13, Type 0, BuildingBlock: QUQFOY_clean_sbu_3, # of connection points: 4
#     Node 14, Type 0, BuildingBlock: QUQFOY_clean_sbu_3, # of connection points: 4
#     Node 15, Type 0, BuildingBlock: QUQFOY_clean_sbu_3, # of connection points: 4
#     Edge 16, Type (0, 0), BuildingBlock: CIFDUS_clean_linker_0, # of connection points: 2
#     Edge 17, Type (0, 0), BuildingBlock: CIFDUS_clean_linker_0, # of connection points: 2
#     Edge 18, Type (0, 0), BuildingBlock: CIFDUS_clean_linker_0, # of connection points: 2
#     Edge 19, Type (0, 0), BuildingBlock: CIFDUS_clean_linker_0, # of connection points: 2
#     Edge 20, Type (0, 0), BuildingBlock: CIFDUS_clean_linker_0, # of connection points: 2
#     Edge 21, Type (0, 0), BuildingBlock: CIFDUS_clean_linker_0, # of connection points: 2
#     Edge 22, Type (0, 0), BuildingBlock: CIFDUS_clean_linker_0, # of connection points: 2
#     Edge 23, Type (0, 0), BuildingBlock: CIFDUS_clean_linker_0, # of connection points: 2
#     Edge 24, Type (0, 0), BuildingBlock: CIFDUS_clean_linker_0, # of connection points: 2
#     Edge 25, Type (0, 0), BuildingBlock: CIFDUS_clean_linker_0, # of connection points: 2
#     Edge 26, Type (0, 0), BuildingBlock: CIFDUS_clean_linker_0, # of connection points: 2
#     Edge 27, Type (0, 0), BuildingBlock: CIFDUS_clean_linker_0, # of connection points: 2
#     Edge 28, Type (0, 0), BuildingBlock: CIFDUS_clean_linker_0, # of connection points: 2
#     Edge 29, Type (0, 0), BuildingBlock: CIFDUS_clean_linker_0, # of connection points: 2
#     Edge 30, Type (0, 0), BuildingBlock: CIFDUS_clean_linker_0, # of connection points: 2
#     Edge 31, Type (0, 0), BuildingBlock: CIFDUS_clean_linker_0, # of connection points: 2
#     Edge 32, Type (0, 0), BuildingBlock: CIFDUS_clean_linker_0, # of connection points: 2
#     Edge 33, Type (0, 0), BuildingBlock: CIFDUS_clean_linker_0, # of connection points: 2
#     Edge 34, Type (0, 0), BuildingBlock: CIFDUS_clean_linker_0, # of connection points: 2
#     Edge 35, Type (0, 0), BuildingBlock: CIFDUS_clean_linker_0, # of connection points: 2
#     Edge 36, Type (0, 0), BuildingBlock: CIFDUS_clean_linker_0, # of connection points: 2
#     Edge 37, Type (0, 0), BuildingBlock: CIFDUS_clean_linker_0, # of connection points: 2
#     Edge 38, Type (0, 0), BuildingBlock: CIFDUS_clean_linker_0, # of connection points: 2
#     Edge 39, Type (0, 0), BuildingBlock: CIFDUS_clean_linker_0, # of connection points: 2
#     Edge 40, Type (0, 0), BuildingBlock: CIFDUS_clean_linker_0, # of connection points: 2
#     Edge 41, Type (0, 0), BuildingBlock: CIFDUS_clean_linker_0, # of connection points: 2
#     Edge 42, Type (0, 0), BuildingBlock: CIFDUS_clean_linker_0, # of connection points: 2
#     Edge 43, Type (0, 0), BuildingBlock: CIFDUS_clean_linker_0, # of connection points: 2
#     Edge 44, Type (0, 0), BuildingBlock: CIFDUS_clean_linker_0, # of connection points: 2
#     Edge 45, Type (0, 0), BuildingBlock: CIFDUS_clean_linker_0, # of connection points: 2
#     Edge 46, Type (0, 0), BuildingBlock: CIFDUS_clean_linker_0, # of connection points: 2
#     Edge 47, Type (0, 0), BuildingBlock: CIFDUS_clean_linker_0, # of connection points: 2
# Relax obj value: 0.085
# Max RMSD: 0.168
# Mean RMSD: 0.168
data_MOF--net-umc--node1-QUQFOY_clean_sbu_3--edge1-CIFDUS_clean_linker_0
_symmetry_space_group_name_H-M    P1
_symmetry_Int_Tables_number       1
_symmetry_cell_setting            triclinic
loop_
_symmetry_equiv_pos_as_xyz
'x, y, z'
_cell_length_a     39.379272
_cell_length_b     30.806384
_cell_length_c     50.881534
_cell_angle_alpha  89.807698
_cell_angle_beta   90.082913
_cell_angle_gamma 90.275297
loop_
_atom_site_label
_atom_site_type_symbol
_atom_site_fract_x
_atom_site_fract_y
_atom_site_fract_z
_atom_type_partial_charge
C0 C 0.29087 0.97736 0.30802 0.0
O1 O 0.29789 0.94142 0.31892 0.0
Cd2 Cd 0.33599 0.94116 0.35607 0.0
O3 O 0.30229 0.01245 0.31766 0.0
Cd4 Cd 0.33534 0.03714 0.35521 0.0
C5 C 0.40636 0.99295 0.33211 0.0
O6 O 0.31816 0.98831 0.39146 0.0
O7 O 0.3659 0.02295 0.39505 0.0
O8 O 0.29353 0.09377 0.36224 0.0
C9 C 0.34289 0.00023 0.40584 0.0
O10 O 0.39397 0.95741 0.34078 0.0
C11 C 0.31447 0.12508 0.36052 0.0
O12 O 0.38888 0.02752 0.33274 0.0
O13 O 0.34537 0.11542 0.35664 0.0
C14 C 0.71602 0.00676 0.30232 0.0
O15 O 0.70995 0.04299 0.31302 0.0
Cd16 Cd 0.67332 0.04275 0.35086 0.0
O17 O 0.70657 0.97192 0.31353 0.0
Cd18 Cd 0.68097 0.94822 0.35466 0.0
C19 C 0.60623 0.97838 0.33141 0.0
O20 O 0.69315 0.00301 0.38882 0.0
O21 O 0.64766 0.96348 0.39249 0.0
O22 O 0.72976 0.90307 0.36454 0.0
C23 C 0.66833 0.99006 0.40283 0.0
O24 O 0.6171 0.01625 0.33711 0.0
C25 C 0.71327 0.8676 0.36513 0.0
O26 O 0.62547 0.94557 0.334 0.0
O27 O 0.68148 0.86969 0.36103 0.0
C28 C 0.27761 0.01831 0.15896 0.0
O29 O 0.28082 0.05257 0.14527 0.0
Cd30 Cd 0.31213 0.04848 0.10446 0.0
O31 O 0.2883 0.98234 0.15026 0.0
Cd32 Cd 0.31285 0.94613 0.11265 0.0
C33 C 0.38674 0.99935 0.12537 0.0
O34 O 0.29283 0.99134 0.07587 0.0
O35 O 0.33528 0.94801 0.0694 0.0
O36 O 0.26322 0.89947 0.11327 0.0
C37 C 0.3145 0.97541 0.06012 0.0
O38 O 0.37068 0.03257 0.11711 0.0
C39 C 0.27882 0.86385 0.11616 0.0
O40 O 0.37176 0.96254 0.12745 0.0
O41 O 0.31111 0.86597 0.11742 0.0
C42 C 0.70105 0.9654 0.15339 0.0
O43 O 0.69648 0.93155 0.13971 0.0
Cd44 Cd 0.66227 0.93881 0.10046 0.0
O45 O 0.68969 0.00164 0.1455 0.0
Cd46 Cd 0.66217 0.03913 0.10943 0.0
C47 C 0.58869 0.98676 0.12364 0.0
O48 O 0.68173 0.99625 0.07178 0.0
O49 O 0.63872 0.03913 0.06624 0.0
O50 O 0.71286 0.0833 0.11003 0.0
C51 C 0.66024 0.01348 0.05631 0.0
O52 O 0.6043 0.95383 0.11469 0.0
C53 C 0.69861 0.11973 0.11298 0.0
O54 O 0.60387 0.02339 0.12569 0.0
O55 O 0.66629 0.11947 0.11439 0.0
C56 C 0.7125 0.01186 0.65672 0.0
O57 O 0.7097 0.04861 0.64564 0.0
Cd58 Cd 0.67678 0.0544 0.60585 0.0
O59 O 0.69911 0.97848 0.64637 0.0
Cd60 Cd 0.66886 0.95512 0.60714 0.0
C61 C 0.59846 0.01191 0.62231 0.0
O62 O 0.69604 0.00229 0.57399 0.0
O63 O 0.64943 0.96913 0.5633 0.0
O64 O 0.71124 0.89841 0.60555 0.0
C65 C 0.67462 0.9922 0.55635 0.0
O66 O 0.61627 0.04495 0.61596 0.0
C67 C 0.69071 0.86661 0.60568 0.0
O68 O 0.61172 0.97421 0.6228 0.0
O69 O 0.65923 0.87569 0.60615 0.0
C70 C 0.28929 0.99214 0.66248 0.0
O71 O 0.28954 0.95576 0.6509 0.0
Cd72 Cd 0.3187 0.95118 0.60932 0.0
O73 O 0.30088 0.02561 0.65093 0.0
Cd74 Cd 0.3228 0.04996 0.60877 0.0
C75 C 0.39603 0.9997 0.62329 0.0
O76 O 0.29822 2e-05 0.57584 0.0
O77 O 0.34421 0.03566 0.56607 0.0
O78 O 0.27559 0.09991 0.60642 0.0
C79 C 0.32021 0.01093 0.55871 0.0
O80 O 0.37885 0.96556 0.6182 0.0
C81 C 0.29326 0.13439 0.60553 0.0
O82 O 0.38183 0.03688 0.62302 0.0
O83 O 0.32539 0.12992 0.606 0.0
C84 C 0.73442 0.95986 0.80422 0.0
O85 O 0.73015 0.92537 0.81749 0.0
Cd86 Cd 0.69856 0.93197 0.85813 0.0
O87 O 0.72481 0.99594 0.81343 0.0
Cd88 Cd 0.7009 0.03088 0.85135 0.0
C89 C 0.62615 0.98386 0.83675 0.0
O90 O 0.71909 0.98579 0.88909 0.0
O91 O 0.67558 0.02823 0.89329 0.0
O92 O 0.7492 0.08009 0.85152 0.0
C93 C 0.69666 0.00258 0.90389 0.0
O94 O 0.64022 0.9494 0.8453 0.0
C95 C 0.73207 0.1146 0.84883 0.0
O96 O 0.64298 0.01924 0.835 0.0
O97 O 0.69996 0.11035 0.84746 0.0
C98 C 0.31333 0.03973 0.8109 0.0
O99 O 0.31916 0.07419 0.82371 0.0
Cd100 Cd 0.35458 0.06689 0.86236 0.0
O101 O 0.32435 0.00369 0.81937 0.0
Cd102 Cd 0.35343 0.97024 0.8561 0.0
C103 C 0.42675 0.01793 0.83914 0.0
O104 O 0.33454 0.01352 0.89406 0.0
O105 O 0.37948 0.97364 0.89834 0.0
O106 O 0.30537 0.92131 0.85701 0.0
C107 C 0.35691 0.99682 0.90903 0.0
O108 O 0.41275 0.052 0.84811 0.0
C109 C 0.3221 0.88651 0.85464 0.0
O110 O 0.41015 0.98238 0.83781 0.0
O111 O 0.35423 0.89023 0.85308 0.0
C112 C 0.82183 0.52807 0.30874 0.0
O113 O 0.82519 0.49019 0.31816 0.0
Cd114 Cd 0.85973 0.48091 0.35672 0.0
O115 O 0.83394 0.56047 0.32095 0.0
Cd116 Cd 0.86094 0.57698 0.36285 0.0
C117 C 0.93381 0.53539 0.34198 0.0
O118 O 0.83847 0.52184 0.39342 0.0
O119 O 0.88491 0.55545 0.40422 0.0
O120 O 0.81456 0.62572 0.37012 0.0
C121 C 0.86061 0.53056 0.41082 0.0
O122 O 0.91886 0.49919 0.34597 0.0
C123 C 0.83219 0.66014 0.37166 0.0
O124 O 0.91792 0.5709 0.34501 0.0
O125 O 0.86422 0.65611 0.3697 0.0
C126 C 0.2414 0.50277 0.3051 0.0
O127 O 0.23967 0.53849 0.31733 0.0
Cd128 Cd 0.20755 0.54044 0.35775 0.0
O129 O 0.22954 0.46849 0.31555 0.0
Cd130 Cd 0.20371 0.44427 0.35635 0.0
C131 C 0.13226 0.4939 0.33869 0.0
O132 O 0.2247 0.49124 0.39248 0.0
O133 O 0.17596 0.45884 0.3966 0.0
O134 O 0.24568 0.3874 0.36133 0.0
C135 C 0.19979 0.48048 0.40709 0.0
O136 O 0.14772 0.52813 0.3462 0.0
C137 C 0.22453 0.35621 0.36068 0.0
O138 O 0.14763 0.45765 0.3382 0.0
O139 O 0.19339 0.36603 0.35816 0.0
C140 C 0.78999 0.50689 0.15887 0.0
O141 O 0.79209 0.54122 0.14513 0.0
Cd142 Cd 0.82084 0.53686 0.10337 0.0
O143 O 0.80016 0.47101 0.1497 0.0
Cd144 Cd 0.82184 0.4358 0.11079 0.0
C145 C 0.89622 0.48799 0.12258 0.0
O146 O 0.79891 0.48093 0.07497 0.0
O147 O 0.8415 0.43866 0.0667 0.0
O148 O 0.77101 0.39209 0.11387 0.0
C149 C 0.8192 0.4648 0.05823 0.0
O150 O 0.87976 0.52116 0.11478 0.0
C151 C 0.78535 0.35537 0.11466 0.0
O152 O 0.8815 0.45101 0.12456 0.0
O153 O 0.81771 0.35535 0.11383 0.0
C154 C 0.21285 0.46646 0.15627 0.0
O155 O 0.20899 0.43332 0.14186 0.0
Cd156 Cd 0.17463 0.44202 0.10274 0.0
O157 O 0.20031 0.50257 0.14931 0.0
Cd158 Cd 0.17092 0.5389 0.11359 0.0
C159 C 0.09865 0.48251 0.12536 0.0
O160 O 0.19294 0.5009 0.07436 0.0
O161 O 0.14781 0.54053 0.07055 0.0
O162 O 0.21928 0.5871 0.11588 0.0
C163 C 0.17095 0.51872 0.05953 0.0
O164 O 0.11546 0.45107 0.11581 0.0
C165 C 0.20312 0.62224 0.11861 0.0
O166 O 0.1128 0.5195 0.12876 0.0
O167 O 0.17084 0.61931 0.11928 0.0
C168 C 0.19139 0.48819 0.65892 0.0
O169 O 0.19163 0.52433 0.64692 0.0
Cd170 Cd 0.15926 0.53106 0.60696 0.0
O171 O 0.17712 0.45543 0.64856 0.0
Cd172 Cd 0.15051 0.43265 0.6076 0.0
C173 C 0.0808 0.48875 0.62411 0.0
O174 O 0.17645 0.48 0.57397 0.0
O175 O 0.12894 0.44765 0.56454 0.0
O176 O 0.19611 0.3811 0.60503 0.0
C177 C 0.15404 0.47034 0.55692 0.0
O178 O 0.09925 0.52143 0.61816 0.0
C179 C 0.17792 0.34707 0.60483 0.0
O180 O 0.09313 0.45051 0.62362 0.0
O181 O 0.14587 0.35236 0.60572 0.0
C182 C 0.76677 0.48978 0.65914 0.0
O183 O 0.76715 0.45507 0.64582 0.0
Cd184 Cd 0.80051 0.45312 0.60603 0.0
O185 O 0.78122 0.52371 0.65032 0.0
Cd186 Cd 0.8101 0.5512 0.61151 0.0
C187 C 0.87868 0.49134 0.62663 0.0
O188 O 0.78771 0.50859 0.57405 0.0
O189 O 0.83668 0.5407 0.57041 0.0
O190 O 0.76751 0.60747 0.60769 0.0
C191 C 0.81281 0.51944 0.55967 0.0
O192 O 0.86032 0.45987 0.61859 0.0
C193 C 0.78771 0.63938 0.61017 0.0
O194 O 0.86643 0.52956 0.62817 0.0
O195 O 0.819 0.63049 0.61332 0.0
C196 C 0.2042 0.52406 0.80918 0.0
O197 O 0.19861 0.4903 0.82288 0.0
Cd198 Cd 0.16412 0.4959 0.86185 0.0
O199 O 0.19415 0.56081 0.81712 0.0
Cd200 Cd 0.16733 0.59629 0.85416 0.0
C201 C 0.09362 0.54824 0.8369 0.0
O202 O 0.18331 0.55091 0.89206 0.0
O203 O 0.14066 0.59467 0.89605 0.0
O204 O 0.21622 0.64406 0.85575 0.0
C205 C 0.16075 0.56776 0.90666 0.0
O206 O 0.10721 0.5139 0.84608 0.0
C207 C 0.19988 0.67912 0.85275 0.0
O208 O 0.1103 0.58383 0.83589 0.0
O209 O 0.16778 0.67591 0.85039 0.0
C210 C 0.782 0.51963 0.80873 0.0
O211 O 0.78789 0.55249 0.82299 0.0
Cd212 Cd 0.82521 0.54298 0.86036 0.0
O213 O 0.79385 0.48289 0.81517 0.0
Cd214 Cd 0.82497 0.44579 0.84963 0.0
C215 C 0.89669 0.49808 0.83287 0.0
O216 O 0.80934 0.4849 0.89014 0.0
O217 O 0.85445 0.44474 0.8903 0.0
O218 O 0.77782 0.39529 0.85098 0.0
C219 C 0.83342 0.46742 0.90306 0.0
O220 O 0.88254 0.53056 0.84367 0.0
C221 C 0.79501 0.36136 0.84669 0.0
O222 O 0.88066 0.46225 0.83035 0.0
O223 O 0.82685 0.36638 0.84363 0.0
H224 H 0.29044 0.98081 0.43893 0.0
H225 H 0.39906 3e-05 0.43626 0.0
H226 H 0.40177 0.99904 0.48402 0.0
H227 H 0.37279 0.0029 0.52597 0.0
H228 H 0.26413 0.98679 0.53002 0.0
H229 H 0.26184 0.97563 0.48227 0.0
C230 C 0.31471 0.9838 0.44888 0.0
C231 C 0.34444 0.99116 0.43421 0.0
C232 C 0.316 0.98427 0.47649 0.0
C233 C 0.37578 0.99497 0.44721 0.0
C234 C 0.37738 0.99446 0.47449 0.0
C235 C 0.34862 0.99639 0.51644 0.0
C236 C 0.31861 0.99646 0.53122 0.0
C237 C 0.34754 0.99083 0.48925 0.0
C238 C 0.28754 0.9871 0.51887 0.0
C239 C 0.28624 0.98098 0.49161 0.0
H240 H 0.6255 0.99833 0.52009 0.0
H241 H 0.73348 0.01397 0.53072 0.0
H242 H 0.74088 0.02191 0.48307 0.0
H243 H 0.71705 0.01333 0.43825 0.0
H244 H 0.60903 0.99448 0.42895 0.0
H245 H 0.60109 0.99968 0.47625 0.0
C246 C 0.65061 0.00406 0.512 0.0
C247 C 0.67898 0.00468 0.52864 0.0
C248 C 0.65462 0.00786 0.48483 0.0
C249 C 0.7113 0.01306 0.51811 0.0
C250 C 0.71553 0.0174 0.49092 0.0
C251 C 0.69177 0.01152 0.44663 0.0
C252 C 0.66372 0.0029 0.43035 0.0
C253 C 0.68747 0.01328 0.47402 0.0
C254 C 0.63103 0.00051 0.44126 0.0
C255 C 0.62646 0.00337 0.46827 0.0
H256 H 0.37023 0.97125 0.03031 0.0
H257 H 0.26546 0.01114 0.02832 0.0
H258 H 0.27018 0.02621 0.981 0.0
H259 H 0.30312 0.02074 0.93958 0.0
H260 H 0.4077 0.97942 0.94311 0.0
H261 H 0.40412 0.97271 -0.00938 0.0
C262 C 0.34842 0.98348 0.01957 0.0
C263 C 0.31739 0.98934 0.03252 0.0
C264 C 0.35133 0.99174 -0.00731 0.0
C265 C 0.28957 0.00613 0.01859 0.0
C266 C 0.29226 0.0146 -0.00841 0.0
C267 C 0.32522 0.01105 0.95087 0.0
C268 C 0.35548 2e-05 0.93787 0.0
C269 C 0.32286 0.00653 0.97832 0.0
C270 C 0.38399 0.98755 0.95265 0.0
C271 C 0.382 0.98363 0.97981 0.0
H272 H 0.64254 0.01605 0.93436 0.0
H273 H 0.74551 0.96917 0.93695 0.0
H274 H 0.74236 0.96421 -0.01489 0.0
H275 H 0.71166 0.98048 0.0265 0.0
H276 H 0.60938 0.0301 0.02216 0.0
H277 H 0.61092 0.02656 0.97449 0.0
C278 C 0.6643 0.00445 0.94539 0.0
C279 C 0.69439 0.99366 0.93228 0.0
C280 C 0.66244 0.00245 0.97273 0.0
C281 C 0.72212 0.97787 0.94674 0.0
C282 C 0.72035 0.97524 0.97422 0.0
C283 C 0.68963 0.9899 0.01505 0.0
C284 C 0.66061 0.00604 0.02776 0.0
C285 C 0.69087 0.98852 -0.01254 0.0
C286 C 0.63216 0.01811 0.0128 0.0
C287 C 0.63298 0.01607 -0.01445 0.0
H288 H 0.87001 0.51044 0.53218 0.0
H289 H 0.76106 0.50409 0.52456 0.0
H290 H 0.76654 0.49999 0.47653 0.0
H291 H 0.80251 0.50953 0.43695 0.0
H292 H 0.91121 0.52039 0.44609 0.0
H293 H 0.90573 0.51082 0.49342 0.0
C294 C 0.84744 0.50758 0.52002 0.0
C295 C 0.81519 0.50846 0.53165 0.0
C296 C 0.85082 0.50633 0.49275 0.0
C297 C 0.78615 0.50373 0.51587 0.0
C298 C 0.78931 0.50167 0.48848 0.0
C299 C 0.82495 0.50875 0.44932 0.0
C300 C 0.85717 0.51623 0.43825 0.0
C301 C 0.82152 0.50459 0.47669 0.0
C302 C 0.88614 0.51526 0.45432 0.0
C303 C 0.88304 0.50986 0.48135 0.0
H304 H 0.21183 0.49069 0.52989 0.0
H305 H 0.10314 0.47728 0.52163 0.0
H306 H 0.10789 0.48614 0.47426 0.0
H307 H 0.14295 0.48785 0.4352 0.0
H308 H 0.2519 0.49707 0.44177 0.0
H309 H 0.24711 0.50068 0.48988 0.0
C310 C 0.18923 0.49058 0.51769 0.0
C311 C 0.15724 0.48271 0.52909 0.0
C312 C 0.19222 0.49459 0.49025 0.0
C313 C 0.12807 0.48263 0.5132 0.0
C314 C 0.13074 0.48772 0.48613 0.0
C315 C 0.16568 0.49123 0.44714 0.0
C316 C 0.19773 0.49141 0.43517 0.0
C317 C 0.16271 0.49212 0.47445 0.0
C318 C 0.22694 0.4967 0.4507 0.0
C319 C 0.22419 0.49843 0.47814 0.0
H320 H 0.78673 0.49744 0.93837 0.0
H321 H 0.88831 0.44612 0.93212 0.0
H322 H 0.89342 0.44423 0.97963 0.0
H323 H 0.86797 0.45131 0.02263 0.0
H324 H 0.76636 0.50115 0.03058 0.0
H325 H 0.76244 0.51002 -0.01731 0.0
C326 C 0.81006 0.4864 0.94748 0.0
C327 C 0.83691 0.47143 0.93177 0.0
C328 C 0.81278 0.48487 0.97503 0.0
C329 C 0.86709 0.45731 0.94376 0.0
C330 C 0.8701 0.45621 0.97095 0.0
C331 C 0.84498 0.46436 0.01395 0.0
C332 C 0.81733 0.47496 0.02997 0.0
C333 C 0.84288 0.46892 -0.0133 0.0
C334 C 0.78794 0.49256 0.01853 0.0
C335 C 0.78567 0.49748 -0.0088 0.0
H336 H 0.12391 0.54756 0.02567 0.0
H337 H 0.22293 0.4884 0.02855 0.0
H338 H 0.22787 0.4956 0.98065 0.0
H339 H 0.20534 0.52419 0.93842 0.0
H340 H 0.10693 0.58562 0.93756 0.0
H341 H 0.10055 0.57205 -0.0157 0.0
C342 C 0.14656 0.53593 0.01588 0.0
C343 C 0.17316 0.51792 0.03061 0.0
C344 C 0.14942 0.5409 -0.01129 0.0
C345 C 0.20212 0.50253 0.01758 0.0
C346 C 0.205 0.50681 -0.00976 0.0
C347 C 0.18245 0.5342 0.9485 0.0
C348 C 0.15682 0.55626 0.93462 0.0
C349 C 0.17904 0.5268 0.97566 0.0
C350 C 0.12722 0.56903 0.94784 0.0
C351 C 0.12347 0.56123 0.97457 0.0
H352 H 0.56028 0.04033 0.31833 0.0
H353 H 0.57026 0.90222 0.33046 0.0
H354 H 0.50867 0.89367 0.32845 0.0
H355 H 0.45202 0.92678 0.32928 0.0
H356 H 0.4424 0.06516 0.31776 0.0
H357 H 0.50373 0.07197 0.31316 0.0
C358 C 0.54904 0.00824 0.32011 0.0
C359 C 0.56984 0.97212 0.32501 0.0
C360 C 0.5136 0.00359 0.3193 0.0
C361 C 0.55487 0.93067 0.32685 0.0
C362 C 0.5196 0.92575 0.32585 0.0
C363 C 0.46325 0.95833 0.32532 0.0
C364 C 0.4426 0.99547 0.32439 0.0
C365 C 0.49869 0.9622 0.32302 0.0
C366 C 0.45763 0.03602 0.31888 0.0
C367 C 0.49278 0.04004 0.31632 0.0
H368 H 0.43382 0.93488 0.13126 0.0
H369 H 0.42327 0.07428 0.13063 0.0
H370 H 0.48472 0.08294 0.13278 0.0
H371 H 0.54186 0.0512 0.13038 0.0
H372 H 0.55237 0.91181 0.12966 0.0
H373 H 0.491 0.90313 0.13279 0.0
C374 C 0.44491 0.96714 0.13203 0.0
C375 C 0.4238 0.00378 0.13051 0.0
C376 C 0.4805 0.97203 0.13282 0.0
C377 C 0.43879 0.04537 0.1315 0.0
C378 C 0.47404 0.05045 0.13271 0.0
C379 C 0.53078 0.01894 0.13137 0.0
C380 C 0.55184 0.98231 0.12952 0.0
C381 C 0.49522 0.01404 0.1327 0.0
C382 C 0.53688 0.94071 0.13078 0.0
C383 C 0.50168 0.93563 0.13254 0.0
H384 H 0.55074 0.94851 0.62996 0.0
H385 H 0.56257 0.08765 0.6245 0.0
H386 H 0.50113 0.09653 0.62648 0.0
H387 H 0.44368 0.06458 0.62601 0.0
H388 H 0.43219 0.92528 0.63043 0.0
H389 H 0.49357 0.91696 0.6328 0.0
C390 C 0.53997 0.98084 0.62954 0.0
C391 C 0.56141 0.01726 0.62686 0.0
C392 C 0.50448 0.98578 0.63031 0.0
C393 C 0.5468 0.0589 0.6264 0.0
C394 C 0.51158 0.06408 0.62747 0.0
C395 C 0.45456 0.03243 0.62784 0.0
C396 C 0.4332 0.99566 0.62779 0.0
C397 C 0.4901 0.02771 0.62885 0.0
C398 C 0.44789 0.95424 0.63018 0.0
C399 C 0.48309 0.94937 0.63153 0.0
H400 H 0.58391 0.05309 0.83085 0.0
H401 H 0.58507 0.91297 0.83072 0.0
H402 H 0.52324 0.91124 0.82828 0.0
H403 H 0.46877 0.94922 0.83112 0.0
H404 H 0.46757 0.08928 0.83341 0.0
H405 H 0.52931 0.09121 0.82974 0.0
C406 C 0.5707 0.02217 0.82982 0.0
C407 C 0.58917 0.98325 0.83124 0.0
C408 C 0.53501 0.02134 0.82903 0.0
C409 C 0.57154 0.94347 0.82992 0.0
C410 C 0.53612 0.94241 0.82856 0.0
C411 C 0.48192 0.9802 0.83036 0.0
C412 C 0.4635 0.019 0.83281 0.0
C413 C 0.51756 0.98111 0.82886 0.0
C414 C 0.48107 0.05885 0.8318 0.0
C415 C 0.51644 0.06003 0.82975 0.0
H416 H 0.97433 0.46661 0.33084 0.0
H417 H 0.97638 0.60581 0.34049 0.0
H418 H 0.03821 0.60568 0.33758 0.0
H419 H 0.09174 0.56526 0.33704 0.0
H420 H 0.08958 0.4259 0.32808 0.0
H421 H 0.02775 0.4271 0.32567 0.0
C422 C 0.98823 0.49702 0.33199 0.0
C423 C 0.9707 0.53606 0.33627 0.0
C424 C 0.02382 0.4967 0.3306 0.0
C425 C 0.98917 0.57521 0.33737 0.0
C426 C 0.02458 0.57518 0.3358 0.0
C427 C 0.07781 0.53517 0.33421 0.0
C428 C 0.09534 0.4955 0.33313 0.0
C429 C 0.04219 0.53598 0.33315 0.0
C430 C 0.07682 0.45691 0.32917 0.0
C431 C 0.0414 0.45751 0.32787 0.0
H432 H 0.05006 0.54461 0.13213 0.0
H433 H 0.06383 0.40587 0.12865 0.0
H434 H 1.00251 0.39481 0.12983 0.0
H435 H 0.94458 0.42465 0.12761 0.0
H436 H 0.93115 0.56359 0.12963 0.0
H437 H 0.99224 0.57416 0.13343 0.0
C438 C 0.03969 0.51193 0.13209 0.0
C439 C 0.06167 0.47623 0.1301 0.0
C440 C 0.00422 0.50571 0.13223 0.0
C441 C 0.04762 0.43408 0.12997 0.0
C442 C 0.01245 0.42765 0.13059 0.0
C443 C 0.95498 0.45719 0.12926 0.0
C444 C 0.93315 0.49318 0.12805 0.0
C445 C 0.99043 0.46324 0.13105 0.0
C446 C 0.94723 0.53517 0.1302 0.0
C447 C 0.98228 0.54135 0.1324 0.0
H448 H 0.92908 0.55156 0.63336 0.0
H449 H 0.91101 0.41333 0.63045 0.0
H450 H 0.97195 0.40003 0.63181 0.0
H451 H 0.03057 0.42766 0.62944 0.0
H452 H 0.04846 0.56602 0.63114 0.0
H453 H 0.98771 0.57896 0.63485 0.0
C454 C 0.93841 0.5185 0.63347 0.0
C455 C 0.91537 0.4836 0.63156 0.0
C456 C 0.97363 0.51098 0.63378 0.0
C457 C 0.92807 0.44094 0.6317 0.0
C458 C 0.963 0.43322 0.63241 0.0
C459 C 0.02125 0.46062 0.63099 0.0
C460 C 0.04419 0.49574 0.62971 0.0
C461 C 0.98607 0.46801 0.63276 0.0
C462 C 0.0315 0.53826 0.63181 0.0
C463 C 0.99666 0.54578 0.63392 0.0
H464 H 0.05488 0.47721 0.82624 0.0
H465 H 0.05017 0.61682 0.83197 0.0
H466 H 0.98837 0.61384 0.828 0.0
H467 H 0.93559 0.57098 0.82849 0.0
H468 H 0.94037 0.43131 0.82302 0.0
H469 H 1.00224 0.43506 0.82088 0.0
C470 C 0.04038 0.50707 0.82625 0.0
C471 C 0.0571 0.54713 0.82983 0.0
C472 C 0.00485 0.50509 0.82417 0.0
C473 C 0.03798 0.58553 0.82936 0.0
C474 C 1.00259 0.58384 0.82723 0.0
C475 C 0.95012 0.54136 0.82641 0.0
C476 C 0.93333 0.50087 0.82635 0.0
C477 C 0.98572 0.5437 0.82548 0.0
C478 C 0.95256 0.4629 0.82324 0.0
C479 C 0.988 0.46499 0.82217 0.0
H480 H 0.28932 0.32689 0.36186 0.0
H481 H 0.185 0.28322 0.36283 0.0
H482 H 0.20376 0.20776 0.36392 0.0
H483 H 0.24972 0.15433 0.36327 0.0
H484 H 0.354 0.19807 0.36119 0.0
H485 H 0.33527 0.27352 0.36196 0.0
C486 C 0.27067 0.30089 0.36243 0.0
C487 C 0.23583 0.31063 0.36222 0.0
C488 C 0.28162 0.25765 0.36281 0.0
C489 C 0.21198 0.27657 0.36291 0.0
C490 C 0.22268 0.23343 0.36353 0.0
C491 C 0.26836 0.18036 0.36313 0.0
C492 C 0.30319 0.17063 0.36214 0.0
C493 C 0.25742 0.22361 0.3633 0.0
C494 C 0.32703 0.20471 0.36189 0.0
C495 C 0.31635 0.24785 0.36232 0.0
H496 H 0.78108 0.85362 0.36992 0.0
H497 H 0.68411 0.78755 0.36975 0.0
H498 H 0.71265 0.71773 0.37378 0.0
H499 H 0.76485 0.67545 0.37467 0.0
H500 H 0.86214 0.7406 0.3734 0.0
H501 H 0.83365 0.81105 0.37289 0.0
C502 C 0.76618 0.82396 0.37097 0.0
C503 C 0.73053 0.82573 0.36937 0.0
C504 C 0.78277 0.78388 0.37297 0.0
C505 C 0.71158 0.78706 0.3708 0.0
C506 C 0.72787 0.74713 0.3731 0.0
C507 C 0.77991 0.70503 0.3745 0.0
C508 C 0.81556 0.70282 0.37391 0.0
C509 C 0.76342 0.74517 0.37379 0.0
C510 C 0.83465 0.74145 0.37379 0.0
C511 C 0.81838 0.7817 0.37343 0.0
H512 H 0.17692 0.70436 0.1179 0.0
H513 H 0.27137 0.63424 0.12268 0.0
H514 H 0.30308 0.70229 0.12298 0.0
H515 H 0.30444 0.78194 0.12053 0.0
H516 H 0.21017 0.8523 0.11518 0.0
H517 H 0.17824 0.78432 0.1165 0.0
C518 C 0.20441 0.70402 0.11918 0.0
C519 C 0.22165 0.66419 0.12018 0.0
C520 C 0.22269 0.74344 0.11912 0.0
C521 C 0.25735 0.66438 0.12177 0.0
C522 C 0.27561 0.70333 0.12194 0.0
C523 C 0.27692 0.7824 0.11974 0.0
C524 C 0.25983 0.82221 0.11767 0.0
C525 C 0.2586 0.74308 0.12038 0.0
C526 C 0.22409 0.82215 0.11669 0.0
C527 C 0.20572 0.78324 0.11745 0.0
H528 H 0.67656 0.20359 0.11678 0.0
H529 H 0.76752 0.12638 0.11213 0.0
H530 H 0.80242 0.19182 0.11295 0.0
H531 H 0.80744 0.2714 0.11387 0.0
H532 H 0.71653 0.34873 0.11822 0.0
H533 H 0.68165 0.28321 0.1187 0.0
C534 C 0.70401 0.20111 0.11603 0.0
C535 C 0.71928 0.16008 0.11431 0.0
C536 C 0.72411 0.23903 0.11641 0.0
C537 C 0.75496 0.15751 0.11338 0.0
C538 C 0.77505 0.19497 0.11385 0.0
C539 C 0.78002 0.27389 0.11503 0.0
C540 C 0.76473 0.31498 0.11593 0.0
C541 C 0.75994 0.23596 0.11519 0.0
C542 C 0.72909 0.31756 0.11743 0.0
C543 C 0.70902 0.28005 0.1177 0.0
H544 H 0.75622 0.84013 0.60859 0.0
H545 H 0.65349 0.79145 0.60309 0.0
H546 H 0.6746 0.7169 0.6038 0.0
H547 H 0.72216 0.66574 0.6063 0.0
H548 H 0.8248 0.71458 0.6124 0.0
H549 H 0.80371 0.78906 0.61116 0.0
C550 C 0.7384 0.81325 0.60748 0.0
C551 C 0.70329 0.82137 0.60574 0.0
C552 C 0.75069 0.77056 0.60806 0.0
C553 C 0.6806 0.78612 0.60443 0.0
C554 C 0.69267 0.74349 0.60485 0.0
C555 C 0.73996 0.69266 0.60734 0.0
C556 C 0.77505 0.68457 0.60943 0.0
C557 C 0.72765 0.73536 0.60671 0.0
C558 C 0.7977 0.71986 0.61081 0.0
C559 C 0.78565 0.76246 0.61008 0.0
H560 H 0.24519 0.3294 0.60315 0.0
H561 H 0.14672 0.26727 0.60489 0.0
H562 H 0.1739 0.19595 0.6048 0.0
H563 H 0.22562 0.15155 0.60501 0.0
H564 H 0.32395 0.21413 0.60361 0.0
H565 H 0.29669 0.28522 0.60274 0.0
C566 C 0.22958 0.30029 0.60345 0.0
C567 C 0.19393 0.30368 0.60407 0.0
C568 C 0.24536 0.25956 0.60349 0.0
C569 C 0.17418 0.26559 0.60442 0.0
C570 C 0.18972 0.22483 0.60439 0.0
C571 C 0.24113 0.18072 0.60446 0.0
C572 C 0.27683 0.17751 0.60441 0.0
C573 C 0.22528 0.22147 0.60405 0.0
C574 C 0.29648 0.21565 0.60368 0.0
C575 C 0.2809 0.25631 0.60319 0.0
H576 H 0.70214 0.19393 0.84715 0.0
H577 H 0.80007 0.1316 0.84747 0.0
H578 H 0.82829 0.20226 0.84592 0.0
H579 H 0.82524 0.282 0.84542 0.0
H580 H 0.7272 0.34406 0.84613 0.0
H581 H 0.69908 0.2734 0.84622 0.0
C582 C 0.72965 0.1958 0.84682 0.0
C583 C 0.74893 0.15756 0.84748 0.0
C584 C 0.74576 0.23655 0.84612 0.0
C585 C 0.78458 0.16056 0.84706 0.0
C586 C 0.80078 0.20096 0.84615 0.0
C587 C 0.79774 0.28002 0.84547 0.0
C588 C 0.7784 0.31823 0.8458 0.0
C589 C 0.78164 0.2392 0.8458 0.0
C590 C 0.74274 0.31514 0.84596 0.0
C591 C 0.72659 0.27473 0.84601 0.0
H592 H 0.26794 0.69339 0.85337 0.0
H593 H 0.17177 0.76002 0.85102 0.0
H594 H 0.20132 0.82996 0.85122 0.0
H595 H 0.25426 0.87197 0.85268 0.0
H596 H 0.35053 0.80559 0.85451 0.0
H597 H 0.32103 0.73552 0.85386 0.0
C598 C 0.25341 0.7232 0.85289 0.0
C599 C 0.21767 0.7215 0.85228 0.0
C600 C 0.27056 0.76324 0.85294 0.0
C601 C 0.19927 0.76042 0.85151 0.0
C602 C 0.21615 0.80041 0.85166 0.0
C603 C 0.26885 0.8422 0.85295 0.0
C604 C 0.30456 0.84398 0.85377 0.0
C605 C 0.25175 0.80217 0.85248 0.0
C606 C 0.32304 0.8051 0.85392 0.0
C607 C 0.30618 0.76506 0.85356 0.0
H608 H 0.27531 0.04878 0.27917 0.0
H609 H 0.2693 0.90874 0.27814 0.0
H610 H 0.25659 0.9105 0.23121 0.0
H611 H 0.25934 0.95056 0.18976 0.0
H612 H 0.27076 0.09 0.19027 0.0
H613 H 0.26831 0.08981 0.23826 0.0
C614 C 0.27049 0.01862 0.26884 0.0
C615 C 0.27426 0.97859 0.28197 0.0
C616 C 0.26455 0.0198 0.24171 0.0
C617 C 0.26716 0.93994 0.26842 0.0
C618 C 0.26004 0.94092 0.24155 0.0
C619 C 0.26055 0.98106 0.20033 0.0
C620 C 0.26622 0.02012 0.18656 0.0
C621 C 0.26059 0.98048 0.22782 0.0
C622 C 0.26683 0.05944 0.20044 0.0
C623 C 0.2657 0.0593 0.22789 0.0
H624 H 0.72545 0.03244 0.18183 0.0
H625 H 0.71084 0.89353 0.18437 0.0
H626 H 0.72239 0.89351 0.2316 0.0
H627 H 0.72471 0.93471 0.27262 0.0
H628 H 0.73395 0.07447 0.2701 0.0
H629 H 0.7373 0.07226 0.22225 0.0
C630 C 0.72542 0.002 0.19262 0.0
C631 C 0.71635 0.96319 0.17984 0.0
C632 C 0.7308 0.0025 0.21978 0.0
C633 C 0.71732 0.92389 0.19386 0.0
C634 C 0.72371 0.92392 0.22088 0.0
C635 C 0.72827 0.96468 0.26169 0.0
C636 C 0.72807 0.00483 0.27486 0.0
C637 C 0.72867 0.96333 0.23419 0.0
C638 C 0.73343 0.0432 0.26043 0.0
C639 C 0.73514 0.04198 0.23305 0.0
H640 H 0.75476 0.02754 0.77431 0.0
H641 H 0.73551 0.88958 0.77129 0.0
H642 H 0.73299 0.89304 0.72332 0.0
H643 H 0.72416 0.93755 0.68394 0.0
H644 H 0.738 0.07659 0.68787 0.0
H645 H 0.75483 0.07039 0.73391 0.0
C646 C 0.75082 0.99799 0.76313 0.0
C647 C 0.74437 0.95856 0.7763 0.0
C648 C 0.74764 0.00065 0.73581 0.0
C649 C 0.7402 0.9204 0.76161 0.0
C650 C 0.73835 0.92248 0.73421 0.0
C651 C 0.73136 0.9665 0.69471 0.0
C652 C 0.72889 0.00765 0.68272 0.0
C653 C 0.74002 0.96282 0.72132 0.0
C654 C 0.73909 0.04464 0.69677 0.0
C655 C 0.74869 0.04112 0.7231 0.0
H656 H 0.28766 0.97163 0.78401 0.0
H657 H 0.30324 0.11021 0.77885 0.0
H658 H 0.28999 0.10825 0.73191 0.0
H659 H 0.28493 0.06536 0.69166 0.0
H660 H 0.27392 0.92599 0.69663 0.0
H661 H 0.27374 0.93021 0.74453 0.0
C662 C 0.28755 0.00158 0.77273 0.0
C663 C 0.29728 0.04087 0.78469 0.0
C664 C 0.28109 0.99995 0.74571 0.0
C665 C 0.29621 0.07951 0.77002 0.0
C666 C 0.28885 0.07834 0.74315 0.0
C667 C 0.28182 0.03592 0.70318 0.0
C668 C 0.28038 0.99527 0.69061 0.0
C669 C 0.28296 0.03844 0.73063 0.0
C670 C 0.27557 0.95761 0.7058 0.0
C671 C 0.27565 0.95998 0.7332 0.0
H672 H 0.79416 0.57628 0.19145 0.0
H673 H 0.76681 0.44053 0.18928 0.0
H674 H 0.76924 0.43668 0.23709 0.0
H675 H 0.78994 0.46815 0.27823 0.0
H676 H 0.81978 0.60317 0.2802 0.0
H677 H 0.8052 0.61108 0.23392 0.0
C678 C 0.78763 0.54627 0.2015 0.0
C679 C 0.78106 0.50856 0.18693 0.0
C680 C 0.79028 0.54386 0.22896 0.0
C681 C 0.77252 0.46987 0.20015 0.0
C682 C 0.77409 0.46754 0.22747 0.0
C683 C 0.79269 0.49949 0.26866 0.0
C684 C 0.8068 0.53461 0.28244 0.0
C685 C 0.78479 0.50371 0.24192 0.0
C686 C 0.80951 0.5753 0.26992 0.0
C687 C 0.80121 0.57992 0.24341 0.0
H688 H 0.24662 0.43178 0.27399 0.0
H689 H 0.25661 0.57147 0.27281 0.0
H690 H 0.25469 0.57106 0.22488 0.0
H691 H 0.2386 0.53277 0.18468 0.0
H692 H 0.22435 0.39378 0.18611 0.0
H693 H 0.23992 0.3921 0.23266 0.0
C694 C 0.24918 0.46211 0.26327 0.0
C695 C 0.25077 0.50174 0.27699 0.0
C696 C 0.24667 0.46179 0.23581 0.0
C697 C 0.25487 0.54058 0.26278 0.0
C698 C 0.2535 0.5404 0.23536 0.0
C699 C 0.23946 0.50197 0.19506 0.0
C700 C 0.22947 0.46357 0.18223 0.0
C701 C 0.24749 0.50147 0.22186 0.0
C702 C 0.23155 0.42381 0.19567 0.0
C703 C 0.24029 0.4229 0.2223 0.0
H704 H 0.20677 0.45184 0.77881 0.0
H705 H 0.22913 0.58913 0.77832 0.0
H706 H 0.23296 0.58856 0.73053 0.0
H707 H 0.21849 0.55234 0.68919 0.0
H708 H 0.19332 0.41573 0.68984 0.0
H709 H 0.20252 0.41275 0.73711 0.0
C710 C 0.21354 0.48133 0.76831 0.0
C711 C 0.21679 0.52063 0.78199 0.0
C712 C 0.21449 0.48114 0.74077 0.0
C713 C 0.22585 0.55855 0.76814 0.0
C714 C 0.22787 0.55834 0.7408 0.0
C715 C 0.21572 0.52172 0.69957 0.0
C716 C 0.20427 0.48469 0.68612 0.0
C717 C 0.22033 0.52035 0.72689 0.0
C718 C 0.20142 0.44504 0.6998 0.0
C719 C 0.20665 0.44323 0.72688 0.0
H720 H 0.75864 0.55954 0.69077 0.0
H721 H 0.74786 0.41999 0.68934 0.0
H722 H 0.74399 0.4186 0.7372 0.0
H723 H 0.75614 0.45513 0.7788 0.0
H724 H 0.77176 0.5939 0.7801 0.0
H725 H 0.76048 0.59762 0.73291 0.0
C726 C 0.75468 0.52886 0.70087 0.0
C727 C 0.75459 0.48977 0.68659 0.0
C728 C 0.75379 0.52816 0.72838 0.0
C729 C 0.74855 0.45046 0.69988 0.0
C730 C 0.74655 0.44963 0.72727 0.0
C731 C 0.75633 0.48636 0.76887 0.0
C732 C 0.76574 0.52404 0.78271 0.0
C733 C 0.75112 0.48799 0.74167 0.0
C734 C 0.76501 0.56438 0.7698 0.0
C735 C 0.75881 0.56645 0.74278 0.0
loop_
_geom_bond_atom_site_label_1
_geom_bond_atom_site_label_2
_geom_bond_distance
_geom_bond_site_symmetry_2
_ccdc_geom_bond_type
C0 O1 1.306 1_545 S
C0 O3 1.160 . S
O1 C0 1.306 1_565 S
O1 Cd2 2.228 . S
Cd2 O1 2.228 . S
Cd2 O6 2.273 1_565 S
Cd2 O10 2.279 . S
O3 C0 1.160 . S
O3 Cd4 2.203 . S
Cd4 O3 2.203 . S
Cd4 O6 2.411 . S
Cd4 O7 2.333 . S
Cd4 O8 2.352 . S
Cd4 O12 2.277 . S
Cd4 O13 2.356 . S
C5 O10 1.207 1_545 S
C5 O12 1.226 . S
O6 Cd2 2.273 1_545 S
O6 Cd4 2.411 . S
O6 C9 1.320 . S
O7 Cd4 2.333 . S
O7 C9 1.214 . S
O8 Cd4 2.352 . S
O8 C11 1.258 . S
C9 O6 1.320 . S
C9 O7 1.214 . S
O10 Cd2 2.279 . S
O10 C5 1.207 1_565 S
C11 O8 1.258 . S
C11 O13 1.282 . S
O12 Cd4 2.277 . S
O12 C5 1.226 . S
O13 Cd4 2.356 . S
O13 C11 1.282 . S
C14 O15 1.306 1_565 S
C14 O17 1.160 . S
O15 C14 1.306 1_545 S
O15 Cd16 2.228 . S
Cd16 O15 2.228 . S
Cd16 O20 2.273 1_545 S
Cd16 O24 2.279 . S
O17 C14 1.160 . S
O17 Cd18 2.203 . S
Cd18 O17 2.203 . S
Cd18 O20 2.411 . S
Cd18 O21 2.333 . S
Cd18 O22 2.352 . S
Cd18 O26 2.277 . S
Cd18 O27 2.356 . S
C19 O24 1.206 1_565 S
C19 O26 1.226 . S
O20 Cd16 2.273 1_565 S
O20 Cd18 2.411 . S
O20 C23 1.320 . S
O21 Cd18 2.333 . S
O21 C23 1.214 . S
O22 Cd18 2.352 . S
O22 C25 1.258 . S
C23 O20 1.320 . S
C23 O21 1.214 . S
O24 Cd16 2.279 . S
O24 C19 1.206 1_545 S
C25 O22 1.258 . S
C25 O27 1.282 . S
O26 Cd18 2.277 . S
O26 C19 1.226 . S
O27 Cd18 2.356 . S
O27 C25 1.282 . S
C28 O29 1.306 1_565 S
C28 O31 1.160 . S
O29 C28 1.306 1_545 S
O29 Cd30 2.228 . S
Cd30 O29 2.228 . S
Cd30 O34 2.273 1_545 S
Cd30 O38 2.279 . S
O31 C28 1.160 . S
O31 Cd32 2.203 . S
Cd32 O31 2.203 . S
Cd32 O34 2.411 . S
Cd32 O35 2.333 . S
Cd32 O36 2.352 . S
Cd32 O40 2.277 . S
Cd32 O41 2.356 . S
C33 O38 1.207 1_565 S
C33 O40 1.226 . S
O34 Cd30 2.273 1_565 S
O34 Cd32 2.411 . S
O34 C37 1.320 . S
O35 Cd32 2.333 . S
O35 C37 1.214 . S
O36 Cd32 2.352 . S
O36 C39 1.258 . S
C37 O34 1.320 . S
C37 O35 1.214 . S
O38 Cd30 2.279 . S
O38 C33 1.207 1_545 S
C39 O36 1.258 . S
C39 O41 1.282 . S
O40 Cd32 2.277 . S
O40 C33 1.226 . S
O41 Cd32 2.356 . S
O41 C39 1.282 . S
C42 O43 1.306 1_545 S
C42 O45 1.160 . S
O43 C42 1.306 1_565 S
O43 Cd44 2.228 . S
Cd44 O43 2.228 . S
Cd44 O48 2.273 1_565 S
Cd44 O52 2.279 . S
O45 C42 1.160 . S
O45 Cd46 2.203 . S
Cd46 O45 2.203 . S
Cd46 O48 2.411 . S
Cd46 O49 2.333 . S
Cd46 O50 2.352 . S
Cd46 O54 2.277 . S
Cd46 O55 2.356 . S
C47 O52 1.206 1_545 S
C47 O54 1.226 . S
O48 Cd44 2.273 1_545 S
O48 Cd46 2.411 . S
O48 C51 1.320 . S
O49 Cd46 2.333 . S
O49 C51 1.214 . S
O50 Cd46 2.352 . S
O50 C53 1.258 . S
C51 O48 1.320 . S
C51 O49 1.214 . S
O52 Cd44 2.279 . S
O52 C47 1.206 1_565 S
C53 O50 1.258 . S
C53 O55 1.282 . S
O54 Cd46 2.277 . S
O54 C47 1.226 . S
O55 Cd46 2.356 . S
O55 C53 1.282 . S
C56 O57 1.306 1_565 S
C56 O59 1.160 . S
O57 C56 1.306 1_545 S
O57 Cd58 2.228 . S
Cd58 O57 2.228 . S
Cd58 O62 2.273 1_545 S
Cd58 O66 2.279 . S
O59 C56 1.160 . S
O59 Cd60 2.203 . S
Cd60 O59 2.203 . S
Cd60 O62 2.411 . S
Cd60 O63 2.333 . S
Cd60 O64 2.352 . S
Cd60 O68 2.277 . S
Cd60 O69 2.356 . S
C61 O66 1.207 1_565 S
C61 O68 1.226 . S
O62 Cd58 2.273 1_565 S
O62 Cd60 2.411 . S
O62 C65 1.320 . S
O63 Cd60 2.333 . S
O63 C65 1.214 . S
O64 Cd60 2.352 . S
O64 C67 1.258 . S
C65 O62 1.320 . S
C65 O63 1.214 . S
O66 Cd58 2.279 . S
O66 C61 1.207 1_545 S
C67 O64 1.258 . S
C67 O69 1.282 . S
O68 Cd60 2.277 . S
O68 C61 1.226 . S
O69 Cd60 2.356 . S
O69 C67 1.282 . S
C70 O71 1.306 1_545 S
C70 O73 1.160 . S
O71 C70 1.306 1_565 S
O71 Cd72 2.228 . S
Cd72 O71 2.228 . S
Cd72 O76 2.273 1_565 S
Cd72 O80 2.279 . S
O73 C70 1.160 . S
O73 Cd74 2.203 . S
Cd74 O73 2.203 . S
Cd74 O76 2.411 . S
Cd74 O77 2.333 . S
Cd74 O78 2.352 . S
Cd74 O82 2.277 . S
Cd74 O83 2.356 . S
C75 O80 1.206 1_545 S
C75 O82 1.226 . S
O76 Cd72 2.273 1_545 S
O76 Cd74 2.411 . S
O76 C79 1.320 . S
O77 Cd74 2.333 . S
O77 C79 1.214 . S
O78 Cd74 2.352 . S
O78 C81 1.258 . S
C79 O76 1.320 . S
C79 O77 1.214 . S
O80 Cd72 2.279 . S
O80 C75 1.206 1_565 S
C81 O78 1.258 . S
C81 O83 1.282 . S
O82 Cd74 2.277 . S
O82 C75 1.226 . S
O83 Cd74 2.356 . S
O83 C81 1.282 . S
C84 O85 1.306 1_545 S
C84 O87 1.160 . S
O85 C84 1.306 1_565 S
O85 Cd86 2.228 . S
Cd86 O85 2.228 . S
Cd86 O90 2.273 1_565 S
Cd86 O94 2.279 . S
O87 C84 1.160 . S
O87 Cd88 2.203 . S
Cd88 O87 2.203 . S
Cd88 O90 2.411 . S
Cd88 O91 2.333 . S
Cd88 O92 2.352 . S
Cd88 O96 2.277 . S
Cd88 O97 2.356 . S
C89 O94 1.207 1_545 S
C89 O96 1.226 . S
O90 Cd86 2.273 1_545 S
O90 Cd88 2.411 . S
O90 C93 1.320 . S
O91 Cd88 2.333 . S
O91 C93 1.214 . S
O92 Cd88 2.352 . S
O92 C95 1.258 . S
C93 O90 1.320 . S
C93 O91 1.214 . S
O94 Cd86 2.279 . S
O94 C89 1.207 1_565 S
C95 O92 1.258 . S
C95 O97 1.282 . S
O96 Cd88 2.277 . S
O96 C89 1.226 . S
O97 Cd88 2.356 . S
O97 C95 1.282 . S
C98 O99 1.306 1_565 S
C98 O101 1.160 . S
O99 C98 1.306 1_545 S
O99 Cd100 2.228 . S
Cd100 O99 2.228 . S
Cd100 O104 2.273 1_545 S
Cd100 O108 2.279 . S
O101 C98 1.160 . S
O101 Cd102 2.203 . S
Cd102 O101 2.203 . S
Cd102 O104 2.411 . S
Cd102 O105 2.333 . S
Cd102 O106 2.352 . S
Cd102 O110 2.277 . S
Cd102 O111 2.356 . S
C103 O108 1.206 1_565 S
C103 O110 1.226 . S
O104 Cd100 2.273 1_565 S
O104 Cd102 2.411 . S
O104 C107 1.320 . S
O105 Cd102 2.333 . S
O105 C107 1.214 . S
O106 Cd102 2.352 . S
O106 C109 1.258 . S
C107 O104 1.320 . S
C107 O105 1.214 . S
O108 Cd100 2.279 . S
O108 C103 1.206 1_545 S
C109 O106 1.258 . S
C109 O111 1.282 . S
O110 Cd102 2.277 . S
O110 C103 1.226 . S
O111 Cd102 2.356 . S
O111 C109 1.282 . S
C112 O113 1.306 . S
C112 O115 1.160 . S
O113 C112 1.306 . S
O113 Cd114 2.228 . S
Cd114 O113 2.228 . S
Cd114 O118 2.273 . S
Cd114 O122 2.277 . S
O115 C112 1.160 . S
O115 Cd116 2.203 . S
Cd116 O115 2.203 . S
Cd116 O118 2.411 . S
Cd116 O119 2.333 . S
Cd116 O120 2.352 . S
Cd116 O124 2.277 . S
Cd116 O125 2.356 . S
C117 O122 1.209 . S
C117 O124 1.226 . S
O118 Cd114 2.273 . S
O118 Cd116 2.411 . S
O118 C121 1.320 . S
O119 Cd116 2.333 . S
O119 C121 1.214 . S
O120 Cd116 2.352 . S
O120 C123 1.258 . S
C121 O118 1.320 . S
C121 O119 1.214 . S
O122 Cd114 2.277 . S
O122 C117 1.209 . S
C123 O120 1.258 . S
C123 O125 1.282 . S
O124 Cd116 2.277 . S
O124 C117 1.226 . S
O125 Cd116 2.356 . S
O125 C123 1.282 . S
C126 O127 1.306 . S
C126 O129 1.160 . S
O127 C126 1.306 . S
O127 Cd128 2.228 . S
Cd128 O127 2.228 . S
Cd128 O132 2.273 . S
Cd128 O136 2.277 . S
O129 C126 1.160 . S
O129 Cd130 2.203 . S
Cd130 O129 2.203 . S
Cd130 O132 2.411 . S
Cd130 O133 2.333 . S
Cd130 O134 2.352 . S
Cd130 O138 2.277 . S
Cd130 O139 2.356 . S
C131 O136 1.209 . S
C131 O138 1.226 . S
O132 Cd128 2.273 . S
O132 Cd130 2.411 . S
O132 C135 1.320 . S
O133 Cd130 2.333 . S
O133 C135 1.214 . S
O134 Cd130 2.352 . S
O134 C137 1.258 . S
C135 O132 1.320 . S
C135 O133 1.214 . S
O136 Cd128 2.277 . S
O136 C131 1.209 . S
C137 O134 1.258 . S
C137 O139 1.282 . S
O138 Cd130 2.277 . S
O138 C131 1.226 . S
O139 Cd130 2.356 . S
O139 C137 1.282 . S
C140 O141 1.306 . S
C140 O143 1.160 . S
O141 C140 1.306 . S
O141 Cd142 2.228 . S
Cd142 O141 2.228 . S
Cd142 O146 2.273 . S
Cd142 O150 2.277 . S
O143 C140 1.160 . S
O143 Cd144 2.203 . S
Cd144 O143 2.203 . S
Cd144 O146 2.411 . S
Cd144 O147 2.333 . S
Cd144 O148 2.352 . S
Cd144 O152 2.277 . S
Cd144 O153 2.356 . S
C145 O150 1.209 . S
C145 O152 1.226 . S
O146 Cd142 2.273 . S
O146 Cd144 2.411 . S
O146 C149 1.320 . S
O147 Cd144 2.333 . S
O147 C149 1.214 . S
O148 Cd144 2.352 . S
O148 C151 1.258 . S
C149 O146 1.320 . S
C149 O147 1.214 . S
O150 Cd142 2.277 . S
O150 C145 1.209 . S
C151 O148 1.258 . S
C151 O153 1.282 . S
O152 Cd144 2.277 . S
O152 C145 1.226 . S
O153 Cd144 2.356 . S
O153 C151 1.282 . S
C154 O155 1.306 . S
C154 O157 1.160 . S
O155 C154 1.306 . S
O155 Cd156 2.228 . S
Cd156 O155 2.228 . S
Cd156 O160 2.273 . S
Cd156 O164 2.277 . S
O157 C154 1.160 . S
O157 Cd158 2.203 . S
Cd158 O157 2.203 . S
Cd158 O160 2.411 . S
Cd158 O161 2.333 . S
Cd158 O162 2.352 . S
Cd158 O166 2.277 . S
Cd158 O167 2.356 . S
C159 O164 1.209 . S
C159 O166 1.226 . S
O160 Cd156 2.273 . S
O160 Cd158 2.411 . S
O160 C163 1.320 . S
O161 Cd158 2.333 . S
O161 C163 1.214 . S
O162 Cd158 2.352 . S
O162 C165 1.258 . S
C163 O160 1.320 . S
C163 O161 1.214 . S
O164 Cd156 2.277 . S
O164 C159 1.209 . S
C165 O162 1.258 . S
C165 O167 1.282 . S
O166 Cd158 2.277 . S
O166 C159 1.226 . S
O167 Cd158 2.356 . S
O167 C165 1.282 . S
C168 O169 1.306 . S
C168 O171 1.160 . S
O169 C168 1.306 . S
O169 Cd170 2.228 . S
Cd170 O169 2.228 . S
Cd170 O174 2.273 . S
Cd170 O178 2.277 . S
O171 C168 1.160 . S
O171 Cd172 2.203 . S
Cd172 O171 2.203 . S
Cd172 O174 2.411 . S
Cd172 O175 2.333 . S
Cd172 O176 2.352 . S
Cd172 O180 2.277 . S
Cd172 O181 2.356 . S
C173 O178 1.209 . S
C173 O180 1.226 . S
O174 Cd170 2.273 . S
O174 Cd172 2.411 . S
O174 C177 1.320 . S
O175 Cd172 2.333 . S
O175 C177 1.214 . S
O176 Cd172 2.352 . S
O176 C179 1.258 . S
C177 O174 1.320 . S
C177 O175 1.214 . S
O178 Cd170 2.277 . S
O178 C173 1.209 . S
C179 O176 1.258 . S
C179 O181 1.282 . S
O180 Cd172 2.277 . S
O180 C173 1.226 . S
O181 Cd172 2.356 . S
O181 C179 1.282 . S
C182 O183 1.306 . S
C182 O185 1.160 . S
O183 C182 1.306 . S
O183 Cd184 2.228 . S
Cd184 O183 2.228 . S
Cd184 O188 2.273 . S
Cd184 O192 2.277 . S
O185 C182 1.160 . S
O185 Cd186 2.203 . S
Cd186 O185 2.203 . S
Cd186 O188 2.411 . S
Cd186 O189 2.333 . S
Cd186 O190 2.352 . S
Cd186 O194 2.277 . S
Cd186 O195 2.356 . S
C187 O192 1.209 . S
C187 O194 1.226 . S
O188 Cd184 2.273 . S
O188 Cd186 2.411 . S
O188 C191 1.320 . S
O189 Cd186 2.333 . S
O189 C191 1.214 . S
O190 Cd186 2.352 . S
O190 C193 1.258 . S
C191 O188 1.320 . S
C191 O189 1.214 . S
O192 Cd184 2.277 . S
O192 C187 1.209 . S
C193 O190 1.258 . S
C193 O195 1.282 . S
O194 Cd186 2.277 . S
O194 C187 1.226 . S
O195 Cd186 2.356 . S
O195 C193 1.282 . S
C196 O197 1.306 . S
C196 O199 1.160 . S
O197 C196 1.306 . S
O197 Cd198 2.228 . S
Cd198 O197 2.228 . S
Cd198 O202 2.273 . S
Cd198 O206 2.277 . S
O199 C196 1.160 . S
O199 Cd200 2.203 . S
Cd200 O199 2.203 . S
Cd200 O202 2.411 . S
Cd200 O203 2.333 . S
Cd200 O204 2.352 . S
Cd200 O208 2.277 . S
Cd200 O209 2.356 . S
C201 O206 1.209 . S
C201 O208 1.226 . S
O202 Cd198 2.273 . S
O202 Cd200 2.411 . S
O202 C205 1.320 . S
O203 Cd200 2.333 . S
O203 C205 1.214 . S
O204 Cd200 2.352 . S
O204 C207 1.258 . S
C205 O202 1.320 . S
C205 O203 1.214 . S
O206 Cd198 2.277 . S
O206 C201 1.209 . S
C207 O204 1.258 . S
C207 O209 1.282 . S
O208 Cd200 2.277 . S
O208 C201 1.226 . S
O209 Cd200 2.356 . S
O209 C207 1.282 . S
C210 O211 1.306 . S
C210 O213 1.160 . S
O211 C210 1.306 . S
O211 Cd212 2.228 . S
Cd212 O211 2.228 . S
Cd212 O216 2.273 . S
Cd212 O220 2.277 . S
O213 C210 1.160 . S
O213 Cd214 2.203 . S
Cd214 O213 2.203 . S
Cd214 O216 2.411 . S
Cd214 O217 2.333 . S
Cd214 O218 2.352 . S
Cd214 O222 2.277 . S
Cd214 O223 2.356 . S
C215 O220 1.209 . S
C215 O222 1.226 . S
O216 Cd212 2.273 . S
O216 Cd214 2.411 . S
O216 C219 1.320 . S
O217 Cd214 2.333 . S
O217 C219 1.214 . S
O218 Cd214 2.352 . S
O218 C221 1.258 . S
C219 O216 1.320 . S
C219 O217 1.214 . S
O220 Cd212 2.277 . S
O220 C215 1.209 . S
C221 O218 1.258 . S
C221 O223 1.282 . S
O222 Cd214 2.277 . S
O222 C215 1.226 . S
O223 Cd214 2.356 . S
O223 C221 1.282 . S
H224 C230 0.930 . S
H225 C233 0.930 . S
H226 C234 0.930 . S
H227 C235 0.930 . S
H228 C238 0.930 . S
H229 C239 0.930 . S
C230 H224 0.930 . S
C230 C231 1.355 . S
C230 C232 1.415 . S
C231 C230 1.355 . S
C231 C233 1.419 . S
C232 C230 1.415 . S
C232 C237 1.425 . S
C232 C239 1.409 . S
C233 H225 0.930 . S
C233 C231 1.419 . S
C233 C234 1.362 . S
C234 H226 0.930 . S
C234 C233 1.362 . S
C234 C237 1.409 . S
C235 H227 0.930 . S
C235 C236 1.355 . S
C235 C237 1.415 . S
C236 C235 1.355 . S
C236 C238 1.419 . S
C237 C232 1.425 . S
C237 C234 1.409 . S
C237 C235 1.415 . S
C238 H228 0.930 . S
C238 C236 1.419 . S
C238 C239 1.362 . S
C239 H229 0.930 . S
C239 C232 1.409 . S
C239 C238 1.362 . S
H240 C246 0.930 . S
H241 C249 0.930 . S
H242 C250 0.930 . S
H243 C251 0.930 . S
H244 C254 0.930 . S
H245 C255 0.930 . S
C246 H240 0.930 . S
C246 C247 1.355 . S
C246 C248 1.415 . S
C247 C246 1.355 . S
C247 C249 1.419 1_565 S
C248 C246 1.415 . S
C248 C253 1.425 . S
C248 C255 1.409 . S
C249 H241 0.930 . S
C249 C247 1.419 1_545 S
C249 C250 1.362 . S
C250 H242 0.930 . S
C250 C249 1.362 . S
C250 C253 1.409 1_545 S
C251 H243 0.930 . S
C251 C252 1.355 1_545 S
C251 C253 1.415 1_545 S
C252 C251 1.355 1_565 S
C252 C254 1.419 . S
C253 C248 1.425 . S
C253 C250 1.409 1_565 S
C253 C251 1.415 1_565 S
C254 H244 0.930 . S
C254 C252 1.419 . S
C254 C255 1.362 . S
C255 H245 0.930 . S
C255 C248 1.409 . S
C255 C254 1.362 . S
H256 C262 0.930 . S
H257 C265 0.930 1_545 S
H258 C266 0.930 1_545 S
H259 C267 0.930 . S
H260 C270 0.930 . S
H261 C271 0.930 . S
C262 H256 0.930 . S
C262 C263 1.355 . S
C262 C264 1.415 . S
C263 C262 1.355 . S
C263 C265 1.419 . S
C264 C262 1.415 . S
C264 C269 1.425 1_554 S
C264 C271 1.409 1_554 S
C265 H257 0.930 1_565 S
C265 C263 1.419 . S
C265 C266 1.362 . S
C266 H258 0.930 1_565 S
C266 C265 1.362 . S
C266 C269 1.409 1_554 S
C267 H259 0.930 . S
C267 C268 1.355 . S
C267 C269 1.415 . S
C268 C267 1.355 . S
C268 C270 1.419 . S
C269 C264 1.425 1_556 S
C269 C266 1.409 1_556 S
C269 C267 1.415 . S
C270 H260 0.930 . S
C270 C268 1.419 . S
C270 C271 1.362 . S
C271 H261 0.930 . S
C271 C264 1.409 1_556 S
C271 C270 1.362 . S
H272 C278 0.930 . S
H273 C281 0.930 . S
H274 C282 0.930 . S
H275 C283 0.930 . S
H276 C286 0.930 . S
H277 C287 0.930 . S
C278 H272 0.930 . S
C278 C279 1.355 . S
C278 C280 1.415 . S
C279 C278 1.355 . S
C279 C281 1.419 1_545 S
C280 C278 1.415 . S
C280 C285 1.419 1_546 S
C280 C287 1.409 1_556 S
C281 H273 0.930 . S
C281 C279 1.419 1_565 S
C281 C282 1.362 . S
C282 H274 0.930 . S
C282 C281 1.362 . S
C282 C285 1.414 1_556 S
C283 H275 0.930 . S
C283 C284 1.355 1_565 S
C283 C285 1.416 . S
C284 C283 1.355 1_545 S
C284 C286 1.419 . S
C285 C280 1.419 1_564 S
C285 C282 1.414 1_554 S
C285 C283 1.416 . S
C286 H276 0.930 . S
C286 C284 1.419 . S
C286 C287 1.362 . S
C287 H277 0.930 . S
C287 C280 1.409 1_554 S
C287 C286 1.362 . S
H288 C294 0.930 . S
H289 C297 0.930 . S
H290 C298 0.930 . S
H291 C299 0.930 . S
H292 C302 0.930 . S
H293 C303 0.930 . S
C294 H288 0.930 . S
C294 C295 1.355 . S
C294 C296 1.415 . S
C295 C294 1.355 . S
C295 C297 1.419 . S
C296 C294 1.415 . S
C296 C301 1.425 . S
C296 C303 1.409 . S
C297 H289 0.930 . S
C297 C295 1.419 . S
C297 C298 1.362 . S
C298 H290 0.930 . S
C298 C297 1.362 . S
C298 C301 1.409 . S
C299 H291 0.930 . S
C299 C300 1.355 . S
C299 C301 1.415 . S
C300 C299 1.355 . S
C300 C302 1.419 . S
C301 C296 1.425 . S
C301 C298 1.409 . S
C301 C299 1.415 . S
C302 H292 0.930 . S
C302 C300 1.419 . S
C302 C303 1.362 . S
C303 H293 0.930 . S
C303 C296 1.409 . S
C303 C302 1.362 . S
H304 C310 0.930 . S
H305 C313 0.930 . S
H306 C314 0.930 . S
H307 C315 0.930 . S
H308 C318 0.930 . S
H309 C319 0.930 . S
C310 H304 0.930 . S
C310 C311 1.355 . S
C310 C312 1.415 . S
C311 C310 1.355 . S
C311 C313 1.419 . S
C312 C310 1.415 . S
C312 C317 1.425 . S
C312 C319 1.409 . S
C313 H305 0.930 . S
C313 C311 1.419 . S
C313 C314 1.362 . S
C314 H306 0.930 . S
C314 C313 1.362 . S
C314 C317 1.409 . S
C315 H307 0.930 . S
C315 C316 1.355 . S
C315 C317 1.415 . S
C316 C315 1.355 . S
C316 C318 1.419 . S
C317 C312 1.425 . S
C317 C314 1.409 . S
C317 C315 1.415 . S
C318 H308 0.930 . S
C318 C316 1.419 . S
C318 C319 1.362 . S
C319 H309 0.930 . S
C319 C312 1.409 . S
C319 C318 1.362 . S
H320 C326 0.930 . S
H321 C329 0.930 . S
H322 C330 0.930 . S
H323 C331 0.930 . S
H324 C334 0.930 . S
H325 C335 0.930 . S
C326 H320 0.930 . S
C326 C327 1.355 . S
C326 C328 1.415 . S
C327 C326 1.355 . S
C327 C329 1.419 . S
C328 C326 1.415 . S
C328 C333 1.425 1_556 S
C328 C335 1.409 1_556 S
C329 H321 0.930 . S
C329 C327 1.419 . S
C329 C330 1.362 . S
C330 H322 0.930 . S
C330 C329 1.362 . S
C330 C333 1.409 1_556 S
C331 H323 0.930 . S
C331 C332 1.355 . S
C331 C333 1.415 . S
C332 C331 1.355 . S
C332 C334 1.419 . S
C333 C328 1.425 1_554 S
C333 C330 1.409 1_554 S
C333 C331 1.415 . S
C334 H324 0.930 . S
C334 C332 1.419 . S
C334 C335 1.362 . S
C335 H325 0.930 . S
C335 C328 1.409 1_554 S
C335 C334 1.362 . S
H336 C342 0.930 . S
H337 C345 0.930 . S
H338 C346 0.930 . S
H339 C347 0.930 . S
H340 C350 0.930 . S
H341 C351 0.930 . S
C342 H336 0.930 . S
C342 C343 1.355 . S
C342 C344 1.415 . S
C343 C342 1.355 . S
C343 C345 1.419 . S
C344 C342 1.415 . S
C344 C349 1.425 1_554 S
C344 C351 1.409 1_554 S
C345 H337 0.930 . S
C345 C343 1.419 . S
C345 C346 1.362 . S
C346 H338 0.930 . S
C346 C345 1.362 . S
C346 C349 1.409 1_554 S
C347 H339 0.930 . S
C347 C348 1.355 . S
C347 C349 1.415 . S
C348 C347 1.355 . S
C348 C350 1.419 . S
C349 C344 1.425 1_556 S
C349 C346 1.409 1_556 S
C349 C347 1.415 . S
C350 H340 0.930 . S
C350 C348 1.419 . S
C350 C351 1.362 . S
C351 H341 0.930 . S
C351 C344 1.409 1_556 S
C351 C350 1.362 . S
H352 C358 0.930 . S
H353 C361 0.930 . S
H354 C362 0.930 . S
H355 C363 0.930 . S
H356 C366 0.930 . S
H357 C367 0.930 . S
C358 H352 0.930 . S
C358 C359 1.355 1_545 S
C358 C360 1.415 . S
C359 C358 1.355 1_565 S
C359 C361 1.419 . S
C360 C358 1.415 . S
C360 C365 1.425 1_545 S
C360 C367 1.409 . S
C361 H353 0.930 . S
C361 C359 1.419 . S
C361 C362 1.362 . S
C362 H354 0.930 . S
C362 C361 1.362 . S
C362 C365 1.409 . S
C363 H355 0.930 . S
C363 C364 1.355 1_565 S
C363 C365 1.415 . S
C364 C363 1.355 1_545 S
C364 C366 1.419 . S
C365 C360 1.425 1_565 S
C365 C362 1.409 . S
C365 C363 1.415 . S
C366 H356 0.930 . S
C366 C364 1.419 . S
C366 C367 1.362 . S
C367 H357 0.930 . S
C367 C360 1.409 . S
C367 C366 1.362 . S
H368 C374 0.930 . S
H369 C377 0.930 . S
H370 C378 0.930 . S
H371 C379 0.930 . S
H372 C382 0.930 . S
H373 C383 0.930 . S
C374 H368 0.930 . S
C374 C375 1.355 . S
C374 C376 1.415 . S
C375 C374 1.355 . S
C375 C377 1.419 1_565 S
C376 C374 1.415 . S
C376 C381 1.425 1_565 S
C376 C383 1.409 . S
C377 H369 0.930 . S
C377 C375 1.419 1_545 S
C377 C378 1.362 . S
C378 H370 0.930 . S
C378 C377 1.362 . S
C378 C381 1.409 . S
C379 H371 0.930 . S
C379 C380 1.355 . S
C379 C381 1.415 . S
C380 C379 1.355 . S
C380 C382 1.419 1_545 S
C381 C376 1.425 1_545 S
C381 C378 1.409 . S
C381 C379 1.415 . S
C382 H372 0.930 . S
C382 C380 1.419 1_565 S
C382 C383 1.362 . S
C383 H373 0.930 . S
C383 C376 1.409 . S
C383 C382 1.362 . S
H384 C390 0.930 . S
H385 C393 0.930 . S
H386 C394 0.930 . S
H387 C395 0.930 . S
H388 C398 0.930 . S
H389 C399 0.930 . S
C390 H384 0.930 . S
C390 C391 1.355 . S
C390 C392 1.415 . S
C391 C390 1.355 . S
C391 C393 1.419 1_565 S
C392 C390 1.415 . S
C392 C397 1.425 1_565 S
C392 C399 1.409 . S
C393 H385 0.930 . S
C393 C391 1.419 1_545 S
C393 C394 1.362 . S
C394 H386 0.930 . S
C394 C393 1.362 . S
C394 C397 1.409 . S
C395 H387 0.930 . S
C395 C396 1.355 . S
C395 C397 1.415 . S
C396 C395 1.355 . S
C396 C398 1.419 1_545 S
C397 C392 1.425 1_545 S
C397 C394 1.409 . S
C397 C395 1.415 . S
C398 H388 0.930 . S
C398 C396 1.419 1_565 S
C398 C399 1.362 . S
C399 H389 0.930 . S
C399 C392 1.409 . S
C399 C398 1.362 . S
H400 C406 0.930 . S
H401 C409 0.930 . S
H402 C410 0.930 . S
H403 C411 0.930 . S
H404 C414 0.930 . S
H405 C415 0.930 . S
C406 H400 0.930 . S
C406 C407 1.355 . S
C406 C408 1.415 . S
C407 C406 1.355 . S
C407 C409 1.419 1_545 S
C408 C406 1.415 . S
C408 C413 1.425 1_545 S
C408 C415 1.409 . S
C409 H401 0.930 . S
C409 C407 1.419 1_565 S
C409 C410 1.362 . S
C410 H402 0.930 . S
C410 C409 1.362 . S
C410 C413 1.409 . S
C411 H403 0.930 . S
C411 C412 1.355 . S
C411 C413 1.415 . S
C412 C411 1.355 . S
C412 C414 1.419 1_565 S
C413 C408 1.425 1_565 S
C413 C410 1.409 . S
C413 C411 1.415 . S
C414 H404 0.930 . S
C414 C412 1.419 1_545 S
C414 C415 1.362 . S
C415 H405 0.930 . S
C415 C408 1.409 . S
C415 C414 1.362 . S
H416 C422 0.930 . S
H417 C425 0.930 . S
H418 C426 0.930 1_455 S
H419 C427 0.930 . S
H420 C430 0.930 . S
H421 C431 0.930 1_655 S
C422 H416 0.930 . S
C422 C423 1.355 . S
C422 C424 1.415 . S
C423 C422 1.355 . S
C423 C425 1.419 . S
C424 C422 1.415 . S
C424 C429 1.425 1_655 S
C424 C431 1.409 1_655 S
C425 H417 0.930 . S
C425 C423 1.419 . S
C425 C426 1.362 . S
C426 H418 0.930 1_655 S
C426 C425 1.362 . S
C426 C429 1.409 1_655 S
C427 H419 0.930 . S
C427 C428 1.355 . S
C427 C429 1.415 . S
C428 C427 1.355 . S
C428 C430 1.419 . S
C429 C424 1.425 1_455 S
C429 C426 1.409 1_455 S
C429 C427 1.415 . S
C430 H420 0.930 . S
C430 C428 1.419 . S
C430 C431 1.362 . S
C431 H421 0.930 1_455 S
C431 C424 1.409 1_455 S
C431 C430 1.362 . S
H432 C438 0.930 . S
H433 C441 0.930 . S
H434 C442 0.930 . S
H435 C443 0.930 . S
H436 C446 0.930 . S
H437 C447 0.930 . S
C438 H432 0.930 . S
C438 C439 1.355 . S
C438 C440 1.415 . S
C439 C438 1.355 . S
C439 C441 1.419 . S
C440 C438 1.415 . S
C440 C445 1.425 1_455 S
C440 C447 1.409 1_455 S
C441 H433 0.930 . S
C441 C439 1.419 . S
C441 C442 1.362 . S
C442 H434 0.930 . S
C442 C441 1.362 . S
C442 C445 1.409 1_455 S
C443 H435 0.930 . S
C443 C444 1.355 . S
C443 C445 1.415 . S
C444 C443 1.355 . S
C444 C446 1.419 . S
C445 C440 1.425 1_655 S
C445 C442 1.409 1_655 S
C445 C443 1.415 . S
C446 H436 0.930 . S
C446 C444 1.419 . S
C446 C447 1.362 . S
C447 H437 0.930 . S
C447 C440 1.409 1_655 S
C447 C446 1.362 . S
H448 C454 0.930 . S
H449 C457 0.930 . S
H450 C458 0.930 . S
H451 C459 0.930 . S
H452 C462 0.930 . S
H453 C463 0.930 . S
C454 H448 0.930 . S
C454 C455 1.355 . S
C454 C456 1.415 . S
C455 C454 1.355 . S
C455 C457 1.419 . S
C456 C454 1.415 . S
C456 C461 1.425 1_655 S
C456 C463 1.409 1_655 S
C457 H449 0.930 . S
C457 C455 1.419 . S
C457 C458 1.362 . S
C458 H450 0.930 . S
C458 C457 1.362 . S
C458 C461 1.409 1_655 S
C459 H451 0.930 . S
C459 C460 1.355 . S
C459 C461 1.415 . S
C460 C459 1.355 . S
C460 C462 1.419 . S
C461 C456 1.425 1_455 S
C461 C458 1.409 1_455 S
C461 C459 1.415 . S
C462 H452 0.930 . S
C462 C460 1.419 . S
C462 C463 1.362 . S
C463 H453 0.930 . S
C463 C456 1.409 1_455 S
C463 C462 1.362 . S
H464 C470 0.930 . S
H465 C473 0.930 . S
H466 C474 0.930 1_655 S
H467 C475 0.930 . S
H468 C478 0.930 . S
H469 C479 0.930 1_455 S
C470 H464 0.930 . S
C470 C471 1.355 . S
C470 C472 1.415 . S
C471 C470 1.355 . S
C471 C473 1.419 . S
C472 C470 1.415 . S
C472 C477 1.425 1_455 S
C472 C479 1.409 1_455 S
C473 H465 0.930 . S
C473 C471 1.419 . S
C473 C474 1.362 . S
C474 H466 0.930 1_455 S
C474 C473 1.362 . S
C474 C477 1.409 1_455 S
C475 H467 0.930 . S
C475 C476 1.355 . S
C475 C477 1.415 . S
C476 C475 1.355 . S
C476 C478 1.419 . S
C477 C472 1.425 1_655 S
C477 C474 1.409 1_655 S
C477 C475 1.415 . S
C478 H468 0.930 . S
C478 C476 1.419 . S
C478 C479 1.362 . S
C479 H469 0.930 1_655 S
C479 C472 1.409 1_655 S
C479 C478 1.362 . S
H480 C486 0.930 . S
H481 C489 0.930 . S
H482 C490 0.930 . S
H483 C491 0.930 . S
H484 C494 0.930 . S
H485 C495 0.930 . S
C486 H480 0.930 . S
C486 C487 1.355 . S
C486 C488 1.415 . S
C487 C486 1.355 . S
C487 C489 1.419 . S
C488 C486 1.415 . S
C488 C493 1.425 . S
C488 C495 1.409 . S
C489 H481 0.930 . S
C489 C487 1.419 . S
C489 C490 1.362 . S
C490 H482 0.930 . S
C490 C489 1.362 . S
C490 C493 1.409 . S
C491 H483 0.930 . S
C491 C492 1.355 . S
C491 C493 1.415 . S
C492 C491 1.355 . S
C492 C494 1.419 . S
C493 C488 1.425 . S
C493 C490 1.409 . S
C493 C491 1.415 . S
C494 H484 0.930 . S
C494 C492 1.419 . S
C494 C495 1.362 . S
C495 H485 0.930 . S
C495 C488 1.409 . S
C495 C494 1.362 . S
H496 C502 0.930 . S
H497 C505 0.930 . S
H498 C506 0.930 . S
H499 C507 0.930 . S
H500 C510 0.930 . S
H501 C511 0.930 . S
C502 H496 0.930 . S
C502 C503 1.355 . S
C502 C504 1.415 . S
C503 C502 1.355 . S
C503 C505 1.419 . S
C504 C502 1.415 . S
C504 C509 1.425 . S
C504 C511 1.409 . S
C505 H497 0.930 . S
C505 C503 1.419 . S
C505 C506 1.362 . S
C506 H498 0.930 . S
C506 C505 1.362 . S
C506 C509 1.409 . S
C507 H499 0.930 . S
C507 C508 1.355 . S
C507 C509 1.415 . S
C508 C507 1.355 . S
C508 C510 1.419 . S
C509 C504 1.425 . S
C509 C506 1.409 . S
C509 C507 1.415 . S
C510 H500 0.930 . S
C510 C508 1.419 . S
C510 C511 1.362 . S
C511 H501 0.930 . S
C511 C504 1.409 . S
C511 C510 1.362 . S
H512 C518 0.930 . S
H513 C521 0.930 . S
H514 C522 0.930 . S
H515 C523 0.930 . S
H516 C526 0.930 . S
H517 C527 0.930 . S
C518 H512 0.930 . S
C518 C519 1.355 . S
C518 C520 1.415 . S
C519 C518 1.355 . S
C519 C521 1.419 . S
C520 C518 1.415 . S
C520 C525 1.425 . S
C520 C527 1.409 . S
C521 H513 0.930 . S
C521 C519 1.419 . S
C521 C522 1.362 . S
C522 H514 0.930 . S
C522 C521 1.362 . S
C522 C525 1.409 . S
C523 H515 0.930 . S
C523 C524 1.355 . S
C523 C525 1.415 . S
C524 C523 1.355 . S
C524 C526 1.419 . S
C525 C520 1.425 . S
C525 C522 1.409 . S
C525 C523 1.415 . S
C526 H516 0.930 . S
C526 C524 1.419 . S
C526 C527 1.362 . S
C527 H517 0.930 . S
C527 C520 1.409 . S
C527 C526 1.362 . S
H528 C534 0.930 . S
H529 C537 0.930 . S
H530 C538 0.930 . S
H531 C539 0.930 . S
H532 C542 0.930 . S
H533 C543 0.930 . S
C534 H528 0.930 . S
C534 C535 1.355 . S
C534 C536 1.415 . S
C535 C534 1.355 . S
C535 C537 1.419 . S
C536 C534 1.415 . S
C536 C541 1.425 . S
C536 C543 1.409 . S
C537 H529 0.930 . S
C537 C535 1.419 . S
C537 C538 1.362 . S
C538 H530 0.930 . S
C538 C537 1.362 . S
C538 C541 1.409 . S
C539 H531 0.930 . S
C539 C540 1.355 . S
C539 C541 1.415 . S
C540 C539 1.355 . S
C540 C542 1.419 . S
C541 C536 1.425 . S
C541 C538 1.409 . S
C541 C539 1.415 . S
C542 H532 0.930 . S
C542 C540 1.419 . S
C542 C543 1.362 . S
C543 H533 0.930 . S
C543 C536 1.409 . S
C543 C542 1.362 . S
H544 C550 0.930 . S
H545 C553 0.930 . S
H546 C554 0.930 . S
H547 C555 0.930 . S
H548 C558 0.930 . S
H549 C559 0.930 . S
C550 H544 0.930 . S
C550 C551 1.355 . S
C550 C552 1.415 . S
C551 C550 1.355 . S
C551 C553 1.419 . S
C552 C550 1.415 . S
C552 C557 1.425 . S
C552 C559 1.409 . S
C553 H545 0.930 . S
C553 C551 1.419 . S
C553 C554 1.362 . S
C554 H546 0.930 . S
C554 C553 1.362 . S
C554 C557 1.409 . S
C555 H547 0.930 . S
C555 C556 1.355 . S
C555 C557 1.415 . S
C556 C555 1.355 . S
C556 C558 1.419 . S
C557 C552 1.425 . S
C557 C554 1.409 . S
C557 C555 1.415 . S
C558 H548 0.930 . S
C558 C556 1.419 . S
C558 C559 1.362 . S
C559 H549 0.930 . S
C559 C552 1.409 . S
C559 C558 1.362 . S
H560 C566 0.930 . S
H561 C569 0.930 . S
H562 C570 0.930 . S
H563 C571 0.930 . S
H564 C574 0.930 . S
H565 C575 0.930 . S
C566 H560 0.930 . S
C566 C567 1.355 . S
C566 C568 1.415 . S
C567 C566 1.355 . S
C567 C569 1.419 . S
C568 C566 1.415 . S
C568 C573 1.425 . S
C568 C575 1.409 . S
C569 H561 0.930 . S
C569 C567 1.419 . S
C569 C570 1.362 . S
C570 H562 0.930 . S
C570 C569 1.362 . S
C570 C573 1.409 . S
C571 H563 0.930 . S
C571 C572 1.355 . S
C571 C573 1.415 . S
C572 C571 1.355 . S
C572 C574 1.419 . S
C573 C568 1.425 . S
C573 C570 1.409 . S
C573 C571 1.415 . S
C574 H564 0.930 . S
C574 C572 1.419 . S
C574 C575 1.362 . S
C575 H565 0.930 . S
C575 C568 1.409 . S
C575 C574 1.362 . S
H576 C582 0.930 . S
H577 C585 0.930 . S
H578 C586 0.930 . S
H579 C587 0.930 . S
H580 C590 0.930 . S
H581 C591 0.930 . S
C582 H576 0.930 . S
C582 C583 1.355 . S
C582 C584 1.415 . S
C583 C582 1.355 . S
C583 C585 1.419 . S
C584 C582 1.415 . S
C584 C589 1.425 . S
C584 C591 1.409 . S
C585 H577 0.930 . S
C585 C583 1.419 . S
C585 C586 1.362 . S
C586 H578 0.930 . S
C586 C585 1.362 . S
C586 C589 1.409 . S
C587 H579 0.930 . S
C587 C588 1.355 . S
C587 C589 1.415 . S
C588 C587 1.355 . S
C588 C590 1.419 . S
C589 C584 1.425 . S
C589 C586 1.409 . S
C589 C587 1.415 . S
C590 H580 0.930 . S
C590 C588 1.419 . S
C590 C591 1.362 . S
C591 H581 0.930 . S
C591 C584 1.409 . S
C591 C590 1.362 . S
H592 C598 0.930 . S
H593 C601 0.930 . S
H594 C602 0.930 . S
H595 C603 0.930 . S
H596 C606 0.930 . S
H597 C607 0.930 . S
C598 H592 0.930 . S
C598 C599 1.355 . S
C598 C600 1.415 . S
C599 C598 1.355 . S
C599 C601 1.419 . S
C600 C598 1.415 . S
C600 C605 1.425 . S
C600 C607 1.409 . S
C601 H593 0.930 . S
C601 C599 1.419 . S
C601 C602 1.362 . S
C602 H594 0.930 . S
C602 C601 1.362 . S
C602 C605 1.409 . S
C603 H595 0.930 . S
C603 C604 1.355 . S
C603 C605 1.415 . S
C604 C603 1.355 . S
C604 C606 1.419 . S
C605 C600 1.425 . S
C605 C602 1.409 . S
C605 C603 1.415 . S
C606 H596 0.930 . S
C606 C604 1.419 . S
C606 C607 1.362 . S
C607 H597 0.930 . S
C607 C600 1.409 . S
C607 C606 1.362 . S
H608 C614 0.930 . S
H609 C617 0.930 . S
H610 C618 0.930 . S
H611 C619 0.930 . S
H612 C622 0.930 . S
H613 C623 0.930 . S
C614 H608 0.930 . S
C614 C615 1.355 1_545 S
C614 C616 1.415 . S
C615 C614 1.355 1_565 S
C615 C617 1.419 . S
C616 C614 1.415 . S
C616 C621 1.425 1_545 S
C616 C623 1.409 . S
C617 H609 0.930 . S
C617 C615 1.419 . S
C617 C618 1.362 . S
C618 H610 0.930 . S
C618 C617 1.362 . S
C618 C621 1.409 . S
C619 H611 0.930 . S
C619 C620 1.355 1_565 S
C619 C621 1.415 . S
C620 C619 1.355 1_545 S
C620 C622 1.419 . S
C621 C616 1.425 1_565 S
C621 C618 1.409 . S
C621 C619 1.415 . S
C622 H612 0.930 . S
C622 C620 1.419 . S
C622 C623 1.362 . S
C623 H613 0.930 . S
C623 C616 1.409 . S
C623 C622 1.362 . S
H624 C630 0.930 . S
H625 C633 0.930 . S
H626 C634 0.930 . S
H627 C635 0.930 . S
H628 C638 0.930 . S
H629 C639 0.930 . S
C630 H624 0.930 . S
C630 C631 1.355 1_565 S
C630 C632 1.415 . S
C631 C630 1.355 1_545 S
C631 C633 1.419 . S
C632 C630 1.415 . S
C632 C637 1.425 1_565 S
C632 C639 1.409 . S
C633 H625 0.930 . S
C633 C631 1.419 . S
C633 C634 1.362 . S
C634 H626 0.930 . S
C634 C633 1.362 . S
C634 C637 1.409 . S
C635 H627 0.930 . S
C635 C636 1.355 1_545 S
C635 C637 1.415 . S
C636 C635 1.355 1_565 S
C636 C638 1.419 . S
C637 C632 1.425 1_545 S
C637 C634 1.409 . S
C637 C635 1.415 . S
C638 H628 0.930 . S
C638 C636 1.419 . S
C638 C639 1.362 . S
C639 H629 0.930 . S
C639 C632 1.409 . S
C639 C638 1.362 . S
H640 C646 0.930 . S
H641 C649 0.930 . S
H642 C650 0.930 . S
H643 C651 0.930 . S
H644 C654 0.930 . S
H645 C655 0.930 . S
C646 H640 0.930 . S
C646 C647 1.355 1_545 S
C646 C648 1.415 . S
C647 C646 1.355 1_565 S
C647 C649 1.419 . S
C648 C646 1.415 . S
C648 C653 1.425 1_545 S
C648 C655 1.409 . S
C649 H641 0.930 . S
C649 C647 1.419 . S
C649 C650 1.362 . S
C650 H642 0.930 . S
C650 C649 1.362 . S
C650 C653 1.409 . S
C651 H643 0.930 . S
C651 C652 1.355 1_565 S
C651 C653 1.415 . S
C652 C651 1.355 1_545 S
C652 C654 1.419 . S
C653 C648 1.425 1_565 S
C653 C650 1.409 . S
C653 C651 1.415 . S
C654 H644 0.930 . S
C654 C652 1.419 . S
C654 C655 1.362 . S
C655 H645 0.930 . S
C655 C648 1.409 . S
C655 C654 1.362 . S
H656 C662 0.930 . S
H657 C665 0.930 . S
H658 C666 0.930 . S
H659 C667 0.930 . S
H660 C670 0.930 . S
H661 C671 0.930 . S
C662 H656 0.930 . S
C662 C663 1.355 1_565 S
C662 C664 1.415 . S
C663 C662 1.355 1_545 S
C663 C665 1.419 . S
C664 C662 1.415 . S
C664 C669 1.425 1_565 S
C664 C671 1.409 . S
C665 H657 0.930 . S
C665 C663 1.419 . S
C665 C666 1.362 . S
C666 H658 0.930 . S
C666 C665 1.362 . S
C666 C669 1.409 . S
C667 H659 0.930 . S
C667 C668 1.355 1_545 S
C667 C669 1.415 . S
C668 C667 1.355 1_565 S
C668 C670 1.419 . S
C669 C664 1.425 1_545 S
C669 C666 1.409 . S
C669 C667 1.415 . S
C670 H660 0.930 . S
C670 C668 1.419 . S
C670 C671 1.362 . S
C671 H661 0.930 . S
C671 C664 1.409 . S
C671 C670 1.362 . S
H672 C678 0.930 . S
H673 C681 0.930 . S
H674 C682 0.930 . S
H675 C683 0.930 . S
H676 C686 0.930 . S
H677 C687 0.930 . S
C678 H672 0.930 . S
C678 C679 1.355 . S
C678 C680 1.415 . S
C679 C678 1.355 . S
C679 C681 1.419 . S
C680 C678 1.415 . S
C680 C685 1.425 . S
C680 C687 1.409 . S
C681 H673 0.930 . S
C681 C679 1.419 . S
C681 C682 1.362 . S
C682 H674 0.930 . S
C682 C681 1.362 . S
C682 C685 1.409 . S
C683 H675 0.930 . S
C683 C684 1.355 . S
C683 C685 1.415 . S
C684 C683 1.355 . S
C684 C686 1.419 . S
C685 C680 1.425 . S
C685 C682 1.409 . S
C685 C683 1.415 . S
C686 H676 0.930 . S
C686 C684 1.419 . S
C686 C687 1.362 . S
C687 H677 0.930 . S
C687 C680 1.409 . S
C687 C686 1.362 . S
H688 C694 0.930 . S
H689 C697 0.930 . S
H690 C698 0.930 . S
H691 C699 0.930 . S
H692 C702 0.930 . S
H693 C703 0.930 . S
C694 H688 0.930 . S
C694 C695 1.355 . S
C694 C696 1.415 . S
C695 C694 1.355 . S
C695 C697 1.419 . S
C696 C694 1.415 . S
C696 C701 1.425 . S
C696 C703 1.409 . S
C697 H689 0.930 . S
C697 C695 1.419 . S
C697 C698 1.362 . S
C698 H690 0.930 . S
C698 C697 1.362 . S
C698 C701 1.409 . S
C699 H691 0.930 . S
C699 C700 1.355 . S
C699 C701 1.415 . S
C700 C699 1.355 . S
C700 C702 1.419 . S
C701 C696 1.425 . S
C701 C698 1.409 . S
C701 C699 1.415 . S
C702 H692 0.930 . S
C702 C700 1.419 . S
C702 C703 1.362 . S
C703 H693 0.930 . S
C703 C696 1.409 . S
C703 C702 1.362 . S
H704 C710 0.930 . S
H705 C713 0.930 . S
H706 C714 0.930 . S
H707 C715 0.930 . S
H708 C718 0.930 . S
H709 C719 0.930 . S
C710 H704 0.930 . S
C710 C711 1.355 . S
C710 C712 1.415 . S
C711 C710 1.355 . S
C711 C713 1.419 . S
C712 C710 1.415 . S
C712 C717 1.425 . S
C712 C719 1.409 . S
C713 H705 0.930 . S
C713 C711 1.419 . S
C713 C714 1.362 . S
C714 H706 0.930 . S
C714 C713 1.362 . S
C714 C717 1.409 . S
C715 H707 0.930 . S
C715 C716 1.355 . S
C715 C717 1.415 . S
C716 C715 1.355 . S
C716 C718 1.419 . S
C717 C712 1.425 . S
C717 C714 1.409 . S
C717 C715 1.415 . S
C718 H708 0.930 . S
C718 C716 1.419 . S
C718 C719 1.362 . S
C719 H709 0.930 . S
C719 C712 1.409 . S
C719 C718 1.362 . S
H720 C726 0.930 . S
H721 C729 0.930 . S
H722 C730 0.930 . S
H723 C731 0.930 . S
H724 C734 0.930 . S
H725 C735 0.930 . S
C726 H720 0.930 . S
C726 C727 1.355 . S
C726 C728 1.415 . S
C727 C726 1.355 . S
C727 C729 1.419 . S
C728 C726 1.415 . S
C728 C733 1.425 . S
C728 C735 1.409 . S
C729 H721 0.930 . S
C729 C727 1.419 . S
C729 C730 1.362 . S
C730 H722 0.930 . S
C730 C729 1.362 . S
C730 C733 1.409 . S
C731 H723 0.930 . S
C731 C732 1.355 . S
C731 C733 1.415 . S
C732 C731 1.355 . S
C732 C734 1.419 . S
C733 C728 1.425 . S
C733 C730 1.409 . S
C733 C731 1.415 . S
C734 H724 0.930 . S
C734 C732 1.419 . S
C734 C735 1.362 . S
C735 H725 0.930 . S
C735 C728 1.409 . S
C735 C734 1.362 . S
C231 C9 1.249 . S
C236 C79 1.300 . S
C247 C65 1.304 . S
C252 C23 1.245 . S
C263 C37 1.308 . S
C268 C107 1.241 . S
C279 C93 1.311 . S
C284 C51 1.238 . S
C295 C191 1.302 . S
C300 C121 1.247 . S
C311 C177 1.276 . S
C316 C135 1.274 . S
C327 C219 1.240 . S
C332 C149 1.309 . S
C343 C163 1.312 . S
C348 C205 1.237 . S
C359 C19 1.499 . S
C364 C5 1.501 . S
C375 C33 1.494 . S
C380 C47 1.493 . S
C391 C61 1.493 . S
C396 C75 1.493 . S
C407 C89 1.493 . S
C412 C103 1.493 . S
C423 C117 1.500 . S
C428 C131 1.501 . S
C439 C159 1.496 . S
C444 C145 1.494 . S
C455 C187 1.493 . S
C460 C173 1.494 . S
C471 C201 1.500 . S
C476 C215 1.499 . S
C487 C137 1.497 . S
C492 C11 1.505 . S
C503 C25 1.501 . S
C508 C123 1.499 . S
C519 C165 1.519 . S
C524 C39 1.516 . S
C535 C53 1.513 . S
C540 C151 1.520 . S
C551 C67 1.497 . S
C556 C193 1.506 . S
C567 C179 1.507 . S
C572 C81 1.497 . S
C583 C95 1.520 . S
C588 C221 1.511 . S
C599 C207 1.510 . S
C604 C109 1.498 . S
C615 C0 1.387 1_565 S
C620 C28 1.350 1_545 S
C631 C42 1.356 . S
C636 C14 1.320 . S
C647 C84 1.371 1_565 S
C652 C56 1.381 1_545 S
C663 C98 1.381 1_545 S
C668 C70 1.372 1_565 S
C679 C140 1.322 . S
C684 C112 1.344 . S
C695 C126 1.383 . S
C700 C154 1.336 . S
C711 C196 1.382 . S
C716 C168 1.334 . S
C727 C182 1.327 . S
C732 C210 1.375 . S
