# Generated by pormake.
# Topology umy, (4)-cn, num edge types: 1
# Building blocks:
#     Node 0, Type 0, BuildingBlock: TATPOV_clean_sbu_0, # of connection points: 4
#     Node 1, Type 0, BuildingBlock: TATPOV_clean_sbu_0, # of connection points: 4
#     Node 2, Type 0, BuildingBlock: TATPOV_clean_sbu_0, # of connection points: 4
#     Node 3, Type 0, BuildingBlock: TATPOV_clean_sbu_0, # of connection points: 4
#     Node 4, Type 0, BuildingBlock: TATPOV_clean_sbu_0, # of connection points: 4
#     Node 5, Type 0, BuildingBlock: TATPOV_clean_sbu_0, # of connection points: 4
#     Node 6, Type 0, BuildingBlock: TATPOV_clean_sbu_0, # of connection points: 4
#     Node 7, Type 0, BuildingBlock: TATPOV_clean_sbu_0, # of connection points: 4
#     Node 8, Type 0, BuildingBlock: TATPOV_clean_sbu_0, # of connection points: 4
#     Node 9, Type 0, BuildingBlock: TATPOV_clean_sbu_0, # of connection points: 4
#     Node 10, Type 0, BuildingBlock: TATPOV_clean_sbu_0, # of connection points: 4
#     Node 11, Type 0, BuildingBlock: TATPOV_clean_sbu_0, # of connection points: 4
#     Edge 12, Type (0, 0), BuildingBlock: OJICUG_clean_linker_0, # of connection points: 2
#     Edge 13, Type (0, 0), BuildingBlock: OJICUG_clean_linker_0, # of connection points: 2
#     Edge 14, Type (0, 0), BuildingBlock: OJICUG_clean_linker_0, # of connection points: 2
#     Edge 15, Type (0, 0), BuildingBlock: OJICUG_clean_linker_0, # of connection points: 2
#     Edge 16, Type (0, 0), BuildingBlock: OJICUG_clean_linker_0, # of connection points: 2
#     Edge 17, Type (0, 0), BuildingBlock: OJICUG_clean_linker_0, # of connection points: 2
#     Edge 18, Type (0, 0), BuildingBlock: OJICUG_clean_linker_0, # of connection points: 2
#     Edge 19, Type (0, 0), BuildingBlock: OJICUG_clean_linker_0, # of connection points: 2
#     Edge 20, Type (0, 0), BuildingBlock: OJICUG_clean_linker_0, # of connection points: 2
#     Edge 21, Type (0, 0), BuildingBlock: OJICUG_clean_linker_0, # of connection points: 2
#     Edge 22, Type (0, 0), BuildingBlock: OJICUG_clean_linker_0, # of connection points: 2
#     Edge 23, Type (0, 0), BuildingBlock: OJICUG_clean_linker_0, # of connection points: 2
#     Edge 24, Type (0, 0), BuildingBlock: OJICUG_clean_linker_0, # of connection points: 2
#     Edge 25, Type (0, 0), BuildingBlock: OJICUG_clean_linker_0, # of connection points: 2
#     Edge 26, Type (0, 0), BuildingBlock: OJICUG_clean_linker_0, # of connection points: 2
#     Edge 27, Type (0, 0), BuildingBlock: OJICUG_clean_linker_0, # of connection points: 2
#     Edge 28, Type (0, 0), BuildingBlock: OJICUG_clean_linker_0, # of connection points: 2
#     Edge 29, Type (0, 0), BuildingBlock: OJICUG_clean_linker_0, # of connection points: 2
#     Edge 30, Type (0, 0), BuildingBlock: OJICUG_clean_linker_0, # of connection points: 2
#     Edge 31, Type (0, 0), BuildingBlock: OJICUG_clean_linker_0, # of connection points: 2
#     Edge 32, Type (0, 0), BuildingBlock: OJICUG_clean_linker_0, # of connection points: 2
#     Edge 33, Type (0, 0), BuildingBlock: OJICUG_clean_linker_0, # of connection points: 2
#     Edge 34, Type (0, 0), BuildingBlock: OJICUG_clean_linker_0, # of connection points: 2
#     Edge 35, Type (0, 0), BuildingBlock: OJICUG_clean_linker_0, # of connection points: 2
# Relax obj value: 0.088
# Max RMSD: 0.117
# Mean RMSD: 0.117
data_MOF--net-umy--node1-TATPOV_clean_sbu_0--edge1-OJICUG_clean_linker_0
_symmetry_space_group_name_H-M    P1
_symmetry_Int_Tables_number       1
_symmetry_cell_setting            triclinic
loop_
_symmetry_equiv_pos_as_xyz
'x, y, z'
_cell_length_a     29.478263
_cell_length_b     29.514747
_cell_length_c     36.283674
_cell_angle_alpha  89.793935
_cell_angle_beta   90.315179
_cell_angle_gamma 119.86237
loop_
_atom_site_label
_atom_site_type_symbol
_atom_site_fract_x
_atom_site_fract_y
_atom_site_fract_z
_atom_type_partial_charge
Zn0 Zn 0.06881 0.25898 0.11082 0.0
Zn1 Zn 0.07361 0.34792 0.097 0.0
O2 O -0.00572 0.29705 0.10596 0.0
O3 O -0.00923 0.22133 0.11298 0.0
O4 O 0.07547 0.41451 0.08142 0.0
O5 O 0.10298 0.25805 0.06433 0.0
O6 O 0.11032 0.33458 0.05214 0.0
C7 C 0.96782 0.24785 0.1115 0.0
C8 C 0.12403 0.33622 0.16715 0.0
O9 O 0.11311 0.36492 0.14691 0.0
O10 O 0.11034 0.28996 0.15751 0.0
C11 C 0.06639 0.44277 0.10309 0.0
O12 O 0.05605 0.42909 0.13787 0.0
C13 C 0.11792 0.29706 0.04332 0.0
Zn14 Zn 0.81059 0.09763 0.27676 0.0
Zn15 Zn 0.71804 0.08645 0.26511 0.0
O16 O 0.69977 0.00953 0.27211 0.0
O17 O 0.77801 0.01972 0.282 0.0
O18 O 0.64865 0.08121 0.25431 0.0
O19 O 0.83786 0.13086 0.22839 0.0
O20 O 0.762 0.12671 0.21869 0.0
C21 C 0.729 -0.00993 0.27912 0.0
C22 C 0.78227 0.14575 0.33313 0.0
O23 O 0.73935 0.12505 0.31515 0.0
O24 O 0.82071 0.14214 0.32146 0.0
C25 C 0.60891 0.05502 0.2746 0.0
O26 O 0.61299 0.03015 0.3034 0.0
C27 C 0.80833 0.1402 0.20835 0.0
Zn28 Zn 0.7114 0.81324 0.44053 0.0
Zn29 Zn 0.62969 0.72523 0.42309 0.0
O30 O 0.68435 0.7021 0.43535 0.0
O31 O 0.75256 0.77751 0.4506 0.0
O32 O 0.56616 0.65861 0.40602 0.0
O33 O 0.71788 0.84569 0.39188 0.0
O34 O 0.64326 0.77537 0.37792 0.0
C35 C 0.73171 0.72863 0.44635 0.0
C36 C 0.62726 0.78637 0.4903 0.0
O37 O 0.60619 0.74454 0.4713 0.0
O38 O 0.67168 0.82392 0.4815 0.0
C39 C 0.53362 0.6249 0.42831 0.0
O40 O 0.54159 0.63299 0.46393 0.0
C41 C 0.68073 0.82069 0.36953 0.0
Zn42 Zn 0.89005 0.71173 0.61174 0.0
Zn43 Zn 0.88837 0.62451 0.59721 0.0
O44 O 0.96736 0.67606 0.60687 0.0
O45 O 0.96796 0.74976 0.61719 0.0
O46 O 0.8875 0.55874 0.58122 0.0
O47 O 0.85929 0.71471 0.56393 0.0
O48 O 0.85145 0.63797 0.55212 0.0
C49 C -0.00769 0.72473 0.61442 0.0
C50 C 0.83328 0.63193 0.66588 0.0
O51 O 0.84833 0.60581 0.64667 0.0
O52 O 0.84424 0.67746 0.65606 0.0
C53 C 0.89925 0.53165 0.60234 0.0
O54 O 0.91197 0.54612 0.63681 0.0
C55 C 0.84447 0.67585 0.5429 0.0
Zn56 Zn 0.15375 0.87621 0.77873 0.0
Zn57 Zn 0.24609 0.88804 0.76663 0.0
O58 O 0.26404 0.96499 0.77327 0.0
O59 O 0.18565 0.95399 0.78336 0.0
O60 O 0.31542 0.89339 0.75546 0.0
O61 O 0.12494 0.84243 0.73082 0.0
O62 O 0.20089 0.84739 0.72044 0.0
C63 C 0.23451 0.98403 0.78017 0.0
C64 C 0.18355 0.82911 0.83521 0.0
O65 O 0.22607 0.84987 0.817 0.0
O66 O 0.14469 0.83233 0.82364 0.0
C67 C 0.35533 0.91885 0.77596 0.0
O68 O 0.35151 0.94295 0.80515 0.0
C69 C 0.15413 0.8334 0.7105 0.0
Zn70 Zn 0.25014 0.161 0.93954 0.0
Zn71 Zn 0.33143 0.2492 0.92238 0.0
O72 O 0.27668 0.27192 0.93479 0.0
O73 O 0.20874 0.19629 0.94981 0.0
O74 O 0.39454 0.31597 0.90537 0.0
O75 O 0.24336 0.1288 0.89085 0.0
O76 O 0.31806 0.19913 0.87739 0.0
C77 C 0.22947 0.24521 0.94581 0.0
C78 C 0.33495 0.18814 -0.01053 0.0
O79 O 0.35567 0.23008 0.97054 0.0
O80 O 0.29058 0.15046 0.98054 0.0
C81 C 0.42678 0.34996 0.92773 0.0
O82 O 0.41864 0.34208 0.96333 0.0
C83 C 0.28064 0.15387 0.86879 0.0
Zn84 Zn 0.69465 0.87535 0.69569 0.0
Zn85 Zn 0.61406 0.88721 0.70751 0.0
O86 O 0.67269 0.96413 0.70046 0.0
O87 O 0.74028 0.95316 0.69104 0.0
O88 O 0.54979 0.89252 0.71768 0.0
O89 O 0.68936 0.8415 0.74363 0.0
O90 O 0.61879 0.84721 0.75418 0.0
C91 C 0.72129 0.98318 0.69381 0.0
C92 C 0.6183 0.82796 0.63924 0.0
O93 O 0.59632 0.8486 0.65739 0.0
O94 O 0.66049 0.83147 0.65078 0.0
C95 C 0.54759 0.9185 0.74479 0.0
O96 O 0.58854 0.94299 0.76653 0.0
C97 C 0.65143 0.83295 0.76409 0.0
Zn98 Zn 0.7977 0.71587 0.86585 0.0
Zn99 Zn 0.71293 0.62809 0.88003 0.0
O100 O 0.6847 0.67894 0.86942 0.0
O101 O 0.75702 0.75288 0.85836 0.0
O102 O 0.64812 0.56213 0.89557 0.0
O103 O 0.82975 0.72006 0.91461 0.0
O104 O 0.76264 0.6419 0.92555 0.0
C105 C 0.70772 0.72738 0.86114 0.0
C106 C 0.77775 0.63536 0.8129 0.0
O107 O 0.73584 0.60934 0.83134 0.0
O108 O 0.81172 0.68097 0.82292 0.0
C109 C 0.61094 0.53413 0.87356 0.0
O110 O 0.61469 0.54783 0.83872 0.0
C111 C 0.8064 0.68072 0.93537 0.0
Zn112 Zn 0.07834 0.81641 0.03482 0.0
Zn113 Zn 0.07168 0.72818 0.05235 0.0
O114 O -0.00615 0.70568 0.04098 0.0
O115 O 0.00144 0.7813 0.02549 0.0
O116 O 0.06849 0.6614 0.06958 0.0
O117 O 0.10517 0.84917 0.08321 0.0
O118 O 0.10936 0.77864 0.09711 0.0
C119 C 0.97318 0.73253 0.03015 0.0
C120 C 0.13426 0.78854 0.98452 0.0
O121 O 0.11355 0.74679 0.00368 0.0
O122 O 0.12791 0.82643 -0.0066 0.0
C123 C 0.06727 0.62747 0.04748 0.0
O124 O 0.06734 0.63531 0.01181 0.0
C125 C 0.11755 0.82413 0.10544 0.0
Zn126 Zn 0.27044 0.10226 0.19565 0.0
Zn127 Zn 0.35051 0.08879 0.20729 0.0
O128 O 0.29115 0.01231 0.20069 0.0
O129 O 0.22396 0.02425 0.19173 0.0
O130 O 0.41431 0.08256 0.21716 0.0
O131 O 0.27845 0.13762 0.24332 0.0
O132 O 0.34764 0.12925 0.25389 0.0
C133 C 0.24248 -0.00623 0.19437 0.0
C134 C 0.34576 0.1479 0.13874 0.0
O135 O 0.36768 0.12709 0.15705 0.0
O136 O 0.30401 0.14505 0.15028 0.0
C137 C 0.4165 0.05587 0.24396 0.0
O138 O 0.37571 0.03111 0.26558 0.0
C139 C 0.31642 0.14516 0.26368 0.0
Zn140 Zn 0.168 0.25313 0.36884 0.0
Zn141 Zn 0.24992 0.34339 0.3809 0.0
O142 O 0.28091 0.29489 0.3702 0.0
O143 O 0.21054 0.21843 0.36129 0.0
O144 O 0.31364 0.4109 0.39586 0.0
O145 O 0.13681 0.24816 0.41776 0.0
O146 O 0.20071 0.32874 0.42657 0.0
C147 C 0.25981 0.24626 0.3629 0.0
C148 C 0.18167 0.33114 0.31461 0.0
O149 O 0.22393 0.3597 0.33232 0.0
O150 O 0.15018 0.28521 0.32562 0.0
C151 C 0.35051 0.43928 0.37392 0.0
O152 O 0.34714 0.42515 0.33925 0.0
C153 C 0.1587 0.28871 0.43747 0.0
Zn154 Zn 0.88554 0.15766 0.53446 0.0
Zn155 Zn 0.8943 0.2471 0.5509 0.0
O156 O 0.97177 0.26791 0.54046 0.0
O157 O 0.96251 0.19137 0.5261 0.0
O158 O 0.89889 0.31457 0.56762 0.0
O159 O 0.85742 0.12542 0.58274 0.0
O160 O 0.85557 0.19733 0.59569 0.0
C161 C -0.00842 0.2401 0.53042 0.0
C162 C 0.83166 0.18704 0.48277 0.0
O163 O 0.85291 0.22889 0.50176 0.0
O164 O 0.83693 0.1486 0.49224 0.0
C165 C 0.89761 0.34759 0.54566 0.0
O166 O 0.89408 0.3386 0.51003 0.0
C167 C 0.8459 0.15143 0.60444 0.0
C168 C 0.07152 0.54567 0.03759 0.0
C169 C 0.06672 0.5801 0.06179 0.0
H170 H 0.07551 0.47566 0.03159 0.0
C171 C 0.06184 0.56901 0.09977 0.0
H172 H 0.07546 0.55307 0.00819 0.0
C173 C 0.06164 0.52441 0.1132 0.0
C174 C 0.06668 0.49012 0.08899 0.0
H175 H 0.05803 0.5947 0.11917 0.0
H176 H 0.05774 0.51697 0.14259 0.0
C177 C 0.07168 0.5013 0.05104 0.0
C178 C 0.55545 0.08166 0.23596 0.0
C179 C 0.5591 0.05383 0.26627 0.0
H180 H 0.50774 0.10406 0.20514 0.0
C181 C 0.51502 0.02562 0.28875 0.0
H182 H 0.58862 0.10373 0.21804 0.0
C183 C 0.46849 0.0258 0.28132 0.0
C184 C 0.4651 0.05419 0.25127 0.0
H185 H 0.5165 0.00368 0.31226 0.0
H186 H 0.43535 0.004 0.29932 0.0
C187 C 0.50901 0.08184 0.22856 0.0
C188 C 0.44788 0.54322 0.4387 0.0
C189 C 0.48686 0.57743 0.41428 0.0
H190 H 0.37427 0.47313 0.44515 0.0
C191 C 0.48052 0.56598 0.37637 0.0
H192 H 0.45144 0.55091 0.46804 0.0
C193 C 0.43627 0.52116 0.36322 0.0
C194 C 0.39724 0.48702 0.38766 0.0
H195 H 0.50983 0.59151 0.35681 0.0
H196 H 0.43265 0.51338 0.33389 0.0
C197 C 0.40352 0.49864 0.42553 0.0
C198 C 0.89093 0.47245 0.55018 0.0
C199 C 0.89912 0.48465 0.58794 0.0
H200 H 0.88436 0.42 0.50724 0.0
C201 C 0.90731 0.45162 0.61165 0.0
H202 H 0.88462 0.49712 0.53111 0.0
C203 C 0.90695 0.40719 0.59795 0.0
C204 C 0.89874 0.39501 0.56018 0.0
H205 H 0.91374 0.45988 0.64087 0.0
H206 H 0.91316 0.38243 0.61699 0.0
C207 C 0.89091 0.42825 0.53645 0.0
C208 C 0.45489 0.89285 0.72933 0.0
C209 C 0.49893 0.91988 0.75227 0.0
H210 H 0.37523 0.87138 0.71874 0.0
C211 C 0.49569 0.94751 0.78268 0.0
H212 H 0.45603 0.87123 0.70564 0.0
C213 C 0.44924 0.94759 0.79022 0.0
C214 C 0.40503 0.92006 0.7675 0.0
H215 H 0.52892 0.96882 0.80087 0.0
H216 H 0.44793 0.96896 0.81401 0.0
C217 C 0.4085 0.89294 0.73685 0.0
C218 C 0.51254 0.43162 0.93836 0.0
C219 C 0.47359 0.39731 0.91381 0.0
H220 H 0.58645 0.50141 0.94494 0.0
C221 C 0.48013 0.40842 0.87585 0.0
H222 H 0.50881 0.42419 0.96775 0.0
C223 C 0.52462 0.4529 0.86275 0.0
C224 C 0.56371 0.48703 0.88731 0.0
H225 H 0.45083 0.38281 0.85619 0.0
H226 H 0.52845 0.46035 0.83337 0.0
C227 C 0.55716 0.47587 0.92525 0.0
C228 C 0.19806 0.33032 0.00476 0.0
C229 C 0.14396 0.29705 0.00891 0.0
H230 H 0.26858 0.34022 0.98015 0.0
C231 C 0.11763 0.25413 0.98529 0.0
H232 H 0.21917 0.3632 0.02316 0.0
C233 C 0.14556 0.24103 0.96085 0.0
C234 C 0.20043 0.27036 0.95989 0.0
H235 H 0.07594 0.22782 0.98822 0.0
H236 H 0.1246 0.20504 0.94532 0.0
C237 C 0.22627 0.31709 0.98018 0.0
C238 C 0.85586 0.22204 0.1725 0.0
C239 C 0.82991 0.16724 0.17335 0.0
H240 H 0.92047 0.29175 0.15056 0.0
C241 C 0.8408 0.14048 0.14614 0.0
H242 H 0.84863 0.24338 0.19373 0.0
C243 C 0.88198 0.16794 0.12165 0.0
C244 C 0.91306 0.22254 0.12427 0.0
H245 H 0.82167 0.09819 0.14664 0.0
H246 H 0.89318 0.14604 0.10358 0.0
C247 C 0.89712 0.2497 0.14782 0.0
C248 C 0.64488 0.86485 0.33035 0.0
C249 C 0.68107 0.84754 0.33529 0.0
H250 H 0.63158 0.92449 0.3076 0.0
C251 C 0.72664 0.86966 0.31396 0.0
H252 H 0.60983 0.84877 0.34699 0.0
C253 C 0.73916 0.91274 0.29156 0.0
C254 C 0.70655 0.93484 0.29049 0.0
H255 H 0.7552 0.85703 0.31752 0.0
H256 H 0.77685 0.93183 0.27802 0.0
C257 C 0.65753 0.90837 0.30793 0.0
C258 C 0.73546 0.65621 0.47995 0.0
C259 C 0.76097 0.70328 0.45997 0.0
H260 H 0.74321 0.60954 0.52249 0.0
C261 C 0.81586 0.73257 0.46081 0.0
H262 H 0.69315 0.63308 0.47997 0.0
C263 C 0.84418 0.71914 0.48496 0.0
C264 C 0.81821 0.67592 0.50839 0.0
H265 H 0.83656 0.76879 0.44548 0.0
H266 H 0.8859 0.74547 0.48792 0.0
C267 C 0.76406 0.64265 0.50422 0.0
C268 C 0.07737 0.80551 0.62481 0.0
C269 C 0.04725 0.75081 0.62714 0.0
H270 H 0.13781 0.87541 0.64964 0.0
C271 C 0.06457 0.72392 0.65006 0.0
H272 H 0.06503 0.82717 0.60723 0.0
C273 C 0.10652 0.75179 0.67441 0.0
C274 C 0.13177 0.80656 0.67553 0.0
H275 H 0.0419 0.68178 0.65255 0.0
H276 H 0.1149 0.73052 0.69522 0.0
C277 C 0.1193 0.83318 0.6489 0.0
C278 C 0.3054 0.06648 0.80874 0.0
C279 C 0.25648 0.03938 0.79096 0.0
H280 H 0.35248 0.12671 0.84765 0.0
C281 C 0.2234 0.06095 0.79121 0.0
H282 H 0.33167 0.05074 0.80904 0.0
C283 C 0.23534 0.10415 0.81318 0.0
C284 C 0.28081 0.12691 0.83488 0.0
H285 H 0.18576 0.04135 0.77738 0.0
H286 H 0.20642 0.11635 0.81614 0.0
C287 C 0.31749 0.11014 0.83071 0.0
C288 C 0.63401 0.72484 0.82521 0.0
C289 C 0.67813 0.75259 0.84797 0.0
H290 H 0.58946 0.73002 0.78002 0.0
C291 C 0.70167 0.80724 0.84994 0.0
H292 H 0.61533 0.68272 0.823 0.0
C293 C 0.68639 0.83408 0.82575 0.0
C294 C 0.6474 0.80668 0.7993 0.0
H295 H 0.73559 0.82955 0.86739 0.0
H296 H 0.70933 0.87635 0.82475 0.0
C297 C 0.61896 0.75188 0.80072 0.0
C298 C 0.8532 0.64682 0.97397 0.0
C299 C 0.83302 0.68078 0.96975 0.0
H300 H 0.91439 0.63646 -0.00233 0.0
C301 C 0.85127 0.72443 -0.00716 0.0
H302 H 0.84012 0.61332 0.956 0.0
C303 C 0.89336 0.73759 0.01654 0.0
C304 C 0.91833 0.70761 0.01726 0.0
H305 H 0.83638 0.75124 -0.0101 0.0
H306 H 0.90961 0.7741 0.03155 0.0
C307 C 0.89576 0.66016 -0.00224 0.0
C308 C 0.15411 0.91768 0.18268 0.0
C309 C 0.2086 0.93855 0.18341 0.0
H310 H 0.08164 0.86289 0.15735 0.0
C311 C 0.22991 0.91082 0.16605 0.0
H312 H 0.13642 0.93772 0.19619 0.0
C313 C 0.19809 0.86727 0.14401 0.0
C314 C 0.14488 0.85119 0.13937 0.0
H315 H 0.27177 0.92594 0.16615 0.0
H316 H 0.21617 0.85019 0.12742 0.0
C317 C 0.1226 0.87457 0.16067 0.0
C318 C 0.28566 0.14337 0.32662 0.0
C319 C 0.32181 0.17159 0.2989 0.0
H320 H 0.2382 0.14589 0.37004 0.0
C321 C 0.34779 0.22641 0.2996 0.0
H322 H 0.26458 0.10103 0.32619 0.0
C323 C 0.33279 0.25233 0.32481 0.0
C324 C 0.29099 0.22339 0.34898 0.0
H325 H 0.37505 0.24882 0.27794 0.0
H326 H 0.34921 0.29418 0.32211 0.0
C327 C 0.27033 0.16909 0.35153 0.0
C328 C 0.11276 0.32393 0.47525 0.0
C329 C 0.13165 0.2889 0.47137 0.0
H330 H 0.05256 0.33604 0.49816 0.0
C331 C 0.11222 0.24503 0.49445 0.0
H332 H 0.12682 0.3577 0.45735 0.0
C333 C 0.07018 0.23275 0.51769 0.0
C334 C 0.04642 0.26384 0.51797 0.0
H335 H 0.12621 0.21748 0.49188 0.0
H336 H 0.05304 0.19613 0.53269 0.0
C337 C 0.0702 0.31145 0.49855 0.0
C338 C 0.76469 0.10831 0.64176 0.0
C339 C 0.81823 0.12525 0.63839 0.0
H340 H 0.69092 0.04912 0.66312 0.0
C341 C 0.84068 0.10307 0.66105 0.0
H342 H 0.7465 0.12443 0.62406 0.0
C343 C 0.80917 0.06021 0.68324 0.0
C344 C 0.75456 0.03843 0.68278 0.0
H345 H 0.88186 0.11538 0.65867 0.0
H346 H 0.82707 0.04096 0.69782 0.0
C347 C 0.73289 0.06504 0.664 0.0
C348 C 0.11941 0.33417 0.26969 0.0
C349 C 0.171 0.34785 0.27883 0.0
H350 H 0.0648 0.32207 0.22642 0.0
C351 C 0.20944 0.36763 0.25123 0.0
H352 H 0.08907 0.31847 0.29045 0.0
C353 C 0.19526 0.36863 0.21439 0.0
C354 C 0.14289 0.35145 0.2051 0.0
H355 H 0.24931 0.37761 0.25758 0.0
H356 H 0.22433 0.37926 0.19298 0.0
C357 C 0.10559 0.33641 0.23315 0.0
C358 C 0.76308 0.1412 0.43493 0.0
C359 C 0.8096 0.18563 0.44607 0.0
H360 H 0.7165 0.0951 0.38941 0.0
C361 C 0.84123 0.22241 0.41952 0.0
H362 H 0.73852 0.11207 0.45498 0.0
C363 C 0.82967 0.21181 0.38203 0.0
C364 C 0.78531 0.16533 0.37079 0.0
H365 H 0.87773 0.25651 0.42749 0.0
H366 H 0.85732 0.238 0.36183 0.0
C367 C 0.75049 0.1316 0.39749 0.0
C368 C 0.59729 0.76132 0.59051 0.0
C369 C 0.60143 0.80879 0.60152 0.0
H370 H 0.59947 0.71575 0.54541 0.0
C371 C 0.60265 0.84364 0.57461 0.0
H372 H 0.59705 0.73429 0.6109 0.0
C373 C 0.60595 0.83397 0.5373 0.0
C374 C 0.60611 0.78844 0.52647 0.0
H375 H 0.60679 0.88089 0.58255 0.0
H376 H 0.61235 0.86379 0.5172 0.0
C377 C 0.59858 0.75074 0.55311 0.0
C378 C 0.76229 0.60799 0.71161 0.0
C379 C 0.81155 0.61457 0.70293 0.0
H380 H 0.71175 0.60681 0.75442 0.0
C381 C 0.84534 0.61791 0.7315 0.0
H382 H 0.73618 0.60646 0.6899 0.0
C383 C 0.83222 0.61995 0.7682 0.0
C384 C 0.78445 0.61696 0.7768 0.0
H385 H 0.88399 0.6242 0.72533 0.0
H386 H 0.86086 0.6275 0.78963 0.0
C387 C 0.74839 0.60819 0.74843 0.0
C388 C 0.21538 0.84489 0.89971 0.0
C389 C 0.18142 0.81007 0.873 0.0
H390 H 0.22641 0.86532 0.95705 0.0
C391 C 0.13806 0.76288 0.88428 0.0
H392 H 0.24853 0.88193 0.89157 0.0
C393 C 0.12647 0.75255 0.92175 0.0
C394 C 0.157 0.79026 0.94821 0.0
H395 H 0.11102 0.73587 0.86406 0.0
H396 H 0.09059 0.71779 0.92967 0.0
C397 C 0.2027 0.83549 0.9371 0.0
C398 C 0.35995 0.13111 0.0743 0.0
C399 C 0.36209 0.16652 0.1009 0.0
H400 H 0.34909 0.11026 0.01704 0.0
C401 C 0.36667 0.21411 0.08952 0.0
H402 H 0.35548 0.09378 0.08255 0.0
C403 C 0.36489 0.22432 0.05204 0.0
C404 C 0.35643 0.18613 0.0257 0.0
H405 H 0.36763 0.24157 0.10968 0.0
H406 H 0.36438 0.25948 0.04404 0.0
C407 C 0.35617 0.14044 0.03691 0.0
loop_
_geom_bond_atom_site_label_1
_geom_bond_atom_site_label_2
_geom_bond_distance
_geom_bond_site_symmetry_2
_ccdc_geom_bond_type
Zn0 O3 2.031 . S
Zn0 O5 2.049 . S
Zn0 O10 2.067 . S
Zn1 O2 1.944 1_455 S
Zn1 O4 1.986 . S
Zn1 O6 1.996 . S
Zn1 O9 1.943 . S
O2 Zn1 1.944 1_655 S
O2 C7 1.249 . S
O3 Zn0 2.031 . S
O3 C7 1.269 1_455 S
O4 Zn1 1.986 . S
O4 C11 1.262 . S
O5 Zn0 2.049 . S
O5 C13 1.260 . S
O6 Zn1 1.996 . S
O6 C13 1.257 . S
C7 O2 1.249 . S
C7 O3 1.269 1_655 S
C8 O9 1.249 . S
C8 O10 1.270 . S
O9 Zn1 1.943 . S
O9 C8 1.249 . S
O10 Zn0 2.067 . S
O10 C8 1.270 . S
C11 O4 1.262 . S
C11 O12 1.232 . S
O12 C11 1.232 . S
C13 O5 1.260 . S
C13 O6 1.257 . S
Zn14 O17 2.031 . S
Zn14 O19 2.049 . S
Zn14 O24 2.067 . S
Zn15 O16 1.938 1_545 S
Zn15 O18 1.986 . S
Zn15 O20 1.996 . S
Zn15 O23 1.943 . S
O16 Zn15 1.938 1_565 S
O16 C21 1.267 . S
O17 Zn14 2.031 . S
O17 C21 1.269 1_545 S
O18 Zn15 1.986 . S
O18 C25 1.262 . S
O19 Zn14 2.049 . S
O19 C27 1.260 . S
O20 Zn15 1.996 . S
O20 C27 1.257 . S
C21 O16 1.267 . S
C21 O17 1.269 1_565 S
C22 O23 1.249 . S
C22 O24 1.270 . S
O23 Zn15 1.943 . S
O23 C22 1.249 . S
O24 Zn14 2.067 . S
O24 C22 1.270 . S
C25 O18 1.262 . S
C25 O26 1.232 . S
O26 C25 1.232 . S
C27 O19 1.260 . S
C27 O20 1.257 . S
Zn28 O31 2.031 . S
Zn28 O33 2.049 . S
Zn28 O38 2.067 . S
Zn29 O30 1.962 . S
Zn29 O32 1.986 . S
Zn29 O34 1.996 . S
Zn29 O37 1.943 . S
O30 Zn29 1.962 . S
O30 C35 1.254 . S
O31 Zn28 2.031 . S
O31 C35 1.269 . S
O32 Zn29 1.986 . S
O32 C39 1.262 . S
O33 Zn28 2.049 . S
O33 C41 1.260 . S
O34 Zn29 1.996 . S
O34 C41 1.257 . S
C35 O30 1.254 . S
C35 O31 1.269 . S
C36 O37 1.249 . S
C36 O38 1.270 . S
O37 Zn29 1.943 . S
O37 C36 1.249 . S
O38 Zn28 2.067 . S
O38 C36 1.270 . S
C39 O32 1.262 . S
C39 O40 1.232 . S
O40 C39 1.232 . S
C41 O33 1.260 . S
C41 O34 1.257 . S
Zn42 O45 2.031 . S
Zn42 O47 2.049 . S
Zn42 O52 2.067 . S
Zn43 O44 1.944 1_655 S
Zn43 O46 1.986 . S
Zn43 O48 1.996 . S
Zn43 O51 1.943 . S
O44 Zn43 1.944 1_455 S
O44 C49 1.249 . S
O45 Zn42 2.031 . S
O45 C49 1.269 1_655 S
O46 Zn43 1.986 . S
O46 C53 1.262 . S
O47 Zn42 2.049 . S
O47 C55 1.260 . S
O48 Zn43 1.996 . S
O48 C55 1.257 . S
C49 O44 1.249 . S
C49 O45 1.269 1_455 S
C50 O51 1.249 . S
C50 O52 1.270 . S
O51 Zn43 1.943 . S
O51 C50 1.249 . S
O52 Zn42 2.067 . S
O52 C50 1.270 . S
C53 O46 1.262 . S
C53 O54 1.232 . S
O54 C53 1.232 . S
C55 O47 1.260 . S
C55 O48 1.257 . S
Zn56 O59 2.031 . S
Zn56 O61 2.049 . S
Zn56 O66 2.067 . S
Zn57 O58 1.938 1_565 S
Zn57 O60 1.986 . S
Zn57 O62 1.996 . S
Zn57 O65 1.943 . S
O58 Zn57 1.938 1_545 S
O58 C63 1.267 . S
O59 Zn56 2.031 . S
O59 C63 1.269 1_565 S
O60 Zn57 1.986 . S
O60 C67 1.262 . S
O61 Zn56 2.049 . S
O61 C69 1.260 . S
O62 Zn57 1.996 . S
O62 C69 1.257 . S
C63 O58 1.267 . S
C63 O59 1.269 1_545 S
C64 O65 1.249 . S
C64 O66 1.270 . S
O65 Zn57 1.943 . S
O65 C64 1.249 . S
O66 Zn56 2.067 . S
O66 C64 1.270 . S
C67 O60 1.262 . S
C67 O68 1.232 . S
O68 C67 1.232 . S
C69 O61 1.260 . S
C69 O62 1.257 . S
Zn70 O73 2.035 . S
Zn70 O75 2.049 . S
Zn70 O80 2.067 1_556 S
Zn71 O72 1.962 . S
Zn71 O74 1.986 . S
Zn71 O76 1.996 . S
Zn71 O79 1.943 . S
O72 Zn71 1.962 . S
O72 C77 1.254 . S
O73 Zn70 2.035 . S
O73 C77 1.273 . S
O74 Zn71 1.986 . S
O74 C81 1.262 . S
O75 Zn70 2.049 . S
O75 C83 1.260 . S
O76 Zn71 1.996 . S
O76 C83 1.257 . S
C77 O72 1.254 . S
C77 O73 1.273 . S
C78 O79 1.249 1_554 S
C78 O80 1.270 . S
O79 Zn71 1.943 . S
O79 C78 1.249 1_556 S
O80 Zn70 2.067 1_554 S
O80 C78 1.270 . S
C81 O74 1.262 . S
C81 O82 1.232 . S
O82 C81 1.232 . S
C83 O75 1.260 . S
C83 O76 1.257 . S
Zn84 O87 2.031 . S
Zn84 O89 2.049 . S
Zn84 O94 2.067 . S
Zn85 O86 1.944 1_565 S
Zn85 O88 1.986 . S
Zn85 O90 1.996 . S
Zn85 O93 1.943 . S
O86 Zn85 1.944 1_545 S
O86 C91 1.249 . S
O87 Zn84 2.031 . S
O87 C91 1.269 1_565 S
O88 Zn85 1.986 . S
O88 C95 1.262 . S
O89 Zn84 2.049 . S
O89 C97 1.260 . S
O90 Zn85 1.996 . S
O90 C97 1.257 . S
C91 O86 1.249 . S
C91 O87 1.269 1_545 S
C92 O93 1.249 . S
C92 O94 1.270 . S
O93 Zn85 1.943 . S
O93 C92 1.249 . S
O94 Zn84 2.067 . S
O94 C92 1.270 . S
C95 O88 1.262 . S
C95 O96 1.232 . S
O96 C95 1.232 . S
C97 O89 1.260 . S
C97 O90 1.257 . S
Zn98 O101 2.031 . S
Zn98 O103 2.049 . S
Zn98 O108 2.067 . S
Zn99 O100 1.962 . S
Zn99 O102 1.986 . S
Zn99 O104 1.996 . S
Zn99 O107 1.943 . S
O100 Zn99 1.962 . S
O100 C105 1.254 . S
O101 Zn98 2.031 . S
O101 C105 1.269 . S
O102 Zn99 1.986 . S
O102 C109 1.262 . S
O103 Zn98 2.049 . S
O103 C111 1.260 . S
O104 Zn99 1.996 . S
O104 C111 1.257 . S
C105 O100 1.254 . S
C105 O101 1.269 . S
C106 O107 1.249 . S
C106 O108 1.270 . S
O107 Zn99 1.943 . S
O107 C106 1.249 . S
O108 Zn98 2.067 . S
O108 C106 1.270 . S
C109 O102 1.262 . S
C109 O110 1.232 . S
O110 C109 1.232 . S
C111 O103 1.260 . S
C111 O104 1.257 . S
Zn112 O115 2.035 . S
Zn112 O117 2.049 . S
Zn112 O122 2.067 1_554 S
Zn113 O114 1.938 1_455 S
Zn113 O116 1.986 . S
Zn113 O118 1.996 . S
Zn113 O121 1.943 . S
O114 Zn113 1.938 1_655 S
O114 C119 1.267 . S
O115 Zn112 2.035 . S
O115 C119 1.273 1_455 S
O116 Zn113 1.986 . S
O116 C123 1.262 . S
O117 Zn112 2.049 . S
O117 C125 1.260 . S
O118 Zn113 1.996 . S
O118 C125 1.257 . S
C119 O114 1.267 . S
C119 O115 1.273 1_655 S
C120 O121 1.249 1_556 S
C120 O122 1.270 . S
O121 Zn113 1.943 . S
O121 C120 1.249 1_554 S
O122 Zn112 2.067 1_556 S
O122 C120 1.270 . S
C123 O116 1.262 . S
C123 O124 1.232 . S
O124 C123 1.232 . S
C125 O117 1.260 . S
C125 O118 1.257 . S
Zn126 O129 2.031 . S
Zn126 O131 2.049 . S
Zn126 O136 2.067 . S
Zn127 O128 1.944 1_545 S
Zn127 O130 1.986 . S
Zn127 O132 1.996 . S
Zn127 O135 1.943 . S
O128 Zn127 1.944 1_565 S
O128 C133 1.249 . S
O129 Zn126 2.031 . S
O129 C133 1.269 1_545 S
O130 Zn127 1.986 . S
O130 C137 1.262 . S
O131 Zn126 2.049 . S
O131 C139 1.260 . S
O132 Zn127 1.996 . S
O132 C139 1.257 . S
C133 O128 1.249 . S
C133 O129 1.269 1_565 S
C134 O135 1.249 . S
C134 O136 1.270 . S
O135 Zn127 1.943 . S
O135 C134 1.249 . S
O136 Zn126 2.067 . S
O136 C134 1.270 . S
C137 O130 1.262 . S
C137 O138 1.232 . S
O138 C137 1.232 . S
C139 O131 1.260 . S
C139 O132 1.257 . S
Zn140 O143 2.031 . S
Zn140 O145 2.049 . S
Zn140 O150 2.067 . S
Zn141 O142 1.962 . S
Zn141 O144 1.986 . S
Zn141 O146 1.996 . S
Zn141 O149 1.943 . S
O142 Zn141 1.962 . S
O142 C147 1.254 . S
O143 Zn140 2.031 . S
O143 C147 1.269 . S
O144 Zn141 1.986 . S
O144 C151 1.262 . S
O145 Zn140 2.049 . S
O145 C153 1.260 . S
O146 Zn141 1.996 . S
O146 C153 1.257 . S
C147 O142 1.254 . S
C147 O143 1.269 . S
C148 O149 1.249 . S
C148 O150 1.270 . S
O149 Zn141 1.943 . S
O149 C148 1.249 . S
O150 Zn140 2.067 . S
O150 C148 1.270 . S
C151 O144 1.262 . S
C151 O152 1.232 . S
O152 C151 1.232 . S
C153 O145 1.260 . S
C153 O146 1.257 . S
Zn154 O157 2.031 . S
Zn154 O159 2.049 . S
Zn154 O164 2.067 . S
Zn155 O156 1.938 1_655 S
Zn155 O158 1.986 . S
Zn155 O160 1.996 . S
Zn155 O163 1.943 . S
O156 Zn155 1.938 1_455 S
O156 C161 1.267 . S
O157 Zn154 2.031 . S
O157 C161 1.269 1_655 S
O158 Zn155 1.986 . S
O158 C165 1.262 . S
O159 Zn154 2.049 . S
O159 C167 1.260 . S
O160 Zn155 1.996 . S
O160 C167 1.257 . S
C161 O156 1.267 . S
C161 O157 1.269 1_455 S
C162 O163 1.249 . S
C162 O164 1.270 . S
O163 Zn155 1.943 . S
O163 C162 1.249 . S
O164 Zn154 2.067 . S
O164 C162 1.270 . S
C165 O158 1.262 . S
C165 O166 1.232 . S
O166 C165 1.232 . S
C167 O159 1.260 . S
C167 O160 1.257 . S
C168 C169 1.387 . S
C168 H172 0.950 . S
C168 C177 1.390 . S
C169 C168 1.387 . S
C169 C171 1.387 . S
H170 C177 0.950 . S
C171 C169 1.387 . S
C171 C173 1.390 . S
C171 H175 0.950 . S
H172 C168 0.950 . S
C173 C171 1.390 . S
C173 C174 1.387 . S
C173 H176 0.950 . S
C174 C173 1.387 . S
C174 C177 1.387 . S
H175 C171 0.950 . S
H176 C173 0.950 . S
C177 C168 1.390 . S
C177 H170 0.950 . S
C177 C174 1.387 . S
C178 C179 1.387 . S
C178 H182 0.950 . S
C178 C187 1.390 . S
C179 C178 1.387 . S
C179 C181 1.387 . S
H180 C187 0.950 . S
C181 C179 1.387 . S
C181 C183 1.390 . S
C181 H185 0.950 . S
H182 C178 0.950 . S
C183 C181 1.390 . S
C183 C184 1.387 . S
C183 H186 0.950 . S
C184 C183 1.387 . S
C184 C187 1.387 . S
H185 C181 0.950 . S
H186 C183 0.950 . S
C187 C178 1.390 . S
C187 H180 0.950 . S
C187 C184 1.387 . S
C188 C189 1.387 . S
C188 H192 0.950 . S
C188 C197 1.390 . S
C189 C188 1.387 . S
C189 C191 1.387 . S
H190 C197 0.950 . S
C191 C189 1.387 . S
C191 C193 1.390 . S
C191 H195 0.950 . S
H192 C188 0.950 . S
C193 C191 1.390 . S
C193 C194 1.387 . S
C193 H196 0.950 . S
C194 C193 1.387 . S
C194 C197 1.387 . S
H195 C191 0.950 . S
H196 C193 0.950 . S
C197 C188 1.390 . S
C197 H190 0.950 . S
C197 C194 1.387 . S
C198 C199 1.387 . S
C198 H202 0.950 . S
C198 C207 1.390 . S
C199 C198 1.387 . S
C199 C201 1.387 . S
H200 C207 0.950 . S
C201 C199 1.387 . S
C201 C203 1.390 . S
C201 H205 0.950 . S
H202 C198 0.950 . S
C203 C201 1.390 . S
C203 C204 1.387 . S
C203 H206 0.950 . S
C204 C203 1.387 . S
C204 C207 1.387 . S
H205 C201 0.950 . S
H206 C203 0.950 . S
C207 C198 1.390 . S
C207 H200 0.950 . S
C207 C204 1.387 . S
C208 C209 1.387 . S
C208 H212 0.950 . S
C208 C217 1.390 . S
C209 C208 1.387 . S
C209 C211 1.387 . S
H210 C217 0.950 . S
C211 C209 1.387 . S
C211 C213 1.390 . S
C211 H215 0.950 . S
H212 C208 0.950 . S
C213 C211 1.390 . S
C213 C214 1.387 . S
C213 H216 0.950 . S
C214 C213 1.387 . S
C214 C217 1.387 . S
H215 C211 0.950 . S
H216 C213 0.950 . S
C217 C208 1.390 . S
C217 H210 0.950 . S
C217 C214 1.387 . S
C218 C219 1.387 . S
C218 H222 0.950 . S
C218 C227 1.390 . S
C219 C218 1.387 . S
C219 C221 1.387 . S
H220 C227 0.950 . S
C221 C219 1.387 . S
C221 C223 1.390 . S
C221 H225 0.950 . S
H222 C218 0.950 . S
C223 C221 1.390 . S
C223 C224 1.387 . S
C223 H226 0.950 . S
C224 C223 1.387 . S
C224 C227 1.387 . S
H225 C221 0.950 . S
H226 C223 0.950 . S
C227 C218 1.390 . S
C227 H220 0.950 . S
C227 C224 1.387 . S
C228 C229 1.387 . S
C228 H232 0.950 . S
C228 C237 1.390 . S
C229 C228 1.387 . S
C229 C231 1.387 . S
H230 C237 0.950 1_556 S
C231 C229 1.387 . S
C231 C233 1.390 . S
C231 H235 0.950 . S
H232 C228 0.950 . S
C233 C231 1.390 . S
C233 C234 1.387 . S
C233 H236 0.950 . S
C234 C233 1.387 . S
C234 C237 1.387 . S
H235 C231 0.950 . S
H236 C233 0.950 . S
C237 C228 1.390 . S
C237 H230 0.950 1_554 S
C237 C234 1.387 . S
C238 C239 1.387 . S
C238 H242 0.950 . S
C238 C247 1.390 . S
C239 C238 1.387 . S
C239 C241 1.387 . S
H240 C247 0.950 . S
C241 C239 1.387 . S
C241 C243 1.390 . S
C241 H245 0.950 . S
H242 C238 0.950 . S
C243 C241 1.390 . S
C243 C244 1.387 . S
C243 H246 0.950 . S
C244 C243 1.387 . S
C244 C247 1.387 . S
H245 C241 0.950 . S
H246 C243 0.950 . S
C247 C238 1.390 . S
C247 H240 0.950 . S
C247 C244 1.387 . S
C248 C249 1.387 . S
C248 H252 0.950 . S
C248 C257 1.390 . S
C249 C248 1.387 . S
C249 C251 1.387 . S
H250 C257 0.950 . S
C251 C249 1.387 . S
C251 C253 1.390 . S
C251 H255 0.950 . S
H252 C248 0.950 . S
C253 C251 1.390 . S
C253 C254 1.387 . S
C253 H256 0.950 . S
C254 C253 1.387 . S
C254 C257 1.387 . S
H255 C251 0.950 . S
H256 C253 0.950 . S
C257 C248 1.390 . S
C257 H250 0.950 . S
C257 C254 1.387 . S
C258 C259 1.387 . S
C258 H262 0.950 . S
C258 C267 1.390 . S
C259 C258 1.387 . S
C259 C261 1.387 . S
H260 C267 0.950 . S
C261 C259 1.387 . S
C261 C263 1.390 . S
C261 H265 0.950 . S
H262 C258 0.950 . S
C263 C261 1.390 . S
C263 C264 1.387 . S
C263 H266 0.950 . S
C264 C263 1.387 . S
C264 C267 1.387 . S
H265 C261 0.950 . S
H266 C263 0.950 . S
C267 C258 1.390 . S
C267 H260 0.950 . S
C267 C264 1.387 . S
C268 C269 1.387 . S
C268 H272 0.950 . S
C268 C277 1.390 . S
C269 C268 1.387 . S
C269 C271 1.387 . S
H270 C277 0.950 . S
C271 C269 1.387 . S
C271 C273 1.390 . S
C271 H275 0.950 . S
H272 C268 0.950 . S
C273 C271 1.390 . S
C273 C274 1.387 . S
C273 H276 0.950 . S
C274 C273 1.387 . S
C274 C277 1.387 . S
H275 C271 0.950 . S
H276 C273 0.950 . S
C277 C268 1.390 . S
C277 H270 0.950 . S
C277 C274 1.387 . S
C278 C279 1.387 . S
C278 H282 0.950 . S
C278 C287 1.390 . S
C279 C278 1.387 . S
C279 C281 1.387 . S
H280 C287 0.950 . S
C281 C279 1.387 . S
C281 C283 1.390 . S
C281 H285 0.950 . S
H282 C278 0.950 . S
C283 C281 1.390 . S
C283 C284 1.387 . S
C283 H286 0.950 . S
C284 C283 1.387 . S
C284 C287 1.387 . S
H285 C281 0.950 . S
H286 C283 0.950 . S
C287 C278 1.390 . S
C287 H280 0.950 . S
C287 C284 1.387 . S
C288 C289 1.387 . S
C288 H292 0.950 . S
C288 C297 1.390 . S
C289 C288 1.387 . S
C289 C291 1.387 . S
H290 C297 0.950 . S
C291 C289 1.387 . S
C291 C293 1.390 . S
C291 H295 0.950 . S
H292 C288 0.950 . S
C293 C291 1.390 . S
C293 C294 1.387 . S
C293 H296 0.950 . S
C294 C293 1.387 . S
C294 C297 1.387 . S
H295 C291 0.950 . S
H296 C293 0.950 . S
C297 C288 1.390 . S
C297 H290 0.950 . S
C297 C294 1.387 . S
C298 C299 1.387 . S
C298 H302 0.950 . S
C298 C307 1.390 . S
C299 C298 1.387 . S
C299 C301 1.387 . S
H300 C307 0.950 1_554 S
C301 C299 1.387 . S
C301 C303 1.390 . S
C301 H305 0.950 . S
H302 C298 0.950 . S
C303 C301 1.390 . S
C303 C304 1.387 . S
C303 H306 0.950 . S
C304 C303 1.387 . S
C304 C307 1.387 . S
H305 C301 0.950 . S
H306 C303 0.950 . S
C307 C298 1.390 . S
C307 H300 0.950 1_556 S
C307 C304 1.387 . S
C308 C309 1.387 . S
C308 H312 0.950 . S
C308 C317 1.390 . S
C309 C308 1.387 . S
C309 C311 1.387 . S
H310 C317 0.950 . S
C311 C309 1.387 . S
C311 C313 1.390 . S
C311 H315 0.950 . S
H312 C308 0.950 . S
C313 C311 1.390 . S
C313 C314 1.387 . S
C313 H316 0.950 . S
C314 C313 1.387 . S
C314 C317 1.387 . S
H315 C311 0.950 . S
H316 C313 0.950 . S
C317 C308 1.390 . S
C317 H310 0.950 . S
C317 C314 1.387 . S
C318 C319 1.387 . S
C318 H322 0.950 . S
C318 C327 1.390 . S
C319 C318 1.387 . S
C319 C321 1.387 . S
H320 C327 0.950 . S
C321 C319 1.387 . S
C321 C323 1.390 . S
C321 H325 0.950 . S
H322 C318 0.950 . S
C323 C321 1.390 . S
C323 C324 1.387 . S
C323 H326 0.950 . S
C324 C323 1.387 . S
C324 C327 1.387 . S
H325 C321 0.950 . S
H326 C323 0.950 . S
C327 C318 1.390 . S
C327 H320 0.950 . S
C327 C324 1.387 . S
C328 C329 1.387 . S
C328 H332 0.950 . S
C328 C337 1.390 . S
C329 C328 1.387 . S
C329 C331 1.387 . S
H330 C337 0.950 . S
C331 C329 1.387 . S
C331 C333 1.390 . S
C331 H335 0.950 . S
H332 C328 0.950 . S
C333 C331 1.390 . S
C333 C334 1.387 . S
C333 H336 0.950 . S
C334 C333 1.387 . S
C334 C337 1.387 . S
H335 C331 0.950 . S
H336 C333 0.950 . S
C337 C328 1.390 . S
C337 H330 0.950 . S
C337 C334 1.387 . S
C338 C339 1.387 . S
C338 H342 0.950 . S
C338 C347 1.390 . S
C339 C338 1.387 . S
C339 C341 1.387 . S
H340 C347 0.950 . S
C341 C339 1.387 . S
C341 C343 1.390 . S
C341 H345 0.950 . S
H342 C338 0.950 . S
C343 C341 1.390 . S
C343 C344 1.387 . S
C343 H346 0.950 . S
C344 C343 1.387 . S
C344 C347 1.387 . S
H345 C341 0.950 . S
H346 C343 0.950 . S
C347 C338 1.390 . S
C347 H340 0.950 . S
C347 C344 1.387 . S
C348 C349 1.387 . S
C348 H352 0.950 . S
C348 C357 1.390 . S
C349 C348 1.387 . S
C349 C351 1.387 . S
H350 C357 0.950 . S
C351 C349 1.387 . S
C351 C353 1.390 . S
C351 H355 0.950 . S
H352 C348 0.950 . S
C353 C351 1.390 . S
C353 C354 1.387 . S
C353 H356 0.950 . S
C354 C353 1.387 . S
C354 C357 1.387 . S
H355 C351 0.950 . S
H356 C353 0.950 . S
C357 C348 1.390 . S
C357 H350 0.950 . S
C357 C354 1.387 . S
C358 C359 1.387 . S
C358 H362 0.950 . S
C358 C367 1.390 . S
C359 C358 1.387 . S
C359 C361 1.387 . S
H360 C367 0.950 . S
C361 C359 1.387 . S
C361 C363 1.390 . S
C361 H365 0.950 . S
H362 C358 0.950 . S
C363 C361 1.390 . S
C363 C364 1.387 . S
C363 H366 0.950 . S
C364 C363 1.387 . S
C364 C367 1.387 . S
H365 C361 0.950 . S
H366 C363 0.950 . S
C367 C358 1.390 . S
C367 H360 0.950 . S
C367 C364 1.387 . S
C368 C369 1.387 . S
C368 H372 0.950 . S
C368 C377 1.390 . S
C369 C368 1.387 . S
C369 C371 1.387 . S
H370 C377 0.950 . S
C371 C369 1.387 . S
C371 C373 1.390 . S
C371 H375 0.950 . S
H372 C368 0.950 . S
C373 C371 1.390 . S
C373 C374 1.387 . S
C373 H376 0.950 . S
C374 C373 1.387 . S
C374 C377 1.387 . S
H375 C371 0.950 . S
H376 C373 0.950 . S
C377 C368 1.390 . S
C377 H370 0.950 . S
C377 C374 1.387 . S
C378 C379 1.387 . S
C378 H382 0.950 . S
C378 C387 1.390 . S
C379 C378 1.387 . S
C379 C381 1.387 . S
H380 C387 0.950 . S
C381 C379 1.387 . S
C381 C383 1.390 . S
C381 H385 0.950 . S
H382 C378 0.950 . S
C383 C381 1.390 . S
C383 C384 1.387 . S
C383 H386 0.950 . S
C384 C383 1.387 . S
C384 C387 1.387 . S
H385 C381 0.950 . S
H386 C383 0.950 . S
C387 C378 1.390 . S
C387 H380 0.950 . S
C387 C384 1.387 . S
C388 C389 1.387 . S
C388 H392 0.950 . S
C388 C397 1.390 . S
C389 C388 1.387 . S
C389 C391 1.387 . S
H390 C397 0.950 . S
C391 C389 1.387 . S
C391 C393 1.390 . S
C391 H395 0.950 . S
H392 C388 0.950 . S
C393 C391 1.390 . S
C393 C394 1.387 . S
C393 H396 0.950 . S
C394 C393 1.387 . S
C394 C397 1.387 . S
H395 C391 0.950 . S
H396 C393 0.950 . S
C397 C388 1.390 . S
C397 H390 0.950 . S
C397 C394 1.387 . S
C398 C399 1.387 . S
C398 H402 0.950 . S
C398 C407 1.390 . S
C399 C398 1.387 . S
C399 C401 1.387 . S
H400 C407 0.950 . S
C401 C399 1.387 . S
C401 C403 1.390 . S
C401 H405 0.950 . S
H402 C398 0.950 . S
C403 C401 1.390 . S
C403 C404 1.387 . S
C403 H406 0.950 . S
C404 C403 1.387 . S
C404 C407 1.387 . S
H405 C401 0.950 . S
H406 C403 0.950 . S
C407 C398 1.390 . S
C407 H400 0.950 . S
C407 C404 1.387 . S
C169 C123 1.442 . S
C174 C11 1.443 . S
C179 C25 1.441 . S
C184 C137 1.441 . S
C189 C39 1.441 . S
C194 C151 1.442 . S
C199 C53 1.442 . S
C204 C165 1.441 . S
C209 C95 1.441 . S
C214 C67 1.441 . S
C219 C81 1.441 . S
C224 C109 1.442 . S
C229 C13 1.369 . S
C234 C77 1.424 1_554 S
C239 C27 1.368 . S
C244 C7 1.424 . S
C249 C41 1.369 . S
C254 C21 1.424 . S
C259 C35 1.424 . S
C264 C55 1.369 . S
C269 C49 1.425 . S
C274 C69 1.366 . S
C279 C63 1.423 . S
C284 C83 1.370 . S
C289 C105 1.423 . S
C294 C97 1.370 . S
C299 C111 1.369 . S
C304 C119 1.424 1_556 S
C309 C133 1.424 . S
C314 C125 1.368 . S
C319 C139 1.366 . S
C324 C147 1.426 . S
C329 C153 1.368 . S
C334 C161 1.424 . S
C339 C167 1.369 . S
C344 C91 1.423 . S
C349 C148 1.311 . S
C354 C8 1.311 . S
C359 C162 1.308 . S
C364 C22 1.309 . S
C369 C92 1.310 . S
C374 C36 1.311 . S
C379 C50 1.308 . S
C384 C106 1.308 . S
C389 C64 1.311 . S
C394 C120 1.310 . S
C399 C134 1.311 . S
C404 C78 1.308 . S
