# Generated by pormake.
# Topology qtz-f, (3)-cn, num edge types: 1
# Building blocks:
#     Node 0, Type 0, BuildingBlock: OLANEW_clean_sbu_2, # of connection points: 3
#     Node 1, Type 0, BuildingBlock: OLANEW_clean_sbu_2, # of connection points: 3
#     Node 2, Type 0, BuildingBlock: OLANEW_clean_sbu_2, # of connection points: 3
#     Node 3, Type 0, BuildingBlock: OLANEW_clean_sbu_2, # of connection points: 3
#     Node 4, Type 0, BuildingBlock: OLANEW_clean_sbu_2, # of connection points: 3
#     Node 5, Type 0, BuildingBlock: OLANEW_clean_sbu_2, # of connection points: 3
#     Node 6, Type 0, BuildingBlock: OLANEW_clean_sbu_2, # of connection points: 3
#     Node 7, Type 0, BuildingBlock: OLANEW_clean_sbu_2, # of connection points: 3
#     Node 8, Type 0, BuildingBlock: OLANEW_clean_sbu_2, # of connection points: 3
#     Node 9, Type 0, BuildingBlock: OLANEW_clean_sbu_2, # of connection points: 3
#     Node 10, Type 0, BuildingBlock: OLANEW_clean_sbu_2, # of connection points: 3
#     Node 11, Type 0, BuildingBlock: OLANEW_clean_sbu_2, # of connection points: 3
#     Edge 12, Type (0, 0), BuildingBlock: XIVTED_clean_linker_0, # of connection points: 2
#     Edge 13, Type (0, 0), BuildingBlock: XIVTED_clean_linker_0, # of connection points: 2
#     Edge 14, Type (0, 0), BuildingBlock: XIVTED_clean_linker_0, # of connection points: 2
#     Edge 15, Type (0, 0), BuildingBlock: XIVTED_clean_linker_0, # of connection points: 2
#     Edge 16, Type (0, 0), BuildingBlock: XIVTED_clean_linker_0, # of connection points: 2
#     Edge 17, Type (0, 0), BuildingBlock: XIVTED_clean_linker_0, # of connection points: 2
#     Edge 18, Type (0, 0), BuildingBlock: XIVTED_clean_linker_0, # of connection points: 2
#     Edge 19, Type (0, 0), BuildingBlock: XIVTED_clean_linker_0, # of connection points: 2
#     Edge 20, Type (0, 0), BuildingBlock: XIVTED_clean_linker_0, # of connection points: 2
#     Edge 21, Type (0, 0), BuildingBlock: XIVTED_clean_linker_0, # of connection points: 2
#     Edge 22, Type (0, 0), BuildingBlock: XIVTED_clean_linker_0, # of connection points: 2
#     Edge 23, Type (0, 0), BuildingBlock: XIVTED_clean_linker_0, # of connection points: 2
#     Edge 24, Type (0, 0), BuildingBlock: XIVTED_clean_linker_0, # of connection points: 2
#     Edge 25, Type (0, 0), BuildingBlock: XIVTED_clean_linker_0, # of connection points: 2
#     Edge 26, Type (0, 0), BuildingBlock: XIVTED_clean_linker_0, # of connection points: 2
#     Edge 27, Type (0, 0), BuildingBlock: XIVTED_clean_linker_0, # of connection points: 2
#     Edge 28, Type (0, 0), BuildingBlock: XIVTED_clean_linker_0, # of connection points: 2
#     Edge 29, Type (0, 0), BuildingBlock: XIVTED_clean_linker_0, # of connection points: 2
# Relax obj value: 0.008
# Max RMSD: 0.022
# Mean RMSD: 0.022
data_MOF--net-qtz-f--node1-OLANEW_clean_sbu_2--edge1-XIVTED_clean_linker_0
_symmetry_space_group_name_H-M    P1
_symmetry_Int_Tables_number       1
_symmetry_cell_setting            triclinic
loop_
_symmetry_equiv_pos_as_xyz
'x, y, z'
_cell_length_a     74.098927
_cell_length_b     74.106645
_cell_length_c     24.760997
_cell_angle_alpha  89.994815
_cell_angle_beta   89.994451
_cell_angle_gamma 119.99638
loop_
_atom_site_label
_atom_site_type_symbol
_atom_site_fract_x
_atom_site_fract_y
_atom_site_fract_z
_atom_type_partial_charge
O0 O 0.13702 0.49201 0.134 0.0
Cd1 Cd 0.12903 0.45592 0.12432 0.0
O2 O 0.12669 0.48819 0.21861 0.0
Cd3 Cd 0.11125 0.45423 0.21486 0.0
O4 O 0.08159 0.42506 0.20818 0.0
C5 C 0.0729 0.41964 0.16216 0.0
O6 O 0.08287 0.43082 0.11967 0.0
C7 C 0.13499 0.49984 0.17772 0.0
C8 C 0.16391 0.45446 0.08773 0.0
O9 O 0.15071 0.45453 0.05443 0.0
O10 O 0.16052 0.4549 0.13835 0.0
O11 O 0.64131 0.13682 0.41484 0.0
Cd12 Cd 0.6683 0.12788 0.39585 0.0
O13 O 0.6437 0.13461 0.50286 0.0
Cd14 Cd 0.66212 0.11918 0.49484 0.0
O15 O 0.66155 0.08949 0.48843 0.0
C16 C 0.65967 0.07925 0.5313 0.0
O17 O 0.65996 0.08771 0.57817 0.0
C18 C 0.63602 0.13893 0.46227 0.0
C19 C 0.70642 0.16363 0.37486 0.0
O20 O 0.69372 0.15355 0.3365 0.0
O21 O 0.70115 0.15671 0.42312 0.0
O22 O 0.50624 0.64475 0.77842 0.0
Cd23 Cd 0.54266 0.67147 0.76435 0.0
O24 O 0.5099 0.64351 0.86626 0.0
Cd25 Cd 0.54391 0.66118 0.86261 0.0
O26 O 0.57279 0.65999 0.86655 0.0
C27 C 0.57932 0.65526 0.82442 0.0
O28 O 0.56948 0.65293 0.77854 0.0
C29 C 0.49829 0.63782 0.82463 0.0
C30 C 0.54567 0.70811 0.72454 0.0
O31 O 0.54427 0.69389 0.69247 0.0
O32 O 0.54579 0.70506 0.77547 0.0
O33 O 0.86124 0.50645 0.11437 0.0
Cd34 Cd 0.87073 0.5422 0.09107 0.0
O35 O 0.87241 0.51443 0.19805 0.0
Cd36 Cd 0.88866 0.54797 0.18287 0.0
O37 O 0.91832 0.57656 0.16898 0.0
C38 C 0.92633 0.58015 0.12204 0.0
O39 O 0.91573 0.5674 0.08249 0.0
C40 C 0.8634 0.50081 0.16131 0.0
C41 C 0.83711 0.54395 0.0461 0.0
O42 O 0.84985 0.54146 0.0163 0.0
O43 O 0.84033 0.5457 0.09719 0.0
O44 O 0.35417 0.85973 0.48121 0.0
Cd45 Cd 0.32309 0.86315 0.48889 0.0
O46 O 0.36133 0.86748 0.56717 0.0
Cd47 Cd 0.34205 0.88208 0.57235 0.0
O48 O 0.34206 0.91153 0.56643 0.0
C49 C 0.3434 0.91935 0.51989 0.0
O50 O 0.34293 0.90862 0.47714 0.0
C51 C 0.36489 0.86116 0.52282 0.0
C52 C 0.28889 0.83045 0.43753 0.0
O53 O 0.29511 0.82787 0.48363 0.0
O54 O 0.29874 0.8485 0.41551 0.0
O55 O 0.4958 0.35599 0.8032 0.0
Cd56 Cd 0.46002 0.32905 0.78261 0.0
O57 O 0.48785 0.36102 0.88532 0.0
Cd58 Cd 0.45424 0.3429 0.87187 0.0
O59 O 0.42527 0.34343 0.8603 0.0
C60 C 0.42093 0.34732 0.81362 0.0
O61 O 0.43312 0.34917 0.77291 0.0
C62 C 0.50144 0.3649 0.84895 0.0
C63 C 0.45837 0.2924 0.7482 0.0
O64 O 0.46041 0.30635 0.71422 0.0
O65 O 0.45699 0.29574 0.79842 0.0
O66 O 0.50907 0.86264 0.54192 0.0
Cd67 Cd 0.54526 0.87056 0.54704 0.0
O68 O 0.51131 0.87215 0.4569 0.0
Cd69 Cd 0.5453 0.88747 0.45644 0.0
O70 O 0.57478 0.91695 0.46035 0.0
C71 C 0.58123 0.92568 0.506 0.0
O72 O 0.57087 0.91588 0.54963 0.0
C73 C 0.50044 0.86429 0.49924 0.0
C74 C 0.54746 0.83641 0.58631 0.0
O75 O 0.54809 0.85027 0.61845 0.0
O76 O 0.54595 0.83879 0.53555 0.0
O77 O 0.64718 0.50512 0.84816 0.0
Cd78 Cd 0.67601 0.5411 0.84592 0.0
O79 O 0.63736 0.50858 0.92947 0.0
Cd80 Cd 0.65638 0.54253 0.92846 0.0
O81 O 0.65663 0.57194 0.91794 0.0
C82 C 0.65382 0.5768 0.87071 0.0
O83 O 0.65266 0.56491 0.82996 0.0
C84 C 0.63549 0.49714 0.88915 0.0
C85 C 0.71194 0.54377 0.88987 0.0
O86 O 0.69897 0.54589 0.91964 0.0
O87 O 0.708 0.54058 0.83925 0.0
O88 O 0.13834 0.64497 0.21264 0.0
Cd89 Cd 0.13438 0.67582 0.20894 0.0
O90 O 0.13448 0.64108 0.12457 0.0
Cd91 Cd 0.12 0.66046 0.11906 0.0
O92 O 0.09048 0.66038 0.12169 0.0
C93 C 0.07945 0.65569 0.07913 0.0
O94 O 0.08703 0.65287 0.03396 0.0
C95 C 0.13892 0.63592 0.16953 0.0
C96 C 0.16798 0.70998 0.25782 0.0
O97 O 0.16965 0.70396 0.21053 0.0
O98 O 0.15042 0.69996 0.28216 0.0
O99 O 0.49696 0.1377 0.5737 0.0
Cd100 Cd 0.46113 0.12829 0.59589 0.0
O101 O 0.4898 0.12933 0.48803 0.0
Cd102 Cd 0.45616 0.11317 0.50151 0.0
O103 O 0.42747 0.08345 0.51374 0.0
C104 C 0.41819 0.07229 0.47281 0.0
O105 O 0.42518 0.07978 0.42438 0.0
C106 C 0.50304 0.13693 0.52615 0.0
C107 C 0.45905 0.16308 0.63013 0.0
O108 O 0.45741 0.15818 0.58001 0.0
O109 O 0.46155 0.15145 0.66408 0.0
O110 O 0.35729 0.49757 0.89924 0.0
Cd111 Cd 0.33043 0.46126 0.91434 0.0
O112 O 0.3578 0.49386 0.81123 0.0
Cd113 Cd 0.33958 0.45991 0.81624 0.0
O114 O 0.3403 0.43081 0.82055 0.0
C115 C 0.34412 0.42393 0.77761 0.0
O116 O 0.34574 0.43358 0.73179 0.0
C117 C 0.36398 0.50548 0.85284 0.0
C118 C 0.29342 0.4583 0.95101 0.0
O119 O 0.29689 0.45798 0.9004 0.0
O120 O 0.30742 0.45994 0.98426 0.0
O121 O 0.86486 0.36245 0.25849 0.0
Cd122 Cd 0.87413 0.33552 0.27481 0.0
O123 O 0.86396 0.35874 0.17024 0.0
Cd124 Cd 0.87938 0.34022 0.17463 0.0
O125 O 0.90899 0.34052 0.17879 0.0
C126 C 0.91927 0.34326 0.1355 0.0
O127 O 0.91091 0.34404 0.08938 0.0
C128 C 0.86117 0.3671 0.2119 0.0
C129 C 0.83869 0.29713 0.29557 0.0
O130 O 0.84532 0.30271 0.24721 0.0
O131 O 0.8489 0.30965 0.33412 0.0
H132 H 0.26103 0.45535 0.89081 0.0
H133 H 0.19513 0.45488 0.14801 0.0
H134 H 0.28136 0.45833 0.0556 0.0
H135 H 0.17551 0.45349 0.98316 0.0
H136 H 0.22636 0.45521 0.11497 0.0
H137 H 0.22919 0.45375 0.92389 0.0
C138 C 0.25879 0.45564 0.93396 0.0
C139 C 0.27392 0.45701 0.97048 0.0
C140 C 0.21521 0.4548 0.086 0.0
C141 C 0.23746 0.45519 0.00866 0.0
C142 C 0.19735 0.4546 0.10485 0.0
C143 C 0.18267 0.45419 0.06831 0.0
C144 C 0.21845 0.45459 0.03015 0.0
C145 C 0.18641 0.45383 0.01283 0.0
C146 C 0.2406 0.45473 0.95283 0.0
C147 C 0.27015 0.45731 0.02596 0.0
N148 N 0.20393 0.45407 0.99546 0.0
N149 N 0.25232 0.45643 0.04333 0.0
H150 H 0.73561 0.18977 0.44781 0.0
H151 H 0.8123 0.26823 0.22239 0.0
H152 H 0.72286 0.18131 0.27674 0.0
H153 H 0.82165 0.28002 0.39372 0.0
H154 H 0.78052 0.23533 0.24144 0.0
H155 H 0.76822 0.22186 0.42869 0.0
C156 C 0.73969 0.19462 0.4062 0.0
C157 C 0.72645 0.18284 0.36382 0.0
C158 C 0.78953 0.2451 0.27488 0.0
C159 C 0.76379 0.2196 0.34163 0.0
C160 C 0.80771 0.26389 0.26403 0.0
C161 C 0.81965 0.27694 0.30652 0.0
C162 C 0.78325 0.23926 0.32863 0.0
C163 C 0.81292 0.27048 0.35968 0.0
C164 C 0.7583 0.21298 0.39532 0.0
C165 C 0.73255 0.18991 0.3107 0.0
N166 N 0.79517 0.25211 0.36921 0.0
N167 N 0.75076 0.20783 0.30114 0.0
H168 H 0.55021 0.8267 0.69163 0.0
H169 H 0.5454 0.71901 0.61895 0.0
H170 H 0.54621 0.80423 0.52874 0.0
H171 H 0.54854 0.74106 0.78196 0.0
H172 H 0.54659 0.75055 0.58505 0.0
H173 H 0.55053 0.79588 0.72537 0.0
C174 C 0.54945 0.81531 0.66292 0.0
C175 C 0.54815 0.81805 0.60725 0.0
C176 C 0.54705 0.74851 0.62824 0.0
C177 C 0.54848 0.78267 0.64566 0.0
C178 C 0.54638 0.7305 0.64764 0.0
C179 C 0.54683 0.72735 0.70341 0.0
C180 C 0.54818 0.76353 0.66483 0.0
C181 C 0.54813 0.7428 0.73864 0.0
C182 C 0.54962 0.7977 0.68224 0.0
C183 C 0.54721 0.80276 0.57199 0.0
N184 N 0.54872 0.76019 0.71877 0.0
N185 N 0.54736 0.78573 0.59178 0.0
H186 H 0.72436 0.5497 0.99574 0.0
H187 H 0.82589 0.54034 0.93955 0.0
H188 H 0.74237 0.53985 0.83751 0.0
H189 H 0.80733 0.54903 0.09828 0.0
H190 H 0.79583 0.54096 0.90121 0.0
H191 H 0.75512 0.55036 0.0338 0.0
C192 C 0.73481 0.54772 0.96896 0.0
C193 C 0.73076 0.54468 0.91333 0.0
C194 C 0.79833 0.54276 0.94442 0.0
C195 C 0.76601 0.5454 0.95669 0.0
C196 C 0.81551 0.54241 0.96637 0.0
C197 C 0.81913 0.54461 0.02225 0.0
C198 C 0.78463 0.54531 0.97857 0.0
C199 C 0.80515 0.54725 0.05498 0.0
C200 C 0.75237 0.54809 0.99074 0.0
C201 C 0.74485 0.54221 0.88062 0.0
N202 N 0.78851 0.54751 0.03266 0.0
N203 N 0.76182 0.5426 0.90279 0.0
H204 H 0.20882 0.72064 0.25176 0.0
H205 H 0.25879 0.83182 0.37711 0.0
H206 H 0.1678 0.73976 0.32234 0.0
H207 H 0.27839 0.78961 0.43651 0.0
H208 H 0.22866 0.80221 0.33342 0.0
H209 H 0.23853 0.75024 0.29645 0.0
C210 C 0.20613 0.73116 0.27637 0.0
C211 C 0.18592 0.72782 0.2837 0.0
C212 C 0.23964 0.79957 0.35604 0.0
C213 C 0.21963 0.76168 0.33317 0.0
C214 C 0.25678 0.81635 0.38062 0.0
C215 C 0.27095 0.81303 0.41045 0.0
C216 C 0.23718 0.77959 0.35986 0.0
C217 C 0.26769 0.79272 0.41409 0.0
C218 C 0.22299 0.74789 0.30186 0.0
C219 C 0.18317 0.7418 0.31611 0.0
N220 N 0.25126 0.77674 0.38842 0.0
N221 N 0.19992 0.75835 0.33923 0.0
H222 H 0.45901 0.27985 0.64449 0.0
H223 H 0.4601 0.17652 0.73375 0.0
H224 H 0.45654 0.26098 0.81053 0.0
H225 H 0.45636 0.19219 0.56779 0.0
H226 H 0.45942 0.20769 0.76263 0.0
H227 H 0.45865 0.24814 0.61556 0.0
C228 C 0.45837 0.26903 0.67489 0.0
C229 C 0.45782 0.2731 0.73005 0.0
C230 C 0.4587 0.2043 0.71989 0.0
C231 C 0.45746 0.23676 0.69717 0.0
C232 C 0.45911 0.1865 0.70336 0.0
C233 C 0.4583 0.18173 0.64824 0.0
C234 C 0.45756 0.21751 0.68106 0.0
C235 C 0.457 0.19524 0.6107 0.0
C236 C 0.45814 0.25091 0.65832 0.0
C237 C 0.45698 0.2585 0.76759 0.0
N238 N 0.45673 0.21253 0.6278 0.0
N239 N 0.45687 0.24102 0.75047 0.0
H240 H 0.14583 0.61635 0.08501 0.0
H241 H 0.13442 0.52224 0.26525 0.0
H242 H 0.14153 0.61546 0.25897 0.0
H243 H 0.14796 0.52795 0.09446 0.0
H244 H 0.13942 0.55742 0.26503 0.0
H245 H 0.14905 0.58518 0.08862 0.0
C246 C 0.14575 0.60972 0.12404 0.0
C247 C 0.1432 0.61844 0.17174 0.0
C248 C 0.14153 0.55107 0.22772 0.0
C249 C 0.1467 0.58257 0.17612 0.0
C250 C 0.13867 0.53096 0.2278 0.0
C251 C 0.14055 0.52201 0.17967 0.0
C252 C 0.14612 0.56227 0.17908 0.0
C253 C 0.14621 0.53414 0.13247 0.0
C254 C 0.14762 0.59191 0.12607 0.0
C255 C 0.14337 0.60922 0.22116 0.0
N256 N 0.14856 0.55353 0.13325 0.0
N257 N 0.14483 0.59165 0.22203 0.0
H258 H 0.5346 0.14896 0.60001 0.0
H259 H 0.61301 0.14486 0.38491 0.0
H260 H 0.52171 0.13852 0.42928 0.0
H261 H 0.62124 0.14534 0.55765 0.0
H262 H 0.58278 0.1492 0.39934 0.0
H263 H 0.56947 0.15431 0.58372 0.0
C264 C 0.53917 0.14806 0.55899 0.0
C265 C 0.52507 0.14301 0.51604 0.0
C266 C 0.59133 0.14857 0.43407 0.0
C267 C 0.56497 0.14903 0.4972 0.0
C268 C 0.60865 0.14616 0.42588 0.0
C269 C 0.61955 0.14446 0.47016 0.0
C270 C 0.58485 0.14933 0.48692 0.0
C271 C 0.6132 0.14635 0.52229 0.0
C272 C 0.55908 0.15106 0.54976 0.0
C273 C 0.53195 0.14216 0.46373 0.0
N274 N 0.59617 0.1485 0.52923 0.0
N275 N 0.55133 0.14495 0.45586 0.0
H276 H 0.47573 0.62089 0.91711 0.0
H277 H 0.38126 0.52778 0.76014 0.0
H278 H 0.47008 0.61773 0.74336 0.0
H279 H 0.38452 0.53363 0.93385 0.0
H280 H 0.41168 0.56263 0.75305 0.0
H281 H 0.4405 0.59109 0.92402 0.0
C282 C 0.467 0.61409 0.88038 0.0
C283 C 0.47601 0.62169 0.82953 0.0
C284 C 0.4056 0.5564 0.79271 0.0
C285 C 0.43565 0.58738 0.83719 0.0
C286 C 0.3882 0.53648 0.79681 0.0
C287 C 0.38045 0.52762 0.84771 0.0
C288 C 0.41547 0.56752 0.83985 0.0
C289 C 0.39003 0.53973 0.89376 0.0
C290 C 0.44686 0.59705 0.88437 0.0
C291 C 0.46385 0.61232 0.78341 0.0
N292 N 0.40718 0.55894 0.88874 0.0
N293 N 0.44441 0.59551 0.78833 0.0
H294 H 0.85123 0.38039 0.11903 0.0
H295 H 0.86355 0.48284 0.25793 0.0
H296 H 0.85875 0.39175 0.29081 0.0
H297 H 0.84968 0.46865 0.08871 0.0
H298 H 0.85816 0.4479 0.27225 0.0
H299 H 0.84693 0.41079 0.10846 0.0
C300 C 0.85172 0.38911 0.15464 0.0
C301 C 0.85562 0.38363 0.20582 0.0
C302 C 0.85605 0.45232 0.23209 0.0
C303 C 0.85089 0.41862 0.1939 0.0
C304 C 0.85913 0.4723 0.22386 0.0
C305 C 0.85732 0.47881 0.17189 0.0
C306 C 0.85132 0.43877 0.18795 0.0
C307 C 0.85139 0.46439 0.12941 0.0
C308 C 0.84926 0.4065 0.14856 0.0
C309 C 0.85594 0.39546 0.25051 0.0
N310 N 0.84887 0.44515 0.13825 0.0
N311 N 0.85388 0.41253 0.24342 0.0
H312 H 0.47625 0.86353 0.41442 0.0
H313 H 0.38699 0.8571 0.60572 0.0
H314 H 0.47419 0.85295 0.58636 0.0
H315 H 0.38277 0.85574 0.43173 0.0
H316 H 0.41802 0.85373 0.59897 0.0
H317 H 0.44119 0.85879 0.41905 0.0
C318 C 0.46835 0.85998 0.45307 0.0
C319 C 0.47829 0.85885 0.50018 0.0
C320 C 0.41021 0.85395 0.56224 0.0
C321 C 0.4382 0.8536 0.50581 0.0
C322 C 0.39249 0.85591 0.56606 0.0
C323 C 0.38235 0.85689 0.5192 0.0
C324 C 0.41806 0.85321 0.51116 0.0
C325 C 0.39011 0.85512 0.46893 0.0
C326 C 0.44831 0.85726 0.45566 0.0
C327 C 0.46722 0.85409 0.54904 0.0
N328 N 0.40765 0.85362 0.46622 0.0
N329 N 0.44788 0.85188 0.55067 0.0
H330 H 0.60837 0.47489 0.9705 0.0
H331 H 0.53423 0.38002 0.77774 0.0
H332 H 0.62369 0.46918 0.80548 0.0
H333 H 0.51876 0.38706 0.9416 0.0
H334 H 0.56912 0.40995 0.79096 0.0
H335 H 0.57774 0.44021 0.96444 0.0
C336 C 0.60544 0.46626 0.93314 0.0
C337 C 0.61851 0.47511 0.8882 0.0
C338 C 0.55816 0.4048 0.8242 0.0
C339 C 0.58328 0.43535 0.88085 0.0
C340 C 0.53823 0.38767 0.81673 0.0
C341 C 0.52342 0.38115 0.85841 0.0
C342 C 0.56332 0.41552 0.87367 0.0
C343 C 0.52956 0.39163 0.90811 0.0
C344 C 0.5879 0.44643 0.92969 0.0
C345 C 0.61397 0.46307 0.84102 0.0
N346 N 0.54895 0.4084 0.91415 0.0
N347 N 0.59661 0.44391 0.83839 0.0
H348 H 0.04602 0.39657 0.24347 0.0
H349 H 0.94634 0.35223 0.05112 0.0
H350 H 0.04917 0.40526 0.0706 0.0
H351 H 0.94285 0.34722 0.22497 0.0
H352 H 0.98393 0.36636 0.05639 0.0
H353 H 0.00839 0.3733 0.23615 0.0
C354 C 0.03887 0.39337 0.20387 0.0
C355 C 0.05076 0.40314 0.15765 0.0
C356 C 0.97493 0.36196 0.09337 0.0
C357 C 0.00764 0.3766 0.14906 0.0
C358 C 0.95342 0.35384 0.0904 0.0
C359 C 0.94143 0.3488 0.13773 0.0
C360 C 0.98457 0.36515 0.14406 0.0
C361 C 0.95149 0.35108 0.18744 0.0
C362 C 0.01735 0.3801 0.19975 0.0
C363 C 0.04062 0.39828 0.10741 0.0
N364 N 0.9725 0.35931 0.18934 0.0
N365 N 0.01963 0.38554 0.10453 0.0
H366 H 0.65231 0.05224 0.61492 0.0
H367 H 0.6028 0.95232 0.42281 0.0
H368 H 0.65358 0.0555 0.44076 0.0
H369 H 0.59782 0.94945 0.59669 0.0
H370 H 0.62661 0.98988 0.42895 0.0
H371 H 0.6377 0.0146 0.60912 0.0
C372 C 0.64978 0.0451 0.57542 0.0
C373 C 0.6539 0.05704 0.52825 0.0
C374 C 0.6205 0.98099 0.46579 0.0
C375 C 0.637 0.01384 0.52134 0.0
C376 C 0.60693 0.95952 0.46234 0.0
C377 C 0.59804 0.94774 0.50929 0.0
C378 C 0.62521 0.99078 0.51654 0.0
C379 C 0.60409 0.95792 0.55938 0.0
C380 C 0.64139 0.02356 0.57215 0.0
C381 C 0.65046 0.0469 0.47821 0.0
N382 N 0.6171 0.97887 0.56164 0.0
N383 N 0.64198 0.02586 0.47608 0.0
H384 H 0.59589 0.64301 0.74315 0.0
H385 H 0.65058 0.60178 0.94744 0.0
H386 H 0.59963 0.65354 0.91529 0.0
H387 H 0.64492 0.58972 0.77592 0.0
H388 H 0.63692 0.62544 0.93465 0.0
H389 H 0.61871 0.62825 0.75264 0.0
C390 C 0.60172 0.64247 0.78288 0.0
C391 C 0.59557 0.64926 0.82859 0.0
C392 C 0.6389 0.61781 0.89972 0.0
C393 C 0.62161 0.63219 0.83982 0.0
C394 C 0.64675 0.60432 0.90697 0.0
C395 C 0.64863 0.5935 0.86278 0.0
C396 C 0.63283 0.62047 0.84793 0.0
C397 C 0.64352 0.59753 0.81127 0.0
C398 C 0.61474 0.634 0.78829 0.0
C399 C 0.60378 0.64832 0.87898 0.0
N400 N 0.63565 0.61049 0.80537 0.0
N401 N 0.61616 0.63969 0.88332 0.0
H402 H 0.95443 0.60619 0.19754 0.0
H403 H 0.05101 0.64325 0.9969 0.0
H404 H 0.94861 0.591 0.02777 0.0
H405 H 0.05728 0.65525 0.16845 0.0
H406 H 0.0135 0.6292 0.00496 0.0
H407 H 0.9919 0.62918 0.18502 0.0
C408 C 0.96096 0.6079 0.15747 0.0
C409 C 0.94838 0.5964 0.11377 0.0
C410 C 0.0231 0.63512 0.04077 0.0
C411 C 0.9913 0.62261 0.09926 0.0
C412 C 0.04455 0.64319 0.03618 0.0
C413 C 0.05731 0.65017 0.0822 0.0
C414 C 0.01426 0.63392 0.09178 0.0
C415 C 0.04804 0.64986 0.13195 0.0
C416 C 0.98238 0.621 0.15038 0.0
C417 C 0.95772 0.59936 0.06275 0.0
N418 N 0.02706 0.64162 0.13552 0.0
N419 N 0.97863 0.61199 0.05704 0.0
H420 H 0.39672 0.04352 0.39396 0.0
H421 H 0.3506 0.94778 0.60003 0.0
H422 H 0.40276 0.05047 0.56722 0.0
H423 H 0.34861 0.94123 0.42655 0.0
H424 H 0.3644 0.98521 0.5891 0.0
H425 H 0.37387 0.00606 0.40563 0.0
C426 C 0.39304 0.03723 0.43452 0.0
C427 C 0.40193 0.05015 0.47966 0.0
C428 C 0.36072 0.97554 0.55342 0.0
C429 C 0.37585 0.00717 0.49329 0.0
C430 C 0.35278 0.95414 0.55962 0.0
C431 C 0.34871 0.94136 0.51413 0.0
C432 C 0.36464 0.98424 0.50136 0.0
C433 C 0.35173 0.95049 0.4628 0.0
C434 C 0.38 0.0158 0.44114 0.0
C435 C 0.39644 0.04109 0.53122 0.0
N436 N 0.35972 0.97138 0.45783 0.0
N437 N 0.38395 0.02013 0.5366 0.0
H438 H 0.39583 0.34972 0.89142 0.0
H439 H 0.35527 0.40721 0.69432 0.0
H440 H 0.4087 0.358 0.72036 0.0
H441 H 0.34641 0.40332 0.86716 0.0
H442 H 0.36963 0.38397 0.70111 0.0
H443 H 0.37258 0.36399 0.88108 0.0
C444 C 0.39356 0.35426 0.85154 0.0
C445 C 0.40448 0.35293 0.8068 0.0
C446 C 0.36433 0.38801 0.73751 0.0
C447 C 0.37797 0.36941 0.79479 0.0
C448 C 0.35608 0.40126 0.73366 0.0
C449 C 0.34989 0.40748 0.78034 0.0
C450 C 0.36649 0.38094 0.78843 0.0
C451 C 0.35118 0.39912 0.83014 0.0
C452 C 0.3803 0.36246 0.8457 0.0
C453 C 0.4008 0.35895 0.7561 0.0
N454 N 0.35955 0.38647 0.83294 0.0
N455 N 0.38804 0.36712 0.75158 0.0
loop_
_geom_bond_atom_site_label_1
_geom_bond_atom_site_label_2
_geom_bond_distance
_geom_bond_site_symmetry_2
_ccdc_geom_bond_type
O0 Cd1 2.300 . S
O0 C7 1.275 . S
Cd1 O0 2.300 . S
Cd1 O9 2.381 . S
Cd1 O10 2.378 . S
O2 Cd3 2.385 . S
O2 C7 1.255 . S
Cd3 O2 2.385 . S
Cd3 O4 2.317 . S
O4 Cd3 2.317 . S
O4 C5 1.232 . S
C5 O4 1.232 . S
C5 O6 1.218 . S
O6 C5 1.218 . S
C7 O0 1.275 . S
C7 O2 1.255 . S
C8 O9 1.258 . S
C8 O10 1.256 . S
O9 Cd1 2.381 . S
O9 C8 1.258 . S
O10 Cd1 2.378 . S
O10 C8 1.256 . S
O11 Cd12 2.300 . S
O11 C18 1.275 . S
Cd12 O11 2.300 . S
Cd12 O20 2.381 . S
Cd12 O21 2.378 . S
O13 Cd14 2.385 . S
O13 C18 1.255 . S
Cd14 O13 2.385 . S
Cd14 O15 2.317 . S
O15 Cd14 2.317 . S
O15 C16 1.232 . S
C16 O15 1.232 . S
C16 O17 1.218 . S
O17 C16 1.218 . S
C18 O11 1.275 . S
C18 O13 1.255 . S
C19 O20 1.258 . S
C19 O21 1.256 . S
O20 Cd12 2.381 . S
O20 C19 1.258 . S
O21 Cd12 2.378 . S
O21 C19 1.256 . S
O22 Cd23 2.300 . S
O22 C29 1.275 . S
Cd23 O22 2.300 . S
Cd23 O31 2.381 . S
Cd23 O32 2.378 . S
O24 Cd25 2.385 . S
O24 C29 1.255 . S
Cd25 O24 2.385 . S
Cd25 O26 2.317 . S
O26 Cd25 2.317 . S
O26 C27 1.232 . S
C27 O26 1.232 . S
C27 O28 1.218 . S
O28 C27 1.218 . S
C29 O22 1.275 . S
C29 O24 1.255 . S
C30 O31 1.258 . S
C30 O32 1.256 . S
O31 Cd23 2.381 . S
O31 C30 1.258 . S
O32 Cd23 2.378 . S
O32 C30 1.256 . S
O33 Cd34 2.300 . S
O33 C40 1.275 . S
Cd34 O33 2.300 . S
Cd34 O42 2.381 . S
Cd34 O43 2.378 . S
O35 Cd36 2.385 . S
O35 C40 1.255 . S
Cd36 O35 2.385 . S
Cd36 O37 2.317 . S
O37 Cd36 2.317 . S
O37 C38 1.232 . S
C38 O37 1.232 . S
C38 O39 1.218 . S
O39 C38 1.218 . S
C40 O33 1.275 . S
C40 O35 1.255 . S
C41 O42 1.258 . S
C41 O43 1.256 . S
O42 Cd34 2.381 . S
O42 C41 1.258 . S
O43 Cd34 2.378 . S
O43 C41 1.256 . S
O44 Cd45 2.300 . S
O44 C51 1.275 . S
Cd45 O44 2.300 . S
Cd45 O53 2.381 . S
Cd45 O54 2.378 . S
O46 Cd47 2.385 . S
O46 C51 1.255 . S
Cd47 O46 2.385 . S
Cd47 O48 2.317 . S
O48 Cd47 2.317 . S
O48 C49 1.232 . S
C49 O48 1.232 . S
C49 O50 1.218 . S
O50 C49 1.218 . S
C51 O44 1.275 . S
C51 O46 1.255 . S
C52 O53 1.258 . S
C52 O54 1.256 . S
O53 Cd45 2.381 . S
O53 C52 1.258 . S
O54 Cd45 2.378 . S
O54 C52 1.256 . S
O55 Cd56 2.300 . S
O55 C62 1.275 . S
Cd56 O55 2.300 . S
Cd56 O64 2.381 . S
Cd56 O65 2.378 . S
O57 Cd58 2.385 . S
O57 C62 1.255 . S
Cd58 O57 2.385 . S
Cd58 O59 2.317 . S
O59 Cd58 2.317 . S
O59 C60 1.232 . S
C60 O59 1.232 . S
C60 O61 1.218 . S
O61 C60 1.218 . S
C62 O55 1.275 . S
C62 O57 1.255 . S
C63 O64 1.258 . S
C63 O65 1.256 . S
O64 Cd56 2.381 . S
O64 C63 1.258 . S
O65 Cd56 2.378 . S
O65 C63 1.256 . S
O66 Cd67 2.300 . S
O66 C73 1.275 . S
Cd67 O66 2.300 . S
Cd67 O75 2.381 . S
Cd67 O76 2.378 . S
O68 Cd69 2.385 . S
O68 C73 1.255 . S
Cd69 O68 2.385 . S
Cd69 O70 2.317 . S
O70 Cd69 2.317 . S
O70 C71 1.232 . S
C71 O70 1.232 . S
C71 O72 1.218 . S
O72 C71 1.218 . S
C73 O66 1.275 . S
C73 O68 1.255 . S
C74 O75 1.258 . S
C74 O76 1.256 . S
O75 Cd67 2.381 . S
O75 C74 1.258 . S
O76 Cd67 2.378 . S
O76 C74 1.256 . S
O77 Cd78 2.300 . S
O77 C84 1.275 . S
Cd78 O77 2.300 . S
Cd78 O86 2.381 . S
Cd78 O87 2.378 . S
O79 Cd80 2.385 . S
O79 C84 1.255 . S
Cd80 O79 2.385 . S
Cd80 O81 2.317 . S
O81 Cd80 2.317 . S
O81 C82 1.232 . S
C82 O81 1.232 . S
C82 O83 1.218 . S
O83 C82 1.218 . S
C84 O77 1.275 . S
C84 O79 1.255 . S
C85 O86 1.258 . S
C85 O87 1.256 . S
O86 Cd78 2.381 . S
O86 C85 1.258 . S
O87 Cd78 2.378 . S
O87 C85 1.256 . S
O88 Cd89 2.300 . S
O88 C95 1.275 . S
Cd89 O88 2.300 . S
Cd89 O97 2.381 . S
Cd89 O98 2.378 . S
O90 Cd91 2.385 . S
O90 C95 1.255 . S
Cd91 O90 2.385 . S
Cd91 O92 2.317 . S
O92 Cd91 2.317 . S
O92 C93 1.232 . S
C93 O92 1.232 . S
C93 O94 1.218 . S
O94 C93 1.218 . S
C95 O88 1.275 . S
C95 O90 1.255 . S
C96 O97 1.258 . S
C96 O98 1.256 . S
O97 Cd89 2.381 . S
O97 C96 1.258 . S
O98 Cd89 2.378 . S
O98 C96 1.256 . S
O99 Cd100 2.300 . S
O99 C106 1.275 . S
Cd100 O99 2.300 . S
Cd100 O108 2.381 . S
Cd100 O109 2.378 . S
O101 Cd102 2.385 . S
O101 C106 1.255 . S
Cd102 O101 2.385 . S
Cd102 O103 2.317 . S
O103 Cd102 2.317 . S
O103 C104 1.232 . S
C104 O103 1.232 . S
C104 O105 1.218 . S
O105 C104 1.218 . S
C106 O99 1.275 . S
C106 O101 1.255 . S
C107 O108 1.258 . S
C107 O109 1.256 . S
O108 Cd100 2.381 . S
O108 C107 1.258 . S
O109 Cd100 2.378 . S
O109 C107 1.256 . S
O110 Cd111 2.300 . S
O110 C117 1.275 . S
Cd111 O110 2.300 . S
Cd111 O119 2.381 . S
Cd111 O120 2.378 . S
O112 Cd113 2.385 . S
O112 C117 1.255 . S
Cd113 O112 2.385 . S
Cd113 O114 2.317 . S
O114 Cd113 2.317 . S
O114 C115 1.232 . S
C115 O114 1.232 . S
C115 O116 1.218 . S
O116 C115 1.218 . S
C117 O110 1.275 . S
C117 O112 1.255 . S
C118 O119 1.258 . S
C118 O120 1.256 . S
O119 Cd111 2.381 . S
O119 C118 1.258 . S
O120 Cd111 2.378 . S
O120 C118 1.256 . S
O121 Cd122 2.300 . S
O121 C128 1.275 . S
Cd122 O121 2.300 . S
Cd122 O130 2.381 . S
Cd122 O131 2.378 . S
O123 Cd124 2.385 . S
O123 C128 1.255 . S
Cd124 O123 2.385 . S
Cd124 O125 2.317 . S
O125 Cd124 2.317 . S
O125 C126 1.232 . S
C126 O125 1.232 . S
C126 O127 1.218 . S
O127 C126 1.218 . S
C128 O121 1.275 . S
C128 O123 1.255 . S
C129 O130 1.258 . S
C129 O131 1.256 . S
O130 Cd122 2.381 . S
O130 C129 1.258 . S
O131 Cd122 2.378 . S
O131 C129 1.256 . S
H132 C138 0.930 . S
H133 C142 0.930 . S
H134 C147 0.929 . S
H135 C145 0.929 . S
H136 C140 0.929 . S
H137 C146 0.929 . S
C138 H132 0.930 . S
C138 C139 1.367 . S
C138 C146 1.378 . S
C139 C138 1.367 . S
C139 C147 1.433 . S
C140 H136 0.929 . S
C140 C142 1.378 . S
C140 C144 1.350 . S
C141 C144 1.463 1_556 S
C141 C146 1.350 . S
C141 N149 1.427 . S
C142 H133 0.930 . S
C142 C140 1.378 . S
C142 C143 1.367 . S
C143 C142 1.367 . S
C143 C145 1.433 . S
C144 C140 1.350 . S
C144 C141 1.463 1_554 S
C144 N148 1.427 . S
C145 H135 0.929 . S
C145 C143 1.433 . S
C145 N148 1.384 . S
C146 H137 0.929 . S
C146 C138 1.378 . S
C146 C141 1.350 . S
C147 H134 0.929 . S
C147 C139 1.433 . S
C147 N149 1.384 . S
N148 C144 1.427 . S
N148 C145 1.384 . S
N149 C141 1.427 . S
N149 C147 1.384 . S
H150 C156 0.930 . S
H151 C160 0.930 . S
H152 C165 0.929 . S
H153 C163 0.929 . S
H154 C158 0.929 . S
H155 C164 0.929 . S
C156 H150 0.930 . S
C156 C157 1.367 . S
C156 C164 1.378 . S
C157 C156 1.367 . S
C157 C165 1.433 . S
C158 H154 0.929 . S
C158 C160 1.378 . S
C158 C162 1.350 . S
C159 C162 1.463 . S
C159 C164 1.350 . S
C159 N167 1.427 . S
C160 H151 0.930 . S
C160 C158 1.378 . S
C160 C161 1.367 . S
C161 C160 1.367 . S
C161 C163 1.433 . S
C162 C158 1.350 . S
C162 C159 1.463 . S
C162 N166 1.427 . S
C163 H153 0.929 . S
C163 C161 1.433 . S
C163 N166 1.384 . S
C164 H155 0.929 . S
C164 C156 1.378 . S
C164 C159 1.350 . S
C165 H152 0.929 . S
C165 C157 1.433 . S
C165 N167 1.384 . S
N166 C162 1.427 . S
N166 C163 1.384 . S
N167 C159 1.427 . S
N167 C165 1.384 . S
H168 C174 0.930 . S
H169 C178 0.930 . S
H170 C183 0.929 . S
H171 C181 0.929 . S
H172 C176 0.929 . S
H173 C182 0.929 . S
C174 H168 0.930 . S
C174 C175 1.367 . S
C174 C182 1.378 . S
C175 C174 1.367 . S
C175 C183 1.433 . S
C176 H172 0.929 . S
C176 C178 1.378 . S
C176 C180 1.350 . S
C177 C180 1.463 . S
C177 C182 1.350 . S
C177 N185 1.427 . S
C178 H169 0.930 . S
C178 C176 1.378 . S
C178 C179 1.367 . S
C179 C178 1.367 . S
C179 C181 1.433 . S
C180 C176 1.350 . S
C180 C177 1.463 . S
C180 N184 1.427 . S
C181 H171 0.929 . S
C181 C179 1.433 . S
C181 N184 1.384 . S
C182 H173 0.929 . S
C182 C174 1.378 . S
C182 C177 1.350 . S
C183 H170 0.929 . S
C183 C175 1.433 . S
C183 N185 1.384 . S
N184 C180 1.427 . S
N184 C181 1.384 . S
N185 C177 1.427 . S
N185 C183 1.384 . S
H186 C192 0.930 . S
H187 C196 0.930 . S
H188 C201 0.929 . S
H189 C199 0.929 . S
H190 C194 0.929 1_556 S
H191 C200 0.929 1_554 S
C192 H186 0.930 . S
C192 C193 1.367 . S
C192 C200 1.378 . S
C193 C192 1.367 . S
C193 C201 1.433 . S
C194 H190 0.929 1_554 S
C194 C196 1.378 . S
C194 C198 1.350 . S
C195 C198 1.463 1_556 S
C195 C200 1.350 . S
C195 N203 1.427 . S
C196 H187 0.930 . S
C196 C194 1.378 . S
C196 C197 1.367 . S
C197 C196 1.367 . S
C197 C199 1.433 . S
C198 C194 1.350 . S
C198 C195 1.463 1_554 S
C198 N202 1.427 . S
C199 H189 0.929 . S
C199 C197 1.433 . S
C199 N202 1.384 . S
C200 H191 0.929 1_556 S
C200 C192 1.378 . S
C200 C195 1.350 . S
C201 H188 0.929 . S
C201 C193 1.433 . S
C201 N203 1.384 . S
N202 C198 1.427 . S
N202 C199 1.384 . S
N203 C195 1.427 . S
N203 C201 1.384 . S
H204 C210 0.930 . S
H205 C214 0.930 . S
H206 C219 0.929 . S
H207 C217 0.929 . S
H208 C212 0.929 . S
H209 C218 0.929 . S
C210 H204 0.930 . S
C210 C211 1.367 . S
C210 C218 1.378 . S
C211 C210 1.367 . S
C211 C219 1.433 . S
C212 H208 0.929 . S
C212 C214 1.378 . S
C212 C216 1.350 . S
C213 C216 1.463 . S
C213 C218 1.350 . S
C213 N221 1.427 . S
C214 H205 0.930 . S
C214 C212 1.378 . S
C214 C215 1.367 . S
C215 C214 1.367 . S
C215 C217 1.433 . S
C216 C212 1.350 . S
C216 C213 1.463 . S
C216 N220 1.427 . S
C217 H207 0.929 . S
C217 C215 1.433 . S
C217 N220 1.384 . S
C218 H209 0.929 . S
C218 C210 1.378 . S
C218 C213 1.350 . S
C219 H206 0.929 . S
C219 C211 1.433 . S
C219 N221 1.384 . S
N220 C216 1.427 . S
N220 C217 1.384 . S
N221 C213 1.427 . S
N221 C219 1.384 . S
H222 C228 0.930 . S
H223 C232 0.930 . S
H224 C237 0.929 . S
H225 C235 0.929 . S
H226 C230 0.929 . S
H227 C236 0.929 . S
C228 H222 0.930 . S
C228 C229 1.367 . S
C228 C236 1.378 . S
C229 C228 1.367 . S
C229 C237 1.433 . S
C230 H226 0.929 . S
C230 C232 1.378 . S
C230 C234 1.350 . S
C231 C234 1.463 . S
C231 C236 1.350 . S
C231 N239 1.427 . S
C232 H223 0.930 . S
C232 C230 1.378 . S
C232 C233 1.367 . S
C233 C232 1.367 . S
C233 C235 1.433 . S
C234 C230 1.350 . S
C234 C231 1.463 . S
C234 N238 1.427 . S
C235 H225 0.929 . S
C235 C233 1.433 . S
C235 N238 1.384 . S
C236 H227 0.929 . S
C236 C228 1.378 . S
C236 C231 1.350 . S
C237 H224 0.929 . S
C237 C229 1.433 . S
C237 N239 1.384 . S
N238 C234 1.427 . S
N238 C235 1.384 . S
N239 C231 1.427 . S
N239 C237 1.384 . S
H240 C246 0.930 . S
H241 C250 0.930 . S
H242 C255 0.929 . S
H243 C253 0.929 . S
H244 C248 0.929 . S
H245 C254 0.929 . S
C246 H240 0.930 . S
C246 C247 1.367 . S
C246 C254 1.378 . S
C247 C246 1.367 . S
C247 C255 1.433 . S
C248 H244 0.929 . S
C248 C250 1.378 . S
C248 C252 1.350 . S
C249 C252 1.463 . S
C249 C254 1.350 . S
C249 N257 1.427 . S
C250 H241 0.930 . S
C250 C248 1.378 . S
C250 C251 1.367 . S
C251 C250 1.367 . S
C251 C253 1.433 . S
C252 C248 1.350 . S
C252 C249 1.463 . S
C252 N256 1.427 . S
C253 H243 0.929 . S
C253 C251 1.433 . S
C253 N256 1.384 . S
C254 H245 0.929 . S
C254 C246 1.378 . S
C254 C249 1.350 . S
C255 H242 0.929 . S
C255 C247 1.433 . S
C255 N257 1.384 . S
N256 C252 1.427 . S
N256 C253 1.384 . S
N257 C249 1.427 . S
N257 C255 1.384 . S
H258 C264 0.930 . S
H259 C268 0.930 . S
H260 C273 0.929 . S
H261 C271 0.929 . S
H262 C266 0.929 . S
H263 C272 0.929 . S
C264 H258 0.930 . S
C264 C265 1.367 . S
C264 C272 1.378 . S
C265 C264 1.367 . S
C265 C273 1.433 . S
C266 H262 0.929 . S
C266 C268 1.378 . S
C266 C270 1.350 . S
C267 C270 1.463 . S
C267 C272 1.350 . S
C267 N275 1.427 . S
C268 H259 0.930 . S
C268 C266 1.378 . S
C268 C269 1.367 . S
C269 C268 1.367 . S
C269 C271 1.433 . S
C270 C266 1.350 . S
C270 C267 1.463 . S
C270 N274 1.427 . S
C271 H261 0.929 . S
C271 C269 1.433 . S
C271 N274 1.384 . S
C272 H263 0.929 . S
C272 C264 1.378 . S
C272 C267 1.350 . S
C273 H260 0.929 . S
C273 C265 1.433 . S
C273 N275 1.384 . S
N274 C270 1.427 . S
N274 C271 1.384 . S
N275 C267 1.427 . S
N275 C273 1.384 . S
H276 C282 0.930 . S
H277 C286 0.930 . S
H278 C291 0.929 . S
H279 C289 0.929 . S
H280 C284 0.929 . S
H281 C290 0.929 . S
C282 H276 0.930 . S
C282 C283 1.367 . S
C282 C290 1.378 . S
C283 C282 1.367 . S
C283 C291 1.433 . S
C284 H280 0.929 . S
C284 C286 1.378 . S
C284 C288 1.350 . S
C285 C288 1.463 . S
C285 C290 1.350 . S
C285 N293 1.427 . S
C286 H277 0.930 . S
C286 C284 1.378 . S
C286 C287 1.367 . S
C287 C286 1.367 . S
C287 C289 1.433 . S
C288 C284 1.350 . S
C288 C285 1.463 . S
C288 N292 1.427 . S
C289 H279 0.929 . S
C289 C287 1.433 . S
C289 N292 1.384 . S
C290 H281 0.929 . S
C290 C282 1.378 . S
C290 C285 1.350 . S
C291 H278 0.929 . S
C291 C283 1.433 . S
C291 N293 1.384 . S
N292 C288 1.427 . S
N292 C289 1.384 . S
N293 C285 1.427 . S
N293 C291 1.384 . S
H294 C300 0.930 . S
H295 C304 0.930 . S
H296 C309 0.929 . S
H297 C307 0.929 . S
H298 C302 0.929 . S
H299 C308 0.929 . S
C300 H294 0.930 . S
C300 C301 1.367 . S
C300 C308 1.378 . S
C301 C300 1.367 . S
C301 C309 1.433 . S
C302 H298 0.929 . S
C302 C304 1.378 . S
C302 C306 1.350 . S
C303 C306 1.463 . S
C303 C308 1.350 . S
C303 N311 1.427 . S
C304 H295 0.930 . S
C304 C302 1.378 . S
C304 C305 1.367 . S
C305 C304 1.367 . S
C305 C307 1.433 . S
C306 C302 1.350 . S
C306 C303 1.463 . S
C306 N310 1.427 . S
C307 H297 0.929 . S
C307 C305 1.433 . S
C307 N310 1.384 . S
C308 H299 0.929 . S
C308 C300 1.378 . S
C308 C303 1.350 . S
C309 H296 0.929 . S
C309 C301 1.433 . S
C309 N311 1.384 . S
N310 C306 1.427 . S
N310 C307 1.384 . S
N311 C303 1.427 . S
N311 C309 1.384 . S
H312 C318 0.930 . S
H313 C322 0.930 . S
H314 C327 0.929 . S
H315 C325 0.929 . S
H316 C320 0.929 . S
H317 C326 0.929 . S
C318 H312 0.930 . S
C318 C319 1.367 . S
C318 C326 1.378 . S
C319 C318 1.367 . S
C319 C327 1.433 . S
C320 H316 0.929 . S
C320 C322 1.378 . S
C320 C324 1.350 . S
C321 C324 1.463 . S
C321 C326 1.350 . S
C321 N329 1.427 . S
C322 H313 0.930 . S
C322 C320 1.378 . S
C322 C323 1.367 . S
C323 C322 1.367 . S
C323 C325 1.433 . S
C324 C320 1.350 . S
C324 C321 1.463 . S
C324 N328 1.427 . S
C325 H315 0.929 . S
C325 C323 1.433 . S
C325 N328 1.384 . S
C326 H317 0.929 . S
C326 C318 1.378 . S
C326 C321 1.350 . S
C327 H314 0.929 . S
C327 C319 1.433 . S
C327 N329 1.384 . S
N328 C324 1.427 . S
N328 C325 1.384 . S
N329 C321 1.427 . S
N329 C327 1.384 . S
H330 C336 0.930 . S
H331 C340 0.930 . S
H332 C345 0.929 . S
H333 C343 0.929 . S
H334 C338 0.929 . S
H335 C344 0.929 . S
C336 H330 0.930 . S
C336 C337 1.367 . S
C336 C344 1.378 . S
C337 C336 1.367 . S
C337 C345 1.433 . S
C338 H334 0.929 . S
C338 C340 1.378 . S
C338 C342 1.350 . S
C339 C342 1.463 . S
C339 C344 1.350 . S
C339 N347 1.427 . S
C340 H331 0.930 . S
C340 C338 1.378 . S
C340 C341 1.367 . S
C341 C340 1.367 . S
C341 C343 1.433 . S
C342 C338 1.350 . S
C342 C339 1.463 . S
C342 N346 1.427 . S
C343 H333 0.929 . S
C343 C341 1.433 . S
C343 N346 1.384 . S
C344 H335 0.929 . S
C344 C336 1.378 . S
C344 C339 1.350 . S
C345 H332 0.929 . S
C345 C337 1.433 . S
C345 N347 1.384 . S
N346 C342 1.427 . S
N346 C343 1.384 . S
N347 C339 1.427 . S
N347 C345 1.384 . S
H348 C354 0.930 . S
H349 C358 0.930 . S
H350 C363 0.929 . S
H351 C361 0.929 . S
H352 C356 0.929 . S
H353 C362 0.929 . S
C354 H348 0.930 . S
C354 C355 1.367 . S
C354 C362 1.378 . S
C355 C354 1.367 . S
C355 C363 1.433 . S
C356 H352 0.929 . S
C356 C358 1.378 . S
C356 C360 1.350 . S
C357 C360 1.463 1_455 S
C357 C362 1.350 . S
C357 N365 1.427 . S
C358 H349 0.930 . S
C358 C356 1.378 . S
C358 C359 1.367 . S
C359 C358 1.367 . S
C359 C361 1.433 . S
C360 C356 1.350 . S
C360 C357 1.463 1_655 S
C360 N364 1.427 . S
C361 H351 0.929 . S
C361 C359 1.433 . S
C361 N364 1.384 . S
C362 H353 0.929 . S
C362 C354 1.378 . S
C362 C357 1.350 . S
C363 H350 0.929 . S
C363 C355 1.433 . S
C363 N365 1.384 . S
N364 C360 1.427 . S
N364 C361 1.384 . S
N365 C357 1.427 . S
N365 C363 1.384 . S
H366 C372 0.930 . S
H367 C376 0.930 . S
H368 C381 0.929 . S
H369 C379 0.929 . S
H370 C374 0.929 . S
H371 C380 0.929 . S
C372 H366 0.930 . S
C372 C373 1.367 . S
C372 C380 1.378 . S
C373 C372 1.367 . S
C373 C381 1.433 . S
C374 H370 0.929 . S
C374 C376 1.378 . S
C374 C378 1.350 . S
C375 C378 1.463 1_545 S
C375 C380 1.350 . S
C375 N383 1.427 . S
C376 H367 0.930 . S
C376 C374 1.378 . S
C376 C377 1.367 . S
C377 C376 1.367 . S
C377 C379 1.433 . S
C378 C374 1.350 . S
C378 C375 1.463 1_565 S
C378 N382 1.427 . S
C379 H369 0.929 . S
C379 C377 1.433 . S
C379 N382 1.384 . S
C380 H371 0.929 . S
C380 C372 1.378 . S
C380 C375 1.350 . S
C381 H368 0.929 . S
C381 C373 1.433 . S
C381 N383 1.384 . S
N382 C378 1.427 . S
N382 C379 1.384 . S
N383 C375 1.427 . S
N383 C381 1.384 . S
H384 C390 0.930 . S
H385 C394 0.930 . S
H386 C399 0.929 . S
H387 C397 0.929 . S
H388 C392 0.929 . S
H389 C398 0.929 . S
C390 H384 0.930 . S
C390 C391 1.367 . S
C390 C398 1.378 . S
C391 C390 1.367 . S
C391 C399 1.433 . S
C392 H388 0.929 . S
C392 C394 1.378 . S
C392 C396 1.350 . S
C393 C396 1.463 . S
C393 C398 1.350 . S
C393 N401 1.427 . S
C394 H385 0.930 . S
C394 C392 1.378 . S
C394 C395 1.367 . S
C395 C394 1.367 . S
C395 C397 1.433 . S
C396 C392 1.350 . S
C396 C393 1.463 . S
C396 N400 1.427 . S
C397 H387 0.929 . S
C397 C395 1.433 . S
C397 N400 1.384 . S
C398 H389 0.929 . S
C398 C390 1.378 . S
C398 C393 1.350 . S
C399 H386 0.929 . S
C399 C391 1.433 . S
C399 N401 1.384 . S
N400 C396 1.427 . S
N400 C397 1.384 . S
N401 C393 1.427 . S
N401 C399 1.384 . S
H402 C408 0.930 . S
H403 C412 0.930 . S
H404 C417 0.929 . S
H405 C415 0.929 . S
H406 C410 0.929 . S
H407 C416 0.929 . S
C408 H402 0.930 . S
C408 C409 1.367 . S
C408 C416 1.378 . S
C409 C408 1.367 . S
C409 C417 1.433 . S
C410 H406 0.929 . S
C410 C412 1.378 . S
C410 C414 1.350 . S
C411 C414 1.463 1_655 S
C411 C416 1.350 . S
C411 N419 1.427 . S
C412 H403 0.930 . S
C412 C410 1.378 . S
C412 C413 1.367 . S
C413 C412 1.367 . S
C413 C415 1.433 . S
C414 C410 1.350 . S
C414 C411 1.463 1_455 S
C414 N418 1.427 . S
C415 H405 0.929 . S
C415 C413 1.433 . S
C415 N418 1.384 . S
C416 H407 0.929 . S
C416 C408 1.378 . S
C416 C411 1.350 . S
C417 H404 0.929 . S
C417 C409 1.433 . S
C417 N419 1.384 . S
N418 C414 1.427 . S
N418 C415 1.384 . S
N419 C411 1.427 . S
N419 C417 1.384 . S
H420 C426 0.930 . S
H421 C430 0.930 . S
H422 C435 0.929 . S
H423 C433 0.929 . S
H424 C428 0.929 . S
H425 C434 0.929 . S
C426 H420 0.930 . S
C426 C427 1.367 . S
C426 C434 1.378 . S
C427 C426 1.367 . S
C427 C435 1.433 . S
C428 H424 0.929 . S
C428 C430 1.378 . S
C428 C432 1.350 . S
C429 C432 1.463 1_545 S
C429 C434 1.350 . S
C429 N437 1.427 . S
C430 H421 0.930 . S
C430 C428 1.378 . S
C430 C431 1.367 . S
C431 C430 1.367 . S
C431 C433 1.433 . S
C432 C428 1.350 . S
C432 C429 1.463 1_565 S
C432 N436 1.427 . S
C433 H423 0.929 . S
C433 C431 1.433 . S
C433 N436 1.384 . S
C434 H425 0.929 . S
C434 C426 1.378 . S
C434 C429 1.350 . S
C435 H422 0.929 . S
C435 C427 1.433 . S
C435 N437 1.384 . S
N436 C432 1.427 . S
N436 C433 1.384 . S
N437 C429 1.427 . S
N437 C435 1.384 . S
H438 C444 0.930 . S
H439 C448 0.930 . S
H440 C453 0.929 . S
H441 C451 0.929 . S
H442 C446 0.929 . S
H443 C452 0.929 . S
C444 H438 0.930 . S
C444 C445 1.367 . S
C444 C452 1.378 . S
C445 C444 1.367 . S
C445 C453 1.433 . S
C446 H442 0.929 . S
C446 C448 1.378 . S
C446 C450 1.350 . S
C447 C450 1.463 . S
C447 C452 1.350 . S
C447 N455 1.427 . S
C448 H439 0.930 . S
C448 C446 1.378 . S
C448 C449 1.367 . S
C449 C448 1.367 . S
C449 C451 1.433 . S
C450 C446 1.350 . S
C450 C447 1.463 . S
C450 N454 1.427 . S
C451 H441 0.929 . S
C451 C449 1.433 . S
C451 N454 1.384 . S
C452 H443 0.929 . S
C452 C444 1.378 . S
C452 C447 1.350 . S
C453 H440 0.929 . S
C453 C445 1.433 . S
C453 N455 1.384 . S
N454 C450 1.427 . S
N454 C451 1.384 . S
N455 C447 1.427 . S
N455 C453 1.384 . S
C139 C118 1.603 . S
C143 C8 1.605 . S
C157 C19 1.606 . S
C161 C129 1.603 . S
C175 C74 1.602 . S
C179 C30 1.603 . S
C193 C85 1.604 . S
C197 C41 1.602 . S
C211 C96 1.603 . S
C215 C52 1.606 . S
C229 C63 1.602 . S
C233 C107 1.604 . S
C247 C95 1.607 . S
C251 C7 1.611 . S
C265 C106 1.608 . S
C269 C18 1.609 . S
C283 C29 1.608 . S
C287 C117 1.609 . S
C301 C128 1.608 . S
C305 C40 1.610 . S
C319 C73 1.612 . S
C323 C51 1.606 . S
C337 C84 1.613 . S
C341 C62 1.604 . S
C355 C5 1.436 . S
C359 C126 1.432 . S
C373 C16 1.430 . S
C377 C71 1.431 . S
C391 C27 1.449 . S
C395 C82 1.450 . S
C409 C38 1.433 . S
C413 C93 1.430 . S
C427 C104 1.430 . S
C431 C49 1.433 . S
C445 C60 1.440 . S
C449 C115 1.435 . S
