# Generated by pormake.
# Topology cds-f, (5)-cn, num edge types: 1
# Building blocks:
#     Node 0, Type 0, BuildingBlock: XOMCOT_clean_sbu_1, # of connection points: 5
#     Node 1, Type 0, BuildingBlock: XOMCOT_clean_sbu_1, # of connection points: 5
#     Node 2, Type 0, BuildingBlock: XOMCOT_clean_sbu_1, # of connection points: 5
#     Node 3, Type 0, BuildingBlock: XOMCOT_clean_sbu_1, # of connection points: 5
#     Node 4, Type 0, BuildingBlock: XOMCOT_clean_sbu_1, # of connection points: 5
#     Node 5, Type 0, BuildingBlock: XOMCOT_clean_sbu_1, # of connection points: 5
#     Node 6, Type 0, BuildingBlock: XOMCOT_clean_sbu_1, # of connection points: 5
#     Node 7, Type 0, BuildingBlock: XOMCOT_clean_sbu_1, # of connection points: 5
#     Node 8, Type 0, BuildingBlock: XOMCOT_clean_sbu_1, # of connection points: 5
#     Node 9, Type 0, BuildingBlock: XOMCOT_clean_sbu_1, # of connection points: 5
#     Node 10, Type 0, BuildingBlock: XOMCOT_clean_sbu_1, # of connection points: 5
#     Node 11, Type 0, BuildingBlock: XOMCOT_clean_sbu_1, # of connection points: 5
#     Node 12, Type 0, BuildingBlock: XOMCOT_clean_sbu_1, # of connection points: 5
#     Node 13, Type 0, BuildingBlock: XOMCOT_clean_sbu_1, # of connection points: 5
#     Node 14, Type 0, BuildingBlock: XOMCOT_clean_sbu_1, # of connection points: 5
#     Node 15, Type 0, BuildingBlock: XOMCOT_clean_sbu_1, # of connection points: 5
#     Edge 16, Type (0, 0), BuildingBlock: OJICUG_clean_linker_0, # of connection points: 2
#     Edge 17, Type (0, 0), BuildingBlock: OJICUG_clean_linker_0, # of connection points: 2
#     Edge 18, Type (0, 0), BuildingBlock: OJICUG_clean_linker_0, # of connection points: 2
#     Edge 19, Type (0, 0), BuildingBlock: OJICUG_clean_linker_0, # of connection points: 2
#     Edge 20, Type (0, 0), BuildingBlock: OJICUG_clean_linker_0, # of connection points: 2
#     Edge 21, Type (0, 0), BuildingBlock: OJICUG_clean_linker_0, # of connection points: 2
#     Edge 22, Type (0, 0), BuildingBlock: OJICUG_clean_linker_0, # of connection points: 2
#     Edge 23, Type (0, 0), BuildingBlock: OJICUG_clean_linker_0, # of connection points: 2
#     Edge 24, Type (0, 0), BuildingBlock: OJICUG_clean_linker_0, # of connection points: 2
#     Edge 25, Type (0, 0), BuildingBlock: OJICUG_clean_linker_0, # of connection points: 2
#     Edge 26, Type (0, 0), BuildingBlock: OJICUG_clean_linker_0, # of connection points: 2
#     Edge 27, Type (0, 0), BuildingBlock: OJICUG_clean_linker_0, # of connection points: 2
#     Edge 28, Type (0, 0), BuildingBlock: OJICUG_clean_linker_0, # of connection points: 2
#     Edge 29, Type (0, 0), BuildingBlock: OJICUG_clean_linker_0, # of connection points: 2
#     Edge 30, Type (0, 0), BuildingBlock: OJICUG_clean_linker_0, # of connection points: 2
#     Edge 31, Type (0, 0), BuildingBlock: OJICUG_clean_linker_0, # of connection points: 2
#     Edge 32, Type (0, 0), BuildingBlock: OJICUG_clean_linker_0, # of connection points: 2
#     Edge 33, Type (0, 0), BuildingBlock: OJICUG_clean_linker_0, # of connection points: 2
#     Edge 34, Type (0, 0), BuildingBlock: OJICUG_clean_linker_0, # of connection points: 2
#     Edge 35, Type (0, 0), BuildingBlock: OJICUG_clean_linker_0, # of connection points: 2
#     Edge 36, Type (0, 0), BuildingBlock: OJICUG_clean_linker_0, # of connection points: 2
#     Edge 37, Type (0, 0), BuildingBlock: OJICUG_clean_linker_0, # of connection points: 2
#     Edge 38, Type (0, 0), BuildingBlock: OJICUG_clean_linker_0, # of connection points: 2
#     Edge 39, Type (0, 0), BuildingBlock: OJICUG_clean_linker_0, # of connection points: 2
#     Edge 40, Type (0, 0), BuildingBlock: OJICUG_clean_linker_0, # of connection points: 2
#     Edge 41, Type (0, 0), BuildingBlock: OJICUG_clean_linker_0, # of connection points: 2
#     Edge 42, Type (0, 0), BuildingBlock: OJICUG_clean_linker_0, # of connection points: 2
#     Edge 43, Type (0, 0), BuildingBlock: OJICUG_clean_linker_0, # of connection points: 2
#     Edge 44, Type (0, 0), BuildingBlock: OJICUG_clean_linker_0, # of connection points: 2
#     Edge 45, Type (0, 0), BuildingBlock: OJICUG_clean_linker_0, # of connection points: 2
#     Edge 46, Type (0, 0), BuildingBlock: OJICUG_clean_linker_0, # of connection points: 2
#     Edge 47, Type (0, 0), BuildingBlock: OJICUG_clean_linker_0, # of connection points: 2
#     Edge 48, Type (0, 0), BuildingBlock: OJICUG_clean_linker_0, # of connection points: 2
#     Edge 49, Type (0, 0), BuildingBlock: OJICUG_clean_linker_0, # of connection points: 2
#     Edge 50, Type (0, 0), BuildingBlock: OJICUG_clean_linker_0, # of connection points: 2
#     Edge 51, Type (0, 0), BuildingBlock: OJICUG_clean_linker_0, # of connection points: 2
#     Edge 52, Type (0, 0), BuildingBlock: OJICUG_clean_linker_0, # of connection points: 2
#     Edge 53, Type (0, 0), BuildingBlock: OJICUG_clean_linker_0, # of connection points: 2
#     Edge 54, Type (0, 0), BuildingBlock: OJICUG_clean_linker_0, # of connection points: 2
#     Edge 55, Type (0, 0), BuildingBlock: OJICUG_clean_linker_0, # of connection points: 2
# Relax obj value: 0.227
# Max RMSD: 0.179
# Mean RMSD: 0.171
data_MOF--net-cds-f--node1-XOMCOT_clean_sbu_1--edge1-OJICUG_clean_linker_0
_symmetry_space_group_name_H-M    P1
_symmetry_Int_Tables_number       1
_symmetry_cell_setting            triclinic
loop_
_symmetry_equiv_pos_as_xyz
'x, y, z'
_cell_length_a     27.416301
_cell_length_b     27.478588
_cell_length_c     40.283776
_cell_angle_alpha  93.141022
_cell_angle_beta   90.016075
_cell_angle_gamma 92.745204
loop_
_atom_site_label
_atom_site_type_symbol
_atom_site_fract_x
_atom_site_fract_y
_atom_site_fract_z
_atom_type_partial_charge
C0 C 0.33963 0.31397 0.19779 0.0
C1 C 0.38939 0.31525 0.20189 0.0
N2 N 0.40499 0.27043 0.19431 0.0
N3 N 0.32331 0.26906 0.18606 0.0
C4 C 0.36404 0.24255 0.18613 0.0
H5 H 0.31702 0.34499 0.20133 0.0
Co6 Co 0.25657 0.25802 0.17138 0.0
C7 C 0.30662 0.19857 0.11276 0.0
O8 O 0.35265 0.20759 0.12066 0.0
N9 N 0.1895 0.24881 0.15749 0.0
C10 C 0.12473 0.24765 0.12385 0.0
C11 C 0.1748 0.24885 0.12548 0.0
C12 C 0.14695 0.24867 0.17492 0.0
N13 N 0.10698 0.24778 0.15498 0.0
O14 O 0.24817 0.20632 0.20132 0.0
H15 H 0.19903 0.25346 0.10464 0.0
H16 H 0.14503 0.25128 0.20172 0.0
O17 O 0.27309 0.21536 0.1318 0.0
C18 C 0.2339 0.23132 0.22701 0.0
O19 O 0.23018 0.27859 0.22499 0.0
N20 N 0.26311 0.31278 0.14646 0.0
C21 C 0.28837 0.40943 0.13773 0.0
C22 C 0.31504 0.37305 0.12154 0.0
C23 C 0.30148 0.32413 0.12617 0.0
C24 C 0.23395 0.34798 0.15906 0.0
C25 C 0.24566 0.39661 0.15466 0.0
H26 H 0.32538 0.29643 0.1171 0.0
H27 H 0.2047 0.33894 0.17594 0.0
H28 H 0.36422 0.20403 0.17913 0.0
H29 H 0.41271 0.34724 0.2085 0.0
H30 H 0.10318 0.25004 0.10152 0.0
H31 H 0.34815 0.38226 0.10812 0.0
H32 H 0.22395 0.42416 0.16696 0.0
C33 C 0.71734 0.34894 0.68916 0.0
C34 C 0.71755 0.39885 0.69387 0.0
N35 N 0.76345 0.41719 0.68993 0.0
N36 N 0.76263 0.3348 0.68136 0.0
C37 C 0.79036 0.37733 0.68368 0.0
H38 H 0.68531 0.32446 0.68979 0.0
Co39 Co 0.77264 0.26755 0.66818 0.0
C40 C 0.84727 0.3136 0.61674 0.0
O41 O 0.8501 0.35997 0.62629 0.0
N42 N 0.78066 0.20008 0.6555 0.0
C43 C 0.7844 0.13301 0.62203 0.0
C44 C 0.78274 0.18287 0.62352 0.0
C45 C 0.7801 0.15907 0.67307 0.0
N46 N 0.7827 0.11769 0.65319 0.0
O47 O 0.82011 0.26465 0.70307 0.0
H48 H 0.7801 0.20499 0.6023 0.0
H49 H 0.77657 0.15919 0.69979 0.0
O50 O 0.82032 0.2836 0.63282 0.0
C51 C 0.79301 0.25195 0.72735 0.0
O52 O 0.74567 0.2462 0.72211 0.0
N53 N 0.72234 0.26898 0.63732 0.0
C54 C 0.63293 0.2835 0.60888 0.0
C55 C 0.6739 0.31266 0.6007 0.0
C56 C 0.71891 0.30436 0.61501 0.0
C57 C 0.68337 0.2383 0.64363 0.0
C58 C 0.6383 0.24445 0.62917 0.0
H59 H 0.7493 0.3298 0.61108 0.0
H60 H 0.68617 0.21164 0.66224 0.0
H61 H 0.82958 0.37929 0.68148 0.0
H62 H 0.68564 0.42005 0.69807 0.0
H63 H 0.78403 0.10963 0.59951 0.0
H64 H 0.67028 0.34388 0.58576 0.0
H65 H 0.60686 0.2222 0.63657 0.0
C66 C 0.84766 0.72746 0.12191 0.0
C67 C 0.89676 0.72779 0.11492 0.0
N68 N 0.91743 0.77081 0.12638 0.0
N69 N 0.83695 0.76952 0.13871 0.0
C70 C 0.87998 0.79617 0.13928 0.0
H71 H 0.82169 0.69746 0.1159 0.0
Co72 Co 0.77315 0.78366 0.15487 0.0
C73 C 0.83634 0.8176 0.2179 0.0
O74 O 0.87943 0.80898 0.20579 0.0
N75 N 0.70787 0.79682 0.16955 0.0
C76 C 0.64265 0.80381 0.20235 0.0
C77 C 0.69269 0.80175 0.2014 0.0
C78 C 0.66558 0.79588 0.15166 0.0
N79 N 0.62513 0.79991 0.171 0.0
O80 O 0.78006 0.84516 0.13463 0.0
H81 H 0.71591 0.80127 0.22302 0.0
H82 H 0.66424 0.79034 0.12494 0.0
O83 O 0.79791 0.80933 0.1998 0.0
C84 C 0.76496 0.83427 0.10493 0.0
O85 O 0.74547 0.79024 0.09822 0.0
N86 N 0.76579 0.72142 0.1702 0.0
C87 C 0.77389 0.62146 0.16569 0.0
C88 C 0.80342 0.65051 0.18806 0.0
C89 C 0.79882 0.70093 0.18994 0.0
C90 C 0.7333 0.69304 0.15127 0.0
C91 C 0.73647 0.64278 0.14885 0.0
H92 H 0.82571 0.72315 0.20402 0.0
H93 H 0.70848 0.70957 0.13492 0.0
H94 H 0.88411 0.8334 0.14947 0.0
H95 H 0.9162 0.6975 0.10401 0.0
H96 H 0.62088 0.80543 0.22473 0.0
H97 H 0.83246 0.63507 0.20169 0.0
H98 H 0.71202 0.62119 0.13212 0.0
C99 C 0.33103 0.72461 0.68117 0.0
C100 C 0.32939 0.67619 0.68817 0.0
N101 N 0.28374 0.65733 0.68262 0.0
N102 N 0.28693 0.73723 0.67052 0.0
C103 C 0.25833 0.69555 0.67285 0.0
H104 H 0.36314 0.74907 0.68291 0.0
Co105 Co 0.27941 0.80307 0.65773 0.0
C106 C 0.20728 0.75144 0.60398 0.0
O107 O 0.21004 0.70542 0.61044 0.0
N108 N 0.27339 0.86932 0.64593 0.0
C109 C 0.27191 0.93363 0.61454 0.0
C110 C 0.27328 0.88369 0.61441 0.0
C111 C 0.27251 0.91192 0.6648 0.0
N112 N 0.27147 0.95166 0.6463 0.0
O113 O 0.23205 0.81202 0.69215 0.0
H114 H 0.27629 0.85946 0.59252 0.0
H115 H 0.27346 0.91422 0.69161 0.0
O116 O 0.23138 0.78442 0.62183 0.0
C117 C 0.25998 0.8282 0.71621 0.0
O118 O 0.30721 0.83281 0.71065 0.0
N119 N 0.33047 0.79608 0.62743 0.0
C120 C 0.42082 0.77763 0.59994 0.0
C121 C 0.38006 0.74672 0.59153 0.0
C122 C 0.33464 0.75699 0.60535 0.0
C123 C 0.36936 0.8278 0.63427 0.0
C124 C 0.41473 0.81975 0.62024 0.0
H125 H 0.30444 0.73076 0.60112 0.0
H126 H 0.36628 0.85735 0.65289 0.0
H127 H 0.21949 0.69321 0.66819 0.0
H128 H 0.36024 0.65593 0.69536 0.0
H129 H 0.27339 0.95503 0.59277 0.0
H130 H 0.38414 0.71299 0.5768 0.0
H131 H 0.44589 0.84336 0.62808 0.0
C132 C 0.34665 0.74394 0.87626 0.0
C133 C 0.39621 0.74625 0.87104 0.0
N134 N 0.41458 0.79005 0.88293 0.0
N135 N 0.33283 0.78559 0.89216 0.0
C136 C 0.375 0.81388 0.89441 0.0
H137 H 0.32233 0.71256 0.87022 0.0
Co138 Co 0.26626 0.79063 0.90695 0.0
C139 C 0.31627 0.85076 0.96774 0.0
O140 O 0.36238 0.84362 0.96157 0.0
N141 N 0.19932 0.79429 0.92086 0.0
C142 C 0.13407 0.79206 0.95399 0.0
C143 C 0.18408 0.79048 0.95255 0.0
C144 C 0.15711 0.79689 0.90336 0.0
N145 N 0.11704 0.79597 0.923 0.0
O146 O 0.25855 0.84284 0.87826 0.0
H147 H 0.20775 0.78468 0.97328 0.0
H148 H 0.15516 0.79854 0.87668 0.0
O149 O 0.28327 0.83281 0.94739 0.0
C150 C 0.24311 0.8172 0.85246 0.0
O151 O 0.23829 0.76954 0.85416 0.0
N152 N 0.27197 0.73491 0.93025 0.0
C153 C 0.29647 0.6394 0.9348 0.0
C154 C 0.32397 0.67683 0.95214 0.0
C155 C 0.31093 0.72507 0.94952 0.0
C156 C 0.24203 0.69823 0.91657 0.0
C157 C 0.25347 0.6501 0.91875 0.0
H158 H 0.33543 0.75405 0.9594 0.0
H159 H 0.21218 0.70622 0.90056 0.0
H160 H 0.37692 0.8513 0.90419 0.0
H161 H 0.41741 0.71662 0.86106 0.0
H162 H 0.11175 0.78827 0.97596 0.0
H163 H 0.35721 0.66929 0.96504 0.0
H164 H 0.23086 0.6217 0.90578 0.0
C165 C 0.29605 0.2071 0.47107 0.0
C166 C 0.29944 0.15738 0.473 0.0
N167 N 0.27256 0.13455 0.44822 0.0
N168 N 0.2672 0.21584 0.44519 0.0
C169 C 0.25324 0.17093 0.43189 0.0
H170 H 0.31386 0.2352 0.48728 0.0
Co171 Co 0.25155 0.278 0.43233 0.0
C172 C 0.23306 0.26448 0.36041 0.0
O173 O 0.25806 0.30609 0.35789 0.0
N174 N 0.234 0.34221 0.41972 0.0
C175 C 0.18656 0.40075 0.4037 0.0
C176 C 0.19003 0.35131 0.40687 0.0
C177 C 0.25611 0.38755 0.4245 0.0
N178 N 0.22824 0.4239 0.41497 0.0
O179 O 0.191 0.27004 0.45633 0.0
H180 H 0.16145 0.32365 0.40102 0.0
H181 H 0.2913 0.39456 0.43583 0.0
O182 O 0.22443 0.24833 0.38928 0.0
C183 C 0.19185 0.29713 0.48327 0.0
O184 O 0.22421 0.33397 0.4858 0.0
N185 N 0.31383 0.28497 0.41382 0.0
C186 C 0.41277 0.29001 0.39839 0.0
C187 C 0.38138 0.25448 0.38242 0.0
C188 C 0.33225 0.25171 0.39129 0.0
C189 C 0.34457 0.31766 0.43081 0.0
C190 C 0.39354 0.32265 0.42234 0.0
H191 H 0.31 0.22051 0.38206 0.0
H192 H 0.332 0.33724 0.45287 0.0
H193 H 0.22927 0.16488 0.4106 0.0
H194 H 0.32118 0.13956 0.49073 0.0
H195 H 0.15474 0.41817 0.39506 0.0
H196 H 0.39532 0.22654 0.36545 0.0
H197 H 0.41687 0.34934 0.4363 0.0
C198 C 0.85482 0.32494 0.96177 0.0
C199 C 0.90414 0.3244 0.96802 0.0
N200 N 0.92035 0.28143 0.95602 0.0
N201 N 0.83963 0.28285 0.94525 0.0
C202 C 0.8801 0.2563 0.94349 0.0
H203 H 0.83194 0.35499 0.96809 0.0
Co204 Co 0.77511 0.26626 0.92948 0.0
C205 C 0.83787 0.24841 0.8664 0.0
O206 O 0.87693 0.27297 0.87815 0.0
N207 N 0.70917 0.25031 0.91444 0.0
C208 C 0.64412 0.24368 0.88083 0.0
C209 C 0.69429 0.24634 0.8824 0.0
C210 C 0.66653 0.25027 0.93186 0.0
N211 N 0.62614 0.24651 0.91196 0.0
O212 O 0.77966 0.20384 0.94837 0.0
H213 H 0.71797 0.24905 0.86115 0.0
H214 H 0.66523 0.2554 0.95863 0.0
O215 O 0.79976 0.24331 0.88479 0.0
C216 C 0.76875 0.21598 0.9785 0.0
O217 O 0.75373 0.26006 0.98536 0.0
N218 N 0.76896 0.32936 0.91632 0.0
C219 C 0.77052 0.43029 0.92056 0.0
C220 C 0.79687 0.40568 0.89555 0.0
C221 C 0.79539 0.35477 0.89371 0.0
C222 C 0.73993 0.35292 0.93872 0.0
C223 C 0.73988 0.40331 0.94114 0.0
H224 H 0.81778 0.33696 0.8755 0.0
H225 H 0.71953 0.3327 0.95674 0.0
H226 H 0.88052 0.22009 0.9315 0.0
H227 H 0.9268 0.35458 0.97874 0.0
H228 H 0.62276 0.24313 0.85821 0.0
H229 H 0.82039 0.42542 0.87879 0.0
H230 H 0.71756 0.42097 0.95997 0.0
C231 C 0.72827 0.8337 0.44059 0.0
C232 C 0.72556 0.88321 0.44733 0.0
N233 N 0.76934 0.90501 0.44097 0.0
N234 N 0.77338 0.82378 0.42941 0.0
C235 C 0.79769 0.86808 0.43053 0.0
H236 H 0.69882 0.80666 0.44345 0.0
Co237 Co 0.79596 0.76009 0.41793 0.0
C238 C 0.85095 0.81187 0.36092 0.0
O239 O 0.88259 0.84096 0.37771 0.0
N240 N 0.81777 0.69532 0.40736 0.0
C241 C 0.83888 0.62796 0.37855 0.0
C242 C 0.83607 0.6779 0.37824 0.0
C243 C 0.81058 0.65471 0.42512 0.0
N244 N 0.82232 0.61273 0.40799 0.0
O245 O 0.85352 0.77679 0.4437 0.0
H246 H 0.84447 0.69941 0.35715 0.0
H247 H 0.79472 0.65584 0.44968 0.0
O248 O 0.82214 0.78301 0.3762 0.0
C249 C 0.83651 0.76808 0.47242 0.0
O250 O 0.79212 0.74824 0.47453 0.0
N251 N 0.73787 0.74337 0.39611 0.0
C252 C 0.64009 0.73276 0.38098 0.0
C253 C 0.67033 0.76392 0.36299 0.0
C254 C 0.71957 0.76922 0.37128 0.0
C255 C 0.70938 0.70961 0.41152 0.0
C256 C 0.66027 0.70296 0.40381 0.0
H257 H 0.741 0.79827 0.36054 0.0
H258 H 0.72322 0.69171 0.43246 0.0
H259 H 0.83586 0.87326 0.42466 0.0
H260 H 0.6933 0.90182 0.45529 0.0
H261 H 0.84996 0.60468 0.35768 0.0
H262 H 0.65516 0.7883 0.34588 0.0
H263 H 0.63721 0.67933 0.41852 0.0
C264 C 0.84351 0.72676 0.89203 0.0
C265 C 0.8932 0.72539 0.88766 0.0
N266 N 0.9132 0.7704 0.89477 0.0
N267 N 0.83176 0.77221 0.90271 0.0
C268 C 0.87505 0.79837 0.90269 0.0
H269 H 0.81757 0.69614 0.88795 0.0
Co270 Co 0.76644 0.79105 0.91135 0.0
C271 C 0.81991 0.84173 0.9736 0.0
O272 O 0.86334 0.8253 0.96783 0.0
N273 N 0.69992 0.80861 0.91917 0.0
C274 C 0.63121 0.81596 0.94832 0.0
C275 C 0.68055 0.81046 0.95 0.0
C276 C 0.66039 0.81188 0.89891 0.0
N277 N 0.61801 0.81675 0.9162 0.0
O278 O 0.77888 0.84375 0.8831 0.0
H279 H 0.7002 0.8035 0.97233 0.0
H280 H 0.66216 0.80841 0.87207 0.0
O281 O 0.78492 0.83044 0.95299 0.0
C282 C 0.77101 0.82135 0.85479 0.0
O283 O 0.74857 0.77794 0.85412 0.0
N284 N 0.7545 0.73556 0.93478 0.0
C285 C 0.75821 0.63658 0.94133 0.0
C286 C 0.78772 0.66898 0.96158 0.0
C287 C 0.78504 0.71911 0.95805 0.0
C288 C 0.72147 0.70459 0.91824 0.0
C289 C 0.72216 0.65486 0.9216 0.0
H290 H 0.81196 0.74347 0.97048 0.0
H291 H 0.6985 0.71766 0.89919 0.0
H292 H 0.87872 0.83729 0.90852 0.0
H293 H 0.91328 0.69331 0.88102 0.0
H294 H 0.60634 0.8156 0.96919 0.0
H295 H 0.81579 0.65579 0.97725 0.0
H296 H 0.698 0.63068 0.90625 0.0
C297 C 0.2911 0.70174 0.46292 0.0
C298 C 0.28766 0.65213 0.46522 0.0
N299 N 0.26428 0.63176 0.43806 0.0
N300 N 0.26992 0.71374 0.43453 0.0
C301 C 0.25291 0.67023 0.42005 0.0
H302 H 0.3093 0.72762 0.48054 0.0
Co303 Co 0.27373 0.78009 0.42316 0.0
C304 C 0.26598 0.7552 0.34762 0.0
O305 O 0.31205 0.74574 0.34582 0.0
N306 N 0.27648 0.84794 0.41213 0.0
C307 C 0.29395 0.91362 0.38319 0.0
C308 C 0.29604 0.86394 0.38364 0.0
C309 C 0.26297 0.88971 0.42874 0.0
N310 N 0.27323 0.93009 0.41158 0.0
O311 O 0.2106 0.78637 0.44327 0.0
H312 H 0.31323 0.84128 0.36479 0.0
H313 H 0.24616 0.89104 0.45299 0.0
O314 O 0.2461 0.76574 0.37609 0.0
C315 C 0.22257 0.8002 0.47325 0.0
O316 O 0.26846 0.81384 0.47936 0.0
N317 N 0.33975 0.77343 0.41033 0.0
C318 C 0.43863 0.76678 0.3979 0.0
C319 C 0.40674 0.72659 0.39107 0.0
C320 C 0.35784 0.72998 0.3989 0.0
C321 C 0.37177 0.81091 0.42063 0.0
C322 C 0.42131 0.80894 0.41377 0.0
H323 H 0.3343 0.69815 0.39322 0.0
H324 H 0.35936 0.84251 0.43471 0.0
H325 H 0.23521 0.66671 0.39597 0.0
H326 H 0.30189 0.63266 0.48545 0.0
H327 H 0.30863 0.93615 0.36399 0.0
H328 H 0.41967 0.69244 0.38051 0.0
H329 H 0.44588 0.83964 0.42127 0.0
C330 C 0.35793 0.30723 0.96752 0.0
C331 C 0.40789 0.30605 0.969 0.0
N332 N 0.42338 0.27557 0.94419 0.0
N333 N 0.34082 0.27801 0.9418 0.0
C334 C 0.38157 0.25895 0.92801 0.0
H335 H 0.33533 0.32929 0.98372 0.0
Co336 Co 0.27276 0.27439 0.93165 0.0
C337 C 0.28983 0.22672 0.85699 0.0
O338 O 0.31072 0.1847 0.85376 0.0
N339 N 0.20379 0.27091 0.92198 0.0
C340 C 0.13509 0.27618 0.89288 0.0
C341 C 0.18502 0.27998 0.89208 0.0
C342 C 0.16341 0.26279 0.94102 0.0
N343 N 0.12127 0.26541 0.92367 0.0
O344 O 0.26779 0.21266 0.95158 0.0
H345 H 0.206 0.29114 0.87121 0.0
H346 H 0.16443 0.25567 0.96711 0.0
O347 O 0.28314 0.24544 0.88644 0.0
C348 C 0.25837 0.2244 0.982 0.0
O349 O 0.24971 0.27015 0.99011 0.0
N350 N 0.27881 0.33702 0.91713 0.0
C351 C 0.30258 0.43605 0.91868 0.0
C352 C 0.3298 0.40376 0.89905 0.0
C353 C 0.31774 0.35381 0.89912 0.0
C354 C 0.25084 0.36851 0.93501 0.0
C355 C 0.26177 0.41826 0.93582 0.0
H356 H 0.34126 0.32845 0.88638 0.0
H357 H 0.22223 0.35487 0.95096 0.0
H358 H 0.3805 0.23398 0.9063 0.0
H359 H 0.4309 0.32749 0.98665 0.0
H360 H 0.11066 0.28311 0.87272 0.0
H361 H 0.36153 0.41667 0.88548 0.0
H362 H 0.23971 0.44251 0.95094 0.0
C363 C 0.73378 0.3465 0.4545 0.0
C364 C 0.7367 0.39668 0.45527 0.0
N365 N 0.77604 0.41147 0.43772 0.0
N366 N 0.77071 0.3285 0.43628 0.0
C367 C 0.79607 0.36914 0.42646 0.0
H368 H 0.70566 0.32425 0.46603 0.0
Co369 Co 0.77654 0.25935 0.42909 0.0
C370 C 0.83859 0.27922 0.36465 0.0
O371 O 0.87577 0.3089 0.37365 0.0
N372 N 0.7814 0.18988 0.4216 0.0
C373 C 0.77299 0.1184 0.39256 0.0
C374 C 0.7688 0.16768 0.39184 0.0
C375 C 0.79187 0.15204 0.44055 0.0
N376 N 0.78749 0.10829 0.4231 0.0
O377 O 0.83648 0.26472 0.45376 0.0
H378 H 0.75449 0.18601 0.37119 0.0
H379 H 0.80176 0.15608 0.46658 0.0
O380 O 0.80725 0.26603 0.38609 0.0
C381 C 0.82225 0.2569 0.48331 0.0
O382 O 0.77606 0.24411 0.48797 0.0
N383 N 0.71584 0.25487 0.40897 0.0
C384 C 0.61788 0.25766 0.3938 0.0
C385 C 0.65256 0.28361 0.37527 0.0
C386 C 0.702 0.28171 0.38334 0.0
C387 C 0.6827 0.22716 0.42566 0.0
C388 C 0.63358 0.22701 0.41787 0.0
H389 H 0.72856 0.30459 0.37087 0.0
H390 H 0.69426 0.20709 0.4464 0.0
H391 H 0.82864 0.36782 0.41149 0.0
H392 H 0.71073 0.42031 0.46722 0.0
H393 H 0.76377 0.09157 0.37256 0.0
H394 H 0.6414 0.30801 0.35676 0.0
H395 H 0.60767 0.20623 0.43247 0.0
C396 C 0.84227 0.3296 0.19455 0.0
C397 C 0.89253 0.32995 0.1958 0.0
N398 N 0.9071 0.28717 0.18217 0.0
N399 N 0.82485 0.28679 0.18021 0.0
C400 C 0.86527 0.26169 0.17293 0.0
H401 H 0.81974 0.35873 0.20358 0.0
Co402 Co 0.75831 0.26628 0.17498 0.0
C403 C 0.75244 0.22077 0.10766 0.0
O404 O 0.71393 0.24684 0.10453 0.0
N405 N 0.68932 0.24308 0.17074 0.0
C406 C 0.62485 0.19033 0.1616 0.0
C407 C 0.67502 0.19671 0.16054 0.0
C408 C 0.64603 0.2632 0.17924 0.0
N409 N 0.60675 0.23224 0.17345 0.0
O410 O 0.76916 0.21973 0.20759 0.0
H411 H 0.69963 0.16862 0.15296 0.0
H412 H 0.64221 0.29872 0.19127 0.0
O413 O 0.77579 0.2231 0.13543 0.0
C414 C 0.75776 0.24525 0.23385 0.0
O415 O 0.72924 0.28168 0.23029 0.0
N416 N 0.75 0.31887 0.14829 0.0
C417 C 0.76682 0.41737 0.13932 0.0
C418 C 0.7931 0.38319 0.12053 0.0
C419 C 0.78344 0.33334 0.12503 0.0
C420 C 0.72267 0.35234 0.1647 0.0
C421 C 0.72833 0.40125 0.15906 0.0
H422 H 0.80803 0.30757 0.1139 0.0
H423 H 0.7037 0.34349 0.18685 0.0
H424 H 0.86402 0.22501 0.16164 0.0
H425 H 0.91653 0.35983 0.20547 0.0
H426 H 0.60331 0.15742 0.15431 0.0
H427 H 0.82362 0.39479 0.10531 0.0
H428 H 0.7077 0.42689 0.17412 0.0
C429 C 0.71014 0.84554 0.68815 0.0
C430 C 0.70882 0.89571 0.69068 0.0
N431 N 0.74977 0.91486 0.67695 0.0
N432 N 0.75163 0.83275 0.67277 0.0
C433 C 0.7751 0.87577 0.66633 0.0
H434 H 0.683 0.8199 0.69747 0.0
Co435 Co 0.77302 0.76843 0.66729 0.0
C436 C 0.81544 0.76338 0.60083 0.0
O437 O 0.78888 0.72252 0.59596 0.0
N438 N 0.79676 0.70224 0.66401 0.0
C439 C 0.84638 0.64073 0.65387 0.0
C440 C 0.8405 0.68983 0.65147 0.0
C441 C 0.77915 0.65977 0.6767 0.0
N442 N 0.80745 0.62119 0.6696 0.0
O443 O 0.82333 0.78733 0.69872 0.0
H444 H 0.86764 0.71502 0.64175 0.0
H445 H 0.74738 0.65743 0.69237 0.0
O446 O 0.81408 0.78747 0.62896 0.0
C447 C 0.80302 0.78002 0.72656 0.0
O448 O 0.76074 0.75538 0.7265 0.0
N449 N 0.71854 0.75185 0.63854 0.0
C450 C 0.62439 0.74287 0.61056 0.0
C451 C 0.65781 0.78053 0.60196 0.0
C452 C 0.70487 0.78376 0.61567 0.0
C453 C 0.68702 0.71428 0.64604 0.0
C454 C 0.6414 0.70749 0.63096 0.0
H455 H 0.72871 0.81472 0.61014 0.0
H456 H 0.69444 0.69156 0.66584 0.0
H457 H 0.81074 0.87836 0.65486 0.0
H458 H 0.67967 0.91641 0.70157 0.0
H459 H 0.87799 0.62154 0.64543 0.0
H460 H 0.64718 0.80948 0.58674 0.0
H461 H 0.61849 0.67643 0.63763 0.0
C462 C 0.35289 0.74399 0.10993 0.0
C463 C 0.40299 0.74553 0.10881 0.0
N464 N 0.42084 0.77415 0.13475 0.0
N465 N 0.33808 0.7712 0.1365 0.0
C466 C 0.38031 0.78938 0.15118 0.0
H467 H 0.32853 0.72286 0.09295 0.0
Co468 Co 0.27046 0.77275 0.14682 0.0
C469 C 0.29159 0.82175 0.22062 0.0
O470 O 0.3179 0.86303 0.22264 0.0
N471 N 0.20213 0.77388 0.15692 0.0
C472 C 0.13365 0.76428 0.18628 0.0
C473 C 0.18327 0.76032 0.18618 0.0
C474 C 0.16223 0.78494 0.1392 0.0
N475 N 0.12029 0.77971 0.15672 0.0
O476 O 0.26947 0.83472 0.12736 0.0
H477 H 0.20397 0.74638 0.2059 0.0
H478 H 0.1634 0.79642 0.11398 0.0
O479 O 0.28243 0.80132 0.19184 0.0
C480 C 0.2585 0.82346 0.09695 0.0
O481 O 0.24538 0.7778 0.0886 0.0
N482 N 0.27263 0.71024 0.16091 0.0
C483 C 0.29464 0.61296 0.15606 0.0
C484 C 0.32105 0.64576 0.17796 0.0
C485 C 0.30966 0.69483 0.17979 0.0
C486 C 0.24472 0.6781 0.14129 0.0
C487 C 0.25477 0.62915 0.13877 0.0
H488 H 0.33323 0.721 0.19391 0.0
H489 H 0.21723 0.69112 0.12517 0.0
H490 H 0.38116 0.81243 0.1738 0.0
H491 H 0.4243 0.72541 0.09066 0.0
H492 H 0.10895 0.7546 0.20609 0.0
H493 H 0.35198 0.63427 0.19178 0.0
H494 H 0.23282 0.60456 0.12224 0.0
C495 C 0.32953 0.22625 0.70342 0.0
C496 C 0.32979 0.17624 0.70477 0.0
N497 N 0.29356 0.15593 0.68518 0.0
N498 N 0.29353 0.23786 0.68288 0.0
C499 C 0.27164 0.19422 0.67271 0.0
H500 H 0.35463 0.25257 0.71611 0.0
Co501 Co 0.27951 0.30255 0.67313 0.0
C502 C 0.23542 0.25624 0.60767 0.0
O503 O 0.27708 0.23918 0.59817 0.0
N504 N 0.26284 0.36846 0.66385 0.0
C505 C 0.24685 0.4306 0.63262 0.0
C506 C 0.25386 0.38154 0.63264 0.0
C507 C 0.2616 0.41155 0.68242 0.0
N508 N 0.25188 0.45 0.66387 0.0
O509 O 0.23036 0.29836 0.70687 0.0
H510 H 0.25612 0.35773 0.61056 0.0
H511 H 0.26938 0.41524 0.70876 0.0
O512 O 0.23197 0.27933 0.63619 0.0
C513 C 0.25419 0.31265 0.7333 0.0
O514 O 0.29655 0.33621 0.72975 0.0
N515 N 0.33597 0.3069 0.64429 0.0
C516 C 0.43077 0.31381 0.61771 0.0
C517 C 0.40453 0.26903 0.61767 0.0
C518 C 0.35827 0.26622 0.63166 0.0
C519 C 0.36201 0.35083 0.64481 0.0
C520 C 0.40855 0.35528 0.63096 0.0
H521 H 0.34239 0.23 0.63367 0.0
H522 H 0.34925 0.38269 0.65819 0.0
H523 H 0.24039 0.19045 0.65628 0.0
H524 H 0.35586 0.15644 0.71824 0.0
H525 H 0.24185 0.451 0.61073 0.0
H526 H 0.42098 0.23544 0.60936 0.0
H527 H 0.42804 0.39056 0.63248 0.0
C528 C 0.99455 0.29139 0.1991 0.0
C529 C 0.95702 0.27316 0.17722 0.0
H530 H 0.07153 0.29714 0.20952 0.0
C531 C 0.96962 0.24308 0.1495 0.0
H532 H 0.9861 0.31411 0.22094 0.0
C533 C 1.01858 0.23346 0.14295 0.0
C534 C 0.0563 0.25313 0.16412 0.0
H535 H 0.94183 0.22854 0.13211 0.0
H536 H 0.02706 0.21125 0.12088 0.0
C537 C 0.04353 0.28124 0.19276 0.0
C538 C 0.79954 0.03067 0.64092 0.0
C539 C 0.77916 0.06707 0.66188 0.0
H540 H 0.80623 0.95433 0.62911 0.0
C541 C 0.75226 0.05241 0.68965 0.0
H542 H 0.82116 0.04052 0.61962 0.0
C543 C 0.74377 1.0026 0.69515 0.0
C544 C 0.76231 0.9662 0.67321 0.0
H545 H 0.73606 0.07927 0.70634 0.0
H546 H 0.72202 0.99261 0.71636 0.0
C547 C 0.79135 0.98107 0.64652 0.0
C548 C 0.98712 0.8043 0.16098 0.0
C549 C 0.96933 0.78126 0.13108 0.0
H550 H 0.0492 0.82126 0.19264 0.0
C551 C 1.00331 0.76278 0.10795 0.0
H552 H 0.96236 0.81883 0.17939 0.0
C553 C 0.05352 0.76519 0.11531 0.0
C554 C 0.07057 0.78511 0.14626 0.0
H555 H 0.99079 0.74494 0.08466 0.0
H556 H 0.07862 0.74889 0.09771 0.0
C557 C 0.03696 0.80559 0.16865 0.0
C558 C 0.29305 1.01874 0.68876 0.0
C559 C 0.2734 1.0029 0.65749 0.0
H560 H 0.31429 0.07943 0.72224 0.0
C561 C 0.25757 0.0385 0.63657 0.0
H562 H 0.30578 0.99273 0.70561 0.0
C563 C 0.26282 0.08834 0.64602 0.0
C564 C 0.28409 0.10429 0.67673 0.0
H565 H 0.24148 0.02795 0.61257 0.0
H566 H 0.2516 0.11438 0.62868 0.0
C567 C 0.2984 0.0687 0.6982 0.0
C568 C 0.9817 0.81216 0.9266 0.0
C569 C 0.96478 0.78278 0.89893 0.0
H570 H 0.04349 0.8389 0.95608 0.0
C571 C 0.99934 0.76124 0.87762 0.0
H572 H 0.95611 0.82886 0.94362 0.0
C573 C 0.04955 0.7676 0.88449 0.0
C574 C 0.06619 0.79468 0.91326 0.0
H575 H 0.98736 0.73846 0.8561 0.0
H576 H 0.07518 0.74935 0.86823 0.0
C577 C 0.03171 0.81757 0.93387 0.0
C578 C 0.274 0.99797 0.45505 0.0
C579 C 0.26776 0.98091 0.42171 0.0
H580 H 0.28045 0.06017 0.48968 0.0
C581 C 0.25998 1.01512 0.39772 0.0
H582 H 0.28032 0.97267 0.4741 0.0
C583 C 0.26015 0.06513 0.40654 0.0
C584 C 0.26843 0.08255 0.43964 0.0
H585 H 0.25455 1.00319 0.37187 0.0
H586 H 0.25552 0.09024 0.38713 0.0
C587 C 0.27462 0.0482 0.46388 0.0
C588 C 1.00779 0.29053 0.97275 0.0
C589 C 0.97102 0.27039 0.95091 0.0
H590 H 0.08488 0.3039 0.98149 0.0
C591 C 0.98522 0.24385 0.92197 0.0
H592 H 0.9981 0.31096 0.99533 0.0
C593 C 0.03465 0.24024 0.91403 0.0
C594 C 0.0713 0.26232 0.93502 0.0
H595 H 0.95819 0.2282 0.90441 0.0
H596 H 0.04434 0.22154 0.89078 0.0
C597 C 0.05744 0.2862 0.96502 0.0
C598 C 0.8192 0.02646 0.41424 0.0
C599 C 0.79187 0.05932 0.43365 0.0
H600 H 0.83394 0.95197 0.40147 0.0
C601 C 0.76142 0.04096 0.45853 0.0
H602 H 0.84244 0.03975 0.39463 0.0
C603 C 0.75579 0.99033 0.46217 0.0
C604 C 0.78092 0.95714 0.44121 0.0
H605 H 0.73941 0.06543 0.47346 0.0
H606 H 0.73035 0.97706 0.48052 0.0
C607 C 0.81419 0.97614 0.41814 0.0
C608 C 0.31334 0.48262 0.17294 0.0
C609 C 0.30635 0.46049 0.14089 0.0
H610 H 0.31496 0.54932 0.20297 0.0
C611 C 0.3063 0.48921 0.11333 0.0
H612 H 0.31381 0.46062 0.19446 0.0
C613 C 0.30719 0.53986 0.11819 0.0
C614 C 0.30782 0.56186 0.15061 0.0
H615 H 0.30113 0.4726 0.08849 0.0
H616 H 0.30369 0.56165 0.09678 0.0
C617 C 0.31404 0.53317 0.17781 0.0
C618 C 0.50125 0.28324 0.58414 0.0
C619 C 0.48344 0.315 0.60947 0.0
H620 H 0.56387 0.24804 0.564 0.0
C621 C 0.51689 0.34219 0.63041 0.0
H622 H 0.47636 0.2622 0.56742 0.0
C623 C 0.56665 0.33507 0.6277 0.0
C624 C 0.58373 0.30037 0.60429 0.0
H625 H 0.50458 0.36607 0.65067 0.0
H626 H 0.59144 0.35368 0.64572 0.0
C627 C 0.55113 0.27543 0.58188 0.0
C628 C 0.78128 0.50014 0.11794 0.0
C629 C 0.78315 0.46895 0.14409 0.0
H630 H 0.7777 0.57414 0.10455 0.0
C631 C 0.79097 0.48858 0.1768 0.0
H632 H 0.77575 0.48563 0.0926 0.0
C633 C 0.79069 0.53867 0.18381 0.0
C634 C 0.78334 0.56973 0.15808 0.0
H635 H 0.79313 0.4648 0.1973 0.0
H636 H 0.79273 0.55263 0.20947 0.0
C637 C 0.78156 0.55045 0.12492 0.0
C638 C 0.5363 0.7239 0.62482 0.0
C639 C 0.57093 0.74439 0.603 0.0
H640 H 0.4616 0.7171 0.63964 0.0
C641 C 0.55355 0.77062 0.57656 0.0
H642 H 0.54696 0.70493 0.64625 0.0
C643 C 0.50372 0.77919 0.57379 0.0
C644 C 0.47038 0.76007 0.59657 0.0
H645 H 0.57837 0.78625 0.55874 0.0
H646 H 0.49154 0.80229 0.5548 0.0
C647 C 0.48679 0.73108 0.6213 0.0
C648 C 0.31694 0.51644 0.89445 0.0
C649 C 0.31613 0.48832 0.92236 0.0
H650 H 0.31204 0.58809 0.87692 0.0
C651 C 0.31971 0.51134 0.95438 0.0
H652 H 0.31436 0.49926 0.86961 0.0
C653 C 0.31829 0.56191 0.95861 0.0
C654 C 0.31307 0.58951 0.93081 0.0
H655 H 0.31979 0.48992 0.97618 0.0
H656 H 0.31685 0.57881 0.98351 0.0
C657 C 0.31537 0.56695 0.89868 0.0
C658 C 0.54346 0.28097 0.4236 0.0
C659 C 0.56607 0.26902 0.39324 0.0
H660 H 0.47769 0.29584 0.44896 0.0
C661 C 0.53889 0.26761 0.36365 0.0
H662 H 0.5639 0.28319 0.44671 0.0
C663 C 0.48888 0.27595 0.36483 0.0
C664 C 0.46612 0.28636 0.39556 0.0
H665 H 0.55591 0.25875 0.33996 0.0
H666 H 0.46793 0.27358 0.34195 0.0
C667 C 0.49414 0.28914 0.42479 0.0
C668 C 0.77163 0.56358 0.90412 0.0
C669 C 0.76864 0.58473 0.93662 0.0
H670 H 0.77397 0.49781 0.8735 0.0
C671 C 0.77308 0.55568 0.96379 0.0
H672 H 0.76991 0.58575 0.88275 0.0
C673 C 0.77628 0.50539 0.95845 0.0
C674 C 0.77493 0.48374 0.92592 0.0
H675 H 0.77179 0.57145 0.98899 0.0
H676 H 0.7782 0.48324 0.97981 0.0
C677 C 0.77454 0.51343 0.89879 0.0
C678 C 0.50761 0.74487 0.36088 0.0
C679 C 0.49064 0.76207 0.39207 0.0
H680 H 0.56982 0.72205 0.33267 0.0
C681 C 0.52298 0.77068 0.41879 0.0
H682 H 0.48274 0.73821 0.34004 0.0
C683 C 0.57165 0.76077 0.41474 0.0
C684 C 0.58851 0.74232 0.38391 0.0
H685 H 0.51031 0.78346 0.44307 0.0
H686 H 0.59622 0.7673 0.43577 0.0
C687 C 0.55679 0.73547 0.35669 0.0
C688 C 0.33105 0.1879 0.05273 0.0
C689 C 0.29437 0.18516 0.0772 0.0
H690 H 0.34768 0.20035 1.00178 0.0
C691 C 0.24547 0.17924 0.0666 0.0
H692 H 0.36925 0.19179 0.0597 0.0
C693 C 0.2332 0.1848 1.03328 0.0
C694 C 0.26974 0.19404 1.0097 0.0
H695 H 0.2164 0.17473 0.08447 0.0
H696 H 0.19506 0.18675 1.02665 0.0
C697 C 0.31878 0.19218 1.01927 0.0
C698 C 0.85692 0.32043 0.52351 0.0
C699 C 0.85141 0.27083 0.51333 0.0
H700 H 0.8602 0.37319 0.56464 0.0
C701 C 0.85645 0.23585 0.53709 0.0
H702 H 0.85197 0.34811 0.5058 0.0
C703 C 0.86156 0.25011 0.57088 0.0
C704 C 0.85986 0.29949 0.58163 0.0
H705 H 0.85166 0.19732 0.52992 0.0
H706 H 0.8628 0.22224 0.58877 0.0
C707 C 0.86109 0.3347 0.55741 0.0
C708 C 0.76041 0.86911 1.01772 0.0
C709 C 0.80855 0.85981 1.00822 0.0
H710 H 0.70828 0.86905 0.05739 0.0
C711 C 0.84425 0.85926 1.03339 0.0
H712 H 0.73244 0.8725 0.99922 0.0
C713 C 0.83075 0.86017 0.06697 0.0
C714 C 0.78134 0.86104 0.07592 0.0
H715 H 0.88202 0.85336 1.0272 0.0
H716 H 0.8582 0.8538 0.08534 0.0
C717 C 0.74674 0.86863 0.05122 0.0
C718 C 0.18768 0.73931 0.51074 0.0
C719 C 0.19319 0.78838 0.50272 0.0
H720 H 0.18791 0.68879 0.54938 0.0
C721 C 0.19041 0.82472 0.52852 0.0
H722 H 0.19053 0.71046 0.49151 0.0
C723 C 0.18862 0.81242 0.56183 0.0
C724 C 0.19103 0.76354 0.57009 0.0
H725 H 0.19521 0.86287 0.52315 0.0
H726 H 0.1898 0.84146 0.58109 0.0
C727 C 0.18683 0.72696 0.54413 0.0
C728 C 0.25258 0.86626 1.01162 0.0
C729 C 0.30204 0.86384 1.00277 0.0
H730 H 0.19933 0.85576 0.04989 0.0
C731 C 0.33701 0.86436 1.0285 0.0
H732 H 0.2248 0.8681 0.99273 0.0
C733 C 0.3224 0.85971 0.06157 0.0
C734 C 0.27267 0.85422 0.06943 0.0
H735 H 0.37558 0.86331 1.02285 0.0
H736 H 0.34991 0.85405 0.08012 0.0
C737 C 0.23796 0.86044 0.04455 0.0
C738 C 0.16587 0.31211 0.54186 0.0
C739 C 0.17489 0.27824 0.51527 0.0
H740 H 0.17529 0.33056 0.59396 0.0
C741 C 0.18599 0.23071 0.5227 0.0
H742 H 0.15675 0.34895 0.53686 0.0
C743 C 0.19762 0.22055 0.5554 0.0
C744 C 0.19803 0.2576 0.58105 0.0
H745 H 0.19306 0.20365 0.50293 0.0
H746 H 0.21298 0.18581 0.55967 0.0
C747 C 0.17685 0.30166 0.57469 0.0
C748 C 0.73454 0.16793 0.05716 0.0
C749 C 0.76966 0.19456 0.07713 0.0
H750 H 0.70845 0.1505 1.00764 0.0
C751 C 0.8138 0.20995 0.06248 0.0
H752 H 0.70009 0.15582 0.06786 0.0
C753 C 0.81881 0.2062 1.02772 0.0
C754 C 0.77953 0.18776 1.00741 0.0
H755 H 0.84129 0.23108 0.07714 0.0
H756 H 0.84983 0.22522 1.01673 0.0
C757 C 0.73955 0.16432 1.02253 0.0
C758 C 0.88178 0.74834 0.52155 0.0
C759 C 0.86031 0.78438 0.50396 0.0
H760 H 0.88437 0.71387 0.56784 0.0
C761 C 0.83925 0.82337 0.52201 0.0
H762 H 0.89753 0.71756 0.50824 0.0
C763 C 0.83117 0.82109 0.55629 0.0
C764 C 0.84473 0.78003 0.57263 0.0
H765 H 0.82169 0.85123 0.50892 0.0
H766 H 0.80829 0.84752 0.5687 0.0
C767 C 0.8737 0.74597 0.5557 0.0
C768 C 0.53391 0.2785 0.16225 0.0
C769 C 0.55591 0.2418 0.17902 0.0
H770 H 0.46808 0.31537 0.15351 0.0
C771 C 0.52719 0.21384 0.20061 0.0
H772 H 0.55511 0.30008 0.1452 0.0
C773 C 0.47738 0.22253 0.2054 0.0
C774 C 0.45541 0.25921 0.18853 0.0
H775 H 0.54358 0.18569 0.21405 0.0
H776 H 0.45622 0.20132 0.22266 0.0
C777 C 0.48424 0.28703 0.16691 0.0
C778 C 0.75008 0.50533 0.70315 0.0
C779 C 0.77774 0.46864 0.68753 0.0
H780 H 0.73754 0.58145 0.71028 0.0
C781 C 0.8166 0.48343 0.66706 0.0
H782 H 0.72009 0.49566 0.71934 0.0
C783 C 0.82659 0.53304 0.66161 0.0
C784 C 0.79832 0.56989 0.67666 0.0
H785 H 0.83826 0.45653 0.65412 0.0
H786 H 0.85586 0.54203 0.64473 0.0
C787 C 0.76015 0.55499 0.69784 0.0
C788 C 0.55923 0.77639 0.12947 0.0
C789 C 0.57378 0.79602 0.16113 0.0
H790 H 0.50079 0.75512 0.09605 0.0
C791 C 0.53669 0.8103 0.18346 0.0
H792 H 0.58601 0.76467 0.11142 0.0
C793 C 0.48696 0.80391 0.17481 0.0
C794 C 0.47237 0.78325 0.1434 0.0
H795 H 0.54583 0.82639 0.20789 0.0
H796 H 0.4601 0.81455 0.19311 0.0
C797 C 0.50959 0.77031 0.12075 0.0
C798 C 0.28582 0.52264 0.69769 0.0
C799 C 0.25364 0.50206 0.673 0.0
H800 H 0.32007 0.58802 0.72048 0.0
C801 C 0.22693 0.53412 0.65459 0.0
H802 H 0.30706 0.49938 0.71231 0.0
C803 C 0.23439 0.58503 0.65919 0.0
C804 C 0.26908 0.60562 0.68222 0.0
H805 H 0.2013 0.51971 0.63567 0.0
H806 H 0.21495 0.60814 0.64335 0.0
C807 C 0.29355 0.57364 0.70213 0.0
C808 C 0.53187 0.83914 0.92397 0.0
C809 C 0.56774 0.81604 0.90449 0.0
H810 H 0.45579 0.84964 0.9324 0.0
C811 C 0.55233 0.78851 0.87559 0.0
H812 H 0.54229 0.86102 0.94623 0.0
C813 C 0.50229 0.78201 0.86759 0.0
C814 C 0.46625 0.80321 0.88807 0.0
H815 H 0.57867 0.76997 0.86008 0.0
H816 H 0.4917 0.75914 0.84581 0.0
C817 C 0.48205 0.833 0.91586 0.0
C818 C 0.21039 0.50995 0.40309 0.0
C819 C 0.23891 0.47646 0.41896 0.0
H820 H 0.19578 0.58515 0.39658 0.0
C821 C 0.27744 0.4957 0.43957 0.0
H822 H 0.18093 0.49714 0.38651 0.0
C823 C 0.28623 0.54612 0.44491 0.0
C824 C 0.25667 0.57961 0.43014 0.0
H825 H 0.3006 0.47211 0.45241 0.0
H826 H 0.31644 0.55869 0.46092 0.0
C827 C 0.21915 0.56074 0.40859 0.0
C828 C 0.51203 0.27918 0.95963 0.0
C829 C 0.47421 0.26562 0.93656 0.0
H830 H 0.58877 0.28438 0.97021 0.0
C831 C 0.48768 0.24346 0.90579 0.0
H832 H 0.50398 0.29557 0.98388 0.0
C833 C 0.53703 0.23618 0.89817 0.0
C834 C 0.57486 0.25096 0.92095 0.0
H835 H 0.4603 0.2324 0.88721 0.0
H836 H 0.54539 0.21904 0.87418 0.0
C837 C 0.5613 0.27213 0.95195 0.0
C838 C 0.8201 0.47371 0.4041 0.0
C839 C 0.79094 0.46201 0.43154 0.0
H840 H 0.85354 0.52927 0.37541 0.0
C841 C 0.77477 0.50123 0.45222 0.0
H842 H 0.83335 0.44505 0.38748 0.0
C843 C 0.78583 0.55015 0.44508 0.0
C844 C 0.8137 0.56202 0.41698 0.0
H845 H 0.75312 0.49432 0.47405 0.0
H846 H 0.77151 0.5785 0.46144 0.0
C847 C 0.83132 0.52266 0.39699 0.0
C848 C 0.18299 0.2343 0.31139 0.0
C849 C 0.22642 0.23318 0.32956 0.0
H850 H 0.15073 0.23124 0.26286 0.0
C851 C 0.26809 0.2154 0.31338 0.0
H852 H 0.15073 0.24883 0.32299 0.0
C853 C 0.26794 0.20452 0.27901 0.0
C854 C 0.22645 0.2124 0.26018 0.0
H855 H 0.3026 0.21529 0.32629 0.0
H856 H 0.30222 0.19718 0.26677 0.0
C857 C 0.183 0.22386 0.27692 0.0
C858 C 0.79289 0.2131 0.81576 0.0
C859 C 0.83292 0.24058 0.82968 0.0
H860 H 0.74961 0.19475 0.77242 0.0
C861 C 0.86469 0.26594 0.80822 0.0
H862 H 0.76846 0.19216 0.83127 0.0
C863 C 0.85404 0.2673 0.77417 0.0
C864 C 0.81146 0.24334 0.76104 0.0
H865 H 0.89619 0.28731 0.81801 0.0
H866 H 0.87732 0.28953 0.7587 0.0
C867 C 0.78222 0.2146 0.78194 0.0
C868 C 0.80488 0.78787 0.27176 0.0
C869 C 0.8329 0.82241 0.25462 0.0
H870 H 0.79023 0.75583 0.31815 0.0
C871 C 0.8656 0.85466 0.27277 0.0
H872 H 0.78056 0.7615 0.25831 0.0
C873 C 0.87084 0.85194 0.30727 0.0
C874 C 0.84444 0.81597 0.32434 0.0
H875 H 0.88828 0.88107 0.26004 0.0
H876 H 0.89651 0.87731 0.32039 0.0
C877 C 0.81092 0.78436 0.30611 0.0
C878 C 0.19977 0.81115 0.79847 0.0
C879 C 0.23432 0.8366 0.81976 0.0
H880 H 0.18041 0.7886 0.74812 0.0
C881 C 0.2686 0.8692 0.80633 0.0
H882 H 0.17261 0.78597 0.80841 0.0
C883 C 0.27291 0.87063 0.77181 0.0
C884 C 0.24304 0.83954 0.75043 0.0
H885 H 0.29563 0.88903 0.82212 0.0
H886 H 0.30275 0.89266 0.7619 0.0
C887 C 0.20409 0.81256 0.76393 0.0
C888 C 0.83548 0.80036 0.815 0.0
C889 C 0.79907 0.83265 0.8248 0.0
H890 H 0.86626 0.75802 0.77462 0.0
C891 C 0.77713 0.85889 0.8005 0.0
H892 H 0.85234 0.77886 0.83308 0.0
C893 C 0.78614 0.84761 0.7668 0.0
C894 C 0.81629 0.80932 0.7571 0.0
H895 H 0.74826 0.88312 0.80722 0.0
H896 H 0.76421 0.86402 0.74851 0.0
C897 C 0.84363 0.78828 0.78135 0.0
C898 C 0.26551 0.75242 0.25664 0.0
C899 C 0.26937 0.80263 0.2516 0.0
H900 H 0.25671 0.69699 0.29176 0.0
C901 C 0.25556 0.83503 0.27788 0.0
H902 H 0.27521 0.72617 0.23729 0.0
C903 C 0.24297 0.81792 0.3092 0.0
C904 C 0.24582 0.76823 0.31531 0.0
H905 H 0.25705 0.87398 0.27478 0.0
H906 H 0.23673 0.84432 0.32946 0.0
C907 C 0.25355 0.73545 0.28795 0.0
C908 C 0.24472 0.23969 0.76803 0.0
C909 C 0.24638 0.29065 0.76579 0.0
H910 H 0.258 0.17967 0.79838 0.0
C911 C 0.25702 0.32009 0.79467 0.0
H912 H 0.23782 0.21588 0.74605 0.0
C913 C 0.26902 0.29947 0.8244 0.0
C914 C 0.27093 0.24875 0.82644 0.0
H915 H 0.25959 0.35946 0.79365 0.0
H916 H 0.27847 0.32377 0.84528 0.0
C917 C 0.25729 0.219 0.79794 0.0
C918 C 0.81236 0.21961 0.31729 0.0
C919 C 0.82785 0.26723 0.32893 0.0
H920 H 0.77813 0.17438 0.27751 0.0
C921 C 0.82758 0.30475 0.30687 0.0
H922 H 0.81467 0.18948 0.33321 0.0
C923 C 0.80794 0.29591 0.27501 0.0
C924 C 0.78873 0.2492 0.26413 0.0
H925 H 0.8394 0.34169 0.31498 0.0
H926 H 0.80509 0.32662 0.25954 0.0
C927 C 0.79266 0.21061 0.28513 0.0
loop_
_geom_bond_atom_site_label_1
_geom_bond_atom_site_label_2
_geom_bond_distance
_geom_bond_site_symmetry_2
_ccdc_geom_bond_type
C0 C1 1.351 . S
C0 N3 1.368 . S
C0 H5 0.931 . S
C1 C0 1.351 . S
C1 N2 1.373 . S
C1 H29 0.930 . S
N2 C1 1.373 . S
N2 C4 1.340 . S
N3 C0 1.368 . S
N3 C4 1.321 . S
N3 Co6 2.135 . S
C4 N2 1.340 . S
C4 N3 1.321 . S
C4 H28 0.930 . S
H5 C0 0.931 . S
Co6 N3 2.135 . S
Co6 N9 2.121 . S
Co6 O14 2.055 . S
Co6 O17 2.039 . S
Co6 N20 2.140 . S
C7 O8 1.227 . S
C7 O17 1.265 . S
O8 C7 1.227 . S
N9 Co6 2.121 . S
N9 C11 1.375 . S
N9 C12 1.313 . S
C10 C11 1.338 . S
C10 N13 1.377 . S
C10 H30 0.930 . S
C11 N9 1.375 . S
C11 C10 1.338 . S
C11 H15 0.931 . S
C12 N9 1.313 . S
C12 N13 1.344 . S
C12 H16 0.930 . S
N13 C10 1.377 . S
N13 C12 1.344 . S
O14 Co6 2.055 . S
O14 C18 1.253 . S
H15 C11 0.931 . S
H16 C12 0.930 . S
O17 Co6 2.039 . S
O17 C7 1.265 . S
C18 O14 1.253 . S
C18 O19 1.227 . S
O19 C18 1.227 . S
N20 Co6 2.140 . S
N20 C23 1.346 . S
N20 C24 1.345 . S
C21 C22 1.387 . S
C21 C25 1.391 . S
C22 C21 1.387 . S
C22 C23 1.369 . S
C22 H31 0.929 . S
C23 N20 1.346 . S
C23 C22 1.369 . S
C23 H26 0.928 . S
C24 N20 1.345 . S
C24 C25 1.371 . S
C24 H27 0.931 . S
C25 C21 1.391 . S
C25 C24 1.371 . S
C25 H32 0.930 . S
H26 C23 0.928 . S
H27 C24 0.931 . S
H28 C4 0.930 . S
H29 C1 0.930 . S
H30 C10 0.930 . S
H31 C22 0.929 . S
H32 C25 0.930 . S
C33 C34 1.351 . S
C33 N36 1.368 . S
C33 H38 0.931 . S
C34 C33 1.351 . S
C34 N35 1.373 . S
C34 H62 0.930 . S
N35 C34 1.373 . S
N35 C37 1.340 . S
N36 C33 1.368 . S
N36 C37 1.321 . S
N36 Co39 2.135 . S
C37 N35 1.340 . S
C37 N36 1.321 . S
C37 H61 0.930 . S
H38 C33 0.931 . S
Co39 N36 2.135 . S
Co39 N42 2.121 . S
Co39 O47 2.055 . S
Co39 O50 2.039 . S
Co39 N53 2.140 . S
C40 O41 1.227 . S
C40 O50 1.265 . S
O41 C40 1.227 . S
N42 Co39 2.121 . S
N42 C44 1.375 . S
N42 C45 1.313 . S
C43 C44 1.338 . S
C43 N46 1.377 . S
C43 H63 0.930 . S
C44 N42 1.375 . S
C44 C43 1.338 . S
C44 H48 0.931 . S
C45 N42 1.313 . S
C45 N46 1.344 . S
C45 H49 0.930 . S
N46 C43 1.377 . S
N46 C45 1.344 . S
O47 Co39 2.055 . S
O47 C51 1.253 . S
H48 C44 0.931 . S
H49 C45 0.930 . S
O50 Co39 2.039 . S
O50 C40 1.265 . S
C51 O47 1.253 . S
C51 O52 1.227 . S
O52 C51 1.227 . S
N53 Co39 2.140 . S
N53 C56 1.346 . S
N53 C57 1.345 . S
C54 C55 1.387 . S
C54 C58 1.391 . S
C55 C54 1.387 . S
C55 C56 1.369 . S
C55 H64 0.929 . S
C56 N53 1.346 . S
C56 C55 1.369 . S
C56 H59 0.928 . S
C57 N53 1.345 . S
C57 C58 1.371 . S
C57 H60 0.931 . S
C58 C54 1.391 . S
C58 C57 1.371 . S
C58 H65 0.930 . S
H59 C56 0.928 . S
H60 C57 0.931 . S
H61 C37 0.930 . S
H62 C34 0.930 . S
H63 C43 0.930 . S
H64 C55 0.929 . S
H65 C58 0.930 . S
C66 C67 1.351 . S
C66 N69 1.368 . S
C66 H71 0.931 . S
C67 C66 1.351 . S
C67 N68 1.373 . S
C67 H95 0.930 . S
N68 C67 1.373 . S
N68 C70 1.340 . S
N69 C66 1.368 . S
N69 C70 1.321 . S
N69 Co72 2.135 . S
C70 N68 1.340 . S
C70 N69 1.321 . S
C70 H94 0.930 . S
H71 C66 0.931 . S
Co72 N69 2.135 . S
Co72 N75 2.121 . S
Co72 O80 2.055 . S
Co72 O83 2.039 . S
Co72 N86 2.140 . S
C73 O74 1.227 . S
C73 O83 1.265 . S
O74 C73 1.227 . S
N75 Co72 2.121 . S
N75 C77 1.375 . S
N75 C78 1.313 . S
C76 C77 1.338 . S
C76 N79 1.377 . S
C76 H96 0.930 . S
C77 N75 1.375 . S
C77 C76 1.338 . S
C77 H81 0.931 . S
C78 N75 1.313 . S
C78 N79 1.344 . S
C78 H82 0.930 . S
N79 C76 1.377 . S
N79 C78 1.344 . S
O80 Co72 2.055 . S
O80 C84 1.253 . S
H81 C77 0.931 . S
H82 C78 0.930 . S
O83 Co72 2.039 . S
O83 C73 1.265 . S
C84 O80 1.253 . S
C84 O85 1.227 . S
O85 C84 1.227 . S
N86 Co72 2.140 . S
N86 C89 1.346 . S
N86 C90 1.345 . S
C87 C88 1.387 . S
C87 C91 1.391 . S
C88 C87 1.387 . S
C88 C89 1.369 . S
C88 H97 0.929 . S
C89 N86 1.346 . S
C89 C88 1.369 . S
C89 H92 0.928 . S
C90 N86 1.345 . S
C90 C91 1.371 . S
C90 H93 0.931 . S
C91 C87 1.391 . S
C91 C90 1.371 . S
C91 H98 0.930 . S
H92 C89 0.928 . S
H93 C90 0.931 . S
H94 C70 0.930 . S
H95 C67 0.930 . S
H96 C76 0.930 . S
H97 C88 0.929 . S
H98 C91 0.930 . S
C99 C100 1.351 . S
C99 N102 1.368 . S
C99 H104 0.931 . S
C100 C99 1.351 . S
C100 N101 1.373 . S
C100 H128 0.930 . S
N101 C100 1.373 . S
N101 C103 1.340 . S
N102 C99 1.368 . S
N102 C103 1.321 . S
N102 Co105 2.135 . S
C103 N101 1.340 . S
C103 N102 1.321 . S
C103 H127 0.930 . S
H104 C99 0.931 . S
Co105 N102 2.135 . S
Co105 N108 2.121 . S
Co105 O113 2.055 . S
Co105 O116 2.039 . S
Co105 N119 2.140 . S
C106 O107 1.227 . S
C106 O116 1.265 . S
O107 C106 1.227 . S
N108 Co105 2.121 . S
N108 C110 1.375 . S
N108 C111 1.313 . S
C109 C110 1.338 . S
C109 N112 1.377 . S
C109 H129 0.930 . S
C110 N108 1.375 . S
C110 C109 1.338 . S
C110 H114 0.931 . S
C111 N108 1.313 . S
C111 N112 1.344 . S
C111 H115 0.930 . S
N112 C109 1.377 . S
N112 C111 1.344 . S
O113 Co105 2.055 . S
O113 C117 1.253 . S
H114 C110 0.931 . S
H115 C111 0.930 . S
O116 Co105 2.039 . S
O116 C106 1.265 . S
C117 O113 1.253 . S
C117 O118 1.227 . S
O118 C117 1.227 . S
N119 Co105 2.140 . S
N119 C122 1.346 . S
N119 C123 1.345 . S
C120 C121 1.387 . S
C120 C124 1.391 . S
C121 C120 1.387 . S
C121 C122 1.369 . S
C121 H130 0.929 . S
C122 N119 1.346 . S
C122 C121 1.369 . S
C122 H125 0.928 . S
C123 N119 1.345 . S
C123 C124 1.371 . S
C123 H126 0.931 . S
C124 C120 1.391 . S
C124 C123 1.371 . S
C124 H131 0.930 . S
H125 C122 0.928 . S
H126 C123 0.931 . S
H127 C103 0.930 . S
H128 C100 0.930 . S
H129 C109 0.930 . S
H130 C121 0.929 . S
H131 C124 0.930 . S
C132 C133 1.351 . S
C132 N135 1.368 . S
C132 H137 0.931 . S
C133 C132 1.351 . S
C133 N134 1.373 . S
C133 H161 0.930 . S
N134 C133 1.373 . S
N134 C136 1.340 . S
N135 C132 1.368 . S
N135 C136 1.321 . S
N135 Co138 2.135 . S
C136 N134 1.340 . S
C136 N135 1.321 . S
C136 H160 0.930 . S
H137 C132 0.931 . S
Co138 N135 2.135 . S
Co138 N141 2.121 . S
Co138 O146 2.055 . S
Co138 O149 2.039 . S
Co138 N152 2.140 . S
C139 O140 1.227 . S
C139 O149 1.265 . S
O140 C139 1.227 . S
N141 Co138 2.121 . S
N141 C143 1.375 . S
N141 C144 1.313 . S
C142 C143 1.338 . S
C142 N145 1.377 . S
C142 H162 0.930 . S
C143 N141 1.375 . S
C143 C142 1.338 . S
C143 H147 0.931 . S
C144 N141 1.313 . S
C144 N145 1.344 . S
C144 H148 0.930 . S
N145 C142 1.377 . S
N145 C144 1.344 . S
O146 Co138 2.055 . S
O146 C150 1.253 . S
H147 C143 0.931 . S
H148 C144 0.930 . S
O149 Co138 2.039 . S
O149 C139 1.265 . S
C150 O146 1.253 . S
C150 O151 1.227 . S
O151 C150 1.227 . S
N152 Co138 2.140 . S
N152 C155 1.346 . S
N152 C156 1.345 . S
C153 C154 1.387 . S
C153 C157 1.391 . S
C154 C153 1.387 . S
C154 C155 1.369 . S
C154 H163 0.929 . S
C155 N152 1.346 . S
C155 C154 1.369 . S
C155 H158 0.928 . S
C156 N152 1.345 . S
C156 C157 1.371 . S
C156 H159 0.931 . S
C157 C153 1.391 . S
C157 C156 1.371 . S
C157 H164 0.930 . S
H158 C155 0.928 . S
H159 C156 0.931 . S
H160 C136 0.930 . S
H161 C133 0.930 . S
H162 C142 0.930 . S
H163 C154 0.929 . S
H164 C157 0.930 . S
C165 C166 1.351 . S
C165 N168 1.368 . S
C165 H170 0.931 . S
C166 C165 1.351 . S
C166 N167 1.373 . S
C166 H194 0.930 . S
N167 C166 1.373 . S
N167 C169 1.340 . S
N168 C165 1.368 . S
N168 C169 1.321 . S
N168 Co171 2.135 . S
C169 N167 1.340 . S
C169 N168 1.321 . S
C169 H193 0.930 . S
H170 C165 0.931 . S
Co171 N168 2.135 . S
Co171 N174 2.121 . S
Co171 O179 2.055 . S
Co171 O182 2.039 . S
Co171 N185 2.140 . S
C172 O173 1.227 . S
C172 O182 1.265 . S
O173 C172 1.227 . S
N174 Co171 2.121 . S
N174 C176 1.375 . S
N174 C177 1.313 . S
C175 C176 1.338 . S
C175 N178 1.377 . S
C175 H195 0.930 . S
C176 N174 1.375 . S
C176 C175 1.338 . S
C176 H180 0.931 . S
C177 N174 1.313 . S
C177 N178 1.344 . S
C177 H181 0.930 . S
N178 C175 1.377 . S
N178 C177 1.344 . S
O179 Co171 2.055 . S
O179 C183 1.253 . S
H180 C176 0.931 . S
H181 C177 0.930 . S
O182 Co171 2.039 . S
O182 C172 1.265 . S
C183 O179 1.253 . S
C183 O184 1.227 . S
O184 C183 1.227 . S
N185 Co171 2.140 . S
N185 C188 1.346 . S
N185 C189 1.345 . S
C186 C187 1.387 . S
C186 C190 1.391 . S
C187 C186 1.387 . S
C187 C188 1.369 . S
C187 H196 0.929 . S
C188 N185 1.346 . S
C188 C187 1.369 . S
C188 H191 0.928 . S
C189 N185 1.345 . S
C189 C190 1.371 . S
C189 H192 0.931 . S
C190 C186 1.391 . S
C190 C189 1.371 . S
C190 H197 0.930 . S
H191 C188 0.928 . S
H192 C189 0.931 . S
H193 C169 0.930 . S
H194 C166 0.930 . S
H195 C175 0.930 . S
H196 C187 0.929 . S
H197 C190 0.930 . S
C198 C199 1.351 . S
C198 N201 1.368 . S
C198 H203 0.931 . S
C199 C198 1.351 . S
C199 N200 1.373 . S
C199 H227 0.930 . S
N200 C199 1.373 . S
N200 C202 1.340 . S
N201 C198 1.368 . S
N201 C202 1.321 . S
N201 Co204 2.135 . S
C202 N200 1.340 . S
C202 N201 1.321 . S
C202 H226 0.930 . S
H203 C198 0.931 . S
Co204 N201 2.135 . S
Co204 N207 2.121 . S
Co204 O212 2.055 . S
Co204 O215 2.039 . S
Co204 N218 2.140 . S
C205 O206 1.227 . S
C205 O215 1.265 . S
O206 C205 1.227 . S
N207 Co204 2.121 . S
N207 C209 1.375 . S
N207 C210 1.313 . S
C208 C209 1.338 . S
C208 N211 1.377 . S
C208 H228 0.930 . S
C209 N207 1.375 . S
C209 C208 1.338 . S
C209 H213 0.931 . S
C210 N207 1.313 . S
C210 N211 1.344 . S
C210 H214 0.930 . S
N211 C208 1.377 . S
N211 C210 1.344 . S
O212 Co204 2.055 . S
O212 C216 1.253 . S
H213 C209 0.931 . S
H214 C210 0.930 . S
O215 Co204 2.039 . S
O215 C205 1.265 . S
C216 O212 1.253 . S
C216 O217 1.227 . S
O217 C216 1.227 . S
N218 Co204 2.140 . S
N218 C221 1.346 . S
N218 C222 1.345 . S
C219 C220 1.387 . S
C219 C223 1.391 . S
C220 C219 1.387 . S
C220 C221 1.369 . S
C220 H229 0.929 . S
C221 N218 1.346 . S
C221 C220 1.369 . S
C221 H224 0.928 . S
C222 N218 1.345 . S
C222 C223 1.371 . S
C222 H225 0.931 . S
C223 C219 1.391 . S
C223 C222 1.371 . S
C223 H230 0.930 . S
H224 C221 0.928 . S
H225 C222 0.931 . S
H226 C202 0.930 . S
H227 C199 0.930 . S
H228 C208 0.930 . S
H229 C220 0.929 . S
H230 C223 0.930 . S
C231 C232 1.351 . S
C231 N234 1.368 . S
C231 H236 0.931 . S
C232 C231 1.351 . S
C232 N233 1.373 . S
C232 H260 0.930 . S
N233 C232 1.373 . S
N233 C235 1.340 . S
N234 C231 1.368 . S
N234 C235 1.321 . S
N234 Co237 2.135 . S
C235 N233 1.340 . S
C235 N234 1.321 . S
C235 H259 0.930 . S
H236 C231 0.931 . S
Co237 N234 2.135 . S
Co237 N240 2.121 . S
Co237 O245 2.055 . S
Co237 O248 2.039 . S
Co237 N251 2.140 . S
C238 O239 1.227 . S
C238 O248 1.265 . S
O239 C238 1.227 . S
N240 Co237 2.121 . S
N240 C242 1.375 . S
N240 C243 1.313 . S
C241 C242 1.338 . S
C241 N244 1.377 . S
C241 H261 0.930 . S
C242 N240 1.375 . S
C242 C241 1.338 . S
C242 H246 0.931 . S
C243 N240 1.313 . S
C243 N244 1.344 . S
C243 H247 0.930 . S
N244 C241 1.377 . S
N244 C243 1.344 . S
O245 Co237 2.055 . S
O245 C249 1.253 . S
H246 C242 0.931 . S
H247 C243 0.930 . S
O248 Co237 2.039 . S
O248 C238 1.265 . S
C249 O245 1.253 . S
C249 O250 1.227 . S
O250 C249 1.227 . S
N251 Co237 2.140 . S
N251 C254 1.346 . S
N251 C255 1.345 . S
C252 C253 1.387 . S
C252 C256 1.391 . S
C253 C252 1.387 . S
C253 C254 1.369 . S
C253 H262 0.929 . S
C254 N251 1.346 . S
C254 C253 1.369 . S
C254 H257 0.928 . S
C255 N251 1.345 . S
C255 C256 1.371 . S
C255 H258 0.931 . S
C256 C252 1.391 . S
C256 C255 1.371 . S
C256 H263 0.930 . S
H257 C254 0.928 . S
H258 C255 0.931 . S
H259 C235 0.930 . S
H260 C232 0.930 . S
H261 C241 0.930 . S
H262 C253 0.929 . S
H263 C256 0.930 . S
C264 C265 1.351 . S
C264 N267 1.368 . S
C264 H269 0.931 . S
C265 C264 1.351 . S
C265 N266 1.373 . S
C265 H293 0.930 . S
N266 C265 1.373 . S
N266 C268 1.340 . S
N267 C264 1.368 . S
N267 C268 1.321 . S
N267 Co270 2.135 . S
C268 N266 1.340 . S
C268 N267 1.321 . S
C268 H292 0.930 . S
H269 C264 0.931 . S
Co270 N267 2.135 . S
Co270 N273 2.121 . S
Co270 O278 2.055 . S
Co270 O281 2.039 . S
Co270 N284 2.140 . S
C271 O272 1.227 . S
C271 O281 1.265 . S
O272 C271 1.227 . S
N273 Co270 2.121 . S
N273 C275 1.375 . S
N273 C276 1.313 . S
C274 C275 1.338 . S
C274 N277 1.377 . S
C274 H294 0.930 . S
C275 N273 1.375 . S
C275 C274 1.338 . S
C275 H279 0.931 . S
C276 N273 1.313 . S
C276 N277 1.344 . S
C276 H280 0.930 . S
N277 C274 1.377 . S
N277 C276 1.344 . S
O278 Co270 2.055 . S
O278 C282 1.253 . S
H279 C275 0.931 . S
H280 C276 0.930 . S
O281 Co270 2.039 . S
O281 C271 1.265 . S
C282 O278 1.253 . S
C282 O283 1.227 . S
O283 C282 1.227 . S
N284 Co270 2.140 . S
N284 C287 1.346 . S
N284 C288 1.345 . S
C285 C286 1.387 . S
C285 C289 1.391 . S
C286 C285 1.387 . S
C286 C287 1.369 . S
C286 H295 0.929 . S
C287 N284 1.346 . S
C287 C286 1.369 . S
C287 H290 0.928 . S
C288 N284 1.345 . S
C288 C289 1.371 . S
C288 H291 0.931 . S
C289 C285 1.391 . S
C289 C288 1.371 . S
C289 H296 0.930 . S
H290 C287 0.928 . S
H291 C288 0.931 . S
H292 C268 0.930 . S
H293 C265 0.930 . S
H294 C274 0.930 . S
H295 C286 0.929 . S
H296 C289 0.930 . S
C297 C298 1.351 . S
C297 N300 1.368 . S
C297 H302 0.931 . S
C298 C297 1.351 . S
C298 N299 1.373 . S
C298 H326 0.930 . S
N299 C298 1.373 . S
N299 C301 1.340 . S
N300 C297 1.368 . S
N300 C301 1.321 . S
N300 Co303 2.135 . S
C301 N299 1.340 . S
C301 N300 1.321 . S
C301 H325 0.930 . S
H302 C297 0.931 . S
Co303 N300 2.135 . S
Co303 N306 2.121 . S
Co303 O311 2.055 . S
Co303 O314 2.039 . S
Co303 N317 2.140 . S
C304 O305 1.227 . S
C304 O314 1.265 . S
O305 C304 1.227 . S
N306 Co303 2.121 . S
N306 C308 1.375 . S
N306 C309 1.313 . S
C307 C308 1.338 . S
C307 N310 1.377 . S
C307 H327 0.930 . S
C308 N306 1.375 . S
C308 C307 1.338 . S
C308 H312 0.931 . S
C309 N306 1.313 . S
C309 N310 1.344 . S
C309 H313 0.930 . S
N310 C307 1.377 . S
N310 C309 1.344 . S
O311 Co303 2.055 . S
O311 C315 1.253 . S
H312 C308 0.931 . S
H313 C309 0.930 . S
O314 Co303 2.039 . S
O314 C304 1.265 . S
C315 O311 1.253 . S
C315 O316 1.227 . S
O316 C315 1.227 . S
N317 Co303 2.140 . S
N317 C320 1.346 . S
N317 C321 1.345 . S
C318 C319 1.387 . S
C318 C322 1.391 . S
C319 C318 1.387 . S
C319 C320 1.369 . S
C319 H328 0.929 . S
C320 N317 1.346 . S
C320 C319 1.369 . S
C320 H323 0.928 . S
C321 N317 1.345 . S
C321 C322 1.371 . S
C321 H324 0.931 . S
C322 C318 1.391 . S
C322 C321 1.371 . S
C322 H329 0.930 . S
H323 C320 0.928 . S
H324 C321 0.931 . S
H325 C301 0.930 . S
H326 C298 0.930 . S
H327 C307 0.930 . S
H328 C319 0.929 . S
H329 C322 0.930 . S
C330 C331 1.351 . S
C330 N333 1.368 . S
C330 H335 0.931 . S
C331 C330 1.351 . S
C331 N332 1.373 . S
C331 H359 0.930 . S
N332 C331 1.373 . S
N332 C334 1.340 . S
N333 C330 1.368 . S
N333 C334 1.321 . S
N333 Co336 2.135 . S
C334 N332 1.340 . S
C334 N333 1.321 . S
C334 H358 0.930 . S
H335 C330 0.931 . S
Co336 N333 2.135 . S
Co336 N339 2.121 . S
Co336 O344 2.055 . S
Co336 O347 2.039 . S
Co336 N350 2.140 . S
C337 O338 1.227 . S
C337 O347 1.265 . S
O338 C337 1.227 . S
N339 Co336 2.121 . S
N339 C341 1.375 . S
N339 C342 1.313 . S
C340 C341 1.338 . S
C340 N343 1.377 . S
C340 H360 0.930 . S
C341 N339 1.375 . S
C341 C340 1.338 . S
C341 H345 0.931 . S
C342 N339 1.313 . S
C342 N343 1.344 . S
C342 H346 0.930 . S
N343 C340 1.377 . S
N343 C342 1.344 . S
O344 Co336 2.055 . S
O344 C348 1.253 . S
H345 C341 0.931 . S
H346 C342 0.930 . S
O347 Co336 2.039 . S
O347 C337 1.265 . S
C348 O344 1.253 . S
C348 O349 1.227 . S
O349 C348 1.227 . S
N350 Co336 2.140 . S
N350 C353 1.346 . S
N350 C354 1.345 . S
C351 C352 1.387 . S
C351 C355 1.391 . S
C352 C351 1.387 . S
C352 C353 1.369 . S
C352 H361 0.929 . S
C353 N350 1.346 . S
C353 C352 1.369 . S
C353 H356 0.928 . S
C354 N350 1.345 . S
C354 C355 1.371 . S
C354 H357 0.931 . S
C355 C351 1.391 . S
C355 C354 1.371 . S
C355 H362 0.930 . S
H356 C353 0.928 . S
H357 C354 0.931 . S
H358 C334 0.930 . S
H359 C331 0.930 . S
H360 C340 0.930 . S
H361 C352 0.929 . S
H362 C355 0.930 . S
C363 C364 1.351 . S
C363 N366 1.368 . S
C363 H368 0.931 . S
C364 C363 1.351 . S
C364 N365 1.373 . S
C364 H392 0.930 . S
N365 C364 1.373 . S
N365 C367 1.340 . S
N366 C363 1.368 . S
N366 C367 1.321 . S
N366 Co369 2.135 . S
C367 N365 1.340 . S
C367 N366 1.321 . S
C367 H391 0.930 . S
H368 C363 0.931 . S
Co369 N366 2.135 . S
Co369 N372 2.121 . S
Co369 O377 2.055 . S
Co369 O380 2.039 . S
Co369 N383 2.140 . S
C370 O371 1.227 . S
C370 O380 1.265 . S
O371 C370 1.227 . S
N372 Co369 2.121 . S
N372 C374 1.375 . S
N372 C375 1.313 . S
C373 C374 1.338 . S
C373 N376 1.377 . S
C373 H393 0.930 . S
C374 N372 1.375 . S
C374 C373 1.338 . S
C374 H378 0.931 . S
C375 N372 1.313 . S
C375 N376 1.344 . S
C375 H379 0.930 . S
N376 C373 1.377 . S
N376 C375 1.344 . S
O377 Co369 2.055 . S
O377 C381 1.253 . S
H378 C374 0.931 . S
H379 C375 0.930 . S
O380 Co369 2.039 . S
O380 C370 1.265 . S
C381 O377 1.253 . S
C381 O382 1.227 . S
O382 C381 1.227 . S
N383 Co369 2.140 . S
N383 C386 1.346 . S
N383 C387 1.345 . S
C384 C385 1.387 . S
C384 C388 1.391 . S
C385 C384 1.387 . S
C385 C386 1.369 . S
C385 H394 0.929 . S
C386 N383 1.346 . S
C386 C385 1.369 . S
C386 H389 0.928 . S
C387 N383 1.345 . S
C387 C388 1.371 . S
C387 H390 0.931 . S
C388 C384 1.391 . S
C388 C387 1.371 . S
C388 H395 0.930 . S
H389 C386 0.928 . S
H390 C387 0.931 . S
H391 C367 0.930 . S
H392 C364 0.930 . S
H393 C373 0.930 . S
H394 C385 0.929 . S
H395 C388 0.930 . S
C396 C397 1.351 . S
C396 N399 1.368 . S
C396 H401 0.931 . S
C397 C396 1.351 . S
C397 N398 1.373 . S
C397 H425 0.930 . S
N398 C397 1.373 . S
N398 C400 1.340 . S
N399 C396 1.368 . S
N399 C400 1.321 . S
N399 Co402 2.135 . S
C400 N398 1.340 . S
C400 N399 1.321 . S
C400 H424 0.930 . S
H401 C396 0.931 . S
Co402 N399 2.135 . S
Co402 N405 2.121 . S
Co402 O410 2.055 . S
Co402 O413 2.039 . S
Co402 N416 2.140 . S
C403 O404 1.227 . S
C403 O413 1.265 . S
O404 C403 1.227 . S
N405 Co402 2.121 . S
N405 C407 1.375 . S
N405 C408 1.313 . S
C406 C407 1.338 . S
C406 N409 1.377 . S
C406 H426 0.930 . S
C407 N405 1.375 . S
C407 C406 1.338 . S
C407 H411 0.931 . S
C408 N405 1.313 . S
C408 N409 1.344 . S
C408 H412 0.930 . S
N409 C406 1.377 . S
N409 C408 1.344 . S
O410 Co402 2.055 . S
O410 C414 1.253 . S
H411 C407 0.931 . S
H412 C408 0.930 . S
O413 Co402 2.039 . S
O413 C403 1.265 . S
C414 O410 1.253 . S
C414 O415 1.227 . S
O415 C414 1.227 . S
N416 Co402 2.140 . S
N416 C419 1.346 . S
N416 C420 1.345 . S
C417 C418 1.387 . S
C417 C421 1.391 . S
C418 C417 1.387 . S
C418 C419 1.369 . S
C418 H427 0.929 . S
C419 N416 1.346 . S
C419 C418 1.369 . S
C419 H422 0.928 . S
C420 N416 1.345 . S
C420 C421 1.371 . S
C420 H423 0.931 . S
C421 C417 1.391 . S
C421 C420 1.371 . S
C421 H428 0.930 . S
H422 C419 0.928 . S
H423 C420 0.931 . S
H424 C400 0.930 . S
H425 C397 0.930 . S
H426 C406 0.930 . S
H427 C418 0.929 . S
H428 C421 0.930 . S
C429 C430 1.351 . S
C429 N432 1.368 . S
C429 H434 0.931 . S
C430 C429 1.351 . S
C430 N431 1.373 . S
C430 H458 0.930 . S
N431 C430 1.373 . S
N431 C433 1.340 . S
N432 C429 1.368 . S
N432 C433 1.321 . S
N432 Co435 2.135 . S
C433 N431 1.340 . S
C433 N432 1.321 . S
C433 H457 0.930 . S
H434 C429 0.931 . S
Co435 N432 2.135 . S
Co435 N438 2.121 . S
Co435 O443 2.055 . S
Co435 O446 2.039 . S
Co435 N449 2.140 . S
C436 O437 1.227 . S
C436 O446 1.265 . S
O437 C436 1.227 . S
N438 Co435 2.121 . S
N438 C440 1.375 . S
N438 C441 1.313 . S
C439 C440 1.338 . S
C439 N442 1.377 . S
C439 H459 0.930 . S
C440 N438 1.375 . S
C440 C439 1.338 . S
C440 H444 0.931 . S
C441 N438 1.313 . S
C441 N442 1.344 . S
C441 H445 0.930 . S
N442 C439 1.377 . S
N442 C441 1.344 . S
O443 Co435 2.055 . S
O443 C447 1.253 . S
H444 C440 0.931 . S
H445 C441 0.930 . S
O446 Co435 2.039 . S
O446 C436 1.265 . S
C447 O443 1.253 . S
C447 O448 1.227 . S
O448 C447 1.227 . S
N449 Co435 2.140 . S
N449 C452 1.346 . S
N449 C453 1.345 . S
C450 C451 1.387 . S
C450 C454 1.391 . S
C451 C450 1.387 . S
C451 C452 1.369 . S
C451 H460 0.929 . S
C452 N449 1.346 . S
C452 C451 1.369 . S
C452 H455 0.928 . S
C453 N449 1.345 . S
C453 C454 1.371 . S
C453 H456 0.931 . S
C454 C450 1.391 . S
C454 C453 1.371 . S
C454 H461 0.930 . S
H455 C452 0.928 . S
H456 C453 0.931 . S
H457 C433 0.930 . S
H458 C430 0.930 . S
H459 C439 0.930 . S
H460 C451 0.929 . S
H461 C454 0.930 . S
C462 C463 1.351 . S
C462 N465 1.368 . S
C462 H467 0.931 . S
C463 C462 1.351 . S
C463 N464 1.373 . S
C463 H491 0.930 . S
N464 C463 1.373 . S
N464 C466 1.340 . S
N465 C462 1.368 . S
N465 C466 1.321 . S
N465 Co468 2.135 . S
C466 N464 1.340 . S
C466 N465 1.321 . S
C466 H490 0.930 . S
H467 C462 0.931 . S
Co468 N465 2.135 . S
Co468 N471 2.121 . S
Co468 O476 2.055 . S
Co468 O479 2.039 . S
Co468 N482 2.140 . S
C469 O470 1.227 . S
C469 O479 1.265 . S
O470 C469 1.227 . S
N471 Co468 2.121 . S
N471 C473 1.375 . S
N471 C474 1.313 . S
C472 C473 1.338 . S
C472 N475 1.377 . S
C472 H492 0.930 . S
C473 N471 1.375 . S
C473 C472 1.338 . S
C473 H477 0.931 . S
C474 N471 1.313 . S
C474 N475 1.344 . S
C474 H478 0.930 . S
N475 C472 1.377 . S
N475 C474 1.344 . S
O476 Co468 2.055 . S
O476 C480 1.253 . S
H477 C473 0.931 . S
H478 C474 0.930 . S
O479 Co468 2.039 . S
O479 C469 1.265 . S
C480 O476 1.253 . S
C480 O481 1.227 . S
O481 C480 1.227 . S
N482 Co468 2.140 . S
N482 C485 1.346 . S
N482 C486 1.345 . S
C483 C484 1.387 . S
C483 C487 1.391 . S
C484 C483 1.387 . S
C484 C485 1.369 . S
C484 H493 0.929 . S
C485 N482 1.346 . S
C485 C484 1.369 . S
C485 H488 0.928 . S
C486 N482 1.345 . S
C486 C487 1.371 . S
C486 H489 0.931 . S
C487 C483 1.391 . S
C487 C486 1.371 . S
C487 H494 0.930 . S
H488 C485 0.928 . S
H489 C486 0.931 . S
H490 C466 0.930 . S
H491 C463 0.930 . S
H492 C472 0.930 . S
H493 C484 0.929 . S
H494 C487 0.930 . S
C495 C496 1.351 . S
C495 N498 1.368 . S
C495 H500 0.931 . S
C496 C495 1.351 . S
C496 N497 1.373 . S
C496 H524 0.930 . S
N497 C496 1.373 . S
N497 C499 1.340 . S
N498 C495 1.368 . S
N498 C499 1.321 . S
N498 Co501 2.135 . S
C499 N497 1.340 . S
C499 N498 1.321 . S
C499 H523 0.930 . S
H500 C495 0.931 . S
Co501 N498 2.135 . S
Co501 N504 2.121 . S
Co501 O509 2.055 . S
Co501 O512 2.039 . S
Co501 N515 2.140 . S
C502 O503 1.227 . S
C502 O512 1.265 . S
O503 C502 1.227 . S
N504 Co501 2.121 . S
N504 C506 1.375 . S
N504 C507 1.313 . S
C505 C506 1.338 . S
C505 N508 1.377 . S
C505 H525 0.930 . S
C506 N504 1.375 . S
C506 C505 1.338 . S
C506 H510 0.931 . S
C507 N504 1.313 . S
C507 N508 1.344 . S
C507 H511 0.930 . S
N508 C505 1.377 . S
N508 C507 1.344 . S
O509 Co501 2.055 . S
O509 C513 1.253 . S
H510 C506 0.931 . S
H511 C507 0.930 . S
O512 Co501 2.039 . S
O512 C502 1.265 . S
C513 O509 1.253 . S
C513 O514 1.227 . S
O514 C513 1.227 . S
N515 Co501 2.140 . S
N515 C518 1.346 . S
N515 C519 1.345 . S
C516 C517 1.387 . S
C516 C520 1.391 . S
C517 C516 1.387 . S
C517 C518 1.369 . S
C517 H526 0.929 . S
C518 N515 1.346 . S
C518 C517 1.369 . S
C518 H521 0.928 . S
C519 N515 1.345 . S
C519 C520 1.371 . S
C519 H522 0.931 . S
C520 C516 1.391 . S
C520 C519 1.371 . S
C520 H527 0.930 . S
H521 C518 0.928 . S
H522 C519 0.931 . S
H523 C499 0.930 . S
H524 C496 0.930 . S
H525 C505 0.930 . S
H526 C517 0.929 . S
H527 C520 0.930 . S
C528 C529 1.387 . S
C528 H532 0.950 . S
C528 C537 1.390 1_655 S
C529 C528 1.387 . S
C529 C531 1.387 . S
H530 C537 0.950 . S
C531 C529 1.387 . S
C531 C533 1.390 1_655 S
C531 H535 0.950 . S
H532 C528 0.950 . S
C533 C531 1.390 1_455 S
C533 C534 1.387 . S
C533 H536 0.950 . S
C534 C533 1.387 . S
C534 C537 1.387 . S
H535 C531 0.950 . S
H536 C533 0.950 . S
C537 C528 1.390 1_455 S
C537 H530 0.950 . S
C537 C534 1.387 . S
C538 C539 1.387 . S
C538 H542 0.950 . S
C538 C547 1.390 1_545 S
C539 C538 1.387 . S
C539 C541 1.387 . S
H540 C547 0.950 . S
C541 C539 1.387 . S
C541 C543 1.390 1_545 S
C541 H545 0.950 . S
H542 C538 0.950 . S
C543 C541 1.390 1_565 S
C543 C544 1.387 . S
C543 H546 0.950 . S
C544 C543 1.387 . S
C544 C547 1.387 . S
H545 C541 0.950 . S
H546 C543 0.950 . S
C547 C538 1.390 1_565 S
C547 H540 0.950 . S
C547 C544 1.387 . S
C548 C549 1.387 . S
C548 H552 0.950 . S
C548 C557 1.390 1_655 S
C549 C548 1.387 . S
C549 C551 1.387 . S
H550 C557 0.950 . S
C551 C549 1.387 . S
C551 C553 1.390 1_655 S
C551 H555 0.950 . S
H552 C548 0.950 . S
C553 C551 1.390 1_455 S
C553 C554 1.387 . S
C553 H556 0.950 . S
C554 C553 1.387 . S
C554 C557 1.387 . S
H555 C551 0.950 . S
H556 C553 0.950 . S
C557 C548 1.390 1_455 S
C557 H550 0.950 . S
C557 C554 1.387 . S
C558 C559 1.387 . S
C558 H562 0.950 . S
C558 C567 1.390 1_565 S
C559 C558 1.387 . S
C559 C561 1.387 . S
H560 C567 0.950 . S
C561 C559 1.387 . S
C561 C563 1.390 1_565 S
C561 H565 0.950 . S
H562 C558 0.950 . S
C563 C561 1.390 1_545 S
C563 C564 1.387 . S
C563 H566 0.950 . S
C564 C563 1.387 . S
C564 C567 1.387 . S
H565 C561 0.950 . S
H566 C563 0.950 . S
C567 C558 1.390 1_545 S
C567 H560 0.950 . S
C567 C564 1.387 . S
C568 C569 1.387 . S
C568 H572 0.950 . S
C568 C577 1.390 1_655 S
C569 C568 1.387 . S
C569 C571 1.387 . S
H570 C577 0.950 . S
C571 C569 1.387 . S
C571 C573 1.390 1_655 S
C571 H575 0.950 . S
H572 C568 0.950 . S
C573 C571 1.390 1_455 S
C573 C574 1.387 . S
C573 H576 0.950 . S
C574 C573 1.387 . S
C574 C577 1.387 . S
H575 C571 0.950 . S
H576 C573 0.950 . S
C577 C568 1.390 1_455 S
C577 H570 0.950 . S
C577 C574 1.387 . S
C578 C579 1.387 . S
C578 H582 0.950 . S
C578 C587 1.390 1_565 S
C579 C578 1.387 . S
C579 C581 1.387 . S
H580 C587 0.950 . S
C581 C579 1.387 . S
C581 C583 1.390 1_565 S
C581 H585 0.950 . S
H582 C578 0.950 . S
C583 C581 1.390 1_545 S
C583 C584 1.387 . S
C583 H586 0.950 . S
C584 C583 1.387 . S
C584 C587 1.387 . S
H585 C581 0.950 . S
H586 C583 0.950 . S
C587 C578 1.390 1_545 S
C587 H580 0.950 . S
C587 C584 1.387 . S
C588 C589 1.387 . S
C588 H592 0.950 . S
C588 C597 1.390 1_655 S
C589 C588 1.387 . S
C589 C591 1.387 . S
H590 C597 0.950 . S
C591 C589 1.387 . S
C591 C593 1.390 1_655 S
C591 H595 0.950 . S
H592 C588 0.950 . S
C593 C591 1.390 1_455 S
C593 C594 1.387 . S
C593 H596 0.950 . S
C594 C593 1.387 . S
C594 C597 1.387 . S
H595 C591 0.950 . S
H596 C593 0.950 . S
C597 C588 1.390 1_455 S
C597 H590 0.950 . S
C597 C594 1.387 . S
C598 C599 1.387 . S
C598 H602 0.950 . S
C598 C607 1.390 1_545 S
C599 C598 1.387 . S
C599 C601 1.387 . S
H600 C607 0.950 . S
C601 C599 1.387 . S
C601 C603 1.390 1_545 S
C601 H605 0.950 . S
H602 C598 0.950 . S
C603 C601 1.390 1_565 S
C603 C604 1.387 . S
C603 H606 0.950 . S
C604 C603 1.387 . S
C604 C607 1.387 . S
H605 C601 0.950 . S
H606 C603 0.950 . S
C607 C598 1.390 1_565 S
C607 H600 0.950 . S
C607 C604 1.387 . S
C608 C609 1.387 . S
C608 H612 0.950 . S
C608 C617 1.390 . S
C609 C608 1.387 . S
C609 C611 1.387 . S
H610 C617 0.950 . S
C611 C609 1.387 . S
C611 C613 1.390 . S
C611 H615 0.950 . S
H612 C608 0.950 . S
C613 C611 1.390 . S
C613 C614 1.387 . S
C613 H616 0.950 . S
C614 C613 1.387 . S
C614 C617 1.387 . S
H615 C611 0.950 . S
H616 C613 0.950 . S
C617 C608 1.390 . S
C617 H610 0.950 . S
C617 C614 1.387 . S
C618 C619 1.387 . S
C618 H622 0.950 . S
C618 C627 1.390 . S
C619 C618 1.387 . S
C619 C621 1.387 . S
H620 C627 0.950 . S
C621 C619 1.387 . S
C621 C623 1.390 . S
C621 H625 0.950 . S
H622 C618 0.950 . S
C623 C621 1.390 . S
C623 C624 1.387 . S
C623 H626 0.950 . S
C624 C623 1.387 . S
C624 C627 1.387 . S
H625 C621 0.950 . S
H626 C623 0.950 . S
C627 C618 1.390 . S
C627 H620 0.950 . S
C627 C624 1.387 . S
C628 C629 1.387 . S
C628 H632 0.950 . S
C628 C637 1.390 . S
C629 C628 1.387 . S
C629 C631 1.387 . S
H630 C637 0.950 . S
C631 C629 1.387 . S
C631 C633 1.390 . S
C631 H635 0.950 . S
H632 C628 0.950 . S
C633 C631 1.390 . S
C633 C634 1.387 . S
C633 H636 0.950 . S
C634 C633 1.387 . S
C634 C637 1.387 . S
H635 C631 0.950 . S
H636 C633 0.950 . S
C637 C628 1.390 . S
C637 H630 0.950 . S
C637 C634 1.387 . S
C638 C639 1.387 . S
C638 H642 0.950 . S
C638 C647 1.390 . S
C639 C638 1.387 . S
C639 C641 1.387 . S
H640 C647 0.950 . S
C641 C639 1.387 . S
C641 C643 1.390 . S
C641 H645 0.950 . S
H642 C638 0.950 . S
C643 C641 1.390 . S
C643 C644 1.387 . S
C643 H646 0.950 . S
C644 C643 1.387 . S
C644 C647 1.387 . S
H645 C641 0.950 . S
H646 C643 0.950 . S
C647 C638 1.390 . S
C647 H640 0.950 . S
C647 C644 1.387 . S
C648 C649 1.387 . S
C648 H652 0.950 . S
C648 C657 1.390 . S
C649 C648 1.387 . S
C649 C651 1.387 . S
H650 C657 0.950 . S
C651 C649 1.387 . S
C651 C653 1.390 . S
C651 H655 0.950 . S
H652 C648 0.950 . S
C653 C651 1.390 . S
C653 C654 1.387 . S
C653 H656 0.950 . S
C654 C653 1.387 . S
C654 C657 1.387 . S
H655 C651 0.950 . S
H656 C653 0.950 . S
C657 C648 1.390 . S
C657 H650 0.950 . S
C657 C654 1.387 . S
C658 C659 1.387 . S
C658 H662 0.950 . S
C658 C667 1.390 . S
C659 C658 1.387 . S
C659 C661 1.387 . S
H660 C667 0.950 . S
C661 C659 1.387 . S
C661 C663 1.390 . S
C661 H665 0.950 . S
H662 C658 0.950 . S
C663 C661 1.390 . S
C663 C664 1.387 . S
C663 H666 0.950 . S
C664 C663 1.387 . S
C664 C667 1.387 . S
H665 C661 0.950 . S
H666 C663 0.950 . S
C667 C658 1.390 . S
C667 H660 0.950 . S
C667 C664 1.387 . S
C668 C669 1.387 . S
C668 H672 0.950 . S
C668 C677 1.390 . S
C669 C668 1.387 . S
C669 C671 1.387 . S
H670 C677 0.950 . S
C671 C669 1.387 . S
C671 C673 1.390 . S
C671 H675 0.950 . S
H672 C668 0.950 . S
C673 C671 1.390 . S
C673 C674 1.387 . S
C673 H676 0.950 . S
C674 C673 1.387 . S
C674 C677 1.387 . S
H675 C671 0.950 . S
H676 C673 0.950 . S
C677 C668 1.390 . S
C677 H670 0.950 . S
C677 C674 1.387 . S
C678 C679 1.387 . S
C678 H682 0.950 . S
C678 C687 1.390 . S
C679 C678 1.387 . S
C679 C681 1.387 . S
H680 C687 0.950 . S
C681 C679 1.387 . S
C681 C683 1.390 . S
C681 H685 0.950 . S
H682 C678 0.950 . S
C683 C681 1.390 . S
C683 C684 1.387 . S
C683 H686 0.950 . S
C684 C683 1.387 . S
C684 C687 1.387 . S
H685 C681 0.950 . S
H686 C683 0.950 . S
C687 C678 1.390 . S
C687 H680 0.950 . S
C687 C684 1.387 . S
C688 C689 1.387 . S
C688 H692 0.950 . S
C688 C697 1.390 1_554 S
C689 C688 1.387 . S
C689 C691 1.387 . S
H690 C697 0.950 . S
C691 C689 1.387 . S
C691 C693 1.390 1_554 S
C691 H695 0.950 . S
H692 C688 0.950 . S
C693 C691 1.390 1_556 S
C693 C694 1.387 . S
C693 H696 0.950 . S
C694 C693 1.387 . S
C694 C697 1.387 . S
H695 C691 0.950 . S
H696 C693 0.950 . S
C697 C688 1.390 1_556 S
C697 H690 0.950 . S
C697 C694 1.387 . S
C698 C699 1.387 . S
C698 H702 0.950 . S
C698 C707 1.390 . S
C699 C698 1.387 . S
C699 C701 1.387 . S
H700 C707 0.950 . S
C701 C699 1.387 . S
C701 C703 1.390 . S
C701 H705 0.950 . S
H702 C698 0.950 . S
C703 C701 1.390 . S
C703 C704 1.387 . S
C703 H706 0.950 . S
C704 C703 1.387 . S
C704 C707 1.387 . S
H705 C701 0.950 . S
H706 C703 0.950 . S
C707 C698 1.390 . S
C707 H700 0.950 . S
C707 C704 1.387 . S
C708 C709 1.387 . S
C708 H712 0.950 . S
C708 C717 1.390 1_556 S
C709 C708 1.387 . S
C709 C711 1.387 . S
H710 C717 0.950 . S
C711 C709 1.387 . S
C711 C713 1.390 1_556 S
C711 H715 0.950 . S
H712 C708 0.950 . S
C713 C711 1.390 1_554 S
C713 C714 1.387 . S
C713 H716 0.950 . S
C714 C713 1.387 . S
C714 C717 1.387 . S
H715 C711 0.950 . S
H716 C713 0.950 . S
C717 C708 1.390 1_554 S
C717 H710 0.950 . S
C717 C714 1.387 . S
C718 C719 1.387 . S
C718 H722 0.950 . S
C718 C727 1.390 . S
C719 C718 1.387 . S
C719 C721 1.387 . S
H720 C727 0.950 . S
C721 C719 1.387 . S
C721 C723 1.390 . S
C721 H725 0.950 . S
H722 C718 0.950 . S
C723 C721 1.390 . S
C723 C724 1.387 . S
C723 H726 0.950 . S
C724 C723 1.387 . S
C724 C727 1.387 . S
H725 C721 0.950 . S
H726 C723 0.950 . S
C727 C718 1.390 . S
C727 H720 0.950 . S
C727 C724 1.387 . S
C728 C729 1.387 . S
C728 H732 0.950 . S
C728 C737 1.390 1_556 S
C729 C728 1.387 . S
C729 C731 1.387 . S
H730 C737 0.950 . S
C731 C729 1.387 . S
C731 C733 1.390 1_556 S
C731 H735 0.950 . S
H732 C728 0.950 . S
C733 C731 1.390 1_554 S
C733 C734 1.387 . S
C733 H736 0.950 . S
C734 C733 1.387 . S
C734 C737 1.387 . S
H735 C731 0.950 . S
H736 C733 0.950 . S
C737 C728 1.390 1_554 S
C737 H730 0.950 . S
C737 C734 1.387 . S
C738 C739 1.387 . S
C738 H742 0.950 . S
C738 C747 1.390 . S
C739 C738 1.387 . S
C739 C741 1.387 . S
H740 C747 0.950 . S
C741 C739 1.387 . S
C741 C743 1.390 . S
C741 H745 0.950 . S
H742 C738 0.950 . S
C743 C741 1.390 . S
C743 C744 1.387 . S
C743 H746 0.950 . S
C744 C743 1.387 . S
C744 C747 1.387 . S
H745 C741 0.950 . S
H746 C743 0.950 . S
C747 C738 1.390 . S
C747 H740 0.950 . S
C747 C744 1.387 . S
C748 C749 1.387 . S
C748 H752 0.950 . S
C748 C757 1.390 1_554 S
C749 C748 1.387 . S
C749 C751 1.387 . S
H750 C757 0.950 . S
C751 C749 1.387 . S
C751 C753 1.390 1_554 S
C751 H755 0.950 . S
H752 C748 0.950 . S
C753 C751 1.390 1_556 S
C753 C754 1.387 . S
C753 H756 0.950 . S
C754 C753 1.387 . S
C754 C757 1.387 . S
H755 C751 0.950 . S
H756 C753 0.950 . S
C757 C748 1.390 1_556 S
C757 H750 0.950 . S
C757 C754 1.387 . S
C758 C759 1.387 . S
C758 H762 0.950 . S
C758 C767 1.390 . S
C759 C758 1.387 . S
C759 C761 1.387 . S
H760 C767 0.950 . S
C761 C759 1.387 . S
C761 C763 1.390 . S
C761 H765 0.950 . S
H762 C758 0.950 . S
C763 C761 1.390 . S
C763 C764 1.387 . S
C763 H766 0.950 . S
C764 C763 1.387 . S
C764 C767 1.387 . S
H765 C761 0.950 . S
H766 C763 0.950 . S
C767 C758 1.390 . S
C767 H760 0.950 . S
C767 C764 1.387 . S
C768 C769 1.387 . S
C768 H772 0.950 . S
C768 C777 1.390 . S
C769 C768 1.387 . S
C769 C771 1.387 . S
H770 C777 0.950 . S
C771 C769 1.387 . S
C771 C773 1.390 . S
C771 H775 0.950 . S
H772 C768 0.950 . S
C773 C771 1.390 . S
C773 C774 1.387 . S
C773 H776 0.950 . S
C774 C773 1.387 . S
C774 C777 1.387 . S
H775 C771 0.950 . S
H776 C773 0.950 . S
C777 C768 1.390 . S
C777 H770 0.950 . S
C777 C774 1.387 . S
C778 C779 1.387 . S
C778 H782 0.950 . S
C778 C787 1.390 . S
C779 C778 1.387 . S
C779 C781 1.387 . S
H780 C787 0.950 . S
C781 C779 1.387 . S
C781 C783 1.390 . S
C781 H785 0.950 . S
H782 C778 0.950 . S
C783 C781 1.390 . S
C783 C784 1.387 . S
C783 H786 0.950 . S
C784 C783 1.387 . S
C784 C787 1.387 . S
H785 C781 0.950 . S
H786 C783 0.950 . S
C787 C778 1.390 . S
C787 H780 0.950 . S
C787 C784 1.387 . S
C788 C789 1.387 . S
C788 H792 0.950 . S
C788 C797 1.390 . S
C789 C788 1.387 . S
C789 C791 1.387 . S
H790 C797 0.950 . S
C791 C789 1.387 . S
C791 C793 1.390 . S
C791 H795 0.950 . S
H792 C788 0.950 . S
C793 C791 1.390 . S
C793 C794 1.387 . S
C793 H796 0.950 . S
C794 C793 1.387 . S
C794 C797 1.387 . S
H795 C791 0.950 . S
H796 C793 0.950 . S
C797 C788 1.390 . S
C797 H790 0.950 . S
C797 C794 1.387 . S
C798 C799 1.387 . S
C798 H802 0.950 . S
C798 C807 1.390 . S
C799 C798 1.387 . S
C799 C801 1.387 . S
H800 C807 0.950 . S
C801 C799 1.387 . S
C801 C803 1.390 . S
C801 H805 0.950 . S
H802 C798 0.950 . S
C803 C801 1.390 . S
C803 C804 1.387 . S
C803 H806 0.950 . S
C804 C803 1.387 . S
C804 C807 1.387 . S
H805 C801 0.950 . S
H806 C803 0.950 . S
C807 C798 1.390 . S
C807 H800 0.950 . S
C807 C804 1.387 . S
C808 C809 1.387 . S
C808 H812 0.950 . S
C808 C817 1.390 . S
C809 C808 1.387 . S
C809 C811 1.387 . S
H810 C817 0.950 . S
C811 C809 1.387 . S
C811 C813 1.390 . S
C811 H815 0.950 . S
H812 C808 0.950 . S
C813 C811 1.390 . S
C813 C814 1.387 . S
C813 H816 0.950 . S
C814 C813 1.387 . S
C814 C817 1.387 . S
H815 C811 0.950 . S
H816 C813 0.950 . S
C817 C808 1.390 . S
C817 H810 0.950 . S
C817 C814 1.387 . S
C818 C819 1.387 . S
C818 H822 0.950 . S
C818 C827 1.390 . S
C819 C818 1.387 . S
C819 C821 1.387 . S
H820 C827 0.950 . S
C821 C819 1.387 . S
C821 C823 1.390 . S
C821 H825 0.950 . S
H822 C818 0.950 . S
C823 C821 1.390 . S
C823 C824 1.387 . S
C823 H826 0.950 . S
C824 C823 1.387 . S
C824 C827 1.387 . S
H825 C821 0.950 . S
H826 C823 0.950 . S
C827 C818 1.390 . S
C827 H820 0.950 . S
C827 C824 1.387 . S
C828 C829 1.387 . S
C828 H832 0.950 . S
C828 C837 1.390 . S
C829 C828 1.387 . S
C829 C831 1.387 . S
H830 C837 0.950 . S
C831 C829 1.387 . S
C831 C833 1.390 . S
C831 H835 0.950 . S
H832 C828 0.950 . S
C833 C831 1.390 . S
C833 C834 1.387 . S
C833 H836 0.950 . S
C834 C833 1.387 . S
C834 C837 1.387 . S
H835 C831 0.950 . S
H836 C833 0.950 . S
C837 C828 1.390 . S
C837 H830 0.950 . S
C837 C834 1.387 . S
C838 C839 1.387 . S
C838 H842 0.950 . S
C838 C847 1.390 . S
C839 C838 1.387 . S
C839 C841 1.387 . S
H840 C847 0.950 . S
C841 C839 1.387 . S
C841 C843 1.390 . S
C841 H845 0.950 . S
H842 C838 0.950 . S
C843 C841 1.390 . S
C843 C844 1.387 . S
C843 H846 0.950 . S
C844 C843 1.387 . S
C844 C847 1.387 . S
H845 C841 0.950 . S
H846 C843 0.950 . S
C847 C838 1.390 . S
C847 H840 0.950 . S
C847 C844 1.387 . S
C848 C849 1.387 . S
C848 H852 0.950 . S
C848 C857 1.390 . S
C849 C848 1.387 . S
C849 C851 1.387 . S
H850 C857 0.950 . S
C851 C849 1.387 . S
C851 C853 1.390 . S
C851 H855 0.950 . S
H852 C848 0.950 . S
C853 C851 1.390 . S
C853 C854 1.387 . S
C853 H856 0.950 . S
C854 C853 1.387 . S
C854 C857 1.387 . S
H855 C851 0.950 . S
H856 C853 0.950 . S
C857 C848 1.390 . S
C857 H850 0.950 . S
C857 C854 1.387 . S
C858 C859 1.387 . S
C858 H862 0.950 . S
C858 C867 1.390 . S
C859 C858 1.387 . S
C859 C861 1.387 . S
H860 C867 0.950 . S
C861 C859 1.387 . S
C861 C863 1.390 . S
C861 H865 0.950 . S
H862 C858 0.950 . S
C863 C861 1.390 . S
C863 C864 1.387 . S
C863 H866 0.950 . S
C864 C863 1.387 . S
C864 C867 1.387 . S
H865 C861 0.950 . S
H866 C863 0.950 . S
C867 C858 1.390 . S
C867 H860 0.950 . S
C867 C864 1.387 . S
C868 C869 1.387 . S
C868 H872 0.950 . S
C868 C877 1.390 . S
C869 C868 1.387 . S
C869 C871 1.387 . S
H870 C877 0.950 . S
C871 C869 1.387 . S
C871 C873 1.390 . S
C871 H875 0.950 . S
H872 C868 0.950 . S
C873 C871 1.390 . S
C873 C874 1.387 . S
C873 H876 0.950 . S
C874 C873 1.387 . S
C874 C877 1.387 . S
H875 C871 0.950 . S
H876 C873 0.950 . S
C877 C868 1.390 . S
C877 H870 0.950 . S
C877 C874 1.387 . S
C878 C879 1.387 . S
C878 H882 0.950 . S
C878 C887 1.390 . S
C879 C878 1.387 . S
C879 C881 1.387 . S
H880 C887 0.950 . S
C881 C879 1.387 . S
C881 C883 1.390 . S
C881 H885 0.950 . S
H882 C878 0.950 . S
C883 C881 1.390 . S
C883 C884 1.387 . S
C883 H886 0.950 . S
C884 C883 1.387 . S
C884 C887 1.387 . S
H885 C881 0.950 . S
H886 C883 0.950 . S
C887 C878 1.390 . S
C887 H880 0.950 . S
C887 C884 1.387 . S
C888 C889 1.387 . S
C888 H892 0.950 . S
C888 C897 1.390 . S
C889 C888 1.387 . S
C889 C891 1.387 . S
H890 C897 0.950 . S
C891 C889 1.387 . S
C891 C893 1.390 . S
C891 H895 0.950 . S
H892 C888 0.950 . S
C893 C891 1.390 . S
C893 C894 1.387 . S
C893 H896 0.950 . S
C894 C893 1.387 . S
C894 C897 1.387 . S
H895 C891 0.950 . S
H896 C893 0.950 . S
C897 C888 1.390 . S
C897 H890 0.950 . S
C897 C894 1.387 . S
C898 C899 1.387 . S
C898 H902 0.950 . S
C898 C907 1.390 . S
C899 C898 1.387 . S
C899 C901 1.387 . S
H900 C907 0.950 . S
C901 C899 1.387 . S
C901 C903 1.390 . S
C901 H905 0.950 . S
H902 C898 0.950 . S
C903 C901 1.390 . S
C903 C904 1.387 . S
C903 H906 0.950 . S
C904 C903 1.387 . S
C904 C907 1.387 . S
H905 C901 0.950 . S
H906 C903 0.950 . S
C907 C898 1.390 . S
C907 H900 0.950 . S
C907 C904 1.387 . S
C908 C909 1.387 . S
C908 H912 0.950 . S
C908 C917 1.390 . S
C909 C908 1.387 . S
C909 C911 1.387 . S
H910 C917 0.950 . S
C911 C909 1.387 . S
C911 C913 1.390 . S
C911 H915 0.950 . S
H912 C908 0.950 . S
C913 C911 1.390 . S
C913 C914 1.387 . S
C913 H916 0.950 . S
C914 C913 1.387 . S
C914 C917 1.387 . S
H915 C911 0.950 . S
H916 C913 0.950 . S
C917 C908 1.390 . S
C917 H910 0.950 . S
C917 C914 1.387 . S
C918 C919 1.387 . S
C918 H922 0.950 . S
C918 C927 1.390 . S
C919 C918 1.387 . S
C919 C921 1.387 . S
H920 C927 0.950 . S
C921 C919 1.387 . S
C921 C923 1.390 . S
C921 H925 0.950 . S
H922 C918 0.950 . S
C923 C921 1.390 . S
C923 C924 1.387 . S
C923 H926 0.950 . S
C924 C923 1.387 . S
C924 C927 1.387 . S
H925 C921 0.950 . S
H926 C923 0.950 . S
C927 C918 1.390 . S
C927 H920 0.950 . S
C927 C924 1.387 . S
C529 N398 1.459 . S
C534 N13 1.455 . S
C539 N46 1.431 . S
C544 N431 1.434 . S
C549 N68 1.450 . S
C554 N475 1.460 . S
C559 N112 1.435 . S
C564 N497 1.438 . S
C569 N266 1.437 . S
C574 N145 1.433 . S
C579 N310 1.462 . S
C584 N167 1.452 . S
C589 N200 1.426 . S
C594 N343 1.435 . S
C599 N376 1.457 . S
C604 N233 1.447 . S
C609 C21 1.237 . S
C614 C483 1.237 . S
C619 C516 1.264 . S
C624 C54 1.264 . S
C629 C417 1.245 . S
C634 C87 1.243 . S
C639 C450 1.261 . S
C644 C120 1.261 . S
C649 C351 1.232 . S
C654 C153 1.232 . S
C659 C384 1.213 . S
C664 C186 1.211 . S
C669 C285 1.240 . S
C674 C219 1.238 . S
C679 C318 1.218 . S
C684 C252 1.216 . S
C689 C7 1.404 . S
C694 C348 1.484 . S
C699 C381 1.450 . S
C704 C40 1.402 . S
C709 C271 1.457 . S
C714 C84 1.426 . S
C719 C315 1.490 . S
C724 C106 1.440 . S
C729 C139 1.408 . S
C734 C480 1.486 . S
C739 C183 1.432 . S
C744 C502 1.499 . S
C749 C403 1.456 . S
C754 C216 1.426 . S
C759 C249 1.393 . S
C764 C436 1.457 . S
C769 N409 1.670 . S
C774 N2 1.661 . S
C779 N35 1.683 . S
C784 N442 1.691 . S
C789 N79 1.671 . S
C794 N464 1.670 . S
C799 N508 1.690 . S
C804 N101 1.682 . S
C809 N277 1.717 . S
C814 N134 1.711 . S
C819 N178 1.693 . S
C824 N299 1.691 . S
C829 N332 1.718 . S
C834 N211 1.721 . S
C839 N365 1.694 . S
C844 N244 1.696 . S
C849 C172 1.568 . S
C854 C18 1.582 . S
C859 C205 1.617 . S
C864 C51 1.632 . S
C869 C73 1.544 . S
C874 C238 1.552 . S
C879 C150 1.661 . S
C884 C117 1.652 . S
C889 C282 1.556 . S
C894 C447 1.564 . S
C899 C469 1.530 . S
C904 C304 1.519 . S
C909 C513 1.573 . S
C914 C337 1.593 . S
C919 C370 1.517 . S
C924 C414 1.496 . S
