# Generated by pormake.
# Topology smm, (6)-cn, num edge types: 1
# Building blocks:
#     Node 0, Type 0, BuildingBlock: JUFBIX_clean_sbu_0, # of connection points: 6
#     Node 1, Type 0, BuildingBlock: JUFBIX_clean_sbu_0, # of connection points: 6
#     Node 2, Type 0, BuildingBlock: JUFBIX_clean_sbu_0, # of connection points: 6
#     Node 3, Type 0, BuildingBlock: JUFBIX_clean_sbu_0, # of connection points: 6
#     Node 4, Type 0, BuildingBlock: JUFBIX_clean_sbu_0, # of connection points: 6
#     Node 5, Type 0, BuildingBlock: JUFBIX_clean_sbu_0, # of connection points: 6
#     Node 6, Type 0, BuildingBlock: JUFBIX_clean_sbu_0, # of connection points: 6
#     Node 7, Type 0, BuildingBlock: JUFBIX_clean_sbu_0, # of connection points: 6
#     Node 8, Type 0, BuildingBlock: JUFBIX_clean_sbu_0, # of connection points: 6
#     Edge 9, Type (0, 0), BuildingBlock: UVAHIK_clean_linker_0, # of connection points: 2
#     Edge 10, Type (0, 0), BuildingBlock: UVAHIK_clean_linker_0, # of connection points: 2
#     Edge 11, Type (0, 0), BuildingBlock: UVAHIK_clean_linker_0, # of connection points: 2
#     Edge 12, Type (0, 0), BuildingBlock: UVAHIK_clean_linker_0, # of connection points: 2
#     Edge 13, Type (0, 0), BuildingBlock: UVAHIK_clean_linker_0, # of connection points: 2
#     Edge 14, Type (0, 0), BuildingBlock: UVAHIK_clean_linker_0, # of connection points: 2
#     Edge 15, Type (0, 0), BuildingBlock: UVAHIK_clean_linker_0, # of connection points: 2
#     Edge 16, Type (0, 0), BuildingBlock: UVAHIK_clean_linker_0, # of connection points: 2
#     Edge 17, Type (0, 0), BuildingBlock: UVAHIK_clean_linker_0, # of connection points: 2
#     Edge 18, Type (0, 0), BuildingBlock: UVAHIK_clean_linker_0, # of connection points: 2
#     Edge 19, Type (0, 0), BuildingBlock: UVAHIK_clean_linker_0, # of connection points: 2
#     Edge 20, Type (0, 0), BuildingBlock: UVAHIK_clean_linker_0, # of connection points: 2
#     Edge 21, Type (0, 0), BuildingBlock: UVAHIK_clean_linker_0, # of connection points: 2
#     Edge 22, Type (0, 0), BuildingBlock: UVAHIK_clean_linker_0, # of connection points: 2
#     Edge 23, Type (0, 0), BuildingBlock: UVAHIK_clean_linker_0, # of connection points: 2
#     Edge 24, Type (0, 0), BuildingBlock: UVAHIK_clean_linker_0, # of connection points: 2
#     Edge 25, Type (0, 0), BuildingBlock: UVAHIK_clean_linker_0, # of connection points: 2
#     Edge 26, Type (0, 0), BuildingBlock: UVAHIK_clean_linker_0, # of connection points: 2
#     Edge 27, Type (0, 0), BuildingBlock: UVAHIK_clean_linker_0, # of connection points: 2
#     Edge 28, Type (0, 0), BuildingBlock: UVAHIK_clean_linker_0, # of connection points: 2
#     Edge 29, Type (0, 0), BuildingBlock: UVAHIK_clean_linker_0, # of connection points: 2
#     Edge 30, Type (0, 0), BuildingBlock: UVAHIK_clean_linker_0, # of connection points: 2
#     Edge 31, Type (0, 0), BuildingBlock: UVAHIK_clean_linker_0, # of connection points: 2
#     Edge 32, Type (0, 0), BuildingBlock: UVAHIK_clean_linker_0, # of connection points: 2
#     Edge 33, Type (0, 0), BuildingBlock: UVAHIK_clean_linker_0, # of connection points: 2
#     Edge 34, Type (0, 0), BuildingBlock: UVAHIK_clean_linker_0, # of connection points: 2
#     Edge 35, Type (0, 0), BuildingBlock: UVAHIK_clean_linker_0, # of connection points: 2
# Relax obj value: 0.254
# Max RMSD: 0.208
# Mean RMSD: 0.208
data_MOF--net-smm--node1-JUFBIX_clean_sbu_0--edge1-UVAHIK_clean_linker_0
_symmetry_space_group_name_H-M    P1
_symmetry_Int_Tables_number       1
_symmetry_cell_setting            triclinic
loop_
_symmetry_equiv_pos_as_xyz
'x, y, z'
_cell_length_a     72.479975
_cell_length_b     72.577824
_cell_length_c     18.891921
_cell_angle_alpha  90.201097
_cell_angle_beta   90.23445
_cell_angle_gamma 120.00883
loop_
_atom_site_label
_atom_site_type_symbol
_atom_site_fract_x
_atom_site_fract_y
_atom_site_fract_z
_atom_type_partial_charge
Co0 Co 0.99765 0.16648 0.00408 0.0
C1 C 0.01012 0.18813 0.13175 0.0
Co2 Co 0.02701 0.19794 0.0007 0.0
C3 C 0.97003 0.12151 -0.01331 0.0
C4 C 0.95471 0.13581 0.04261 0.0
N5 N 0.97311 0.14036 0.01076 0.0
N6 N 0.95046 0.1053 0.00247 0.0
C7 C 0.94073 0.11427 0.0375 0.0
H8 H 0.98199 0.11977 0.95822 0.0
H9 H 0.9518 0.14737 0.06894 0.0
C10 C 0.01482 0.1763 0.87321 0.0
N11 N 0.05183 0.22413 -0.00734 0.0
C12 C 0.05414 0.24377 -0.00446 0.0
C13 C 0.07107 0.22738 0.97246 0.0
N14 N 0.0739 0.25908 0.97687 0.0
C15 C 0.08463 0.24877 0.96296 0.0
C16 C 0.03445 0.16473 0.02833 0.0
O17 O 0.99907 0.16215 0.90712 0.0
O18 O 0.02853 0.19313 0.90455 0.0
O19 O 0.0433 0.18476 0.0215 0.0
O20 O 0.01433 0.15351 0.02292 0.0
O21 O 0.02545 0.20259 0.09702 0.0
H22 H 0.07474 0.21495 0.96111 0.0
H23 H 0.04133 0.24673 0.00847 0.0
O24 O 0.9965 0.1711 0.10093 0.0
O25 O 0.98113 0.1795 -0.01435 0.0
O26 O 0.01012 0.21068 0.98044 0.0
C27 C 0.98993 0.1995 0.97781 0.0
H28 H 0.92491 0.10581 0.0598 0.0
H29 H 0.10068 0.25597 0.94261 0.0
Co30 Co 0.85947 0.84219 0.00587 0.0
C31 C 0.84451 0.84944 0.13167 0.0
Co32 Co 0.82745 0.83894 -0.00023 0.0
C33 C 0.90516 0.85922 -0.00789 0.0
C34 C 0.89038 0.832 0.05936 0.0
N35 N 0.88601 0.84437 0.01739 0.0
N36 N 0.9212 0.85654 0.01668 0.0
C37 C 0.9119 0.83935 0.05871 0.0
H38 H 0.90738 0.87199 0.95743 0.0
H39 H 0.87883 0.81893 0.09088 0.0
C40 C 0.84258 0.83177 0.87402 0.0
N41 N 0.80103 0.83673 -0.01083 0.0
C42 C 0.78447 0.82244 0.94941 0.0
C43 C 0.79465 0.84991 0.01548 0.0
N44 N 0.76807 0.82627 0.94919 0.0
C45 C 0.77441 0.84354 -0.00905 0.0
C46 C 0.861 0.87992 0.97419 0.0
O47 O 0.85913 0.83591 0.90954 0.0
O48 O 0.8272 0.83231 0.90384 0.0
O49 O 0.84085 0.86836 0.97736 0.0
O50 O 0.87251 0.87155 -0.01503 0.0
O51 O 0.82807 0.84556 0.09605 0.0
H52 H 0.80427 0.86352 0.04915 0.0
H53 H 0.78478 0.80989 0.91922 0.0
O54 O 0.85972 0.84856 0.10197 0.0
O55 O 0.84581 0.81269 0.02691 0.0
O56 O 0.8142 0.80966 0.02266 0.0
C57 C 0.82573 0.80128 0.03279 0.0
H58 H 0.92017 0.83315 0.08964 0.0
H59 H 0.76514 0.8511 0.0028 0.0
Co60 Co 0.18709 0.0299 -0.00437 0.0
C61 C 0.19457 0.01484 0.12111 0.0
Co62 Co 0.18998 1.0011 -0.01294 0.0
C63 C 0.16849 0.05706 -0.00372 0.0
C64 C 0.19943 0.07188 0.04449 0.0
N65 N 0.185 0.05399 0.01062 0.0
N66 N 0.17199 0.07611 0.02024 0.0
C67 C 0.19152 0.0855 0.0503 0.0
H68 H 0.15403 0.04537 0.96984 0.0
H69 H 0.21444 0.07455 0.06593 0.0
C70 C 0.18248 0.01618 0.86161 0.0
N71 N 0.19249 0.97729 0.97246 0.0
C72 C 0.20477 0.97522 0.92332 0.0
C73 C 0.18276 0.95849 0.00637 0.0
N74 N 0.2032 0.95591 0.92502 0.0
C75 C 0.18929 0.94528 0.9772 0.0
C76 C 0.14848 0.9921 0.00656 0.0
O77 O 0.18258 0.03077 0.8989 0.0
O78 O 0.18591 0.00237 0.89013 0.0
O79 O 0.16006 0.9837 -0.00227 0.0
O80 O 0.15719 0.01225 0.00863 0.0
O81 O 0.19389 0.99992 0.0841 0.0
H82 H 0.1717 0.95469 0.04958 0.0
H83 H 0.21452 0.98765 0.88635 0.0
O84 O 0.1917 0.02896 0.0923 0.0
O85 O 0.21685 0.04715 0.98262 0.0
O86 O 0.22008 0.01878 0.97715 0.0
C87 C 0.22865 0.03892 0.97744 0.0
H88 H 0.19917 0.10072 0.07744 0.0
H89 H 0.18449 0.92927 -0.00596 0.0
Co90 Co 0.66931 0.50196 0.37159 0.0
C91 C 0.69091 0.51495 0.49888 0.0
Co92 Co 0.69815 0.53375 0.36928 0.0
C93 C 0.64016 0.45762 0.3398 0.0
C94 C 0.62826 0.4698 0.41994 0.0
N95 N 0.64496 0.47549 0.37646 0.0
N96 N 0.62113 0.44108 0.3586 0.0
C97 C 0.61356 0.4487 0.40884 0.0
H98 H 0.65046 0.45671 0.30032 0.0
H99 H 0.62703 0.4802 0.45843 0.0
C100 C 0.67645 0.52064 0.24196 0.0
N101 N 0.7223 0.56024 0.36469 0.0
C102 C 0.72414 0.57748 0.33155 0.0
C103 C 0.74189 0.56647 0.39103 0.0
N104 N 0.7441 0.59428 0.33571 0.0
C105 C 0.75535 0.58741 0.37318 0.0
C106 C 0.70562 0.50078 0.33604 0.0
O107 O 0.66397 0.50385 0.27543 0.0
O108 O 0.69231 0.53569 0.27371 0.0
O109 O 0.71424 0.52085 0.34233 0.0
O110 O 0.68579 0.48917 0.34721 0.0
O111 O 0.70371 0.53153 0.46508 0.0
H112 H 0.74612 0.55638 0.42066 0.0
H113 H 0.71112 0.57748 0.30329 0.0
O114 O 0.67476 0.50013 0.46747 0.0
O115 O 0.65323 0.51518 0.39641 0.0
O116 O 0.68203 0.54659 0.39638 0.0
C117 C 0.66211 0.53516 0.40583 0.0
H118 H 0.59882 0.43948 0.43737 0.0
H119 H 0.77207 0.59681 0.38694 0.0
Co120 Co 0.52696 0.17919 0.33944 0.0
C121 C 0.51146 0.18632 0.46437 0.0
Co122 Co 0.49476 0.17539 0.33183 0.0
C123 C 0.57256 0.19604 0.32438 0.0
C124 C 0.55816 0.17008 0.3969 0.0
N125 N 0.55358 0.18171 0.3521 0.0
N126 N 0.58871 0.19375 0.35011 0.0
C127 C 0.57965 0.17735 0.3955 0.0
H128 H 0.57456 0.20815 0.28694 0.0
H129 H 0.54675 0.15759 0.43058 0.0
C130 C 0.51039 0.16827 0.20699 0.0
N131 N 0.46824 0.17284 0.32004 0.0
C132 C 0.45194 0.15844 0.27969 0.0
C133 C 0.46153 0.18583 0.34565 0.0
N134 N 0.43538 0.16202 0.2784 0.0
C135 C 0.44134 0.17924 0.32009 0.0
C136 C 0.52799 0.21652 0.30558 0.0
O137 O 0.52687 0.1726 0.24327 0.0
O138 O 0.49485 0.16867 0.23604 0.0
O139 O 0.50788 0.20468 0.30884 0.0
O140 O 0.53979 0.20852 0.31717 0.0
O141 O 0.49502 0.18209 0.4281 0.0
H142 H 0.4709 0.19948 0.37949 0.0
H143 H 0.45256 0.14601 0.2498 0.0
O144 O 0.52696 0.18584 0.43526 0.0
O145 O 0.51354 0.14973 0.36205 0.0
O146 O 0.48176 0.14623 0.35526 0.0
C147 C 0.49344 0.13814 0.36733 0.0
H148 H 0.58809 0.17165 0.42793 0.0
H149 H 0.43187 0.18662 0.33115 0.0
Co150 Co 0.85516 0.36376 0.30415 0.0
C151 C 0.86176 0.34893 0.43118 0.0
Co152 Co 0.85722 0.33446 0.29795 0.0
C153 C 0.8382 0.39228 0.29589 0.0
C154 C 0.86781 0.40577 0.35259 0.0
N155 N 0.85372 0.38828 0.31616 0.0
N156 N 0.84196 0.4115 0.31892 0.0
C157 C 0.86063 0.42005 0.35439 0.0
H158 H 0.82402 0.38097 0.26722 0.0
H159 H 0.88214 0.40778 0.37781 0.0
C160 C 0.85003 0.34889 0.17127 0.0
N161 N 0.8591 0.3102 0.28614 0.0
C162 C 0.87138 0.30755 0.23849 0.0
C163 C 0.84905 0.29167 0.32155 0.0
N164 N 0.86955 0.28816 0.24265 0.0
C165 C 0.85543 0.27805 0.29481 0.0
C166 C 0.81605 0.32656 0.31646 0.0
O167 O 0.85089 0.36412 0.20698 0.0
O168 O 0.85307 0.33501 0.20111 0.0
O169 O 0.82729 0.31772 0.30927 0.0
O170 O 0.82513 0.34676 0.31659 0.0
O171 O 0.86109 0.3339 0.39494 0.0
H172 H 0.83797 0.28836 0.36433 0.0
H173 H 0.88138 0.31965 0.20098 0.0
O174 O 0.85935 0.36321 0.40134 0.0
O175 O 0.88505 0.38042 0.29198 0.0
O176 O 0.8873 0.35149 0.28742 0.0
C177 C 0.89639 0.37166 0.28745 0.0
H178 H 0.86845 0.43543 0.38046 0.0
H179 H 0.85042 0.26215 0.31343 0.0
Co180 Co 0.32992 0.83551 0.6731 0.0
C181 C 0.34232 0.85731 0.80062 0.0
Co182 Co 0.35944 0.86688 0.66982 0.0
C183 C 0.30175 0.79057 0.65633 0.0
C184 C 0.28674 0.80541 0.71092 0.0
N185 N 0.30512 0.80959 0.67968 0.0
N186 N 0.28204 0.77461 0.67202 0.0
C187 C 0.27251 0.78391 0.70621 0.0
H188 H 0.31363 0.78852 0.62853 0.0
H189 H 0.28403 0.81718 0.73666 0.0
C190 C 0.34722 0.84512 0.54237 0.0
N191 N 0.38462 0.89288 0.66186 0.0
C192 C 0.38732 0.9127 0.66104 0.0
C193 C 0.40396 0.89563 0.64567 0.0
N194 N 0.40744 0.92759 0.64418 0.0
C195 C 0.41796 0.91685 0.63508 0.0
C196 C 0.36633 0.83327 0.69879 0.0
O197 O 0.33141 0.83105 0.57632 0.0
O198 O 0.36103 0.86191 0.57371 0.0
O199 O 0.37528 0.85329 0.69162 0.0
O200 O 0.34622 0.82214 0.69283 0.0
O201 O 0.35778 0.87167 0.76605 0.0
H202 H 0.4075 0.88296 0.63776 0.0
H203 H 0.37459 0.91609 0.67009 0.0
O204 O 0.3287 0.84028 0.76979 0.0
O205 O 0.3138 0.84892 0.65385 0.0
O206 O 0.34296 0.87998 0.64873 0.0
C207 C 0.32276 0.86892 0.6458 0.0
H208 H 0.25664 0.77573 0.72829 0.0
H209 H 0.43424 0.9236 0.61725 0.0
Co210 Co 0.18989 0.51128 0.68712 0.0
C211 C 0.17289 0.51784 0.81078 0.0
Co212 Co 0.15777 0.5076 0.67727 0.0
C213 C 0.236 0.5292 0.68398 0.0
C214 C 0.22013 0.50208 0.7513 0.0
N215 N 0.21641 0.51397 0.70481 0.0
N216 N 0.25166 0.52738 0.71644 0.0
C217 C 0.24166 0.5102 0.7583 0.0
H218 H 0.23877 0.54208 0.6489 0.0
H219 H 0.20803 0.48895 0.78119 0.0
C220 C 0.17494 0.50108 0.55366 0.0
N221 N 0.13126 0.50468 0.66105 0.0
C222 C 0.1158 0.49005 0.61874 0.0
C223 C 0.12357 0.51708 0.68439 0.0
N224 N 0.09877 0.49284 0.61404 0.0
C225 C 0.1036 0.50985 0.65553 0.0
C226 C 0.19115 0.54881 0.65406 0.0
O227 O 0.19118 0.50527 0.59109 0.0
O228 O 0.15919 0.50136 0.58163 0.0
O229 O 0.17099 0.53708 0.65557 0.0
O230 O 0.20275 0.54061 0.66638 0.0
O231 O 0.1567 0.5138 0.77336 0.0
H232 H 0.13209 0.53071 0.71908 0.0
H233 H 0.11736 0.47797 0.5901 0.0
O234 O 0.18854 0.51741 0.78276 0.0
O235 O 0.1764 0.48176 0.708 0.0
O236 O 0.14469 0.4783 0.69956 0.0
C237 C 0.1563 0.47015 0.71205 0.0
H238 H 0.24937 0.50426 0.79317 0.0
H239 H 0.09349 0.51665 0.66441 0.0
Co240 Co 0.51824 0.69823 0.68033 0.0
C241 C 0.52589 0.68303 0.80539 0.0
Co242 Co 0.52023 0.66888 0.67139 0.0
C243 C 0.50074 0.72617 0.68053 0.0
C244 C 0.5316 0.74059 0.72911 0.0
N245 N 0.51705 0.72281 0.69505 0.0
N246 N 0.50439 0.74523 0.70485 0.0
C247 C 0.5239 0.75441 0.73507 0.0
H248 H 0.48626 0.71462 0.65385 0.0
H249 H 0.5465 0.743 0.75073 0.0
C250 C 0.51259 0.68405 0.54629 0.0
N251 N 0.52123 0.64412 0.65632 0.0
C252 C 0.53791 0.64086 0.66382 0.0
C253 C 0.50562 0.62593 0.62723 0.0
N254 N 0.53337 0.62145 0.63998 0.0
C255 C 0.51299 0.61199 0.61739 0.0
C256 C 0.47919 0.66133 0.69407 0.0
O257 O 0.51346 0.69903 0.58355 0.0
O258 O 0.51553 0.66991 0.57474 0.0
O259 O 0.49038 0.65254 0.68542 0.0
O260 O 0.4883 0.6815 0.69482 0.0
O261 O 0.52483 0.66795 0.76818 0.0
H262 H 0.49018 0.62331 0.61076 0.0
H263 H 0.5533 0.65273 0.68437 0.0
O264 O 0.52313 0.69728 0.77691 0.0
O265 O 0.54803 0.71466 0.66606 0.0
O266 O 0.55029 0.68574 0.65815 0.0
C267 C 0.55935 0.70593 0.65907 0.0
H268 H 0.53164 0.76957 0.76252 0.0
H269 H 0.5044 0.5966 0.59155 0.0
C270 C 0.06645 0.28764 0.94282 0.0
C271 C 0.08105 0.28112 0.9624 0.0
C272 C 0.07362 0.3085 0.92095 0.0
C273 C 0.12105 0.36271 0.91917 0.0
H274 H 0.09421 0.36952 0.75094 0.0
C275 C 0.15988 0.43979 0.75754 0.0
C276 C 0.14674 0.44791 0.73626 0.0
C277 C 0.15107 0.41947 0.78641 0.0
C278 C 0.10171 0.3679 0.79838 0.0
H279 H 0.11456 0.29178 0.978 0.0
H280 H 0.12709 0.32797 0.93844 0.0
H281 H 0.08012 0.33436 0.80325 0.0
H282 H 0.11398 0.44081 0.72664 0.0
H283 H 0.09857 0.40519 0.77686 0.0
H284 H 0.14288 0.3962 0.91339 0.0
C285 C 0.11009 0.31702 0.94039 0.0
C286 C 0.09361 0.34778 0.82854 0.0
C287 C 0.10292 0.29619 0.96237 0.0
C288 C 0.12453 0.435 0.74252 0.0
C289 C 0.1157 0.4146 0.77112 0.0
C290 C 0.1292 0.38279 0.88883 0.0
C291 C 0.09554 0.32332 0.91815 0.0
C292 C 0.10331 0.34492 0.88893 0.0
C293 C 0.12891 0.40677 0.79435 0.0
C294 C 0.11974 0.38555 0.82774 0.0
H295 H 0.0495 0.27647 0.94162 0.0
H296 H 0.06199 0.31293 0.90519 0.0
H297 H 0.12868 0.36113 0.96634 0.0
H298 H 0.17705 0.44928 0.75324 0.0
H299 H 0.16162 0.41371 0.8027 0.0
C300 C 0.7398 0.79328 0.89264 0.0
C301 C 0.74835 0.81491 0.90994 0.0
C302 C 0.72055 0.78225 0.85525 0.0
C303 C 0.67185 0.78452 0.81506 0.0
H304 H 0.66223 0.7418 0.67317 0.0
C305 C 0.5926 0.74143 0.66509 0.0
C306 C 0.58285 0.71913 0.66309 0.0
C307 C 0.6141 0.75392 0.68329 0.0
C308 C 0.66467 0.75364 0.71283 0.0
H309 H 0.74373 0.84207 0.8992 0.0
H310 H 0.71029 0.82292 0.8339 0.0
H311 H 0.69722 0.76206 0.72997 0.0
H312 H 0.58844 0.69255 0.67354 0.0
H313 H 0.62596 0.71438 0.70589 0.0
H314 H 0.63935 0.77599 0.79897 0.0
C315 C 0.71821 0.81433 0.85048 0.0
C316 C 0.68469 0.7652 0.74551 0.0
C317 C 0.73738 0.82532 0.88805 0.0
C318 C 0.59546 0.70969 0.67465 0.0
C319 C 0.61699 0.72222 0.6931 0.0
C320 C 0.65193 0.77303 0.78238 0.0
C321 C 0.70945 0.79261 0.83412 0.0
C322 C 0.68847 0.78071 0.79731 0.0
C323 C 0.62634 0.74442 0.70013 0.0
C324 C 0.64805 0.75739 0.7311 0.0
H325 H 0.74774 0.78474 0.90934 0.0
H326 H 0.71412 0.76546 0.84446 0.0
H327 H 0.67404 0.79602 0.85569 0.0
H328 H 0.58339 0.74923 0.65583 0.0
H329 H 0.62095 0.77102 0.68663 0.0
C330 C 0.23451 0.96317 0.85311 0.0
C331 C 0.21456 0.94859 0.88146 0.0
C332 C 0.24584 0.9561 0.81252 0.0
C333 C 0.24054 0.91016 0.71012 0.0
H334 H 0.30008 0.93342 0.76003 0.0
C335 C 0.28758 0.8673 0.65351 0.0
C336 C 0.30973 0.87939 0.64379 0.0
C337 C 0.27572 0.8773 0.66626 0.0
C338 C 0.28362 0.92706 0.74405 0.0
H339 H 0.19061 0.91519 0.88757 0.0
H340 H 0.21055 0.90278 0.81754 0.0
H341 H 0.27975 0.94783 0.81513 0.0
H342 H 0.3365 0.91145 0.63345 0.0
H343 H 0.31569 0.92891 0.65424 0.0
H344 H 0.24435 0.88906 0.64002 0.0
C345 C 0.21733 0.91972 0.82631 0.0
C346 C 0.27193 0.93529 0.77595 0.0
C347 C 0.20603 0.92679 0.86719 0.0
C348 C 0.31949 0.90168 0.64148 0.0
C349 C 0.30759 0.91169 0.6539 0.0
C350 C 0.25228 0.90196 0.67789 0.0
C351 C 0.23746 0.93429 0.79916 0.0
C352 C 0.25017 0.92668 0.76035 0.0
C353 C 0.28572 0.89962 0.66915 0.0
C354 C 0.27387 0.91005 0.69553 0.0
H355 H 0.24165 0.98004 0.8636 0.0
H356 H 0.26124 0.96772 0.79191 0.0
H357 H 0.22387 0.90342 0.69626 0.0
H358 H 0.27954 0.85009 0.65546 0.0
H359 H 0.25896 0.86748 0.67823 0.0
C360 C 0.4048 0.16072 0.21527 0.0
C361 C 0.41589 0.15052 0.23808 0.0
C362 C 0.38588 0.14959 0.17645 0.0
C363 C 0.35362 0.10062 0.06952 0.0
H364 H 0.30726 0.11011 0.12034 0.0
C365 C 0.26509 0.04367 -0.00526 0.0
C366 C 0.25207 0.05262 0.98261 0.0
C367 C 0.2865 0.05661 0.01399 0.0
C368 C 0.32013 0.10752 0.10446 0.0
H369 H 0.41575 0.12058 0.23789 0.0
H370 H 0.38258 0.10106 0.17078 0.0
H371 H 0.34159 0.13057 0.17895 0.0
H372 H 0.25176 0.0823 0.97518 0.0
H373 H 0.28911 0.10482 0.0074 0.0
H374 H 0.33182 0.07716 -0.00402 0.0
C375 C 0.38873 0.11779 0.18183 0.0
C376 C 0.33985 0.11925 0.13823 0.0
C377 C 0.40772 0.12896 0.22049 0.0
C378 C 0.26129 0.07487 -0.01512 0.0
C379 C 0.28267 0.08778 0.00387 0.0
C380 C 0.33382 0.08882 0.03572 0.0
C381 C 0.37752 0.12795 0.15972 0.0
C382 C 0.35681 0.11588 0.12152 0.0
C383 C 0.2953 0.07874 0.02125 0.0
C384 C 0.31682 0.09208 0.05308 0.0
H385 H 0.41087 0.17741 0.22664 0.0
H386 H 0.37786 0.15801 0.15918 0.0
H387 H 0.36645 0.09783 0.05476 0.0
H388 H 0.25848 0.02659 -0.00662 0.0
H389 H 0.29577 0.04913 0.0272 0.0
C390 C 0.87238 0.25846 0.18955 0.0
C391 C 0.88098 0.28037 0.20165 0.0
C392 C 0.88375 0.25097 0.15108 0.0
C393 C 0.93847 0.26589 0.10409 0.0
H394 H 0.91116 0.21898 0.9705 0.0
C395 C 0.98641 0.23209 0.97314 0.0
C396 C 0.97678 0.20982 0.97603 0.0
C397 C 0.97441 0.24201 -0.01479 0.0
C398 C 0.91901 0.23206 0.00778 0.0
H399 H 0.90833 0.31159 0.18264 0.0
H400 H 0.92802 0.29854 0.11506 0.0
H401 H 0.89058 0.23364 0.02397 0.0
H402 H 0.94672 0.18044 -0.01131 0.0
H403 H 0.92594 0.19769 0.01079 0.0
H404 H 0.96666 0.26395 0.09017 0.0
C405 C 0.9125 0.28715 0.13552 0.0
C406 C 0.90721 0.24042 0.03843 0.0
C407 C 0.90111 0.29463 0.17371 0.0
C408 C 0.95465 0.19764 -0.01377 0.0
C409 C 0.94269 0.20755 -0.00139 0.0
C410 C 0.95022 0.25749 0.07374 0.0
C411 C 0.90403 0.26523 0.12424 0.0
C412 C 0.91676 0.25724 0.08766 0.0
C413 C 0.95256 0.22987 0.00067 0.0
C414 C 0.94057 0.24027 0.026 0.0
H415 H 0.85683 0.2471 0.20973 0.0
H416 H 0.87689 0.23396 0.14387 0.0
H417 H 0.94622 0.27865 0.14258 0.0
H418 H 0.00339 0.24193 0.96476 0.0
H419 H 0.9824 0.25923 -0.01508 0.0
C420 C 0.79416 0.76655 0.0679 0.0
C421 C 0.81613 0.77885 0.05493 0.0
C422 C 0.78545 0.74586 0.09384 0.0
C423 C 0.79618 0.7014 0.11461 0.0
H424 H 0.75659 0.68546 0.27072 0.0
C425 C 0.7733 0.62741 0.28515 0.0
C426 C 0.75179 0.61487 0.30412 0.0
C427 C 0.78058 0.64708 0.25255 0.0
C428 C 0.76742 0.68956 0.22658 0.0
H429 H 0.84609 0.77886 0.05724 0.0
H430 H 0.83091 0.74289 0.10277 0.0
H431 H 0.7699 0.72003 0.21492 0.0
H432 H 0.72118 0.61347 0.30513 0.0
H433 H 0.73379 0.64758 0.24723 0.0
H434 H 0.79382 0.67099 0.12662 0.0
C435 C 0.82038 0.74914 0.09239 0.0
C436 C 0.77502 0.70935 0.19455 0.0
C437 C 0.82909 0.76982 0.06664 0.0
C438 C 0.73778 0.62258 0.29041 0.0
C439 C 0.74506 0.64225 0.25791 0.0
C440 C 0.78857 0.68161 0.14662 0.0
C441 C 0.79851 0.73702 0.10709 0.0
C442 C 0.78959 0.71555 0.13854 0.0
C443 C 0.76652 0.65468 0.23833 0.0
C444 C 0.77423 0.67553 0.20329 0.0
H445 H 0.78374 0.77303 0.05923 0.0
H446 H 0.76849 0.7368 0.10382 0.0
H447 H 0.80716 0.7056 0.0709 0.0
H448 H 0.78447 0.62189 0.29434 0.0
H449 H 0.79727 0.65641 0.23892 0.0
C450 C 0.06775 0.48973 0.5479 0.0
C451 C 0.07991 0.4807 0.5711 0.0
C452 C 0.04961 0.47801 0.5057 0.0
C453 C 0.00937 0.4228 0.4599 0.0
H454 H 0.99516 0.4494 0.30783 0.0
C455 C 0.93236 0.37494 0.2992 0.0
C456 C 0.91986 0.38472 0.29358 0.0
C457 C 0.95376 0.3868 0.31964 0.0
C458 C 0.99891 0.44176 0.35018 0.0
H459 H 0.08235 0.45209 0.5682 0.0
H460 H 0.05103 0.43184 0.49373 0.0
H461 H 0.02881 0.46983 0.37218 0.0
H462 H 0.92049 0.4149 0.2996 0.0
H463 H 0.9577 0.43547 0.33554 0.0
H464 H 0.97936 0.39492 0.43919 0.0
C465 C 0.05541 0.44795 0.50863 0.0
C466 C 0.01814 0.45347 0.38719 0.0
C467 C 0.07352 0.45967 0.55082 0.0
C468 C 0.92964 0.40685 0.30361 0.0
C469 C 0.95104 0.41869 0.32401 0.0
C470 C 0.99019 0.41111 0.42291 0.0
C471 C 0.0432 0.45695 0.48573 0.0
C472 C 0.02345 0.44421 0.44317 0.0
C473 C 0.96313 0.40866 0.33474 0.0
C474 C 0.98458 0.42052 0.36827 0.0
H475 H 0.07231 0.50595 0.56171 0.0
H476 H 0.04042 0.48534 0.48973 0.0
H477 H 0.0128 0.41526 0.50335 0.0
H478 H 0.92535 0.35794 0.29135 0.0
H479 H 0.96278 0.37869 0.3261 0.0
C480 C 0.56973 0.62767 0.61926 0.0
C481 C 0.54791 0.61357 0.63015 0.0
C482 C 0.58334 0.61994 0.60178 0.0
C483 C 0.58772 0.57118 0.59932 0.0
H484 H 0.62635 0.59913 0.4435 0.0
C485 C 0.62792 0.53197 0.44752 0.0
C486 C 0.64957 0.54485 0.43088 0.0
C487 C 0.61634 0.54098 0.47484 0.0
C488 C 0.61584 0.59131 0.48763 0.0
H489 H 0.52354 0.58029 0.63505 0.0
H490 H 0.54714 0.56681 0.60337 0.0
H491 H 0.6051 0.6139 0.4898 0.0
H492 H 0.676 0.57733 0.42887 0.0
H493 H 0.65574 0.59304 0.47667 0.0
H494 H 0.59825 0.5484 0.5963 0.0
C495 C 0.55379 0.58384 0.60864 0.0
C496 C 0.60371 0.59979 0.51431 0.0
C497 C 0.5402 0.59156 0.62608 0.0
C498 C 0.65932 0.56697 0.44107 0.0
C499 C 0.64771 0.57599 0.46822 0.0
C500 C 0.59983 0.56268 0.57254 0.0
C501 C 0.57544 0.59795 0.59496 0.0
C502 C 0.58937 0.58972 0.57003 0.0
C503 C 0.62614 0.56307 0.48594 0.0
C504 C 0.61387 0.57254 0.51596 0.0
H505 H 0.57619 0.64471 0.62145 0.0
H506 H 0.60001 0.63121 0.5925 0.0
H507 H 0.57706 0.56322 0.64296 0.0
H508 H 0.61993 0.51487 0.4402 0.0
H509 H 0.59966 0.53065 0.48694 0.0
C510 C 0.46174 0.10282 0.39643 0.0
C511 C 0.48396 0.11592 0.39174 0.0
C512 C 0.4529 0.08231 0.42418 0.0
C513 C 0.46575 0.0401 0.46588 0.0
H514 H 0.41768 0.02012 0.59302 0.0
C515 C 0.43728 0.96427 0.62928 0.0
C516 C 0.4153 0.94962 0.62704 0.0
C517 C 0.44527 0.98492 0.60414 0.0
C518 C 0.43101 0.02545 0.55725 0.0
H519 H 0.51431 0.11768 0.41168 0.0
H520 H 0.49895 0.08216 0.46094 0.0
H521 H 0.43226 0.05513 0.53868 0.0
H522 H 0.3844 0.94559 0.59912 0.0
H523 H 0.39837 0.98175 0.55612 0.0
H524 H 0.46464 0.01054 0.48502 0.0
C525 C 0.4883 0.08753 0.4422 0.0
C526 C 0.43932 0.04545 0.52587 0.0
C527 C 0.49712 0.10796 0.4142 0.0
C528 C 0.40139 0.95647 0.60235 0.0
C529 C 0.40939 0.97719 0.57746 0.0
C530 C 0.45754 0.0202 0.49755 0.0
C531 C 0.46609 0.07451 0.44803 0.0
C532 C 0.45683 0.05303 0.47996 0.0
C533 C 0.43145 0.99145 0.57654 0.0
C534 C 0.44015 0.0127 0.54374 0.0
H535 H 0.45116 0.10846 0.37935 0.0
H536 H 0.43572 0.07257 0.42687 0.0
H537 H 0.47898 0.04525 0.42978 0.0
H538 H 0.44839 0.95965 0.6493 0.0
H539 H 0.46233 0.99572 0.60543 0.0
C540 C 0.16501 0.10608 0.02332 0.0
C541 C 0.15735 0.08408 0.02009 0.0
C542 C 0.15091 0.11386 0.02757 0.0
C543 C 0.0953 0.09969 -0.00631 0.0
H544 H 0.10896 0.14643 0.12334 0.0
C545 C 0.0381 0.13228 0.03859 0.0
C546 C 0.04757 0.15457 0.038 0.0
C547 C 0.05072 0.12275 0.04195 0.0
C548 C 0.10499 0.13347 0.08658 0.0
H549 H 0.12877 0.05298 0.01825 0.0
H550 H 0.10413 0.06659 0.02525 0.0
H551 H 0.13253 0.13159 0.11591 0.0
H552 H 0.07767 0.1843 0.04242 0.0
H553 H 0.09962 0.16768 0.04777 0.0
H554 H 0.06788 0.10175 0.96374 0.0
C555 C 0.12108 0.07781 0.0239 0.0
C556 C 0.1185 0.12499 0.08224 0.0
C557 C 0.13521 0.07002 0.0197 0.0
C558 C 0.06986 0.16709 0.04285 0.0
C559 C 0.08245 0.15756 0.0463 0.0
C560 C 0.08178 0.10819 -0.002 0.0
C561 C 0.12881 0.09981 0.02864 0.0
C562 C 0.11394 0.10817 0.03517 0.0
C563 C 0.07305 0.13529 0.04498 0.0
C564 C 0.08661 0.12532 0.04394 0.0
H565 H 0.18194 0.11733 0.02247 0.0
H566 H 0.15734 0.13091 0.02966 0.0
H567 H 0.09146 0.08687 0.95644 0.0
H568 H 0.02095 0.12219 0.03504 0.0
H569 H 0.043 0.10554 0.04176 0.0
C570 C 0.85824 0.91263 0.95711 0.0
C571 C 0.87092 0.90305 0.96227 0.0
C572 C 0.86765 0.93469 0.95183 0.0
C573 C 0.91747 0.98366 -0.00369 0.0
H574 H 0.89317 0.01069 0.88233 0.0
C575 C 0.95607 0.0748 0.98222 0.0
C576 C 0.9422 0.08299 -0.01138 0.0
C577 C 0.94804 0.05304 0.9717 0.0
C578 C 0.90005 0.00335 0.91472 0.0
H579 H 0.90342 0.90906 0.96308 0.0
H580 H 0.91982 0.94757 0.95295 0.0
H581 H 0.87806 0.97218 0.87526 0.0
H582 H 0.90905 0.07481 -0.01308 0.0
H583 H 0.89499 0.03676 0.96972 0.0
H584 H 0.93926 0.01473 0.03649 0.0
C585 C 0.9026 0.93803 0.95424 0.0
C586 C 0.89141 0.98131 0.91068 0.0
C587 C 0.8932 0.91596 0.95964 0.0
C588 C 0.92013 0.06897 0.98299 0.0
C589 C 0.9121 0.04721 0.97229 0.0
C590 C 0.92612 0.00567 0.00025 0.0
C591 C 0.88994 0.94767 0.95145 0.0
C592 C 0.8999 0.9712 0.95195 0.0
C593 C 0.92596 0.03898 0.96722 0.0
C594 C 0.91739 0.01574 0.96002 0.0
H595 H 0.84102 0.90313 0.95908 0.0
H596 H 0.85744 0.94162 0.95058 0.0
H597 H 0.92416 0.97635 0.02975 0.0
H598 H 0.97313 0.08509 -0.01297 0.0
H599 H 0.95913 0.04721 0.96733 0.0
C600 C 0.95758 0.86201 0.01082 0.0
C601 C 0.94377 0.87032 0.00732 0.0
C602 C 0.97961 0.87548 0.00849 0.0
C603 C 0.02195 0.93005 0.9623 0.0
H604 H 0.05585 0.91725 0.09083 0.0
C605 C 0.11194 0.98775 0.01077 0.0
C606 C 0.12504 0.97858 0.01092 0.0
C607 C 0.08975 0.9749 0.01094 0.0
C608 C 0.04663 0.92094 0.05424 0.0
H609 H 0.94225 0.89926 -0.00291 0.0
H610 H 0.9808 0.92288 -0.00641 0.0
H611 H 0.01732 0.89419 0.08726 0.0
H612 H 0.12512 0.94873 0.01245 0.0
H613 H 0.08645 0.92635 0.01297 0.0
H614 H 0.05138 0.95696 0.92984 0.0
C615 C 0.97457 0.90589 -0.0028 0.0
C616 C 0.02454 0.90769 0.05198 0.0
C617 C 0.95247 0.89236 -0.00086 0.0
C618 C 0.11549 0.9563 0.01245 0.0
C619 C 0.09333 0.94347 0.01304 0.0
C620 C 0.04408 0.94338 0.9648 0.0
C621 C 0.98841 0.89762 0.00304 0.0
C622 C 0.01192 0.91198 0.00563 0.0
C623 C 0.08021 0.95262 0.01176 0.0
C624 C 0.05666 0.93888 0.01051 0.0
H625 H 0.95131 0.84506 0.01592 0.0
H626 H 0.98977 0.86851 0.01135 0.0
H627 H 0.01275 0.9337 0.92546 0.0
H628 H 0.11879 0.00487 0.00955 0.0
H629 H 0.08006 0.98241 0.01074 0.0
C630 C 0.73979 0.5039 0.29513 0.0
C631 C 0.7188 0.49113 0.3188 0.0
C632 C 0.75285 0.49515 0.28387 0.0
C633 C 0.78113 0.47692 0.3165 0.0
H634 H 0.76005 0.41906 0.25102 0.0
C635 C 0.828 0.43389 0.36516 0.0
C636 C 0.8282 0.42039 0.31213 0.0
C637 C 0.81467 0.44251 0.35925 0.0
C638 C 0.76627 0.43534 0.26856 0.0
H639 H 0.69476 0.45902 0.34701 0.0
H640 H 0.71777 0.44386 0.32958 0.0
H641 H 0.73663 0.43417 0.24804 0.0
H642 H 0.81465 0.4054 0.21111 0.0
H643 H 0.79146 0.42075 0.20007 0.0
H644 H 0.81084 0.4783 0.33579 0.0
C645 C 0.72405 0.46056 0.31828 0.0
C646 C 0.75276 0.44392 0.26768 0.0
C647 C 0.71089 0.46927 0.32876 0.0
C648 C 0.81469 0.41562 0.25304 0.0
C649 C 0.80141 0.42438 0.24683 0.0
C650 C 0.79464 0.46842 0.31689 0.0
C651 C 0.74531 0.47348 0.2969 0.0
C652 C 0.75995 0.46473 0.29257 0.0
C653 C 0.80131 0.43799 0.29984 0.0
C654 C 0.78728 0.44741 0.29414 0.0
H655 H 0.74625 0.52076 0.28612 0.0
H656 H 0.76897 0.50548 0.26583 0.0
H657 H 0.78719 0.4929 0.33693 0.0
H658 H 0.83787 0.43749 0.41205 0.0
H659 H 0.81463 0.45249 0.40193 0.0
C660 C 0.58937 0.40646 0.33197 0.0
C661 C 0.61161 0.41932 0.33527 0.0
C662 C 0.57999 0.38483 0.31596 0.0
C663 C 0.59114 0.34308 0.24842 0.0
H664 H 0.54242 0.30635 0.36411 0.0
C665 C 0.55966 0.25303 0.29089 0.0
C666 C 0.53743 0.23958 0.29282 0.0
C667 C 0.56848 0.27506 0.28544 0.0
C668 C 0.55582 0.31638 0.33065 0.0
H669 H 0.64155 0.41984 0.32251 0.0
H670 H 0.62524 0.38191 0.29616 0.0
H671 H 0.55819 0.34467 0.37381 0.0
H672 H 0.50704 0.23862 0.28725 0.0
H673 H 0.52245 0.27699 0.27783 0.0
H674 H 0.58902 0.31449 0.2072 0.0
C675 C 0.61498 0.38858 0.30446 0.0
C676 C 0.56485 0.33838 0.33602 0.0
C677 C 0.62435 0.4103 0.3197 0.0
C678 C 0.52422 0.24853 0.28641 0.0
C679 C 0.53303 0.27052 0.28129 0.0
C680 C 0.58216 0.32098 0.24346 0.0
C681 C 0.59267 0.37549 0.30383 0.0
C682 C 0.58265 0.35204 0.29514 0.0
C683 C 0.55523 0.28404 0.28219 0.0
C684 C 0.56443 0.30743 0.28467 0.0
H685 H 0.57922 0.41313 0.34255 0.0
H686 H 0.56277 0.37535 0.31417 0.0
H687 H 0.60468 0.35312 0.21558 0.0
H688 H 0.57026 0.2466 0.29553 0.0
H689 H 0.58565 0.28512 0.28668 0.0
C690 C 0.62 0.22902 0.3255 0.0
C691 C 0.61121 0.20715 0.33818 0.0
C692 C 0.6421 0.24232 0.32099 0.0
C693 C 0.69225 0.24453 0.37586 0.0
H694 H 0.71847 0.29142 0.24396 0.0
C695 C 0.78277 0.29119 0.32732 0.0
C696 C 0.7926 0.31343 0.32195 0.0
C697 C 0.7606 0.27867 0.32988 0.0
C698 C 0.71134 0.27852 0.28159 0.0
H699 H 0.61854 0.18189 0.35205 0.0
H700 H 0.65697 0.2049 0.34297 0.0
H701 H 0.67977 0.26852 0.24407 0.0
H702 H 0.78685 0.33999 0.31545 0.0
H703 H 0.74808 0.31806 0.32002 0.0
H704 H 0.7238 0.25439 0.41289 0.0
C705 C 0.64691 0.21196 0.33859 0.0
C706 C 0.68918 0.2654 0.28168 0.0
C707 C 0.62489 0.19874 0.34353 0.0
C708 C 0.77977 0.3229 0.31967 0.0
C709 C 0.75756 0.31034 0.32178 0.0
C710 C 0.71437 0.25757 0.37553 0.0
C711 C 0.65583 0.23398 0.32867 0.0
C712 C 0.67937 0.24816 0.32857 0.0
C713 C 0.74775 0.28809 0.32676 0.0
C714 C 0.72418 0.27464 0.32821 0.0
H715 H 0.60988 0.236 0.32191 0.0
H716 H 0.64843 0.25922 0.31391 0.0
H717 H 0.68522 0.23171 0.41382 0.0
H718 H 0.79219 0.28339 0.32906 0.0
H719 H 0.7535 0.26155 0.33296 0.0
C720 C 0.49741 0.77522 0.70918 0.0
C721 C 0.48977 0.75324 0.70501 0.0
C722 C 0.48327 0.78298 0.71256 0.0
C723 C 0.42788 0.76871 0.6732 0.0
H724 H 0.44018 0.81511 0.80273 0.0
C725 C 0.36996 0.80082 0.71022 0.0
C726 C 0.37938 0.8231 0.70999 0.0
C727 C 0.38261 0.79134 0.71543 0.0
C728 C 0.4366 0.80223 0.76599 0.0
H729 H 0.46118 0.72214 0.70146 0.0
H730 H 0.43653 0.7357 0.70686 0.0
H731 H 0.46401 0.8005 0.79831 0.0
H732 H 0.40938 0.85287 0.71706 0.0
H733 H 0.43136 0.83637 0.72551 0.0
H734 H 0.40062 0.77063 0.64021 0.0
C735 C 0.45348 0.74694 0.70673 0.0
C736 C 0.45026 0.7939 0.76337 0.0
C737 C 0.46763 0.73918 0.70341 0.0
C738 C 0.40162 0.83567 0.71705 0.0
C739 C 0.41423 0.8262 0.72235 0.0
C740 C 0.41422 0.77707 0.67576 0.0
C741 C 0.46115 0.76892 0.71181 0.0
C742 C 0.44618 0.7772 0.7164 0.0
C743 C 0.4049 0.80395 0.72074 0.0
C744 C 0.41856 0.79408 0.72165 0.0
H745 H 0.51435 0.78648 0.70944 0.0
H746 H 0.48967 0.80002 0.71513 0.0
H747 H 0.42442 0.75599 0.63595 0.0
H748 H 0.35286 0.7907 0.705 0.0
H749 H 0.37495 0.77414 0.71491 0.0
C750 C 0.22329 0.58486 0.63942 0.0
C751 C 0.20101 0.57192 0.64186 0.0
C752 C 0.23267 0.6069 0.6334 0.0
C753 C 0.22156 0.65006 0.58738 0.0
H754 H 0.26957 0.68382 0.71225 0.0
C755 C 0.25137 0.73839 0.65373 0.0
C756 C 0.27348 0.7522 0.65917 0.0
C757 C 0.24304 0.71653 0.64438 0.0
C758 C 0.25638 0.67467 0.67627 0.0
H759 H 0.17109 0.57193 0.63773 0.0
H760 H 0.18747 0.61042 0.62819 0.0
H761 H 0.25417 0.64539 0.70775 0.0
H762 H 0.30419 0.7538 0.65846 0.0
H763 H 0.28969 0.71576 0.64106 0.0
H764 H 0.22359 0.67943 0.55698 0.0
C765 C 0.1977 0.60351 0.63008 0.0
C766 C 0.24756 0.65262 0.67363 0.0
C767 C 0.18831 0.58145 0.63595 0.0
C768 C 0.2871 0.74368 0.65379 0.0
C769 C 0.27878 0.72184 0.6446 0.0
C770 C 0.23037 0.67214 0.59013 0.0
C771 C 0.21999 0.61651 0.62985 0.0
C772 C 0.22996 0.64004 0.62952 0.0
C773 C 0.25666 0.70799 0.64048 0.0
C774 C 0.24779 0.68466 0.63496 0.0
H775 H 0.23353 0.578 0.64335 0.0
H776 H 0.24988 0.61645 0.63216 0.0
H777 H 0.20818 0.64084 0.55217 0.0
H778 H 0.24046 0.74447 0.65686 0.0
H779 H 0.22591 0.70626 0.64199 0.0
C780 C 0.44309 0.65764 0.70897 0.0
C781 C 0.45575 0.64817 0.69942 0.0
C782 C 0.42087 0.64511 0.71081 0.0
C783 C 0.37415 0.61596 0.67108 0.0
H784 H 0.34875 0.56162 0.76678 0.0
C785 C 0.28393 0.55337 0.6521 0.0
C786 C 0.27427 0.54196 0.71392 0.0
C787 C 0.30603 0.56703 0.64976 0.0
C788 C 0.35554 0.57683 0.74032 0.0
H789 H 0.45499 0.61815 0.68412 0.0
H790 H 0.4164 0.59643 0.68639 0.0
H791 H 0.38723 0.58428 0.76658 0.0
H792 H 0.28004 0.5368 0.82282 0.0
H793 H 0.31829 0.56061 0.81909 0.0
H794 H 0.34229 0.60863 0.64643 0.0
C795 C 0.42358 0.61347 0.6937 0.0
C796 C 0.37766 0.58972 0.73944 0.0
C797 C 0.44573 0.62595 0.69211 0.0
C798 C 0.28704 0.54491 0.77379 0.0
C799 C 0.30901 0.55859 0.77164 0.0
C800 C 0.35196 0.60306 0.67214 0.0
C801 C 0.41086 0.62287 0.70301 0.0
C802 C 0.38726 0.60942 0.70472 0.0
C803 C 0.31884 0.56961 0.7094 0.0
C804 C 0.3424 0.58335 0.70694 0.0
H805 H 0.45032 0.67473 0.7147 0.0
H806 H 0.41155 0.65283 0.71897 0.0
H807 H 0.38104 0.63095 0.64317 0.0
H808 H 0.27448 0.55134 0.60513 0.0
H809 H 0.31312 0.57516 0.60079 0.0
C810 C 0.0354 0.18867 0.7624 0.0
C811 C 0.01666 0.17411 0.79719 0.0
C812 C 0.03603 0.1891 0.68905 0.0
C813 C 0.0084 0.1611 0.5268 0.0
H814 H 0.02589 0.21805 0.45997 0.0
C815 C 0.99123 0.17481 0.2452 0.0
C816 C 0.00919 0.18997 0.20841 0.0
C817 C 0.99181 0.17392 0.31845 0.0
C818 C 0.02111 0.20214 0.478 0.0
H819 H 0.98465 0.1473 0.78379 0.0
H820 H 0.98567 0.14828 0.6549 0.0
H821 H 0.0297 0.21242 0.58503 0.0
H822 H 0.04108 0.21725 0.21867 0.0
H823 H 0.04213 0.2155 0.34718 0.0
H824 H 0.99971 0.15081 0.41975 0.0
C825 C 0.99982 0.15928 0.68443 0.0
C826 C 0.02342 0.19892 0.54911 0.0
C827 C 0.9992 0.1588 0.75796 0.0
C828 C 0.02707 0.20533 0.24597 0.0
C829 C 0.02767 0.20437 0.31934 0.0
C830 C 0.00611 0.16432 0.45563 0.0
C831 C 0.01794 0.17501 0.64979 0.0
C832 C 0.017 0.17838 0.5739 0.0
C833 C 0.01035 0.18813 0.35561 0.0
C834 C 0.01232 0.18483 0.43098 0.0
H835 H 0.04925 0.20037 0.79169 0.0
H836 H 0.0503 0.20107 0.66302 0.0
H837 H 0.00346 0.14516 0.54503 0.0
H838 H 0.9771 0.16302 0.21732 0.0
H839 H 0.9781 0.16158 0.34584 0.0
C840 C 0.86067 0.83464 0.75981 0.0
C841 C 0.84186 0.82857 0.79741 0.0
C842 C 0.86061 0.83571 0.68629 0.0
C843 C 0.83214 0.84629 0.54947 0.0
H844 H 0.86368 0.83081 0.42053 0.0
C845 C 0.82652 0.84696 0.24581 0.0
C846 C 0.84529 0.8528 0.2082 0.0
C847 C 0.82662 0.84607 0.31937 0.0
C848 C 0.85508 0.83549 0.45628 0.0
H849 H 0.80785 0.81672 0.78835 0.0
H850 H 0.80776 0.81835 0.65977 0.0
H851 H 0.86168 0.82154 0.54529 0.0
H852 H 0.87926 0.86449 0.21716 0.0
H853 H 0.87943 0.86322 0.3458 0.0
H854 H 0.82554 0.86025 0.46043 0.0
C855 C 0.82259 0.82281 0.68715 0.0
C856 C 0.85383 0.83006 0.52726 0.0
C857 C 0.82266 0.82181 0.7605 0.0
C858 C 0.86449 0.85955 0.24506 0.0
C859 C 0.8646 0.85876 0.31844 0.0
C860 C 0.83339 0.85173 0.47847 0.0
C861 C 0.84171 0.83061 0.64985 0.0
C862 C 0.84232 0.83539 0.57426 0.0
C863 C 0.84551 0.85114 0.35582 0.0
C864 C 0.84491 0.8464 0.43147 0.0
H865 H 0.87566 0.83986 0.78718 0.0
H866 H 0.87555 0.84179 0.65844 0.0
H867 H 0.82352 0.85095 0.58523 0.0
H868 H 0.81153 0.84177 0.21846 0.0
H869 H 0.8117 0.84013 0.34727 0.0
C870 C 0.1829 0.0336 0.74844 0.0
C871 C 0.17919 0.01537 0.7854 0.0
C872 C 0.18301 0.03347 0.67484 0.0
C873 C 0.16895 0.99927 0.51785 0.0
H874 H 0.22259 0.04439 0.44499 0.0
C875 C 0.19359 0.99723 0.23444 0.0
C876 C 0.19776 0.0156 0.19736 0.0
C877 C 0.19333 0.99737 0.30803 0.0
C878 C 0.20758 0.03175 0.46489 0.0
H879 H 0.17067 0.98219 0.77611 0.0
H880 H 0.17096 0.98203 0.64773 0.0
H881 H 0.21407 0.04464 0.56967 0.0
H882 H 0.207 0.04898 0.20647 0.0
H883 H 0.20638 0.04912 0.3348 0.0
H884 H 0.16244 0.98638 0.41309 0.0
C885 C 0.17385 0.99637 0.67519 0.0
C886 C 0.2026 0.03203 0.53557 0.0
C887 C 0.17391 0.99655 0.74846 0.0
C888 C 0.20338 0.03451 0.23421 0.0
C889 C 0.20325 0.03467 0.30748 0.0
C890 C 0.17392 0.999 0.44715 0.0
C891 C 0.17918 0.01503 0.63813 0.0
C892 C 0.18327 0.01578 0.56234 0.0
C893 C 0.19744 0.01591 0.34463 0.0
C894 C 0.19326 0.01523 0.42039 0.0
H895 H 0.18684 0.04823 0.77616 0.0
H896 H 0.18694 0.04794 0.64667 0.0
H897 H 0.15396 0.98661 0.53784 0.0
H898 H 0.18939 0.98253 0.2068 0.0
H899 H 0.18907 0.98281 0.33623 0.0
C900 C 0.70751 0.53219 0.61379 0.0
C901 C 0.69316 0.5139 0.5756 0.0
C902 C 0.70648 0.53244 0.6873 0.0
C903 C 0.66652 0.50773 0.82353 0.0
H904 H 0.71441 0.53589 0.95319 0.0
C905 C 0.66004 0.50341 0.12685 0.0
C906 C 0.67422 0.52172 0.16524 0.0
C907 C 0.66108 0.50326 0.05333 0.0
C908 C 0.70092 0.52826 0.91725 0.0
H909 H 0.66805 0.4809 0.58391 0.0
H910 H 0.66652 0.48132 0.71253 0.0
H911 H 0.72085 0.53237 0.82859 0.0
H912 H 0.69904 0.55486 0.15727 0.0
H913 H 0.70064 0.55459 0.02862 0.0
H914 H 0.64659 0.50359 0.91223 0.0
C915 C 0.67811 0.49557 0.68552 0.0
C916 C 0.70461 0.52613 0.84632 0.0
C917 C 0.67908 0.49533 0.61211 0.0
C918 C 0.68815 0.54041 0.12893 0.0
C919 C 0.68915 0.54025 0.0555 0.0
C920 C 0.66283 0.50985 0.89446 0.0
C921 C 0.69118 0.51439 0.72335 0.0
C922 C 0.68743 0.51581 0.79901 0.0
C923 C 0.67624 0.52144 0.01748 0.0
C924 C 0.68001 0.52015 0.94178 0.0
H925 H 0.7186 0.54669 0.58688 0.0
H926 H 0.71673 0.54715 0.71543 0.0
H927 H 0.65302 0.50011 0.78761 0.0
H928 H 0.64907 0.48881 0.15359 0.0
H929 H 0.65096 0.48854 0.02502 0.0
C930 C 0.53092 0.19611 0.57888 0.0
C931 C 0.51188 0.18945 0.54107 0.0
C932 C 0.53072 0.19508 0.65229 0.0
C933 C 0.49497 0.16272 0.78991 0.0
H934 H 0.5388 0.20336 0.91662 0.0
C935 C 0.49086 0.15824 0.09262 0.0
C936 C 0.50995 0.16507 0.13032 0.0
C937 C 0.491 0.15923 0.01921 0.0
C938 C 0.52668 0.19174 0.88148 0.0
H939 H 0.47806 0.17829 0.54987 0.0
H940 H 0.47777 0.17658 0.67896 0.0
H941 H 0.53883 0.21247 0.79246 0.0
H942 H 0.54381 0.17646 0.12131 0.0
H943 H 0.544 0.17807 -0.00778 0.0
H944 H 0.48282 0.14199 0.87892 0.0
C945 C 0.49272 0.18225 0.65148 0.0
C946 C 0.52658 0.19704 0.81086 0.0
C947 C 0.49293 0.18337 0.57788 0.0
C948 C 0.5289 0.17125 0.09339 0.0
C949 C 0.52905 0.17231 0.01979 0.0
C950 C 0.49507 0.15742 0.86053 0.0
C951 C 0.51148 0.18736 0.68886 0.0
C952 C 0.51073 0.18257 0.76461 0.0
C953 C 0.51024 0.16708 0.98251 0.0
C954 C 0.51094 0.17189 0.90678 0.0
H955 H 0.5458 0.20107 0.55169 0.0
H956 H 0.54538 0.19905 0.67997 0.0
H957 H 0.48285 0.15111 0.75475 0.0
H958 H 0.47597 0.15318 0.11991 0.0
H959 H 0.4763 0.15515 -0.00837 0.0
C960 C 0.86774 0.36743 0.54587 0.0
C961 C 0.86351 0.34908 0.50787 0.0
C962 C 0.86575 0.36666 0.61882 0.0
C963 C 0.86203 0.33622 0.7756 0.0
H964 H 0.82744 0.35938 0.84597 0.0
C965 C 0.83868 0.3273 0.06212 0.0
C966 C 0.84547 0.34694 0.09579 0.0
C967 C 0.83691 0.32577 -0.01088 0.0
C968 C 0.83706 0.35286 0.82668 0.0
H969 H 0.85555 0.31607 0.51536 0.0
H970 H 0.85187 0.3147 0.64371 0.0
H971 H 0.83532 0.36126 0.71974 0.0
H972 H 0.85389 0.37987 0.0816 0.0
H973 H 0.85135 0.37732 0.95263 0.0
H974 H 0.86402 0.32805 0.88243 0.0
C975 C 0.85672 0.3296 0.61695 0.0
C976 C 0.84168 0.35405 0.75508 0.0
C977 C 0.85881 0.33039 0.54384 0.0
C978 C 0.84885 0.36465 0.05629 0.0
C979 C 0.84723 0.36314 0.98293 0.0
C980 C 0.85737 0.33499 0.84707 0.0
C981 C 0.85946 0.34753 0.65432 0.0
C982 C 0.85441 0.34596 0.72946 0.0
C983 C 0.84208 0.34389 0.94912 0.0
C984 C 0.84502 0.34346 0.87298 0.0
H985 H 0.87176 0.38214 0.51909 0.0
H986 H 0.86844 0.3808 0.64725 0.0
H987 H 0.87197 0.33002 0.75668 0.0
H988 H 0.83545 0.31328 0.09194 0.0
H989 H 0.83253 0.31071 0.9637 0.0
C990 C 0.33122 0.82775 0.42729 0.0
C991 C 0.34882 0.84303 0.46611 0.0
C992 C 0.33148 0.82841 0.35376 0.0
C993 C 0.35456 0.86826 0.21827 0.0
H994 H 0.33064 0.82021 0.08863 0.0
C995 C 0.35894 0.87459 0.91518 0.0
C996 C 0.34114 0.85928 0.87715 0.0
C997 C 0.35923 0.87372 -0.01136 0.0
C998 C 0.33708 0.8337 0.12459 0.0
H999 H 0.38129 0.86944 0.45962 0.0
H1000 H 0.38174 0.87043 0.33092 0.0
H1001 H 0.33444 0.81448 0.21374 0.0
H1002 H 0.30889 0.83257 0.88523 0.0
H1003 H 0.30937 0.83127 0.01386 0.0
H1004 H 0.35711 0.88747 0.12924 0.0
C1005 C 0.36762 0.85835 0.35734 0.0
C1006 C 0.33939 0.83043 0.19569 0.0
C1007 C 0.36735 0.85775 0.43072 0.0
C1008 C 0.32297 0.8443 0.91348 0.0
C1009 C 0.32324 0.8435 -0.01319 0.0
C1010 C 0.35224 0.87153 0.14719 0.0
C1011 C 0.34938 0.84429 0.31863 0.0
C1012 C 0.34814 0.84769 0.24289 0.0
C1013 C 0.34169 0.85763 0.02453 0.0
C1014 C 0.34341 0.85425 0.10004 0.0
H1015 H 0.3168 0.81613 0.45354 0.0
H1016 H 0.31722 0.81742 0.3247 0.0
H1017 H 0.36095 0.88175 0.25425 0.0
H1018 H 0.37311 0.88637 0.88823 0.0
H1019 H 0.37364 0.88478 0.01691 0.0
C1020 C 0.19235 0.52913 0.92494 0.0
C1021 C 0.17305 0.52092 0.88743 0.0
C1022 C 0.19238 0.52818 -0.00167 0.0
C1023 C 0.15856 0.49411 0.13687 0.0
H1024 H 0.20081 0.53702 0.26233 0.0
C1025 C 0.15546 0.48962 0.43953 0.0
C1026 C 0.17479 0.49798 0.477 0.0
C1027 C 0.1554 0.49057 0.36614 0.0
C1028 C 0.18916 0.52479 0.22755 0.0
H1029 H 0.13881 0.50692 0.89667 0.0
H1030 H 0.13888 0.50531 0.02595 0.0
H1031 H 0.19951 0.54554 0.13827 0.0
H1032 H 0.20905 0.51222 0.46766 0.0
H1033 H 0.20893 0.51379 0.3384 0.0
H1034 H 0.14823 0.47336 0.22612 0.0
C1035 C 0.15391 0.5122 -0.0018 0.0
C1036 C 0.18829 0.52973 0.15698 0.0
C1037 C 0.15389 0.51327 0.92453 0.0
C1038 C 0.19395 0.50576 0.43985 0.0
C1039 C 0.1939 0.5068 0.36618 0.0
C1040 C 0.15944 0.48916 0.20744 0.0
C1041 C 0.1731 0.51896 0.0353 0.0
C1042 C 0.17298 0.51443 0.11114 0.0
C1043 C 0.17468 0.49993 0.32912 0.0
C1044 C 0.17476 0.50446 0.25329 0.0
H1045 H 0.20738 0.53531 0.89745 0.0
H1046 H 0.20738 0.53343 0.0257 0.0
H1047 H 0.14692 0.48189 0.10207 0.0
H1048 H 0.14042 0.48333 0.46705 0.0
H1049 H 0.14038 0.48521 0.33883 0.0
C1050 C 0.51374 0.70178 0.43295 0.0
C1051 C 0.5093 0.68333 0.46999 0.0
C1052 C 0.51411 0.7017 0.35933 0.0
C1053 C 0.49972 0.66746 0.20192 0.0
H1054 H 0.55381 0.71211 0.13019 0.0
C1055 C 0.52461 0.66524 0.91873 0.0
C1056 C 0.52917 0.68373 0.88169 0.0
C1057 C 0.52422 0.66531 -0.00766 0.0
C1058 C 0.53867 0.6996 0.14975 0.0
H1059 H 0.49968 0.64986 0.46064 0.0
H1060 H 0.50043 0.6498 0.33226 0.0
H1061 H 0.54513 0.71238 0.2547 0.0
H1062 H 0.53899 0.71724 0.89106 0.0
H1063 H 0.53818 0.71729 0.01941 0.0
H1064 H 0.49326 0.65468 0.09698 0.0
C1065 C 0.50371 0.66428 0.35966 0.0
C1066 C 0.5336 0.69989 0.22039 0.0
C1067 C 0.50349 0.66439 0.43297 0.0
C1068 C 0.53508 0.70269 0.91872 0.0
C1069 C 0.53482 0.70279 -0.00797 0.0
C1070 C 0.50479 0.66717 0.13128 0.0
C1071 C 0.50981 0.68313 0.32257 0.0
C1072 C 0.5141 0.68382 0.2468 0.0
C1073 C 0.5286 0.68392 0.02911 0.0
C1074 C 0.52429 0.68324 0.10487 0.0
H1075 H 0.51811 0.71651 0.46066 0.0
H1076 H 0.5186 0.71633 0.33123 0.0
H1077 H 0.48459 0.65494 0.22151 0.0
H1078 H 0.52017 0.65049 0.89101 0.0
H1079 H 0.51964 0.65067 0.02043 0.0
loop_
_geom_bond_atom_site_label_1
_geom_bond_atom_site_label_2
_geom_bond_distance
_geom_bond_site_symmetry_2
_ccdc_geom_bond_type
Co0 N5 2.057 . S
Co0 O17 2.021 1_554 S
Co0 O20 2.062 1_654 S
Co0 O24 2.117 1_655 S
Co0 O25 2.020 . S
C1 O21 1.259 . S
C1 O24 1.258 . S
Co2 N11 2.057 1_554 S
Co2 O18 2.117 1_554 S
Co2 O19 2.020 1_554 S
Co2 O21 2.021 . S
Co2 O26 2.062 . S
C3 N5 1.324 . S
C3 N6 1.353 . S
C3 H8 0.918 1_554 S
C4 N5 1.375 . S
C4 C7 1.350 . S
C4 H9 0.930 . S
N5 Co0 2.057 . S
N5 C3 1.324 . S
N5 C4 1.375 . S
N6 C3 1.353 . S
N6 C7 1.373 . S
C7 C4 1.350 . S
C7 N6 1.373 . S
C7 H28 0.931 . S
H8 C3 0.918 1_556 S
H9 C4 0.930 . S
C10 O17 1.259 1_455 S
C10 O18 1.258 . S
N11 Co2 2.057 1_556 S
N11 C12 1.316 1_556 S
N11 C13 1.375 . S
C12 N11 1.316 1_554 S
C12 N14 1.347 1_554 S
C12 H23 0.931 . S
C13 N11 1.375 . S
C13 C15 1.350 . S
C13 H22 0.930 . S
N14 C12 1.347 1_556 S
N14 C15 1.373 . S
C15 C13 1.350 . S
C15 N14 1.373 . S
C15 H29 0.931 . S
C16 O19 1.256 . S
C16 O20 1.255 . S
O17 Co0 2.021 1_556 S
O17 C10 1.259 1_655 S
O18 Co2 2.117 1_556 S
O18 C10 1.258 . S
O19 Co2 2.020 1_556 S
O19 C16 1.256 . S
O20 Co0 2.062 1_456 S
O20 C16 1.255 . S
O21 C1 1.259 . S
O21 Co2 2.021 . S
H22 C13 0.930 . S
H23 C12 0.931 . S
O24 Co0 2.117 1_455 S
O24 C1 1.258 . S
O25 Co0 2.020 . S
O25 C27 1.256 . S
O26 Co2 2.062 . S
O26 C27 1.255 1_455 S
C27 O25 1.256 . S
C27 O26 1.255 1_655 S
H28 C7 0.931 . S
H29 C15 0.931 . S
Co30 N35 2.057 . S
Co30 O47 2.021 1_554 S
Co30 O50 2.062 1_554 S
Co30 O54 2.117 . S
Co30 O55 2.020 . S
C31 O51 1.259 . S
C31 O54 1.258 . S
Co32 N41 2.057 1_554 S
Co32 O48 2.117 1_554 S
Co32 O49 2.020 1_554 S
Co32 O51 2.021 . S
Co32 O56 2.062 . S
C33 N35 1.323 . S
C33 N36 1.353 . S
C33 H38 0.918 1_554 S
C34 N35 1.375 . S
C34 C37 1.350 . S
C34 H39 0.930 . S
N35 Co30 2.057 . S
N35 C33 1.323 . S
N35 C34 1.375 . S
N36 C33 1.353 . S
N36 C37 1.373 . S
C37 C34 1.350 . S
C37 N36 1.373 . S
C37 H58 0.931 . S
H38 C33 0.918 1_556 S
H39 C34 0.930 . S
C40 O47 1.259 . S
C40 O48 1.258 . S
N41 Co32 2.057 1_556 S
N41 C42 1.316 1_556 S
N41 C43 1.375 . S
C42 N41 1.316 1_554 S
C42 N44 1.347 1_554 S
C42 H53 0.931 . S
C43 N41 1.375 . S
C43 C45 1.350 . S
C43 H52 0.930 . S
N44 C42 1.347 1_556 S
N44 C45 1.373 . S
C45 C43 1.350 . S
C45 N44 1.373 . S
C45 H59 0.931 . S
C46 O49 1.256 . S
C46 O50 1.255 . S
O47 Co30 2.021 1_556 S
O47 C40 1.259 . S
O48 Co32 2.117 1_556 S
O48 C40 1.258 . S
O49 Co32 2.020 1_556 S
O49 C46 1.256 . S
O50 Co30 2.062 1_556 S
O50 C46 1.255 . S
O51 C31 1.259 . S
O51 Co32 2.021 . S
H52 C43 0.930 . S
H53 C42 0.931 . S
O54 Co30 2.117 . S
O54 C31 1.258 . S
O55 Co30 2.020 . S
O55 C57 1.256 . S
O56 Co32 2.062 . S
O56 C57 1.255 . S
C57 O55 1.256 . S
C57 O56 1.255 . S
H58 C37 0.931 . S
H59 C45 0.931 . S
Co60 N65 2.057 . S
Co60 O77 2.021 1_554 S
Co60 O80 2.062 1_554 S
Co60 O84 2.117 . S
Co60 O85 2.020 . S
C61 O81 1.259 1_545 S
C61 O84 1.258 . S
Co62 N71 2.057 1_554 S
Co62 O78 2.117 1_564 S
Co62 O79 2.020 1_554 S
Co62 O81 2.021 . S
Co62 O86 2.062 1_565 S
C63 N65 1.323 . S
C63 N66 1.353 . S
C63 H68 0.918 1_554 S
C64 N65 1.375 . S
C64 C67 1.350 . S
C64 H69 0.930 . S
N65 Co60 2.057 . S
N65 C63 1.323 . S
N65 C64 1.375 . S
N66 C63 1.353 . S
N66 C67 1.373 . S
C67 C64 1.350 . S
C67 N66 1.373 . S
C67 H88 0.931 . S
H68 C63 0.918 1_556 S
H69 C64 0.930 . S
C70 O77 1.259 . S
C70 O78 1.258 . S
N71 Co62 2.057 1_556 S
N71 C72 1.316 1_556 S
N71 C73 1.375 . S
C72 N71 1.316 1_554 S
C72 N74 1.347 1_554 S
C72 H83 0.931 . S
C73 N71 1.375 . S
C73 C75 1.350 . S
C73 H82 0.930 . S
N74 C72 1.347 1_556 S
N74 C75 1.373 . S
C75 C73 1.350 . S
C75 N74 1.373 . S
C75 H89 0.931 . S
C76 O79 1.256 . S
C76 O80 1.255 1_565 S
O77 Co60 2.021 1_556 S
O77 C70 1.259 . S
O78 Co62 2.117 1_546 S
O78 C70 1.258 . S
O79 Co62 2.020 1_556 S
O79 C76 1.256 . S
O80 Co60 2.062 1_556 S
O80 C76 1.255 1_545 S
O81 C61 1.259 1_565 S
O81 Co62 2.021 . S
H82 C73 0.930 . S
H83 C72 0.931 . S
O84 Co60 2.117 . S
O84 C61 1.258 . S
O85 Co60 2.020 . S
O85 C87 1.256 . S
O86 Co62 2.062 1_545 S
O86 C87 1.255 . S
C87 O85 1.256 . S
C87 O86 1.255 . S
H88 C67 0.931 . S
H89 C75 0.931 . S
Co90 N95 2.057 . S
Co90 O107 2.021 . S
Co90 O110 2.062 . S
Co90 O114 2.117 . S
Co90 O115 2.020 . S
C91 O111 1.259 . S
C91 O114 1.258 . S
Co92 N101 2.057 . S
Co92 O108 2.117 . S
Co92 O109 2.020 . S
Co92 O111 2.021 . S
Co92 O116 2.062 . S
C93 N95 1.316 . S
C93 N96 1.347 . S
C93 H98 0.931 . S
C94 N95 1.375 . S
C94 C97 1.350 . S
C94 H99 0.930 . S
N95 Co90 2.057 . S
N95 C93 1.316 . S
N95 C94 1.375 . S
N96 C93 1.347 . S
N96 C97 1.373 . S
C97 C94 1.350 . S
C97 N96 1.373 . S
C97 H118 0.931 . S
H98 C93 0.931 . S
H99 C94 0.930 . S
C100 O107 1.259 . S
C100 O108 1.258 . S
N101 Co92 2.057 . S
N101 C102 1.316 . S
N101 C103 1.375 . S
C102 N101 1.316 . S
C102 N104 1.347 . S
C102 H113 0.931 . S
C103 N101 1.375 . S
C103 C105 1.350 . S
C103 H112 0.930 . S
N104 C102 1.347 . S
N104 C105 1.373 . S
C105 C103 1.350 . S
C105 N104 1.373 . S
C105 H119 0.931 . S
C106 O109 1.256 . S
C106 O110 1.255 . S
O107 Co90 2.021 . S
O107 C100 1.259 . S
O108 Co92 2.117 . S
O108 C100 1.258 . S
O109 Co92 2.020 . S
O109 C106 1.256 . S
O110 Co90 2.062 . S
O110 C106 1.255 . S
O111 C91 1.259 . S
O111 Co92 2.021 . S
H112 C103 0.930 . S
H113 C102 0.931 . S
O114 Co90 2.117 . S
O114 C91 1.258 . S
O115 Co90 2.020 . S
O115 C117 1.256 . S
O116 Co92 2.062 . S
O116 C117 1.255 . S
C117 O115 1.256 . S
C117 O116 1.255 . S
H118 C97 0.931 . S
H119 C105 0.931 . S
Co120 N125 2.057 . S
Co120 O137 2.021 . S
Co120 O140 2.062 . S
Co120 O144 2.117 . S
Co120 O145 2.020 . S
C121 O141 1.259 . S
C121 O144 1.258 . S
Co122 N131 2.057 . S
Co122 O138 2.117 . S
Co122 O139 2.020 . S
Co122 O141 2.021 . S
Co122 O146 2.062 . S
C123 N125 1.316 . S
C123 N126 1.347 . S
C123 H128 0.931 . S
C124 N125 1.375 . S
C124 C127 1.350 . S
C124 H129 0.930 . S
N125 Co120 2.057 . S
N125 C123 1.316 . S
N125 C124 1.375 . S
N126 C123 1.347 . S
N126 C127 1.373 . S
C127 C124 1.350 . S
C127 N126 1.373 . S
C127 H148 0.931 . S
H128 C123 0.931 . S
H129 C124 0.930 . S
C130 O137 1.259 . S
C130 O138 1.258 . S
N131 Co122 2.057 . S
N131 C132 1.316 . S
N131 C133 1.375 . S
C132 N131 1.316 . S
C132 N134 1.347 . S
C132 H143 0.931 . S
C133 N131 1.375 . S
C133 C135 1.350 . S
C133 H142 0.930 . S
N134 C132 1.347 . S
N134 C135 1.373 . S
C135 C133 1.350 . S
C135 N134 1.373 . S
C135 H149 0.931 . S
C136 O139 1.256 . S
C136 O140 1.255 . S
O137 Co120 2.021 . S
O137 C130 1.259 . S
O138 Co122 2.117 . S
O138 C130 1.258 . S
O139 Co122 2.020 . S
O139 C136 1.256 . S
O140 Co120 2.062 . S
O140 C136 1.255 . S
O141 C121 1.259 . S
O141 Co122 2.021 . S
H142 C133 0.930 . S
H143 C132 0.931 . S
O144 Co120 2.117 . S
O144 C121 1.258 . S
O145 Co120 2.020 . S
O145 C147 1.256 . S
O146 Co122 2.062 . S
O146 C147 1.255 . S
C147 O145 1.256 . S
C147 O146 1.255 . S
H148 C127 0.931 . S
H149 C135 0.931 . S
Co150 N155 2.057 . S
Co150 O167 2.021 . S
Co150 O170 2.062 . S
Co150 O174 2.117 . S
Co150 O175 2.020 . S
C151 O171 1.259 . S
C151 O174 1.258 . S
Co152 N161 2.057 . S
Co152 O168 2.117 . S
Co152 O169 2.020 . S
Co152 O171 2.021 . S
Co152 O176 2.062 . S
C153 N155 1.316 . S
C153 N156 1.347 . S
C153 H158 0.931 . S
C154 N155 1.375 . S
C154 C157 1.350 . S
C154 H159 0.930 . S
N155 Co150 2.057 . S
N155 C153 1.316 . S
N155 C154 1.375 . S
N156 C153 1.347 . S
N156 C157 1.373 . S
C157 C154 1.350 . S
C157 N156 1.373 . S
C157 H178 0.931 . S
H158 C153 0.931 . S
H159 C154 0.930 . S
C160 O167 1.259 . S
C160 O168 1.258 . S
N161 Co152 2.057 . S
N161 C162 1.316 . S
N161 C163 1.375 . S
C162 N161 1.316 . S
C162 N164 1.347 . S
C162 H173 0.931 . S
C163 N161 1.375 . S
C163 C165 1.350 . S
C163 H172 0.930 . S
N164 C162 1.347 . S
N164 C165 1.373 . S
C165 C163 1.350 . S
C165 N164 1.373 . S
C165 H179 0.931 . S
C166 O169 1.256 . S
C166 O170 1.255 . S
O167 Co150 2.021 . S
O167 C160 1.259 . S
O168 Co152 2.117 . S
O168 C160 1.258 . S
O169 Co152 2.020 . S
O169 C166 1.256 . S
O170 Co150 2.062 . S
O170 C166 1.255 . S
O171 C151 1.259 . S
O171 Co152 2.021 . S
H172 C163 0.930 . S
H173 C162 0.931 . S
O174 Co150 2.117 . S
O174 C151 1.258 . S
O175 Co150 2.020 . S
O175 C177 1.256 . S
O176 Co152 2.062 . S
O176 C177 1.255 . S
C177 O175 1.256 . S
C177 O176 1.255 . S
H178 C157 0.931 . S
H179 C165 0.931 . S
Co180 N185 2.057 . S
Co180 O197 2.021 . S
Co180 O200 2.062 . S
Co180 O204 2.117 . S
Co180 O205 2.020 . S
C181 O201 1.259 . S
C181 O204 1.258 . S
Co182 N191 2.057 . S
Co182 O198 2.117 . S
Co182 O199 2.020 . S
Co182 O201 2.021 . S
Co182 O206 2.062 . S
C183 N185 1.316 . S
C183 N186 1.347 . S
C183 H188 0.931 . S
C184 N185 1.375 . S
C184 C187 1.350 . S
C184 H189 0.930 . S
N185 Co180 2.057 . S
N185 C183 1.316 . S
N185 C184 1.375 . S
N186 C183 1.347 . S
N186 C187 1.373 . S
C187 C184 1.350 . S
C187 N186 1.373 . S
C187 H208 0.931 . S
H188 C183 0.931 . S
H189 C184 0.930 . S
C190 O197 1.259 . S
C190 O198 1.258 . S
N191 Co182 2.057 . S
N191 C192 1.316 . S
N191 C193 1.375 . S
C192 N191 1.316 . S
C192 N194 1.347 . S
C192 H203 0.931 . S
C193 N191 1.375 . S
C193 C195 1.350 . S
C193 H202 0.930 . S
N194 C192 1.347 . S
N194 C195 1.373 . S
C195 C193 1.350 . S
C195 N194 1.373 . S
C195 H209 0.931 . S
C196 O199 1.256 . S
C196 O200 1.255 . S
O197 Co180 2.021 . S
O197 C190 1.259 . S
O198 Co182 2.117 . S
O198 C190 1.258 . S
O199 Co182 2.020 . S
O199 C196 1.256 . S
O200 Co180 2.062 . S
O200 C196 1.255 . S
O201 C181 1.259 . S
O201 Co182 2.021 . S
H202 C193 0.930 . S
H203 C192 0.931 . S
O204 Co180 2.117 . S
O204 C181 1.258 . S
O205 Co180 2.020 . S
O205 C207 1.256 . S
O206 Co182 2.062 . S
O206 C207 1.255 . S
C207 O205 1.256 . S
C207 O206 1.255 . S
H208 C187 0.931 . S
H209 C195 0.931 . S
Co210 N215 2.057 . S
Co210 O227 2.021 . S
Co210 O230 2.062 . S
Co210 O234 2.117 . S
Co210 O235 2.020 . S
C211 O231 1.259 . S
C211 O234 1.258 . S
Co212 N221 2.057 . S
Co212 O228 2.117 . S
Co212 O229 2.020 . S
Co212 O231 2.021 . S
Co212 O236 2.062 . S
C213 N215 1.316 . S
C213 N216 1.347 . S
C213 H218 0.931 . S
C214 N215 1.375 . S
C214 C217 1.350 . S
C214 H219 0.930 . S
N215 Co210 2.057 . S
N215 C213 1.316 . S
N215 C214 1.375 . S
N216 C213 1.347 . S
N216 C217 1.373 . S
C217 C214 1.350 . S
C217 N216 1.373 . S
C217 H238 0.931 . S
H218 C213 0.931 . S
H219 C214 0.930 . S
C220 O227 1.259 . S
C220 O228 1.258 . S
N221 Co212 2.057 . S
N221 C222 1.316 . S
N221 C223 1.375 . S
C222 N221 1.316 . S
C222 N224 1.347 . S
C222 H233 0.931 . S
C223 N221 1.375 . S
C223 C225 1.350 . S
C223 H232 0.930 . S
N224 C222 1.347 . S
N224 C225 1.373 . S
C225 C223 1.350 . S
C225 N224 1.373 . S
C225 H239 0.931 . S
C226 O229 1.256 . S
C226 O230 1.255 . S
O227 Co210 2.021 . S
O227 C220 1.259 . S
O228 Co212 2.117 . S
O228 C220 1.258 . S
O229 Co212 2.020 . S
O229 C226 1.256 . S
O230 Co210 2.062 . S
O230 C226 1.255 . S
O231 C211 1.259 . S
O231 Co212 2.021 . S
H232 C223 0.930 . S
H233 C222 0.931 . S
O234 Co210 2.117 . S
O234 C211 1.258 . S
O235 Co210 2.020 . S
O235 C237 1.256 . S
O236 Co212 2.062 . S
O236 C237 1.255 . S
C237 O235 1.256 . S
C237 O236 1.255 . S
H238 C217 0.931 . S
H239 C225 0.931 . S
Co240 N245 2.057 . S
Co240 O257 2.021 . S
Co240 O260 2.062 . S
Co240 O264 2.117 . S
Co240 O265 2.020 . S
C241 O261 1.259 . S
C241 O264 1.258 . S
Co242 N251 2.057 . S
Co242 O258 2.117 . S
Co242 O259 2.020 . S
Co242 O261 2.021 . S
Co242 O266 2.062 . S
C243 N245 1.316 . S
C243 N246 1.347 . S
C243 H248 0.931 . S
C244 N245 1.375 . S
C244 C247 1.350 . S
C244 H249 0.930 . S
N245 Co240 2.057 . S
N245 C243 1.316 . S
N245 C244 1.375 . S
N246 C243 1.347 . S
N246 C247 1.373 . S
C247 C244 1.350 . S
C247 N246 1.373 . S
C247 H268 0.931 . S
H248 C243 0.931 . S
H249 C244 0.930 . S
C250 O257 1.259 . S
C250 O258 1.258 . S
N251 Co242 2.057 . S
N251 C252 1.316 . S
N251 C253 1.375 . S
C252 N251 1.316 . S
C252 N254 1.347 . S
C252 H263 0.931 . S
C253 N251 1.375 . S
C253 C255 1.350 . S
C253 H262 0.930 . S
N254 C252 1.347 . S
N254 C255 1.373 . S
C255 C253 1.350 . S
C255 N254 1.373 . S
C255 H269 0.931 . S
C256 O259 1.256 . S
C256 O260 1.255 . S
O257 Co240 2.021 . S
O257 C250 1.259 . S
O258 Co242 2.117 . S
O258 C250 1.258 . S
O259 Co242 2.020 . S
O259 C256 1.256 . S
O260 Co240 2.062 . S
O260 C256 1.255 . S
O261 C241 1.259 . S
O261 Co242 2.021 . S
H262 C253 0.930 . S
H263 C252 0.931 . S
O264 Co240 2.117 . S
O264 C241 1.258 . S
O265 Co240 2.020 . S
O265 C267 1.256 . S
O266 Co242 2.062 . S
O266 C267 1.255 . S
C267 O265 1.256 . S
C267 O266 1.255 . S
H268 C247 0.931 . S
H269 C255 0.931 . S
C270 C271 1.349 . S
C270 C272 1.327 . S
C270 H295 0.950 . S
C271 C270 1.349 . S
C271 C287 1.349 1_556 S
C272 C270 1.327 . S
C272 C291 1.429 . S
C272 H296 0.950 . S
C273 C290 1.574 . S
C273 C292 1.368 . S
C273 H297 0.949 . S
H274 C278 0.949 . S
C275 C276 1.349 . S
C275 C277 1.327 . S
C275 H298 0.950 . S
C276 C275 1.349 . S
C276 C288 1.349 . S
C277 C275 1.327 . S
C277 C293 1.429 . S
C277 H299 0.950 . S
C278 H274 0.949 . S
C278 C286 1.574 . S
C278 C294 1.368 . S
H279 C287 0.950 . S
H280 C285 0.950 1_554 S
H281 C286 0.949 . S
H282 C288 0.950 . S
H283 C289 0.950 . S
H284 C290 0.949 . S
C285 H280 0.950 1_556 S
C285 C287 1.327 1_556 S
C285 C291 1.429 . S
C286 C278 1.574 . S
C286 H281 0.949 . S
C286 C292 1.368 . S
C287 C271 1.349 1_554 S
C287 H279 0.950 . S
C287 C285 1.327 1_554 S
C288 C276 1.349 . S
C288 H282 0.950 . S
C288 C289 1.327 . S
C289 H283 0.950 . S
C289 C288 1.327 . S
C289 C293 1.429 . S
C290 C273 1.574 . S
C290 H284 0.949 . S
C290 C294 1.368 . S
C291 C272 1.429 . S
C291 C285 1.429 . S
C291 C292 1.523 . S
C292 C273 1.368 . S
C292 C286 1.368 . S
C292 C291 1.523 . S
C293 C277 1.429 . S
C293 C289 1.429 . S
C293 C294 1.523 . S
C294 C278 1.368 . S
C294 C290 1.368 . S
C294 C293 1.523 . S
H295 C270 0.950 . S
H296 C272 0.950 . S
H297 C273 0.949 . S
H298 C275 0.950 . S
H299 C277 0.950 . S
C300 C301 1.349 . S
C300 C302 1.327 . S
C300 H325 0.950 . S
C301 C300 1.349 . S
C301 C317 1.349 1_556 S
C302 C300 1.327 . S
C302 C321 1.429 . S
C302 H326 0.950 . S
C303 C320 1.574 . S
C303 C322 1.368 . S
C303 H327 0.949 . S
H304 C308 0.949 . S
C305 C306 1.349 . S
C305 C307 1.327 . S
C305 H328 0.950 . S
C306 C305 1.349 . S
C306 C318 1.349 . S
C307 C305 1.327 . S
C307 C323 1.429 . S
C307 H329 0.950 . S
C308 H304 0.949 . S
C308 C316 1.574 . S
C308 C324 1.368 . S
H309 C317 0.950 . S
H310 C315 0.950 1_554 S
H311 C316 0.949 . S
H312 C318 0.950 . S
H313 C319 0.950 . S
H314 C320 0.949 . S
C315 H310 0.950 1_556 S
C315 C317 1.327 1_556 S
C315 C321 1.429 . S
C316 C308 1.574 . S
C316 H311 0.949 . S
C316 C322 1.368 . S
C317 C301 1.349 1_554 S
C317 H309 0.950 . S
C317 C315 1.327 1_554 S
C318 C306 1.349 . S
C318 H312 0.950 . S
C318 C319 1.327 . S
C319 H313 0.950 . S
C319 C318 1.327 . S
C319 C323 1.429 . S
C320 C303 1.574 . S
C320 H314 0.949 . S
C320 C324 1.368 . S
C321 C302 1.429 . S
C321 C315 1.429 . S
C321 C322 1.523 . S
C322 C303 1.368 . S
C322 C316 1.368 . S
C322 C321 1.523 . S
C323 C307 1.429 . S
C323 C319 1.429 . S
C323 C324 1.523 . S
C324 C308 1.368 . S
C324 C320 1.368 . S
C324 C323 1.523 . S
H325 C300 0.950 . S
H326 C302 0.950 . S
H327 C303 0.949 . S
H328 C305 0.950 . S
H329 C307 0.950 . S
C330 C331 1.349 . S
C330 C332 1.327 . S
C330 H355 0.950 . S
C331 C330 1.349 . S
C331 C347 1.349 . S
C332 C330 1.327 . S
C332 C351 1.429 . S
C332 H356 0.950 . S
C333 C350 1.574 . S
C333 C352 1.368 . S
C333 H357 0.949 . S
H334 C338 0.949 . S
C335 C336 1.349 . S
C335 C337 1.327 . S
C335 H358 0.950 . S
C336 C335 1.349 . S
C336 C348 1.349 . S
C337 C335 1.327 . S
C337 C353 1.429 . S
C337 H359 0.950 . S
C338 H334 0.949 . S
C338 C346 1.574 . S
C338 C354 1.368 . S
H339 C347 0.950 . S
H340 C345 0.950 . S
H341 C346 0.949 . S
H342 C348 0.950 . S
H343 C349 0.950 . S
H344 C350 0.949 . S
C345 H340 0.950 . S
C345 C347 1.327 . S
C345 C351 1.429 . S
C346 C338 1.574 . S
C346 H341 0.949 . S
C346 C352 1.368 . S
C347 C331 1.349 . S
C347 H339 0.950 . S
C347 C345 1.327 . S
C348 C336 1.349 . S
C348 H342 0.950 . S
C348 C349 1.327 . S
C349 H343 0.950 . S
C349 C348 1.327 . S
C349 C353 1.429 . S
C350 C333 1.574 . S
C350 H344 0.949 . S
C350 C354 1.368 . S
C351 C332 1.429 . S
C351 C345 1.429 . S
C351 C352 1.523 . S
C352 C333 1.368 . S
C352 C346 1.368 . S
C352 C351 1.523 . S
C353 C337 1.429 . S
C353 C349 1.429 . S
C353 C354 1.523 . S
C354 C338 1.368 . S
C354 C350 1.368 . S
C354 C353 1.523 . S
H355 C330 0.950 . S
H356 C332 0.950 . S
H357 C333 0.949 . S
H358 C335 0.950 . S
H359 C337 0.950 . S
C360 C361 1.349 . S
C360 C362 1.327 . S
C360 H385 0.950 . S
C361 C360 1.349 . S
C361 C377 1.349 . S
C362 C360 1.327 . S
C362 C381 1.429 . S
C362 H386 0.950 . S
C363 C380 1.574 . S
C363 C382 1.368 . S
C363 H387 0.949 . S
H364 C368 0.949 . S
C365 C366 1.355 . S
C365 C367 1.331 . S
C365 H388 0.939 1_554 S
C366 C365 1.355 . S
C366 C378 1.349 . S
C367 C365 1.331 . S
C367 C383 1.429 . S
C367 H389 0.950 1_554 S
C368 H364 0.949 . S
C368 C376 1.574 . S
C368 C384 1.368 . S
H369 C377 0.950 . S
H370 C375 0.950 . S
H371 C376 0.949 . S
H372 C378 0.950 . S
H373 C379 0.950 . S
H374 C380 0.949 . S
C375 H370 0.950 . S
C375 C377 1.327 . S
C375 C381 1.429 . S
C376 C368 1.574 . S
C376 H371 0.949 . S
C376 C382 1.368 . S
C377 C361 1.349 . S
C377 H369 0.950 . S
C377 C375 1.327 . S
C378 C366 1.349 . S
C378 H372 0.950 . S
C378 C379 1.327 . S
C379 H373 0.950 . S
C379 C378 1.327 . S
C379 C383 1.429 . S
C380 C363 1.574 . S
C380 H374 0.949 . S
C380 C384 1.368 . S
C381 C362 1.429 . S
C381 C375 1.429 . S
C381 C382 1.523 . S
C382 C363 1.368 . S
C382 C376 1.368 . S
C382 C381 1.523 . S
C383 C367 1.429 . S
C383 C379 1.429 . S
C383 C384 1.523 . S
C384 C368 1.368 . S
C384 C380 1.368 . S
C384 C383 1.523 . S
H385 C360 0.950 . S
H386 C362 0.950 . S
H387 C363 0.949 . S
H388 C365 0.939 1_556 S
H389 C367 0.950 1_556 S
C390 C391 1.349 . S
C390 C392 1.327 . S
C390 H415 0.950 . S
C391 C390 1.349 . S
C391 C407 1.349 . S
C392 C390 1.327 . S
C392 C411 1.429 . S
C392 H416 0.950 . S
C393 C410 1.574 . S
C393 C412 1.368 . S
C393 H417 0.949 . S
H394 C398 0.949 . S
C395 C396 1.349 . S
C395 C397 1.327 . S
C395 H418 0.950 . S
C396 C395 1.349 . S
C396 C408 1.349 . S
C397 C395 1.327 . S
C397 C413 1.429 . S
C397 H419 0.950 . S
C398 H394 0.949 . S
C398 C406 1.574 . S
C398 C414 1.368 . S
H399 C407 0.950 . S
H400 C405 0.950 . S
H401 C406 0.949 . S
H402 C408 0.950 1_556 S
H403 C409 0.950 . S
H404 C410 0.949 . S
C405 H400 0.950 . S
C405 C407 1.327 . S
C405 C411 1.429 . S
C406 C398 1.574 . S
C406 H401 0.949 . S
C406 C412 1.368 . S
C407 C391 1.349 . S
C407 H399 0.950 . S
C407 C405 1.327 . S
C408 C396 1.349 . S
C408 H402 0.950 1_554 S
C408 C409 1.327 . S
C409 H403 0.950 . S
C409 C408 1.327 . S
C409 C413 1.429 . S
C410 C393 1.574 . S
C410 H404 0.949 . S
C410 C414 1.368 . S
C411 C392 1.429 . S
C411 C405 1.429 . S
C411 C412 1.523 . S
C412 C393 1.368 . S
C412 C406 1.368 . S
C412 C411 1.523 . S
C413 C397 1.429 . S
C413 C409 1.429 . S
C413 C414 1.523 . S
C414 C398 1.368 . S
C414 C410 1.368 . S
C414 C413 1.523 . S
H415 C390 0.950 . S
H416 C392 0.950 . S
H417 C393 0.949 . S
H418 C395 0.950 . S
H419 C397 0.950 . S
C420 C421 1.349 . S
C420 C422 1.327 . S
C420 H445 0.950 . S
C421 C420 1.349 . S
C421 C437 1.349 . S
C422 C420 1.327 . S
C422 C441 1.429 . S
C422 H446 0.950 . S
C423 C440 1.574 . S
C423 C442 1.368 . S
C423 H447 0.949 . S
H424 C428 0.949 . S
C425 C426 1.349 . S
C425 C427 1.327 . S
C425 H448 0.950 . S
C426 C425 1.349 . S
C426 C438 1.349 . S
C427 C425 1.327 . S
C427 C443 1.429 . S
C427 H449 0.950 . S
C428 H424 0.949 . S
C428 C436 1.574 . S
C428 C444 1.368 . S
H429 C437 0.950 1_556 S
H430 C435 0.950 . S
H431 C436 0.949 . S
H432 C438 0.950 . S
H433 C439 0.950 . S
H434 C440 0.949 . S
C435 H430 0.950 . S
C435 C437 1.327 . S
C435 C441 1.429 . S
C436 C428 1.574 . S
C436 H431 0.949 . S
C436 C442 1.368 . S
C437 C421 1.349 . S
C437 H429 0.950 1_554 S
C437 C435 1.327 . S
C438 C426 1.349 . S
C438 H432 0.950 . S
C438 C439 1.327 . S
C439 H433 0.950 . S
C439 C438 1.327 . S
C439 C443 1.429 . S
C440 C423 1.574 . S
C440 H434 0.949 . S
C440 C444 1.368 . S
C441 C422 1.429 . S
C441 C435 1.429 . S
C441 C442 1.523 . S
C442 C423 1.368 . S
C442 C436 1.368 . S
C442 C441 1.523 . S
C443 C427 1.429 . S
C443 C439 1.429 . S
C443 C444 1.523 . S
C444 C428 1.368 . S
C444 C440 1.368 . S
C444 C443 1.523 . S
H445 C420 0.950 . S
H446 C422 0.950 . S
H447 C423 0.949 . S
H448 C425 0.950 . S
H449 C427 0.950 . S
C450 C451 1.349 . S
C450 C452 1.327 . S
C450 H475 0.950 . S
C451 C450 1.349 . S
C451 C467 1.349 . S
C452 C450 1.327 . S
C452 C471 1.429 . S
C452 H476 0.950 . S
C453 C470 1.574 . S
C453 C472 1.368 1_655 S
C453 H477 0.949 . S
H454 C458 0.949 . S
C455 C456 1.349 . S
C455 C457 1.327 . S
C455 H478 0.950 . S
C456 C455 1.349 . S
C456 C468 1.349 . S
C457 C455 1.327 . S
C457 C473 1.429 . S
C457 H479 0.950 . S
C458 H454 0.949 . S
C458 C466 1.574 1_655 S
C458 C474 1.368 . S
H459 C467 0.950 . S
H460 C465 0.950 . S
H461 C466 0.949 . S
H462 C468 0.950 . S
H463 C469 0.950 . S
H464 C470 0.949 . S
C465 H460 0.950 . S
C465 C467 1.327 . S
C465 C471 1.429 . S
C466 C458 1.574 1_455 S
C466 H461 0.949 . S
C466 C472 1.368 . S
C467 C451 1.349 . S
C467 H459 0.950 . S
C467 C465 1.327 . S
C468 C456 1.349 . S
C468 H462 0.950 . S
C468 C469 1.327 . S
C469 H463 0.950 . S
C469 C468 1.327 . S
C469 C473 1.429 . S
C470 C453 1.574 . S
C470 H464 0.949 . S
C470 C474 1.368 . S
C471 C452 1.429 . S
C471 C465 1.429 . S
C471 C472 1.523 . S
C472 C453 1.368 1_455 S
C472 C466 1.368 . S
C472 C471 1.523 . S
C473 C457 1.429 . S
C473 C469 1.429 . S
C473 C474 1.523 . S
C474 C458 1.368 . S
C474 C470 1.368 . S
C474 C473 1.523 . S
H475 C450 0.950 . S
H476 C452 0.950 . S
H477 C453 0.949 . S
H478 C455 0.950 . S
H479 C457 0.950 . S
C480 C481 1.349 . S
C480 C482 1.327 . S
C480 H505 0.950 . S
C481 C480 1.349 . S
C481 C497 1.349 . S
C482 C480 1.327 . S
C482 C501 1.429 . S
C482 H506 0.950 . S
C483 C500 1.574 . S
C483 C502 1.368 . S
C483 H507 0.949 . S
H484 C488 0.949 . S
C485 C486 1.349 . S
C485 C487 1.327 . S
C485 H508 0.950 . S
C486 C485 1.349 . S
C486 C498 1.349 . S
C487 C485 1.327 . S
C487 C503 1.429 . S
C487 H509 0.950 . S
C488 H484 0.949 . S
C488 C496 1.574 . S
C488 C504 1.368 . S
H489 C497 0.950 . S
H490 C495 0.950 . S
H491 C496 0.949 . S
H492 C498 0.950 . S
H493 C499 0.950 . S
H494 C500 0.949 . S
C495 H490 0.950 . S
C495 C497 1.327 . S
C495 C501 1.429 . S
C496 C488 1.574 . S
C496 H491 0.949 . S
C496 C502 1.368 . S
C497 C481 1.349 . S
C497 H489 0.950 . S
C497 C495 1.327 . S
C498 C486 1.349 . S
C498 H492 0.950 . S
C498 C499 1.327 . S
C499 H493 0.950 . S
C499 C498 1.327 . S
C499 C503 1.429 . S
C500 C483 1.574 . S
C500 H494 0.949 . S
C500 C504 1.368 . S
C501 C482 1.429 . S
C501 C495 1.429 . S
C501 C502 1.523 . S
C502 C483 1.368 . S
C502 C496 1.368 . S
C502 C501 1.523 . S
C503 C487 1.429 . S
C503 C499 1.429 . S
C503 C504 1.523 . S
C504 C488 1.368 . S
C504 C500 1.368 . S
C504 C503 1.523 . S
H505 C480 0.950 . S
H506 C482 0.950 . S
H507 C483 0.949 . S
H508 C485 0.950 . S
H509 C487 0.950 . S
C510 C511 1.349 . S
C510 C512 1.327 . S
C510 H535 0.950 . S
C511 C510 1.349 . S
C511 C527 1.349 . S
C512 C510 1.327 . S
C512 C531 1.429 . S
C512 H536 0.950 . S
C513 C530 1.574 . S
C513 C532 1.368 . S
C513 H537 0.949 . S
H514 C518 0.949 . S
C515 C516 1.349 . S
C515 C517 1.327 . S
C515 H538 0.950 . S
C516 C515 1.349 . S
C516 C528 1.349 . S
C517 C515 1.327 . S
C517 C533 1.429 . S
C517 H539 0.950 . S
C518 H514 0.949 . S
C518 C526 1.574 . S
C518 C534 1.368 . S
H519 C527 0.950 . S
H520 C525 0.950 . S
H521 C526 0.949 . S
H522 C528 0.950 . S
H523 C529 0.950 1_545 S
H524 C530 0.949 . S
C525 H520 0.950 . S
C525 C527 1.327 . S
C525 C531 1.429 . S
C526 C518 1.574 . S
C526 H521 0.949 . S
C526 C532 1.368 . S
C527 C511 1.349 . S
C527 H519 0.950 . S
C527 C525 1.327 . S
C528 C516 1.349 . S
C528 H522 0.950 . S
C528 C529 1.327 . S
C529 H523 0.950 1_565 S
C529 C528 1.327 . S
C529 C533 1.429 . S
C530 C513 1.574 . S
C530 H524 0.949 . S
C530 C534 1.368 . S
C531 C512 1.429 . S
C531 C525 1.429 . S
C531 C532 1.523 . S
C532 C513 1.368 . S
C532 C526 1.368 . S
C532 C531 1.523 . S
C533 C517 1.429 . S
C533 C529 1.429 . S
C533 C534 1.523 1_565 S
C534 C518 1.368 . S
C534 C530 1.368 . S
C534 C533 1.523 1_545 S
H535 C510 0.950 . S
H536 C512 0.950 . S
H537 C513 0.949 . S
H538 C515 0.950 . S
H539 C517 0.950 . S
C540 C541 1.349 . S
C540 C542 1.327 . S
C540 H565 0.950 . S
C541 C540 1.349 . S
C541 C557 1.349 1_554 S
C542 C540 1.327 . S
C542 C561 1.429 . S
C542 H566 0.950 . S
C543 C560 1.574 . S
C543 C562 1.368 1_556 S
C543 H567 0.949 . S
H544 C548 0.949 . S
C545 C546 1.349 . S
C545 C547 1.327 . S
C545 H568 0.950 . S
C546 C545 1.349 . S
C546 C558 1.349 1_556 S
C547 C545 1.327 . S
C547 C563 1.429 1_556 S
C547 H569 0.950 . S
C548 H544 0.949 . S
C548 C556 1.574 . S
C548 C564 1.368 . S
H549 C557 0.950 . S
H550 C555 0.950 . S
H551 C556 0.949 . S
H552 C558 0.950 . S
H553 C559 0.950 . S
H554 C560 0.949 . S
C555 H550 0.950 . S
C555 C557 1.327 . S
C555 C561 1.429 1_556 S
C556 C548 1.574 . S
C556 H551 0.949 . S
C556 C562 1.368 . S
C557 C541 1.349 1_556 S
C557 H549 0.950 . S
C557 C555 1.327 . S
C558 C546 1.349 1_554 S
C558 H552 0.950 . S
C558 C559 1.327 . S
C559 H553 0.950 . S
C559 C558 1.327 . S
C559 C563 1.429 . S
C560 C543 1.574 . S
C560 H554 0.949 . S
C560 C564 1.368 1_556 S
C561 C542 1.429 . S
C561 C555 1.429 1_554 S
C561 C562 1.523 . S
C562 C543 1.368 1_554 S
C562 C556 1.368 . S
C562 C561 1.523 . S
C563 C547 1.429 1_554 S
C563 C559 1.429 . S
C563 C564 1.523 . S
C564 C548 1.368 . S
C564 C560 1.368 1_554 S
C564 C563 1.523 . S
H565 C540 0.950 . S
H566 C542 0.950 . S
H567 C543 0.949 . S
H568 C545 0.950 . S
H569 C547 0.950 . S
C570 C571 1.349 . S
C570 C572 1.327 . S
C570 H595 0.950 . S
C571 C570 1.349 . S
C571 C587 1.349 1_556 S
C572 C570 1.327 . S
C572 C591 1.429 1_556 S
C572 H596 0.950 . S
C573 C590 1.574 1_565 S
C573 C592 1.368 . S
C573 H597 0.949 . S
H574 C578 0.949 . S
C575 C576 1.349 . S
C575 C577 1.327 . S
C575 H598 0.950 . S
C576 C575 1.349 . S
C576 C588 1.349 1_554 S
C577 C575 1.327 . S
C577 C593 1.429 . S
C577 H599 0.950 . S
C578 H574 0.949 . S
C578 C586 1.574 1_545 S
C578 C594 1.368 1_556 S
H579 C587 0.950 . S
H580 C585 0.950 . S
H581 C586 0.949 . S
H582 C588 0.950 . S
H583 C589 0.950 . S
H584 C590 0.949 . S
C585 H580 0.950 . S
C585 C587 1.327 . S
C585 C591 1.429 . S
C586 C578 1.574 1_565 S
C586 H581 0.949 . S
C586 C592 1.368 1_556 S
C587 C571 1.349 1_554 S
C587 H579 0.950 . S
C587 C585 1.327 . S
C588 C576 1.349 1_556 S
C588 H582 0.950 . S
C588 C589 1.327 . S
C589 H583 0.950 . S
C589 C588 1.327 . S
C589 C593 1.429 1_556 S
C590 C573 1.574 1_545 S
C590 H584 0.949 . S
C590 C594 1.368 . S
C591 C572 1.429 1_554 S
C591 C585 1.429 . S
C591 C592 1.523 . S
C592 C573 1.368 . S
C592 C586 1.368 1_554 S
C592 C591 1.523 . S
C593 C577 1.429 . S
C593 C589 1.429 1_554 S
C593 C594 1.523 . S
C594 C578 1.368 1_554 S
C594 C590 1.368 . S
C594 C593 1.523 . S
H595 C570 0.950 . S
H596 C572 0.950 . S
H597 C573 0.949 . S
H598 C575 0.950 . S
H599 C577 0.950 . S
C600 C601 1.349 . S
C600 C602 1.327 . S
C600 H625 0.950 . S
C601 C600 1.349 . S
C601 C617 1.349 1_554 S
C602 C600 1.327 . S
C602 C621 1.429 . S
C602 H626 0.950 . S
C603 C620 1.574 . S
C603 C622 1.368 1_556 S
C603 H627 0.949 . S
H604 C608 0.949 . S
C605 C606 1.349 . S
C605 C607 1.327 . S
C605 H628 0.950 . S
C606 C605 1.349 . S
C606 C618 1.349 1_556 S
C607 C605 1.327 . S
C607 C623 1.429 1_556 S
C607 H629 0.950 . S
C608 H604 0.949 . S
C608 C616 1.574 . S
C608 C624 1.368 . S
H609 C617 0.950 . S
H610 C615 0.950 . S
H611 C616 0.949 . S
H612 C618 0.950 . S
H613 C619 0.950 . S
H614 C620 0.949 . S
C615 H610 0.950 . S
C615 C617 1.327 . S
C615 C621 1.429 1_556 S
C616 C608 1.574 . S
C616 H611 0.949 . S
C616 C622 1.368 . S
C617 C601 1.349 1_556 S
C617 H609 0.950 . S
C617 C615 1.327 . S
C618 C606 1.349 1_554 S
C618 H612 0.950 . S
C618 C619 1.327 . S
C619 H613 0.950 . S
C619 C618 1.327 . S
C619 C623 1.429 . S
C620 C603 1.574 . S
C620 H614 0.949 . S
C620 C624 1.368 1_556 S
C621 C602 1.429 . S
C621 C615 1.429 1_554 S
C621 C622 1.523 1_655 S
C622 C603 1.368 1_554 S
C622 C616 1.368 . S
C622 C621 1.523 1_455 S
C623 C607 1.429 1_554 S
C623 C619 1.429 . S
C623 C624 1.523 . S
C624 C608 1.368 . S
C624 C620 1.368 1_554 S
C624 C623 1.523 . S
H625 C600 0.950 . S
H626 C602 0.950 . S
H627 C603 0.949 . S
H628 C605 0.950 . S
H629 C607 0.950 . S
C630 C631 1.349 . S
C630 C632 1.327 . S
C630 H655 0.950 . S
C631 C630 1.349 . S
C631 C647 1.349 . S
C632 C630 1.327 . S
C632 C651 1.429 . S
C632 H656 0.950 . S
C633 C650 1.574 . S
C633 C652 1.368 . S
C633 H657 0.949 . S
H634 C638 0.949 . S
C635 C636 1.349 . S
C635 C637 1.327 . S
C635 H658 0.950 . S
C636 C635 1.349 . S
C636 C648 1.349 . S
C637 C635 1.327 . S
C637 C653 1.429 . S
C637 H659 0.950 . S
C638 H634 0.949 . S
C638 C646 1.574 . S
C638 C654 1.368 . S
H639 C647 0.950 . S
H640 C645 0.950 . S
H641 C646 0.949 . S
H642 C648 0.950 . S
H643 C649 0.950 . S
H644 C650 0.949 . S
C645 H640 0.950 . S
C645 C647 1.327 . S
C645 C651 1.429 . S
C646 C638 1.574 . S
C646 H641 0.949 . S
C646 C652 1.368 . S
C647 C631 1.349 . S
C647 H639 0.950 . S
C647 C645 1.327 . S
C648 C636 1.349 . S
C648 H642 0.950 . S
C648 C649 1.327 . S
C649 H643 0.950 . S
C649 C648 1.327 . S
C649 C653 1.429 . S
C650 C633 1.574 . S
C650 H644 0.949 . S
C650 C654 1.368 . S
C651 C632 1.429 . S
C651 C645 1.429 . S
C651 C652 1.523 . S
C652 C633 1.368 . S
C652 C646 1.368 . S
C652 C651 1.523 . S
C653 C637 1.429 . S
C653 C649 1.429 . S
C653 C654 1.523 . S
C654 C638 1.368 . S
C654 C650 1.368 . S
C654 C653 1.523 . S
H655 C630 0.950 . S
H656 C632 0.950 . S
H657 C633 0.949 . S
H658 C635 0.950 . S
H659 C637 0.950 . S
C660 C661 1.349 . S
C660 C662 1.327 . S
C660 H685 0.950 . S
C661 C660 1.349 . S
C661 C677 1.349 . S
C662 C660 1.327 . S
C662 C681 1.429 . S
C662 H686 0.950 . S
C663 C680 1.574 . S
C663 C682 1.368 . S
C663 H687 0.949 . S
H664 C668 0.949 . S
C665 C666 1.349 . S
C665 C667 1.327 . S
C665 H688 0.950 . S
C666 C665 1.349 . S
C666 C678 1.349 . S
C667 C665 1.327 . S
C667 C683 1.429 . S
C667 H689 0.950 . S
C668 H664 0.949 . S
C668 C676 1.574 . S
C668 C684 1.368 . S
H669 C677 0.950 . S
H670 C675 0.950 . S
H671 C676 0.949 . S
H672 C678 0.950 . S
H673 C679 0.950 . S
H674 C680 0.949 . S
C675 H670 0.950 . S
C675 C677 1.327 . S
C675 C681 1.429 . S
C676 C668 1.574 . S
C676 H671 0.949 . S
C676 C682 1.368 . S
C677 C661 1.349 . S
C677 H669 0.950 . S
C677 C675 1.327 . S
C678 C666 1.349 . S
C678 H672 0.950 . S
C678 C679 1.327 . S
C679 H673 0.950 . S
C679 C678 1.327 . S
C679 C683 1.429 . S
C680 C663 1.574 . S
C680 H674 0.949 . S
C680 C684 1.368 . S
C681 C662 1.429 . S
C681 C675 1.429 . S
C681 C682 1.523 . S
C682 C663 1.368 . S
C682 C676 1.368 . S
C682 C681 1.523 . S
C683 C667 1.429 . S
C683 C679 1.429 . S
C683 C684 1.523 . S
C684 C668 1.368 . S
C684 C680 1.368 . S
C684 C683 1.523 . S
H685 C660 0.950 . S
H686 C662 0.950 . S
H687 C663 0.949 . S
H688 C665 0.950 . S
H689 C667 0.950 . S
C690 C691 1.349 . S
C690 C692 1.327 . S
C690 H715 0.950 . S
C691 C690 1.349 . S
C691 C707 1.349 . S
C692 C690 1.327 . S
C692 C711 1.429 . S
C692 H716 0.950 . S
C693 C710 1.574 . S
C693 C712 1.368 . S
C693 H717 0.949 . S
H694 C698 0.949 . S
C695 C696 1.349 . S
C695 C697 1.327 . S
C695 H718 0.950 . S
C696 C695 1.349 . S
C696 C708 1.349 . S
C697 C695 1.327 . S
C697 C713 1.429 . S
C697 H719 0.950 . S
C698 H694 0.949 . S
C698 C706 1.574 . S
C698 C714 1.368 . S
H699 C707 0.950 . S
H700 C705 0.950 . S
H701 C706 0.949 . S
H702 C708 0.950 . S
H703 C709 0.950 . S
H704 C710 0.949 . S
C705 H700 0.950 . S
C705 C707 1.327 . S
C705 C711 1.429 . S
C706 C698 1.574 . S
C706 H701 0.949 . S
C706 C712 1.368 . S
C707 C691 1.349 . S
C707 H699 0.950 . S
C707 C705 1.327 . S
C708 C696 1.349 . S
C708 H702 0.950 . S
C708 C709 1.327 . S
C709 H703 0.950 . S
C709 C708 1.327 . S
C709 C713 1.429 . S
C710 C693 1.574 . S
C710 H704 0.949 . S
C710 C714 1.368 . S
C711 C692 1.429 . S
C711 C705 1.429 . S
C711 C712 1.523 . S
C712 C693 1.368 . S
C712 C706 1.368 . S
C712 C711 1.523 . S
C713 C697 1.429 . S
C713 C709 1.429 . S
C713 C714 1.523 . S
C714 C698 1.368 . S
C714 C710 1.368 . S
C714 C713 1.523 . S
H715 C690 0.950 . S
H716 C692 0.950 . S
H717 C693 0.949 . S
H718 C695 0.950 . S
H719 C697 0.950 . S
C720 C721 1.349 . S
C720 C722 1.327 . S
C720 H745 0.950 . S
C721 C720 1.349 . S
C721 C737 1.349 . S
C722 C720 1.327 . S
C722 C741 1.429 . S
C722 H746 0.950 . S
C723 C740 1.574 . S
C723 C742 1.368 . S
C723 H747 0.949 . S
H724 C728 0.949 . S
C725 C726 1.349 . S
C725 C727 1.327 . S
C725 H748 0.950 . S
C726 C725 1.349 . S
C726 C738 1.349 . S
C727 C725 1.327 . S
C727 C743 1.429 . S
C727 H749 0.950 . S
C728 H724 0.949 . S
C728 C736 1.574 . S
C728 C744 1.368 . S
H729 C737 0.950 . S
H730 C735 0.950 . S
H731 C736 0.949 . S
H732 C738 0.950 . S
H733 C739 0.950 . S
H734 C740 0.949 . S
C735 H730 0.950 . S
C735 C737 1.327 . S
C735 C741 1.429 . S
C736 C728 1.574 . S
C736 H731 0.949 . S
C736 C742 1.368 . S
C737 C721 1.349 . S
C737 H729 0.950 . S
C737 C735 1.327 . S
C738 C726 1.349 . S
C738 H732 0.950 . S
C738 C739 1.327 . S
C739 H733 0.950 . S
C739 C738 1.327 . S
C739 C743 1.429 . S
C740 C723 1.574 . S
C740 H734 0.949 . S
C740 C744 1.368 . S
C741 C722 1.429 . S
C741 C735 1.429 . S
C741 C742 1.523 . S
C742 C723 1.368 . S
C742 C736 1.368 . S
C742 C741 1.523 . S
C743 C727 1.429 . S
C743 C739 1.429 . S
C743 C744 1.523 . S
C744 C728 1.368 . S
C744 C740 1.368 . S
C744 C743 1.523 . S
H745 C720 0.950 . S
H746 C722 0.950 . S
H747 C723 0.949 . S
H748 C725 0.950 . S
H749 C727 0.950 . S
C750 C751 1.349 . S
C750 C752 1.327 . S
C750 H775 0.950 . S
C751 C750 1.349 . S
C751 C767 1.349 . S
C752 C750 1.327 . S
C752 C771 1.429 . S
C752 H776 0.950 . S
C753 C770 1.574 . S
C753 C772 1.368 . S
C753 H777 0.949 . S
H754 C758 0.949 . S
C755 C756 1.349 . S
C755 C757 1.327 . S
C755 H778 0.950 . S
C756 C755 1.349 . S
C756 C768 1.349 . S
C757 C755 1.327 . S
C757 C773 1.429 . S
C757 H779 0.950 . S
C758 H754 0.949 . S
C758 C766 1.574 . S
C758 C774 1.368 . S
H759 C767 0.950 . S
H760 C765 0.950 . S
H761 C766 0.949 . S
H762 C768 0.950 . S
H763 C769 0.950 . S
H764 C770 0.949 . S
C765 H760 0.950 . S
C765 C767 1.327 . S
C765 C771 1.429 . S
C766 C758 1.574 . S
C766 H761 0.949 . S
C766 C772 1.368 . S
C767 C751 1.349 . S
C767 H759 0.950 . S
C767 C765 1.327 . S
C768 C756 1.349 . S
C768 H762 0.950 . S
C768 C769 1.327 . S
C769 H763 0.950 . S
C769 C768 1.327 . S
C769 C773 1.429 . S
C770 C753 1.574 . S
C770 H764 0.949 . S
C770 C774 1.368 . S
C771 C752 1.429 . S
C771 C765 1.429 . S
C771 C772 1.523 . S
C772 C753 1.368 . S
C772 C766 1.368 . S
C772 C771 1.523 . S
C773 C757 1.429 . S
C773 C769 1.429 . S
C773 C774 1.523 . S
C774 C758 1.368 . S
C774 C770 1.368 . S
C774 C773 1.523 . S
H775 C750 0.950 . S
H776 C752 0.950 . S
H777 C753 0.949 . S
H778 C755 0.950 . S
H779 C757 0.950 . S
C780 C781 1.349 . S
C780 C782 1.327 . S
C780 H805 0.950 . S
C781 C780 1.349 . S
C781 C797 1.349 . S
C782 C780 1.327 . S
C782 C801 1.429 . S
C782 H806 0.950 . S
C783 C800 1.574 . S
C783 C802 1.368 . S
C783 H807 0.949 . S
H784 C788 0.949 . S
C785 C786 1.349 . S
C785 C787 1.327 . S
C785 H808 0.950 . S
C786 C785 1.349 . S
C786 C798 1.349 . S
C787 C785 1.327 . S
C787 C803 1.429 . S
C787 H809 0.950 . S
C788 H784 0.949 . S
C788 C796 1.574 . S
C788 C804 1.368 . S
H789 C797 0.950 . S
H790 C795 0.950 . S
H791 C796 0.949 . S
H792 C798 0.950 . S
H793 C799 0.950 . S
H794 C800 0.949 . S
C795 H790 0.950 . S
C795 C797 1.327 . S
C795 C801 1.429 . S
C796 C788 1.574 . S
C796 H791 0.949 . S
C796 C802 1.368 . S
C797 C781 1.349 . S
C797 H789 0.950 . S
C797 C795 1.327 . S
C798 C786 1.349 . S
C798 H792 0.950 . S
C798 C799 1.327 . S
C799 H793 0.950 . S
C799 C798 1.327 . S
C799 C803 1.429 . S
C800 C783 1.574 . S
C800 H794 0.949 . S
C800 C804 1.368 . S
C801 C782 1.429 . S
C801 C795 1.429 . S
C801 C802 1.523 . S
C802 C783 1.368 . S
C802 C796 1.368 . S
C802 C801 1.523 . S
C803 C787 1.429 . S
C803 C799 1.429 . S
C803 C804 1.523 . S
C804 C788 1.368 . S
C804 C800 1.368 . S
C804 C803 1.523 . S
H805 C780 0.950 . S
H806 C782 0.950 . S
H807 C783 0.949 . S
H808 C785 0.950 . S
H809 C787 0.950 . S
C810 C811 1.349 . S
C810 C812 1.327 . S
C810 H835 0.950 . S
C811 C810 1.349 . S
C811 C827 1.349 1_455 S
C812 C810 1.327 . S
C812 C831 1.429 . S
C812 H836 0.950 . S
C813 C830 1.574 . S
C813 C832 1.368 1_655 S
C813 H837 0.949 . S
H814 C818 0.949 . S
C815 C816 1.348 1_655 S
C815 C817 1.327 . S
C815 H838 0.950 . S
C816 C815 1.348 1_455 S
C816 C828 1.349 . S
C817 C815 1.327 . S
C817 C833 1.429 1_655 S
C817 H839 0.950 . S
C818 H814 0.949 . S
C818 C826 1.574 . S
C818 C834 1.368 . S
H819 C827 0.950 . S
H820 C825 0.950 . S
H821 C826 0.949 . S
H822 C828 0.950 . S
H823 C829 0.950 . S
H824 C830 0.949 . S
C825 H820 0.950 . S
C825 C827 1.327 . S
C825 C831 1.429 1_655 S
C826 C818 1.574 . S
C826 H821 0.949 . S
C826 C832 1.368 . S
C827 C811 1.349 1_655 S
C827 H819 0.950 . S
C827 C825 1.327 . S
C828 C816 1.349 . S
C828 H822 0.950 . S
C828 C829 1.327 . S
C829 H823 0.950 . S
C829 C828 1.327 . S
C829 C833 1.429 . S
C830 C813 1.574 . S
C830 H824 0.949 . S
C830 C834 1.368 1_655 S
C831 C812 1.429 . S
C831 C825 1.429 1_455 S
C831 C832 1.523 . S
C832 C813 1.368 1_455 S
C832 C826 1.368 . S
C832 C831 1.523 . S
C833 C817 1.429 1_455 S
C833 C829 1.429 . S
C833 C834 1.523 . S
C834 C818 1.368 . S
C834 C830 1.368 1_455 S
C834 C833 1.523 . S
H835 C810 0.950 . S
H836 C812 0.950 . S
H837 C813 0.949 . S
H838 C815 0.950 . S
H839 C817 0.950 . S
C840 C841 1.349 . S
C840 C842 1.327 . S
C840 H865 0.950 . S
C841 C840 1.349 . S
C841 C857 1.349 . S
C842 C840 1.327 . S
C842 C861 1.429 . S
C842 H866 0.950 . S
C843 C860 1.574 . S
C843 C862 1.368 . S
C843 H867 0.949 . S
H844 C848 0.949 . S
C845 C846 1.349 . S
C845 C847 1.327 . S
C845 H868 0.950 . S
C846 C845 1.349 . S
C846 C858 1.349 . S
C847 C845 1.327 . S
C847 C863 1.429 . S
C847 H869 0.950 . S
C848 H844 0.949 . S
C848 C856 1.574 . S
C848 C864 1.368 . S
H849 C857 0.950 . S
H850 C855 0.950 . S
H851 C856 0.949 . S
H852 C858 0.950 . S
H853 C859 0.950 . S
H854 C860 0.949 . S
C855 H850 0.950 . S
C855 C857 1.327 . S
C855 C861 1.429 . S
C856 C848 1.574 . S
C856 H851 0.949 . S
C856 C862 1.368 . S
C857 C841 1.349 . S
C857 H849 0.950 . S
C857 C855 1.327 . S
C858 C846 1.349 . S
C858 H852 0.950 . S
C858 C859 1.327 . S
C859 H853 0.950 . S
C859 C858 1.327 . S
C859 C863 1.429 . S
C860 C843 1.574 . S
C860 H854 0.949 . S
C860 C864 1.368 . S
C861 C842 1.429 . S
C861 C855 1.429 . S
C861 C862 1.523 . S
C862 C843 1.368 . S
C862 C856 1.368 . S
C862 C861 1.523 . S
C863 C847 1.429 . S
C863 C859 1.429 . S
C863 C864 1.523 . S
C864 C848 1.368 . S
C864 C860 1.368 . S
C864 C863 1.523 . S
H865 C840 0.950 . S
H866 C842 0.950 . S
H867 C843 0.949 . S
H868 C845 0.950 . S
H869 C847 0.950 . S
C870 C871 1.349 . S
C870 C872 1.327 . S
C870 H895 0.950 . S
C871 C870 1.349 . S
C871 C887 1.349 . S
C872 C870 1.327 . S
C872 C891 1.429 . S
C872 H896 0.950 . S
C873 C890 1.574 . S
C873 C892 1.368 1_565 S
C873 H897 0.949 . S
H874 C878 0.949 . S
C875 C876 1.349 1_565 S
C875 C877 1.327 . S
C875 H898 0.950 . S
C876 C875 1.349 1_545 S
C876 C888 1.349 . S
C877 C875 1.327 . S
C877 C893 1.429 1_565 S
C877 H899 0.950 . S
C878 H874 0.949 . S
C878 C886 1.574 . S
C878 C894 1.368 . S
H879 C887 0.950 1_565 S
H880 C885 0.950 1_565 S
H881 C886 0.949 . S
H882 C888 0.950 . S
H883 C889 0.950 . S
H884 C890 0.949 . S
C885 H880 0.950 1_545 S
C885 C887 1.327 . S
C885 C891 1.429 . S
C886 C878 1.574 . S
C886 H881 0.949 . S
C886 C892 1.368 . S
C887 C871 1.349 . S
C887 H879 0.950 1_545 S
C887 C885 1.327 . S
C888 C876 1.349 . S
C888 H882 0.950 . S
C888 C889 1.327 . S
C889 H883 0.950 . S
C889 C888 1.327 . S
C889 C893 1.429 . S
C890 C873 1.574 . S
C890 H884 0.949 . S
C890 C894 1.368 1_565 S
C891 C872 1.429 . S
C891 C885 1.429 . S
C891 C892 1.523 . S
C892 C873 1.368 1_545 S
C892 C886 1.368 . S
C892 C891 1.523 . S
C893 C877 1.429 1_545 S
C893 C889 1.429 . S
C893 C894 1.523 . S
C894 C878 1.368 . S
C894 C890 1.368 1_545 S
C894 C893 1.523 . S
H895 C870 0.950 . S
H896 C872 0.950 . S
H897 C873 0.949 . S
H898 C875 0.950 . S
H899 C877 0.950 . S
C900 C901 1.349 . S
C900 C902 1.327 . S
C900 H925 0.950 . S
C901 C900 1.349 . S
C901 C917 1.349 . S
C902 C900 1.327 . S
C902 C921 1.429 . S
C902 H926 0.950 . S
C903 C920 1.574 . S
C903 C922 1.368 . S
C903 H927 0.949 . S
H904 C908 0.949 . S
C905 C906 1.349 . S
C905 C907 1.327 . S
C905 H928 0.950 . S
C906 C905 1.349 . S
C906 C918 1.349 . S
C907 C905 1.327 . S
C907 C923 1.429 1_554 S
C907 H929 0.950 . S
C908 H904 0.949 . S
C908 C916 1.574 . S
C908 C924 1.368 . S
H909 C917 0.950 . S
H910 C915 0.950 . S
H911 C916 0.949 . S
H912 C918 0.950 . S
H913 C919 0.950 . S
H914 C920 0.949 . S
C915 H910 0.950 . S
C915 C917 1.327 . S
C915 C921 1.429 . S
C916 C908 1.574 . S
C916 H911 0.949 . S
C916 C922 1.368 . S
C917 C901 1.349 . S
C917 H909 0.950 . S
C917 C915 1.327 . S
C918 C906 1.349 . S
C918 H912 0.950 . S
C918 C919 1.327 . S
C919 H913 0.950 . S
C919 C918 1.327 . S
C919 C923 1.429 1_554 S
C920 C903 1.574 . S
C920 H914 0.949 . S
C920 C924 1.368 . S
C921 C902 1.429 . S
C921 C915 1.429 . S
C921 C922 1.523 . S
C922 C903 1.368 . S
C922 C916 1.368 . S
C922 C921 1.523 . S
C923 C907 1.429 1_556 S
C923 C919 1.429 1_556 S
C923 C924 1.523 . S
C924 C908 1.368 . S
C924 C920 1.368 . S
C924 C923 1.523 . S
H925 C900 0.950 . S
H926 C902 0.950 . S
H927 C903 0.949 . S
H928 C905 0.950 . S
H929 C907 0.950 . S
C930 C931 1.349 . S
C930 C932 1.327 . S
C930 H955 0.950 . S
C931 C930 1.349 . S
C931 C947 1.349 . S
C932 C930 1.327 . S
C932 C951 1.429 . S
C932 H956 0.950 . S
C933 C950 1.574 . S
C933 C952 1.368 . S
C933 H957 0.949 . S
H934 C938 0.949 . S
C935 C936 1.349 . S
C935 C937 1.327 . S
C935 H958 0.950 . S
C936 C935 1.349 . S
C936 C948 1.349 . S
C937 C935 1.327 . S
C937 C953 1.429 1_554 S
C937 H959 0.950 . S
C938 H934 0.949 . S
C938 C946 1.574 . S
C938 C954 1.368 . S
H939 C947 0.950 . S
H940 C945 0.950 . S
H941 C946 0.949 . S
H942 C948 0.950 . S
H943 C949 0.950 . S
H944 C950 0.949 . S
C945 H940 0.950 . S
C945 C947 1.327 . S
C945 C951 1.429 . S
C946 C938 1.574 . S
C946 H941 0.949 . S
C946 C952 1.368 . S
C947 C931 1.349 . S
C947 H939 0.950 . S
C947 C945 1.327 . S
C948 C936 1.349 . S
C948 H942 0.950 . S
C948 C949 1.327 . S
C949 H943 0.950 . S
C949 C948 1.327 . S
C949 C953 1.429 1_554 S
C950 C933 1.574 . S
C950 H944 0.949 . S
C950 C954 1.368 . S
C951 C932 1.429 . S
C951 C945 1.429 . S
C951 C952 1.523 . S
C952 C933 1.368 . S
C952 C946 1.368 . S
C952 C951 1.523 . S
C953 C937 1.429 1_556 S
C953 C949 1.429 1_556 S
C953 C954 1.523 . S
C954 C938 1.368 . S
C954 C950 1.368 . S
C954 C953 1.523 . S
H955 C930 0.950 . S
H956 C932 0.950 . S
H957 C933 0.949 . S
H958 C935 0.950 . S
H959 C937 0.950 . S
C960 C961 1.349 . S
C960 C962 1.327 . S
C960 H985 0.950 . S
C961 C960 1.349 . S
C961 C977 1.349 . S
C962 C960 1.327 . S
C962 C981 1.429 . S
C962 H986 0.950 . S
C963 C980 1.574 . S
C963 C982 1.368 . S
C963 H987 0.949 . S
H964 C968 0.949 . S
C965 C966 1.349 . S
C965 C967 1.327 . S
C965 H988 0.950 . S
C966 C965 1.349 . S
C966 C978 1.349 . S
C967 C965 1.327 . S
C967 C983 1.429 1_554 S
C967 H989 0.950 . S
C968 H964 0.949 . S
C968 C976 1.574 . S
C968 C984 1.368 . S
H969 C977 0.950 . S
H970 C975 0.950 . S
H971 C976 0.949 . S
H972 C978 0.950 . S
H973 C979 0.950 . S
H974 C980 0.949 . S
C975 H970 0.950 . S
C975 C977 1.327 . S
C975 C981 1.429 . S
C976 C968 1.574 . S
C976 H971 0.949 . S
C976 C982 1.368 . S
C977 C961 1.349 . S
C977 H969 0.950 . S
C977 C975 1.327 . S
C978 C966 1.349 . S
C978 H972 0.950 . S
C978 C979 1.327 . S
C979 H973 0.950 . S
C979 C978 1.327 . S
C979 C983 1.429 1_554 S
C980 C963 1.574 . S
C980 H974 0.949 . S
C980 C984 1.368 . S
C981 C962 1.429 . S
C981 C975 1.429 . S
C981 C982 1.523 . S
C982 C963 1.368 . S
C982 C976 1.368 . S
C982 C981 1.523 . S
C983 C967 1.429 1_556 S
C983 C979 1.429 1_556 S
C983 C984 1.523 . S
C984 C968 1.368 . S
C984 C980 1.368 . S
C984 C983 1.523 . S
H985 C960 0.950 . S
H986 C962 0.950 . S
H987 C963 0.949 . S
H988 C965 0.950 . S
H989 C967 0.950 . S
C990 C991 1.349 . S
C990 C992 1.327 . S
C990 H1015 0.950 . S
C991 C990 1.349 . S
C991 C1007 1.349 . S
C992 C990 1.327 . S
C992 C1011 1.429 . S
C992 H1016 0.950 . S
C993 C1010 1.574 . S
C993 C1012 1.368 . S
C993 H1017 0.949 . S
H994 C998 0.949 . S
C995 C996 1.349 . S
C995 C997 1.327 . S
C995 H1018 0.950 . S
C996 C995 1.349 . S
C996 C1008 1.349 . S
C997 C995 1.327 . S
C997 C1013 1.429 1_556 S
C997 H1019 0.950 1_556 S
C998 H994 0.949 . S
C998 C1006 1.574 . S
C998 C1014 1.368 . S
H999 C1007 0.950 . S
H1000 C1005 0.950 . S
H1001 C1006 0.949 . S
H1002 C1008 0.950 . S
H1003 C1009 0.950 . S
H1004 C1010 0.949 . S
C1005 H1000 0.950 . S
C1005 C1007 1.327 . S
C1005 C1011 1.429 . S
C1006 C998 1.574 . S
C1006 H1001 0.949 . S
C1006 C1012 1.368 . S
C1007 C991 1.349 . S
C1007 H999 0.950 . S
C1007 C1005 1.327 . S
C1008 C996 1.349 . S
C1008 H1002 0.950 . S
C1008 C1009 1.327 . S
C1009 H1003 0.950 . S
C1009 C1008 1.327 . S
C1009 C1013 1.429 1_556 S
C1010 C993 1.574 . S
C1010 H1004 0.949 . S
C1010 C1014 1.368 . S
C1011 C992 1.429 . S
C1011 C1005 1.429 . S
C1011 C1012 1.523 . S
C1012 C993 1.368 . S
C1012 C1006 1.368 . S
C1012 C1011 1.523 . S
C1013 C997 1.429 1_554 S
C1013 C1009 1.429 1_554 S
C1013 C1014 1.523 . S
C1014 C998 1.368 . S
C1014 C1010 1.368 . S
C1014 C1013 1.523 . S
H1015 C990 0.950 . S
H1016 C992 0.950 . S
H1017 C993 0.949 . S
H1018 C995 0.950 . S
H1019 C997 0.950 1_554 S
C1020 C1021 1.349 . S
C1020 C1022 1.327 . S
C1020 H1045 0.950 . S
C1021 C1020 1.349 . S
C1021 C1037 1.349 . S
C1022 C1020 1.327 . S
C1022 C1041 1.429 1_556 S
C1022 H1046 0.950 1_556 S
C1023 C1040 1.574 . S
C1023 C1042 1.368 . S
C1023 H1047 0.949 . S
H1024 C1028 0.949 . S
C1025 C1026 1.349 . S
C1025 C1027 1.327 . S
C1025 H1048 0.950 . S
C1026 C1025 1.349 . S
C1026 C1038 1.349 . S
C1027 C1025 1.327 . S
C1027 C1043 1.429 . S
C1027 H1049 0.950 . S
C1028 H1024 0.949 . S
C1028 C1036 1.574 . S
C1028 C1044 1.368 . S
H1029 C1037 0.950 . S
H1030 C1035 0.950 . S
H1031 C1036 0.949 . S
H1032 C1038 0.950 . S
H1033 C1039 0.950 . S
H1034 C1040 0.949 . S
C1035 H1030 0.950 . S
C1035 C1037 1.327 . S
C1035 C1041 1.429 1_556 S
C1036 C1028 1.574 . S
C1036 H1031 0.949 . S
C1036 C1042 1.368 . S
C1037 C1021 1.349 . S
C1037 H1029 0.950 . S
C1037 C1035 1.327 . S
C1038 C1026 1.349 . S
C1038 H1032 0.950 . S
C1038 C1039 1.327 . S
C1039 H1033 0.950 . S
C1039 C1038 1.327 . S
C1039 C1043 1.429 . S
C1040 C1023 1.574 . S
C1040 H1034 0.949 . S
C1040 C1044 1.368 . S
C1041 C1022 1.429 1_554 S
C1041 C1035 1.429 1_554 S
C1041 C1042 1.523 . S
C1042 C1023 1.368 . S
C1042 C1036 1.368 . S
C1042 C1041 1.523 . S
C1043 C1027 1.429 . S
C1043 C1039 1.429 . S
C1043 C1044 1.523 . S
C1044 C1028 1.368 . S
C1044 C1040 1.368 . S
C1044 C1043 1.523 . S
H1045 C1020 0.950 . S
H1046 C1022 0.950 1_554 S
H1047 C1023 0.949 . S
H1048 C1025 0.950 . S
H1049 C1027 0.950 . S
C1050 C1051 1.349 . S
C1050 C1052 1.327 . S
C1050 H1075 0.950 . S
C1051 C1050 1.349 . S
C1051 C1067 1.349 . S
C1052 C1050 1.327 . S
C1052 C1071 1.429 . S
C1052 H1076 0.950 . S
C1053 C1070 1.574 . S
C1053 C1072 1.368 . S
C1053 H1077 0.949 . S
H1054 C1058 0.949 . S
C1055 C1056 1.349 . S
C1055 C1057 1.327 . S
C1055 H1078 0.950 . S
C1056 C1055 1.349 . S
C1056 C1068 1.349 . S
C1057 C1055 1.327 . S
C1057 C1073 1.429 1_556 S
C1057 H1079 0.950 1_556 S
C1058 H1054 0.949 . S
C1058 C1066 1.574 . S
C1058 C1074 1.368 . S
H1059 C1067 0.950 . S
H1060 C1065 0.950 . S
H1061 C1066 0.949 . S
H1062 C1068 0.950 . S
H1063 C1069 0.950 . S
H1064 C1070 0.949 . S
C1065 H1060 0.950 . S
C1065 C1067 1.327 . S
C1065 C1071 1.429 . S
C1066 C1058 1.574 . S
C1066 H1061 0.949 . S
C1066 C1072 1.368 . S
C1067 C1051 1.349 . S
C1067 H1059 0.950 . S
C1067 C1065 1.327 . S
C1068 C1056 1.349 . S
C1068 H1062 0.950 . S
C1068 C1069 1.327 . S
C1069 H1063 0.950 . S
C1069 C1068 1.327 . S
C1069 C1073 1.429 1_556 S
C1070 C1053 1.574 . S
C1070 H1064 0.949 . S
C1070 C1074 1.368 . S
C1071 C1052 1.429 . S
C1071 C1065 1.429 . S
C1071 C1072 1.523 . S
C1072 C1053 1.368 . S
C1072 C1066 1.368 . S
C1072 C1071 1.523 . S
C1073 C1057 1.429 1_554 S
C1073 C1069 1.429 1_554 S
C1073 C1074 1.523 . S
C1074 C1058 1.368 . S
C1074 C1070 1.368 . S
C1074 C1073 1.523 . S
H1075 C1050 0.950 . S
H1076 C1052 0.950 . S
H1077 C1053 0.949 . S
H1078 C1055 0.950 . S
H1079 C1057 0.950 1_554 S
C271 N14 1.301 . S
C276 C237 1.380 . S
C301 N44 1.301 . S
C306 C267 1.380 . S
C331 N74 1.301 . S
C336 C207 1.380 . S
C361 N134 1.301 . S
C366 C87 1.380 . S
C391 N164 1.301 . S
C396 C27 1.380 . S
C421 C57 1.380 . S
C426 N104 1.301 . S
C451 N224 1.301 . S
C456 C177 1.380 . S
C481 N254 1.301 . S
C486 C117 1.380 . S
C511 C147 1.380 . S
C516 N194 1.301 . S
C541 N66 1.081 . S
C546 C16 1.087 . S
C571 C46 1.087 . S
C576 N6 1.081 . S
C601 N36 1.081 . S
C606 C76 1.087 . S
C631 C106 1.087 . S
C636 N156 1.081 . S
C661 N96 1.081 . S
C666 C136 1.087 . S
C691 N126 1.081 . S
C696 C166 1.087 . S
C721 N246 1.081 . S
C726 C196 1.087 . S
C751 C226 1.087 . S
C756 N186 1.081 . S
C781 C256 1.087 . S
C786 N216 1.081 . S
C811 C10 0.964 . S
C816 C1 0.964 . S
C841 C40 0.964 . S
C846 C31 0.964 . S
C871 C70 0.964 . S
C876 C61 0.964 . S
C901 C91 0.964 . S
C906 C100 0.964 . S
C931 C121 0.964 . S
C936 C130 0.964 . S
C961 C151 0.964 . S
C966 C160 0.964 . S
C991 C190 0.964 . S
C996 C181 0.964 . S
C1021 C211 0.964 . S
C1026 C220 0.964 . S
C1051 C250 0.964 . S
C1056 C241 0.964 . S
