# Generated by pormake.
# Topology smd, (6)-cn, num edge types: 1
# Building blocks:
#     Node 0, Type 0, BuildingBlock: FUNLAD_clean_sbu_0, # of connection points: 6
#     Node 1, Type 0, BuildingBlock: FUNLAD_clean_sbu_0, # of connection points: 6
#     Node 2, Type 0, BuildingBlock: FUNLAD_clean_sbu_0, # of connection points: 6
#     Node 3, Type 0, BuildingBlock: FUNLAD_clean_sbu_0, # of connection points: 6
#     Node 4, Type 0, BuildingBlock: FUNLAD_clean_sbu_0, # of connection points: 6
#     Node 5, Type 0, BuildingBlock: FUNLAD_clean_sbu_0, # of connection points: 6
#     Node 6, Type 0, BuildingBlock: FUNLAD_clean_sbu_0, # of connection points: 6
#     Node 7, Type 0, BuildingBlock: FUNLAD_clean_sbu_0, # of connection points: 6
#     Node 8, Type 0, BuildingBlock: FUNLAD_clean_sbu_0, # of connection points: 6
#     Node 9, Type 0, BuildingBlock: FUNLAD_clean_sbu_0, # of connection points: 6
#     Node 10, Type 0, BuildingBlock: FUNLAD_clean_sbu_0, # of connection points: 6
#     Node 11, Type 0, BuildingBlock: FUNLAD_clean_sbu_0, # of connection points: 6
#     Node 12, Type 0, BuildingBlock: FUNLAD_clean_sbu_0, # of connection points: 6
#     Node 13, Type 0, BuildingBlock: FUNLAD_clean_sbu_0, # of connection points: 6
#     Node 14, Type 0, BuildingBlock: FUNLAD_clean_sbu_0, # of connection points: 6
#     Node 15, Type 0, BuildingBlock: FUNLAD_clean_sbu_0, # of connection points: 6
#     Node 16, Type 0, BuildingBlock: FUNLAD_clean_sbu_0, # of connection points: 6
#     Node 17, Type 0, BuildingBlock: FUNLAD_clean_sbu_0, # of connection points: 6
#     Edge 18, Type (0, 0), BuildingBlock: KIFKEQ_clean_linker_1, # of connection points: 2
#     Edge 19, Type (0, 0), BuildingBlock: KIFKEQ_clean_linker_1, # of connection points: 2
#     Edge 20, Type (0, 0), BuildingBlock: KIFKEQ_clean_linker_1, # of connection points: 2
#     Edge 21, Type (0, 0), BuildingBlock: KIFKEQ_clean_linker_1, # of connection points: 2
#     Edge 22, Type (0, 0), BuildingBlock: KIFKEQ_clean_linker_1, # of connection points: 2
#     Edge 23, Type (0, 0), BuildingBlock: KIFKEQ_clean_linker_1, # of connection points: 2
#     Edge 24, Type (0, 0), BuildingBlock: KIFKEQ_clean_linker_1, # of connection points: 2
#     Edge 25, Type (0, 0), BuildingBlock: KIFKEQ_clean_linker_1, # of connection points: 2
#     Edge 26, Type (0, 0), BuildingBlock: KIFKEQ_clean_linker_1, # of connection points: 2
#     Edge 27, Type (0, 0), BuildingBlock: KIFKEQ_clean_linker_1, # of connection points: 2
#     Edge 28, Type (0, 0), BuildingBlock: KIFKEQ_clean_linker_1, # of connection points: 2
#     Edge 29, Type (0, 0), BuildingBlock: KIFKEQ_clean_linker_1, # of connection points: 2
#     Edge 30, Type (0, 0), BuildingBlock: KIFKEQ_clean_linker_1, # of connection points: 2
#     Edge 31, Type (0, 0), BuildingBlock: KIFKEQ_clean_linker_1, # of connection points: 2
#     Edge 32, Type (0, 0), BuildingBlock: KIFKEQ_clean_linker_1, # of connection points: 2
#     Edge 33, Type (0, 0), BuildingBlock: KIFKEQ_clean_linker_1, # of connection points: 2
#     Edge 34, Type (0, 0), BuildingBlock: KIFKEQ_clean_linker_1, # of connection points: 2
#     Edge 35, Type (0, 0), BuildingBlock: KIFKEQ_clean_linker_1, # of connection points: 2
#     Edge 36, Type (0, 0), BuildingBlock: KIFKEQ_clean_linker_1, # of connection points: 2
#     Edge 37, Type (0, 0), BuildingBlock: KIFKEQ_clean_linker_1, # of connection points: 2
#     Edge 38, Type (0, 0), BuildingBlock: KIFKEQ_clean_linker_1, # of connection points: 2
#     Edge 39, Type (0, 0), BuildingBlock: KIFKEQ_clean_linker_1, # of connection points: 2
#     Edge 40, Type (0, 0), BuildingBlock: KIFKEQ_clean_linker_1, # of connection points: 2
#     Edge 41, Type (0, 0), BuildingBlock: KIFKEQ_clean_linker_1, # of connection points: 2
#     Edge 42, Type (0, 0), BuildingBlock: KIFKEQ_clean_linker_1, # of connection points: 2
#     Edge 43, Type (0, 0), BuildingBlock: KIFKEQ_clean_linker_1, # of connection points: 2
#     Edge 44, Type (0, 0), BuildingBlock: KIFKEQ_clean_linker_1, # of connection points: 2
#     Edge 45, Type (0, 0), BuildingBlock: KIFKEQ_clean_linker_1, # of connection points: 2
#     Edge 46, Type (0, 0), BuildingBlock: KIFKEQ_clean_linker_1, # of connection points: 2
#     Edge 47, Type (0, 0), BuildingBlock: KIFKEQ_clean_linker_1, # of connection points: 2
#     Edge 48, Type (0, 0), BuildingBlock: KIFKEQ_clean_linker_1, # of connection points: 2
#     Edge 49, Type (0, 0), BuildingBlock: KIFKEQ_clean_linker_1, # of connection points: 2
#     Edge 50, Type (0, 0), BuildingBlock: KIFKEQ_clean_linker_1, # of connection points: 2
#     Edge 51, Type (0, 0), BuildingBlock: KIFKEQ_clean_linker_1, # of connection points: 2
#     Edge 52, Type (0, 0), BuildingBlock: KIFKEQ_clean_linker_1, # of connection points: 2
#     Edge 53, Type (0, 0), BuildingBlock: KIFKEQ_clean_linker_1, # of connection points: 2
#     Edge 54, Type (0, 0), BuildingBlock: KIFKEQ_clean_linker_1, # of connection points: 2
#     Edge 55, Type (0, 0), BuildingBlock: KIFKEQ_clean_linker_1, # of connection points: 2
#     Edge 56, Type (0, 0), BuildingBlock: KIFKEQ_clean_linker_1, # of connection points: 2
#     Edge 57, Type (0, 0), BuildingBlock: KIFKEQ_clean_linker_1, # of connection points: 2
#     Edge 58, Type (0, 0), BuildingBlock: KIFKEQ_clean_linker_1, # of connection points: 2
#     Edge 59, Type (0, 0), BuildingBlock: KIFKEQ_clean_linker_1, # of connection points: 2
#     Edge 60, Type (0, 0), BuildingBlock: KIFKEQ_clean_linker_1, # of connection points: 2
#     Edge 61, Type (0, 0), BuildingBlock: KIFKEQ_clean_linker_1, # of connection points: 2
#     Edge 62, Type (0, 0), BuildingBlock: KIFKEQ_clean_linker_1, # of connection points: 2
#     Edge 63, Type (0, 0), BuildingBlock: KIFKEQ_clean_linker_1, # of connection points: 2
#     Edge 64, Type (0, 0), BuildingBlock: KIFKEQ_clean_linker_1, # of connection points: 2
#     Edge 65, Type (0, 0), BuildingBlock: KIFKEQ_clean_linker_1, # of connection points: 2
#     Edge 66, Type (0, 0), BuildingBlock: KIFKEQ_clean_linker_1, # of connection points: 2
#     Edge 67, Type (0, 0), BuildingBlock: KIFKEQ_clean_linker_1, # of connection points: 2
#     Edge 68, Type (0, 0), BuildingBlock: KIFKEQ_clean_linker_1, # of connection points: 2
#     Edge 69, Type (0, 0), BuildingBlock: KIFKEQ_clean_linker_1, # of connection points: 2
#     Edge 70, Type (0, 0), BuildingBlock: KIFKEQ_clean_linker_1, # of connection points: 2
#     Edge 71, Type (0, 0), BuildingBlock: KIFKEQ_clean_linker_1, # of connection points: 2
# Relax obj value: 0.291
# Max RMSD: 0.210
# Mean RMSD: 0.210
data_MOF--net-smd--node1-FUNLAD_clean_sbu_0--edge1-KIFKEQ_clean_linker_1
_symmetry_space_group_name_H-M    P1
_symmetry_Int_Tables_number       1
_symmetry_cell_setting            triclinic
loop_
_symmetry_equiv_pos_as_xyz
'x, y, z'
_cell_length_a     85.605811
_cell_length_b     85.620612
_cell_length_c     15.477535
_cell_angle_alpha  90.110747
_cell_angle_beta   89.977467
_cell_angle_gamma 120.05993
loop_
_atom_site_label
_atom_site_type_symbol
_atom_site_fract_x
_atom_site_fract_y
_atom_site_fract_z
_atom_type_partial_charge
C0 C 0.0487 0.26063 0.31314 0.0
N1 N 0.0812 0.25029 0.47933 0.0
C2 C 0.08016 0.23842 0.41767 0.0
C3 C 0.09409 0.23447 0.40851 0.0
C4 C 0.109 0.24255 0.46446 0.0
C5 C 0.10947 0.25433 0.52877 0.0
C6 C 0.09549 0.25817 0.53454 0.0
Zn7 Zn 0.06218 0.25814 0.48765 0.0
C8 C 0.07909 0.29799 0.46971 0.0
N9 N 0.02341 0.27579 0.50639 0.0
C10 C 1.00588 0.2664 0.47982 0.0
C11 C 0.02937 0.29065 0.55762 0.0
C12 C 0.01753 0.2961 0.58739 0.0
C13 C 0.99923 0.2862 0.56505 0.0
C14 C 0.99347 0.27149 0.50822 0.0
Zn15 Zn 0.04161 0.26694 0.49031 0.0
O16 O 0.05963 0.25738 0.35389 0.0
C17 C 0.02454 0.2271 0.50382 0.0
O18 O 0.03832 0.26465 0.35456 0.0
H19 H 0.0432 0.29784 0.57963 0.0
H20 H 0.06871 0.23231 0.37434 0.0
H21 H 1.00133 0.2545 0.43994 0.0
O22 O 0.04082 0.23073 0.4954 0.0
O23 O 0.02103 0.23988 0.50536 0.0
H24 H 0.0963 0.26783 0.58198 0.0
O25 O 0.04519 0.26906 0.62458 0.0
O26 O 0.06421 0.25902 0.6234 0.0
O27 O 0.06262 0.29375 0.47396 0.0
O28 O 0.08325 0.28573 0.47674 0.0
C29 C 0.05515 0.26454 0.66512 0.0
H30 H 0.09329 0.22532 0.35805 0.0
H31 H 0.1209 0.26107 0.57215 0.0
H32 H 0.0226 0.30771 0.62984 0.0
H33 H 0.97942 0.26354 0.48943 0.0
C34 C 0.84002 0.83176 0.30497 0.0
N35 N 0.84913 0.87408 0.47394 0.0
C36 C 0.86152 0.88526 0.41512 0.0
C37 C 0.86549 0.90317 0.40741 0.0
C38 C 0.85688 0.90965 0.46195 0.0
C39 C 0.84456 0.89798 0.52347 0.0
C40 C 0.84073 0.88014 0.52778 0.0
Zn41 Zn 0.84128 0.84718 0.47958 0.0
C42 C 0.80168 0.82401 0.45611 0.0
N43 N 0.82393 0.79073 0.4938 0.0
C44 C 0.83322 0.78261 0.46551 0.0
C45 C 0.80835 0.7813 0.53942 0.0
C46 C 0.8014 0.76313 0.55739 0.0
C47 C 0.81067 0.7544 0.52992 0.0
C48 C 0.82684 0.76432 0.48368 0.0
Zn49 Zn 0.83296 0.8179 0.48184 0.0
O50 O 0.84352 0.84613 0.34493 0.0
C51 C 0.87252 0.84077 0.50031 0.0
O52 O 0.83532 0.8173 0.34692 0.0
H53 H 0.80141 0.78797 0.56439 0.0
H54 H 0.86805 0.8802 0.37286 0.0
H55 H 0.84572 0.79037 0.43045 0.0
O56 O 0.8687 0.85333 0.4937 0.0
O57 O 0.85993 0.82438 0.49778 0.0
H58 H 0.83066 0.87101 0.57289 0.0
O59 O 0.83078 0.81884 0.61544 0.0
O60 O 0.83892 0.8475 0.61605 0.0
O61 O 0.80623 0.81209 0.46418 0.0
O62 O 0.81372 0.84057 0.46217 0.0
C63 C 0.83429 0.83298 0.65691 0.0
H64 H 0.87506 0.91182 0.35908 0.0
H65 H 0.83742 0.9024 0.56564 0.0
H66 H 0.7891 0.75606 0.5949 0.0
H67 H 0.8344 0.75801 0.4619 0.0
C68 C 0.26774 0.05099 0.30929 0.0
N69 N 0.22562 0.01759 0.47723 0.0
C70 C 0.21444 0.0184 0.41706 0.0
C71 C 0.19658 1.00428 0.40934 0.0
C72 C 0.19014 0.98942 0.46522 0.0
C73 C 0.20182 0.98917 0.52792 0.0
C74 C 0.21961 1.00334 0.53224 0.0
Zn75 Zn 0.25246 0.03696 0.48367 0.0
C76 C 0.27603 0.02107 0.46094 0.0
N77 N 0.30876 0.07668 0.49938 0.0
C78 C 0.31673 0.09424 0.47352 0.0
C79 C 0.31828 0.07049 0.54385 0.0
C80 C 0.33639 0.08184 0.5631 0.0
C81 C 0.34496 0.09998 0.53823 0.0
C82 C 0.33496 0.10627 0.49311 0.0
Zn83 Zn 0.28162 0.05828 0.48649 0.0
O84 O 0.25375 0.0396 0.34997 0.0
C85 C 0.25837 0.07447 0.50396 0.0
O86 O 0.28202 0.06169 0.35078 0.0
H87 H 0.31172 0.05677 0.56712 0.0
H88 H 0.21945 0.02982 0.37385 0.0
H89 H 0.3089 0.09901 0.43947 0.0
O90 O 0.24598 0.05807 0.49426 0.0
O91 O 0.27481 0.07844 0.50503 0.0
H92 H 0.22874 1.0027 0.57844 0.0
O93 O 0.28079 0.05457 0.62068 0.0
O94 O 0.25184 0.03489 0.61931 0.0
O95 O 0.28773 0.03769 0.46614 0.0
O96 O 0.25944 0.01619 0.46965 0.0
C97 C 0.26639 0.04421 0.66109 0.0
H98 H 0.18792 1.00491 0.3601 0.0
H99 H 0.19744 0.9778 0.57118 0.0
H100 H 0.34351 0.07656 0.59975 0.0
H101 H 0.34114 0.12025 0.47336 0.0
C102 C 0.04853 0.82933 0.29309 0.0
N103 N 0.08071 0.81919 0.45563 0.0
C104 C 0.07445 0.80346 0.41094 0.0
C105 C 0.08568 0.79652 0.39277 0.0
C106 C 0.10376 0.80593 0.41903 0.0
C107 C 0.11012 0.82226 0.46427 0.0
C108 C 0.09821 0.82863 0.48272 0.0
Zn109 Zn 0.06249 0.82811 0.46785 0.0
C110 C 0.079 0.86761 0.45046 0.0
N111 N 0.02215 0.84379 0.47661 0.0
C112 C 1.00792 0.83564 0.4212 0.0
C113 C 0.02302 0.85579 0.53706 0.0
C114 C 1.00897 0.85962 0.54469 0.0
C115 C 0.99414 0.85129 0.48841 0.0
C116 C 0.99383 0.83936 0.42539 0.0
Zn117 Zn 0.04136 0.83615 0.4705 0.0
O118 O 0.05879 0.82517 0.33354 0.0
C119 C 0.02514 0.79661 0.49286 0.0
O120 O 0.03931 0.83466 0.33487 0.0
H121 H 0.03442 0.86213 0.58059 0.0
H122 H 0.06078 0.7964 0.38684 0.0
H123 H 1.00723 0.82587 0.3748 0.0
O124 O 0.04174 0.80144 0.4879 0.0
O125 O 0.02041 0.80842 0.48414 0.0
H126 H 0.10302 0.84124 0.51701 0.0
O127 O 0.04396 0.83752 0.60428 0.0
O128 O 0.0659 0.83117 0.60357 0.0
O129 O 0.06264 0.86371 0.46014 0.0
O130 O 0.08282 0.85505 0.4495 0.0
C131 C 0.05529 0.83485 0.64502 0.0
H132 H 0.08037 0.7841 0.35601 0.0
H133 H 0.12406 0.82993 0.48507 0.0
H134 H 1.00963 0.86889 0.59421 0.0
H135 H 0.98247 0.83244 0.38182 0.0
C136 C 0.26889 0.26127 0.28523 0.0
N137 N 0.2789 0.30367 0.44774 0.0
C138 C 0.29454 0.3132 0.40265 0.0
C139 C 0.30122 0.33129 0.38338 0.0
C140 C 0.29167 0.33984 0.40917 0.0
C141 C 0.27547 0.32981 0.45517 0.0
C142 C 0.26934 0.31161 0.47451 0.0
Zn143 Zn 0.27014 0.27655 0.46021 0.0
C144 C 0.23062 0.25335 0.4425 0.0
N145 N 0.25457 0.22055 0.4688 0.0
C146 C 0.2628 0.21445 0.41409 0.0
C147 C 0.24254 0.20947 0.5291 0.0
C148 C 0.23877 0.19164 0.53742 0.0
C149 C 0.24721 0.18511 0.48204 0.0
C150 C 0.25916 0.19668 0.41903 0.0
Zn151 Zn 0.26214 0.24739 0.46234 0.0
O152 O 0.27303 0.27569 0.32591 0.0
C153 C 0.30169 0.27087 0.4852 0.0
O154 O 0.26357 0.24671 0.32675 0.0
H155 H 0.23614 0.21457 0.57204 0.0
H156 H 0.3017 0.30666 0.37892 0.0
H157 H 0.27258 0.2235 0.36773 0.0
O158 O 0.29687 0.28265 0.48045 0.0
O159 O 0.28987 0.25431 0.476 0.0
H160 H 0.25679 0.30377 0.50913 0.0
O161 O 0.26083 0.24872 0.59615 0.0
O162 O 0.26712 0.277 0.59589 0.0
O163 O 0.23457 0.24094 0.45195 0.0
O164 O 0.24315 0.26977 0.44174 0.0
C165 C 0.26347 0.26271 0.63712 0.0
H166 H 0.31354 0.33839 0.34602 0.0
H167 H 0.26769 0.33596 0.47576 0.0
H168 H 0.22947 0.18308 0.58685 0.0
H169 H 0.26616 0.19222 0.37611 0.0
C170 C 0.83752 0.04968 0.27837 0.0
N171 N 0.79501 0.01724 0.44005 0.0
C172 C 0.78557 0.02167 0.3841 0.0
C173 C 0.76784 0.00917 0.36247 0.0
C174 C 0.75956 0.99198 0.39944 0.0
C175 C 0.76921 0.98777 0.45921 0.0
C176 C 0.78717 1.0007 0.47832 0.0
Zn177 Zn 0.82188 0.03616 0.45311 0.0
C178 C 0.84561 0.02017 0.44017 0.0
N179 N 0.87776 0.07701 0.46342 0.0
C180 C 0.88377 0.09126 0.40845 0.0
C181 C 0.88885 0.07633 0.5245 0.0
C182 C 0.9066 0.09059 0.53333 0.0
C183 C 0.91303 0.10547 0.47764 0.0
C184 C 0.90146 0.10559 0.41389 0.0
Zn185 Zn 0.85107 0.05735 0.45594 0.0
O186 O 0.82313 0.0393 0.31874 0.0
C187 C 0.827 0.07308 0.47302 0.0
O188 O 0.852 0.05923 0.32019 0.0
H189 H 0.88384 0.06489 0.56759 0.0
H190 H 0.79194 0.03484 0.35423 0.0
H191 H 0.8747 0.09176 0.3614 0.0
O192 O 0.8151 0.05649 0.46777 0.0
O193 O 0.84359 0.07771 0.46708 0.0
H194 H 0.79493 0.99741 0.5222 0.0
O195 O 0.84959 0.05502 0.5897 0.0
O196 O 0.82115 0.03334 0.58899 0.0
O197 O 0.85799 0.03661 0.44795 0.0
O198 O 0.82917 0.01618 0.43927 0.0
C199 C 0.83547 0.04393 0.63042 0.0
H200 H 0.76065 0.01285 0.31675 0.0
H201 H 0.76307 0.97458 0.48915 0.0
H202 H 0.91518 0.09006 0.5833 0.0
H203 H 0.90585 0.11697 0.37068 0.0
C204 C 0.71343 0.59178 0.6368 0.0
N205 N 0.74733 0.58412 0.8078 0.0
C206 C 0.74577 0.56998 0.7605 0.0
C207 C 0.75991 0.56616 0.75905 0.0
C208 C 0.77572 0.57699 0.80687 0.0
C209 C 0.77681 0.59144 0.85492 0.0
C210 C 0.76246 0.59472 0.85469 0.0
Zn211 Zn 0.72777 0.59127 0.811 0.0
C212 C 0.74357 0.63083 0.78573 0.0
N213 N 0.68799 0.60777 0.82532 0.0
C214 C 0.67054 0.59817 0.79771 0.0
C215 C 0.694 0.62344 0.87026 0.0
C216 C 0.68259 0.63017 0.88795 0.0
C217 C 0.66456 0.6206 0.86111 0.0
C218 C 0.65843 0.60432 0.81577 0.0
Zn219 Zn 0.70655 0.59922 0.81396 0.0
O220 O 0.72439 0.58837 0.67651 0.0
C221 C 0.69042 0.55971 0.83401 0.0
O222 O 0.7037 0.59652 0.67899 0.0
H223 H 0.70763 0.63061 0.89496 0.0
H224 H 0.73363 0.56173 0.72351 0.0
H225 H 0.66591 0.58559 0.76331 0.0
O226 O 0.70687 0.56374 0.82735 0.0
O227 O 0.68641 0.57213 0.83074 0.0
H228 H 0.76353 0.60597 0.89142 0.0
O229 O 0.70965 0.60172 0.94751 0.0
O230 O 0.73063 0.59423 0.94744 0.0
O231 O 0.72708 0.6261 0.7954 0.0
O232 O 0.74826 0.61895 0.79103 0.0
C233 C 0.72058 0.59862 -0.01135 0.0
H234 H 0.75845 0.55484 0.72129 0.0
H235 H 0.78885 0.60046 0.89109 0.0
H236 H 0.68772 0.64257 0.92477 0.0
H237 H 0.64453 0.59653 0.79459 0.0
C238 C 0.50608 0.16431 0.64825 0.0
N239 N 0.51483 0.20667 0.81508 0.0
C240 C 0.52684 0.21773 0.75464 0.0
C241 C 0.53053 0.23553 0.74593 0.0
C242 C 0.52205 0.24204 0.80108 0.0
C243 C 0.51008 0.23049 0.86405 0.0
C244 C 0.50652 0.21274 0.86939 0.0
Zn245 Zn 0.50758 0.17994 0.82303 0.0
C246 C 0.46794 0.15602 0.80093 0.0
N247 N 0.4914 0.12386 0.84034 0.0
C248 C 0.50103 0.11603 0.81304 0.0
C249 C 0.47657 0.11467 0.89131 0.0
C250 C 0.47141 0.0974 0.9202 0.0
C251 C 0.48152 0.0893 0.89686 0.0
C252 C 0.49619 0.09853 0.84029 0.0
Zn253 Zn 0.49968 0.1508 0.8251 0.0
O254 O 0.50878 0.17831 0.68928 0.0
C255 C 0.53928 0.17438 0.84217 0.0
O256 O 0.50244 0.15001 0.68942 0.0
H257 H 0.46917 0.12105 0.91363 0.0
H258 H 0.53331 0.21265 0.71204 0.0
H259 H 0.51288 0.12361 0.77331 0.0
O260 O 0.53525 0.18674 0.83316 0.0
O261 O 0.5268 0.15794 0.84264 0.0
H262 H 0.49677 0.20371 0.91587 0.0
O263 O 0.49708 0.15205 0.95942 0.0
O264 O 0.50628 0.18096 0.95863 0.0
O265 O 0.47279 0.14427 0.80599 0.0
O266 O 0.47973 0.17261 0.80961 0.0
C267 C 0.5011 0.16643 0.00015 0.0
H268 H 0.53984 0.24409 0.69652 0.0
H269 H 0.50305 0.23493 0.90679 0.0
H270 H 0.45984 0.09061 0.96262 0.0
H271 H 0.50428 0.09265 0.82081 0.0
C272 C 0.93343 0.38309 0.64288 0.0
N273 N 0.89105 0.35029 0.81101 0.0
C274 C 0.87999 0.35081 0.74924 0.0
C275 C 0.8622 0.33655 0.74096 0.0
C276 C 0.85572 0.32186 0.79792 0.0
C277 C 0.86725 0.32194 0.86239 0.0
C278 C 0.88496 0.33623 0.86722 0.0
Zn279 Zn 0.91794 0.36958 0.81737 0.0
C280 C 0.94111 0.35306 0.79799 0.0
N281 N 0.97444 0.40876 0.83286 0.0
C282 C 0.98255 0.42622 0.80549 0.0
C283 C 0.98385 0.4026 0.87858 0.0
C284 C 1.00198 0.41391 0.89769 0.0
C285 C 1.0107 0.43196 0.87123 0.0
C286 C 1.0008 0.4382 0.82477 0.0
Zn287 Zn 0.94726 0.39049 0.82007 0.0
O288 O 0.91933 0.37193 0.68355 0.0
C289 C 0.92428 0.40719 0.83528 0.0
O290 O 0.94778 0.39364 0.68437 0.0
H291 H 0.97719 0.38896 0.90289 0.0
H292 H 0.88506 0.36207 0.70501 0.0
H293 H 0.97481 0.43096 0.77039 0.0
O294 O 0.91173 0.39085 0.82611 0.0
O295 O 0.94065 0.41092 0.83671 0.0
H296 H 0.894 0.33578 0.9146 0.0
O297 O 0.94632 0.38706 0.95432 0.0
O298 O 0.91726 0.36782 0.95309 0.0
O299 O 0.95314 0.3696 0.80206 0.0
O300 O 0.92461 0.34864 0.80566 0.0
C301 C 0.93184 0.37698 -0.0052 0.0
H302 H 0.85366 0.33692 0.69032 0.0
H303 H 0.86282 0.3107 0.90655 0.0
H304 H 1.009 0.40867 0.93538 0.0
H305 H 1.00709 0.45211 0.80371 0.0
C306 C 0.71386 0.16204 0.61872 0.0
N307 N 0.74559 0.15066 0.7765 0.0
C308 C 0.73927 0.13561 0.72633 0.0
C309 C 0.75084 0.12994 0.69526 0.0
C310 C 0.76927 0.13983 0.71496 0.0
C311 C 0.77545 0.15476 0.77076 0.0
C312 C 0.76329 0.16006 0.80065 0.0
Zn313 Zn 0.7276 0.15978 0.79349 0.0
C314 C 0.7448 0.1996 0.77881 0.0
N315 N 0.68819 0.17667 0.80486 0.0
C316 C 0.67384 0.16882 0.75006 0.0
C317 C 0.68942 0.18865 0.86628 0.0
C318 C 0.67561 0.19278 0.87554 0.0
C319 C 0.66064 0.18475 0.81995 0.0
C320 C 0.65997 0.17283 0.75593 0.0
Zn321 Zn 0.70706 0.16863 0.79614 0.0
O322 O 0.72381 0.15752 0.65927 0.0
C323 C 0.69001 0.12882 0.81552 0.0
O324 O 0.70486 0.16764 0.66043 0.0
H325 H 0.70092 0.19474 0.9093 0.0
H326 H 0.72533 0.12844 0.70588 0.0
H327 H 0.67288 0.15907 0.70282 0.0
O328 O 0.70646 0.13303 0.81106 0.0
O329 O 0.68587 0.1411 0.80793 0.0
H330 H 0.76814 0.17212 0.83957 0.0
O331 O 0.70979 0.16949 0.92987 0.0
O332 O 0.73109 0.16219 0.92921 0.0
O333 O 0.72852 0.19598 0.78751 0.0
O334 O 0.74831 0.18681 0.77748 0.0
C335 C 0.72074 0.16626 0.97064 0.0
H336 H 0.74545 0.11817 0.6537 0.0
H337 H 0.78961 0.16272 0.78751 0.0
H338 H 0.67655 0.20204 0.92579 0.0
H339 H 0.64849 0.16613 0.71286 0.0
C340 C 0.935 0.59443 0.62549 0.0
N341 N 0.94635 0.63707 0.78925 0.0
C342 C 0.96177 0.64642 0.74233 0.0
C343 C 0.96859 0.66454 0.72336 0.0
C344 C 0.95937 0.6733 0.7512 0.0
C345 C 0.94339 0.66346 0.799 0.0
C346 C 0.93714 0.64523 0.8181 0.0
Zn347 Zn 0.93726 0.60986 0.80134 0.0
C348 C 0.8975 0.58728 0.78819 0.0
N349 N 0.92064 0.55352 0.80761 0.0
C350 C 0.92865 0.54738 0.75173 0.0
C351 C 0.90878 0.54244 0.86847 0.0
C352 C 0.90497 0.52458 0.87612 0.0
C353 C 0.91319 0.51802 0.81947 0.0
C354 C 0.92495 0.52958 0.75595 0.0
Zn355 Zn 0.92854 0.58046 0.80199 0.0
O356 O 0.93917 0.60882 0.66646 0.0
C357 C 0.96835 0.60343 0.82177 0.0
O358 O 0.92986 0.57987 0.66671 0.0
H359 H 0.90257 0.54757 0.91244 0.0
H360 H 0.96864 0.63972 0.71694 0.0
H361 H 0.93835 0.55642 0.70508 0.0
O362 O 0.96395 0.6155 0.81645 0.0
O363 O 0.95617 0.58694 0.81492 0.0
H364 H 0.92477 0.63754 0.8542 0.0
O365 O 0.92736 0.58176 0.9363 0.0
O366 O 0.93521 0.6105 0.93678 0.0
O367 O 0.90103 0.57449 0.79196 0.0
O368 O 0.91035 0.60356 0.78939 0.0
C369 C 0.93088 0.596 -0.02242 0.0
H370 H 0.98073 0.67152 0.68469 0.0
H371 H 0.93587 0.66978 0.82119 0.0
H372 H 0.89583 0.51602 0.92604 0.0
H373 H 0.9318 0.52511 0.71209 0.0
C374 C 0.50333 0.38321 0.6233 0.0
N375 N 0.46095 0.35079 0.78524 0.0
C376 C 0.45138 0.35694 0.74088 0.0
C377 C 0.43327 0.34553 0.72173 0.0
C378 C 0.42476 0.32739 0.74664 0.0
C379 C 0.43482 0.32116 0.79171 0.0
C380 C 0.45303 0.33324 0.81116 0.0
Zn381 Zn 0.48809 0.36918 0.79794 0.0
C382 C 0.51127 0.3529 0.78033 0.0
N383 N 0.54412 0.40973 0.80721 0.0
C384 C 0.55022 0.42398 0.75212 0.0
C385 C 0.55523 0.40888 0.86771 0.0
C386 C 0.5731 0.42297 0.87576 0.0
C387 C 0.57962 0.43783 0.81986 0.0
C388 C 0.56802 0.43811 0.75675 0.0
Zn389 Zn 0.51727 0.39042 0.80068 0.0
O390 O 0.4889 0.3729 0.66373 0.0
C391 C 0.49378 0.40643 0.82339 0.0
O392 O 0.51789 0.39247 0.66506 0.0
H393 H 0.55015 0.39747 0.91095 0.0
H394 H 0.4579 0.37066 0.71763 0.0
H395 H 0.54115 0.42464 0.70565 0.0
O396 O 0.48202 0.38982 0.81833 0.0
O397 O 0.51036 0.41123 0.81456 0.0
H398 H 0.46091 0.32851 0.84515 0.0
O399 O 0.51597 0.3878 0.93441 0.0
O400 O 0.48768 0.36575 0.93361 0.0
O401 O 0.52369 0.36928 0.79013 0.0
O402 O 0.49485 0.34898 0.77928 0.0
C403 C 0.50198 0.37643 0.9751 0.0
H404 H 0.42611 0.35077 0.68514 0.0
H405 H 0.42868 0.30719 0.81151 0.0
H406 H 0.58168 0.42233 0.92532 0.0
H407 H 0.57248 0.44949 0.71344 0.0
C408 C 0.38221 0.92715 0.96693 0.0
N409 N 0.41376 0.91589 0.13657 0.0
C410 C 0.41263 0.90367 0.07674 0.0
C411 C 0.42646 0.89952 0.0695 0.0
C412 C 0.44134 0.90776 0.12556 0.0
C413 C 0.4419 0.9199 0.18802 0.0
C414 C 0.42804 0.92393 0.19179 0.0
Zn415 Zn 0.39515 0.92435 0.14187 0.0
C416 C 0.41311 0.96439 0.12423 0.0
N417 N 0.35752 0.94358 0.15594 0.0
C418 C 0.34019 0.93461 0.12623 0.0
C419 C 0.36364 0.95885 0.20429 0.0
C420 C 0.3524 0.96571 0.22412 0.0
C421 C 0.33445 0.95668 0.19566 0.0
C422 C 0.32828 0.9409 0.14613 0.0
Zn423 Zn 0.37528 0.93408 0.14367 0.0
O424 O 0.3921 0.92239 0.00714 0.0
C425 C 0.35705 0.8941 0.15696 0.0
O426 O 0.37322 0.93283 0.00868 0.0
H427 H 0.37715 0.96551 0.23039 0.0
H428 H 0.40121 0.89746 0.03323 0.0
H429 H 0.33547 0.92235 0.08899 0.0
O430 O 0.37322 0.89714 0.15499 0.0
O431 O 0.35418 0.90729 0.15274 0.0
H432 H 0.42899 0.93393 0.23753 0.0
O433 O 0.37749 0.93513 0.27779 0.0
O434 O 0.39759 0.92646 0.278 0.0
O435 O 0.39688 0.96068 0.13273 0.0
O436 O 0.41671 0.95168 0.12625 0.0
C437 C 0.38782 0.93121 0.31906 0.0
H438 H 0.42563 0.89011 0.02033 0.0
H439 H 0.45332 0.92678 0.23132 0.0
H440 H 0.35757 0.97769 0.2641 0.0
H441 H 0.31446 0.93354 0.12338 0.0
C442 C 0.17238 0.4969 -0.02188 0.0
N443 N 0.18133 0.53966 0.144 0.0
C444 C 0.1936 0.55066 0.08427 0.0
C445 C 0.1975 0.56852 0.0751 0.0
C446 C 0.18896 0.57516 0.12915 0.0
C447 C 0.17672 0.56367 0.19143 0.0
C448 C 0.17295 0.54586 0.19717 0.0
Zn449 Zn 0.1738 0.51287 0.15258 0.0
C450 C 0.13416 0.48917 0.13027 0.0
N451 N 0.15724 0.45668 0.17186 0.0
C452 C 0.16673 0.4486 0.146 0.0
C453 C 0.14242 0.44779 0.2232 0.0
C454 C 0.1371 0.4306 0.25373 0.0
C455 C 0.14709 0.42228 0.23209 0.0
C456 C 0.16176 0.43118 0.17519 0.0
Zn457 Zn 0.16578 0.48366 0.155 0.0
O458 O 0.17582 0.51126 0.0181 0.0
C459 C 0.20538 0.50704 0.17219 0.0
O460 O 0.16775 0.48244 0.02006 0.0
H461 H 0.13517 0.45438 0.24484 0.0
H462 H 0.20012 0.5455 0.0426 0.0
H463 H 0.1786 0.45594 0.10609 0.0
O464 O 0.20136 0.51946 0.16613 0.0
O465 O 0.19292 0.4906 0.1697 0.0
H466 H 0.16298 0.53687 0.24305 0.0
O467 O 0.16402 0.48527 0.2885 0.0
O468 O 0.1717 0.51379 0.2891 0.0
O469 O 0.13887 0.47737 0.1386 0.0
O470 O 0.14609 0.50578 0.13564 0.0
C471 C 0.16734 0.49935 0.33002 0.0
H472 H 0.20701 0.57703 0.02623 0.0
H473 H 0.16965 0.56822 0.23328 0.0
H474 H 0.12552 0.42407 0.29627 0.0
H475 H 0.16976 0.42513 0.15693 0.0
C476 C 0.60038 0.71844 0.97386 0.0
N477 N 0.559 0.68473 0.14488 0.0
C478 C 0.54649 0.68611 0.09624 0.0
C479 C 0.52853 0.67192 0.09437 0.0
C480 C 0.52347 0.65625 0.14318 0.0
C481 C 0.53674 0.65535 0.19271 0.0
C482 C 0.55438 0.66975 0.19282 0.0
Zn483 Zn 0.58573 0.70433 0.1482 0.0
C484 C 0.60948 0.68855 0.12163 0.0
N485 N 0.64205 0.74411 0.16195 0.0
C486 C 0.6498 0.76165 0.13602 0.0
C487 C 0.65182 0.73806 0.20522 0.0
C488 C 0.66997 0.74954 0.22319 0.0
C489 C 0.67833 0.76767 0.19821 0.0
C490 C 0.66806 0.77381 0.15431 0.0
Zn491 Zn 0.61492 0.72552 0.1509 0.0
O492 O 0.58636 0.7071 0.01463 0.0
C493 C 0.59153 0.74162 0.17212 0.0
O494 O 0.61479 0.72892 0.01521 0.0
H495 H 0.64545 0.72435 0.22852 0.0
H496 H 0.55045 0.69813 0.05841 0.0
H497 H 0.64177 0.76631 0.10293 0.0
O498 O 0.57909 0.72525 0.16219 0.0
O499 O 0.60796 0.74555 0.17159 0.0
H500 H 0.5645 0.66881 0.23059 0.0
O501 O 0.61454 0.72176 0.28526 0.0
O502 O 0.58561 0.702 0.28359 0.0
O503 O 0.62126 0.70511 0.12834 0.0
O504 O 0.59293 0.68378 0.1307 0.0
C505 C 0.60014 0.71128 0.32552 0.0
H506 H 0.51874 0.67323 0.05546 0.0
H507 H 0.53367 0.64342 0.22972 0.0
H508 H 0.6773 0.74437 0.25895 0.0
H509 H 0.67407 0.78777 0.13451 0.0
C510 C 0.38208 0.49685 0.95798 0.0
N511 N 0.41315 0.48534 0.12061 0.0
C512 C 0.40723 0.47024 0.07119 0.0
C513 C 0.41853 0.46343 0.05206 0.0
C514 C 0.43634 0.47233 0.08231 0.0
C515 C 0.44236 0.48801 0.13245 0.0
C516 C 0.43038 0.49426 0.15164 0.0
Zn517 Zn 0.395 0.49437 0.13361 0.0
C518 C 0.41221 0.53412 0.12211 0.0
N519 N 0.35528 0.51094 0.14113 0.0
C520 C 0.34092 0.50273 0.08646 0.0
C521 C 0.35633 0.52307 0.20128 0.0
C522 C 0.34233 0.52695 0.20948 0.0
C523 C 0.32736 0.51854 0.15406 0.0
C524 C 0.32689 0.5065 0.0912 0.0
Zn525 Zn 0.3743 0.50302 0.1349 0.0
O526 O 0.39286 0.49356 -0.00067 0.0
C527 C 0.35744 0.46319 0.15299 0.0
O528 O 0.37177 0.50092 -0.00104 0.0
H529 H 0.36782 0.52943 0.24426 0.0
H530 H 0.3938 0.46363 0.0441 0.0
H531 H 0.34007 0.49284 0.04037 0.0
O532 O 0.37385 0.46758 0.14391 0.0
O533 O 0.35318 0.47544 0.1507 0.0
H534 H 0.43494 0.50639 0.18971 0.0
O535 O 0.37742 0.50497 0.26971 0.0
O536 O 0.39698 0.49538 0.26851 0.0
O537 O 0.39583 0.5305 0.12209 0.0
O538 O 0.41568 0.52134 0.1264 0.0
C539 C 0.38761 0.50062 0.3101 0.0
H540 H 0.41349 0.45152 0.01162 0.0
H541 H 0.45608 0.49528 0.1565 0.0
H542 H 0.34312 0.5363 0.25887 0.0
H543 H 0.31541 0.49952 0.04831 0.0
C544 C 0.60233 0.92839 0.9634 0.0
N545 N 0.61141 0.97083 0.12262 0.0
C546 C 0.62677 0.97999 0.0751 0.0
C547 C 0.63215 0.99714 0.04386 0.0
C548 C 0.62167 1.00515 0.06088 0.0
C549 C 0.60642 0.99599 0.1142 0.0
C550 C 0.6014 0.97861 0.14418 0.0
Zn551 Zn 0.60302 0.94385 0.13891 0.0
C552 C 0.56358 0.92009 0.11781 0.0
N553 N 0.58831 0.88811 0.148 0.0
C554 C 0.59667 0.88211 0.09357 0.0
C555 C 0.57631 0.87698 0.2083 0.0
C556 C 0.57264 0.85917 0.21654 0.0
C557 C 0.58113 0.85272 0.16103 0.0
C558 C 0.59312 0.86437 0.0984 0.0
Zn559 Zn 0.59543 0.91482 0.13983 0.0
O560 O 0.60648 0.94276 0.00453 0.0
C561 C 0.6348 0.9388 0.16736 0.0
O562 O 0.59683 0.91378 0.00457 0.0
H563 H 0.56981 0.882 0.25104 0.0
H564 H 0.63443 0.97362 0.05672 0.0
H565 H 0.60644 0.8912 0.04724 0.0
O566 O 0.62975 0.95041 0.16377 0.0
O567 O 0.62331 0.92228 0.15363 0.0
H568 H 0.5891 0.97105 0.18096 0.0
O569 O 0.5941 0.9165 0.27386 0.0
O570 O 0.59943 0.94448 0.27402 0.0
O571 O 0.56774 0.90787 0.12883 0.0
O572 O 0.57596 0.93659 0.11689 0.0
C573 C 0.5962 0.93028 0.31507 0.0
H574 H 0.64415 1.00387 0.00406 0.0
H575 H 0.59802 1.0018 0.12875 0.0
H576 H 0.56332 0.85055 0.26574 0.0
H577 H 0.60017 0.85997 0.05542 0.0
C578 C 0.16963 0.71612 0.95653 0.0
N579 N 0.12762 0.68296 0.11793 0.0
C580 C 0.11799 0.68887 0.07228 0.0
C581 C 0.0999 0.67733 0.05329 0.0
C582 C 0.09146 0.65929 0.07975 0.0
C583 C 0.10159 0.65327 0.12588 0.0
C584 C 0.11979 0.66549 0.14509 0.0
Zn585 Zn 0.15465 0.7017 0.13113 0.0
C586 C 0.17836 0.68592 0.11005 0.0
N587 N 0.21043 0.74278 0.14034 0.0
C588 C 0.215 0.75846 0.09851 0.0
C589 C 0.22277 0.74097 0.18838 0.0
C590 C 0.24039 0.75554 0.19759 0.0
C591 C 0.24507 0.77202 0.15784 0.0
C592 C 0.23227 0.77333 0.10696 0.0
Zn593 Zn 0.18381 0.72304 0.134 0.0
O594 O 0.1556 0.70511 -0.00231 0.0
C595 C 0.1597 0.73849 0.16042 0.0
O596 O 0.18408 0.72626 -0.00227 0.0
H597 H 0.21883 0.72841 0.22139 0.0
H598 H 0.12443 0.70252 0.04809 0.0
H599 H 0.20507 0.75963 0.06038 0.0
O600 O 0.14798 0.72198 0.15047 0.0
O601 O 0.17631 0.74327 0.1548 0.0
H602 H 0.12771 0.66095 0.18007 0.0
O603 O 0.18299 0.71935 0.2684 0.0
O604 O 0.15417 0.69856 0.26598 0.0
O605 O 0.19072 0.7024 0.11685 0.0
O606 O 0.16188 0.68179 0.11362 0.0
C607 C 0.16864 0.70834 0.30814 0.0
H608 H 0.09269 0.68239 0.01587 0.0
H609 H 0.0955 0.63938 0.14685 0.0
H610 H 0.25001 0.75419 0.23767 0.0
H611 H 0.23552 0.78589 0.07536 0.0
H612 H 0.14143 0.4141 0.40245 0.0
H613 H 0.14191 0.39108 0.15481 0.0
H614 H 0.12836 0.38441 0.46892 0.0
H615 H 0.1287 0.36111 0.22176 0.0
H616 H 0.11173 0.31026 0.38913 0.0
H617 H 0.13199 0.34098 0.33601 0.0
H618 H 0.09711 0.35849 0.44815 0.0
H619 H 0.077 0.32807 0.50025 0.0
C620 C 0.13894 0.40267 0.36246 0.0
C621 C 0.14233 0.4048 0.27315 0.0
C622 C 0.13148 0.38569 0.40055 0.0
C623 C 0.12724 0.3704 0.35031 0.0
C624 C 0.13188 0.37268 0.2621 0.0
C625 C 0.1394 0.38979 0.22374 0.0
C626 C 0.10865 0.32081 0.4038 0.0
C627 C 0.09281 0.31681 0.4489 0.0
C628 C 0.12014 0.3383 0.37278 0.0
C629 C 0.11614 0.35212 0.38797 0.0
C630 C 0.10069 0.3482 0.43623 0.0
C631 C 0.08912 0.33075 0.46586 0.0
H632 H 0.7727 0.79019 0.46203 0.0
H633 H 0.78835 0.84473 0.3876 0.0
H634 H 0.7435 0.77926 0.39393 0.0
H635 H 0.75874 0.83358 0.31871 0.0
H636 H 0.69339 0.80018 0.28354 0.0
H637 H 0.72358 0.81623 0.34985 0.0
H638 H 0.73621 0.77796 0.23418 0.0
H639 H 0.70633 0.76208 0.16865 0.0
C640 C 0.76983 0.79991 0.43216 0.0
C641 C 0.78296 0.81832 0.42936 0.0
C642 C 0.75311 0.79361 0.39261 0.0
C643 C 0.74903 0.80552 0.34923 0.0
C644 C 0.76161 0.82411 0.35129 0.0
C645 C 0.7785 0.83047 0.39094 0.0
C646 C 0.70286 0.79557 0.27053 0.0
C647 C 0.6975 0.77978 0.22195 0.0
C648 C 0.72006 0.80468 0.30869 0.0
C649 C 0.73203 0.79805 0.29878 0.0
C650 C 0.72709 0.7831 0.24464 0.0
C651 C 0.71004 0.77408 0.20674 0.0
H652 H 0.25606 0.9876 0.3851 0.0
H653 H 0.30971 0.0259 0.47464 0.0
H654 H 0.268 0.96997 0.31493 0.0
H655 H 0.32144 0.0084 0.40577 0.0
H656 H 0.34117 0.99102 0.18007 0.0
H657 H 0.32492 1.00434 0.24799 0.0
H658 H 0.28463 0.95187 0.34095 0.0
H659 H 0.30104 0.93843 0.27196 0.0
C660 C 0.27027 0.992 0.39165 0.0
C661 C 0.28198 1.00825 0.43448 0.0
C662 C 0.2771 0.98196 0.35123 0.0
C663 C 0.29572 0.98808 0.35305 0.0
C664 C 0.30711 1.00361 0.40122 0.0
C665 C 0.30035 0.01357 0.44127 0.0
C666 C 0.3287 0.98228 0.21385 0.0
C667 C 0.32248 0.96375 0.22172 0.0
C668 C 0.31945 0.9899 0.25318 0.0
C669 C 0.30376 0.9792 0.30163 0.0
C670 C 0.29674 0.96044 0.30436 0.0
C671 C 0.30607 0.95275 0.26466 0.0
H672 H 0.37289 0.0942 0.51058 0.0
H673 H 0.35994 0.13234 0.62473 0.0
H674 H 0.40261 0.10985 0.57775 0.0
H675 H 0.38993 0.14815 0.69293 0.0
H676 H 0.45434 0.17667 0.73498 0.0
H677 H 0.42481 0.16548 0.66536 0.0
H678 H 0.41004 0.11104 0.73575 0.0
H679 H 0.43921 0.12201 0.80435 0.0
C680 C 0.37657 0.10615 0.54894 0.0
C681 C 0.36408 0.11195 0.56332 0.0
C682 C 0.39351 0.11505 0.58786 0.0
C683 C 0.3984 0.12994 0.64233 0.0
C684 C 0.38647 0.13664 0.65158 0.0
C685 C 0.36938 0.12767 0.61233 0.0
C686 C 0.4446 0.16237 0.73712 0.0
C687 C 0.44919 0.1502 0.77426 0.0
C688 C 0.42775 0.15598 0.69704 0.0
C689 C 0.41534 0.13736 0.69332 0.0
C690 C 0.41953 0.12542 0.73558 0.0
C691 C 0.43622 0.13174 0.77547 0.0
H692 H 0.97356 0.35589 0.82899 0.0
H693 H 0.92122 0.32025 0.71754 0.0
H694 H 0.98444 0.3362 0.77778 0.0
H695 H 0.93225 0.30038 0.66534 0.0
H696 H 0.97305 0.29088 0.48647 0.0
H697 H 0.95591 0.30385 0.55192 0.0
H698 H 0.97971 0.30529 0.79984 0.0
H699 H 0.99672 0.29247 0.73487 0.0
C700 C 0.96428 0.34366 0.79468 0.0
C701 C 0.94654 0.33959 0.7774 0.0
C702 C 0.97049 0.33233 0.76557 0.0
C703 C 0.95919 0.31672 0.71755 0.0
C704 C 0.94126 0.31235 0.70195 0.0
C705 C 0.93492 0.32361 0.73243 0.0
C706 C 0.97425 0.29361 0.55524 0.0
C707 C 0.98648 0.29105 0.60524 0.0
C708 C 0.96444 0.30098 0.59275 0.0
C709 C 0.96671 0.30584 0.68074 0.0
C710 C 0.97795 0.30201 0.73159 0.0
C711 C 0.9877 0.2947 0.69434 0.0
H712 H 0.77665 0.72685 0.5033 0.0
H713 H 0.82795 0.73884 0.61136 0.0
H714 H 0.76245 0.6969 0.56758 0.0
H715 H 0.81362 0.70862 0.67676 0.0
H716 H 0.77753 0.64438 0.71569 0.0
H717 H 0.79578 0.674 0.64703 0.0
H718 H 0.75647 0.68882 0.72441 0.0
H719 H 0.73837 0.65957 0.79198 0.0
C720 C 0.78494 0.72292 0.53973 0.0
C721 C 0.80333 0.7352 0.55326 0.0
C722 C 0.7768 0.70584 0.57699 0.0
C723 C 0.78685 0.70061 0.62898 0.0
C724 C 0.80555 0.71235 0.6373 0.0
C725 C 0.81375 0.72957 0.59967 0.0
C726 C 0.77301 0.65414 0.7194 0.0
C727 C 0.7564 0.64955 0.75837 0.0
C728 C 0.78342 0.67103 0.67991 0.0
C729 C 0.77731 0.68351 0.67859 0.0
C730 C 0.76129 0.67929 0.72236 0.0
C731 C 0.75098 0.66255 0.76167 0.0
H732 H 0.0299 0.76771 0.48095 0.0
H733 H 0.99141 0.78314 0.56556 0.0
H734 H 1.01202 0.73841 0.54844 0.0
H735 H 0.97337 0.75346 0.63422 0.0
H736 H 0.94148 0.68855 0.67245 0.0
H737 H 0.95528 0.71861 0.60547 0.0
H738 H 1.0072 0.73076 0.70645 0.0
H739 H 0.99353 0.701 0.77239 0.0
C740 C 0.01746 0.76475 0.51295 0.0
C741 C 1.01219 0.77783 0.51876 0.0
C742 C 1.00727 0.74798 0.55219 0.0
C743 C 0.99155 0.74383 0.5985 0.0
C744 C 0.9855 0.75637 0.59936 0.0
C745 C 0.99578 0.7733 0.55981 0.0
C746 C 0.95574 0.69788 0.68197 0.0
C747 C 0.96651 0.69242 0.72657 0.0
C748 C 0.96363 0.71501 0.64344 0.0
C749 C 0.98237 0.72682 0.64899 0.0
C750 C 0.9928 0.72177 0.69914 0.0
C751 C 0.98497 0.70478 0.73733 0.0
H752 H 0.33048 0.30479 0.47989 0.0
H753 H 0.31522 0.25026 0.55262 0.0
H754 H 0.35968 0.31585 0.54825 0.0
H755 H 0.3448 0.26154 0.62199 0.0
H756 H 0.40983 0.29492 0.66115 0.0
H757 H 0.3798 0.27891 0.5934 0.0
H758 H 0.36702 0.31726 0.70695 0.0
H759 H 0.39676 0.33311 0.77373 0.0
C760 C 0.33345 0.2951 0.50945 0.0
C761 C 0.32044 0.27666 0.5117 0.0
C762 C 0.35016 0.30148 0.54918 0.0
C763 C 0.35433 0.28961 0.59232 0.0
C764 C 0.34187 0.27099 0.58962 0.0
C765 C 0.325 0.26455 0.54967 0.0
C766 C 0.40036 0.29956 0.6733 0.0
C767 C 0.40564 0.31536 0.72169 0.0
C768 C 0.38325 0.29048 0.63432 0.0
C769 C 0.37128 0.29713 0.64324 0.0
C770 C 0.37614 0.3121 0.69713 0.0
C771 C 0.39311 0.32111 0.73579 0.0
H772 H 0.79605 0.13551 0.78947 0.0
H773 H 0.7705 0.13271 0.54503 0.0
H774 H 0.81281 0.12239 0.72156 0.0
H775 H 0.78711 0.11972 0.47764 0.0
H776 H 0.79414 0.06971 0.44574 0.0
H777 H 0.78313 0.08917 0.49893 0.0
H778 H 0.83571 0.12571 0.60551 0.0
H779 H 0.84686 0.10609 0.55155 0.0
C780 C 0.79433 0.13247 0.72101 0.0
C781 C 0.7817 0.13476 0.67294 0.0
C782 C 0.80392 0.125 0.68209 0.0
C783 C 0.80103 0.11976 0.59457 0.0
C784 C 0.78935 0.12327 0.54553 0.0
C785 C 0.77983 0.13069 0.58418 0.0
C786 C 0.80346 0.08204 0.47917 0.0
C787 C 0.82136 0.08638 0.49433 0.0
C788 C 0.79717 0.09324 0.50945 0.0
C789 C 0.80856 0.10898 0.55649 0.0
C790 C 0.82662 0.11362 0.56982 0.0
C791 C 0.83303 0.10249 0.53827 0.0
H792 H 0.65832 0.97065 0.24295 0.0
H793 H 0.65297 0.91974 0.1637 0.0
H794 H 0.68758 0.9796 0.306 0.0
H795 H 0.68287 0.92913 0.22597 0.0
H796 H 0.74808 0.97332 0.24901 0.0
H797 H 0.717 0.95736 0.19384 0.0
H798 H 0.69814 0.96677 0.43632 0.0
H799 H 0.72918 0.98244 0.49166 0.0
C800 C 0.66345 0.96141 0.23808 0.0
C801 C 0.65329 0.94447 0.19799 0.0
C802 C 0.68016 0.9665 0.27512 0.0
C803 C 0.68732 0.95494 0.2719 0.0
C804 C 0.67752 0.9382 0.2297 0.0
C805 C 0.6605 0.93289 0.19391 0.0
C806 C 0.73715 0.97135 0.29127 0.0
C807 C 0.74084 0.9789 0.37458 0.0
C808 C 0.71943 0.96226 0.25984 0.0
C809 C 0.70526 0.96095 0.31076 0.0
C810 C 0.70888 0.96765 0.39587 0.0
C811 C 0.72654 0.97648 0.42769 0.0
H812 H 0.0975 0.77209 0.44769 0.0
H813 H 0.13633 0.82301 0.33471 0.0
H814 H 0.11307 0.75774 0.38283 0.0
H815 H 0.15202 0.80852 0.26871 0.0
H816 H 0.18024 0.77268 0.22807 0.0
H817 H 0.16902 0.791 0.29743 0.0
H818 H 0.11458 0.75111 0.22645 0.0
H819 H 0.12559 0.73293 0.15818 0.0
C820 C 0.10958 0.78027 0.41007 0.0
C821 C 0.1156 0.79859 0.39535 0.0
C822 C 0.11842 0.77204 0.37246 0.0
C823 C 0.13349 0.78192 0.31894 0.0
C824 C 0.14039 0.80058 0.30938 0.0
C825 C 0.13148 0.80887 0.34735 0.0
C826 C 0.16593 0.76804 0.22595 0.0
C827 C 0.15378 0.75125 0.18851 0.0
C828 C 0.15952 0.77849 0.26584 0.0
C829 C 0.1409 0.77225 0.26912 0.0
C830 C 0.12896 0.75603 0.22698 0.0
C831 C 0.13531 0.74568 0.18725 0.0
H832 H 0.36134 0.43383 0.13502 0.0
H833 H 0.32402 0.45007 0.22867 0.0
H834 H 0.34331 0.40445 0.20168 0.0
H835 H 0.30581 0.42029 0.29602 0.0
H836 H 0.27358 0.3549 0.3303 0.0
H837 H 0.2872 0.38494 0.26321 0.0
H838 H 0.33927 0.39741 0.36319 0.0
H839 H 0.32579 0.36773 0.42986 0.0
C840 C 0.3491 0.43103 0.16863 0.0
C841 C 0.34424 0.44438 0.17747 0.0
C842 C 0.33883 0.41421 0.20729 0.0
C843 C 0.32342 0.41027 0.25577 0.0
C844 C 0.31771 0.42305 0.2594 0.0
C845 C 0.32808 0.44004 0.2206 0.0
C846 C 0.28784 0.36429 0.33966 0.0
C847 C 0.2987 0.35893 0.38417 0.0
C848 C 0.29562 0.3814 0.30103 0.0
C849 C 0.31434 0.39328 0.30632 0.0
C850 C 0.32487 0.38834 0.35626 0.0
C851 C 0.31715 0.37139 0.39475 0.0
H852 H 0.02606 0.46495 0.95231 0.0
H853 H 0.03836 0.42558 0.84785 0.0
H854 H 0.05617 0.48105 0.01932 0.0
H855 H 0.06817 0.44151 0.91393 0.0
H856 H 0.10526 0.45534 0.1397 0.0
H857 H 0.07595 0.44399 0.07197 0.0
H858 H 0.09097 0.49789 -0.0099 0.0
H859 H 0.12064 0.50945 0.05883 0.0
C860 C 0.03537 0.46004 0.94181 0.0
C861 C 0.02985 0.44391 0.89591 0.0
C862 C 0.05253 0.46919 -0.01962 0.0
C863 C 0.06431 0.46226 0.97357 0.0
C864 C 0.0592 0.4469 0.92219 0.0
C865 C 0.04219 0.43783 0.88392 0.0
C866 C 0.1023 0.46488 0.10847 0.0
C867 C 0.11538 0.48327 0.10381 0.0
C868 C 0.08553 0.45834 0.06909 0.0
C869 C 0.08136 0.46999 0.0239 0.0
C870 C 0.0939 0.4886 0.0241 0.0
C871 C 0.11083 0.4952 0.06366 0.0
H872 H 0.67016 0.65405 0.8285 0.0
H873 H 0.63237 0.60359 0.9486 0.0
H874 H 0.65467 0.66846 0.89369 0.0
H875 H 0.61677 0.61814 0.01504 0.0
H876 H 0.58853 0.65407 0.05742 0.0
H877 H 0.59937 0.6355 -0.01282 0.0
H878 H 0.65419 0.67564 0.05072 0.0
H879 H 0.64356 0.69405 0.11991 0.0
C880 C 0.65829 0.64597 0.86759 0.0
C881 C 0.65255 0.62778 0.88427 0.0
C882 C 0.6495 0.65423 0.90543 0.0
C883 C 0.63479 0.64452 0.96118 0.0
C884 C 0.62812 0.62594 0.97262 0.0
C885 C 0.63697 0.61762 0.9344 0.0
C886 C 0.60286 0.65872 0.05775 0.0
C887 C 0.61521 0.67564 0.09334 0.0
C888 C 0.60904 0.64812 0.01734 0.0
C889 C 0.62764 0.65435 0.01167 0.0
C890 C 0.6398 0.67071 0.05203 0.0
C891 C 0.63368 0.6812 0.09229 0.0
H892 H 0.47577 0.05832 0.81525 0.0
H893 H 0.4767 0.08063 0.06671 0.0
H894 H 0.46263 0.02812 0.87943 0.0
H895 H 0.46383 0.05072 0.13068 0.0
H896 H 0.41228 0.9948 0.16347 0.0
H897 H 0.43261 0.02529 0.11352 0.0
H898 H 0.46569 1.00713 -0.01281 0.0
H899 H 0.44514 0.97629 0.03791 0.0
C900 C 0.4736 0.05681 0.88441 0.0
C901 C 0.4769 0.07169 0.93583 0.0
C902 C 0.46613 0.03957 0.92121 0.0
C903 C 0.46193 0.03703 0.0099 0.0
C904 C 0.46658 0.05219 0.06195 0.0
C905 C 0.47395 0.0693 0.02534 0.0
C906 C 0.42406 0.99733 0.12639 0.0
C907 C 0.42712 0.98316 0.10466 0.0
C908 C 0.43577 0.01484 0.09802 0.0
C909 C 0.45078 0.01863 0.0464 0.0
C910 C 0.4542 1.00458 0.02659 0.0
C911 C 0.44254 0.987 0.05622 0.0
H912 H 0.65717 0.11666 0.89426 0.0
H913 H 0.69226 0.09871 0.78901 0.0
H914 H 0.63687 0.08608 0.94879 0.0
H915 H 0.67216 0.06845 0.84272 0.0
H916 H 0.62818 0.0129 0.89064 0.0
H917 H 0.64132 0.04239 0.82195 0.0
H918 H 0.63955 0.06622 0.06526 0.0
H919 H 0.62618 0.03643 0.13427 0.0
C920 C 0.66034 0.10612 0.88121 0.0
C921 C 0.67628 0.11005 0.83728 0.0
C922 C 0.64882 0.08869 0.91306 0.0
C923 C 0.65291 0.07487 0.9 0.0
C924 C 0.66849 0.07873 0.85299 0.0
C925 C 0.68006 0.0961 0.82243 0.0
C926 C 0.63035 0.0244 0.92922 0.0
C927 C 0.62649 0.02248 0.0181 0.0
C928 C 0.63788 0.04127 0.8899 0.0
C929 C 0.64176 0.05666 0.93849 0.0
C930 C 0.63666 0.05457 0.02613 0.0
C931 C 0.62905 0.03757 0.06568 0.0
H932 H 0.0635 0.66501 0.10715 0.0
H933 H 0.07645 0.62664 -0.00437 0.0
H934 H 0.03374 0.64914 0.04054 0.0
H935 H 0.04636 0.61059 0.92823 0.0
H936 H 0.9813 0.58247 0.89113 0.0
H937 H 1.01094 0.59345 0.95956 0.0
H938 H 0.02694 0.64767 0.8792 0.0
H939 H 0.99772 0.63691 0.81154 0.0
C940 C 0.05981 0.65295 0.06961 0.0
C941 C 0.07232 0.64716 0.05563 0.0
C942 C 0.04283 0.64393 0.03109 0.0
C943 C 0.03793 0.62891 -0.02246 0.0
C944 C 0.04986 0.6222 0.96889 0.0
C945 C 0.067 0.63131 0.00767 0.0
C946 C 0.99134 0.59666 0.88639 0.0
C947 C 0.98709 0.60887 0.84689 0.0
C948 C 1.00824 0.60292 0.9258 0.0
C949 C 0.02102 0.62146 0.92644 0.0
C950 C 0.01717 0.63337 0.88157 0.0
C951 C 1.00045 0.62717 0.84231 0.0
H952 H 0.42953 0.43808 0.10227 0.0
H953 H 0.4697 0.49016 0.00533 0.0
H954 H 0.44557 0.42433 0.03642 0.0
H955 H 0.48588 0.47627 0.93819 0.0
H956 H 0.51404 0.44014 0.89656 0.0
H957 H 0.50239 0.45815 0.9656 0.0
H958 H 0.44865 0.41948 0.8794 0.0
H959 H 0.46008 0.40161 0.81167 0.0
C960 C 0.44199 0.44662 0.06792 0.0
C961 C 0.44828 0.46512 0.05801 0.0
C962 C 0.45111 0.43875 0.02971 0.0
C963 C 0.46673 0.44916 -0.01971 0.0
C964 C 0.47383 0.46792 -0.02442 0.0
C965 C 0.46463 0.47586 0.01421 0.0
C966 C 0.49982 0.43576 0.89084 0.0
C967 C 0.48793 0.41935 0.8496 0.0
C968 C 0.49316 0.44602 0.9306 0.0
C969 C 0.47455 0.43996 0.92974 0.0
C970 C 0.46298 0.42423 0.88323 0.0
C971 C 0.46957 0.41406 0.84383 0.0
H972 H 0.12587 0.23355 0.58768 0.0
H973 H 0.12764 0.24589 0.31636 0.0
H974 H 0.15424 0.23332 0.57334 0.0
H975 H 0.15612 0.24583 0.30216 0.0
H976 H 0.21822 0.27419 0.37245 0.0
H977 H 0.18723 0.26827 0.36929 0.0
H978 H 0.16908 0.21696 0.49404 0.0
H979 H 0.2002 0.22274 0.49602 0.0
C980 C 0.13221 0.23592 0.52475 0.0
C981 C 0.12464 0.2398 0.45318 0.0
C982 C 0.14835 0.23569 0.51645 0.0
C983 C 0.15738 0.23963 0.43672 0.0
C984 C 0.14945 0.24281 0.36439 0.0
C985 C 0.13313 0.24274 0.37239 0.0
C986 C 0.2076 0.26154 0.3983 0.0
C987 C 0.21163 0.24895 0.43479 0.0
C988 C 0.18986 0.25811 0.39593 0.0
C989 C 0.17578 0.24215 0.4313 0.0
C990 C 0.17971 0.22938 0.46644 0.0
C991 C 0.19747 0.23266 0.46731 0.0
H992 H 0.87612 0.02052 0.49669 0.0
H993 H 0.825 0.98686 0.36983 0.0
H994 H 0.88203 0.99527 0.49563 0.0
H995 H 0.83108 0.96191 0.3674 0.0
H996 H 0.85438 0.92545 0.31403 0.0
H997 H 0.85431 0.95393 0.30083 0.0
H998 H 0.86513 0.96361 0.57391 0.0
H999 H 0.86499 0.93504 0.58729 0.0
C1000 C 0.8663 1.00784 0.46751 0.0
C1001 C 0.85006 1.00561 0.43372 0.0
C1002 C 0.86966 0.99342 0.46715 0.0
C1003 C 0.85703 0.9767 0.43114 0.0
C1004 C 0.84112 0.97471 0.39472 0.0
C1005 C 0.8376 0.98895 0.39667 0.0
C1006 C 0.85713 0.93387 0.37075 0.0
C1007 C 0.85962 0.92806 0.45172 0.0
C1008 C 0.85699 0.95007 0.3633 0.0
C1009 C 0.85966 0.96089 0.43642 0.0
C1010 C 0.86317 0.95557 0.51647 0.0
C1011 C 0.86299 0.93922 0.5242 0.0
H1012 H 0.11209 0.87985 0.37855 0.0
H1013 H 0.07912 0.89814 0.50503 0.0
H1014 H 0.13726 0.9108 0.3742 0.0
H1015 H 0.10458 0.92923 0.50193 0.0
H1016 H 0.16482 0.97259 0.59095 0.0
H1017 H 0.13618 0.94413 0.57897 0.0
H1018 H 0.1457 0.94186 0.30656 0.0
H1019 H 0.17426 0.97044 0.31839 0.0
C1020 C 0.11019 0.89052 0.40485 0.0
C1021 C 0.09366 0.88658 0.44242 0.0
C1022 C 0.12456 0.90824 0.4018 0.0
C1023 C 0.12284 0.92238 0.4376 0.0
C1024 C 0.10624 0.91854 0.47398 0.0
C1025 C 0.09169 0.9008 0.47548 0.0
C1026 C 0.1606 0.96614 0.5283 0.0
C1027 C 0.17174 0.97365 0.45563 0.0
C1028 C 0.1442 0.94994 0.52135 0.0
C1029 C 0.13879 0.9408 0.44192 0.0
C1030 C 0.14961 0.94864 0.36859 0.0
C1031 C 0.16587 0.965 0.37523 0.0
H1032 H 0.23894 0.15953 0.35749 0.0
H1033 H 0.2502 0.16963 0.63007 0.0
H1034 H 0.23882 0.13099 0.37144 0.0
H1035 H 0.25027 0.14116 0.64387 0.0
H1036 H 0.279 0.10768 0.57559 0.0
H1037 H 0.27306 0.13272 0.57822 0.0
H1038 H 0.2221 0.09958 0.44961 0.0
H1039 H 0.22788 0.07425 0.44823 0.0
C1040 C 0.24111 0.15548 0.42056 0.0
C1041 C 0.24463 0.16677 0.49266 0.0
C1042 C 0.24094 0.13914 0.42863 0.0
C1043 C 0.2446 0.13394 0.50866 0.0
C1044 C 0.24747 0.14491 0.58141 0.0
C1045 C 0.24732 0.16111 0.57363 0.0
C1046 C 0.26642 0.10564 0.54879 0.0
C1047 C 0.25393 0.08903 0.51144 0.0
C1048 C 0.26298 0.11995 0.55083 0.0
C1049 C 0.24712 0.11806 0.51422 0.0
C1050 C 0.23444 0.10136 0.47817 0.0
C1051 C 0.23772 0.08689 0.47767 0.0
H1052 H 0.93871 0.12267 0.35379 0.0
H1053 H 0.92825 0.12435 0.62548 0.0
H1054 H 0.96727 0.15114 0.3681 0.0
H1055 H 0.95673 0.15295 0.6396 0.0
H1056 H 0.99108 0.21508 0.57114 0.0
H1057 H 0.96564 0.18424 0.57232 0.0
H1058 H 0.99853 0.16559 0.4487 0.0
H1059 H 0.02423 0.19653 0.44879 0.0
C1060 C 0.94268 0.12903 0.41672 0.0
C1061 C 0.9313 0.12138 0.48849 0.0
C1062 C 0.95903 0.14523 0.42501 0.0
C1063 C 0.96414 0.15423 0.50488 0.0
C1064 C 0.95304 0.14628 0.57727 0.0
C1065 C 0.93684 0.12991 0.56931 0.0
C1066 C 0.99296 0.20438 0.54503 0.0
C1067 C 1.00962 0.20821 0.50963 0.0
C1068 C 0.97843 0.18673 0.54624 0.0
C1069 C 0.98015 0.17257 0.51071 0.0
C1070 C 0.99687 0.1763 0.47637 0.0
C1071 C 1.01156 0.19396 0.47671 0.0
H1072 H 0.97765 0.86027 0.36317 0.0
H1073 H 0.97493 0.84776 0.63467 0.0
H1074 H 0.94922 0.86047 0.37473 0.0
H1075 H 0.94636 0.84773 0.64602 0.0
H1076 H 0.88446 0.81944 0.56893 0.0
H1077 H 0.91539 0.82518 0.57438 0.0
H1078 H 0.93429 0.87707 0.45442 0.0
H1079 H 0.90324 0.87148 0.45038 0.0
C1080 C 0.97109 0.85785 0.42552 0.0
C1081 C 0.97841 0.85396 0.49799 0.0
C1082 C 0.95491 0.85806 0.43224 0.0
C1083 C 0.9456 0.85405 0.51119 0.0
C1084 C 0.95326 0.85081 0.58438 0.0
C1085 C 0.96962 0.85092 0.57801 0.0
C1086 C 0.89523 0.83216 0.5446 0.0
C1087 C 0.89144 0.84499 0.50896 0.0
C1088 C 0.91293 0.83549 0.54827 0.0
C1089 C 0.9272 0.85158 0.51496 0.0
C1090 C 0.9235 0.86456 0.48047 0.0
C1091 C 0.90578 0.86138 0.47842 0.0
H1092 H 0.86656 0.55581 0.74391 0.0
H1093 H 0.88585 0.61044 0.83149 0.0
H1094 H 0.83539 0.55018 0.74712 0.0
H1095 H 0.85498 0.60463 0.83641 0.0
H1096 H 0.79772 0.57994 0.94143 0.0
H1097 H 0.82636 0.58034 0.93446 0.0
H1098 H 0.81784 0.56693 0.66345 0.0
H1099 H 0.78935 0.56722 0.66891 0.0
C1100 C 0.86416 0.56656 0.76378 0.0
C1101 C 0.87865 0.58356 0.78738 0.0
C1102 C 0.84639 0.56334 0.76537 0.0
C1103 C 0.84289 0.57695 0.79259 0.0
C1104 C 0.85736 0.59389 0.81585 0.0
C1105 C 0.87503 0.59722 0.81259 0.0
C1106 C 0.80186 0.57702 0.88022 0.0
C1107 C 0.7914 0.57395 0.80527 0.0
C1108 C 0.81819 0.57712 0.87656 0.0
C1109 C 0.82429 0.57382 0.79832 0.0
C1110 C 0.81333 0.56944 0.72459 0.0
C1111 C 0.79702 0.56957 0.72791 0.0
H1112 H 0.49054 0.31973 0.70853 0.0
H1113 H 0.54172 0.353 0.83562 0.0
H1114 H 0.49638 0.29462 0.70545 0.0
H1115 H 0.54741 0.32761 0.83378 0.0
H1116 H 0.53041 0.26762 0.92564 0.0
H1117 H 0.53062 0.29621 0.91187 0.0
H1118 H 0.51907 0.28608 0.63949 0.0
H1119 H 0.51905 0.25755 0.65312 0.0
C1120 C 0.50311 0.32171 0.73518 0.0
C1121 C 0.51565 0.3383 0.77261 0.0
C1122 C 0.50649 0.30738 0.73287 0.0
C1123 C 0.52235 0.3092 0.76928 0.0
C1124 C 0.53507 0.32588 0.80538 0.0
C1125 C 0.53184 0.34038 0.80615 0.0
C1126 C 0.52823 0.27169 0.86262 0.0
C1127 C 0.52465 0.26039 0.79049 0.0
C1128 C 0.52846 0.28806 0.85465 0.0
C1129 C 0.5248 0.29328 0.77468 0.0
C1130 C 0.52187 0.28231 0.7019 0.0
C1131 C 0.52196 0.26608 0.70959 0.0
H1132 H 0.77842 0.21161 0.71306 0.0
H1133 H 0.74488 0.23025 0.83053 0.0
H1134 H 0.8037 0.24254 0.70988 0.0
H1135 H 0.7704 0.26126 0.82857 0.0
H1136 H 0.82991 0.30515 0.9217 0.0
H1137 H 0.80155 0.27643 0.90917 0.0
H1138 H 0.81242 0.27345 0.63912 0.0
H1139 H 0.84071 0.3023 0.65147 0.0
C1140 C 0.77642 0.22234 0.73772 0.0
C1141 C 0.75969 0.2185 0.77228 0.0
C1142 C 0.79086 0.24005 0.73534 0.0
C1143 C 0.78897 0.25427 0.76884 0.0
C1144 C 0.77219 0.25051 0.80246 0.0
C1145 C 0.75761 0.2328 0.80331 0.0
C1146 C 0.82605 0.29848 0.8594 0.0
C1147 C 0.83747 0.30588 0.78757 0.0
C1148 C 0.80982 0.28213 0.85213 0.0
C1149 C 0.80487 0.27272 0.77327 0.0
C1150 C 0.81599 0.28042 0.70072 0.0
C1151 C 0.83207 0.29695 0.70762 0.0
H1152 H 0.90431 0.49242 0.69448 0.0
H1153 H 0.9169 0.50257 0.96598 0.0
H1154 H 0.90437 0.46393 0.70636 0.0
H1155 H 0.91715 0.47417 -0.0223 0.0
H1156 H 0.94545 0.44059 0.90422 0.0
H1157 H 0.93964 0.46572 0.90825 0.0
H1158 H 0.88809 0.43256 0.78472 0.0
H1159 H 0.89374 0.40715 0.78193 0.0
C1160 C 0.9068 0.48838 0.75691 0.0
C1161 C 0.91064 0.49967 0.82928 0.0
C1162 C 0.90674 0.47208 0.76381 0.0
C1163 C 0.91084 0.46692 0.84286 0.0
C1164 C 0.91402 0.47789 0.91595 0.0
C1165 C 0.91376 0.49405 0.90939 0.0
C1166 C 0.93279 0.43858 0.87871 0.0
C1167 C 0.92007 0.42193 0.8425 0.0
C1168 C 0.92942 0.45293 0.88157 0.0
C1169 C 0.91341 0.45105 0.84696 0.0
C1170 C 0.90055 0.43434 0.81176 0.0
C1171 C 0.90376 0.41982 0.81042 0.0
H1172 H 0.59517 0.45692 0.96678 0.0
H1173 H 0.6052 0.45453 0.69512 0.0
H1174 H 0.62371 0.48552 -0.02087 0.0
H1175 H 0.63383 0.483 0.70768 0.0
H1176 H 0.6907 0.52914 0.78397 0.0
H1177 H 0.66533 0.49799 0.78765 0.0
H1178 H 0.63209 0.5165 0.90873 0.0
H1179 H 0.65716 0.54751 0.90363 0.0
C1180 C 0.6037 0.46231 0.91029 0.0
C1181 C 0.598 0.4536 0.82994 0.0
C1182 C 0.61994 0.47868 0.91724 0.0
C1183 C 0.63091 0.48645 0.8443 0.0
C1184 C 0.62568 0.47723 0.765 0.0
C1185 C 0.60929 0.46103 0.75772 0.0
C1186 C 0.67803 0.52648 0.81227 0.0
C1187 C 0.67586 0.54073 0.84314 0.0
C1188 C 0.66354 0.50872 0.81409 0.0
C1189 C 0.64681 0.50489 0.84869 0.0
C1190 C 0.64489 0.51906 0.88251 0.0
C1191 C 0.65921 0.53681 0.87906 0.0
H1192 H 0.64221 0.1818 0.96833 0.0
H1193 H 0.64383 0.19382 0.69668 0.0
H1194 H 0.61385 0.18209 -0.01728 0.0
H1195 H 0.61558 0.19427 0.7112 0.0
H1196 H 0.56968 0.20498 0.78808 0.0
H1197 H 0.60081 0.21077 0.79009 0.0
H1198 H 0.58271 0.15961 0.91616 0.0
H1199 H 0.55173 0.15367 0.91296 0.0
C1200 C 0.63672 0.18493 0.91226 0.0
C1201 C 0.64512 0.18771 0.83132 0.0
C1202 C 0.62048 0.185 0.92037 0.0
C1203 C 0.61253 0.18814 0.84799 0.0
C1204 C 0.62148 0.19194 0.76812 0.0
C1205 C 0.63756 0.19158 0.75971 0.0
C1206 C 0.57242 0.1951 0.8171 0.0
C1207 C 0.55828 0.17883 0.84995 0.0
C1208 C 0.59019 0.19839 0.81799 0.0
C1209 C 0.59413 0.18565 0.85351 0.0
C1210 C 0.58007 0.16973 0.88924 0.0
C1211 C 0.56233 0.16629 0.88683 0.0
H1212 H 0.53324 0.88926 0.17005 0.0
H1213 H 0.55095 0.94047 0.04463 0.0
H1214 H 0.50195 0.88293 0.16434 0.0
H1215 H 0.5198 0.93399 0.03776 0.0
H1216 H 0.46037 0.91086 -0.02084 0.0
H1217 H 0.48906 0.91111 0.96837 0.0
H1218 H 0.48637 0.89892 0.24031 0.0
H1219 H 0.45781 0.89885 0.25122 0.0
C1220 C 0.53042 0.89901 0.14016 0.0
C1221 C 0.54453 0.9154 0.1082 0.0
C1222 C 0.51256 0.89541 0.13714 0.0
C1223 C 0.50849 0.90795 0.10036 0.0
C1224 C 0.52253 0.92401 0.06561 0.0
C1225 C 0.54037 0.92776 0.07013 0.0
C1226 C 0.46572 0.90782 0.03605 0.0
C1227 C 0.45695 0.9049 0.11608 0.0
C1228 C 0.48215 0.90808 0.03002 0.0
C1229 C 0.48993 0.90511 0.10359 0.0
C1230 C 0.48061 0.90113 0.1825 0.0
C1231 C 0.46435 0.90117 0.18884 0.0
H1232 H 0.2092 0.68635 0.16118 0.0
H1233 H 0.15751 0.65272 0.03911 0.0
H1234 H 0.215 0.66103 0.1583 0.0
H1235 H 0.16348 0.62769 0.03478 0.0
H1236 H 0.18608 0.59061 -0.01918 0.0
H1237 H 0.18628 0.61922 0.96664 0.0
H1238 H 0.19811 0.62961 0.23866 0.0
H1239 H 0.19767 0.60091 0.25304 0.0
C1240 C 0.19925 0.67367 0.13244 0.0
C1241 C 0.18287 0.67145 0.10077 0.0
C1242 C 0.20254 0.65922 0.13107 0.0
C1243 C 0.1897 0.64246 0.09611 0.0
C1244 C 0.17368 0.64052 0.06129 0.0
C1245 C 0.17022 0.6548 0.0643 0.0
C1246 C 0.1891 0.59922 0.03705 0.0
C1247 C 0.1918 0.59358 0.11807 0.0
C1248 C 0.18912 0.6155 0.02905 0.0
C1249 C 0.19218 0.62656 0.10161 0.0
C1250 C 0.19587 0.62139 0.18162 0.0
C1251 C 0.19552 0.60496 0.18994 0.0
H1252 H 0.50406 0.63451 0.2777 0.0
H1253 H 0.50047 0.64219 0.00396 0.0
H1254 H 0.47588 0.60579 0.27035 0.0
H1255 H 0.47175 0.6136 -0.00201 0.0
H1256 H 0.41187 0.56484 0.07251 0.0
H1257 H 0.43734 0.59606 0.07635 0.0
H1258 H 0.47173 0.57699 0.17749 0.0
H1259 H 0.44673 0.54607 0.17207 0.0
C1260 C 0.49718 0.6302 0.21611 0.0
C1261 C 0.50477 0.6405 0.14101 0.0
C1262 C 0.48099 0.61382 0.21221 0.0
C1263 C 0.47181 0.60748 0.13351 0.0
C1264 C 0.47859 0.61829 0.05948 0.0
C1265 C 0.495 0.63465 0.06308 0.0
C1266 C 0.4249 0.56736 0.09518 0.0
C1267 C 0.4273 0.553 0.12192 0.0
C1268 C 0.43942 0.58516 0.09713 0.0
C1269 C 0.45638 0.58884 0.12782 0.0
C1270 C 0.45873 0.57449 0.15429 0.0
C1271 C 0.44442 0.55679 0.15071 0.0
H1272 H 0.56098 0.74167 0.11965 0.0
H1273 H 0.6124 0.77461 0.24537 0.0
H1274 H 0.55537 0.7671 0.12418 0.0
H1275 H 0.60663 0.79975 0.25117 0.0
H1276 H 0.58423 0.83692 0.30777 0.0
H1277 H 0.5841 0.80831 0.31943 0.0
H1278 H 0.57215 0.79864 0.04716 0.0
H1279 H 0.57249 0.82732 0.03536 0.0
C1280 C 0.57092 0.75422 0.14944 0.0
C1281 C 0.58717 0.7562 0.18175 0.0
C1282 C 0.56774 0.76875 0.15175 0.0
C1283 C 0.58055 0.78534 0.18821 0.0
C1284 C 0.59644 0.78706 0.2235 0.0
C1285 C 0.59979 0.7727 0.21963 0.0
C1286 C 0.58121 0.82848 0.25093 0.0
C1287 C 0.57845 0.83432 0.17061 0.0
C1288 C 0.58124 0.8122 0.25748 0.0
C1289 C 0.57816 0.80132 0.18414 0.0
C1290 C 0.57442 0.8067 0.1048 0.0
C1291 C 0.57472 0.82313 0.09795 0.0
H1292 H 0.35727 0.8623 0.17979 0.0
H1293 H 0.32148 0.88379 0.14753 0.0
H1294 H 0.33107 0.83181 0.19093 0.0
H1295 H 0.29564 0.85366 0.1561 0.0
H1296 H 0.25132 0.80148 0.24852 0.0
H1297 H 0.27937 0.83033 0.25793 0.0
H1298 H 0.30635 0.80853 0.10523 0.0
H1299 H 0.27819 0.77933 0.09927 0.0
C1300 C 0.34386 0.86053 0.17494 0.0
C1301 C 0.34148 0.8755 0.1633 0.0
C1302 C 0.32886 0.84307 0.18097 0.0
C1303 C 0.31122 0.84027 0.17546 0.0
C1304 C 0.30897 0.85529 0.16293 0.0
C1305 C 0.32386 0.87262 0.1573 0.0
C1306 C 0.26338 0.80283 0.21853 0.0
C1307 C 0.26272 0.78835 0.17304 0.0
C1308 C 0.2794 0.81936 0.22312 0.0
C1309 C 0.29505 0.82189 0.18084 0.0
C1310 C 0.29458 0.80704 0.13883 0.0
C1311 C 0.27851 0.79036 0.13516 0.0
H1312 H 0.3105 0.52732 0.02984 0.0
H1313 H 0.3085 0.51513 0.30142 0.0
H1314 H 0.282 0.52734 0.043 0.0
H1315 H 0.27985 0.5149 0.31436 0.0
H1316 H 0.21776 0.48602 0.24013 0.0
H1317 H 0.2488 0.49208 0.24411 0.0
H1318 H 0.267 0.5438 0.12368 0.0
H1319 H 0.23583 0.5379 0.12115 0.0
C1320 C 0.30409 0.52495 0.09256 0.0
C1321 C 0.31164 0.52119 0.16459 0.0
C1322 C 0.28786 0.52505 0.10018 0.0
C1323 C 0.27873 0.52106 0.17962 0.0
C1324 C 0.28663 0.51797 0.25236 0.0
C1325 C 0.30303 0.5182 0.24508 0.0
C1326 C 0.2284 0.49878 0.21541 0.0
C1327 C 0.22438 0.51147 0.18008 0.0
C1328 C 0.24617 0.50229 0.21823 0.0
C1329 C 0.26027 0.51841 0.18436 0.0
C1330 C 0.25634 0.53126 0.15018 0.0
C1331 C 0.23856 0.52791 0.149 0.0
H1332 H 0.024 0.26075 0.20085 0.0
H1333 H 0.07457 0.26094 0.21121 0.0
H1334 H 0.02555 0.26147 0.04312 0.0
H1335 H 0.07653 0.26247 0.05523 0.0
H1336 H 0.06601 0.24676 0.77331 0.0
H1337 H 0.06349 0.24498 0.93005 0.0
H1338 H 0.04211 0.28129 0.92743 0.0
H1339 H 0.0439 0.2824 0.77046 0.0
C1340 C 0.03544 0.26101 0.16945 0.0
C1341 C 0.04909 0.2607 0.21815 0.0
C1342 C 0.03641 0.26155 0.07931 0.0
C1343 C 0.05117 0.26202 0.03663 0.0
C1344 C 0.0648 0.26175 0.0858 0.0
C1345 C 0.06371 0.26097 0.17541 0.0
C1346 C 0.0609 0.25445 0.80641 0.0
C1347 C 0.05516 0.26471 0.75999 0.0
C1348 C 0.05947 0.25346 0.89618 0.0
C1349 C 0.05254 0.26296 0.94125 0.0
C1350 C 0.04716 0.27352 0.89461 0.0
C1351 C 0.04835 0.2743 0.80481 0.0
H1352 H 0.82232 0.8028 0.19817 0.0
H1353 H 0.85755 0.86066 0.19824 0.0
H1354 H 0.81995 0.80309 0.04169 0.0
H1355 H 0.85596 0.86091 0.04122 0.0
H1356 H 0.8348 0.85797 0.76942 0.0
H1357 H 0.83604 0.85743 0.92698 0.0
H1358 H 0.83628 0.80706 0.9144 0.0
H1359 H 0.83413 0.80718 0.75853 0.0
C1360 C 0.82984 0.81553 0.16443 0.0
C1361 C 0.84013 0.8317 0.21006 0.0
C1362 C 0.82852 0.81572 0.07473 0.0
C1363 C 0.83772 0.83204 0.02879 0.0
C1364 C 0.84838 0.84816 0.07463 0.0
C1365 C 0.84946 0.848 0.16446 0.0
C1366 C 0.83496 0.84674 0.80073 0.0
C1367 C 0.83428 0.8326 0.7519 0.0
C1368 C 0.83582 0.84648 0.89081 0.0
C1369 C 0.83631 0.83221 0.9334 0.0
C1370 C 0.83558 0.81808 0.88407 0.0
C1371 C 0.83443 0.8182 0.79449 0.0
H1372 H 0.24257 0.0248 0.20675 0.0
H1373 H 0.2923 0.07607 0.19741 0.0
H1374 H 0.24251 0.02271 0.05088 0.0
H1375 H 0.2918 0.07439 0.03971 0.0
H1376 H 0.29549 0.05629 0.76756 0.0
H1377 H 0.29585 0.05819 0.92462 0.0
H1378 H 0.23787 0.03514 0.92485 0.0
H1379 H 0.23748 0.0325 0.76832 0.0
C1380 C 0.25337 0.0358 0.17119 0.0
C1381 C 0.26744 0.05064 0.21425 0.0
C1382 C 0.25328 0.03463 0.0816 0.0
C1383 C 0.26711 0.0484 0.03269 0.0
C1384 C 0.28109 0.06341 0.07566 0.0
C1385 C 0.28131 0.06447 0.1658 0.0
C1386 C 0.28282 0.05148 0.80145 0.0
C1387 C 0.26644 0.04417 0.75601 0.0
C1388 C 0.28304 0.05274 0.89129 0.0
C1389 C 0.26691 0.04693 0.9373 0.0
C1390 C 0.25052 0.03949 0.89157 0.0
C1391 C 0.25027 0.03799 0.80186 0.0
H1392 H 0.08028 0.83521 0.75695 0.0
H1393 H 0.02921 0.83401 0.74748 0.0
H1394 H 0.0786 0.83399 0.91461 0.0
H1395 H 0.02712 0.83195 0.90332 0.0
H1396 H 0.03701 0.84669 0.18618 0.0
H1397 H 0.03964 0.84896 0.02972 0.0
H1398 H 0.0623 0.81374 0.02926 0.0
H1399 H 0.06042 0.81218 0.18631 0.0
C1400 C 0.06872 0.83466 0.78853 0.0
C1401 C 0.05495 0.8348 0.74006 0.0
C1402 C 0.06766 0.83381 0.87864 0.0
C1403 C 0.0527 0.83286 0.92156 0.0
C1404 C 0.03899 0.83302 0.87264 0.0
C1405 C 0.04017 0.83412 0.78307 0.0
C1406 C 0.04241 0.83932 0.15251 0.0
C1407 C 0.04849 0.82925 0.19817 0.0
C1408 C 0.04391 0.84059 0.06283 0.0
C1409 C 0.05123 0.83156 0.01693 0.0
C1410 C 0.05694 0.82116 0.06274 0.0
C1411 C 0.05568 0.8201 0.15256 0.0
H1412 H 0.28606 0.29037 0.17915 0.0
H1413 H 0.25156 0.23239 0.1776 0.0
H1414 H 0.28452 0.29075 0.02211 0.0
H1415 H 0.24932 0.23281 0.02112 0.0
H1416 H 0.26434 0.23747 0.73908 0.0
H1417 H 0.26636 0.23739 0.89492 0.0
H1418 H 0.26429 0.28679 0.90723 0.0
H1419 H 0.2631 0.28731 0.74956 0.0
C1420 C 0.27814 0.27771 0.14509 0.0
C1421 C 0.26899 0.26133 0.1903 0.0
C1422 C 0.2771 0.27795 0.05527 0.0
C1423 C 0.26671 0.26183 0.00905 0.0
C1424 C 0.25767 0.24544 0.05455 0.0
C1425 C 0.25893 0.24518 0.14424 0.0
C1426 C 0.26421 0.2483 0.77488 0.0
C1427 C 0.26353 0.2624 0.73216 0.0
C1428 C 0.26529 0.24819 0.86446 0.0
C1429 C 0.26544 0.26204 0.91368 0.0
C1430 C 0.26449 0.27606 0.87104 0.0
C1431 C 0.26366 0.2763 0.78092 0.0
H1432 H 0.86636 0.06147 0.17043 0.0
H1433 H 0.80833 0.03762 0.17294 0.0
H1434 H 0.86579 0.0592 0.01355 0.0
H1435 H 0.8078 0.03607 0.01592 0.0
H1436 H 0.81106 0.01871 0.74191 0.0
H1437 H 0.81179 0.02009 0.89963 0.0
H1438 H 0.86084 0.07199 0.88904 0.0
H1439 H 0.86053 0.07021 0.73289 0.0
C1440 C 0.85353 0.05602 0.13723 0.0
C1441 C 0.8374 0.04972 0.18355 0.0
C1442 C 0.85318 0.05473 0.04741 0.0
C1443 C 0.83673 0.04739 0.00225 0.0
C1444 C 0.82065 0.04144 0.04881 0.0
C1445 C 0.82097 0.04249 0.13865 0.0
C1446 C 0.82202 0.03032 0.77364 0.0
C1447 C 0.83576 0.04428 0.72534 0.0
C1448 C 0.82239 0.03119 0.86378 0.0
C1449 C 0.83639 0.04616 0.90685 0.0
C1450 C 0.85007 0.06011 0.8581 0.0
C1451 C 0.84983 0.05912 0.76844 0.0
H1452 H 0.74525 0.59836 0.1005 0.0
H1453 H 0.69484 0.59847 0.09116 0.0
H1454 H 0.7434 0.5968 0.25802 0.0
H1455 H 0.6925 0.59598 0.2469 0.0
H1456 H 0.72516 0.57469 0.52853 0.0
H1457 H 0.72708 0.57661 0.3715 0.0
H1458 H 0.70461 0.612 0.37507 0.0
H1459 H 0.70188 0.60929 0.53132 0.0
C1460 C 0.7338 0.59804 0.13213 0.0
C1461 C 0.72026 0.59863 0.08372 0.0
C1462 C 0.73263 0.59697 0.2222 0.0
C1463 C 0.71776 0.5962 0.26521 0.0
C1464 C 0.70431 0.59689 0.21631 0.0
C1465 C 0.70562 0.59824 0.12677 0.0
C1466 C 0.72045 0.5827 0.4954 0.0
C1467 C 0.71327 0.59176 0.54183 0.0
C1468 C 0.72174 0.58397 0.40557 0.0
C1469 C 0.71612 0.59456 0.36057 0.0
C1470 C 0.70879 0.60348 0.40736 0.0
C1471 C 0.70723 0.60196 0.49698 0.0
H1472 H 0.50516 0.18958 0.5468 0.0
H1473 H 0.50653 0.13981 0.53528 0.0
H1474 H 0.50329 0.18985 0.39098 0.0
H1475 H 0.50549 0.14052 0.37758 0.0
H1476 H 0.48393 0.13724 0.10547 0.0
H1477 H 0.48536 0.13668 0.26244 0.0
H1478 H 0.52047 0.19463 0.26502 0.0
H1479 H 0.51833 0.19523 0.10847 0.0
C1480 C 0.50534 0.1788 0.51077 0.0
C1481 C 0.50603 0.16466 0.55321 0.0
C1482 C 0.50436 0.17903 0.4212 0.0
C1483 C 0.5043 0.16525 0.37167 0.0
C1484 C 0.50523 0.15119 0.41401 0.0
C1485 C 0.50597 0.15084 0.50415 0.0
C1486 C 0.49181 0.14986 0.13985 0.0
C1487 C 0.50096 0.16629 0.09506 0.0
C1488 C 0.49278 0.14952 0.22964 0.0
C1489 C 0.50312 0.16559 0.27629 0.0
C1490 C 0.51216 0.18204 0.23123 0.0
C1491 C 0.51096 0.1824 0.14153 0.0
H1492 H 0.90301 0.36569 0.10222 0.0
H1493 H 0.96092 0.38862 0.10094 0.0
H1494 H 0.90348 0.36812 0.25891 0.0
H1495 H 0.96134 0.39032 0.25803 0.0
H1496 H 0.95815 0.40809 0.53147 0.0
H1497 H 0.95758 0.40662 0.37376 0.0
H1498 H 0.90796 0.35521 0.38406 0.0
H1499 H 0.90812 0.35709 0.54011 0.0
C1500 C 0.91579 0.37096 0.13566 0.0
C1501 C 0.93191 0.37695 0.08968 0.0
C1502 C 0.91608 0.37234 0.22542 0.0
C1503 C 0.93247 0.37946 0.27097 0.0
C1504 C 0.94855 0.38511 0.2248 0.0
C1505 C 0.94828 0.38397 0.13495 0.0
C1506 C 0.94709 0.39658 0.49968 0.0
C1507 C 0.93316 0.38277 0.5479 0.0
C1508 C 0.94682 0.39564 0.40954 0.0
C1509 C 0.93272 0.38078 0.36637 0.0
C1510 C 0.91883 0.36701 0.41503 0.0
C1511 C 0.91898 0.36806 0.50467 0.0
H1512 H 0.74529 0.16591 0.08327 0.0
H1513 H 0.69496 0.16618 0.07237 0.0
H1514 H 0.74363 0.16511 0.241 0.0
H1515 H 0.69288 0.16455 0.22826 0.0
H1516 H 0.70316 0.17996 0.51049 0.0
H1517 H 0.70584 0.18185 0.35382 0.0
H1518 H 0.72693 0.1453 0.35642 0.0
H1519 H 0.72499 0.14408 0.51337 0.0
C1520 C 0.73389 0.16575 0.11454 0.0
C1521 C 0.72033 0.16621 0.06566 0.0
C1522 C 0.73285 0.16515 0.20469 0.0
C1523 C 0.71811 0.16477 0.2472 0.0
C1524 C 0.70459 0.1652 0.19786 0.0
C1525 C 0.70575 0.16604 0.10827 0.0
C1526 C 0.70823 0.17224 0.47739 0.0
C1527 C 0.71385 0.16187 0.52383 0.0
C1528 C 0.70976 0.17329 0.38766 0.0
C1529 C 0.71665 0.16376 0.34259 0.0
C1530 C 0.72191 0.15309 0.38923 0.0
C1531 C 0.72063 0.15225 0.47902 0.0
H1532 H 0.93062 0.62067 0.08921 0.0
H1533 H 0.93156 0.57069 0.07978 0.0
H1534 H 0.93146 0.62012 0.24681 0.0
H1535 H 0.93326 0.57055 0.23597 0.0
H1536 H 0.91761 0.5656 0.5177 0.0
H1537 H 0.91584 0.56604 0.361 0.0
H1538 H 0.95134 0.62395 0.36275 0.0
H1539 H 0.95238 0.62355 0.51989 0.0
C1540 C 0.93107 0.60963 0.12086 0.0
C1541 C 0.93093 0.59569 0.07248 0.0
C1542 C 0.93169 0.60936 0.21094 0.0
C1543 C 0.93244 0.59528 0.25394 0.0
C1544 C 0.93233 0.5814 0.20511 0.0
C1545 C 0.93144 0.58153 0.11545 0.0
C1546 C 0.92511 0.57839 0.48444 0.0
C1547 C 0.93513 0.59453 0.53066 0.0
C1548 C 0.92415 0.57866 0.39467 0.0
C1549 C 0.93343 0.59505 0.34934 0.0
C1550 C 0.94374 0.61115 0.39577 0.0
C1551 C 0.94448 0.61091 0.48566 0.0
H1552 H 0.47737 0.35138 0.08695 0.0
H1553 H 0.5272 0.40257 0.07766 0.0
H1554 H 0.47786 0.35306 0.24465 0.0
H1555 H 0.52726 0.40465 0.23354 0.0
H1556 H 0.53223 0.39482 0.5161 0.0
H1557 H 0.53183 0.39218 0.35957 0.0
H1558 H 0.47388 0.36932 0.35973 0.0
H1559 H 0.47424 0.37121 0.5168 0.0
C1560 C 0.48837 0.36297 0.11858 0.0
C1561 C 0.50227 0.37677 0.07014 0.0
C1562 C 0.4886 0.36403 0.20872 0.0
C1563 C 0.50261 0.37901 0.2517 0.0
C1564 C 0.51647 0.39276 0.2028 0.0
C1565 C 0.51637 0.39159 0.11321 0.0
C1566 C 0.51944 0.38937 0.48254 0.0
C1567 C 0.50328 0.38324 0.52837 0.0
C1568 C 0.51919 0.38787 0.39283 0.0
C1569 C 0.50281 0.38048 0.34709 0.0
C1570 C 0.48668 0.37472 0.39308 0.0
C1571 C 0.4869 0.37599 0.48292 0.0
H1572 H 0.41206 0.93008 0.4302 0.0
H1573 H 0.36264 0.93212 0.4217 0.0
H1574 H 0.41068 0.9293 0.58779 0.0
H1575 H 0.36079 0.93049 0.57791 0.0
H1576 H 0.37214 0.94576 0.8602 0.0
H1577 H 0.37435 0.94754 0.70347 0.0
H1578 H 0.39388 0.9097 0.70312 0.0
H1579 H 0.39244 0.9086 0.86022 0.0
C1580 C 0.4009 0.9303 0.46205 0.0
C1581 C 0.38751 0.93123 0.41394 0.0
C1582 C 0.40002 0.92971 0.55213 0.0
C1583 C 0.3856 0.9298 0.5954 0.0
C1584 C 0.37225 0.93075 0.54684 0.0
C1585 C 0.37327 0.93159 0.45717 0.0
C1586 C 0.37678 0.93774 0.82646 0.0
C1587 C 0.38211 0.92704 0.87209 0.0
C1588 C 0.37802 0.93872 0.73668 0.0
C1589 C 0.38434 0.92879 0.69077 0.0
C1590 C 0.38931 0.9178 0.7366 0.0
C1591 C 0.38832 0.91703 0.82647 0.0
H1592 H 0.15457 0.46812 0.87017 0.0
H1593 H 0.1902 0.5259 0.87256 0.0
H1594 H 0.15236 0.46872 0.71358 0.0
H1595 H 0.18874 0.52647 0.71566 0.0
H1596 H 0.16799 0.52429 0.44358 0.0
H1597 H 0.16899 0.5234 0.6012 0.0
H1598 H 0.16886 0.47287 0.58653 0.0
H1599 H 0.16696 0.47334 0.43075 0.0
C1600 C 0.16221 0.48089 0.83692 0.0
C1601 C 0.17256 0.49695 0.88321 0.0
C1602 C 0.16097 0.48127 0.74719 0.0
C1603 C 0.17032 0.49768 0.70196 0.0
C1604 C 0.18105 0.51367 0.7485 0.0
C1605 C 0.18205 0.51332 0.83828 0.0
C1606 C 0.16802 0.51296 0.47444 0.0
C1607 C 0.16732 0.49887 0.42504 0.0
C1608 C 0.16875 0.51249 0.56455 0.0
C1609 C 0.16904 0.49806 0.60657 0.0
C1610 C 0.1683 0.484 0.55666 0.0
C1611 C 0.1673 0.48433 0.46709 0.0
H1612 H 0.62509 0.74344 0.86219 0.0
H1613 H 0.57516 0.69236 0.87094 0.0
H1614 H 0.6249 0.7416 0.7046 0.0
H1615 H 0.57542 0.69008 0.71523 0.0
H1616 H 0.57107 0.6994 0.43157 0.0
H1617 H 0.57114 0.70215 0.58781 0.0
H1618 H 0.62915 0.72545 0.5905 0.0
H1619 H 0.62911 0.72347 0.4334 0.0
C1620 C 0.61411 0.73185 0.83046 0.0
C1621 C 0.60011 0.71812 0.87875 0.0
C1622 C 0.61407 0.73069 0.74036 0.0
C1623 C 0.60015 0.71566 0.69721 0.0
C1624 C 0.58616 0.70201 0.74597 0.0
C1625 C 0.58606 0.7033 0.83551 0.0
C1626 C 0.58381 0.70495 0.46565 0.0
C1627 C 0.60007 0.71119 0.42052 0.0
C1628 C 0.58387 0.70652 0.55528 0.0
C1629 C 0.60017 0.71407 0.60182 0.0
C1630 C 0.6164 0.71991 0.55658 0.0
C1631 C 0.61637 0.7186 0.46671 0.0
H1632 H 0.40784 0.497 0.85549 0.0
H1633 H 0.3573 0.49688 0.84665 0.0
H1634 H 0.4096 0.4985 0.69923 0.0
H1635 H 0.35863 0.49755 0.68905 0.0
H1636 H 0.39854 0.48278 0.41727 0.0
H1637 H 0.39636 0.48106 0.57405 0.0
H1638 H 0.375 0.51739 0.57345 0.0
H1639 H 0.37643 0.51843 0.41636 0.0
C1640 C 0.39695 0.49704 0.81995 0.0
C1641 C 0.38241 0.49682 0.86309 0.0
C1642 C 0.39793 0.49781 0.73027 0.0
C1643 C 0.38425 0.49811 0.68162 0.0
C1644 C 0.36954 0.49764 0.72479 0.0
C1645 C 0.36869 0.49712 0.81488 0.0
C1646 C 0.39349 0.49048 0.45081 0.0
C1647 C 0.38766 0.50074 0.40494 0.0
C1648 C 0.39227 0.48953 0.5406 0.0
C1649 C 0.38546 0.49906 0.58624 0.0
C1650 C 0.37996 0.5096 0.54016 0.0
C1651 C 0.38094 0.51034 0.45029 0.0
H1652 H 0.61924 0.95763 0.85767 0.0
H1653 H 0.58517 0.8996 0.85514 0.0
H1654 H 0.61747 0.95813 0.7007 0.0
H1655 H 0.58269 0.90013 0.69888 0.0
H1656 H 0.5957 0.95471 0.42859 0.0
H1657 H 0.59712 0.95413 0.58624 0.0
H1658 H 0.59947 0.90489 0.57198 0.0
H1659 H 0.59721 0.90503 0.41638 0.0
C1660 C 0.61139 0.94498 0.82343 0.0
C1661 C 0.60243 0.92855 0.86839 0.0
C1662 C 0.6102 0.94529 0.73363 0.0
C1663 C 0.59985 0.92919 0.68717 0.0
C1664 C 0.59102 0.91276 0.73242 0.0
C1665 C 0.59241 0.91243 0.82203 0.0
C1666 C 0.59634 0.94371 0.45952 0.0
C1667 C 0.59624 0.92989 0.41021 0.0
C1668 C 0.59732 0.94344 0.54965 0.0
C1669 C 0.59842 0.92946 0.59179 0.0
C1670 C 0.59827 0.91567 0.54202 0.0
C1671 C 0.59706 0.91581 0.4525 0.0
H1672 H 0.19756 0.72006 0.41568 0.0
H1673 H 0.13964 0.69687 0.41442 0.0
H1674 H 0.19775 0.72219 0.57267 0.0
H1675 H 0.13985 0.69982 0.5707 0.0
H1676 H 0.14386 0.69037 0.85447 0.0
H1677 H 0.14384 0.68788 0.69881 0.0
H1678 H 0.19411 0.73865 0.68644 0.0
H1679 H 0.19457 0.74065 0.84402 0.0
C1680 C 0.18487 0.71541 0.44915 0.0
C1681 C 0.16857 0.7082 0.40314 0.0
C1682 C 0.18499 0.71682 0.53897 0.0
C1683 C 0.16884 0.7113 0.58443 0.0
C1684 C 0.15252 0.70393 0.53807 0.0
C1685 C 0.15237 0.70224 0.44843 0.0
C1686 C 0.15488 0.70109 0.81865 0.0
C1687 C 0.16923 0.71574 0.86142 0.0
C1688 C 0.15481 0.69969 0.72911 0.0
C1689 C 0.16895 0.71306 0.67984 0.0
C1690 C 0.18316 0.72794 0.72253 0.0
C1691 C 0.18336 0.7292 0.81264 0.0
loop_
_geom_bond_atom_site_label_1
_geom_bond_atom_site_label_2
_geom_bond_distance
_geom_bond_site_symmetry_2
_ccdc_geom_bond_type
C0 O16 1.251 . S
C0 O18 1.254 . S
N1 C2 1.333 . S
N1 C6 1.307 . S
N1 Zn7 2.020 . S
C2 N1 1.333 . S
C2 C3 1.379 . S
C2 H20 0.952 . S
C3 C2 1.379 . S
C3 C4 1.390 . S
C3 H30 0.949 . S
C4 C3 1.390 . S
C4 C5 1.357 . S
C5 C4 1.357 . S
C5 C6 1.370 . S
C5 H31 0.950 . S
C6 N1 1.307 . S
C6 C5 1.370 . S
C6 H24 0.948 . S
Zn7 N1 2.020 . S
Zn7 O16 2.039 . S
Zn7 O22 2.034 . S
Zn7 O26 2.025 . S
Zn7 O28 2.024 . S
C8 O27 1.246 . S
C8 O28 1.249 . S
N9 C10 1.307 1_455 S
N9 C11 1.333 . S
N9 Zn15 2.020 . S
C10 N9 1.307 1_655 S
C10 C14 1.370 . S
C10 H21 0.948 . S
C11 N9 1.333 . S
C11 C12 1.379 1_455 S
C11 H19 0.952 . S
C12 C11 1.379 1_655 S
C12 C13 1.390 . S
C12 H32 0.949 . S
C13 C12 1.390 . S
C13 C14 1.357 . S
C14 C10 1.370 . S
C14 C13 1.357 . S
C14 H33 0.950 . S
Zn15 N9 2.020 . S
Zn15 O18 2.025 . S
Zn15 O23 2.024 . S
Zn15 O25 2.039 . S
Zn15 O27 2.034 . S
O16 C0 1.251 . S
O16 Zn7 2.039 . S
C17 O22 1.246 . S
C17 O23 1.249 . S
O18 C0 1.254 . S
O18 Zn15 2.025 . S
H19 C11 0.952 . S
H20 C2 0.952 . S
H21 C10 0.948 . S
O22 Zn7 2.034 . S
O22 C17 1.246 . S
O23 Zn15 2.024 . S
O23 C17 1.249 . S
H24 C6 0.948 . S
O25 Zn15 2.039 . S
O25 C29 1.251 . S
O26 Zn7 2.025 . S
O26 C29 1.254 . S
O27 C8 1.246 . S
O27 Zn15 2.034 . S
O28 Zn7 2.024 . S
O28 C8 1.249 . S
C29 O25 1.251 . S
C29 O26 1.254 . S
H30 C3 0.949 . S
H31 C5 0.950 . S
H32 C12 0.949 . S
H33 C14 0.950 . S
C34 O50 1.251 . S
C34 O52 1.254 . S
N35 C36 1.333 . S
N35 C40 1.307 . S
N35 Zn41 2.020 . S
C36 N35 1.333 . S
C36 C37 1.379 . S
C36 H54 0.952 . S
C37 C36 1.379 . S
C37 C38 1.390 . S
C37 H64 0.949 . S
C38 C37 1.390 . S
C38 C39 1.357 . S
C39 C38 1.357 . S
C39 C40 1.370 . S
C39 H65 0.950 . S
C40 N35 1.307 . S
C40 C39 1.370 . S
C40 H58 0.948 . S
Zn41 N35 2.020 . S
Zn41 O50 2.039 . S
Zn41 O56 2.034 . S
Zn41 O60 2.025 . S
Zn41 O62 2.024 . S
C42 O61 1.246 . S
C42 O62 1.249 . S
N43 C44 1.307 . S
N43 C45 1.333 . S
N43 Zn49 2.020 . S
C44 N43 1.307 . S
C44 C48 1.370 . S
C44 H55 0.948 . S
C45 N43 1.333 . S
C45 C46 1.379 . S
C45 H53 0.952 . S
C46 C45 1.379 . S
C46 C47 1.390 . S
C46 H66 0.949 . S
C47 C46 1.390 . S
C47 C48 1.357 . S
C48 C44 1.370 . S
C48 C47 1.357 . S
C48 H67 0.950 . S
Zn49 N43 2.020 . S
Zn49 O52 2.025 . S
Zn49 O57 2.024 . S
Zn49 O59 2.039 . S
Zn49 O61 2.034 . S
O50 C34 1.251 . S
O50 Zn41 2.039 . S
C51 O56 1.246 . S
C51 O57 1.249 . S
O52 C34 1.254 . S
O52 Zn49 2.025 . S
H53 C45 0.952 . S
H54 C36 0.952 . S
H55 C44 0.948 . S
O56 Zn41 2.034 . S
O56 C51 1.246 . S
O57 Zn49 2.024 . S
O57 C51 1.249 . S
H58 C40 0.948 . S
O59 Zn49 2.039 . S
O59 C63 1.251 . S
O60 Zn41 2.025 . S
O60 C63 1.254 . S
O61 C42 1.246 . S
O61 Zn49 2.034 . S
O62 Zn41 2.024 . S
O62 C42 1.249 . S
C63 O59 1.251 . S
C63 O60 1.254 . S
H64 C37 0.949 . S
H65 C39 0.950 . S
H66 C46 0.949 . S
H67 C48 0.950 . S
C68 O84 1.251 . S
C68 O86 1.254 . S
N69 C70 1.333 . S
N69 C74 1.307 1_545 S
N69 Zn75 2.020 . S
C70 N69 1.333 . S
C70 C71 1.379 1_545 S
C70 H88 0.952 . S
C71 C70 1.379 1_565 S
C71 C72 1.390 . S
C71 H98 0.949 . S
C72 C71 1.390 . S
C72 C73 1.357 . S
C73 C72 1.357 . S
C73 C74 1.370 . S
C73 H99 0.950 . S
C74 N69 1.307 1_565 S
C74 C73 1.370 . S
C74 H92 0.948 . S
Zn75 N69 2.020 . S
Zn75 O84 2.039 . S
Zn75 O90 2.034 . S
Zn75 O94 2.025 . S
Zn75 O96 2.024 . S
C76 O95 1.246 . S
C76 O96 1.249 . S
N77 C78 1.307 . S
N77 C79 1.333 . S
N77 Zn83 2.020 . S
C78 N77 1.307 . S
C78 C82 1.370 . S
C78 H89 0.948 . S
C79 N77 1.333 . S
C79 C80 1.379 . S
C79 H87 0.952 . S
C80 C79 1.379 . S
C80 C81 1.390 . S
C80 H100 0.949 . S
C81 C80 1.390 . S
C81 C82 1.357 . S
C82 C78 1.370 . S
C82 C81 1.357 . S
C82 H101 0.950 . S
Zn83 N77 2.020 . S
Zn83 O86 2.025 . S
Zn83 O91 2.024 . S
Zn83 O93 2.039 . S
Zn83 O95 2.034 . S
O84 C68 1.251 . S
O84 Zn75 2.039 . S
C85 O90 1.246 . S
C85 O91 1.249 . S
O86 C68 1.254 . S
O86 Zn83 2.025 . S
H87 C79 0.952 . S
H88 C70 0.952 . S
H89 C78 0.948 . S
O90 Zn75 2.034 . S
O90 C85 1.246 . S
O91 Zn83 2.024 . S
O91 C85 1.249 . S
H92 C74 0.948 . S
O93 Zn83 2.039 . S
O93 C97 1.251 . S
O94 Zn75 2.025 . S
O94 C97 1.254 . S
O95 C76 1.246 . S
O95 Zn83 2.034 . S
O96 Zn75 2.024 . S
O96 C76 1.249 . S
C97 O93 1.251 . S
C97 O94 1.254 . S
H98 C71 0.949 . S
H99 C73 0.950 . S
H100 C80 0.949 . S
H101 C82 0.950 . S
C102 O118 1.251 . S
C102 O120 1.254 . S
N103 C104 1.333 . S
N103 C108 1.307 . S
N103 Zn109 2.020 . S
C104 N103 1.333 . S
C104 C105 1.379 . S
C104 H122 0.952 . S
C105 C104 1.379 . S
C105 C106 1.390 . S
C105 H132 0.949 . S
C106 C105 1.390 . S
C106 C107 1.357 . S
C107 C106 1.357 . S
C107 C108 1.370 . S
C107 H133 0.950 . S
C108 N103 1.307 . S
C108 C107 1.370 . S
C108 H126 0.948 . S
Zn109 N103 2.020 . S
Zn109 O118 2.039 . S
Zn109 O124 2.034 . S
Zn109 O128 2.025 . S
Zn109 O130 2.024 . S
C110 O129 1.246 . S
C110 O130 1.249 . S
N111 C112 1.307 1_455 S
N111 C113 1.333 . S
N111 Zn117 2.020 . S
C112 N111 1.307 1_655 S
C112 C116 1.370 . S
C112 H123 0.948 . S
C113 N111 1.333 . S
C113 C114 1.379 1_455 S
C113 H121 0.952 . S
C114 C113 1.379 1_655 S
C114 C115 1.390 . S
C114 H134 0.949 . S
C115 C114 1.390 . S
C115 C116 1.357 . S
C116 C112 1.370 . S
C116 C115 1.357 . S
C116 H135 0.950 . S
Zn117 N111 2.020 . S
Zn117 O120 2.025 . S
Zn117 O125 2.024 . S
Zn117 O127 2.039 . S
Zn117 O129 2.034 . S
O118 C102 1.251 . S
O118 Zn109 2.039 . S
C119 O124 1.246 . S
C119 O125 1.249 . S
O120 C102 1.254 . S
O120 Zn117 2.025 . S
H121 C113 0.952 . S
H122 C104 0.952 . S
H123 C112 0.948 . S
O124 Zn109 2.034 . S
O124 C119 1.246 . S
O125 Zn117 2.024 . S
O125 C119 1.249 . S
H126 C108 0.948 . S
O127 Zn117 2.039 . S
O127 C131 1.251 . S
O128 Zn109 2.025 . S
O128 C131 1.254 . S
O129 C110 1.246 . S
O129 Zn117 2.034 . S
O130 Zn109 2.024 . S
O130 C110 1.249 . S
C131 O127 1.251 . S
C131 O128 1.254 . S
H132 C105 0.949 . S
H133 C107 0.950 . S
H134 C114 0.949 . S
H135 C116 0.950 . S
C136 O152 1.251 . S
C136 O154 1.254 . S
N137 C138 1.333 . S
N137 C142 1.307 . S
N137 Zn143 2.020 . S
C138 N137 1.333 . S
C138 C139 1.379 . S
C138 H156 0.952 . S
C139 C138 1.379 . S
C139 C140 1.390 . S
C139 H166 0.949 . S
C140 C139 1.390 . S
C140 C141 1.357 . S
C141 C140 1.357 . S
C141 C142 1.370 . S
C141 H167 0.950 . S
C142 N137 1.307 . S
C142 C141 1.370 . S
C142 H160 0.948 . S
Zn143 N137 2.020 . S
Zn143 O152 2.039 . S
Zn143 O158 2.034 . S
Zn143 O162 2.025 . S
Zn143 O164 2.024 . S
C144 O163 1.246 . S
C144 O164 1.249 . S
N145 C146 1.307 . S
N145 C147 1.333 . S
N145 Zn151 2.020 . S
C146 N145 1.307 . S
C146 C150 1.370 . S
C146 H157 0.948 . S
C147 N145 1.333 . S
C147 C148 1.379 . S
C147 H155 0.952 . S
C148 C147 1.379 . S
C148 C149 1.390 . S
C148 H168 0.949 . S
C149 C148 1.390 . S
C149 C150 1.357 . S
C150 C146 1.370 . S
C150 C149 1.357 . S
C150 H169 0.950 . S
Zn151 N145 2.020 . S
Zn151 O154 2.025 . S
Zn151 O159 2.024 . S
Zn151 O161 2.039 . S
Zn151 O163 2.034 . S
O152 C136 1.251 . S
O152 Zn143 2.039 . S
C153 O158 1.246 . S
C153 O159 1.249 . S
O154 C136 1.254 . S
O154 Zn151 2.025 . S
H155 C147 0.952 . S
H156 C138 0.952 . S
H157 C146 0.948 . S
O158 Zn143 2.034 . S
O158 C153 1.246 . S
O159 Zn151 2.024 . S
O159 C153 1.249 . S
H160 C142 0.948 . S
O161 Zn151 2.039 . S
O161 C165 1.251 . S
O162 Zn143 2.025 . S
O162 C165 1.254 . S
O163 C144 1.246 . S
O163 Zn151 2.034 . S
O164 Zn143 2.024 . S
O164 C144 1.249 . S
C165 O161 1.251 . S
C165 O162 1.254 . S
H166 C139 0.949 . S
H167 C141 0.950 . S
H168 C148 0.949 . S
H169 C150 0.950 . S
C170 O186 1.251 . S
C170 O188 1.254 . S
N171 C172 1.333 . S
N171 C176 1.307 1_545 S
N171 Zn177 2.020 . S
C172 N171 1.333 . S
C172 C173 1.379 1_545 S
C172 H190 0.952 . S
C173 C172 1.379 1_565 S
C173 C174 1.390 . S
C173 H200 0.949 . S
C174 C173 1.390 . S
C174 C175 1.357 . S
C175 C174 1.357 . S
C175 C176 1.370 . S
C175 H201 0.950 . S
C176 N171 1.307 1_565 S
C176 C175 1.370 . S
C176 H194 0.948 . S
Zn177 N171 2.020 . S
Zn177 O186 2.039 . S
Zn177 O192 2.034 . S
Zn177 O196 2.025 . S
Zn177 O198 2.024 . S
C178 O197 1.246 . S
C178 O198 1.249 . S
N179 C180 1.307 . S
N179 C181 1.333 . S
N179 Zn185 2.020 . S
C180 N179 1.307 . S
C180 C184 1.370 . S
C180 H191 0.948 . S
C181 N179 1.333 . S
C181 C182 1.379 . S
C181 H189 0.952 . S
C182 C181 1.379 . S
C182 C183 1.390 . S
C182 H202 0.949 . S
C183 C182 1.390 . S
C183 C184 1.357 . S
C184 C180 1.370 . S
C184 C183 1.357 . S
C184 H203 0.950 . S
Zn185 N179 2.020 . S
Zn185 O188 2.025 . S
Zn185 O193 2.024 . S
Zn185 O195 2.039 . S
Zn185 O197 2.034 . S
O186 C170 1.251 . S
O186 Zn177 2.039 . S
C187 O192 1.246 . S
C187 O193 1.249 . S
O188 C170 1.254 . S
O188 Zn185 2.025 . S
H189 C181 0.952 . S
H190 C172 0.952 . S
H191 C180 0.948 . S
O192 Zn177 2.034 . S
O192 C187 1.246 . S
O193 Zn185 2.024 . S
O193 C187 1.249 . S
H194 C176 0.948 . S
O195 Zn185 2.039 . S
O195 C199 1.251 . S
O196 Zn177 2.025 . S
O196 C199 1.254 . S
O197 C178 1.246 . S
O197 Zn185 2.034 . S
O198 Zn177 2.024 . S
O198 C178 1.249 . S
C199 O195 1.251 . S
C199 O196 1.254 . S
H200 C173 0.949 . S
H201 C175 0.950 . S
H202 C182 0.949 . S
H203 C184 0.950 . S
C204 O220 1.251 . S
C204 O222 1.254 . S
N205 C206 1.333 . S
N205 C210 1.307 . S
N205 Zn211 2.020 . S
C206 N205 1.333 . S
C206 C207 1.379 . S
C206 H224 0.952 . S
C207 C206 1.379 . S
C207 C208 1.390 . S
C207 H234 0.949 . S
C208 C207 1.390 . S
C208 C209 1.357 . S
C209 C208 1.357 . S
C209 C210 1.370 . S
C209 H235 0.950 . S
C210 N205 1.307 . S
C210 C209 1.370 . S
C210 H228 0.948 . S
Zn211 N205 2.020 . S
Zn211 O220 2.039 . S
Zn211 O226 2.034 . S
Zn211 O230 2.025 . S
Zn211 O232 2.024 . S
C212 O231 1.246 . S
C212 O232 1.249 . S
N213 C214 1.307 . S
N213 C215 1.333 . S
N213 Zn219 2.020 . S
C214 N213 1.307 . S
C214 C218 1.370 . S
C214 H225 0.948 . S
C215 N213 1.333 . S
C215 C216 1.379 . S
C215 H223 0.952 . S
C216 C215 1.379 . S
C216 C217 1.390 . S
C216 H236 0.949 . S
C217 C216 1.390 . S
C217 C218 1.357 . S
C218 C214 1.370 . S
C218 C217 1.357 . S
C218 H237 0.950 . S
Zn219 N213 2.020 . S
Zn219 O222 2.025 . S
Zn219 O227 2.024 . S
Zn219 O229 2.039 . S
Zn219 O231 2.034 . S
O220 C204 1.251 . S
O220 Zn211 2.039 . S
C221 O226 1.246 . S
C221 O227 1.249 . S
O222 C204 1.254 . S
O222 Zn219 2.025 . S
H223 C215 0.952 . S
H224 C206 0.952 . S
H225 C214 0.948 . S
O226 Zn211 2.034 . S
O226 C221 1.246 . S
O227 Zn219 2.024 . S
O227 C221 1.249 . S
H228 C210 0.948 . S
O229 Zn219 2.039 . S
O229 C233 1.251 . S
O230 Zn211 2.025 . S
O230 C233 1.254 . S
O231 C212 1.246 . S
O231 Zn219 2.034 . S
O232 Zn211 2.024 . S
O232 C212 1.249 . S
C233 O229 1.251 . S
C233 O230 1.254 . S
H234 C207 0.949 . S
H235 C209 0.950 . S
H236 C216 0.949 . S
H237 C218 0.950 . S
C238 O254 1.251 . S
C238 O256 1.254 . S
N239 C240 1.333 . S
N239 C244 1.307 . S
N239 Zn245 2.020 . S
C240 N239 1.333 . S
C240 C241 1.379 . S
C240 H258 0.952 . S
C241 C240 1.379 . S
C241 C242 1.390 . S
C241 H268 0.949 . S
C242 C241 1.390 . S
C242 C243 1.357 . S
C243 C242 1.357 . S
C243 C244 1.370 . S
C243 H269 0.950 . S
C244 N239 1.307 . S
C244 C243 1.370 . S
C244 H262 0.948 . S
Zn245 N239 2.020 . S
Zn245 O254 2.039 . S
Zn245 O260 2.034 . S
Zn245 O264 2.025 . S
Zn245 O266 2.024 . S
C246 O265 1.246 . S
C246 O266 1.249 . S
N247 C248 1.307 . S
N247 C249 1.333 . S
N247 Zn253 2.020 . S
C248 N247 1.307 . S
C248 C252 1.370 . S
C248 H259 0.948 . S
C249 N247 1.333 . S
C249 C250 1.379 . S
C249 H257 0.952 . S
C250 C249 1.379 . S
C250 C251 1.390 . S
C250 H270 0.949 . S
C251 C250 1.390 . S
C251 C252 1.357 . S
C252 C248 1.370 . S
C252 C251 1.357 . S
C252 H271 0.950 . S
Zn253 N247 2.020 . S
Zn253 O256 2.025 . S
Zn253 O261 2.024 . S
Zn253 O263 2.039 . S
Zn253 O265 2.034 . S
O254 C238 1.251 . S
O254 Zn245 2.039 . S
C255 O260 1.246 . S
C255 O261 1.249 . S
O256 C238 1.254 . S
O256 Zn253 2.025 . S
H257 C249 0.952 . S
H258 C240 0.952 . S
H259 C248 0.948 . S
O260 Zn245 2.034 . S
O260 C255 1.246 . S
O261 Zn253 2.024 . S
O261 C255 1.249 . S
H262 C244 0.948 . S
O263 Zn253 2.039 . S
O263 C267 1.251 . S
O264 Zn245 2.025 . S
O264 C267 1.254 . S
O265 C246 1.246 . S
O265 Zn253 2.034 . S
O266 Zn245 2.024 . S
O266 C246 1.249 . S
C267 O263 1.251 . S
C267 O264 1.254 . S
H268 C241 0.949 . S
H269 C243 0.950 . S
H270 C250 0.949 . S
H271 C252 0.950 . S
C272 O288 1.251 . S
C272 O290 1.254 . S
N273 C274 1.333 . S
N273 C278 1.307 . S
N273 Zn279 2.020 . S
C274 N273 1.333 . S
C274 C275 1.379 . S
C274 H292 0.952 . S
C275 C274 1.379 . S
C275 C276 1.390 . S
C275 H302 0.949 . S
C276 C275 1.390 . S
C276 C277 1.357 . S
C277 C276 1.357 . S
C277 C278 1.370 . S
C277 H303 0.950 . S
C278 N273 1.307 . S
C278 C277 1.370 . S
C278 H296 0.948 . S
Zn279 N273 2.020 . S
Zn279 O288 2.039 . S
Zn279 O294 2.034 . S
Zn279 O298 2.025 . S
Zn279 O300 2.024 . S
C280 O299 1.246 . S
C280 O300 1.249 . S
N281 C282 1.307 . S
N281 C283 1.333 . S
N281 Zn287 2.020 . S
C282 N281 1.307 . S
C282 C286 1.370 . S
C282 H293 0.948 . S
C283 N281 1.333 . S
C283 C284 1.379 . S
C283 H291 0.952 . S
C284 C283 1.379 . S
C284 C285 1.390 . S
C284 H304 0.949 . S
C285 C284 1.390 . S
C285 C286 1.357 . S
C286 C282 1.370 . S
C286 C285 1.357 . S
C286 H305 0.950 . S
Zn287 N281 2.020 . S
Zn287 O290 2.025 . S
Zn287 O295 2.024 . S
Zn287 O297 2.039 . S
Zn287 O299 2.034 . S
O288 C272 1.251 . S
O288 Zn279 2.039 . S
C289 O294 1.246 . S
C289 O295 1.249 . S
O290 C272 1.254 . S
O290 Zn287 2.025 . S
H291 C283 0.952 . S
H292 C274 0.952 . S
H293 C282 0.948 . S
O294 Zn279 2.034 . S
O294 C289 1.246 . S
O295 Zn287 2.024 . S
O295 C289 1.249 . S
H296 C278 0.948 . S
O297 Zn287 2.039 . S
O297 C301 1.251 . S
O298 Zn279 2.025 . S
O298 C301 1.254 . S
O299 C280 1.246 . S
O299 Zn287 2.034 . S
O300 Zn279 2.024 . S
O300 C280 1.249 . S
C301 O297 1.251 . S
C301 O298 1.254 . S
H302 C275 0.949 . S
H303 C277 0.950 . S
H304 C284 0.949 . S
H305 C286 0.950 . S
C306 O322 1.251 . S
C306 O324 1.254 . S
N307 C308 1.333 . S
N307 C312 1.307 . S
N307 Zn313 2.020 . S
C308 N307 1.333 . S
C308 C309 1.379 . S
C308 H326 0.952 . S
C309 C308 1.379 . S
C309 C310 1.390 . S
C309 H336 0.949 . S
C310 C309 1.390 . S
C310 C311 1.357 . S
C311 C310 1.357 . S
C311 C312 1.370 . S
C311 H337 0.950 . S
C312 N307 1.307 . S
C312 C311 1.370 . S
C312 H330 0.948 . S
Zn313 N307 2.020 . S
Zn313 O322 2.039 . S
Zn313 O328 2.034 . S
Zn313 O332 2.025 . S
Zn313 O334 2.024 . S
C314 O333 1.246 . S
C314 O334 1.249 . S
N315 C316 1.307 . S
N315 C317 1.333 . S
N315 Zn321 2.020 . S
C316 N315 1.307 . S
C316 C320 1.370 . S
C316 H327 0.948 . S
C317 N315 1.333 . S
C317 C318 1.379 . S
C317 H325 0.952 . S
C318 C317 1.379 . S
C318 C319 1.390 . S
C318 H338 0.949 1_556 S
C319 C318 1.390 . S
C319 C320 1.357 . S
C320 C316 1.370 . S
C320 C319 1.357 . S
C320 H339 0.950 . S
Zn321 N315 2.020 . S
Zn321 O324 2.025 . S
Zn321 O329 2.024 . S
Zn321 O331 2.039 . S
Zn321 O333 2.034 . S
O322 C306 1.251 . S
O322 Zn313 2.039 . S
C323 O328 1.246 . S
C323 O329 1.249 . S
O324 C306 1.254 . S
O324 Zn321 2.025 . S
H325 C317 0.952 . S
H326 C308 0.952 . S
H327 C316 0.948 . S
O328 Zn313 2.034 . S
O328 C323 1.246 . S
O329 Zn321 2.024 . S
O329 C323 1.249 . S
H330 C312 0.948 . S
O331 Zn321 2.039 . S
O331 C335 1.251 1_556 S
O332 Zn313 2.025 . S
O332 C335 1.254 1_556 S
O333 C314 1.246 . S
O333 Zn321 2.034 . S
O334 Zn313 2.024 . S
O334 C314 1.249 . S
C335 O331 1.251 1_554 S
C335 O332 1.254 1_554 S
H336 C309 0.949 . S
H337 C311 0.950 . S
H338 C318 0.949 1_554 S
H339 C320 0.950 . S
C340 O356 1.251 . S
C340 O358 1.254 . S
N341 C342 1.333 . S
N341 C346 1.307 . S
N341 Zn347 2.020 . S
C342 N341 1.333 . S
C342 C343 1.379 . S
C342 H360 0.952 . S
C343 C342 1.379 . S
C343 C344 1.390 . S
C343 H370 0.949 . S
C344 C343 1.390 . S
C344 C345 1.357 . S
C345 C344 1.357 . S
C345 C346 1.370 . S
C345 H371 0.950 . S
C346 N341 1.307 . S
C346 C345 1.370 . S
C346 H364 0.948 . S
Zn347 N341 2.020 . S
Zn347 O356 2.039 . S
Zn347 O362 2.034 . S
Zn347 O366 2.025 . S
Zn347 O368 2.024 . S
C348 O367 1.246 . S
C348 O368 1.249 . S
N349 C350 1.307 . S
N349 C351 1.333 . S
N349 Zn355 2.020 . S
C350 N349 1.307 . S
C350 C354 1.370 . S
C350 H361 0.948 . S
C351 N349 1.333 . S
C351 C352 1.379 . S
C351 H359 0.952 . S
C352 C351 1.379 . S
C352 C353 1.390 . S
C352 H372 0.949 1_556 S
C353 C352 1.390 . S
C353 C354 1.357 . S
C354 C350 1.370 . S
C354 C353 1.357 . S
C354 H373 0.950 . S
Zn355 N349 2.020 . S
Zn355 O358 2.025 . S
Zn355 O363 2.024 . S
Zn355 O365 2.039 . S
Zn355 O367 2.034 . S
O356 C340 1.251 . S
O356 Zn347 2.039 . S
C357 O362 1.246 . S
C357 O363 1.249 . S
O358 C340 1.254 . S
O358 Zn355 2.025 . S
H359 C351 0.952 . S
H360 C342 0.952 . S
H361 C350 0.948 . S
O362 Zn347 2.034 . S
O362 C357 1.246 . S
O363 Zn355 2.024 . S
O363 C357 1.249 . S
H364 C346 0.948 . S
O365 Zn355 2.039 . S
O365 C369 1.251 1_556 S
O366 Zn347 2.025 . S
O366 C369 1.254 1_556 S
O367 C348 1.246 . S
O367 Zn355 2.034 . S
O368 Zn347 2.024 . S
O368 C348 1.249 . S
C369 O365 1.251 1_554 S
C369 O366 1.254 1_554 S
H370 C343 0.949 . S
H371 C345 0.950 . S
H372 C352 0.949 1_554 S
H373 C354 0.950 . S
C374 O390 1.251 . S
C374 O392 1.254 . S
N375 C376 1.333 . S
N375 C380 1.307 . S
N375 Zn381 2.020 . S
C376 N375 1.333 . S
C376 C377 1.379 . S
C376 H394 0.952 . S
C377 C376 1.379 . S
C377 C378 1.390 . S
C377 H404 0.949 . S
C378 C377 1.390 . S
C378 C379 1.357 . S
C379 C378 1.357 . S
C379 C380 1.370 . S
C379 H405 0.950 . S
C380 N375 1.307 . S
C380 C379 1.370 . S
C380 H398 0.948 . S
Zn381 N375 2.020 . S
Zn381 O390 2.039 . S
Zn381 O396 2.034 . S
Zn381 O400 2.025 . S
Zn381 O402 2.024 . S
C382 O401 1.246 . S
C382 O402 1.249 . S
N383 C384 1.307 . S
N383 C385 1.333 . S
N383 Zn389 2.020 . S
C384 N383 1.307 . S
C384 C388 1.370 . S
C384 H395 0.948 . S
C385 N383 1.333 . S
C385 C386 1.379 . S
C385 H393 0.952 . S
C386 C385 1.379 . S
C386 C387 1.390 . S
C386 H406 0.949 1_556 S
C387 C386 1.390 . S
C387 C388 1.357 . S
C388 C384 1.370 . S
C388 C387 1.357 . S
C388 H407 0.950 . S
Zn389 N383 2.020 . S
Zn389 O392 2.025 . S
Zn389 O397 2.024 . S
Zn389 O399 2.039 . S
Zn389 O401 2.034 . S
O390 C374 1.251 . S
O390 Zn381 2.039 . S
C391 O396 1.246 . S
C391 O397 1.249 . S
O392 C374 1.254 . S
O392 Zn389 2.025 . S
H393 C385 0.952 . S
H394 C376 0.952 . S
H395 C384 0.948 . S
O396 Zn381 2.034 . S
O396 C391 1.246 . S
O397 Zn389 2.024 . S
O397 C391 1.249 . S
H398 C380 0.948 . S
O399 Zn389 2.039 . S
O399 C403 1.251 1_556 S
O400 Zn381 2.025 . S
O400 C403 1.254 1_556 S
O401 C382 1.246 . S
O401 Zn389 2.034 . S
O402 Zn381 2.024 . S
O402 C382 1.249 . S
C403 O399 1.251 1_554 S
C403 O400 1.254 1_554 S
H404 C377 0.949 . S
H405 C379 0.950 . S
H406 C386 0.949 1_554 S
H407 C388 0.950 . S
C408 O424 1.251 1_556 S
C408 O426 1.254 1_556 S
N409 C410 1.333 . S
N409 C414 1.307 . S
N409 Zn415 2.020 . S
C410 N409 1.333 . S
C410 C411 1.379 . S
C410 H428 0.952 . S
C411 C410 1.379 . S
C411 C412 1.390 . S
C411 H438 0.949 1_554 S
C412 C411 1.390 . S
C412 C413 1.357 . S
C413 C412 1.357 . S
C413 C414 1.370 . S
C413 H439 0.950 . S
C414 N409 1.307 . S
C414 C413 1.370 . S
C414 H432 0.948 . S
Zn415 N409 2.020 . S
Zn415 O424 2.039 . S
Zn415 O430 2.034 . S
Zn415 O434 2.025 . S
Zn415 O436 2.024 . S
C416 O435 1.246 . S
C416 O436 1.249 . S
N417 C418 1.307 . S
N417 C419 1.333 . S
N417 Zn423 2.020 . S
C418 N417 1.307 . S
C418 C422 1.370 . S
C418 H429 0.948 . S
C419 N417 1.333 . S
C419 C420 1.379 . S
C419 H427 0.952 . S
C420 C419 1.379 . S
C420 C421 1.390 . S
C420 H440 0.949 . S
C421 C420 1.390 . S
C421 C422 1.357 . S
C422 C418 1.370 . S
C422 C421 1.357 . S
C422 H441 0.950 . S
Zn423 N417 2.020 . S
Zn423 O426 2.025 . S
Zn423 O431 2.024 . S
Zn423 O433 2.039 . S
Zn423 O435 2.034 . S
O424 C408 1.251 1_554 S
O424 Zn415 2.039 . S
C425 O430 1.246 . S
C425 O431 1.249 . S
O426 C408 1.254 1_554 S
O426 Zn423 2.025 . S
H427 C419 0.952 . S
H428 C410 0.952 . S
H429 C418 0.948 . S
O430 Zn415 2.034 . S
O430 C425 1.246 . S
O431 Zn423 2.024 . S
O431 C425 1.249 . S
H432 C414 0.948 . S
O433 Zn423 2.039 . S
O433 C437 1.251 . S
O434 Zn415 2.025 . S
O434 C437 1.254 . S
O435 C416 1.246 . S
O435 Zn423 2.034 . S
O436 Zn415 2.024 . S
O436 C416 1.249 . S
C437 O433 1.251 . S
C437 O434 1.254 . S
H438 C411 0.949 1_556 S
H439 C413 0.950 . S
H440 C420 0.949 . S
H441 C422 0.950 . S
C442 O458 1.251 1_556 S
C442 O460 1.254 1_556 S
N443 C444 1.333 . S
N443 C448 1.307 . S
N443 Zn449 2.020 . S
C444 N443 1.333 . S
C444 C445 1.379 . S
C444 H462 0.952 . S
C445 C444 1.379 . S
C445 C446 1.390 . S
C445 H472 0.949 1_554 S
C446 C445 1.390 . S
C446 C447 1.357 . S
C447 C446 1.357 . S
C447 C448 1.370 . S
C447 H473 0.950 . S
C448 N443 1.307 . S
C448 C447 1.370 . S
C448 H466 0.948 . S
Zn449 N443 2.020 . S
Zn449 O458 2.039 . S
Zn449 O464 2.034 . S
Zn449 O468 2.025 . S
Zn449 O470 2.024 . S
C450 O469 1.246 . S
C450 O470 1.249 . S
N451 C452 1.307 . S
N451 C453 1.333 . S
N451 Zn457 2.020 . S
C452 N451 1.307 . S
C452 C456 1.370 . S
C452 H463 0.948 . S
C453 N451 1.333 . S
C453 C454 1.379 . S
C453 H461 0.952 . S
C454 C453 1.379 . S
C454 C455 1.390 . S
C454 H474 0.949 . S
C455 C454 1.390 . S
C455 C456 1.357 . S
C456 C452 1.370 . S
C456 C455 1.357 . S
C456 H475 0.950 . S
Zn457 N451 2.020 . S
Zn457 O460 2.025 . S
Zn457 O465 2.024 . S
Zn457 O467 2.039 . S
Zn457 O469 2.034 . S
O458 C442 1.251 1_554 S
O458 Zn449 2.039 . S
C459 O464 1.246 . S
C459 O465 1.249 . S
O460 C442 1.254 1_554 S
O460 Zn457 2.025 . S
H461 C453 0.952 . S
H462 C444 0.952 . S
H463 C452 0.948 . S
O464 Zn449 2.034 . S
O464 C459 1.246 . S
O465 Zn457 2.024 . S
O465 C459 1.249 . S
H466 C448 0.948 . S
O467 Zn457 2.039 . S
O467 C471 1.251 . S
O468 Zn449 2.025 . S
O468 C471 1.254 . S
O469 C450 1.246 . S
O469 Zn457 2.034 . S
O470 Zn449 2.024 . S
O470 C450 1.249 . S
C471 O467 1.251 . S
C471 O468 1.254 . S
H472 C445 0.949 1_556 S
H473 C447 0.950 . S
H474 C454 0.949 . S
H475 C456 0.950 . S
C476 O492 1.251 1_556 S
C476 O494 1.254 1_556 S
N477 C478 1.333 . S
N477 C482 1.307 . S
N477 Zn483 2.020 . S
C478 N477 1.333 . S
C478 C479 1.379 . S
C478 H496 0.952 . S
C479 C478 1.379 . S
C479 C480 1.390 . S
C479 H506 0.949 1_554 S
C480 C479 1.390 . S
C480 C481 1.357 . S
C481 C480 1.357 . S
C481 C482 1.370 . S
C481 H507 0.950 . S
C482 N477 1.307 . S
C482 C481 1.370 . S
C482 H500 0.948 . S
Zn483 N477 2.020 . S
Zn483 O492 2.039 . S
Zn483 O498 2.034 . S
Zn483 O502 2.025 . S
Zn483 O504 2.024 . S
C484 O503 1.246 . S
C484 O504 1.249 . S
N485 C486 1.307 . S
N485 C487 1.333 . S
N485 Zn491 2.020 . S
C486 N485 1.307 . S
C486 C490 1.370 . S
C486 H497 0.948 . S
C487 N485 1.333 . S
C487 C488 1.379 . S
C487 H495 0.952 . S
C488 C487 1.379 . S
C488 C489 1.390 . S
C488 H508 0.949 . S
C489 C488 1.390 . S
C489 C490 1.357 . S
C490 C486 1.370 . S
C490 C489 1.357 . S
C490 H509 0.950 . S
Zn491 N485 2.020 . S
Zn491 O494 2.025 . S
Zn491 O499 2.024 . S
Zn491 O501 2.039 . S
Zn491 O503 2.034 . S
O492 C476 1.251 1_554 S
O492 Zn483 2.039 . S
C493 O498 1.246 . S
C493 O499 1.249 . S
O494 C476 1.254 1_554 S
O494 Zn491 2.025 . S
H495 C487 0.952 . S
H496 C478 0.952 . S
H497 C486 0.948 . S
O498 Zn483 2.034 . S
O498 C493 1.246 . S
O499 Zn491 2.024 . S
O499 C493 1.249 . S
H500 C482 0.948 . S
O501 Zn491 2.039 . S
O501 C505 1.251 . S
O502 Zn483 2.025 . S
O502 C505 1.254 . S
O503 C484 1.246 . S
O503 Zn491 2.034 . S
O504 Zn483 2.024 . S
O504 C484 1.249 . S
C505 O501 1.251 . S
C505 O502 1.254 . S
H506 C479 0.949 1_556 S
H507 C481 0.950 . S
H508 C488 0.949 . S
H509 C490 0.950 . S
C510 O526 1.251 . S
C510 O528 1.254 . S
N511 C512 1.333 . S
N511 C516 1.307 . S
N511 Zn517 2.020 . S
C512 N511 1.333 . S
C512 C513 1.379 . S
C512 H530 0.952 . S
C513 C512 1.379 . S
C513 C514 1.390 . S
C513 H540 0.949 . S
C514 C513 1.390 . S
C514 C515 1.357 . S
C515 C514 1.357 . S
C515 C516 1.370 . S
C515 H541 0.950 . S
C516 N511 1.307 . S
C516 C515 1.370 . S
C516 H534 0.948 . S
Zn517 N511 2.020 . S
Zn517 O526 2.039 . S
Zn517 O532 2.034 . S
Zn517 O536 2.025 . S
Zn517 O538 2.024 . S
C518 O537 1.246 . S
C518 O538 1.249 . S
N519 C520 1.307 . S
N519 C521 1.333 . S
N519 Zn525 2.020 . S
C520 N519 1.307 . S
C520 C524 1.370 . S
C520 H531 0.948 . S
C521 N519 1.333 . S
C521 C522 1.379 . S
C521 H529 0.952 . S
C522 C521 1.379 . S
C522 C523 1.390 . S
C522 H542 0.949 . S
C523 C522 1.390 . S
C523 C524 1.357 . S
C524 C520 1.370 . S
C524 C523 1.357 . S
C524 H543 0.950 . S
Zn525 N519 2.020 . S
Zn525 O528 2.025 . S
Zn525 O533 2.024 . S
Zn525 O535 2.039 . S
Zn525 O537 2.034 . S
O526 C510 1.251 . S
O526 Zn517 2.039 . S
C527 O532 1.246 . S
C527 O533 1.249 . S
O528 C510 1.254 . S
O528 Zn525 2.025 . S
H529 C521 0.952 . S
H530 C512 0.952 . S
H531 C520 0.948 . S
O532 Zn517 2.034 . S
O532 C527 1.246 . S
O533 Zn525 2.024 . S
O533 C527 1.249 . S
H534 C516 0.948 . S
O535 Zn525 2.039 . S
O535 C539 1.251 . S
O536 Zn517 2.025 . S
O536 C539 1.254 . S
O537 C518 1.246 . S
O537 Zn525 2.034 . S
O538 Zn517 2.024 . S
O538 C518 1.249 . S
C539 O535 1.251 . S
C539 O536 1.254 . S
H540 C513 0.949 . S
H541 C515 0.950 . S
H542 C522 0.949 . S
H543 C524 0.950 . S
C544 O560 1.251 . S
C544 O562 1.254 . S
N545 C546 1.333 . S
N545 C550 1.307 . S
N545 Zn551 2.020 . S
C546 N545 1.333 . S
C546 C547 1.379 . S
C546 H564 0.952 . S
C547 C546 1.379 . S
C547 C548 1.390 . S
C547 H574 0.949 . S
C548 C547 1.390 . S
C548 C549 1.357 . S
C549 C548 1.357 . S
C549 C550 1.370 . S
C549 H575 0.950 . S
C550 N545 1.307 . S
C550 C549 1.370 . S
C550 H568 0.948 . S
Zn551 N545 2.020 . S
Zn551 O560 2.039 . S
Zn551 O566 2.034 . S
Zn551 O570 2.025 . S
Zn551 O572 2.024 . S
C552 O571 1.246 . S
C552 O572 1.249 . S
N553 C554 1.307 . S
N553 C555 1.333 . S
N553 Zn559 2.020 . S
C554 N553 1.307 . S
C554 C558 1.370 . S
C554 H565 0.948 . S
C555 N553 1.333 . S
C555 C556 1.379 . S
C555 H563 0.952 . S
C556 C555 1.379 . S
C556 C557 1.390 . S
C556 H576 0.949 . S
C557 C556 1.390 . S
C557 C558 1.357 . S
C558 C554 1.370 . S
C558 C557 1.357 . S
C558 H577 0.950 . S
Zn559 N553 2.020 . S
Zn559 O562 2.025 . S
Zn559 O567 2.024 . S
Zn559 O569 2.039 . S
Zn559 O571 2.034 . S
O560 C544 1.251 . S
O560 Zn551 2.039 . S
C561 O566 1.246 . S
C561 O567 1.249 . S
O562 C544 1.254 . S
O562 Zn559 2.025 . S
H563 C555 0.952 . S
H564 C546 0.952 . S
H565 C554 0.948 . S
O566 Zn551 2.034 . S
O566 C561 1.246 . S
O567 Zn559 2.024 . S
O567 C561 1.249 . S
H568 C550 0.948 . S
O569 Zn559 2.039 . S
O569 C573 1.251 . S
O570 Zn551 2.025 . S
O570 C573 1.254 . S
O571 C552 1.246 . S
O571 Zn559 2.034 . S
O572 Zn551 2.024 . S
O572 C552 1.249 . S
C573 O569 1.251 . S
C573 O570 1.254 . S
H574 C547 0.949 . S
H575 C549 0.950 . S
H576 C556 0.949 . S
H577 C558 0.950 . S
C578 O594 1.251 . S
C578 O596 1.254 . S
N579 C580 1.333 . S
N579 C584 1.307 . S
N579 Zn585 2.020 . S
C580 N579 1.333 . S
C580 C581 1.379 . S
C580 H598 0.952 . S
C581 C580 1.379 . S
C581 C582 1.390 . S
C581 H608 0.949 . S
C582 C581 1.390 . S
C582 C583 1.357 . S
C583 C582 1.357 . S
C583 C584 1.370 . S
C583 H609 0.950 . S
C584 N579 1.307 . S
C584 C583 1.370 . S
C584 H602 0.948 . S
Zn585 N579 2.020 . S
Zn585 O594 2.039 . S
Zn585 O600 2.034 . S
Zn585 O604 2.025 . S
Zn585 O606 2.024 . S
C586 O605 1.246 . S
C586 O606 1.249 . S
N587 C588 1.307 . S
N587 C589 1.333 . S
N587 Zn593 2.020 . S
C588 N587 1.307 . S
C588 C592 1.370 . S
C588 H599 0.948 . S
C589 N587 1.333 . S
C589 C590 1.379 . S
C589 H597 0.952 . S
C590 C589 1.379 . S
C590 C591 1.390 . S
C590 H610 0.949 . S
C591 C590 1.390 . S
C591 C592 1.357 . S
C592 C588 1.370 . S
C592 C591 1.357 . S
C592 H611 0.950 . S
Zn593 N587 2.020 . S
Zn593 O596 2.025 . S
Zn593 O601 2.024 . S
Zn593 O603 2.039 . S
Zn593 O605 2.034 . S
O594 C578 1.251 . S
O594 Zn585 2.039 . S
C595 O600 1.246 . S
C595 O601 1.249 . S
O596 C578 1.254 . S
O596 Zn593 2.025 . S
H597 C589 0.952 . S
H598 C580 0.952 . S
H599 C588 0.948 . S
O600 Zn585 2.034 . S
O600 C595 1.246 . S
O601 Zn593 2.024 . S
O601 C595 1.249 . S
H602 C584 0.948 . S
O603 Zn593 2.039 . S
O603 C607 1.251 . S
O604 Zn585 2.025 . S
O604 C607 1.254 . S
O605 C586 1.246 . S
O605 Zn593 2.034 . S
O606 Zn585 2.024 . S
O606 C586 1.249 . S
C607 O603 1.251 . S
C607 O604 1.254 . S
H608 C581 0.949 . S
H609 C583 0.950 . S
H610 C590 0.949 . S
H611 C592 0.950 . S
H612 C620 0.950 . S
H613 C625 0.950 . S
H614 C622 0.950 . S
H615 C624 0.950 . S
H616 C626 0.950 . S
H617 C628 0.950 . S
H618 C630 0.950 . S
H619 C631 0.950 . S
C620 H612 0.950 . S
C620 C621 1.386 . S
C620 C622 1.391 . S
C621 C620 1.386 . S
C621 C625 1.393 . S
C622 H614 0.950 . S
C622 C620 1.391 . S
C622 C623 1.400 . S
C623 C622 1.400 . S
C623 C624 1.398 . S
C623 C629 1.491 . S
C624 H615 0.950 . S
C624 C623 1.398 . S
C624 C625 1.391 . S
C625 H613 0.950 . S
C625 C621 1.393 . S
C625 C624 1.391 . S
C626 H616 0.950 . S
C626 C627 1.386 . S
C626 C628 1.391 . S
C627 C626 1.386 . S
C627 C631 1.393 . S
C628 H617 0.950 . S
C628 C626 1.391 . S
C628 C629 1.400 . S
C629 C623 1.491 . S
C629 C628 1.400 . S
C629 C630 1.398 . S
C630 H618 0.950 . S
C630 C629 1.398 . S
C630 C631 1.391 . S
C631 H619 0.950 . S
C631 C627 1.393 . S
C631 C630 1.391 . S
H632 C640 0.950 . S
H633 C645 0.950 . S
H634 C642 0.950 . S
H635 C644 0.950 . S
H636 C646 0.950 . S
H637 C648 0.950 . S
H638 C650 0.950 . S
H639 C651 0.950 . S
C640 H632 0.950 . S
C640 C641 1.386 . S
C640 C642 1.391 . S
C641 C640 1.386 . S
C641 C645 1.393 . S
C642 H634 0.950 . S
C642 C640 1.391 . S
C642 C643 1.400 . S
C643 C642 1.400 . S
C643 C644 1.398 . S
C643 C649 1.491 . S
C644 H635 0.950 . S
C644 C643 1.398 . S
C644 C645 1.391 . S
C645 H633 0.950 . S
C645 C641 1.393 . S
C645 C644 1.391 . S
C646 H636 0.950 . S
C646 C647 1.386 . S
C646 C648 1.391 . S
C647 C646 1.386 . S
C647 C651 1.393 . S
C648 H637 0.950 . S
C648 C646 1.391 . S
C648 C649 1.400 . S
C649 C643 1.491 . S
C649 C648 1.400 . S
C649 C650 1.398 . S
C650 H638 0.950 . S
C650 C649 1.398 . S
C650 C651 1.391 . S
C651 H639 0.950 . S
C651 C647 1.393 . S
C651 C650 1.391 . S
H652 C660 0.950 . S
H653 C665 0.950 . S
H654 C662 0.950 . S
H655 C664 0.952 1_545 S
H656 C666 0.950 . S
H657 C668 0.950 . S
H658 C670 0.950 . S
H659 C671 0.950 . S
C660 H652 0.950 . S
C660 C661 1.386 1_565 S
C660 C662 1.391 . S
C661 C660 1.386 1_545 S
C661 C665 1.393 . S
C662 H654 0.950 . S
C662 C660 1.391 . S
C662 C663 1.400 . S
C663 C662 1.400 . S
C663 C664 1.398 . S
C663 C669 1.491 . S
C664 H655 0.952 1_565 S
C664 C663 1.398 . S
C664 C665 1.391 1_565 S
C665 H653 0.950 . S
C665 C661 1.393 . S
C665 C664 1.391 1_545 S
C666 H656 0.950 . S
C666 C667 1.386 . S
C666 C668 1.391 . S
C667 C666 1.386 . S
C667 C671 1.393 . S
C668 H657 0.950 . S
C668 C666 1.391 . S
C668 C669 1.400 . S
C669 C663 1.491 . S
C669 C668 1.400 . S
C669 C670 1.398 . S
C670 H658 0.950 . S
C670 C669 1.398 . S
C670 C671 1.391 . S
C671 H659 0.950 . S
C671 C667 1.393 . S
C671 C670 1.391 . S
H672 C680 0.950 . S
H673 C685 0.950 . S
H674 C682 0.950 . S
H675 C684 0.950 . S
H676 C686 0.950 . S
H677 C688 0.950 . S
H678 C690 0.950 . S
H679 C691 0.950 . S
C680 H672 0.950 . S
C680 C681 1.386 . S
C680 C682 1.391 . S
C681 C680 1.386 . S
C681 C685 1.393 . S
C682 H674 0.950 . S
C682 C680 1.391 . S
C682 C683 1.400 . S
C683 C682 1.400 . S
C683 C684 1.398 . S
C683 C689 1.491 . S
C684 H675 0.950 . S
C684 C683 1.398 . S
C684 C685 1.391 . S
C685 H673 0.950 . S
C685 C681 1.393 . S
C685 C684 1.391 . S
C686 H676 0.950 . S
C686 C687 1.386 . S
C686 C688 1.391 . S
C687 C686 1.386 . S
C687 C691 1.393 . S
C688 H677 0.950 . S
C688 C686 1.391 . S
C688 C689 1.400 . S
C689 C683 1.491 . S
C689 C688 1.400 . S
C689 C690 1.398 . S
C690 H678 0.950 . S
C690 C689 1.398 . S
C690 C691 1.391 . S
C691 H679 0.950 . S
C691 C687 1.393 . S
C691 C690 1.391 . S
H692 C700 0.950 . S
H693 C705 0.950 . S
H694 C702 0.950 . S
H695 C704 0.950 . S
H696 C706 0.950 . S
H697 C708 0.950 . S
H698 C710 0.950 . S
H699 C711 0.950 . S
C700 H692 0.950 . S
C700 C701 1.386 . S
C700 C702 1.391 . S
C701 C700 1.386 . S
C701 C705 1.393 . S
C702 H694 0.950 . S
C702 C700 1.391 . S
C702 C703 1.400 . S
C703 C702 1.400 . S
C703 C704 1.398 . S
C703 C709 1.491 . S
C704 H695 0.950 . S
C704 C703 1.398 . S
C704 C705 1.391 . S
C705 H693 0.950 . S
C705 C701 1.393 . S
C705 C704 1.391 . S
C706 H696 0.950 . S
C706 C707 1.386 . S
C706 C708 1.391 . S
C707 C706 1.386 . S
C707 C711 1.393 . S
C708 H697 0.950 . S
C708 C706 1.391 . S
C708 C709 1.400 . S
C709 C703 1.491 . S
C709 C708 1.400 . S
C709 C710 1.398 . S
C710 H698 0.950 . S
C710 C709 1.398 . S
C710 C711 1.391 . S
C711 H699 0.950 . S
C711 C707 1.393 . S
C711 C710 1.391 . S
H712 C720 0.950 . S
H713 C725 0.950 . S
H714 C722 0.950 . S
H715 C724 0.950 . S
H716 C726 0.950 . S
H717 C728 0.950 . S
H718 C730 0.950 . S
H719 C731 0.950 . S
C720 H712 0.950 . S
C720 C721 1.386 . S
C720 C722 1.391 . S
C721 C720 1.386 . S
C721 C725 1.393 . S
C722 H714 0.950 . S
C722 C720 1.391 . S
C722 C723 1.400 . S
C723 C722 1.400 . S
C723 C724 1.398 . S
C723 C729 1.491 . S
C724 H715 0.950 . S
C724 C723 1.398 . S
C724 C725 1.391 . S
C725 H713 0.950 . S
C725 C721 1.393 . S
C725 C724 1.391 . S
C726 H716 0.950 . S
C726 C727 1.386 . S
C726 C728 1.391 . S
C727 C726 1.386 . S
C727 C731 1.393 . S
C728 H717 0.950 . S
C728 C726 1.391 . S
C728 C729 1.400 . S
C729 C723 1.491 . S
C729 C728 1.400 . S
C729 C730 1.398 . S
C730 H718 0.950 . S
C730 C729 1.398 . S
C730 C731 1.391 . S
C731 H719 0.950 . S
C731 C727 1.393 . S
C731 C730 1.391 . S
H732 C740 0.950 . S
H733 C745 0.950 . S
H734 C742 0.915 1_455 S
H735 C744 0.950 . S
H736 C746 0.950 . S
H737 C748 0.950 . S
H738 C750 0.950 . S
H739 C751 0.950 . S
C740 H732 0.950 . S
C740 C741 1.386 . S
C740 C742 1.391 1_455 S
C741 C740 1.386 . S
C741 C745 1.393 1_455 S
C742 H734 0.915 1_655 S
C742 C740 1.391 1_655 S
C742 C743 1.400 . S
C743 C742 1.400 . S
C743 C744 1.398 . S
C743 C749 1.491 . S
C744 H735 0.950 . S
C744 C743 1.398 . S
C744 C745 1.391 . S
C745 H733 0.950 . S
C745 C741 1.393 1_655 S
C745 C744 1.391 . S
C746 H736 0.950 . S
C746 C747 1.386 . S
C746 C748 1.391 . S
C747 C746 1.386 . S
C747 C751 1.393 . S
C748 H737 0.950 . S
C748 C746 1.391 . S
C748 C749 1.400 . S
C749 C743 1.491 . S
C749 C748 1.400 . S
C749 C750 1.398 . S
C750 H738 0.950 . S
C750 C749 1.398 . S
C750 C751 1.391 . S
C751 H739 0.950 . S
C751 C747 1.393 . S
C751 C750 1.391 . S
H752 C760 0.950 . S
H753 C765 0.950 . S
H754 C762 0.950 . S
H755 C764 0.950 . S
H756 C766 0.950 . S
H757 C768 0.950 . S
H758 C770 0.950 . S
H759 C771 0.950 . S
C760 H752 0.950 . S
C760 C761 1.386 . S
C760 C762 1.391 . S
C761 C760 1.386 . S
C761 C765 1.393 . S
C762 H754 0.950 . S
C762 C760 1.391 . S
C762 C763 1.400 . S
C763 C762 1.400 . S
C763 C764 1.398 . S
C763 C769 1.491 . S
C764 H755 0.950 . S
C764 C763 1.398 . S
C764 C765 1.391 . S
C765 H753 0.950 . S
C765 C761 1.393 . S
C765 C764 1.391 . S
C766 H756 0.950 . S
C766 C767 1.386 . S
C766 C768 1.391 . S
C767 C766 1.386 . S
C767 C771 1.393 . S
C768 H757 0.950 . S
C768 C766 1.391 . S
C768 C769 1.400 . S
C769 C763 1.491 . S
C769 C768 1.400 . S
C769 C770 1.398 . S
C770 H758 0.950 . S
C770 C769 1.398 . S
C770 C771 1.391 . S
C771 H759 0.950 . S
C771 C767 1.393 . S
C771 C770 1.391 . S
H772 C780 0.950 . S
H773 C785 0.950 . S
H774 C782 0.950 . S
H775 C784 0.950 . S
H776 C786 0.950 . S
H777 C788 0.950 . S
H778 C790 0.950 . S
H779 C791 0.950 . S
C780 H772 0.950 . S
C780 C781 1.386 . S
C780 C782 1.391 . S
C781 C780 1.386 . S
C781 C785 1.393 . S
C782 H774 0.950 . S
C782 C780 1.391 . S
C782 C783 1.400 . S
C783 C782 1.400 . S
C783 C784 1.398 . S
C783 C789 1.491 . S
C784 H775 0.950 . S
C784 C783 1.398 . S
C784 C785 1.391 . S
C785 H773 0.950 . S
C785 C781 1.393 . S
C785 C784 1.391 . S
C786 H776 0.950 . S
C786 C787 1.386 . S
C786 C788 1.391 . S
C787 C786 1.386 . S
C787 C791 1.393 . S
C788 H777 0.950 . S
C788 C786 1.391 . S
C788 C789 1.400 . S
C789 C783 1.491 . S
C789 C788 1.400 . S
C789 C790 1.398 . S
C790 H778 0.950 . S
C790 C789 1.398 . S
C790 C791 1.391 . S
C791 H779 0.950 . S
C791 C787 1.393 . S
C791 C790 1.391 . S
H792 C800 0.950 . S
H793 C805 0.950 . S
H794 C802 0.950 . S
H795 C804 0.950 . S
H796 C806 0.950 . S
H797 C808 0.950 . S
H798 C810 0.950 . S
H799 C811 0.950 . S
C800 H792 0.950 . S
C800 C801 1.386 . S
C800 C802 1.391 . S
C801 C800 1.386 . S
C801 C805 1.393 . S
C802 H794 0.950 . S
C802 C800 1.391 . S
C802 C803 1.400 . S
C803 C802 1.400 . S
C803 C804 1.398 . S
C803 C809 1.491 . S
C804 H795 0.950 . S
C804 C803 1.398 . S
C804 C805 1.391 . S
C805 H793 0.950 . S
C805 C801 1.393 . S
C805 C804 1.391 . S
C806 H796 0.950 . S
C806 C807 1.386 . S
C806 C808 1.391 . S
C807 C806 1.386 . S
C807 C811 1.393 . S
C808 H797 0.950 . S
C808 C806 1.391 . S
C808 C809 1.400 . S
C809 C803 1.491 . S
C809 C808 1.400 . S
C809 C810 1.398 . S
C810 H798 0.950 . S
C810 C809 1.398 . S
C810 C811 1.391 . S
C811 H799 0.950 . S
C811 C807 1.393 . S
C811 C810 1.391 . S
H812 C820 0.950 . S
H813 C825 0.950 . S
H814 C822 0.950 . S
H815 C824 0.950 . S
H816 C826 0.950 . S
H817 C828 0.950 . S
H818 C830 0.950 . S
H819 C831 0.950 . S
C820 H812 0.950 . S
C820 C821 1.386 . S
C820 C822 1.391 . S
C821 C820 1.386 . S
C821 C825 1.393 . S
C822 H814 0.950 . S
C822 C820 1.391 . S
C822 C823 1.400 . S
C823 C822 1.400 . S
C823 C824 1.398 . S
C823 C829 1.491 . S
C824 H815 0.950 . S
C824 C823 1.398 . S
C824 C825 1.391 . S
C825 H813 0.950 . S
C825 C821 1.393 . S
C825 C824 1.391 . S
C826 H816 0.950 . S
C826 C827 1.386 . S
C826 C828 1.391 . S
C827 C826 1.386 . S
C827 C831 1.393 . S
C828 H817 0.950 . S
C828 C826 1.391 . S
C828 C829 1.400 . S
C829 C823 1.491 . S
C829 C828 1.400 . S
C829 C830 1.398 . S
C830 H818 0.950 . S
C830 C829 1.398 . S
C830 C831 1.391 . S
C831 H819 0.950 . S
C831 C827 1.393 . S
C831 C830 1.391 . S
H832 C840 0.950 . S
H833 C845 0.950 . S
H834 C842 0.950 . S
H835 C844 0.950 . S
H836 C846 0.950 . S
H837 C848 0.950 . S
H838 C850 0.950 . S
H839 C851 0.950 . S
C840 H832 0.950 . S
C840 C841 1.386 . S
C840 C842 1.391 . S
C841 C840 1.386 . S
C841 C845 1.393 . S
C842 H834 0.950 . S
C842 C840 1.391 . S
C842 C843 1.400 . S
C843 C842 1.400 . S
C843 C844 1.398 . S
C843 C849 1.491 . S
C844 H835 0.950 . S
C844 C843 1.398 . S
C844 C845 1.391 . S
C845 H833 0.950 . S
C845 C841 1.393 . S
C845 C844 1.391 . S
C846 H836 0.950 . S
C846 C847 1.386 . S
C846 C848 1.391 . S
C847 C846 1.386 . S
C847 C851 1.393 . S
C848 H837 0.950 . S
C848 C846 1.391 . S
C848 C849 1.400 . S
C849 C843 1.491 . S
C849 C848 1.400 . S
C849 C850 1.398 . S
C850 H838 0.950 . S
C850 C849 1.398 . S
C850 C851 1.391 . S
C851 H839 0.950 . S
C851 C847 1.393 . S
C851 C850 1.391 . S
H852 C860 0.950 . S
H853 C865 0.950 . S
H854 C862 0.950 1_554 S
H855 C864 0.950 . S
H856 C866 0.950 . S
H857 C868 0.950 1_556 S
H858 C870 0.950 . S
H859 C871 0.950 . S
C860 H852 0.950 . S
C860 C861 1.386 . S
C860 C862 1.391 . S
C861 C860 1.386 . S
C861 C865 1.393 . S
C862 H854 0.950 1_556 S
C862 C860 1.391 . S
C862 C863 1.400 . S
C863 C862 1.400 . S
C863 C864 1.398 . S
C863 C869 1.491 1_556 S
C864 H855 0.950 . S
C864 C863 1.398 . S
C864 C865 1.391 . S
C865 H853 0.950 . S
C865 C861 1.393 . S
C865 C864 1.391 . S
C866 H856 0.950 . S
C866 C867 1.386 . S
C866 C868 1.391 . S
C867 C866 1.386 . S
C867 C871 1.393 . S
C868 H857 0.950 1_554 S
C868 C866 1.391 . S
C868 C869 1.400 . S
C869 C863 1.491 1_554 S
C869 C868 1.400 . S
C869 C870 1.398 . S
C870 H858 0.950 . S
C870 C869 1.398 . S
C870 C871 1.391 . S
C871 H859 0.950 . S
C871 C867 1.393 . S
C871 C870 1.391 . S
H872 C880 0.950 . S
H873 C885 0.950 . S
H874 C882 0.950 . S
H875 C884 0.950 . S
H876 C886 0.950 . S
H877 C888 0.950 . S
H878 C890 0.950 1_556 S
H879 C891 0.950 . S
C880 H872 0.950 . S
C880 C881 1.386 . S
C880 C882 1.391 . S
C881 C880 1.386 . S
C881 C885 1.393 . S
C882 H874 0.950 . S
C882 C880 1.391 . S
C882 C883 1.400 . S
C883 C882 1.400 . S
C883 C884 1.398 . S
C883 C889 1.491 1_556 S
C884 H875 0.950 . S
C884 C883 1.398 . S
C884 C885 1.391 . S
C885 H873 0.950 . S
C885 C881 1.393 . S
C885 C884 1.391 . S
C886 H876 0.950 . S
C886 C887 1.386 . S
C886 C888 1.391 . S
C887 C886 1.386 . S
C887 C891 1.393 . S
C888 H877 0.950 . S
C888 C886 1.391 . S
C888 C889 1.400 . S
C889 C883 1.491 1_554 S
C889 C888 1.400 . S
C889 C890 1.398 . S
C890 H878 0.950 1_554 S
C890 C889 1.398 . S
C890 C891 1.391 . S
C891 H879 0.950 . S
C891 C887 1.393 . S
C891 C890 1.391 . S
H892 C900 0.950 . S
H893 C905 0.950 1_554 S
H894 C902 0.950 . S
H895 C904 0.950 . S
H896 C906 0.950 . S
H897 C908 0.950 . S
H898 C910 0.950 . S
H899 C911 0.950 1_556 S
C900 H892 0.950 . S
C900 C901 1.386 . S
C900 C902 1.391 . S
C901 C900 1.386 . S
C901 C905 1.393 . S
C902 H894 0.950 . S
C902 C900 1.391 . S
C902 C903 1.400 . S
C903 C902 1.400 . S
C903 C904 1.398 1_556 S
C903 C909 1.491 1_556 S
C904 H895 0.950 . S
C904 C903 1.398 1_554 S
C904 C905 1.391 1_554 S
C905 H893 0.950 1_556 S
C905 C901 1.393 . S
C905 C904 1.391 1_556 S
C906 H896 0.950 . S
C906 C907 1.386 . S
C906 C908 1.391 1_565 S
C907 C906 1.386 . S
C907 C911 1.393 . S
C908 H897 0.950 . S
C908 C906 1.391 1_545 S
C908 C909 1.400 . S
C909 C903 1.491 1_554 S
C909 C908 1.400 . S
C909 C910 1.398 1_544 S
C910 H898 0.950 . S
C910 C909 1.398 1_566 S
C910 C911 1.391 1_556 S
C911 H899 0.950 1_554 S
C911 C907 1.393 . S
C911 C910 1.391 1_554 S
H912 C920 0.950 1_554 S
H913 C925 0.950 . S
H914 C922 0.950 . S
H915 C924 0.950 . S
H916 C926 0.950 1_556 S
H917 C928 0.950 . S
H918 C930 0.950 . S
H919 C931 0.950 . S
C920 H912 0.950 1_556 S
C920 C921 1.386 . S
C920 C922 1.391 1_556 S
C921 C920 1.386 . S
C921 C925 1.393 . S
C922 H914 0.950 . S
C922 C920 1.391 1_554 S
C922 C923 1.400 1_554 S
C923 C922 1.400 1_556 S
C923 C924 1.398 . S
C923 C929 1.491 1_556 S
C924 H915 0.950 . S
C924 C923 1.398 . S
C924 C925 1.391 . S
C925 H913 0.950 . S
C925 C921 1.393 . S
C925 C924 1.391 . S
C926 H916 0.950 1_554 S
C926 C927 1.386 . S
C926 C928 1.391 1_554 S
C927 C926 1.386 . S
C927 C931 1.393 . S
C928 H917 0.950 . S
C928 C926 1.391 1_556 S
C928 C929 1.400 1_556 S
C929 C923 1.491 1_554 S
C929 C928 1.400 1_554 S
C929 C930 1.398 . S
C930 H918 0.950 . S
C930 C929 1.398 . S
C930 C931 1.391 . S
C931 H919 0.950 . S
C931 C927 1.393 . S
C931 C930 1.391 . S
H932 C940 0.950 . S
H933 C945 0.950 . S
H934 C942 0.950 1_556 S
H935 C944 0.950 . S
H936 C946 0.950 . S
H937 C948 0.950 . S
H938 C950 0.950 . S
H939 C951 0.950 . S
C940 H932 0.950 . S
C940 C941 1.386 . S
C940 C942 1.391 . S
C941 C940 1.386 . S
C941 C945 1.393 . S
C942 H934 0.950 1_554 S
C942 C940 1.391 . S
C942 C943 1.400 . S
C943 C942 1.400 . S
C943 C944 1.398 . S
C943 C949 1.491 1_554 S
C944 H935 0.950 . S
C944 C943 1.398 . S
C944 C945 1.391 . S
C945 H933 0.950 . S
C945 C941 1.393 . S
C945 C944 1.391 . S
C946 H936 0.950 . S
C946 C947 1.386 . S
C946 C948 1.391 1_556 S
C947 C946 1.386 . S
C947 C951 1.393 . S
C948 H937 0.950 . S
C948 C946 1.391 1_554 S
C948 C949 1.400 1_654 S
C949 C943 1.491 1_556 S
C949 C948 1.400 1_456 S
C949 C950 1.398 . S
C950 H938 0.950 . S
C950 C949 1.398 . S
C950 C951 1.391 1_455 S
C951 H939 0.950 . S
C951 C947 1.393 . S
C951 C950 1.391 1_655 S
H952 C960 0.950 . S
H953 C965 0.950 . S
H954 C962 0.950 . S
H955 C964 0.950 1_556 S
H956 C966 0.950 . S
H957 C968 0.950 . S
H958 C970 0.950 . S
H959 C971 0.950 . S
C960 H952 0.950 . S
C960 C961 1.386 . S
C960 C962 1.391 . S
C961 C960 1.386 . S
C961 C965 1.393 . S
C962 H954 0.950 . S
C962 C960 1.391 . S
C962 C963 1.400 . S
C963 C962 1.400 . S
C963 C964 1.398 . S
C963 C969 1.491 1_554 S
C964 H955 0.950 1_554 S
C964 C963 1.398 . S
C964 C965 1.391 . S
C965 H953 0.950 . S
C965 C961 1.393 . S
C965 C964 1.391 . S
C966 H956 0.950 . S
C966 C967 1.386 . S
C966 C968 1.391 . S
C967 C966 1.386 . S
C967 C971 1.393 . S
C968 H957 0.950 . S
C968 C966 1.391 . S
C968 C969 1.400 . S
C969 C963 1.491 1_556 S
C969 C968 1.400 . S
C969 C970 1.398 1_556 S
C970 H958 0.950 . S
C970 C969 1.398 1_554 S
C970 C971 1.390 1_554 S
C971 H959 0.950 . S
C971 C967 1.393 . S
C971 C970 1.390 1_556 S
H972 C980 0.950 . S
H973 C985 0.950 . S
H974 C982 0.950 . S
H975 C984 0.950 . S
H976 C986 0.950 . S
H977 C988 0.950 . S
H978 C990 0.950 . S
H979 C991 0.950 . S
C980 H972 0.950 . S
C980 C981 1.386 . S
C980 C982 1.391 . S
C981 C980 1.386 . S
C981 C985 1.393 . S
C982 H974 0.950 . S
C982 C980 1.391 . S
C982 C983 1.400 . S
C983 C982 1.400 . S
C983 C984 1.398 . S
C983 C989 1.491 . S
C984 H975 0.950 . S
C984 C983 1.398 . S
C984 C985 1.391 . S
C985 H973 0.950 . S
C985 C981 1.393 . S
C985 C984 1.391 . S
C986 H976 0.950 . S
C986 C987 1.386 . S
C986 C988 1.391 . S
C987 C986 1.386 . S
C987 C991 1.393 . S
C988 H977 0.950 . S
C988 C986 1.391 . S
C988 C989 1.400 . S
C989 C983 1.491 . S
C989 C988 1.400 . S
C989 C990 1.398 . S
C990 H978 0.950 . S
C990 C989 1.398 . S
C990 C991 1.391 . S
C991 H979 0.950 . S
C991 C987 1.393 . S
C991 C990 1.391 . S
H992 C1000 0.938 1_545 S
H993 C1005 0.950 . S
H994 C1002 0.950 . S
H995 C1004 0.950 . S
H996 C1006 0.950 . S
H997 C1008 0.950 . S
H998 C1010 0.950 . S
H999 C1011 0.950 . S
C1000 H992 0.938 1_565 S
C1000 C1001 1.395 . S
C1000 C1002 1.412 . S
C1001 C1000 1.395 . S
C1001 C1005 1.416 . S
C1002 H994 0.950 . S
C1002 C1000 1.412 . S
C1002 C1003 1.400 . S
C1003 C1002 1.400 . S
C1003 C1004 1.398 . S
C1003 C1009 1.491 . S
C1004 H995 0.950 . S
C1004 C1003 1.398 . S
C1004 C1005 1.391 . S
C1005 H993 0.950 . S
C1005 C1001 1.416 . S
C1005 C1004 1.391 . S
C1006 H996 0.950 . S
C1006 C1007 1.386 . S
C1006 C1008 1.391 . S
C1007 C1006 1.386 . S
C1007 C1011 1.393 . S
C1008 H997 0.950 . S
C1008 C1006 1.391 . S
C1008 C1009 1.400 . S
C1009 C1003 1.491 . S
C1009 C1008 1.400 . S
C1009 C1010 1.398 . S
C1010 H998 0.950 . S
C1010 C1009 1.398 . S
C1010 C1011 1.391 . S
C1011 H999 0.950 . S
C1011 C1007 1.393 . S
C1011 C1010 1.391 . S
H1012 C1020 0.950 . S
H1013 C1025 0.950 . S
H1014 C1022 0.950 . S
H1015 C1024 0.950 . S
H1016 C1026 0.950 . S
H1017 C1028 0.950 . S
H1018 C1030 0.950 . S
H1019 C1031 0.950 . S
C1020 H1012 0.950 . S
C1020 C1021 1.386 . S
C1020 C1022 1.391 . S
C1021 C1020 1.386 . S
C1021 C1025 1.393 . S
C1022 H1014 0.950 . S
C1022 C1020 1.391 . S
C1022 C1023 1.400 . S
C1023 C1022 1.400 . S
C1023 C1024 1.398 . S
C1023 C1029 1.491 . S
C1024 H1015 0.950 . S
C1024 C1023 1.398 . S
C1024 C1025 1.391 . S
C1025 H1013 0.950 . S
C1025 C1021 1.393 . S
C1025 C1024 1.391 . S
C1026 H1016 0.950 . S
C1026 C1027 1.386 . S
C1026 C1028 1.391 . S
C1027 C1026 1.386 . S
C1027 C1031 1.393 . S
C1028 H1017 0.950 . S
C1028 C1026 1.391 . S
C1028 C1029 1.400 . S
C1029 C1023 1.491 . S
C1029 C1028 1.400 . S
C1029 C1030 1.398 . S
C1030 H1018 0.950 . S
C1030 C1029 1.398 . S
C1030 C1031 1.391 . S
C1031 H1019 0.950 . S
C1031 C1027 1.393 . S
C1031 C1030 1.391 . S
H1032 C1040 0.950 . S
H1033 C1045 0.950 . S
H1034 C1042 0.950 . S
H1035 C1044 0.950 . S
H1036 C1046 0.950 . S
H1037 C1048 0.950 . S
H1038 C1050 0.950 . S
H1039 C1051 0.950 . S
C1040 H1032 0.950 . S
C1040 C1041 1.386 . S
C1040 C1042 1.391 . S
C1041 C1040 1.386 . S
C1041 C1045 1.393 . S
C1042 H1034 0.950 . S
C1042 C1040 1.391 . S
C1042 C1043 1.400 . S
C1043 C1042 1.400 . S
C1043 C1044 1.398 . S
C1043 C1049 1.491 . S
C1044 H1035 0.950 . S
C1044 C1043 1.398 . S
C1044 C1045 1.391 . S
C1045 H1033 0.950 . S
C1045 C1041 1.393 . S
C1045 C1044 1.391 . S
C1046 H1036 0.950 . S
C1046 C1047 1.386 . S
C1046 C1048 1.391 . S
C1047 C1046 1.386 . S
C1047 C1051 1.393 . S
C1048 H1037 0.950 . S
C1048 C1046 1.391 . S
C1048 C1049 1.400 . S
C1049 C1043 1.491 . S
C1049 C1048 1.400 . S
C1049 C1050 1.398 . S
C1050 H1038 0.950 . S
C1050 C1049 1.398 . S
C1050 C1051 1.391 . S
C1051 H1039 0.950 . S
C1051 C1047 1.393 . S
C1051 C1050 1.391 . S
H1052 C1060 0.950 . S
H1053 C1065 0.950 . S
H1054 C1062 0.950 . S
H1055 C1064 0.950 . S
H1056 C1066 0.950 . S
H1057 C1068 0.950 . S
H1058 C1070 0.950 . S
H1059 C1071 0.950 1_455 S
C1060 H1052 0.950 . S
C1060 C1061 1.386 . S
C1060 C1062 1.391 . S
C1061 C1060 1.386 . S
C1061 C1065 1.393 . S
C1062 H1054 0.950 . S
C1062 C1060 1.391 . S
C1062 C1063 1.400 . S
C1063 C1062 1.400 . S
C1063 C1064 1.398 . S
C1063 C1069 1.491 . S
C1064 H1055 0.950 . S
C1064 C1063 1.398 . S
C1064 C1065 1.391 . S
C1065 H1053 0.950 . S
C1065 C1061 1.393 . S
C1065 C1064 1.391 . S
C1066 H1056 0.950 . S
C1066 C1067 1.360 1_655 S
C1066 C1068 1.391 . S
C1067 C1066 1.360 1_455 S
C1067 C1071 1.403 1_455 S
C1068 H1057 0.950 . S
C1068 C1066 1.391 . S
C1068 C1069 1.400 . S
C1069 C1063 1.491 . S
C1069 C1068 1.400 . S
C1069 C1070 1.398 . S
C1070 H1058 0.950 . S
C1070 C1069 1.398 . S
C1070 C1071 1.391 . S
C1071 H1059 0.950 1_655 S
C1071 C1067 1.403 1_655 S
C1071 C1070 1.391 . S
H1072 C1080 0.950 . S
H1073 C1085 0.950 . S
H1074 C1082 0.950 . S
H1075 C1084 0.950 . S
H1076 C1086 0.950 . S
H1077 C1088 0.950 . S
H1078 C1090 0.950 . S
H1079 C1091 0.950 . S
C1080 H1072 0.950 . S
C1080 C1081 1.386 . S
C1080 C1082 1.391 . S
C1081 C1080 1.386 . S
C1081 C1085 1.393 . S
C1082 H1074 0.950 . S
C1082 C1080 1.391 . S
C1082 C1083 1.400 . S
C1083 C1082 1.400 . S
C1083 C1084 1.398 . S
C1083 C1089 1.491 . S
C1084 H1075 0.950 . S
C1084 C1083 1.398 . S
C1084 C1085 1.391 . S
C1085 H1073 0.950 . S
C1085 C1081 1.393 . S
C1085 C1084 1.391 . S
C1086 H1076 0.950 . S
C1086 C1087 1.386 . S
C1086 C1088 1.391 . S
C1087 C1086 1.386 . S
C1087 C1091 1.393 . S
C1088 H1077 0.950 . S
C1088 C1086 1.391 . S
C1088 C1089 1.400 . S
C1089 C1083 1.491 . S
C1089 C1088 1.400 . S
C1089 C1090 1.398 . S
C1090 H1078 0.950 . S
C1090 C1089 1.398 . S
C1090 C1091 1.391 . S
C1091 H1079 0.950 . S
C1091 C1087 1.393 . S
C1091 C1090 1.391 . S
H1092 C1100 0.950 . S
H1093 C1105 0.950 . S
H1094 C1102 0.950 . S
H1095 C1104 0.950 . S
H1096 C1106 0.950 . S
H1097 C1108 0.950 . S
H1098 C1110 0.950 . S
H1099 C1111 0.950 . S
C1100 H1092 0.950 . S
C1100 C1101 1.386 . S
C1100 C1102 1.391 . S
C1101 C1100 1.386 . S
C1101 C1105 1.393 . S
C1102 H1094 0.950 . S
C1102 C1100 1.391 . S
C1102 C1103 1.400 . S
C1103 C1102 1.400 . S
C1103 C1104 1.398 . S
C1103 C1109 1.491 . S
C1104 H1095 0.950 . S
C1104 C1103 1.398 . S
C1104 C1105 1.391 . S
C1105 H1093 0.950 . S
C1105 C1101 1.393 . S
C1105 C1104 1.391 . S
C1106 H1096 0.950 . S
C1106 C1107 1.386 . S
C1106 C1108 1.391 . S
C1107 C1106 1.386 . S
C1107 C1111 1.393 . S
C1108 H1097 0.950 . S
C1108 C1106 1.391 . S
C1108 C1109 1.400 . S
C1109 C1103 1.491 . S
C1109 C1108 1.400 . S
C1109 C1110 1.398 . S
C1110 H1098 0.950 . S
C1110 C1109 1.398 . S
C1110 C1111 1.391 . S
C1111 H1099 0.950 . S
C1111 C1107 1.393 . S
C1111 C1110 1.391 . S
H1112 C1120 0.950 . S
H1113 C1125 0.950 . S
H1114 C1122 0.950 . S
H1115 C1124 0.950 . S
H1116 C1126 0.950 . S
H1117 C1128 0.950 . S
H1118 C1130 0.950 . S
H1119 C1131 0.950 . S
C1120 H1112 0.950 . S
C1120 C1121 1.386 . S
C1120 C1122 1.391 . S
C1121 C1120 1.386 . S
C1121 C1125 1.393 . S
C1122 H1114 0.950 . S
C1122 C1120 1.391 . S
C1122 C1123 1.400 . S
C1123 C1122 1.400 . S
C1123 C1124 1.398 . S
C1123 C1129 1.491 . S
C1124 H1115 0.950 . S
C1124 C1123 1.398 . S
C1124 C1125 1.391 . S
C1125 H1113 0.950 . S
C1125 C1121 1.393 . S
C1125 C1124 1.391 . S
C1126 H1116 0.950 . S
C1126 C1127 1.386 . S
C1126 C1128 1.391 . S
C1127 C1126 1.386 . S
C1127 C1131 1.393 . S
C1128 H1117 0.950 . S
C1128 C1126 1.391 . S
C1128 C1129 1.400 . S
C1129 C1123 1.491 . S
C1129 C1128 1.400 . S
C1129 C1130 1.398 . S
C1130 H1118 0.950 . S
C1130 C1129 1.398 . S
C1130 C1131 1.391 . S
C1131 H1119 0.950 . S
C1131 C1127 1.393 . S
C1131 C1130 1.391 . S
H1132 C1140 0.950 . S
H1133 C1145 0.950 . S
H1134 C1142 0.950 . S
H1135 C1144 0.950 . S
H1136 C1146 0.950 . S
H1137 C1148 0.950 . S
H1138 C1150 0.950 . S
H1139 C1151 0.950 . S
C1140 H1132 0.950 . S
C1140 C1141 1.386 . S
C1140 C1142 1.391 . S
C1141 C1140 1.386 . S
C1141 C1145 1.393 . S
C1142 H1134 0.950 . S
C1142 C1140 1.391 . S
C1142 C1143 1.400 . S
C1143 C1142 1.400 . S
C1143 C1144 1.398 . S
C1143 C1149 1.491 . S
C1144 H1135 0.950 . S
C1144 C1143 1.398 . S
C1144 C1145 1.391 . S
C1145 H1133 0.950 . S
C1145 C1141 1.393 . S
C1145 C1144 1.391 . S
C1146 H1136 0.950 . S
C1146 C1147 1.386 . S
C1146 C1148 1.391 . S
C1147 C1146 1.386 . S
C1147 C1151 1.393 . S
C1148 H1137 0.950 . S
C1148 C1146 1.391 . S
C1148 C1149 1.400 . S
C1149 C1143 1.491 . S
C1149 C1148 1.400 . S
C1149 C1150 1.398 . S
C1150 H1138 0.950 . S
C1150 C1149 1.398 . S
C1150 C1151 1.391 . S
C1151 H1139 0.950 . S
C1151 C1147 1.393 . S
C1151 C1150 1.391 . S
H1152 C1160 0.950 . S
H1153 C1165 0.950 . S
H1154 C1162 0.950 . S
H1155 C1164 0.950 . S
H1156 C1166 0.950 . S
H1157 C1168 0.950 . S
H1158 C1170 0.950 . S
H1159 C1171 0.950 . S
C1160 H1152 0.950 . S
C1160 C1161 1.386 . S
C1160 C1162 1.391 . S
C1161 C1160 1.386 . S
C1161 C1165 1.393 . S
C1162 H1154 0.950 . S
C1162 C1160 1.391 . S
C1162 C1163 1.400 . S
C1163 C1162 1.400 . S
C1163 C1164 1.398 . S
C1163 C1169 1.491 . S
C1164 H1155 0.950 . S
C1164 C1163 1.398 . S
C1164 C1165 1.391 . S
C1165 H1153 0.950 . S
C1165 C1161 1.393 . S
C1165 C1164 1.391 . S
C1166 H1156 0.950 . S
C1166 C1167 1.386 . S
C1166 C1168 1.391 . S
C1167 C1166 1.386 . S
C1167 C1171 1.393 . S
C1168 H1157 0.950 . S
C1168 C1166 1.391 . S
C1168 C1169 1.400 . S
C1169 C1163 1.491 . S
C1169 C1168 1.400 . S
C1169 C1170 1.398 . S
C1170 H1158 0.950 . S
C1170 C1169 1.398 . S
C1170 C1171 1.391 . S
C1171 H1159 0.950 . S
C1171 C1167 1.393 . S
C1171 C1170 1.391 . S
H1172 C1180 0.950 . S
H1173 C1185 0.950 . S
H1174 C1182 0.950 . S
H1175 C1184 0.950 . S
H1176 C1186 0.950 . S
H1177 C1188 0.950 . S
H1178 C1190 0.950 . S
H1179 C1191 0.950 . S
C1180 H1172 0.950 . S
C1180 C1181 1.386 . S
C1180 C1182 1.391 . S
C1181 C1180 1.386 . S
C1181 C1185 1.393 . S
C1182 H1174 0.950 . S
C1182 C1180 1.391 . S
C1182 C1183 1.400 . S
C1183 C1182 1.400 . S
C1183 C1184 1.398 . S
C1183 C1189 1.491 . S
C1184 H1175 0.950 . S
C1184 C1183 1.398 . S
C1184 C1185 1.391 . S
C1185 H1173 0.950 . S
C1185 C1181 1.393 . S
C1185 C1184 1.391 . S
C1186 H1176 0.950 . S
C1186 C1187 1.386 . S
C1186 C1188 1.391 . S
C1187 C1186 1.386 . S
C1187 C1191 1.393 . S
C1188 H1177 0.950 . S
C1188 C1186 1.391 . S
C1188 C1189 1.400 . S
C1189 C1183 1.491 . S
C1189 C1188 1.400 . S
C1189 C1190 1.398 . S
C1190 H1178 0.950 . S
C1190 C1189 1.398 . S
C1190 C1191 1.391 . S
C1191 H1179 0.950 . S
C1191 C1187 1.393 . S
C1191 C1190 1.391 . S
H1192 C1200 0.950 . S
H1193 C1205 0.950 . S
H1194 C1202 0.950 . S
H1195 C1204 0.950 . S
H1196 C1206 0.950 . S
H1197 C1208 0.950 . S
H1198 C1210 0.950 . S
H1199 C1211 0.950 . S
C1200 H1192 0.950 . S
C1200 C1201 1.386 . S
C1200 C1202 1.391 . S
C1201 C1200 1.386 . S
C1201 C1205 1.393 . S
C1202 H1194 0.950 . S
C1202 C1200 1.391 . S
C1202 C1203 1.400 . S
C1203 C1202 1.400 . S
C1203 C1204 1.398 . S
C1203 C1209 1.491 . S
C1204 H1195 0.950 . S
C1204 C1203 1.398 . S
C1204 C1205 1.391 . S
C1205 H1193 0.950 . S
C1205 C1201 1.393 . S
C1205 C1204 1.391 . S
C1206 H1196 0.950 . S
C1206 C1207 1.386 . S
C1206 C1208 1.391 . S
C1207 C1206 1.386 . S
C1207 C1211 1.393 . S
C1208 H1197 0.950 . S
C1208 C1206 1.391 . S
C1208 C1209 1.400 . S
C1209 C1203 1.491 . S
C1209 C1208 1.400 . S
C1209 C1210 1.398 . S
C1210 H1198 0.950 . S
C1210 C1209 1.398 . S
C1210 C1211 1.391 . S
C1211 H1199 0.950 . S
C1211 C1207 1.393 . S
C1211 C1210 1.391 . S
H1212 C1220 0.950 . S
H1213 C1225 0.950 . S
H1214 C1222 0.950 . S
H1215 C1224 0.950 . S
H1216 C1226 0.950 . S
H1217 C1228 0.950 . S
H1218 C1230 0.950 . S
H1219 C1231 0.950 . S
C1220 H1212 0.950 . S
C1220 C1221 1.386 . S
C1220 C1222 1.391 . S
C1221 C1220 1.386 . S
C1221 C1225 1.393 . S
C1222 H1214 0.950 . S
C1222 C1220 1.391 . S
C1222 C1223 1.400 . S
C1223 C1222 1.400 . S
C1223 C1224 1.398 . S
C1223 C1229 1.491 . S
C1224 H1215 0.950 . S
C1224 C1223 1.398 . S
C1224 C1225 1.391 . S
C1225 H1213 0.950 . S
C1225 C1221 1.393 . S
C1225 C1224 1.391 . S
C1226 H1216 0.950 . S
C1226 C1227 1.386 . S
C1226 C1228 1.391 . S
C1227 C1226 1.386 . S
C1227 C1231 1.393 . S
C1228 H1217 0.950 . S
C1228 C1226 1.391 . S
C1228 C1229 1.400 . S
C1229 C1223 1.491 . S
C1229 C1228 1.400 . S
C1229 C1230 1.398 . S
C1230 H1218 0.950 . S
C1230 C1229 1.398 . S
C1230 C1231 1.391 . S
C1231 H1219 0.950 . S
C1231 C1227 1.393 . S
C1231 C1230 1.391 . S
H1232 C1240 0.950 . S
H1233 C1245 0.950 . S
H1234 C1242 0.950 . S
H1235 C1244 0.950 . S
H1236 C1246 0.950 . S
H1237 C1248 0.950 . S
H1238 C1250 0.950 . S
H1239 C1251 0.950 . S
C1240 H1232 0.950 . S
C1240 C1241 1.386 . S
C1240 C1242 1.391 . S
C1241 C1240 1.386 . S
C1241 C1245 1.393 . S
C1242 H1234 0.950 . S
C1242 C1240 1.391 . S
C1242 C1243 1.400 . S
C1243 C1242 1.400 . S
C1243 C1244 1.398 . S
C1243 C1249 1.491 . S
C1244 H1235 0.950 . S
C1244 C1243 1.398 . S
C1244 C1245 1.391 . S
C1245 H1233 0.950 . S
C1245 C1241 1.393 . S
C1245 C1244 1.391 . S
C1246 H1236 0.950 . S
C1246 C1247 1.386 . S
C1246 C1248 1.391 . S
C1247 C1246 1.386 . S
C1247 C1251 1.393 . S
C1248 H1237 0.950 . S
C1248 C1246 1.391 . S
C1248 C1249 1.400 . S
C1249 C1243 1.491 . S
C1249 C1248 1.400 . S
C1249 C1250 1.398 . S
C1250 H1238 0.950 . S
C1250 C1249 1.398 . S
C1250 C1251 1.391 . S
C1251 H1239 0.950 . S
C1251 C1247 1.393 . S
C1251 C1250 1.391 . S
H1252 C1260 0.950 . S
H1253 C1265 0.950 1_556 S
H1254 C1262 0.950 . S
H1255 C1264 0.950 . S
H1256 C1266 0.950 . S
H1257 C1268 0.950 . S
H1258 C1270 0.950 . S
H1259 C1271 0.950 . S
C1260 H1252 0.950 . S
C1260 C1261 1.386 . S
C1260 C1262 1.391 . S
C1261 C1260 1.386 . S
C1261 C1265 1.393 . S
C1262 H1254 0.950 . S
C1262 C1260 1.391 . S
C1262 C1263 1.400 . S
C1263 C1262 1.400 . S
C1263 C1264 1.398 . S
C1263 C1269 1.491 . S
C1264 H1255 0.950 . S
C1264 C1263 1.398 . S
C1264 C1265 1.391 . S
C1265 H1253 0.950 1_554 S
C1265 C1261 1.393 . S
C1265 C1264 1.391 . S
C1266 H1256 0.950 . S
C1266 C1267 1.386 . S
C1266 C1268 1.391 . S
C1267 C1266 1.386 . S
C1267 C1271 1.393 . S
C1268 H1257 0.950 . S
C1268 C1266 1.391 . S
C1268 C1269 1.400 . S
C1269 C1263 1.491 . S
C1269 C1268 1.400 . S
C1269 C1270 1.398 . S
C1270 H1258 0.950 . S
C1270 C1269 1.398 . S
C1270 C1271 1.391 . S
C1271 H1259 0.950 . S
C1271 C1267 1.393 . S
C1271 C1270 1.391 . S
H1272 C1280 0.950 . S
H1273 C1285 0.950 . S
H1274 C1282 0.950 . S
H1275 C1284 0.950 . S
H1276 C1286 0.950 . S
H1277 C1288 0.950 . S
H1278 C1290 0.950 . S
H1279 C1291 0.950 . S
C1280 H1272 0.950 . S
C1280 C1281 1.386 . S
C1280 C1282 1.391 . S
C1281 C1280 1.386 . S
C1281 C1285 1.393 . S
C1282 H1274 0.950 . S
C1282 C1280 1.391 . S
C1282 C1283 1.400 . S
C1283 C1282 1.400 . S
C1283 C1284 1.398 . S
C1283 C1289 1.491 . S
C1284 H1275 0.950 . S
C1284 C1283 1.398 . S
C1284 C1285 1.391 . S
C1285 H1273 0.950 . S
C1285 C1281 1.393 . S
C1285 C1284 1.391 . S
C1286 H1276 0.950 . S
C1286 C1287 1.386 . S
C1286 C1288 1.391 . S
C1287 C1286 1.386 . S
C1287 C1291 1.393 . S
C1288 H1277 0.950 . S
C1288 C1286 1.391 . S
C1288 C1289 1.400 . S
C1289 C1283 1.491 . S
C1289 C1288 1.400 . S
C1289 C1290 1.398 . S
C1290 H1278 0.950 . S
C1290 C1289 1.398 . S
C1290 C1291 1.391 . S
C1291 H1279 0.950 . S
C1291 C1287 1.393 . S
C1291 C1290 1.391 . S
H1292 C1300 0.950 . S
H1293 C1305 0.950 . S
H1294 C1302 0.950 . S
H1295 C1304 0.950 . S
H1296 C1306 0.950 . S
H1297 C1308 0.950 . S
H1298 C1310 0.950 . S
H1299 C1311 0.950 . S
C1300 H1292 0.950 . S
C1300 C1301 1.386 . S
C1300 C1302 1.391 . S
C1301 C1300 1.386 . S
C1301 C1305 1.393 . S
C1302 H1294 0.950 . S
C1302 C1300 1.391 . S
C1302 C1303 1.400 . S
C1303 C1302 1.400 . S
C1303 C1304 1.398 . S
C1303 C1309 1.491 . S
C1304 H1295 0.950 . S
C1304 C1303 1.398 . S
C1304 C1305 1.391 . S
C1305 H1293 0.950 . S
C1305 C1301 1.393 . S
C1305 C1304 1.391 . S
C1306 H1296 0.950 . S
C1306 C1307 1.386 . S
C1306 C1308 1.391 . S
C1307 C1306 1.386 . S
C1307 C1311 1.393 . S
C1308 H1297 0.950 . S
C1308 C1306 1.391 . S
C1308 C1309 1.400 . S
C1309 C1303 1.491 . S
C1309 C1308 1.400 . S
C1309 C1310 1.398 . S
C1310 H1298 0.950 . S
C1310 C1309 1.398 . S
C1310 C1311 1.391 . S
C1311 H1299 0.950 . S
C1311 C1307 1.393 . S
C1311 C1310 1.391 . S
H1312 C1320 0.950 . S
H1313 C1325 0.950 . S
H1314 C1322 0.950 . S
H1315 C1324 0.950 . S
H1316 C1326 0.950 . S
H1317 C1328 0.950 . S
H1318 C1330 0.950 . S
H1319 C1331 0.950 . S
C1320 H1312 0.950 . S
C1320 C1321 1.386 . S
C1320 C1322 1.391 . S
C1321 C1320 1.386 . S
C1321 C1325 1.393 . S
C1322 H1314 0.950 . S
C1322 C1320 1.391 . S
C1322 C1323 1.400 . S
C1323 C1322 1.400 . S
C1323 C1324 1.398 . S
C1323 C1329 1.491 . S
C1324 H1315 0.950 . S
C1324 C1323 1.398 . S
C1324 C1325 1.391 . S
C1325 H1313 0.950 . S
C1325 C1321 1.393 . S
C1325 C1324 1.391 . S
C1326 H1316 0.950 . S
C1326 C1327 1.386 . S
C1326 C1328 1.391 . S
C1327 C1326 1.386 . S
C1327 C1331 1.393 . S
C1328 H1317 0.950 . S
C1328 C1326 1.391 . S
C1328 C1329 1.400 . S
C1329 C1323 1.491 . S
C1329 C1328 1.400 . S
C1329 C1330 1.398 . S
C1330 H1318 0.950 . S
C1330 C1329 1.398 . S
C1330 C1331 1.391 . S
C1331 H1319 0.950 . S
C1331 C1327 1.393 . S
C1331 C1330 1.391 . S
H1332 C1340 0.950 . S
H1333 C1345 0.950 . S
H1334 C1342 0.950 . S
H1335 C1344 0.950 . S
H1336 C1346 0.950 . S
H1337 C1348 0.950 . S
H1338 C1350 0.950 . S
H1339 C1351 0.950 . S
C1340 H1332 0.950 . S
C1340 C1341 1.386 . S
C1340 C1342 1.391 . S
C1341 C1340 1.386 . S
C1341 C1345 1.393 . S
C1342 H1334 0.950 . S
C1342 C1340 1.391 . S
C1342 C1343 1.400 . S
C1343 C1342 1.400 . S
C1343 C1344 1.398 . S
C1343 C1349 1.491 1_554 S
C1344 H1335 0.950 . S
C1344 C1343 1.398 . S
C1344 C1345 1.391 . S
C1345 H1333 0.950 . S
C1345 C1341 1.393 . S
C1345 C1344 1.391 . S
C1346 H1336 0.950 . S
C1346 C1347 1.386 . S
C1346 C1348 1.391 . S
C1347 C1346 1.386 . S
C1347 C1351 1.393 . S
C1348 H1337 0.950 . S
C1348 C1346 1.391 . S
C1348 C1349 1.400 . S
C1349 C1343 1.491 1_556 S
C1349 C1348 1.400 . S
C1349 C1350 1.398 . S
C1350 H1338 0.950 . S
C1350 C1349 1.398 . S
C1350 C1351 1.391 . S
C1351 H1339 0.950 . S
C1351 C1347 1.393 . S
C1351 C1350 1.391 . S
H1352 C1360 0.950 . S
H1353 C1365 0.950 . S
H1354 C1362 0.950 . S
H1355 C1364 0.950 . S
H1356 C1366 0.950 . S
H1357 C1368 0.950 . S
H1358 C1370 0.950 . S
H1359 C1371 0.950 . S
C1360 H1352 0.950 . S
C1360 C1361 1.386 . S
C1360 C1362 1.391 . S
C1361 C1360 1.386 . S
C1361 C1365 1.393 . S
C1362 H1354 0.950 . S
C1362 C1360 1.391 . S
C1362 C1363 1.400 . S
C1363 C1362 1.400 . S
C1363 C1364 1.398 . S
C1363 C1369 1.491 1_554 S
C1364 H1355 0.950 . S
C1364 C1363 1.398 . S
C1364 C1365 1.391 . S
C1365 H1353 0.950 . S
C1365 C1361 1.393 . S
C1365 C1364 1.391 . S
C1366 H1356 0.950 . S
C1366 C1367 1.386 . S
C1366 C1368 1.391 . S
C1367 C1366 1.386 . S
C1367 C1371 1.393 . S
C1368 H1357 0.950 . S
C1368 C1366 1.391 . S
C1368 C1369 1.400 . S
C1369 C1363 1.491 1_556 S
C1369 C1368 1.400 . S
C1369 C1370 1.398 . S
C1370 H1358 0.950 . S
C1370 C1369 1.398 . S
C1370 C1371 1.391 . S
C1371 H1359 0.950 . S
C1371 C1367 1.393 . S
C1371 C1370 1.391 . S
H1372 C1380 0.950 . S
H1373 C1385 0.950 . S
H1374 C1382 0.950 . S
H1375 C1384 0.950 . S
H1376 C1386 0.950 . S
H1377 C1388 0.950 . S
H1378 C1390 0.950 . S
H1379 C1391 0.950 . S
C1380 H1372 0.950 . S
C1380 C1381 1.386 . S
C1380 C1382 1.391 . S
C1381 C1380 1.386 . S
C1381 C1385 1.393 . S
C1382 H1374 0.950 . S
C1382 C1380 1.391 . S
C1382 C1383 1.400 . S
C1383 C1382 1.400 . S
C1383 C1384 1.398 . S
C1383 C1389 1.491 1_554 S
C1384 H1375 0.950 . S
C1384 C1383 1.398 . S
C1384 C1385 1.391 . S
C1385 H1373 0.950 . S
C1385 C1381 1.393 . S
C1385 C1384 1.391 . S
C1386 H1376 0.950 . S
C1386 C1387 1.386 . S
C1386 C1388 1.391 . S
C1387 C1386 1.386 . S
C1387 C1391 1.393 . S
C1388 H1377 0.950 . S
C1388 C1386 1.391 . S
C1388 C1389 1.400 . S
C1389 C1383 1.491 1_556 S
C1389 C1388 1.400 . S
C1389 C1390 1.398 . S
C1390 H1378 0.950 . S
C1390 C1389 1.398 . S
C1390 C1391 1.391 . S
C1391 H1379 0.950 . S
C1391 C1387 1.393 . S
C1391 C1390 1.391 . S
H1392 C1400 0.950 . S
H1393 C1405 0.950 . S
H1394 C1402 0.950 . S
H1395 C1404 0.950 . S
H1396 C1406 0.950 . S
H1397 C1408 0.950 . S
H1398 C1410 0.950 . S
H1399 C1411 0.950 . S
C1400 H1392 0.950 . S
C1400 C1401 1.386 . S
C1400 C1402 1.391 . S
C1401 C1400 1.386 . S
C1401 C1405 1.393 . S
C1402 H1394 0.950 . S
C1402 C1400 1.391 . S
C1402 C1403 1.400 . S
C1403 C1402 1.400 . S
C1403 C1404 1.398 . S
C1403 C1409 1.491 1_556 S
C1404 H1395 0.950 . S
C1404 C1403 1.398 . S
C1404 C1405 1.391 . S
C1405 H1393 0.950 . S
C1405 C1401 1.393 . S
C1405 C1404 1.391 . S
C1406 H1396 0.950 . S
C1406 C1407 1.386 . S
C1406 C1408 1.391 . S
C1407 C1406 1.386 . S
C1407 C1411 1.393 . S
C1408 H1397 0.950 . S
C1408 C1406 1.391 . S
C1408 C1409 1.400 . S
C1409 C1403 1.491 1_554 S
C1409 C1408 1.400 . S
C1409 C1410 1.398 . S
C1410 H1398 0.950 . S
C1410 C1409 1.398 . S
C1410 C1411 1.391 . S
C1411 H1399 0.950 . S
C1411 C1407 1.393 . S
C1411 C1410 1.391 . S
H1412 C1420 0.950 . S
H1413 C1425 0.950 . S
H1414 C1422 0.950 . S
H1415 C1424 0.950 . S
H1416 C1426 0.950 . S
H1417 C1428 0.950 . S
H1418 C1430 0.950 . S
H1419 C1431 0.950 . S
C1420 H1412 0.950 . S
C1420 C1421 1.386 . S
C1420 C1422 1.391 . S
C1421 C1420 1.386 . S
C1421 C1425 1.393 . S
C1422 H1414 0.950 . S
C1422 C1420 1.391 . S
C1422 C1423 1.400 . S
C1423 C1422 1.400 . S
C1423 C1424 1.398 . S
C1423 C1429 1.491 1_554 S
C1424 H1415 0.950 . S
C1424 C1423 1.398 . S
C1424 C1425 1.391 . S
C1425 H1413 0.950 . S
C1425 C1421 1.393 . S
C1425 C1424 1.391 . S
C1426 H1416 0.950 . S
C1426 C1427 1.386 . S
C1426 C1428 1.391 . S
C1427 C1426 1.386 . S
C1427 C1431 1.393 . S
C1428 H1417 0.950 . S
C1428 C1426 1.391 . S
C1428 C1429 1.400 . S
C1429 C1423 1.491 1_556 S
C1429 C1428 1.400 . S
C1429 C1430 1.398 . S
C1430 H1418 0.950 . S
C1430 C1429 1.398 . S
C1430 C1431 1.391 . S
C1431 H1419 0.950 . S
C1431 C1427 1.393 . S
C1431 C1430 1.391 . S
H1432 C1440 0.950 . S
H1433 C1445 0.950 . S
H1434 C1442 0.950 . S
H1435 C1444 0.950 . S
H1436 C1446 0.950 . S
H1437 C1448 0.950 . S
H1438 C1450 0.950 . S
H1439 C1451 0.950 . S
C1440 H1432 0.950 . S
C1440 C1441 1.386 . S
C1440 C1442 1.391 . S
C1441 C1440 1.386 . S
C1441 C1445 1.393 . S
C1442 H1434 0.950 . S
C1442 C1440 1.391 . S
C1442 C1443 1.400 . S
C1443 C1442 1.400 . S
C1443 C1444 1.398 . S
C1443 C1449 1.491 1_554 S
C1444 H1435 0.950 . S
C1444 C1443 1.398 . S
C1444 C1445 1.391 . S
C1445 H1433 0.950 . S
C1445 C1441 1.393 . S
C1445 C1444 1.391 . S
C1446 H1436 0.950 . S
C1446 C1447 1.386 . S
C1446 C1448 1.391 . S
C1447 C1446 1.386 . S
C1447 C1451 1.393 . S
C1448 H1437 0.950 . S
C1448 C1446 1.391 . S
C1448 C1449 1.400 . S
C1449 C1443 1.491 1_556 S
C1449 C1448 1.400 . S
C1449 C1450 1.398 . S
C1450 H1438 0.950 . S
C1450 C1449 1.398 . S
C1450 C1451 1.391 . S
C1451 H1439 0.950 . S
C1451 C1447 1.393 . S
C1451 C1450 1.391 . S
H1452 C1460 0.950 . S
H1453 C1465 0.950 . S
H1454 C1462 0.950 . S
H1455 C1464 0.950 . S
H1456 C1466 0.950 . S
H1457 C1468 0.950 . S
H1458 C1470 0.950 . S
H1459 C1471 0.950 . S
C1460 H1452 0.950 . S
C1460 C1461 1.386 . S
C1460 C1462 1.391 . S
C1461 C1460 1.386 . S
C1461 C1465 1.393 . S
C1462 H1454 0.950 . S
C1462 C1460 1.391 . S
C1462 C1463 1.400 . S
C1463 C1462 1.400 . S
C1463 C1464 1.398 . S
C1463 C1469 1.491 . S
C1464 H1455 0.950 . S
C1464 C1463 1.398 . S
C1464 C1465 1.391 . S
C1465 H1453 0.950 . S
C1465 C1461 1.393 . S
C1465 C1464 1.391 . S
C1466 H1456 0.950 . S
C1466 C1467 1.386 . S
C1466 C1468 1.391 . S
C1467 C1466 1.386 . S
C1467 C1471 1.393 . S
C1468 H1457 0.950 . S
C1468 C1466 1.391 . S
C1468 C1469 1.400 . S
C1469 C1463 1.491 . S
C1469 C1468 1.400 . S
C1469 C1470 1.398 . S
C1470 H1458 0.950 . S
C1470 C1469 1.398 . S
C1470 C1471 1.391 . S
C1471 H1459 0.950 . S
C1471 C1467 1.393 . S
C1471 C1470 1.391 . S
H1472 C1480 0.950 . S
H1473 C1485 0.950 . S
H1474 C1482 0.950 . S
H1475 C1484 0.950 . S
H1476 C1486 0.950 . S
H1477 C1488 0.950 . S
H1478 C1490 0.950 . S
H1479 C1491 0.950 . S
C1480 H1472 0.950 . S
C1480 C1481 1.386 . S
C1480 C1482 1.391 . S
C1481 C1480 1.386 . S
C1481 C1485 1.393 . S
C1482 H1474 0.950 . S
C1482 C1480 1.391 . S
C1482 C1483 1.400 . S
C1483 C1482 1.400 . S
C1483 C1484 1.398 . S
C1483 C1489 1.491 . S
C1484 H1475 0.950 . S
C1484 C1483 1.398 . S
C1484 C1485 1.391 . S
C1485 H1473 0.950 . S
C1485 C1481 1.393 . S
C1485 C1484 1.391 . S
C1486 H1476 0.950 . S
C1486 C1487 1.386 . S
C1486 C1488 1.391 . S
C1487 C1486 1.386 . S
C1487 C1491 1.393 . S
C1488 H1477 0.950 . S
C1488 C1486 1.391 . S
C1488 C1489 1.400 . S
C1489 C1483 1.491 . S
C1489 C1488 1.400 . S
C1489 C1490 1.398 . S
C1490 H1478 0.950 . S
C1490 C1489 1.398 . S
C1490 C1491 1.391 . S
C1491 H1479 0.950 . S
C1491 C1487 1.393 . S
C1491 C1490 1.391 . S
H1492 C1500 0.950 . S
H1493 C1505 0.950 . S
H1494 C1502 0.950 . S
H1495 C1504 0.950 . S
H1496 C1506 0.950 . S
H1497 C1508 0.950 . S
H1498 C1510 0.950 . S
H1499 C1511 0.950 . S
C1500 H1492 0.950 . S
C1500 C1501 1.386 . S
C1500 C1502 1.391 . S
C1501 C1500 1.386 . S
C1501 C1505 1.393 . S
C1502 H1494 0.950 . S
C1502 C1500 1.391 . S
C1502 C1503 1.400 . S
C1503 C1502 1.400 . S
C1503 C1504 1.398 . S
C1503 C1509 1.491 . S
C1504 H1495 0.950 . S
C1504 C1503 1.398 . S
C1504 C1505 1.391 . S
C1505 H1493 0.950 . S
C1505 C1501 1.393 . S
C1505 C1504 1.391 . S
C1506 H1496 0.950 . S
C1506 C1507 1.386 . S
C1506 C1508 1.391 . S
C1507 C1506 1.386 . S
C1507 C1511 1.393 . S
C1508 H1497 0.950 . S
C1508 C1506 1.391 . S
C1508 C1509 1.400 . S
C1509 C1503 1.491 . S
C1509 C1508 1.400 . S
C1509 C1510 1.398 . S
C1510 H1498 0.950 . S
C1510 C1509 1.398 . S
C1510 C1511 1.391 . S
C1511 H1499 0.950 . S
C1511 C1507 1.393 . S
C1511 C1510 1.391 . S
H1512 C1520 0.950 . S
H1513 C1525 0.950 . S
H1514 C1522 0.950 . S
H1515 C1524 0.950 . S
H1516 C1526 0.950 . S
H1517 C1528 0.950 . S
H1518 C1530 0.950 . S
H1519 C1531 0.950 . S
C1520 H1512 0.950 . S
C1520 C1521 1.386 . S
C1520 C1522 1.391 . S
C1521 C1520 1.386 . S
C1521 C1525 1.393 . S
C1522 H1514 0.950 . S
C1522 C1520 1.391 . S
C1522 C1523 1.400 . S
C1523 C1522 1.400 . S
C1523 C1524 1.398 . S
C1523 C1529 1.491 . S
C1524 H1515 0.950 . S
C1524 C1523 1.398 . S
C1524 C1525 1.391 . S
C1525 H1513 0.950 . S
C1525 C1521 1.393 . S
C1525 C1524 1.391 . S
C1526 H1516 0.950 . S
C1526 C1527 1.386 . S
C1526 C1528 1.391 . S
C1527 C1526 1.386 . S
C1527 C1531 1.393 . S
C1528 H1517 0.950 . S
C1528 C1526 1.391 . S
C1528 C1529 1.400 . S
C1529 C1523 1.491 . S
C1529 C1528 1.400 . S
C1529 C1530 1.398 . S
C1530 H1518 0.950 . S
C1530 C1529 1.398 . S
C1530 C1531 1.391 . S
C1531 H1519 0.950 . S
C1531 C1527 1.393 . S
C1531 C1530 1.391 . S
H1532 C1540 0.950 . S
H1533 C1545 0.950 . S
H1534 C1542 0.950 . S
H1535 C1544 0.950 . S
H1536 C1546 0.950 . S
H1537 C1548 0.950 . S
H1538 C1550 0.950 . S
H1539 C1551 0.950 . S
C1540 H1532 0.950 . S
C1540 C1541 1.386 . S
C1540 C1542 1.391 . S
C1541 C1540 1.386 . S
C1541 C1545 1.393 . S
C1542 H1534 0.950 . S
C1542 C1540 1.391 . S
C1542 C1543 1.400 . S
C1543 C1542 1.400 . S
C1543 C1544 1.398 . S
C1543 C1549 1.491 . S
C1544 H1535 0.950 . S
C1544 C1543 1.398 . S
C1544 C1545 1.391 . S
C1545 H1533 0.950 . S
C1545 C1541 1.393 . S
C1545 C1544 1.391 . S
C1546 H1536 0.950 . S
C1546 C1547 1.386 . S
C1546 C1548 1.391 . S
C1547 C1546 1.386 . S
C1547 C1551 1.393 . S
C1548 H1537 0.950 . S
C1548 C1546 1.391 . S
C1548 C1549 1.400 . S
C1549 C1543 1.491 . S
C1549 C1548 1.400 . S
C1549 C1550 1.398 . S
C1550 H1538 0.950 . S
C1550 C1549 1.398 . S
C1550 C1551 1.391 . S
C1551 H1539 0.950 . S
C1551 C1547 1.393 . S
C1551 C1550 1.391 . S
H1552 C1560 0.950 . S
H1553 C1565 0.950 . S
H1554 C1562 0.950 . S
H1555 C1564 0.950 . S
H1556 C1566 0.950 . S
H1557 C1568 0.950 . S
H1558 C1570 0.950 . S
H1559 C1571 0.950 . S
C1560 H1552 0.950 . S
C1560 C1561 1.386 . S
C1560 C1562 1.391 . S
C1561 C1560 1.386 . S
C1561 C1565 1.393 . S
C1562 H1554 0.950 . S
C1562 C1560 1.391 . S
C1562 C1563 1.400 . S
C1563 C1562 1.400 . S
C1563 C1564 1.398 . S
C1563 C1569 1.491 . S
C1564 H1555 0.950 . S
C1564 C1563 1.398 . S
C1564 C1565 1.391 . S
C1565 H1553 0.950 . S
C1565 C1561 1.393 . S
C1565 C1564 1.391 . S
C1566 H1556 0.950 . S
C1566 C1567 1.386 . S
C1566 C1568 1.391 . S
C1567 C1566 1.386 . S
C1567 C1571 1.393 . S
C1568 H1557 0.950 . S
C1568 C1566 1.391 . S
C1568 C1569 1.400 . S
C1569 C1563 1.491 . S
C1569 C1568 1.400 . S
C1569 C1570 1.398 . S
C1570 H1558 0.950 . S
C1570 C1569 1.398 . S
C1570 C1571 1.391 . S
C1571 H1559 0.950 . S
C1571 C1567 1.393 . S
C1571 C1570 1.391 . S
H1572 C1580 0.950 . S
H1573 C1585 0.950 . S
H1574 C1582 0.950 . S
H1575 C1584 0.950 . S
H1576 C1586 0.950 . S
H1577 C1588 0.950 . S
H1578 C1590 0.950 . S
H1579 C1591 0.950 . S
C1580 H1572 0.950 . S
C1580 C1581 1.386 . S
C1580 C1582 1.391 . S
C1581 C1580 1.386 . S
C1581 C1585 1.393 . S
C1582 H1574 0.950 . S
C1582 C1580 1.391 . S
C1582 C1583 1.400 . S
C1583 C1582 1.400 . S
C1583 C1584 1.398 . S
C1583 C1589 1.491 . S
C1584 H1575 0.950 . S
C1584 C1583 1.398 . S
C1584 C1585 1.391 . S
C1585 H1573 0.950 . S
C1585 C1581 1.393 . S
C1585 C1584 1.391 . S
C1586 H1576 0.950 . S
C1586 C1587 1.386 . S
C1586 C1588 1.391 . S
C1587 C1586 1.386 . S
C1587 C1591 1.393 . S
C1588 H1577 0.950 . S
C1588 C1586 1.391 . S
C1588 C1589 1.400 . S
C1589 C1583 1.491 . S
C1589 C1588 1.400 . S
C1589 C1590 1.398 . S
C1590 H1578 0.950 . S
C1590 C1589 1.398 . S
C1590 C1591 1.391 . S
C1591 H1579 0.950 . S
C1591 C1587 1.393 . S
C1591 C1590 1.391 . S
H1592 C1600 0.950 . S
H1593 C1605 0.950 . S
H1594 C1602 0.950 . S
H1595 C1604 0.950 . S
H1596 C1606 0.950 . S
H1597 C1608 0.950 . S
H1598 C1610 0.950 . S
H1599 C1611 0.950 . S
C1600 H1592 0.950 . S
C1600 C1601 1.386 . S
C1600 C1602 1.391 . S
C1601 C1600 1.386 . S
C1601 C1605 1.393 . S
C1602 H1594 0.950 . S
C1602 C1600 1.391 . S
C1602 C1603 1.400 . S
C1603 C1602 1.400 . S
C1603 C1604 1.398 . S
C1603 C1609 1.491 . S
C1604 H1595 0.950 . S
C1604 C1603 1.398 . S
C1604 C1605 1.391 . S
C1605 H1593 0.950 . S
C1605 C1601 1.393 . S
C1605 C1604 1.391 . S
C1606 H1596 0.950 . S
C1606 C1607 1.386 . S
C1606 C1608 1.391 . S
C1607 C1606 1.386 . S
C1607 C1611 1.393 . S
C1608 H1597 0.950 . S
C1608 C1606 1.391 . S
C1608 C1609 1.400 . S
C1609 C1603 1.491 . S
C1609 C1608 1.400 . S
C1609 C1610 1.398 . S
C1610 H1598 0.950 . S
C1610 C1609 1.398 . S
C1610 C1611 1.391 . S
C1611 H1599 0.950 . S
C1611 C1607 1.393 . S
C1611 C1610 1.391 . S
H1612 C1620 0.950 . S
H1613 C1625 0.950 . S
H1614 C1622 0.950 . S
H1615 C1624 0.950 . S
H1616 C1626 0.950 . S
H1617 C1628 0.950 . S
H1618 C1630 0.950 . S
H1619 C1631 0.950 . S
C1620 H1612 0.950 . S
C1620 C1621 1.386 . S
C1620 C1622 1.391 . S
C1621 C1620 1.386 . S
C1621 C1625 1.393 . S
C1622 H1614 0.950 . S
C1622 C1620 1.391 . S
C1622 C1623 1.400 . S
C1623 C1622 1.400 . S
C1623 C1624 1.398 . S
C1623 C1629 1.491 . S
C1624 H1615 0.950 . S
C1624 C1623 1.398 . S
C1624 C1625 1.391 . S
C1625 H1613 0.950 . S
C1625 C1621 1.393 . S
C1625 C1624 1.391 . S
C1626 H1616 0.950 . S
C1626 C1627 1.386 . S
C1626 C1628 1.391 . S
C1627 C1626 1.386 . S
C1627 C1631 1.393 . S
C1628 H1617 0.950 . S
C1628 C1626 1.391 . S
C1628 C1629 1.400 . S
C1629 C1623 1.491 . S
C1629 C1628 1.400 . S
C1629 C1630 1.398 . S
C1630 H1618 0.950 . S
C1630 C1629 1.398 . S
C1630 C1631 1.391 . S
C1631 H1619 0.950 . S
C1631 C1627 1.393 . S
C1631 C1630 1.391 . S
H1632 C1640 0.950 . S
H1633 C1645 0.950 . S
H1634 C1642 0.950 . S
H1635 C1644 0.950 . S
H1636 C1646 0.950 . S
H1637 C1648 0.950 . S
H1638 C1650 0.950 . S
H1639 C1651 0.950 . S
C1640 H1632 0.950 . S
C1640 C1641 1.386 . S
C1640 C1642 1.391 . S
C1641 C1640 1.386 . S
C1641 C1645 1.393 . S
C1642 H1634 0.950 . S
C1642 C1640 1.391 . S
C1642 C1643 1.400 . S
C1643 C1642 1.400 . S
C1643 C1644 1.398 . S
C1643 C1649 1.491 . S
C1644 H1635 0.950 . S
C1644 C1643 1.398 . S
C1644 C1645 1.391 . S
C1645 H1633 0.950 . S
C1645 C1641 1.393 . S
C1645 C1644 1.391 . S
C1646 H1636 0.950 . S
C1646 C1647 1.386 . S
C1646 C1648 1.391 . S
C1647 C1646 1.386 . S
C1647 C1651 1.393 . S
C1648 H1637 0.950 . S
C1648 C1646 1.391 . S
C1648 C1649 1.400 . S
C1649 C1643 1.491 . S
C1649 C1648 1.400 . S
C1649 C1650 1.398 . S
C1650 H1638 0.950 . S
C1650 C1649 1.398 . S
C1650 C1651 1.391 . S
C1651 H1639 0.950 . S
C1651 C1647 1.393 . S
C1651 C1650 1.391 . S
H1652 C1660 0.950 . S
H1653 C1665 0.950 . S
H1654 C1662 0.950 . S
H1655 C1664 0.950 . S
H1656 C1666 0.950 . S
H1657 C1668 0.950 . S
H1658 C1670 0.950 . S
H1659 C1671 0.950 . S
C1660 H1652 0.950 . S
C1660 C1661 1.386 . S
C1660 C1662 1.391 . S
C1661 C1660 1.386 . S
C1661 C1665 1.393 . S
C1662 H1654 0.950 . S
C1662 C1660 1.391 . S
C1662 C1663 1.400 . S
C1663 C1662 1.400 . S
C1663 C1664 1.398 . S
C1663 C1669 1.491 . S
C1664 H1655 0.950 . S
C1664 C1663 1.398 . S
C1664 C1665 1.391 . S
C1665 H1653 0.950 . S
C1665 C1661 1.393 . S
C1665 C1664 1.391 . S
C1666 H1656 0.950 . S
C1666 C1667 1.386 . S
C1666 C1668 1.391 . S
C1667 C1666 1.386 . S
C1667 C1671 1.393 . S
C1668 H1657 0.950 . S
C1668 C1666 1.391 . S
C1668 C1669 1.400 . S
C1669 C1663 1.491 . S
C1669 C1668 1.400 . S
C1669 C1670 1.398 . S
C1670 H1658 0.950 . S
C1670 C1669 1.398 . S
C1670 C1671 1.391 . S
C1671 H1659 0.950 . S
C1671 C1667 1.393 . S
C1671 C1670 1.391 . S
H1672 C1680 0.950 . S
H1673 C1685 0.950 . S
H1674 C1682 0.950 . S
H1675 C1684 0.950 . S
H1676 C1686 0.950 . S
H1677 C1688 0.950 . S
H1678 C1690 0.950 . S
H1679 C1691 0.950 . S
C1680 H1672 0.950 . S
C1680 C1681 1.386 . S
C1680 C1682 1.391 . S
C1681 C1680 1.386 . S
C1681 C1685 1.393 . S
C1682 H1674 0.950 . S
C1682 C1680 1.391 . S
C1682 C1683 1.400 . S
C1683 C1682 1.400 . S
C1683 C1684 1.398 . S
C1683 C1689 1.491 . S
C1684 H1675 0.950 . S
C1684 C1683 1.398 . S
C1684 C1685 1.391 . S
C1685 H1673 0.950 . S
C1685 C1681 1.393 . S
C1685 C1684 1.391 . S
C1686 H1676 0.950 . S
C1686 C1687 1.386 . S
C1686 C1688 1.391 . S
C1687 C1686 1.386 . S
C1687 C1691 1.393 . S
C1688 H1677 0.950 . S
C1688 C1686 1.391 . S
C1688 C1689 1.400 . S
C1689 C1683 1.491 . S
C1689 C1688 1.400 . S
C1689 C1690 1.398 . S
C1690 H1678 0.950 . S
C1690 C1689 1.398 . S
C1690 C1691 1.391 . S
C1691 H1679 0.950 . S
C1691 C1687 1.393 . S
C1691 C1690 1.391 . S
C621 C455 1.703 . S
C627 C8 1.738 . S
C641 C42 1.740 . S
C647 C489 1.707 . S
C661 C76 1.731 . S
C667 C421 1.710 . S
C681 C81 1.713 . S
C687 C246 1.740 . S
C701 C280 1.739 . S
C707 C13 1.704 . S
C721 C47 1.717 . S
C727 C212 1.738 . S
C741 C119 1.731 . S
C747 C344 1.708 . S
C761 C153 1.731 . S
C767 C378 1.709 . S
C781 C310 1.701 . S
C787 C187 1.736 . S
C801 C561 1.737 . S
C807 C174 1.702 . S
C821 C106 1.702 . S
C827 C595 1.733 . S
C841 C527 1.732 . S
C847 C140 1.706 . S
C861 C285 1.703 1_455 S
C867 C450 1.733 . S
C881 C217 1.717 . S
C887 C484 1.739 . S
C901 C251 1.712 . S
C907 C416 1.732 . S
C921 C323 1.737 . S
C927 C548 1.702 1_545 S
C941 C582 1.711 . S
C947 C357 1.731 . S
C961 C514 1.703 . S
C967 C391 1.732 . S
C981 C4 1.522 . S
C987 C144 1.538 . S
C1001 C178 1.497 1_565 S
C1007 C38 1.522 . S
C1021 C110 1.549 . S
C1027 C72 1.501 . S
C1041 C149 1.500 . S
C1047 C85 1.549 . S
C1061 C183 1.500 . S
C1067 C17 1.562 . S
C1081 C115 1.500 . S
C1087 C51 1.549 . S
C1101 C348 1.547 . S
C1107 C208 1.504 . S
C1121 C382 1.550 . S
C1127 C242 1.500 . S
C1141 C314 1.546 . S
C1147 C276 1.508 . S
C1161 C353 1.500 . S
C1167 C289 1.550 . S
C1181 C387 1.516 . S
C1187 C221 1.541 . S
C1201 C319 1.516 . S
C1207 C255 1.541 . S
C1221 C552 1.538 . S
C1227 C412 1.522 . S
C1241 C586 1.538 . S
C1247 C446 1.522 . S
C1261 C480 1.518 . S
C1267 C518 1.540 . S
C1281 C493 1.550 . S
C1287 C557 1.500 . S
C1301 C425 1.542 . S
C1307 C591 1.514 . S
C1321 C523 1.505 . S
C1327 C459 1.547 . S
C1341 C0 1.224 . S
C1347 C29 1.224 . S
C1361 C34 1.225 . S
C1367 C63 1.225 . S
C1381 C68 1.227 . S
C1387 C97 1.227 . S
C1401 C131 1.226 . S
C1407 C102 1.226 . S
C1421 C136 1.227 . S
C1427 C165 1.227 . S
C1441 C170 1.224 . S
C1447 C199 1.224 . S
C1461 C233 1.225 1_554 S
C1467 C204 1.225 . S
C1481 C238 1.227 . S
C1487 C267 1.227 1_554 S
C1501 C301 1.228 1_554 S
C1507 C272 1.228 . S
C1521 C335 1.228 . S
C1527 C306 1.228 . S
C1541 C369 1.228 . S
C1547 C340 1.228 . S
C1561 C403 1.228 . S
C1567 C374 1.228 . S
C1581 C437 1.225 . S
C1587 C408 1.225 . S
C1601 C442 1.224 . S
C1607 C471 1.224 . S
C1621 C476 1.225 . S
C1627 C505 1.225 . S
C1641 C510 1.225 1_556 S
C1647 C539 1.225 . S
C1661 C544 1.227 1_556 S
C1667 C573 1.227 . S
C1681 C607 1.225 . S
C1687 C578 1.225 1_556 S
