# Generated by pormake.
# Topology dia, (4)-cn, num edge types: 1
# Building blocks:
#     Node 0, Type 0, BuildingBlock: QUQFOY_clean_sbu_3, # of connection points: 4
#     Node 1, Type 0, BuildingBlock: QUQFOY_clean_sbu_3, # of connection points: 4
#     Node 2, Type 0, BuildingBlock: QUQFOY_clean_sbu_3, # of connection points: 4
#     Node 3, Type 0, BuildingBlock: QUQFOY_clean_sbu_3, # of connection points: 4
#     Node 4, Type 0, BuildingBlock: QUQFOY_clean_sbu_3, # of connection points: 4
#     Node 5, Type 0, BuildingBlock: QUQFOY_clean_sbu_3, # of connection points: 4
#     Node 6, Type 0, BuildingBlock: QUQFOY_clean_sbu_3, # of connection points: 4
#     Node 7, Type 0, BuildingBlock: QUQFOY_clean_sbu_3, # of connection points: 4
#     Edge 8, Type (0, 0), BuildingBlock: ZUJKAS_clean_linker_0, # of connection points: 2
#     Edge 9, Type (0, 0), BuildingBlock: ZUJKAS_clean_linker_0, # of connection points: 2
#     Edge 10, Type (0, 0), BuildingBlock: ZUJKAS_clean_linker_0, # of connection points: 2
#     Edge 11, Type (0, 0), BuildingBlock: ZUJKAS_clean_linker_0, # of connection points: 2
#     Edge 12, Type (0, 0), BuildingBlock: ZUJKAS_clean_linker_0, # of connection points: 2
#     Edge 13, Type (0, 0), BuildingBlock: ZUJKAS_clean_linker_0, # of connection points: 2
#     Edge 14, Type (0, 0), BuildingBlock: ZUJKAS_clean_linker_0, # of connection points: 2
#     Edge 15, Type (0, 0), BuildingBlock: ZUJKAS_clean_linker_0, # of connection points: 2
#     Edge 16, Type (0, 0), BuildingBlock: ZUJKAS_clean_linker_0, # of connection points: 2
#     Edge 17, Type (0, 0), BuildingBlock: ZUJKAS_clean_linker_0, # of connection points: 2
#     Edge 18, Type (0, 0), BuildingBlock: ZUJKAS_clean_linker_0, # of connection points: 2
#     Edge 19, Type (0, 0), BuildingBlock: ZUJKAS_clean_linker_0, # of connection points: 2
#     Edge 20, Type (0, 0), BuildingBlock: ZUJKAS_clean_linker_0, # of connection points: 2
#     Edge 21, Type (0, 0), BuildingBlock: ZUJKAS_clean_linker_0, # of connection points: 2
#     Edge 22, Type (0, 0), BuildingBlock: ZUJKAS_clean_linker_0, # of connection points: 2
#     Edge 23, Type (0, 0), BuildingBlock: ZUJKAS_clean_linker_0, # of connection points: 2
# Relax obj value: 0.120
# Max RMSD: 0.163
# Mean RMSD: 0.163
data_MOF--net-dia--node1-QUQFOY_clean_sbu_3--edge1-ZUJKAS_clean_linker_0
_symmetry_space_group_name_H-M    P1
_symmetry_Int_Tables_number       1
_symmetry_cell_setting            triclinic
loop_
_symmetry_equiv_pos_as_xyz
'x, y, z'
_cell_length_a     43.800521
_cell_length_b     43.814855
_cell_length_c     51.252292
_cell_angle_alpha  90.246191
_cell_angle_beta   90.207309
_cell_angle_gamma 92.648134
loop_
_atom_site_label
_atom_site_type_symbol
_atom_site_fract_x
_atom_site_fract_y
_atom_site_fract_z
_atom_type_partial_charge
C0 C 0.05445 0.157 0.63388 0.0
O1 O 0.04242 0.15243 0.61154 0.0
Cd2 Cd 0.06249 0.12106 0.57815 0.0
O3 O 0.07912 0.14437 0.64011 0.0
Cd4 Cd 0.11537 0.109 0.61965 0.0
C5 C 0.13256 0.15755 0.56955 0.0
O6 O 0.0762 0.07541 0.59988 0.0
O7 O 0.12233 0.06607 0.5893 0.0
O8 O 0.12223 0.08582 0.66245 0.0
C9 C 0.09411 0.05852 0.58778 0.0
O10 O 0.10603 0.15069 0.56046 0.0
C11 C 0.15123 0.08731 0.66175 0.0
O12 O 0.14124 0.14672 0.59122 0.0
O13 O 0.16351 0.09973 0.64181 0.0
C14 C 0.83468 0.43844 0.84996 0.0
O15 O 0.83979 0.45051 0.87222 0.0
Cd16 Cd 0.87061 0.42966 0.90568 0.0
O17 O 0.84642 0.41328 0.8438 0.0
Cd18 Cd 0.88075 0.37593 0.86402 0.0
C19 C 0.83215 0.36045 0.91446 0.0
O20 O 0.91556 0.41407 0.88389 0.0
O21 O 0.92307 0.36742 0.89428 0.0
O22 O 0.90371 0.36863 0.82123 0.0
C23 C 0.93169 0.39536 0.89588 0.0
O24 O 0.83986 0.38684 0.92345 0.0
C25 C 0.90126 0.33965 0.8217 0.0
O26 O 0.84248 0.35137 0.89271 0.0
O27 O 0.88842 0.32758 0.84155 0.0
C28 C 0.55421 0.15849 0.13242 0.0
O29 O 0.5423 0.15463 0.10995 0.0
Cd30 Cd 0.56327 0.12531 0.07554 0.0
O31 O 0.57915 0.14615 0.13826 0.0
Cd32 Cd 0.61629 0.11246 0.11698 0.0
C33 C 0.63312 0.16309 0.06835 0.0
O34 O 0.57834 0.07905 0.09544 0.0
O35 O 0.62508 0.07228 0.08466 0.0
O36 O 0.62238 0.08385 0.1572 0.0
C37 C 0.59714 0.06364 0.08281 0.0
O38 O 0.6066 0.15636 0.05916 0.0
C39 C 0.65111 0.08875 0.1589 0.0
O40 O 0.64201 0.15144 0.08964 0.0
O41 O 0.66366 0.10549 0.14143 0.0
C42 C 0.83261 0.93475 0.34733 0.0
O43 O 0.83767 0.94711 0.36948 0.0
Cd44 Cd 0.86748 0.92574 0.40341 0.0
O45 O 0.84416 0.9094 0.34151 0.0
Cd46 Cd 0.87865 0.87261 0.36211 0.0
C47 C 0.82956 0.85618 0.41187 0.0
O48 O 0.91299 0.91045 0.38259 0.0
O49 O 0.9197 0.86404 0.39407 0.0
O50 O 0.90576 0.86607 0.32115 0.0
C51 C 0.92851 0.89197 0.3954 0.0
O52 O 0.83729 0.88244 0.42114 0.0
C53 C 0.90109 0.83729 0.31995 0.0
O54 O 0.83986 0.84753 0.38997 0.0
O55 O 0.88515 0.82494 0.33803 0.0
C56 C 0.05632 0.65432 0.13332 0.0
O57 O 0.044 0.64866 0.11125 0.0
Cd58 Cd 0.0656 0.61847 0.0778 0.0
O59 O 0.08176 0.64309 0.13937 0.0
Cd60 Cd 0.1187 0.60798 0.11948 0.0
C61 C 0.13534 0.65611 0.06915 0.0
O62 O 0.08035 0.57337 0.09977 0.0
O63 O 0.12675 0.56531 0.08912 0.0
O64 O 0.12525 0.58522 0.16245 0.0
C65 C 0.09872 0.55698 0.08768 0.0
O66 O 0.10883 0.6489 0.06014 0.0
C67 C 0.15425 0.58715 0.16215 0.0
O68 O 0.14418 0.64558 0.09088 0.0
O69 O 0.16672 0.59959 0.14229 0.0
C70 C 0.33337 0.43385 0.35229 0.0
O71 O 0.33806 0.44597 0.37458 0.0
Cd72 Cd 0.36909 0.42562 0.40814 0.0
O73 O 0.34567 0.40896 0.34617 0.0
Cd74 Cd 0.38057 0.37224 0.36651 0.0
C75 C 0.33179 0.35578 0.4166 0.0
O76 O 0.41453 0.41102 0.38649 0.0
O77 O 0.423 0.3646 0.39694 0.0
O78 O 0.40362 0.36545 0.32369 0.0
C79 C 0.43101 0.39269 0.39856 0.0
O80 O 0.33894 0.38226 0.42567 0.0
C81 C 0.4017 0.33645 0.32412 0.0
O82 O 0.34251 0.34694 0.39492 0.0
O83 O 0.38921 0.32412 0.34402 0.0
C84 C 0.33161 0.93295 0.85047 0.0
O85 O 0.33617 0.94503 0.8728 0.0
Cd86 Cd 0.36813 0.92516 0.90592 0.0
O87 O 0.3444 0.90839 0.84419 0.0
Cd88 Cd 0.38015 0.8722 0.86405 0.0
C89 C 0.33257 0.85456 0.91477 0.0
O90 O 0.41353 0.91183 0.88348 0.0
O91 O 0.42374 0.86571 0.89354 0.0
O92 O 0.40228 0.86616 0.82076 0.0
C93 C 0.43096 0.89399 0.89508 0.0
O94 O 0.33925 0.88117 0.92377 0.0
C95 C 0.40118 0.83716 0.82112 0.0
O96 O 0.34317 0.84599 0.89296 0.0
O97 O 0.38955 0.82444 0.84121 0.0
C98 C 0.55569 0.65844 0.63151 0.0
O99 O 0.54356 0.65274 0.60937 0.0
Cd100 Cd 0.56368 0.61988 0.57688 0.0
O101 O 0.58065 0.64655 0.63799 0.0
Cd102 Cd 0.61758 0.61134 0.61852 0.0
C103 C 0.63305 0.65724 0.56635 0.0
O104 O 0.57896 0.57593 0.60011 0.0
O105 O 0.62531 0.56786 0.58915 0.0
O106 O 0.62504 0.5903 0.66199 0.0
C107 C 0.59732 0.55926 0.58826 0.0
O108 O 0.60692 0.64842 0.55744 0.0
C109 C 0.65404 0.59208 0.66119 0.0
O110 O 0.64179 0.64884 0.58884 0.0
O111 O 0.66609 0.60372 0.64081 0.0
H112 H 0.32461 0.29359 0.41254 0.0
H113 H 0.29146 0.25939 0.4387 0.0
H114 H 0.25831 0.33695 0.4803 0.0
H115 H 0.29231 0.37111 0.45502 0.0
H116 H 0.27042 0.29338 0.51312 0.0
H117 H 0.20148 0.2425 0.43176 0.0
H118 H 0.24154 0.23713 0.42791 0.0
H119 H 0.22753 0.27513 0.42737 0.0
C120 C 0.31011 0.30335 0.42716 0.0
C121 C 0.31098 0.33505 0.43166 0.0
C122 C 0.29102 0.28379 0.44199 0.0
C123 C 0.27193 0.29562 0.46114 0.0
C124 C 0.27277 0.32729 0.4656 0.0
H125 H 0.11753 0.19735 0.53136 0.0
H126 H 0.1519 0.23123 0.50619 0.0
C127 C 0.29219 0.34679 0.45111 0.0
C128 C 0.25166 0.2751 0.47709 0.0
H129 H 0.1952 0.21891 0.47322 0.0
C130 C 0.25386 0.27718 0.5044 0.0
C131 C 0.22977 0.25425 0.46572 0.0
C132 C 0.22468 0.2523 0.4366 0.0
C133 C 0.23486 0.25901 0.52064 0.0
C134 C 0.2138 0.23733 0.50926 0.0
C135 C 0.21156 0.2353 0.48195 0.0
C136 C 0.19316 0.21717 0.5252 0.0
C137 C 0.237 0.26393 0.54977 0.0
C138 C 0.20487 0.19786 0.54423 0.0
C139 C 0.18518 0.17884 0.55901 0.0
C140 C 0.15347 0.17824 0.55455 0.0
C141 C 0.14185 0.19725 0.53523 0.0
C142 C 0.16148 0.2166 0.5208 0.0
H143 H 0.24702 0.28701 0.55468 0.0
H144 H 0.2142 0.26122 0.55909 0.0
H145 H 0.25207 0.24688 0.55831 0.0
H146 H 0.22927 0.19722 0.54748 0.0
H147 H 0.19483 0.16417 0.57353 0.0
H148 H 0.63441 0.56818 0.70766 0.0
H149 H 0.66505 0.54406 0.74109 0.0
H150 H 0.74632 0.56232 0.6954 0.0
H151 H 0.71597 0.58702 0.66215 0.0
H152 H 0.69861 0.49364 0.73524 0.0
H153 H 0.77342 0.59243 0.76716 0.0
H154 H 0.73938 0.59676 0.74782 0.0
H155 H 0.77421 0.58588 0.73258 0.0
C156 C 0.65887 0.56744 0.70489 0.0
C157 C 0.6728 0.57959 0.6823 0.0
C158 C 0.67632 0.55359 0.72398 0.0
C159 C 0.708 0.55169 0.72087 0.0
C160 C 0.72201 0.5641 0.69847 0.0
H161 H 0.82344 0.42347 0.79867 0.0
H162 H 0.79231 0.45057 0.76739 0.0
C163 C 0.7046 0.57809 0.67942 0.0
C164 C 0.72608 0.5353 0.74038 0.0
H165 H 0.78747 0.54332 0.78144 0.0
C166 C 0.71795 0.50453 0.74545 0.0
C167 C 0.75109 0.54965 0.75387 0.0
C168 C 0.7599 0.58308 0.75031 0.0
C169 C 0.73444 0.48756 0.76339 0.0
C170 C 0.76012 0.50161 0.77617 0.0
C171 C 0.76797 0.53251 0.77139 0.0
C172 C 0.7788 0.48488 0.79503 0.0
C173 C 0.72385 0.45495 0.76881 0.0
C174 C 0.78207 0.49557 0.82076 0.0
C175 C 0.80005 0.48035 0.83858 0.0
C176 C 0.8152 0.45411 0.83102 0.0
C177 C 0.8119 0.44345 0.80519 0.0
C178 C 0.794 0.45882 0.78732 0.0
H179 H 0.69959 0.45039 0.76302 0.0
H180 H 0.73798 0.43933 0.75741 0.0
H181 H 0.72637 0.44945 0.78981 0.0
H182 H 0.7706 0.51569 0.82708 0.0
H183 H 0.80206 0.48921 0.8583 0.0
H184 H 0.53847 0.04339 0.07346 0.0
H185 H 0.52033 0.00524 0.04164 0.0
H186 H 0.61329 0.98977 0.01946 0.0
H187 H 0.63175 0.02853 0.05116 0.0
H188 H 0.577 -0.00105 0.97757 0.0
H189 H 0.52028 0.913 0.04158 0.0
H190 H 0.50743 0.95035 0.04878 0.0
H191 H 0.54698 0.94229 0.05392 0.0
C192 C 0.55513 0.03165 0.06207 0.0
C193 C 0.58654 0.03899 0.06478 0.0
C194 C 0.54473 0.00962 0.04404 0.0
C195 C 0.56549 0.99424 0.02856 0.0
C196 C 0.59693 0.00119 0.03143 0.0
H197 H 0.47095 0.86141 0.92379 0.0
H198 H 0.51039 0.88174 0.95406 0.0
C199 C 0.6074 0.02333 0.0495 0.0
C200 C 0.55385 0.97307 0.00788 0.0
H201 H 0.50075 0.915 -0.00287 0.0
C202 C 0.56086 0.98012 0.98183 0.0
C203 C 0.53337 0.94806 0.01343 0.0
C204 C 0.52686 0.93778 0.04099 0.0
C205 C 0.54594 0.96445 0.96118 0.0
C206 C 0.52303 0.94166 0.96682 0.0
C207 C 0.51794 0.93286 -0.0072 0.0
C208 C 0.50178 0.92915 0.94652 0.0
C209 C 0.55426 0.9731 0.93356 0.0
C210 C 0.48391 0.94906 0.93231 0.0
C211 C 0.4615 0.93757 0.91505 0.0
C212 C 0.45625 0.9059 0.91191 0.0
C213 C 0.47449 0.88593 0.92582 0.0
C214 C 0.49703 0.89749 0.94307 0.0
H215 H 0.57849 0.98166 0.93233 0.0
H216 H 0.55067 0.95343 0.91999 0.0
H217 H 0.53977 0.99176 0.92706 0.0
H218 H 0.48655 0.97354 0.93521 0.0
H219 H 0.44774 0.95355 0.90472 0.0
H220 H 0.9447 0.85606 0.28495 0.0
H221 H 0.97007 0.825 0.25266 0.0
H222 H 0.91387 0.74617 0.27539 0.0
H223 H 0.88908 0.77693 0.30843 0.0
H224 H 0.97223 0.73245 0.27182 0.0
H225 H 0.94018 0.79473 0.18281 0.0
H226 H 0.9594 0.81928 0.20631 0.0
H227 H 0.92274 0.80133 0.21404 0.0
C228 C 0.9375 0.83218 0.28289 0.0
C229 C 0.91481 0.81895 0.29916 0.0
C230 C 0.95192 0.81449 0.26431 0.0
C231 C 0.94351 0.78337 0.26126 0.0
C232 C 0.92063 0.77017 0.27733 0.0
H233 H -0.00275 0.67132 0.13118 0.0
H234 H 0.97028 0.7018 0.16279 0.0
C235 C 0.90644 0.78778 0.29615 0.0
C236 C 0.95956 0.76428 0.2422 0.0
H237 H 0.97958 0.75928 0.17808 0.0
C238 C 0.97366 0.7382 0.25128 0.0
C239 C 0.96113 0.77158 0.21535 0.0
C240 C 0.94478 0.79807 0.20399 0.0
C241 C 0.9896 0.71942 0.23434 0.0
C242 C 0.99229 0.72747 0.20771 0.0
C243 C 0.97786 0.75334 0.19857 0.0
C244 C 0.00906 0.70887 0.18876 0.0
C245 C 0.00276 0.69079 0.24508 0.0
C246 C 0.03999 0.70294 0.19267 0.0
C247 C 0.05544 0.68513 0.17475 0.0
C248 C 0.04036 0.67345 0.15232 0.0
C249 C 0.00958 0.68 0.14821 0.0
C250 C 0.9941 0.69744 0.16627 0.0
H251 H 0.99124 0.68339 0.26342 0.0
H252 H 0.00065 0.67172 0.23075 0.0
H253 H 0.02735 0.69536 0.24955 0.0
H254 H 0.05225 0.71221 0.20952 0.0
H255 H 0.07922 0.68075 0.17834 0.0
H256 H 0.32201 0.91838 0.79891 0.0
H257 H 0.29146 0.94545 0.76716 0.0
H258 H 0.26578 0.00851 0.82717 0.0
H259 H 0.29662 0.98207 0.85888 0.0
H260 H 0.23006 0.9563 0.76631 0.0
H261 H 0.29926 0.06548 0.77057 0.0
H262 H 0.31226 0.0305 0.78431 0.0
H263 H 0.28554 0.05279 0.80183 0.0
C264 C 0.30985 0.938 0.80537 0.0
C265 C 0.31198 0.94821 0.8314 0.0
C266 C 0.29242 0.95343 0.7872 0.0
C267 C 0.27686 0.97933 0.79472 0.0
C268 C 0.27823 0.98904 0.82082 0.0
H269 H 0.13127 0.06141 0.70741 0.0
H270 H 0.1617 0.03574 0.74009 0.0
C271 C 0.29575 0.97376 0.83895 0.0
C272 C 0.25895 -0.00394 0.77533 0.0
H273 H 0.252 0.06614 0.74763 0.0
C274 C 0.23489 0.98029 0.76214 0.0
C275 C 0.2656 0.02725 0.7697 0.0
C276 C 0.29225 0.04496 0.78214 0.0
C277 C 0.21696 -0.005 0.74373 0.0
C278 C 0.2229 0.02647 0.73881 0.0
C279 C 0.24726 0.04212 0.7517 0.0
C280 C 0.20461 0.04338 0.71981 0.0
C281 C 0.19222 0.97654 0.72937 0.0
C282 C 0.21885 0.05729 0.69815 0.0
C283 C 0.2016 0.07229 0.67961 0.0
C284 C 0.16978 0.07367 0.68244 0.0
C285 C 0.15571 0.06054 0.70458 0.0
C286 C 0.17302 0.04566 0.72318 0.0
H287 H 0.19596 0.95165 0.73022 0.0
H288 H 0.16982 0.9805 0.73852 0.0
H289 H 0.19103 0.98344 0.70858 0.0
H290 H 0.24326 0.05596 0.69529 0.0
H291 H 0.21313 0.08221 0.66279 0.0
H292 H 0.95084 0.45415 0.90626 0.0
H293 H 0.98919 0.47212 0.93799 0.0
H294 H 0.00789 0.37896 0.95697 0.0
H295 H 0.96891 0.36069 0.92546 0.0
H296 H -0.00187 0.41236 -5e-05 0.0
H297 H 0.08129 0.47587 0.93773 0.0
H298 H 0.0434 0.48787 0.93149 0.0
H299 H 0.0527 0.44904 0.92446 0.0
C300 C 0.96339 0.43744 0.91689 0.0
C301 C 0.95682 0.40601 0.91342 0.0
C302 C 0.98553 0.44776 0.93487 0.0
C303 C 0.00182 0.42688 0.94949 0.0
C304 C -0.00423 0.39544 0.9457 0.0
H305 H 0.13251 0.51995 0.05709 0.0
H306 H 0.11326 0.48171 0.02528 0.0
C307 C 0.97349 0.38506 0.92773 0.0
C308 C 0.02278 0.43822 0.97045 0.0
H309 H 0.07902 0.49273 0.98301 0.0
C310 C 0.01631 0.42942 -0.00379 0.0
C311 C 0.04696 0.45994 0.96558 0.0
C312 C 0.0567 0.46844 0.93826 0.0
C313 C 0.0317 0.44363 0.01734 0.0
C314 C 0.05358 0.46766 0.01252 0.0
C315 C 0.06185 0.47465 0.98672 0.0
C316 C 0.06557 0.48805 0.03364 0.0
C317 C 0.02372 0.43333 0.04463 0.0
C318 C 0.04514 0.50422 0.04885 0.0
C319 C 0.056 0.52592 0.06698 0.0
C320 C 0.08756 0.53218 0.07003 0.0
C321 C 0.10807 0.51559 0.05516 0.0
C322 C 0.09713 0.49375 0.03702 0.0
H323 H 0.01607 0.40879 0.04485 0.0
H324 H 0.04345 0.43684 0.05815 0.0
H325 H 0.00457 0.44665 0.05198 0.0
H326 H 0.02069 0.50083 0.04606 0.0
H327 H 0.03962 0.53841 0.07806 0.0
H328 H 0.42727 0.35671 0.27847 0.0
H329 H 0.45153 0.32635 0.24489 0.0
H330 H 0.43102 0.24442 0.28906 0.0
H331 H 0.40617 0.27449 0.32244 0.0
H332 H 0.50114 0.29145 0.25053 0.0
H333 H 0.401 0.21977 0.21662 0.0
H334 H 0.39728 0.25348 0.23652 0.0
H335 H 0.40718 0.21804 0.25121 0.0
C336 C 0.42759 0.33218 0.28088 0.0
C337 C 0.4147 0.31797 0.30305 0.0
C338 C 0.44152 0.31489 0.26171 0.0
C339 C 0.44276 0.2831 0.26433 0.0
C340 C 0.42974 0.26883 0.28636 0.0
H341 H 0.56893 0.16721 0.18408 0.0
H342 H 0.54227 0.19765 0.21619 0.0
C343 C 0.41567 0.28608 0.30549 0.0
C344 C 0.45893 0.2651 0.2446 0.0
H345 H 0.44981 0.20511 0.20217 0.0
C346 C 0.48991 0.27265 0.23986 0.0
C347 C 0.44412 0.24081 0.23053 0.0
C348 C 0.41049 0.23269 0.23375 0.0
C349 C 0.50661 0.2563 0.22163 0.0
C350 C 0.49208 0.23134 0.20821 0.0
C351 C 0.46099 0.22405 0.21271 0.0
C352 C 0.50844 0.21294 0.1889 0.0
C353 C 0.53949 0.26629 0.21656 0.0
C354 C 0.49785 0.21088 0.16308 0.0
C355 C 0.5128 0.19329 0.14477 0.0
C356 C 0.53869 0.17735 0.15193 0.0
C357 C 0.54922 0.17938 0.17787 0.0
C358 C 0.53411 0.19689 0.19622 0.0
H359 H 0.54459 0.29024 0.223 0.0
H360 H 0.55468 0.25137 0.22761 0.0
H361 H 0.54505 0.26438 0.19551 0.0
H362 H 0.47803 0.22301 0.15704 0.0
H363 H 0.50404 0.19226 0.12498 0.0
H364 H 0.80767 0.79853 0.39853 0.0
H365 H 0.77356 0.76439 0.42394 0.0
H366 H 0.77072 0.83228 0.48493 0.0
H367 H 0.8044 0.8667 0.45965 0.0
H368 H 0.78258 0.74101 0.47391 0.0
H369 H 0.68023 0.81095 0.47048 0.0
H370 H 0.71251 0.8176 0.44911 0.0
H371 H 0.71407 0.83136 0.48221 0.0
C372 C 0.79967 0.80629 0.41728 0.0
C373 C 0.80866 0.83545 0.42697 0.0
C374 C 0.78022 0.78672 0.43178 0.0
C375 C 0.76929 0.796 0.45612 0.0
C376 C 0.77841 0.82493 0.46594 0.0
H377 H 0.6897 0.6824 0.57911 0.0
H378 H 0.72305 0.71547 0.5521 0.0
C379 C 0.7978 0.84452 0.45149 0.0
C380 C 0.7489 0.77518 0.47157 0.0
H381 H 0.67851 0.76909 0.49991 0.0
C382 C 0.75977 0.74705 0.47952 0.0
C383 C 0.71905 0.78301 0.47857 0.0
C384 C 0.7056 0.81224 0.46947 0.0
C385 C 0.74174 0.72672 0.49474 0.0
C386 C 0.7123 0.73504 0.50252 0.0
C387 C 0.70124 0.76293 0.49415 0.0
C388 C 0.6923 0.71492 0.51894 0.0
C389 C 0.75419 0.69635 0.50202 0.0
C390 C 0.66366 0.70427 0.50948 0.0
C391 C 0.64445 0.6856 0.5249 0.0
C392 C 0.65346 0.67728 0.55018 0.0
C393 C 0.68211 0.68821 0.55969 0.0
C394 C 0.7013 0.70696 0.54423 0.0
H395 H 0.77332 0.69024 0.48911 0.0
H396 H 0.76298 0.69762 0.52234 0.0
H397 H 0.73604 0.67782 0.50098 0.0
H398 H 0.65624 0.71027 0.49005 0.0
H399 H 0.62256 0.67764 0.51694 0.0
H400 H 0.13367 0.56156 0.2077 0.0
H401 H 0.16379 0.53712 0.24132 0.0
H402 H 0.24605 0.55769 0.19755 0.0
H403 H 0.21623 0.58271 0.16412 0.0
H404 H 0.1986 0.48748 0.23564 0.0
H405 H 0.27038 0.58721 0.27017 0.0
H406 H 0.23679 0.59113 0.25017 0.0
H407 H 0.27231 0.58127 0.23555 0.0
C408 C 0.15823 0.56122 0.20539 0.0
C409 C 0.1726 0.57416 0.18331 0.0
C410 C 0.17538 0.54719 0.22459 0.0
C411 C 0.20719 0.54591 0.22209 0.0
C412 C 0.22162 0.559 0.20015 0.0
H413 H 0.3234 0.41916 0.30077 0.0
H414 H 0.29225 0.44587 0.26926 0.0
C415 C 0.20451 0.57317 0.18101 0.0
C416 C 0.22504 0.52958 0.24179 0.0
H417 H 0.28511 0.53824 0.28419 0.0
C418 C 0.21742 0.49859 0.24637 0.0
C419 C 0.24936 0.54423 0.25595 0.0
C420 C 0.25755 0.57787 0.25294 0.0
C421 C 0.23376 0.48171 0.26446 0.0
C422 C 0.25879 0.49608 0.27792 0.0
C423 C 0.26611 0.52719 0.27363 0.0
C424 C 0.27734 0.47948 0.29695 0.0
C425 C 0.22371 0.44882 0.26932 0.0
C426 C 0.27981 0.48989 0.32281 0.0
C427 C 0.29781 0.47491 0.34078 0.0
C428 C 0.31377 0.44918 0.33323 0.0
C429 C 0.31123 0.43875 0.30728 0.0
C430 C 0.29331 0.45389 0.28927 0.0
H431 H 0.19968 0.44388 0.26304 0.0
H432 H 0.23845 0.43371 0.258 0.0
H433 H 0.22582 0.44301 0.2903 0.0
H434 H 0.26774 0.50964 0.32912 0.0
H435 H 0.29922 0.48357 0.36059 0.0
H436 H 0.82358 0.29838 0.91031 0.0
H437 H 0.79027 0.26475 0.93683 0.0
H438 H 0.75958 0.34291 0.97915 0.0
H439 H 0.79374 0.37648 0.95347 0.0
H440 H 0.77144 0.29884 0.01168 0.0
H441 H 0.69988 0.24983 0.93116 0.0
H442 H 0.7397 0.24366 0.92663 0.0
H443 H 0.72648 0.28198 0.92652 0.0
C444 C 0.80957 0.3084 0.92516 0.0
C445 C 0.81119 0.34009 0.92973 0.0
C446 C 0.7904 0.28916 0.94021 0.0
C447 C 0.77195 0.30133 0.95967 0.0
C448 C 0.77353 0.33299 0.96421 0.0
H449 H 0.61768 0.20426 0.03141 0.0
H450 H 0.65183 0.23849 0.00636 0.0
C451 C 0.79304 0.35216 0.94948 0.0
C452 C 0.75161 0.28114 0.97585 0.0
H453 H 0.69413 0.22595 0.97256 0.0
C454 C 0.75442 0.283 0.00313 0.0
C455 C 0.72911 0.26078 0.96471 0.0
C456 C 0.72335 0.25913 0.93567 0.0
C457 C 0.73548 0.26502 0.01957 0.0
C458 C 0.71382 0.24378 0.00841 0.0
C459 C 0.71093 0.24201 0.98113 0.0
C460 C 0.6933 0.2237 0.02454 0.0
C461 C 0.73836 0.26964 0.0487 0.0
C462 C 0.7052 0.20395 0.04314 0.0
C463 C 0.68563 0.18472 0.05785 0.0
C464 C 0.65387 0.18436 0.05376 0.0
C465 C 0.64205 0.20395 0.03498 0.0
C466 C 0.66156 0.22351 0.02062 0.0
H467 H 0.7488 0.29257 0.05358 0.0
H468 H 0.71577 0.26714 0.05839 0.0
H469 H 0.7534 0.25231 0.05683 0.0
H470 H 0.72963 0.20303 0.04601 0.0
H471 H 0.69544 0.16961 0.07195 0.0
H472 H 0.81442 0.99348 0.34902 0.0
H473 H 0.78309 0.0193 0.31732 0.0
H474 H 0.77527 0.93703 0.27077 0.0
H475 H 0.80752 0.91121 0.30206 0.0
H476 H 0.7872 0.98598 0.24103 0.0
H477 H 0.69213 0.01017 0.30777 0.0
H478 H 0.72823 0.02542 0.31973 0.0
H479 H 0.72173 0.98471 0.31636 0.0
C480 C 0.80593 0.98078 0.33211 0.0
C481 C 0.81332 0.95021 0.32814 0.0
C482 C 0.78783 -0.00445 0.31408 0.0
C483 C 0.77625 0.97991 0.29197 0.0
C484 C 0.7838 0.94947 0.28781 0.0
H485 H 0.63189 0.04396 0.19261 0.0
H486 H 0.66257 0.01743 0.22447 0.0
C487 C 0.80222 0.93475 0.3057 0.0
C488 C 0.75703 -0.00437 0.27281 0.0
H489 H 0.69278 0.03635 0.26702 0.0
C490 C 0.76644 -0.00317 0.24667 0.0
C491 C 0.72972 0.0094 0.28011 0.0
C492 C 0.71717 0.00711 0.30746 0.0
C493 C 0.74957 0.01186 0.2277 0.0
C494 C 0.72305 0.02688 0.23526 0.0
C495 C 0.71336 0.02522 0.26132 0.0
C496 C 0.7045 0.0437 0.21632 0.0
C497 C 0.76002 0.01087 0.19969 0.0
C498 C 0.7177 0.06774 0.20153 0.0
C499 C 0.70028 0.08273 0.18307 0.0
C500 C 0.6692 0.0743 0.17945 0.0
C501 C 0.65578 0.05098 0.19495 0.0
C502 C 0.67329 0.03578 0.21316 0.0
H503 H 0.77481 0.99137 0.19607 0.0
H504 H 0.74027 0.00896 0.18605 0.0
H505 H 0.77358 0.03221 0.19522 0.0
H506 H 0.74152 0.07485 0.20418 0.0
H507 H 0.71118 0.1008 0.17158 0.0
H508 H 0.96543 0.85813 0.42615 0.0
H509 H 0.00263 0.87739 0.45887 0.0
H510 H 0.9823 0.96993 0.4392 0.0
H511 H 0.94589 0.95103 0.40623 0.0
H512 H 0.04377 0.96266 0.44611 0.0
H513 H 0.97632 0.91242 0.52863 0.0
H514 H 0.98836 0.88616 0.50411 0.0
H515 H 0.96111 0.91403 0.49595 0.0
C516 C 0.96912 0.88257 0.4287 0.0
C517 C 0.95255 0.90308 0.41381 0.0
C518 C 0.99025 0.89351 0.44745 0.0
C519 C -0.00518 0.92505 0.45172 0.0
C520 C 0.97907 0.94549 0.43623 0.0
H521 H 0.03472 0.044 0.57557 0.0
H522 H 0.0152 0.00669 0.54351 0.0
C523 C 0.95819 0.93463 0.41744 0.0
C524 C 0.01483 0.93734 0.47297 0.0
H525 H 0.01887 0.94445 0.53924 0.0
C526 C 0.03872 0.95836 0.46651 0.0
C527 C 0.00798 0.93168 0.49952 0.0
C528 C 0.98194 0.91003 0.50762 0.0
C529 C 0.05485 0.97522 0.48583 0.0
C530 C 0.04731 0.97031 0.51235 0.0
C531 C 0.0246 0.94803 0.51887 0.0
C532 C 0.05968 0.99078 0.53325 0.0
C533 C 0.07837 -0.00047 0.47759 0.0
C534 C 0.09114 0.99374 0.53852 0.0
C535 C 0.10244 0.01537 0.55671 0.0
C536 C 0.08236 0.03405 0.57006 0.0
C537 C 0.05078 0.03004 0.56553 0.0
C538 C 0.03958 0.00865 0.54727 0.0
H539 H 0.07736 0.00414 0.45631 0.0
H540 H 0.0751 0.02123 0.48827 0.0
H541 H 0.10156 0.9919 0.48225 0.0
H542 H 0.10697 0.97972 0.52828 0.0
H543 H 0.12687 0.01777 0.56001 0.0
H544 H 0.92775 0.35933 0.77624 0.0
H545 H 0.95225 0.32848 0.74314 0.0
H546 H 0.92983 0.247 0.78735 0.0
H547 H 0.90475 0.27758 0.82025 0.0
H548 H 0.00131 0.29302 0.74973 0.0
H549 H 0.90115 0.22225 0.71459 0.0
H550 H 0.89739 0.25613 0.73426 0.0
H551 H 0.90652 0.22064 0.74928 0.0
C552 C 0.92769 0.3348 0.77875 0.0
C553 C 0.91421 0.32087 0.80081 0.0
C554 C 0.94176 0.31722 0.75986 0.0
C555 C 0.94256 0.28542 0.76264 0.0
C556 C 0.92891 0.27142 0.78453 0.0
H557 H 0.06875 0.16683 0.68551 0.0
H558 H 0.04214 0.19842 0.71681 0.0
C559 C 0.9147 0.28896 0.80337 0.0
C560 C 0.95894 0.26711 0.74327 0.0
H561 H 0.95009 0.2068 0.70115 0.0
C562 C 0.9901 0.27425 0.739 0.0
C563 C 0.94418 0.24286 0.72912 0.0
C564 C 0.9104 0.23516 0.73181 0.0
C565 C 0.00702 0.25752 0.72119 0.0
C566 C 0.99251 0.23259 0.70771 0.0
C567 C 0.96125 0.22572 0.71172 0.0
C568 C 0.00907 0.21377 0.68884 0.0
C569 C 0.04011 0.26707 0.71662 0.0
C570 C -0.00107 0.21142 0.66291 0.0
C571 C 0.01384 0.19318 0.64508 0.0
C572 C 0.03924 0.17685 0.65283 0.0
C573 C 0.04942 0.17928 0.67885 0.0
C574 C 0.03433 0.19745 0.69673 0.0
H575 H 0.04534 0.29104 0.72292 0.0
H576 H 0.05484 0.25211 0.72808 0.0
H577 H 0.04615 0.26484 0.6957 0.0
H578 H 0.97943 0.22377 0.65643 0.0
H579 H 0.00538 0.19187 0.6252 0.0
H580 H 0.50539 0.69158 0.62247 0.0
H581 H 0.47891 0.72366 0.65327 0.0
H582 H 0.54351 0.70234 0.71346 0.0
H583 H 0.5706 0.67063 0.68263 0.0
H584 H 0.45085 0.70708 0.69867 0.0
H585 H 0.54352 0.79492 0.71783 0.0
H586 H 0.54482 0.7681 0.69107 0.0
H587 H 0.55474 0.75664 0.72356 0.0
C588 C 0.51416 0.69386 0.6422 0.0
C589 C 0.54021 0.6786 0.65005 0.0
C590 C 0.49895 0.7122 0.65978 0.0
C591 C 0.50946 0.71571 0.68555 0.0
C592 C 0.5354 0.70049 0.6935 0.0
H593 H 0.40709 0.77541 0.81903 0.0
H594 H 0.43206 0.74619 0.78516 0.0
C595 C 0.55076 0.68224 0.67588 0.0
C596 C 0.49254 0.73439 0.70429 0.0
H597 H 0.50035 0.79525 0.74594 0.0
C598 C 0.46162 0.72646 0.70892 0.0
C599 C 0.50651 0.75993 0.71733 0.0
C600 C 0.53914 0.77064 0.71204 0.0
C601 C 0.44442 0.74302 0.72665 0.0
C602 C 0.45874 0.76777 0.74049 0.0
C603 C 0.48949 0.77608 0.73547 0.0
C604 C 0.44237 0.78524 0.76045 0.0
C605 C 0.41099 0.73409 0.7301 0.0
C606 C 0.44029 0.81696 0.75801 0.0
C607 C 0.42628 0.83377 0.77746 0.0
C608 C 0.41418 0.81914 0.79975 0.0
C609 C 0.41597 0.78731 0.802 0.0
C610 C 0.43011 0.77054 0.78259 0.0
H611 H 0.40164 0.72104 0.713 0.0
H612 H 0.40822 0.7193 0.74753 0.0
H613 H 0.39729 0.75452 0.73304 0.0
H614 H 0.44972 0.82875 0.74111 0.0
H615 H 0.42531 0.85827 0.77518 0.0
H616 H 0.12056 0.69515 0.03021 0.0
H617 H 0.15529 0.72767 0.00411 0.0
H618 H 0.23228 0.69445 0.04641 0.0
H619 H 0.19753 0.66281 0.07336 0.0
H620 H 0.23921 0.75351 0.04022 0.0
H621 H 0.20695 0.70223 0.94471 0.0
H622 H 0.17449 0.71662 0.96109 0.0
H623 H 0.19438 0.68553 0.97515 0.0
C624 C 0.14489 0.69475 0.03394 0.0
C625 C 0.15633 0.6763 0.05375 0.0
C626 C 0.16475 0.71316 0.01885 0.0
C627 C 0.19648 0.71291 0.02281 0.0
C628 C 0.20791 0.69485 0.04286 0.0
H629 H 0.32653 0.7923 0.91048 0.0
H630 H 0.29504 0.75724 0.93732 0.0
C631 C 0.18802 0.67681 0.05826 0.0
C632 C 0.21767 0.73212 0.00653 0.0
H633 H 0.23578 0.74995 0.94351 0.0
C634 C 0.23863 0.75254 0.01907 0.0
C635 C 0.21739 0.73044 0.97893 0.0
C636 C 0.19732 0.70728 0.9642 0.0
C637 C 0.25875 0.77185 0.0048 0.0
C638 C 0.25711 0.77154 0.9772 0.0
C639 C 0.23673 0.75055 0.96466 0.0
C640 C 0.27622 0.79284 0.96096 0.0
C641 C 0.28189 0.79194 0.01954 0.0
C642 C 0.27572 0.82452 0.96498 0.0
C643 C 0.29402 0.84453 0.94996 0.0
C644 C 0.31265 0.83331 0.93016 0.0
C645 C 0.31241 0.80164 0.92558 0.0
C646 C 0.29445 0.78159 0.94092 0.0
H647 H 0.28697 0.78231 0.03901 0.0
H648 H 0.30363 0.79495 0.00857 0.0
H649 H 0.27249 0.81475 0.0227 0.0
H650 H 0.26108 0.83384 0.9797 0.0
H651 H 0.29338 0.86884 0.95373 0.0
H652 H 0.4492 0.45183 0.40856 0.0
H653 H 0.48714 0.47074 0.44027 0.0
H654 H 0.50709 0.37819 0.46024 0.0
H655 H 0.46853 0.35895 0.42871 0.0
H656 H 0.49673 0.41233 0.50293 0.0
H657 H 0.57937 0.47537 0.43983 0.0
H658 H 0.54129 0.48677 0.43343 0.0
H659 H 0.55108 0.44795 0.42697 0.0
C660 C 0.46192 0.43545 0.41941 0.0
C661 C 0.45584 0.40391 0.41618 0.0
C662 C 0.48383 0.44631 0.43738 0.0
C663 C 0.50035 0.42587 0.45226 0.0
C664 C 0.49476 0.39432 0.44876 0.0
H665 H 0.63099 0.52155 0.55819 0.0
H666 H 0.61162 0.48257 0.5271 0.0
C667 C 0.47274 0.3834 0.43078 0.0
C668 C 0.5212 0.43779 0.47308 0.0
H669 H 0.57715 0.49283 0.48489 0.0
C670 C 0.5148 0.42944 0.49897 0.0
C671 C 0.54522 0.45957 0.46792 0.0
C672 C 0.55486 0.46766 0.44048 0.0
C673 C 0.53015 0.44411 0.51991 0.0
C674 C 0.55191 0.46816 0.51475 0.0
C675 C 0.56007 0.47474 0.48885 0.0
C676 C 0.56397 0.48891 0.5356 0.0
C677 C 0.52227 0.43427 0.54733 0.0
C678 C 0.5436 0.50529 0.5507 0.0
C679 C 0.55454 0.52742 0.56844 0.0
C680 C 0.58609 0.5339 0.57119 0.0
C681 C 0.60654 0.51705 0.55648 0.0
C682 C 0.59554 0.49478 0.53874 0.0
H683 H 0.51469 0.40973 0.54787 0.0
H684 H 0.54203 0.43807 0.56077 0.0
H685 H 0.5031 0.44766 0.55454 0.0
H686 H 0.51914 0.50176 0.54809 0.0
H687 H 0.53819 0.54009 0.5794 0.0
loop_
_geom_bond_atom_site_label_1
_geom_bond_atom_site_label_2
_geom_bond_distance
_geom_bond_site_symmetry_2
_ccdc_geom_bond_type
C0 O1 1.306 . S
C0 O3 1.160 . S
O1 C0 1.306 . S
O1 Cd2 2.228 . S
Cd2 O1 2.228 . S
Cd2 O6 2.273 . S
Cd2 O10 2.277 . S
O3 C0 1.160 . S
O3 Cd4 2.203 . S
Cd4 O3 2.203 . S
Cd4 O6 2.411 . S
Cd4 O7 2.333 . S
Cd4 O8 2.352 . S
Cd4 O12 2.277 . S
Cd4 O13 2.356 . S
C5 O10 1.209 . S
C5 O12 1.226 . S
O6 Cd2 2.273 . S
O6 Cd4 2.411 . S
O6 C9 1.320 . S
O7 Cd4 2.333 . S
O7 C9 1.214 . S
O8 Cd4 2.352 . S
O8 C11 1.258 . S
C9 O6 1.320 . S
C9 O7 1.214 . S
O10 Cd2 2.277 . S
O10 C5 1.209 . S
C11 O8 1.258 . S
C11 O13 1.282 . S
O12 Cd4 2.277 . S
O12 C5 1.226 . S
O13 Cd4 2.356 . S
O13 C11 1.282 . S
C14 O15 1.306 . S
C14 O17 1.160 . S
O15 C14 1.306 . S
O15 Cd16 2.228 . S
Cd16 O15 2.228 . S
Cd16 O20 2.273 . S
Cd16 O24 2.277 . S
O17 C14 1.160 . S
O17 Cd18 2.203 . S
Cd18 O17 2.203 . S
Cd18 O20 2.411 . S
Cd18 O21 2.333 . S
Cd18 O22 2.352 . S
Cd18 O26 2.277 . S
Cd18 O27 2.356 . S
C19 O24 1.209 . S
C19 O26 1.226 . S
O20 Cd16 2.273 . S
O20 Cd18 2.411 . S
O20 C23 1.320 . S
O21 Cd18 2.333 . S
O21 C23 1.214 . S
O22 Cd18 2.352 . S
O22 C25 1.258 . S
C23 O20 1.320 . S
C23 O21 1.214 . S
O24 Cd16 2.277 . S
O24 C19 1.209 . S
C25 O22 1.258 . S
C25 O27 1.282 . S
O26 Cd18 2.277 . S
O26 C19 1.226 . S
O27 Cd18 2.356 . S
O27 C25 1.282 . S
C28 O29 1.306 . S
C28 O31 1.160 . S
O29 C28 1.306 . S
O29 Cd30 2.228 . S
Cd30 O29 2.228 . S
Cd30 O34 2.273 . S
Cd30 O38 2.277 . S
O31 C28 1.160 . S
O31 Cd32 2.203 . S
Cd32 O31 2.203 . S
Cd32 O34 2.411 . S
Cd32 O35 2.333 . S
Cd32 O36 2.352 . S
Cd32 O40 2.277 . S
Cd32 O41 2.356 . S
C33 O38 1.209 . S
C33 O40 1.226 . S
O34 Cd30 2.273 . S
O34 Cd32 2.411 . S
O34 C37 1.320 . S
O35 Cd32 2.333 . S
O35 C37 1.214 . S
O36 Cd32 2.352 . S
O36 C39 1.258 . S
C37 O34 1.320 . S
C37 O35 1.214 . S
O38 Cd30 2.277 . S
O38 C33 1.209 . S
C39 O36 1.258 . S
C39 O41 1.282 . S
O40 Cd32 2.277 . S
O40 C33 1.226 . S
O41 Cd32 2.356 . S
O41 C39 1.282 . S
C42 O43 1.306 . S
C42 O45 1.160 . S
O43 C42 1.306 . S
O43 Cd44 2.228 . S
Cd44 O43 2.228 . S
Cd44 O48 2.273 . S
Cd44 O52 2.277 . S
O45 C42 1.160 . S
O45 Cd46 2.203 . S
Cd46 O45 2.203 . S
Cd46 O48 2.411 . S
Cd46 O49 2.333 . S
Cd46 O50 2.352 . S
Cd46 O54 2.277 . S
Cd46 O55 2.356 . S
C47 O52 1.209 . S
C47 O54 1.226 . S
O48 Cd44 2.273 . S
O48 Cd46 2.411 . S
O48 C51 1.320 . S
O49 Cd46 2.333 . S
O49 C51 1.214 . S
O50 Cd46 2.352 . S
O50 C53 1.258 . S
C51 O48 1.320 . S
C51 O49 1.214 . S
O52 Cd44 2.277 . S
O52 C47 1.209 . S
C53 O50 1.258 . S
C53 O55 1.282 . S
O54 Cd46 2.277 . S
O54 C47 1.226 . S
O55 Cd46 2.356 . S
O55 C53 1.282 . S
C56 O57 1.306 . S
C56 O59 1.160 . S
O57 C56 1.306 . S
O57 Cd58 2.228 . S
Cd58 O57 2.228 . S
Cd58 O62 2.273 . S
Cd58 O66 2.277 . S
O59 C56 1.160 . S
O59 Cd60 2.203 . S
Cd60 O59 2.203 . S
Cd60 O62 2.411 . S
Cd60 O63 2.333 . S
Cd60 O64 2.352 . S
Cd60 O68 2.277 . S
Cd60 O69 2.356 . S
C61 O66 1.209 . S
C61 O68 1.226 . S
O62 Cd58 2.273 . S
O62 Cd60 2.411 . S
O62 C65 1.320 . S
O63 Cd60 2.333 . S
O63 C65 1.214 . S
O64 Cd60 2.352 . S
O64 C67 1.258 . S
C65 O62 1.320 . S
C65 O63 1.214 . S
O66 Cd58 2.277 . S
O66 C61 1.209 . S
C67 O64 1.258 . S
C67 O69 1.282 . S
O68 Cd60 2.277 . S
O68 C61 1.226 . S
O69 Cd60 2.356 . S
O69 C67 1.282 . S
C70 O71 1.306 . S
C70 O73 1.160 . S
O71 C70 1.306 . S
O71 Cd72 2.228 . S
Cd72 O71 2.228 . S
Cd72 O76 2.273 . S
Cd72 O80 2.277 . S
O73 C70 1.160 . S
O73 Cd74 2.203 . S
Cd74 O73 2.203 . S
Cd74 O76 2.411 . S
Cd74 O77 2.333 . S
Cd74 O78 2.352 . S
Cd74 O82 2.277 . S
Cd74 O83 2.356 . S
C75 O80 1.209 . S
C75 O82 1.226 . S
O76 Cd72 2.273 . S
O76 Cd74 2.411 . S
O76 C79 1.320 . S
O77 Cd74 2.333 . S
O77 C79 1.214 . S
O78 Cd74 2.352 . S
O78 C81 1.258 . S
C79 O76 1.320 . S
C79 O77 1.214 . S
O80 Cd72 2.277 . S
O80 C75 1.209 . S
C81 O78 1.258 . S
C81 O83 1.282 . S
O82 Cd74 2.277 . S
O82 C75 1.226 . S
O83 Cd74 2.356 . S
O83 C81 1.282 . S
C84 O85 1.306 . S
C84 O87 1.160 . S
O85 C84 1.306 . S
O85 Cd86 2.228 . S
Cd86 O85 2.228 . S
Cd86 O90 2.273 . S
Cd86 O94 2.277 . S
O87 C84 1.160 . S
O87 Cd88 2.203 . S
Cd88 O87 2.203 . S
Cd88 O90 2.411 . S
Cd88 O91 2.333 . S
Cd88 O92 2.352 . S
Cd88 O96 2.277 . S
Cd88 O97 2.356 . S
C89 O94 1.209 . S
C89 O96 1.226 . S
O90 Cd86 2.273 . S
O90 Cd88 2.411 . S
O90 C93 1.320 . S
O91 Cd88 2.333 . S
O91 C93 1.214 . S
O92 Cd88 2.352 . S
O92 C95 1.258 . S
C93 O90 1.320 . S
C93 O91 1.214 . S
O94 Cd86 2.277 . S
O94 C89 1.209 . S
C95 O92 1.258 . S
C95 O97 1.282 . S
O96 Cd88 2.277 . S
O96 C89 1.226 . S
O97 Cd88 2.356 . S
O97 C95 1.282 . S
C98 O99 1.306 . S
C98 O101 1.160 . S
O99 C98 1.306 . S
O99 Cd100 2.228 . S
Cd100 O99 2.228 . S
Cd100 O104 2.273 . S
Cd100 O108 2.277 . S
O101 C98 1.160 . S
O101 Cd102 2.203 . S
Cd102 O101 2.203 . S
Cd102 O104 2.411 . S
Cd102 O105 2.333 . S
Cd102 O106 2.352 . S
Cd102 O110 2.277 . S
Cd102 O111 2.356 . S
C103 O108 1.209 . S
C103 O110 1.226 . S
O104 Cd100 2.273 . S
O104 Cd102 2.411 . S
O104 C107 1.320 . S
O105 Cd102 2.333 . S
O105 C107 1.214 . S
O106 Cd102 2.352 . S
O106 C109 1.258 . S
C107 O104 1.320 . S
C107 O105 1.214 . S
O108 Cd100 2.277 . S
O108 C103 1.209 . S
C109 O106 1.258 . S
C109 O111 1.282 . S
O110 Cd102 2.277 . S
O110 C103 1.226 . S
O111 Cd102 2.356 . S
O111 C109 1.282 . S
H112 C120 0.929 . S
H113 C122 0.930 . S
H114 C124 0.930 . S
H115 C127 0.929 . S
H116 C130 0.930 . S
H117 C132 0.960 . S
H118 C132 0.960 . S
H119 C132 0.960 . S
C120 H112 0.929 . S
C120 C121 1.377 . S
C120 C122 1.384 . S
C121 C120 1.377 . S
C121 C127 1.390 . S
C122 H113 0.930 . S
C122 C120 1.384 . S
C122 C123 1.372 . S
C123 C122 1.372 . S
C123 C124 1.400 . S
C123 C128 1.490 . S
C124 H114 0.930 . S
C124 C123 1.400 . S
C124 C127 1.386 . S
H125 C141 0.930 . S
H126 C142 0.931 . S
C127 H115 0.929 . S
C127 C121 1.390 . S
C127 C124 1.386 . S
C128 C123 1.490 . S
C128 C130 1.395 . S
C128 C131 1.403 . S
H129 C135 0.930 . S
C130 H116 0.930 . S
C130 C128 1.395 . S
C130 C133 1.403 . S
C131 C128 1.403 . S
C131 C132 1.524 . S
C131 C135 1.400 . S
C132 H117 0.960 . S
C132 H118 0.960 . S
C132 H119 0.960 . S
C132 C131 1.524 . S
C133 C130 1.403 . S
C133 C134 1.392 . S
C133 C137 1.495 . S
C134 C133 1.392 . S
C134 C135 1.385 . S
C134 C136 1.478 . S
C135 H129 0.930 . S
C135 C131 1.400 . S
C135 C134 1.385 . S
C136 C134 1.478 . S
C136 C138 1.381 . S
C136 C142 1.383 . S
C137 C133 1.495 . S
C137 H143 0.959 . S
C137 H144 0.961 . S
C137 H145 0.960 . S
C138 C136 1.381 . S
C138 C139 1.394 . S
C138 H146 0.930 . S
C139 C138 1.394 . S
C139 C140 1.383 . S
C139 H147 0.929 . S
C140 C139 1.383 . S
C140 C141 1.377 . S
C141 H125 0.930 . S
C141 C140 1.377 . S
C141 C142 1.379 . S
C142 H126 0.931 . S
C142 C136 1.383 . S
C142 C141 1.379 . S
H143 C137 0.959 . S
H144 C137 0.961 . S
H145 C137 0.960 . S
H146 C138 0.930 . S
H147 C139 0.929 . S
H148 C156 0.929 . S
H149 C158 0.930 . S
H150 C160 0.930 . S
H151 C163 0.929 . S
H152 C166 0.930 . S
H153 C168 0.960 . S
H154 C168 0.960 . S
H155 C168 0.960 . S
C156 H148 0.929 . S
C156 C157 1.377 . S
C156 C158 1.384 . S
C157 C156 1.377 . S
C157 C163 1.390 . S
C158 H149 0.930 . S
C158 C156 1.384 . S
C158 C159 1.372 . S
C159 C158 1.372 . S
C159 C160 1.400 . S
C159 C164 1.490 . S
C160 H150 0.930 . S
C160 C159 1.400 . S
C160 C163 1.386 . S
H161 C177 0.930 . S
H162 C178 0.931 . S
C163 H151 0.929 . S
C163 C157 1.390 . S
C163 C160 1.386 . S
C164 C159 1.490 . S
C164 C166 1.395 . S
C164 C167 1.403 . S
H165 C171 0.930 . S
C166 H152 0.930 . S
C166 C164 1.395 . S
C166 C169 1.403 . S
C167 C164 1.403 . S
C167 C168 1.524 . S
C167 C171 1.400 . S
C168 H153 0.960 . S
C168 H154 0.960 . S
C168 H155 0.960 . S
C168 C167 1.524 . S
C169 C166 1.403 . S
C169 C170 1.392 . S
C169 C173 1.495 . S
C170 C169 1.392 . S
C170 C171 1.385 . S
C170 C172 1.478 . S
C171 H165 0.930 . S
C171 C167 1.400 . S
C171 C170 1.385 . S
C172 C170 1.478 . S
C172 C174 1.381 . S
C172 C178 1.383 . S
C173 C169 1.495 . S
C173 H179 0.959 . S
C173 H180 0.961 . S
C173 H181 0.960 . S
C174 C172 1.381 . S
C174 C175 1.394 . S
C174 H182 0.930 . S
C175 C174 1.394 . S
C175 C176 1.383 . S
C175 H183 0.929 . S
C176 C175 1.383 . S
C176 C177 1.377 . S
C177 H161 0.930 . S
C177 C176 1.377 . S
C177 C178 1.379 . S
C178 H162 0.931 . S
C178 C172 1.383 . S
C178 C177 1.379 . S
H179 C173 0.959 . S
H180 C173 0.961 . S
H181 C173 0.960 . S
H182 C174 0.930 . S
H183 C175 0.929 . S
H184 C192 0.929 . S
H185 C194 0.930 . S
H186 C196 0.930 . S
H187 C199 0.929 . S
H188 C202 0.930 . S
H189 C204 0.960 . S
H190 C204 0.960 . S
H191 C204 0.960 . S
C192 H184 0.929 . S
C192 C193 1.377 . S
C192 C194 1.384 . S
C193 C192 1.377 . S
C193 C199 1.390 . S
C194 H185 0.930 . S
C194 C192 1.384 . S
C194 C195 1.372 . S
C195 C194 1.372 . S
C195 C196 1.400 . S
C195 C200 1.490 . S
C196 H186 0.930 . S
C196 C195 1.400 . S
C196 C199 1.386 . S
H197 C213 0.930 . S
H198 C214 0.931 . S
C199 H187 0.929 . S
C199 C193 1.390 . S
C199 C196 1.386 . S
C200 C195 1.490 . S
C200 C202 1.395 1_554 S
C200 C203 1.403 1_545 S
H201 C207 0.930 . S
C202 H188 0.930 . S
C202 C200 1.395 1_556 S
C202 C205 1.403 . S
C203 C200 1.403 1_565 S
C203 C204 1.524 . S
C203 C207 1.400 . S
C204 H189 0.960 . S
C204 H190 0.960 . S
C204 H191 0.960 . S
C204 C203 1.524 . S
C205 C202 1.403 . S
C205 C206 1.392 1_545 S
C205 C209 1.495 . S
C206 C205 1.392 1_565 S
C206 C207 1.385 1_556 S
C206 C208 1.478 . S
C207 H201 0.930 . S
C207 C203 1.400 . S
C207 C206 1.385 1_554 S
C208 C206 1.478 . S
C208 C210 1.381 . S
C208 C214 1.383 . S
C209 C205 1.495 . S
C209 H215 0.959 . S
C209 H216 0.961 . S
C209 H217 0.960 . S
C210 C208 1.381 . S
C210 C211 1.394 . S
C210 H218 0.930 . S
C211 C210 1.394 . S
C211 C212 1.383 . S
C211 H219 0.929 . S
C212 C211 1.383 . S
C212 C213 1.377 . S
C213 H197 0.930 . S
C213 C212 1.377 . S
C213 C214 1.379 . S
C214 H198 0.931 . S
C214 C208 1.383 . S
C214 C213 1.379 . S
H215 C209 0.959 . S
H216 C209 0.961 . S
H217 C209 0.960 . S
H218 C210 0.930 . S
H219 C211 0.929 . S
H220 C228 0.929 . S
H221 C230 0.930 1_455 S
H222 C232 0.930 . S
H223 C235 0.929 . S
H224 C238 0.930 . S
H225 C240 0.960 . S
H226 C240 0.960 . S
H227 C240 0.960 . S
C228 H220 0.929 . S
C228 C229 1.377 . S
C228 C230 1.384 . S
C229 C228 1.377 . S
C229 C235 1.390 . S
C230 H221 0.930 1_655 S
C230 C228 1.384 . S
C230 C231 1.372 . S
C231 C230 1.372 . S
C231 C232 1.400 . S
C231 C236 1.490 . S
C232 H222 0.930 . S
C232 C231 1.400 . S
C232 C235 1.386 . S
H233 C249 0.930 . S
H234 C250 0.931 . S
C235 H223 0.929 . S
C235 C229 1.390 . S
C235 C232 1.386 . S
C236 C231 1.490 . S
C236 C238 1.395 1_655 S
C236 C239 1.403 . S
H237 C243 0.930 . S
C238 H224 0.930 . S
C238 C236 1.395 1_455 S
C238 C241 1.403 . S
C239 C236 1.403 . S
C239 C240 1.524 . S
C239 C243 1.400 1_655 S
C240 H225 0.960 . S
C240 H226 0.960 . S
C240 H227 0.960 . S
C240 C239 1.524 . S
C241 C238 1.403 . S
C241 C242 1.392 . S
C241 C245 1.495 . S
C242 C241 1.392 . S
C242 C243 1.385 . S
C242 C244 1.478 . S
C243 H237 0.930 . S
C243 C239 1.400 1_455 S
C243 C242 1.385 . S
C244 C242 1.478 . S
C244 C246 1.381 . S
C244 C250 1.383 . S
C245 C241 1.495 . S
C245 H251 0.959 . S
C245 H252 0.961 . S
C245 H253 0.960 . S
C246 C244 1.381 . S
C246 C247 1.394 . S
C246 H254 0.930 . S
C247 C246 1.394 . S
C247 C248 1.383 . S
C247 H255 0.929 . S
C248 C247 1.383 . S
C248 C249 1.377 . S
C249 H233 0.930 . S
C249 C248 1.377 . S
C249 C250 1.379 . S
C250 H234 0.931 . S
C250 C244 1.383 . S
C250 C249 1.379 . S
H251 C245 0.959 . S
H252 C245 0.961 . S
H253 C245 0.960 . S
H254 C246 0.930 . S
H255 C247 0.929 . S
H256 C264 0.929 . S
H257 C266 0.930 . S
H258 C268 0.930 . S
H259 C271 0.929 . S
H260 C274 0.930 . S
H261 C276 0.960 . S
H262 C276 0.960 . S
H263 C276 0.960 . S
C264 H256 0.929 . S
C264 C265 1.377 . S
C264 C266 1.384 . S
C265 C264 1.377 . S
C265 C271 1.390 . S
C266 H257 0.930 . S
C266 C264 1.384 . S
C266 C267 1.372 . S
C267 C266 1.372 . S
C267 C268 1.400 . S
C267 C272 1.490 . S
C268 H258 0.930 . S
C268 C267 1.400 . S
C268 C271 1.386 . S
H269 C285 0.930 . S
H270 C286 0.931 . S
C271 H259 0.929 . S
C271 C265 1.390 . S
C271 C268 1.386 . S
C272 C267 1.490 . S
C272 C274 1.395 . S
C272 C275 1.403 1_565 S
H273 C279 0.930 . S
C274 H260 0.930 . S
C274 C272 1.395 . S
C274 C277 1.403 . S
C275 C272 1.403 1_545 S
C275 C276 1.524 . S
C275 C279 1.400 . S
C276 H261 0.960 . S
C276 H262 0.960 . S
C276 H263 0.960 . S
C276 C275 1.524 . S
C277 C274 1.403 . S
C277 C278 1.392 1_565 S
C277 C281 1.495 . S
C278 C277 1.392 1_545 S
C278 C279 1.385 . S
C278 C280 1.478 . S
C279 H273 0.930 . S
C279 C275 1.400 . S
C279 C278 1.385 . S
C280 C278 1.478 . S
C280 C282 1.381 . S
C280 C286 1.383 . S
C281 C277 1.495 . S
C281 H287 0.959 . S
C281 H288 0.961 . S
C281 H289 0.960 . S
C282 C280 1.381 . S
C282 C283 1.394 . S
C282 H290 0.940 . S
C283 C282 1.394 . S
C283 C284 1.383 . S
C283 H291 0.929 . S
C284 C283 1.383 . S
C284 C285 1.377 . S
C285 H269 0.930 . S
C285 C284 1.377 . S
C285 C286 1.379 . S
C286 H270 0.931 . S
C286 C280 1.383 . S
C286 C285 1.379 . S
H287 C281 0.959 . S
H288 C281 0.961 . S
H289 C281 0.960 . S
H290 C282 0.940 . S
H291 C283 0.929 . S
H292 C300 0.929 . S
H293 C302 0.930 . S
H294 C304 0.930 . S
H295 C307 0.929 . S
H296 C310 0.931 . S
H297 C312 0.960 . S
H298 C312 0.960 . S
H299 C312 0.960 . S
C300 H292 0.929 . S
C300 C301 1.377 . S
C300 C302 1.384 . S
C301 C300 1.377 . S
C301 C307 1.390 . S
C302 H293 0.930 . S
C302 C300 1.384 . S
C302 C303 1.372 . S
C303 C302 1.372 . S
C303 C304 1.400 . S
C303 C308 1.490 . S
C304 H294 0.930 . S
C304 C303 1.400 . S
C304 C307 1.386 . S
H305 C321 0.930 . S
H306 C322 0.931 . S
C307 H295 0.929 . S
C307 C301 1.390 . S
C307 C304 1.386 . S
C308 C303 1.490 . S
C308 C310 1.395 1_556 S
C308 C311 1.403 1_655 S
H309 C315 0.930 . S
C310 H296 0.931 . S
C310 C308 1.395 1_554 S
C310 C313 1.403 . S
C311 C308 1.403 1_455 S
C311 C312 1.524 . S
C311 C315 1.400 1_556 S
C312 H297 0.960 . S
C312 H298 0.960 . S
C312 H299 0.960 . S
C312 C311 1.524 . S
C313 C310 1.403 . S
C313 C314 1.392 1_655 S
C313 C317 1.495 . S
C314 C313 1.392 1_455 S
C314 C315 1.385 . S
C314 C316 1.478 . S
C315 H309 0.930 . S
C315 C311 1.400 1_554 S
C315 C314 1.385 . S
C316 C314 1.478 . S
C316 C318 1.381 . S
C316 C322 1.383 . S
C317 C313 1.495 . S
C317 H323 0.959 . S
C317 H324 0.961 . S
C317 H325 0.960 . S
C318 C316 1.381 . S
C318 C319 1.394 . S
C318 H326 0.930 . S
C319 C318 1.394 . S
C319 C320 1.383 . S
C319 H327 0.929 . S
C320 C319 1.383 . S
C320 C321 1.377 . S
C321 H305 0.930 . S
C321 C320 1.377 . S
C321 C322 1.379 . S
C322 H306 0.931 . S
C322 C316 1.383 . S
C322 C321 1.379 . S
H323 C317 0.959 . S
H324 C317 0.961 . S
H325 C317 0.960 . S
H326 C318 0.930 . S
H327 C319 0.929 . S
H328 C336 0.929 . S
H329 C338 0.930 . S
H330 C340 0.930 . S
H331 C343 0.929 . S
H332 C346 0.930 . S
H333 C348 0.960 . S
H334 C348 0.960 . S
H335 C348 0.960 . S
C336 H328 0.929 . S
C336 C337 1.377 . S
C336 C338 1.384 . S
C337 C336 1.377 . S
C337 C343 1.390 . S
C338 H329 0.930 . S
C338 C336 1.384 . S
C338 C339 1.372 . S
C339 C338 1.372 . S
C339 C340 1.400 . S
C339 C344 1.490 . S
C340 H330 0.930 . S
C340 C339 1.400 . S
C340 C343 1.386 . S
H341 C357 0.930 . S
H342 C358 0.931 . S
C343 H331 0.929 . S
C343 C337 1.390 . S
C343 C340 1.386 . S
C344 C339 1.490 . S
C344 C346 1.395 . S
C344 C347 1.403 . S
H345 C351 0.930 . S
C346 H332 0.930 . S
C346 C344 1.395 . S
C346 C349 1.403 . S
C347 C344 1.403 . S
C347 C348 1.524 . S
C347 C351 1.400 . S
C348 H333 0.960 . S
C348 H334 0.960 . S
C348 H335 0.960 . S
C348 C347 1.524 . S
C349 C346 1.403 . S
C349 C350 1.392 . S
C349 C353 1.495 . S
C350 C349 1.392 . S
C350 C351 1.385 . S
C350 C352 1.478 . S
C351 H345 0.930 . S
C351 C347 1.400 . S
C351 C350 1.385 . S
C352 C350 1.478 . S
C352 C354 1.381 . S
C352 C358 1.383 . S
C353 C349 1.495 . S
C353 H359 0.959 . S
C353 H360 0.961 . S
C353 H361 0.960 . S
C354 C352 1.381 . S
C354 C355 1.394 . S
C354 H362 0.930 . S
C355 C354 1.394 . S
C355 C356 1.383 . S
C355 H363 0.929 . S
C356 C355 1.383 . S
C356 C357 1.377 . S
C357 H341 0.930 . S
C357 C356 1.377 . S
C357 C358 1.379 . S
C358 H342 0.931 . S
C358 C352 1.383 . S
C358 C357 1.379 . S
H359 C353 0.959 . S
H360 C353 0.961 . S
H361 C353 0.960 . S
H362 C354 0.930 . S
H363 C355 0.929 . S
H364 C372 0.929 . S
H365 C374 0.930 . S
H366 C376 0.930 . S
H367 C379 0.929 . S
H368 C382 0.930 . S
H369 C384 0.960 . S
H370 C384 0.960 . S
H371 C384 0.960 . S
C372 H364 0.929 . S
C372 C373 1.377 . S
C372 C374 1.384 . S
C373 C372 1.377 . S
C373 C379 1.390 . S
C374 H365 0.930 . S
C374 C372 1.384 . S
C374 C375 1.372 . S
C375 C374 1.372 . S
C375 C376 1.400 . S
C375 C380 1.490 . S
C376 H366 0.930 . S
C376 C375 1.400 . S
C376 C379 1.386 . S
H377 C393 0.930 . S
H378 C394 0.931 . S
C379 H367 0.929 . S
C379 C373 1.390 . S
C379 C376 1.386 . S
C380 C375 1.490 . S
C380 C382 1.395 . S
C380 C383 1.403 . S
H381 C387 0.930 . S
C382 H368 0.930 . S
C382 C380 1.395 . S
C382 C385 1.403 . S
C383 C380 1.403 . S
C383 C384 1.524 . S
C383 C387 1.400 . S
C384 H369 0.960 . S
C384 H370 0.960 . S
C384 H371 0.960 . S
C384 C383 1.524 . S
C385 C382 1.403 . S
C385 C386 1.392 . S
C385 C389 1.495 . S
C386 C385 1.392 . S
C386 C387 1.385 . S
C386 C388 1.478 . S
C387 H381 0.930 . S
C387 C383 1.400 . S
C387 C386 1.385 . S
C388 C386 1.478 . S
C388 C390 1.381 . S
C388 C394 1.383 . S
C389 C385 1.495 . S
C389 H395 0.959 . S
C389 H396 0.961 . S
C389 H397 0.960 . S
C390 C388 1.381 . S
C390 C391 1.394 . S
C390 H398 0.930 . S
C391 C390 1.394 . S
C391 C392 1.383 . S
C391 H399 0.929 . S
C392 C391 1.383 . S
C392 C393 1.377 . S
C393 H377 0.930 . S
C393 C392 1.377 . S
C393 C394 1.379 . S
C394 H378 0.931 . S
C394 C388 1.383 . S
C394 C393 1.379 . S
H395 C389 0.959 . S
H396 C389 0.961 . S
H397 C389 0.960 . S
H398 C390 0.930 . S
H399 C391 0.929 . S
H400 C408 0.929 . S
H401 C410 0.930 . S
H402 C412 0.930 . S
H403 C415 0.929 . S
H404 C418 0.930 . S
H405 C420 0.960 . S
H406 C420 0.960 . S
H407 C420 0.960 . S
C408 H400 0.929 . S
C408 C409 1.377 . S
C408 C410 1.384 . S
C409 C408 1.377 . S
C409 C415 1.390 . S
C410 H401 0.930 . S
C410 C408 1.384 . S
C410 C411 1.372 . S
C411 C410 1.372 . S
C411 C412 1.400 . S
C411 C416 1.490 . S
C412 H402 0.930 . S
C412 C411 1.400 . S
C412 C415 1.386 . S
H413 C429 0.930 . S
H414 C430 0.931 . S
C415 H403 0.929 . S
C415 C409 1.390 . S
C415 C412 1.386 . S
C416 C411 1.490 . S
C416 C418 1.395 . S
C416 C419 1.403 . S
H417 C423 0.930 . S
C418 H404 0.930 . S
C418 C416 1.395 . S
C418 C421 1.403 . S
C419 C416 1.403 . S
C419 C420 1.524 . S
C419 C423 1.400 . S
C420 H405 0.960 . S
C420 H406 0.960 . S
C420 H407 0.960 . S
C420 C419 1.524 . S
C421 C418 1.403 . S
C421 C422 1.392 . S
C421 C425 1.495 . S
C422 C421 1.392 . S
C422 C423 1.385 . S
C422 C424 1.478 . S
C423 H417 0.930 . S
C423 C419 1.400 . S
C423 C422 1.385 . S
C424 C422 1.478 . S
C424 C426 1.381 . S
C424 C430 1.383 . S
C425 C421 1.495 . S
C425 H431 0.959 . S
C425 H432 0.961 . S
C425 H433 0.960 . S
C426 C424 1.381 . S
C426 C427 1.394 . S
C426 H434 0.930 . S
C427 C426 1.394 . S
C427 C428 1.383 . S
C427 H435 0.929 . S
C428 C427 1.383 . S
C428 C429 1.377 . S
C429 H413 0.930 . S
C429 C428 1.377 . S
C429 C430 1.379 . S
C430 H414 0.931 . S
C430 C424 1.383 . S
C430 C429 1.379 . S
H431 C425 0.959 . S
H432 C425 0.961 . S
H433 C425 0.960 . S
H434 C426 0.930 . S
H435 C427 0.929 . S
H436 C444 0.929 . S
H437 C446 0.930 . S
H438 C448 0.930 . S
H439 C451 0.929 . S
H440 C454 0.930 . S
H441 C456 0.960 . S
H442 C456 0.960 . S
H443 C456 0.960 . S
C444 H436 0.929 . S
C444 C445 1.377 . S
C444 C446 1.384 . S
C445 C444 1.377 . S
C445 C451 1.390 . S
C446 H437 0.930 . S
C446 C444 1.384 . S
C446 C447 1.372 . S
C447 C446 1.372 . S
C447 C448 1.400 . S
C447 C452 1.490 . S
C448 H438 0.930 . S
C448 C447 1.400 . S
C448 C451 1.386 . S
H449 C465 0.930 . S
H450 C466 0.931 . S
C451 H439 0.929 . S
C451 C445 1.390 . S
C451 C448 1.386 . S
C452 C447 1.490 . S
C452 C454 1.395 1_556 S
C452 C455 1.403 . S
H453 C459 0.930 . S
C454 H440 0.930 . S
C454 C452 1.395 1_554 S
C454 C457 1.403 . S
C455 C452 1.403 . S
C455 C456 1.524 . S
C455 C459 1.401 . S
C456 H441 0.960 . S
C456 H442 0.960 . S
C456 H443 0.960 . S
C456 C455 1.524 . S
C457 C454 1.403 . S
C457 C458 1.392 . S
C457 C461 1.495 . S
C458 C457 1.392 . S
C458 C459 1.383 1_554 S
C458 C460 1.478 . S
C459 H453 0.930 . S
C459 C455 1.401 . S
C459 C458 1.383 1_556 S
C460 C458 1.478 . S
C460 C462 1.381 . S
C460 C466 1.383 . S
C461 C457 1.495 . S
C461 H467 0.959 . S
C461 H468 0.961 . S
C461 H469 0.960 . S
C462 C460 1.381 . S
C462 C463 1.394 . S
C462 H470 0.930 . S
C463 C462 1.394 . S
C463 C464 1.383 . S
C463 H471 0.929 . S
C464 C463 1.383 . S
C464 C465 1.377 . S
C465 H449 0.930 . S
C465 C464 1.377 . S
C465 C466 1.379 . S
C466 H450 0.931 . S
C466 C460 1.383 . S
C466 C465 1.379 . S
H467 C461 0.959 . S
H468 C461 0.961 . S
H469 C461 0.960 . S
H470 C462 0.930 . S
H471 C463 0.929 . S
H472 C480 0.929 . S
H473 C482 0.930 . S
H474 C484 0.930 . S
H475 C487 0.929 . S
H476 C490 0.930 . S
H477 C492 0.960 . S
H478 C492 0.960 . S
H479 C492 0.960 . S
C480 H472 0.929 . S
C480 C481 1.377 . S
C480 C482 1.384 . S
C481 C480 1.377 . S
C481 C487 1.390 . S
C482 H473 0.930 . S
C482 C480 1.384 . S
C482 C483 1.372 . S
C483 C482 1.372 . S
C483 C484 1.400 . S
C483 C488 1.490 . S
C484 H474 0.930 . S
C484 C483 1.400 . S
C484 C487 1.386 . S
H485 C501 0.930 . S
H486 C502 0.931 1_565 S
C487 H475 0.929 . S
C487 C481 1.390 . S
C487 C484 1.386 . S
C488 C483 1.490 . S
C488 C490 1.395 . S
C488 C491 1.403 . S
H489 C495 0.930 . S
C490 H476 0.930 . S
C490 C488 1.395 . S
C490 C493 1.403 1_565 S
C491 C488 1.403 . S
C491 C492 1.524 . S
C491 C495 1.400 . S
C492 H477 0.960 . S
C492 H478 0.960 . S
C492 H479 0.960 . S
C492 C491 1.524 . S
C493 C490 1.403 1_545 S
C493 C494 1.392 . S
C493 C497 1.495 . S
C494 C493 1.392 . S
C494 C495 1.385 1_545 S
C494 C496 1.478 . S
C495 H489 0.930 . S
C495 C491 1.400 . S
C495 C494 1.385 1_565 S
C496 C494 1.478 . S
C496 C498 1.381 . S
C496 C502 1.383 . S
C497 C493 1.495 . S
C497 H503 0.959 . S
C497 H504 0.961 . S
C497 H505 0.960 . S
C498 C496 1.381 . S
C498 C499 1.394 . S
C498 H506 0.930 . S
C499 C498 1.394 . S
C499 C500 1.383 . S
C499 H507 0.929 . S
C500 C499 1.383 . S
C500 C501 1.377 . S
C501 H485 0.930 . S
C501 C500 1.377 . S
C501 C502 1.379 . S
C502 H486 0.931 1_545 S
C502 C496 1.383 . S
C502 C501 1.379 . S
H503 C497 0.959 . S
H504 C497 0.961 . S
H505 C497 0.960 . S
H506 C498 0.930 . S
H507 C499 0.929 . S
H508 C516 0.929 . S
H509 C518 0.930 1_455 S
H510 C520 0.930 . S
H511 C523 0.929 . S
H512 C526 0.930 . S
H513 C528 0.960 . S
H514 C528 0.960 . S
H515 C528 0.960 . S
C516 H508 0.929 . S
C516 C517 1.377 . S
C516 C518 1.384 . S
C517 C516 1.377 . S
C517 C523 1.390 . S
C518 H509 0.930 1_655 S
C518 C516 1.384 . S
C518 C519 1.372 . S
C519 C518 1.372 . S
C519 C520 1.400 . S
C519 C524 1.490 . S
C520 H510 0.930 . S
C520 C519 1.400 . S
C520 C523 1.386 . S
H521 C537 0.930 . S
H522 C538 0.931 . S
C523 H511 0.929 . S
C523 C517 1.390 . S
C523 C520 1.386 . S
C524 C519 1.490 . S
C524 C526 1.395 1_655 S
C524 C527 1.403 . S
H525 C531 0.930 . S
C526 H512 0.930 . S
C526 C524 1.395 1_455 S
C526 C529 1.403 1_565 S
C527 C524 1.403 . S
C527 C528 1.524 . S
C527 C531 1.400 1_655 S
C528 H513 0.960 . S
C528 H514 0.960 . S
C528 H515 0.960 . S
C528 C527 1.524 . S
C529 C526 1.403 1_545 S
C529 C530 1.392 . S
C529 C533 1.495 . S
C530 C529 1.392 . S
C530 C531 1.385 1_545 S
C530 C532 1.478 . S
C531 H525 0.930 . S
C531 C527 1.400 1_455 S
C531 C530 1.385 1_565 S
C532 C530 1.478 . S
C532 C534 1.381 . S
C532 C538 1.383 . S
C533 C529 1.495 . S
C533 H539 0.959 . S
C533 H540 0.961 . S
C533 H541 0.960 . S
C534 C532 1.381 . S
C534 C535 1.394 . S
C534 H542 0.930 . S
C535 C534 1.394 . S
C535 C536 1.383 . S
C535 H543 0.929 . S
C536 C535 1.383 . S
C536 C537 1.377 . S
C537 H521 0.930 . S
C537 C536 1.377 . S
C537 C538 1.379 . S
C538 H522 0.931 . S
C538 C532 1.383 . S
C538 C537 1.379 . S
H539 C533 0.959 . S
H540 C533 0.961 . S
H541 C533 0.960 . S
H542 C534 0.930 . S
H543 C535 0.929 . S
H544 C552 0.929 . S
H545 C554 0.930 . S
H546 C556 0.930 . S
H547 C559 0.929 . S
H548 C562 0.930 . S
H549 C564 0.960 . S
H550 C564 0.960 . S
H551 C564 0.960 . S
C552 H544 0.929 . S
C552 C553 1.377 . S
C552 C554 1.384 . S
C553 C552 1.377 . S
C553 C559 1.390 . S
C554 H545 0.930 . S
C554 C552 1.384 . S
C554 C555 1.372 . S
C555 C554 1.372 . S
C555 C556 1.400 . S
C555 C560 1.490 . S
C556 H546 0.930 . S
C556 C555 1.400 . S
C556 C559 1.386 . S
H557 C573 0.930 . S
H558 C574 0.931 . S
C559 H547 0.929 . S
C559 C553 1.390 . S
C559 C556 1.386 . S
C560 C555 1.490 . S
C560 C562 1.395 1_655 S
C560 C563 1.403 . S
H561 C567 0.930 1_655 S
C562 H548 0.930 . S
C562 C560 1.395 1_455 S
C562 C565 1.403 . S
C563 C560 1.403 . S
C563 C564 1.524 . S
C563 C567 1.400 1_655 S
C564 H549 0.960 . S
C564 H550 0.960 . S
C564 H551 0.960 . S
C564 C563 1.524 . S
C565 C562 1.403 . S
C565 C566 1.392 . S
C565 C569 1.495 . S
C566 C565 1.392 . S
C566 C567 1.385 . S
C566 C568 1.478 . S
C567 H561 0.930 1_455 S
C567 C563 1.400 1_455 S
C567 C566 1.385 . S
C568 C566 1.478 . S
C568 C570 1.381 . S
C568 C574 1.383 . S
C569 C565 1.495 . S
C569 H575 0.959 . S
C569 H576 0.961 . S
C569 H577 0.960 . S
C570 C568 1.381 . S
C570 C571 1.394 . S
C570 H578 0.930 . S
C571 C570 1.394 . S
C571 C572 1.383 . S
C571 H579 0.929 . S
C572 C571 1.383 . S
C572 C573 1.377 . S
C573 H557 0.930 . S
C573 C572 1.377 . S
C573 C574 1.379 . S
C574 H558 0.931 . S
C574 C568 1.383 . S
C574 C573 1.379 . S
H575 C569 0.959 . S
H576 C569 0.961 . S
H577 C569 0.960 . S
H578 C570 0.930 . S
H579 C571 0.929 . S
H580 C588 0.929 . S
H581 C590 0.930 . S
H582 C592 0.930 . S
H583 C595 0.929 . S
H584 C598 0.930 . S
H585 C600 0.960 . S
H586 C600 0.960 . S
H587 C600 0.960 . S
C588 H580 0.929 . S
C588 C589 1.377 . S
C588 C590 1.384 . S
C589 C588 1.377 . S
C589 C595 1.390 . S
C590 H581 0.930 . S
C590 C588 1.384 . S
C590 C591 1.372 . S
C591 C590 1.372 . S
C591 C592 1.400 . S
C591 C596 1.490 . S
C592 H582 0.930 . S
C592 C591 1.400 . S
C592 C595 1.386 . S
H593 C609 0.930 . S
H594 C610 0.931 . S
C595 H583 0.929 . S
C595 C589 1.390 . S
C595 C592 1.386 . S
C596 C591 1.490 . S
C596 C598 1.395 . S
C596 C599 1.403 . S
H597 C603 0.930 . S
C598 H584 0.930 . S
C598 C596 1.395 . S
C598 C601 1.403 . S
C599 C596 1.403 . S
C599 C600 1.524 . S
C599 C603 1.400 . S
C600 H585 0.960 . S
C600 H586 0.960 . S
C600 H587 0.960 . S
C600 C599 1.524 . S
C601 C598 1.403 . S
C601 C602 1.392 . S
C601 C605 1.495 . S
C602 C601 1.392 . S
C602 C603 1.385 . S
C602 C604 1.478 . S
C603 H597 0.930 . S
C603 C599 1.400 . S
C603 C602 1.385 . S
C604 C602 1.478 . S
C604 C606 1.381 . S
C604 C610 1.383 . S
C605 C601 1.495 . S
C605 H611 0.959 . S
C605 H612 0.961 . S
C605 H613 0.960 . S
C606 C604 1.381 . S
C606 C607 1.394 . S
C606 H614 0.930 . S
C607 C606 1.394 . S
C607 C608 1.383 . S
C607 H615 0.929 . S
C608 C607 1.383 . S
C608 C609 1.377 . S
C609 H593 0.930 . S
C609 C608 1.377 . S
C609 C610 1.379 . S
C610 H594 0.931 . S
C610 C604 1.383 . S
C610 C609 1.379 . S
H611 C605 0.959 . S
H612 C605 0.961 . S
H613 C605 0.960 . S
H614 C606 0.930 . S
H615 C607 0.929 . S
H616 C624 0.929 . S
H617 C626 0.930 . S
H618 C628 0.930 . S
H619 C631 0.929 . S
H620 C634 0.930 . S
H621 C636 0.960 . S
H622 C636 0.960 . S
H623 C636 0.960 . S
C624 H616 0.929 . S
C624 C625 1.377 . S
C624 C626 1.384 . S
C625 C624 1.377 . S
C625 C631 1.390 . S
C626 H617 0.930 . S
C626 C624 1.384 . S
C626 C627 1.372 . S
C627 C626 1.372 . S
C627 C628 1.400 . S
C627 C632 1.490 . S
C628 H618 0.930 . S
C628 C627 1.400 . S
C628 C631 1.386 . S
H629 C645 0.930 . S
H630 C646 0.931 . S
C631 H619 0.929 . S
C631 C625 1.390 . S
C631 C628 1.386 . S
C632 C627 1.490 . S
C632 C634 1.395 . S
C632 C635 1.403 1_554 S
H633 C639 0.930 . S
C634 H620 0.930 . S
C634 C632 1.395 . S
C634 C637 1.403 . S
C635 C632 1.403 1_556 S
C635 C636 1.524 . S
C635 C639 1.400 . S
C636 H621 0.960 . S
C636 H622 0.960 . S
C636 H623 0.960 . S
C636 C635 1.524 . S
C637 C634 1.403 . S
C637 C638 1.392 1_554 S
C637 C641 1.495 . S
C638 C637 1.392 1_556 S
C638 C639 1.385 . S
C638 C640 1.478 . S
C639 H633 0.930 . S
C639 C635 1.400 . S
C639 C638 1.385 . S
C640 C638 1.478 . S
C640 C642 1.381 . S
C640 C646 1.383 . S
C641 C637 1.495 . S
C641 H647 0.959 . S
C641 H648 0.961 . S
C641 H649 0.960 . S
C642 C640 1.381 . S
C642 C643 1.394 . S
C642 H650 0.930 . S
C643 C642 1.394 . S
C643 C644 1.383 . S
C643 H651 0.929 . S
C644 C643 1.383 . S
C644 C645 1.377 . S
C645 H629 0.930 . S
C645 C644 1.377 . S
C645 C646 1.379 . S
C646 H630 0.931 . S
C646 C640 1.383 . S
C646 C645 1.379 . S
H647 C641 0.959 . S
H648 C641 0.961 . S
H649 C641 0.960 . S
H650 C642 0.930 . S
H651 C643 0.929 . S
H652 C660 0.929 . S
H653 C662 0.930 . S
H654 C664 0.930 . S
H655 C667 0.929 . S
H656 C670 0.930 . S
H657 C672 0.960 . S
H658 C672 0.960 . S
H659 C672 0.960 . S
C660 H652 0.929 . S
C660 C661 1.377 . S
C660 C662 1.384 . S
C661 C660 1.377 . S
C661 C667 1.390 . S
C662 H653 0.930 . S
C662 C660 1.384 . S
C662 C663 1.372 . S
C663 C662 1.372 . S
C663 C664 1.400 . S
C663 C668 1.490 . S
C664 H654 0.930 . S
C664 C663 1.400 . S
C664 C667 1.386 . S
H665 C681 0.930 . S
H666 C682 0.931 . S
C667 H655 0.929 . S
C667 C661 1.390 . S
C667 C664 1.386 . S
C668 C663 1.490 . S
C668 C670 1.395 . S
C668 C671 1.403 . S
H669 C675 0.930 . S
C670 H656 0.930 . S
C670 C668 1.395 . S
C670 C673 1.403 . S
C671 C668 1.403 . S
C671 C672 1.524 . S
C671 C675 1.400 . S
C672 H657 0.960 . S
C672 H658 0.960 . S
C672 H659 0.960 . S
C672 C671 1.524 . S
C673 C670 1.403 . S
C673 C674 1.392 . S
C673 C677 1.495 . S
C674 C673 1.392 . S
C674 C675 1.385 . S
C674 C676 1.478 . S
C675 H669 0.930 . S
C675 C671 1.400 . S
C675 C674 1.385 . S
C676 C674 1.478 . S
C676 C678 1.381 . S
C676 C682 1.383 . S
C677 C673 1.495 . S
C677 H683 0.959 . S
C677 H684 0.961 . S
C677 H685 0.960 . S
C678 C676 1.381 . S
C678 C679 1.394 . S
C678 H686 0.930 . S
C679 C678 1.394 . S
C679 C680 1.383 . S
C679 H687 0.929 . S
C680 C679 1.383 . S
C680 C681 1.377 . S
C681 H665 0.930 . S
C681 C680 1.377 . S
C681 C682 1.379 . S
C682 H666 0.931 . S
C682 C676 1.383 . S
C682 C681 1.379 . S
H683 C677 0.959 . S
H684 C677 0.961 . S
H685 C677 0.960 . S
H686 C678 0.930 . S
H687 C679 0.929 . S
C121 C75 1.555 . S
C140 C5 1.546 . S
C157 C109 1.531 . S
C176 C14 1.530 . S
C193 C37 1.532 . S
C212 C93 1.528 . S
C229 C53 1.536 . S
C248 C56 1.540 . S
C265 C84 1.535 . S
C284 C11 1.539 . S
C301 C23 1.532 . S
C320 C65 1.528 . S
C337 C81 1.533 . S
C356 C28 1.535 . S
C373 C47 1.557 . S
C392 C103 1.545 . S
C409 C67 1.533 . S
C428 C70 1.538 . S
C445 C19 1.555 . S
C464 C33 1.547 . S
C481 C42 1.532 . S
C500 C39 1.518 . S
C517 C51 1.532 . S
C536 C9 1.530 . S
C553 C25 1.534 . S
C572 C0 1.540 . S
C589 C98 1.534 . S
C608 C95 1.522 . S
C625 C61 1.557 . S
C644 C89 1.549 . S
C661 C79 1.532 . S
C680 C107 1.528 . S
