# Generated by pormake.
# Topology uoy, (4)-cn, num edge types: 1
# Building blocks:
#     Node 0, Type 0, BuildingBlock: CEKHIL_clean_sbu_0, # of connection points: 4
#     Node 1, Type 0, BuildingBlock: CEKHIL_clean_sbu_0, # of connection points: 4
#     Node 2, Type 0, BuildingBlock: CEKHIL_clean_sbu_0, # of connection points: 4
#     Node 3, Type 0, BuildingBlock: CEKHIL_clean_sbu_0, # of connection points: 4
#     Node 4, Type 0, BuildingBlock: CEKHIL_clean_sbu_0, # of connection points: 4
#     Node 5, Type 0, BuildingBlock: CEKHIL_clean_sbu_0, # of connection points: 4
#     Node 6, Type 0, BuildingBlock: CEKHIL_clean_sbu_0, # of connection points: 4
#     Node 7, Type 0, BuildingBlock: CEKHIL_clean_sbu_0, # of connection points: 4
#     Node 8, Type 0, BuildingBlock: CEKHIL_clean_sbu_0, # of connection points: 4
#     Node 9, Type 0, BuildingBlock: CEKHIL_clean_sbu_0, # of connection points: 4
#     Node 10, Type 0, BuildingBlock: CEKHIL_clean_sbu_0, # of connection points: 4
#     Node 11, Type 0, BuildingBlock: CEKHIL_clean_sbu_0, # of connection points: 4
#     Node 12, Type 0, BuildingBlock: CEKHIL_clean_sbu_0, # of connection points: 4
#     Node 13, Type 0, BuildingBlock: CEKHIL_clean_sbu_0, # of connection points: 4
#     Node 14, Type 0, BuildingBlock: CEKHIL_clean_sbu_0, # of connection points: 4
#     Node 15, Type 0, BuildingBlock: CEKHIL_clean_sbu_0, # of connection points: 4
#     Edge 16, Type (0, 0), BuildingBlock: CIFDUS_clean_linker_0, # of connection points: 2
#     Edge 17, Type (0, 0), BuildingBlock: CIFDUS_clean_linker_0, # of connection points: 2
#     Edge 18, Type (0, 0), BuildingBlock: CIFDUS_clean_linker_0, # of connection points: 2
#     Edge 19, Type (0, 0), BuildingBlock: CIFDUS_clean_linker_0, # of connection points: 2
#     Edge 20, Type (0, 0), BuildingBlock: CIFDUS_clean_linker_0, # of connection points: 2
#     Edge 21, Type (0, 0), BuildingBlock: CIFDUS_clean_linker_0, # of connection points: 2
#     Edge 22, Type (0, 0), BuildingBlock: CIFDUS_clean_linker_0, # of connection points: 2
#     Edge 23, Type (0, 0), BuildingBlock: CIFDUS_clean_linker_0, # of connection points: 2
#     Edge 24, Type (0, 0), BuildingBlock: CIFDUS_clean_linker_0, # of connection points: 2
#     Edge 25, Type (0, 0), BuildingBlock: CIFDUS_clean_linker_0, # of connection points: 2
#     Edge 26, Type (0, 0), BuildingBlock: CIFDUS_clean_linker_0, # of connection points: 2
#     Edge 27, Type (0, 0), BuildingBlock: CIFDUS_clean_linker_0, # of connection points: 2
#     Edge 28, Type (0, 0), BuildingBlock: CIFDUS_clean_linker_0, # of connection points: 2
#     Edge 29, Type (0, 0), BuildingBlock: CIFDUS_clean_linker_0, # of connection points: 2
#     Edge 30, Type (0, 0), BuildingBlock: CIFDUS_clean_linker_0, # of connection points: 2
#     Edge 31, Type (0, 0), BuildingBlock: CIFDUS_clean_linker_0, # of connection points: 2
#     Edge 32, Type (0, 0), BuildingBlock: CIFDUS_clean_linker_0, # of connection points: 2
#     Edge 33, Type (0, 0), BuildingBlock: CIFDUS_clean_linker_0, # of connection points: 2
#     Edge 34, Type (0, 0), BuildingBlock: CIFDUS_clean_linker_0, # of connection points: 2
#     Edge 35, Type (0, 0), BuildingBlock: CIFDUS_clean_linker_0, # of connection points: 2
#     Edge 36, Type (0, 0), BuildingBlock: CIFDUS_clean_linker_0, # of connection points: 2
#     Edge 37, Type (0, 0), BuildingBlock: CIFDUS_clean_linker_0, # of connection points: 2
#     Edge 38, Type (0, 0), BuildingBlock: CIFDUS_clean_linker_0, # of connection points: 2
#     Edge 39, Type (0, 0), BuildingBlock: CIFDUS_clean_linker_0, # of connection points: 2
#     Edge 40, Type (0, 0), BuildingBlock: CIFDUS_clean_linker_0, # of connection points: 2
#     Edge 41, Type (0, 0), BuildingBlock: CIFDUS_clean_linker_0, # of connection points: 2
#     Edge 42, Type (0, 0), BuildingBlock: CIFDUS_clean_linker_0, # of connection points: 2
#     Edge 43, Type (0, 0), BuildingBlock: CIFDUS_clean_linker_0, # of connection points: 2
#     Edge 44, Type (0, 0), BuildingBlock: CIFDUS_clean_linker_0, # of connection points: 2
#     Edge 45, Type (0, 0), BuildingBlock: CIFDUS_clean_linker_0, # of connection points: 2
#     Edge 46, Type (0, 0), BuildingBlock: CIFDUS_clean_linker_0, # of connection points: 2
#     Edge 47, Type (0, 0), BuildingBlock: CIFDUS_clean_linker_0, # of connection points: 2
# Relax obj value: 0.040
# Max RMSD: 0.061
# Mean RMSD: 0.061
data_MOF--net-uoy--node1-CEKHIL_clean_sbu_0--edge1-CIFDUS_clean_linker_0
_symmetry_space_group_name_H-M    P1
_symmetry_Int_Tables_number       1
_symmetry_cell_setting            triclinic
loop_
_symmetry_equiv_pos_as_xyz
'x, y, z'
_cell_length_a     24.039139
_cell_length_b     24.022647
_cell_length_c     92.168546
_cell_angle_alpha  89.989316
_cell_angle_beta   89.967621
_cell_angle_gamma 90.057685
loop_
_atom_site_label
_atom_site_type_symbol
_atom_site_fract_x
_atom_site_fract_y
_atom_site_fract_z
_atom_type_partial_charge
Co0 Co 0.23722 0.11894 0.19311 0.0
O1 O 0.15681 0.12358 0.19396 0.0
O2 O 0.2029 0.05354 0.18426 0.0
C3 C 0.25222 0.14282 0.21644 0.0
O4 O 0.32048 0.09882 0.19096 0.0
Co5 Co 0.30854 0.2251 0.19841 0.0
O6 O 0.37176 0.17223 0.19824 0.0
C7 C 0.2464 0.213 0.17107 0.0
C8 C 0.15506 0.07531 0.18772 0.0
C9 C 0.36785 0.12187 0.19397 0.0
O10 O 0.23712 0.16121 0.17398 0.0
O11 O 0.26891 0.24656 0.18012 0.0
O12 O 0.23965 0.09181 0.21316 0.0
O13 O 0.25014 0.17813 0.20594 0.0
Co14 Co 0.89757 0.74381 0.44145 0.0
O15 O 0.88069 0.66513 0.44225 0.0
O16 O 0.96116 0.70028 0.43512 0.0
C17 C 0.86334 0.76634 0.46352 0.0
O18 O 0.93141 0.82204 0.4398 0.0
Co19 Co 0.80337 0.83242 0.44196 0.0
O20 O 0.86529 0.88686 0.44343 0.0
C21 C 0.81943 0.76273 0.41609 0.0
C22 C 0.93096 0.65635 0.43764 0.0
C23 C 0.91594 0.87319 0.44141 0.0
O24 O 0.86726 0.74728 0.42096 0.0
O25 O 0.78517 0.79177 0.42355 0.0
O26 O 0.91267 0.74468 0.46235 0.0
O27 O 0.83482 0.76832 0.45167 0.0
Co28 Co 0.25393 0.399 0.69239 0.0
O29 O 0.33425 0.39285 0.6931 0.0
O30 O 0.28902 0.46802 0.68607 0.0
C31 C 0.2365 0.3625 0.71452 0.0
O32 O 0.17111 0.42093 0.6909 0.0
Co33 Co 0.1819 0.29087 0.69308 0.0
O34 O 0.11904 0.34395 0.69445 0.0
C35 C 0.24478 0.3194 0.66678 0.0
C36 C 0.33656 0.44394 0.68861 0.0
C37 C 0.1235 0.39633 0.6925 0.0
O38 O 0.25389 0.36866 0.67183 0.0
O39 O 0.22233 0.28053 0.67427 0.0
O40 O 0.25141 0.41426 0.71327 0.0
O41 O 0.23886 0.33365 0.70274 0.0
Co42 Co 0.62479 0.76999 0.94448 0.0
O43 O 0.63324 0.85024 0.94529 0.0
O44 O 0.55694 0.80516 0.93862 0.0
C45 C 0.66236 0.74926 0.96627 0.0
O46 O 0.59629 0.69096 0.94294 0.0
Co47 Co 0.72225 0.68581 0.94441 0.0
O48 O 0.66354 0.62795 0.94657 0.0
C49 C 0.70049 0.75393 0.91845 0.0
C50 C 0.58144 0.85223 0.94116 0.0
C51 C 0.61258 0.64058 0.94471 0.0
O52 O 0.65323 0.76894 0.92378 0.0
O53 O 0.73623 0.72556 0.9256 0.0
O54 O 0.61156 0.76742 0.96539 0.0
O55 O 0.69033 0.74964 0.95429 0.0
Co56 Co 0.23459 0.38789 0.06551 0.0
O57 O 0.1543 0.3807 0.06509 0.0
O58 O 0.20068 0.45163 0.07453 0.0
C59 C 0.24966 0.3641 0.04219 0.0
O60 O 0.31447 0.41462 0.06738 0.0
Co61 Co 0.31779 0.29209 0.06016 0.0
O62 O 0.37615 0.35077 0.05998 0.0
C63 C 0.25364 0.2958 0.0875 0.0
C64 C 0.15309 0.4295 0.07123 0.0
C65 C 0.3644 0.39979 0.06426 0.0
O66 O 0.23806 0.34605 0.08464 0.0
O67 O 0.28098 0.26586 0.07849 0.0
O68 O 0.23403 0.41429 0.04545 0.0
O69 O 0.25175 0.32903 0.05279 0.0
Co70 Co 0.60033 0.74082 0.31319 0.0
O71 O 0.60481 0.6603 0.31266 0.0
O72 O 0.53283 0.70727 0.32104 0.0
C73 C 0.63032 0.7556 0.29031 0.0
O74 O 0.58035 0.82413 0.31493 0.0
Co75 Co 0.70836 0.81116 0.30987 0.0
O76 O 0.65614 0.87498 0.3093 0.0
C77 C 0.68684 0.7519 0.33723 0.0
C78 C 0.5553 0.65913 0.31823 0.0
C79 C 0.60468 0.87142 0.31258 0.0
O80 O 0.63676 0.74138 0.33302 0.0
O81 O 0.72349 0.7742 0.32898 0.0
O82 O 0.57865 0.74285 0.2927 0.0
O83 O 0.66281 0.75345 0.30141 0.0
Co84 Co 0.27981 0.1095 0.56303 0.0
O85 O 0.35818 0.1269 0.56242 0.0
O86 O 0.32299 0.04842 0.57098 0.0
C87 C 0.26014 0.1356 0.54009 0.0
O88 O 0.20176 0.07586 0.56482 0.0
Co89 Co 0.19184 0.20302 0.55994 0.0
O90 O 0.1377 0.14062 0.55921 0.0
C91 C 0.25484 0.1929 0.58712 0.0
C92 C 0.36686 0.07814 0.56803 0.0
C93 C 0.15094 0.09079 0.56246 0.0
O94 O 0.27359 0.14552 0.58278 0.0
O95 O 0.22582 0.22504 0.57903 0.0
O96 O 0.28169 0.0871 0.54272 0.0
O97 O 0.2565 0.16869 0.55112 0.0
Co98 Co 0.90811 0.77503 0.81392 0.0
O99 O 0.90267 0.85544 0.81351 0.0
O100 O 0.97539 0.80913 0.82168 0.0
C101 C 0.87788 0.76007 0.79104 0.0
O102 O 0.92895 0.69189 0.81546 0.0
Co103 Co 0.80033 0.704 0.81095 0.0
O104 O 0.85322 0.64081 0.80991 0.0
C105 C 0.82293 0.76235 0.83834 0.0
C106 C 0.95236 0.85705 0.81894 0.0
C107 C 0.90477 0.64457 0.81304 0.0
O108 O 0.87251 0.77356 0.83385 0.0
O109 O 0.78589 0.7398 0.83027 0.0
O110 O 0.92924 0.77412 0.79342 0.0
O111 O 0.84562 0.7615 0.80224 0.0
Co112 Co 0.73204 0.60194 0.69602 0.0
O113 O 0.6517 0.60772 0.69611 0.0
O114 O 0.69815 0.53473 0.68812 0.0
C115 C 0.74575 0.63208 0.71897 0.0
O116 O 0.81515 0.58095 0.6948 0.0
Co117 Co 0.80293 0.70986 0.69935 0.0
O118 O 0.86578 0.65669 0.70067 0.0
C119 C 0.74728 0.68682 0.6716 0.0
C120 C 0.65019 0.55797 0.69068 0.0
C121 C 0.86225 0.60515 0.69746 0.0
O122 O 0.73508 0.63744 0.67609 0.0
O123 O 0.76929 0.72391 0.67976 0.0
O124 O 0.73158 0.58077 0.71653 0.0
O125 O 0.74506 0.66437 0.70777 0.0
Co126 Co 0.40999 0.24002 0.94498 0.0
O127 O 0.40349 0.15997 0.94644 0.0
O128 O 0.47517 0.20538 0.937 0.0
C129 C 0.38335 0.26083 0.96781 0.0
O130 O 0.43564 0.31944 0.94219 0.0
Co131 Co 0.31172 0.32176 0.94792 0.0
O132 O 0.37021 0.38046 0.94896 0.0
C133 C 0.32367 0.25584 0.92112 0.0
C134 C 0.45283 0.15821 0.94063 0.0
C135 C 0.41981 0.36921 0.94506 0.0
O136 O 0.37193 0.2393 0.92541 0.0
O137 O 0.29113 0.28505 0.92906 0.0
O138 O 0.43385 0.24457 0.96512 0.0
O139 O 0.34926 0.259 0.95695 0.0
Co140 Co 0.7594 0.91581 0.19352 0.0
O141 O 0.8398 0.91152 0.19492 0.0
O142 O 0.79423 0.98166 0.18509 0.0
C143 C 0.74033 0.89075 0.21664 0.0
O144 O 0.67647 0.93566 0.19081 0.0
Co145 Co 0.68858 0.80859 0.19747 0.0
O146 O 0.62497 0.8612 0.19724 0.0
C147 C 0.7518 0.8244 0.1705 0.0
C148 C 0.84186 0.95985 0.18868 0.0
C149 C 0.62899 0.91202 0.19335 0.0
O150 O 0.76185 0.87523 0.17422 0.0
O151 O 0.72795 0.78941 0.17894 0.0
O152 O 0.75398 0.94176 0.21359 0.0
O153 O 0.74475 0.85591 0.20604 0.0
Co154 Co 0.12382 0.27856 0.44227 0.0
O155 O 0.14073 0.35713 0.44321 0.0
O156 O 0.06478 0.32185 0.43332 0.0
C157 C 0.14427 0.25928 0.46566 0.0
O158 O 0.09053 0.20023 0.43996 0.0
Co159 Co 0.21547 0.18967 0.44748 0.0
O160 O 0.15263 0.13614 0.44734 0.0
C161 C 0.21575 0.25501 0.42042 0.0
C162 C 0.0933 0.36582 0.4369 0.0
C163 C 0.10411 0.14947 0.44299 0.0
O164 O 0.16611 0.27252 0.42322 0.0
O165 O 0.24435 0.22633 0.42944 0.0
O166 O 0.09633 0.28043 0.46226 0.0
O167 O 0.17956 0.2554 0.45515 0.0
Co168 Co 0.7457 0.88498 0.56558 0.0
O169 O 0.66738 0.8674 0.56469 0.0
O170 O 0.70165 0.94856 0.57163 0.0
C171 C 0.76932 0.8504 0.54366 0.0
O172 O 0.82356 0.91924 0.56722 0.0
Co173 Co 0.83408 0.7906 0.56563 0.0
O174 O 0.88796 0.85277 0.56352 0.0
C175 C 0.76498 0.80904 0.5915 0.0
C176 C 0.6581 0.91784 0.56911 0.0
C177 C 0.87451 0.90356 0.56543 0.0
O178 O 0.74883 0.85597 0.5862 0.0
O179 O 0.79443 0.77418 0.58434 0.0
O180 O 0.74709 0.89951 0.54471 0.0
O181 O 0.77084 0.82194 0.55554 0.0
Co182 Co 0.11215 0.25325 0.81669 0.0
O183 O 0.11804 0.17287 0.81588 0.0
O184 O 0.04337 0.21826 0.82318 0.0
C185 C 0.14777 0.27087 0.79446 0.0
O186 O 0.09045 0.33618 0.81832 0.0
Co187 Co 0.22021 0.32517 0.81574 0.0
O188 O 0.16716 0.38809 0.81435 0.0
C189 C 0.19302 0.26164 0.84203 0.0
C190 C 0.06717 0.17066 0.82053 0.0
C191 C 0.11493 0.38378 0.81653 0.0
O192 O 0.14347 0.25289 0.83716 0.0
O193 O 0.23152 0.28417 0.83443 0.0
O194 O 0.09604 0.2561 0.79585 0.0
O195 O 0.17705 0.26829 0.80616 0.0
Co196 Co 0.76606 0.60488 0.06726 0.0
O197 O 0.84653 0.61275 0.06696 0.0
O198 O 0.80051 0.53677 0.07337 0.0
C199 C 0.74827 0.64313 0.04532 0.0
O200 O 0.68653 0.57652 0.06827 0.0
Co201 Co 0.6817 0.70218 0.06656 0.0
O202 O 0.62376 0.6437 0.06426 0.0
C203 C 0.74944 0.68271 0.09271 0.0
C204 C 0.84796 0.56091 0.0711 0.0
C205 C 0.63623 0.59272 0.06623 0.0
O206 O 0.7633 0.63416 0.08792 0.0
O207 O 0.72217 0.71798 0.08511 0.0
O208 O 0.76562 0.592 0.04625 0.0
O209 O 0.74711 0.67054 0.05736 0.0
Co210 Co 0.39791 0.26279 0.31542 0.0
O211 O 0.39309 0.34304 0.31383 0.0
O212 O 0.46216 0.29843 0.32443 0.0
C213 C 0.37677 0.24351 0.29207 0.0
O214 O 0.41804 0.18001 0.31833 0.0
Co215 Co 0.29209 0.19092 0.31021 0.0
O216 O 0.34521 0.12786 0.31102 0.0
C217 C 0.30213 0.25598 0.3371 0.0
C218 C 0.44058 0.34575 0.32043 0.0
C219 C 0.3953 0.13238 0.31543 0.0
O220 O 0.35397 0.26519 0.33429 0.0
O221 O 0.26915 0.23231 0.32811 0.0
O222 O 0.42716 0.25737 0.29565 0.0
O223 O 0.34031 0.24764 0.30229 0.0
H224 H 0.23028 0.35006 0.1129 0.0
H225 H 0.25248 0.18587 0.09481 0.0
H226 H 0.24563 0.14484 0.11891 0.0
H227 H 0.24265 0.156 0.14544 0.0
H228 H 0.22524 0.32054 0.16361 0.0
H229 H 0.22017 0.36051 0.13933 0.0
C230 C 0.23277 0.30527 0.11421 0.0
C231 C 0.24248 0.27133 0.10204 0.0
C232 C 0.22999 0.28179 0.1282 0.0
C233 C 0.24572 0.21324 0.10398 0.0
C234 C 0.24176 0.18958 0.11779 0.0
C235 C 0.23668 0.20044 0.14408 0.0
C236 C 0.23476 0.23515 0.15634 0.0
C237 C 0.23528 0.22351 0.13003 0.0
C238 C 0.22741 0.29281 0.15436 0.0
C239 C 0.22457 0.31582 0.14046 0.0
H240 H 0.71533 0.75233 0.40508 0.0
H241 H 0.88858 0.74398 0.39302 0.0
H242 H 0.86246 0.73508 0.36747 0.0
H243 H 0.79063 0.73876 0.34848 0.0
H244 H 0.61732 0.74512 0.36064 0.0
H245 H 0.64328 0.74494 0.38627 0.0
C246 C 0.74739 0.74807 0.39686 0.0
C247 C 0.80386 0.74973 0.40091 0.0
C248 C 0.73206 0.74281 0.38223 0.0
C249 C 0.84486 0.74303 0.39019 0.0
C250 C 0.82993 0.7382 0.37557 0.0
C251 C 0.75848 0.73948 0.35673 0.0
C252 C 0.7021 0.74277 0.35263 0.0
C253 C 0.77371 0.73942 0.37145 0.0
C254 C 0.66097 0.74269 0.36347 0.0
C255 C 0.67581 0.74292 0.37814 0.0
H256 H 0.25085 0.29741 0.59869 0.0
H257 H 0.27869 0.1253 0.61006 0.0
H258 H 0.28264 0.15028 0.63569 0.0
H259 H 0.27003 0.21943 0.65497 0.0
H260 H 0.24467 0.39198 0.64386 0.0
H261 H 0.24878 0.36853 0.61802 0.0
C262 C 0.25824 0.26544 0.60677 0.0
C263 C 0.26367 0.20942 0.60245 0.0
C264 C 0.26082 0.28014 0.62153 0.0
C265 C 0.27419 0.16867 0.61305 0.0
C266 C 0.27627 0.18289 0.62773 0.0
C267 C 0.26603 0.25203 0.64689 0.0
C268 C 0.25633 0.30725 0.65131 0.0
C269 C 0.26842 0.23824 0.63211 0.0
C270 C 0.25217 0.34917 0.64074 0.0
C271 C 0.25413 0.3357 0.62597 0.0
H272 H 0.71992 0.77238 0.85045 0.0
H273 H 0.89476 0.77224 0.86115 0.0
H274 H 0.87197 0.77393 0.88696 0.0
H275 H 0.80265 0.76656 0.90643 0.0
H276 H 0.62781 0.76896 0.89594 0.0
H277 H 0.65036 0.77592 0.87009 0.0
C278 C 0.75307 0.77329 0.85843 0.0
C279 C 0.809 0.77138 0.85385 0.0
C280 C 0.73967 0.77437 0.87328 0.0
C281 C 0.8514 0.77354 0.86433 0.0
C282 C 0.8384 0.77423 0.87911 0.0
C283 C 0.76945 0.76916 0.89849 0.0
C284 C 0.71362 0.76641 0.90308 0.0
C285 C 0.78273 0.77326 0.8837 0.0
C286 C 0.67109 0.77088 0.8927 0.0
C287 C 0.68399 0.77454 0.87791 0.0
H288 H 0.75436 0.70639 0.60349 0.0
H289 H 0.74645 0.88131 0.61389 0.0
H290 H 0.73618 0.85877 0.63964 0.0
H291 H 0.73747 0.78946 0.65932 0.0
H292 H 0.74244 0.61446 0.64878 0.0
H293 H 0.7451 0.63697 0.62295 0.0
C294 C 0.74995 0.73958 0.61139 0.0
C295 C 0.752 0.79547 0.60681 0.0
C296 C 0.74367 0.7263 0.62614 0.0
C297 C 0.74516 0.83798 0.61713 0.0
C298 C 0.73952 0.82511 0.63186 0.0
C299 C 0.73854 0.75621 0.65137 0.0
C300 C 0.74048 0.70034 0.656 0.0
C301 C 0.73994 0.76944 0.63651 0.0
C302 C 0.74096 0.65778 0.64554 0.0
C303 C 0.74282 0.67063 0.63075 0.0
H304 H 0.21853 0.25667 0.90998 0.0
H305 H 0.39018 0.22995 0.89806 0.0
H306 H 0.3638 0.22429 0.87254 0.0
H307 H 0.29361 0.23631 0.85348 0.0
H308 H 0.12166 0.26112 0.86519 0.0
H309 H 0.14644 0.25731 0.89094 0.0
C310 C 0.25012 0.24903 0.90181 0.0
C311 C 0.30642 0.24461 0.90594 0.0
C312 C 0.23464 0.24569 0.88712 0.0
C313 C 0.34662 0.23373 0.89523 0.0
C314 C 0.3316 0.23072 0.8806 0.0
C315 C 0.26142 0.2402 0.86167 0.0
C316 C 0.20598 0.24979 0.85744 0.0
C317 C 0.276 0.23807 0.87641 0.0
C318 C 0.16462 0.25377 0.86816 0.0
C319 C 0.17886 0.25197 0.88289 0.0
H320 H 0.76639 0.78668 0.10306 0.0
H321 H 0.75993 0.61475 0.11646 0.0
H322 H 0.76496 0.64352 0.14195 0.0
H323 H 0.76107 0.71812 0.16031 0.0
H324 H 0.7687 0.88993 0.14665 0.0
H325 H 0.77393 0.86047 0.12134 0.0
C326 C 0.76672 0.75541 0.11156 0.0
C327 C 0.7619 0.69867 0.1079 0.0
C328 C 0.76944 0.77227 0.12612 0.0
C329 C 0.76347 0.65864 0.11899 0.0
C330 C 0.76599 0.67514 0.13356 0.0
C331 C 0.76449 0.74917 0.15181 0.0
C332 C 0.76358 0.80627 0.1554 0.0
C333 C 0.76739 0.73192 0.13725 0.0
C334 C 0.76906 0.84579 0.14424 0.0
C335 C 0.77179 0.82897 0.12974 0.0
H336 H 0.16278 0.27751 0.3948 0.0
H337 H 0.32583 0.25482 0.41344 0.0
H338 H 0.36793 0.25983 0.38942 0.0
H339 H 0.35793 0.2612 0.36286 0.0
H340 H 0.19446 0.27851 0.34413 0.0
H341 H 0.15352 0.28578 0.36828 0.0
C342 C 0.20757 0.27457 0.39363 0.0
C343 C 0.24089 0.26528 0.40593 0.0
C344 C 0.23163 0.27616 0.37968 0.0
C345 C 0.29897 0.26132 0.40416 0.0
C346 C 0.32322 0.26421 0.3904 0.0
C347 C 0.31352 0.26765 0.36407 0.0
C348 C 0.27937 0.26895 0.35169 0.0
C349 C 0.28989 0.27022 0.37804 0.0
C350 C 0.22174 0.27686 0.35347 0.0
C351 C 0.19819 0.28095 0.3673 0.0
H352 H 0.35418 0.14414 0.22878 0.0
H353 H 0.18173 0.18125 0.23685 0.0
H354 H 0.20475 0.21479 0.26125 0.0
H355 H 0.27433 0.23512 0.28004 0.0
H356 H 0.44765 0.20177 0.27167 0.0
H357 H 0.42422 0.1649 0.24768 0.0
C358 C 0.32187 0.15929 0.23598 0.0
C359 C 0.26642 0.16003 0.23125 0.0
C360 C 0.33564 0.17919 0.24987 0.0
C361 C 0.22461 0.18007 0.24046 0.0
C362 C 0.2378 0.19931 0.25434 0.0
C363 C 0.30692 0.21966 0.27297 0.0
C364 C 0.36261 0.22125 0.27758 0.0
C365 C 0.2932 0.1993 0.25914 0.0
C366 C 0.40449 0.20135 0.2683 0.0
C367 C 0.39111 0.18014 0.25461 0.0
H368 H 0.89351 0.73724 0.49088 0.0
H369 H 0.78422 0.84607 0.46701 0.0
H370 H 0.74722 0.88339 0.48969 0.0
H371 H 0.74457 0.88399 0.51635 0.0
H372 H 0.84811 0.76982 0.54027 0.0
H373 H 0.88863 0.73569 0.51762 0.0
C374 C 0.86179 0.76931 0.49068 0.0
C375 C 0.84184 0.7891 0.47731 0.0
C376 C 0.83953 0.78948 0.50379 0.0
C377 C 0.80021 0.8301 0.47717 0.0
C378 C 0.77904 0.85152 0.49013 0.0
C379 C 0.77613 0.85175 0.51659 0.0
C380 C 0.79352 0.82963 0.52995 0.0
C381 C 0.79818 0.83134 0.50351 0.0
C382 C 0.83394 0.78744 0.53011 0.0
C383 C 0.85721 0.76797 0.51716 0.0
H384 H 0.26515 0.39193 0.74187 0.0
H385 H 0.15879 0.28086 0.71778 0.0
H386 H 0.12001 0.24439 0.74037 0.0
H387 H 0.11641 0.244 0.76711 0.0
H388 H 0.2303 0.34753 0.79115 0.0
H389 H 0.2661 0.38693 0.76857 0.0
C390 C 0.23345 0.35978 0.74161 0.0
C391 C 0.21442 0.33949 0.72821 0.0
C392 C 0.21274 0.33763 0.75466 0.0
C393 C 0.17403 0.29721 0.72797 0.0
C394 C 0.15177 0.27638 0.74089 0.0
C395 C 0.14903 0.27522 0.76736 0.0
C396 C 0.17029 0.29329 0.78075 0.0
C397 C 0.17079 0.29629 0.7543 0.0
C398 C 0.21316 0.33305 0.78097 0.0
C399 C 0.23363 0.35566 0.76806 0.0
H400 H 0.77872 0.61872 0.0176 0.0
H401 H 0.66792 0.72198 0.04266 0.0
H402 H 0.63019 0.76231 0.02049 0.0
H403 H 0.62912 0.7693 0.99389 0.0
H404 H 0.74583 0.6729 0.9688 0.0
H405 H 0.78083 0.62918 0.99092 0.0
C406 C 0.7462 0.64992 0.01816 0.0
C407 C 0.72588 0.66701 0.03174 0.0
C408 C 0.72586 0.67439 0.00533 0.0
C409 C 0.68432 0.70806 0.03235 0.0
C410 C 0.66264 0.73118 0.01966 0.0
C411 C 0.66219 0.73869 0.99329 0.0
C412 C 0.68457 0.72412 0.97973 0.0
C413 C 0.68318 0.71483 0.00609 0.0
C414 C 0.72788 0.68491 0.9791 0.0
C415 C 0.74787 0.65976 0.99176 0.0
H416 H 0.3535 0.35623 0.03124 0.0
H417 H 0.18071 0.33494 0.02032 0.0
H418 H 0.2065 0.30192 0.99604 0.0
H419 H 0.2787 0.27692 0.97819 0.0
H420 H 0.4518 0.29652 0.98942 0.0
H421 H 0.4257 0.33294 0.01322 0.0
C422 C 0.32172 0.34459 0.02347 0.0
C423 C 0.26545 0.34799 0.02739 0.0
C424 C 0.33698 0.32542 0.00962 0.0
C425 C 0.22429 0.33291 0.01737 0.0
C426 C 0.23905 0.31392 1.00355 0.0
C427 C 0.31064 0.28933 0.98584 0.0
C428 C 0.36708 0.28371 0.98209 0.0
C429 C 0.29531 0.30968 0.99958 0.0
C430 C 0.40806 0.29989 0.99211 0.0
C431 C 0.39318 0.32084 0.00571 0.0
H432 H 0.639 0.85979 0.2795 0.0
H433 H 0.66743 0.68741 0.26913 0.0
H434 H 0.70372 0.71374 0.2452 0.0
H435 H 0.72787 0.78615 0.22736 0.0
H436 H 0.70176 0.95899 0.23802 0.0
H437 H 0.66383 0.93244 0.26166 0.0
C438 C 0.65316 0.82823 0.27194 0.0
C439 C 0.65064 0.77189 0.27589 0.0
C440 C 0.67426 0.84382 0.2583 0.0
C441 C 0.66894 0.73103 0.26615 0.0
C442 C 0.68969 0.7461 0.25253 0.0
C443 C 0.71383 0.81796 0.23486 0.0
C444 C 0.71772 0.87444 0.23096 0.0
C445 C 0.69262 0.80239 0.24849 0.0
C446 C 0.69955 0.91523 0.24081 0.0
C447 C 0.67774 0.90009 0.25431 0.0
H448 H 0.22088 0.18259 0.47361 0.0
H449 H 0.09722 0.29403 0.491 0.0
H450 H 0.12261 0.26656 0.51572 0.0
H451 H 0.18174 0.21191 0.53241 0.0
H452 H 0.30012 0.09546 0.5147 0.0
H453 H 0.27509 0.12367 0.4901 0.0
C454 C 0.19946 0.20079 0.48281 0.0
C455 C 0.15765 0.24062 0.48052 0.0
C456 C 0.21345 0.18394 0.49693 0.0
C457 C 0.12961 0.26327 0.49252 0.0
C458 C 0.14422 0.2477 0.50664 0.0
C459 C 0.20196 0.19284 0.52314 0.0
C460 C 0.24305 0.1521 0.52533 0.0
C461 C 0.18637 0.20832 0.50899 0.0
C462 C 0.26837 0.12696 0.51326 0.0
C463 C 0.25417 0.14313 0.4992 0.0
H464 H 0.82245 0.71145 0.72531 0.0
H465 H 0.70916 0.59469 0.74507 0.0
H466 H 0.73789 0.62584 0.76922 0.0
H467 H 0.79615 0.68581 0.78472 0.0
H468 H 0.91672 0.79496 0.76493 0.0
H469 H 0.88455 0.76733 0.74079 0.0
C470 C 0.80401 0.69302 0.73492 0.0
C471 C 0.76344 0.65125 0.73346 0.0
C472 C 0.82218 0.70973 0.74874 0.0
C473 C 0.74046 0.62698 0.74597 0.0
C474 C 0.75681 0.64481 0.75976 0.0
C475 C 0.81517 0.70359 0.77511 0.0
C476 C 0.85833 0.74269 0.77656 0.0
C477 C 0.79773 0.68609 0.76129 0.0
C478 C 0.88337 0.76478 0.76405 0.0
C479 C 0.86494 0.74909 0.75026 0.0
H480 H 0.05113 0.12019 0.18603 0.0
H481 H 0.13767 0.96311 0.18538 0.0
H482 H 0.04863 0.91343 0.18527 0.0
H483 H 0.94581 0.91461 0.18686 0.0
H484 H 0.85939 0.07177 0.18601 0.0
H485 H 0.94838 0.12131 0.18512 0.0
C486 C 0.05051 0.07507 0.18571 0.0
C487 C 0.10117 0.04543 0.18581 0.0
C488 C 0.99902 0.04677 0.18545 0.0
C489 C 0.09948 0.98699 0.18526 0.0
C490 C 0.04848 0.95854 0.18528 0.0
C491 C 0.94646 0.95971 0.18636 0.0
C492 C 0.89585 0.98944 0.18663 0.0
C493 C 0.99795 0.98796 0.18561 0.0
C494 C 0.89754 0.04783 0.1858 0.0
C495 C 0.94852 0.07621 0.18535 0.0
H496 H 0.98515 0.3987 0.43431 0.0
H497 H 0.15293 0.46207 0.4357 0.0
H498 H 0.11792 0.55752 0.43502 0.0
H499 H 0.03936 0.62341 0.43554 0.0
H500 H 0.87148 0.55993 0.4359 0.0
H501 H 0.90654 0.46468 0.43436 0.0
C502 C 0.01401 0.43343 0.43425 0.0
C503 C 0.07159 0.42322 0.43499 0.0
C504 C 0.99347 0.48841 0.4343 0.0
C505 C 0.10842 0.46873 0.43514 0.0
C506 C 0.08841 0.52339 0.43478 0.0
C507 C 0.01047 0.58875 0.43514 0.0
C508 C 0.95285 0.5989 0.43583 0.0
C509 C 0.03099 0.53382 0.43459 0.0
C510 C 0.91602 0.55339 0.43543 0.0
C511 C 0.93605 0.49881 0.43454 0.0
H512 H 0.44044 0.39862 0.68696 0.0
H513 H 0.35475 0.55626 0.68747 0.0
H514 H 0.44398 0.6054 0.68767 0.0
H515 H 0.54654 0.60357 0.68903 0.0
H516 H 0.63238 0.44613 0.68745 0.0
H517 H 0.54319 0.39707 0.68623 0.0
C518 C 0.44127 0.44376 0.687 0.0
C519 C 0.39079 0.47367 0.68731 0.0
C520 C 0.49289 0.47181 0.68697 0.0
C521 C 0.39278 0.53215 0.68722 0.0
C522 C 0.44389 0.56029 0.68739 0.0
C523 C 0.54577 0.55852 0.6883 0.0
C524 C 0.59625 0.52858 0.68844 0.0
C525 C 0.49422 0.53057 0.68746 0.0
C526 C 0.59435 0.47026 0.68735 0.0
C527 C 0.54326 0.44214 0.68671 0.0
H528 H 0.41242 0.05268 0.94219 0.0
H529 H 0.56394 0.14601 0.93591 0.0
H530 H 0.61763 0.05981 0.93546 0.0
H531 H 0.62204 0.95756 0.93779 0.0
H532 H 0.46963 0.86451 0.94278 0.0
H533 H 0.41604 0.95059 0.94279 0.0
C534 C 0.45714 0.05407 0.94063 0.0
C535 C 0.48414 0.1056 0.93918 0.0
C536 C 0.48774 1.00431 0.94022 0.0
C537 C 0.54208 0.1068 0.93704 0.0
C538 C 0.57291 0.05753 0.93683 0.0
C539 C 0.57711 0.95629 0.93882 0.0
C540 C 0.54991 0.90487 0.94035 0.0
C541 C 0.54628 0.00603 0.93857 0.0
C542 C 0.49159 0.90363 0.94154 0.0
C543 C 0.46084 0.95284 0.94159 0.0
H544 H 0.047 0.38963 0.07073 0.0
H545 H 0.14189 0.54095 0.07559 0.0
H546 H 0.05626 0.59546 0.07612 0.0
H547 H 0.95397 0.60072 0.07405 0.0
H548 H 0.85932 0.44865 0.0705 0.0
H549 H 0.94482 0.39421 0.07065 0.0
C550 C 0.04884 0.43447 0.07203 0.0
C551 C 0.10072 0.46114 0.07304 0.0
C552 C 0.99935 0.46562 0.07249 0.0
C553 C 0.10246 0.51928 0.07483 0.0
C554 C 0.05349 0.5506 0.07507 0.0
C555 C 0.95218 0.55568 0.07339 0.0
C556 C 0.9004 0.52888 0.07217 0.0
C557 C 1.00166 0.52432 0.07371 0.0
C558 C 0.89864 0.4704 0.07147 0.0
C559 C 0.94756 0.43913 0.07151 0.0
H560 H 0.60021 0.55571 0.32162 0.0
H561 H 0.44305 0.64168 0.31959 0.0
H562 H 0.3936 0.55259 0.3206 0.0
H563 H 0.39516 0.44971 0.3206 0.0
H564 H 0.55205 0.36391 0.32406 0.0
H565 H 0.60135 0.45317 0.32409 0.0
C566 C 0.55511 0.55496 0.32153 0.0
C567 C 0.52539 0.60541 0.32041 0.0
C568 C 0.5269 0.50348 0.32234 0.0
C569 C 0.46697 0.60364 0.32046 0.0
C570 C 0.43866 0.55261 0.32098 0.0
C571 C 0.44013 0.45056 0.32151 0.0
C572 C 0.46988 0.40002 0.32222 0.0
C573 C 0.46818 0.5022 0.32171 0.0
C574 C 0.52808 0.40201 0.32354 0.0
C575 C 0.55633 0.45313 0.32348 0.0
H576 H 0.62442 0.0261 0.57081 0.0
H577 H 0.56217 0.85765 0.57057 0.0
H578 H 0.46666 0.89208 0.57142 0.0
H579 H 0.40028 0.97019 0.57083 0.0
H580 H 0.46255 0.13854 0.5695 0.0
H581 H 0.55805 0.10423 0.57078 0.0
C582 C 0.58995 0.99696 0.5711 0.0
C583 C 0.60051 0.93938 0.57063 0.0
C584 C 0.53491 0.0171 0.57126 0.0
C585 C 0.55529 0.90219 0.57087 0.0
C586 C 0.50057 0.92185 0.57136 0.0
C587 C 0.43475 0.99934 0.57101 0.0
C588 C 0.42424 0.05684 0.5701 0.0
C589 C 0.48979 0.97922 0.57136 0.0
C590 C 0.46944 0.09406 0.57016 0.0
C591 C 0.52414 0.07446 0.57087 0.0
H592 H 0.11221 0.06661 0.8222 0.0
H593 H 0.95491 0.15277 0.82175 0.0
H594 H 0.90556 0.06361 0.82166 0.0
H595 H 0.90709 0.96094 0.82042 0.0
H596 H 0.06421 0.87465 0.822 0.0
H597 H 0.11349 0.9638 0.82305 0.0
C598 C 0.06711 0.06589 0.82219 0.0
C599 C 0.03734 0.11648 0.82187 0.0
C600 C 0.03894 0.01432 0.8223 0.0
C601 C 0.97891 0.11465 0.82201 0.0
C602 C 0.95064 0.06358 0.8219 0.0
C603 C 0.95212 0.96161 0.82111 0.0
C604 C 0.9819 0.91102 0.82102 0.0
C605 C 0.9802 0.01313 0.82186 0.0
C606 C 0.0402 0.91279 0.82207 0.0
C607 C 0.06845 0.96384 0.8226 0.0
H608 H 0.61387 0.02559 0.19264 0.0
H609 H 0.52373 0.87029 0.19093 0.0
H610 H 0.43578 0.92034 0.19026 0.0
H611 H 0.38304 0.00846 0.19128 0.0
H612 H 0.47347 0.16356 0.19363 0.0
H613 H 0.56132 0.11366 0.19288 0.0
C614 C 0.57506 1.00269 0.19198 0.0
C615 C 0.57596 0.94408 0.1919 0.0
C616 C 0.52399 0.03181 0.19179 0.0
C617 C 0.52481 0.91535 0.19112 0.0
C618 C 0.47416 0.94398 0.19073 0.0
C619 C 0.42191 0.03138 0.19151 0.0
C620 C 0.42101 0.08988 0.19258 0.0
C621 C 0.47303 1.00226 0.19124 0.0
C622 C 0.47227 0.11857 0.19292 0.0
C623 C 0.52292 0.09004 0.19247 0.0
H624 H 0.89828 0.98522 0.4392 0.0
H625 H 0.02946 0.86332 0.44285 0.0
H626 H 0.09872 0.93779 0.44334 0.0
H627 H 0.122 0.03733 0.44343 0.0
H628 H 0.99115 0.15936 0.43937 0.0
H629 H 0.92194 0.08482 0.43828 0.0
C630 C 0.94202 0.97476 0.44009 0.0
C631 C 0.95841 0.91844 0.44107 0.0
C632 C 0.98176 0.01785 0.4403 0.0
C633 C 0.01544 0.90605 0.44206 0.0
C634 C 0.05514 0.9487 0.44238 0.0
C635 C 0.07836 0.04783 0.44228 0.0
C636 C 0.06198 0.10421 0.44157 0.0
C637 C 0.03876 1.00473 0.44162 0.0
C638 C 0.00517 0.11658 0.43994 0.0
C639 C 0.96548 0.0739 0.43936 0.0
H640 H 0.10842 0.50901 0.69616 0.0
H641 H 0.01866 0.35645 0.68808 0.0
H642 H 0.93078 0.40647 0.68871 0.0
H643 H 0.87803 0.49337 0.69213 0.0
H644 H 0.96783 0.64568 0.70069 0.0
H645 H 0.05569 0.59615 0.69931 0.0
C646 C 0.0697 0.48679 0.69443 0.0
C647 C 0.07064 0.4289 0.69211 0.0
C648 C 0.01864 0.51579 0.69497 0.0
C649 C 0.01966 0.40092 0.68999 0.0
C650 C 0.96905 0.42952 0.69034 0.0
C651 C 0.91674 0.51579 0.69369 0.0
C652 C 0.91561 0.57335 0.69655 0.0
C653 C 0.96785 0.48693 0.69295 0.0
C654 C 0.96671 0.60139 0.69851 0.0
C655 C 0.0174 0.57309 0.69771 0.0
H656 H 0.40333 0.48156 0.94703 0.0
H657 H 0.53162 0.35784 0.94101 0.0
H658 H 0.60218 0.43036 0.94038 0.0
H659 H 0.62831 0.52876 0.94196 0.0
H660 H 0.50023 0.6529 0.94744 0.0
H661 H 0.42925 0.58044 0.94784 0.0
C662 C 0.44668 0.47044 0.94555 0.0
C663 C 0.46189 0.41422 0.94412 0.0
C664 C 0.48738 0.51245 0.94513 0.0
C665 C 0.5184 0.40072 0.94213 0.0
C666 C 0.55902 0.44218 0.94179 0.0
C667 C 0.5849 0.53998 0.94325 0.0
C668 C 0.56981 0.59617 0.94471 0.0
C669 C 0.54406 0.49815 0.94337 0.0
C670 C 0.51319 0.60996 0.94625 0.0
C671 C 0.47243 0.56854 0.94651 0.0
H672 H 0.52403 0.6086 0.0682 0.0
H673 H 0.64834 0.48015 0.06369 0.0
H674 H 0.57578 0.40931 0.06276 0.0
H675 H 0.47684 0.38354 0.0629 0.0
H676 H 0.35272 0.5119 0.06805 0.0
H677 H 0.4253 0.58256 0.06908 0.0
C678 C 0.53529 0.56513 0.067 0.0
C679 C 0.59164 0.54994 0.06597 0.0
C680 C 0.49332 0.52434 0.0666 0.0
C681 C 0.60536 0.49323 0.06455 0.0
C682 C 0.56385 0.45255 0.06399 0.0
C683 C 0.46562 0.42693 0.06427 0.0
C684 C 0.40925 0.44214 0.06536 0.0
C685 C 0.50766 0.4676 0.06496 0.0
C686 C 0.39567 0.49871 0.06722 0.0
C687 C 0.4372 0.53934 0.06778 0.0
H688 H 0.50852 0.11776 0.31411 0.0
H689 H 0.35463 0.02776 0.31971 0.0
H690 H 0.40487 0.93971 0.31975 0.0
H691 H 0.49231 0.887 0.31709 0.0
H692 H 0.64588 0.9773 0.31078 0.0
H693 H 0.59625 0.06517 0.31211 0.0
C694 C 0.48609 0.07895 0.31553 0.0
C695 C 0.42778 0.07975 0.31688 0.0
C696 C 0.51522 0.02788 0.31528 0.0
C697 C 0.39947 0.02871 0.31855 0.0
C698 C 0.42818 0.97808 0.31857 0.0
C699 C 0.515 0.92583 0.31606 0.0
C700 C 0.57295 0.92482 0.31377 0.0
C701 C 0.48604 0.97696 0.31673 0.0
C702 C 0.60131 0.97608 0.31247 0.0
C703 C 0.57294 0.02677 0.31325 0.0
H704 H 0.98649 0.88537 0.56604 0.0
H705 H 0.86476 0.0174 0.56482 0.0
H706 H 0.93937 0.08646 0.56391 0.0
H707 H 0.03894 0.10937 0.56298 0.0
H708 H 0.16058 0.97731 0.56457 0.0
H709 H 0.08597 0.90838 0.56584 0.0
C710 C 0.97607 0.92922 0.56559 0.0
C711 C 0.91979 0.94594 0.56543 0.0
C712 C 0.01918 0.96881 0.56511 0.0
C713 C 0.9075 1.00312 0.56496 0.0
C714 C 0.9502 0.04274 0.56441 0.0
C715 C 0.04932 0.06554 0.56359 0.0
C716 C 0.10559 0.04874 0.5636 0.0
C717 C 0.00618 0.02602 0.56439 0.0
C718 C 0.11786 0.99164 0.56454 0.0
C719 C 0.07515 0.95209 0.56525 0.0
H720 H 0.01766 0.62946 0.81637 0.0
H721 H 0.86348 0.53857 0.81206 0.0
H722 H 0.91343 0.45082 0.81329 0.0
H723 H 1.00139 0.39848 0.81502 0.0
H724 H 0.15565 0.48946 0.8189 0.0
H725 H 0.10539 0.57717 0.81846 0.0
C726 C 0.99492 0.59053 0.81574 0.0
C727 C 0.93671 0.5913 0.81407 0.0
C728 C 0.02403 0.53951 0.81637 0.0
C729 C 0.90827 0.53993 0.81327 0.0
C730 C 0.93682 0.48932 0.81399 0.0
C731 C 0.024 0.43743 0.81587 0.0
C732 C 0.08241 0.43677 0.81695 0.0
C733 C 0.99478 0.48843 0.81547 0.0
C734 C 0.11076 0.48811 0.81796 0.0
C735 C 0.08203 0.53866 0.81772 0.0
loop_
_geom_bond_atom_site_label_1
_geom_bond_atom_site_label_2
_geom_bond_distance
_geom_bond_site_symmetry_2
_ccdc_geom_bond_type
Co0 O1 2.216 . S
Co0 O2 2.091 . S
Co0 O4 2.004 . S
Co0 O10 2.021 . S
Co0 O12 2.137 . S
Co0 O13 2.244 . S
O1 Co0 2.216 . S
O1 C8 1.247 . S
O2 Co0 2.091 . S
O2 C8 1.261 . S
C3 O12 1.247 . S
C3 O13 1.272 . S
O4 Co0 2.004 . S
O4 C9 1.259 . S
Co5 O6 2.061 . S
Co5 O11 2.052 . S
Co5 O13 2.135 . S
O6 Co5 2.061 . S
O6 C9 1.235 . S
C7 O10 1.238 . S
C7 O11 1.241 . S
C8 O1 1.247 . S
C8 O2 1.261 . S
C9 O4 1.259 . S
C9 O6 1.235 . S
O10 Co0 2.021 . S
O10 C7 1.238 . S
O11 Co5 2.052 . S
O11 C7 1.241 . S
O12 Co0 2.137 . S
O12 C3 1.247 . S
O13 Co0 2.244 . S
O13 C3 1.272 . S
O13 Co5 2.135 . S
Co14 O15 2.216 . S
Co14 O16 2.091 . S
Co14 O18 2.004 . S
Co14 O24 2.021 . S
Co14 O26 2.137 . S
Co14 O27 2.244 . S
O15 Co14 2.216 . S
O15 C22 1.247 . S
O16 Co14 2.091 . S
O16 C22 1.261 . S
C17 O26 1.247 . S
C17 O27 1.272 . S
O18 Co14 2.004 . S
O18 C23 1.259 . S
Co19 O20 2.061 . S
Co19 O25 2.052 . S
Co19 O27 2.135 . S
O20 Co19 2.061 . S
O20 C23 1.235 . S
C21 O24 1.238 . S
C21 O25 1.241 . S
C22 O15 1.247 . S
C22 O16 1.261 . S
C23 O18 1.259 . S
C23 O20 1.235 . S
O24 Co14 2.021 . S
O24 C21 1.238 . S
O25 Co19 2.052 . S
O25 C21 1.241 . S
O26 Co14 2.137 . S
O26 C17 1.247 . S
O27 Co14 2.244 . S
O27 C17 1.272 . S
O27 Co19 2.135 . S
Co28 O29 2.216 . S
Co28 O30 2.091 . S
Co28 O32 2.004 . S
Co28 O38 2.021 . S
Co28 O40 2.137 . S
Co28 O41 2.244 . S
O29 Co28 2.216 . S
O29 C36 1.247 . S
O30 Co28 2.091 . S
O30 C36 1.261 . S
C31 O40 1.247 . S
C31 O41 1.272 . S
O32 Co28 2.004 . S
O32 C37 1.259 . S
Co33 O34 2.061 . S
Co33 O39 2.052 . S
Co33 O41 2.135 . S
O34 Co33 2.061 . S
O34 C37 1.235 . S
C35 O38 1.238 . S
C35 O39 1.241 . S
C36 O29 1.247 . S
C36 O30 1.261 . S
C37 O32 1.259 . S
C37 O34 1.235 . S
O38 Co28 2.021 . S
O38 C35 1.238 . S
O39 Co33 2.052 . S
O39 C35 1.241 . S
O40 Co28 2.137 . S
O40 C31 1.247 . S
O41 Co28 2.244 . S
O41 C31 1.272 . S
O41 Co33 2.135 . S
Co42 O43 2.216 . S
Co42 O44 2.091 . S
Co42 O46 2.004 . S
Co42 O52 2.021 . S
Co42 O54 2.137 . S
Co42 O55 2.244 . S
O43 Co42 2.216 . S
O43 C50 1.247 . S
O44 Co42 2.091 . S
O44 C50 1.261 . S
C45 O54 1.247 . S
C45 O55 1.272 . S
O46 Co42 2.004 . S
O46 C51 1.259 . S
Co47 O48 2.061 . S
Co47 O53 2.052 . S
Co47 O55 2.135 . S
O48 Co47 2.061 . S
O48 C51 1.235 . S
C49 O52 1.238 . S
C49 O53 1.241 . S
C50 O43 1.247 . S
C50 O44 1.261 . S
C51 O46 1.259 . S
C51 O48 1.235 . S
O52 Co42 2.021 . S
O52 C49 1.238 . S
O53 Co47 2.052 . S
O53 C49 1.241 . S
O54 Co42 2.137 . S
O54 C45 1.247 . S
O55 Co42 2.244 . S
O55 C45 1.272 . S
O55 Co47 2.135 . S
Co56 O57 2.216 . S
Co56 O58 2.091 . S
Co56 O60 2.004 . S
Co56 O66 2.021 . S
Co56 O68 2.137 . S
Co56 O69 2.244 . S
O57 Co56 2.216 . S
O57 C64 1.247 . S
O58 Co56 2.091 . S
O58 C64 1.261 . S
C59 O68 1.247 . S
C59 O69 1.272 . S
O60 Co56 2.004 . S
O60 C65 1.259 . S
Co61 O62 2.061 . S
Co61 O67 2.052 . S
Co61 O69 2.135 . S
O62 Co61 2.061 . S
O62 C65 1.235 . S
C63 O66 1.238 . S
C63 O67 1.241 . S
C64 O57 1.247 . S
C64 O58 1.261 . S
C65 O60 1.259 . S
C65 O62 1.235 . S
O66 Co56 2.021 . S
O66 C63 1.238 . S
O67 Co61 2.052 . S
O67 C63 1.241 . S
O68 Co56 2.137 . S
O68 C59 1.247 . S
O69 Co56 2.244 . S
O69 C59 1.272 . S
O69 Co61 2.135 . S
Co70 O71 2.216 . S
Co70 O72 2.091 . S
Co70 O74 2.004 . S
Co70 O80 2.021 . S
Co70 O82 2.137 . S
Co70 O83 2.244 . S
O71 Co70 2.216 . S
O71 C78 1.247 . S
O72 Co70 2.091 . S
O72 C78 1.261 . S
C73 O82 1.247 . S
C73 O83 1.272 . S
O74 Co70 2.004 . S
O74 C79 1.259 . S
Co75 O76 2.061 . S
Co75 O81 2.052 . S
Co75 O83 2.135 . S
O76 Co75 2.061 . S
O76 C79 1.235 . S
C77 O80 1.238 . S
C77 O81 1.241 . S
C78 O71 1.247 . S
C78 O72 1.261 . S
C79 O74 1.259 . S
C79 O76 1.235 . S
O80 Co70 2.021 . S
O80 C77 1.238 . S
O81 Co75 2.052 . S
O81 C77 1.241 . S
O82 Co70 2.137 . S
O82 C73 1.247 . S
O83 Co70 2.244 . S
O83 C73 1.272 . S
O83 Co75 2.135 . S
Co84 O85 2.216 . S
Co84 O86 2.091 . S
Co84 O88 2.004 . S
Co84 O94 2.021 . S
Co84 O96 2.137 . S
Co84 O97 2.244 . S
O85 Co84 2.216 . S
O85 C92 1.247 . S
O86 Co84 2.091 . S
O86 C92 1.261 . S
C87 O96 1.247 . S
C87 O97 1.272 . S
O88 Co84 2.004 . S
O88 C93 1.259 . S
Co89 O90 2.061 . S
Co89 O95 2.052 . S
Co89 O97 2.135 . S
O90 Co89 2.061 . S
O90 C93 1.235 . S
C91 O94 1.238 . S
C91 O95 1.241 . S
C92 O85 1.247 . S
C92 O86 1.261 . S
C93 O88 1.259 . S
C93 O90 1.235 . S
O94 Co84 2.021 . S
O94 C91 1.238 . S
O95 Co89 2.052 . S
O95 C91 1.241 . S
O96 Co84 2.137 . S
O96 C87 1.247 . S
O97 Co84 2.244 . S
O97 C87 1.272 . S
O97 Co89 2.135 . S
Co98 O99 2.216 . S
Co98 O100 2.091 . S
Co98 O102 2.004 . S
Co98 O108 2.021 . S
Co98 O110 2.137 . S
Co98 O111 2.244 . S
O99 Co98 2.216 . S
O99 C106 1.247 . S
O100 Co98 2.091 . S
O100 C106 1.261 . S
C101 O110 1.247 . S
C101 O111 1.272 . S
O102 Co98 2.004 . S
O102 C107 1.259 . S
Co103 O104 2.061 . S
Co103 O109 2.052 . S
Co103 O111 2.135 . S
O104 Co103 2.061 . S
O104 C107 1.235 . S
C105 O108 1.238 . S
C105 O109 1.241 . S
C106 O99 1.247 . S
C106 O100 1.261 . S
C107 O102 1.259 . S
C107 O104 1.235 . S
O108 Co98 2.021 . S
O108 C105 1.238 . S
O109 Co103 2.052 . S
O109 C105 1.241 . S
O110 Co98 2.137 . S
O110 C101 1.247 . S
O111 Co98 2.244 . S
O111 C101 1.272 . S
O111 Co103 2.135 . S
Co112 O113 2.216 . S
Co112 O114 2.091 . S
Co112 O116 2.004 . S
Co112 O122 2.021 . S
Co112 O124 2.137 . S
Co112 O125 2.244 . S
O113 Co112 2.216 . S
O113 C120 1.247 . S
O114 Co112 2.091 . S
O114 C120 1.261 . S
C115 O124 1.247 . S
C115 O125 1.272 . S
O116 Co112 2.004 . S
O116 C121 1.259 . S
Co117 O118 2.061 . S
Co117 O123 2.052 . S
Co117 O125 2.135 . S
O118 Co117 2.061 . S
O118 C121 1.235 . S
C119 O122 1.238 . S
C119 O123 1.241 . S
C120 O113 1.247 . S
C120 O114 1.261 . S
C121 O116 1.259 . S
C121 O118 1.235 . S
O122 Co112 2.021 . S
O122 C119 1.238 . S
O123 Co117 2.052 . S
O123 C119 1.241 . S
O124 Co112 2.137 . S
O124 C115 1.247 . S
O125 Co112 2.244 . S
O125 C115 1.272 . S
O125 Co117 2.135 . S
Co126 O127 2.216 . S
Co126 O128 2.091 . S
Co126 O130 2.004 . S
Co126 O136 2.021 . S
Co126 O138 2.137 . S
Co126 O139 2.244 . S
O127 Co126 2.216 . S
O127 C134 1.247 . S
O128 Co126 2.091 . S
O128 C134 1.261 . S
C129 O138 1.247 . S
C129 O139 1.272 . S
O130 Co126 2.004 . S
O130 C135 1.259 . S
Co131 O132 2.061 . S
Co131 O137 2.052 . S
Co131 O139 2.135 . S
O132 Co131 2.061 . S
O132 C135 1.235 . S
C133 O136 1.238 . S
C133 O137 1.241 . S
C134 O127 1.247 . S
C134 O128 1.261 . S
C135 O130 1.259 . S
C135 O132 1.235 . S
O136 Co126 2.021 . S
O136 C133 1.238 . S
O137 Co131 2.052 . S
O137 C133 1.241 . S
O138 Co126 2.137 . S
O138 C129 1.247 . S
O139 Co126 2.244 . S
O139 C129 1.272 . S
O139 Co131 2.135 . S
Co140 O141 2.216 . S
Co140 O142 2.091 . S
Co140 O144 2.004 . S
Co140 O150 2.021 . S
Co140 O152 2.137 . S
Co140 O153 2.244 . S
O141 Co140 2.216 . S
O141 C148 1.247 . S
O142 Co140 2.091 . S
O142 C148 1.261 . S
C143 O152 1.247 . S
C143 O153 1.272 . S
O144 Co140 2.004 . S
O144 C149 1.259 . S
Co145 O146 2.061 . S
Co145 O151 2.052 . S
Co145 O153 2.135 . S
O146 Co145 2.061 . S
O146 C149 1.235 . S
C147 O150 1.238 . S
C147 O151 1.241 . S
C148 O141 1.247 . S
C148 O142 1.261 . S
C149 O144 1.259 . S
C149 O146 1.235 . S
O150 Co140 2.021 . S
O150 C147 1.238 . S
O151 Co145 2.052 . S
O151 C147 1.241 . S
O152 Co140 2.137 . S
O152 C143 1.247 . S
O153 Co140 2.244 . S
O153 C143 1.272 . S
O153 Co145 2.135 . S
Co154 O155 2.216 . S
Co154 O156 2.091 . S
Co154 O158 2.004 . S
Co154 O164 2.021 . S
Co154 O166 2.137 . S
Co154 O167 2.244 . S
O155 Co154 2.216 . S
O155 C162 1.247 . S
O156 Co154 2.091 . S
O156 C162 1.261 . S
C157 O166 1.247 . S
C157 O167 1.272 . S
O158 Co154 2.004 . S
O158 C163 1.259 . S
Co159 O160 2.061 . S
Co159 O165 2.052 . S
Co159 O167 2.135 . S
O160 Co159 2.061 . S
O160 C163 1.235 . S
C161 O164 1.238 . S
C161 O165 1.241 . S
C162 O155 1.247 . S
C162 O156 1.261 . S
C163 O158 1.259 . S
C163 O160 1.235 . S
O164 Co154 2.021 . S
O164 C161 1.238 . S
O165 Co159 2.052 . S
O165 C161 1.241 . S
O166 Co154 2.137 . S
O166 C157 1.247 . S
O167 Co154 2.244 . S
O167 C157 1.272 . S
O167 Co159 2.135 . S
Co168 O169 2.216 . S
Co168 O170 2.091 . S
Co168 O172 2.004 . S
Co168 O178 2.021 . S
Co168 O180 2.137 . S
Co168 O181 2.244 . S
O169 Co168 2.216 . S
O169 C176 1.247 . S
O170 Co168 2.091 . S
O170 C176 1.261 . S
C171 O180 1.247 . S
C171 O181 1.272 . S
O172 Co168 2.004 . S
O172 C177 1.259 . S
Co173 O174 2.061 . S
Co173 O179 2.052 . S
Co173 O181 2.135 . S
O174 Co173 2.061 . S
O174 C177 1.235 . S
C175 O178 1.238 . S
C175 O179 1.241 . S
C176 O169 1.247 . S
C176 O170 1.261 . S
C177 O172 1.259 . S
C177 O174 1.235 . S
O178 Co168 2.021 . S
O178 C175 1.238 . S
O179 Co173 2.052 . S
O179 C175 1.241 . S
O180 Co168 2.137 . S
O180 C171 1.247 . S
O181 Co168 2.244 . S
O181 C171 1.272 . S
O181 Co173 2.135 . S
Co182 O183 2.216 . S
Co182 O184 2.091 . S
Co182 O186 2.004 . S
Co182 O192 2.021 . S
Co182 O194 2.137 . S
Co182 O195 2.244 . S
O183 Co182 2.216 . S
O183 C190 1.247 . S
O184 Co182 2.091 . S
O184 C190 1.261 . S
C185 O194 1.247 . S
C185 O195 1.272 . S
O186 Co182 2.004 . S
O186 C191 1.259 . S
Co187 O188 2.061 . S
Co187 O193 2.052 . S
Co187 O195 2.135 . S
O188 Co187 2.061 . S
O188 C191 1.235 . S
C189 O192 1.238 . S
C189 O193 1.241 . S
C190 O183 1.247 . S
C190 O184 1.261 . S
C191 O186 1.259 . S
C191 O188 1.235 . S
O192 Co182 2.021 . S
O192 C189 1.238 . S
O193 Co187 2.052 . S
O193 C189 1.241 . S
O194 Co182 2.137 . S
O194 C185 1.247 . S
O195 Co182 2.244 . S
O195 C185 1.272 . S
O195 Co187 2.135 . S
Co196 O197 2.216 . S
Co196 O198 2.091 . S
Co196 O200 2.004 . S
Co196 O206 2.021 . S
Co196 O208 2.137 . S
Co196 O209 2.244 . S
O197 Co196 2.216 . S
O197 C204 1.247 . S
O198 Co196 2.091 . S
O198 C204 1.261 . S
C199 O208 1.247 . S
C199 O209 1.272 . S
O200 Co196 2.004 . S
O200 C205 1.259 . S
Co201 O202 2.061 . S
Co201 O207 2.052 . S
Co201 O209 2.135 . S
O202 Co201 2.061 . S
O202 C205 1.235 . S
C203 O206 1.238 . S
C203 O207 1.241 . S
C204 O197 1.247 . S
C204 O198 1.261 . S
C205 O200 1.259 . S
C205 O202 1.235 . S
O206 Co196 2.021 . S
O206 C203 1.238 . S
O207 Co201 2.052 . S
O207 C203 1.241 . S
O208 Co196 2.137 . S
O208 C199 1.247 . S
O209 Co196 2.244 . S
O209 C199 1.272 . S
O209 Co201 2.135 . S
Co210 O211 2.216 . S
Co210 O212 2.091 . S
Co210 O214 2.004 . S
Co210 O220 2.021 . S
Co210 O222 2.137 . S
Co210 O223 2.244 . S
O211 Co210 2.216 . S
O211 C218 1.247 . S
O212 Co210 2.091 . S
O212 C218 1.261 . S
C213 O222 1.247 . S
C213 O223 1.272 . S
O214 Co210 2.004 . S
O214 C219 1.259 . S
Co215 O216 2.061 . S
Co215 O221 2.052 . S
Co215 O223 2.135 . S
O216 Co215 2.061 . S
O216 C219 1.235 . S
C217 O220 1.238 . S
C217 O221 1.241 . S
C218 O211 1.247 . S
C218 O212 1.261 . S
C219 O214 1.259 . S
C219 O216 1.235 . S
O220 Co210 2.021 . S
O220 C217 1.238 . S
O221 Co215 2.052 . S
O221 C217 1.241 . S
O222 Co210 2.137 . S
O222 C213 1.247 . S
O223 Co210 2.244 . S
O223 C213 1.272 . S
O223 Co215 2.135 . S
H224 C230 0.930 . S
H225 C233 0.930 . S
H226 C234 0.930 . S
H227 C235 0.930 . S
H228 C238 0.930 . S
H229 C239 0.930 . S
C230 H224 0.930 . S
C230 C231 1.355 . S
C230 C232 1.415 . S
C231 C230 1.355 . S
C231 C233 1.419 . S
C232 C230 1.415 . S
C232 C237 1.425 . S
C232 C239 1.409 . S
C233 H225 0.930 . S
C233 C231 1.419 . S
C233 C234 1.362 . S
C234 H226 0.930 . S
C234 C233 1.362 . S
C234 C237 1.409 . S
C235 H227 0.930 . S
C235 C236 1.355 . S
C235 C237 1.415 . S
C236 C235 1.355 . S
C236 C238 1.419 . S
C237 C232 1.425 . S
C237 C234 1.409 . S
C237 C235 1.415 . S
C238 H228 0.930 . S
C238 C236 1.419 . S
C238 C239 1.362 . S
C239 H229 0.930 . S
C239 C232 1.409 . S
C239 C238 1.362 . S
H240 C246 0.930 . S
H241 C249 0.930 . S
H242 C250 0.930 . S
H243 C251 0.930 . S
H244 C254 0.930 . S
H245 C255 0.930 . S
C246 H240 0.930 . S
C246 C247 1.355 . S
C246 C248 1.415 . S
C247 C246 1.355 . S
C247 C249 1.419 . S
C248 C246 1.415 . S
C248 C253 1.425 . S
C248 C255 1.409 . S
C249 H241 0.930 . S
C249 C247 1.419 . S
C249 C250 1.362 . S
C250 H242 0.930 . S
C250 C249 1.362 . S
C250 C253 1.409 . S
C251 H243 0.930 . S
C251 C252 1.355 . S
C251 C253 1.415 . S
C252 C251 1.355 . S
C252 C254 1.419 . S
C253 C248 1.425 . S
C253 C250 1.409 . S
C253 C251 1.415 . S
C254 H244 0.930 . S
C254 C252 1.419 . S
C254 C255 1.362 . S
C255 H245 0.930 . S
C255 C248 1.409 . S
C255 C254 1.362 . S
H256 C262 0.930 . S
H257 C265 0.930 . S
H258 C266 0.930 . S
H259 C267 0.930 . S
H260 C270 0.930 . S
H261 C271 0.930 . S
C262 H256 0.930 . S
C262 C263 1.355 . S
C262 C264 1.415 . S
C263 C262 1.355 . S
C263 C265 1.419 . S
C264 C262 1.415 . S
C264 C269 1.425 . S
C264 C271 1.409 . S
C265 H257 0.930 . S
C265 C263 1.419 . S
C265 C266 1.362 . S
C266 H258 0.930 . S
C266 C265 1.362 . S
C266 C269 1.409 . S
C267 H259 0.930 . S
C267 C268 1.355 . S
C267 C269 1.415 . S
C268 C267 1.355 . S
C268 C270 1.419 . S
C269 C264 1.425 . S
C269 C266 1.409 . S
C269 C267 1.415 . S
C270 H260 0.930 . S
C270 C268 1.419 . S
C270 C271 1.362 . S
C271 H261 0.930 . S
C271 C264 1.409 . S
C271 C270 1.362 . S
H272 C278 0.930 . S
H273 C281 0.930 . S
H274 C282 0.930 . S
H275 C283 0.930 . S
H276 C286 0.930 . S
H277 C287 0.930 . S
C278 H272 0.930 . S
C278 C279 1.355 . S
C278 C280 1.415 . S
C279 C278 1.355 . S
C279 C281 1.419 . S
C280 C278 1.415 . S
C280 C285 1.425 . S
C280 C287 1.409 . S
C281 H273 0.930 . S
C281 C279 1.419 . S
C281 C282 1.362 . S
C282 H274 0.930 . S
C282 C281 1.362 . S
C282 C285 1.409 . S
C283 H275 0.930 . S
C283 C284 1.355 . S
C283 C285 1.415 . S
C284 C283 1.355 . S
C284 C286 1.419 . S
C285 C280 1.425 . S
C285 C282 1.409 . S
C285 C283 1.415 . S
C286 H276 0.930 . S
C286 C284 1.419 . S
C286 C287 1.362 . S
C287 H277 0.930 . S
C287 C280 1.409 . S
C287 C286 1.362 . S
H288 C294 0.930 . S
H289 C297 0.930 . S
H290 C298 0.930 . S
H291 C299 0.930 . S
H292 C302 0.930 . S
H293 C303 0.930 . S
C294 H288 0.930 . S
C294 C295 1.355 . S
C294 C296 1.415 . S
C295 C294 1.355 . S
C295 C297 1.419 . S
C296 C294 1.415 . S
C296 C301 1.425 . S
C296 C303 1.409 . S
C297 H289 0.930 . S
C297 C295 1.419 . S
C297 C298 1.362 . S
C298 H290 0.930 . S
C298 C297 1.362 . S
C298 C301 1.409 . S
C299 H291 0.930 . S
C299 C300 1.355 . S
C299 C301 1.415 . S
C300 C299 1.355 . S
C300 C302 1.419 . S
C301 C296 1.425 . S
C301 C298 1.409 . S
C301 C299 1.415 . S
C302 H292 0.930 . S
C302 C300 1.419 . S
C302 C303 1.362 . S
C303 H293 0.930 . S
C303 C296 1.409 . S
C303 C302 1.362 . S
H304 C310 0.930 . S
H305 C313 0.930 . S
H306 C314 0.930 . S
H307 C315 0.930 . S
H308 C318 0.930 . S
H309 C319 0.930 . S
C310 H304 0.930 . S
C310 C311 1.355 . S
C310 C312 1.415 . S
C311 C310 1.355 . S
C311 C313 1.419 . S
C312 C310 1.415 . S
C312 C317 1.425 . S
C312 C319 1.409 . S
C313 H305 0.930 . S
C313 C311 1.419 . S
C313 C314 1.362 . S
C314 H306 0.930 . S
C314 C313 1.362 . S
C314 C317 1.409 . S
C315 H307 0.930 . S
C315 C316 1.355 . S
C315 C317 1.415 . S
C316 C315 1.355 . S
C316 C318 1.419 . S
C317 C312 1.425 . S
C317 C314 1.409 . S
C317 C315 1.415 . S
C318 H308 0.930 . S
C318 C316 1.419 . S
C318 C319 1.362 . S
C319 H309 0.930 . S
C319 C312 1.409 . S
C319 C318 1.362 . S
H320 C326 0.930 . S
H321 C329 0.930 . S
H322 C330 0.930 . S
H323 C331 0.930 . S
H324 C334 0.930 . S
H325 C335 0.930 . S
C326 H320 0.930 . S
C326 C327 1.355 . S
C326 C328 1.415 . S
C327 C326 1.355 . S
C327 C329 1.419 . S
C328 C326 1.415 . S
C328 C333 1.425 . S
C328 C335 1.409 . S
C329 H321 0.930 . S
C329 C327 1.419 . S
C329 C330 1.362 . S
C330 H322 0.930 . S
C330 C329 1.362 . S
C330 C333 1.409 . S
C331 H323 0.930 . S
C331 C332 1.355 . S
C331 C333 1.415 . S
C332 C331 1.355 . S
C332 C334 1.419 . S
C333 C328 1.425 . S
C333 C330 1.409 . S
C333 C331 1.415 . S
C334 H324 0.930 . S
C334 C332 1.419 . S
C334 C335 1.362 . S
C335 H325 0.930 . S
C335 C328 1.409 . S
C335 C334 1.362 . S
H336 C342 0.930 . S
H337 C345 0.930 . S
H338 C346 0.930 . S
H339 C347 0.930 . S
H340 C350 0.930 . S
H341 C351 0.930 . S
C342 H336 0.930 . S
C342 C343 1.355 . S
C342 C344 1.415 . S
C343 C342 1.355 . S
C343 C345 1.419 . S
C344 C342 1.415 . S
C344 C349 1.425 . S
C344 C351 1.409 . S
C345 H337 0.930 . S
C345 C343 1.419 . S
C345 C346 1.362 . S
C346 H338 0.930 . S
C346 C345 1.362 . S
C346 C349 1.409 . S
C347 H339 0.930 . S
C347 C348 1.355 . S
C347 C349 1.415 . S
C348 C347 1.355 . S
C348 C350 1.419 . S
C349 C344 1.425 . S
C349 C346 1.409 . S
C349 C347 1.415 . S
C350 H340 0.930 . S
C350 C348 1.419 . S
C350 C351 1.362 . S
C351 H341 0.930 . S
C351 C344 1.409 . S
C351 C350 1.362 . S
H352 C358 0.930 . S
H353 C361 0.930 . S
H354 C362 0.930 . S
H355 C363 0.930 . S
H356 C366 0.930 . S
H357 C367 0.930 . S
C358 H352 0.930 . S
C358 C359 1.355 . S
C358 C360 1.415 . S
C359 C358 1.355 . S
C359 C361 1.419 . S
C360 C358 1.415 . S
C360 C365 1.425 . S
C360 C367 1.409 . S
C361 H353 0.930 . S
C361 C359 1.419 . S
C361 C362 1.362 . S
C362 H354 0.930 . S
C362 C361 1.362 . S
C362 C365 1.409 . S
C363 H355 0.930 . S
C363 C364 1.355 . S
C363 C365 1.415 . S
C364 C363 1.355 . S
C364 C366 1.419 . S
C365 C360 1.425 . S
C365 C362 1.409 . S
C365 C363 1.415 . S
C366 H356 0.930 . S
C366 C364 1.419 . S
C366 C367 1.362 . S
C367 H357 0.930 . S
C367 C360 1.409 . S
C367 C366 1.362 . S
H368 C374 0.930 . S
H369 C377 0.930 . S
H370 C378 0.930 . S
H371 C379 0.930 . S
H372 C382 0.930 . S
H373 C383 0.930 . S
C374 H368 0.930 . S
C374 C375 1.355 . S
C374 C376 1.415 . S
C375 C374 1.355 . S
C375 C377 1.419 . S
C376 C374 1.415 . S
C376 C381 1.425 . S
C376 C383 1.409 . S
C377 H369 0.930 . S
C377 C375 1.419 . S
C377 C378 1.362 . S
C378 H370 0.930 . S
C378 C377 1.362 . S
C378 C381 1.409 . S
C379 H371 0.930 . S
C379 C380 1.355 . S
C379 C381 1.415 . S
C380 C379 1.355 . S
C380 C382 1.419 . S
C381 C376 1.425 . S
C381 C378 1.409 . S
C381 C379 1.415 . S
C382 H372 0.930 . S
C382 C380 1.419 . S
C382 C383 1.362 . S
C383 H373 0.930 . S
C383 C376 1.409 . S
C383 C382 1.362 . S
H384 C390 0.930 . S
H385 C393 0.930 . S
H386 C394 0.930 . S
H387 C395 0.930 . S
H388 C398 0.930 . S
H389 C399 0.930 . S
C390 H384 0.930 . S
C390 C391 1.355 . S
C390 C392 1.415 . S
C391 C390 1.355 . S
C391 C393 1.419 . S
C392 C390 1.415 . S
C392 C397 1.425 . S
C392 C399 1.409 . S
C393 H385 0.930 . S
C393 C391 1.419 . S
C393 C394 1.362 . S
C394 H386 0.930 . S
C394 C393 1.362 . S
C394 C397 1.409 . S
C395 H387 0.930 . S
C395 C396 1.355 . S
C395 C397 1.415 . S
C396 C395 1.355 . S
C396 C398 1.419 . S
C397 C392 1.425 . S
C397 C394 1.409 . S
C397 C395 1.415 . S
C398 H388 0.930 . S
C398 C396 1.419 . S
C398 C399 1.362 . S
C399 H389 0.930 . S
C399 C392 1.409 . S
C399 C398 1.362 . S
H400 C406 0.930 . S
H401 C409 0.930 . S
H402 C410 0.930 . S
H403 C411 0.930 . S
H404 C414 0.930 . S
H405 C415 0.930 . S
C406 H400 0.930 . S
C406 C407 1.355 . S
C406 C408 1.415 . S
C407 C406 1.355 . S
C407 C409 1.419 . S
C408 C406 1.415 . S
C408 C413 1.425 1_554 S
C408 C415 1.409 1_554 S
C409 H401 0.930 . S
C409 C407 1.419 . S
C409 C410 1.362 . S
C410 H402 0.930 . S
C410 C409 1.362 . S
C410 C413 1.409 1_554 S
C411 H403 0.930 . S
C411 C412 1.355 . S
C411 C413 1.415 . S
C412 C411 1.355 . S
C412 C414 1.419 . S
C413 C408 1.425 1_556 S
C413 C410 1.409 1_556 S
C413 C411 1.415 . S
C414 H404 0.930 . S
C414 C412 1.419 . S
C414 C415 1.362 . S
C415 H405 0.930 . S
C415 C408 1.409 1_556 S
C415 C414 1.362 . S
H416 C422 0.930 . S
H417 C425 0.930 . S
H418 C426 0.930 . S
H419 C427 0.930 . S
H420 C430 0.930 . S
H421 C431 0.930 . S
C422 H416 0.930 . S
C422 C423 1.355 . S
C422 C424 1.415 . S
C423 C422 1.355 . S
C423 C425 1.419 . S
C424 C422 1.415 . S
C424 C429 1.425 1_554 S
C424 C431 1.409 1_554 S
C425 H417 0.930 . S
C425 C423 1.419 . S
C425 C426 1.362 . S
C426 H418 0.930 . S
C426 C425 1.362 . S
C426 C429 1.409 1_554 S
C427 H419 0.930 . S
C427 C428 1.355 . S
C427 C429 1.415 . S
C428 C427 1.355 . S
C428 C430 1.419 . S
C429 C424 1.425 1_556 S
C429 C426 1.409 1_556 S
C429 C427 1.415 . S
C430 H420 0.930 . S
C430 C428 1.419 . S
C430 C431 1.362 . S
C431 H421 0.930 . S
C431 C424 1.409 1_556 S
C431 C430 1.362 . S
H432 C438 0.930 . S
H433 C441 0.930 . S
H434 C442 0.930 . S
H435 C443 0.930 . S
H436 C446 0.930 . S
H437 C447 0.930 . S
C438 H432 0.930 . S
C438 C439 1.355 . S
C438 C440 1.415 . S
C439 C438 1.355 . S
C439 C441 1.419 . S
C440 C438 1.415 . S
C440 C445 1.425 . S
C440 C447 1.409 . S
C441 H433 0.930 . S
C441 C439 1.419 . S
C441 C442 1.362 . S
C442 H434 0.930 . S
C442 C441 1.362 . S
C442 C445 1.409 . S
C443 H435 0.930 . S
C443 C444 1.355 . S
C443 C445 1.415 . S
C444 C443 1.355 . S
C444 C446 1.419 . S
C445 C440 1.425 . S
C445 C442 1.409 . S
C445 C443 1.415 . S
C446 H436 0.930 . S
C446 C444 1.419 . S
C446 C447 1.362 . S
C447 H437 0.930 . S
C447 C440 1.409 . S
C447 C446 1.362 . S
H448 C454 0.930 . S
H449 C457 0.930 . S
H450 C458 0.930 . S
H451 C459 0.930 . S
H452 C462 0.930 . S
H453 C463 0.930 . S
C454 H448 0.930 . S
C454 C455 1.355 . S
C454 C456 1.415 . S
C455 C454 1.355 . S
C455 C457 1.419 . S
C456 C454 1.415 . S
C456 C461 1.425 . S
C456 C463 1.409 . S
C457 H449 0.930 . S
C457 C455 1.419 . S
C457 C458 1.362 . S
C458 H450 0.930 . S
C458 C457 1.362 . S
C458 C461 1.409 . S
C459 H451 0.930 . S
C459 C460 1.355 . S
C459 C461 1.415 . S
C460 C459 1.355 . S
C460 C462 1.419 . S
C461 C456 1.425 . S
C461 C458 1.409 . S
C461 C459 1.415 . S
C462 H452 0.930 . S
C462 C460 1.419 . S
C462 C463 1.362 . S
C463 H453 0.930 . S
C463 C456 1.409 . S
C463 C462 1.362 . S
H464 C470 0.930 . S
H465 C473 0.930 . S
H466 C474 0.930 . S
H467 C475 0.930 . S
H468 C478 0.930 . S
H469 C479 0.930 . S
C470 H464 0.930 . S
C470 C471 1.355 . S
C470 C472 1.415 . S
C471 C470 1.355 . S
C471 C473 1.419 . S
C472 C470 1.415 . S
C472 C477 1.425 . S
C472 C479 1.409 . S
C473 H465 0.930 . S
C473 C471 1.419 . S
C473 C474 1.362 . S
C474 H466 0.930 . S
C474 C473 1.362 . S
C474 C477 1.409 . S
C475 H467 0.930 . S
C475 C476 1.355 . S
C475 C477 1.415 . S
C476 C475 1.355 . S
C476 C478 1.419 . S
C477 C472 1.425 . S
C477 C474 1.409 . S
C477 C475 1.415 . S
C478 H468 0.930 . S
C478 C476 1.419 . S
C478 C479 1.362 . S
C479 H469 0.930 . S
C479 C472 1.409 . S
C479 C478 1.362 . S
H480 C486 0.930 . S
H481 C489 0.932 . S
H482 C490 0.930 . S
H483 C491 0.930 . S
H484 C494 0.932 . S
H485 C495 0.930 . S
C486 H480 0.930 . S
C486 C487 1.355 . S
C486 C488 1.415 1_455 S
C487 C486 1.355 . S
C487 C489 1.412 1_545 S
C488 C486 1.415 1_655 S
C488 C493 1.425 1_645 S
C488 C495 1.409 . S
C489 H481 0.932 . S
C489 C487 1.412 1_565 S
C489 C490 1.367 . S
C490 H482 0.930 . S
C490 C489 1.367 . S
C490 C493 1.409 . S
C491 H483 0.930 . S
C491 C492 1.355 . S
C491 C493 1.415 1_655 S
C492 C491 1.355 . S
C492 C494 1.412 1_565 S
C493 C488 1.425 1_465 S
C493 C490 1.409 . S
C493 C491 1.415 1_455 S
C494 H484 0.932 . S
C494 C492 1.412 1_545 S
C494 C495 1.367 . S
C495 H485 0.930 . S
C495 C488 1.409 . S
C495 C494 1.367 . S
H496 C502 0.930 1_655 S
H497 C505 0.930 . S
H498 C506 0.930 . S
H499 C507 0.930 1_455 S
H500 C510 0.930 . S
H501 C511 0.930 . S
C502 H496 0.930 1_455 S
C502 C503 1.355 . S
C502 C504 1.415 1_455 S
C503 C502 1.355 . S
C503 C505 1.419 . S
C504 C502 1.415 1_655 S
C504 C509 1.425 1_655 S
C504 C511 1.409 . S
C505 H497 0.930 . S
C505 C503 1.419 . S
C505 C506 1.362 . S
C506 H498 0.930 . S
C506 C505 1.362 . S
C506 C509 1.409 . S
C507 H499 0.930 1_655 S
C507 C508 1.355 . S
C507 C509 1.415 1_655 S
C508 C507 1.355 . S
C508 C510 1.419 . S
C509 C504 1.425 1_455 S
C509 C506 1.409 . S
C509 C507 1.415 1_455 S
C510 H500 0.930 . S
C510 C508 1.419 . S
C510 C511 1.362 . S
C511 H501 0.930 . S
C511 C504 1.409 . S
C511 C510 1.362 . S
H512 C518 0.930 . S
H513 C521 0.930 . S
H514 C522 0.930 . S
H515 C523 0.930 . S
H516 C526 0.930 . S
H517 C527 0.930 . S
C518 H512 0.930 . S
C518 C519 1.355 . S
C518 C520 1.415 . S
C519 C518 1.355 . S
C519 C521 1.419 . S
C520 C518 1.415 . S
C520 C525 1.425 . S
C520 C527 1.409 . S
C521 H513 0.930 . S
C521 C519 1.419 . S
C521 C522 1.362 . S
C522 H514 0.930 . S
C522 C521 1.362 . S
C522 C525 1.409 . S
C523 H515 0.930 . S
C523 C524 1.355 . S
C523 C525 1.415 . S
C524 C523 1.355 . S
C524 C526 1.419 . S
C525 C520 1.425 . S
C525 C522 1.409 . S
C525 C523 1.415 . S
C526 H516 0.930 . S
C526 C524 1.419 . S
C526 C527 1.362 . S
C527 H517 0.930 . S
C527 C520 1.409 . S
C527 C526 1.362 . S
H528 C534 0.930 . S
H529 C537 0.930 . S
H530 C538 0.930 . S
H531 C539 0.930 . S
H532 C542 0.930 . S
H533 C543 0.930 . S
C534 H528 0.930 . S
C534 C535 1.355 . S
C534 C536 1.415 . S
C535 C534 1.355 . S
C535 C537 1.419 . S
C536 C534 1.415 . S
C536 C541 1.425 1_545 S
C536 C543 1.409 1_545 S
C537 H529 0.930 . S
C537 C535 1.419 . S
C537 C538 1.362 . S
C538 H530 0.930 . S
C538 C537 1.362 . S
C538 C541 1.409 1_545 S
C539 H531 0.930 . S
C539 C540 1.355 . S
C539 C541 1.415 . S
C540 C539 1.355 . S
C540 C542 1.419 . S
C541 C536 1.425 1_565 S
C541 C538 1.409 1_565 S
C541 C539 1.415 . S
C542 H532 0.930 . S
C542 C540 1.419 . S
C542 C543 1.362 . S
C543 H533 0.930 . S
C543 C536 1.409 1_565 S
C543 C542 1.362 . S
H544 C550 0.930 . S
H545 C553 0.930 . S
H546 C554 0.930 . S
H547 C555 0.930 . S
H548 C558 0.930 . S
H549 C559 0.930 . S
C550 H544 0.930 . S
C550 C551 1.355 . S
C550 C552 1.415 1_455 S
C551 C550 1.355 . S
C551 C553 1.419 . S
C552 C550 1.415 1_655 S
C552 C557 1.425 1_655 S
C552 C559 1.409 . S
C553 H545 0.930 . S
C553 C551 1.419 . S
C553 C554 1.362 . S
C554 H546 0.930 . S
C554 C553 1.362 . S
C554 C557 1.409 . S
C555 H547 0.930 . S
C555 C556 1.355 . S
C555 C557 1.415 1_655 S
C556 C555 1.355 . S
C556 C558 1.419 . S
C557 C552 1.425 1_455 S
C557 C554 1.409 . S
C557 C555 1.415 1_455 S
C558 H548 0.930 . S
C558 C556 1.419 . S
C558 C559 1.362 . S
C559 H549 0.930 . S
C559 C552 1.409 . S
C559 C558 1.362 . S
H560 C566 0.930 . S
H561 C569 0.930 . S
H562 C570 0.930 . S
H563 C571 0.930 . S
H564 C574 0.930 . S
H565 C575 0.930 . S
C566 H560 0.930 . S
C566 C567 1.355 . S
C566 C568 1.415 . S
C567 C566 1.355 . S
C567 C569 1.419 . S
C568 C566 1.415 . S
C568 C573 1.425 . S
C568 C575 1.409 . S
C569 H561 0.930 . S
C569 C567 1.419 . S
C569 C570 1.362 . S
C570 H562 0.930 . S
C570 C569 1.362 . S
C570 C573 1.409 . S
C571 H563 0.930 . S
C571 C572 1.355 . S
C571 C573 1.415 . S
C572 C571 1.355 . S
C572 C574 1.419 . S
C573 C568 1.425 . S
C573 C570 1.409 . S
C573 C571 1.415 . S
C574 H564 0.930 . S
C574 C572 1.419 . S
C574 C575 1.362 . S
C575 H565 0.930 . S
C575 C568 1.409 . S
C575 C574 1.362 . S
H576 C582 0.930 1_545 S
H577 C585 0.930 . S
H578 C586 0.930 . S
H579 C587 0.930 1_565 S
H580 C590 0.930 . S
H581 C591 0.930 . S
C582 H576 0.930 1_565 S
C582 C583 1.355 . S
C582 C584 1.415 1_565 S
C583 C582 1.355 . S
C583 C585 1.419 . S
C584 C582 1.415 1_545 S
C584 C589 1.425 1_545 S
C584 C591 1.409 . S
C585 H577 0.930 . S
C585 C583 1.419 . S
C585 C586 1.362 . S
C586 H578 0.930 . S
C586 C585 1.362 . S
C586 C589 1.409 . S
C587 H579 0.930 1_545 S
C587 C588 1.355 . S
C587 C589 1.415 1_545 S
C588 C587 1.355 . S
C588 C590 1.419 . S
C589 C584 1.425 1_565 S
C589 C586 1.409 . S
C589 C587 1.415 1_565 S
C590 H580 0.930 . S
C590 C588 1.419 . S
C590 C591 1.362 . S
C591 H581 0.930 . S
C591 C584 1.409 . S
C591 C590 1.362 . S
H592 C598 0.930 . S
H593 C601 0.930 . S
H594 C602 0.930 . S
H595 C603 0.930 . S
H596 C606 0.930 . S
H597 C607 0.930 . S
C598 H592 0.930 . S
C598 C599 1.355 . S
C598 C600 1.415 . S
C599 C598 1.355 . S
C599 C601 1.419 . S
C600 C598 1.415 . S
C600 C605 1.425 1_445 S
C600 C607 1.409 1_545 S
C601 H593 0.930 . S
C601 C599 1.419 . S
C601 C602 1.362 1_455 S
C602 H594 0.930 . S
C602 C601 1.362 1_655 S
C602 C605 1.409 1_545 S
C603 H595 0.930 . S
C603 C604 1.355 . S
C603 C605 1.415 . S
C604 C603 1.355 . S
C604 C606 1.419 . S
C605 C600 1.425 1_665 S
C605 C602 1.409 1_565 S
C605 C603 1.415 . S
C606 H596 0.930 . S
C606 C604 1.419 . S
C606 C607 1.362 1_655 S
C607 H597 0.930 . S
C607 C600 1.409 1_565 S
C607 C606 1.362 1_455 S
H608 C614 0.930 1_545 S
H609 C617 0.930 . S
H610 C618 0.930 . S
H611 C619 0.930 1_565 S
H612 C622 0.930 . S
H613 C623 0.930 . S
C614 H608 0.930 1_565 S
C614 C615 1.355 . S
C614 C616 1.415 1_565 S
C615 C614 1.355 . S
C615 C617 1.419 . S
C616 C614 1.415 1_545 S
C616 C621 1.425 1_545 S
C616 C623 1.409 . S
C617 H609 0.930 . S
C617 C615 1.419 . S
C617 C618 1.362 . S
C618 H610 0.930 . S
C618 C617 1.362 . S
C618 C621 1.409 . S
C619 H611 0.930 1_545 S
C619 C620 1.355 . S
C619 C621 1.415 1_545 S
C620 C619 1.355 . S
C620 C622 1.419 . S
C621 C616 1.425 1_565 S
C621 C618 1.409 . S
C621 C619 1.415 1_565 S
C622 H612 0.930 . S
C622 C620 1.419 . S
C622 C623 1.362 . S
C623 H613 0.930 . S
C623 C616 1.409 . S
C623 C622 1.362 . S
H624 C630 0.930 . S
H625 C633 0.930 . S
H626 C634 0.935 . S
H627 C635 0.930 . S
H628 C638 0.930 . S
H629 C639 0.934 . S
C630 H624 0.930 . S
C630 C631 1.355 . S
C630 C632 1.415 . S
C631 C630 1.355 . S
C631 C633 1.419 . S
C632 C630 1.415 . S
C632 C637 1.425 1_665 S
C632 C639 1.409 1_665 S
C633 H625 0.930 . S
C633 C631 1.419 . S
C633 C634 1.362 . S
C634 H626 0.935 . S
C634 C633 1.362 . S
C634 C637 1.409 1_665 S
C635 H627 0.930 . S
C635 C636 1.355 . S
C635 C637 1.415 . S
C636 C635 1.355 . S
C636 C638 1.419 . S
C637 C632 1.425 1_445 S
C637 C634 1.409 1_445 S
C637 C635 1.415 . S
C638 H628 0.930 . S
C638 C636 1.419 . S
C638 C639 1.362 . S
C639 H629 0.934 . S
C639 C632 1.409 1_445 S
C639 C638 1.362 . S
H640 C646 0.930 . S
H641 C649 0.930 . S
H642 C650 0.930 . S
H643 C651 0.930 . S
H644 C654 0.930 . S
H645 C655 0.930 . S
C646 H640 0.930 . S
C646 C647 1.355 . S
C646 C648 1.415 . S
C647 C646 1.355 . S
C647 C649 1.419 . S
C648 C646 1.415 . S
C648 C653 1.425 1_455 S
C648 C655 1.409 . S
C649 H641 0.930 . S
C649 C647 1.419 . S
C649 C650 1.362 1_455 S
C650 H642 0.930 . S
C650 C649 1.362 1_655 S
C650 C653 1.409 . S
C651 H643 0.930 . S
C651 C652 1.355 . S
C651 C653 1.415 . S
C652 C651 1.355 . S
C652 C654 1.419 . S
C653 C648 1.425 1_655 S
C653 C650 1.409 . S
C653 C651 1.415 . S
C654 H644 0.930 . S
C654 C652 1.419 . S
C654 C655 1.362 1_655 S
C655 H645 0.930 . S
C655 C648 1.409 . S
C655 C654 1.362 1_455 S
H656 C662 0.930 . S
H657 C665 0.930 . S
H658 C666 0.930 . S
H659 C667 0.930 . S
H660 C670 0.930 . S
H661 C671 0.930 . S
C662 H656 0.930 . S
C662 C663 1.355 . S
C662 C664 1.415 . S
C663 C662 1.355 . S
C663 C665 1.419 . S
C664 C662 1.415 . S
C664 C669 1.425 . S
C664 C671 1.409 . S
C665 H657 0.930 . S
C665 C663 1.419 . S
C665 C666 1.362 . S
C666 H658 0.930 . S
C666 C665 1.362 . S
C666 C669 1.409 . S
C667 H659 0.930 . S
C667 C668 1.355 . S
C667 C669 1.415 . S
C668 C667 1.355 . S
C668 C670 1.419 . S
C669 C664 1.425 . S
C669 C666 1.409 . S
C669 C667 1.415 . S
C670 H660 0.930 . S
C670 C668 1.419 . S
C670 C671 1.362 . S
C671 H661 0.930 . S
C671 C664 1.409 . S
C671 C670 1.362 . S
H672 C678 0.930 . S
H673 C681 0.930 . S
H674 C682 0.930 . S
H675 C683 0.930 . S
H676 C686 0.930 . S
H677 C687 0.930 . S
C678 H672 0.930 . S
C678 C679 1.355 . S
C678 C680 1.415 . S
C679 C678 1.355 . S
C679 C681 1.419 . S
C680 C678 1.415 . S
C680 C685 1.425 . S
C680 C687 1.409 . S
C681 H673 0.930 . S
C681 C679 1.419 . S
C681 C682 1.362 . S
C682 H674 0.930 . S
C682 C681 1.362 . S
C682 C685 1.409 . S
C683 H675 0.930 . S
C683 C684 1.355 . S
C683 C685 1.415 . S
C684 C683 1.355 . S
C684 C686 1.419 . S
C685 C680 1.425 . S
C685 C682 1.409 . S
C685 C683 1.415 . S
C686 H676 0.930 . S
C686 C684 1.419 . S
C686 C687 1.362 . S
C687 H677 0.930 . S
C687 C680 1.409 . S
C687 C686 1.362 . S
H688 C694 0.930 . S
H689 C697 0.930 . S
H690 C698 0.930 . S
H691 C699 0.930 . S
H692 C702 0.930 . S
H693 C703 0.930 . S
C694 H688 0.930 . S
C694 C695 1.355 . S
C694 C696 1.415 . S
C695 C694 1.355 . S
C695 C697 1.419 . S
C696 C694 1.415 . S
C696 C701 1.425 1_545 S
C696 C703 1.409 . S
C697 H689 0.930 . S
C697 C695 1.419 . S
C697 C698 1.362 1_545 S
C698 H690 0.930 . S
C698 C697 1.362 1_565 S
C698 C701 1.409 . S
C699 H691 0.930 . S
C699 C700 1.355 . S
C699 C701 1.415 . S
C700 C699 1.355 . S
C700 C702 1.419 . S
C701 C696 1.425 1_565 S
C701 C698 1.409 . S
C701 C699 1.415 . S
C702 H692 0.930 . S
C702 C700 1.419 . S
C702 C703 1.362 1_565 S
C703 H693 0.930 . S
C703 C696 1.409 . S
C703 C702 1.362 1_545 S
H704 C710 0.930 . S
H705 C713 0.930 . S
H706 C714 0.930 . S
H707 C715 0.930 . S
H708 C718 0.930 . S
H709 C719 0.931 . S
C710 H704 0.930 . S
C710 C711 1.355 . S
C710 C712 1.415 . S
C711 C710 1.355 . S
C711 C713 1.419 . S
C712 C710 1.415 . S
C712 C717 1.425 1_665 S
C712 C719 1.409 1_665 S
C713 H705 0.930 . S
C713 C711 1.419 . S
C713 C714 1.362 . S
C714 H706 0.930 . S
C714 C713 1.362 . S
C714 C717 1.409 1_665 S
C715 H707 0.930 . S
C715 C716 1.355 . S
C715 C717 1.415 . S
C716 C715 1.355 . S
C716 C718 1.419 . S
C717 C712 1.425 1_445 S
C717 C714 1.409 1_445 S
C717 C715 1.415 . S
C718 H708 0.930 . S
C718 C716 1.419 . S
C718 C719 1.362 . S
C719 H709 0.931 . S
C719 C712 1.409 1_445 S
C719 C718 1.362 . S
H720 C726 0.939 . S
H721 C729 0.930 . S
H722 C730 0.930 . S
H723 C731 0.939 . S
H724 C734 0.930 . S
H725 C735 0.930 . S
C726 H720 0.939 . S
C726 C727 1.340 1_455 S
C726 C728 1.420 . S
C727 C726 1.340 1_655 S
C727 C729 1.419 . S
C728 C726 1.420 . S
C728 C733 1.425 1_455 S
C728 C735 1.409 . S
C729 H721 0.930 . S
C729 C727 1.419 . S
C729 C730 1.362 . S
C730 H722 0.930 . S
C730 C729 1.362 . S
C730 C733 1.409 . S
C731 H723 0.939 . S
C731 C732 1.340 1_655 S
C731 C733 1.420 . S
C732 C731 1.340 1_455 S
C732 C734 1.419 . S
C733 C728 1.425 1_655 S
C733 C730 1.409 . S
C733 C731 1.420 . S
C734 H724 0.930 . S
C734 C732 1.419 . S
C734 C735 1.362 . S
C735 H725 0.930 . S
C735 C728 1.409 . S
C735 C734 1.362 . S
C231 C63 1.343 . S
C236 C7 1.368 . S
C247 C21 1.370 . S
C252 C77 1.371 . S
C263 C91 1.353 . S
C268 C35 1.384 . S
C279 C105 1.365 . S
C284 C49 1.376 . S
C295 C175 1.389 . S
C300 C119 1.339 . S
C311 C133 1.381 . S
C316 C189 1.358 . S
C327 C203 1.359 . S
C332 C147 1.381 . S
C343 C161 1.337 . S
C348 C217 1.380 . S
C359 C3 1.440 . S
C364 C213 1.411 . S
C375 C17 1.442 . S
C380 C171 1.414 . S
C391 C31 1.425 . S
C396 C185 1.439 . S
C407 C199 1.418 . S
C412 C45 1.442 . S
C423 C59 1.441 . S
C428 C129 1.412 . S
C439 C73 1.438 . S
C444 C143 1.411 . S
C455 C157 1.418 . S
C460 C87 1.425 . S
C471 C115 1.431 . S
C476 C101 1.414 . S
C487 C8 1.589 . S
C492 C148 1.587 . S
C503 C162 1.615 . S
C508 C22 1.611 . S
C519 C36 1.592 . S
C524 C120 1.588 . S
C535 C134 1.601 . S
C540 C50 1.594 . S
C551 C64 1.589 . S
C556 C204 1.587 . S
C567 C78 1.598 . S
C572 C218 1.604 . S
C583 C176 1.615 . S
C588 C92 1.611 . S
C599 C190 1.593 . S
C604 C106 1.589 . S
C615 C149 1.374 . S
C620 C9 1.374 . S
C631 C23 1.386 . S
C636 C163 1.408 . S
C647 C37 1.370 . S
C652 C121 1.382 . S
C663 C135 1.402 . S
C668 C51 1.379 . S
C679 C205 1.397 . S
C684 C65 1.411 . S
C695 C219 1.372 . S
C700 C79 1.377 . S
C711 C177 1.398 . S
C716 C93 1.375 . S
C727 C107 1.371 . S
C732 C191 1.378 . S
