# Generated by pormake.
# Topology dft, (4)-cn, num edge types: 1
# Building blocks:
#     Node 0, Type 0, BuildingBlock: CEKHIL_clean_sbu_0, # of connection points: 4
#     Node 1, Type 0, BuildingBlock: CEKHIL_clean_sbu_0, # of connection points: 4
#     Node 2, Type 0, BuildingBlock: CEKHIL_clean_sbu_0, # of connection points: 4
#     Node 3, Type 0, BuildingBlock: CEKHIL_clean_sbu_0, # of connection points: 4
#     Node 4, Type 0, BuildingBlock: CEKHIL_clean_sbu_0, # of connection points: 4
#     Node 5, Type 0, BuildingBlock: CEKHIL_clean_sbu_0, # of connection points: 4
#     Node 6, Type 0, BuildingBlock: CEKHIL_clean_sbu_0, # of connection points: 4
#     Node 7, Type 0, BuildingBlock: CEKHIL_clean_sbu_0, # of connection points: 4
#     Edge 8, Type (0, 0), BuildingBlock: ZUJKAS_clean_linker_0, # of connection points: 2
#     Edge 9, Type (0, 0), BuildingBlock: ZUJKAS_clean_linker_0, # of connection points: 2
#     Edge 10, Type (0, 0), BuildingBlock: ZUJKAS_clean_linker_0, # of connection points: 2
#     Edge 11, Type (0, 0), BuildingBlock: ZUJKAS_clean_linker_0, # of connection points: 2
#     Edge 12, Type (0, 0), BuildingBlock: ZUJKAS_clean_linker_0, # of connection points: 2
#     Edge 13, Type (0, 0), BuildingBlock: ZUJKAS_clean_linker_0, # of connection points: 2
#     Edge 14, Type (0, 0), BuildingBlock: ZUJKAS_clean_linker_0, # of connection points: 2
#     Edge 15, Type (0, 0), BuildingBlock: ZUJKAS_clean_linker_0, # of connection points: 2
#     Edge 16, Type (0, 0), BuildingBlock: ZUJKAS_clean_linker_0, # of connection points: 2
#     Edge 17, Type (0, 0), BuildingBlock: ZUJKAS_clean_linker_0, # of connection points: 2
#     Edge 18, Type (0, 0), BuildingBlock: ZUJKAS_clean_linker_0, # of connection points: 2
#     Edge 19, Type (0, 0), BuildingBlock: ZUJKAS_clean_linker_0, # of connection points: 2
#     Edge 20, Type (0, 0), BuildingBlock: ZUJKAS_clean_linker_0, # of connection points: 2
#     Edge 21, Type (0, 0), BuildingBlock: ZUJKAS_clean_linker_0, # of connection points: 2
#     Edge 22, Type (0, 0), BuildingBlock: ZUJKAS_clean_linker_0, # of connection points: 2
#     Edge 23, Type (0, 0), BuildingBlock: ZUJKAS_clean_linker_0, # of connection points: 2
# Relax obj value: 0.182
# Max RMSD: 0.172
# Mean RMSD: 0.172
data_MOF--net-dft--node1-CEKHIL_clean_sbu_0--edge1-ZUJKAS_clean_linker_0
_symmetry_space_group_name_H-M    P1
_symmetry_Int_Tables_number       1
_symmetry_cell_setting            triclinic
loop_
_symmetry_equiv_pos_as_xyz
'x, y, z'
_cell_length_a     44.0944
_cell_length_b     44.038409
_cell_length_c     52.981509
_cell_angle_alpha  89.963862
_cell_angle_beta   89.999254
_cell_angle_gamma 89.989394
loop_
_atom_site_label
_atom_site_type_symbol
_atom_site_fract_x
_atom_site_fract_y
_atom_site_fract_z
_atom_type_partial_charge
Co0 Co 0.33667 0.03532 0.17953 0.0
O1 O 0.37458 0.01362 0.17851 0.0
O2 O 0.36967 0.06277 0.18652 0.0
C3 C 0.31089 0.00084 0.20238 0.0
O4 O 0.30186 0.06545 0.18378 0.0
Co5 Co 0.27762 0.00934 0.15579 0.0
O6 O 0.25752 0.04408 0.17261 0.0
C7 C 0.3274 0.03078 0.12315 0.0
C8 C 0.38742 0.03945 0.18365 0.0
C9 C 0.27272 0.06589 0.18206 0.0
O10 O 0.34032 0.04365 0.14214 0.0
O11 O 0.30389 0.01394 0.12527 0.0
O12 O 0.32856 0.0202 0.2137 0.0
O13 O 0.31153 0.00144 0.17808 0.0
Co14 Co 0.05319 0.33675 0.67645 0.0
O15 O 0.07716 0.37319 0.67412 0.0
O16 O 0.03015 0.37094 0.68878 0.0
C17 C 0.09 0.3074 0.69283 0.0
O18 O 0.02181 0.30348 0.68331 0.0
Co19 Co 0.06948 0.2781 0.64685 0.0
O20 O 0.04035 0.25868 0.67019 0.0
C21 C 0.04358 0.33081 0.62 0.0
C22 C 0.05388 0.38729 0.6835 0.0
C23 C 0.02079 0.27424 0.68225 0.0
O24 O 0.03786 0.34414 0.64108 0.0
O25 O 0.05748 0.30538 0.61834 0.0
O26 O 0.0743 0.32518 0.70746 0.0
O27 O 0.08449 0.3097 0.66901 0.0
Co28 Co 0.76299 0.06696 0.17767 0.0
O29 O 0.72556 0.08951 0.17612 0.0
O30 O 0.72945 0.04072 0.18586 0.0
C31 C 0.78976 0.10195 0.19912 0.0
O32 O 0.79708 0.03616 0.18278 0.0
Co33 Co 0.82249 0.09011 0.15274 0.0
O34 O 0.84188 0.05596 0.17093 0.0
C35 C 0.77188 0.06836 0.12112 0.0
C36 C 0.7122 0.06428 0.1823 0.0
C37 C 0.8262 0.03496 0.18111 0.0
O38 O 0.75874 0.0569 0.14063 0.0
O39 O 0.79595 0.08452 0.12249 0.0
O40 O 0.77174 0.08358 0.21119 0.0
O41 O 0.78897 0.10013 0.17486 0.0
Co42 Co 0.04603 0.76292 0.67582 0.0
O43 O 0.02389 0.72532 0.67384 0.0
O44 O 0.07085 0.73002 0.68821 0.0
C45 C 0.00806 0.79065 0.69226 0.0
O46 O 0.07577 0.79775 0.68224 0.0
Co47 Co 0.0266 0.82055 0.64605 0.0
O48 O 0.05438 0.8415 0.66962 0.0
C49 C 0.05455 0.76878 0.6193 0.0
C50 C 0.04795 0.71246 0.68311 0.0
C51 C 0.07494 0.82701 0.68148 0.0
O52 O 0.06137 0.75602 0.6404 0.0
O53 O 0.03932 0.79345 0.61765 0.0
O54 O 0.02469 0.77374 0.70691 0.0
O55 O 0.01342 0.78835 0.66842 0.0
Co56 Co 0.33657 0.06445 0.81168 0.0
O57 O 0.3751 0.08478 0.81384 0.0
O58 O 0.36873 0.03648 0.80338 0.0
C59 C 0.31242 0.1015 0.79043 0.0
O60 O 0.30078 0.03576 0.80612 0.0
Co61 Co 0.27795 0.09084 0.83582 0.0
O62 O 0.2572 0.06012 0.81466 0.0
C63 C 0.32626 0.06487 0.86806 0.0
C64 C 0.38716 0.05901 0.80739 0.0
C65 C 0.27161 0.03751 0.80563 0.0
O66 O 0.33965 0.05358 0.84861 0.0
O67 O 0.30293 0.08211 0.86653 0.0
O68 O 0.32923 0.08213 0.77825 0.0
O69 O 0.31271 0.09909 0.81465 0.0
Co70 Co 0.04598 0.33812 0.31602 0.0
O71 O 0.02313 0.37511 0.31962 0.0
O72 O 0.06922 0.37185 0.30308 0.0
C73 C 0.0081 0.30959 0.30037 0.0
O74 O 0.07622 0.30418 0.30806 0.0
Co75 Co 0.02925 0.2798 0.34614 0.0
O76 O 0.06003 0.25998 0.32463 0.0
C77 C 0.05689 0.332 0.37223 0.0
C78 C 0.04633 0.38873 0.30961 0.0
C79 C 0.07841 0.27521 0.31108 0.0
O80 O 0.06294 0.34477 0.35098 0.0
O81 O 0.04193 0.30723 0.37428 0.0
O82 O 0.02349 0.3274 0.28554 0.0
O83 O 0.01433 0.31163 0.3241 0.0
Co84 Co 0.76206 0.03435 0.81276 0.0
O85 O 0.72535 0.01073 0.81384 0.0
O86 O 0.72792 0.05957 0.80396 0.0
C87 C 0.7901 -7e-05 0.79183 0.0
O88 O 0.79542 0.06607 0.80822 0.0
Co89 Co 0.82148 0.01275 0.83867 0.0
O90 O 0.84045 0.04678 0.81996 0.0
C91 C 0.76879 0.03168 0.8692 0.0
C92 C 0.71134 0.03549 0.80739 0.0
C93 C 0.82454 0.06764 0.8098 0.0
O94 O 0.75672 0.04426 0.84969 0.0
O95 O 0.79306 0.01578 0.86805 0.0
O96 O 0.77199 0.01786 0.7794 0.0
O97 O 0.78877 0.00191 0.81606 0.0
Co98 Co 0.05336 0.76534 0.31736 0.0
O99 O 0.0775 0.72909 0.32049 0.0
O100 O 0.03152 0.73116 0.30362 0.0
C101 C 0.09038 0.79565 0.30259 0.0
O102 O 0.02196 0.79834 0.30976 0.0
Co103 Co 0.06756 0.82342 0.34862 0.0
O104 O 0.03597 0.84259 0.32752 0.0
C105 C 0.04216 0.76922 0.37356 0.0
C106 C 0.05491 0.71493 0.31006 0.0
C107 C 0.01843 0.82706 0.31347 0.0
O108 O 0.03629 0.75707 0.35204 0.0
O109 O 0.05636 0.79437 0.37609 0.0
O110 O 0.07583 0.77772 0.28728 0.0
O111 O 0.08389 0.79274 0.3262 0.0
H112 H 0.38249 0.0555 0.10925 0.0
H113 H 0.40284 0.06032 0.06617 0.0
H114 H 0.32098 0.02041 0.03645 0.0
H115 H 0.30081 0.01524 0.07875 0.0
H116 H 0.37559 0.99594 0.01591 0.0
H117 H 0.37172 0.12258 0.01338 0.0
H118 H 0.39232 0.10375 0.03822 0.0
H119 H 0.35172 0.10155 0.03741 0.0
C120 C 0.36886 0.04788 0.09347 0.0
C121 C 0.33999 0.03505 0.09747 0.0
C122 C 0.38054 0.05058 0.06894 0.0
C123 C 0.36341 0.04063 0.04819 0.0
C124 C 0.33471 0.02792 0.05223 0.0
H125 H 0.29786 0.07454 0.91281 0.0
H126 H 0.31821 0.06831 0.95503 0.0
C127 C 0.32314 0.02513 0.07651 0.0
C128 C 0.37385 0.04426 0.02183 0.0
H129 H 0.37266 0.09698 0.97475 0.0
C130 C 0.37608 0.01804 0.00686 0.0
C131 C 0.37461 0.07314 0.01024 0.0
C132 C 0.37243 0.10198 0.02549 0.0
C133 C 0.37551 0.01985 0.98042 0.0
C134 C 0.37305 0.04865 0.96888 0.0
C135 C 0.37442 0.07494 0.9838 0.0
C136 C 0.36197 0.05181 0.94269 0.0
C137 C 0.37434 0.99099 0.96513 0.0
C138 C 0.37976 0.04406 0.92168 0.0
C139 C 0.36802 0.04742 0.89722 0.0
C140 C 0.33845 0.05873 0.89358 0.0
C141 C 0.32076 0.06597 0.91482 0.0
C142 C 0.3324 0.06254 0.93902 0.0
H143 H 0.37565 0.97035 0.97715 0.0
H144 H 0.35298 0.99018 0.95405 0.0
H145 H 0.39352 0.99057 0.95158 0.0
H146 H 0.4027 0.03581 0.92418 0.0
H147 H 0.38227 0.04184 0.88123 0.0
H148 H 0.0511 0.39081 0.60893 0.0
H149 H 0.05182 0.41332 0.56642 0.0
H150 H 0.02189 0.32807 0.53509 0.0
H151 H 0.02191 0.30543 0.57716 0.0
H152 H 0.09139 0.38362 0.52863 0.0
H153 H 0.97278 0.39479 0.49575 0.0
H154 H 0.98319 0.39592 0.52878 0.0
H155 H 0.97972 0.36013 0.5127 0.0
C156 C 0.04363 0.3773 0.59302 0.0
C157 C 0.03645 0.34642 0.59617 0.0
C158 C 0.04417 0.39012 0.56881 0.0
C159 C 0.03666 0.3724 0.54772 0.0
C160 C 0.02728 0.34225 0.55118 0.0
H161 H 0.08004 0.30659 0.41451 0.0
H162 H 0.08069 0.32897 0.45665 0.0
C163 C 0.02739 0.3293 0.57518 0.0
C164 C 0.0432 0.38293 0.52181 0.0
H165 H 0.01054 0.38391 0.46357 0.0
C166 C 0.07371 0.38487 0.51442 0.0
C167 C 0.02015 0.38478 0.5034 0.0
C168 C 0.98708 0.38409 0.51056 0.0
C169 C 0.08177 0.38509 0.48881 0.0
C170 C 0.05873 0.3834 0.47037 0.0
C171 C 0.02821 0.38505 0.47779 0.0
C172 C 0.06531 0.37326 0.44437 0.0
C173 C 0.11485 0.38475 0.48165 0.0
C174 C 0.05732 0.39107 0.42342 0.0
C175 C 0.05752 0.37841 0.39917 0.0
C176 C 0.06485 0.3476 0.39584 0.0
C177 C 0.0745 0.33043 0.41664 0.0
C178 C 0.07495 0.34323 0.44068 0.0
H179 H 0.12905 0.39542 0.49652 0.0
H180 H 0.12242 0.36087 0.47938 0.0
H181 H 0.11864 0.39679 0.46349 0.0
H182 H 0.04945 0.41416 0.426 0.0
H183 H 0.04958 0.39193 0.3834 0.0
H184 H 0.78514 0.00392 0.91299 0.0
H185 H 0.76339 0.01025 0.95454 0.0
H186 H 0.69733 0.07294 0.92463 0.0
H187 H 0.71948 0.067 0.88234 0.0
H188 H 0.7254 0.09555 0.96533 0.0
H189 H 0.68834 0.98023 0.98937 0.0
H190 H 0.72591 0.97795 0.9767 0.0
H191 H 0.69534 0.99176 0.95714 0.0
C192 C 0.7658 0.01889 0.91499 0.0
C193 C 0.75422 0.03513 0.89425 0.0
C194 C 0.75303 0.02211 0.93882 0.0
C195 C 0.72817 0.0414 0.94262 0.0
C196 C 0.7162 0.05751 0.922 0.0
H197 H 0.71481 0.04737 0.10871 0.0
H198 H 0.69283 0.04349 0.06612 0.0
C199 C 0.72899 0.05422 0.89791 0.0
C200 C 0.71808 0.04732 0.96883 0.0
H201 H 0.71163 0.00951 0.02475 0.0
C202 C 0.7212 0.0769 0.97825 0.0
C203 C 0.71163 0.02327 0.98574 0.0
C204 C 0.70476 0.99161 0.97658 0.0
C205 C 0.72233 0.08227 0.0043 0.0
C206 C 0.72098 0.05735 0.02113 0.0
C207 C 0.71354 0.02851 0.01181 0.0
C208 C 0.73309 0.05977 0.04709 0.0
C209 C 0.72723 0.1143 0.01349 0.0
C210 C 0.76323 0.06907 0.05031 0.0
C211 C 0.77578 0.07115 0.0743 0.0
C212 C 0.7586 0.06367 0.09576 0.0
C213 C 0.72863 0.05332 0.09254 0.0
C214 C 0.71597 0.05129 0.0683 0.0
H215 H 0.71613 0.13091 0.00068 0.0
H216 H 0.71825 0.1175 0.03289 0.0
H217 H 0.75189 0.11936 0.01357 0.0
H218 H 0.77722 0.07463 0.03414 0.0
H219 H 0.79906 0.07877 0.07595 0.0
H220 H 0.02205 0.79306 0.41745 0.0
H221 H 0.02311 0.7687 0.45879 0.0
H222 H 0.04913 0.68394 0.42426 0.0
H223 H 0.04767 0.70832 0.38244 0.0
H224 H 0.99692 0.71056 0.4808 0.0
H225 H 0.12274 0.71514 0.47013 0.0
H226 H 0.09876 0.73783 0.44998 0.0
H227 H 0.09952 0.69736 0.44635 0.0
C228 C 0.02698 0.76898 0.41857 0.0
C229 C 0.03492 0.75257 0.39688 0.0
C230 C 0.02755 0.75507 0.44216 0.0
C231 C 0.03648 0.72465 0.44452 0.0
C232 C 0.04221 0.70746 0.42273 0.0
H233 H 0.05483 0.70773 0.6097 0.0
H234 H 0.05488 0.68384 0.56769 0.0
C235 C 0.04119 0.72135 0.39892 0.0
C236 C 0.04384 0.71328 0.47002 0.0
H237 H 0.10312 0.71623 0.51131 0.0
C238 C 0.02017 0.71034 0.4875 0.0
C239 C 0.07423 0.71313 0.47857 0.0
C240 C 0.10044 0.716 0.4604 0.0
C241 C 0.02598 0.71056 0.51354 0.0
C242 C 0.05618 0.71397 0.52208 0.0
C243 C 0.08003 0.71355 0.5046 0.0
C244 C 0.0623 0.72595 0.54759 0.0
C245 C -0.00035 0.71062 0.53172 0.0
C246 C 0.06771 0.75718 0.55005 0.0
C247 C 0.06741 0.77079 0.57375 0.0
C248 C 0.06208 0.75333 0.59546 0.0
C249 C 0.0592 0.72163 0.59321 0.0
C250 C 0.05907 0.708 0.56931 0.0
H251 H 0.97758 0.70708 0.52204 0.0
H252 H 0.00273 0.69238 0.54596 0.0
H253 H -0.00117 0.73262 0.54193 0.0
H254 H 0.07021 0.77138 0.53346 0.0
H255 H 0.06979 0.79523 0.57498 0.0
H256 H 0.42094 0.09145 0.1875 0.0
H257 H 0.47629 0.09599 0.18808 0.0
H258 H 0.48443 -0.00154 0.18477 0.0
H259 H 0.42922 0.99378 0.18353 0.0
H260 H 0.51865 0.07437 0.22115 0.0
H261 H 0.53729 0.0246 0.12629 0.0
H262 H 0.50024 0.03582 0.13734 0.0
H263 H 0.51634 0.0001 0.14698 0.0
C264 C 0.43454 0.07098 0.1869 0.0
C265 C 0.42076 0.04227 0.18526 0.0
C266 C 0.46614 0.07361 0.18724 0.0
C267 C 0.48448 0.0476 0.18596 0.0
C268 C 0.47073 0.01887 0.18509 0.0
H269 H 0.67787 0.01342 0.18968 0.0
H270 H 0.62247 0.01003 0.19163 0.0
C271 C 0.43917 0.01623 0.18455 0.0
C272 C 0.51798 0.05048 0.18568 0.0
H273 H 0.58117 0.0321 0.15167 0.0
C274 C 0.53231 0.06529 0.2059 0.0
C275 C 0.53575 0.03872 0.16569 0.0
C276 C 0.52163 0.02419 0.14272 0.0
C277 C 0.56401 0.06807 0.2069 0.0
C278 C 0.58171 0.05587 0.18713 0.0
C279 C 0.56744 0.04122 0.16688 0.0
C280 C 0.61516 0.05826 0.18696 0.0
C281 C 0.57845 0.08356 0.22927 0.0
C282 C 0.62925 0.08652 0.18358 0.0
C283 C 0.66084 0.08853 0.18231 0.0
C284 C 0.67885 0.06229 0.18446 0.0
C285 C 0.66463 0.03405 0.18806 0.0
C286 C 0.63302 0.03205 0.18914 0.0
H287 H 0.56219 0.0866 0.24508 0.0
H288 H 0.59823 0.07031 0.23613 0.0
H289 H 0.58675 0.1063 0.22345 0.0
H290 H 0.61577 0.10694 0.18151 0.0
H291 H 0.67113 0.1106 0.17947 0.0
H292 H 0.10273 0.42511 0.68151 0.0
H293 H 0.10317 0.48037 0.6858 0.0
H294 H 0.00622 0.47999 0.69685 0.0
H295 H 0.00579 0.4246 0.69341 0.0
H296 H 0.07651 0.5211 0.65639 0.0
H297 H 0.03203 0.53453 0.7535 0.0
H298 H 0.04441 0.49835 0.74129 0.0
H299 H 0.00719 0.51262 0.73386 0.0
C300 C 0.08155 0.43677 0.68516 0.0
C301 C 0.05423 0.42053 0.68722 0.0
C302 C 0.08184 0.46835 0.6876 0.0
C303 C 0.05482 0.48433 0.69205 0.0
C304 C 0.02749 0.46813 0.69414 0.0
H305 H 0.00179 0.67162 0.67857 0.0
H306 H 0.00472 0.61629 0.68228 0.0
C307 C 0.02723 0.43648 0.69198 0.0
C308 C 0.05504 0.51803 0.69285 0.0
H309 H 0.03291 0.57936 0.72783 0.0
C310 C 0.06729 0.53379 0.67215 0.0
C311 C 0.04304 0.53463 0.71345 0.0
C312 C 0.03121 0.51917 0.73689 0.0
C313 C 0.06716 0.56562 0.67123 0.0
C314 C 0.05447 0.58208 0.69149 0.0
C315 C 0.04252 0.5665 0.71231 0.0
C316 C 0.05263 0.61555 0.69087 0.0
C317 C 0.07997 0.58156 0.64838 0.0
C318 C 0.07859 0.63331 0.69483 0.0
C319 C 0.077 0.66494 0.69287 0.0
C320 C 0.04943 0.67921 0.68674 0.0
C321 C 0.02337 0.6613 0.68324 0.0
C322 C 0.02496 0.62972 0.6854 0.0
H323 H 0.08617 0.56543 0.63311 0.0
H324 H 0.06325 0.59814 0.64087 0.0
H325 H 0.10057 0.59442 0.65391 0.0
H326 H 0.10013 0.62264 0.69913 0.0
H327 H 0.09745 0.67814 0.69565 0.0
H328 H 0.67581 0.08406 0.79473 0.0
H329 H 0.62033 0.08593 0.793 0.0
H330 H 0.61604 0.99101 0.81268 0.0
H331 H 0.67143 0.98894 0.81466 0.0
H332 H 0.5786 0.05046 0.76341 0.0
H333 H 0.56342 0.03391 0.86675 0.0
H334 H 0.59933 0.04456 0.85296 0.0
H335 H 0.58647 0.00593 0.8512 0.0
C336 C 0.66306 0.06356 0.79861 0.0
C337 C 0.67797 0.0364 0.805 0.0
C338 C 0.6314 0.06467 0.79757 0.0
C339 C 0.61417 0.03871 0.80304 0.0
C340 C 0.62898 0.01139 0.80879 0.0
H341 H 0.41897 0.00848 0.79304 0.0
H342 H 0.47428 0.00272 0.79076 0.0
C343 C 0.66061 0.01025 0.80981 0.0
C344 C 0.58066 0.0404 0.80316 0.0
H345 H 0.51891 0.03532 0.84185 0.0
C346 C 0.56552 0.04708 0.78052 0.0
C347 C 0.56376 0.03615 0.82559 0.0
C348 C 0.57899 0.02998 0.85058 0.0
C349 C 0.53378 0.04944 0.77973 0.0
C350 C 0.51699 0.0451 0.80211 0.0
C351 C 0.53204 0.03841 0.82473 0.0
C352 C 0.48376 0.0487 0.80263 0.0
C353 C 0.51823 0.05694 0.75517 0.0
C354 C 0.47109 0.07646 0.81003 0.0
C355 C 0.43965 0.07987 0.8113 0.0
C356 C 0.42039 0.05548 0.8053 0.0
C357 C 0.43322 0.02768 0.79776 0.0
C358 C 0.46473 0.02434 0.79643 0.0
H359 H 0.53459 0.06007 0.73943 0.0
H360 H 0.50226 0.03841 0.75013 0.0
H361 H 0.50471 0.07805 0.75736 0.0
H362 H 0.48557 0.09544 0.81494 0.0
H363 H 0.43048 0.10155 0.8172 0.0
H364 H 0.07848 0.42239 0.27554 0.0
H365 H 0.07987 0.47784 0.27185 0.0
H366 H 0.01883 0.48536 0.33527 0.0
H367 H 0.01592 0.43008 0.33789 0.0
H368 H 0.00297 0.52396 0.30193 0.0
H369 H 0.1273 0.53497 0.3134 0.0
H370 H 0.11746 0.51253 0.28642 0.0
H371 H 0.10793 0.49933 0.31764 0.0
C372 C 0.06534 0.43598 0.28861 0.0
C373 C 0.04714 0.42205 0.30702 0.0
C374 C 0.06636 0.46766 0.28666 0.0
C375 C 0.05006 0.48594 0.30367 0.0
C376 C 0.03168 0.47187 0.32193 0.0
H377 H 0.08604 0.67393 0.33823 0.0
H378 H 0.08412 0.61861 0.33533 0.0
C379 C 0.03003 0.44026 0.32344 0.0
C380 C 0.05163 0.51967 0.30246 0.0
H381 H 0.10058 0.57975 0.30228 0.0
C382 C 0.02434 0.53614 0.30212 0.0
C383 C 0.07949 0.53568 0.30301 0.0
C384 C 0.10967 0.51973 0.30541 0.0
C385 C 0.02405 0.56801 0.3027 0.0
C386 C 0.05191 0.58403 0.30233 0.0
C387 C 0.07921 0.56756 0.30231 0.0
C388 C 0.05338 0.61777 0.30341 0.0
C389 C 0.99383 0.58395 0.30481 0.0
C390 C 0.03715 0.63589 0.28624 0.0
C391 C 0.03758 0.66756 0.28834 0.0
C392 C 0.05515 0.68166 0.30706 0.0
C393 C 0.07239 0.66362 0.32354 0.0
C394 C 0.07131 0.63199 0.32188 0.0
H395 H 0.97611 0.56871 0.3127 0.0
H396 H 0.9954 0.60437 0.31701 0.0
H397 H 0.98625 0.59109 0.28575 0.0
H398 H 0.02401 0.6256 0.27126 0.0
H399 H 0.02437 0.68102 0.27521 0.0
H400 H 0.10522 0.22285 0.32647 0.0
H401 H 0.14219 0.19212 0.30374 0.0
H402 H 0.14265 0.25745 0.24298 0.0
H403 H 0.10645 0.28907 0.26631 0.0
H404 H 0.13364 0.16469 0.26109 0.0
H405 H 0.2317 0.24211 0.24959 0.0
H406 H 0.20059 0.25046 0.27059 0.0
H407 H 0.19713 0.25766 0.23726 0.0
C408 C 0.11356 0.23094 0.30844 0.0
C409 C 0.10293 0.25836 0.29815 0.0
C410 C 0.1347 0.21333 0.29544 0.0
C411 C 0.14546 0.22249 0.27169 0.0
C412 C 0.13532 0.2502 0.26153 0.0
H413 H 0.21654 0.086 0.16837 0.0
H414 H 0.18663 0.12614 0.1882 0.0
C415 C 0.11449 0.26819 0.27481 0.0
C416 C 0.16528 0.20165 0.25697 0.0
H417 H 0.23287 0.19622 0.22571 0.0
C418 C 0.1554 0.17162 0.25347 0.0
C419 C 0.19382 0.21052 0.24719 0.0
C420 C 0.20661 0.24185 0.25154 0.0
C421 C 0.17319 0.15023 0.24065 0.0
C422 C 0.20122 0.15934 0.23004 0.0
C423 C 0.21121 0.18935 0.23355 0.0
C424 C 0.22077 0.13769 0.21596 0.0
C425 C 0.16207 0.11782 0.23939 0.0
C426 C 0.25066 0.1321 0.22389 0.0
C427 C 0.26811 0.10962 0.21216 0.0
C428 C 0.25585 0.09214 0.19244 0.0
C429 C 0.22644 0.09875 0.18379 0.0
C430 C 0.20925 0.12157 0.1952 0.0
H431 H 0.14543 0.11283 0.25459 0.0
H432 H 0.15055 0.11404 0.22104 0.0
H433 H 0.18114 0.10146 0.24102 0.0
H434 H 0.26012 0.14439 0.23975 0.0
H435 H 0.29071 0.10506 0.21924 0.0
H436 H 0.97389 0.29761 0.71072 0.0
H437 H 0.93439 0.26915 0.73323 0.0
H438 H 0.97278 0.18503 0.70657 0.0
H439 H 0.01179 0.21293 0.6839 0.0
H440 H 0.90985 0.18774 0.7017 0.0
H441 H 0.94755 0.21974 0.79839 0.0
H442 H 0.93954 0.25043 0.777 0.0
H443 H 0.97103 0.22565 0.77091 0.0
C444 C 0.97387 0.27306 0.7096 0.0
C445 C 0.99614 0.25763 0.69551 0.0
C446 C 0.95137 0.25684 0.72258 0.0
C447 C 0.95086 0.22496 0.72178 0.0
C448 C 0.97275 0.20961 0.70746 0.0
H449 H 0.88527 0.0803 0.81137 0.0
H450 H 0.91209 0.12185 0.79076 0.0
C451 C 0.99511 0.22569 0.69452 0.0
C452 C 0.92788 0.20706 0.73584 0.0
H453 H 0.90682 0.18551 0.79526 0.0
C454 C 0.90884 0.18753 0.72216 0.0
C455 C 0.92686 0.20669 0.76253 0.0
C456 C 0.94743 0.22654 0.77819 0.0
C457 C 0.88954 0.16689 0.73441 0.0
C458 C 0.88892 0.16611 0.7611 0.0
C459 C 0.90723 0.18632 0.77481 0.0
C460 C 0.87177 0.14246 0.77504 0.0
C461 C 0.87117 0.14501 0.71871 0.0
C462 C 0.84004 0.14057 0.77348 0.0
C463 C 0.82451 0.11668 0.78523 0.0
C464 C 0.84047 0.09429 0.79882 0.0
C465 C 0.87218 0.09695 0.80098 0.0
C466 C 0.88761 0.12079 0.78927 0.0
H467 H 0.87847 0.14485 0.69864 0.0
H468 H 0.87308 0.12158 0.72631 0.0
H469 H 0.84692 0.1517 0.71936 0.0
H470 H 0.82733 0.15734 0.76289 0.0
H471 H 0.8001 0.11548 0.78326 0.0
H472 H 0.98891 0.87743 0.32992 0.0
H473 H 0.95142 0.90771 0.3073 0.0
H474 H 0.95519 0.84504 0.24479 0.0
H475 H 0.99193 0.81384 0.26795 0.0
H476 H 0.96101 0.93709 0.26565 0.0
H477 H 0.86546 0.8579 0.24927 0.0
H478 H 0.89587 0.84947 0.27097 0.0
H479 H 0.90086 0.84354 0.23761 0.0
C480 C 0.98136 0.86979 0.31153 0.0
C481 C 0.9934 0.8433 0.30067 0.0
C482 C 0.95992 0.88713 0.2986 0.0
C483 C 0.95025 0.87864 0.27437 0.0
C484 C 0.96168 0.85173 0.26369 0.0
H485 H 0.88307 0.01472 0.16966 0.0
H486 H 0.9119 0.97481 0.19083 0.0
C487 C 0.98281 0.834 0.27687 0.0
C488 C 0.9305 0.89956 0.25965 0.0
H489 H 0.86451 0.90443 0.22601 0.0
C490 C 0.93983 0.9299 0.25712 0.0
C491 C 0.90269 0.89036 0.2487 0.0
C492 C 0.89044 0.85862 0.25197 0.0
C493 C 0.92231 0.95124 0.24398 0.0
C494 C 0.89514 0.9418 0.23211 0.0
C495 C 0.88556 0.91154 0.2348 0.0
C496 C 0.87628 0.96332 0.21727 0.0
C497 C 0.9328 0.98389 0.24355 0.0
C498 C 0.84601 0.96893 0.22409 0.0
C499 C 0.82921 0.9914 0.21166 0.0
C500 C 0.84249 0.00878 0.19231 0.0
C501 C 0.87233 0.00209 0.18476 0.0
C502 C 0.8889 0.97936 0.19692 0.0
H503 H 0.94846 0.9889 0.25945 0.0
H504 H 0.94524 0.98828 0.22572 0.0
H505 H 0.91331 -0.00019 0.24463 0.0
H506 H 0.83573 0.95668 0.23963 0.0
H507 H 0.80626 0.99598 0.2179 0.0
H508 H 0.07615 0.88832 0.689 0.0
H509 H 0.11382 0.91799 0.71189 0.0
H510 H 0.1648 0.83668 0.7276 0.0
H511 H 0.12695 0.80637 0.7047 0.0
H512 H 0.13497 0.9005 0.76803 0.0
H513 H 0.22279 0.90746 0.6925 0.0
H514 H 0.18309 0.90353 0.68469 0.0
H515 H 0.20308 0.87225 0.69848 0.0
C516 C 0.09539 0.87659 0.69716 0.0
C517 C 0.0985 0.84487 0.69492 0.0
C518 C 0.11686 0.89365 0.71028 0.0
C519 C 0.14202 0.8795 0.72129 0.0
C520 C 0.1455 0.84795 0.71908 0.0
H521 H 0.29167 0.98089 0.79145 0.0
H522 H 0.26175 0.9396 0.77295 0.0
C523 C 0.12385 0.83071 0.70603 0.0
C524 C 0.16408 0.89809 0.73551 0.0
H525 H 0.23045 0.93712 0.72888 0.0
C526 C 0.15607 0.90824 0.75967 0.0
C527 C 0.19157 0.90786 0.72455 0.0
C528 C 0.2009 0.89736 0.6986 0.0
C529 C 0.17453 0.92867 0.77296 0.0
C530 C 0.20127 0.93988 0.76143 0.0
C531 C 0.20989 0.92868 0.73765 0.0
C532 C 0.21949 0.96458 0.77302 0.0
C533 C 0.16508 0.93812 0.79918 0.0
C534 C 0.20581 0.9925 0.77878 0.0
C535 C 0.22272 0.01599 0.78949 0.0
C536 C 0.25388 0.01229 0.79433 0.0
C537 C 0.26772 0.98449 0.78806 0.0
C538 C 0.25066 0.96086 0.77749 0.0
H539 H 0.15081 0.92044 0.8083 0.0
H540 H 0.18507 0.94256 0.81138 0.0
H541 H 0.15138 0.95921 0.79798 0.0
H542 H 0.18202 0.99628 0.77477 0.0
H543 H 0.21135 0.03719 0.79371 0.0
H544 H 0.80015 0.99122 0.74114 0.0
H545 H 0.83606 0.9553 0.72182 0.0
H546 H 0.86475 0.92636 0.79584 0.0
H547 H 0.82917 0.96161 0.81513 0.0
H548 H 0.90099 0.95172 0.72963 0.0
H549 H 0.84171 0.84662 0.75965 0.0
H550 H 0.82342 0.88332 0.75923 0.0
H551 H 0.84822 0.87313 0.7848 0.0
C552 C 0.8141 0.97712 0.75321 0.0
C553 C 0.81175 0.97908 0.77961 0.0
C554 C 0.83454 0.95669 0.7422 0.0
C555 C 0.85258 0.93789 0.75747 0.0
C556 C 0.85056 0.94024 0.78376 0.0
H557 H 0.99319 0.8027 0.74148 0.0
H558 H 0.95548 0.8394 0.75672 0.0
C559 C 0.8303 0.96055 0.79473 0.0
C560 C 0.87419 0.91612 0.74626 0.0
H561 H 0.89251 0.84085 0.74501 0.0
C562 C 0.89902 0.92745 0.73269 0.0
C563 C 0.87152 0.88452 0.7505 0.0
C564 C 0.84464 0.87108 0.76414 0.0
C565 C 0.9219 0.908 0.72389 0.0
C566 C 0.91948 0.87645 0.72851 0.0
C567 C 0.89437 0.86509 0.74172 0.0
C568 C 0.94254 0.85472 0.71941 0.0
C569 C 0.94889 0.92144 0.7104 0.0
C570 C 0.94735 0.85104 0.69347 0.0
C571 C 0.96875 0.83024 0.68478 0.0
C572 C 0.9856 0.81257 0.70189 0.0
C573 C 0.98059 0.81607 0.72789 0.0
C574 C 0.9591 0.83697 0.73659 0.0
H575 H 0.95104 0.94621 0.71396 0.0
H576 H 0.97022 0.91009 0.71633 0.0
H577 H 0.94616 0.91807 0.68977 0.0
H578 H 0.93434 0.86407 0.67992 0.0
H579 H 0.97194 0.82792 0.6646 0.0
H580 H 0.29802 -0.00099 0.25317 0.0
H581 H 0.2601 0.96674 0.27419 0.0
H582 H 0.23749 0.92595 0.20262 0.0
H583 H 0.27473 0.95796 0.18164 0.0
H584 H 0.18697 0.9463 0.23079 0.0
H585 H 0.26514 0.874 0.28752 0.0
H586 H 0.26929 0.91446 0.29069 0.0
H587 H 0.27815 0.89656 0.26119 0.0
C588 C 0.28506 0.983 0.24203 0.0
C589 C 0.2893 0.981 0.2158 0.0
C590 C 0.26353 0.96456 0.25403 0.0
C591 C 0.24619 0.94388 0.23992 0.0
C592 C 0.25063 0.9418 0.21381 0.0
H593 H 0.10817 0.80745 0.2541 0.0
H594 H 0.14533 0.84525 0.24009 0.0
C595 C 0.27197 0.96012 0.20188 0.0
C596 C 0.22275 0.92467 0.25184 0.0
H597 H 0.21291 0.86355 0.29058 0.0
C598 C 0.19256 0.92833 0.24402 0.0
C599 C 0.23022 0.90134 0.26908 0.0
C600 C 0.26245 0.89606 0.27758 0.0
C601 C 0.16963 0.90891 0.25267 0.0
C602 C 0.17724 0.88496 0.26925 0.0
C603 C 0.20725 0.88187 0.27773 0.0
C604 C 0.1545 0.86243 0.2776 0.0
C605 C 0.13746 0.91421 0.24399 0.0
C606 C 0.14787 0.85924 0.30332 0.0
C607 C 0.12684 0.83763 0.31136 0.0
C608 C 0.11222 0.8187 0.29379 0.0
C609 C 0.11897 0.82184 0.26802 0.0
C610 C 0.14005 0.8435 0.26 0.0
H611 H 0.13412 0.93782 0.23711 0.0
H612 H 0.13225 0.89853 0.22818 0.0
H613 H 0.12107 0.90973 0.25946 0.0
H614 H 0.15891 0.87356 0.31718 0.0
H615 H 0.12216 0.8357 0.33136 0.0
H616 H 0.12196 0.26614 0.66554 0.0
H617 H 0.15971 0.23004 0.68082 0.0
H618 H 0.147 0.2629 0.75677 0.0
H619 H 0.10864 0.29892 0.74164 0.0
H620 H 0.2138 0.2424 0.70559 0.0
H621 H 0.13786 0.17083 0.76435 0.0
H622 H 0.12361 0.19748 0.74131 0.0
H623 H 0.1363 0.21062 0.77165 0.0
C624 C 0.127 0.26559 0.68554 0.0
C625 C 0.11225 0.28526 0.70245 0.0
C626 C 0.14863 0.24498 0.6942 0.0
C627 C 0.15586 0.24358 0.71992 0.0
C628 C 0.14128 0.26326 0.73689 0.0
H629 H 0.2803 0.14624 0.8129 0.0
H630 H 0.2435 0.18038 0.79375 0.0
C631 C 0.1195 0.28388 0.72824 0.0
C632 C 0.17921 0.22199 0.72877 0.0
H633 H 0.19078 0.16198 0.7683 0.0
C634 C 0.20879 0.22466 0.71918 0.0
C635 C 0.17245 0.19881 0.74634 0.0
C636 C 0.14078 0.19399 0.75637 0.0
C637 C 0.23209 0.20531 0.72735 0.0
C638 C 0.22542 0.18252 0.74528 0.0
C639 C 0.19575 0.17953 0.75453 0.0
C640 C 0.24917 0.16266 0.75599 0.0
C641 C 0.26381 0.20999 0.7174 0.0
C642 C 0.26475 0.14149 0.74098 0.0
C643 C 0.28604 0.12185 0.7519 0.0
C644 C 0.29171 0.12308 0.77797 0.0
C645 C 0.27633 0.14463 0.79276 0.0
C646 C 0.25528 0.16418 0.78188 0.0
H647 H 0.26627 0.23211 0.70751 0.0
H648 H 0.28061 0.20894 0.733 0.0
H649 H 0.26931 0.19163 0.70382 0.0
H650 H 0.25998 0.13972 0.72098 0.0
H651 H 0.29748 0.10534 0.74012 0.0
H652 H 0.97299 0.27138 0.32818 0.0
H653 H 0.93608 0.23434 0.31284 0.0
H654 H 0.9556 0.26061 0.23611 0.0
H655 H 0.99282 0.2977 0.25131 0.0
H656 H 0.884 0.24551 0.28248 0.0
H657 H 0.96571 0.16715 0.2364 0.0
H658 H 0.97727 0.19546 0.2591 0.0
H659 H 0.9692 0.20623 0.22708 0.0
C660 C 0.96953 0.26922 0.30802 0.0
C661 C 0.98587 0.28733 0.2909 0.0
C662 C 0.94841 0.24809 0.29933 0.0
C663 C 0.94344 0.24454 0.27338 0.0
C664 C 0.95953 0.26272 0.25621 0.0
H665 H 0.82857 0.14133 0.17674 0.0
H666 H 0.86508 0.17497 0.19685 0.0
C667 C 0.98065 0.28396 0.2649 0.0
C668 C 0.92096 0.22218 0.26434 0.0
H669 H 0.91343 0.15831 0.22854 0.0
C670 C 0.89038 0.22628 0.27085 0.0
C671 C 0.92952 0.19711 0.24932 0.0
C672 C 0.96223 0.19095 0.24271 0.0
C673 C 0.86787 0.20648 0.26191 0.0
C674 C 0.87638 0.18174 0.24647 0.0
C675 C 0.90705 0.17731 0.24042 0.0
C676 C 0.85368 0.16135 0.23491 0.0
C677 C 0.83512 0.2128 0.26826 0.0
C678 C 0.83521 0.14243 0.24972 0.0
C679 C 0.81413 0.12307 0.23824 0.0
C680 C 0.81144 0.12235 0.21182 0.0
C681 C 0.83008 0.14132 0.19715 0.0
C682 C 0.851 0.16056 0.20858 0.0
H683 H 0.83191 0.23593 0.27619 0.0
H684 H 0.82061 0.21041 0.25124 0.0
H685 H 0.82722 0.19607 0.28249 0.0
H686 H 0.8373 0.14244 0.27009 0.0
H687 H 0.80014 0.10859 0.24997 0.0
loop_
_geom_bond_atom_site_label_1
_geom_bond_atom_site_label_2
_geom_bond_distance
_geom_bond_site_symmetry_2
_ccdc_geom_bond_type
Co0 O1 2.216 . S
Co0 O2 2.091 . S
Co0 O4 2.004 . S
Co0 O10 2.021 . S
Co0 O12 2.137 . S
Co0 O13 2.244 . S
O1 Co0 2.216 . S
O1 C8 1.247 . S
O2 Co0 2.091 . S
O2 C8 1.261 . S
C3 O12 1.247 1_565 S
C3 O13 1.272 1_565 S
O4 Co0 2.004 . S
O4 C9 1.259 . S
Co5 O6 2.061 . S
Co5 O11 2.052 . S
Co5 O13 2.135 . S
O6 Co5 2.061 . S
O6 C9 1.235 . S
C7 O10 1.238 . S
C7 O11 1.241 . S
C8 O1 1.247 . S
C8 O2 1.261 . S
C9 O4 1.259 . S
C9 O6 1.235 . S
O10 Co0 2.021 . S
O10 C7 1.238 . S
O11 Co5 2.052 . S
O11 C7 1.241 . S
O12 Co0 2.137 . S
O12 C3 1.247 1_545 S
O13 Co0 2.244 . S
O13 C3 1.272 1_545 S
O13 Co5 2.135 . S
Co14 O15 2.216 . S
Co14 O16 2.091 . S
Co14 O18 2.004 . S
Co14 O24 2.021 . S
Co14 O26 2.137 . S
Co14 O27 2.244 . S
O15 Co14 2.216 . S
O15 C22 1.247 . S
O16 Co14 2.091 . S
O16 C22 1.261 . S
C17 O26 1.247 . S
C17 O27 1.272 . S
O18 Co14 2.004 . S
O18 C23 1.259 . S
Co19 O20 2.061 . S
Co19 O25 2.052 . S
Co19 O27 2.135 . S
O20 Co19 2.061 . S
O20 C23 1.235 . S
C21 O24 1.238 . S
C21 O25 1.241 . S
C22 O15 1.247 . S
C22 O16 1.261 . S
C23 O18 1.259 . S
C23 O20 1.235 . S
O24 Co14 2.021 . S
O24 C21 1.238 . S
O25 Co19 2.052 . S
O25 C21 1.241 . S
O26 Co14 2.137 . S
O26 C17 1.247 . S
O27 Co14 2.244 . S
O27 C17 1.272 . S
O27 Co19 2.135 . S
Co28 O29 2.216 . S
Co28 O30 2.091 . S
Co28 O32 2.004 . S
Co28 O38 2.021 . S
Co28 O40 2.137 . S
Co28 O41 2.244 . S
O29 Co28 2.216 . S
O29 C36 1.247 . S
O30 Co28 2.091 . S
O30 C36 1.261 . S
C31 O40 1.247 . S
C31 O41 1.272 . S
O32 Co28 2.004 . S
O32 C37 1.259 . S
Co33 O34 2.061 . S
Co33 O39 2.052 . S
Co33 O41 2.135 . S
O34 Co33 2.061 . S
O34 C37 1.235 . S
C35 O38 1.238 . S
C35 O39 1.241 . S
C36 O29 1.247 . S
C36 O30 1.261 . S
C37 O32 1.259 . S
C37 O34 1.235 . S
O38 Co28 2.021 . S
O38 C35 1.238 . S
O39 Co33 2.052 . S
O39 C35 1.241 . S
O40 Co28 2.137 . S
O40 C31 1.247 . S
O41 Co28 2.244 . S
O41 C31 1.272 . S
O41 Co33 2.135 . S
Co42 O43 2.216 . S
Co42 O44 2.091 . S
Co42 O46 2.004 . S
Co42 O52 2.021 . S
Co42 O54 2.137 . S
Co42 O55 2.244 . S
O43 Co42 2.216 . S
O43 C50 1.247 . S
O44 Co42 2.091 . S
O44 C50 1.261 . S
C45 O54 1.247 1_655 S
C45 O55 1.272 1_655 S
O46 Co42 2.004 . S
O46 C51 1.259 . S
Co47 O48 2.061 . S
Co47 O53 2.052 . S
Co47 O55 2.135 . S
O48 Co47 2.061 . S
O48 C51 1.235 . S
C49 O52 1.238 . S
C49 O53 1.241 . S
C50 O43 1.247 . S
C50 O44 1.261 . S
C51 O46 1.259 . S
C51 O48 1.235 . S
O52 Co42 2.021 . S
O52 C49 1.238 . S
O53 Co47 2.052 . S
O53 C49 1.241 . S
O54 Co42 2.137 . S
O54 C45 1.247 1_455 S
O55 Co42 2.244 . S
O55 C45 1.272 1_455 S
O55 Co47 2.135 . S
Co56 O57 2.216 . S
Co56 O58 2.091 . S
Co56 O60 2.004 . S
Co56 O66 2.021 . S
Co56 O68 2.137 . S
Co56 O69 2.244 . S
O57 Co56 2.216 . S
O57 C64 1.247 . S
O58 Co56 2.091 . S
O58 C64 1.261 . S
C59 O68 1.247 . S
C59 O69 1.272 . S
O60 Co56 2.004 . S
O60 C65 1.259 . S
Co61 O62 2.061 . S
Co61 O67 2.052 . S
Co61 O69 2.135 . S
O62 Co61 2.061 . S
O62 C65 1.235 . S
C63 O66 1.238 . S
C63 O67 1.241 . S
C64 O57 1.247 . S
C64 O58 1.261 . S
C65 O60 1.259 . S
C65 O62 1.235 . S
O66 Co56 2.021 . S
O66 C63 1.238 . S
O67 Co61 2.052 . S
O67 C63 1.241 . S
O68 Co56 2.137 . S
O68 C59 1.247 . S
O69 Co56 2.244 . S
O69 C59 1.272 . S
O69 Co61 2.135 . S
Co70 O71 2.216 . S
Co70 O72 2.091 . S
Co70 O74 2.004 . S
Co70 O80 2.021 . S
Co70 O82 2.137 . S
Co70 O83 2.244 . S
O71 Co70 2.216 . S
O71 C78 1.247 . S
O72 Co70 2.091 . S
O72 C78 1.261 . S
C73 O82 1.247 1_655 S
C73 O83 1.272 1_655 S
O74 Co70 2.004 . S
O74 C79 1.259 . S
Co75 O76 2.061 . S
Co75 O81 2.052 . S
Co75 O83 2.135 . S
O76 Co75 2.061 . S
O76 C79 1.235 . S
C77 O80 1.238 . S
C77 O81 1.241 . S
C78 O71 1.247 . S
C78 O72 1.261 . S
C79 O74 1.259 . S
C79 O76 1.235 . S
O80 Co70 2.021 . S
O80 C77 1.238 . S
O81 Co75 2.052 . S
O81 C77 1.241 . S
O82 Co70 2.137 . S
O82 C73 1.247 1_455 S
O83 Co70 2.244 . S
O83 C73 1.272 1_455 S
O83 Co75 2.135 . S
Co84 O85 2.216 . S
Co84 O86 2.091 . S
Co84 O88 2.004 . S
Co84 O94 2.021 . S
Co84 O96 2.137 . S
Co84 O97 2.244 . S
O85 Co84 2.216 . S
O85 C92 1.247 . S
O86 Co84 2.091 . S
O86 C92 1.261 . S
C87 O96 1.247 1_565 S
C87 O97 1.272 1_565 S
O88 Co84 2.004 . S
O88 C93 1.259 . S
Co89 O90 2.061 . S
Co89 O95 2.052 . S
Co89 O97 2.135 . S
O90 Co89 2.061 . S
O90 C93 1.235 . S
C91 O94 1.238 . S
C91 O95 1.241 . S
C92 O85 1.247 . S
C92 O86 1.261 . S
C93 O88 1.259 . S
C93 O90 1.235 . S
O94 Co84 2.021 . S
O94 C91 1.238 . S
O95 Co89 2.052 . S
O95 C91 1.241 . S
O96 Co84 2.137 . S
O96 C87 1.247 1_545 S
O97 Co84 2.244 . S
O97 C87 1.272 1_545 S
O97 Co89 2.135 . S
Co98 O99 2.216 . S
Co98 O100 2.091 . S
Co98 O102 2.004 . S
Co98 O108 2.021 . S
Co98 O110 2.137 . S
Co98 O111 2.244 . S
O99 Co98 2.216 . S
O99 C106 1.247 . S
O100 Co98 2.091 . S
O100 C106 1.261 . S
C101 O110 1.247 . S
C101 O111 1.272 . S
O102 Co98 2.004 . S
O102 C107 1.259 . S
Co103 O104 2.061 . S
Co103 O109 2.052 . S
Co103 O111 2.135 . S
O104 Co103 2.061 . S
O104 C107 1.235 . S
C105 O108 1.238 . S
C105 O109 1.241 . S
C106 O99 1.247 . S
C106 O100 1.261 . S
C107 O102 1.259 . S
C107 O104 1.235 . S
O108 Co98 2.021 . S
O108 C105 1.238 . S
O109 Co103 2.052 . S
O109 C105 1.241 . S
O110 Co98 2.137 . S
O110 C101 1.247 . S
O111 Co98 2.244 . S
O111 C101 1.272 . S
O111 Co103 2.135 . S
H112 C120 0.929 . S
H113 C122 0.930 . S
H114 C124 0.930 . S
H115 C127 0.929 . S
H116 C130 0.930 . S
H117 C132 0.960 . S
H118 C132 0.960 . S
H119 C132 0.960 . S
C120 H112 0.929 . S
C120 C121 1.377 . S
C120 C122 1.384 . S
C121 C120 1.377 . S
C121 C127 1.390 . S
C122 H113 0.930 . S
C122 C120 1.384 . S
C122 C123 1.372 . S
C123 C122 1.372 . S
C123 C124 1.400 . S
C123 C128 1.490 . S
C124 H114 0.930 . S
C124 C123 1.400 . S
C124 C127 1.386 . S
H125 C141 0.930 . S
H126 C142 0.931 . S
C127 H115 0.929 . S
C127 C121 1.390 . S
C127 C124 1.386 . S
C128 C123 1.490 . S
C128 C130 1.395 . S
C128 C131 1.403 . S
H129 C135 0.930 . S
C130 H116 0.930 . S
C130 C128 1.395 . S
C130 C133 1.403 1_554 S
C131 C128 1.403 . S
C131 C132 1.524 . S
C131 C135 1.400 1_554 S
C132 H117 0.960 . S
C132 H118 0.960 . S
C132 H119 0.960 . S
C132 C131 1.524 . S
C133 C130 1.403 1_556 S
C133 C134 1.392 . S
C133 C137 1.495 1_545 S
C134 C133 1.392 . S
C134 C135 1.385 . S
C134 C136 1.478 . S
C135 H129 0.930 . S
C135 C131 1.400 1_556 S
C135 C134 1.385 . S
C136 C134 1.478 . S
C136 C138 1.381 . S
C136 C142 1.383 . S
C137 C133 1.495 1_565 S
C137 H143 0.959 . S
C137 H144 0.961 . S
C137 H145 0.960 . S
C138 C136 1.381 . S
C138 C139 1.394 . S
C138 H146 0.930 . S
C139 C138 1.394 . S
C139 C140 1.383 . S
C139 H147 0.929 . S
C140 C139 1.383 . S
C140 C141 1.377 . S
C141 H125 0.930 . S
C141 C140 1.377 . S
C141 C142 1.379 . S
C142 H126 0.931 . S
C142 C136 1.383 . S
C142 C141 1.379 . S
H143 C137 0.959 . S
H144 C137 0.961 . S
H145 C137 0.960 . S
H146 C138 0.930 . S
H147 C139 0.929 . S
H148 C156 0.929 . S
H149 C158 0.930 . S
H150 C160 0.930 . S
H151 C163 0.929 . S
H152 C166 0.930 . S
H153 C168 0.960 1_655 S
H154 C168 0.960 1_655 S
H155 C168 0.960 . S
C156 H148 0.929 . S
C156 C157 1.377 . S
C156 C158 1.384 . S
C157 C156 1.377 . S
C157 C163 1.390 . S
C158 H149 0.930 . S
C158 C156 1.384 . S
C158 C159 1.372 . S
C159 C158 1.372 . S
C159 C160 1.400 . S
C159 C164 1.490 . S
C160 H150 0.930 . S
C160 C159 1.400 . S
C160 C163 1.386 . S
H161 C177 0.930 . S
H162 C178 0.931 . S
C163 H151 0.929 . S
C163 C157 1.390 . S
C163 C160 1.386 . S
C164 C159 1.490 . S
C164 C166 1.395 . S
C164 C167 1.403 . S
H165 C171 0.930 . S
C166 H152 0.930 . S
C166 C164 1.395 . S
C166 C169 1.403 . S
C167 C164 1.403 . S
C167 C168 1.524 . S
C167 C171 1.400 . S
C168 H153 0.960 1_455 S
C168 H154 0.960 1_455 S
C168 H155 0.960 . S
C168 C167 1.524 . S
C169 C166 1.403 . S
C169 C170 1.392 . S
C169 C173 1.495 . S
C170 C169 1.392 . S
C170 C171 1.385 . S
C170 C172 1.478 . S
C171 H165 0.930 . S
C171 C167 1.400 . S
C171 C170 1.385 . S
C172 C170 1.478 . S
C172 C174 1.381 . S
C172 C178 1.383 . S
C173 C169 1.495 . S
C173 H179 0.959 . S
C173 H180 0.961 . S
C173 H181 0.960 . S
C174 C172 1.381 . S
C174 C175 1.394 . S
C174 H182 0.930 . S
C175 C174 1.394 . S
C175 C176 1.383 . S
C175 H183 0.929 . S
C176 C175 1.383 . S
C176 C177 1.377 . S
C177 H161 0.930 . S
C177 C176 1.377 . S
C177 C178 1.379 . S
C178 H162 0.931 . S
C178 C172 1.383 . S
C178 C177 1.379 . S
H179 C173 0.959 . S
H180 C173 0.961 . S
H181 C173 0.960 . S
H182 C174 0.930 . S
H183 C175 0.929 . S
H184 C192 0.929 . S
H185 C194 0.930 . S
H186 C196 0.930 . S
H187 C199 0.929 . S
H188 C202 0.930 . S
H189 C204 0.960 . S
H190 C204 0.960 . S
H191 C204 0.960 . S
C192 H184 0.929 . S
C192 C193 1.377 . S
C192 C194 1.384 . S
C193 C192 1.377 . S
C193 C199 1.390 . S
C194 H185 0.930 . S
C194 C192 1.384 . S
C194 C195 1.372 . S
C195 C194 1.372 . S
C195 C196 1.400 . S
C195 C200 1.490 . S
C196 H186 0.930 . S
C196 C195 1.400 . S
C196 C199 1.386 . S
H197 C213 0.930 . S
H198 C214 0.931 . S
C199 H187 0.929 . S
C199 C193 1.390 . S
C199 C196 1.386 . S
C200 C195 1.490 . S
C200 C202 1.395 . S
C200 C203 1.403 . S
H201 C207 0.930 . S
C202 H188 0.930 . S
C202 C200 1.395 . S
C202 C205 1.403 1_556 S
C203 C200 1.403 . S
C203 C204 1.524 . S
C203 C207 1.400 1_556 S
C204 H189 0.960 . S
C204 H190 0.960 . S
C204 H191 0.960 . S
C204 C203 1.524 . S
C205 C202 1.403 1_554 S
C205 C206 1.392 . S
C205 C209 1.495 . S
C206 C205 1.392 . S
C206 C207 1.385 . S
C206 C208 1.478 . S
C207 H201 0.930 . S
C207 C203 1.400 1_554 S
C207 C206 1.385 . S
C208 C206 1.478 . S
C208 C210 1.381 . S
C208 C214 1.383 . S
C209 C205 1.495 . S
C209 H215 0.959 . S
C209 H216 0.961 . S
C209 H217 0.960 . S
C210 C208 1.381 . S
C210 C211 1.394 . S
C210 H218 0.930 . S
C211 C210 1.394 . S
C211 C212 1.383 . S
C211 H219 0.929 . S
C212 C211 1.383 . S
C212 C213 1.377 . S
C213 H197 0.930 . S
C213 C212 1.377 . S
C213 C214 1.379 . S
C214 H198 0.931 . S
C214 C208 1.383 . S
C214 C213 1.379 . S
H215 C209 0.959 . S
H216 C209 0.961 . S
H217 C209 0.960 . S
H218 C210 0.930 . S
H219 C211 0.929 . S
H220 C228 0.929 . S
H221 C230 0.930 . S
H222 C232 0.930 . S
H223 C235 0.929 . S
H224 C238 0.930 . S
H225 C240 0.960 . S
H226 C240 0.960 . S
H227 C240 0.960 . S
C228 H220 0.929 . S
C228 C229 1.377 . S
C228 C230 1.384 . S
C229 C228 1.377 . S
C229 C235 1.390 . S
C230 H221 0.930 . S
C230 C228 1.384 . S
C230 C231 1.372 . S
C231 C230 1.372 . S
C231 C232 1.400 . S
C231 C236 1.490 . S
C232 H222 0.930 . S
C232 C231 1.400 . S
C232 C235 1.386 . S
H233 C249 0.930 . S
H234 C250 0.931 . S
C235 H223 0.929 . S
C235 C229 1.390 . S
C235 C232 1.386 . S
C236 C231 1.490 . S
C236 C238 1.395 . S
C236 C239 1.403 . S
H237 C243 0.930 . S
C238 H224 0.930 . S
C238 C236 1.395 . S
C238 C241 1.403 . S
C239 C236 1.403 . S
C239 C240 1.524 . S
C239 C243 1.400 . S
C240 H225 0.960 . S
C240 H226 0.960 . S
C240 H227 0.960 . S
C240 C239 1.524 . S
C241 C238 1.403 . S
C241 C242 1.392 . S
C241 C245 1.495 1_455 S
C242 C241 1.392 . S
C242 C243 1.385 . S
C242 C244 1.478 . S
C243 H237 0.930 . S
C243 C239 1.400 . S
C243 C242 1.385 . S
C244 C242 1.478 . S
C244 C246 1.381 . S
C244 C250 1.383 . S
C245 C241 1.495 1_655 S
C245 H251 0.959 . S
C245 H252 0.961 . S
C245 H253 0.960 . S
C246 C244 1.381 . S
C246 C247 1.394 . S
C246 H254 0.930 . S
C247 C246 1.394 . S
C247 C248 1.383 . S
C247 H255 0.929 . S
C248 C247 1.383 . S
C248 C249 1.377 . S
C249 H233 0.930 . S
C249 C248 1.377 . S
C249 C250 1.379 . S
C250 H234 0.931 . S
C250 C244 1.383 . S
C250 C249 1.379 . S
H251 C245 0.959 . S
H252 C245 0.961 . S
H253 C245 0.960 . S
H254 C246 0.930 . S
H255 C247 0.929 . S
H256 C264 0.929 . S
H257 C266 0.930 . S
H258 C268 0.930 . S
H259 C271 0.925 1_565 S
H260 C274 0.930 . S
H261 C276 0.960 . S
H262 C276 0.960 . S
H263 C276 0.960 . S
C264 H256 0.929 . S
C264 C265 1.377 . S
C264 C266 1.384 . S
C265 C264 1.377 . S
C265 C271 1.390 . S
C266 H257 0.930 . S
C266 C264 1.384 . S
C266 C267 1.372 . S
C267 C266 1.372 . S
C267 C268 1.400 . S
C267 C272 1.490 . S
C268 H258 0.930 . S
C268 C267 1.400 . S
C268 C271 1.386 . S
H269 C285 0.930 . S
H270 C286 0.931 . S
C271 H259 0.925 1_545 S
C271 C265 1.390 . S
C271 C268 1.386 . S
C272 C267 1.490 . S
C272 C274 1.395 . S
C272 C275 1.403 . S
H273 C279 0.930 . S
C274 H260 0.930 . S
C274 C272 1.395 . S
C274 C277 1.403 . S
C275 C272 1.403 . S
C275 C276 1.524 1_545 S
C275 C279 1.400 . S
C276 H261 0.960 . S
C276 H262 0.960 . S
C276 H263 0.960 . S
C276 C275 1.524 1_565 S
C277 C274 1.403 . S
C277 C278 1.392 . S
C277 C281 1.495 . S
C278 C277 1.392 . S
C278 C279 1.385 . S
C278 C280 1.478 . S
C279 H273 0.930 . S
C279 C275 1.400 . S
C279 C278 1.385 . S
C280 C278 1.478 . S
C280 C282 1.381 . S
C280 C286 1.383 . S
C281 C277 1.495 . S
C281 H287 0.959 . S
C281 H288 0.961 . S
C281 H289 0.960 . S
C282 C280 1.381 . S
C282 C283 1.394 . S
C282 H290 0.930 . S
C283 C282 1.394 . S
C283 C284 1.383 . S
C283 H291 0.929 . S
C284 C283 1.383 . S
C284 C285 1.377 . S
C285 H269 0.930 . S
C285 C284 1.377 . S
C285 C286 1.379 . S
C286 H270 0.931 . S
C286 C280 1.383 . S
C286 C285 1.379 . S
H287 C281 0.959 . S
H288 C281 0.961 . S
H289 C281 0.960 . S
H290 C282 0.930 . S
H291 C283 0.929 . S
H292 C300 0.929 . S
H293 C302 0.930 . S
H294 C304 0.930 . S
H295 C307 0.929 . S
H296 C310 0.930 . S
H297 C312 0.939 1_655 S
H298 C312 0.957 1_655 S
H299 C312 0.963 . S
C300 H292 0.929 . S
C300 C301 1.377 . S
C300 C302 1.384 . S
C301 C300 1.377 . S
C301 C307 1.390 . S
C302 H293 0.930 . S
C302 C300 1.384 . S
C302 C303 1.372 . S
C303 C302 1.372 . S
C303 C304 1.400 . S
C303 C308 1.490 . S
C304 H294 0.930 . S
C304 C303 1.400 . S
C304 C307 1.386 . S
H305 C321 0.930 . S
H306 C322 0.931 . S
C307 H295 0.929 . S
C307 C301 1.390 . S
C307 C304 1.386 . S
C308 C303 1.490 . S
C308 C310 1.395 . S
C308 C311 1.403 . S
H309 C315 0.930 . S
C310 H296 0.930 . S
C310 C308 1.395 . S
C310 C313 1.403 . S
C311 C308 1.403 . S
C311 C312 1.546 . S
C311 C315 1.400 . S
C312 H297 0.939 1_455 S
C312 H298 0.957 1_455 S
C312 H299 0.963 . S
C312 C311 1.546 . S
C313 C310 1.403 . S
C313 C314 1.392 . S
C313 C317 1.495 . S
C314 C313 1.392 . S
C314 C315 1.385 . S
C314 C316 1.478 . S
C315 H309 0.930 . S
C315 C311 1.400 . S
C315 C314 1.385 . S
C316 C314 1.478 . S
C316 C318 1.381 . S
C316 C322 1.383 . S
C317 C313 1.495 . S
C317 H323 0.959 . S
C317 H324 0.961 . S
C317 H325 0.960 . S
C318 C316 1.381 . S
C318 C319 1.394 . S
C318 H326 0.930 . S
C319 C318 1.394 . S
C319 C320 1.383 . S
C319 H327 0.929 . S
C320 C319 1.383 . S
C320 C321 1.377 . S
C321 H305 0.930 . S
C321 C320 1.377 . S
C321 C322 1.379 . S
C322 H306 0.931 . S
C322 C316 1.383 . S
C322 C321 1.379 . S
H323 C317 0.959 . S
H324 C317 0.961 . S
H325 C317 0.960 . S
H326 C318 0.930 . S
H327 C319 0.929 . S
H328 C336 0.929 . S
H329 C338 0.930 . S
H330 C340 0.930 1_565 S
H331 C343 0.929 1_565 S
H332 C346 0.930 . S
H333 C348 0.960 . S
H334 C348 0.960 . S
H335 C348 0.960 . S
C336 H328 0.929 . S
C336 C337 1.377 . S
C336 C338 1.384 . S
C337 C336 1.377 . S
C337 C343 1.390 . S
C338 H329 0.930 . S
C338 C336 1.384 . S
C338 C339 1.372 . S
C339 C338 1.372 . S
C339 C340 1.400 . S
C339 C344 1.490 . S
C340 H330 0.930 1_545 S
C340 C339 1.400 . S
C340 C343 1.386 . S
H341 C357 0.930 . S
H342 C358 0.931 . S
C343 H331 0.929 1_545 S
C343 C337 1.390 . S
C343 C340 1.386 . S
C344 C339 1.490 . S
C344 C346 1.395 . S
C344 C347 1.403 . S
H345 C351 0.930 . S
C346 H332 0.930 . S
C346 C344 1.395 . S
C346 C349 1.403 . S
C347 C344 1.403 . S
C347 C348 1.524 . S
C347 C351 1.400 . S
C348 H333 0.960 . S
C348 H334 0.960 . S
C348 H335 0.960 . S
C348 C347 1.524 . S
C349 C346 1.403 . S
C349 C350 1.392 . S
C349 C353 1.495 . S
C350 C349 1.392 . S
C350 C351 1.385 . S
C350 C352 1.478 . S
C351 H345 0.930 . S
C351 C347 1.400 . S
C351 C350 1.385 . S
C352 C350 1.478 . S
C352 C354 1.381 . S
C352 C358 1.383 . S
C353 C349 1.495 . S
C353 H359 0.959 . S
C353 H360 0.961 . S
C353 H361 0.960 . S
C354 C352 1.381 . S
C354 C355 1.394 . S
C354 H362 0.930 . S
C355 C354 1.394 . S
C355 C356 1.383 . S
C355 H363 0.929 . S
C356 C355 1.383 . S
C356 C357 1.377 . S
C357 H341 0.930 . S
C357 C356 1.377 . S
C357 C358 1.379 . S
C358 H342 0.931 . S
C358 C352 1.383 . S
C358 C357 1.379 . S
H359 C353 0.959 . S
H360 C353 0.961 . S
H361 C353 0.960 . S
H362 C354 0.930 . S
H363 C355 0.929 . S
H364 C372 0.929 . S
H365 C374 0.930 . S
H366 C376 0.930 . S
H367 C379 0.929 . S
H368 C382 0.930 . S
H369 C384 0.960 . S
H370 C384 0.960 . S
H371 C384 0.960 . S
C372 H364 0.929 . S
C372 C373 1.377 . S
C372 C374 1.384 . S
C373 C372 1.377 . S
C373 C379 1.390 . S
C374 H365 0.930 . S
C374 C372 1.384 . S
C374 C375 1.372 . S
C375 C374 1.372 . S
C375 C376 1.400 . S
C375 C380 1.490 . S
C376 H366 0.930 . S
C376 C375 1.400 . S
C376 C379 1.386 . S
H377 C393 0.930 . S
H378 C394 0.931 . S
C379 H367 0.929 . S
C379 C373 1.390 . S
C379 C376 1.386 . S
C380 C375 1.490 . S
C380 C382 1.395 . S
C380 C383 1.403 . S
H381 C387 0.930 . S
C382 H368 0.930 . S
C382 C380 1.395 . S
C382 C385 1.403 . S
C383 C380 1.403 . S
C383 C384 1.524 . S
C383 C387 1.400 . S
C384 H369 0.960 . S
C384 H370 0.960 . S
C384 H371 0.960 . S
C384 C383 1.524 . S
C385 C382 1.403 . S
C385 C386 1.392 . S
C385 C389 1.495 . S
C386 C385 1.392 . S
C386 C387 1.385 . S
C386 C388 1.478 . S
C387 H381 0.930 . S
C387 C383 1.400 . S
C387 C386 1.385 . S
C388 C386 1.478 . S
C388 C390 1.381 . S
C388 C394 1.383 . S
C389 C385 1.495 . S
C389 H395 0.959 1_455 S
C389 H396 0.961 1_455 S
C389 H397 0.960 . S
C390 C388 1.381 . S
C390 C391 1.394 . S
C390 H398 0.930 . S
C391 C390 1.394 . S
C391 C392 1.383 . S
C391 H399 0.929 . S
C392 C391 1.383 . S
C392 C393 1.377 . S
C393 H377 0.930 . S
C393 C392 1.377 . S
C393 C394 1.379 . S
C394 H378 0.931 . S
C394 C388 1.383 . S
C394 C393 1.379 . S
H395 C389 0.959 1_655 S
H396 C389 0.961 1_655 S
H397 C389 0.960 . S
H398 C390 0.930 . S
H399 C391 0.929 . S
H400 C408 0.929 . S
H401 C410 0.930 . S
H402 C412 0.930 . S
H403 C415 0.929 . S
H404 C418 0.930 . S
H405 C420 0.960 . S
H406 C420 0.960 . S
H407 C420 0.960 . S
C408 H400 0.929 . S
C408 C409 1.377 . S
C408 C410 1.384 . S
C409 C408 1.377 . S
C409 C415 1.390 . S
C410 H401 0.930 . S
C410 C408 1.384 . S
C410 C411 1.372 . S
C411 C410 1.372 . S
C411 C412 1.400 . S
C411 C416 1.490 . S
C412 H402 0.930 . S
C412 C411 1.400 . S
C412 C415 1.386 . S
H413 C429 0.930 . S
H414 C430 0.931 . S
C415 H403 0.929 . S
C415 C409 1.390 . S
C415 C412 1.386 . S
C416 C411 1.490 . S
C416 C418 1.395 . S
C416 C419 1.403 . S
H417 C423 0.930 . S
C418 H404 0.930 . S
C418 C416 1.395 . S
C418 C421 1.403 . S
C419 C416 1.403 . S
C419 C420 1.524 . S
C419 C423 1.400 . S
C420 H405 0.960 . S
C420 H406 0.960 . S
C420 H407 0.960 . S
C420 C419 1.524 . S
C421 C418 1.403 . S
C421 C422 1.392 . S
C421 C425 1.495 . S
C422 C421 1.392 . S
C422 C423 1.385 . S
C422 C424 1.478 . S
C423 H417 0.930 . S
C423 C419 1.400 . S
C423 C422 1.385 . S
C424 C422 1.478 . S
C424 C426 1.381 . S
C424 C430 1.383 . S
C425 C421 1.495 . S
C425 H431 0.959 . S
C425 H432 0.961 . S
C425 H433 0.960 . S
C426 C424 1.381 . S
C426 C427 1.394 . S
C426 H434 0.930 . S
C427 C426 1.394 . S
C427 C428 1.383 . S
C427 H435 0.929 . S
C428 C427 1.383 . S
C428 C429 1.377 . S
C429 H413 0.930 . S
C429 C428 1.377 . S
C429 C430 1.379 . S
C430 H414 0.931 . S
C430 C424 1.383 . S
C430 C429 1.379 . S
H431 C425 0.959 . S
H432 C425 0.961 . S
H433 C425 0.960 . S
H434 C426 0.930 . S
H435 C427 0.929 . S
H436 C444 0.929 . S
H437 C446 0.930 . S
H438 C448 0.930 . S
H439 C451 0.929 . S
H440 C454 0.930 . S
H441 C456 0.960 . S
H442 C456 0.960 . S
H443 C456 0.960 . S
C444 H436 0.929 . S
C444 C445 1.377 . S
C444 C446 1.384 . S
C445 C444 1.377 . S
C445 C451 1.390 1_655 S
C446 H437 0.930 . S
C446 C444 1.384 . S
C446 C447 1.372 . S
C447 C446 1.372 . S
C447 C448 1.400 . S
C447 C452 1.490 . S
C448 H438 0.930 . S
C448 C447 1.400 . S
C448 C451 1.386 1_655 S
H449 C465 0.930 . S
H450 C466 0.931 . S
C451 H439 0.929 . S
C451 C445 1.390 1_455 S
C451 C448 1.386 1_455 S
C452 C447 1.490 . S
C452 C454 1.395 . S
C452 C455 1.403 . S
H453 C459 0.930 . S
C454 H440 0.930 . S
C454 C452 1.395 . S
C454 C457 1.403 . S
C455 C452 1.403 . S
C455 C456 1.524 . S
C455 C459 1.400 . S
C456 H441 0.960 . S
C456 H442 0.960 . S
C456 H443 0.960 . S
C456 C455 1.524 . S
C457 C454 1.403 . S
C457 C458 1.392 . S
C457 C461 1.495 . S
C458 C457 1.392 . S
C458 C459 1.385 . S
C458 C460 1.478 . S
C459 H453 0.930 . S
C459 C455 1.400 . S
C459 C458 1.385 . S
C460 C458 1.478 . S
C460 C462 1.381 . S
C460 C466 1.383 . S
C461 C457 1.495 . S
C461 H467 0.959 . S
C461 H468 0.961 . S
C461 H469 0.960 . S
C462 C460 1.381 . S
C462 C463 1.394 . S
C462 H470 0.930 . S
C463 C462 1.394 . S
C463 C464 1.383 . S
C463 H471 0.929 . S
C464 C463 1.383 . S
C464 C465 1.377 . S
C465 H449 0.930 . S
C465 C464 1.377 . S
C465 C466 1.379 . S
C466 H450 0.931 . S
C466 C460 1.383 . S
C466 C465 1.379 . S
H467 C461 0.959 . S
H468 C461 0.961 . S
H469 C461 0.960 . S
H470 C462 0.930 . S
H471 C463 0.929 . S
H472 C480 0.929 . S
H473 C482 0.930 . S
H474 C484 0.930 . S
H475 C487 0.921 1_455 S
H476 C490 0.930 . S
H477 C492 0.960 . S
H478 C492 0.960 . S
H479 C492 0.960 . S
C480 H472 0.929 . S
C480 C481 1.377 . S
C480 C482 1.384 . S
C481 C480 1.377 . S
C481 C487 1.390 . S
C482 H473 0.930 . S
C482 C480 1.384 . S
C482 C483 1.372 . S
C483 C482 1.372 . S
C483 C484 1.400 . S
C483 C488 1.490 . S
C484 H474 0.930 . S
C484 C483 1.400 . S
C484 C487 1.386 . S
H485 C501 0.930 . S
H486 C502 0.931 . S
C487 H475 0.921 1_655 S
C487 C481 1.390 . S
C487 C484 1.386 . S
C488 C483 1.490 . S
C488 C490 1.395 . S
C488 C491 1.403 . S
H489 C495 0.930 . S
C490 H476 0.930 . S
C490 C488 1.395 . S
C490 C493 1.403 . S
C491 C488 1.403 . S
C491 C492 1.524 . S
C491 C495 1.400 . S
C492 H477 0.960 . S
C492 H478 0.960 . S
C492 H479 0.960 . S
C492 C491 1.524 . S
C493 C490 1.403 . S
C493 C494 1.392 . S
C493 C497 1.495 . S
C494 C493 1.392 . S
C494 C495 1.385 . S
C494 C496 1.478 . S
C495 H489 0.930 . S
C495 C491 1.400 . S
C495 C494 1.385 . S
C496 C494 1.478 . S
C496 C498 1.381 . S
C496 C502 1.383 . S
C497 C493 1.495 . S
C497 H503 0.959 . S
C497 H504 0.961 . S
C497 H505 0.960 . S
C498 C496 1.381 . S
C498 C499 1.372 1_565 S
C498 H506 0.930 . S
C499 C498 1.372 1_545 S
C499 C500 1.384 . S
C499 H507 0.952 . S
C500 C499 1.384 . S
C500 C501 1.377 1_545 S
C501 H485 0.930 . S
C501 C500 1.377 1_565 S
C501 C502 1.379 . S
C502 H486 0.931 . S
C502 C496 1.383 . S
C502 C501 1.379 . S
H503 C497 0.959 . S
H504 C497 0.961 . S
H505 C497 0.960 . S
H506 C498 0.930 . S
H507 C499 0.952 . S
H508 C516 0.929 . S
H509 C518 0.930 . S
H510 C520 0.930 . S
H511 C523 0.929 . S
H512 C526 0.930 . S
H513 C528 0.960 . S
H514 C528 0.960 . S
H515 C528 0.960 . S
C516 H508 0.929 . S
C516 C517 1.377 . S
C516 C518 1.384 . S
C517 C516 1.377 . S
C517 C523 1.390 . S
C518 H509 0.930 . S
C518 C516 1.384 . S
C518 C519 1.372 . S
C519 C518 1.372 . S
C519 C520 1.400 . S
C519 C524 1.490 . S
C520 H510 0.930 . S
C520 C519 1.400 . S
C520 C523 1.386 . S
H521 C537 0.930 . S
H522 C538 0.931 . S
C523 H511 0.929 . S
C523 C517 1.390 . S
C523 C520 1.386 . S
C524 C519 1.490 . S
C524 C526 1.395 . S
C524 C527 1.403 . S
H525 C531 0.930 . S
C526 H512 0.930 . S
C526 C524 1.395 . S
C526 C529 1.403 . S
C527 C524 1.403 . S
C527 C528 1.524 . S
C527 C531 1.400 . S
C528 H513 0.960 . S
C528 H514 0.960 . S
C528 H515 0.960 . S
C528 C527 1.524 . S
C529 C526 1.403 . S
C529 C530 1.392 . S
C529 C533 1.495 . S
C530 C529 1.392 . S
C530 C531 1.385 . S
C530 C532 1.478 . S
C531 H525 0.930 . S
C531 C527 1.400 . S
C531 C530 1.385 . S
C532 C530 1.478 . S
C532 C534 1.381 . S
C532 C538 1.383 . S
C533 C529 1.495 . S
C533 H539 0.959 . S
C533 H540 0.961 . S
C533 H541 0.960 . S
C534 C532 1.381 . S
C534 C535 1.394 1_565 S
C534 H542 0.930 . S
C535 C534 1.394 1_545 S
C535 C536 1.389 . S
C535 H543 0.929 . S
C536 C535 1.389 . S
C536 C537 1.350 1_545 S
C537 H521 0.930 . S
C537 C536 1.350 1_565 S
C537 C538 1.379 . S
C538 H522 0.931 . S
C538 C532 1.383 . S
C538 C537 1.379 . S
H539 C533 0.959 . S
H540 C533 0.961 . S
H541 C533 0.960 . S
H542 C534 0.930 . S
H543 C535 0.929 . S
H544 C552 0.929 . S
H545 C554 0.930 . S
H546 C556 0.930 . S
H547 C559 0.929 . S
H548 C562 0.930 . S
H549 C564 0.960 . S
H550 C564 0.960 . S
H551 C564 0.960 . S
C552 H544 0.929 . S
C552 C553 1.377 . S
C552 C554 1.384 . S
C553 C552 1.377 . S
C553 C559 1.390 . S
C554 H545 0.930 . S
C554 C552 1.384 . S
C554 C555 1.372 . S
C555 C554 1.372 . S
C555 C556 1.400 . S
C555 C560 1.490 . S
C556 H546 0.930 . S
C556 C555 1.400 . S
C556 C559 1.386 . S
H557 C573 0.930 . S
H558 C574 0.931 . S
C559 H547 0.929 . S
C559 C553 1.390 . S
C559 C556 1.386 . S
C560 C555 1.490 . S
C560 C562 1.395 . S
C560 C563 1.403 . S
H561 C567 0.930 . S
C562 H548 0.930 . S
C562 C560 1.395 . S
C562 C565 1.403 . S
C563 C560 1.403 . S
C563 C564 1.524 . S
C563 C567 1.400 . S
C564 H549 0.960 . S
C564 H550 0.960 . S
C564 H551 0.960 . S
C564 C563 1.524 . S
C565 C562 1.403 . S
C565 C566 1.392 . S
C565 C569 1.495 . S
C566 C565 1.392 . S
C566 C567 1.385 . S
C566 C568 1.478 . S
C567 H561 0.930 . S
C567 C563 1.400 . S
C567 C566 1.385 . S
C568 C566 1.478 . S
C568 C570 1.381 . S
C568 C574 1.383 . S
C569 C565 1.495 . S
C569 H575 0.959 . S
C569 H576 0.961 . S
C569 H577 0.960 . S
C570 C568 1.381 . S
C570 C571 1.394 . S
C570 H578 0.930 . S
C571 C570 1.394 . S
C571 C572 1.383 . S
C571 H579 0.929 . S
C572 C571 1.383 . S
C572 C573 1.377 . S
C573 H557 0.930 . S
C573 C572 1.377 . S
C573 C574 1.379 . S
C574 H558 0.931 . S
C574 C568 1.383 . S
C574 C573 1.379 . S
H575 C569 0.959 . S
H576 C569 0.961 . S
H577 C569 0.960 . S
H578 C570 0.930 . S
H579 C571 0.929 . S
H580 C588 0.929 1_545 S
H581 C590 0.930 . S
H582 C592 0.930 . S
H583 C595 0.929 . S
H584 C598 0.930 . S
H585 C600 0.960 . S
H586 C600 0.960 . S
H587 C600 0.960 . S
C588 H580 0.929 1_565 S
C588 C589 1.377 . S
C588 C590 1.384 . S
C589 C588 1.377 . S
C589 C595 1.390 . S
C590 H581 0.930 . S
C590 C588 1.384 . S
C590 C591 1.372 . S
C591 C590 1.372 . S
C591 C592 1.400 . S
C591 C596 1.490 . S
C592 H582 0.930 . S
C592 C591 1.400 . S
C592 C595 1.386 . S
H593 C609 0.930 . S
H594 C610 0.931 . S
C595 H583 0.929 . S
C595 C589 1.390 . S
C595 C592 1.386 . S
C596 C591 1.490 . S
C596 C598 1.395 . S
C596 C599 1.403 . S
H597 C603 0.930 . S
C598 H584 0.930 . S
C598 C596 1.395 . S
C598 C601 1.403 . S
C599 C596 1.403 . S
C599 C600 1.524 . S
C599 C603 1.400 . S
C600 H585 0.960 . S
C600 H586 0.960 . S
C600 H587 0.960 . S
C600 C599 1.524 . S
C601 C598 1.403 . S
C601 C602 1.392 . S
C601 C605 1.495 . S
C602 C601 1.392 . S
C602 C603 1.385 . S
C602 C604 1.478 . S
C603 H597 0.930 . S
C603 C599 1.400 . S
C603 C602 1.385 . S
C604 C602 1.478 . S
C604 C606 1.381 . S
C604 C610 1.383 . S
C605 C601 1.495 . S
C605 H611 0.959 . S
C605 H612 0.961 . S
C605 H613 0.960 . S
C606 C604 1.381 . S
C606 C607 1.394 . S
C606 H614 0.930 . S
C607 C606 1.394 . S
C607 C608 1.383 . S
C607 H615 0.929 . S
C608 C607 1.383 . S
C608 C609 1.377 . S
C609 H593 0.930 . S
C609 C608 1.377 . S
C609 C610 1.379 . S
C610 H594 0.931 . S
C610 C604 1.383 . S
C610 C609 1.379 . S
H611 C605 0.959 . S
H612 C605 0.961 . S
H613 C605 0.960 . S
H614 C606 0.930 . S
H615 C607 0.929 . S
H616 C624 0.929 . S
H617 C626 0.930 . S
H618 C628 0.930 . S
H619 C631 0.929 . S
H620 C634 0.930 . S
H621 C636 0.960 . S
H622 C636 0.960 . S
H623 C636 0.960 . S
C624 H616 0.929 . S
C624 C625 1.377 . S
C624 C626 1.384 . S
C625 C624 1.377 . S
C625 C631 1.390 . S
C626 H617 0.930 . S
C626 C624 1.384 . S
C626 C627 1.372 . S
C627 C626 1.372 . S
C627 C628 1.400 . S
C627 C632 1.490 . S
C628 H618 0.930 . S
C628 C627 1.400 . S
C628 C631 1.386 . S
H629 C645 0.930 . S
H630 C646 0.931 . S
C631 H619 0.929 . S
C631 C625 1.390 . S
C631 C628 1.386 . S
C632 C627 1.490 . S
C632 C634 1.395 . S
C632 C635 1.403 . S
H633 C639 0.930 . S
C634 H620 0.930 . S
C634 C632 1.395 . S
C634 C637 1.403 . S
C635 C632 1.403 . S
C635 C636 1.524 . S
C635 C639 1.400 . S
C636 H621 0.960 . S
C636 H622 0.960 . S
C636 H623 0.960 . S
C636 C635 1.524 . S
C637 C634 1.403 . S
C637 C638 1.392 . S
C637 C641 1.495 . S
C638 C637 1.392 . S
C638 C639 1.385 . S
C638 C640 1.478 . S
C639 H633 0.930 . S
C639 C635 1.400 . S
C639 C638 1.385 . S
C640 C638 1.478 . S
C640 C642 1.381 . S
C640 C646 1.383 . S
C641 C637 1.495 . S
C641 H647 0.959 . S
C641 H648 0.961 . S
C641 H649 0.960 . S
C642 C640 1.381 . S
C642 C643 1.394 . S
C642 H650 0.930 . S
C643 C642 1.394 . S
C643 C644 1.383 . S
C643 H651 0.929 . S
C644 C643 1.383 . S
C644 C645 1.377 . S
C645 H629 0.930 . S
C645 C644 1.377 . S
C645 C646 1.379 . S
C646 H630 0.931 . S
C646 C640 1.383 . S
C646 C645 1.379 . S
H647 C641 0.959 . S
H648 C641 0.961 . S
H649 C641 0.960 . S
H650 C642 0.930 . S
H651 C643 0.929 . S
H652 C660 0.929 . S
H653 C662 0.930 . S
H654 C664 0.930 . S
H655 C667 0.929 . S
H656 C670 0.930 . S
H657 C672 0.960 . S
H658 C672 0.960 . S
H659 C672 0.960 . S
C660 H652 0.929 . S
C660 C661 1.377 . S
C660 C662 1.384 . S
C661 C660 1.377 . S
C661 C667 1.390 . S
C662 H653 0.930 . S
C662 C660 1.384 . S
C662 C663 1.372 . S
C663 C662 1.372 . S
C663 C664 1.400 . S
C663 C668 1.490 . S
C664 H654 0.930 . S
C664 C663 1.400 . S
C664 C667 1.386 . S
H665 C681 0.930 . S
H666 C682 0.931 . S
C667 H655 0.929 . S
C667 C661 1.390 . S
C667 C664 1.386 . S
C668 C663 1.490 . S
C668 C670 1.395 . S
C668 C671 1.403 . S
H669 C675 0.930 . S
C670 H656 0.930 . S
C670 C668 1.395 . S
C670 C673 1.403 . S
C671 C668 1.403 . S
C671 C672 1.524 . S
C671 C675 1.400 . S
C672 H657 0.960 . S
C672 H658 0.960 . S
C672 H659 0.960 . S
C672 C671 1.524 . S
C673 C670 1.403 . S
C673 C674 1.392 . S
C673 C677 1.495 . S
C674 C673 1.392 . S
C674 C675 1.385 . S
C674 C676 1.478 . S
C675 H669 0.930 . S
C675 C671 1.400 . S
C675 C674 1.385 . S
C676 C674 1.478 . S
C676 C678 1.381 . S
C676 C682 1.383 . S
C677 C673 1.495 . S
C677 H683 0.959 . S
C677 H684 0.961 . S
C677 H685 0.960 . S
C678 C676 1.381 . S
C678 C679 1.394 . S
C678 H686 0.930 . S
C679 C678 1.394 . S
C679 C680 1.383 . S
C679 H687 0.929 . S
C680 C679 1.383 . S
C680 C681 1.377 . S
C681 H665 0.930 . S
C681 C680 1.377 . S
C681 C682 1.379 . S
C682 H666 0.931 . S
C682 C676 1.383 . S
C682 C681 1.379 . S
H683 C677 0.959 . S
H684 C677 0.961 . S
H685 C677 0.960 . S
H686 C678 0.930 . S
H687 C679 0.929 . S
C121 C7 1.567 . S
C140 C63 1.564 . S
C157 C21 1.566 . S
C176 C77 1.577 . S
C193 C91 1.562 . S
C212 C35 1.540 . S
C229 C105 1.559 . S
C248 C49 1.547 . S
C265 C8 1.179 . S
C284 C36 1.197 . S
C301 C22 1.177 . S
C320 C50 1.156 . S
C337 C92 1.175 . S
C356 C64 1.183 . S
C373 C78 1.176 . S
C392 C106 1.159 . S
C409 C79 1.483 . S
C428 C9 1.462 . S
C445 C23 1.484 1_655 S
C464 C93 1.467 . S
C481 C107 1.483 1_655 S
C500 C37 1.463 . S
C517 C51 1.482 . S
C536 C65 1.487 . S
C553 C87 1.029 . S
C572 C45 1.003 . S
C589 C3 1.025 . S
C608 C101 1.023 . S
C625 C17 1.022 . S
C644 C59 1.039 . S
C661 C73 1.021 . S
C680 C31 1.041 . S
