# Generated by pormake.
# Topology snp, (6)-cn, num edge types: 1
# Building blocks:
#     Node 0, Type 0, BuildingBlock: UKALOJ_clean_sbu_0, # of connection points: 6
#     Node 1, Type 0, BuildingBlock: UKALOJ_clean_sbu_0, # of connection points: 6
#     Node 2, Type 0, BuildingBlock: UKALOJ_clean_sbu_0, # of connection points: 6
#     Node 3, Type 0, BuildingBlock: UKALOJ_clean_sbu_0, # of connection points: 6
#     Edge 4, Type (0, 0), BuildingBlock: KIFKEQ_clean_linker_1, # of connection points: 2
#     Edge 5, Type (0, 0), BuildingBlock: KIFKEQ_clean_linker_1, # of connection points: 2
#     Edge 6, Type (0, 0), BuildingBlock: KIFKEQ_clean_linker_1, # of connection points: 2
#     Edge 7, Type (0, 0), BuildingBlock: KIFKEQ_clean_linker_1, # of connection points: 2
#     Edge 8, Type (0, 0), BuildingBlock: KIFKEQ_clean_linker_1, # of connection points: 2
#     Edge 9, Type (0, 0), BuildingBlock: KIFKEQ_clean_linker_1, # of connection points: 2
#     Edge 10, Type (0, 0), BuildingBlock: KIFKEQ_clean_linker_1, # of connection points: 2
#     Edge 11, Type (0, 0), BuildingBlock: KIFKEQ_clean_linker_1, # of connection points: 2
#     Edge 12, Type (0, 0), BuildingBlock: KIFKEQ_clean_linker_1, # of connection points: 2
#     Edge 13, Type (0, 0), BuildingBlock: KIFKEQ_clean_linker_1, # of connection points: 2
#     Edge 14, Type (0, 0), BuildingBlock: KIFKEQ_clean_linker_1, # of connection points: 2
#     Edge 15, Type (0, 0), BuildingBlock: KIFKEQ_clean_linker_1, # of connection points: 2
# Relax obj value: 0.880
# Max RMSD: 0.249
# Mean RMSD: 0.247
data_MOF--net-snp--node1-UKALOJ_clean_sbu_0--edge1-KIFKEQ_clean_linker_1
_symmetry_space_group_name_H-M    P1
_symmetry_Int_Tables_number       1
_symmetry_cell_setting            triclinic
loop_
_symmetry_equiv_pos_as_xyz
'x, y, z'
_cell_length_a     32.670445
_cell_length_b     32.482714
_cell_length_c     22.649876
_cell_angle_alpha  97.428735
_cell_angle_beta   97.337344
_cell_angle_gamma 89.334982
loop_
_atom_site_label
_atom_site_type_symbol
_atom_site_fract_x
_atom_site_fract_y
_atom_site_fract_z
_atom_type_partial_charge
Zn0 Zn 0.2675 0.05549 0.08989 0.0
O1 O 0.24638 1.01392 1.00817 0.0
C2 C 0.23244 0.12737 0.02825 0.0
Zn3 Zn 0.20051 0.06748 0.09841 0.0
C4 C 0.20801 1.00809 0.98943 0.0
O5 O 0.1813 0.02687 0.01924 0.0
C6 C 0.25738 0.11622 0.19647 0.0
O7 O 0.2013 1.01755 0.14951 0.0
O8 O 0.26649 1.00418 0.14312 0.0
N9 N 0.14164 0.08019 0.11792 0.0
C10 C 0.11412 0.05075 0.12257 0.0
C11 C 0.10872 0.09915 0.1938 0.0
N12 N 0.13706 0.11101 0.16099 0.0
N13 N 0.09414 0.06112 0.17094 0.0
C14 C 0.35886 0.05633 0.05253 0.0
C15 C 0.38583 1.00854 0.10079 0.0
N16 N 0.32907 0.04191 0.08109 0.0
N17 N 0.3462 1.01227 0.11088 0.0
N18 N 0.39482 0.03593 0.06451 0.0
H19 H 0.3236 0.07973 0.97788 0.0
H20 H 0.37816 0.08994 0.98402 0.0
H21 H 0.34697 0.11883 0.03544 0.0
C22 C 0.35178 0.08802 1.00987 0.0
C23 C 0.1093 1.00973 0.08314 0.0
H24 H 0.1066 1.0151 0.03548 0.0
H25 H 0.08121 0.9931 0.09023 0.0
H26 H 0.13629 0.98961 0.09249 0.0
O27 O 0.22046 0.10761 0.17506 0.0
O28 O 0.28662 0.09835 0.17108 0.0
C29 C 0.23282 0.99575 0.16169 0.0
O30 O 0.26549 0.10653 0.03745 0.0
O31 O 0.20007 0.11741 0.04889 0.0
Zn32 Zn 0.0604 0.26386 0.5868 0.0
O33 O 0.10633 0.27965 0.53097 0.0
C34 C 1.02014 0.2033 0.4844 0.0
Zn35 Zn 0.08611 0.19999 0.58897 0.0
C36 C 0.13215 0.25123 0.51822 0.0
O37 O 0.12933 0.21658 0.53704 0.0
C38 C 1.0155 0.20868 0.65694 0.0
O39 O 0.12457 0.21988 0.66607 0.0
O40 O 0.10203 0.28376 0.66814 0.0
N41 N 0.11385 0.14351 0.58801 0.0
C42 C 0.15453 0.13456 0.59218 0.0
C43 C 0.12178 0.07889 0.55837 0.0
N44 N 0.09347 0.10856 0.56821 0.0
N45 N 0.16059 0.09433 0.57235 0.0
C46 C 0.03591 0.35453 0.55838 0.0
C47 C 1.0163 0.38011 0.64154 0.0
N48 N 0.03647 0.32342 0.59281 0.0
N49 N 0.02391 0.33949 0.64419 0.0
N50 N 0.02346 0.39039 0.5881 0.0
H51 H 0.04551 0.31843 0.47482 0.0
H52 H 0.08423 0.35756 0.50398 0.0
H53 H 0.03463 0.37285 0.47003 0.0
C54 C 0.05069 0.35051 0.49805 0.0
C55 C 0.18887 0.16397 0.62009 0.0
H56 H 0.1881 0.16921 0.66931 0.0
H57 H 0.18546 0.19443 0.60358 0.0
H58 H 0.21949 0.15086 0.61215 0.0
O59 O 0.0421 0.18253 0.63988 0.0
O60 O 1.01581 0.24538 0.64249 0.0
C61 C 0.12578 0.25702 0.69083 0.0
O62 O 1.01851 0.24162 0.50588 0.0
O63 O 0.04611 0.17983 0.51041 0.0
Zn64 Zn 0.87622 0.98763 0.99588 0.0
O65 O 0.85986 0.94798 0.91923 0.0
C66 C 0.87241 0.05863 0.92702 0.0
Zn67 Zn 0.8131 1.01517 0.9919 0.0
C68 C 0.82415 0.9474 0.89016 0.0
O69 O 0.79691 0.97254 0.90887 0.0
C70 C 0.86985 0.05499 0.09852 0.0
O71 O 0.79285 0.97004 0.04501 0.0
O72 O 0.85552 0.94549 0.04598 0.0
N73 N 0.75446 0.04031 0.98064 0.0
C74 C 0.72229 0.04192 0.01298 0.0
C75 C 0.70009 0.06151 0.92856 0.0
N76 N 0.74052 0.05292 0.92848 0.0
N77 N 0.68777 0.05505 0.98116 0.0
C78 C 0.94329 0.92115 0.01536 0.0
C79 C 0.99822 0.95704 0.02923 0.0
N80 N 0.93275 0.96005 1.0044 0.0
N81 N 0.96716 0.9821 0.01177 0.0
N82 N 0.98418 0.9185 0.03246 0.0
H83 H 0.90111 0.88247 0.0488 0.0
H84 H 0.93113 0.85555 0.99548 0.0
H85 H 0.88863 0.88804 0.97084 0.0
C86 C 0.91428 0.88479 1.0068 0.0
C87 C 0.72393 0.02709 0.07314 0.0
H88 H 0.75541 0.03137 0.09804 0.0
H89 H 0.71576 0.9936 0.0667 0.0
H90 H 0.70157 0.04396 0.10013 0.0
O91 O 0.83237 0.05751 0.07465 0.0
O92 O 0.89331 0.02825 0.07417 0.0
C93 C 0.81971 0.94363 0.06078 0.0
O94 O 0.89706 0.03121 0.94571 0.0
O95 O 0.83527 0.05927 0.93897 0.0
Zn96 Zn 1.01872 0.88415 0.47783 0.0
O97 O 0.06675 0.87965 0.42432 0.0
C98 C 0.96645 0.83245 0.3797 0.0
Zn99 Zn 0.02608 0.81624 0.48566 0.0
C100 C 0.0877 0.84726 0.41353 0.0
O101 O 0.07868 0.81433 0.43411 0.0
C102 C 0.95657 0.85669 0.54793 0.0
O103 O 0.06724 0.8319 0.56914 0.0
O104 O 0.0613 0.89788 0.55639 0.0
N105 N 0.03267 0.7526 0.48723 0.0
C106 C 0.02635 0.72328 0.5227 0.0
C107 C 0.04482 0.69184 0.44196 0.0
N108 N 0.04433 0.73263 0.43748 0.0
N109 N 0.03359 0.68464 0.4949 0.0
C110 C 0.0454 0.96992 0.46153 0.0
C111 C 1.00147 0.98169 0.38801 0.0
N112 N 1.01287 0.94498 0.46163 0.0
N113 N 0.98499 0.95344 0.41698 0.0
N114 N 0.03969 0.99215 0.41479 0.0
H115 H 0.10183 0.94025 0.49349 0.0
H116 H 0.07777 0.97244 0.55029 0.0
H117 H 0.10533 0.99579 0.49925 0.0
C118 C 0.08492 0.96956 0.5034 0.0
C119 C 1.01173 0.73255 0.58299 0.0
H120 H 0.03812 0.73004 0.61833 0.0
H121 H 0.98768 0.70981 0.58789 0.0
H122 H 0.99957 0.76443 0.59012 0.0
O123 O 0.97347 0.82142 0.53572 0.0
O124 O 0.97052 0.8886 0.52988 0.0
C125 C 0.07662 0.86998 0.58713 0.0
O126 O 0.97602 0.86921 0.40212 0.0
O127 O 0.98368 0.80229 0.40357 0.0
H128 H 0.95215 0.8881 0.12464 0.0
H129 H 0.06314 0.89179 0.04082 0.0
H130 H 0.99217 0.89814 0.22173 0.0
H131 H 0.10298 0.90231 0.13875 0.0
H132 H 0.1441 1.01069 0.23077 0.0
H133 H 0.12418 0.94015 0.23919 0.0
H134 H 0.99608 0.97334 0.20019 0.0
H135 H 1.01696 0.04234 0.18649 0.0
C136 C 0.98526 0.88773 0.126 0.0
C137 C 1.0043 0.89301 0.07486 0.0
C138 C 1.00853 0.89341 0.18268 0.0
C139 C 0.04935 0.90749 0.18692 0.0
C140 C 0.0703 0.89599 0.1366 0.0
C141 C 0.04742 0.88999 0.07973 0.0
C142 C 0.11161 1.00314 0.22717 0.0
C143 C 0.08181 0.03099 0.20598 0.0
C144 C 0.10023 0.96271 0.23218 0.0
C145 C 0.05886 0.95016 0.21799 0.0
C146 C 0.02854 0.9812 0.21051 0.0
C147 C 0.04014 1.02116 0.20282 0.0
H148 H 0.05899 0.06973 0.39748 0.0
H149 H 0.09534 0.94209 0.36627 0.0
H150 H 0.1291 0.09167 0.39431 0.0
H151 H 0.1661 0.96316 0.36668 0.0
H152 H 0.20112 0.13518 0.49875 0.0
H153 H 0.20445 0.0999 0.39902 0.0
H154 H 0.19923 0.98228 0.46507 0.0
H155 H 0.19357 1.01709 0.56449 0.0
C156 C 0.08179 0.0465 0.38679 0.0
C157 C 0.07269 1.00451 0.38495 0.0
C158 C 0.12239 0.05876 0.38486 0.0
C159 C 0.1544 0.02888 0.38432 0.0
C160 C 0.14297 0.98698 0.36888 0.0
C161 C 0.10235 0.97485 0.36952 0.0
C162 C 0.20344 0.10166 0.49335 0.0
C163 C 0.19285 0.07866 0.53808 0.0
C164 C 0.20575 0.08126 0.43556 0.0
C165 C 0.19428 0.03919 0.42352 0.0
C166 C 0.20221 1.01578 0.47209 0.0
C167 C 0.19916 0.03564 0.52986 0.0
H168 H 0.62686 1.00976 0.91349 0.0
H169 H 0.65297 0.098 0.07266 0.0
H170 H 0.55438 1.00722 0.92981 0.0
H171 H 0.58031 0.09526 0.09009 0.0
H172 H 0.43778 0.10748 0.06829 0.0
H173 H 0.50912 0.11388 0.04667 0.0
H174 H 0.51453 0.98074 1.0019 0.0
H175 H 0.44346 0.9748 0.02277 0.0
C176 C 0.6169 0.02846 0.9522 0.0
C177 C 0.64544 0.05347 0.99244 0.0
C178 C 0.57552 0.02695 0.96172 0.0
C179 C 0.56149 0.05086 1.01146 0.0
C180 C 0.59001 0.0766 0.05119 0.0
C181 C 0.63163 0.07781 0.0418 0.0
C182 C 0.45407 0.07984 0.05245 0.0
C183 C 0.43492 0.04071 0.04595 0.0
C184 C 0.49504 0.08337 0.04094 0.0
C185 C 0.51758 0.04782 0.02244 0.0
C186 C 0.49801 1.00882 0.01525 0.0
C187 C 0.45736 1.00534 0.02727 0.0
H188 H 0.97445 0.42325 0.50123 0.0
H189 H 0.0742 0.45169 0.64363 0.0
H190 H 0.97322 0.49565 0.48151 0.0
H191 H 0.07504 0.52363 0.62279 0.0
H192 H 0.04791 0.6585 0.60645 0.0
H193 H 0.04243 0.58781 0.62972 0.0
H194 H 1.00725 0.54522 0.44138 0.0
H195 H 1.00955 0.61607 0.4193 0.0
C196 C 0.99659 0.44508 0.52747 0.0
C197 C 0.0247 0.43211 0.57335 0.0
C198 C 0.99609 0.4866 0.51632 0.0
C199 C 0.0241 0.51603 0.55044 0.0
C200 C 0.05242 0.50249 0.5962 0.0
C201 C 0.0524 0.46117 0.6078 0.0
C202 C 0.03756 0.63441 0.57036 0.0
C203 C 0.02828 0.64345 0.51108 0.0
C204 C 0.03531 0.59341 0.58346 0.0
C205 C 0.02443 0.56023 0.53752 0.0
C206 C 1.01496 0.56957 0.47841 0.0
C207 C 1.01669 0.6104 0.46555 0.0
H208 H 0.21411 0.23836 0.54166 0.0
H209 H 0.1199 0.26775 0.40248 0.0
H210 H 0.26006 0.2163 0.46694 0.0
H211 H 0.16532 0.24503 0.32707 0.0
H212 H 0.24605 0.19814 0.19491 0.0
H213 H 0.22628 0.24649 0.27819 0.0
H214 H 0.25712 0.15405 0.39753 0.0
H215 H 0.27686 0.1061 0.31397 0.0
C216 C 0.20388 0.24163 0.49512 0.0
C217 C 0.16352 0.25485 0.47777 0.0
C218 C 0.23004 0.22852 0.45217 0.0
C219 C 0.21627 0.22798 0.39071 0.0
C220 C 0.17728 0.24524 0.37394 0.0
C221 C 0.15117 0.2586 0.41716 0.0
C222 C 0.25065 0.18912 0.23971 0.0
C223 C 0.26372 0.14873 0.24837 0.0
C224 C 0.23861 0.21653 0.28724 0.0
C225 C 0.23912 0.20398 0.34445 0.0
C226 C 0.2563 0.16498 0.35424 0.0
C227 C 0.26816 0.13749 0.30651 0.0
H228 H 0.9981 0.24596 0.76603 0.0
H229 H 0.96656 0.14061 0.63186 0.0
H230 H 0.95771 0.21587 0.8348 0.0
H231 H 0.92502 0.11152 0.6993 0.0
H232 H 0.82981 0.09215 0.83254 0.0
H233 H 0.85803 0.13567 0.76594 0.0
H234 H 0.97654 0.13712 0.87469 0.0
H235 H 0.94902 0.09254 0.93964 0.0
C236 C 0.98136 0.21717 0.75064 0.0
C237 C 0.98513 0.1956 0.69377 0.0
C238 C 0.95849 0.19993 0.78989 0.0
C239 C 0.93815 0.16156 0.77201 0.0
C240 C 0.94001 0.14135 0.71381 0.0
C241 C 0.96378 0.15792 0.67538 0.0
C242 C 0.86168 0.10235 0.84261 0.0
C243 C 0.88732 0.08889 0.891 0.0
C244 C 0.87776 0.12714 0.8046 0.0
C245 C 0.9193 0.13991 0.81565 0.0
C246 C 0.9443 0.12807 0.86569 0.0
C247 C 0.92862 0.10239 0.90254 0.0
H248 H 0.88559 0.84196 0.3883 0.0
H249 H 0.97233 0.81519 0.26046 0.0
H250 H 0.8323 0.85687 0.30785 0.0
H251 H 0.91943 0.83028 0.17976 0.0
H252 H 0.82565 0.86022 0.04011 0.0
H253 H 0.85139 0.81735 0.11771 0.0
H254 H 0.83014 0.91842 0.25395 0.0
H255 H 0.80458 0.96097 0.17608 0.0
C256 C 0.89255 0.8374 0.34239 0.0
C257 C 0.93263 0.82669 0.33007 0.0
C258 C 0.86224 0.84636 0.29649 0.0
C259 C 0.8716 0.84504 0.23745 0.0
C260 C 0.91091 0.83099 0.22454 0.0
C261 C 0.94127 0.82214 0.2706 0.0
C262 C 0.82431 0.8723 0.08673 0.0
C263 C 0.81331 0.91383 0.10233 0.0
C264 C 0.83961 0.84798 0.13114 0.0
C265 C 0.84378 0.86477 0.19194 0.0
C266 C 0.82729 0.90442 0.20754 0.0
C267 C 0.81217 0.9288 0.16295 0.0
H268 H 0.12946 0.93593 0.61384 0.0
H269 H 0.08303 0.83423 0.69146 0.0
H270 H 0.16543 0.9639 0.71165 0.0
H271 H 0.11895 0.86252 0.79011 0.0
H272 H 0.13448 0.96691 0.95801 0.0
H273 H 0.10804 0.92806 0.86141 0.0
H274 H 0.22252 0.94953 0.79379 0.0
H275 H 0.24927 0.98827 0.89116 0.0
C276 C 0.1273 0.91927 0.65175 0.0
C277 C 0.10314 0.88297 0.64488 0.0
C278 C 0.1482 0.93518 0.70782 0.0
C279 C 0.14496 0.91562 0.7589 0.0
C280 C 0.12187 0.8785 0.75173 0.0
C281 C 0.10155 0.8621 0.69519 0.0
C282 C 0.15422 0.96307 0.92281 0.0
C283 C 0.19392 0.981 0.93231 0.0
C284 C 0.13915 0.94046 0.86749 0.0
C285 C 0.16308 0.93569 0.8197 0.0
C286 C 0.20321 0.95279 0.82956 0.0
C287 C 0.21861 0.9748 0.88542 0.0
H288 H 0.85229 0.8696 0.86587 0.0
H289 H 0.78546 0.96661 0.78257 0.0
H290 H 0.87112 0.83946 0.76996 0.0
H291 H 0.8025 0.93519 0.68465 0.0
H292 H 0.9156 0.92788 0.57913 0.0
H293 H 0.8664 0.94002 0.65008 0.0
H294 H 0.86762 0.80938 0.67026 0.0
H295 H 0.91899 0.79753 0.60024 0.0
C296 C 0.83982 0.88325 0.82623 0.0
C297 C 0.81821 0.92091 0.83173 0.0
C298 C 0.85055 0.86584 0.7708 0.0
C299 C 0.83966 0.88562 0.71943 0.0
C300 C 0.81267 0.91989 0.72365 0.0
C301 C 0.80218 0.93757 0.77955 0.0
C302 C 0.90515 0.90149 0.59802 0.0
C303 C 0.92205 0.86185 0.58494 0.0
C304 C 0.87619 0.9084 0.63835 0.0
C305 C 0.86289 0.8758 0.66663 0.0
C306 C 0.87762 0.83545 0.65027 0.0
C307 C 0.90703 0.82857 0.61002 0.0
H308 H 0.20007 0.91983 0.11951 0.0
H309 H 0.25396 0.99396 0.28142 0.0
H310 H 0.17781 0.86842 0.1781 0.0
H311 H 0.23079 0.94397 0.34109 0.0
H312 H 0.07862 0.83784 0.29265 0.0
H313 H 0.12552 0.86149 0.2298 0.0
H314 H 0.21777 0.88816 0.38494 0.0
H315 H 0.16927 0.86525 0.4478 0.0
C316 C 0.20795 0.92451 0.16786 0.0
C317 C 0.22879 0.96066 0.19604 0.0
C318 C 0.19461 0.89533 0.20188 0.0
C319 C 0.2003 0.90239 0.26527 0.0
C320 C 0.22466 0.93706 0.29282 0.0
C321 C 0.23833 0.966 0.25862 0.0
C322 C 0.10954 0.84726 0.31274 0.0
C323 C 0.12056 0.84904 0.3748 0.0
C324 C 0.13681 0.86118 0.27663 0.0
C325 C 0.17581 0.87816 0.30165 0.0
C326 C 0.18787 0.87665 0.36352 0.0
C327 C 0.16036 0.86278 0.39973 0.0
H328 H 0.09684 0.27166 0.79742 0.0
H329 H 0.20896 0.25571 0.7159 0.0
H330 H 0.13222 0.25152 0.88983 0.0
H331 H 0.24597 0.23844 0.8099 0.0
H332 H 0.26602 0.13001 0.92481 0.0
H333 H 0.24816 0.17787 0.85162 0.0
H334 H 0.17676 0.25072 0.97562 0.0
H335 H 0.19232 0.20057 0.04645 0.0
C336 C 0.12986 0.26656 0.80082 0.0
C337 C 0.15029 0.26547 0.74997 0.0
C338 C 0.15039 0.25465 0.85393 0.0
C339 C 0.19204 0.24201 0.85741 0.0
C340 C 0.21364 0.24644 0.80857 0.0
C341 C 0.19276 0.25734 0.75501 0.0
C342 C 0.24728 0.1568 0.93669 0.0
C343 C 0.22999 0.16132 0.99062 0.0
C344 C 0.23711 0.18463 0.89485 0.0
C345 C 0.21019 0.21818 0.90677 0.0
C346 C 0.19636 0.22468 0.96363 0.0
C347 C 0.20556 0.19617 1.0046 0.0
H348 H 0.95049 0.06285 0.14344 0.0
H349 H 0.83049 0.10933 0.17896 0.0
H350 H 0.98193 0.10172 0.23639 0.0
H351 H 0.86284 0.14911 0.27354 0.0
H352 H 1.01386 0.12209 0.43752 0.0
H353 H 0.97401 0.09067 0.3454 0.0
H354 H 0.92252 0.21001 0.31427 0.0
H355 H 0.96358 0.24227 0.40746 0.0
C356 C 0.93065 0.08137 0.17111 0.0
C357 C 0.88771 0.08219 0.15393 0.0
C358 C 0.94884 0.10374 0.2245 0.0
C359 C 0.92489 0.12798 0.26276 0.0
C360 C 0.88209 0.13061 0.24488 0.0
C361 C 0.86359 0.10777 0.19091 0.0
C362 C 0.99426 0.14195 0.4113 0.0
C363 C 0.99273 0.18497 0.42961 0.0
C364 C 0.97117 0.12378 0.35846 0.0
C365 C 0.94531 0.14785 0.32222 0.0
C366 C 0.9421 0.19065 0.34141 0.0
C367 C 0.96577 0.20911 0.39455 0.0
loop_
_geom_bond_atom_site_label_1
_geom_bond_atom_site_label_2
_geom_bond_distance
_geom_bond_site_symmetry_2
_ccdc_geom_bond_type
Zn0 O1 2.055 1_544 S
Zn0 O8 2.046 1_545 S
Zn0 N16 2.036 . S
Zn0 O28 2.053 . S
Zn0 O30 2.066 . S
O1 Zn0 2.055 1_566 S
O1 C4 1.259 . S
C2 O30 1.256 1_556 S
C2 O31 1.244 . S
Zn3 O5 2.046 1_544 S
Zn3 O7 2.055 1_545 S
Zn3 N9 2.036 . S
Zn3 O27 2.066 . S
Zn3 O31 2.053 1_554 S
C4 O1 1.259 . S
C4 O5 1.254 . S
O5 Zn3 2.046 1_566 S
O5 C4 1.254 . S
C6 O27 1.256 . S
C6 O28 1.244 . S
O7 Zn3 2.055 1_565 S
O7 C29 1.259 . S
O8 Zn0 2.046 1_565 S
O8 C29 1.254 . S
N9 Zn3 2.036 . S
N9 C10 1.298 . S
N9 N12 1.398 1_554 S
C10 N9 1.298 . S
C10 N13 1.367 . S
C10 C23 1.481 1_545 S
C11 N12 1.299 . S
C11 N13 1.379 1_556 S
N12 N9 1.398 1_556 S
N12 C11 1.299 . S
N13 C10 1.367 . S
N13 C11 1.379 1_554 S
C14 N16 1.298 . S
C14 N18 1.367 . S
C14 C22 1.481 1_544 S
C15 N17 1.299 . S
C15 N18 1.379 . S
N16 Zn0 2.036 . S
N16 C14 1.298 . S
N16 N17 1.398 . S
N17 C15 1.299 . S
N17 N16 1.398 . S
N18 C14 1.367 . S
N18 C15 1.379 . S
H19 C22 0.980 . S
H20 C22 0.981 . S
H21 C22 0.981 1_545 S
C22 C14 1.481 1_566 S
C22 H19 0.980 . S
C22 H20 0.981 . S
C22 H21 0.981 1_565 S
C23 C10 1.481 1_565 S
C23 H24 0.980 . S
C23 H25 0.981 . S
C23 H26 0.981 1_565 S
H24 C23 0.980 . S
H25 C23 0.981 . S
H26 C23 0.981 1_545 S
O27 Zn3 2.066 . S
O27 C6 1.256 . S
O28 Zn0 2.053 . S
O28 C6 1.244 . S
C29 O7 1.259 . S
C29 O8 1.254 . S
O30 Zn0 2.066 . S
O30 C2 1.256 1_554 S
O31 C2 1.244 . S
O31 Zn3 2.053 1_556 S
Zn32 O33 2.055 . S
Zn32 O40 2.046 . S
Zn32 N48 2.036 . S
Zn32 O60 2.053 1_455 S
Zn32 O62 2.066 1_455 S
O33 Zn32 2.055 . S
O33 C36 1.259 . S
C34 O62 1.256 . S
C34 O63 1.244 . S
Zn35 O37 2.046 . S
Zn35 O39 2.055 . S
Zn35 N41 2.036 . S
Zn35 O59 2.066 1_455 S
Zn35 O63 2.053 1_455 S
C36 O33 1.259 . S
C36 O37 1.254 . S
O37 Zn35 2.046 . S
O37 C36 1.254 . S
C38 O59 1.256 . S
C38 O60 1.244 . S
O39 Zn35 2.055 . S
O39 C61 1.259 . S
O40 Zn32 2.046 . S
O40 C61 1.254 . S
N41 Zn35 2.036 . S
N41 C42 1.298 . S
N41 N44 1.398 . S
C42 N41 1.298 . S
C42 N45 1.367 . S
C42 C55 1.481 . S
C43 N44 1.299 . S
C43 N45 1.379 . S
N44 N41 1.398 . S
N44 C43 1.299 . S
N45 C42 1.367 . S
N45 C43 1.379 . S
C46 N48 1.298 . S
C46 N50 1.367 . S
C46 C54 1.481 . S
C47 N49 1.299 . S
C47 N50 1.379 . S
N48 Zn32 2.036 . S
N48 C46 1.298 . S
N48 N49 1.398 . S
N49 C47 1.299 . S
N49 N48 1.398 . S
N50 C46 1.367 . S
N50 C47 1.379 . S
H51 C54 0.980 . S
H52 C54 0.981 . S
H53 C54 0.981 . S
C54 C46 1.481 . S
C54 H51 0.980 . S
C54 H52 0.981 . S
C54 H53 0.981 . S
C55 C42 1.481 . S
C55 H56 0.980 . S
C55 H57 0.981 . S
C55 H58 0.981 . S
H56 C55 0.980 . S
H57 C55 0.981 . S
H58 C55 0.981 . S
O59 Zn35 2.066 1_655 S
O59 C38 1.256 . S
O60 Zn32 2.053 1_655 S
O60 C38 1.244 . S
C61 O39 1.259 . S
C61 O40 1.254 . S
O62 Zn32 2.066 1_655 S
O62 C34 1.256 . S
O63 C34 1.244 . S
O63 Zn35 2.053 1_655 S
Zn64 O65 2.055 1_554 S
Zn64 O72 2.046 . S
Zn64 N80 2.036 1_565 S
Zn64 O92 2.053 1_565 S
Zn64 O94 2.066 1_564 S
O65 Zn64 2.055 1_556 S
O65 C68 1.259 . S
C66 O94 1.256 . S
C66 O95 1.244 . S
Zn67 O69 2.046 . S
Zn67 O71 2.055 1_556 S
Zn67 N73 2.034 1_565 S
Zn67 O91 2.066 1_566 S
Zn67 O95 2.053 1_565 S
C68 O65 1.259 . S
C68 O69 1.254 . S
O69 Zn67 2.046 . S
O69 C68 1.254 . S
C70 O91 1.256 . S
C70 O92 1.244 . S
O71 Zn67 2.055 1_554 S
O71 C93 1.259 . S
O72 Zn64 2.046 . S
O72 C93 1.254 . S
N73 Zn67 2.034 1_545 S
N73 C74 1.294 1_546 S
N73 N76 1.410 . S
C74 N73 1.294 1_564 S
C74 N77 1.367 1_564 S
C74 C87 1.481 . S
C75 N76 1.299 . S
C75 N77 1.379 . S
N76 N73 1.410 . S
N76 C75 1.299 . S
N77 C74 1.367 1_546 S
N77 C75 1.379 . S
C78 N80 1.298 1_556 S
C78 N82 1.367 1_556 S
C78 C86 1.481 1_545 S
C79 N81 1.299 . S
C79 N82 1.379 . S
N80 Zn64 2.036 1_545 S
N80 C78 1.298 1_554 S
N80 N81 1.398 . S
N81 C79 1.299 . S
N81 N80 1.398 . S
N82 C78 1.367 1_554 S
N82 C79 1.379 . S
H83 C86 0.980 . S
H84 C86 0.981 . S
H85 C86 0.981 1_545 S
C86 C78 1.481 1_565 S
C86 H83 0.980 . S
C86 H84 0.981 . S
C86 H85 0.981 1_565 S
C87 C74 1.481 . S
C87 H88 0.980 . S
C87 H89 0.981 . S
C87 H90 0.981 1_565 S
H88 C87 0.980 . S
H89 C87 0.981 . S
H90 C87 0.981 1_545 S
O91 Zn67 2.066 1_544 S
O91 C70 1.256 . S
O92 Zn64 2.053 1_545 S
O92 C70 1.244 . S
C93 O71 1.259 . S
C93 O72 1.254 . S
O94 Zn64 2.066 1_546 S
O94 C66 1.256 . S
O95 C66 1.244 . S
O95 Zn67 2.053 1_545 S
Zn96 O97 2.055 . S
Zn96 O104 2.046 . S
Zn96 N112 2.036 . S
Zn96 O124 2.053 1_455 S
Zn96 O126 2.066 1_455 S
O97 Zn96 2.055 . S
O97 C100 1.259 . S
C98 O126 1.256 . S
C98 O127 1.244 . S
Zn99 O101 2.046 . S
Zn99 O103 2.055 . S
Zn99 N105 2.036 . S
Zn99 O123 2.066 1_455 S
Zn99 O127 2.053 1_455 S
C100 O97 1.259 . S
C100 O101 1.254 . S
O101 Zn99 2.046 . S
O101 C100 1.254 . S
C102 O123 1.256 . S
C102 O124 1.244 . S
O103 Zn99 2.055 . S
O103 C125 1.259 . S
O104 Zn96 2.046 . S
O104 C125 1.254 . S
N105 Zn99 2.036 . S
N105 C106 1.298 . S
N105 N108 1.398 . S
C106 N105 1.298 . S
C106 N109 1.367 . S
C106 C119 1.481 . S
C107 N108 1.299 1_655 S
C107 N109 1.379 1_655 S
N108 N105 1.398 . S
N108 C107 1.299 1_455 S
N109 C106 1.367 . S
N109 C107 1.379 1_455 S
C110 N112 1.298 . S
C110 N114 1.367 . S
C110 C118 1.481 . S
C111 N113 1.297 1_655 S
C111 N114 1.373 1_655 S
N112 Zn96 2.036 . S
N112 C110 1.298 . S
N112 N113 1.398 . S
N113 C111 1.297 1_455 S
N113 N112 1.398 . S
N114 C110 1.367 . S
N114 C111 1.373 1_455 S
H115 C118 0.980 . S
H116 C118 0.981 . S
H117 C118 0.981 . S
C118 C110 1.481 . S
C118 H115 0.980 . S
C118 H116 0.981 . S
C118 H117 0.981 . S
C119 C106 1.481 . S
C119 H120 0.980 . S
C119 H121 0.981 . S
C119 H122 0.981 . S
H120 C119 0.980 . S
H121 C119 0.981 . S
H122 C119 0.981 . S
O123 Zn99 2.066 1_655 S
O123 C102 1.256 . S
O124 Zn96 2.053 1_655 S
O124 C102 1.244 . S
C125 O103 1.259 . S
C125 O104 1.254 . S
O126 Zn96 2.066 1_655 S
O126 C98 1.256 . S
O127 C98 1.244 . S
O127 Zn99 2.053 1_655 S
H128 C136 0.950 . S
H129 C141 0.950 . S
H130 C138 0.950 . S
H131 C140 0.950 . S
H132 C142 0.950 1_565 S
H133 C144 0.950 1_565 S
H134 C146 0.950 . S
H135 C147 0.950 . S
C136 H128 0.950 . S
C136 C137 1.386 . S
C136 C138 1.391 1_655 S
C137 C136 1.386 . S
C137 C141 1.393 1_545 S
C138 H130 0.950 . S
C138 C136 1.391 1_455 S
C138 C139 1.400 1_556 S
C139 C138 1.400 1_554 S
C139 C140 1.398 1_445 S
C139 C145 1.491 . S
C140 H131 0.950 . S
C140 C139 1.398 1_665 S
C140 C141 1.391 1_554 S
C141 H129 0.950 . S
C141 C137 1.393 1_565 S
C141 C140 1.391 1_556 S
C142 H132 0.950 1_545 S
C142 C143 1.386 . S
C142 C144 1.391 . S
C143 C142 1.386 . S
C143 C147 1.393 . S
C144 H133 0.950 1_545 S
C144 C142 1.391 . S
C144 C145 1.400 . S
C145 C139 1.491 . S
C145 C144 1.400 . S
C145 C146 1.398 . S
C146 H134 0.950 . S
C146 C145 1.398 . S
C146 C147 1.391 . S
C147 H135 0.950 . S
C147 C143 1.393 . S
C147 C146 1.391 . S
H148 C156 0.950 . S
H149 C161 0.950 . S
H150 C158 0.950 . S
H151 C160 0.950 1_545 S
H152 C162 0.950 . S
H153 C164 0.950 . S
H154 C166 0.950 . S
H155 C167 0.950 . S
C156 H148 0.950 . S
C156 C157 1.386 1_655 S
C156 C158 1.391 . S
C157 C156 1.386 1_455 S
C157 C161 1.393 . S
C158 H150 0.950 . S
C158 C156 1.391 . S
C158 C159 1.400 1_655 S
C159 C158 1.400 1_455 S
C159 C160 1.398 . S
C159 C165 1.491 1_565 S
C160 H151 0.950 1_565 S
C160 C159 1.398 . S
C160 C161 1.391 . S
C161 H149 0.950 . S
C161 C157 1.393 . S
C161 C160 1.391 . S
C162 H152 0.950 . S
C162 C163 1.386 . S
C162 C164 1.391 . S
C163 C162 1.386 . S
C163 C167 1.393 1_455 S
C164 H153 0.950 . S
C164 C162 1.391 . S
C164 C165 1.400 . S
C165 C159 1.491 1_545 S
C165 C164 1.400 . S
C165 C166 1.398 1_455 S
C166 H154 0.950 . S
C166 C165 1.398 1_655 S
C166 C167 1.391 . S
C167 H155 0.950 . S
C167 C163 1.393 1_655 S
C167 C166 1.391 . S
H168 C176 0.950 . S
H169 C181 0.950 . S
H170 C178 0.950 . S
H171 C180 0.950 . S
H172 C182 0.950 . S
H173 C184 0.950 . S
H174 C186 0.950 . S
H175 C187 0.950 1_556 S
C176 H168 0.950 . S
C176 C177 1.386 1_566 S
C176 C178 1.391 . S
C177 C176 1.386 1_544 S
C177 C181 1.393 . S
C178 H170 0.950 . S
C178 C176 1.391 . S
C178 C179 1.400 1_566 S
C179 C178 1.400 1_544 S
C179 C180 1.398 . S
C179 C185 1.491 . S
C180 H171 0.950 . S
C180 C179 1.398 . S
C180 C181 1.391 . S
C181 H169 0.950 . S
C181 C177 1.393 . S
C181 C180 1.391 . S
C182 H172 0.950 . S
C182 C183 1.386 . S
C182 C184 1.391 . S
C183 C182 1.386 . S
C183 C187 1.393 1_545 S
C184 H173 0.950 . S
C184 C182 1.391 . S
C184 C185 1.400 . S
C185 C179 1.491 . S
C185 C184 1.400 . S
C185 C186 1.398 1_544 S
C186 H174 0.950 . S
C186 C185 1.398 1_566 S
C186 C187 1.391 1_556 S
C187 H175 0.950 1_554 S
C187 C183 1.393 1_565 S
C187 C186 1.391 1_554 S
H188 C196 0.950 . S
H189 C201 0.950 . S
H190 C198 0.950 . S
H191 C200 0.950 . S
H192 C202 0.950 . S
H193 C204 0.950 . S
H194 C206 0.950 . S
H195 C207 0.950 . S
C196 H188 0.950 . S
C196 C197 1.386 1_655 S
C196 C198 1.391 . S
C197 C196 1.386 1_455 S
C197 C201 1.393 . S
C198 H190 0.950 . S
C198 C196 1.391 . S
C198 C199 1.400 1_655 S
C199 C198 1.400 1_455 S
C199 C200 1.398 . S
C199 C205 1.491 . S
C200 H191 0.950 . S
C200 C199 1.398 . S
C200 C201 1.391 . S
C201 H189 0.950 . S
C201 C197 1.393 . S
C201 C200 1.391 . S
C202 H192 0.950 . S
C202 C203 1.386 . S
C202 C204 1.391 . S
C203 C202 1.386 . S
C203 C207 1.393 1_455 S
C204 H193 0.950 . S
C204 C202 1.391 . S
C204 C205 1.400 . S
C205 C199 1.491 . S
C205 C204 1.400 . S
C205 C206 1.398 1_455 S
C206 H194 0.950 . S
C206 C205 1.398 1_655 S
C206 C207 1.391 . S
C207 H195 0.950 . S
C207 C203 1.393 1_655 S
C207 C206 1.391 . S
H208 C216 0.950 . S
H209 C221 0.950 . S
H210 C218 0.950 . S
H211 C220 0.950 . S
H212 C222 0.950 . S
H213 C224 0.950 . S
H214 C226 0.950 . S
H215 C227 0.950 . S
C216 H208 0.950 . S
C216 C217 1.386 . S
C216 C218 1.391 . S
C217 C216 1.386 . S
C217 C221 1.393 . S
C218 H210 0.950 . S
C218 C216 1.391 . S
C218 C219 1.400 . S
C219 C218 1.400 . S
C219 C220 1.398 . S
C219 C225 1.491 . S
C220 H211 0.950 . S
C220 C219 1.398 . S
C220 C221 1.391 . S
C221 H209 0.950 . S
C221 C217 1.393 . S
C221 C220 1.391 . S
C222 H212 0.950 . S
C222 C223 1.386 . S
C222 C224 1.391 . S
C223 C222 1.386 . S
C223 C227 1.393 . S
C224 H213 0.950 . S
C224 C222 1.391 . S
C224 C225 1.400 . S
C225 C219 1.491 . S
C225 C224 1.400 . S
C225 C226 1.398 . S
C226 H214 0.950 . S
C226 C225 1.398 . S
C226 C227 1.391 . S
C227 H215 0.950 . S
C227 C223 1.393 . S
C227 C226 1.391 . S
H228 C236 0.950 . S
H229 C241 0.950 . S
H230 C238 0.950 . S
H231 C240 0.950 . S
H232 C242 0.950 . S
H233 C244 0.950 . S
H234 C246 0.950 . S
H235 C247 0.950 . S
C236 H228 0.950 . S
C236 C237 1.386 . S
C236 C238 1.391 . S
C237 C236 1.386 . S
C237 C241 1.393 . S
C238 H230 0.950 . S
C238 C236 1.391 . S
C238 C239 1.400 . S
C239 C238 1.400 . S
C239 C240 1.398 . S
C239 C245 1.491 . S
C240 H231 0.950 . S
C240 C239 1.398 . S
C240 C241 1.391 . S
C241 H229 0.950 . S
C241 C237 1.393 . S
C241 C240 1.391 . S
C242 H232 0.950 . S
C242 C243 1.386 . S
C242 C244 1.391 . S
C243 C242 1.386 . S
C243 C247 1.393 . S
C244 H233 0.950 . S
C244 C242 1.391 . S
C244 C245 1.400 . S
C245 C239 1.491 . S
C245 C244 1.400 . S
C245 C246 1.398 . S
C246 H234 0.950 . S
C246 C245 1.398 . S
C246 C247 1.391 . S
C247 H235 0.950 . S
C247 C243 1.393 . S
C247 C246 1.391 . S
H248 C256 0.950 . S
H249 C261 0.950 . S
H250 C258 0.950 . S
H251 C260 0.950 . S
H252 C262 0.950 . S
H253 C264 0.950 . S
H254 C266 0.950 . S
H255 C267 0.950 . S
C256 H248 0.950 . S
C256 C257 1.386 . S
C256 C258 1.391 . S
C257 C256 1.386 . S
C257 C261 1.393 . S
C258 H250 0.950 . S
C258 C256 1.391 . S
C258 C259 1.400 . S
C259 C258 1.400 . S
C259 C260 1.398 . S
C259 C265 1.491 . S
C260 H251 0.950 . S
C260 C259 1.398 . S
C260 C261 1.391 . S
C261 H249 0.950 . S
C261 C257 1.393 . S
C261 C260 1.391 . S
C262 H252 0.950 . S
C262 C263 1.386 . S
C262 C264 1.391 . S
C263 C262 1.386 . S
C263 C267 1.393 . S
C264 H253 0.950 . S
C264 C262 1.391 . S
C264 C265 1.400 . S
C265 C259 1.491 . S
C265 C264 1.400 . S
C265 C266 1.398 . S
C266 H254 0.950 . S
C266 C265 1.398 . S
C266 C267 1.391 . S
C267 H255 0.950 . S
C267 C263 1.393 . S
C267 C266 1.391 . S
H268 C276 0.950 . S
H269 C281 0.950 . S
H270 C278 0.950 . S
H271 C280 0.950 . S
H272 C282 0.950 . S
H273 C284 0.950 . S
H274 C286 0.950 . S
H275 C287 0.950 . S
C276 H268 0.950 . S
C276 C277 1.386 . S
C276 C278 1.391 . S
C277 C276 1.386 . S
C277 C281 1.393 . S
C278 H270 0.950 . S
C278 C276 1.391 . S
C278 C279 1.400 . S
C279 C278 1.400 . S
C279 C280 1.398 . S
C279 C285 1.491 . S
C280 H271 0.950 . S
C280 C279 1.398 . S
C280 C281 1.391 . S
C281 H269 0.950 . S
C281 C277 1.393 . S
C281 C280 1.391 . S
C282 H272 0.950 . S
C282 C283 1.386 . S
C282 C284 1.391 . S
C283 C282 1.386 . S
C283 C287 1.393 . S
C284 H273 0.950 . S
C284 C282 1.391 . S
C284 C285 1.400 . S
C285 C279 1.491 . S
C285 C284 1.400 . S
C285 C286 1.398 . S
C286 H274 0.950 . S
C286 C285 1.398 . S
C286 C287 1.391 . S
C287 H275 0.950 . S
C287 C283 1.393 . S
C287 C286 1.391 . S
H288 C296 0.950 . S
H289 C301 0.950 . S
H290 C298 0.950 . S
H291 C300 0.950 . S
H292 C302 0.950 . S
H293 C304 0.950 . S
H294 C306 0.950 . S
H295 C307 0.950 . S
C296 H288 0.950 . S
C296 C297 1.386 . S
C296 C298 1.391 . S
C297 C296 1.386 . S
C297 C301 1.393 . S
C298 H290 0.950 . S
C298 C296 1.391 . S
C298 C299 1.400 . S
C299 C298 1.400 . S
C299 C300 1.398 . S
C299 C305 1.491 . S
C300 H291 0.950 . S
C300 C299 1.398 . S
C300 C301 1.391 . S
C301 H289 0.950 . S
C301 C297 1.393 . S
C301 C300 1.391 . S
C302 H292 0.950 . S
C302 C303 1.386 . S
C302 C304 1.391 . S
C303 C302 1.386 . S
C303 C307 1.393 . S
C304 H293 0.950 . S
C304 C302 1.391 . S
C304 C305 1.400 . S
C305 C299 1.491 . S
C305 C304 1.400 . S
C305 C306 1.398 . S
C306 H294 0.950 . S
C306 C305 1.398 . S
C306 C307 1.391 . S
C307 H295 0.950 . S
C307 C303 1.393 . S
C307 C306 1.391 . S
H308 C316 0.950 . S
H309 C321 0.950 . S
H310 C318 0.950 . S
H311 C320 0.950 . S
H312 C322 0.950 . S
H313 C324 0.950 . S
H314 C326 0.950 . S
H315 C327 0.950 . S
C316 H308 0.950 . S
C316 C317 1.386 . S
C316 C318 1.391 . S
C317 C316 1.386 . S
C317 C321 1.393 . S
C318 H310 0.950 . S
C318 C316 1.391 . S
C318 C319 1.400 . S
C319 C318 1.400 . S
C319 C320 1.398 . S
C319 C325 1.491 . S
C320 H311 0.950 . S
C320 C319 1.398 . S
C320 C321 1.391 . S
C321 H309 0.950 . S
C321 C317 1.393 . S
C321 C320 1.391 . S
C322 H312 0.950 . S
C322 C323 1.386 . S
C322 C324 1.391 . S
C323 C322 1.386 . S
C323 C327 1.393 . S
C324 H313 0.950 . S
C324 C322 1.391 . S
C324 C325 1.400 . S
C325 C319 1.491 . S
C325 C324 1.400 . S
C325 C326 1.398 . S
C326 H314 0.950 . S
C326 C325 1.398 . S
C326 C327 1.391 . S
C327 H315 0.950 . S
C327 C323 1.393 . S
C327 C326 1.391 . S
H328 C336 0.950 . S
H329 C341 0.950 . S
H330 C338 0.950 . S
H331 C340 0.950 . S
H332 C342 0.950 . S
H333 C344 0.950 . S
H334 C346 0.950 . S
H335 C347 0.950 . S
C336 H328 0.950 . S
C336 C337 1.386 . S
C336 C338 1.391 . S
C337 C336 1.386 . S
C337 C341 1.393 . S
C338 H330 0.950 . S
C338 C336 1.391 . S
C338 C339 1.400 . S
C339 C338 1.400 . S
C339 C340 1.398 . S
C339 C345 1.491 . S
C340 H331 0.950 . S
C340 C339 1.398 . S
C340 C341 1.391 . S
C341 H329 0.950 . S
C341 C337 1.393 . S
C341 C340 1.391 . S
C342 H332 0.950 . S
C342 C343 1.386 . S
C342 C344 1.391 . S
C343 C342 1.386 . S
C343 C347 1.393 . S
C344 H333 0.950 . S
C344 C342 1.391 . S
C344 C345 1.400 . S
C345 C339 1.491 . S
C345 C344 1.400 . S
C345 C346 1.398 . S
C346 H334 0.950 . S
C346 C345 1.398 . S
C346 C347 1.391 . S
C347 H335 0.950 . S
C347 C343 1.393 . S
C347 C346 1.391 . S
H348 C356 0.950 . S
H349 C361 0.950 . S
H350 C358 0.950 . S
H351 C360 0.950 . S
H352 C362 0.950 . S
H353 C364 0.950 . S
H354 C366 0.950 . S
H355 C367 0.950 . S
C356 H348 0.950 . S
C356 C357 1.386 . S
C356 C358 1.391 . S
C357 C356 1.386 . S
C357 C361 1.393 . S
C358 H350 0.950 . S
C358 C356 1.391 . S
C358 C359 1.400 . S
C359 C358 1.400 . S
C359 C360 1.398 . S
C359 C365 1.491 . S
C360 H351 0.950 . S
C360 C359 1.398 . S
C360 C361 1.391 . S
C361 H349 0.950 . S
C361 C357 1.393 . S
C361 C360 1.391 . S
C362 H352 0.950 . S
C362 C363 1.386 . S
C362 C364 1.391 . S
C363 C362 1.386 . S
C363 C367 1.393 . S
C364 H353 0.950 . S
C364 C362 1.391 . S
C364 C365 1.400 . S
C365 C359 1.491 . S
C365 C364 1.400 . S
C365 C366 1.398 . S
C366 H354 0.950 . S
C366 C365 1.398 . S
C366 C367 1.391 . S
C367 H355 0.950 . S
C367 C363 1.393 . S
C367 C366 1.391 . S
C137 N82 2.588 1_556 S
C143 N13 2.600 . S
C157 N114 2.600 . S
C163 N45 2.588 . S
C177 N77 1.073 1_554 S
C183 N18 1.076 . S
C197 N50 1.053 . S
C203 N109 1.052 . S
C217 C36 1.752 . S
C223 C6 1.762 . S
C237 C38 2.106 . S
C243 C66 2.093 . S
C257 C98 1.755 . S
C263 C93 1.773 . S
C277 C125 1.449 . S
C283 C4 1.454 . S
C297 C68 1.873 . S
C303 C102 1.884 . S
C317 C29 2.041 . S
C323 C100 2.038 . S
C337 C61 1.869 . S
C343 C2 1.886 . S
C357 C70 1.735 . S
C363 C34 1.732 . S
