# Generated by pormake.
# Topology wio, (6)-cn, num edge types: 1
# Building blocks:
#     Node 0, Type 0, BuildingBlock: BETDIP_clean_sbu_0, # of connection points: 6
#     Node 1, Type 0, BuildingBlock: BETDIP_clean_sbu_0, # of connection points: 6
#     Node 2, Type 0, BuildingBlock: BETDIP_clean_sbu_0, # of connection points: 6
#     Node 3, Type 0, BuildingBlock: BETDIP_clean_sbu_0, # of connection points: 6
#     Node 4, Type 0, BuildingBlock: BETDIP_clean_sbu_0, # of connection points: 6
#     Node 5, Type 0, BuildingBlock: BETDIP_clean_sbu_0, # of connection points: 6
#     Node 6, Type 0, BuildingBlock: BETDIP_clean_sbu_0, # of connection points: 6
#     Node 7, Type 0, BuildingBlock: BETDIP_clean_sbu_0, # of connection points: 6
#     Node 8, Type 0, BuildingBlock: BETDIP_clean_sbu_0, # of connection points: 6
#     Node 9, Type 0, BuildingBlock: BETDIP_clean_sbu_0, # of connection points: 6
#     Node 10, Type 0, BuildingBlock: BETDIP_clean_sbu_0, # of connection points: 6
#     Node 11, Type 0, BuildingBlock: BETDIP_clean_sbu_0, # of connection points: 6
#     Node 12, Type 0, BuildingBlock: BETDIP_clean_sbu_0, # of connection points: 6
#     Node 13, Type 0, BuildingBlock: BETDIP_clean_sbu_0, # of connection points: 6
#     Node 14, Type 0, BuildingBlock: BETDIP_clean_sbu_0, # of connection points: 6
#     Node 15, Type 0, BuildingBlock: BETDIP_clean_sbu_0, # of connection points: 6
#     Node 16, Type 0, BuildingBlock: BETDIP_clean_sbu_0, # of connection points: 6
#     Node 17, Type 0, BuildingBlock: BETDIP_clean_sbu_0, # of connection points: 6
#     Node 18, Type 0, BuildingBlock: BETDIP_clean_sbu_0, # of connection points: 6
#     Node 19, Type 0, BuildingBlock: BETDIP_clean_sbu_0, # of connection points: 6
#     Node 20, Type 0, BuildingBlock: BETDIP_clean_sbu_0, # of connection points: 6
#     Node 21, Type 0, BuildingBlock: BETDIP_clean_sbu_0, # of connection points: 6
#     Node 22, Type 0, BuildingBlock: BETDIP_clean_sbu_0, # of connection points: 6
#     Node 23, Type 0, BuildingBlock: BETDIP_clean_sbu_0, # of connection points: 6
#     Node 24, Type 0, BuildingBlock: BETDIP_clean_sbu_0, # of connection points: 6
#     Node 25, Type 0, BuildingBlock: BETDIP_clean_sbu_0, # of connection points: 6
#     Node 26, Type 0, BuildingBlock: BETDIP_clean_sbu_0, # of connection points: 6
#     Node 27, Type 0, BuildingBlock: BETDIP_clean_sbu_0, # of connection points: 6
#     Node 28, Type 0, BuildingBlock: BETDIP_clean_sbu_0, # of connection points: 6
#     Node 29, Type 0, BuildingBlock: BETDIP_clean_sbu_0, # of connection points: 6
#     Node 30, Type 0, BuildingBlock: BETDIP_clean_sbu_0, # of connection points: 6
#     Node 31, Type 0, BuildingBlock: BETDIP_clean_sbu_0, # of connection points: 6
#     Edge 32, Type (0, 0), None
#     Edge 33, Type (0, 0), None
#     Edge 34, Type (0, 0), None
#     Edge 35, Type (0, 0), None
#     Edge 36, Type (0, 0), None
#     Edge 37, Type (0, 0), None
#     Edge 38, Type (0, 0), None
#     Edge 39, Type (0, 0), None
#     Edge 40, Type (0, 0), None
#     Edge 41, Type (0, 0), None
#     Edge 42, Type (0, 0), None
#     Edge 43, Type (0, 0), None
#     Edge 44, Type (0, 0), None
#     Edge 45, Type (0, 0), None
#     Edge 46, Type (0, 0), None
#     Edge 47, Type (0, 0), None
#     Edge 48, Type (0, 0), None
#     Edge 49, Type (0, 0), None
#     Edge 50, Type (0, 0), None
#     Edge 51, Type (0, 0), None
#     Edge 52, Type (0, 0), None
#     Edge 53, Type (0, 0), None
#     Edge 54, Type (0, 0), None
#     Edge 55, Type (0, 0), None
#     Edge 56, Type (0, 0), None
#     Edge 57, Type (0, 0), None
#     Edge 58, Type (0, 0), None
#     Edge 59, Type (0, 0), None
#     Edge 60, Type (0, 0), None
#     Edge 61, Type (0, 0), None
#     Edge 62, Type (0, 0), None
#     Edge 63, Type (0, 0), None
#     Edge 64, Type (0, 0), None
#     Edge 65, Type (0, 0), None
#     Edge 66, Type (0, 0), None
#     Edge 67, Type (0, 0), None
#     Edge 68, Type (0, 0), None
#     Edge 69, Type (0, 0), None
#     Edge 70, Type (0, 0), None
#     Edge 71, Type (0, 0), None
#     Edge 72, Type (0, 0), None
#     Edge 73, Type (0, 0), None
#     Edge 74, Type (0, 0), None
#     Edge 75, Type (0, 0), None
#     Edge 76, Type (0, 0), None
#     Edge 77, Type (0, 0), None
#     Edge 78, Type (0, 0), None
#     Edge 79, Type (0, 0), None
#     Edge 80, Type (0, 0), None
#     Edge 81, Type (0, 0), None
#     Edge 82, Type (0, 0), None
#     Edge 83, Type (0, 0), None
#     Edge 84, Type (0, 0), None
#     Edge 85, Type (0, 0), None
#     Edge 86, Type (0, 0), None
#     Edge 87, Type (0, 0), None
#     Edge 88, Type (0, 0), None
#     Edge 89, Type (0, 0), None
#     Edge 90, Type (0, 0), None
#     Edge 91, Type (0, 0), None
#     Edge 92, Type (0, 0), None
#     Edge 93, Type (0, 0), None
#     Edge 94, Type (0, 0), None
#     Edge 95, Type (0, 0), None
#     Edge 96, Type (0, 0), None
#     Edge 97, Type (0, 0), None
#     Edge 98, Type (0, 0), None
#     Edge 99, Type (0, 0), None
#     Edge 100, Type (0, 0), None
#     Edge 101, Type (0, 0), None
#     Edge 102, Type (0, 0), None
#     Edge 103, Type (0, 0), None
#     Edge 104, Type (0, 0), None
#     Edge 105, Type (0, 0), None
#     Edge 106, Type (0, 0), None
#     Edge 107, Type (0, 0), None
#     Edge 108, Type (0, 0), None
#     Edge 109, Type (0, 0), None
#     Edge 110, Type (0, 0), None
#     Edge 111, Type (0, 0), None
#     Edge 112, Type (0, 0), None
#     Edge 113, Type (0, 0), None
#     Edge 114, Type (0, 0), None
#     Edge 115, Type (0, 0), None
#     Edge 116, Type (0, 0), None
#     Edge 117, Type (0, 0), None
#     Edge 118, Type (0, 0), None
#     Edge 119, Type (0, 0), None
#     Edge 120, Type (0, 0), None
#     Edge 121, Type (0, 0), None
#     Edge 122, Type (0, 0), None
#     Edge 123, Type (0, 0), None
#     Edge 124, Type (0, 0), None
#     Edge 125, Type (0, 0), None
#     Edge 126, Type (0, 0), None
#     Edge 127, Type (0, 0), None
# Relax obj value: 0.280
# Max RMSD: 0.259
# Mean RMSD: 0.259
data_MOF--net-wio--node1-BETDIP_clean_sbu_0--edge1-none
_symmetry_space_group_name_H-M    P1
_symmetry_Int_Tables_number       1
_symmetry_cell_setting            triclinic
loop_
_symmetry_equiv_pos_as_xyz
'x, y, z'
_cell_length_a     33.048641
_cell_length_b     33.046423
_cell_length_c     26.276752
_cell_angle_alpha  89.99684
_cell_angle_beta   90.003642
_cell_angle_gamma 89.999872
loop_
_atom_site_label
_atom_site_type_symbol
_atom_site_fract_x
_atom_site_fract_y
_atom_site_fract_z
_atom_type_partial_charge
Tb0 Tb 0.21973 0.1364 0.37456 0.0
Tb1 Tb 0.13122 0.14924 0.36982 0.0
C2 C 0.29189 0.11434 0.37161 0.0
C3 C 0.32586 0.13641 0.35031 0.0
C4 C 0.36064 0.11567 0.33542 0.0
C5 C 0.38631 0.13332 0.29983 0.0
C6 C 0.37612 0.17087 0.27832 0.0
C7 C 0.34579 0.19449 0.30026 0.0
C8 C 0.32025 0.17703 0.33605 0.0
C9 C 0.19988 0.20961 0.40575 0.0
C10 C 0.18087 0.16183 0.26657 0.0
C11 C 0.0604 0.16945 0.3953 0.0
C12 C 1.04039 0.16913 0.44622 0.0
C13 C 1.0141 0.20043 0.4609 0.0
C14 C 0.99137 0.1975 0.5061 0.0
C15 C 0.99412 0.16299 0.53746 0.0
C16 C 1.02319 0.13355 0.52466 0.0
C17 C 1.04611 0.1366 0.47995 0.0
C18 C 0.15501 0.07134 0.35667 0.0
C19 C 0.17451 0.13089 0.47387 0.0
O20 O 0.26485 0.10244 0.33816 0.0
O21 O 0.27563 0.13193 0.41099 0.0
O22 O 0.18182 0.18961 0.37103 0.0
O23 O 0.23318 0.19137 0.41605 0.0
O24 O 0.21176 0.14575 0.29184 0.0
O25 O 0.14559 0.16883 0.2901 0.0
O26 O 0.08958 0.19548 0.38857 0.0
O27 O 0.06962 0.13423 0.37599 0.0
O28 O 0.16919 0.09742 0.38647 0.0
O29 O 0.12509 0.08896 0.33349 0.0
O30 O 0.14388 0.14926 0.45206 0.0
O31 O 0.20174 0.11208 0.44635 0.0
H32 H 0.36545 0.08452 0.34668 0.0
H33 H 0.4099 0.11486 0.28298 0.0
H34 H 0.33753 0.22341 0.28379 0.0
H35 H 0.2935 0.19353 0.3477 0.0
H36 H 1.00957 0.22625 0.43613 0.0
H37 H 0.96953 0.2208 0.51353 0.0
H38 H 1.02589 0.10625 0.54728 0.0
H39 H 0.06669 0.11224 0.47045 0.0
Tb40 Tb 0.212 0.96968 0.62453 0.0
Tb41 Tb 0.19917 0.88116 0.61983 0.0
C42 C 0.23405 1.04184 0.62154 0.0
C43 C 0.21197 0.0758 0.60023 0.0
C44 C 0.23269 0.11061 0.58536 0.0
C45 C 0.21501 0.1363 0.54981 0.0
C46 C 0.17745 0.12611 0.52835 0.0
C47 C 0.15386 0.09572 0.55022 0.0
C48 C 0.17136 0.07017 0.58597 0.0
C49 C 0.13881 0.94982 0.65574 0.0
C50 C 0.18657 0.9308 0.51656 0.0
C51 C 0.17897 0.81034 0.64532 0.0
C52 C 0.17927 0.79033 0.69625 0.0
C53 C 0.14796 0.76405 0.71091 0.0
C54 C 0.15087 0.74131 0.75612 0.0
C55 C 0.18536 0.74407 0.7875 0.0
C56 C 0.21481 0.77314 0.77472 0.0
C57 C 0.21178 0.79606 0.73001 0.0
C58 C 0.27707 0.90497 0.60667 0.0
C59 C 0.21752 0.92447 0.72386 0.0
O60 O 0.24595 1.0148 0.5881 0.0
O61 O 0.21649 1.02559 0.66093 0.0
O62 O 0.1588 0.93176 0.62103 0.0
O63 O 0.15703 0.98313 0.66602 0.0
O64 O 0.20264 0.9617 0.54181 0.0
O65 O 0.17959 0.89552 0.5401 0.0
O66 O 0.15294 0.83951 0.63855 0.0
O67 O 0.2142 0.81956 0.62604 0.0
O68 O 0.25099 0.91915 0.63645 0.0
O69 O 0.25946 0.87504 0.5835 0.0
O70 O 0.19916 0.89383 0.70206 0.0
O71 O 0.23632 0.95171 0.69633 0.0
H72 H 0.26384 0.11543 0.59661 0.0
H73 H 0.23345 0.15992 0.53296 0.0
H74 H 0.12495 0.08745 0.53375 0.0
H75 H 0.15488 1.04339 0.59759 0.0
H76 H 0.12216 0.75951 0.68612 0.0
H77 H 0.12757 0.71947 0.76353 0.0
H78 H 0.24209 0.77585 0.79736 0.0
H79 H 0.23614 0.81665 0.72052 0.0
Tb80 Tb 0.37873 0.96195 0.87451 0.0
Tb81 Tb 0.46724 0.94911 0.86981 0.0
C82 C 0.30657 0.98402 0.87152 0.0
C83 C 0.27261 0.96194 0.8502 0.0
C84 C 0.23781 0.98265 0.83534 0.0
C85 C 0.21212 0.96498 0.79979 0.0
C86 C 0.2223 0.92741 0.77834 0.0
C87 C 0.25269 0.90382 0.80021 0.0
C88 C 0.27825 0.92132 0.83595 0.0
C89 C 0.39857 0.88875 0.90572 0.0
C90 C 0.4176 0.93652 0.76654 0.0
C91 C 0.53806 0.92891 0.8953 0.0
C92 C 0.55807 0.92922 0.94622 0.0
C93 C 0.58437 0.89792 0.96088 0.0
C94 C 0.60712 0.90085 1.00609 0.0
C95 C 0.60435 0.93534 1.03746 0.0
C96 C 0.57526 0.96477 1.02468 0.0
C97 C 0.55234 0.96173 0.97997 0.0
C98 C 0.44344 1.02702 0.85666 0.0
C99 C 0.42393 0.96745 0.97385 0.0
O100 O 0.33362 0.99591 0.83807 0.0
O101 O 0.32282 0.96645 0.91091 0.0
O102 O 0.41664 0.90875 0.871 0.0
O103 O 0.36526 0.90697 0.91599 0.0
O104 O 0.3867 0.9526 0.7918 0.0
O105 O 0.45288 0.92952 0.79009 0.0
O106 O 0.50889 0.90288 0.88855 0.0
O107 O 0.52883 0.96414 0.87601 0.0
O108 O 0.42926 1.00093 0.88644 0.0
O109 O 0.47337 1.0094 0.83349 0.0
O110 O 0.45457 0.94908 0.95204 0.0
O111 O 0.3967 0.98625 0.94631 0.0
H112 H 0.23299 1.01381 0.84658 0.0
H113 H 0.1885 0.98342 0.78294 0.0
H114 H 0.26096 0.87491 0.78374 0.0
H115 H 0.30502 0.90484 0.84757 0.0
H116 H 0.58892 0.87213 0.93609 0.0
H117 H 0.62897 0.87756 1.0135 0.0
H118 H 0.57254 0.99206 1.04732 0.0
H119 H 0.53174 0.98609 0.97049 0.0
Tb120 Tb 0.38646 0.12864 0.12451 0.0
Tb121 Tb 0.3993 0.21717 0.11984 0.0
C122 C 0.3644 0.05648 0.12151 0.0
C123 C 0.38647 1.02252 1.1002 0.0
C124 C 0.36575 0.98772 1.08532 0.0
C125 C 0.38341 0.96203 1.04977 0.0
C126 C 0.42099 0.97221 1.02832 0.0
C127 C 0.44458 1.00259 1.05021 0.0
C128 C 0.42709 1.02815 1.08595 0.0
C129 C 0.45966 0.14849 0.15575 0.0
C130 C 0.4119 0.16754 1.01656 0.0
C131 C 0.41953 0.28798 0.14533 0.0
C132 C 0.41924 0.30799 0.19625 0.0
C133 C 0.45055 0.33428 0.2109 0.0
C134 C 0.44764 0.35703 0.2561 0.0
C135 C 0.41316 0.35427 0.28749 0.0
C136 C 0.38372 0.32519 0.27472 0.0
C137 C 0.38674 0.30226 0.23002 0.0
C138 C 0.3214 0.19337 1.10667 0.0
C139 C 0.38093 0.17383 0.22385 0.0
O140 O 0.35251 0.08354 1.08807 0.0
O141 O 0.38197 0.07272 0.16091 0.0
O142 O 0.43966 0.16656 0.12103 0.0
O143 O 0.44144 0.11517 0.16601 0.0
O144 O 0.39583 0.13663 1.0418 0.0
O145 O 0.41888 0.20282 1.04011 0.0
O146 O 0.44555 0.25881 0.13857 0.0
O147 O 0.38429 0.27877 0.12606 0.0
O148 O 0.34749 0.17918 0.13644 0.0
O149 O 0.33902 0.22331 1.08352 0.0
O150 O 0.39929 0.20449 0.20207 0.0
O151 O 0.36215 0.1466 0.19631 0.0
H152 H 0.33459 0.98291 1.09655 0.0
H153 H 0.36497 0.93843 1.03291 0.0
H154 H 0.4735 1.01086 1.03375 0.0
H155 H 0.44357 0.05491 1.09759 0.0
H156 H 0.47634 0.33882 0.1861 0.0
H157 H 0.47094 0.37887 0.2635 0.0
H158 H 0.35644 0.32248 0.29737 0.0
H159 H 0.36238 0.28167 0.22055 0.0
Tb160 Tb 0.21973 0.9619 0.35143 0.0
Tb161 Tb 0.13121 0.94909 0.35612 0.0
C162 C 0.29189 0.98397 0.35437 0.0
C163 C 0.32587 0.96191 0.37567 0.0
C164 C 0.36067 0.98265 0.39049 0.0
C165 C 0.38637 0.96501 0.42605 0.0
C166 C 0.37621 0.92746 0.44759 0.0
C167 C 0.34586 0.90384 0.42569 0.0
C168 C 0.32028 0.92129 0.38994 0.0
C169 C 0.19987 0.88868 0.3203 0.0
C170 C 0.18084 0.93653 0.4594 0.0
C171 C 0.06039 0.92889 0.33063 0.0
C172 C 1.04039 0.92921 0.2797 0.0
C173 C 1.0141 0.89791 0.26502 0.0
C174 C 0.99137 0.90083 0.2198 0.0
C175 C 0.99415 0.93533 0.18843 0.0
C176 C 1.02323 0.96476 0.20123 0.0
C177 C 1.04613 0.96172 0.24595 0.0
C178 C 0.15496 1.02698 0.36912 0.0
C179 C 0.17455 0.96733 0.25206 0.0
O180 O 0.26485 0.99587 0.38782 0.0
O181 O 0.27563 0.96637 0.315 0.0
O182 O 0.1818 0.90871 0.35497 0.0
O183 O 0.2332 0.90688 0.31004 0.0
O184 O 0.21174 0.95261 0.43415 0.0
O185 O 0.14557 0.92953 0.43586 0.0
O186 O 0.08955 0.90286 0.33739 0.0
O187 O 0.06961 0.96412 0.34992 0.0
O188 O 0.1692 1.00088 0.3394 0.0
O189 O 0.12507 1.0094 0.3924 0.0
O190 O 0.14387 0.94903 0.27389 0.0
O191 O 0.20178 0.98613 0.27957 0.0
H192 H 0.36547 1.0138 0.37923 0.0
H193 H 0.40998 0.98348 0.44287 0.0
H194 H 0.33761 0.87492 0.44217 0.0
H195 H 0.29352 0.90479 0.37833 0.0
H196 H 1.00954 0.8721 0.2898 0.0
H197 H 0.96953 0.87754 0.21237 0.0
H198 H 1.02595 0.99205 0.17859 0.0
H199 H 0.06672 0.98608 0.25545 0.0
Tb200 Tb 0.3865 0.96971 0.60142 0.0
Tb201 Tb 0.3993 0.88117 0.6061 0.0
C202 C 0.36446 1.04187 0.60437 0.0
C203 C 0.38651 0.07585 0.62568 0.0
C204 C 0.36578 0.11065 0.6405 0.0
C205 C 0.38342 0.13636 0.67605 0.0
C206 C 0.42097 0.12619 0.6976 0.0
C207 C 0.44459 0.09583 0.67571 0.0
C208 C 0.42713 0.07025 0.63996 0.0
C209 C 0.45971 0.94983 0.57028 0.0
C210 C 0.41187 0.93079 0.70939 0.0
C211 C 0.41952 0.81035 0.58061 0.0
C212 C 0.41923 0.79036 0.52967 0.0
C213 C 0.45054 0.76408 0.515 0.0
C214 C 0.44764 0.74136 0.46978 0.0
C215 C 0.41315 0.74412 0.4384 0.0
C216 C 0.38371 0.7732 0.45118 0.0
C217 C 0.38673 0.7961 0.49591 0.0
C218 C 0.32142 0.90493 0.61912 0.0
C219 C 0.38104 0.92454 0.50206 0.0
O220 O 0.35255 1.01483 0.63782 0.0
O221 O 0.38204 1.02562 0.565 0.0
O222 O 0.43968 0.93176 0.60495 0.0
O223 O 0.44152 0.98317 0.56003 0.0
O224 O 0.39581 0.9617 0.68414 0.0
O225 O 0.41886 0.89552 0.68585 0.0
O226 O 0.44554 0.83952 0.58739 0.0
O227 O 0.38428 0.81957 0.59987 0.0
O228 O 0.34752 0.91918 0.58941 0.0
O229 O 0.339 0.87502 0.64239 0.0
O230 O 0.39933 0.89385 0.52387 0.0
O231 O 0.36225 0.95178 0.52958 0.0
H232 H 0.33464 0.11546 0.62922 0.0
H233 H 0.36497 0.15997 0.69286 0.0
H234 H 0.4735 0.08757 0.6922 0.0
H235 H 0.44363 1.04349 0.62836 0.0
H236 H 0.47634 0.75954 0.5398 0.0
H237 H 0.47094 0.71953 0.46237 0.0
H238 H 0.35642 0.77591 0.42854 0.0
H239 H 0.36236 0.81668 0.50539 0.0
Tb240 Tb 0.37872 0.13646 0.85143 0.0
Tb241 Tb 0.46725 0.14925 0.85612 0.0
C242 C 0.30656 0.11439 0.85437 0.0
C243 C 0.27258 0.13643 0.87568 0.0
C244 C 0.23779 0.11567 0.89052 0.0
C245 C 0.21209 0.1333 0.92609 0.0
C246 C 0.22225 0.17086 0.94762 0.0
C247 C 0.25258 0.19449 0.9257 0.0
C248 C 0.27815 0.17705 0.88994 0.0
C249 C 0.39859 0.20968 0.8203 0.0
C250 C 0.41762 0.16182 0.95941 0.0
C251 C 0.53807 0.16946 0.83064 0.0
C252 C 0.55807 0.16915 0.77971 0.0
C253 C 0.58437 0.20044 0.76504 0.0
C254 C 0.6071 0.19751 0.71982 0.0
C255 C 0.60432 0.16302 0.68846 0.0
C256 C 0.57523 0.13359 0.70125 0.0
C257 C 0.55233 0.13663 0.74597 0.0
C258 C 0.44349 0.07137 0.86912 0.0
C259 C 0.42389 0.13101 0.75207 0.0
O260 O 0.3336 0.10248 0.88782 0.0
O261 O 0.32281 0.132 0.81501 0.0
O262 O 0.41666 0.18963 0.85497 0.0
O263 O 0.36525 0.19149 0.81006 0.0
O264 O 0.38672 0.14575 0.93415 0.0
O265 O 0.45289 0.16881 0.93586 0.0
O266 O 0.5089 0.19549 0.83738 0.0
O267 O 0.52885 0.13423 0.84994 0.0
O268 O 0.42925 0.09748 0.83941 0.0
O269 O 0.47339 0.08894 0.8924 0.0
O270 O 0.45458 0.1493 0.77388 0.0
O271 O 0.39664 0.11223 0.77958 0.0
H272 H 0.23301 0.08452 0.87926 0.0
H273 H 0.18851 0.11482 0.94292 0.0
H274 H 0.26081 0.22342 0.94218 0.0
H275 H 0.3049 0.19357 0.87832 0.0
H276 H 0.58893 0.22624 0.78982 0.0
H277 H 0.62894 0.2208 0.7124 0.0
H278 H 0.5725 0.1063 0.67862 0.0
H279 H 0.53173 0.11228 0.75546 0.0
Tb280 Tb 0.21198 0.12863 1.10147 0.0
Tb281 Tb 0.19917 0.21717 1.10611 0.0
C282 C 0.23405 0.05647 1.10448 0.0
C283 C 0.21199 1.0225 0.12579 0.0
C284 C 0.2327 0.98768 0.1406 0.0
C285 C 0.21503 0.96195 0.17611 0.0
C286 C 0.17746 0.97212 0.19758 0.0
C287 C 0.15387 1.00252 0.17575 0.0
C288 C 0.17137 1.02812 0.14004 0.0
C289 C 0.13877 0.14848 1.07031 0.0
C290 C 0.18661 0.16755 0.20942 0.0
C291 C 0.17895 0.28798 1.08061 0.0
C292 C 0.17926 0.30798 1.02967 0.0
C293 C 0.14795 0.33427 1.015 0.0
C294 C 0.15088 0.357 0.96978 0.0
C295 C 0.18537 0.35422 0.93841 0.0
C296 C 0.2148 0.32514 0.9512 0.0
C297 C 0.21176 0.30223 0.99592 0.0
C298 C 0.27705 0.19342 0.11913 0.0
C299 C 0.21743 0.17378 1.00208 0.0
O300 O 0.24594 0.08353 0.13792 0.0
O301 O 0.21648 0.07271 1.06508 0.0
O302 O 0.1588 0.16657 1.10497 0.0
O303 O 0.15696 0.11514 1.06009 0.0
O304 O 0.20268 0.13664 0.18418 0.0
O305 O 0.17961 0.20282 0.18586 0.0
O306 O 0.15293 0.25881 1.08736 0.0
O307 O 0.21418 0.27877 1.0999 0.0
O308 O 0.25095 0.17916 1.08943 0.0
O309 O 0.25948 0.22332 0.14239 0.0
O310 O 0.19914 0.20448 1.02388 0.0
O311 O 0.23621 0.14654 1.02961 0.0
H312 H 0.26385 0.98287 0.12936 0.0
H313 H 0.23347 0.93833 0.19293 0.0
H314 H 0.12496 1.01078 0.19222 0.0
H315 H 0.15489 0.0549 0.12845 0.0
H316 H 0.12216 0.33882 1.03979 0.0
H317 H 0.12758 0.37884 0.96236 0.0
H318 H 0.24208 0.32241 0.92857 0.0
H319 H 0.23612 0.28164 1.00542 0.0
Tb320 Tb 0.9676 0.94906 0.85623 0.0
Tb321 Tb 0.8791 0.96178 0.85132 0.0
C322 C 1.03834 0.92859 0.83077 0.0
C323 C 0.05847 0.92951 0.77994 0.0
C324 C 0.08423 0.89802 0.76438 0.0
C325 C 0.10687 0.90127 0.71912 0.0
C326 C 0.10454 0.9363 0.68866 0.0
C327 C 0.07601 0.96602 0.70233 0.0
C328 C 0.05318 0.96264 0.74705 0.0
C329 C 0.94402 1.02697 0.86926 0.0
C330 C 0.92445 0.96774 0.75211 0.0
C331 C 0.80683 0.98347 0.85411 0.0
C332 C 0.77296 0.96133 0.87554 0.0
C333 C 0.73809 0.98198 0.89029 0.0
C334 C 0.7125 0.96436 0.92598 0.0
C335 C 0.72282 0.92691 0.94769 0.0
C336 C 0.75328 0.90335 0.92592 0.0
C337 C 0.77875 0.92079 0.89004 0.0
C338 C 0.89937 0.88866 0.82001 0.0
C339 C 0.91781 0.93636 0.95939 0.0
O340 O 1.00889 0.90275 0.83667 0.0
O341 O 1.02938 0.96359 0.85092 0.0
O342 O 0.92956 1.00094 0.83958 0.0
O343 O 0.97399 1.00935 0.89231 0.0
O344 O 0.95517 0.94951 0.77394 0.0
O345 O 0.89706 0.98632 0.77963 0.0
O346 O 0.8338 0.99563 0.8875 0.0
O347 O 0.82318 0.9658 0.81486 0.0
O348 O 0.91704 0.90868 0.855 0.0
O349 O 0.86612 0.90685 0.80934 0.0
O350 O 0.88693 0.9524 0.93406 0.0
O351 O 0.95312 0.92942 0.93591 0.0
H352 H 0.08838 0.87174 0.78847 0.0
H353 H 0.12825 0.87773 0.71092 0.0
H354 H 0.0736 0.99366 0.68033 0.0
H355 H 1.03294 0.98714 0.75718 0.0
H356 H 0.73315 1.01308 0.87884 0.0
H357 H 0.68881 0.98277 0.94271 0.0
H358 H 0.76165 0.87452 0.94255 0.0
H359 H 0.80558 0.90437 0.87847 0.0
Tb360 Tb 0.8993 0.21747 0.60623 0.0
Tb361 Tb 0.88661 0.12897 0.60134 0.0
C362 C 0.91977 0.28821 0.58075 0.0
C363 C 0.91889 0.30834 0.52992 0.0
C364 C 0.95038 0.33409 0.51438 0.0
C365 C 0.94716 0.35674 0.46913 0.0
C366 C 0.91215 0.35444 0.43863 0.0
C367 C 0.88242 0.3259 0.45228 0.0
C368 C 0.88577 0.30306 0.497 0.0
C369 C 0.8214 0.19387 0.61928 0.0
C370 C 0.88062 0.17432 0.50212 0.0
C371 C 0.86494 0.05668 0.60418 0.0
C372 C 0.8871 1.02283 0.62561 0.0
C373 C 0.86648 0.98793 0.64035 0.0
C374 C 0.88415 0.96232 0.676 0.0
C375 C 0.92161 0.97266 0.69765 0.0
C376 C 0.94512 1.00317 0.67594 0.0
C377 C 0.92764 1.02866 0.6401 0.0
C378 C 0.95968 0.14927 0.56992 0.0
C379 C 0.91206 0.16769 0.70939 0.0
O380 O 0.94562 0.25877 0.58668 0.0
O381 O 0.88476 0.27925 0.60087 0.0
O382 O 0.84744 0.17941 0.5896 0.0
O383 O 0.83903 0.22385 0.64232 0.0
O384 O 0.89885 0.20504 0.52394 0.0
O385 O 0.86205 0.14692 0.52966 0.0
O386 O 0.85279 0.08366 0.63756 0.0
O387 O 0.88258 0.07303 0.56491 0.0
O388 O 0.9397 0.16692 0.60497 0.0
O389 O 0.94151 0.11599 0.5593 0.0
O390 O 0.89604 0.1368 0.68407 0.0
O391 O 0.91897 0.20301 0.68591 0.0
H392 H 0.97665 0.33823 0.53849 0.0
H393 H 0.9707 0.37813 0.46096 0.0
H394 H 0.85478 0.32352 0.43027 0.0
H395 H 0.86126 0.28283 0.50711 0.0
H396 H 0.83539 0.98297 0.62893 0.0
H397 H 0.86577 0.93861 0.69273 0.0
H398 H 0.97395 1.01156 0.69257 0.0
H399 H 0.94403 0.05551 0.62856 0.0
Tb400 Tb 0.63087 0.14924 0.35626 0.0
Tb401 Tb 0.71937 0.13652 0.35137 0.0
C402 C 0.56014 0.16972 0.33079 0.0
C403 C 0.54 0.1688 0.27996 0.0
C404 C 0.51423 0.20028 0.2644 0.0
C405 C 0.49159 0.19703 0.21914 0.0
C406 C 0.49392 0.16201 0.18868 0.0
C407 C 0.52246 0.13229 0.20235 0.0
C408 C 0.54529 0.13567 0.24707 0.0
C409 C 0.65445 0.07133 0.36929 0.0
C410 C 0.67403 0.13058 0.25215 0.0
C411 C 0.79164 0.11482 0.35422 0.0
C412 C 0.82549 0.13697 0.37564 0.0
C413 C 0.86039 0.11635 0.39037 0.0
C414 C 0.88601 0.13401 0.42601 0.0
C415 C 0.87568 0.17147 0.44766 0.0
C416 C 0.84517 0.19499 0.42597 0.0
C417 C 0.81968 0.17751 0.39013 0.0
C418 C 0.69911 0.20965 0.32005 0.0
C419 C 0.68065 0.16194 0.45943 0.0
O420 O 0.58958 0.19556 0.33667 0.0
O421 O 0.56909 0.13472 0.35095 0.0
O422 O 0.66891 0.09737 0.33962 0.0
O423 O 0.62448 0.08895 0.39233 0.0
O424 O 0.64331 0.1488 0.27397 0.0
O425 O 0.70142 0.112 0.27968 0.0
O426 O 0.76466 0.10267 0.3876 0.0
O427 O 0.7753 0.13247 0.31494 0.0
O428 O 0.68143 0.18962 0.35504 0.0
O429 O 0.73236 0.19145 0.3094 0.0
O430 O 0.71153 0.1459 0.43411 0.0
O431 O 0.64534 0.16889 0.43594 0.0
H432 H 0.51007 0.22656 0.28849 0.0
H433 H 0.4702 0.22057 0.21094 0.0
H434 H 0.52487 0.10465 0.18035 0.0
H435 H 0.56553 0.11117 0.2572 0.0
H436 H 0.86534 0.08525 0.37895 0.0
H437 H 0.90972 0.11562 0.44274 0.0
H438 H 0.83679 0.22382 0.4426 0.0
H439 H 0.79283 0.19391 0.3786 0.0
Tb440 Tb 0.69916 0.88086 1.10623 0.0
Tb441 Tb 0.71185 0.96937 1.10136 0.0
C442 C 0.67868 0.81013 1.08075 0.0
C443 C 0.67958 0.78999 1.02992 0.0
C444 C 0.64809 0.76423 1.01439 0.0
C445 C 0.65133 0.74158 0.96914 0.0
C446 C 0.68634 0.74388 0.93866 0.0
C447 C 0.71606 0.77242 0.95231 0.0
C448 C 0.7127 0.79527 0.99702 0.0
C449 C 0.77706 0.90446 0.11928 0.0
C450 C 0.71786 0.92405 1.00214 0.0
C451 C 0.73353 1.04165 1.10421 0.0
C452 C 0.71138 0.07551 0.12565 0.0
C453 C 0.732 0.1104 0.1404 0.0
C454 C 0.71434 0.13601 0.17605 0.0
C455 C 0.67688 0.12567 0.19769 0.0
C456 C 0.65335 0.09517 0.17597 0.0
C457 C 0.67084 0.06969 0.14013 0.0
C458 C 0.63879 0.94906 1.06994 0.0
C459 C 0.68641 0.93062 0.2094 0.0
O460 O 0.65284 0.83958 1.08665 0.0
O461 O 0.71369 0.81908 1.10089 0.0
O462 O 0.75102 0.91893 1.08962 0.0
O463 O 0.75944 0.87447 0.14231 0.0
O464 O 0.69964 0.89331 1.02393 0.0
O465 O 0.73641 0.95144 1.02968 0.0
O466 O 0.74568 1.01467 0.13759 0.0
O467 O 0.71588 1.02532 1.06494 0.0
O468 O 0.65877 0.93141 1.10498 0.0
O469 O 0.65694 0.98235 1.05932 0.0
O470 O 0.70243 0.96153 0.18409 0.0
O471 O 0.6795 0.89531 0.18591 0.0
H472 H 0.62182 0.76009 1.03849 0.0
H473 H 0.62779 0.72018 0.96097 0.0
H474 H 0.7437 0.77481 0.93031 0.0
H475 H 0.7372 0.81551 1.00713 0.0
H476 H 0.7631 0.11535 0.12898 0.0
H477 H 0.73273 0.15971 0.19279 0.0
H478 H 0.62453 0.08678 0.19259 0.0
H479 H 0.65444 1.04284 0.12857 0.0
Tb480 Tb 0.96762 0.14923 0.86971 0.0
Tb481 Tb 0.87911 0.13655 0.8746 0.0
C482 C 1.03836 0.16968 0.89519 0.0
C483 C 0.05848 0.16877 0.94603 0.0
C484 C 0.08424 0.20026 0.96159 0.0
C485 C 0.10686 0.19702 1.00687 0.0
C486 C 0.10452 0.162 1.03734 0.0
C487 C 0.07599 0.13228 1.02366 0.0
C488 C 0.05317 0.13565 0.97892 0.0
C489 C 0.94406 0.07134 0.85683 0.0
C490 C 0.92443 0.13067 0.97385 0.0
C491 C 0.80683 0.11486 0.8718 0.0
C492 C 0.77296 0.13699 0.85039 0.0
C493 C 0.73807 0.11636 0.8357 0.0
C494 C 0.71243 0.13399 0.80005 0.0
C495 C 0.72275 0.17143 0.77832 0.0
C496 C 0.75323 0.19499 0.80004 0.0
C497 C 0.77874 0.17753 0.83588 0.0
C498 C 0.89939 0.20969 0.90584 0.0
C499 C 0.91785 0.16191 0.76653 0.0
O500 O 1.00893 0.19554 0.88926 0.0
O501 O 1.0294 0.13468 0.87505 0.0
O502 O 0.92955 0.09739 0.88644 0.0
O503 O 0.97401 0.08892 0.83367 0.0
O504 O 0.95518 0.14884 0.952 0.0
O505 O 0.89703 0.1121 0.94634 0.0
O506 O 0.8338 0.1027 0.83841 0.0
O507 O 0.82319 0.13253 0.91105 0.0
O508 O 0.91707 0.18963 0.8709 0.0
O509 O 0.86611 0.19153 0.91647 0.0
O510 O 0.88696 0.14588 0.79185 0.0
O511 O 0.95316 0.16886 0.79002 0.0
H512 H 0.0884 0.22654 0.9375 0.0
H513 H 0.12824 0.22056 1.01508 0.0
H514 H 0.07357 0.10464 1.04568 0.0
H515 H 1.03294 0.11115 0.96879 0.0
H516 H 0.73313 0.08526 0.84715 0.0
H517 H 0.68873 0.11558 0.78336 0.0
H518 H 0.76159 0.22381 0.7834 0.0
H519 H 0.80558 0.19396 0.84741 0.0
Tb520 Tb 0.69917 0.21748 0.61975 0.0
Tb521 Tb 0.71182 0.12895 0.62462 0.0
C522 C 0.6787 0.28821 0.64524 0.0
C523 C 0.67958 0.30832 0.69607 0.0
C524 C 0.64809 0.33408 0.71161 0.0
C525 C 0.65132 0.35671 0.75687 0.0
C526 C 0.68633 0.3544 0.78738 0.0
C527 C 0.71604 0.32586 0.77372 0.0
C528 C 0.71269 0.30303 0.72899 0.0
C529 C 0.77704 0.19391 0.60684 0.0
C530 C 0.71777 0.17427 0.72387 0.0
C531 C 0.73349 0.05667 0.62182 0.0
C532 C 0.71135 1.0228 0.6004 0.0
C533 C 0.73199 0.98791 0.58569 0.0
C534 C 0.71436 0.96229 0.55003 0.0
C535 C 0.67692 0.97261 0.52831 0.0
C536 C 0.65337 1.00308 0.55005 0.0
C537 C 0.67082 1.02858 0.5859 0.0
C538 C 0.63874 0.14929 0.65597 0.0
C539 C 0.68644 0.16772 0.51657 0.0
O540 O 0.65285 0.25878 0.63929 0.0
O541 O 0.71371 0.27926 0.62511 0.0
O542 O 0.75099 0.17939 0.63645 0.0
O543 O 0.75947 0.22387 0.5837 0.0
O544 O 0.6996 0.20503 0.70205 0.0
O545 O 0.73631 0.14686 0.69634 0.0
O546 O 0.74565 0.08364 0.58843 0.0
O547 O 0.71582 0.07302 0.66107 0.0
O548 O 0.65876 0.16694 0.62096 0.0
O549 O 0.65687 0.11598 0.66656 0.0
O550 O 0.70245 0.13681 0.54188 0.0
O551 O 0.67953 0.20303 0.54006 0.0
H552 H 0.62182 0.33824 0.6875 0.0
H553 H 0.62777 0.37811 0.76505 0.0
H554 H 0.74368 0.32345 0.79574 0.0
H555 H 0.7372 0.28279 0.71888 0.0
H556 H 0.76309 0.98297 0.59714 0.0
H557 H 0.73277 0.93859 0.53332 0.0
H558 H 0.62454 1.01145 0.53341 0.0
H559 H 0.65439 0.05542 0.59743 0.0
Tb560 Tb 0.63086 0.94907 0.36973 0.0
Tb561 Tb 0.71939 0.96176 0.37459 0.0
C562 C 0.56014 0.92859 0.39521 0.0
C563 C 0.54001 0.92951 0.44604 0.0
C564 C 0.51424 0.89803 0.4616 0.0
C565 C 0.49162 0.90128 0.50687 0.0
C566 C 0.49396 0.9363 0.53734 0.0
C567 C 0.52251 0.96601 0.52366 0.0
C568 C 0.54533 0.96263 0.47893 0.0
C569 C 0.65441 1.02697 0.35685 0.0
C570 C 0.67408 0.96765 0.47385 0.0
C571 C 0.79166 0.98346 0.37179 0.0
C572 C 0.82553 0.96134 0.35037 0.0
C573 C 0.86041 0.98199 0.33566 0.0
C574 C 0.88604 0.96437 0.3 0.0
C575 C 0.87574 0.92692 0.27828 0.0
C576 C 0.84527 0.90335 0.30002 0.0
C577 C 0.81976 0.92079 0.33586 0.0
C578 C 0.69911 0.88862 0.40585 0.0
C579 C 0.68063 0.9364 0.26654 0.0
O580 O 0.58958 0.90275 0.38931 0.0
O581 O 0.56909 0.96359 0.37504 0.0
O582 O 0.66894 1.00091 0.38644 0.0
O583 O 0.62446 1.00939 0.3337 0.0
O584 O 0.64332 0.9495 0.45203 0.0
O585 O 0.70149 0.98621 0.44634 0.0
O586 O 0.76468 0.99561 0.3384 0.0
O587 O 0.77531 0.96578 0.41104 0.0
O588 O 0.68142 0.90868 0.37091 0.0
O589 O 0.73239 0.90678 0.41647 0.0
O590 O 0.71152 0.95243 0.29185 0.0
O591 O 0.64532 0.92945 0.29003 0.0
H592 H 0.51008 0.87175 0.43751 0.0
H593 H 0.47023 0.87774 0.51507 0.0
H594 H 0.52493 0.99365 0.54567 0.0
H595 H 0.56557 0.98712 0.4688 0.0
H596 H 0.86534 1.01308 0.34711 0.0
H597 H 0.90973 0.98279 0.2833 0.0
H598 H 0.83692 0.87452 0.28338 0.0
H599 H 0.79293 0.90436 0.34739 0.0
Tb600 Tb 0.8993 0.88085 0.11973 0.0
Tb601 Tb 0.88665 0.96937 0.12456 0.0
C602 C 0.91977 0.81012 0.14523 0.0
C603 C 0.91889 0.79 0.19606 0.0
C604 C 0.95038 0.76422 0.21159 0.0
C605 C 0.94715 0.74158 0.25684 0.0
C606 C 0.91216 0.74391 0.28736 0.0
C607 C 0.88245 0.77246 0.27372 0.0
C608 C 0.88579 0.7953 0.22899 0.0
C609 C 0.82142 0.90441 1.10683 0.0
C610 C 0.88072 0.92408 0.22383 0.0
C611 C 0.86497 1.04165 0.12171 0.0
C612 C 0.88711 0.07552 1.10028 0.0
C613 C 0.86649 0.11042 1.08558 0.0
C614 C 0.88415 0.13607 1.04997 0.0
C615 C 0.92161 0.12575 1.02831 0.0
C616 C 0.94513 0.09522 1.04999 0.0
C617 C 0.92765 0.06971 1.08579 0.0
C618 C 0.95972 0.94905 0.15592 0.0
C619 C 0.91202 0.93059 1.01653 0.0
O620 O 0.94561 0.83955 0.13929 0.0
O621 O 0.88476 0.81907 0.12511 0.0
O622 O 0.84748 0.91894 0.13642 0.0
O623 O 0.83899 0.87445 1.08369 0.0
O624 O 0.89887 0.8933 0.20202 0.0
O625 O 0.86217 0.95148 0.1963 0.0
O626 O 0.85281 1.01467 1.08833 0.0
O627 O 0.88262 1.02531 0.16098 0.0
O628 O 0.93971 0.93139 0.12092 0.0
O629 O 0.9416 0.98237 0.16649 0.0
O630 O 0.89601 0.9615 1.04183 0.0
O631 O 0.91893 0.89528 1.04003 0.0
H632 H 0.97663 0.76006 0.18747 0.0
H633 H 0.97069 0.72017 0.26501 0.0
H634 H 0.85482 0.77488 0.29575 0.0
H635 H 0.86129 0.81554 0.21889 0.0
H636 H 0.8354 0.11537 1.09702 0.0
H637 H 0.86577 0.15979 1.03327 0.0
H638 H 0.97396 0.08685 1.03335 0.0
H639 H 0.94405 1.04285 1.09731 0.0
Tb640 Tb 0.71974 0.6364 0.87457 0.0
Tb641 Tb 0.63123 0.64923 0.86983 0.0
C642 C 0.7919 0.61436 0.87163 0.0
C643 C 0.82587 0.63642 0.85031 0.0
C644 C 0.86065 0.61568 0.83542 0.0
C645 C 0.88631 0.63331 0.79982 0.0
C646 C 0.87613 0.67087 0.77831 0.0
C647 C 0.8458 0.69449 0.80025 0.0
C648 C 0.82027 0.67704 0.83605 0.0
C649 C 0.69985 0.70956 0.90584 0.0
C650 C 0.68088 0.66185 0.76658 0.0
C651 C 0.56041 0.66944 0.89531 0.0
C652 C 0.5404 0.66913 0.94623 0.0
C653 C 0.51411 0.70044 0.96089 0.0
C654 C 0.49137 0.69753 1.00609 0.0
C655 C 0.49413 0.66304 1.03747 0.0
C656 C 0.52321 0.63359 1.0247 0.0
C657 C 0.54612 0.63662 0.97999 0.0
C658 C 0.65504 0.57133 0.85667 0.0
C659 C 0.67452 0.63086 0.97388 0.0
O660 O 0.76487 0.60245 0.83818 0.0
O661 O 0.77565 0.63195 0.911 0.0
O662 O 0.68182 0.6896 0.87106 0.0
O663 O 0.73318 0.69136 0.91611 0.0
O664 O 0.71179 0.64579 0.79185 0.0
O665 O 0.6456 0.66882 0.79011 0.0
O666 O 0.58958 0.69547 0.88856 0.0
O667 O 0.56963 0.6342 0.87603 0.0
O668 O 0.66921 0.59741 0.88647 0.0
O669 O 0.62511 0.58894 0.8335 0.0
O670 O 0.64388 0.64924 0.95207 0.0
O671 O 0.70175 0.61206 0.94635 0.0
H672 H 0.86546 0.58452 0.84668 0.0
H673 H 0.9099 0.61485 0.78297 0.0
H674 H 0.83754 0.72341 0.78378 0.0
H675 H 0.79352 0.69354 0.8477 0.0
H676 H 0.50957 0.72624 0.93609 0.0
H677 H 0.46953 0.72083 1.01349 0.0
H678 H 0.52591 0.60631 1.04734 0.0
H679 H 0.56671 0.61226 0.97051 0.0
Tb680 Tb 0.71205 0.46964 0.12452 0.0
Tb681 Tb 0.6992 0.38112 0.11983 0.0
C682 C 0.73411 0.5418 0.12151 0.0
C683 C 0.71202 0.57575 1.1002 0.0
C684 C 0.73271 0.61057 1.08535 0.0
C685 C 0.71502 0.63627 1.04981 0.0
C686 C 0.67746 0.62607 1.02835 0.0
C687 C 0.65389 0.59566 1.05021 0.0
C688 C 0.6714 0.5701 1.08594 0.0
C689 C 0.63885 0.4498 0.15574 0.0
C690 C 0.6866 0.43076 1.01656 0.0
C691 C 0.67897 0.31031 0.14533 0.0
C692 C 0.67928 0.2903 0.19626 0.0
C693 C 0.64797 0.26401 0.21094 0.0
C694 C 0.65089 0.24128 0.25616 0.0
C695 C 0.68539 0.24406 0.28752 0.0
C696 C 0.71483 0.27313 0.27473 0.0
C697 C 0.71179 0.29604 0.23001 0.0
C698 C 0.7771 0.4049 1.10666 0.0
C699 C 0.71757 0.42444 0.22385 0.0
O700 O 0.74599 0.51475 1.08807 0.0
O701 O 0.71656 0.52555 0.16092 0.0
O702 O 0.65884 0.43173 0.12102 0.0
O703 O 0.65709 0.48311 0.16602 0.0
O704 O 0.70269 0.46166 1.04181 0.0
O705 O 0.6796 0.39548 1.0401 0.0
O706 O 0.65295 0.33948 0.13858 0.0
O707 O 0.7142 0.31952 0.12604 0.0
O708 O 0.75102 0.41909 0.13645 0.0
O709 O 0.75948 0.37497 1.0835 0.0
O710 O 0.69919 0.3938 0.20206 0.0
O711 O 0.73637 0.45166 0.19631 0.0
H712 H 0.76386 0.61541 1.09659 0.0
H713 H 0.73344 0.6599 1.03298 0.0
H714 H 0.62498 0.58738 1.03374 0.0
H715 H 0.65494 0.54331 1.09755 0.0
H716 H 0.62217 0.25947 0.18615 0.0
H717 H 0.62759 0.21946 0.26359 0.0
H718 H 0.74212 0.27585 0.29737 0.0
H719 H 0.73616 0.31662 0.22052 0.0
Tb720 Tb 0.87877 0.46192 0.37451 0.0
Tb721 Tb 0.96728 0.44909 0.3698 0.0
C722 C 0.80661 0.48398 0.37152 0.0
C723 C 0.77265 0.46191 0.35021 0.0
C724 C 0.73786 0.48263 0.33533 0.0
C725 C 0.71217 0.46496 0.29977 0.0
C726 C 0.72235 0.42738 0.27833 0.0
C727 C 0.75273 0.40379 0.30021 0.0
C728 C 0.77828 0.42129 0.33596 0.0
C729 C 0.89865 0.38876 0.4058 0.0
C730 C 0.91764 0.43646 0.26655 0.0
C731 C 1.0381 0.42887 0.39529 0.0
C732 C 0.05812 0.4292 0.44621 0.0
C733 C 0.08442 0.3979 0.46088 0.0
C734 C 0.10716 0.40083 0.50608 0.0
C735 C 0.10439 0.43533 0.53745 0.0
C736 C 0.07531 0.46476 0.52465 0.0
C737 C 0.05239 0.46172 0.47995 0.0
C738 C 0.94348 0.52699 0.35665 0.0
C739 C 0.92398 0.46744 0.47384 0.0
O740 O 0.83366 0.49588 0.33809 0.0
O741 O 0.82286 0.4664 0.41092 0.0
O742 O 0.91669 0.40871 0.37102 0.0
O743 O 0.86532 0.40696 0.41605 0.0
O744 O 0.88673 0.45253 0.2918 0.0
O745 O 0.95292 0.42949 0.29008 0.0
O746 O 1.00892 0.40285 0.38857 0.0
O747 O 1.02888 0.4641 0.37598 0.0
O748 O 0.9293 0.5009 0.38643 0.0
O749 O 0.97341 0.50938 0.33348 0.0
O750 O 0.95463 0.44907 0.45204 0.0
O751 O 0.89675 0.48624 0.44631 0.0
H752 H 0.73304 0.51378 0.34656 0.0
H753 H 0.68856 0.4834 0.28292 0.0
H754 H 0.761 0.37487 0.28375 0.0
H755 H 0.80505 0.4048 0.34759 0.0
H756 H 0.08896 0.3721 0.4361 0.0
H757 H 0.129 0.37754 0.5135 0.0
H758 H 0.07259 0.49205 0.54728 0.0
H759 H 1.0318 0.48608 0.47046 0.0
Tb760 Tb 0.88648 0.62864 0.6245 0.0
Tb761 Tb 0.89931 0.71717 0.61983 0.0
C762 C 0.86442 0.55648 0.62149 0.0
C763 C 0.8865 0.52253 0.60017 0.0
C764 C 0.8658 0.48772 0.58531 0.0
C765 C 0.88348 0.46203 0.54977 0.0
C766 C 0.92105 0.47222 0.52832 0.0
C767 C 0.94463 0.50261 0.55018 0.0
C768 C 0.92712 0.52817 0.58592 0.0
C769 C 0.95967 0.64849 0.65573 0.0
C770 C 0.91191 0.66754 0.51655 0.0
C771 C 0.91954 0.78798 0.64533 0.0
C772 C 0.91922 0.808 0.69625 0.0
C773 C 0.95052 0.83429 0.71093 0.0
C774 C 0.9476 0.85702 0.75614 0.0
C775 C 0.9131 0.85424 0.78749 0.0
C776 C 0.88366 0.82516 0.7747 0.0
C777 C 0.88671 0.80226 0.72999 0.0
C778 C 0.82141 0.69338 0.60666 0.0
C779 C 0.88094 0.67382 0.72384 0.0
O780 O 0.85253 0.58354 0.58805 0.0
O781 O 0.88198 0.57272 0.66089 0.0
O782 O 0.93967 0.66656 0.62102 0.0
O783 O 0.94145 0.61518 0.666 0.0
O784 O 0.89584 0.63664 0.54179 0.0
O785 O 0.9189 0.70282 0.5401 0.0
O786 O 0.94556 0.7588 0.6386 0.0
O787 O 0.88431 0.77878 0.62602 0.0
O788 O 0.8475 0.67918 0.63643 0.0
O789 O 0.83903 0.72332 0.58351 0.0
O790 O 0.8993 0.70449 0.70206 0.0
O791 O 0.86216 0.64659 0.6963 0.0
H792 H 0.83465 0.48289 0.59655 0.0
H793 H 0.86505 0.43841 0.53292 0.0
H794 H 0.97354 0.51089 0.53372 0.0
H795 H 0.94359 0.55495 0.59754 0.0
H796 H 0.97632 0.83884 0.68614 0.0
H797 H 0.97089 0.87886 0.76357 0.0
H798 H 0.85638 0.82244 0.79734 0.0
H799 H 0.86235 0.78166 0.7205 0.0
Tb800 Tb 0.71974 0.46188 0.85142 0.0
Tb801 Tb 0.63122 0.44909 0.85613 0.0
C802 C 0.79191 0.48392 0.85436 0.0
C803 C 0.82588 0.46185 0.87567 0.0
C804 C 0.86069 0.48258 0.89048 0.0
C805 C 0.88639 0.46493 0.92604 0.0
C806 C 0.87622 0.42738 0.94759 0.0
C807 C 0.84585 0.40377 0.92571 0.0
C808 C 0.82027 0.42124 0.88996 0.0
C809 C 0.69984 0.38871 0.82022 0.0
C810 C 0.68086 0.43649 0.9594 0.0
C811 C 0.5604 0.42889 0.83064 0.0
C812 C 0.5404 0.42921 0.77971 0.0
C813 C 0.51411 0.39791 0.76503 0.0
C814 C 0.49139 0.40083 0.71981 0.0
C815 C 0.49417 0.43533 0.68843 0.0
C816 C 0.52325 0.46477 0.70124 0.0
C817 C 0.54614 0.46173 0.74597 0.0
C818 C 0.65499 0.52697 0.86913 0.0
C819 C 0.67454 0.46735 0.75207 0.0
O820 O 0.76487 0.49583 0.88781 0.0
O821 O 0.77565 0.46632 0.81499 0.0
O822 O 0.6818 0.4087 0.85496 0.0
O823 O 0.73319 0.40688 0.80998 0.0
O824 O 0.71177 0.45255 0.93414 0.0
O825 O 0.64558 0.42951 0.93587 0.0
O826 O 0.58957 0.40286 0.83739 0.0
O827 O 0.56962 0.46412 0.84994 0.0
O828 O 0.66922 0.50087 0.83941 0.0
O829 O 0.6251 0.5094 0.89242 0.0
O830 O 0.64387 0.44904 0.7739 0.0
O831 O 0.70179 0.48613 0.77958 0.0
H832 H 0.8655 0.51372 0.8792 0.0
H833 H 0.91001 0.48338 0.94285 0.0
H834 H 0.83759 0.37486 0.9422 0.0
H835 H 0.7935 0.40474 0.87836 0.0
H836 H 0.50956 0.37211 0.78981 0.0
H837 H 0.46956 0.37754 0.71238 0.0
H838 H 0.52597 0.49205 0.67861 0.0
H839 H 0.56673 0.48609 0.75547 0.0
Tb840 Tb 0.88653 0.46964 1.10142 0.0
Tb841 Tb 0.89934 0.3811 1.1061 0.0
C842 C 0.86449 0.5418 1.10437 0.0
C843 C 0.88655 0.57578 0.12568 0.0
C844 C 0.86582 0.61059 0.14049 0.0
C845 C 0.88347 0.63629 0.17605 0.0
C846 C 0.92101 0.62612 0.1976 0.0
C847 C 0.94462 0.59575 0.17572 0.0
C848 C 0.92716 0.57017 0.13998 0.0
C849 C 0.95974 0.44976 1.07027 0.0
C850 C 0.9119 0.43073 0.20939 0.0
C851 C 0.91957 0.31029 1.0806 0.0
C852 C 0.91925 0.29029 1.02967 0.0
C853 C 0.95055 0.26401 1.01497 0.0
C854 C 0.94763 0.2413 0.96974 0.0
C855 C 0.91312 0.24409 0.93839 0.0
C856 C 0.88368 0.27315 0.9512 0.0
C857 C 0.88673 0.29604 0.99593 0.0
C858 C 0.82146 0.40485 0.11911 0.0
C859 C 0.88105 0.42446 1.00206 0.0
O860 O 0.85258 0.51476 0.13782 0.0
O861 O 0.88208 0.52555 1.065 0.0
O862 O 0.93971 0.43169 1.10495 0.0
O863 O 0.94155 0.4831 1.06002 0.0
O864 O 0.89584 0.46164 0.18414 0.0
O865 O 0.9189 0.39546 0.18585 0.0
O866 O 0.94558 0.33947 1.08734 0.0
O867 O 0.88434 0.31949 1.09991 0.0
O868 O 0.84755 0.4191 1.08941 0.0
O869 O 0.83903 0.37494 0.14238 0.0
O870 O 0.89935 0.39377 1.02386 0.0
O871 O 0.86228 0.45171 1.02958 0.0
H872 H 0.83468 0.6154 0.12921 0.0
H873 H 0.86501 0.65991 0.19285 0.0
H874 H 0.97353 0.58749 0.19222 0.0
H875 H 0.94366 0.5434 0.12838 0.0
H876 H 0.97636 0.25946 1.03974 0.0
H877 H 0.97093 0.21948 0.96229 0.0
H878 H 0.85639 0.27589 0.92857 0.0
H879 H 0.86237 0.31662 1.00544 0.0
Tb880 Tb 0.87875 0.63643 0.35142 0.0
Tb881 Tb 0.96728 0.64923 0.35612 0.0
C882 C 0.80658 0.61438 0.35438 0.0
C883 C 0.77261 0.63643 0.3757 0.0
C884 C 0.73782 0.61569 0.39052 0.0
C885 C 0.71211 0.63333 0.42609 0.0
C886 C 0.72228 0.67088 0.44762 0.0
C887 C 0.75263 0.6945 0.42573 0.0
C888 C 0.77821 0.67705 0.38998 0.0
C889 C 0.89864 0.7096 0.32021 0.0
C890 C 0.91764 0.66182 0.4594 0.0
C891 C 1.03809 0.66945 0.33063 0.0
C892 C 0.05809 0.66914 0.27971 0.0
C893 C 0.08438 0.70044 0.26503 0.0
C894 C 0.10711 0.69752 0.21982 0.0
C895 C 0.10433 0.66303 0.18845 0.0
C896 C 0.07526 0.63359 0.20124 0.0
C897 C 0.05235 0.63663 0.24596 0.0
C898 C 0.94352 0.57134 0.36912 0.0
C899 C 0.92393 0.63095 0.25207 0.0
O900 O 0.83363 0.60247 0.38782 0.0
O901 O 0.82283 0.63199 0.31501 0.0
O902 O 0.91669 0.68961 0.35495 0.0
O903 O 0.86529 0.69143 0.30998 0.0
O904 O 0.88673 0.64576 0.43414 0.0
O905 O 0.95292 0.66879 0.43586 0.0
O906 O 1.00891 0.69547 0.33736 0.0
O907 O 1.02888 0.63422 0.34994 0.0
O908 O 0.92927 0.59745 0.33942 0.0
O909 O 0.97342 0.58891 0.3924 0.0
O910 O 0.95461 0.64925 0.27388 0.0
O911 O 0.89668 0.61218 0.27959 0.0
H912 H 0.73301 0.58454 0.37925 0.0
H913 H 0.68851 0.61487 0.4429 0.0
H914 H 0.76088 0.72342 0.44222 0.0
H915 H 0.80497 0.69355 0.37837 0.0
H916 H 0.08894 0.72624 0.28982 0.0
H917 H 0.12895 0.72081 0.2124 0.0
H918 H 0.07253 0.6063 0.17861 0.0
H919 H 1.03176 0.61227 0.25545 0.0
Tb920 Tb 0.71198 0.62865 0.60148 0.0
Tb921 Tb 0.69919 0.71719 0.60612 0.0
C922 C 0.73404 0.55649 0.60448 0.0
C923 C 0.71197 0.52252 0.62579 0.0
C924 C 0.73268 0.4877 0.6406 0.0
C925 C 0.71501 0.46197 0.67611 0.0
C926 C 0.67745 0.47214 0.69759 0.0
C927 C 0.65386 0.50255 0.67577 0.0
C928 C 0.67136 0.52815 0.64006 0.0
C929 C 0.63877 0.64851 0.57031 0.0
C930 C 0.68662 0.66758 0.70943 0.0
C931 C 0.67897 0.78801 0.58061 0.0
C932 C 0.67927 0.808 0.52968 0.0
C933 C 0.64797 0.8343 0.515 0.0
C934 C 0.65089 0.85702 0.46977 0.0
C935 C 0.68538 0.85422 0.43841 0.0
C936 C 0.71481 0.82514 0.45119 0.0
C937 C 0.71177 0.80225 0.49592 0.0
C938 C 0.77707 0.69343 0.61913 0.0
C939 C 0.71745 0.6738 0.50209 0.0
O940 O 0.74594 0.58354 0.63792 0.0
O941 O 0.71647 0.57273 0.56509 0.0
O942 O 0.65881 0.6666 0.60498 0.0
O943 O 0.65696 0.61517 0.56009 0.0
O944 O 0.70268 0.63666 0.68419 0.0
O945 O 0.67963 0.70285 0.68587 0.0
O946 O 0.65294 0.75883 0.58737 0.0
O947 O 0.7142 0.77879 0.59991 0.0
O948 O 0.75096 0.67918 0.58943 0.0
O949 O 0.7595 0.72334 0.64239 0.0
O950 O 0.69916 0.7045 0.52389 0.0
O951 O 0.73622 0.64656 0.52962 0.0
H952 H 0.76383 0.48288 0.62934 0.0
H953 H 0.73345 0.43834 0.69292 0.0
H954 H 0.62495 0.51081 0.69225 0.0
H955 H 0.65488 0.55493 0.62848 0.0
H956 H 0.62218 0.83887 0.53979 0.0
H957 H 0.6276 0.87886 0.46234 0.0
H958 H 0.74209 0.8224 0.42855 0.0
H959 H 0.73613 0.78165 0.50542 0.0
Tb960 Tb 0.46764 0.4491 0.35624 0.0
Tb961 Tb 0.37914 0.4618 0.35131 0.0
C962 C 0.53837 0.42862 0.33077 0.0
C963 C 0.5585 0.42953 0.27994 0.0
C964 C 0.58426 0.39803 0.26439 0.0
C965 C 0.6069 0.40127 0.21913 0.0
C966 C 0.60458 0.4363 0.18866 0.0
C967 C 0.57606 0.46602 0.20232 0.0
C968 C 0.55322 0.46266 0.24704 0.0
C969 C 0.44405 0.52701 0.36927 0.0
C970 C 0.4245 0.4678 0.25212 0.0
C971 C 0.30686 0.48348 0.35411 0.0
C972 C 0.273 0.46134 0.37554 0.0
C973 C 0.23813 0.48198 0.3903 0.0
C974 C 0.21253 0.46435 0.42598 0.0
C975 C 0.22287 0.4269 0.44769 0.0
C976 C 0.25333 0.40335 0.42592 0.0
C977 C 0.2788 0.4208 0.39004 0.0
C978 C 0.39944 0.38873 0.31993 0.0
C979 C 0.41785 0.43637 0.45938 0.0
O980 O 0.50892 0.40278 0.33666 0.0
O981 O 0.52942 0.46362 0.35092 0.0
O982 O 0.42959 0.50097 0.33959 0.0
O983 O 0.47402 0.50938 0.39232 0.0
O984 O 0.45521 0.44955 0.27394 0.0
O985 O 0.39711 0.48637 0.27964 0.0
O986 O 0.33383 0.49565 0.3875 0.0
O987 O 0.32321 0.46582 0.31486 0.0
O988 O 0.41708 0.40871 0.35498 0.0
O989 O 0.36617 0.4069 0.30927 0.0
O990 O 0.38696 0.45239 0.43405 0.0
O991 O 0.45316 0.42944 0.43591 0.0
H992 H 0.58841 0.37175 0.28849 0.0
H993 H 0.62828 0.37772 0.21094 0.0
H994 H 0.57366 0.49366 0.18031 0.0
H995 H 0.53299 0.48716 0.25717 0.0
H996 H 0.23318 0.51308 0.37885 0.0
H997 H 0.18885 0.48276 0.44271 0.0
H998 H 0.26171 0.37452 0.44255 0.0
H999 H 0.30563 0.40438 0.37847 0.0
Tb1000 Tb 0.39931 0.71753 1.10624 0.0
Tb1001 Tb 0.38662 0.62902 1.10135 0.0
C1002 C 0.41979 0.78826 1.08075 0.0
C1003 C 0.41887 0.8084 1.02992 0.0
C1004 C 0.45036 0.83415 1.01435 0.0
C1005 C 0.44711 0.85679 0.96909 0.0
C1006 C 0.41208 0.85448 0.93864 0.0
C1007 C 0.38236 0.82595 0.95231 0.0
C1008 C 0.38573 0.80311 0.99704 0.0
C1009 C 0.32141 0.69393 0.11928 0.0
C1010 C 0.38062 0.67437 1.00213 0.0
C1011 C 0.36495 0.55674 1.10421 0.0
C1012 C 0.38712 0.52289 0.12563 0.0
C1013 C 0.36651 0.48798 0.14037 0.0
C1014 C 0.38419 0.46237 0.17601 0.0
C1015 C 0.42165 0.47272 0.19765 0.0
C1016 C 0.44515 0.50324 0.17595 0.0
C1017 C 0.42765 0.52873 0.14012 0.0
C1018 C 0.45968 0.64932 1.06993 0.0
C1019 C 0.41207 0.66775 0.2094 0.0
O1020 O 0.44563 0.75881 1.08664 0.0
O1021 O 0.38479 0.77931 1.10091 0.0
O1022 O 0.34745 0.67947 1.08961 0.0
O1023 O 0.33903 0.72391 0.14231 0.0
O1024 O 0.39885 0.70509 1.02394 0.0
O1025 O 0.36206 0.64697 1.02967 0.0
O1026 O 0.3528 0.58372 0.13759 0.0
O1027 O 0.38258 0.57308 1.06493 0.0
O1028 O 0.43971 0.66697 1.10498 0.0
O1029 O 0.44152 0.61605 1.05931 0.0
O1030 O 0.39604 0.63686 0.18409 0.0
O1031 O 0.41898 0.70307 0.18591 0.0
H1032 H 0.47664 0.83829 1.03843 0.0
H1033 H 0.47066 0.87817 0.96088 0.0
H1034 H 0.35471 0.82355 0.93031 0.0
H1035 H 0.36123 0.78288 1.00717 0.0
H1036 H 0.33542 0.48302 0.12895 0.0
H1037 H 0.36581 0.43865 0.19273 0.0
H1038 H 0.47398 0.51164 0.19258 0.0
H1039 H 0.44404 0.55559 0.12858 0.0
Tb1040 Tb 0.13088 0.64923 0.85626 0.0
Tb1041 Tb 0.21938 0.63654 0.85136 0.0
C1042 C 0.06015 0.6697 0.83078 0.0
C1043 C 1.04001 0.66879 0.77995 0.0
C1044 C 1.01424 0.70027 0.7644 0.0
C1045 C 0.9916 0.69702 0.71914 0.0
C1046 C 0.99393 0.66201 0.68867 0.0
C1047 C 1.02247 0.63229 0.70233 0.0
C1048 C 1.04531 0.63566 0.74705 0.0
C1049 C 0.15449 0.57133 0.86928 0.0
C1050 C 0.17403 0.63057 0.75214 0.0
C1051 C 0.29166 0.61486 0.8542 0.0
C1052 C 0.32551 0.63701 0.87564 0.0
C1053 C 0.3604 0.6164 0.89038 0.0
C1054 C 0.38602 0.63405 0.92602 0.0
C1055 C 0.37568 0.67152 0.94767 0.0
C1056 C 0.34517 0.69504 0.92597 0.0
C1057 C 0.31968 0.67755 0.89013 0.0
C1058 C 0.19908 0.70961 0.81996 0.0
C1059 C 0.18066 0.66197 0.95941 0.0
O1060 O 0.08959 0.69555 0.83667 0.0
O1061 O 0.0691 0.6347 0.85094 0.0
O1062 O 0.16894 0.59738 0.83962 0.0
O1063 O 0.12451 0.58894 0.89233 0.0
O1064 O 0.14331 0.64879 0.77396 0.0
O1065 O 0.20143 0.612 0.77967 0.0
O1066 O 0.26468 0.6027 0.88758 0.0
O1067 O 0.27531 0.63251 0.81493 0.0
O1068 O 0.18143 0.68963 0.85501 0.0
O1069 O 0.23235 0.69145 0.80933 0.0
O1070 O 0.21155 0.64595 0.93409 0.0
O1071 O 0.14535 0.66889 0.93594 0.0
H1072 H 1.01008 0.72655 0.7885 0.0
H1073 H 0.9702 0.72056 0.71095 0.0
H1074 H 1.02489 0.60466 0.68032 0.0
H1075 H 0.06555 0.61117 0.75718 0.0
H1076 H 0.36536 0.5853 0.87895 0.0
H1077 H 0.40973 0.61567 0.94275 0.0
H1078 H 0.33678 0.72386 0.9426 0.0
H1079 H 0.29283 0.69395 0.87859 0.0
Tb1080 Tb 0.1992 0.38084 0.60622 0.0
Tb1081 Tb 0.21188 0.46936 0.60136 0.0
C1082 C 0.17871 0.31011 0.58073 0.0
C1083 C 0.17961 0.28998 0.52991 0.0
C1084 C 0.14812 0.26421 0.51437 0.0
C1085 C 0.15135 0.24156 0.46912 0.0
C1086 C 0.18637 0.24389 0.43864 0.0
C1087 C 0.21608 0.27243 0.45228 0.0
C1088 C 0.21272 0.29527 0.497 0.0
C1089 C 0.2771 0.40444 0.61928 0.0
C1090 C 0.2179 0.42403 0.50214 0.0
C1091 C 0.23356 0.54164 0.60422 0.0
C1092 C 0.2114 0.57549 0.62565 0.0
C1093 C 0.23201 0.61038 0.6404 0.0
C1094 C 0.21435 0.63599 0.67604 0.0
C1095 C 0.17688 0.62565 0.69768 0.0
C1096 C 0.15337 0.59514 0.67597 0.0
C1097 C 0.17086 0.56965 0.64013 0.0
C1098 C 0.13883 0.44905 0.56993 0.0
C1099 C 0.18644 0.4306 0.70939 0.0
O1100 O 0.15288 0.33956 0.58664 0.0
O1101 O 0.21372 0.31906 0.60088 0.0
O1102 O 0.25105 0.41891 0.58962 0.0
O1103 O 0.25948 0.37445 0.6423 0.0
O1104 O 0.19968 0.39329 0.52393 0.0
O1105 O 0.23645 0.45142 0.52968 0.0
O1106 O 0.24571 0.51465 0.6376 0.0
O1107 O 0.21592 0.5253 0.56494 0.0
O1108 O 0.1588 0.43139 0.60497 0.0
O1109 O 0.15698 0.48233 0.55932 0.0
O1110 O 0.20246 0.46151 0.68409 0.0
O1111 O 0.17954 0.39529 0.68591 0.0
H1112 H 0.12185 0.26006 0.53847 0.0
H1113 H 0.12781 0.22017 0.46093 0.0
H1114 H 0.24372 0.27483 0.43026 0.0
H1115 H 0.23722 0.31551 0.50711 0.0
H1116 H 0.26311 0.61534 0.62898 0.0
H1117 H 0.23272 0.6597 0.69277 0.0
H1118 H 0.12455 0.58674 0.6926 0.0
H1119 H 0.15447 0.5428 0.62859 0.0
Tb1120 Tb 0.46764 0.64926 0.36971 0.0
Tb1121 Tb 0.37913 0.63659 0.37461 0.0
C1122 C 0.53837 0.66974 0.3952 0.0
C1123 C 0.55849 0.66882 0.44603 0.0
C1124 C 0.58426 0.7003 0.4616 0.0
C1125 C 0.60688 0.69705 0.50687 0.0
C1126 C 0.60453 0.66204 0.53735 0.0
C1127 C 0.57599 0.63233 0.52367 0.0
C1128 C 0.55318 0.6357 0.47893 0.0
C1129 C 0.44409 0.57137 0.35684 0.0
C1130 C 0.42446 0.63068 0.47385 0.0
C1131 C 0.30685 0.6149 0.37181 0.0
C1132 C 0.27298 0.63703 0.35039 0.0
C1133 C 0.23809 0.61639 0.33569 0.0
C1134 C 0.21246 0.63402 0.30004 0.0
C1135 C 0.22277 0.67146 0.27831 0.0
C1136 C 0.25325 0.69502 0.30003 0.0
C1137 C 0.27876 0.67757 0.33587 0.0
C1138 C 0.39943 0.70968 0.40593 0.0
C1139 C 0.41786 0.66197 0.26654 0.0
O1140 O 0.50893 0.69558 0.38929 0.0
O1141 O 0.52942 0.63474 0.37504 0.0
O1142 O 0.42957 0.59743 0.38644 0.0
O1143 O 0.47403 0.58895 0.33368 0.0
O1144 O 0.45521 0.64886 0.45201 0.0
O1145 O 0.39706 0.61211 0.44634 0.0
O1146 O 0.33382 0.60274 0.33842 0.0
O1147 O 0.32321 0.63257 0.41105 0.0
O1148 O 0.41709 0.68967 0.37092 0.0
O1149 O 0.36614 0.69154 0.41653 0.0
O1150 O 0.38697 0.64594 0.29186 0.0
O1151 O 0.45317 0.6689 0.29002 0.0
H1152 H 0.58843 0.72658 0.4375 0.0
H1153 H 0.62827 0.7206 0.51508 0.0
H1154 H 0.57356 0.60469 0.54569 0.0
H1155 H 0.53294 0.61121 0.4688 0.0
H1156 H 0.23315 0.5853 0.34715 0.0
H1157 H 0.18876 0.61561 0.28334 0.0
H1158 H 0.26161 0.72385 0.28338 0.0
H1159 H 0.3056 0.69399 0.3474 0.0
Tb1160 Tb 0.19917 0.71752 0.11974 0.0
Tb1161 Tb 0.21184 0.62899 0.1246 0.0
C1162 C 0.17869 0.78824 0.14523 0.0
C1163 C 0.17959 0.80836 0.19607 0.0
C1164 C 0.1481 0.83412 0.21163 0.0
C1165 C 0.15134 0.85674 0.2569 0.0
C1166 C 0.18636 0.85442 0.28737 0.0
C1167 C 0.21607 0.82588 0.27371 0.0
C1168 C 0.21271 0.80306 0.22897 0.0
C1169 C 0.27705 0.69397 1.10684 0.0
C1170 C 0.21779 0.6743 0.22386 0.0
C1171 C 0.23352 0.55671 0.12179 0.0
C1172 C 0.21138 0.52284 1.10037 0.0
C1173 C 0.23201 0.48794 1.08567 0.0
C1174 C 0.21438 0.46232 1.05002 0.0
C1175 C 0.17694 0.47264 1.0283 0.0
C1176 C 0.15339 0.50312 1.05002 0.0
C1177 C 0.17084 0.52863 1.08586 0.0
C1178 C 0.13876 0.64931 0.15595 0.0
C1179 C 0.18645 0.66775 1.01656 0.0
O1180 O 0.15285 0.7588 0.13932 0.0
O1181 O 0.21369 0.7793 0.12509 0.0
O1182 O 0.251 0.67944 0.13643 0.0
O1183 O 0.25947 0.72392 1.0837 0.0
O1184 O 0.19962 0.70507 0.20204 0.0
O1185 O 0.23633 0.6469 0.19633 0.0
O1186 O 0.24567 0.58368 1.0884 0.0
O1187 O 0.21586 0.57306 0.16104 0.0
O1188 O 0.15877 0.66697 0.12095 0.0
O1189 O 0.1569 0.616 0.16654 0.0
O1190 O 0.20247 0.63685 1.04186 0.0
O1191 O 0.17953 0.70307 1.04004 0.0
H1192 H 0.12182 0.83827 0.18754 0.0
H1193 H 0.12779 0.87812 0.26511 0.0
H1194 H 0.24371 0.82347 0.29572 0.0
H1195 H 0.23721 0.78283 0.21884 0.0
H1196 H 0.26311 0.483 1.09712 0.0
H1197 H 0.23278 0.43861 1.03332 0.0
H1198 H 0.12456 0.51149 1.03338 0.0
H1199 H 0.15443 0.55547 1.09739 0.0
Tb1200 Tb 0.13089 0.44908 0.86972 0.0
Tb1201 Tb 0.21941 0.46175 0.87459 0.0
C1202 C 0.06016 0.4286 0.8952 0.0
C1203 C 1.04004 0.42948 0.94603 0.0
C1204 C 1.01426 0.39801 0.96156 0.0
C1205 C 0.99164 0.40124 1.00683 0.0
C1206 C 0.99399 0.43624 1.03734 0.0
C1207 C 1.02255 0.46594 1.0237 0.0
C1208 C 1.04537 0.46259 0.97896 0.0
C1209 C 0.15444 0.52697 0.85683 0.0
C1210 C 0.1741 0.46767 0.97384 0.0
C1211 C 0.29169 0.48343 0.87179 0.0
C1212 C 0.32556 0.46131 0.85037 0.0
C1213 C 0.36044 0.48196 0.83566 0.0
C1214 C 0.38607 0.46434 0.80001 0.0
C1215 C 0.37576 0.4269 0.77828 0.0
C1216 C 0.34529 0.40333 0.80001 0.0
C1217 C 0.31978 0.42077 0.83586 0.0
C1218 C 0.19909 0.38866 0.90592 0.0
C1219 C 0.18066 0.43638 0.76654 0.0
O1220 O 0.0896 0.40275 0.88927 0.0
O1221 O 0.06911 0.46361 0.87507 0.0
O1222 O 0.16897 0.50091 0.88643 0.0
O1223 O 0.12449 0.50939 0.83369 0.0
O1224 O 0.14334 0.4495 0.95202 0.0
O1225 O 0.2015 0.48622 0.94632 0.0
O1226 O 0.26472 0.4956 0.83841 0.0
O1227 O 0.27534 0.46575 0.91104 0.0
O1228 O 0.18144 0.40868 0.87092 0.0
O1229 O 0.2324 0.40679 0.91652 0.0
O1230 O 0.21156 0.45239 0.79185 0.0
O1231 O 0.14535 0.42946 0.79002 0.0
H1232 H 1.01008 0.37175 0.93745 0.0
H1233 H 0.97023 0.3777 1.01501 0.0
H1234 H 1.02498 0.49357 1.04573 0.0
H1235 H 0.06562 0.48708 0.96885 0.0
H1236 H 0.36537 0.51305 0.84712 0.0
H1237 H 0.40976 0.48276 0.78331 0.0
H1238 H 0.33693 0.3745 0.78336 0.0
H1239 H 0.29295 0.40434 0.84738 0.0
Tb1240 Tb 0.39933 0.38083 0.61972 0.0
Tb1241 Tb 0.38667 0.46936 0.62456 0.0
C1242 C 0.41981 0.3101 0.64522 0.0
C1243 C 0.4189 0.28998 0.69606 0.0
C1244 C 0.45038 0.26421 0.71162 0.0
C1245 C 0.44713 0.24159 0.75689 0.0
C1246 C 0.41211 0.24393 0.78736 0.0
C1247 C 0.3824 0.27248 0.77369 0.0
C1248 C 0.38578 0.2953 0.72895 0.0
C1249 C 0.32145 0.4044 0.60682 0.0
C1250 C 0.38074 0.42406 0.72383 0.0
C1251 C 0.36499 0.54164 0.6217 0.0
C1252 C 0.38713 0.5755 0.60028 0.0
C1253 C 0.36652 0.61042 0.58558 0.0
C1254 C 0.38418 0.63606 0.54998 0.0
C1255 C 0.42164 0.62575 0.52831 0.0
C1256 C 0.44516 0.59521 0.54998 0.0
C1257 C 0.42767 0.56969 0.58578 0.0
C1258 C 0.45975 0.44905 0.65592 0.0
C1259 C 0.41205 0.43059 0.51652 0.0
O1260 O 0.44565 0.33955 0.63931 0.0
O1261 O 0.38481 0.31905 0.62506 0.0
O1262 O 0.34751 0.41892 0.63641 0.0
O1263 O 0.33902 0.37443 0.58369 0.0
O1264 O 0.39889 0.39329 0.70202 0.0
O1265 O 0.3622 0.45147 0.6963 0.0
O1266 O 0.35284 0.51466 0.58832 0.0
O1267 O 0.38264 0.5253 0.66097 0.0
O1268 O 0.43974 0.43138 0.62092 0.0
O1269 O 0.44162 0.48236 0.66648 0.0
O1270 O 0.39604 0.4615 0.54182 0.0
O1271 O 0.41897 0.39528 0.54002 0.0
H1272 H 0.47665 0.26004 0.68753 0.0
H1273 H 0.47067 0.22019 0.76509 0.0
H1274 H 0.35477 0.2749 0.7957 0.0
H1275 H 0.36128 0.31554 0.71882 0.0
H1276 H 0.33542 0.61536 0.59702 0.0
H1277 H 0.36579 0.65979 0.53328 0.0
H1278 H 0.47398 0.58684 0.53334 0.0
H1279 H 0.44407 0.54283 0.59729 0.0
loop_
_geom_bond_atom_site_label_1
_geom_bond_atom_site_label_2
_geom_bond_distance
_geom_bond_site_symmetry_2
_ccdc_geom_bond_type
Tb0 C2 2.809 . S
Tb0 O20 2.484 . S
Tb0 O21 2.440 . S
Tb0 O22 2.658 . S
Tb0 O23 2.409 . S
Tb0 O24 2.378 . S
Tb0 O28 2.325 . S
Tb0 O31 2.341 . S
Tb1 C11 2.809 . S
Tb1 O22 2.325 . S
Tb1 O25 2.341 . S
Tb1 O26 2.484 . S
Tb1 O27 2.440 . S
Tb1 O28 2.658 . S
Tb1 O29 2.409 . S
Tb1 O30 2.378 . S
C2 Tb0 2.809 . S
C2 C3 1.514 . S
C2 O20 1.248 . S
C2 O21 1.266 . S
C3 C2 1.514 . S
C3 C4 1.359 . S
C3 C8 1.348 . S
C4 C3 1.359 . S
C4 C5 1.380 . S
C4 H32 0.929 . S
C5 C4 1.380 . S
C5 C6 1.347 . S
C5 H33 0.931 . S
C6 C5 1.347 . S
C6 C7 1.369 . S
C7 C6 1.369 . S
C7 C8 1.408 . S
C7 H34 0.930 . S
C8 C3 1.348 . S
C8 C7 1.408 . S
C8 H35 0.930 . S
C9 O22 1.281 . S
C9 O23 1.254 . S
C10 O24 1.236 . S
C10 O25 1.266 . S
C11 Tb1 2.809 . S
C11 C12 1.514 1_455 S
C11 O26 1.248 . S
C11 O27 1.266 . S
C12 C11 1.514 1_655 S
C12 C13 1.359 . S
C12 C17 1.348 . S
C13 C12 1.359 . S
C13 C14 1.380 . S
C13 H36 0.929 1_655 S
C14 C13 1.380 . S
C14 C15 1.347 . S
C14 H37 0.931 . S
C15 C14 1.347 . S
C15 C16 1.369 . S
C16 C15 1.369 . S
C16 C17 1.408 . S
C16 H38 0.930 . S
C17 C12 1.348 . S
C17 C16 1.408 . S
C17 H39 0.930 . S
C18 O28 1.281 . S
C18 O29 1.254 . S
C19 O30 1.236 . S
C19 O31 1.266 . S
O20 Tb0 2.484 . S
O20 C2 1.248 . S
O21 Tb0 2.440 . S
O21 C2 1.266 . S
O22 Tb0 2.658 . S
O22 Tb1 2.325 . S
O22 C9 1.281 . S
O23 Tb0 2.409 . S
O23 C9 1.254 . S
O24 Tb0 2.378 . S
O24 C10 1.236 . S
O25 Tb1 2.341 . S
O25 C10 1.266 . S
O26 Tb1 2.484 . S
O26 C11 1.248 . S
O27 Tb1 2.440 . S
O27 C11 1.266 . S
O28 Tb0 2.325 . S
O28 Tb1 2.658 . S
O28 C18 1.281 . S
O29 Tb1 2.409 . S
O29 C18 1.254 . S
O30 Tb1 2.378 . S
O30 C19 1.236 . S
O31 Tb0 2.341 . S
O31 C19 1.266 . S
H32 C4 0.929 . S
H33 C5 0.931 . S
H34 C7 0.930 . S
H35 C8 0.930 . S
H36 C13 0.929 1_455 S
H37 C14 0.931 . S
H38 C16 0.930 . S
H39 C17 0.930 . S
Tb40 C42 2.809 . S
Tb40 O60 2.484 . S
Tb40 O61 2.440 . S
Tb40 O62 2.658 . S
Tb40 O63 2.409 . S
Tb40 O64 2.378 . S
Tb40 O68 2.325 . S
Tb40 O71 2.341 . S
Tb41 C51 2.809 . S
Tb41 O62 2.325 . S
Tb41 O65 2.341 . S
Tb41 O66 2.484 . S
Tb41 O67 2.440 . S
Tb41 O68 2.658 . S
Tb41 O69 2.409 . S
Tb41 O70 2.378 . S
C42 Tb40 2.809 . S
C42 C43 1.514 1_565 S
C42 O60 1.248 . S
C42 O61 1.266 . S
C43 C42 1.514 1_545 S
C43 C44 1.359 . S
C43 C48 1.348 . S
C44 C43 1.359 . S
C44 C45 1.380 . S
C44 H72 0.929 1_545 S
C45 C44 1.380 . S
C45 C46 1.347 . S
C45 H73 0.931 . S
C46 C45 1.347 . S
C46 C47 1.369 . S
C47 C46 1.369 . S
C47 C48 1.408 . S
C47 H74 0.930 . S
C48 C43 1.348 . S
C48 C47 1.408 . S
C48 H75 0.930 . S
C49 O62 1.281 . S
C49 O63 1.254 . S
C50 O64 1.236 . S
C50 O65 1.266 . S
C51 Tb41 2.809 . S
C51 C52 1.514 . S
C51 O66 1.248 . S
C51 O67 1.266 . S
C52 C51 1.514 . S
C52 C53 1.359 . S
C52 C57 1.348 . S
C53 C52 1.359 . S
C53 C54 1.380 . S
C53 H76 0.929 . S
C54 C53 1.380 . S
C54 C55 1.347 . S
C54 H77 0.931 . S
C55 C54 1.347 . S
C55 C56 1.369 . S
C56 C55 1.369 . S
C56 C57 1.408 . S
C56 H78 0.930 . S
C57 C52 1.348 . S
C57 C56 1.408 . S
C57 H79 0.930 . S
C58 O68 1.281 . S
C58 O69 1.254 . S
C59 O70 1.236 . S
C59 O71 1.266 . S
O60 Tb40 2.484 . S
O60 C42 1.248 . S
O61 Tb40 2.440 . S
O61 C42 1.266 . S
O62 Tb40 2.658 . S
O62 Tb41 2.325 . S
O62 C49 1.281 . S
O63 Tb40 2.409 . S
O63 C49 1.254 . S
O64 Tb40 2.378 . S
O64 C50 1.236 . S
O65 Tb41 2.341 . S
O65 C50 1.266 . S
O66 Tb41 2.484 . S
O66 C51 1.248 . S
O67 Tb41 2.440 . S
O67 C51 1.266 . S
O68 Tb40 2.325 . S
O68 Tb41 2.658 . S
O68 C58 1.281 . S
O69 Tb41 2.409 . S
O69 C58 1.254 . S
O70 Tb41 2.378 . S
O70 C59 1.236 . S
O71 Tb40 2.341 . S
O71 C59 1.266 . S
H72 C44 0.929 1_565 S
H73 C45 0.931 . S
H74 C47 0.930 . S
H75 C48 0.930 . S
H76 C53 0.929 . S
H77 C54 0.931 . S
H78 C56 0.930 . S
H79 C57 0.930 . S
Tb80 C82 2.809 . S
Tb80 O100 2.484 . S
Tb80 O101 2.440 . S
Tb80 O102 2.658 . S
Tb80 O103 2.409 . S
Tb80 O104 2.378 . S
Tb80 O108 2.325 . S
Tb80 O111 2.341 . S
Tb81 C91 2.809 . S
Tb81 O102 2.325 . S
Tb81 O105 2.341 . S
Tb81 O106 2.484 . S
Tb81 O107 2.440 . S
Tb81 O108 2.658 . S
Tb81 O109 2.409 . S
Tb81 O110 2.378 . S
C82 Tb80 2.809 . S
C82 C83 1.514 . S
C82 O100 1.248 . S
C82 O101 1.266 . S
C83 C82 1.514 . S
C83 C84 1.359 . S
C83 C88 1.348 . S
C84 C83 1.359 . S
C84 C85 1.380 . S
C84 H112 0.929 . S
C85 C84 1.380 . S
C85 C86 1.347 . S
C85 H113 0.931 . S
C86 C85 1.347 . S
C86 C87 1.369 . S
C87 C86 1.369 . S
C87 C88 1.408 . S
C87 H114 0.930 . S
C88 C83 1.348 . S
C88 C87 1.408 . S
C88 H115 0.930 . S
C89 O102 1.281 . S
C89 O103 1.254 . S
C90 O104 1.236 . S
C90 O105 1.266 . S
C91 Tb81 2.809 . S
C91 C92 1.514 . S
C91 O106 1.248 . S
C91 O107 1.266 . S
C92 C91 1.514 . S
C92 C93 1.359 . S
C92 C97 1.348 . S
C93 C92 1.359 . S
C93 C94 1.380 . S
C93 H116 0.929 . S
C94 C93 1.380 . S
C94 C95 1.347 . S
C94 H117 0.931 . S
C95 C94 1.347 . S
C95 C96 1.369 . S
C96 C95 1.369 . S
C96 C97 1.408 . S
C96 H118 0.930 . S
C97 C92 1.348 . S
C97 C96 1.408 . S
C97 H119 0.930 . S
C98 O108 1.281 . S
C98 O109 1.254 . S
C99 O110 1.236 . S
C99 O111 1.266 . S
O100 Tb80 2.484 . S
O100 C82 1.248 . S
O101 Tb80 2.440 . S
O101 C82 1.266 . S
O102 Tb80 2.658 . S
O102 Tb81 2.325 . S
O102 C89 1.281 . S
O103 Tb80 2.409 . S
O103 C89 1.254 . S
O104 Tb80 2.378 . S
O104 C90 1.236 . S
O105 Tb81 2.341 . S
O105 C90 1.266 . S
O106 Tb81 2.484 . S
O106 C91 1.248 . S
O107 Tb81 2.440 . S
O107 C91 1.266 . S
O108 Tb80 2.325 . S
O108 Tb81 2.658 . S
O108 C98 1.281 . S
O109 Tb81 2.409 . S
O109 C98 1.254 . S
O110 Tb81 2.378 . S
O110 C99 1.236 . S
O111 Tb80 2.341 . S
O111 C99 1.266 . S
H112 C84 0.929 . S
H113 C85 0.931 . S
H114 C87 0.930 . S
H115 C88 0.930 . S
H116 C93 0.929 . S
H117 C94 0.931 . S
H118 C96 0.930 . S
H119 C97 0.930 . S
Tb120 C122 2.809 1_554 S
Tb120 O140 2.484 1_554 S
Tb120 O141 2.440 1_554 S
Tb120 O142 2.658 . S
Tb120 O143 2.409 . S
Tb120 O144 2.378 1_554 S
Tb120 O148 2.325 1_554 S
Tb120 O151 2.341 . S
Tb121 C131 2.809 . S
Tb121 O142 2.325 . S
Tb121 O145 2.341 1_554 S
Tb121 O146 2.484 . S
Tb121 O147 2.440 . S
Tb121 O148 2.658 1_554 S
Tb121 O149 2.409 1_554 S
Tb121 O150 2.378 . S
C122 Tb120 2.809 1_556 S
C122 C123 1.514 1_545 S
C122 O140 1.248 . S
C122 O141 1.266 . S
C123 C122 1.514 1_565 S
C123 C124 1.359 . S
C123 C128 1.348 . S
C124 C123 1.359 . S
C124 C125 1.380 . S
C124 H152 0.929 1_565 S
C125 C124 1.380 . S
C125 C126 1.347 . S
C125 H153 0.931 . S
C126 C125 1.347 . S
C126 C127 1.369 . S
C127 C126 1.369 . S
C127 C128 1.408 . S
C127 H154 0.930 . S
C128 C123 1.348 . S
C128 C127 1.408 . S
C128 H155 0.930 . S
C129 O142 1.281 . S
C129 O143 1.254 . S
C130 O144 1.236 . S
C130 O145 1.266 . S
C131 Tb121 2.809 . S
C131 C132 1.514 . S
C131 O146 1.248 . S
C131 O147 1.266 . S
C132 C131 1.514 . S
C132 C133 1.359 . S
C132 C137 1.348 . S
C133 C132 1.359 . S
C133 C134 1.380 . S
C133 H156 0.929 . S
C134 C133 1.380 . S
C134 C135 1.347 . S
C134 H157 0.931 . S
C135 C134 1.347 . S
C135 C136 1.369 . S
C136 C135 1.369 . S
C136 C137 1.408 . S
C136 H158 0.930 . S
C137 C132 1.348 . S
C137 C136 1.408 . S
C137 H159 0.930 . S
C138 O148 1.281 . S
C138 O149 1.254 . S
C139 O150 1.236 . S
C139 O151 1.266 . S
O140 Tb120 2.484 1_556 S
O140 C122 1.248 . S
O141 Tb120 2.440 1_556 S
O141 C122 1.266 . S
O142 Tb120 2.658 . S
O142 Tb121 2.325 . S
O142 C129 1.281 . S
O143 Tb120 2.409 . S
O143 C129 1.254 . S
O144 Tb120 2.378 1_556 S
O144 C130 1.236 . S
O145 Tb121 2.341 1_556 S
O145 C130 1.266 . S
O146 Tb121 2.484 . S
O146 C131 1.248 . S
O147 Tb121 2.440 . S
O147 C131 1.266 . S
O148 Tb120 2.325 1_556 S
O148 Tb121 2.658 1_556 S
O148 C138 1.281 . S
O149 Tb121 2.409 1_556 S
O149 C138 1.254 . S
O150 Tb121 2.378 . S
O150 C139 1.236 . S
O151 Tb120 2.341 . S
O151 C139 1.266 . S
H152 C124 0.929 1_545 S
H153 C125 0.931 . S
H154 C127 0.930 . S
H155 C128 0.930 . S
H156 C133 0.929 . S
H157 C134 0.931 . S
H158 C136 0.930 . S
H159 C137 0.930 . S
Tb160 C162 2.809 . S
Tb160 O180 2.484 . S
Tb160 O181 2.440 . S
Tb160 O182 2.658 . S
Tb160 O183 2.409 . S
Tb160 O184 2.378 . S
Tb160 O188 2.325 . S
Tb160 O191 2.341 . S
Tb161 C171 2.809 . S
Tb161 O182 2.325 . S
Tb161 O185 2.341 . S
Tb161 O186 2.484 . S
Tb161 O187 2.440 . S
Tb161 O188 2.658 . S
Tb161 O189 2.409 . S
Tb161 O190 2.378 . S
C162 Tb160 2.809 . S
C162 C163 1.514 . S
C162 O180 1.248 . S
C162 O181 1.266 . S
C163 C162 1.514 . S
C163 C164 1.359 . S
C163 C168 1.348 . S
C164 C163 1.359 . S
C164 C165 1.380 . S
C164 H192 0.929 . S
C165 C164 1.380 . S
C165 C166 1.347 . S
C165 H193 0.931 . S
C166 C165 1.347 . S
C166 C167 1.369 . S
C167 C166 1.369 . S
C167 C168 1.408 . S
C167 H194 0.930 . S
C168 C163 1.348 . S
C168 C167 1.408 . S
C168 H195 0.930 . S
C169 O182 1.281 . S
C169 O183 1.254 . S
C170 O184 1.236 . S
C170 O185 1.266 . S
C171 Tb161 2.809 . S
C171 C172 1.514 1_455 S
C171 O186 1.248 . S
C171 O187 1.266 . S
C172 C171 1.514 1_655 S
C172 C173 1.359 . S
C172 C177 1.348 . S
C173 C172 1.359 . S
C173 C174 1.380 . S
C173 H196 0.929 1_655 S
C174 C173 1.380 . S
C174 C175 1.347 . S
C174 H197 0.931 . S
C175 C174 1.347 . S
C175 C176 1.369 . S
C176 C175 1.369 . S
C176 C177 1.408 . S
C176 H198 0.930 . S
C177 C172 1.348 . S
C177 C176 1.408 . S
C177 H199 0.930 . S
C178 O188 1.281 . S
C178 O189 1.254 . S
C179 O190 1.236 . S
C179 O191 1.266 . S
O180 Tb160 2.484 . S
O180 C162 1.248 . S
O181 Tb160 2.440 . S
O181 C162 1.266 . S
O182 Tb160 2.658 . S
O182 Tb161 2.325 . S
O182 C169 1.281 . S
O183 Tb160 2.409 . S
O183 C169 1.254 . S
O184 Tb160 2.378 . S
O184 C170 1.236 . S
O185 Tb161 2.341 . S
O185 C170 1.266 . S
O186 Tb161 2.484 . S
O186 C171 1.248 . S
O187 Tb161 2.440 . S
O187 C171 1.266 . S
O188 Tb160 2.325 . S
O188 Tb161 2.658 . S
O188 C178 1.281 . S
O189 Tb161 2.409 . S
O189 C178 1.254 . S
O190 Tb161 2.378 . S
O190 C179 1.236 . S
O191 Tb160 2.341 . S
O191 C179 1.266 . S
H192 C164 0.929 . S
H193 C165 0.931 . S
H194 C167 0.930 . S
H195 C168 0.930 . S
H196 C173 0.929 1_455 S
H197 C174 0.931 . S
H198 C176 0.930 . S
H199 C177 0.930 . S
Tb200 C202 2.809 . S
Tb200 O220 2.484 . S
Tb200 O221 2.440 . S
Tb200 O222 2.658 . S
Tb200 O223 2.409 . S
Tb200 O224 2.378 . S
Tb200 O228 2.325 . S
Tb200 O231 2.341 . S
Tb201 C211 2.809 . S
Tb201 O222 2.325 . S
Tb201 O225 2.341 . S
Tb201 O226 2.484 . S
Tb201 O227 2.440 . S
Tb201 O228 2.658 . S
Tb201 O229 2.409 . S
Tb201 O230 2.378 . S
C202 Tb200 2.809 . S
C202 C203 1.514 1_565 S
C202 O220 1.248 . S
C202 O221 1.266 . S
C203 C202 1.514 1_545 S
C203 C204 1.359 . S
C203 C208 1.348 . S
C204 C203 1.359 . S
C204 C205 1.380 . S
C204 H232 0.929 1_545 S
C205 C204 1.380 . S
C205 C206 1.347 . S
C205 H233 0.931 . S
C206 C205 1.347 . S
C206 C207 1.369 . S
C207 C206 1.369 . S
C207 C208 1.408 . S
C207 H234 0.930 . S
C208 C203 1.348 . S
C208 C207 1.408 . S
C208 H235 0.930 . S
C209 O222 1.281 . S
C209 O223 1.254 . S
C210 O224 1.236 . S
C210 O225 1.266 . S
C211 Tb201 2.809 . S
C211 C212 1.514 . S
C211 O226 1.248 . S
C211 O227 1.266 . S
C212 C211 1.514 . S
C212 C213 1.359 . S
C212 C217 1.348 . S
C213 C212 1.359 . S
C213 C214 1.380 . S
C213 H236 0.929 . S
C214 C213 1.380 . S
C214 C215 1.347 . S
C214 H237 0.931 . S
C215 C214 1.347 . S
C215 C216 1.369 . S
C216 C215 1.369 . S
C216 C217 1.408 . S
C216 H238 0.930 . S
C217 C212 1.348 . S
C217 C216 1.408 . S
C217 H239 0.930 . S
C218 O228 1.281 . S
C218 O229 1.254 . S
C219 O230 1.236 . S
C219 O231 1.266 . S
O220 Tb200 2.484 . S
O220 C202 1.248 . S
O221 Tb200 2.440 . S
O221 C202 1.266 . S
O222 Tb200 2.658 . S
O222 Tb201 2.325 . S
O222 C209 1.281 . S
O223 Tb200 2.409 . S
O223 C209 1.254 . S
O224 Tb200 2.378 . S
O224 C210 1.236 . S
O225 Tb201 2.341 . S
O225 C210 1.266 . S
O226 Tb201 2.484 . S
O226 C211 1.248 . S
O227 Tb201 2.440 . S
O227 C211 1.266 . S
O228 Tb200 2.325 . S
O228 Tb201 2.658 . S
O228 C218 1.281 . S
O229 Tb201 2.409 . S
O229 C218 1.254 . S
O230 Tb201 2.378 . S
O230 C219 1.236 . S
O231 Tb200 2.341 . S
O231 C219 1.266 . S
H232 C204 0.929 1_565 S
H233 C205 0.931 . S
H234 C207 0.930 . S
H235 C208 0.930 . S
H236 C213 0.929 . S
H237 C214 0.931 . S
H238 C216 0.930 . S
H239 C217 0.930 . S
Tb240 C242 2.809 . S
Tb240 O260 2.484 . S
Tb240 O261 2.440 . S
Tb240 O262 2.658 . S
Tb240 O263 2.409 . S
Tb240 O264 2.378 . S
Tb240 O268 2.325 . S
Tb240 O271 2.341 . S
Tb241 C251 2.809 . S
Tb241 O262 2.325 . S
Tb241 O265 2.341 . S
Tb241 O266 2.484 . S
Tb241 O267 2.440 . S
Tb241 O268 2.658 . S
Tb241 O269 2.409 . S
Tb241 O270 2.378 . S
C242 Tb240 2.809 . S
C242 C243 1.514 . S
C242 O260 1.248 . S
C242 O261 1.266 . S
C243 C242 1.514 . S
C243 C244 1.359 . S
C243 C248 1.348 . S
C244 C243 1.359 . S
C244 C245 1.380 . S
C244 H272 0.929 . S
C245 C244 1.380 . S
C245 C246 1.347 . S
C245 H273 0.931 . S
C246 C245 1.347 . S
C246 C247 1.369 . S
C247 C246 1.369 . S
C247 C248 1.408 . S
C247 H274 0.930 . S
C248 C243 1.348 . S
C248 C247 1.408 . S
C248 H275 0.930 . S
C249 O262 1.281 . S
C249 O263 1.254 . S
C250 O264 1.236 . S
C250 O265 1.266 . S
C251 Tb241 2.809 . S
C251 C252 1.514 . S
C251 O266 1.248 . S
C251 O267 1.266 . S
C252 C251 1.514 . S
C252 C253 1.359 . S
C252 C257 1.348 . S
C253 C252 1.359 . S
C253 C254 1.380 . S
C253 H276 0.929 . S
C254 C253 1.380 . S
C254 C255 1.347 . S
C254 H277 0.931 . S
C255 C254 1.347 . S
C255 C256 1.369 . S
C256 C255 1.369 . S
C256 C257 1.408 . S
C256 H278 0.930 . S
C257 C252 1.348 . S
C257 C256 1.408 . S
C257 H279 0.930 . S
C258 O268 1.281 . S
C258 O269 1.254 . S
C259 O270 1.236 . S
C259 O271 1.266 . S
O260 Tb240 2.484 . S
O260 C242 1.248 . S
O261 Tb240 2.440 . S
O261 C242 1.266 . S
O262 Tb240 2.658 . S
O262 Tb241 2.325 . S
O262 C249 1.281 . S
O263 Tb240 2.409 . S
O263 C249 1.254 . S
O264 Tb240 2.378 . S
O264 C250 1.236 . S
O265 Tb241 2.341 . S
O265 C250 1.266 . S
O266 Tb241 2.484 . S
O266 C251 1.248 . S
O267 Tb241 2.440 . S
O267 C251 1.266 . S
O268 Tb240 2.325 . S
O268 Tb241 2.658 . S
O268 C258 1.281 . S
O269 Tb241 2.409 . S
O269 C258 1.254 . S
O270 Tb241 2.378 . S
O270 C259 1.236 . S
O271 Tb240 2.341 . S
O271 C259 1.266 . S
H272 C244 0.929 . S
H273 C245 0.931 . S
H274 C247 0.930 . S
H275 C248 0.930 . S
H276 C253 0.929 . S
H277 C254 0.931 . S
H278 C256 0.930 . S
H279 C257 0.930 . S
Tb280 C282 2.809 1_556 S
Tb280 O300 2.484 1_556 S
Tb280 O301 2.440 1_556 S
Tb280 O302 2.658 . S
Tb280 O303 2.409 . S
Tb280 O304 2.378 1_556 S
Tb280 O308 2.325 1_556 S
Tb280 O311 2.341 . S
Tb281 C291 2.809 . S
Tb281 O302 2.325 . S
Tb281 O305 2.341 1_556 S
Tb281 O306 2.484 . S
Tb281 O307 2.440 . S
Tb281 O308 2.658 1_556 S
Tb281 O309 2.409 1_556 S
Tb281 O310 2.378 . S
C282 Tb280 2.809 1_554 S
C282 C283 1.514 1_545 S
C282 O300 1.248 . S
C282 O301 1.266 . S
C283 C282 1.514 1_565 S
C283 C284 1.359 . S
C283 C288 1.348 . S
C284 C283 1.359 . S
C284 C285 1.380 . S
C284 H312 0.929 1_565 S
C285 C284 1.380 . S
C285 C286 1.347 . S
C285 H313 0.931 . S
C286 C285 1.347 . S
C286 C287 1.369 . S
C287 C286 1.369 . S
C287 C288 1.408 . S
C287 H314 0.930 . S
C288 C283 1.348 . S
C288 C287 1.408 . S
C288 H315 0.930 . S
C289 O302 1.281 . S
C289 O303 1.254 . S
C290 O304 1.236 . S
C290 O305 1.266 . S
C291 Tb281 2.809 . S
C291 C292 1.514 . S
C291 O306 1.248 . S
C291 O307 1.266 . S
C292 C291 1.514 . S
C292 C293 1.359 . S
C292 C297 1.348 . S
C293 C292 1.359 . S
C293 C294 1.380 . S
C293 H316 0.929 . S
C294 C293 1.380 . S
C294 C295 1.347 . S
C294 H317 0.931 . S
C295 C294 1.347 . S
C295 C296 1.369 . S
C296 C295 1.369 . S
C296 C297 1.408 . S
C296 H318 0.930 . S
C297 C292 1.348 . S
C297 C296 1.408 . S
C297 H319 0.930 . S
C298 O308 1.281 . S
C298 O309 1.254 . S
C299 O310 1.236 . S
C299 O311 1.266 . S
O300 Tb280 2.484 1_554 S
O300 C282 1.248 . S
O301 Tb280 2.440 1_554 S
O301 C282 1.266 . S
O302 Tb280 2.658 . S
O302 Tb281 2.325 . S
O302 C289 1.281 . S
O303 Tb280 2.409 . S
O303 C289 1.254 . S
O304 Tb280 2.378 1_554 S
O304 C290 1.236 . S
O305 Tb281 2.341 1_554 S
O305 C290 1.266 . S
O306 Tb281 2.484 . S
O306 C291 1.248 . S
O307 Tb281 2.440 . S
O307 C291 1.266 . S
O308 Tb280 2.325 1_554 S
O308 Tb281 2.658 1_554 S
O308 C298 1.281 . S
O309 Tb281 2.409 1_554 S
O309 C298 1.254 . S
O310 Tb281 2.378 . S
O310 C299 1.236 . S
O311 Tb280 2.341 . S
O311 C299 1.266 . S
H312 C284 0.929 1_545 S
H313 C285 0.931 . S
H314 C287 0.930 . S
H315 C288 0.930 . S
H316 C293 0.929 . S
H317 C294 0.931 . S
H318 C296 0.930 . S
H319 C297 0.930 . S
Tb320 C322 2.809 . S
Tb320 O340 2.484 . S
Tb320 O341 2.440 . S
Tb320 O342 2.658 . S
Tb320 O343 2.409 . S
Tb320 O344 2.378 . S
Tb320 O348 2.325 . S
Tb320 O351 2.341 . S
Tb321 C331 2.809 . S
Tb321 O342 2.325 . S
Tb321 O345 2.341 . S
Tb321 O346 2.484 . S
Tb321 O347 2.440 . S
Tb321 O348 2.658 . S
Tb321 O349 2.409 . S
Tb321 O350 2.378 . S
C322 Tb320 2.809 . S
C322 C323 1.514 1_655 S
C322 O340 1.248 . S
C322 O341 1.266 . S
C323 C322 1.514 1_455 S
C323 C324 1.359 . S
C323 C328 1.348 . S
C324 C323 1.359 . S
C324 C325 1.380 . S
C324 H352 0.929 1_455 S
C325 C324 1.380 . S
C325 C326 1.347 . S
C325 H353 0.931 . S
C326 C325 1.347 . S
C326 C327 1.369 . S
C327 C326 1.369 . S
C327 C328 1.408 . S
C327 H354 0.930 . S
C328 C323 1.348 . S
C328 C327 1.408 . S
C328 H355 0.930 . S
C329 O342 1.281 . S
C329 O343 1.254 . S
C330 O344 1.236 . S
C330 O345 1.266 . S
C331 Tb321 2.809 . S
C331 C332 1.514 . S
C331 O346 1.248 . S
C331 O347 1.266 . S
C332 C331 1.514 . S
C332 C333 1.359 . S
C332 C337 1.348 . S
C333 C332 1.359 . S
C333 C334 1.380 . S
C333 H356 0.929 . S
C334 C333 1.380 . S
C334 C335 1.347 . S
C334 H357 0.931 . S
C335 C334 1.347 . S
C335 C336 1.369 . S
C336 C335 1.369 . S
C336 C337 1.408 . S
C336 H358 0.930 . S
C337 C332 1.348 . S
C337 C336 1.408 . S
C337 H359 0.930 . S
C338 O348 1.281 . S
C338 O349 1.254 . S
C339 O350 1.236 . S
C339 O351 1.266 . S
O340 Tb320 2.484 . S
O340 C322 1.248 . S
O341 Tb320 2.440 . S
O341 C322 1.266 . S
O342 Tb320 2.658 . S
O342 Tb321 2.325 . S
O342 C329 1.281 . S
O343 Tb320 2.409 . S
O343 C329 1.254 . S
O344 Tb320 2.378 . S
O344 C330 1.236 . S
O345 Tb321 2.341 . S
O345 C330 1.266 . S
O346 Tb321 2.484 . S
O346 C331 1.248 . S
O347 Tb321 2.440 . S
O347 C331 1.266 . S
O348 Tb320 2.325 . S
O348 Tb321 2.658 . S
O348 C338 1.281 . S
O349 Tb321 2.409 . S
O349 C338 1.254 . S
O350 Tb321 2.378 . S
O350 C339 1.236 . S
O351 Tb320 2.341 . S
O351 C339 1.266 . S
H352 C324 0.929 1_655 S
H353 C325 0.931 . S
H354 C327 0.930 . S
H355 C328 0.930 . S
H356 C333 0.929 . S
H357 C334 0.931 . S
H358 C336 0.930 . S
H359 C337 0.930 . S
Tb360 C362 2.809 . S
Tb360 O380 2.484 . S
Tb360 O381 2.440 . S
Tb360 O382 2.658 . S
Tb360 O383 2.409 . S
Tb360 O384 2.378 . S
Tb360 O388 2.325 . S
Tb360 O391 2.341 . S
Tb361 C371 2.809 . S
Tb361 O382 2.325 . S
Tb361 O385 2.341 . S
Tb361 O386 2.484 . S
Tb361 O387 2.440 . S
Tb361 O388 2.658 . S
Tb361 O389 2.409 . S
Tb361 O390 2.378 . S
C362 Tb360 2.809 . S
C362 C363 1.514 . S
C362 O380 1.248 . S
C362 O381 1.266 . S
C363 C362 1.514 . S
C363 C364 1.359 . S
C363 C368 1.348 . S
C364 C363 1.359 . S
C364 C365 1.380 . S
C364 H392 0.929 . S
C365 C364 1.380 . S
C365 C366 1.347 . S
C365 H393 0.931 . S
C366 C365 1.347 . S
C366 C367 1.369 . S
C367 C366 1.369 . S
C367 C368 1.408 . S
C367 H394 0.930 . S
C368 C363 1.348 . S
C368 C367 1.408 . S
C368 H395 0.930 . S
C369 O382 1.281 . S
C369 O383 1.254 . S
C370 O384 1.236 . S
C370 O385 1.266 . S
C371 Tb361 2.809 . S
C371 C372 1.514 1_545 S
C371 O386 1.248 . S
C371 O387 1.266 . S
C372 C371 1.514 1_565 S
C372 C373 1.359 . S
C372 C377 1.348 . S
C373 C372 1.359 . S
C373 C374 1.380 . S
C373 H396 0.929 1_565 S
C374 C373 1.380 . S
C374 C375 1.347 . S
C374 H397 0.931 . S
C375 C374 1.347 . S
C375 C376 1.369 . S
C376 C375 1.369 . S
C376 C377 1.408 . S
C376 H398 0.930 . S
C377 C372 1.348 . S
C377 C376 1.408 . S
C377 H399 0.930 . S
C378 O388 1.281 . S
C378 O389 1.254 . S
C379 O390 1.236 . S
C379 O391 1.266 . S
O380 Tb360 2.484 . S
O380 C362 1.248 . S
O381 Tb360 2.440 . S
O381 C362 1.266 . S
O382 Tb360 2.658 . S
O382 Tb361 2.325 . S
O382 C369 1.281 . S
O383 Tb360 2.409 . S
O383 C369 1.254 . S
O384 Tb360 2.378 . S
O384 C370 1.236 . S
O385 Tb361 2.341 . S
O385 C370 1.266 . S
O386 Tb361 2.484 . S
O386 C371 1.248 . S
O387 Tb361 2.440 . S
O387 C371 1.266 . S
O388 Tb360 2.325 . S
O388 Tb361 2.658 . S
O388 C378 1.281 . S
O389 Tb361 2.409 . S
O389 C378 1.254 . S
O390 Tb361 2.378 . S
O390 C379 1.236 . S
O391 Tb360 2.341 . S
O391 C379 1.266 . S
H392 C364 0.929 . S
H393 C365 0.931 . S
H394 C367 0.930 . S
H395 C368 0.930 . S
H396 C373 0.929 1_545 S
H397 C374 0.931 . S
H398 C376 0.930 . S
H399 C377 0.930 . S
Tb400 C402 2.809 . S
Tb400 O420 2.484 . S
Tb400 O421 2.440 . S
Tb400 O422 2.658 . S
Tb400 O423 2.409 . S
Tb400 O424 2.378 . S
Tb400 O428 2.325 . S
Tb400 O431 2.341 . S
Tb401 C411 2.809 . S
Tb401 O422 2.325 . S
Tb401 O425 2.341 . S
Tb401 O426 2.484 . S
Tb401 O427 2.440 . S
Tb401 O428 2.658 . S
Tb401 O429 2.409 . S
Tb401 O430 2.378 . S
C402 Tb400 2.809 . S
C402 C403 1.514 . S
C402 O420 1.248 . S
C402 O421 1.266 . S
C403 C402 1.514 . S
C403 C404 1.359 . S
C403 C408 1.348 . S
C404 C403 1.359 . S
C404 C405 1.380 . S
C404 H432 0.929 . S
C405 C404 1.380 . S
C405 C406 1.347 . S
C405 H433 0.931 . S
C406 C405 1.347 . S
C406 C407 1.369 . S
C407 C406 1.369 . S
C407 C408 1.408 . S
C407 H434 0.930 . S
C408 C403 1.348 . S
C408 C407 1.408 . S
C408 H435 0.930 . S
C409 O422 1.281 . S
C409 O423 1.254 . S
C410 O424 1.236 . S
C410 O425 1.266 . S
C411 Tb401 2.809 . S
C411 C412 1.514 . S
C411 O426 1.248 . S
C411 O427 1.266 . S
C412 C411 1.514 . S
C412 C413 1.359 . S
C412 C417 1.348 . S
C413 C412 1.359 . S
C413 C414 1.380 . S
C413 H436 0.929 . S
C414 C413 1.380 . S
C414 C415 1.347 . S
C414 H437 0.931 . S
C415 C414 1.347 . S
C415 C416 1.369 . S
C416 C415 1.369 . S
C416 C417 1.408 . S
C416 H438 0.930 . S
C417 C412 1.348 . S
C417 C416 1.408 . S
C417 H439 0.930 . S
C418 O428 1.281 . S
C418 O429 1.254 . S
C419 O430 1.236 . S
C419 O431 1.266 . S
O420 Tb400 2.484 . S
O420 C402 1.248 . S
O421 Tb400 2.440 . S
O421 C402 1.266 . S
O422 Tb400 2.658 . S
O422 Tb401 2.325 . S
O422 C409 1.281 . S
O423 Tb400 2.409 . S
O423 C409 1.254 . S
O424 Tb400 2.378 . S
O424 C410 1.236 . S
O425 Tb401 2.341 . S
O425 C410 1.266 . S
O426 Tb401 2.484 . S
O426 C411 1.248 . S
O427 Tb401 2.440 . S
O427 C411 1.266 . S
O428 Tb400 2.325 . S
O428 Tb401 2.658 . S
O428 C418 1.281 . S
O429 Tb401 2.409 . S
O429 C418 1.254 . S
O430 Tb401 2.378 . S
O430 C419 1.236 . S
O431 Tb400 2.341 . S
O431 C419 1.266 . S
H432 C404 0.929 . S
H433 C405 0.931 . S
H434 C407 0.930 . S
H435 C408 0.930 . S
H436 C413 0.929 . S
H437 C414 0.931 . S
H438 C416 0.930 . S
H439 C417 0.930 . S
Tb440 C442 2.809 . S
Tb440 O460 2.484 . S
Tb440 O461 2.440 . S
Tb440 O462 2.658 1_556 S
Tb440 O463 2.409 1_556 S
Tb440 O464 2.378 . S
Tb440 O468 2.325 . S
Tb440 O471 2.341 1_556 S
Tb441 C451 2.809 1_556 S
Tb441 O462 2.325 1_556 S
Tb441 O465 2.341 . S
Tb441 O466 2.484 1_556 S
Tb441 O467 2.440 1_556 S
Tb441 O468 2.658 . S
Tb441 O469 2.409 . S
Tb441 O470 2.378 1_556 S
C442 Tb440 2.809 . S
C442 C443 1.514 . S
C442 O460 1.248 . S
C442 O461 1.266 . S
C443 C442 1.514 . S
C443 C444 1.359 . S
C443 C448 1.348 . S
C444 C443 1.359 . S
C444 C445 1.380 . S
C444 H472 0.929 . S
C445 C444 1.380 . S
C445 C446 1.347 . S
C445 H473 0.931 . S
C446 C445 1.347 . S
C446 C447 1.369 . S
C447 C446 1.369 . S
C447 C448 1.408 . S
C447 H474 0.930 . S
C448 C443 1.348 . S
C448 C447 1.408 . S
C448 H475 0.930 . S
C449 O462 1.281 . S
C449 O463 1.254 . S
C450 O464 1.236 . S
C450 O465 1.266 . S
C451 Tb441 2.809 1_554 S
C451 C452 1.514 1_565 S
C451 O466 1.248 . S
C451 O467 1.266 . S
C452 C451 1.514 1_545 S
C452 C453 1.359 . S
C452 C457 1.348 . S
C453 C452 1.359 . S
C453 C454 1.380 . S
C453 H476 0.929 1_545 S
C454 C453 1.380 . S
C454 C455 1.347 . S
C454 H477 0.931 . S
C455 C454 1.347 . S
C455 C456 1.369 . S
C456 C455 1.369 . S
C456 C457 1.408 . S
C456 H478 0.930 . S
C457 C452 1.348 . S
C457 C456 1.408 . S
C457 H479 0.930 . S
C458 O468 1.281 . S
C458 O469 1.254 . S
C459 O470 1.236 . S
C459 O471 1.266 . S
O460 Tb440 2.484 . S
O460 C442 1.248 . S
O461 Tb440 2.440 . S
O461 C442 1.266 . S
O462 Tb440 2.658 1_554 S
O462 Tb441 2.325 1_554 S
O462 C449 1.281 . S
O463 Tb440 2.409 1_554 S
O463 C449 1.254 . S
O464 Tb440 2.378 . S
O464 C450 1.236 . S
O465 Tb441 2.341 . S
O465 C450 1.266 . S
O466 Tb441 2.484 1_554 S
O466 C451 1.248 . S
O467 Tb441 2.440 1_554 S
O467 C451 1.266 . S
O468 Tb440 2.325 . S
O468 Tb441 2.658 . S
O468 C458 1.281 . S
O469 Tb441 2.409 . S
O469 C458 1.254 . S
O470 Tb441 2.378 1_554 S
O470 C459 1.236 . S
O471 Tb440 2.341 1_554 S
O471 C459 1.266 . S
H472 C444 0.929 . S
H473 C445 0.931 . S
H474 C447 0.930 . S
H475 C448 0.930 . S
H476 C453 0.929 1_565 S
H477 C454 0.931 . S
H478 C456 0.930 . S
H479 C457 0.930 . S
Tb480 C482 2.809 . S
Tb480 O500 2.484 . S
Tb480 O501 2.440 . S
Tb480 O502 2.658 . S
Tb480 O503 2.409 . S
Tb480 O504 2.378 . S
Tb480 O508 2.325 . S
Tb480 O511 2.341 . S
Tb481 C491 2.809 . S
Tb481 O502 2.325 . S
Tb481 O505 2.341 . S
Tb481 O506 2.484 . S
Tb481 O507 2.440 . S
Tb481 O508 2.658 . S
Tb481 O509 2.409 . S
Tb481 O510 2.378 . S
C482 Tb480 2.809 . S
C482 C483 1.514 1_655 S
C482 O500 1.248 . S
C482 O501 1.266 . S
C483 C482 1.514 1_455 S
C483 C484 1.359 . S
C483 C488 1.348 . S
C484 C483 1.359 . S
C484 C485 1.380 . S
C484 H512 0.929 1_455 S
C485 C484 1.380 . S
C485 C486 1.347 . S
C485 H513 0.931 . S
C486 C485 1.347 . S
C486 C487 1.369 . S
C487 C486 1.369 . S
C487 C488 1.408 . S
C487 H514 0.930 . S
C488 C483 1.348 . S
C488 C487 1.408 . S
C488 H515 0.930 . S
C489 O502 1.281 . S
C489 O503 1.254 . S
C490 O504 1.236 . S
C490 O505 1.266 . S
C491 Tb481 2.809 . S
C491 C492 1.514 . S
C491 O506 1.248 . S
C491 O507 1.266 . S
C492 C491 1.514 . S
C492 C493 1.359 . S
C492 C497 1.348 . S
C493 C492 1.359 . S
C493 C494 1.380 . S
C493 H516 0.929 . S
C494 C493 1.380 . S
C494 C495 1.347 . S
C494 H517 0.931 . S
C495 C494 1.347 . S
C495 C496 1.369 . S
C496 C495 1.369 . S
C496 C497 1.408 . S
C496 H518 0.930 . S
C497 C492 1.348 . S
C497 C496 1.408 . S
C497 H519 0.930 . S
C498 O508 1.281 . S
C498 O509 1.254 . S
C499 O510 1.236 . S
C499 O511 1.266 . S
O500 Tb480 2.484 . S
O500 C482 1.248 . S
O501 Tb480 2.440 . S
O501 C482 1.266 . S
O502 Tb480 2.658 . S
O502 Tb481 2.325 . S
O502 C489 1.281 . S
O503 Tb480 2.409 . S
O503 C489 1.254 . S
O504 Tb480 2.378 . S
O504 C490 1.236 . S
O505 Tb481 2.341 . S
O505 C490 1.266 . S
O506 Tb481 2.484 . S
O506 C491 1.248 . S
O507 Tb481 2.440 . S
O507 C491 1.266 . S
O508 Tb480 2.325 . S
O508 Tb481 2.658 . S
O508 C498 1.281 . S
O509 Tb481 2.409 . S
O509 C498 1.254 . S
O510 Tb481 2.378 . S
O510 C499 1.236 . S
O511 Tb480 2.341 . S
O511 C499 1.266 . S
H512 C484 0.929 1_655 S
H513 C485 0.931 . S
H514 C487 0.930 . S
H515 C488 0.930 . S
H516 C493 0.929 . S
H517 C494 0.931 . S
H518 C496 0.930 . S
H519 C497 0.930 . S
Tb520 C522 2.809 . S
Tb520 O540 2.484 . S
Tb520 O541 2.440 . S
Tb520 O542 2.658 . S
Tb520 O543 2.409 . S
Tb520 O544 2.378 . S
Tb520 O548 2.325 . S
Tb520 O551 2.341 . S
Tb521 C531 2.809 . S
Tb521 O542 2.325 . S
Tb521 O545 2.341 . S
Tb521 O546 2.484 . S
Tb521 O547 2.440 . S
Tb521 O548 2.658 . S
Tb521 O549 2.409 . S
Tb521 O550 2.378 . S
C522 Tb520 2.809 . S
C522 C523 1.514 . S
C522 O540 1.248 . S
C522 O541 1.266 . S
C523 C522 1.514 . S
C523 C524 1.359 . S
C523 C528 1.348 . S
C524 C523 1.359 . S
C524 C525 1.380 . S
C524 H552 0.929 . S
C525 C524 1.380 . S
C525 C526 1.347 . S
C525 H553 0.931 . S
C526 C525 1.347 . S
C526 C527 1.369 . S
C527 C526 1.369 . S
C527 C528 1.408 . S
C527 H554 0.930 . S
C528 C523 1.348 . S
C528 C527 1.408 . S
C528 H555 0.930 . S
C529 O542 1.281 . S
C529 O543 1.254 . S
C530 O544 1.236 . S
C530 O545 1.266 . S
C531 Tb521 2.809 . S
C531 C532 1.514 1_545 S
C531 O546 1.248 . S
C531 O547 1.266 . S
C532 C531 1.514 1_565 S
C532 C533 1.359 . S
C532 C537 1.348 . S
C533 C532 1.359 . S
C533 C534 1.380 . S
C533 H556 0.929 1_565 S
C534 C533 1.380 . S
C534 C535 1.347 . S
C534 H557 0.931 . S
C535 C534 1.347 . S
C535 C536 1.369 . S
C536 C535 1.369 . S
C536 C537 1.408 . S
C536 H558 0.930 . S
C537 C532 1.348 . S
C537 C536 1.408 . S
C537 H559 0.930 . S
C538 O548 1.281 . S
C538 O549 1.254 . S
C539 O550 1.236 . S
C539 O551 1.266 . S
O540 Tb520 2.484 . S
O540 C522 1.248 . S
O541 Tb520 2.440 . S
O541 C522 1.266 . S
O542 Tb520 2.658 . S
O542 Tb521 2.325 . S
O542 C529 1.281 . S
O543 Tb520 2.409 . S
O543 C529 1.254 . S
O544 Tb520 2.378 . S
O544 C530 1.236 . S
O545 Tb521 2.341 . S
O545 C530 1.266 . S
O546 Tb521 2.484 . S
O546 C531 1.248 . S
O547 Tb521 2.440 . S
O547 C531 1.266 . S
O548 Tb520 2.325 . S
O548 Tb521 2.658 . S
O548 C538 1.281 . S
O549 Tb521 2.409 . S
O549 C538 1.254 . S
O550 Tb521 2.378 . S
O550 C539 1.236 . S
O551 Tb520 2.341 . S
O551 C539 1.266 . S
H552 C524 0.929 . S
H553 C525 0.931 . S
H554 C527 0.930 . S
H555 C528 0.930 . S
H556 C533 0.929 1_545 S
H557 C534 0.931 . S
H558 C536 0.930 . S
H559 C537 0.930 . S
Tb560 C562 2.809 . S
Tb560 O580 2.484 . S
Tb560 O581 2.440 . S
Tb560 O582 2.658 . S
Tb560 O583 2.409 . S
Tb560 O584 2.378 . S
Tb560 O588 2.325 . S
Tb560 O591 2.341 . S
Tb561 C571 2.809 . S
Tb561 O582 2.325 . S
Tb561 O585 2.341 . S
Tb561 O586 2.484 . S
Tb561 O587 2.440 . S
Tb561 O588 2.658 . S
Tb561 O589 2.409 . S
Tb561 O590 2.378 . S
C562 Tb560 2.809 . S
C562 C563 1.514 . S
C562 O580 1.248 . S
C562 O581 1.266 . S
C563 C562 1.514 . S
C563 C564 1.359 . S
C563 C568 1.348 . S
C564 C563 1.359 . S
C564 C565 1.380 . S
C564 H592 0.929 . S
C565 C564 1.380 . S
C565 C566 1.347 . S
C565 H593 0.931 . S
C566 C565 1.347 . S
C566 C567 1.369 . S
C567 C566 1.369 . S
C567 C568 1.408 . S
C567 H594 0.930 . S
C568 C563 1.348 . S
C568 C567 1.408 . S
C568 H595 0.930 . S
C569 O582 1.281 . S
C569 O583 1.254 . S
C570 O584 1.236 . S
C570 O585 1.266 . S
C571 Tb561 2.809 . S
C571 C572 1.514 . S
C571 O586 1.248 . S
C571 O587 1.266 . S
C572 C571 1.514 . S
C572 C573 1.359 . S
C572 C577 1.348 . S
C573 C572 1.359 . S
C573 C574 1.380 . S
C573 H596 0.929 . S
C574 C573 1.380 . S
C574 C575 1.347 . S
C574 H597 0.931 . S
C575 C574 1.347 . S
C575 C576 1.369 . S
C576 C575 1.369 . S
C576 C577 1.408 . S
C576 H598 0.930 . S
C577 C572 1.348 . S
C577 C576 1.408 . S
C577 H599 0.930 . S
C578 O588 1.281 . S
C578 O589 1.254 . S
C579 O590 1.236 . S
C579 O591 1.266 . S
O580 Tb560 2.484 . S
O580 C562 1.248 . S
O581 Tb560 2.440 . S
O581 C562 1.266 . S
O582 Tb560 2.658 . S
O582 Tb561 2.325 . S
O582 C569 1.281 . S
O583 Tb560 2.409 . S
O583 C569 1.254 . S
O584 Tb560 2.378 . S
O584 C570 1.236 . S
O585 Tb561 2.341 . S
O585 C570 1.266 . S
O586 Tb561 2.484 . S
O586 C571 1.248 . S
O587 Tb561 2.440 . S
O587 C571 1.266 . S
O588 Tb560 2.325 . S
O588 Tb561 2.658 . S
O588 C578 1.281 . S
O589 Tb561 2.409 . S
O589 C578 1.254 . S
O590 Tb561 2.378 . S
O590 C579 1.236 . S
O591 Tb560 2.341 . S
O591 C579 1.266 . S
H592 C564 0.929 . S
H593 C565 0.931 . S
H594 C567 0.930 . S
H595 C568 0.930 . S
H596 C573 0.929 . S
H597 C574 0.931 . S
H598 C576 0.930 . S
H599 C577 0.930 . S
Tb600 C602 2.809 . S
Tb600 O620 2.484 . S
Tb600 O621 2.440 . S
Tb600 O622 2.658 1_554 S
Tb600 O623 2.409 1_554 S
Tb600 O624 2.378 . S
Tb600 O628 2.325 . S
Tb600 O631 2.341 1_554 S
Tb601 C611 2.809 1_554 S
Tb601 O622 2.325 1_554 S
Tb601 O625 2.341 . S
Tb601 O626 2.484 1_554 S
Tb601 O627 2.440 1_554 S
Tb601 O628 2.658 . S
Tb601 O629 2.409 . S
Tb601 O630 2.378 1_554 S
C602 Tb600 2.809 . S
C602 C603 1.514 . S
C602 O620 1.248 . S
C602 O621 1.266 . S
C603 C602 1.514 . S
C603 C604 1.359 . S
C603 C608 1.348 . S
C604 C603 1.359 . S
C604 C605 1.380 . S
C604 H632 0.929 . S
C605 C604 1.380 . S
C605 C606 1.347 . S
C605 H633 0.931 . S
C606 C605 1.347 . S
C606 C607 1.369 . S
C607 C606 1.369 . S
C607 C608 1.408 . S
C607 H634 0.930 . S
C608 C603 1.348 . S
C608 C607 1.408 . S
C608 H635 0.930 . S
C609 O622 1.281 . S
C609 O623 1.254 . S
C610 O624 1.236 . S
C610 O625 1.266 . S
C611 Tb601 2.809 1_556 S
C611 C612 1.514 1_565 S
C611 O626 1.248 . S
C611 O627 1.266 . S
C612 C611 1.514 1_545 S
C612 C613 1.359 . S
C612 C617 1.348 . S
C613 C612 1.359 . S
C613 C614 1.380 . S
C613 H636 0.929 1_545 S
C614 C613 1.380 . S
C614 C615 1.347 . S
C614 H637 0.931 . S
C615 C614 1.347 . S
C615 C616 1.369 . S
C616 C615 1.369 . S
C616 C617 1.408 . S
C616 H638 0.930 . S
C617 C612 1.348 . S
C617 C616 1.408 . S
C617 H639 0.930 . S
C618 O628 1.281 . S
C618 O629 1.254 . S
C619 O630 1.236 . S
C619 O631 1.266 . S
O620 Tb600 2.484 . S
O620 C602 1.248 . S
O621 Tb600 2.440 . S
O621 C602 1.266 . S
O622 Tb600 2.658 1_556 S
O622 Tb601 2.325 1_556 S
O622 C609 1.281 . S
O623 Tb600 2.409 1_556 S
O623 C609 1.254 . S
O624 Tb600 2.378 . S
O624 C610 1.236 . S
O625 Tb601 2.341 . S
O625 C610 1.266 . S
O626 Tb601 2.484 1_556 S
O626 C611 1.248 . S
O627 Tb601 2.440 1_556 S
O627 C611 1.266 . S
O628 Tb600 2.325 . S
O628 Tb601 2.658 . S
O628 C618 1.281 . S
O629 Tb601 2.409 . S
O629 C618 1.254 . S
O630 Tb601 2.378 1_556 S
O630 C619 1.236 . S
O631 Tb600 2.341 1_556 S
O631 C619 1.266 . S
H632 C604 0.929 . S
H633 C605 0.931 . S
H634 C607 0.930 . S
H635 C608 0.930 . S
H636 C613 0.929 1_565 S
H637 C614 0.931 . S
H638 C616 0.930 . S
H639 C617 0.930 . S
Tb640 C642 2.809 . S
Tb640 O660 2.484 . S
Tb640 O661 2.440 . S
Tb640 O662 2.658 . S
Tb640 O663 2.409 . S
Tb640 O664 2.378 . S
Tb640 O668 2.325 . S
Tb640 O671 2.341 . S
Tb641 C651 2.809 . S
Tb641 O662 2.325 . S
Tb641 O665 2.341 . S
Tb641 O666 2.484 . S
Tb641 O667 2.440 . S
Tb641 O668 2.658 . S
Tb641 O669 2.409 . S
Tb641 O670 2.378 . S
C642 Tb640 2.809 . S
C642 C643 1.514 . S
C642 O660 1.248 . S
C642 O661 1.266 . S
C643 C642 1.514 . S
C643 C644 1.359 . S
C643 C648 1.348 . S
C644 C643 1.359 . S
C644 C645 1.380 . S
C644 H672 0.929 . S
C645 C644 1.380 . S
C645 C646 1.347 . S
C645 H673 0.931 . S
C646 C645 1.347 . S
C646 C647 1.369 . S
C647 C646 1.369 . S
C647 C648 1.408 . S
C647 H674 0.930 . S
C648 C643 1.348 . S
C648 C647 1.408 . S
C648 H675 0.930 . S
C649 O662 1.281 . S
C649 O663 1.254 . S
C650 O664 1.236 . S
C650 O665 1.266 . S
C651 Tb641 2.809 . S
C651 C652 1.514 . S
C651 O666 1.248 . S
C651 O667 1.266 . S
C652 C651 1.514 . S
C652 C653 1.359 . S
C652 C657 1.348 . S
C653 C652 1.359 . S
C653 C654 1.380 . S
C653 H676 0.929 . S
C654 C653 1.380 . S
C654 C655 1.347 . S
C654 H677 0.931 . S
C655 C654 1.347 . S
C655 C656 1.369 . S
C656 C655 1.369 . S
C656 C657 1.408 . S
C656 H678 0.930 . S
C657 C652 1.348 . S
C657 C656 1.408 . S
C657 H679 0.930 . S
C658 O668 1.281 . S
C658 O669 1.254 . S
C659 O670 1.236 . S
C659 O671 1.266 . S
O660 Tb640 2.484 . S
O660 C642 1.248 . S
O661 Tb640 2.440 . S
O661 C642 1.266 . S
O662 Tb640 2.658 . S
O662 Tb641 2.325 . S
O662 C649 1.281 . S
O663 Tb640 2.409 . S
O663 C649 1.254 . S
O664 Tb640 2.378 . S
O664 C650 1.236 . S
O665 Tb641 2.341 . S
O665 C650 1.266 . S
O666 Tb641 2.484 . S
O666 C651 1.248 . S
O667 Tb641 2.440 . S
O667 C651 1.266 . S
O668 Tb640 2.325 . S
O668 Tb641 2.658 . S
O668 C658 1.281 . S
O669 Tb641 2.409 . S
O669 C658 1.254 . S
O670 Tb641 2.378 . S
O670 C659 1.236 . S
O671 Tb640 2.341 . S
O671 C659 1.266 . S
H672 C644 0.929 . S
H673 C645 0.931 . S
H674 C647 0.930 . S
H675 C648 0.930 . S
H676 C653 0.929 . S
H677 C654 0.931 . S
H678 C656 0.930 . S
H679 C657 0.930 . S
Tb680 C682 2.809 1_554 S
Tb680 O700 2.484 1_554 S
Tb680 O701 2.440 1_554 S
Tb680 O702 2.658 . S
Tb680 O703 2.409 . S
Tb680 O704 2.378 1_554 S
Tb680 O708 2.325 1_554 S
Tb680 O711 2.341 . S
Tb681 C691 2.809 . S
Tb681 O702 2.325 . S
Tb681 O705 2.341 1_554 S
Tb681 O706 2.484 . S
Tb681 O707 2.440 . S
Tb681 O708 2.658 1_554 S
Tb681 O709 2.409 1_554 S
Tb681 O710 2.378 . S
C682 Tb680 2.809 1_556 S
C682 C683 1.514 . S
C682 O700 1.248 . S
C682 O701 1.266 . S
C683 C682 1.514 . S
C683 C684 1.359 . S
C683 C688 1.348 . S
C684 C683 1.359 . S
C684 C685 1.380 . S
C684 H712 0.929 . S
C685 C684 1.380 . S
C685 C686 1.347 . S
C685 H713 0.931 . S
C686 C685 1.347 . S
C686 C687 1.369 . S
C687 C686 1.369 . S
C687 C688 1.408 . S
C687 H714 0.930 . S
C688 C683 1.348 . S
C688 C687 1.408 . S
C688 H715 0.930 . S
C689 O702 1.281 . S
C689 O703 1.254 . S
C690 O704 1.236 . S
C690 O705 1.266 . S
C691 Tb681 2.809 . S
C691 C692 1.514 . S
C691 O706 1.248 . S
C691 O707 1.266 . S
C692 C691 1.514 . S
C692 C693 1.359 . S
C692 C697 1.348 . S
C693 C692 1.359 . S
C693 C694 1.380 . S
C693 H716 0.929 . S
C694 C693 1.380 . S
C694 C695 1.347 . S
C694 H717 0.931 . S
C695 C694 1.347 . S
C695 C696 1.369 . S
C696 C695 1.369 . S
C696 C697 1.408 . S
C696 H718 0.930 . S
C697 C692 1.348 . S
C697 C696 1.408 . S
C697 H719 0.930 . S
C698 O708 1.281 . S
C698 O709 1.254 . S
C699 O710 1.236 . S
C699 O711 1.266 . S
O700 Tb680 2.484 1_556 S
O700 C682 1.248 . S
O701 Tb680 2.440 1_556 S
O701 C682 1.266 . S
O702 Tb680 2.658 . S
O702 Tb681 2.325 . S
O702 C689 1.281 . S
O703 Tb680 2.409 . S
O703 C689 1.254 . S
O704 Tb680 2.378 1_556 S
O704 C690 1.236 . S
O705 Tb681 2.341 1_556 S
O705 C690 1.266 . S
O706 Tb681 2.484 . S
O706 C691 1.248 . S
O707 Tb681 2.440 . S
O707 C691 1.266 . S
O708 Tb680 2.325 1_556 S
O708 Tb681 2.658 1_556 S
O708 C698 1.281 . S
O709 Tb681 2.409 1_556 S
O709 C698 1.254 . S
O710 Tb681 2.378 . S
O710 C699 1.236 . S
O711 Tb680 2.341 . S
O711 C699 1.266 . S
H712 C684 0.929 . S
H713 C685 0.931 . S
H714 C687 0.930 . S
H715 C688 0.930 . S
H716 C693 0.929 . S
H717 C694 0.931 . S
H718 C696 0.930 . S
H719 C697 0.930 . S
Tb720 C722 2.809 . S
Tb720 O740 2.484 . S
Tb720 O741 2.440 . S
Tb720 O742 2.658 . S
Tb720 O743 2.409 . S
Tb720 O744 2.378 . S
Tb720 O748 2.325 . S
Tb720 O751 2.341 . S
Tb721 C731 2.809 . S
Tb721 O742 2.325 . S
Tb721 O745 2.341 . S
Tb721 O746 2.484 . S
Tb721 O747 2.440 . S
Tb721 O748 2.658 . S
Tb721 O749 2.409 . S
Tb721 O750 2.378 . S
C722 Tb720 2.809 . S
C722 C723 1.514 . S
C722 O740 1.248 . S
C722 O741 1.266 . S
C723 C722 1.514 . S
C723 C724 1.359 . S
C723 C728 1.348 . S
C724 C723 1.359 . S
C724 C725 1.380 . S
C724 H752 0.929 . S
C725 C724 1.380 . S
C725 C726 1.347 . S
C725 H753 0.931 . S
C726 C725 1.347 . S
C726 C727 1.369 . S
C727 C726 1.369 . S
C727 C728 1.408 . S
C727 H754 0.930 . S
C728 C723 1.348 . S
C728 C727 1.408 . S
C728 H755 0.930 . S
C729 O742 1.281 . S
C729 O743 1.254 . S
C730 O744 1.236 . S
C730 O745 1.266 . S
C731 Tb721 2.809 . S
C731 C732 1.514 1_655 S
C731 O746 1.248 . S
C731 O747 1.266 . S
C732 C731 1.514 1_455 S
C732 C733 1.359 . S
C732 C737 1.348 . S
C733 C732 1.359 . S
C733 C734 1.380 . S
C733 H756 0.929 1_455 S
C734 C733 1.380 . S
C734 C735 1.347 . S
C734 H757 0.931 . S
C735 C734 1.347 . S
C735 C736 1.369 . S
C736 C735 1.369 . S
C736 C737 1.408 . S
C736 H758 0.930 . S
C737 C732 1.348 . S
C737 C736 1.408 . S
C737 H759 0.930 . S
C738 O748 1.281 . S
C738 O749 1.254 . S
C739 O750 1.236 . S
C739 O751 1.266 . S
O740 Tb720 2.484 . S
O740 C722 1.248 . S
O741 Tb720 2.440 . S
O741 C722 1.266 . S
O742 Tb720 2.658 . S
O742 Tb721 2.325 . S
O742 C729 1.281 . S
O743 Tb720 2.409 . S
O743 C729 1.254 . S
O744 Tb720 2.378 . S
O744 C730 1.236 . S
O745 Tb721 2.341 . S
O745 C730 1.266 . S
O746 Tb721 2.484 . S
O746 C731 1.248 . S
O747 Tb721 2.440 . S
O747 C731 1.266 . S
O748 Tb720 2.325 . S
O748 Tb721 2.658 . S
O748 C738 1.281 . S
O749 Tb721 2.409 . S
O749 C738 1.254 . S
O750 Tb721 2.378 . S
O750 C739 1.236 . S
O751 Tb720 2.341 . S
O751 C739 1.266 . S
H752 C724 0.929 . S
H753 C725 0.931 . S
H754 C727 0.930 . S
H755 C728 0.930 . S
H756 C733 0.929 1_655 S
H757 C734 0.931 . S
H758 C736 0.930 . S
H759 C737 0.930 . S
Tb760 C762 2.809 . S
Tb760 O780 2.484 . S
Tb760 O781 2.440 . S
Tb760 O782 2.658 . S
Tb760 O783 2.409 . S
Tb760 O784 2.378 . S
Tb760 O788 2.325 . S
Tb760 O791 2.341 . S
Tb761 C771 2.809 . S
Tb761 O782 2.325 . S
Tb761 O785 2.341 . S
Tb761 O786 2.484 . S
Tb761 O787 2.440 . S
Tb761 O788 2.658 . S
Tb761 O789 2.409 . S
Tb761 O790 2.378 . S
C762 Tb760 2.809 . S
C762 C763 1.514 . S
C762 O780 1.248 . S
C762 O781 1.266 . S
C763 C762 1.514 . S
C763 C764 1.359 . S
C763 C768 1.348 . S
C764 C763 1.359 . S
C764 C765 1.380 . S
C764 H792 0.929 . S
C765 C764 1.380 . S
C765 C766 1.347 . S
C765 H793 0.931 . S
C766 C765 1.347 . S
C766 C767 1.369 . S
C767 C766 1.369 . S
C767 C768 1.408 . S
C767 H794 0.930 . S
C768 C763 1.348 . S
C768 C767 1.408 . S
C768 H795 0.930 . S
C769 O782 1.281 . S
C769 O783 1.254 . S
C770 O784 1.236 . S
C770 O785 1.266 . S
C771 Tb761 2.809 . S
C771 C772 1.514 . S
C771 O786 1.248 . S
C771 O787 1.266 . S
C772 C771 1.514 . S
C772 C773 1.359 . S
C772 C777 1.348 . S
C773 C772 1.359 . S
C773 C774 1.380 . S
C773 H796 0.929 . S
C774 C773 1.380 . S
C774 C775 1.347 . S
C774 H797 0.931 . S
C775 C774 1.347 . S
C775 C776 1.369 . S
C776 C775 1.369 . S
C776 C777 1.408 . S
C776 H798 0.930 . S
C777 C772 1.348 . S
C777 C776 1.408 . S
C777 H799 0.930 . S
C778 O788 1.281 . S
C778 O789 1.254 . S
C779 O790 1.236 . S
C779 O791 1.266 . S
O780 Tb760 2.484 . S
O780 C762 1.248 . S
O781 Tb760 2.440 . S
O781 C762 1.266 . S
O782 Tb760 2.658 . S
O782 Tb761 2.325 . S
O782 C769 1.281 . S
O783 Tb760 2.409 . S
O783 C769 1.254 . S
O784 Tb760 2.378 . S
O784 C770 1.236 . S
O785 Tb761 2.341 . S
O785 C770 1.266 . S
O786 Tb761 2.484 . S
O786 C771 1.248 . S
O787 Tb761 2.440 . S
O787 C771 1.266 . S
O788 Tb760 2.325 . S
O788 Tb761 2.658 . S
O788 C778 1.281 . S
O789 Tb761 2.409 . S
O789 C778 1.254 . S
O790 Tb761 2.378 . S
O790 C779 1.236 . S
O791 Tb760 2.341 . S
O791 C779 1.266 . S
H792 C764 0.929 . S
H793 C765 0.931 . S
H794 C767 0.930 . S
H795 C768 0.930 . S
H796 C773 0.929 . S
H797 C774 0.931 . S
H798 C776 0.930 . S
H799 C777 0.930 . S
Tb800 C802 2.809 . S
Tb800 O820 2.484 . S
Tb800 O821 2.440 . S
Tb800 O822 2.658 . S
Tb800 O823 2.409 . S
Tb800 O824 2.378 . S
Tb800 O828 2.325 . S
Tb800 O831 2.341 . S
Tb801 C811 2.809 . S
Tb801 O822 2.325 . S
Tb801 O825 2.341 . S
Tb801 O826 2.484 . S
Tb801 O827 2.440 . S
Tb801 O828 2.658 . S
Tb801 O829 2.409 . S
Tb801 O830 2.378 . S
C802 Tb800 2.809 . S
C802 C803 1.514 . S
C802 O820 1.248 . S
C802 O821 1.266 . S
C803 C802 1.514 . S
C803 C804 1.359 . S
C803 C808 1.348 . S
C804 C803 1.359 . S
C804 C805 1.380 . S
C804 H832 0.929 . S
C805 C804 1.380 . S
C805 C806 1.347 . S
C805 H833 0.931 . S
C806 C805 1.347 . S
C806 C807 1.369 . S
C807 C806 1.369 . S
C807 C808 1.408 . S
C807 H834 0.930 . S
C808 C803 1.348 . S
C808 C807 1.408 . S
C808 H835 0.930 . S
C809 O822 1.281 . S
C809 O823 1.254 . S
C810 O824 1.236 . S
C810 O825 1.266 . S
C811 Tb801 2.809 . S
C811 C812 1.514 . S
C811 O826 1.248 . S
C811 O827 1.266 . S
C812 C811 1.514 . S
C812 C813 1.359 . S
C812 C817 1.348 . S
C813 C812 1.359 . S
C813 C814 1.380 . S
C813 H836 0.929 . S
C814 C813 1.380 . S
C814 C815 1.347 . S
C814 H837 0.931 . S
C815 C814 1.347 . S
C815 C816 1.369 . S
C816 C815 1.369 . S
C816 C817 1.408 . S
C816 H838 0.930 . S
C817 C812 1.348 . S
C817 C816 1.408 . S
C817 H839 0.930 . S
C818 O828 1.281 . S
C818 O829 1.254 . S
C819 O830 1.236 . S
C819 O831 1.266 . S
O820 Tb800 2.484 . S
O820 C802 1.248 . S
O821 Tb800 2.440 . S
O821 C802 1.266 . S
O822 Tb800 2.658 . S
O822 Tb801 2.325 . S
O822 C809 1.281 . S
O823 Tb800 2.409 . S
O823 C809 1.254 . S
O824 Tb800 2.378 . S
O824 C810 1.236 . S
O825 Tb801 2.341 . S
O825 C810 1.266 . S
O826 Tb801 2.484 . S
O826 C811 1.248 . S
O827 Tb801 2.440 . S
O827 C811 1.266 . S
O828 Tb800 2.325 . S
O828 Tb801 2.658 . S
O828 C818 1.281 . S
O829 Tb801 2.409 . S
O829 C818 1.254 . S
O830 Tb801 2.378 . S
O830 C819 1.236 . S
O831 Tb800 2.341 . S
O831 C819 1.266 . S
H832 C804 0.929 . S
H833 C805 0.931 . S
H834 C807 0.930 . S
H835 C808 0.930 . S
H836 C813 0.929 . S
H837 C814 0.931 . S
H838 C816 0.930 . S
H839 C817 0.930 . S
Tb840 C842 2.809 1_556 S
Tb840 O860 2.484 1_556 S
Tb840 O861 2.440 1_556 S
Tb840 O862 2.658 . S
Tb840 O863 2.409 . S
Tb840 O864 2.378 1_556 S
Tb840 O868 2.325 1_556 S
Tb840 O871 2.341 . S
Tb841 C851 2.809 . S
Tb841 O862 2.325 . S
Tb841 O865 2.341 1_556 S
Tb841 O866 2.484 . S
Tb841 O867 2.440 . S
Tb841 O868 2.658 1_556 S
Tb841 O869 2.409 1_556 S
Tb841 O870 2.378 . S
C842 Tb840 2.809 1_554 S
C842 C843 1.514 . S
C842 O860 1.248 . S
C842 O861 1.266 . S
C843 C842 1.514 . S
C843 C844 1.359 . S
C843 C848 1.348 . S
C844 C843 1.359 . S
C844 C845 1.380 . S
C844 H872 0.929 . S
C845 C844 1.380 . S
C845 C846 1.347 . S
C845 H873 0.931 . S
C846 C845 1.347 . S
C846 C847 1.369 . S
C847 C846 1.369 . S
C847 C848 1.408 . S
C847 H874 0.930 . S
C848 C843 1.348 . S
C848 C847 1.408 . S
C848 H875 0.930 . S
C849 O862 1.281 . S
C849 O863 1.254 . S
C850 O864 1.236 . S
C850 O865 1.266 . S
C851 Tb841 2.809 . S
C851 C852 1.514 . S
C851 O866 1.248 . S
C851 O867 1.266 . S
C852 C851 1.514 . S
C852 C853 1.359 . S
C852 C857 1.348 . S
C853 C852 1.359 . S
C853 C854 1.380 . S
C853 H876 0.929 . S
C854 C853 1.380 . S
C854 C855 1.347 . S
C854 H877 0.931 . S
C855 C854 1.347 . S
C855 C856 1.369 . S
C856 C855 1.369 . S
C856 C857 1.408 . S
C856 H878 0.930 . S
C857 C852 1.348 . S
C857 C856 1.408 . S
C857 H879 0.930 . S
C858 O868 1.281 . S
C858 O869 1.254 . S
C859 O870 1.236 . S
C859 O871 1.266 . S
O860 Tb840 2.484 1_554 S
O860 C842 1.248 . S
O861 Tb840 2.440 1_554 S
O861 C842 1.266 . S
O862 Tb840 2.658 . S
O862 Tb841 2.325 . S
O862 C849 1.281 . S
O863 Tb840 2.409 . S
O863 C849 1.254 . S
O864 Tb840 2.378 1_554 S
O864 C850 1.236 . S
O865 Tb841 2.341 1_554 S
O865 C850 1.266 . S
O866 Tb841 2.484 . S
O866 C851 1.248 . S
O867 Tb841 2.440 . S
O867 C851 1.266 . S
O868 Tb840 2.325 1_554 S
O868 Tb841 2.658 1_554 S
O868 C858 1.281 . S
O869 Tb841 2.409 1_554 S
O869 C858 1.254 . S
O870 Tb841 2.378 . S
O870 C859 1.236 . S
O871 Tb840 2.341 . S
O871 C859 1.266 . S
H872 C844 0.929 . S
H873 C845 0.931 . S
H874 C847 0.930 . S
H875 C848 0.930 . S
H876 C853 0.929 . S
H877 C854 0.931 . S
H878 C856 0.930 . S
H879 C857 0.930 . S
Tb880 C882 2.809 . S
Tb880 O900 2.484 . S
Tb880 O901 2.440 . S
Tb880 O902 2.658 . S
Tb880 O903 2.409 . S
Tb880 O904 2.378 . S
Tb880 O908 2.325 . S
Tb880 O911 2.341 . S
Tb881 C891 2.809 . S
Tb881 O902 2.325 . S
Tb881 O905 2.341 . S
Tb881 O906 2.484 . S
Tb881 O907 2.440 . S
Tb881 O908 2.658 . S
Tb881 O909 2.409 . S
Tb881 O910 2.378 . S
C882 Tb880 2.809 . S
C882 C883 1.514 . S
C882 O900 1.248 . S
C882 O901 1.266 . S
C883 C882 1.514 . S
C883 C884 1.359 . S
C883 C888 1.348 . S
C884 C883 1.359 . S
C884 C885 1.380 . S
C884 H912 0.929 . S
C885 C884 1.380 . S
C885 C886 1.347 . S
C885 H913 0.931 . S
C886 C885 1.347 . S
C886 C887 1.369 . S
C887 C886 1.369 . S
C887 C888 1.408 . S
C887 H914 0.930 . S
C888 C883 1.348 . S
C888 C887 1.408 . S
C888 H915 0.930 . S
C889 O902 1.281 . S
C889 O903 1.254 . S
C890 O904 1.236 . S
C890 O905 1.266 . S
C891 Tb881 2.809 . S
C891 C892 1.514 1_655 S
C891 O906 1.248 . S
C891 O907 1.266 . S
C892 C891 1.514 1_455 S
C892 C893 1.359 . S
C892 C897 1.348 . S
C893 C892 1.359 . S
C893 C894 1.380 . S
C893 H916 0.929 1_455 S
C894 C893 1.380 . S
C894 C895 1.347 . S
C894 H917 0.931 . S
C895 C894 1.347 . S
C895 C896 1.369 . S
C896 C895 1.369 . S
C896 C897 1.408 . S
C896 H918 0.930 . S
C897 C892 1.348 . S
C897 C896 1.408 . S
C897 H919 0.930 . S
C898 O908 1.281 . S
C898 O909 1.254 . S
C899 O910 1.236 . S
C899 O911 1.266 . S
O900 Tb880 2.484 . S
O900 C882 1.248 . S
O901 Tb880 2.440 . S
O901 C882 1.266 . S
O902 Tb880 2.658 . S
O902 Tb881 2.325 . S
O902 C889 1.281 . S
O903 Tb880 2.409 . S
O903 C889 1.254 . S
O904 Tb880 2.378 . S
O904 C890 1.236 . S
O905 Tb881 2.341 . S
O905 C890 1.266 . S
O906 Tb881 2.484 . S
O906 C891 1.248 . S
O907 Tb881 2.440 . S
O907 C891 1.266 . S
O908 Tb880 2.325 . S
O908 Tb881 2.658 . S
O908 C898 1.281 . S
O909 Tb881 2.409 . S
O909 C898 1.254 . S
O910 Tb881 2.378 . S
O910 C899 1.236 . S
O911 Tb880 2.341 . S
O911 C899 1.266 . S
H912 C884 0.929 . S
H913 C885 0.931 . S
H914 C887 0.930 . S
H915 C888 0.930 . S
H916 C893 0.929 1_655 S
H917 C894 0.931 . S
H918 C896 0.930 . S
H919 C897 0.930 . S
Tb920 C922 2.809 . S
Tb920 O940 2.484 . S
Tb920 O941 2.440 . S
Tb920 O942 2.658 . S
Tb920 O943 2.409 . S
Tb920 O944 2.378 . S
Tb920 O948 2.325 . S
Tb920 O951 2.341 . S
Tb921 C931 2.809 . S
Tb921 O942 2.325 . S
Tb921 O945 2.341 . S
Tb921 O946 2.484 . S
Tb921 O947 2.440 . S
Tb921 O948 2.658 . S
Tb921 O949 2.409 . S
Tb921 O950 2.378 . S
C922 Tb920 2.809 . S
C922 C923 1.514 . S
C922 O940 1.248 . S
C922 O941 1.266 . S
C923 C922 1.514 . S
C923 C924 1.359 . S
C923 C928 1.348 . S
C924 C923 1.359 . S
C924 C925 1.380 . S
C924 H952 0.929 . S
C925 C924 1.380 . S
C925 C926 1.347 . S
C925 H953 0.931 . S
C926 C925 1.347 . S
C926 C927 1.369 . S
C927 C926 1.369 . S
C927 C928 1.408 . S
C927 H954 0.930 . S
C928 C923 1.348 . S
C928 C927 1.408 . S
C928 H955 0.930 . S
C929 O942 1.281 . S
C929 O943 1.254 . S
C930 O944 1.236 . S
C930 O945 1.266 . S
C931 Tb921 2.809 . S
C931 C932 1.514 . S
C931 O946 1.248 . S
C931 O947 1.266 . S
C932 C931 1.514 . S
C932 C933 1.359 . S
C932 C937 1.348 . S
C933 C932 1.359 . S
C933 C934 1.380 . S
C933 H956 0.929 . S
C934 C933 1.380 . S
C934 C935 1.347 . S
C934 H957 0.931 . S
C935 C934 1.347 . S
C935 C936 1.369 . S
C936 C935 1.369 . S
C936 C937 1.408 . S
C936 H958 0.930 . S
C937 C932 1.348 . S
C937 C936 1.408 . S
C937 H959 0.930 . S
C938 O948 1.281 . S
C938 O949 1.254 . S
C939 O950 1.236 . S
C939 O951 1.266 . S
O940 Tb920 2.484 . S
O940 C922 1.248 . S
O941 Tb920 2.440 . S
O941 C922 1.266 . S
O942 Tb920 2.658 . S
O942 Tb921 2.325 . S
O942 C929 1.281 . S
O943 Tb920 2.409 . S
O943 C929 1.254 . S
O944 Tb920 2.378 . S
O944 C930 1.236 . S
O945 Tb921 2.341 . S
O945 C930 1.266 . S
O946 Tb921 2.484 . S
O946 C931 1.248 . S
O947 Tb921 2.440 . S
O947 C931 1.266 . S
O948 Tb920 2.325 . S
O948 Tb921 2.658 . S
O948 C938 1.281 . S
O949 Tb921 2.409 . S
O949 C938 1.254 . S
O950 Tb921 2.378 . S
O950 C939 1.236 . S
O951 Tb920 2.341 . S
O951 C939 1.266 . S
H952 C924 0.929 . S
H953 C925 0.931 . S
H954 C927 0.930 . S
H955 C928 0.930 . S
H956 C933 0.929 . S
H957 C934 0.931 . S
H958 C936 0.930 . S
H959 C937 0.930 . S
Tb960 C962 2.809 . S
Tb960 O980 2.484 . S
Tb960 O981 2.440 . S
Tb960 O982 2.658 . S
Tb960 O983 2.409 . S
Tb960 O984 2.378 . S
Tb960 O988 2.325 . S
Tb960 O991 2.341 . S
Tb961 C971 2.809 . S
Tb961 O982 2.325 . S
Tb961 O985 2.341 . S
Tb961 O986 2.484 . S
Tb961 O987 2.440 . S
Tb961 O988 2.658 . S
Tb961 O989 2.409 . S
Tb961 O990 2.378 . S
C962 Tb960 2.809 . S
C962 C963 1.514 . S
C962 O980 1.248 . S
C962 O981 1.266 . S
C963 C962 1.514 . S
C963 C964 1.359 . S
C963 C968 1.348 . S
C964 C963 1.359 . S
C964 C965 1.380 . S
C964 H992 0.929 . S
C965 C964 1.380 . S
C965 C966 1.347 . S
C965 H993 0.931 . S
C966 C965 1.347 . S
C966 C967 1.369 . S
C967 C966 1.369 . S
C967 C968 1.408 . S
C967 H994 0.930 . S
C968 C963 1.348 . S
C968 C967 1.408 . S
C968 H995 0.930 . S
C969 O982 1.281 . S
C969 O983 1.254 . S
C970 O984 1.236 . S
C970 O985 1.266 . S
C971 Tb961 2.809 . S
C971 C972 1.514 . S
C971 O986 1.248 . S
C971 O987 1.266 . S
C972 C971 1.514 . S
C972 C973 1.359 . S
C972 C977 1.348 . S
C973 C972 1.359 . S
C973 C974 1.380 . S
C973 H996 0.929 . S
C974 C973 1.380 . S
C974 C975 1.347 . S
C974 H997 0.931 . S
C975 C974 1.347 . S
C975 C976 1.369 . S
C976 C975 1.369 . S
C976 C977 1.408 . S
C976 H998 0.930 . S
C977 C972 1.348 . S
C977 C976 1.408 . S
C977 H999 0.930 . S
C978 O988 1.281 . S
C978 O989 1.254 . S
C979 O990 1.236 . S
C979 O991 1.266 . S
O980 Tb960 2.484 . S
O980 C962 1.248 . S
O981 Tb960 2.440 . S
O981 C962 1.266 . S
O982 Tb960 2.658 . S
O982 Tb961 2.325 . S
O982 C969 1.281 . S
O983 Tb960 2.409 . S
O983 C969 1.254 . S
O984 Tb960 2.378 . S
O984 C970 1.236 . S
O985 Tb961 2.341 . S
O985 C970 1.266 . S
O986 Tb961 2.484 . S
O986 C971 1.248 . S
O987 Tb961 2.440 . S
O987 C971 1.266 . S
O988 Tb960 2.325 . S
O988 Tb961 2.658 . S
O988 C978 1.281 . S
O989 Tb961 2.409 . S
O989 C978 1.254 . S
O990 Tb961 2.378 . S
O990 C979 1.236 . S
O991 Tb960 2.341 . S
O991 C979 1.266 . S
H992 C964 0.929 . S
H993 C965 0.931 . S
H994 C967 0.930 . S
H995 C968 0.930 . S
H996 C973 0.929 . S
H997 C974 0.931 . S
H998 C976 0.930 . S
H999 C977 0.930 . S
Tb1000 C1002 2.809 . S
Tb1000 O1020 2.484 . S
Tb1000 O1021 2.440 . S
Tb1000 O1022 2.658 1_556 S
Tb1000 O1023 2.409 1_556 S
Tb1000 O1024 2.378 . S
Tb1000 O1028 2.325 . S
Tb1000 O1031 2.341 1_556 S
Tb1001 C1011 2.809 1_556 S
Tb1001 O1022 2.325 1_556 S
Tb1001 O1025 2.341 . S
Tb1001 O1026 2.484 1_556 S
Tb1001 O1027 2.440 1_556 S
Tb1001 O1028 2.658 . S
Tb1001 O1029 2.409 . S
Tb1001 O1030 2.378 1_556 S
C1002 Tb1000 2.809 . S
C1002 C1003 1.514 . S
C1002 O1020 1.248 . S
C1002 O1021 1.266 . S
C1003 C1002 1.514 . S
C1003 C1004 1.359 . S
C1003 C1008 1.348 . S
C1004 C1003 1.359 . S
C1004 C1005 1.380 . S
C1004 H1032 0.929 . S
C1005 C1004 1.380 . S
C1005 C1006 1.347 . S
C1005 H1033 0.931 . S
C1006 C1005 1.347 . S
C1006 C1007 1.369 . S
C1007 C1006 1.369 . S
C1007 C1008 1.408 . S
C1007 H1034 0.930 . S
C1008 C1003 1.348 . S
C1008 C1007 1.408 . S
C1008 H1035 0.930 . S
C1009 O1022 1.281 . S
C1009 O1023 1.254 . S
C1010 O1024 1.236 . S
C1010 O1025 1.266 . S
C1011 Tb1001 2.809 1_554 S
C1011 C1012 1.514 . S
C1011 O1026 1.248 . S
C1011 O1027 1.266 . S
C1012 C1011 1.514 . S
C1012 C1013 1.359 . S
C1012 C1017 1.348 . S
C1013 C1012 1.359 . S
C1013 C1014 1.380 . S
C1013 H1036 0.929 . S
C1014 C1013 1.380 . S
C1014 C1015 1.347 . S
C1014 H1037 0.931 . S
C1015 C1014 1.347 . S
C1015 C1016 1.369 . S
C1016 C1015 1.369 . S
C1016 C1017 1.408 . S
C1016 H1038 0.930 . S
C1017 C1012 1.348 . S
C1017 C1016 1.408 . S
C1017 H1039 0.930 . S
C1018 O1028 1.281 . S
C1018 O1029 1.254 . S
C1019 O1030 1.236 . S
C1019 O1031 1.266 . S
O1020 Tb1000 2.484 . S
O1020 C1002 1.248 . S
O1021 Tb1000 2.440 . S
O1021 C1002 1.266 . S
O1022 Tb1000 2.658 1_554 S
O1022 Tb1001 2.325 1_554 S
O1022 C1009 1.281 . S
O1023 Tb1000 2.409 1_554 S
O1023 C1009 1.254 . S
O1024 Tb1000 2.378 . S
O1024 C1010 1.236 . S
O1025 Tb1001 2.341 . S
O1025 C1010 1.266 . S
O1026 Tb1001 2.484 1_554 S
O1026 C1011 1.248 . S
O1027 Tb1001 2.440 1_554 S
O1027 C1011 1.266 . S
O1028 Tb1000 2.325 . S
O1028 Tb1001 2.658 . S
O1028 C1018 1.281 . S
O1029 Tb1001 2.409 . S
O1029 C1018 1.254 . S
O1030 Tb1001 2.378 1_554 S
O1030 C1019 1.236 . S
O1031 Tb1000 2.341 1_554 S
O1031 C1019 1.266 . S
H1032 C1004 0.929 . S
H1033 C1005 0.931 . S
H1034 C1007 0.930 . S
H1035 C1008 0.930 . S
H1036 C1013 0.929 . S
H1037 C1014 0.931 . S
H1038 C1016 0.930 . S
H1039 C1017 0.930 . S
Tb1040 C1042 2.809 . S
Tb1040 O1060 2.484 . S
Tb1040 O1061 2.440 . S
Tb1040 O1062 2.658 . S
Tb1040 O1063 2.409 . S
Tb1040 O1064 2.378 . S
Tb1040 O1068 2.325 . S
Tb1040 O1071 2.341 . S
Tb1041 C1051 2.809 . S
Tb1041 O1062 2.325 . S
Tb1041 O1065 2.341 . S
Tb1041 O1066 2.484 . S
Tb1041 O1067 2.440 . S
Tb1041 O1068 2.658 . S
Tb1041 O1069 2.409 . S
Tb1041 O1070 2.378 . S
C1042 Tb1040 2.809 . S
C1042 C1043 1.514 1_455 S
C1042 O1060 1.248 . S
C1042 O1061 1.266 . S
C1043 C1042 1.514 1_655 S
C1043 C1044 1.359 . S
C1043 C1048 1.348 . S
C1044 C1043 1.359 . S
C1044 C1045 1.380 . S
C1044 H1072 0.929 1_655 S
C1045 C1044 1.380 . S
C1045 C1046 1.347 . S
C1045 H1073 0.931 . S
C1046 C1045 1.347 . S
C1046 C1047 1.369 . S
C1047 C1046 1.369 . S
C1047 C1048 1.408 . S
C1047 H1074 0.930 . S
C1048 C1043 1.348 . S
C1048 C1047 1.408 . S
C1048 H1075 0.930 . S
C1049 O1062 1.281 . S
C1049 O1063 1.254 . S
C1050 O1064 1.236 . S
C1050 O1065 1.266 . S
C1051 Tb1041 2.809 . S
C1051 C1052 1.514 . S
C1051 O1066 1.248 . S
C1051 O1067 1.266 . S
C1052 C1051 1.514 . S
C1052 C1053 1.359 . S
C1052 C1057 1.348 . S
C1053 C1052 1.359 . S
C1053 C1054 1.380 . S
C1053 H1076 0.929 . S
C1054 C1053 1.380 . S
C1054 C1055 1.347 . S
C1054 H1077 0.931 . S
C1055 C1054 1.347 . S
C1055 C1056 1.369 . S
C1056 C1055 1.369 . S
C1056 C1057 1.408 . S
C1056 H1078 0.930 . S
C1057 C1052 1.348 . S
C1057 C1056 1.408 . S
C1057 H1079 0.930 . S
C1058 O1068 1.281 . S
C1058 O1069 1.254 . S
C1059 O1070 1.236 . S
C1059 O1071 1.266 . S
O1060 Tb1040 2.484 . S
O1060 C1042 1.248 . S
O1061 Tb1040 2.440 . S
O1061 C1042 1.266 . S
O1062 Tb1040 2.658 . S
O1062 Tb1041 2.325 . S
O1062 C1049 1.281 . S
O1063 Tb1040 2.409 . S
O1063 C1049 1.254 . S
O1064 Tb1040 2.378 . S
O1064 C1050 1.236 . S
O1065 Tb1041 2.341 . S
O1065 C1050 1.266 . S
O1066 Tb1041 2.484 . S
O1066 C1051 1.248 . S
O1067 Tb1041 2.440 . S
O1067 C1051 1.266 . S
O1068 Tb1040 2.325 . S
O1068 Tb1041 2.658 . S
O1068 C1058 1.281 . S
O1069 Tb1041 2.409 . S
O1069 C1058 1.254 . S
O1070 Tb1041 2.378 . S
O1070 C1059 1.236 . S
O1071 Tb1040 2.341 . S
O1071 C1059 1.266 . S
H1072 C1044 0.929 1_455 S
H1073 C1045 0.931 . S
H1074 C1047 0.930 . S
H1075 C1048 0.930 . S
H1076 C1053 0.929 . S
H1077 C1054 0.931 . S
H1078 C1056 0.930 . S
H1079 C1057 0.930 . S
Tb1080 C1082 2.809 . S
Tb1080 O1100 2.484 . S
Tb1080 O1101 2.440 . S
Tb1080 O1102 2.658 . S
Tb1080 O1103 2.409 . S
Tb1080 O1104 2.378 . S
Tb1080 O1108 2.325 . S
Tb1080 O1111 2.341 . S
Tb1081 C1091 2.809 . S
Tb1081 O1102 2.325 . S
Tb1081 O1105 2.341 . S
Tb1081 O1106 2.484 . S
Tb1081 O1107 2.440 . S
Tb1081 O1108 2.658 . S
Tb1081 O1109 2.409 . S
Tb1081 O1110 2.378 . S
C1082 Tb1080 2.809 . S
C1082 C1083 1.514 . S
C1082 O1100 1.248 . S
C1082 O1101 1.266 . S
C1083 C1082 1.514 . S
C1083 C1084 1.359 . S
C1083 C1088 1.348 . S
C1084 C1083 1.359 . S
C1084 C1085 1.380 . S
C1084 H1112 0.929 . S
C1085 C1084 1.380 . S
C1085 C1086 1.347 . S
C1085 H1113 0.931 . S
C1086 C1085 1.347 . S
C1086 C1087 1.369 . S
C1087 C1086 1.369 . S
C1087 C1088 1.408 . S
C1087 H1114 0.930 . S
C1088 C1083 1.348 . S
C1088 C1087 1.408 . S
C1088 H1115 0.930 . S
C1089 O1102 1.281 . S
C1089 O1103 1.254 . S
C1090 O1104 1.236 . S
C1090 O1105 1.266 . S
C1091 Tb1081 2.809 . S
C1091 C1092 1.514 . S
C1091 O1106 1.248 . S
C1091 O1107 1.266 . S
C1092 C1091 1.514 . S
C1092 C1093 1.359 . S
C1092 C1097 1.348 . S
C1093 C1092 1.359 . S
C1093 C1094 1.380 . S
C1093 H1116 0.929 . S
C1094 C1093 1.380 . S
C1094 C1095 1.347 . S
C1094 H1117 0.931 . S
C1095 C1094 1.347 . S
C1095 C1096 1.369 . S
C1096 C1095 1.369 . S
C1096 C1097 1.408 . S
C1096 H1118 0.930 . S
C1097 C1092 1.348 . S
C1097 C1096 1.408 . S
C1097 H1119 0.930 . S
C1098 O1108 1.281 . S
C1098 O1109 1.254 . S
C1099 O1110 1.236 . S
C1099 O1111 1.266 . S
O1100 Tb1080 2.484 . S
O1100 C1082 1.248 . S
O1101 Tb1080 2.440 . S
O1101 C1082 1.266 . S
O1102 Tb1080 2.658 . S
O1102 Tb1081 2.325 . S
O1102 C1089 1.281 . S
O1103 Tb1080 2.409 . S
O1103 C1089 1.254 . S
O1104 Tb1080 2.378 . S
O1104 C1090 1.236 . S
O1105 Tb1081 2.341 . S
O1105 C1090 1.266 . S
O1106 Tb1081 2.484 . S
O1106 C1091 1.248 . S
O1107 Tb1081 2.440 . S
O1107 C1091 1.266 . S
O1108 Tb1080 2.325 . S
O1108 Tb1081 2.658 . S
O1108 C1098 1.281 . S
O1109 Tb1081 2.409 . S
O1109 C1098 1.254 . S
O1110 Tb1081 2.378 . S
O1110 C1099 1.236 . S
O1111 Tb1080 2.341 . S
O1111 C1099 1.266 . S
H1112 C1084 0.929 . S
H1113 C1085 0.931 . S
H1114 C1087 0.930 . S
H1115 C1088 0.930 . S
H1116 C1093 0.929 . S
H1117 C1094 0.931 . S
H1118 C1096 0.930 . S
H1119 C1097 0.930 . S
Tb1120 C1122 2.809 . S
Tb1120 O1140 2.484 . S
Tb1120 O1141 2.440 . S
Tb1120 O1142 2.658 . S
Tb1120 O1143 2.409 . S
Tb1120 O1144 2.378 . S
Tb1120 O1148 2.325 . S
Tb1120 O1151 2.341 . S
Tb1121 C1131 2.809 . S
Tb1121 O1142 2.325 . S
Tb1121 O1145 2.341 . S
Tb1121 O1146 2.484 . S
Tb1121 O1147 2.440 . S
Tb1121 O1148 2.658 . S
Tb1121 O1149 2.409 . S
Tb1121 O1150 2.378 . S
C1122 Tb1120 2.809 . S
C1122 C1123 1.514 . S
C1122 O1140 1.248 . S
C1122 O1141 1.266 . S
C1123 C1122 1.514 . S
C1123 C1124 1.359 . S
C1123 C1128 1.348 . S
C1124 C1123 1.359 . S
C1124 C1125 1.380 . S
C1124 H1152 0.929 . S
C1125 C1124 1.380 . S
C1125 C1126 1.347 . S
C1125 H1153 0.931 . S
C1126 C1125 1.347 . S
C1126 C1127 1.369 . S
C1127 C1126 1.369 . S
C1127 C1128 1.408 . S
C1127 H1154 0.930 . S
C1128 C1123 1.348 . S
C1128 C1127 1.408 . S
C1128 H1155 0.930 . S
C1129 O1142 1.281 . S
C1129 O1143 1.254 . S
C1130 O1144 1.236 . S
C1130 O1145 1.266 . S
C1131 Tb1121 2.809 . S
C1131 C1132 1.514 . S
C1131 O1146 1.248 . S
C1131 O1147 1.266 . S
C1132 C1131 1.514 . S
C1132 C1133 1.359 . S
C1132 C1137 1.348 . S
C1133 C1132 1.359 . S
C1133 C1134 1.380 . S
C1133 H1156 0.929 . S
C1134 C1133 1.380 . S
C1134 C1135 1.347 . S
C1134 H1157 0.931 . S
C1135 C1134 1.347 . S
C1135 C1136 1.369 . S
C1136 C1135 1.369 . S
C1136 C1137 1.408 . S
C1136 H1158 0.930 . S
C1137 C1132 1.348 . S
C1137 C1136 1.408 . S
C1137 H1159 0.930 . S
C1138 O1148 1.281 . S
C1138 O1149 1.254 . S
C1139 O1150 1.236 . S
C1139 O1151 1.266 . S
O1140 Tb1120 2.484 . S
O1140 C1122 1.248 . S
O1141 Tb1120 2.440 . S
O1141 C1122 1.266 . S
O1142 Tb1120 2.658 . S
O1142 Tb1121 2.325 . S
O1142 C1129 1.281 . S
O1143 Tb1120 2.409 . S
O1143 C1129 1.254 . S
O1144 Tb1120 2.378 . S
O1144 C1130 1.236 . S
O1145 Tb1121 2.341 . S
O1145 C1130 1.266 . S
O1146 Tb1121 2.484 . S
O1146 C1131 1.248 . S
O1147 Tb1121 2.440 . S
O1147 C1131 1.266 . S
O1148 Tb1120 2.325 . S
O1148 Tb1121 2.658 . S
O1148 C1138 1.281 . S
O1149 Tb1121 2.409 . S
O1149 C1138 1.254 . S
O1150 Tb1121 2.378 . S
O1150 C1139 1.236 . S
O1151 Tb1120 2.341 . S
O1151 C1139 1.266 . S
H1152 C1124 0.929 . S
H1153 C1125 0.931 . S
H1154 C1127 0.930 . S
H1155 C1128 0.930 . S
H1156 C1133 0.929 . S
H1157 C1134 0.931 . S
H1158 C1136 0.930 . S
H1159 C1137 0.930 . S
Tb1160 C1162 2.809 . S
Tb1160 O1180 2.484 . S
Tb1160 O1181 2.440 . S
Tb1160 O1182 2.658 1_554 S
Tb1160 O1183 2.409 1_554 S
Tb1160 O1184 2.378 . S
Tb1160 O1188 2.325 . S
Tb1160 O1191 2.341 1_554 S
Tb1161 C1171 2.809 1_554 S
Tb1161 O1182 2.325 1_554 S
Tb1161 O1185 2.341 . S
Tb1161 O1186 2.484 1_554 S
Tb1161 O1187 2.440 1_554 S
Tb1161 O1188 2.658 . S
Tb1161 O1189 2.409 . S
Tb1161 O1190 2.378 1_554 S
C1162 Tb1160 2.809 . S
C1162 C1163 1.514 . S
C1162 O1180 1.248 . S
C1162 O1181 1.266 . S
C1163 C1162 1.514 . S
C1163 C1164 1.359 . S
C1163 C1168 1.348 . S
C1164 C1163 1.359 . S
C1164 C1165 1.380 . S
C1164 H1192 0.929 . S
C1165 C1164 1.380 . S
C1165 C1166 1.347 . S
C1165 H1193 0.931 . S
C1166 C1165 1.347 . S
C1166 C1167 1.369 . S
C1167 C1166 1.369 . S
C1167 C1168 1.408 . S
C1167 H1194 0.930 . S
C1168 C1163 1.348 . S
C1168 C1167 1.408 . S
C1168 H1195 0.930 . S
C1169 O1182 1.281 . S
C1169 O1183 1.254 . S
C1170 O1184 1.236 . S
C1170 O1185 1.266 . S
C1171 Tb1161 2.809 1_556 S
C1171 C1172 1.514 . S
C1171 O1186 1.248 . S
C1171 O1187 1.266 . S
C1172 C1171 1.514 . S
C1172 C1173 1.359 . S
C1172 C1177 1.348 . S
C1173 C1172 1.359 . S
C1173 C1174 1.380 . S
C1173 H1196 0.929 . S
C1174 C1173 1.380 . S
C1174 C1175 1.347 . S
C1174 H1197 0.931 . S
C1175 C1174 1.347 . S
C1175 C1176 1.369 . S
C1176 C1175 1.369 . S
C1176 C1177 1.408 . S
C1176 H1198 0.930 . S
C1177 C1172 1.348 . S
C1177 C1176 1.408 . S
C1177 H1199 0.930 . S
C1178 O1188 1.281 . S
C1178 O1189 1.254 . S
C1179 O1190 1.236 . S
C1179 O1191 1.266 . S
O1180 Tb1160 2.484 . S
O1180 C1162 1.248 . S
O1181 Tb1160 2.440 . S
O1181 C1162 1.266 . S
O1182 Tb1160 2.658 1_556 S
O1182 Tb1161 2.325 1_556 S
O1182 C1169 1.281 . S
O1183 Tb1160 2.409 1_556 S
O1183 C1169 1.254 . S
O1184 Tb1160 2.378 . S
O1184 C1170 1.236 . S
O1185 Tb1161 2.341 . S
O1185 C1170 1.266 . S
O1186 Tb1161 2.484 1_556 S
O1186 C1171 1.248 . S
O1187 Tb1161 2.440 1_556 S
O1187 C1171 1.266 . S
O1188 Tb1160 2.325 . S
O1188 Tb1161 2.658 . S
O1188 C1178 1.281 . S
O1189 Tb1161 2.409 . S
O1189 C1178 1.254 . S
O1190 Tb1161 2.378 1_556 S
O1190 C1179 1.236 . S
O1191 Tb1160 2.341 1_556 S
O1191 C1179 1.266 . S
H1192 C1164 0.929 . S
H1193 C1165 0.931 . S
H1194 C1167 0.930 . S
H1195 C1168 0.930 . S
H1196 C1173 0.929 . S
H1197 C1174 0.931 . S
H1198 C1176 0.930 . S
H1199 C1177 0.930 . S
Tb1200 C1202 2.809 . S
Tb1200 O1220 2.484 . S
Tb1200 O1221 2.440 . S
Tb1200 O1222 2.658 . S
Tb1200 O1223 2.409 . S
Tb1200 O1224 2.378 . S
Tb1200 O1228 2.325 . S
Tb1200 O1231 2.341 . S
Tb1201 C1211 2.809 . S
Tb1201 O1222 2.325 . S
Tb1201 O1225 2.341 . S
Tb1201 O1226 2.484 . S
Tb1201 O1227 2.440 . S
Tb1201 O1228 2.658 . S
Tb1201 O1229 2.409 . S
Tb1201 O1230 2.378 . S
C1202 Tb1200 2.809 . S
C1202 C1203 1.514 1_455 S
C1202 O1220 1.248 . S
C1202 O1221 1.266 . S
C1203 C1202 1.514 1_655 S
C1203 C1204 1.359 . S
C1203 C1208 1.348 . S
C1204 C1203 1.359 . S
C1204 C1205 1.380 . S
C1204 H1232 0.929 1_655 S
C1205 C1204 1.380 . S
C1205 C1206 1.347 . S
C1205 H1233 0.931 . S
C1206 C1205 1.347 . S
C1206 C1207 1.369 . S
C1207 C1206 1.369 . S
C1207 C1208 1.408 . S
C1207 H1234 0.930 . S
C1208 C1203 1.348 . S
C1208 C1207 1.408 . S
C1208 H1235 0.930 . S
C1209 O1222 1.281 . S
C1209 O1223 1.254 . S
C1210 O1224 1.236 . S
C1210 O1225 1.266 . S
C1211 Tb1201 2.809 . S
C1211 C1212 1.514 . S
C1211 O1226 1.248 . S
C1211 O1227 1.266 . S
C1212 C1211 1.514 . S
C1212 C1213 1.359 . S
C1212 C1217 1.348 . S
C1213 C1212 1.359 . S
C1213 C1214 1.380 . S
C1213 H1236 0.929 . S
C1214 C1213 1.380 . S
C1214 C1215 1.347 . S
C1214 H1237 0.931 . S
C1215 C1214 1.347 . S
C1215 C1216 1.369 . S
C1216 C1215 1.369 . S
C1216 C1217 1.408 . S
C1216 H1238 0.930 . S
C1217 C1212 1.348 . S
C1217 C1216 1.408 . S
C1217 H1239 0.930 . S
C1218 O1228 1.281 . S
C1218 O1229 1.254 . S
C1219 O1230 1.236 . S
C1219 O1231 1.266 . S
O1220 Tb1200 2.484 . S
O1220 C1202 1.248 . S
O1221 Tb1200 2.440 . S
O1221 C1202 1.266 . S
O1222 Tb1200 2.658 . S
O1222 Tb1201 2.325 . S
O1222 C1209 1.281 . S
O1223 Tb1200 2.409 . S
O1223 C1209 1.254 . S
O1224 Tb1200 2.378 . S
O1224 C1210 1.236 . S
O1225 Tb1201 2.341 . S
O1225 C1210 1.266 . S
O1226 Tb1201 2.484 . S
O1226 C1211 1.248 . S
O1227 Tb1201 2.440 . S
O1227 C1211 1.266 . S
O1228 Tb1200 2.325 . S
O1228 Tb1201 2.658 . S
O1228 C1218 1.281 . S
O1229 Tb1201 2.409 . S
O1229 C1218 1.254 . S
O1230 Tb1201 2.378 . S
O1230 C1219 1.236 . S
O1231 Tb1200 2.341 . S
O1231 C1219 1.266 . S
H1232 C1204 0.929 1_455 S
H1233 C1205 0.931 . S
H1234 C1207 0.930 . S
H1235 C1208 0.930 . S
H1236 C1213 0.929 . S
H1237 C1214 0.931 . S
H1238 C1216 0.930 . S
H1239 C1217 0.930 . S
Tb1240 C1242 2.809 . S
Tb1240 O1260 2.484 . S
Tb1240 O1261 2.440 . S
Tb1240 O1262 2.658 . S
Tb1240 O1263 2.409 . S
Tb1240 O1264 2.378 . S
Tb1240 O1268 2.325 . S
Tb1240 O1271 2.341 . S
Tb1241 C1251 2.809 . S
Tb1241 O1262 2.325 . S
Tb1241 O1265 2.341 . S
Tb1241 O1266 2.484 . S
Tb1241 O1267 2.440 . S
Tb1241 O1268 2.658 . S
Tb1241 O1269 2.409 . S
Tb1241 O1270 2.378 . S
C1242 Tb1240 2.809 . S
C1242 C1243 1.514 . S
C1242 O1260 1.248 . S
C1242 O1261 1.266 . S
C1243 C1242 1.514 . S
C1243 C1244 1.359 . S
C1243 C1248 1.348 . S
C1244 C1243 1.359 . S
C1244 C1245 1.380 . S
C1244 H1272 0.929 . S
C1245 C1244 1.380 . S
C1245 C1246 1.347 . S
C1245 H1273 0.931 . S
C1246 C1245 1.347 . S
C1246 C1247 1.369 . S
C1247 C1246 1.369 . S
C1247 C1248 1.408 . S
C1247 H1274 0.930 . S
C1248 C1243 1.348 . S
C1248 C1247 1.408 . S
C1248 H1275 0.930 . S
C1249 O1262 1.281 . S
C1249 O1263 1.254 . S
C1250 O1264 1.236 . S
C1250 O1265 1.266 . S
C1251 Tb1241 2.809 . S
C1251 C1252 1.514 . S
C1251 O1266 1.248 . S
C1251 O1267 1.266 . S
C1252 C1251 1.514 . S
C1252 C1253 1.359 . S
C1252 C1257 1.348 . S
C1253 C1252 1.359 . S
C1253 C1254 1.380 . S
C1253 H1276 0.929 . S
C1254 C1253 1.380 . S
C1254 C1255 1.347 . S
C1254 H1277 0.931 . S
C1255 C1254 1.347 . S
C1255 C1256 1.369 . S
C1256 C1255 1.369 . S
C1256 C1257 1.408 . S
C1256 H1278 0.930 . S
C1257 C1252 1.348 . S
C1257 C1256 1.408 . S
C1257 H1279 0.930 . S
C1258 O1268 1.281 . S
C1258 O1269 1.254 . S
C1259 O1270 1.236 . S
C1259 O1271 1.266 . S
O1260 Tb1240 2.484 . S
O1260 C1242 1.248 . S
O1261 Tb1240 2.440 . S
O1261 C1242 1.266 . S
O1262 Tb1240 2.658 . S
O1262 Tb1241 2.325 . S
O1262 C1249 1.281 . S
O1263 Tb1240 2.409 . S
O1263 C1249 1.254 . S
O1264 Tb1240 2.378 . S
O1264 C1250 1.236 . S
O1265 Tb1241 2.341 . S
O1265 C1250 1.266 . S
O1266 Tb1241 2.484 . S
O1266 C1251 1.248 . S
O1267 Tb1241 2.440 . S
O1267 C1251 1.266 . S
O1268 Tb1240 2.325 . S
O1268 Tb1241 2.658 . S
O1268 C1258 1.281 . S
O1269 Tb1241 2.409 . S
O1269 C1258 1.254 . S
O1270 Tb1241 2.378 . S
O1270 C1259 1.236 . S
O1271 Tb1240 2.341 . S
O1271 C1259 1.266 . S
H1272 C1244 0.929 . S
H1273 C1245 0.931 . S
H1274 C1247 0.930 . S
H1275 C1248 0.930 . S
H1276 C1253 0.929 . S
H1277 C1254 0.931 . S
H1278 C1256 0.930 . S
H1279 C1257 0.930 . S
C6 C139 0.691 . S
C19 C46 0.691 . S
C86 C59 0.691 . S
C99 C126 0.691 . S
C219 C166 0.691 . S
C206 C259 0.691 . S
C299 C246 0.691 . S
C179 C286 0.691 . S
C335 C450 0.691 . S
C375 C330 0.691 . S
C415 C370 0.691 . S
C455 C410 0.691 . S
C495 C530 0.691 . S
C535 C570 0.691 . S
C610 C575 0.691 . S
C490 C615 0.691 . S
C646 C779 0.691 . S
C659 C686 0.691 . S
C699 C726 0.691 . S
C766 C739 0.691 . S
C806 C859 0.691 . S
C899 C846 0.691 . S
C886 C939 0.691 . S
C819 C926 0.691 . S
C1090 C975 0.691 . S
C970 C1015 0.691 . S
C1055 C1010 0.691 . S
C1050 C1095 0.691 . S
C1170 C1135 0.691 . S
C1210 C1175 0.691 . S
C1250 C1215 0.691 . S
C1255 C1130 0.691 . S
C1086 C9 1.855 . S
C49 C326 1.856 . S
C89 C1006 1.855 . S
C129 C406 1.856 . S
C169 C1166 1.855 . S
C566 C209 1.856 . S
C1246 C249 1.855 . S
C289 C486 1.856 . S
C338 C775 1.855 . S
C15 C378 1.856 . S
C695 C418 1.855 . S
C95 C458 1.856 . S
C855 C498 1.855 . S
C255 C538 1.856 . S
C578 C935 1.855 . S
C618 C175 1.856 . S
C649 C446 1.855 . S
C689 C966 1.856 . S
C729 C366 1.855 . S
C769 C1046 1.856 . S
C809 C526 1.855 . S
C849 C1206 1.856 . S
C606 C889 1.855 . S
C929 C1126 1.856 . S
C135 C978 1.855 . S
C655 C1018 1.856 . S
C55 C1058 1.855 . S
C735 C1098 1.856 . S
C215 C1138 1.855 . S
C1178 C895 1.856 . S
C1218 C295 1.855 . S
C815 C1258 1.856 . S
C18 C178 2.960 1_545 S
C58 C218 2.960 . S
C98 C258 2.960 1_565 S
C298 C138 2.960 1_554 S
C489 C329 2.960 1_545 S
C529 C369 2.960 . S
C409 C569 2.960 1_545 S
C449 C609 2.960 1_554 S
C658 C818 2.960 . S
C858 C698 2.960 1_554 S
C898 C738 2.960 . S
C938 C778 2.960 . S
C1129 C969 2.960 . S
C1009 C1169 2.960 1_554 S
C1209 C1049 2.960 . S
C1089 C1249 2.960 . S
C290 C10 3.832 . S
C50 C170 3.832 . S
C90 C210 3.832 . S
C250 C130 3.832 . S
C339 C619 3.832 . S
C499 C379 3.832 . S
C539 C419 3.832 . S
C459 C579 3.832 . S
C650 C930 3.832 . S
C810 C690 3.832 . S
C850 C730 3.832 . S
C890 C770 3.832 . S
C979 C1259 3.832 . S
C1139 C1019 3.832 . S
C1059 C1179 3.832 . S
C1219 C1099 3.832 . S
