# Generated by pormake.
# Topology srs-g, (5)-cn, num edge types: 1
# Building blocks:
#     Node 0, Type 0, BuildingBlock: XOMCOT_clean_sbu_0, # of connection points: 5
#     Node 1, Type 0, BuildingBlock: XOMCOT_clean_sbu_0, # of connection points: 5
#     Node 2, Type 0, BuildingBlock: XOMCOT_clean_sbu_0, # of connection points: 5
#     Node 3, Type 0, BuildingBlock: XOMCOT_clean_sbu_0, # of connection points: 5
#     Node 4, Type 0, BuildingBlock: XOMCOT_clean_sbu_0, # of connection points: 5
#     Node 5, Type 0, BuildingBlock: XOMCOT_clean_sbu_0, # of connection points: 5
#     Node 6, Type 0, BuildingBlock: XOMCOT_clean_sbu_0, # of connection points: 5
#     Node 7, Type 0, BuildingBlock: XOMCOT_clean_sbu_0, # of connection points: 5
#     Node 8, Type 0, BuildingBlock: XOMCOT_clean_sbu_0, # of connection points: 5
#     Node 9, Type 0, BuildingBlock: XOMCOT_clean_sbu_0, # of connection points: 5
#     Node 10, Type 0, BuildingBlock: XOMCOT_clean_sbu_0, # of connection points: 5
#     Node 11, Type 0, BuildingBlock: XOMCOT_clean_sbu_0, # of connection points: 5
#     Node 12, Type 0, BuildingBlock: XOMCOT_clean_sbu_0, # of connection points: 5
#     Node 13, Type 0, BuildingBlock: XOMCOT_clean_sbu_0, # of connection points: 5
#     Node 14, Type 0, BuildingBlock: XOMCOT_clean_sbu_0, # of connection points: 5
#     Node 15, Type 0, BuildingBlock: XOMCOT_clean_sbu_0, # of connection points: 5
#     Node 16, Type 0, BuildingBlock: XOMCOT_clean_sbu_0, # of connection points: 5
#     Node 17, Type 0, BuildingBlock: XOMCOT_clean_sbu_0, # of connection points: 5
#     Node 18, Type 0, BuildingBlock: XOMCOT_clean_sbu_0, # of connection points: 5
#     Node 19, Type 0, BuildingBlock: XOMCOT_clean_sbu_0, # of connection points: 5
#     Node 20, Type 0, BuildingBlock: XOMCOT_clean_sbu_0, # of connection points: 5
#     Node 21, Type 0, BuildingBlock: XOMCOT_clean_sbu_0, # of connection points: 5
#     Node 22, Type 0, BuildingBlock: XOMCOT_clean_sbu_0, # of connection points: 5
#     Node 23, Type 0, BuildingBlock: XOMCOT_clean_sbu_0, # of connection points: 5
#     Node 24, Type 0, BuildingBlock: XOMCOT_clean_sbu_0, # of connection points: 5
#     Node 25, Type 0, BuildingBlock: XOMCOT_clean_sbu_0, # of connection points: 5
#     Node 26, Type 0, BuildingBlock: XOMCOT_clean_sbu_0, # of connection points: 5
#     Node 27, Type 0, BuildingBlock: XOMCOT_clean_sbu_0, # of connection points: 5
#     Node 28, Type 0, BuildingBlock: XOMCOT_clean_sbu_0, # of connection points: 5
#     Node 29, Type 0, BuildingBlock: XOMCOT_clean_sbu_0, # of connection points: 5
#     Node 30, Type 0, BuildingBlock: XOMCOT_clean_sbu_0, # of connection points: 5
#     Node 31, Type 0, BuildingBlock: XOMCOT_clean_sbu_0, # of connection points: 5
#     Node 32, Type 0, BuildingBlock: XOMCOT_clean_sbu_0, # of connection points: 5
#     Node 33, Type 0, BuildingBlock: XOMCOT_clean_sbu_0, # of connection points: 5
#     Node 34, Type 0, BuildingBlock: XOMCOT_clean_sbu_0, # of connection points: 5
#     Node 35, Type 0, BuildingBlock: XOMCOT_clean_sbu_0, # of connection points: 5
#     Node 36, Type 0, BuildingBlock: XOMCOT_clean_sbu_0, # of connection points: 5
#     Node 37, Type 0, BuildingBlock: XOMCOT_clean_sbu_0, # of connection points: 5
#     Node 38, Type 0, BuildingBlock: XOMCOT_clean_sbu_0, # of connection points: 5
#     Node 39, Type 0, BuildingBlock: XOMCOT_clean_sbu_0, # of connection points: 5
#     Node 40, Type 0, BuildingBlock: XOMCOT_clean_sbu_0, # of connection points: 5
#     Node 41, Type 0, BuildingBlock: XOMCOT_clean_sbu_0, # of connection points: 5
#     Node 42, Type 0, BuildingBlock: XOMCOT_clean_sbu_0, # of connection points: 5
#     Node 43, Type 0, BuildingBlock: XOMCOT_clean_sbu_0, # of connection points: 5
#     Node 44, Type 0, BuildingBlock: XOMCOT_clean_sbu_0, # of connection points: 5
#     Node 45, Type 0, BuildingBlock: XOMCOT_clean_sbu_0, # of connection points: 5
#     Node 46, Type 0, BuildingBlock: XOMCOT_clean_sbu_0, # of connection points: 5
#     Node 47, Type 0, BuildingBlock: XOMCOT_clean_sbu_0, # of connection points: 5
#     Edge 48, Type (0, 0), BuildingBlock: AJUNOK_clean_linker_0, # of connection points: 2
#     Edge 49, Type (0, 0), BuildingBlock: AJUNOK_clean_linker_0, # of connection points: 2
#     Edge 50, Type (0, 0), BuildingBlock: AJUNOK_clean_linker_0, # of connection points: 2
#     Edge 51, Type (0, 0), BuildingBlock: AJUNOK_clean_linker_0, # of connection points: 2
#     Edge 52, Type (0, 0), BuildingBlock: AJUNOK_clean_linker_0, # of connection points: 2
#     Edge 53, Type (0, 0), BuildingBlock: AJUNOK_clean_linker_0, # of connection points: 2
#     Edge 54, Type (0, 0), BuildingBlock: AJUNOK_clean_linker_0, # of connection points: 2
#     Edge 55, Type (0, 0), BuildingBlock: AJUNOK_clean_linker_0, # of connection points: 2
#     Edge 56, Type (0, 0), BuildingBlock: AJUNOK_clean_linker_0, # of connection points: 2
#     Edge 57, Type (0, 0), BuildingBlock: AJUNOK_clean_linker_0, # of connection points: 2
#     Edge 58, Type (0, 0), BuildingBlock: AJUNOK_clean_linker_0, # of connection points: 2
#     Edge 59, Type (0, 0), BuildingBlock: AJUNOK_clean_linker_0, # of connection points: 2
#     Edge 60, Type (0, 0), BuildingBlock: AJUNOK_clean_linker_0, # of connection points: 2
#     Edge 61, Type (0, 0), BuildingBlock: AJUNOK_clean_linker_0, # of connection points: 2
#     Edge 62, Type (0, 0), BuildingBlock: AJUNOK_clean_linker_0, # of connection points: 2
#     Edge 63, Type (0, 0), BuildingBlock: AJUNOK_clean_linker_0, # of connection points: 2
#     Edge 64, Type (0, 0), BuildingBlock: AJUNOK_clean_linker_0, # of connection points: 2
#     Edge 65, Type (0, 0), BuildingBlock: AJUNOK_clean_linker_0, # of connection points: 2
#     Edge 66, Type (0, 0), BuildingBlock: AJUNOK_clean_linker_0, # of connection points: 2
#     Edge 67, Type (0, 0), BuildingBlock: AJUNOK_clean_linker_0, # of connection points: 2
#     Edge 68, Type (0, 0), BuildingBlock: AJUNOK_clean_linker_0, # of connection points: 2
#     Edge 69, Type (0, 0), BuildingBlock: AJUNOK_clean_linker_0, # of connection points: 2
#     Edge 70, Type (0, 0), BuildingBlock: AJUNOK_clean_linker_0, # of connection points: 2
#     Edge 71, Type (0, 0), BuildingBlock: AJUNOK_clean_linker_0, # of connection points: 2
#     Edge 72, Type (0, 0), BuildingBlock: AJUNOK_clean_linker_0, # of connection points: 2
#     Edge 73, Type (0, 0), BuildingBlock: AJUNOK_clean_linker_0, # of connection points: 2
#     Edge 74, Type (0, 0), BuildingBlock: AJUNOK_clean_linker_0, # of connection points: 2
#     Edge 75, Type (0, 0), BuildingBlock: AJUNOK_clean_linker_0, # of connection points: 2
#     Edge 76, Type (0, 0), BuildingBlock: AJUNOK_clean_linker_0, # of connection points: 2
#     Edge 77, Type (0, 0), BuildingBlock: AJUNOK_clean_linker_0, # of connection points: 2
#     Edge 78, Type (0, 0), BuildingBlock: AJUNOK_clean_linker_0, # of connection points: 2
#     Edge 79, Type (0, 0), BuildingBlock: AJUNOK_clean_linker_0, # of connection points: 2
#     Edge 80, Type (0, 0), BuildingBlock: AJUNOK_clean_linker_0, # of connection points: 2
#     Edge 81, Type (0, 0), BuildingBlock: AJUNOK_clean_linker_0, # of connection points: 2
#     Edge 82, Type (0, 0), BuildingBlock: AJUNOK_clean_linker_0, # of connection points: 2
#     Edge 83, Type (0, 0), BuildingBlock: AJUNOK_clean_linker_0, # of connection points: 2
#     Edge 84, Type (0, 0), BuildingBlock: AJUNOK_clean_linker_0, # of connection points: 2
#     Edge 85, Type (0, 0), BuildingBlock: AJUNOK_clean_linker_0, # of connection points: 2
#     Edge 86, Type (0, 0), BuildingBlock: AJUNOK_clean_linker_0, # of connection points: 2
#     Edge 87, Type (0, 0), BuildingBlock: AJUNOK_clean_linker_0, # of connection points: 2
#     Edge 88, Type (0, 0), BuildingBlock: AJUNOK_clean_linker_0, # of connection points: 2
#     Edge 89, Type (0, 0), BuildingBlock: AJUNOK_clean_linker_0, # of connection points: 2
#     Edge 90, Type (0, 0), BuildingBlock: AJUNOK_clean_linker_0, # of connection points: 2
#     Edge 91, Type (0, 0), BuildingBlock: AJUNOK_clean_linker_0, # of connection points: 2
#     Edge 92, Type (0, 0), BuildingBlock: AJUNOK_clean_linker_0, # of connection points: 2
#     Edge 93, Type (0, 0), BuildingBlock: AJUNOK_clean_linker_0, # of connection points: 2
#     Edge 94, Type (0, 0), BuildingBlock: AJUNOK_clean_linker_0, # of connection points: 2
#     Edge 95, Type (0, 0), BuildingBlock: AJUNOK_clean_linker_0, # of connection points: 2
#     Edge 96, Type (0, 0), BuildingBlock: AJUNOK_clean_linker_0, # of connection points: 2
#     Edge 97, Type (0, 0), BuildingBlock: AJUNOK_clean_linker_0, # of connection points: 2
#     Edge 98, Type (0, 0), BuildingBlock: AJUNOK_clean_linker_0, # of connection points: 2
#     Edge 99, Type (0, 0), BuildingBlock: AJUNOK_clean_linker_0, # of connection points: 2
#     Edge 100, Type (0, 0), BuildingBlock: AJUNOK_clean_linker_0, # of connection points: 2
#     Edge 101, Type (0, 0), BuildingBlock: AJUNOK_clean_linker_0, # of connection points: 2
#     Edge 102, Type (0, 0), BuildingBlock: AJUNOK_clean_linker_0, # of connection points: 2
#     Edge 103, Type (0, 0), BuildingBlock: AJUNOK_clean_linker_0, # of connection points: 2
#     Edge 104, Type (0, 0), BuildingBlock: AJUNOK_clean_linker_0, # of connection points: 2
#     Edge 105, Type (0, 0), BuildingBlock: AJUNOK_clean_linker_0, # of connection points: 2
#     Edge 106, Type (0, 0), BuildingBlock: AJUNOK_clean_linker_0, # of connection points: 2
#     Edge 107, Type (0, 0), BuildingBlock: AJUNOK_clean_linker_0, # of connection points: 2
#     Edge 108, Type (0, 0), BuildingBlock: AJUNOK_clean_linker_0, # of connection points: 2
#     Edge 109, Type (0, 0), BuildingBlock: AJUNOK_clean_linker_0, # of connection points: 2
#     Edge 110, Type (0, 0), BuildingBlock: AJUNOK_clean_linker_0, # of connection points: 2
#     Edge 111, Type (0, 0), BuildingBlock: AJUNOK_clean_linker_0, # of connection points: 2
#     Edge 112, Type (0, 0), BuildingBlock: AJUNOK_clean_linker_0, # of connection points: 2
#     Edge 113, Type (0, 0), BuildingBlock: AJUNOK_clean_linker_0, # of connection points: 2
#     Edge 114, Type (0, 0), BuildingBlock: AJUNOK_clean_linker_0, # of connection points: 2
#     Edge 115, Type (0, 0), BuildingBlock: AJUNOK_clean_linker_0, # of connection points: 2
#     Edge 116, Type (0, 0), BuildingBlock: AJUNOK_clean_linker_0, # of connection points: 2
#     Edge 117, Type (0, 0), BuildingBlock: AJUNOK_clean_linker_0, # of connection points: 2
#     Edge 118, Type (0, 0), BuildingBlock: AJUNOK_clean_linker_0, # of connection points: 2
#     Edge 119, Type (0, 0), BuildingBlock: AJUNOK_clean_linker_0, # of connection points: 2
#     Edge 120, Type (0, 0), BuildingBlock: AJUNOK_clean_linker_0, # of connection points: 2
#     Edge 121, Type (0, 0), BuildingBlock: AJUNOK_clean_linker_0, # of connection points: 2
#     Edge 122, Type (0, 0), BuildingBlock: AJUNOK_clean_linker_0, # of connection points: 2
#     Edge 123, Type (0, 0), BuildingBlock: AJUNOK_clean_linker_0, # of connection points: 2
#     Edge 124, Type (0, 0), BuildingBlock: AJUNOK_clean_linker_0, # of connection points: 2
#     Edge 125, Type (0, 0), BuildingBlock: AJUNOK_clean_linker_0, # of connection points: 2
#     Edge 126, Type (0, 0), BuildingBlock: AJUNOK_clean_linker_0, # of connection points: 2
#     Edge 127, Type (0, 0), BuildingBlock: AJUNOK_clean_linker_0, # of connection points: 2
#     Edge 128, Type (0, 0), BuildingBlock: AJUNOK_clean_linker_0, # of connection points: 2
#     Edge 129, Type (0, 0), BuildingBlock: AJUNOK_clean_linker_0, # of connection points: 2
#     Edge 130, Type (0, 0), BuildingBlock: AJUNOK_clean_linker_0, # of connection points: 2
#     Edge 131, Type (0, 0), BuildingBlock: AJUNOK_clean_linker_0, # of connection points: 2
#     Edge 132, Type (0, 0), BuildingBlock: AJUNOK_clean_linker_0, # of connection points: 2
#     Edge 133, Type (0, 0), BuildingBlock: AJUNOK_clean_linker_0, # of connection points: 2
#     Edge 134, Type (0, 0), BuildingBlock: AJUNOK_clean_linker_0, # of connection points: 2
#     Edge 135, Type (0, 0), BuildingBlock: AJUNOK_clean_linker_0, # of connection points: 2
#     Edge 136, Type (0, 0), BuildingBlock: AJUNOK_clean_linker_0, # of connection points: 2
#     Edge 137, Type (0, 0), BuildingBlock: AJUNOK_clean_linker_0, # of connection points: 2
#     Edge 138, Type (0, 0), BuildingBlock: AJUNOK_clean_linker_0, # of connection points: 2
#     Edge 139, Type (0, 0), BuildingBlock: AJUNOK_clean_linker_0, # of connection points: 2
#     Edge 140, Type (0, 0), BuildingBlock: AJUNOK_clean_linker_0, # of connection points: 2
#     Edge 141, Type (0, 0), BuildingBlock: AJUNOK_clean_linker_0, # of connection points: 2
#     Edge 142, Type (0, 0), BuildingBlock: AJUNOK_clean_linker_0, # of connection points: 2
#     Edge 143, Type (0, 0), BuildingBlock: AJUNOK_clean_linker_0, # of connection points: 2
#     Edge 144, Type (0, 0), BuildingBlock: AJUNOK_clean_linker_0, # of connection points: 2
#     Edge 145, Type (0, 0), BuildingBlock: AJUNOK_clean_linker_0, # of connection points: 2
#     Edge 146, Type (0, 0), BuildingBlock: AJUNOK_clean_linker_0, # of connection points: 2
#     Edge 147, Type (0, 0), BuildingBlock: AJUNOK_clean_linker_0, # of connection points: 2
#     Edge 148, Type (0, 0), BuildingBlock: AJUNOK_clean_linker_0, # of connection points: 2
#     Edge 149, Type (0, 0), BuildingBlock: AJUNOK_clean_linker_0, # of connection points: 2
#     Edge 150, Type (0, 0), BuildingBlock: AJUNOK_clean_linker_0, # of connection points: 2
#     Edge 151, Type (0, 0), BuildingBlock: AJUNOK_clean_linker_0, # of connection points: 2
#     Edge 152, Type (0, 0), BuildingBlock: AJUNOK_clean_linker_0, # of connection points: 2
#     Edge 153, Type (0, 0), BuildingBlock: AJUNOK_clean_linker_0, # of connection points: 2
#     Edge 154, Type (0, 0), BuildingBlock: AJUNOK_clean_linker_0, # of connection points: 2
#     Edge 155, Type (0, 0), BuildingBlock: AJUNOK_clean_linker_0, # of connection points: 2
#     Edge 156, Type (0, 0), BuildingBlock: AJUNOK_clean_linker_0, # of connection points: 2
#     Edge 157, Type (0, 0), BuildingBlock: AJUNOK_clean_linker_0, # of connection points: 2
#     Edge 158, Type (0, 0), BuildingBlock: AJUNOK_clean_linker_0, # of connection points: 2
#     Edge 159, Type (0, 0), BuildingBlock: AJUNOK_clean_linker_0, # of connection points: 2
#     Edge 160, Type (0, 0), BuildingBlock: AJUNOK_clean_linker_0, # of connection points: 2
#     Edge 161, Type (0, 0), BuildingBlock: AJUNOK_clean_linker_0, # of connection points: 2
#     Edge 162, Type (0, 0), BuildingBlock: AJUNOK_clean_linker_0, # of connection points: 2
#     Edge 163, Type (0, 0), BuildingBlock: AJUNOK_clean_linker_0, # of connection points: 2
#     Edge 164, Type (0, 0), BuildingBlock: AJUNOK_clean_linker_0, # of connection points: 2
#     Edge 165, Type (0, 0), BuildingBlock: AJUNOK_clean_linker_0, # of connection points: 2
#     Edge 166, Type (0, 0), BuildingBlock: AJUNOK_clean_linker_0, # of connection points: 2
#     Edge 167, Type (0, 0), BuildingBlock: AJUNOK_clean_linker_0, # of connection points: 2
# Relax obj value: 0.911
# Max RMSD: 0.271
# Mean RMSD: 0.271
data_MOF--net-srs-g--node1-XOMCOT_clean_sbu_0--edge1-AJUNOK_clean_linker_0
_symmetry_space_group_name_H-M    P1
_symmetry_Int_Tables_number       1
_symmetry_cell_setting            triclinic
loop_
_symmetry_equiv_pos_as_xyz
'x, y, z'
_cell_length_a     68.589001
_cell_length_b     68.576871
_cell_length_c     68.598355
_cell_angle_alpha  90.082486
_cell_angle_beta   90.001216
_cell_angle_gamma 89.991334
loop_
_atom_site_label
_atom_site_type_symbol
_atom_site_fract_x
_atom_site_fract_y
_atom_site_fract_z
_atom_type_partial_charge
Co0 Co 0.04481 0.05326 0.17105 0.0
C1 C 0.07953 0.03511 0.18943 0.0
C2 C 0.05721 0.04059 0.21034 0.0
C3 C 0.07375 0.03492 0.22012 0.0
N4 N 0.06074 0.04065 0.19094 0.0
N5 N 0.08781 0.0317 0.2069 0.0
H6 H 0.08788 0.03584 0.17624 0.0
H7 H 0.0444 0.04644 0.21726 0.0
C8 C 0.03805 0.09452 0.18583 0.0
O9 O 0.02257 0.09634 0.17473 0.0
N10 N 0.02947 0.06636 0.15108 0.0
C11 C 0.01099 0.06333 0.14517 0.0
C12 C 0.00686 0.07618 0.13011 0.0
C13 C 0.03636 0.08061 0.13932 0.0
N14 N 0.02291 0.08706 0.12649 0.0
C15 C 0.02009 0.02388 0.18658 0.0
C16 C 0.00361 0.04689 0.21522 0.0
C17 C 0.00491 0.02674 0.21836 0.0
C18 C 0.01192 0.01508 0.20313 0.0
C19 C 0.01172 0.0551 0.1983 0.0
N20 N 0.02169 0.04374 0.18523 0.0
H21 H 0.02765 0.01465 0.17631 0.0
H22 H 0.01177 0.07066 0.19722 0.0
H23 H 1.00113 0.05274 0.15142 0.0
H24 H 0.05098 0.08643 0.14039 0.0
O25 O 0.04864 0.03159 0.15285 0.0
O26 O 0.06778 0.05743 0.15507 0.0
O27 O 0.04694 0.07813 0.18705 0.0
C28 C 0.06384 0.041 0.14648 0.0
H29 H 0.076 0.03574 0.23573 0.0
H30 H 0.99295 0.07771 0.12284 0.0
H31 H 0.99798 0.0564 0.22652 0.0
H32 H 0.01311 0.99943 0.20492 0.0
Co33 Co 0.19817 0.79067 0.417 0.0
C34 C 0.21831 0.82406 0.43575 0.0
C35 C 0.20838 0.80327 0.45663 0.0
C36 C 0.21355 0.81995 0.46635 0.0
N37 N 0.21097 0.80587 0.43728 0.0
N38 N 0.2192 0.83325 0.45313 0.0
H39 H 0.22116 0.83129 0.4221 0.0
H40 H 0.20066 0.79133 0.46326 0.0
C41 C 0.15797 0.78171 0.43382 0.0
O42 O 0.1558 0.76621 0.42277 0.0
N43 N 0.18493 0.77604 0.39673 0.0
C44 C 0.19216 0.76181 0.38529 0.0
C45 C 0.18039 0.76005 0.36896 0.0
C46 C 0.16909 0.78276 0.38716 0.0
N47 N 0.16587 0.77334 0.37015 0.0
C48 C 0.22831 0.76394 0.42657 0.0
C49 C 0.21102 0.75131 0.4606 0.0
C50 C 0.23147 0.75188 0.45968 0.0
C51 C 0.23986 0.75611 0.44148 0.0
C52 C 0.19993 0.75851 0.445 0.0
N53 N 0.20885 0.76713 0.42937 0.0
H54 H 0.23554 0.76957 0.4138 0.0
H55 H 0.1845 0.7596 0.44718 0.0
H56 H 0.20589 0.75445 0.38772 0.0
H57 H 0.16071 0.79516 0.39217 0.0
O58 O 0.219 0.79656 0.39845 0.0
O59 O 0.19239 0.81417 0.40253 0.0
O60 O 0.17395 0.79128 0.43376 0.0
C61 C 0.20862 0.81155 0.39313 0.0
H62 H 0.21062 0.82297 0.48157 0.0
H63 H 0.18334 0.75082 0.3565 0.0
H64 H 0.20359 0.74743 0.47396 0.0
H65 H 0.25546 0.75517 0.4393 0.0
Co66 Co 0.46165 0.95542 0.66452 0.0
C67 C 0.42612 0.97183 0.68266 0.0
C68 C 0.44888 0.96728 0.70343 0.0
C69 C 0.43197 0.97101 0.7134 0.0
N70 N 0.44527 0.9677 0.68407 0.0
N71 N 0.41761 0.97353 0.7003 0.0
H72 H 0.41794 0.9714 0.66922 0.0
H73 H 0.4622 0.96214 0.71003 0.0
C74 C 0.47218 0.91608 0.68252 0.0
O75 O 0.48805 0.91455 0.6719 0.0
N76 N 0.47712 0.942 0.64502 0.0
C77 C 0.49047 0.94889 0.63236 0.0
C78 C 0.49192 0.93589 0.61682 0.0
C79 C 0.47061 0.92528 0.63691 0.0
N80 N 0.4791 0.92123 0.61971 0.0
C81 C 0.4824 0.98761 0.67909 0.0
C82 C 0.50432 0.96778 0.70619 0.0
C83 C 0.49879 0.98713 0.71056 0.0
C84 C 0.48898 0.99737 0.69576 0.0
C85 C 0.49653 0.95828 0.68972 0.0
N86 N 0.48407 0.96782 0.67744 0.0
H87 H 0.47297 0.99554 0.66931 0.0
H88 H 0.49943 0.94304 0.68799 0.0
H89 H 0.49732 0.96306 0.63341 0.0
H90 H 0.45879 0.91682 0.64305 0.0
O91 O 0.45582 0.97569 0.64544 0.0
O92 O 0.4388 0.94868 0.64916 0.0
O93 O 0.46181 0.93159 0.68199 0.0
C94 C 0.44132 0.96492 0.63968 0.0
H95 H 0.42991 0.96924 0.72895 0.0
H96 H 0.5005 0.93791 0.60373 0.0
H97 H 0.51357 0.95952 0.7159 0.0
H98 H 0.4845 0.01237 0.69768 0.0
Co99 Co 0.30134 0.20294 0.92108 0.0
C100 C 0.28084 0.17163 0.944 0.0
C101 C 0.29237 0.19452 0.96177 0.0
C102 C 0.28476 0.18061 0.97384 0.0
N103 N 0.28994 0.18904 0.94299 0.0
N104 N 0.2775 0.16624 0.9627 0.0
H105 H 0.2784 0.16219 0.93159 0.0
H106 H 0.3006 0.20702 0.96658 0.0
C107 C 0.34197 0.21448 0.93544 0.0
O108 O 0.34345 0.22846 0.92248 0.0
N109 N 0.31339 0.2169 0.89958 0.0
C110 C 0.30957 0.23481 0.8925 0.0
C111 C 0.3229 0.2389 0.87789 0.0
C112 C 0.32858 0.21022 0.88892 0.0
N113 N 0.33503 0.2235 0.8759 0.0
C114 C 0.27008 0.22666 0.93393 0.0
C115 C 0.29166 0.2475 0.96078 0.0
C116 C 0.27176 0.24453 0.96435 0.0
C117 C 0.26068 0.23528 0.94992 0.0
C118 C 0.30044 0.23887 0.9444 0.0
N119 N 0.28998 0.22673 0.93248 0.0
H120 H 0.26154 0.21738 0.92451 0.0
H121 H 0.31593 0.2402 0.94297 0.0
H122 H 0.29825 0.24442 0.89782 0.0
H123 H 0.33509 0.19603 0.89106 0.0
O124 O 0.2802 0.19524 0.90344 0.0
O125 O 0.30727 0.17856 0.90776 0.0
O126 O 0.32619 0.20463 0.93709 0.0
C127 C 0.29086 0.18032 0.89844 0.0
H128 H 0.28619 0.18011 0.98956 0.0
H129 H 0.32396 0.2524 0.8698 0.0
H130 H 0.30068 0.25485 0.97147 0.0
H131 H 0.24525 0.23273 0.9521 0.0
Co132 Co 0.04744 0.95641 0.33773 0.0
C133 C 0.08199 0.97356 0.31839 0.0
C134 C 0.05847 0.96938 0.29848 0.0
C135 C 0.07503 0.97313 0.28792 0.0
N136 N 0.06281 0.96934 0.31772 0.0
N137 N 0.08983 0.97541 0.3005 0.0
H138 H 0.09083 0.9725 0.33131 0.0
H139 H 0.04504 0.96423 0.29219 0.0
C140 C 0.03718 0.91703 0.31981 0.0
O141 O 0.02254 0.91446 0.33187 0.0
N142 N 0.03247 0.943 0.35767 0.0
C143 C 0.0166 0.94917 0.36745 0.0
C144 C 0.01333 0.93665 0.38295 0.0
C145 C 0.03872 0.9271 0.3675 0.0
N146 N 0.0273 0.92272 0.38292 0.0
C147 C 0.02382 0.98856 0.32671 0.0
C148 C 0.00471 0.96942 0.29687 0.0
C149 C 0.00712 0.98975 0.29541 0.0
C150 C 0.01532 0.99935 0.31159 0.0
C151 C 0.01292 0.95922 0.31263 0.0
N152 N 0.02424 0.96865 0.32609 0.0
H153 H 0.03228 0.9963 0.3375 0.0
H154 H 0.01203 0.94362 0.31235 0.0
H155 H 0.00863 0.96239 0.36423 0.0
H156 H 0.05169 0.91904 0.36351 0.0
O157 O 0.05457 0.9761 0.35724 0.0
O158 O 0.07095 0.949 0.35146 0.0
O159 O 0.04668 0.93306 0.31972 0.0
C160 C 0.06935 0.96496 0.36155 0.0
H161 H 0.07663 0.97129 0.27232 0.0
H162 H 1.00219 0.93842 0.39398 0.0
H163 H 0.99843 0.96104 0.28509 0.0
H164 H 0.01679 0.01507 0.31178 0.0
Co165 Co 0.30025 0.80016 0.57802 0.0
C166 C 0.27907 0.83361 0.55996 0.0
C167 C 0.28493 0.81081 0.53958 0.0
C168 C 0.27796 0.82659 0.52946 0.0
N169 N 0.28562 0.81509 0.55879 0.0
N170 N 0.2744 0.84099 0.5423 0.0
H171 H 0.28005 0.84247 0.57296 0.0
H172 H 0.29118 0.79797 0.53304 0.0
C173 C 0.3396 0.79342 0.55881 0.0
O174 O 0.34383 0.77937 0.57108 0.0
N175 N 0.3155 0.78559 0.59717 0.0
C176 C 0.3136 0.76691 0.6029 0.0
C177 C 0.32762 0.76298 0.61687 0.0
C178 C 0.3304 0.79279 0.60803 0.0
N179 N 0.33818 0.77931 0.62017 0.0
C180 C 0.26984 0.77522 0.56489 0.0
C181 C 0.29202 0.75531 0.5378 0.0
C182 C 0.27188 0.7569 0.53472 0.0
C183 C 0.2606 0.76569 0.54931 0.0
C184 C 0.30065 0.76489 0.55369 0.0
N185 N 0.28973 0.77641 0.5658 0.0
H186 H 0.26102 0.78405 0.57451 0.0
H187 H 0.3162 0.76442 0.55486 0.0
H188 H 0.30297 0.75674 0.59724 0.0
H189 H 0.33561 0.80763 0.6069 0.0
O190 O 0.28046 0.8046 0.59799 0.0
O191 O 0.30576 0.82378 0.59247 0.0
O192 O 0.323 0.80182 0.55933 0.0
C193 C 0.29025 0.82018 0.60274 0.0
H194 H 0.27775 0.82815 0.51375 0.0
H195 H 0.33009 0.74895 0.62362 0.0
H196 H 0.30122 0.7482 0.5271 0.0
H197 H 0.24496 0.76713 0.54757 0.0
Co198 Co 0.45509 0.06163 0.83285 0.0
C199 C 0.4289 0.04161 0.80358 0.0
C200 C 0.42976 0.0727 0.80099 0.0
C201 C 0.41766 0.06561 0.78696 0.0
N202 N 0.43722 0.05778 0.81129 0.0
N203 N 0.41692 0.04599 0.78842 0.0
H204 H 0.43053 0.02719 0.80968 0.0
H205 H 0.43174 0.08799 0.80422 0.0
C206 C 0.47595 0.09997 0.82025 0.0
O207 O 0.49106 0.09855 0.83193 0.0
N208 N 0.47215 0.06733 0.85472 0.0
C209 C 0.47896 0.05502 0.86846 0.0
C210 C 0.48081 0.06515 0.88596 0.0
C211 C 0.47007 0.08453 0.86413 0.0
N212 N 0.47477 0.08367 0.88317 0.0
C213 C 0.47088 0.02697 0.81627 0.0
C214 C 0.49759 0.04397 0.79161 0.0
C215 C 0.49159 0.02475 0.78747 0.0
C216 C 0.4784 0.01622 0.80063 0.0
C217 C 0.48893 0.05454 0.80694 0.0
N218 N 0.47479 0.04639 0.8184 0.0
H219 H 0.46016 0.02 0.82538 0.0
H220 H 0.49322 0.06944 0.80875 0.0
H221 H 0.48009 0.03939 0.86665 0.0
H222 H 0.46299 0.09695 0.85755 0.0
O223 O 0.44313 0.04056 0.84763 0.0
O224 O 0.4335 0.07124 0.84892 0.0
O225 O 0.46274 0.08686 0.81967 0.0
C226 C 0.43144 0.05342 0.8551 0.0
H227 H 0.40838 0.07461 0.77795 0.0
H228 H 0.4843 0.05885 0.9 0.0
H229 H 0.50826 0.05121 0.78253 0.0
H230 H 0.47253 1.00179 0.79828 0.0
Co231 Co 0.20197 0.20232 0.08336 0.0
C232 C 0.22016 0.16971 0.06037 0.0
C233 C 0.21175 0.19367 0.04241 0.0
C234 C 0.21977 0.17963 0.03067 0.0
N235 N 0.21222 0.18771 0.06117 0.0
N236 N 0.22473 0.16434 0.04187 0.0
H237 H 0.2212 0.16006 0.07278 0.0
H238 H 0.20492 0.20675 0.03714 0.0
C239 C 0.16156 0.21598 0.07149 0.0
O240 O 0.16258 0.23074 0.08364 0.0
N241 N 0.19166 0.21695 0.10544 0.0
C242 C 0.19757 0.23418 0.11283 0.0
C243 C 0.18642 0.23842 0.12912 0.0
C244 C 0.17729 0.21089 0.1175 0.0
N245 N 0.1737 0.22366 0.1321 0.0
C246 C 0.23404 0.22617 0.07251 0.0
C247 C 0.21486 0.24568 0.04302 0.0
C248 C 0.23518 0.24325 0.04149 0.0
C249 C 0.2448 0.23494 0.05756 0.0
C250 C 0.20467 0.23721 0.05865 0.0
N251 N 0.21414 0.22563 0.07185 0.0
H252 H 0.24185 0.21775 0.08323 0.0
H253 H 0.18905 0.23779 0.05814 0.0
H254 H 0.2091 0.2431 0.10685 0.0
H255 H 0.16952 0.19732 0.11552 0.0
O256 O 0.22316 0.19322 0.10034 0.0
O257 O 0.19489 0.17843 0.09672 0.0
O258 O 0.17654 0.20523 0.06837 0.0
C259 C 0.21155 0.17917 0.10569 0.0
H260 H 0.22067 0.18023 0.01494 0.0
H261 H 0.18742 0.25159 0.13774 0.0
H262 H 0.20648 0.25203 0.03128 0.0
H263 H 0.26053 0.23355 0.05774 0.0
Co264 Co 0.16026 0.05296 0.06046 0.0
C265 C 0.19044 0.07901 0.04254 0.0
C266 C 0.17694 0.09012 0.06862 0.0
C267 C 0.19192 0.1022 0.06377 0.0
N268 N 0.17609 0.07547 0.05557 0.0
N269 N 0.20058 0.09506 0.04767 0.0
H270 H 0.19378 0.06989 0.03009 0.0
H271 H 0.1678 0.09139 0.08141 0.0
C272 C 0.17906 0.03782 0.09757 0.0
O273 O 0.17545 0.01954 0.09314 0.0
N274 N 0.14357 0.0313 0.06731 0.0
C275 C 0.13228 0.01989 0.05594 0.0
C276 C 0.11641 0.01357 0.06685 0.0
C277 C 0.13436 0.03178 0.08464 0.0
N278 N 0.11772 0.02137 0.08491 0.0
C279 C 0.17698 0.02893 0.03006 0.0
C280 C 0.21454 0.02899 0.04483 0.0
C281 C 0.2117 0.02256 0.02573 0.0
C282 C 0.19252 0.02212 0.01848 0.0
C283 C 0.19883 0.03604 0.05564 0.0
N284 N 0.18026 0.03636 0.04826 0.0
H285 H 0.16258 0.02966 0.02375 0.0
H286 H 0.20237 0.04318 0.06905 0.0
H287 H 0.13413 0.01799 0.04041 0.0
H288 H 0.13829 0.04201 0.09599 0.0
O289 O 0.14406 0.05905 0.03787 0.0
O290 O 0.13912 0.07004 0.06779 0.0
O291 O 0.17343 0.05164 0.08655 0.0
C292 C 0.13358 0.06961 0.0497 0.0
H293 H 0.19618 0.11534 0.07145 0.0
H294 H 0.10434 0.00501 0.06141 0.0
H295 H 0.22911 0.03032 0.0508 0.0
H296 H 0.18969 0.01749 0.00365 0.0
Co297 Co 0.21294 0.91902 0.30858 0.0
C298 C 0.17905 0.93908 0.29064 0.0
C299 C 0.19949 0.95906 0.30308 0.0
C300 C 0.1829 0.96914 0.29853 0.0
N301 N 0.19709 0.94009 0.29838 0.0
N302 N 0.16984 0.95648 0.29118 0.0
H303 H 0.17216 0.9257 0.28607 0.0
H304 H 0.21135 0.96498 0.31151 0.0
C305 C 0.22404 0.9332 0.34927 0.0
O306 O 0.24093 0.92419 0.34926 0.0
N307 N 0.22838 0.89805 0.31949 0.0
C308 C 0.2415 0.8865 0.31053 0.0
C309 C 0.2437 0.8696 0.3214 0.0
C310 C 0.2228 0.88803 0.33545 0.0
N311 N 0.23176 0.87059 0.33705 0.0
C312 C 0.2386 0.93054 0.27808 0.0
C313 C 0.2526 0.96337 0.29669 0.0
C314 C 0.25273 0.96303 0.27623 0.0
C315 C 0.24702 0.94558 0.2671 0.0
C316 C 0.2446 0.94776 0.30715 0.0
N317 N 0.23583 0.93249 0.29771 0.0
H318 H 0.23242 0.91832 0.27035 0.0
H319 H 0.24317 0.94973 0.32255 0.0
H320 H 0.24762 0.88928 0.29627 0.0
H321 H 0.21122 0.89291 0.34495 0.0
O322 O 0.20594 0.90194 0.28665 0.0
O323 O 0.18991 0.90391 0.31443 0.0
O324 O 0.21315 0.93345 0.3342 0.0
C325 C 0.19174 0.89557 0.29754 0.0
H326 H 0.17983 0.98408 0.30264 0.0
H327 H 0.25209 0.85695 0.3171 0.0
H328 H 0.25666 0.97635 0.3047 0.0
H329 H 0.24751 0.94414 0.25138 0.0
Co330 Co 0.3406 0.95916 0.55834 0.0
C331 C 0.31077 0.92898 0.54399 0.0
C332 C 0.32173 0.92529 0.57304 0.0
C333 C 0.30783 0.91149 0.56992 0.0
N334 N 0.32334 0.93675 0.55713 0.0
N335 N 0.30082 0.91391 0.55181 0.0
H336 H 0.30889 0.93367 0.52914 0.0
H337 H 0.33001 0.92716 0.58633 0.0
C338 C 0.30903 0.96543 0.58729 0.0
O339 O 0.29687 0.96275 0.57272 0.0
N340 N 0.35882 0.9804 0.56215 0.0
C341 C 0.37299 0.98589 0.54965 0.0
C342 C 0.38981 0.98983 0.56015 0.0
C343 C 0.36707 0.98208 0.57996 0.0
N344 N 0.38612 0.98689 0.57924 0.0
C345 C 0.31821 0.97015 0.52492 0.0
C346 C 0.29835 1.00098 0.54143 0.0
C347 C 0.29104 0.99285 0.52399 0.0
C348 C 0.30207 0.97791 0.51529 0.0
C349 C 0.31442 0.99231 0.55084 0.0
N350 N 0.32274 0.97577 0.54342 0.0
H351 H 0.32623 0.95851 0.51798 0.0
H352 H 0.31927 0.9981 0.56468 0.0
H353 H 0.37231 0.9839 0.53402 0.0
H354 H 0.36036 0.97624 0.59294 0.0
O355 O 0.35565 0.94911 0.53669 0.0
O356 O 0.36103 0.9416 0.56761 0.0
O357 O 0.32741 0.96601 0.58395 0.0
C358 C 0.36586 0.93949 0.54935 0.0
H359 H 0.30365 0.90001 0.57992 0.0
H360 H 0.4042 0.99179 0.55398 0.0
H361 H 0.29146 0.0135 0.54811 0.0
H362 H 0.29773 0.97133 0.50161 0.0
Co363 Co 0.30193 0.08465 0.80502 0.0
C364 C 0.33066 0.05491 0.78674 0.0
C365 C 0.3345 0.06245 0.8168 0.0
C366 C 0.34772 0.04849 0.81227 0.0
N367 N 0.32326 0.06632 0.80116 0.0
N368 N 0.34547 0.04358 0.7934 0.0
H369 H 0.32596 0.05502 0.77178 0.0
H370 H 0.33298 0.06936 0.83091 0.0
C371 C 0.29408 0.04986 0.82913 0.0
O372 O 0.29704 0.03941 0.81333 0.0
N373 N 0.2821 0.10354 0.81219 0.0
C374 C 0.27541 0.11869 0.80163 0.0
C375 C 0.27092 0.13394 0.81419 0.0
C376 C 0.28127 0.10981 0.83092 0.0
N377 N 0.27497 0.12841 0.83266 0.0
C378 C 0.28909 0.06547 0.77011 0.0
C379 C 0.25769 0.0463 0.78632 0.0
C380 C 0.26568 0.03888 0.76888 0.0
C381 C 0.28078 0.04969 0.76019 0.0
C382 C 0.26689 0.06191 0.79598 0.0
N383 N 0.28377 0.06967 0.78877 0.0
H384 H 0.30098 0.07329 0.7634 0.0
H385 H 0.26146 0.06651 0.81005 0.0
H386 H 0.27631 0.11966 0.78591 0.0
H387 H 0.28784 0.10184 0.84282 0.0
O388 O 0.31218 0.10179 0.78517 0.0
O389 O 0.32114 0.10262 0.81605 0.0
O390 O 0.29461 0.06855 0.8285 0.0
C391 C 0.32307 0.10965 0.7985 0.0
H392 H 0.35908 0.0433 0.82192 0.0
H393 H 0.2673 0.14865 0.80979 0.0
H394 H 0.24505 0.03963 0.79296 0.0
H395 H 0.28712 0.04533 0.74641 0.0
Co396 Co 0.16925 0.95769 0.4565 0.0
C397 C 0.18711 0.92095 0.47015 0.0
C398 C 0.20743 0.94452 0.47074 0.0
C399 C 0.21761 0.92745 0.47307 0.0
N400 N 0.18818 0.94054 0.46887 0.0
N401 N 0.20482 0.91268 0.47227 0.0
H402 H 0.17411 0.91256 0.46718 0.0
H403 H 0.21413 0.95848 0.46802 0.0
C404 C 0.18834 0.96742 0.4175 0.0
O405 O 0.17754 0.98295 0.41469 0.0
N406 N 0.15047 0.97418 0.44315 0.0
C407 C 0.14236 0.9913 0.44837 0.0
C408 C 0.1277 0.99574 0.4351 0.0
C409 C 0.14052 0.96842 0.42715 0.0
N410 N 0.12673 0.98133 0.42167 0.0
C411 C 0.18351 0.97846 0.48909 0.0
C412 C 0.20976 1.0016 0.46934 0.0
C413 C 0.21348 0.99738 0.4891 0.0
C414 C 0.19927 0.98657 0.49916 0.0
C415 C 0.1941 0.99258 0.45966 0.0
N416 N 0.18226 0.97977 0.46926 0.0
H417 H 0.17415 0.96849 0.49687 0.0
H418 H 0.19271 0.99477 0.44426 0.0
H419 H 0.14631 0.99962 0.46117 0.0
H420 H 0.14291 0.95454 0.42008 0.0
O421 O 0.14964 0.95184 0.47627 0.0
O422 O 0.15367 0.93546 0.44881 0.0
O423 O 0.18725 0.95753 0.43321 0.0
C424 C 0.14396 0.9377 0.46493 0.0
H425 H 0.23332 0.92587 0.47264 0.0
H426 H 0.11832 0.00843 0.43552 0.0
H427 H 0.21973 0.01054 0.461 0.0
H428 H 0.20122 0.98238 0.51421 0.0
Co429 Co 0.29536 0.91814 0.69933 0.0
C430 C 0.33088 0.93746 0.71463 0.0
C431 C 0.30699 0.95728 0.71207 0.0
C432 C 0.32352 0.96788 0.71592 0.0
N433 N 0.31157 0.93811 0.71121 0.0
N434 N 0.33851 0.95536 0.71722 0.0
H435 H 0.33976 0.92459 0.71314 0.0
H436 H 0.29314 0.96346 0.70793 0.0
C437 C 0.28206 0.93632 0.66127 0.0
O438 O 0.26726 0.92427 0.65971 0.0
N439 N 0.27956 0.8983 0.68666 0.0
C440 C 0.26288 0.8897 0.69244 0.0
C441 C 0.25855 0.87473 0.67949 0.0
C442 C 0.28517 0.88836 0.67059 0.0
N443 N 0.27271 0.87391 0.66579 0.0
C444 C 0.27598 0.93055 0.73337 0.0
C445 C 0.25196 0.95722 0.71527 0.0
C446 C 0.25783 0.96099 0.73458 0.0
C447 C 0.26896 0.94655 0.74395 0.0
C448 C 0.25983 0.94126 0.70506 0.0
N449 N 0.27328 0.92936 0.71367 0.0
H450 H 0.28644 0.92111 0.74039 0.0
H451 H 0.25651 0.9399 0.68984 0.0
H452 H 0.25466 0.8937 0.70528 0.0
H453 H 0.29845 0.89147 0.66268 0.0
O454 O 0.30402 0.89845 0.71802 0.0
O455 O 0.31833 0.90486 0.68987 0.0
O456 O 0.29259 0.93652 0.67659 0.0
C457 C 0.31794 0.89448 0.70569 0.0
H458 H 0.32484 0.9836 0.7152 0.0
H459 H 0.24593 0.86531 0.68018 0.0
H460 H 0.24271 0.96741 0.70755 0.0
H461 H 0.27426 0.94851 0.75866 0.0
Co462 Co 0.3295 0.05168 0.94031 0.0
C463 C 0.29991 0.07699 0.95978 0.0
C464 C 0.29889 0.07803 0.92853 0.0
C465 C 0.2847 0.08995 0.93565 0.0
N466 N 0.30823 0.06962 0.94355 0.0
N467 N 0.28535 0.08955 0.9553 0.0
H468 H 0.30523 0.0743 0.97439 0.0
H469 H 0.30299 0.07676 0.91339 0.0
C470 C 0.31683 0.02873 0.90501 0.0
O471 O 0.32378 0.01242 0.91224 0.0
N472 N 0.35149 0.03455 0.93503 0.0
C473 C 0.36589 0.02922 0.94735 0.0
C474 C 0.38314 0.02736 0.93687 0.0
C475 C 0.36034 0.03564 0.91739 0.0
N476 N 0.37946 0.03136 0.91798 0.0
C477 C 0.31632 0.02857 0.97277 0.0
C478 C 0.28 0.02113 0.95705 0.0
C479 C 0.28202 0.02013 0.97727 0.0
C480 C 0.3008 0.02298 0.98508 0.0
C481 C 0.29539 0.02762 0.94557 0.0
N482 N 0.31328 0.03198 0.95336 0.0
H483 H 0.33016 0.0323 0.97931 0.0
H484 H 0.29154 0.03155 0.931 0.0
H485 H 0.36467 0.02931 0.96307 0.0
H486 H 0.35377 0.04263 0.90488 0.0
O487 O 0.34283 0.06246 0.96291 0.0
O488 O 0.34623 0.07311 0.93273 0.0
O489 O 0.31851 0.04487 0.91411 0.0
C490 C 0.35131 0.07447 0.95097 0.0
H491 H 0.27621 0.10004 0.92696 0.0
H492 H 0.39751 0.02497 0.94295 0.0
H493 H 0.26594 0.01884 0.95021 0.0
H494 H 0.3032 0.02254 1.00067 0.0
Co495 Co 0.21145 0.08099 0.20455 0.0
C496 C 0.17718 0.06144 0.22195 0.0
C497 C 0.19998 0.04129 0.21545 0.0
C498 C 0.18313 0.03091 0.21865 0.0
N499 N 0.19623 0.06058 0.21715 0.0
N500 N 0.1687 0.04368 0.22232 0.0
H501 H 0.16893 0.07478 0.22292 0.0
H502 H 0.21321 0.03516 0.20958 0.0
C503 C 0.22165 0.06467 0.16494 0.0
O504 O 0.23722 0.07577 0.16379 0.0
N505 N 0.2258 0.10138 0.19096 0.0
C506 C 0.24155 0.11185 0.19625 0.0
C507 C 0.24384 0.12712 0.1831 0.0
C508 C 0.21871 0.11052 0.17499 0.0
N509 N 0.22924 0.12633 0.16987 0.0
C510 C 0.23518 0.06864 0.236 0.0
C511 C 0.25499 0.04021 0.21551 0.0
C512 C 0.2526 0.03792 0.23564 0.0
C513 C 0.24382 0.0531 0.24609 0.0
C514 C 0.24634 0.0561 0.20602 0.0
N515 N 0.23486 0.06901 0.21604 0.0
H516 H 0.22636 0.07875 0.24422 0.0
H517 H 0.24728 0.05634 0.19051 0.0
H518 H 0.25023 0.10915 0.20913 0.0
H519 H 0.2059 0.10555 0.16725 0.0
O520 O 0.20511 0.09987 0.22494 0.0
O521 O 0.18784 0.09496 0.19819 0.0
O522 O 0.21171 0.06382 0.18064 0.0
C523 C 0.19012 0.10464 0.21432 0.0
H524 H 0.18116 0.01552 0.21574 0.0
H525 H 0.25485 0.1384 0.18376 0.0
H526 H 0.26198 0.02891 0.20695 0.0
H527 H 0.24173 0.05193 0.2617 0.0
Co528 Co 0.04739 0.17382 0.05022 0.0
C529 C 0.03279 0.1936 0.08566 0.0
C530 C 0.03826 0.21371 0.06257 0.0
C531 C 0.0358 0.22413 0.07946 0.0
N532 N 0.03671 0.19444 0.06645 0.0
N533 N 0.0329 0.21141 0.09401 0.0
H534 H 0.03263 0.1803 0.09406 0.0
H535 H 0.04357 0.21985 0.04914 0.0
C536 C 0.08808 0.18781 0.03917 0.0
O537 O 0.08874 0.17608 0.02404 0.0
N538 N 0.05846 0.15324 0.03427 0.0
C539 C 0.05172 0.14509 0.01767 0.0
C540 C 0.06229 0.1282 0.014 0.0
C541 C 0.07274 0.14121 0.04045 0.0
N542 N 0.07527 0.12583 0.02856 0.0
C543 C 0.0153 0.18763 0.02838 0.0
C544 C 0.03547 0.21618 0.00844 0.0
C545 C 0.01538 0.21872 0.01154 0.0
C546 C 0.00515 0.20348 0.02051 0.0
C547 C 0.0451 0.19992 0.01644 0.0
N548 N 0.03521 0.18691 0.02788 0.0
H549 H 0.00726 0.17742 0.03721 0.0
H550 H 0.06069 0.19929 0.01518 0.0
H551 H 0.03937 0.15038 0.00942 0.0
H552 H 0.0808 0.14332 0.05386 0.0
O553 O 0.02653 0.15571 0.05763 0.0
O554 O 0.05448 0.15895 0.07319 0.0
O555 O 0.0723 0.1897 0.04896 0.0
C556 C 0.0379 0.14994 0.07171 0.0
H557 H 0.03892 0.2395 0.08136 0.0
H558 H 0.05985 0.11792 1.00225 0.0
H559 H 0.04392 0.22737 1.0012 0.0
H560 H 0.98965 0.20468 0.0233 0.0
Co561 Co 0.55218 0.33664 0.96062 0.0
C562 C 0.53172 0.32139 0.92564 0.0
C563 C 0.54194 0.29858 0.94427 0.0
C564 C 0.53624 0.29049 0.92686 0.0
N565 N 0.53969 0.31808 0.94328 0.0
N566 N 0.53036 0.30495 0.91494 0.0
H567 H 0.52848 0.33566 0.91995 0.0
H568 H 0.54909 0.29095 0.95606 0.0
C569 C 0.59167 0.31835 0.97019 0.0
O570 O 0.59394 0.32935 0.9857 0.0
N571 N 0.56525 0.3554 0.9774 0.0
C572 C 0.55835 0.36527 0.99295 0.0
C573 C 0.57033 0.38129 0.99631 0.0
C574 C 0.58105 0.3656 0.97153 0.0
N575 N 0.5844 0.38154 0.98256 0.0
C576 C 0.51971 0.32111 0.98025 0.0
C577 C 0.53944 0.29453 0.00301 0.0
C578 C 0.51971 0.29072 0.99861 0.0
C579 C 0.50979 0.3049 0.98762 0.0
C580 C 0.54907 0.31057 0.99454 0.0
N581 N 0.53944 0.32287 0.98219 0.0
H582 H 0.51196 0.33062 0.9704 0.0
H583 H 0.56446 0.31209 0.99694 0.0
H584 H 0.54482 0.362 1.00035 0.0
H585 H 0.58945 0.36187 0.9587 0.0
O586 O 0.53241 0.35637 0.95493 0.0
O587 O 0.55984 0.35238 0.93855 0.0
O588 O 0.57575 0.31879 0.96047 0.0
C589 C 0.54379 0.36219 0.94087 0.0
H590 H 0.53866 0.2755 0.92249 0.0
H591 H 0.568 0.39262 0.00707 0.0
H592 H 0.54778 0.28458 0.01196 0.0
H593 H 0.49489 0.30285 0.98295 0.0
Co594 Co 0.92626 0.29992 0.20122 0.0
C595 C 0.94304 0.28028 0.16617 0.0
C596 C 0.96446 0.28632 0.18793 0.0
C597 C 0.97389 0.27979 0.17151 0.0
N598 N 0.94506 0.2866 0.18466 0.0
N599 N 0.96039 0.27614 0.15775 0.0
H600 H 0.92954 0.28103 0.15808 0.0
H601 H 0.97145 0.29246 0.2006 0.0
C602 C 0.94561 0.33894 0.20984 0.0
O603 O 0.93383 0.34265 0.22446 0.0
N604 N 0.9075 0.31393 0.21748 0.0
C605 C 0.90188 0.3104 0.23595 0.0
C606 C 0.88741 0.32358 0.24098 0.0
C607 C 0.89616 0.329 0.21153 0.0
N608 N 0.88371 0.33524 0.22553 0.0
C609 C 0.94109 0.26801 0.22325 0.0
C610 C 0.96752 0.28945 0.2448 0.0
C611 C 0.97108 0.26954 0.24193 0.0
C612 C 0.95698 0.25856 0.23203 0.0
C613 C 0.95139 0.29831 0.23585 0.0
N614 N 0.93947 0.28789 0.22369 0.0
H615 H 0.93169 0.2596 0.21379 0.0
H616 H 0.94974 0.31375 0.23746 0.0
H617 H 0.90778 0.29905 0.24515 0.0
H618 H 0.89693 0.33526 0.19709 0.0
O619 O 0.90639 0.2802 0.19579 0.0
O620 O 0.91094 0.30712 0.17868 0.0
O621 O 0.94463 0.32286 0.20051 0.0
C622 C 0.90094 0.29126 0.18132 0.0
H623 H 0.98949 0.27994 0.16912 0.0
H624 H 0.88044 0.32458 0.25509 0.0
H625 H 0.97798 0.2984 0.25256 0.0
H626 H 0.95922 0.24314 0.22944 0.0
Co627 Co 0.95493 0.66886 0.46331 0.0
C628 C 0.97068 0.68545 0.42674 0.0
C629 C 0.97038 0.7063 0.44991 0.0
C630 C 0.97399 0.716 0.43282 0.0
N631 N 0.96839 0.68703 0.44622 0.0
N632 N 0.97386 0.70287 0.41825 0.0
H633 H 0.9679 0.67232 0.41848 0.0
H634 H 0.96698 0.71328 0.46363 0.0
C635 C 0.91801 0.69137 0.47402 0.0
O636 O 0.91462 0.68042 0.48933 0.0
N637 N 0.94016 0.65078 0.47938 0.0
C638 C 0.94661 0.6379 0.49272 0.0
C639 C 0.93268 0.62335 0.4949 0.0
C640 C 0.92265 0.64376 0.47362 0.0
N641 N 0.91773 0.62694 0.48257 0.0
C642 C 0.98831 0.68309 0.483 0.0
C643 C 0.96884 0.70682 0.5089 0.0
C644 C 0.98756 0.71266 0.5027 0.0
C645 C 0.99783 0.69938 0.49083 0.0
C646 C 0.95954 0.69093 0.49986 0.0
N647 N 0.9687 0.68068 0.48547 0.0
H648 H 0.99591 0.67448 0.47219 0.0
H649 H 0.94475 0.68778 0.50373 0.0
H650 H 0.96103 0.63808 0.49908 0.0
H651 H 0.91415 0.65054 0.46223 0.0
O652 O 0.97323 0.64794 0.45712 0.0
O653 O 0.94607 0.65423 0.441 0.0
O654 O 0.93332 0.68881 0.46378 0.0
C655 C 0.96145 0.64329 0.44296 0.0
H656 H 0.97403 0.73167 0.43096 0.0
H657 H 0.93416 0.61038 0.50375 0.0
H658 H 0.96087 0.71497 0.51979 0.0
H659 H 0.01246 0.7024 0.48579 0.0
Co660 Co 0.09166 0.20137 0.21394 0.0
C661 C 0.07233 0.22201 0.18116 0.0
C662 C 0.05205 0.21281 0.20291 0.0
C663 C 0.04174 0.2187 0.18687 0.0
N664 N 0.07134 0.21459 0.19931 0.0
N665 N 0.05454 0.22391 0.17301 0.0
H666 H 0.08568 0.22377 0.17303 0.0
H667 H 0.04576 0.20526 0.21513 0.0
C668 C 0.07474 0.16135 0.22317 0.0
O669 O 0.08681 0.1586 0.23776 0.0
N670 N 0.11179 0.18775 0.22834 0.0
C671 C 0.11929 0.19112 0.2462 0.0
C672 C 0.13392 0.17757 0.24963 0.0
C673 C 0.12211 0.17266 0.22113 0.0
N674 N 0.13541 0.16584 0.23387 0.0
C675 C 0.08146 0.23287 0.23838 0.0
C676 C 0.04954 0.21415 0.25424 0.0
C677 C 0.04845 0.23431 0.25091 0.0
C678 C 0.06559 0.24385 0.24505 0.0
C679 C 0.06597 0.20373 0.24774 0.0
N680 N 0.08036 0.21301 0.2375 0.0
H681 H 0.09315 0.24046 0.23109 0.0
H682 H 0.06547 0.1881 0.24851 0.0
H683 H 0.11458 0.20256 0.25599 0.0
H684 H 0.11992 0.16678 0.20668 0.0
O685 O 0.11111 0.22112 0.20682 0.0
O686 O 0.10473 0.19445 0.18996 0.0
O687 O 0.074 0.17778 0.21443 0.0
C688 C 0.11514 0.21013 0.19181 0.0
H689 H 0.02628 0.21648 0.18456 0.0
H690 H 0.14262 0.17633 0.26273 0.0
H691 H 0.03698 0.20615 0.25949 0.0
H692 H 0.06591 0.25955 0.2434 0.0
Co693 Co 0.44419 0.83576 0.5462 0.0
C694 C 0.46258 0.80667 0.57246 0.0
C695 C 0.4314 0.80414 0.57142 0.0
C696 C 0.43844 0.79007 0.58356 0.0
N697 N 0.44648 0.81453 0.56438 0.0
N698 N 0.45804 0.79161 0.58436 0.0
H699 H 0.47712 0.81247 0.5705 0.0
H700 H 0.41615 0.80704 0.5688 0.0
C701 C 0.40747 0.82455 0.52391 0.0
O702 O 0.41408 0.83067 0.50704 0.0
N703 N 0.44053 0.85746 0.52852 0.0
C704 C 0.45407 0.87048 0.52263 0.0
C705 C 0.44522 0.88849 0.52025 0.0
C706 C 0.42375 0.86776 0.52929 0.0
N707 N 0.42615 0.88659 0.52454 0.0
C708 C 0.47557 0.82238 0.5214 0.0
C709 C 0.45971 0.78576 0.51547 0.0
C710 C 0.47941 0.78854 0.51094 0.0
C711 C 0.48718 0.80739 0.51346 0.0
C712 C 0.44872 0.80098 0.52331 0.0
N713 N 0.45668 0.81896 0.52674 0.0
H714 H 0.4823 0.8362 0.52479 0.0
H715 H 0.43449 0.79729 0.52871 0.0
H716 H 0.46962 0.86797 0.52278 0.0
H717 H 0.41072 0.86248 0.53644 0.0
O718 O 0.46697 0.8487 0.55744 0.0
O719 O 0.43658 0.85298 0.56712 0.0
O720 O 0.41756 0.82584 0.53943 0.0
C721 C 0.45481 0.85783 0.56886 0.0
H722 H 0.42955 0.78079 0.59272 0.0
H723 H 0.45255 0.90219 0.51747 0.0
H724 H 0.45314 0.77143 0.51473 0.0
H725 H 0.50239 0.81025 0.51036 0.0
Co726 Co 0.92159 0.70343 0.2944 0.0
C727 C 0.9375 0.71939 0.33103 0.0
C728 C 0.95801 0.7218 0.30781 0.0
C729 C 0.9677 0.72469 0.32504 0.0
N730 N 0.93895 0.71824 0.31141 0.0
N731 N 0.95484 0.72284 0.33969 0.0
H732 H 0.92451 0.71574 0.3391 0.0
H733 H 0.96527 0.71979 0.29408 0.0
C734 C 0.94319 0.66523 0.28816 0.0
O735 O 0.93295 0.66102 0.27253 0.0
N736 N 0.90427 0.68766 0.27827 0.0
C737 C 0.89762 0.69062 0.26005 0.0
C738 C 0.88382 0.67642 0.25582 0.0
C739 C 0.89432 0.67191 0.28482 0.0
N740 N 0.88167 0.66471 0.27154 0.0
C741 C 0.93304 0.73501 0.27002 0.0
C742 C 0.96496 0.71669 0.25367 0.0
C743 C 0.96498 0.73719 0.25467 0.0
C744 C 0.94788 0.74621 0.26152 0.0
C745 C 0.94953 0.70601 0.2619 0.0
N746 N 0.93485 0.71525 0.2718 0.0
H747 H 0.92133 0.74257 0.27733 0.0
H748 H 0.95086 0.69047 0.26205 0.0
H749 H 0.90214 0.70241 0.25062 0.0
H750 H 0.89604 0.66602 0.29934 0.0
O751 O 0.90054 0.7223 0.29822 0.0
O752 O 0.9057 0.69634 0.3165 0.0
O753 O 0.94103 0.68155 0.29684 0.0
C754 C 0.89515 0.71168 0.31299 0.0
H755 H 0.98339 0.72537 0.32662 0.0
H756 H 0.87607 0.67493 0.24217 0.0
H757 H 0.97755 0.70874 0.24849 0.0
H758 H 0.94665 0.76195 0.2619 0.0
Co759 Co 0.58886 0.30417 0.79369 0.0
C760 C 0.55714 0.30048 0.82234 0.0
C761 C 0.57302 0.27372 0.81987 0.0
C762 C 0.56024 0.27216 0.8352 0.0
N763 N 0.57123 0.29163 0.8119 0.0
N764 N 0.55056 0.28915 0.83696 0.0
H765 H 0.5528 0.31548 0.82042 0.0
H766 H 0.58396 0.26305 0.81605 0.0
C767 C 0.56992 0.34368 0.78411 0.0
O768 O 0.57958 0.34606 0.76777 0.0
N769 N 0.60701 0.31698 0.77628 0.0
C770 C 0.61843 0.30872 0.76261 0.0
C771 C 0.63455 0.32056 0.75966 0.0
C772 C 0.61633 0.33355 0.78137 0.0
N773 N 0.63324 0.33618 0.77165 0.0
C774 C 0.57282 0.27184 0.77348 0.0
C775 C 0.54591 0.29213 0.75171 0.0
C776 C 0.54205 0.27237 0.75574 0.0
C777 C 0.55646 0.2621 0.76614 0.0
C778 C 0.56193 0.30152 0.76037 0.0
N779 N 0.57432 0.29164 0.77242 0.0
H780 H 0.58306 0.26366 0.78215 0.0
H781 H 0.56348 0.31685 0.75806 0.0
H782 H 0.61639 0.29417 0.75686 0.0
H783 H 0.61148 0.34267 0.79328 0.0
O784 O 0.60867 0.28429 0.79896 0.0
O785 O 0.60517 0.31184 0.81533 0.0
O786 O 0.57142 0.32806 0.79416 0.0
C787 C 0.61461 0.29558 0.81307 0.0
H788 H 0.55974 0.26029 0.84559 0.0
H789 H 0.6471 0.31684 0.75086 0.0
H790 H 0.53601 0.30071 0.74292 0.0
H791 H 0.55463 0.24703 0.77025 0.0
Co792 Co 0.54112 0.54929 0.66807 0.0
C793 C 0.57183 0.54283 0.69698 0.0
C794 C 0.56599 0.51638 0.68162 0.0
C795 C 0.58215 0.51359 0.69313 0.0
N796 N 0.55926 0.53472 0.68428 0.0
N797 N 0.58585 0.53033 0.70274 0.0
H798 H 0.57212 0.55815 0.70024 0.0
H799 H 0.56098 0.50627 0.67062 0.0
C800 C 0.53167 0.58678 0.69042 0.0
O801 O 0.51611 0.58982 0.67972 0.0
N802 N 0.52446 0.5646 0.65098 0.0
C803 C 0.50942 0.55886 0.63976 0.0
C804 C 0.50644 0.57278 0.62535 0.0
C805 C 0.53051 0.58162 0.64303 0.0
N806 N 0.51982 0.58715 0.62744 0.0
C807 C 0.52049 0.51671 0.68367 0.0
C808 C 0.49747 0.53717 0.70925 0.0
C809 C 0.50288 0.51805 0.71451 0.0
C810 C 0.51341 0.50742 0.70041 0.0
C811 C 0.50612 0.5462 0.69304 0.0
N812 N 0.51927 0.53646 0.6817 0.0
H813 H 0.52885 0.50829 0.6734 0.0
H814 H 0.50246 0.56105 0.69019 0.0
H815 H 0.50225 0.54486 0.64087 0.0
H816 H 0.54323 0.58937 0.64821 0.0
O817 O 0.54519 0.53079 0.64686 0.0
O818 O 0.56296 0.55722 0.65226 0.0
O819 O 0.54204 0.57142 0.688 0.0
C820 C 0.55973 0.54183 0.64164 0.0
H821 H 0.59169 0.50103 0.69263 0.0
H822 H 0.49622 0.57148 0.61342 0.0
H823 H 0.48722 0.54554 0.7178 0.0
H824 H 0.51748 0.49236 0.70261 0.0
Co825 Co 0.70103 0.29312 0.92016 0.0
C826 C 0.72115 0.3261 0.93978 0.0
C827 C 0.70892 0.3061 0.96024 0.0
C828 C 0.7149 0.3224 0.97017 0.0
N829 N 0.71265 0.30841 0.94105 0.0
N830 N 0.72218 0.33518 0.95722 0.0
H831 H 0.72447 0.33336 0.92625 0.0
H832 H 0.7001 0.29472 0.96649 0.0
C833 C 0.66006 0.28357 0.93398 0.0
O834 O 0.6596 0.26775 0.92319 0.0
N835 N 0.68909 0.27834 0.8992 0.0
C836 C 0.69616 0.26296 0.88918 0.0
C837 C 0.68534 0.26077 0.87222 0.0
C838 C 0.67434 0.28529 0.8882 0.0
N839 N 0.67184 0.27508 0.87157 0.0
C840 C 0.73052 0.26623 0.9315 0.0
C841 C 0.71167 0.25409 0.96488 0.0
C842 C 0.73214 0.2541 0.96476 0.0
C843 C 0.74133 0.25826 0.94691 0.0
C844 C 0.70135 0.26144 0.94882 0.0
N845 N 0.71099 0.26966 0.93339 0.0
H846 H 0.73835 0.27166 0.919 0.0
H847 H 0.68589 0.26289 0.95048 0.0
H848 H 0.70903 0.25478 0.89318 0.0
H849 H 0.66604 0.29816 0.89204 0.0
O850 O 0.72286 0.29886 0.90262 0.0
O851 O 0.6962 0.31667 0.90532 0.0
O852 O 0.6757 0.29366 0.93533 0.0
C853 C 0.71283 0.31386 0.89671 0.0
H854 H 0.71138 0.32572 0.9852 0.0
H855 H 0.68803 0.25032 0.86069 0.0
H856 H 0.70363 0.25038 0.97794 0.0
H857 H 0.75697 0.25696 0.94533 0.0
Co858 Co 0.95537 0.44358 0.16816 0.0
C859 C 0.92867 0.46014 0.19773 0.0
C860 C 0.93026 0.4289 0.1991 0.0
C861 C 0.91748 0.43519 0.21299 0.0
N862 N 0.93726 0.44452 0.18951 0.0
N863 N 0.91622 0.4548 0.21203 0.0
H864 H 0.93081 0.47495 0.19276 0.0
H865 H 0.93337 0.41383 0.19572 0.0
C866 C 0.97859 0.4076 0.17882 0.0
O867 O 0.99538 0.41647 0.17645 0.0
N868 N 0.97305 0.44123 0.1462 0.0
C869 C 0.97891 0.45544 0.13392 0.0
C870 C 0.98198 0.44741 0.11565 0.0
C871 C 0.97292 0.42487 0.13516 0.0
N872 N 0.97823 0.42815 0.11657 0.0
C873 C 0.97939 0.47468 0.18282 0.0
C874 C 0.98331 0.45866 0.21962 0.0
C875 C 0.98644 0.47868 0.21743 0.0
C876 C 0.98521 0.48652 0.19853 0.0
C877 C 0.97724 0.44748 0.20369 0.0
N878 N 0.97461 0.45554 0.18561 0.0
H879 H 0.97667 0.4815 0.16893 0.0
H880 H 0.97205 0.43304 0.20676 0.0
H881 H 0.9782 0.47087 0.13702 0.0
H882 H 0.96586 0.41151 0.13967 0.0
O883 O 0.94411 0.46708 0.15692 0.0
O884 O 0.93408 0.43699 0.15075 0.0
O885 O 0.96248 0.41646 0.17631 0.0
C886 C 0.93214 0.45561 0.1477 0.0
H887 H 0.9083 0.42584 0.2218 0.0
H888 H 0.98447 0.45544 0.10231 0.0
H889 H 0.98344 0.45204 0.23395 0.0
H890 H 0.98738 0.50198 0.19616 0.0
Co891 Co 0.81525 0.70613 0.41924 0.0
C892 C 0.79451 0.67972 0.44677 0.0
C893 C 0.82571 0.67837 0.44909 0.0
C894 C 0.81794 0.66582 0.4623 0.0
N895 N 0.81112 0.68732 0.43951 0.0
N896 N 0.79835 0.66643 0.46082 0.0
H897 H 0.78012 0.68314 0.44128 0.0
H898 H 0.84108 0.6799 0.44602 0.0
C899 C 0.85382 0.7253 0.43296 0.0
O900 O 0.8521 0.74158 0.42306 0.0
N901 N 0.82085 0.72445 0.3986 0.0
C902 C 0.80841 0.73395 0.38672 0.0
C903 C 0.81782 0.73768 0.36917 0.0
C904 C 0.8374 0.72258 0.38817 0.0
N905 N 0.836 0.73022 0.37016 0.0
C906 C 0.78145 0.72727 0.43279 0.0
C907 C 0.79789 0.73951 0.46746 0.0
C908 C 0.77755 0.74013 0.46582 0.0
C909 C 0.76943 0.73458 0.44779 0.0
C910 C 0.8093 0.73241 0.45215 0.0
N911 N 0.80115 0.72536 0.43535 0.0
H912 H 0.77464 0.72176 0.41971 0.0
H913 H 0.82452 0.73126 0.45495 0.0
H914 H 0.79303 0.73591 0.38958 0.0
H915 H 0.84949 0.71359 0.39285 0.0
O916 O 0.79365 0.6954 0.40407 0.0
O917 O 0.8241 0.68533 0.40208 0.0
O918 O 0.84096 0.71193 0.4321 0.0
C919 C 0.80622 0.68367 0.39601 0.0
H920 H 0.82618 0.65552 0.47098 0.0
H921 H 0.81112 0.74339 0.35608 0.0
H922 H 0.80509 0.743 0.48106 0.0
H923 H 0.7538 0.73492 0.44559 0.0
Co924 Co 0.54608 0.45148 0.83644 0.0
C925 C 0.58207 0.46513 0.81683 0.0
C926 C 0.55796 0.46369 0.79715 0.0
C927 C 0.57455 0.46703 0.78647 0.0
N928 N 0.5626 0.46257 0.81629 0.0
N929 N 0.58962 0.46778 0.79891 0.0
H930 H 0.59102 0.46277 0.82956 0.0
H931 H 0.54392 0.46015 0.79098 0.0
C932 C 0.53475 0.41172 0.81964 0.0
O933 O 0.51929 0.40994 0.83076 0.0
N934 N 0.53002 0.43978 0.85649 0.0
C935 C 0.51616 0.44828 0.8675 0.0
C936 C 0.51315 0.43694 0.88394 0.0
C937 C 0.53529 0.42364 0.86642 0.0
N938 N 0.52531 0.42144 0.88323 0.0
C939 C 0.52557 0.48388 0.82181 0.0
C940 C 0.50075 0.46401 0.7972 0.0
C941 C 0.50508 0.48364 0.79286 0.0
C942 C 0.51702 0.4937 0.80617 0.0
C943 C 0.51037 0.45449 0.81262 0.0
N944 N 0.5238 0.46415 0.82373 0.0
H945 H 0.53613 0.4917 0.83048 0.0
H946 H 0.508 0.43915 0.81442 0.0
H947 H 0.50996 0.4625 0.86469 0.0
H948 H 0.54711 0.41428 0.86184 0.0
O949 O 0.55317 0.47199 0.85491 0.0
O950 O 0.56888 0.44407 0.85143 0.0
O951 O 0.545 0.42726 0.81966 0.0
C952 C 0.56737 0.46069 0.86046 0.0
H953 H 0.57578 0.46646 0.77074 0.0
H954 H 0.50391 0.44078 0.89613 0.0
H955 H 0.49107 0.45563 0.78796 0.0
H956 H 0.52162 0.50854 0.80366 0.0
Co957 Co 0.80167 0.29636 0.08445 0.0
C958 C 0.78484 0.33251 0.06742 0.0
C959 C 0.7804 0.30795 0.04884 0.0
C960 C 0.77445 0.32423 0.03903 0.0
N961 N 0.78654 0.31287 0.06691 0.0
N962 N 0.77769 0.33972 0.05056 0.0
H963 H 0.7906 0.34162 0.07892 0.0
H964 H 0.78205 0.29393 0.04214 0.0
C965 C 0.83991 0.29046 0.0624 0.0
O966 O 0.84549 0.27604 0.07367 0.0
N967 N 0.81732 0.28049 0.10198 0.0
C968 C 0.81237 0.2637 0.11086 0.0
C969 C 0.82568 0.26 0.12558 0.0
C970 C 0.83335 0.28682 0.11159 0.0
N971 N 0.83888 0.27463 0.12603 0.0
C972 C 0.77001 0.27182 0.07201 0.0
C973 C 0.79137 0.25267 0.04369 0.0
C974 C 0.77119 0.25463 0.04103 0.0
C975 C 0.76028 0.26276 0.05635 0.0
C976 C 0.80043 0.2618 0.05957 0.0
N977 N 0.78992 0.2732 0.0721 0.0
H978 H 0.76155 0.28039 0.08219 0.0
H979 H 0.81601 0.26119 0.06042 0.0
H980 H 0.79931 0.25541 0.10777 0.0
H981 H 0.84049 0.30052 0.10839 0.0
O982 O 0.78325 0.30095 0.10575 0.0
O983 O 0.80928 0.3189 0.09951 0.0
O984 O 0.8231 0.2982 0.06439 0.0
C985 C 0.79426 0.31572 0.11056 0.0
H986 H 0.76986 0.32478 0.02394 0.0
H987 H 0.82482 0.24817 0.13596 0.0
H988 H 0.80028 0.24584 0.03257 0.0
H989 H 0.74462 0.26434 0.05505 0.0
Co990 Co 0.95413 0.56374 0.33849 0.0
C991 C 0.92723 0.54664 0.30946 0.0
C992 C 0.9247 0.57782 0.31161 0.0
C993 C 0.91239 0.57144 0.29729 0.0
N994 N 0.93404 0.56231 0.31915 0.0
N995 N 0.91394 0.55187 0.29592 0.0
H996 H 0.93166 0.5318 0.31247 0.0
H997 H 0.92639 0.59273 0.31645 0.0
C998 C 0.97679 0.59878 0.32377 0.0
O999 O 0.9937 0.59004 0.32574 0.0
N1000 N 0.97396 0.56664 0.35856 0.0
C1001 C 0.97858 0.55335 0.37234 0.0
C1002 C 0.9818 0.56291 0.3899 0.0
C1003 C 0.97536 0.58395 0.3679 0.0
N1004 N 0.97922 0.58216 0.38706 0.0
C1005 C 0.97637 0.53144 0.32275 0.0
C1006 C 0.97961 0.54722 0.28582 0.0
C1007 C 0.98309 0.52724 0.28799 0.0
C1008 C 0.98209 0.51947 0.30698 0.0
C1009 C 0.97334 0.55834 0.30161 0.0
N1010 N 0.97143 0.55054 0.31987 0.0
H1011 H 0.97416 0.52486 0.33689 0.0
H1012 H 0.96786 0.57264 0.29833 0.0
H1013 H 0.97659 0.53779 0.37075 0.0
H1014 H 0.97022 0.59744 0.36172 0.0
O1015 O 0.94299 0.54128 0.35204 0.0
O1016 O 0.935 0.57196 0.35756 0.0
O1017 O 0.96086 0.59023 0.328 0.0
C1018 C 0.93256 0.55369 0.36198 0.0
H1019 H 0.90202 0.58038 0.28942 0.0
H1020 H 0.98321 0.55603 0.40402 0.0
H1021 H 0.98022 0.55402 0.27158 0.0
H1022 H 0.98426 0.50404 0.30946 0.0
Co1023 Co 0.70411 0.70446 0.58321 0.0
C1024 C 0.72033 0.67089 0.56112 0.0
C1025 C 0.71424 0.69521 0.54271 0.0
C1026 C 0.71879 0.67959 0.53112 0.0
N1027 N 0.71524 0.68986 0.56164 0.0
N1028 N 0.72247 0.6643 0.54272 0.0
H1029 H 0.71986 0.66128 0.57358 0.0
H1030 H 0.70807 0.7086 0.53739 0.0
C1031 C 0.6641 0.71727 0.56939 0.0
O1032 O 0.66428 0.73221 0.58139 0.0
N1033 N 0.69233 0.71858 0.6047 0.0
C1034 C 0.69825 0.73454 0.61452 0.0
C1035 C 0.68594 0.73724 0.63039 0.0
C1036 C 0.67689 0.71174 0.61478 0.0
N1037 N 0.67257 0.72277 0.63043 0.0
C1038 C 0.73606 0.72749 0.57098 0.0
C1039 C 0.71576 0.74768 0.54273 0.0
C1040 C 0.73567 0.74415 0.53987 0.0
C1041 C 0.74611 0.73532 0.555 0.0
C1042 C 0.7063 0.73983 0.55911 0.0
N1043 N 0.71612 0.72791 0.57177 0.0
H1044 H 0.74417 0.71851 0.58102 0.0
H1045 H 0.69081 0.74142 0.5598 0.0
H1046 H 0.71093 0.74317 0.61086 0.0
H1047 H 0.66889 0.69877 0.61066 0.0
O1048 O 0.72495 0.69629 0.60092 0.0
O1049 O 0.69739 0.68036 0.59649 0.0
O1050 O 0.6793 0.70662 0.5673 0.0
C1051 C 0.71387 0.68165 0.60574 0.0
H1052 H 0.71667 0.67877 0.51549 0.0
H1053 H 0.68729 0.74844 0.64144 0.0
H1054 H 0.70724 0.75486 0.53154 0.0
H1055 H 0.76159 0.73252 0.55348 0.0
Co1056 Co 0.66497 0.54325 0.55491 0.0
C1057 C 0.68626 0.57646 0.53681 0.0
C1058 C 0.70523 0.5553 0.54968 0.0
C1059 C 0.71622 0.57092 0.54402 0.0
N1060 N 0.68637 0.55893 0.54558 0.0
N1061 N 0.70431 0.58437 0.53598 0.0
H1062 H 0.67314 0.5838 0.53219 0.0
H1063 H 0.71055 0.54279 0.55763 0.0
C1064 C 0.67893 0.52878 0.5947 0.0
O1065 O 0.66642 0.5143 0.59516 0.0
N1066 N 0.64364 0.52769 0.5649 0.0
C1067 C 0.63294 0.51383 0.55595 0.0
C1068 C 0.61586 0.51109 0.56647 0.0
C1069 C 0.63294 0.53322 0.58045 0.0
N1070 N 0.61588 0.5236 0.58168 0.0
C1071 C 0.6792 0.52435 0.52151 0.0
C1072 C 0.70547 0.50043 0.54027 0.0
C1073 C 0.70962 0.50606 0.52093 0.0
C1074 C 0.69552 0.51748 0.51141 0.0
C1075 C 0.68923 0.50831 0.55012 0.0
N1076 N 0.67722 0.5214 0.54109 0.0
H1077 H 0.66993 0.53472 0.51417 0.0
H1078 H 0.68756 0.50517 0.56538 0.0
H1079 H 0.63657 0.50725 0.54207 0.0
H1080 H 0.63723 0.54483 0.59025 0.0
O1081 O 0.64748 0.55295 0.53456 0.0
O1082 O 0.65116 0.56643 0.56351 0.0
O1083 O 0.68067 0.53941 0.57952 0.0
C1084 C 0.64223 0.56651 0.54681 0.0
H1085 H 0.73143 0.57284 0.54763 0.0
H1086 H 0.60381 0.5017 0.56249 0.0
H1087 H 0.71539 0.49111 0.54824 0.0
H1088 H 0.6978 0.52296 0.49683 0.0
Co1089 Co 0.71344 0.41607 0.80542 0.0
C1090 C 0.67989 0.4356 0.78643 0.0
C1091 C 0.69961 0.4558 0.79964 0.0
C1092 C 0.68273 0.4655 0.7952 0.0
N1093 N 0.69772 0.43689 0.79458 0.0
N1094 N 0.6701 0.45264 0.78741 0.0
H1095 H 0.67356 0.4222 0.78121 0.0
H1096 H 0.71141 0.46175 0.8082 0.0
C1097 C 0.72361 0.42992 0.84646 0.0
O1098 O 0.73891 0.41847 0.8475 0.0
N1099 N 0.7286 0.39521 0.81713 0.0
C1100 C 0.74596 0.38736 0.81233 0.0
C1101 C 0.74951 0.37167 0.82466 0.0
C1102 C 0.72185 0.38413 0.83192 0.0
N1103 N 0.73422 0.36973 0.83698 0.0
C1104 C 0.73657 0.43035 0.77439 0.0
C1105 C 0.75325 0.46023 0.79558 0.0
C1106 C 0.75063 0.46276 0.77546 0.0
C1107 C 0.74356 0.44693 0.76467 0.0
C1108 C 0.74632 0.44325 0.8047 0.0
N1109 N 0.7362 0.42951 0.79433 0.0
H1110 H 0.72892 0.41956 0.76588 0.0
H1111 H 0.74717 0.4426 0.82029 0.0
H1112 H 0.75527 0.39251 0.80071 0.0
H1113 H 0.70793 0.3866 0.83891 0.0
O1114 O 0.70683 0.39856 0.78385 0.0
O1115 O 0.69018 0.40129 0.81122 0.0
O1116 O 0.71387 0.43142 0.83063 0.0
C1117 C 0.6922 0.39271 0.79446 0.0
H1118 H 0.67919 0.48022 0.79969 0.0
H1119 H 0.76244 0.36264 0.82465 0.0
H1120 H 0.75906 0.47197 0.80442 0.0
H1121 H 0.74144 0.44818 0.74908 0.0
Co1122 Co 0.83347 0.45953 0.05346 0.0
C1123 C 0.80685 0.42724 0.04693 0.0
C1124 C 0.80951 0.44458 0.02103 0.0
C1125 C 0.79741 0.42902 0.01707 0.0
N1126 N 0.81535 0.44329 0.03975 0.0
N1127 N 0.79585 0.41825 0.03342 0.0
H1128 H 0.80961 0.42158 0.0614 0.0
H1129 H 0.81424 0.45559 0.01081 0.0
C1130 C 0.81632 0.4668 0.09287 0.0
O1131 O 0.82199 0.48505 0.09153 0.0
N1132 N 0.85221 0.47505 0.06783 0.0
C1133 C 0.86087 0.49224 0.064 0.0
C1134 C 0.87533 0.49532 0.07787 0.0
C1135 C 0.86157 0.46794 0.0836 0.0
N1136 N 0.87555 0.48001 0.09028 0.0
C1137 C 0.82151 0.4919 0.02938 0.0
C1138 C 0.78331 0.49136 0.04228 0.0
C1139 C 0.78719 0.49985 0.02422 0.0
C1140 C 0.80677 0.50088 0.01816 0.0
C1141 C 0.79814 0.48215 0.05261 0.0
N1142 N 0.81699 0.48173 0.04592 0.0
H1143 H 0.83613 0.49123 0.02354 0.0
H1144 H 0.79339 0.47317 0.06448 0.0
H1145 H 0.8575 0.50151 0.05172 0.0
H1146 H 0.85874 0.45359 0.08946 0.0
O1147 O 0.85161 0.45785 0.03131 0.0
O1148 O 0.85062 0.43768 0.05632 0.0
O1149 O 0.81864 0.45513 0.0785 0.0
C1150 C 0.85875 0.44247 0.03997 0.0
H1151 H 0.79088 0.42551 0.00313 0.0
H1152 H 0.88516 0.50765 0.0785 0.0
H1153 H 0.76846 0.4898 0.04744 0.0
H1154 H 0.8105 0.50741 0.00429 0.0
Co1155 Co 0.80385 0.58088 0.3016 0.0
C1156 C 0.83451 0.55729 0.28158 0.0
C1157 C 0.8113 0.53955 0.29226 0.0
C1158 C 0.82537 0.5275 0.28471 0.0
N1159 N 0.81689 0.55834 0.2902 0.0
N1160 N 0.84014 0.53866 0.27831 0.0
H1161 H 0.8441 0.56965 0.27968 0.0
H1162 H 0.79889 0.53458 0.30046 0.0
C1163 C 0.79095 0.56849 0.34185 0.0
O1164 O 0.77611 0.58054 0.34088 0.0
N1165 N 0.79123 0.60334 0.31352 0.0
C1166 C 0.77492 0.61298 0.30838 0.0
C1167 C 0.77258 0.62875 0.32087 0.0
C1168 C 0.79869 0.61351 0.32871 0.0
N1169 N 0.78757 0.62898 0.33369 0.0
C1170 C 0.77789 0.57078 0.27097 0.0
C1171 C 0.75996 0.5407 0.29069 0.0
C1172 C 0.76176 0.53915 0.27034 0.0
C1173 C 0.7693 0.55544 0.26047 0.0
C1174 C 0.7684 0.55654 0.3006 0.0
N1175 N 0.77933 0.57011 0.29085 0.0
H1176 H 0.78566 0.58174 0.26283 0.0
H1177 H 0.76831 0.55577 0.31615 0.0
H1178 H 0.76558 0.60907 0.29629 0.0
H1179 H 0.81194 0.60942 0.33623 0.0
O1180 O 0.8117 0.59769 0.27997 0.0
O1181 O 0.82886 0.59341 0.30676 0.0
O1182 O 0.80196 0.56586 0.32698 0.0
C1183 C 0.827 0.60238 0.29017 0.0
H1184 H 0.82564 0.51176 0.28581 0.0
H1185 H 0.76105 0.63949 0.32017 0.0
H1186 H 0.75421 0.52881 0.29928 0.0
H1187 H 0.77022 0.55558 0.24471 0.0
Co1188 Co 0.66939 0.45782 0.95382 0.0
C1189 C 0.68903 0.42236 0.96851 0.0
C1190 C 0.70828 0.4468 0.96866 0.0
C1191 C 0.71905 0.43038 0.97243 0.0
N1192 N 0.68929 0.4419 0.96633 0.0
N1193 N 0.70692 0.41505 0.9721 0.0
H1194 H 0.67658 0.41323 0.96534 0.0
H1195 H 0.71452 0.46084 0.96549 0.0
C1196 C 0.68592 0.46567 0.9133 0.0
O1197 O 0.67361 0.47999 0.91015 0.0
N1198 N 0.64951 0.47316 0.94063 0.0
C1199 C 0.64228 0.49095 0.94479 0.0
C1200 C 0.62688 0.4947 0.93222 0.0
C1201 C 0.6383 0.46635 0.92592 0.0
N1202 N 0.62436 0.47908 0.92041 0.0
C1203 C 0.68366 0.48178 0.98457 0.0
C1204 C 0.71017 0.50213 0.9621 0.0
C1205 C 0.71389 0.50001 0.98211 0.0
C1206 C 0.69951 0.49105 0.99358 0.0
C1207 C 0.69405 0.49271 0.95369 0.0
N1208 N 0.68224 0.48102 0.96471 0.0
H1209 H 0.67423 0.47283 0.99345 0.0
H1210 H 0.69243 0.49342 0.93817 0.0
H1211 H 0.64758 0.50042 0.95624 0.0
H1212 H 0.64031 0.45215 0.91938 0.0
O1213 O 0.65058 0.45211 0.97459 0.0
O1214 O 0.65434 0.43481 0.94766 0.0
O1215 O 0.68659 0.45723 0.92989 0.0
C1216 C 0.64491 0.43746 0.96386 0.0
H1217 H 0.73482 0.42947 0.97278 0.0
H1218 H 0.61841 0.508 0.9318 0.0
H1219 H 0.72048 0.50962 0.95279 0.0
H1220 H 0.70157 0.48929 0.00913 0.0
Co1221 Co 0.80223 0.41826 0.20426 0.0
C1222 C 0.83423 0.44234 0.22185 0.0
C1223 C 0.80986 0.45939 0.21259 0.0
C1224 C 0.824 0.47189 0.21911 0.0
N1225 N 0.81613 0.44079 0.21439 0.0
N1226 N 0.83936 0.46116 0.22478 0.0
H1227 H 0.84423 0.43024 0.22336 0.0
H1228 H 0.79656 0.46382 0.20551 0.0
C1229 C 0.78832 0.43117 0.16412 0.0
O1230 O 0.77469 0.41775 0.16348 0.0
N1231 N 0.78829 0.39595 0.19367 0.0
C1232 C 0.77266 0.38653 0.20088 0.0
C1233 C 0.76906 0.37028 0.18939 0.0
C1234 C 0.79417 0.38513 0.17825 0.0
N1235 N 0.78257 0.36951 0.17505 0.0
C1236 C 0.78018 0.43127 0.23667 0.0
C1237 C 0.75722 0.45679 0.21567 0.0
C1238 C 0.76143 0.46118 0.23519 0.0
C1239 C 0.7718 0.4474 0.24608 0.0
C1240 C 0.76569 0.4403 0.20687 0.0
N1241 N 0.77883 0.4291 0.21688 0.0
H1242 H 0.79028 0.4224 0.24485 0.0
H1243 H 0.76344 0.43827 0.19154 0.0
H1244 H 0.76477 0.3908 0.21385 0.0
H1245 H 0.80661 0.3889 0.16932 0.0
O1246 O 0.81196 0.4013 0.22505 0.0
O1247 O 0.82656 0.40585 0.19677 0.0
O1248 O 0.79856 0.4337 0.17948 0.0
C1249 C 0.82632 0.39681 0.2134 0.0
H1250 H 0.82377 0.48764 0.21799 0.0
H1251 H 0.75778 0.35956 0.19193 0.0
H1252 H 0.74898 0.46694 0.20682 0.0
H1253 H 0.77529 0.45019 0.26123 0.0
Co1254 Co 0.83064 0.55171 0.45522 0.0
C1255 C 0.80702 0.58452 0.47143 0.0
C1256 C 0.78952 0.56005 0.46314 0.0
C1257 C 0.77726 0.57504 0.46824 0.0
N1258 N 0.80824 0.56596 0.46511 0.0
N1259 N 0.78832 0.59036 0.4734 0.0
H1260 H 0.81935 0.59426 0.47275 0.0
H1261 H 0.78499 0.54629 0.45694 0.0
C1262 C 0.81776 0.53693 0.4154 0.0
O1263 O 0.83074 0.52286 0.41553 0.0
N1264 N 0.85287 0.53792 0.44423 0.0
C1265 C 0.86292 0.52224 0.45046 0.0
C1266 C 0.87893 0.51961 0.43827 0.0
C1267 C 0.86298 0.54465 0.42871 0.0
N1268 N 0.87886 0.53382 0.42462 0.0
C1269 C 0.81655 0.53107 0.48767 0.0
C1270 C 0.79418 0.50441 0.46764 0.0
C1271 C 0.78805 0.50993 0.48651 0.0
C1272 C 0.80054 0.52247 0.4969 0.0
C1273 C 0.80984 0.51416 0.4586 0.0
N1274 N 0.81971 0.5286 0.46816 0.0
H1275 H 0.82436 0.54224 0.49555 0.0
H1276 H 0.8128 0.51097 0.44358 0.0
H1277 H 0.85925 0.51369 0.46318 0.0
H1278 H 0.85864 0.55731 0.42037 0.0
O1279 O 0.84759 0.5612 0.47613 0.0
O1280 O 0.84339 0.57588 0.44789 0.0
O1281 O 0.81523 0.54779 0.43038 0.0
C1282 C 0.85251 0.57535 0.46451 0.0
H1283 H 0.76154 0.57522 0.46673 0.0
H1284 H 0.8901 0.50858 0.43985 0.0
H1285 H 0.78642 0.49346 0.45937 0.0
H1286 H 0.79711 0.52725 0.51153 0.0
Co1287 Co 0.70713 0.58203 0.70272 0.0
C1288 C 0.67303 0.56449 0.72309 0.0
C1289 C 0.69384 0.54312 0.71424 0.0
C1290 C 0.67706 0.53372 0.71953 0.0
N1291 N 0.69136 0.56257 0.71615 0.0
N1292 N 0.66374 0.54717 0.72474 0.0
H1293 H 0.66581 0.57827 0.72501 0.0
H1294 H 0.70578 0.53614 0.70683 0.0
C1295 C 0.71451 0.56462 0.66259 0.0
O1296 O 0.73017 0.57538 0.66023 0.0
N1297 N 0.72246 0.6014 0.68872 0.0
C1298 C 0.74087 0.60748 0.69182 0.0
C1299 C 0.74508 0.62222 0.67866 0.0
C1300 C 0.71573 0.61265 0.67399 0.0
N1301 N 0.72917 0.62551 0.66748 0.0
C1302 C 0.73342 0.57076 0.73273 0.0
C1303 C 0.74689 0.53761 0.71429 0.0
C1304 C 0.74673 0.53798 0.73477 0.0
C1305 C 0.74173 0.55571 0.74375 0.0
C1306 C 0.73904 0.55331 0.70372 0.0
N1307 N 0.73033 0.56864 0.71315 0.0
H1308 H 0.72748 0.58312 0.74043 0.0
H1309 H 0.73785 0.55156 0.68825 0.0
H1310 H 0.75057 0.60168 0.70279 0.0
H1311 H 0.70113 0.61147 0.66814 0.0
O1312 O 0.7028 0.60133 0.72333 0.0
O1313 O 0.68399 0.59739 0.69748 0.0
O1314 O 0.70527 0.56486 0.67877 0.0
C1315 C 0.68763 0.60697 0.71342 0.0
H1316 H 0.67409 0.51846 0.7168 0.0
H1317 H 0.75894 0.6296 0.67729 0.0
H1318 H 0.75122 0.52459 0.70646 0.0
H1319 H 0.74269 0.55743 0.75941 0.0
Co1320 Co 0.55118 0.67251 0.55176 0.0
C1321 C 0.53285 0.69696 0.58323 0.0
C1322 C 0.54402 0.71387 0.55959 0.0
C1323 C 0.53763 0.72647 0.57371 0.0
N1324 N 0.54104 0.69528 0.56542 0.0
N1325 N 0.53061 0.71586 0.58856 0.0
H1326 H 0.5304 0.68481 0.59297 0.0
H1327 H 0.55199 0.71819 0.54677 0.0
C1328 C 0.59209 0.68481 0.53925 0.0
O1329 O 0.59246 0.67221 0.52482 0.0
N1330 N 0.56188 0.65005 0.53818 0.0
C1331 C 0.55437 0.63989 0.52318 0.0
C1332 C 0.56589 0.62358 0.52005 0.0
C1333 C 0.57751 0.63965 0.54417 0.0
N1334 N 0.58063 0.62353 0.53319 0.0
C1335 C 0.52014 0.68497 0.52763 0.0
C1336 C 0.54161 0.71193 0.50689 0.0
C1337 C 0.5216 0.71515 0.50942 0.0
C1338 C 0.51063 0.70061 0.51863 0.0
C1339 C 0.55052 0.69581 0.51582 0.0
N1340 N 0.54006 0.68382 0.52787 0.0
H1341 H 0.51154 0.67545 0.5367 0.0
H1342 H 0.56604 0.69475 0.51479 0.0
H1343 H 0.5411 0.64363 0.51554 0.0
H1344 H 0.58654 0.64402 0.55634 0.0
O1345 O 0.52927 0.65627 0.56011 0.0
O1346 O 0.5569 0.65935 0.5762 0.0
O1347 O 0.5767 0.68711 0.54953 0.0
C1348 C 0.53994 0.65097 0.57487 0.0
H1349 H 0.53982 0.74211 0.57394 0.0
H1350 H 0.56298 0.61229 0.50944 0.0
H1351 H 0.55055 0.72261 0.49946 0.0
H1352 H 0.49508 0.70241 0.52077 0.0
Co1353 Co 0.05204 0.83587 0.45913 0.0
C1354 C 0.03792 0.81683 0.42294 0.0
C1355 C 0.04026 0.79671 0.44661 0.0
C1356 C 0.03654 0.78631 0.42992 0.0
N1357 N 0.04104 0.81594 0.44231 0.0
N1358 N 0.03513 0.79902 0.41514 0.0
H1359 H 0.03993 0.82977 0.4142 0.0
H1360 H 0.0442 0.79038 0.46047 0.0
C1361 C 0.09161 0.81908 0.47075 0.0
O1362 O 0.09334 0.83097 0.48566 0.0
N1363 N 0.06374 0.85576 0.47547 0.0
C1364 C 0.05601 0.86576 0.49052 0.0
C1365 C 0.06767 0.8819 0.4942 0.0
C1366 C 0.07965 0.86602 0.47013 0.0
N1367 N 0.0825 0.882 0.48123 0.0
C1368 C 0.01939 0.82054 0.47895 0.0
C1369 C 0.03948 0.79671 0.50433 0.0
C1370 C 0.02008 0.79175 0.49966 0.0
C1371 C 0.00985 0.80467 0.48745 0.0
C1372 C 0.04871 0.81237 0.49484 0.0
N1373 N 0.03901 0.82305 0.48111 0.0
H1374 H 0.01159 0.82894 0.46816 0.0
H1375 H 0.06393 0.81474 0.49755 0.0
H1376 H 0.04224 0.86238 0.49741 0.0
H1377 H 0.08867 0.86211 0.45778 0.0
O1378 O 0.03181 0.85453 0.45178 0.0
O1379 O 0.06002 0.85103 0.43665 0.0
O1380 O 0.07593 0.81867 0.46069 0.0
C1381 C 0.04353 0.8603 0.43799 0.0
H1382 H 0.03721 0.77061 0.42835 0.0
H1383 H 0.06465 0.8933 0.5047 0.0
H1384 H 0.04793 0.7878 0.51423 0.0
H1385 H 0.99515 0.80167 0.48268 0.0
Co1386 Co 0.42428 0.80451 0.6972 0.0
C1387 C 0.44834 0.78479 0.66643 0.0
C1388 C 0.46559 0.79807 0.68876 0.0
C1389 C 0.47796 0.79058 0.67498 0.0
N1390 N 0.44695 0.7945 0.68347 0.0
N1391 N 0.46713 0.78229 0.66091 0.0
H1392 H 0.436 0.7813 0.65724 0.0
H1393 H 0.47005 0.80691 0.70099 0.0
C1394 C 0.43595 0.8451 0.7109 0.0
O1395 O 0.42327 0.84463 0.72522 0.0
N1396 N 0.40187 0.81491 0.71107 0.0
C1397 C 0.39451 0.81008 0.72862 0.0
C1398 C 0.37879 0.82217 0.73254 0.0
C1399 C 0.39035 0.82942 0.70445 0.0
N1400 N 0.37641 0.83451 0.71738 0.0
C1401 C 0.43555 0.77273 0.72094 0.0
C1402 C 0.46417 0.79264 0.74106 0.0
C1403 C 0.46617 0.77245 0.73853 0.0
C1404 C 0.45085 0.76234 0.72958 0.0
C1405 C 0.44839 0.80245 0.73246 0.0
N1406 N 0.43548 0.79267 0.72077 0.0
H1407 H 0.42531 0.76467 0.71214 0.0
H1408 H 0.44831 0.81805 0.73338 0.0
H1409 H 0.40026 0.79885 0.73805 0.0
H1410 H 0.39233 0.83625 0.69041 0.0
O1411 O 0.40772 0.7831 0.68813 0.0
O1412 O 0.4115 0.81096 0.67268 0.0
O1413 O 0.43892 0.83002 0.70028 0.0
C1414 C 0.40271 0.79421 0.67358 0.0
H1415 H 0.49358 0.79281 0.67431 0.0
H1416 H 0.37012 0.82219 0.74572 0.0
H1417 H 0.47549 0.80097 0.74828 0.0
H1418 H 0.45168 0.74672 0.7274 0.0
Co1419 Co 0.45005 0.1689 0.96188 0.0
C1420 C 0.47075 0.18722 0.92868 0.0
C1421 C 0.45965 0.20823 0.94894 0.0
C1422 C 0.46581 0.21789 0.93257 0.0
N1423 N 0.46226 0.18893 0.94627 0.0
N1424 N 0.47231 0.2046 0.91961 0.0
H1425 H 0.47463 0.17348 0.92211 0.0
H1426 H 0.4522 0.21475 0.96122 0.0
C1427 C 0.41151 0.18714 0.97513 0.0
O1428 O 0.41068 0.1762 0.99081 0.0
N1429 N 0.43674 0.14885 0.97672 0.0
C1430 C 0.44437 0.13401 0.98708 0.0
C1431 C 0.4311 0.11869 0.98714 0.0
C1432 C 0.41922 0.14222 0.97064 0.0
N1433 N 0.41542 0.12386 0.97639 0.0
C1434 C 0.48337 0.18251 0.98137 0.0
C1435 C 0.46473 0.20757 0.00657 0.0
C1436 C 0.48358 0.21274 1.00012 0.0
C1437 C 0.49328 0.19893 0.9884 0.0
C1438 C 0.45495 0.19158 0.99817 0.0
N1439 N 0.46378 0.18033 0.98431 0.0
H1440 H 0.49072 0.17351 0.97073 0.0
H1441 H 0.44005 0.18925 1.00211 0.0
H1442 H 0.45922 0.1335 0.99236 0.0
H1443 H 0.41007 0.15042 0.96081 0.0
O1444 O 0.46933 0.14938 0.9538 0.0
O1445 O 0.44171 0.15532 0.93852 0.0
O1446 O 0.42663 0.18692 0.96417 0.0
C1447 C 0.45748 0.14486 0.93964 0.0
H1448 H 0.46359 0.23323 0.92962 0.0
H1449 H 0.43357 0.10431 0.99313 0.0
H1450 H 0.45703 0.21623 0.01725 0.0
H1451 H 0.50788 0.20145 0.98304 0.0
Co1452 Co 0.58568 0.69109 0.70326 0.0
C1453 C 0.55773 0.71169 0.67682 0.0
C1454 C 0.55791 0.68053 0.67356 0.0
C1455 C 0.54389 0.68792 0.66166 0.0
N1456 N 0.56637 0.69527 0.68338 0.0
N1457 N 0.54367 0.70748 0.66361 0.0
H1458 H 0.56205 0.72629 0.68103 0.0
H1459 H 0.56211 0.66537 0.67434 0.0
C1460 C 0.57063 0.65363 0.72207 0.0
O1461 O 0.57675 0.65812 0.73965 0.0
N1462 N 0.60544 0.68495 0.72243 0.0
C1463 C 0.61626 0.69606 0.73451 0.0
C1464 C 0.63255 0.68537 0.74016 0.0
C1465 C 0.61537 0.6681 0.72077 0.0
N1466 N 0.63197 0.66775 0.73125 0.0
C1467 C 0.57185 0.72199 0.72842 0.0
C1468 C 0.53428 0.70763 0.73129 0.0
C1469 C 0.53768 0.72691 0.73709 0.0
C1470 C 0.55694 0.7339 0.73605 0.0
C1471 C 0.54943 0.69633 0.72374 0.0
N1472 N 0.56795 0.70354 0.72193 0.0
H1473 H 0.58613 0.72823 0.72623 0.0
H1474 H 0.54543 0.68259 0.71737 0.0
H1475 H 0.61345 0.71119 0.73789 0.0
H1476 H 0.61135 0.65696 0.71034 0.0
O1477 O 0.60054 0.7137 0.69458 0.0
O1478 O 0.60416 0.68369 0.68334 0.0
O1479 O 0.57362 0.66485 0.7076 0.0
C1480 C 0.6097 0.70181 0.68291 0.0
H1481 H 0.53571 0.67966 0.65095 0.0
H1482 H 0.64417 0.69058 0.74945 0.0
H1483 H 0.51964 0.70173 0.73088 0.0
H1484 H 0.56028 0.74879 0.74014 0.0
Co1485 Co 0.93891 0.3456 0.04313 0.0
C1486 C 0.95338 0.31703 0.07264 0.0
C1487 C 0.92385 0.32661 0.07725 0.0
C1488 C 0.92785 0.31219 0.09034 0.0
N1489 N 0.93963 0.32941 0.06593 0.0
N1490 N 0.94623 0.306 0.08726 0.0
H1491 H 0.96793 0.31572 0.06666 0.0
H1492 H 0.91017 0.33433 0.07581 0.0
C1493 C 0.90362 0.3271 0.0239 0.0
O1494 O 0.91289 0.32458 0.00734 0.0
N1495 N 0.93628 0.36299 0.02074 0.0
C1496 C 0.9492 0.37699 0.01566 0.0
C1497 C 0.93919 0.39397 0.01115 0.0
C1498 C 0.91874 0.37156 0.01782 0.0
N1499 N 0.91995 0.39059 0.01305 0.0
C1500 C 0.96831 0.32706 0.01889 0.0
C1501 C 0.95399 0.28959 0.02342 0.0
C1502 C 0.97224 0.29191 0.01457 0.0
C1503 C 0.9793 0.31103 0.01213 0.0
C1504 C 0.94369 0.30581 0.03012 0.0
N1505 N 0.9508 0.32435 0.028 0.0
H1506 H 0.97439 0.34154 0.01782 0.0
H1507 H 0.93061 0.30321 0.03846 0.0
H1508 H 0.96468 0.37627 0.01852 0.0
H1509 H 0.90531 0.36555 0.02328 0.0
O1510 O 0.96237 0.35895 0.05191 0.0
O1511 O 0.93229 0.36761 0.05967 0.0
O1512 O 0.91188 0.33517 0.03847 0.0
C1513 C 0.95092 0.37081 0.06136 0.0
H1514 H 0.91817 0.30691 0.10164 0.0
H1515 H 0.94567 0.4083 0.00978 0.0
H1516 H 0.94822 0.27519 0.02638 0.0
H1517 H 0.99346 0.31353 0.00562 0.0
Co1518 Co 0.42297 0.20629 0.79955 0.0
C1519 C 0.44398 0.2226 0.83359 0.0
C1520 C 0.46245 0.21945 0.80871 0.0
C1521 C 0.474 0.2229 0.82468 0.0
N1522 N 0.44354 0.21904 0.8143 0.0
N1523 N 0.46236 0.22452 0.84032 0.0
H1524 H 0.43161 0.22079 0.84316 0.0
H1525 H 0.46776 0.21494 0.79459 0.0
C1526 C 0.44147 0.16798 0.78663 0.0
O1527 O 0.42822 0.16526 0.77309 0.0
N1528 N 0.4026 0.19283 0.78527 0.0
C1529 C 0.39201 0.19899 0.76994 0.0
C1530 C 0.37654 0.18626 0.76729 0.0
C1531 C 0.3933 0.17676 0.79186 0.0
N1532 N 0.37742 0.17231 0.78117 0.0
C1533 C 0.43531 0.23929 0.77849 0.0
C1534 C 0.45757 0.2196 0.75145 0.0
C1535 C 0.46352 0.23851 0.75698 0.0
C1536 C 0.45095 0.24882 0.76956 0.0
C1537 C 0.44241 0.21027 0.76162 0.0
N1538 N 0.43289 0.21965 0.77637 0.0
H1539 H 0.42742 0.24697 0.78977 0.0
H1540 H 0.43948 0.19522 0.75847 0.0
H1541 H 0.39468 0.2123 0.76193 0.0
H1542 H 0.39792 0.16862 0.80456 0.0
O1543 O 0.40348 0.22523 0.808 0.0
O1544 O 0.41058 0.19785 0.82346 0.0
O1545 O 0.4416 0.18363 0.79675 0.0
C1546 C 0.39988 0.21348 0.82249 0.0
H1547 H 0.4897 0.22131 0.82521 0.0
H1548 H 0.36499 0.18781 0.75666 0.0
H1549 H 0.46515 0.21149 0.74027 0.0
H1550 H 0.45411 0.26353 0.77427 0.0
Co1551 Co 0.08564 0.80908 0.29097 0.0
C1552 C 0.06604 0.78951 0.32406 0.0
C1553 C 0.04587 0.8035 0.30487 0.0
C1554 C 0.03628 0.79879 0.32173 0.0
N1555 N 0.06473 0.79819 0.30651 0.0
N1556 N 0.04912 0.7905 0.33407 0.0
H1557 H 0.07936 0.78361 0.32988 0.0
H1558 H 0.03988 0.81226 0.29326 0.0
C1559 C 0.07152 0.85015 0.28098 0.0
O1560 O 0.08253 0.85117 0.26535 0.0
N1561 N 0.10659 0.82073 0.27597 0.0
C1562 C 0.11785 0.81288 0.26189 0.0
C1563 C 0.13474 0.82397 0.26023 0.0
C1564 C 0.11679 0.83619 0.28266 0.0
N1565 N 0.13407 0.83844 0.2736 0.0
C1566 C 0.07198 0.7783 0.26693 0.0
C1567 C 0.04148 0.79912 0.251 0.0
C1568 C 0.03967 0.77883 0.2526 0.0
C1569 C 0.05578 0.76831 0.2594 0.0
C1570 C 0.05811 0.80852 0.25836 0.0
N1571 N 0.07222 0.79824 0.26803 0.0
H1572 H 0.08305 0.76986 0.27423 0.0
H1573 H 0.05816 0.82413 0.25813 0.0
H1574 H 0.11483 0.79926 0.25454 0.0
H1575 H 0.11201 0.84504 0.29483 0.0
O1576 O 0.10298 0.78736 0.29747 0.0
O1577 O 0.10058 0.81465 0.31432 0.0
O1578 O 0.07046 0.83437 0.29083 0.0
C1579 C 0.10897 0.79781 0.31217 0.0
H1580 H 0.02162 0.80334 0.32541 0.0
H1581 H 0.14715 0.82074 0.25103 0.0
H1582 H 0.02947 0.80778 0.24551 0.0
H1583 H 0.05505 0.75259 0.2608 0.0
C1584 C 0.04164 0.13372 0.10413 0.0
C1585 C 0.03261 0.13421 0.08571 0.0
C1586 C 0.03803 0.11858 0.11739 0.0
C1587 C 0.0254 0.10302 0.11281 0.0
H1588 H 0.05165 0.14518 0.1084 0.0
H1589 H 0.04525 0.11911 0.13141 0.0
S1590 S 0.99867 0.09694 0.06611 0.0
N1591 N 0.01058 0.1177 0.06344 0.0
N1592 N 0.00416 0.08893 0.08814 0.0
C1593 C 0.01616 0.10336 0.09444 0.0
C1594 C 0.0197 0.11899 0.08097 0.0
C1595 C 0.14518 0.79829 0.35412 0.0
C1596 C 0.1518 0.77886 0.3553 0.0
C1597 C 0.13139 0.80407 0.34021 0.0
C1598 C 0.12378 0.79086 0.32648 0.0
H1599 H 0.1508 0.80933 0.3639 0.0
H1600 H 0.12669 0.81914 0.34026 0.0
S1601 S 0.13544 0.73809 0.32357 0.0
N1602 N 0.14888 0.74615 0.34186 0.0
N1603 N 0.12349 0.75725 0.31521 0.0
C1604 C 0.13022 0.77139 0.32735 0.0
C1605 C 0.14412 0.76536 0.34181 0.0
C1606 C 0.48673 0.89473 0.59614 0.0
C1607 C 0.47299 0.90614 0.60624 0.0
C1608 C 0.48083 0.87902 0.58421 0.0
C1609 C 0.46096 0.87417 0.58191 0.0
H1610 H 0.50214 0.89772 0.59784 0.0
H1611 H 0.49194 0.87056 0.57683 0.0
S1612 S 0.41913 0.90087 0.60381 0.0
N1613 N 0.43858 0.91247 0.61192 0.0
N1614 N 0.42754 0.88302 0.59002 0.0
C1615 C 0.4471 0.88587 0.5916 0.0
C1616 C 0.45309 0.90182 0.6036 0.0
C1617 C 0.35166 0.23032 0.84448 0.0
C1618 C 0.35182 0.22182 0.86317 0.0
C1619 C 0.36749 0.22808 0.83159 0.0
C1620 C 0.38405 0.21716 0.83684 0.0
H1621 H 0.33898 0.23834 0.83959 0.0
H1622 H 0.36647 0.23446 0.81718 0.0
S1623 S 0.39307 0.19428 0.88502 0.0
N1624 N 0.37109 0.20392 0.88698 0.0
N1625 N 0.40037 0.19918 0.86263 0.0
C1626 C 0.3847 0.20916 0.85571 0.0
C1627 C 0.36873 0.21162 0.86889 0.0
C1628 C 0.04995 0.90111 0.40102 0.0
C1629 C 0.03077 0.90744 0.39716 0.0
C1630 C 0.05381 0.88598 0.41423 0.0
C1631 C 0.0387 0.87653 0.42439 0.0
H1632 H 0.06221 0.90801 0.39389 0.0
H1633 H 0.06885 0.88176 0.41659 0.0
S1634 S 0.98585 0.88692 0.41936 0.0
N1635 N 0.9964 0.90249 0.40435 0.0
N1636 N 0.00373 0.87442 0.42955 0.0
C1637 C 0.01946 0.88275 0.42089 0.0
C1638 C 0.01548 0.89809 0.40723 0.0
C1639 C 0.36941 0.79561 0.62894 0.0
C1640 C 0.35464 0.78198 0.63333 0.0
C1641 C 0.38508 0.79906 0.64175 0.0
C1642 C 0.38688 0.78893 0.65952 0.0
H1643 H 0.3689 0.80374 0.61544 0.0
H1644 H 0.39584 0.8099 0.63772 0.0
S1645 S 0.35203 0.75213 0.67845 0.0
N1646 N 0.34275 0.75866 0.65724 0.0
N1647 N 0.37237 0.76477 0.68092 0.0
C1648 C 0.37243 0.77505 0.66401 0.0
C1649 C 0.35632 0.77167 0.65105 0.0
C1650 C 0.48268 0.1023 0.91336 0.0
C1651 C 0.46995 0.09825 0.89777 0.0
C1652 C 0.47864 0.11737 0.92685 0.0
C1653 C 0.46168 0.12894 0.9253 0.0
H1654 H 0.49604 0.09403 0.91488 0.0
H1655 H 0.48896 0.12002 0.9385 0.0
S1656 S 0.42292 0.12329 0.88785 0.0
N1657 N 0.4389 0.10615 0.88257 0.0
N1658 N 0.43183 0.13474 0.90704 0.0
C1659 C 0.4487 0.12474 0.90995 0.0
C1660 C 0.45268 0.10934 0.89645 0.0
C1661 C 0.12806 0.2072 0.15794 0.0
C1662 C 0.12994 0.21515 0.17676 0.0
C1663 C 0.14205 0.21053 0.14345 0.0
C1664 C 0.15892 0.22165 0.14715 0.0
H1665 H 0.11562 0.19821 0.15431 0.0
H1666 H 0.13957 0.20423 0.12919 0.0
S1667 S 0.17125 0.24516 0.19446 0.0
N1668 N 0.14995 0.23467 0.19846 0.0
N1669 N 0.17681 0.24033 0.17153 0.0
C1670 C 0.161 0.22981 0.16597 0.0
C1671 C 0.14642 0.22667 0.18068 0.0
C1672 C 0.10982 0.02659 0.11953 0.0
C1673 C 0.10337 0.02274 0.10041 0.0
C1674 C 0.09692 0.03225 0.13426 0.0
C1675 C 0.07675 0.03324 0.13097 0.0
H1676 H 0.12521 0.02612 0.12299 0.0
H1677 H 0.10304 0.03626 0.1482 0.0
S1678 S 0.05172 0.02391 0.08405 0.0
N1679 N 0.07503 0.02033 0.07911 0.0
N1680 N 0.05062 0.0294 0.10748 0.0
C1681 C 0.06979 0.02838 0.11233 0.0
C1682 C 0.08309 0.02337 0.09693 0.0
C1683 C 0.20739 0.85426 0.35809 0.0
C1684 C 0.2265 0.85522 0.3506 0.0
C1685 C 0.20184 0.83994 0.3715 0.0
C1686 C 0.21511 0.82579 0.37812 0.0
H1687 H 0.19644 0.86462 0.35354 0.0
H1688 H 0.18694 0.84006 0.37674 0.0
S1689 S 0.26709 0.82186 0.36357 0.0
N1690 N 0.25887 0.84079 0.35117 0.0
N1691 N 0.24837 0.81364 0.37628 0.0
C1692 C 0.23425 0.82635 0.3707 0.0
C1693 C 0.23996 0.84108 0.35699 0.0
C1694 C 0.39769 0.96497 0.60551 0.0
C1695 C 0.40026 0.9819 0.59413 0.0
C1696 C 0.4111 0.95963 0.61994 0.0
C1697 C 0.42775 0.97097 0.62381 0.0
H1698 H 0.38532 0.95548 0.60304 0.0
H1699 H 0.4083 0.94647 0.62819 0.0
S1700 S 0.44162 0.01642 0.59784 0.0
N1701 N 0.42094 0.00975 0.58743 0.0
N1702 N 0.44627 0.99984 0.61467 0.0
C1703 C 0.43068 0.98784 0.61241 0.0
C1704 C 0.41697 0.99323 0.59755 0.0
C1705 C 0.29408 0.13829 0.8619 0.0
C1706 C 0.27788 0.14103 0.84952 0.0
C1707 C 0.29778 0.15075 0.87779 0.0
C1708 C 0.28548 0.16662 0.8822 0.0
H1709 H 0.30442 0.12672 0.85902 0.0
H1710 H 0.31067 0.14804 0.88651 0.0
S1711 S 0.24056 0.17983 0.85495 0.0
N1712 N 0.24904 0.16054 0.84324 0.0
N1713 N 0.25596 0.184 0.873 0.0
C1714 C 0.26901 0.16937 0.87017 0.0
C1715 C 0.26527 0.15665 0.85388 0.0
C1716 C 0.09359 0.98565 0.40736 0.0
C1717 C 0.11296 0.9789 0.40576 0.0
C1718 C 0.07961 0.9816 0.3928 0.0
C1719 C 0.0844 0.97037 0.37627 0.0
H1720 H 0.08904 0.9936 0.42022 0.0
H1721 H 0.06481 0.98674 0.39482 0.0
S1722 S 0.13367 0.95176 0.36362 0.0
N1723 N 0.13663 0.9627 0.38486 0.0
N1724 N 0.1103 0.95399 0.35842 0.0
C1725 C 0.10384 0.96412 0.37421 0.0
C1726 C 0.11812 0.96867 0.38869 0.0
C1727 C 0.28949 0.85348 0.61756 0.0
C1728 C 0.28401 0.83374 0.61851 0.0
C1729 C 0.28501 0.86654 0.63266 0.0
C1730 C 0.27512 0.86045 0.64961 0.0
H1731 H 0.29741 0.85893 0.60503 0.0
H1732 H 0.28957 0.88157 0.6311 0.0
S1733 S 0.25759 0.81012 0.6593 0.0
N1734 N 0.26777 0.80871 0.63752 0.0
N1735 N 0.25991 0.83308 0.66626 0.0
C1736 C 0.26919 0.84078 0.65058 0.0
C1737 C 0.27353 0.82749 0.63498 0.0
C1738 C 0.42099 0.0546 0.89017 0.0
C1739 C 0.41775 0.04805 0.87096 0.0
C1740 C 0.40897 0.04846 0.90569 0.0
C1741 C 0.39312 0.03578 0.90249 0.0
H1742 H 0.43306 0.06432 0.89324 0.0
H1743 H 0.41176 0.05406 0.92019 0.0
S1744 S 0.37829 0.01487 0.85483 0.0
N1745 N 0.3977 0.02818 0.84965 0.0
N1746 N 0.37477 0.01721 0.87856 0.0
C1747 C 0.38971 0.02931 0.8833 0.0
C1748 C 0.40214 0.03525 0.86762 0.0
C1749 C 0.23977 0.14892 0.14337 0.0
C1750 C 0.22481 0.13996 0.15426 0.0
C1751 C 0.23551 0.16157 0.12767 0.0
C1752 C 0.21613 0.16562 0.12214 0.0
H1753 H 0.25487 0.14588 0.14681 0.0
H1754 H 0.24749 0.16803 0.11967 0.0
S1755 S 0.17164 0.14802 0.14751 0.0
N1756 N 0.18981 0.13785 0.15954 0.0
N1757 N 0.18189 0.16075 0.12989 0.0
C1758 C 0.20109 0.15709 0.13321 0.0
C1759 C 0.20539 0.14451 0.14928 0.0
C1760 C 0.11622 0.08956 0.02428 0.0
C1761 C 0.11672 0.08146 0.04315 0.0
C1762 C 0.1019 0.10335 0.01906 0.0
C1763 C 0.08767 0.10936 0.03255 0.0
H1764 H 0.12754 0.08602 0.01384 0.0
H1765 H 0.10254 0.1101 0.00482 0.0
S1766 S 0.08044 0.08994 0.08243 0.0
N1767 N 0.10015 0.07865 0.07438 0.0
N1768 N 0.0734 0.10438 0.06452 0.0
C1769 C 0.08723 0.10034 0.05091 0.0
C1770 C 0.10172 0.08643 0.05622 0.0
C1771 C 0.62439 0.41919 0.98852 0.0
C1772 C 0.62826 0.42457 0.96907 0.0
C1773 C 0.60963 0.40551 0.99302 0.0
C1774 C 0.59823 0.3969 0.97823 0.0
H1775 H 0.63325 0.42502 1.00022 0.0
H1776 H 0.60754 0.40117 0.00804 0.0
S1777 S 0.60023 0.40892 0.92551 0.0
N1778 N 0.61797 0.42189 0.9353 0.0
N1779 N 0.59017 0.3969 0.94374 0.0
C1780 C 0.60126 0.40314 0.95893 0.0
C1781 C 0.61629 0.41678 0.95437 0.0
C1782 C 0.85925 0.3816 0.20815 0.0
C1783 C 0.84129 0.38169 0.21813 0.0
C1784 C 0.87308 0.36672 0.21101 0.0
C1785 C 0.86958 0.35102 0.22382 0.0
H1786 H 0.86264 0.39311 0.1979 0.0
H1787 H 0.88665 0.36753 0.20301 0.0
S1788 S 0.82444 0.34398 0.253 0.0
N1789 N 0.82069 0.36468 0.24132 0.0
N1790 N 0.84631 0.33646 0.2463 0.0
C1791 C 0.85169 0.35102 0.23403 0.0
C1792 C 0.83768 0.36636 0.23127 0.0
C1793 C 0.87654 0.59044 0.48815 0.0
C1794 C 0.86867 0.58924 0.46918 0.0
C1795 C 0.89249 0.60274 0.49243 0.0
C1796 C 0.90133 0.61429 0.47792 0.0
H1797 H 0.87035 0.58178 0.4998 0.0
H1798 H 0.89787 0.60331 0.50725 0.0
S1799 S 0.88735 0.61515 0.42552 0.0
N1800 N 0.87151 0.60019 0.43563 0.0
N1801 N 0.9017 0.62245 0.44338 0.0
C1802 C 0.89379 0.61291 0.45881 0.0
C1803 C 0.87744 0.60063 0.45454 0.0
C1804 C 0.16777 0.14998 0.23765 0.0
C1805 C 0.14847 0.14961 0.23062 0.0
C1806 C 0.18113 0.13514 0.23277 0.0
C1807 C 0.17572 0.11961 0.22046 0.0
H1808 H 0.17273 0.16212 0.24644 0.0
H1809 H 0.19594 0.13619 0.23814 0.0
S1810 S 0.1262 0.11039 0.20058 0.0
N1811 N 0.12404 0.13092 0.21294 0.0
N1812 N 0.1493 0.10403 0.20268 0.0
C1813 C 0.1563 0.11877 0.21392 0.0
C1814 C 0.14264 0.1335 0.2193 0.0
C1815 C 0.39308 0.90007 0.52189 0.0
C1816 C 0.41217 0.90155 0.5292 0.0
C1817 C 0.37826 0.91261 0.52837 0.0
C1818 C 0.38185 0.92661 0.54291 0.0
H1819 H 0.38958 0.88886 0.51131 0.0
H1820 H 0.36374 0.91098 0.52234 0.0
S1821 S 0.42938 0.93685 0.56643 0.0
N1822 N 0.43399 0.91858 0.55136 0.0
N1823 N 0.40594 0.9418 0.56393 0.0
C1824 C 0.40086 0.92838 0.55027 0.0
C1825 C 0.41609 0.91593 0.54331 0.0
C1826 C 0.85999 0.61831 0.29214 0.0
C1827 C 0.84126 0.61758 0.28378 0.0
C1828 C 0.87322 0.6333 0.28755 0.0
C1829 C 0.8683 0.64848 0.27455 0.0
H1830 H 0.86447 0.60724 0.30246 0.0
H1831 H 0.88742 0.63306 0.29443 0.0
S1832 S 0.82083 0.65357 0.24894 0.0
N1833 N 0.81848 0.63331 0.2617 0.0
N1834 N 0.84301 0.66172 0.25352 0.0
C1835 C 0.84967 0.64776 0.26585 0.0
C1836 C 0.83626 0.63231 0.27037 0.0
C1837 C 0.64916 0.35807 0.79562 0.0
C1838 C 0.64826 0.35028 0.7766 0.0
C1839 C 0.6635 0.37149 0.80108 0.0
C1840 C 0.67772 0.37795 0.78783 0.0
H1841 H 0.63883 0.35371 0.80664 0.0
H1842 H 0.66335 0.37684 0.81595 0.0
S1843 S 0.68156 0.36314 0.73591 0.0
N1844 N 0.66264 0.35076 0.74419 0.0
N1845 N 0.68979 0.37598 0.75457 0.0
C1846 C 0.67708 0.37048 0.7687 0.0
C1847 C 0.66235 0.35669 0.76308 0.0
C1848 C 0.5433 0.61078 0.61304 0.0
C1849 C 0.52412 0.60341 0.61445 0.0
C1850 C 0.54805 0.62629 0.60057 0.0
C1851 C 0.53392 0.63526 0.58872 0.0
H1852 H 0.55499 0.60434 0.62139 0.0
H1853 H 0.56311 0.631 0.59995 0.0
S1854 S 0.48125 0.62281 0.58762 0.0
N1855 N 0.49062 0.60735 0.6035 0.0
N1856 N 0.49966 0.63618 0.57975 0.0
C1857 C 0.51462 0.62833 0.59007 0.0
C1858 C 0.50971 0.61253 0.60295 0.0
C1859 C 0.63474 0.2706 0.83104 0.0
C1860 C 0.63073 0.29023 0.82653 0.0
C1861 C 0.64861 0.26562 0.8454 0.0
C1862 C 0.65897 0.28012 0.85565 0.0
H1863 H 0.62661 0.25903 0.82397 0.0
H1864 H 0.65077 0.25041 0.84899 0.0
S1865 S 0.65623 0.33346 0.84685 0.0
N1866 N 0.6397 0.32405 0.8321 0.0
N1867 N 0.66607 0.31475 0.85832 0.0
C1868 C 0.65587 0.2997 0.85039 0.0
C1869 C 0.64167 0.30474 0.83604 0.0
C1870 C 0.97694 0.38473 0.0831 0.0
C1871 C 0.95868 0.38676 0.07389 0.0
C1872 C 0.98372 0.39876 0.09649 0.0
C1873 C 0.97278 0.41558 0.10065 0.0
H1874 H 0.98567 0.3718 0.0806 0.0
H1875 H 0.99735 0.39625 0.10405 0.0
S1876 S 0.92468 0.4285 0.07984 0.0
N1877 N 0.93015 0.40739 0.06957 0.0
N1878 N 0.94319 0.4338 0.09431 0.0
C1879 C 0.9549 0.41815 0.09106 0.0
C1880 C 0.94779 0.40374 0.07777 0.0
C1881 C 0.85734 0.70699 0.35294 0.0
C1882 C 0.84914 0.72575 0.35431 0.0
C1883 C 0.87169 0.7026 0.33914 0.0
C1884 C 0.8785 0.71674 0.32595 0.0
H1885 H 0.85279 0.69559 0.36285 0.0
H1886 H 0.87772 0.68799 0.33906 0.0
S1887 S 0.86093 0.76784 0.32265 0.0
N1888 N 0.84815 0.75838 0.34076 0.0
N1889 N 0.87518 0.75017 0.31453 0.0
C1890 C 0.86986 0.73538 0.32656 0.0
C1891 C 0.85515 0.73987 0.34077 0.0
C1892 C 0.54825 0.39909 0.89991 0.0
C1893 C 0.52941 0.40716 0.89829 0.0
C1894 C 0.55259 0.38476 0.91376 0.0
C1895 C 0.53849 0.37804 0.92702 0.0
H1896 H 0.55991 0.40387 0.89045 0.0
H1897 H 0.56723 0.37885 0.91398 0.0
S1898 S 0.48678 0.39388 0.9289 0.0
N1899 N 0.4963 0.40681 0.91097 0.0
N1900 N 0.50472 0.38035 0.93755 0.0
C1901 C 0.51963 0.38606 0.92583 0.0
C1902 C 0.51506 0.40053 0.91142 0.0
C1903 C 0.87408 0.30136 0.15893 0.0
C1904 C 0.88457 0.28626 0.16799 0.0
C1905 C 0.85912 0.29741 0.14554 0.0
C1906 C 0.85412 0.27816 0.14032 0.0
H1907 H 0.87738 0.31645 0.1623 0.0
H1908 H 0.85133 0.30964 0.13933 0.0
S1909 S 0.87813 0.23334 0.15896 0.0
N1910 N 0.88934 0.25128 0.1705 0.0
N1911 N 0.86162 0.24379 0.14488 0.0
C1912 C 0.8646 0.26287 0.14923 0.0
C1913 C 0.87972 0.26694 0.16313 0.0
C1914 C 0.98243 0.61538 0.43099 0.0
C1915 C 0.96553 0.627 0.42913 0.0
C1916 C 0.98667 0.6004 0.41751 0.0
C1917 C 0.97423 0.59659 0.40166 0.0
H1918 H 0.99258 0.61802 0.44279 0.0
H1919 H 0.99996 0.59205 0.41919 0.0
S1920 S 0.92744 0.62176 0.39096 0.0
N1921 N 0.93594 0.63293 0.41048 0.0
N1922 N 0.94356 0.6047 0.38581 0.0
C1923 C 0.957 0.60768 0.40007 0.0
C1924 C 0.95275 0.62289 0.41361 0.0
C1925 C 0.63808 0.69375 0.66161 0.0
C1926 C 0.62614 0.70806 0.6702 0.0
C1927 C 0.65347 0.69877 0.64918 0.0
C1928 C 0.65763 0.71835 0.64465 0.0
H1929 H 0.63556 0.67842 0.66446 0.0
H1930 H 0.66218 0.68715 0.64299 0.0
S1931 S 0.63086 0.76153 0.66323 0.0
N1932 N 0.6197 0.7428 0.67347 0.0
N1933 N 0.64856 0.7522 0.6498 0.0
C1934 C 0.64607 0.73289 0.65336 0.0
C1935 C 0.63034 0.72776 0.66616 0.0
C1936 C 0.57623 0.51768 0.61936 0.0
C1937 C 0.57243 0.53714 0.62479 0.0
C1938 C 0.58995 0.51323 0.6047 0.0
C1939 C 0.6002 0.52811 0.59499 0.0
H1940 H 0.56916 0.50582 0.62701 0.0
H1941 H 0.59313 0.49811 0.60145 0.0
S1942 S 0.59288 0.58136 0.60148 0.0
N1943 N 0.57838 0.57131 0.6178 0.0
N1944 N 0.60359 0.56303 0.59011 0.0
C1945 C 0.59555 0.54759 0.59951 0.0
C1946 C 0.58183 0.55207 0.61445 0.0
C1947 C 0.71406 0.3475 0.88298 0.0
C1948 C 0.72009 0.32794 0.88192 0.0
C1949 C 0.7195 0.36109 0.86875 0.0
C1950 C 0.73091 0.35572 0.85249 0.0
H1951 H 0.70496 0.3524 0.89493 0.0
H1952 H 0.71449 0.37597 0.87043 0.0
S1953 S 0.75041 0.30612 0.84282 0.0
N1954 N 0.73847 0.30383 0.86361 0.0
N1955 N 0.74814 0.32921 0.83637 0.0
C1956 C 0.73738 0.33623 0.85143 0.0
C1957 C 0.73208 0.32239 0.86622 0.0
C1958 C 0.90882 0.48149 0.1046 0.0
C1959 C 0.88912 0.47577 0.10591 0.0
C1960 C 0.92261 0.47544 0.11855 0.0
C1961 C 0.91725 0.46324 0.13412 0.0
H1962 H 0.91375 0.49008 0.09233 0.0
H1963 H 0.93772 0.4797 0.11673 0.0
S1964 S 0.86729 0.44661 0.14602 0.0
N1965 N 0.86471 0.45926 0.12571 0.0
N1966 N 0.8908 0.44719 0.15117 0.0
C1967 C 0.89758 0.45807 0.13608 0.0
C1968 C 0.88348 0.46453 0.12218 0.0
C1969 C 0.81106 0.64804 0.35352 0.0
C1970 C 0.79165 0.64292 0.3491 0.0
C1971 C 0.81554 0.66109 0.36869 0.0
C1972 C 0.80084 0.66968 0.38018 0.0
H1973 H 0.82294 0.64203 0.34502 0.0
H1974 H 0.83072 0.66458 0.3713 0.0
S1975 S 0.74773 0.66022 0.37559 0.0
N1976 N 0.75764 0.64684 0.35817 0.0
N1977 N 0.766 0.67151 0.3865 0.0
C1978 C 0.78136 0.66462 0.37604 0.0
C1979 C 0.77679 0.65125 0.36057 0.0
C1980 C 0.61447 0.46321 0.88948 0.0
C1981 C 0.61006 0.47584 0.90512 0.0
C1982 C 0.6006 0.4585 0.87521 0.0
C1983 C 0.58174 0.4665 0.87563 0.0
H1984 H 0.62883 0.45679 0.88819 0.0
H1985 H 0.60478 0.44857 0.86365 0.0
S1986 S 0.56227 0.50005 0.91335 0.0
N1987 N 0.58497 0.4959 0.92025 0.0
N1988 N 0.55919 0.48763 0.89294 0.0
C1989 C 0.57711 0.47944 0.89088 0.0
C1990 C 0.59118 0.484 0.90569 0.0
C1991 C 0.80363 0.3511 0.15217 0.0
C1992 C 0.78493 0.35504 0.15974 0.0
C1993 C 0.80636 0.33817 0.13655 0.0
C1994 C 0.79059 0.32834 0.12785 0.0
H1995 H 0.81635 0.35809 0.15834 0.0
H1996 H 0.82106 0.33588 0.13122 0.0
S1997 S 0.73861 0.33335 0.14178 0.0
N1998 N 0.75024 0.34804 0.15694 0.0
N1999 N 0.75557 0.32328 0.12795 0.0
C2000 C 0.77185 0.3317 0.13545 0.0
C2001 C 0.76898 0.34513 0.15129 0.0
C2002 C 0.89721 0.55755 0.40464 0.0
C2003 C 0.89303 0.53805 0.40951 0.0
C2004 C 0.9099 0.5623 0.38933 0.0
C2005 C 0.91913 0.54778 0.3781 0.0
H2006 H 0.89062 0.56934 0.4128 0.0
H2007 H 0.9124 0.57757 0.3863 0.0
S2008 S 0.91293 0.49437 0.38449 0.0
N2009 N 0.89897 0.50403 0.4016 0.0
N2010 N 0.92305 0.5129 0.37292 0.0
C2011 C 0.91524 0.52816 0.38285 0.0
C2012 C 0.90221 0.52331 0.39852 0.0
C2013 C 0.71004 0.64884 0.62138 0.0
C2014 C 0.71924 0.66719 0.62107 0.0
C2015 C 0.71372 0.63527 0.63626 0.0
C2016 C 0.72662 0.63945 0.65172 0.0
H2017 H 0.6998 0.6449 0.61001 0.0
H2018 H 0.70631 0.62135 0.63563 0.0
S2019 S 0.75397 0.6858 0.65815 0.0
N2020 N 0.7418 0.68891 0.63762 0.0
N2021 N 0.74832 0.66371 0.66587 0.0
C2022 C 0.73605 0.65774 0.65153 0.0
C2023 C 0.73244 0.67151 0.63618 0.0
C2024 C 0.62005 0.59355 0.55742 0.0
C2025 C 0.62675 0.5812 0.54245 0.0
C2026 C 0.60495 0.607 0.55431 0.0
C2027 C 0.59603 0.60917 0.53591 0.0
H2028 H 0.62635 0.59269 0.57186 0.0
H2029 H 0.60014 0.61561 0.56662 0.0
S2030 S 0.60962 0.58168 0.49114 0.0
N2031 N 0.62394 0.57259 0.50821 0.0
N2032 N 0.59625 0.5985 0.50203 0.0
C2033 C 0.603 0.59727 0.52059 0.0
C2034 C 0.6182 0.58324 0.52391 0.0
C2035 C 0.11844 0.91392 0.45472 0.0
C2036 C 0.12749 0.92449 0.46978 0.0
C2037 C 0.10349 0.90057 0.45859 0.0
C2038 C 0.09702 0.89694 0.47774 0.0
H2039 H 0.12294 0.91594 0.43972 0.0
H2040 H 0.09697 0.89299 0.44637 0.0
S2041 S 0.11597 0.92076 0.52249 0.0
N2042 N 0.12873 0.9307 0.50466 0.0
N2043 N 0.10089 0.90517 0.512 0.0
C2044 C 0.10571 0.90765 0.49297 0.0
C2045 C 0.12089 0.92148 0.48898 0.0
C2046 C 0.34351 0.84845 0.72361 0.0
C2047 C 0.36229 0.85011 0.7154 0.0
C2048 C 0.32931 0.86304 0.72086 0.0
C2049 C 0.33327 0.87968 0.70956 0.0
H2050 H 0.33961 0.83557 0.73183 0.0
H2051 H 0.31496 0.861 0.72714 0.0
S2052 S 0.38088 0.89245 0.68716 0.0
N2053 N 0.38464 0.87109 0.69752 0.0
N2054 N 0.35779 0.8977 0.69139 0.0
C2055 C 0.35213 0.88178 0.70176 0.0
C2056 C 0.36667 0.86722 0.70492 0.0
C2057 C 0.37563 0.08567 0.97616 0.0
C2058 C 0.36716 0.08779 0.95755 0.0
C2059 C 0.39146 0.09733 0.98215 0.0
C2060 C 0.3994 0.11166 0.96982 0.0
H2061 H 0.37017 0.07473 0.98615 0.0
H2062 H 0.39741 0.09524 0.99661 0.0
S2063 S 0.38247 0.12288 0.91947 0.0
N2064 N 0.36777 0.10544 0.92693 0.0
N2065 N 0.39772 0.12673 0.93766 0.0
C2066 C 0.39105 0.11382 0.95109 0.0
C2067 C 0.3749 0.10206 0.94511 0.0
C2068 C 0.65395 0.61901 0.71928 0.0
C2069 C 0.67409 0.62232 0.72041 0.0
C2070 C 0.64051 0.63345 0.72444 0.0
C2071 C 0.64649 0.65237 0.72992 0.0
H2072 H 0.6484 0.60517 0.71414 0.0
H2073 H 0.62518 0.62985 0.72345 0.0
S2074 S 0.69799 0.66851 0.735 0.0
N2075 N 0.69967 0.64544 0.72823 0.0
N2076 N 0.67443 0.67335 0.73643 0.0
C2077 C 0.66674 0.6558 0.73149 0.0
C2078 C 0.6805 0.64065 0.72696 0.0
C2079 C 0.89637 0.40225 0.03746 0.0
C2080 C 0.90552 0.4047 0.01927 0.0
C2081 C 0.88167 0.41476 0.04381 0.0
C2082 C 0.87517 0.43044 0.03232 0.0
H2083 H 0.90058 0.39042 0.04699 0.0
H2084 H 0.87526 0.41185 0.05794 0.0
S2085 S 0.89479 0.44383 0.9837 0.0
N2086 N 0.90756 0.42437 0.98999 0.0
N2087 N 0.87953 0.44813 1.00188 0.0
C2088 C 0.88442 0.43345 0.0142 0.0
C2089 C 0.89969 0.42057 0.00772 0.0
C2090 C 0.35932 0.15145 0.80451 0.0
C2091 C 0.36361 0.15685 0.78514 0.0
C2092 C 0.34624 0.13622 0.80872 0.0
C2093 C 0.33691 0.12574 0.79375 0.0
H2094 H 0.36597 0.1592 0.81655 0.0
H2095 H 0.34337 0.13274 0.82385 0.0
S2096 S 0.34401 0.13335 0.74056 0.0
N2097 N 0.35807 0.14994 0.75089 0.0
N2098 N 0.33345 0.12152 0.75865 0.0
C2099 C 0.34118 0.13092 0.7743 0.0
C2100 C 0.35449 0.14642 0.77004 0.0
C2101 C 0.17481 0.87564 0.27144 0.0
C2102 C 0.17793 0.88 0.29129 0.0
C2103 C 0.1608 0.86167 0.26565 0.0
C2104 C 0.14953 0.85156 0.27951 0.0
H2105 H 0.18283 0.88342 0.2603 0.0
H2106 H 0.15838 0.85915 0.25025 0.0
S2107 S 0.15424 0.85548 0.33331 0.0
N2108 N 0.16975 0.87173 0.32475 0.0
N2109 N 0.14419 0.84532 0.31396 0.0
C2110 C 0.15328 0.85515 0.29937 0.0
C2111 C 0.16726 0.8694 0.30522 0.0
C2112 C 0.13759 0.05333 0.20749 0.0
C2113 C 0.14826 0.04021 0.21907 0.0
C2114 C 0.11794 0.05032 0.20351 0.0
C2115 C 0.10819 0.03388 0.2107 0.0
H2116 H 0.14457 0.06584 0.20099 0.0
H2117 H 0.11022 0.06098 0.19479 0.0
S2118 S 0.1296 0.99393 0.2397 0.0
N2119 N 0.14783 0.0094 0.23659 0.0
N2120 N 0.11048 0.00366 0.22876 0.0
C2121 C 0.11858 0.02033 0.22185 0.0
C2122 C 0.13875 0.02342 0.22601 0.0
C2123 C 0.22545 0.86213 0.47356 0.0
C2124 C 0.21794 0.85393 0.4563 0.0
C2125 C 0.22148 0.88155 0.47861 0.0
C2126 C 0.20965 0.89317 0.46666 0.0
H2127 H 0.23396 0.85325 0.48345 0.0
H2128 H 0.22713 0.88737 0.49217 0.0
S2129 S 0.18756 0.87938 0.41931 0.0
N2130 N 0.19862 0.85945 0.42694 0.0
N2131 N 0.19193 0.89599 0.43616 0.0
C2132 C 0.2028 0.8855 0.44898 0.0
C2133 C 0.20675 0.86584 0.44385 0.0
C2134 C 0.36769 0.95217 0.69705 0.0
C2135 C 0.35836 0.9603 0.71334 0.0
C2136 C 0.38684 0.95707 0.69254 0.0
C2137 C 0.39733 0.97034 0.70414 0.0
H2138 H 0.36006 0.942 0.68766 0.0
H2139 H 0.39361 0.94993 0.6802 0.0
S2140 S 0.37919 0.9956 0.74824 0.0
N2141 N 0.36055 0.9822 0.74097 0.0
N2142 N 0.39697 0.9916 0.73249 0.0
C2143 C 0.38808 0.97871 0.72038 0.0
C2144 C 0.36845 0.97371 0.72493 0.0
C2145 C 0.29234 0.11668 0.97711 0.0
C2146 C 0.2785 0.10564 0.96678 0.0
C2147 C 0.29066 0.13697 0.97806 0.0
C2148 C 0.27502 0.14652 0.96889 0.0
H2149 H 0.30597 0.11014 0.98166 0.0
H2150 H 0.30286 0.14529 0.98366 0.0
S2151 S 0.23146 0.12344 0.94729 0.0
N2152 N 0.24588 0.10501 0.95302 0.0
N2153 N 0.24306 0.1434 0.95424 0.0
C2154 C 0.2594 0.1354 0.96203 0.0
C2155 C 0.26093 0.11475 0.96144 0.0
C2156 C 0.12246 0.98347 0.2883 0.0
C2157 C 0.10945 0.96998 0.29625 0.0
C2158 C 0.1421 0.97851 0.28563 0.0
C2159 C 0.14918 0.95993 0.29081 0.0
H2160 H 0.11752 0.99802 0.2847 0.0
H2161 H 0.15199 0.98945 0.28002 0.0
S2162 S 0.12005 0.91957 0.31229 0.0
N2163 N 0.10427 0.93738 0.30884 0.0
N2164 N 0.14116 0.92807 0.30451 0.0
C2165 C 0.13594 0.94618 0.29839 0.0
C2166 C 0.11605 0.95124 0.30096 0.0
C2167 C 0.28926 0.86893 0.52571 0.0
C2168 C 0.2747 0.86147 0.53812 0.0
C2169 C 0.29598 0.88809 0.52793 0.0
C2170 C 0.28825 0.90011 0.54257 0.0
H2171 H 0.29729 0.85926 0.51614 0.0
H2172 H 0.309 0.89251 0.52019 0.0
S2173 S 0.24626 0.88921 0.57455 0.0
N2174 N 0.2499 0.86883 0.5622 0.0
N2175 N 0.26255 0.90493 0.56633 0.0
C2176 C 0.27154 0.89387 0.55257 0.0
C2177 C 0.26477 0.87443 0.55038 0.0
C2178 C 0.37155 0.01956 0.7935 0.0
C2179 C 0.3602 0.033 0.78283 0.0
C2180 C 0.39192 0.02081 0.79303 0.0
C2181 C 0.40099 0.03452 0.7808 0.0
H2182 H 0.36492 0.01142 0.80529 0.0
H2183 H 0.40002 0.01355 0.80443 0.0
S2184 S 0.37744 0.06027 0.73967 0.0
N2185 N 0.35914 0.05206 0.753 0.0
N2186 N 0.39753 0.05227 0.75028 0.0
C2187 C 0.38976 0.04202 0.76532 0.0
C2188 C 0.36906 0.04175 0.76666 0.0
C2189 C 0.23701 0.13144 0.04809 0.0
C2190 C 0.22741 0.14448 0.03557 0.0
C2191 C 0.23137 0.11186 0.04881 0.0
C2192 C 0.21559 0.10527 0.03752 0.0
H2193 H 0.2467 0.13695 0.05928 0.0
H2194 H 0.23646 0.1031 0.06091 0.0
S2195 S 0.19306 0.13079 0.99598 0.0
N2196 N 0.20713 0.14731 0.00643 0.0
N2197 N 0.19634 0.11053 0.00851 0.0
C2198 C 0.20989 0.1166 0.02162 0.0
C2199 C 0.21563 0.13652 0.02066 0.0
C2200 C 0.03469 0.23244 0.1444 0.0
C2201 C 0.05046 0.22225 0.15261 0.0
C2202 C 0.02898 0.229 0.12506 0.0
C2203 C 0.03869 0.21502 0.1137 0.0
H2204 H 0.0266 0.24284 0.15313 0.0
H2205 H 0.01674 0.23695 0.11905 0.0
S2206 S 0.08096 0.18464 0.12829 0.0
N2207 N 0.07547 0.19746 0.14789 0.0
N2208 N 0.06535 0.19175 0.11147 0.0
C2209 C 0.05474 0.2051 0.12161 0.0
C2210 C 0.06046 0.2085 0.14114 0.0
C2211 C 0.52416 0.287 0.8845 0.0
C2212 C 0.53107 0.30382 0.894 0.0
C2213 C 0.52928 0.28301 0.86513 0.0
C2214 C 0.54139 0.29574 0.85461 0.0
H2215 H 0.5158 0.27629 0.89252 0.0
H2216 H 0.52472 0.26933 0.85867 0.0
S2217 S 0.56228 0.34252 0.87233 0.0
N2218 N 0.54972 0.33394 0.8909 0.0
N2219 N 0.55917 0.32648 0.85471 0.0
C2220 C 0.54718 0.31334 0.86346 0.0
C2221 C 0.54204 0.31738 0.88313 0.0
C2222 C 0.97188 0.29955 0.11092 0.0
C2223 C 0.95618 0.29268 0.09977 0.0
C2224 C 0.9755 0.29178 0.12943 0.0
C2225 C 0.96343 0.27703 0.13709 0.0
H2226 H 0.97948 0.31268 0.10658 0.0
H2227 H 0.9859 0.29921 0.13869 0.0
S2228 S 0.92485 0.25019 0.11071 0.0
N2229 N 0.93194 0.26732 0.09534 0.0
N2230 N 0.93875 0.25267 0.13022 0.0
C2231 C 0.9502 0.2678 0.12456 0.0
C2232 C 0.94655 0.27568 0.10579 0.0
C2233 C 0.94918 0.70399 0.36972 0.0
C2234 C 0.95964 0.7185 0.35965 0.0
C2235 C 0.95426 0.69859 0.38863 0.0
C2236 C 0.97005 0.70741 0.39823 0.0
H2237 H 0.93719 0.69637 0.36287 0.0
H2238 H 0.94551 0.68768 0.39592 0.0
S2239 S 0.00263 0.74538 0.37837 0.0
N2240 N 0.98673 0.74137 0.36074 0.0
N2241 N 0.99647 0.73074 0.39642 0.0
C2242 C 0.98077 0.72173 0.38842 0.0
C2243 C 0.97556 0.72734 0.3691 0.0
C2244 C 0.4804 0.79771 0.61139 0.0
C2245 C 0.46929 0.78439 0.60045 0.0
C2246 C 0.48226 0.79544 0.63154 0.0
C2247 C 0.4731 0.77981 0.64109 0.0
H2248 H 0.4851 0.81136 0.60503 0.0
H2249 H 0.48848 0.80733 0.63987 0.0
S2250 S 0.44959 0.73728 0.61786 0.0
N2251 N 0.45484 0.75204 0.59958 0.0
N2252 N 0.45764 0.74823 0.63777 0.0
C2253 C 0.46543 0.76462 0.62987 0.0
C2254 C 0.4639 0.76672 0.60933 0.0
C2255 C 0.61228 0.55397 0.70824 0.0
C2256 C 0.60401 0.53558 0.71185 0.0
C2257 C 0.63133 0.55823 0.71391 0.0
C2258 C 0.64294 0.5443 0.72352 0.0
H2259 H 0.6046 0.56477 0.69971 0.0
H2260 H 0.63735 0.57201 0.70927 0.0
S2261 S 0.62694 0.49512 0.73919 0.0
N2262 N 0.60787 0.50419 0.72766 0.0
N2263 N 0.64385 0.51226 0.73863 0.0
C2264 C 0.63429 0.52643 0.72864 0.0
C2265 C 0.61483 0.52204 0.72271 0.0
C2266 C 0.70683 0.38681 0.95044 0.0
C2267 C 0.71268 0.39546 0.96801 0.0
C2268 C 0.71121 0.36742 0.94641 0.0
C2269 C 0.72158 0.35593 0.95988 0.0
H2270 H 0.69842 0.39505 0.93992 0.0
H2271 H 0.70543 0.36114 0.93314 0.0
S2272 S 0.74171 0.37255 0.00718 0.0
N2273 N 0.73057 0.39198 0.99829 0.0
N2274 N 0.73879 0.35504 0.99084 0.0
C2275 C 0.72835 0.36473 0.97711 0.0
C2276 C 0.72396 0.38465 0.98113 0.0
C2277 C 0.87139 0.46009 0.24015 0.0
C2278 C 0.85911 0.46771 0.22575 0.0
C2279 C 0.89152 0.45931 0.23717 0.0
C2280 C 0.89969 0.46534 0.21934 0.0
H2281 H 0.86521 0.45283 0.25273 0.0
H2282 H 0.90035 0.45132 0.24754 0.0
S2283 S 0.87398 0.49142 0.1796 0.0
N2284 N 0.85673 0.48564 0.19533 0.0
N2285 N 0.89451 0.4835 0.18931 0.0
C2286 C 0.8879 0.47601 0.20641 0.0
C2287 C 0.86747 0.47717 0.20965 0.0
C2288 C 0.79021 0.6224 0.4886 0.0
C2289 C 0.78246 0.61036 0.47406 0.0
C2290 C 0.79135 0.64253 0.4859 0.0
C2291 C 0.78629 0.65088 0.46787 0.0
H2292 H 0.79723 0.61599 0.5012 0.0
H2293 H 0.79933 0.65106 0.49654 0.0
S2294 S 0.76084 0.62607 0.42719 0.0
N2295 N 0.76542 0.60859 0.44308 0.0
N2296 N 0.76911 0.64635 0.43721 0.0
C2297 C 0.7757 0.63946 0.45456 0.0
C2298 C 0.77375 0.61904 0.45771 0.0
C2299 C 0.64139 0.47374 0.78328 0.0
C2300 C 0.64928 0.4552 0.78731 0.0
C2301 C 0.62162 0.47774 0.78653 0.0
C2302 C 0.60926 0.4633 0.79383 0.0
H2303 H 0.65075 0.4854 0.77824 0.0
H2304 H 0.61609 0.4923 0.78397 0.0
S2305 S 0.62181 0.41233 0.80616 0.0
N2306 N 0.64251 0.42216 0.79887 0.0
N2307 N 0.60536 0.42976 0.80409 0.0
C2308 C 0.61657 0.44456 0.79715 0.0
C2309 C 0.63661 0.44045 0.79406 0.0
C2310 C 0.77379 0.37467 0.05715 0.0
C2311 C 0.77928 0.35962 0.0444 0.0
C2312 C 0.77806 0.39411 0.05278 0.0
C2313 C 0.78789 0.39908 0.03552 0.0
H2314 H 0.76685 0.37124 0.0709 0.0
H2315 H 0.77444 0.40531 0.06333 0.0
S2316 S 0.80547 0.36514 0.99735 0.0
N2317 N 0.79503 0.35099 0.01375 0.0
N2318 N 0.80275 0.38763 0.00552 0.0
C2319 C 0.79273 0.38429 0.02227 0.0
C2320 C 0.78853 0.36449 0.02674 0.0
C2321 C 0.87233 0.54317 0.26403 0.0
C2322 C 0.86023 0.53304 0.27702 0.0
C2323 C 0.89191 0.54645 0.26859 0.0
C2324 C 0.89969 0.53991 0.28638 0.0
H2325 H 0.86599 0.55087 0.2518 0.0
H2326 H 0.90011 0.55659 0.2597 0.0
S2327 S 0.8758 0.50681 0.32163 0.0
N2328 N 0.85877 0.51182 0.3054 0.0
N2329 N 0.89554 0.51827 0.31407 0.0
C2330 C 0.88887 0.52646 0.29732 0.0
C2331 C 0.86897 0.52299 0.29262 0.0
C2332 C 0.69871 0.63847 0.53825 0.0
C2333 C 0.71808 0.64475 0.53739 0.0
C2334 C 0.6941 0.61881 0.53629 0.0
C2335 C 0.70878 0.60472 0.53329 0.0
H2336 H 0.6872 0.64878 0.54157 0.0
H2337 H 0.67906 0.61472 0.53853 0.0
S2338 S 0.76155 0.61497 0.52688 0.0
N2339 N 0.75181 0.63649 0.53157 0.0
N2340 N 0.7433 0.59928 0.52658 0.0
C2341 C 0.72811 0.61129 0.53064 0.0
C2342 C 0.73275 0.63139 0.53307 0.0
C2343 C 0.54866 0.73026 0.63707 0.0
C2344 C 0.5356 0.71979 0.64884 0.0
C2345 C 0.5456 0.73143 0.61694 0.0
C2346 C 0.52932 0.72236 0.60834 0.0
H2347 H 0.56275 0.73454 0.64276 0.0
H2348 H 0.55727 0.737 0.60789 0.0
S2349 S 0.48759 0.70022 0.63406 0.0
N2350 N 0.5032 0.70588 0.65153 0.0
N2351 N 0.49768 0.7076 0.61348 0.0
C2352 C 0.51446 0.71548 0.62043 0.0
C2353 C 0.51742 0.71465 0.64091 0.0
C2354 C 0.02396 0.78973 0.38255 0.0
C2355 C 0.03911 0.79439 0.39531 0.0
C2356 C 0.02766 0.78704 0.36266 0.0
C2357 C 0.04657 0.78941 0.35491 0.0
H2358 H 0.00915 0.78873 0.38794 0.0
H2359 H 0.01549 0.78379 0.35314 0.0
S2360 S 0.0912 0.80144 0.38356 0.0
N2361 N 0.07354 0.80041 0.39984 0.0
N2362 N 0.08074 0.79661 0.36244 0.0
C2363 C 0.06196 0.7936 0.36799 0.0
C2364 C 0.05813 0.79589 0.3882 0.0
C2365 C 0.47699 0.23137 0.87232 0.0
C2366 C 0.46792 0.21844 0.8594 0.0
C2367 C 0.4798 0.22611 0.89185 0.0
C2368 C 0.4735 0.20785 0.89892 0.0
H2369 H 0.48108 0.24582 0.86748 0.0
H2370 H 0.48608 0.23671 0.90173 0.0
S2371 S 0.45072 0.16832 0.8694 0.0
N2372 N 0.45461 0.1862 0.85386 0.0
N2373 N 0.45882 0.17642 0.89054 0.0
C2374 C 0.46548 0.1944 0.88555 0.0
C2375 C 0.46294 0.19971 0.86576 0.0
C2376 C 0.06821 0.12545 0.22065 0.0
C2377 C 0.06332 0.14467 0.21531 0.0
C2378 C 0.05959 0.10933 0.21145 0.0
C2379 C 0.04558 0.11174 0.19664 0.0
H2380 H 0.07935 0.12277 0.23151 0.0
H2381 H 0.06426 0.09486 0.21572 0.0
S2382 S 0.02688 0.15902 0.17789 0.0
N2383 N 0.04286 0.16514 0.19478 0.0
N2384 N 0.02672 0.13497 0.17753 0.0
C2385 C 0.04002 0.13088 0.19165 0.0
C2386 C 0.04886 0.14729 0.20096 0.0
C2387 C 0.12214 0.78416 0.44042 0.0
C2388 C 0.14136 0.78914 0.44556 0.0
C2389 C 0.10612 0.79325 0.44932 0.0
C2390 C 0.10865 0.80756 0.46388 0.0
H2391 H 0.1194 0.77384 0.42877 0.0
H2392 H 0.09165 0.78945 0.44425 0.0
S2393 S 0.15605 0.82432 0.4841 0.0
N2394 N 0.162 0.80818 0.46727 0.0
N2395 N 0.132 0.82517 0.48404 0.0
C2396 C 0.12779 0.81185 0.46996 0.0
C2397 C 0.1441 0.80269 0.46078 0.0
C2398 C 0.47219 0.88002 0.68802 0.0
C2399 C 0.46447 0.89851 0.69258 0.0
C2400 C 0.46331 0.86287 0.69466 0.0
C2401 C 0.44647 0.86346 0.70635 0.0
H2402 H 0.48471 0.87865 0.67849 0.0
H2403 H 0.46943 0.84902 0.69012 0.0
S2404 S 0.42147 0.90818 0.72408 0.0
N2405 N 0.43973 0.91637 0.71073 0.0
N2406 N 0.42315 0.88417 0.72335 0.0
C2407 C 0.4392 0.88185 0.71196 0.0
C2408 C 0.44816 0.89935 0.70504 0.0
C2409 C 0.37782 0.21596 0.94211 0.0
C2410 C 0.35915 0.20946 0.94764 0.0
C2411 C 0.39461 0.20953 0.95182 0.0
C2412 C 0.39346 0.19645 0.96758 0.0
H2413 H 0.37962 0.22545 0.92963 0.0
H2414 H 0.40866 0.21434 0.94644 0.0
S2415 S 0.34785 0.17651 0.98904 0.0
N2416 N 0.34039 0.19032 0.97084 0.0
N2417 N 0.37185 0.1783 0.98914 0.0
C2418 C 0.37478 0.19069 0.97396 0.0
C2419 C 0.35768 0.19713 0.96396 0.0
C2420 C 0.03795 0.88147 0.31181 0.0
C2421 C 0.04395 0.90058 0.30743 0.0
C2422 C 0.04632 0.86533 0.3025 0.0
C2423 C 0.06095 0.86759 0.28826 0.0
H2424 H 0.02732 0.87882 0.32318 0.0
H2425 H 0.04168 0.85092 0.30698 0.0
S2426 S 0.0802 0.91467 0.26974 0.0
N2427 N 0.06419 0.92095 0.28657 0.0
N2428 N 0.07994 0.8906 0.26908 0.0
C2429 C 0.06626 0.88666 0.28287 0.0
C2430 C 0.05779 0.90314 0.29245 0.0
C2431 C 0.38782 0.79594 0.53253 0.0
C2432 C 0.38834 0.81528 0.52589 0.0
C2433 C 0.37132 0.78851 0.54188 0.0
C2434 C 0.35479 0.80022 0.54506 0.0
H2435 H 0.40079 0.78695 0.5319 0.0
H2436 H 0.37205 0.77386 0.54772 0.0
S2437 S 0.34821 0.85129 0.52824 0.0
N2438 N 0.37057 0.8455 0.52137 0.0
N2439 N 0.33924 0.83159 0.53879 0.0
C2440 C 0.35451 0.81909 0.53689 0.0
C2441 C 0.37143 0.82664 0.52736 0.0
C2442 C 0.47364 0.13616 0.81839 0.0
C2443 C 0.47226 0.11796 0.80913 0.0
C2444 C 0.46488 0.15274 0.8102 0.0
C2445 C 0.45437 0.15161 0.79253 0.0
H2446 H 0.48016 0.13733 0.83273 0.0
H2447 H 0.4653 0.1662 0.81846 0.0
S2448 S 0.45046 0.10791 0.76072 0.0
N2449 N 0.46265 0.10028 0.78 0.0
N2450 N 0.44601 0.13126 0.76461 0.0
C2451 C 0.45465 0.13382 0.78227 0.0
C2452 C 0.46363 0.11702 0.79059 0.0
C2453 C 0.14211 0.19909 0.04544 0.0
C2454 C 0.1426 0.21098 0.06216 0.0
C2455 C 0.12438 0.19251 0.03756 0.0
C2456 C 0.10635 0.19734 0.04619 0.0
H2457 H 0.15557 0.19447 0.03856 0.0
H2458 H 0.12494 0.18297 0.02497 0.0
S2459 S 0.09953 0.22855 0.09002 0.0
N2460 N 0.12337 0.22778 0.08685 0.0
N2461 N 0.09018 0.21541 0.07216 0.0
C2462 C 0.10661 0.20973 0.06261 0.0
C2463 C 0.12467 0.21654 0.07055 0.0
C2464 C 0.20071 0.03975 0.14839 0.0
C2465 C 0.21345 0.05583 0.14714 0.0
C2466 C 0.19029 0.03321 0.132 0.0
C2467 C 0.19191 0.04291 0.11407 0.0
H2468 H 0.19836 0.03254 0.16223 0.0
H2469 H 0.1802 0.02117 0.13363 0.0
S2470 S 0.22412 0.08507 0.10295 0.0
N2471 N 0.22791 0.08052 0.12624 0.0
N2472 N 0.20809 0.06866 0.09575 0.0
C2473 C 0.20515 0.05854 0.11252 0.0
C2474 C 0.21601 0.06489 0.12899 0.0
C2475 C 0.21545 0.96615 0.39297 0.0
C2476 C 0.19813 0.95839 0.40071 0.0
C2477 C 0.22442 0.9575 0.37664 0.0
C2478 C 0.21597 0.94121 0.36746 0.0
H2479 H 0.22203 0.97892 0.39955 0.0
H2480 H 0.23764 0.96389 0.37083 0.0
S2481 S 0.17077 0.91562 0.38228 0.0
N2482 N 0.17322 0.93337 0.39839 0.0
N2483 N 0.18949 0.91772 0.36729 0.0
C2484 C 0.1987 0.93342 0.37515 0.0
C2485 C 0.18991 0.94187 0.39192 0.0
C2486 C 0.28211 0.95681 0.61016 0.0
C2487 C 0.30168 0.96249 0.60744 0.0
C2488 C 0.27557 0.94951 0.62803 0.0
C2489 C 0.28823 0.9478 0.64403 0.0
H2490 H 0.27193 0.95687 0.59809 0.0
H2491 H 0.26068 0.94434 0.62899 0.0
S2492 S 0.34001 0.96382 0.64565 0.0
N2493 N 0.33302 0.96822 0.62306 0.0
N2494 N 0.3207 0.95473 0.65676 0.0
C2495 C 0.30738 0.95508 0.64208 0.0
C2496 C 0.3141 0.96237 0.62377 0.0
C2497 C 0.31614 0.02081 0.86977 0.0
C2498 C 0.30707 0.02919 0.88605 0.0
C2499 C 0.3105 0.02626 0.85093 0.0
C2500 C 0.29583 0.04035 0.84808 0.0
H2501 H 0.3287 0.01139 0.87156 0.0
H2502 H 0.31883 0.02074 0.83869 0.0
S2503 S 0.2647 0.06284 0.8859 0.0
N2504 N 0.28023 0.04907 0.89809 0.0
N2505 N 0.27033 0.06003 0.86266 0.0
C2506 C 0.28541 0.04725 0.86415 0.0
C2507 C 0.29086 0.04143 0.88322 0.0
C2508 C 0.64403 0.30322 0.96026 0.0
C2509 C 0.64231 0.2902 0.94448 0.0
C2510 C 0.62752 0.31142 0.96914 0.0
C2511 C 0.60858 0.30714 0.96244 0.0
H2512 H 0.65828 0.30749 0.96557 0.0
H2513 H 0.62975 0.32181 0.98083 0.0
S2514 S 0.59602 0.273 0.92225 0.0
N2515 N 0.62007 0.27262 0.92314 0.0
N2516 N 0.58909 0.28809 0.93968 0.0
C2517 C 0.60662 0.29355 0.94714 0.0
C2518 C 0.62345 0.28506 0.93821 0.0
C2519 C 0.96219 0.35605 0.18246 0.0
C2520 C 0.95878 0.35434 0.20263 0.0
C2521 C 0.97104 0.37276 0.17474 0.0
C2522 C 0.97732 0.38792 0.18697 0.0
H2523 H 0.95655 0.34521 0.17243 0.0
H2524 H 0.97157 0.37449 0.15904 0.0
S2525 S 0.97512 0.38886 0.24091 0.0
N2526 N 0.96456 0.36808 0.2348 0.0
N2527 N 0.98193 0.39911 0.22023 0.0
C2528 C 0.97582 0.38548 0.20721 0.0
C2529 C 0.96636 0.36874 0.21508 0.0
C2530 C 0.90535 0.71445 0.44859 0.0
C2531 C 0.90242 0.70422 0.46623 0.0
C2532 C 0.8897 0.72307 0.43858 0.0
C2533 C 0.87065 0.72166 0.44585 0.0
H2534 H 0.91962 0.71481 0.44181 0.0
H2535 H 0.89232 0.72949 0.4244 0.0
S2536 S 0.8556 0.69991 0.49305 0.0
N2537 N 0.87928 0.69591 0.49182 0.0
N2538 N 0.85005 0.71181 0.47293 0.0
C2539 C 0.86781 0.7131 0.46426 0.0
C2540 C 0.88367 0.70449 0.4745 0.0
C2541 C 0.97097 0.61795 0.29403 0.0
C2542 C 0.97502 0.61769 0.31408 0.0
C2543 C 0.96179 0.63402 0.28542 0.0
C2544 C 0.95639 0.65037 0.29661 0.0
H2545 H 0.97348 0.60506 0.28523 0.0
H2546 H 0.95793 0.63313 0.27013 0.0
S2547 S 0.96597 0.6574 0.3495 0.0
N2548 N 0.97455 0.63543 0.34463 0.0
N2549 N 0.95771 0.66598 0.32858 0.0
C2550 C 0.96192 0.65088 0.31642 0.0
C2551 C 0.9711 0.6344 0.32515 0.0
C2552 C 0.53512 0.38576 0.79381 0.0
C2553 C 0.54325 0.39418 0.81065 0.0
C2554 C 0.54383 0.36934 0.78502 0.0
C2555 C 0.56052 0.36069 0.79322 0.0
H2556 H 0.52222 0.39207 0.78725 0.0
H2557 H 0.53744 0.3633 0.7719 0.0
S2558 S 0.58721 0.37736 0.83714 0.0
N2559 N 0.569 0.39295 0.8349 0.0
N2560 N 0.58479 0.36173 0.81896 0.0
C2561 C 0.56854 0.36889 0.81016 0.0
C2562 C 0.56003 0.38576 0.81875 0.0
C2563 C 0.53315 0.62218 0.6977 0.0
C2564 C 0.53917 0.60317 0.70241 0.0
C2565 C 0.5426 0.63841 0.70545 0.0
C2566 C 0.55837 0.6364 0.71836 0.0
H2567 H 0.52186 0.62469 0.68694 0.0
H2568 H 0.53808 0.65269 0.70048 0.0
S2569 S 0.57716 0.59011 0.73871 0.0
N2570 N 0.55968 0.58336 0.72355 0.0
N2571 N 0.57796 0.61418 0.73769 0.0
C2572 C 0.56341 0.61765 0.72471 0.0
C2573 C 0.55369 0.60095 0.7168 0.0
C2574 C 0.88551 0.29706 0.03195 0.0
C2575 C 0.88515 0.3171 0.02784 0.0
C2576 C 0.8702 0.2882 0.0422 0.0
C2577 C 0.85394 0.29908 0.04843 0.0
H2578 H 0.89835 0.28849 0.0286 0.0
H2579 H 0.87157 0.27296 0.04608 0.0
S2580 S 0.8453 0.35176 0.03904 0.0
N2581 N 0.86687 0.34731 0.0293 0.0
N2582 N 0.83765 0.33071 0.04787 0.0
C2583 C 0.85276 0.31886 0.04291 0.0
C2584 C 0.86854 0.32788 0.03283 0.0
C2585 C 0.62837 0.68846 0.53843 0.0
C2586 C 0.61013 0.69541 0.54476 0.0
C2587 C 0.64578 0.69627 0.54576 0.0
C2588 C 0.64567 0.71147 0.5596 0.0
H2589 H 0.62928 0.67626 0.52843 0.0
H2590 H 0.65941 0.68985 0.54101 0.0
S2591 S 0.60167 0.73645 0.57913 0.0
N2592 N 0.593 0.71958 0.56433 0.0
N2593 N 0.62562 0.7343 0.57806 0.0
C2594 C 0.62752 0.71937 0.56514 0.0
C2595 C 0.60979 0.71132 0.55775 0.0
C2596 C 0.70607 0.54695 0.61082 0.0
C2597 C 0.68965 0.53476 0.61254 0.0
C2598 C 0.71459 0.55572 0.6272 0.0
C2599 C 0.70695 0.55282 0.64602 0.0
H2600 H 0.71204 0.55034 0.5966 0.0
H2601 H 0.72675 0.56552 0.6249 0.0
S2602 S 0.66513 0.52079 0.65872 0.0
N2603 N 0.66689 0.51911 0.63477 0.0
N2604 N 0.68283 0.53559 0.66557 0.0
C2605 C 0.69115 0.53982 0.64809 0.0
C2606 C 0.68254 0.53077 0.63137 0.0
C2607 C 0.69468 0.46501 0.87791 0.0
C2608 C 0.69799 0.45812 0.89695 0.0
C2609 C 0.70373 0.45634 0.86177 0.0
C2610 C 0.71661 0.44053 0.86397 0.0
H2611 H 0.68441 0.47671 0.87527 0.0
H2612 H 0.70013 0.46177 0.84739 0.0
S2613 S 0.73158 0.4179 0.9108 0.0
N2614 N 0.71616 0.43525 0.91716 0.0
N2615 N 0.73313 0.41901 0.88681 0.0
C2616 C 0.72088 0.43411 0.88298 0.0
C2617 C 0.71157 0.44288 0.89946 0.0
C2618 C 0.79567 0.44269 0.11065 0.0
C2619 C 0.8075 0.45944 0.11111 0.0
C2620 C 0.78863 0.43427 0.12786 0.0
C2621 C 0.79342 0.4421 0.14622 0.0
H2622 H 0.7921 0.43577 0.09689 0.0
H2623 H 0.78009 0.42103 0.12674 0.0
S2624 S 0.82304 0.4865 0.15535 0.0
N2625 N 0.82289 0.48416 0.13139 0.0
N2626 N 0.80988 0.46821 0.16376 0.0
C2627 C 0.80469 0.45925 0.14686 0.0
C2628 C 0.81166 0.46796 0.1293 0.0
C2629 C 0.81061 0.5446 0.36122 0.0
C2630 C 0.79542 0.55839 0.36047 0.0
C2631 C 0.81691 0.53676 0.37899 0.0
C2632 C 0.80837 0.54249 0.39676 0.0
H2633 H 0.81822 0.5403 0.34805 0.0
H2634 H 0.82924 0.52689 0.37881 0.0
S2635 S 0.7664 0.57613 0.40271 0.0
N2636 N 0.7707 0.57595 0.37904 0.0
N2637 N 0.78263 0.56123 0.41236 0.0
C2638 C 0.7924 0.55533 0.39614 0.0
C2639 C 0.7859 0.56326 0.37803 0.0
C2640 C 0.01789 0.01485 0.27082 0.0
C2641 C 0.00429 1.0004 0.27635 0.0
C2642 C 0.01728 0.0238 0.25244 0.0
C2643 C 0.00327 0.01854 0.23845 0.0
H2644 H 0.02976 0.01884 0.28044 0.0
H2645 H 0.02843 0.03438 0.24884 0.0
S2646 S 0.96328 0.98293 0.2454 0.0
N2647 N 0.9752 0.98257 0.26633 0.0
N2648 N 0.97489 0.99871 0.2314 0.0
C2649 C 0.98932 0.0045 0.24366 0.0
C2650 C 0.98963 0.99561 0.26264 0.0
C2651 C 0.24777 0.74046 0.51207 0.0
C2652 C 0.26337 0.75345 0.51498 0.0
C2653 C 0.23822 0.73915 0.49387 0.0
C2654 C 0.24357 0.75115 0.47799 0.0
H2655 H 0.2427 0.73149 0.52402 0.0
H2656 H 0.22624 0.72898 0.49242 0.0
S2657 S 0.28277 0.78873 0.47897 0.0
N2658 N 0.28366 0.77859 0.50072 0.0
N2659 N 0.26513 0.77731 0.46727 0.0
C2660 C 0.25925 0.76421 0.48092 0.0
C2661 C 0.26924 0.76509 0.4992 0.0
C2662 C 0.49967 0.02552 0.75138 0.0
C2663 C 0.49718 0.01462 0.76864 0.0
C2664 C 0.5018 0.0165 0.73306 0.0
C2665 C 0.50086 0.99604 0.73073 0.0
H2666 H 0.49908 0.04128 0.75172 0.0
H2667 H 0.5035 0.02589 0.72051 0.0
S2668 S 0.49779 0.96045 0.77164 0.0
N2669 N 0.49754 0.98194 0.78244 0.0
N2670 N 0.49896 0.96508 0.74809 0.0
C2671 C 0.49954 0.98488 0.74803 0.0
C2672 C 0.49824 0.99411 0.76684 0.0
C2673 C 0.2689 0.23253 0.99843 0.0
C2674 C 0.26372 0.2465 0.98443 0.0
C2675 C 0.26006 0.23212 0.01686 0.0
C2676 C 0.24577 0.24592 0.0224 0.0
H2677 H 0.27938 0.22127 0.99484 0.0
H2678 H 0.26397 0.22026 0.02649 0.0
S2679 S 0.22851 0.28685 0.99132 0.0
N2680 N 0.24414 0.27501 0.9773 0.0
N2681 N 0.22814 0.2751 0.01233 0.0
C2682 C 0.24105 0.26054 0.00865 0.0
C2683 C 0.24986 0.26064 0.98963 0.0
C2684 C 0.24752 0.03036 0.98429 0.0
C2685 C 0.264 0.01921 0.98967 0.0
C2686 C 0.23042 0.03046 0.99549 0.0
C2687 C 0.22898 0.01964 0.01278 0.0
H2688 H 0.24797 0.03964 0.97153 0.0
H2689 H 0.21851 0.0398 0.99096 0.0
S2690 S 0.26724 0.98723 0.03314 0.0
N2691 N 0.27725 0.99629 0.0132 0.0
N2692 N 0.24521 0.99689 0.03454 0.0
C2693 C 0.24515 0.00822 0.01832 0.0
C2694 C 0.26261 0.00795 0.00676 0.0
C2695 C 0.243 0.00304 0.23883 0.0
C2696 C 0.25514 0.01842 0.24481 0.0
C2697 C 0.24302 0.98506 0.24856 0.0
C2698 C 0.2554 0.98145 0.2646 0.0
H2699 H 0.23272 0.00522 0.22704 0.0
H2700 H 0.23248 0.97425 0.24393 0.0
S2701 S 0.29179 0.01649 0.2844 0.0
N2702 N 0.28073 0.02876 0.26688 0.0
N2703 N 0.28165 0.99464 0.28465 0.0
C2704 C 0.26837 0.99653 0.27009 0.0
C2705 C 0.26802 0.01505 0.26035 0.0
C2706 C 0.26883 0.99763 0.49495 0.0
C2707 C 0.27163 0.99851 0.51531 0.0
C2708 C 0.25017 0.99856 0.48657 0.0
C2709 C 0.23326 1.00099 0.49804 0.0
H2710 H 0.2811 0.99529 0.4853 0.0
H2711 H 0.24905 0.99618 0.47102 0.0
S2712 S 0.23265 0.0084 0.55173 0.0
N2713 N 0.25577 0.00418 0.54658 0.0
N2714 N 0.22107 0.00785 0.53066 0.0
C2715 C 0.23601 0.004 0.51822 0.0
C2716 C 0.25503 1.0024 0.52687 0.0
C2717 C 0.26009 0.01641 0.74007 0.0
C2718 C 0.25973 0.01944 0.76041 0.0
C2719 C 0.25825 0.9977 0.73186 0.0
C2720 C 0.25557 0.98098 0.74353 0.0
H2721 H 0.26257 0.02854 0.73029 0.0
H2722 H 0.26005 0.99632 0.71624 0.0
S2723 S 0.2504 0.98094 0.79745 0.0
N2724 N 0.2549 0.00392 0.79198 0.0
N2725 N 0.24985 0.96918 0.77645 0.0
C2726 C 0.25351 0.98395 0.76378 0.0
C2727 C 0.25589 0.003 0.77221 0.0
C2728 C 0.014 0.25512 0.01643 0.0
C2729 C 0.00565 0.23807 0.00848 0.0
C2730 C 0.0036 0.27283 0.01721 0.0
C2731 C 0.98438 0.27425 0.01009 0.0
H2732 H 0.02827 0.25451 0.02318 0.0
H2733 H 0.01025 0.28516 0.0245 0.0
S2734 S 0.95706 0.23482 0.98494 0.0
N2735 N 0.97785 0.22446 0.99127 0.0
N2736 N 0.95839 0.25761 0.99265 0.0
C2737 C 0.97639 0.25767 1.00092 0.0
C2738 C 0.98697 0.23965 1.00015 0.0
C2739 C 0.52157 0.25395 0.00241 0.0
C2740 C 0.51035 0.27119 0.00303 0.0
C2741 C 0.51293 0.23533 0.00306 0.0
C2742 C 0.49248 0.23276 0.00362 0.0
H2743 H 0.53721 0.25464 1.00047 0.0
H2744 H 0.52256 0.22286 0.00245 0.0
S2745 S 0.45647 0.27319 0.00882 0.0
N2746 N 0.47777 0.28429 0.00804 0.0
N2747 N 0.46135 0.24976 0.0066 0.0
C2748 C 0.48112 0.24993 0.00543 0.0
C2749 C 0.49005 0.26891 0.00569 0.0
C2750 C 0.99562 0.25 0.26157 0.0
C2751 C 0.99097 0.26137 0.24515 0.0
C2752 C 0.01436 0.24165 0.26377 0.0
C2753 C 0.02908 0.24445 0.24964 0.0
H2754 H 0.98468 0.24739 0.27265 0.0
H2755 H 0.0173 0.23286 0.27654 0.0
S2756 S 0.02334 0.27171 0.20315 0.0
N2757 N 1.00218 0.27429 0.21428 0.0
N2758 N 0.03685 0.25846 0.21797 0.0
C2759 C 0.02433 0.25567 0.23308 0.0
C2760 C 0.00543 0.26414 0.23096 0.0
C2761 C 0.02363 0.75538 0.50501 0.0
C2762 C 0.01162 0.77209 0.50489 0.0
C2763 C 0.01583 0.73643 0.50601 0.0
C2764 C 0.99552 0.733 0.50626 0.0
H2765 H 0.03925 0.75675 0.50328 0.0
H2766 H 0.02599 0.72436 0.5058 0.0
S2767 S 0.95764 0.77188 0.50971 0.0
N2768 N 0.97843 0.7839 0.50893 0.0
N2769 N 0.9636 0.74863 0.50832 0.0
C2770 C 0.98336 0.74966 0.50748 0.0
C2771 C 0.99142 0.76901 0.50731 0.0
C2772 C 0.52002 0.75097 0.51637 0.0
C2773 C 0.51279 0.73474 0.50604 0.0
C2774 C 0.50985 0.76878 0.51676 0.0
C2775 C 0.49206 0.77116 0.50672 0.0
H2776 H 0.533 0.74951 0.52525 0.0
H2777 H 0.51536 0.78032 0.52603 0.0
S2778 S 0.46875 0.73404 0.47481 0.0
N2779 N 0.48797 0.72275 0.48391 0.0
N2780 N 0.4692 0.75634 0.48393 0.0
C2781 C 0.48553 0.75544 0.49511 0.0
C2782 C 0.49576 0.73723 0.49498 0.0
C2783 C 0.98759 0.76441 0.26474 0.0
C2784 C 0.98342 0.74886 0.25184 0.0
C2785 C 0.00544 0.77443 0.26419 0.0
C2786 C 0.02019 0.76925 0.25095 0.0
H2787 H 0.97731 0.76847 0.27601 0.0
H2788 H 0.00803 0.78585 0.27482 0.0
S2789 S 0.01672 0.73103 0.2129 0.0
N2790 N 0.99546 0.73003 0.22419 0.0
N2791 N 0.02935 0.74831 0.22398 0.0
C2792 C 0.01629 0.75412 0.23769 0.0
C2793 C 0.99789 0.74409 0.23794 0.0
C2794 C 0.48657 0.26707 0.75219 0.0
C2795 C 0.48347 0.24671 0.75211 0.0
C2796 C 0.50538 0.27517 0.75236 0.0
C2797 C 0.52229 0.26346 0.75157 0.0
H2798 H 0.47438 0.27704 0.75298 0.0
H2799 H 0.50646 0.29081 0.75417 0.0
S2800 S 0.52267 0.2095 0.74603 0.0
N2801 N 0.49945 0.21506 0.74885 0.0
N2802 N 0.53437 0.23049 0.74637 0.0
C2803 C 0.51942 0.24322 0.74906 0.0
C2804 C 0.50023 0.23483 0.74989 0.0
C2805 C 0.49988 0.48099 0.75639 0.0
C2806 C 0.49994 0.49259 0.77338 0.0
C2807 C 0.49913 0.48926 0.73765 0.0
C2808 C 0.49924 0.50967 0.73469 0.0
H2809 H 0.50145 0.46532 0.75735 0.0
H2810 H 0.49919 0.47933 0.7254 0.0
S2811 S 0.49543 0.5466 0.77454 0.0
N2812 N 0.49581 0.52549 0.78599 0.0
N2813 N 0.49725 0.54122 0.75119 0.0
C2814 C 0.49792 0.52142 0.75167 0.0
C2815 C 0.49766 0.51287 0.77079 0.0
C2816 C 0.74634 0.24061 0.0174 0.0
C2817 C 0.76255 0.25265 0.02108 0.0
C2818 C 0.73719 0.24036 0.99894 0.0
C2819 C 0.74353 0.2525 0.98353 0.0
H2820 H 0.7406 0.23148 0.02891 0.0
H2821 H 0.7248 0.2308 0.99688 0.0
S2822 S 0.78448 0.28805 0.98658 0.0
N2823 N 0.78438 0.2772 0.008 0.0
N2824 N 0.76655 0.27791 0.97417 0.0
C2825 C 0.75971 0.26471 0.98727 0.0
C2826 C 0.7693 0.26451 0.00579 0.0
C2827 C 0.9742 0.50719 0.23673 0.0
C2828 C 0.98737 0.49157 0.23505 0.0
C2829 C 0.97302 0.51839 0.25382 0.0
C2830 C 0.9851 0.51472 0.27009 0.0
H2831 H 0.96418 0.51041 0.22496 0.0
H2832 H 0.96212 0.52981 0.25439 0.0
S2833 S 0.02282 0.47599 0.27283 0.0
N2834 N 0.01312 0.47318 0.25096 0.0
N2835 N 0.01123 0.49454 0.28297 0.0
C2836 C 0.99854 0.49925 0.26853 0.0
C2837 C 0.99962 0.48767 0.25108 0.0
C2838 C 0.74869 0.73226 0.48729 0.0
C2839 C 0.76514 0.74403 0.48353 0.0
C2840 C 0.73863 0.73328 0.50514 0.0
C2841 C 0.74466 0.74593 0.52014 0.0
H2842 H 0.74409 0.7214 0.47678 0.0
H2843 H 0.7266 0.72334 0.50758 0.0
S2844 S 0.78491 0.78176 0.51719 0.0
N2845 N 0.78532 0.77061 0.49583 0.0
N2846 N 0.76699 0.77159 0.52964 0.0
C2847 C 0.76043 0.75839 0.5164 0.0
C2848 C 0.77048 0.75769 0.49807 0.0
C2849 C 0.74642 0.50341 0.52341 0.0
C2850 C 0.72945 0.50268 0.5118 0.0
C2851 C 0.7652 0.50409 0.51514 0.0
C2852 C 0.76816 0.50476 0.49476 0.0
H2853 H 0.74531 0.5045 0.53911 0.0
H2854 H 0.77747 0.50485 0.52503 0.0
S2855 S 0.72877 0.49975 0.45766 0.0
N2856 N 0.71721 0.49893 0.47872 0.0
N2857 N 0.75199 0.50264 0.46315 0.0
C2858 C 0.75135 0.50275 0.48295 0.0
C2859 C 0.73223 0.50121 0.49144 0.0
C2860 C 0.76362 0.48681 0.75056 0.0
C2861 C 0.75139 0.48262 0.7665 0.0
C2862 C 0.76269 0.50497 0.74088 0.0
C2863 C 0.7492 0.51954 0.74647 0.0
H2864 H 0.77382 0.4759 0.74541 0.0
H2865 H 0.77241 0.50746 0.7287 0.0
S2866 S 0.71254 0.51466 0.78621 0.0
N2867 N 0.725 0.49411 0.78699 0.0
N2868 N 0.72236 0.52747 0.7684 0.0
C2869 C 0.73677 0.51526 0.76233 0.0
C2870 C 0.73807 0.49703 0.77239 0.0
C2871 C 0.75369 0.51388 0.01845 0.0
C2872 C 0.7703 0.50422 0.01106 0.0
C2873 C 0.73575 0.51361 0.00845 0.0
C2874 C 0.73369 0.50384 0.99051 0.0
H2875 H 0.75427 0.52077 0.03266 0.0
H2876 H 0.72319 0.52037 0.01523 0.0
S2877 S 0.77269 0.47668 0.9645 0.0
N2878 N 0.78348 0.48503 0.98434 0.0
N2879 N 0.75004 0.48477 0.96548 0.0
C2880 C 0.75044 0.49507 0.98241 0.0
C2881 C 0.76866 0.49524 0.99266 0.0
C2882 C 0.77274 0.5144 0.24542 0.0
C2883 C 0.75921 0.51987 0.25997 0.0
C2884 C 0.77262 0.49573 0.23698 0.0
C2885 C 0.75917 0.48144 0.24282 0.0
H2886 H 0.78421 0.52431 0.24101 0.0
H2887 H 0.78369 0.49222 0.22628 0.0
S2888 S 0.71949 0.4881 0.2788 0.0
N2889 N 0.73071 0.50942 0.27846 0.0
N2890 N 0.73131 0.47404 0.26319 0.0
C2891 C 0.74522 0.48661 0.25687 0.0
C2892 C 0.74505 0.50584 0.26529 0.0
C2893 C 0.51942 0.7584 0.73201 0.0
C2894 C 0.52069 0.74008 0.74124 0.0
C2895 C 0.50209 0.76938 0.73237 0.0
C2896 C 0.48524 0.76248 0.74188 0.0
H2897 H 0.5315 0.76379 0.72339 0.0
H2898 H 0.50152 0.78281 0.72409 0.0
S2899 S 0.48165 0.71708 0.77089 0.0
N2900 N 0.50417 0.71687 0.76236 0.0
N2901 N 0.47154 0.73726 0.76249 0.0
C2902 C 0.48664 0.74484 0.75217 0.0
C2903 C 0.50434 0.73375 0.752 0.0
loop_
_geom_bond_atom_site_label_1
_geom_bond_atom_site_label_2
_geom_bond_distance
_geom_bond_site_symmetry_2
_ccdc_geom_bond_type
Co0 N4 2.148 . S
Co0 N10 2.128 . S
Co0 N20 2.194 . S
Co0 O25 2.351 . S
Co0 O26 2.155 . S
Co0 O27 2.096 . S
C1 N4 1.301 . S
C1 N5 1.328 . S
C1 H6 0.930 . S
C2 C3 1.333 . S
C2 N4 1.317 . S
C2 H7 0.930 . S
C3 C2 1.333 . S
C3 N5 1.350 . S
C3 H29 0.931 . S
N4 Co0 2.148 . S
N4 C1 1.301 . S
N4 C2 1.317 . S
N5 C1 1.328 . S
N5 C3 1.350 . S
H6 C1 0.930 . S
H7 C2 0.930 . S
C8 O9 1.224 . S
C8 O27 1.247 . S
O9 C8 1.224 . S
N10 Co0 2.128 . S
N10 C11 1.355 . S
N10 C13 1.311 . S
C11 N10 1.355 . S
C11 C12 1.384 . S
C11 H23 0.929 . S
C12 C11 1.384 . S
C12 N14 1.376 . S
C12 H30 0.913 1_455 S
C13 N10 1.311 . S
C13 N14 1.347 . S
C13 H24 0.929 . S
N14 C12 1.376 . S
N14 C13 1.347 . S
C15 C18 1.365 1_545 S
C15 N20 1.328 . S
C15 H21 0.929 . S
C16 C17 1.362 . S
C16 C19 1.378 . S
C16 H31 0.929 . S
C17 C16 1.362 . S
C17 C18 1.366 1_545 S
C18 C15 1.365 1_565 S
C18 C17 1.366 1_565 S
C18 H32 0.930 . S
C19 C16 1.378 . S
C19 N20 1.315 . S
C19 H22 0.930 . S
N20 Co0 2.194 . S
N20 C15 1.328 . S
N20 C19 1.315 . S
H21 C15 0.929 . S
H22 C19 0.930 . S
H23 C11 0.929 . S
H24 C13 0.929 . S
O25 Co0 2.351 . S
O25 C28 1.244 . S
O26 Co0 2.155 . S
O26 C28 1.240 . S
O27 Co0 2.096 . S
O27 C8 1.247 . S
C28 O25 1.244 . S
C28 O26 1.240 . S
H29 C3 0.931 . S
H30 C12 0.913 1_655 S
H31 C16 0.929 . S
H32 C18 0.930 . S
Co33 N37 2.148 . S
Co33 N43 2.128 . S
Co33 N53 2.194 . S
Co33 O58 2.351 . S
Co33 O59 2.155 . S
Co33 O60 2.096 . S
C34 N37 1.301 . S
C34 N38 1.328 . S
C34 H39 0.930 . S
C35 C36 1.333 . S
C35 N37 1.317 . S
C35 H40 0.930 . S
C36 C35 1.333 . S
C36 N38 1.350 . S
C36 H62 0.931 . S
N37 Co33 2.148 . S
N37 C34 1.301 . S
N37 C35 1.317 . S
N38 C34 1.328 . S
N38 C36 1.350 . S
H39 C34 0.930 . S
H40 C35 0.930 . S
C41 O42 1.224 . S
C41 O60 1.247 . S
O42 C41 1.224 . S
N43 Co33 2.128 . S
N43 C44 1.355 . S
N43 C46 1.311 . S
C44 N43 1.355 . S
C44 C45 1.363 . S
C44 H56 0.929 . S
C45 C44 1.363 . S
C45 N47 1.375 . S
C45 H63 0.931 . S
C46 N43 1.311 . S
C46 N47 1.347 . S
C46 H57 0.929 . S
N47 C45 1.375 . S
N47 C46 1.347 . S
C48 C51 1.365 . S
C48 N53 1.328 . S
C48 H54 0.929 . S
C49 C50 1.362 . S
C49 C52 1.378 . S
C49 H64 0.929 . S
C50 C49 1.362 . S
C50 C51 1.366 . S
C51 C48 1.365 . S
C51 C50 1.366 . S
C51 H65 0.930 . S
C52 C49 1.378 . S
C52 N53 1.315 . S
C52 H55 0.930 . S
N53 Co33 2.194 . S
N53 C48 1.328 . S
N53 C52 1.315 . S
H54 C48 0.929 . S
H55 C52 0.930 . S
H56 C44 0.929 . S
H57 C46 0.929 . S
O58 Co33 2.351 . S
O58 C61 1.244 . S
O59 Co33 2.155 . S
O59 C61 1.240 . S
O60 Co33 2.096 . S
O60 C41 1.247 . S
C61 O58 1.244 . S
C61 O59 1.240 . S
H62 C36 0.931 . S
H63 C45 0.931 . S
H64 C49 0.929 . S
H65 C51 0.930 . S
Co66 N70 2.148 . S
Co66 N76 2.128 . S
Co66 N86 2.194 . S
Co66 O91 2.351 . S
Co66 O92 2.155 . S
Co66 O93 2.096 . S
C67 N70 1.301 . S
C67 N71 1.328 . S
C67 H72 0.930 . S
C68 C69 1.333 . S
C68 N70 1.317 . S
C68 H73 0.930 . S
C69 C68 1.333 . S
C69 N71 1.350 . S
C69 H95 0.931 . S
N70 Co66 2.148 . S
N70 C67 1.301 . S
N70 C68 1.317 . S
N71 C67 1.328 . S
N71 C69 1.350 . S
H72 C67 0.930 . S
H73 C68 0.930 . S
C74 O75 1.224 . S
C74 O93 1.247 . S
O75 C74 1.224 . S
N76 Co66 2.128 . S
N76 C77 1.355 . S
N76 C79 1.311 . S
C77 N76 1.355 . S
C77 C78 1.363 . S
C77 H89 0.929 . S
C78 C77 1.363 . S
C78 N80 1.375 . S
C78 H96 0.931 . S
C79 N76 1.311 . S
C79 N80 1.347 . S
C79 H90 0.929 . S
N80 C78 1.375 . S
N80 C79 1.347 . S
C81 C84 1.365 1_565 S
C81 N86 1.328 . S
C81 H87 0.929 . S
C82 C83 1.362 . S
C82 C85 1.378 . S
C82 H97 0.929 . S
C83 C82 1.362 . S
C83 C84 1.366 1_565 S
C84 C81 1.365 1_545 S
C84 C83 1.366 1_545 S
C84 H98 0.930 . S
C85 C82 1.378 . S
C85 N86 1.315 . S
C85 H88 0.930 . S
N86 Co66 2.194 . S
N86 C81 1.328 . S
N86 C85 1.315 . S
H87 C81 0.929 . S
H88 C85 0.930 . S
H89 C77 0.929 . S
H90 C79 0.929 . S
O91 Co66 2.351 . S
O91 C94 1.244 . S
O92 Co66 2.155 . S
O92 C94 1.240 . S
O93 Co66 2.096 . S
O93 C74 1.247 . S
C94 O91 1.244 . S
C94 O92 1.240 . S
H95 C69 0.931 . S
H96 C78 0.931 . S
H97 C82 0.929 . S
H98 C84 0.930 . S
Co99 N103 2.148 . S
Co99 N109 2.128 . S
Co99 N119 2.194 . S
Co99 O124 2.351 . S
Co99 O125 2.155 . S
Co99 O126 2.096 . S
C100 N103 1.301 . S
C100 N104 1.328 . S
C100 H105 0.930 . S
C101 C102 1.333 . S
C101 N103 1.317 . S
C101 H106 0.930 . S
C102 C101 1.333 . S
C102 N104 1.350 . S
C102 H128 0.931 . S
N103 Co99 2.148 . S
N103 C100 1.301 . S
N103 C101 1.317 . S
N104 C100 1.328 . S
N104 C102 1.350 . S
H105 C100 0.930 . S
H106 C101 0.930 . S
C107 O108 1.224 . S
C107 O126 1.247 . S
O108 C107 1.224 . S
N109 Co99 2.128 . S
N109 C110 1.355 . S
N109 C112 1.311 . S
C110 N109 1.355 . S
C110 C111 1.363 . S
C110 H122 0.929 . S
C111 C110 1.363 . S
C111 N113 1.375 . S
C111 H129 0.931 . S
C112 N109 1.311 . S
C112 N113 1.347 . S
C112 H123 0.929 . S
N113 C111 1.375 . S
N113 C112 1.347 . S
C114 C117 1.365 . S
C114 N119 1.328 . S
C114 H120 0.929 . S
C115 C116 1.362 . S
C115 C118 1.378 . S
C115 H130 0.929 . S
C116 C115 1.362 . S
C116 C117 1.366 . S
C117 C114 1.365 . S
C117 C116 1.366 . S
C117 H131 0.930 . S
C118 C115 1.378 . S
C118 N119 1.315 . S
C118 H121 0.930 . S
N119 Co99 2.194 . S
N119 C114 1.328 . S
N119 C118 1.315 . S
H120 C114 0.929 . S
H121 C118 0.930 . S
H122 C110 0.929 . S
H123 C112 0.929 . S
O124 Co99 2.351 . S
O124 C127 1.244 . S
O125 Co99 2.155 . S
O125 C127 1.240 . S
O126 Co99 2.096 . S
O126 C107 1.247 . S
C127 O124 1.244 . S
C127 O125 1.240 . S
H128 C102 0.931 . S
H129 C111 0.931 . S
H130 C115 0.929 . S
H131 C117 0.930 . S
Co132 N136 2.148 . S
Co132 N142 2.128 . S
Co132 N152 2.194 . S
Co132 O157 2.351 . S
Co132 O158 2.155 . S
Co132 O159 2.096 . S
C133 N136 1.301 . S
C133 N137 1.328 . S
C133 H138 0.930 . S
C134 C135 1.333 . S
C134 N136 1.317 . S
C134 H139 0.930 . S
C135 C134 1.333 . S
C135 N137 1.350 . S
C135 H161 0.931 . S
N136 Co132 2.148 . S
N136 C133 1.301 . S
N136 C134 1.317 . S
N137 C133 1.328 . S
N137 C135 1.350 . S
H138 C133 0.930 . S
H139 C134 0.930 . S
C140 O141 1.224 . S
C140 O159 1.247 . S
O141 C140 1.224 . S
N142 Co132 2.128 . S
N142 C143 1.355 . S
N142 C145 1.311 . S
C143 N142 1.355 . S
C143 C144 1.393 . S
C143 H155 0.929 . S
C144 C143 1.393 . S
C144 N146 1.377 . S
C144 H162 0.905 1_455 S
C145 N142 1.311 . S
C145 N146 1.347 . S
C145 H156 0.929 . S
N146 C144 1.377 . S
N146 C145 1.347 . S
C147 C150 1.365 1_565 S
C147 N152 1.328 . S
C147 H153 0.929 . S
C148 C149 1.362 . S
C148 C151 1.378 . S
C148 H163 0.929 . S
C149 C148 1.362 . S
C149 C150 1.366 1_565 S
C150 C147 1.365 1_545 S
C150 C149 1.366 1_545 S
C150 H164 0.930 . S
C151 C148 1.378 . S
C151 N152 1.315 . S
C151 H154 0.930 . S
N152 Co132 2.194 . S
N152 C147 1.328 . S
N152 C151 1.315 . S
H153 C147 0.929 . S
H154 C151 0.930 . S
H155 C143 0.929 . S
H156 C145 0.929 . S
O157 Co132 2.351 . S
O157 C160 1.244 . S
O158 Co132 2.155 . S
O158 C160 1.240 . S
O159 Co132 2.096 . S
O159 C140 1.247 . S
C160 O157 1.244 . S
C160 O158 1.240 . S
H161 C135 0.931 . S
H162 C144 0.905 1_655 S
H163 C148 0.929 . S
H164 C150 0.930 . S
Co165 N169 2.148 . S
Co165 N175 2.128 . S
Co165 N185 2.194 . S
Co165 O190 2.351 . S
Co165 O191 2.155 . S
Co165 O192 2.096 . S
C166 N169 1.301 . S
C166 N170 1.328 . S
C166 H171 0.930 . S
C167 C168 1.333 . S
C167 N169 1.317 . S
C167 H172 0.930 . S
C168 C167 1.333 . S
C168 N170 1.350 . S
C168 H194 0.931 . S
N169 Co165 2.148 . S
N169 C166 1.301 . S
N169 C167 1.317 . S
N170 C166 1.328 . S
N170 C168 1.350 . S
H171 C166 0.930 . S
H172 C167 0.930 . S
C173 O174 1.224 . S
C173 O192 1.247 . S
O174 C173 1.224 . S
N175 Co165 2.128 . S
N175 C176 1.355 . S
N175 C178 1.311 . S
C176 N175 1.355 . S
C176 C177 1.363 . S
C176 H188 0.929 . S
C177 C176 1.363 . S
C177 N179 1.375 . S
C177 H195 0.931 . S
C178 N175 1.311 . S
C178 N179 1.347 . S
C178 H189 0.929 . S
N179 C177 1.375 . S
N179 C178 1.347 . S
C180 C183 1.365 . S
C180 N185 1.328 . S
C180 H186 0.929 . S
C181 C182 1.362 . S
C181 C184 1.378 . S
C181 H196 0.929 . S
C182 C181 1.362 . S
C182 C183 1.366 . S
C183 C180 1.365 . S
C183 C182 1.366 . S
C183 H197 0.930 . S
C184 C181 1.378 . S
C184 N185 1.315 . S
C184 H187 0.930 . S
N185 Co165 2.194 . S
N185 C180 1.328 . S
N185 C184 1.315 . S
H186 C180 0.929 . S
H187 C184 0.930 . S
H188 C176 0.929 . S
H189 C178 0.929 . S
O190 Co165 2.351 . S
O190 C193 1.244 . S
O191 Co165 2.155 . S
O191 C193 1.240 . S
O192 Co165 2.096 . S
O192 C173 1.247 . S
C193 O190 1.244 . S
C193 O191 1.240 . S
H194 C168 0.931 . S
H195 C177 0.931 . S
H196 C181 0.929 . S
H197 C183 0.930 . S
Co198 N202 2.148 . S
Co198 N208 2.128 . S
Co198 N218 2.194 . S
Co198 O223 2.351 . S
Co198 O224 2.155 . S
Co198 O225 2.096 . S
C199 N202 1.301 . S
C199 N203 1.328 . S
C199 H204 0.930 . S
C200 C201 1.333 . S
C200 N202 1.317 . S
C200 H205 0.930 . S
C201 C200 1.333 . S
C201 N203 1.350 . S
C201 H227 0.931 . S
N202 Co198 2.148 . S
N202 C199 1.301 . S
N202 C200 1.317 . S
N203 C199 1.328 . S
N203 C201 1.350 . S
H204 C199 0.930 . S
H205 C200 0.930 . S
C206 O207 1.224 . S
C206 O225 1.247 . S
O207 C206 1.224 . S
N208 Co198 2.128 . S
N208 C209 1.355 . S
N208 C211 1.311 . S
C209 N208 1.355 . S
C209 C210 1.363 . S
C209 H221 0.929 . S
C210 C209 1.363 . S
C210 N212 1.375 . S
C210 H228 0.931 . S
C211 N208 1.311 . S
C211 N212 1.347 . S
C211 H222 0.929 . S
N212 C210 1.375 . S
N212 C211 1.347 . S
C213 C216 1.365 1_545 S
C213 N218 1.328 . S
C213 H219 0.929 . S
C214 C215 1.362 . S
C214 C217 1.378 . S
C214 H229 0.929 . S
C215 C214 1.362 . S
C215 C216 1.366 1_545 S
C216 C213 1.365 1_565 S
C216 C215 1.366 1_565 S
C216 H230 0.930 . S
C217 C214 1.378 . S
C217 N218 1.315 . S
C217 H220 0.930 . S
N218 Co198 2.194 . S
N218 C213 1.328 . S
N218 C217 1.315 . S
H219 C213 0.929 . S
H220 C217 0.930 . S
H221 C209 0.929 . S
H222 C211 0.929 . S
O223 Co198 2.351 . S
O223 C226 1.244 . S
O224 Co198 2.155 . S
O224 C226 1.240 . S
O225 Co198 2.096 . S
O225 C206 1.247 . S
C226 O223 1.244 . S
C226 O224 1.240 . S
H227 C201 0.931 . S
H228 C210 0.931 . S
H229 C214 0.929 . S
H230 C216 0.930 . S
Co231 N235 2.148 . S
Co231 N241 2.128 . S
Co231 N251 2.194 . S
Co231 O256 2.351 . S
Co231 O257 2.155 . S
Co231 O258 2.096 . S
C232 N235 1.301 . S
C232 N236 1.328 . S
C232 H237 0.930 . S
C233 C234 1.333 . S
C233 N235 1.317 . S
C233 H238 0.930 . S
C234 C233 1.333 . S
C234 N236 1.350 . S
C234 H260 0.931 . S
N235 Co231 2.148 . S
N235 C232 1.301 . S
N235 C233 1.317 . S
N236 C232 1.328 . S
N236 C234 1.350 . S
H237 C232 0.930 . S
H238 C233 0.930 . S
C239 O240 1.224 . S
C239 O258 1.247 . S
O240 C239 1.224 . S
N241 Co231 2.128 . S
N241 C242 1.355 . S
N241 C244 1.311 . S
C242 N241 1.355 . S
C242 C243 1.363 . S
C242 H254 0.929 . S
C243 C242 1.363 . S
C243 N245 1.375 . S
C243 H261 0.931 . S
C244 N241 1.311 . S
C244 N245 1.347 . S
C244 H255 0.929 . S
N245 C243 1.375 . S
N245 C244 1.347 . S
C246 C249 1.365 . S
C246 N251 1.328 . S
C246 H252 0.929 . S
C247 C248 1.362 . S
C247 C250 1.378 . S
C247 H262 0.929 . S
C248 C247 1.362 . S
C248 C249 1.366 . S
C249 C246 1.365 . S
C249 C248 1.366 . S
C249 H263 0.930 . S
C250 C247 1.378 . S
C250 N251 1.315 . S
C250 H253 0.930 . S
N251 Co231 2.194 . S
N251 C246 1.328 . S
N251 C250 1.315 . S
H252 C246 0.929 . S
H253 C250 0.930 . S
H254 C242 0.929 . S
H255 C244 0.929 . S
O256 Co231 2.351 . S
O256 C259 1.244 . S
O257 Co231 2.155 . S
O257 C259 1.240 . S
O258 Co231 2.096 . S
O258 C239 1.247 . S
C259 O256 1.244 . S
C259 O257 1.240 . S
H260 C234 0.931 . S
H261 C243 0.931 . S
H262 C247 0.929 . S
H263 C249 0.930 . S
Co264 N268 2.148 . S
Co264 N274 2.128 . S
Co264 N284 2.194 . S
Co264 O289 2.351 . S
Co264 O290 2.155 . S
Co264 O291 2.096 . S
C265 N268 1.301 . S
C265 N269 1.328 . S
C265 H270 0.930 . S
C266 C267 1.333 . S
C266 N268 1.317 . S
C266 H271 0.930 . S
C267 C266 1.333 . S
C267 N269 1.350 . S
C267 H293 0.931 . S
N268 Co264 2.148 . S
N268 C265 1.301 . S
N268 C266 1.317 . S
N269 C265 1.328 . S
N269 C267 1.350 . S
H270 C265 0.930 . S
H271 C266 0.930 . S
C272 O273 1.224 . S
C272 O291 1.247 . S
O273 C272 1.224 . S
N274 Co264 2.128 . S
N274 C275 1.355 . S
N274 C277 1.311 . S
C275 N274 1.355 . S
C275 C276 1.384 . S
C275 H287 0.929 . S
C276 C275 1.384 . S
C276 N278 1.376 . S
C276 H294 0.913 1_545 S
C277 N274 1.311 . S
C277 N278 1.347 . S
C277 H288 0.929 . S
N278 C276 1.376 . S
N278 C277 1.347 . S
C279 C282 1.365 1_554 S
C279 N284 1.328 . S
C279 H285 0.929 . S
C280 C281 1.362 . S
C280 C283 1.378 . S
C280 H295 0.929 . S
C281 C280 1.362 . S
C281 C282 1.366 1_554 S
C282 C279 1.365 1_556 S
C282 C281 1.366 1_556 S
C282 H296 0.930 . S
C283 C280 1.378 . S
C283 N284 1.315 . S
C283 H286 0.930 . S
N284 Co264 2.194 . S
N284 C279 1.328 . S
N284 C283 1.315 . S
H285 C279 0.929 . S
H286 C283 0.930 . S
H287 C275 0.929 . S
H288 C277 0.929 . S
O289 Co264 2.351 . S
O289 C292 1.244 . S
O290 Co264 2.155 . S
O290 C292 1.240 . S
O291 Co264 2.096 . S
O291 C272 1.247 . S
C292 O289 1.244 . S
C292 O290 1.240 . S
H293 C267 0.931 . S
H294 C276 0.913 1_565 S
H295 C280 0.929 . S
H296 C282 0.930 . S
Co297 N301 2.148 . S
Co297 N307 2.128 . S
Co297 N317 2.194 . S
Co297 O322 2.351 . S
Co297 O323 2.155 . S
Co297 O324 2.096 . S
C298 N301 1.301 . S
C298 N302 1.328 . S
C298 H303 0.930 . S
C299 C300 1.333 . S
C299 N301 1.317 . S
C299 H304 0.930 . S
C300 C299 1.333 . S
C300 N302 1.350 . S
C300 H326 0.931 . S
N301 Co297 2.148 . S
N301 C298 1.301 . S
N301 C299 1.317 . S
N302 C298 1.328 . S
N302 C300 1.350 . S
H303 C298 0.930 . S
H304 C299 0.930 . S
C305 O306 1.224 . S
C305 O324 1.247 . S
O306 C305 1.224 . S
N307 Co297 2.128 . S
N307 C308 1.355 . S
N307 C310 1.311 . S
C308 N307 1.355 . S
C308 C309 1.363 . S
C308 H320 0.929 . S
C309 C308 1.363 . S
C309 N311 1.375 . S
C309 H327 0.931 . S
C310 N307 1.311 . S
C310 N311 1.347 . S
C310 H321 0.929 . S
N311 C309 1.375 . S
N311 C310 1.347 . S
C312 C315 1.365 . S
C312 N317 1.328 . S
C312 H318 0.929 . S
C313 C314 1.362 . S
C313 C316 1.378 . S
C313 H328 0.929 . S
C314 C313 1.362 . S
C314 C315 1.366 . S
C315 C312 1.365 . S
C315 C314 1.366 . S
C315 H329 0.930 . S
C316 C313 1.378 . S
C316 N317 1.315 . S
C316 H319 0.930 . S
N317 Co297 2.194 . S
N317 C312 1.328 . S
N317 C316 1.315 . S
H318 C312 0.929 . S
H319 C316 0.930 . S
H320 C308 0.929 . S
H321 C310 0.929 . S
O322 Co297 2.351 . S
O322 C325 1.244 . S
O323 Co297 2.155 . S
O323 C325 1.240 . S
O324 Co297 2.096 . S
O324 C305 1.247 . S
C325 O322 1.244 . S
C325 O323 1.240 . S
H326 C300 0.931 . S
H327 C309 0.931 . S
H328 C313 0.929 . S
H329 C315 0.930 . S
Co330 N334 2.148 . S
Co330 N340 2.128 . S
Co330 N350 2.194 . S
Co330 O355 2.351 . S
Co330 O356 2.155 . S
Co330 O357 2.096 . S
C331 N334 1.301 . S
C331 N335 1.328 . S
C331 H336 0.930 . S
C332 C333 1.333 . S
C332 N334 1.317 . S
C332 H337 0.930 . S
C333 C332 1.333 . S
C333 N335 1.350 . S
C333 H359 0.931 . S
N334 Co330 2.148 . S
N334 C331 1.301 . S
N334 C332 1.317 . S
N335 C331 1.328 . S
N335 C333 1.350 . S
H336 C331 0.930 . S
H337 C332 0.930 . S
C338 O339 1.224 . S
C338 O357 1.247 . S
O339 C338 1.224 . S
N340 Co330 2.128 . S
N340 C341 1.355 . S
N340 C343 1.311 . S
C341 N340 1.355 . S
C341 C342 1.389 . S
C341 H353 0.929 . S
C342 C341 1.389 . S
C342 N344 1.376 . S
C342 H360 0.909 1_565 S
C343 N340 1.311 . S
C343 N344 1.347 . S
C343 H354 0.929 . S
N344 C342 1.376 . S
N344 C343 1.347 . S
C345 C348 1.365 . S
C345 N350 1.328 . S
C345 H351 0.929 . S
C346 C347 1.362 . S
C346 C349 1.378 . S
C346 H361 0.929 . S
C347 C346 1.362 . S
C347 C348 1.366 . S
C348 C345 1.365 . S
C348 C347 1.366 . S
C348 H362 0.930 . S
C349 C346 1.378 . S
C349 N350 1.315 . S
C349 H352 0.930 . S
N350 Co330 2.194 . S
N350 C345 1.328 . S
N350 C349 1.315 . S
H351 C345 0.929 . S
H352 C349 0.930 . S
H353 C341 0.929 . S
H354 C343 0.929 . S
O355 Co330 2.351 . S
O355 C358 1.244 . S
O356 Co330 2.155 . S
O356 C358 1.240 . S
O357 Co330 2.096 . S
O357 C338 1.247 . S
C358 O355 1.244 . S
C358 O356 1.240 . S
H359 C333 0.931 . S
H360 C342 0.909 1_545 S
H361 C346 0.929 . S
H362 C348 0.930 . S
Co363 N367 2.148 . S
Co363 N373 2.128 . S
Co363 N383 2.194 . S
Co363 O388 2.351 . S
Co363 O389 2.155 . S
Co363 O390 2.096 . S
C364 N367 1.301 . S
C364 N368 1.328 . S
C364 H369 0.930 . S
C365 C366 1.333 . S
C365 N367 1.317 . S
C365 H370 0.930 . S
C366 C365 1.333 . S
C366 N368 1.350 . S
C366 H392 0.931 . S
N367 Co363 2.148 . S
N367 C364 1.301 . S
N367 C365 1.317 . S
N368 C364 1.328 . S
N368 C366 1.350 . S
H369 C364 0.930 . S
H370 C365 0.930 . S
C371 O372 1.224 . S
C371 O390 1.247 . S
O372 C371 1.224 . S
N373 Co363 2.128 . S
N373 C374 1.355 . S
N373 C376 1.311 . S
C374 N373 1.355 . S
C374 C375 1.363 . S
C374 H386 0.929 . S
C375 C374 1.363 . S
C375 N377 1.375 . S
C375 H393 0.931 . S
C376 N373 1.311 . S
C376 N377 1.347 . S
C376 H387 0.929 . S
N377 C375 1.375 . S
N377 C376 1.347 . S
C378 C381 1.365 . S
C378 N383 1.328 . S
C378 H384 0.929 . S
C379 C380 1.362 . S
C379 C382 1.378 . S
C379 H394 0.929 . S
C380 C379 1.362 . S
C380 C381 1.366 . S
C381 C378 1.365 . S
C381 C380 1.366 . S
C381 H395 0.930 . S
C382 C379 1.378 . S
C382 N383 1.315 . S
C382 H385 0.930 . S
N383 Co363 2.194 . S
N383 C378 1.328 . S
N383 C382 1.315 . S
H384 C378 0.929 . S
H385 C382 0.930 . S
H386 C374 0.929 . S
H387 C376 0.929 . S
O388 Co363 2.351 . S
O388 C391 1.244 . S
O389 Co363 2.155 . S
O389 C391 1.240 . S
O390 Co363 2.096 . S
O390 C371 1.247 . S
C391 O388 1.244 . S
C391 O389 1.240 . S
H392 C366 0.931 . S
H393 C375 0.931 . S
H394 C379 0.929 . S
H395 C381 0.930 . S
Co396 N400 2.148 . S
Co396 N406 2.128 . S
Co396 N416 2.194 . S
Co396 O421 2.351 . S
Co396 O422 2.155 . S
Co396 O423 2.096 . S
C397 N400 1.301 . S
C397 N401 1.328 . S
C397 H402 0.930 . S
C398 C399 1.333 . S
C398 N400 1.317 . S
C398 H403 0.930 . S
C399 C398 1.333 . S
C399 N401 1.350 . S
C399 H425 0.931 . S
N400 Co396 2.148 . S
N400 C397 1.301 . S
N400 C398 1.317 . S
N401 C397 1.328 . S
N401 C399 1.350 . S
H402 C397 0.930 . S
H403 C398 0.930 . S
C404 O405 1.224 . S
C404 O423 1.247 . S
O405 C404 1.224 . S
N406 Co396 2.128 . S
N406 C407 1.355 . S
N406 C409 1.311 . S
C407 N406 1.355 . S
C407 C408 1.384 . S
C407 H419 0.929 . S
C408 C407 1.384 . S
C408 N410 1.376 . S
C408 H426 0.913 1_565 S
C409 N406 1.311 . S
C409 N410 1.347 . S
C409 H420 0.929 . S
N410 C408 1.376 . S
N410 C409 1.347 . S
C411 C414 1.365 . S
C411 N416 1.328 . S
C411 H417 0.929 . S
C412 C413 1.362 . S
C412 C415 1.378 . S
C412 H427 0.929 . S
C413 C412 1.362 . S
C413 C414 1.366 . S
C414 C411 1.365 . S
C414 C413 1.366 . S
C414 H428 0.930 . S
C415 C412 1.378 . S
C415 N416 1.315 . S
C415 H418 0.930 . S
N416 Co396 2.194 . S
N416 C411 1.328 . S
N416 C415 1.315 . S
H417 C411 0.929 . S
H418 C415 0.930 . S
H419 C407 0.929 . S
H420 C409 0.929 . S
O421 Co396 2.351 . S
O421 C424 1.244 . S
O422 Co396 2.155 . S
O422 C424 1.240 . S
O423 Co396 2.096 . S
O423 C404 1.247 . S
C424 O421 1.244 . S
C424 O422 1.240 . S
H425 C399 0.931 . S
H426 C408 0.913 1_545 S
H427 C412 0.929 . S
H428 C414 0.930 . S
Co429 N433 2.148 . S
Co429 N439 2.128 . S
Co429 N449 2.194 . S
Co429 O454 2.351 . S
Co429 O455 2.155 . S
Co429 O456 2.096 . S
C430 N433 1.301 . S
C430 N434 1.328 . S
C430 H435 0.930 . S
C431 C432 1.333 . S
C431 N433 1.317 . S
C431 H436 0.930 . S
C432 C431 1.333 . S
C432 N434 1.350 . S
C432 H458 0.931 . S
N433 Co429 2.148 . S
N433 C430 1.301 . S
N433 C431 1.317 . S
N434 C430 1.328 . S
N434 C432 1.350 . S
H435 C430 0.930 . S
H436 C431 0.930 . S
C437 O438 1.224 . S
C437 O456 1.247 . S
O438 C437 1.224 . S
N439 Co429 2.128 . S
N439 C440 1.355 . S
N439 C442 1.311 . S
C440 N439 1.355 . S
C440 C441 1.363 . S
C440 H452 0.929 . S
C441 C440 1.363 . S
C441 N443 1.375 . S
C441 H459 0.931 . S
C442 N439 1.311 . S
C442 N443 1.347 . S
C442 H453 0.929 . S
N443 C441 1.375 . S
N443 C442 1.347 . S
C444 C447 1.365 . S
C444 N449 1.328 . S
C444 H450 0.929 . S
C445 C446 1.362 . S
C445 C448 1.378 . S
C445 H460 0.929 . S
C446 C445 1.362 . S
C446 C447 1.366 . S
C447 C444 1.365 . S
C447 C446 1.366 . S
C447 H461 0.930 . S
C448 C445 1.378 . S
C448 N449 1.315 . S
C448 H451 0.930 . S
N449 Co429 2.194 . S
N449 C444 1.328 . S
N449 C448 1.315 . S
H450 C444 0.929 . S
H451 C448 0.930 . S
H452 C440 0.929 . S
H453 C442 0.929 . S
O454 Co429 2.351 . S
O454 C457 1.244 . S
O455 Co429 2.155 . S
O455 C457 1.240 . S
O456 Co429 2.096 . S
O456 C437 1.247 . S
C457 O454 1.244 . S
C457 O455 1.240 . S
H458 C432 0.931 . S
H459 C441 0.931 . S
H460 C445 0.929 . S
H461 C447 0.930 . S
Co462 N466 2.148 . S
Co462 N472 2.128 . S
Co462 N482 2.194 . S
Co462 O487 2.351 . S
Co462 O488 2.155 . S
Co462 O489 2.096 . S
C463 N466 1.301 . S
C463 N467 1.328 . S
C463 H468 0.930 . S
C464 C465 1.333 . S
C464 N466 1.317 . S
C464 H469 0.930 . S
C465 C464 1.333 . S
C465 N467 1.350 . S
C465 H491 0.931 . S
N466 Co462 2.148 . S
N466 C463 1.301 . S
N466 C464 1.317 . S
N467 C463 1.328 . S
N467 C465 1.350 . S
H468 C463 0.930 . S
H469 C464 0.930 . S
C470 O471 1.224 . S
C470 O489 1.247 . S
O471 C470 1.224 . S
N472 Co462 2.128 . S
N472 C473 1.355 . S
N472 C475 1.311 . S
C473 N472 1.355 . S
C473 C474 1.393 . S
C473 H485 0.929 . S
C474 C473 1.393 . S
C474 N476 1.377 . S
C474 H492 0.905 1_545 S
C475 N472 1.311 . S
C475 N476 1.347 . S
C475 H486 0.929 . S
N476 C474 1.377 . S
N476 C475 1.347 . S
C477 C480 1.365 1_556 S
C477 N482 1.328 . S
C477 H483 0.929 . S
C478 C479 1.362 . S
C478 C481 1.378 . S
C478 H493 0.929 . S
C479 C478 1.362 . S
C479 C480 1.366 1_556 S
C480 C477 1.365 1_554 S
C480 C479 1.366 1_554 S
C480 H494 0.930 . S
C481 C478 1.378 . S
C481 N482 1.315 . S
C481 H484 0.930 . S
N482 Co462 2.194 . S
N482 C477 1.328 . S
N482 C481 1.315 . S
H483 C477 0.929 . S
H484 C481 0.930 . S
H485 C473 0.929 . S
H486 C475 0.929 . S
O487 Co462 2.351 . S
O487 C490 1.244 . S
O488 Co462 2.155 . S
O488 C490 1.240 . S
O489 Co462 2.096 . S
O489 C470 1.247 . S
C490 O487 1.244 . S
C490 O488 1.240 . S
H491 C465 0.931 . S
H492 C474 0.905 1_565 S
H493 C478 0.929 . S
H494 C480 0.930 . S
Co495 N499 2.148 . S
Co495 N505 2.128 . S
Co495 N515 2.194 . S
Co495 O520 2.351 . S
Co495 O521 2.155 . S
Co495 O522 2.096 . S
C496 N499 1.301 . S
C496 N500 1.328 . S
C496 H501 0.930 . S
C497 C498 1.333 . S
C497 N499 1.317 . S
C497 H502 0.930 . S
C498 C497 1.333 . S
C498 N500 1.350 . S
C498 H524 0.931 . S
N499 Co495 2.148 . S
N499 C496 1.301 . S
N499 C497 1.317 . S
N500 C496 1.328 . S
N500 C498 1.350 . S
H501 C496 0.930 . S
H502 C497 0.930 . S
C503 O504 1.224 . S
C503 O522 1.247 . S
O504 C503 1.224 . S
N505 Co495 2.128 . S
N505 C506 1.355 . S
N505 C508 1.311 . S
C506 N505 1.355 . S
C506 C507 1.363 . S
C506 H518 0.929 . S
C507 C506 1.363 . S
C507 N509 1.375 . S
C507 H525 0.931 . S
C508 N505 1.311 . S
C508 N509 1.347 . S
C508 H519 0.929 . S
N509 C507 1.375 . S
N509 C508 1.347 . S
C510 C513 1.365 . S
C510 N515 1.328 . S
C510 H516 0.929 . S
C511 C512 1.362 . S
C511 C514 1.378 . S
C511 H526 0.929 . S
C512 C511 1.362 . S
C512 C513 1.366 . S
C513 C510 1.365 . S
C513 C512 1.366 . S
C513 H527 0.930 . S
C514 C511 1.378 . S
C514 N515 1.315 . S
C514 H517 0.930 . S
N515 Co495 2.194 . S
N515 C510 1.328 . S
N515 C514 1.315 . S
H516 C510 0.929 . S
H517 C514 0.930 . S
H518 C506 0.929 . S
H519 C508 0.929 . S
O520 Co495 2.351 . S
O520 C523 1.244 . S
O521 Co495 2.155 . S
O521 C523 1.240 . S
O522 Co495 2.096 . S
O522 C503 1.247 . S
C523 O520 1.244 . S
C523 O521 1.240 . S
H524 C498 0.931 . S
H525 C507 0.931 . S
H526 C511 0.929 . S
H527 C513 0.930 . S
Co528 N532 2.148 . S
Co528 N538 2.128 . S
Co528 N548 2.194 . S
Co528 O553 2.351 . S
Co528 O554 2.155 . S
Co528 O555 2.096 . S
C529 N532 1.301 . S
C529 N533 1.328 . S
C529 H534 0.930 . S
C530 C531 1.333 . S
C530 N532 1.317 . S
C530 H535 0.930 . S
C531 C530 1.333 . S
C531 N533 1.350 . S
C531 H557 0.931 . S
N532 Co528 2.148 . S
N532 C529 1.301 . S
N532 C530 1.317 . S
N533 C529 1.328 . S
N533 C531 1.350 . S
H534 C529 0.930 . S
H535 C530 0.930 . S
C536 O537 1.224 . S
C536 O555 1.247 . S
O537 C536 1.224 . S
N538 Co528 2.128 . S
N538 C539 1.355 . S
N538 C541 1.311 . S
C539 N538 1.355 . S
C539 C540 1.384 . S
C539 H551 0.929 . S
C540 C539 1.384 . S
C540 N542 1.376 . S
C540 H558 0.913 1_554 S
C541 N538 1.311 . S
C541 N542 1.347 . S
C541 H552 0.929 . S
N542 C540 1.376 . S
N542 C541 1.347 . S
C543 C546 1.365 1_455 S
C543 N548 1.328 . S
C543 H549 0.929 . S
C544 C545 1.362 . S
C544 C547 1.378 . S
C544 H559 0.929 . S
C545 C544 1.362 . S
C545 C546 1.366 1_455 S
C546 C543 1.365 1_655 S
C546 C545 1.366 1_655 S
C546 H560 0.930 . S
C547 C544 1.378 . S
C547 N548 1.315 . S
C547 H550 0.930 . S
N548 Co528 2.194 . S
N548 C543 1.328 . S
N548 C547 1.315 . S
H549 C543 0.929 . S
H550 C547 0.930 . S
H551 C539 0.929 . S
H552 C541 0.929 . S
O553 Co528 2.351 . S
O553 C556 1.244 . S
O554 Co528 2.155 . S
O554 C556 1.240 . S
O555 Co528 2.096 . S
O555 C536 1.247 . S
C556 O553 1.244 . S
C556 O554 1.240 . S
H557 C531 0.931 . S
H558 C540 0.913 1_556 S
H559 C544 0.929 . S
H560 C546 0.930 . S
Co561 N565 2.148 . S
Co561 N571 2.128 . S
Co561 N581 2.194 . S
Co561 O586 2.351 . S
Co561 O587 2.155 . S
Co561 O588 2.096 . S
C562 N565 1.301 . S
C562 N566 1.328 . S
C562 H567 0.930 . S
C563 C564 1.333 . S
C563 N565 1.317 . S
C563 H568 0.930 . S
C564 C563 1.333 . S
C564 N566 1.350 . S
C564 H590 0.931 . S
N565 Co561 2.148 . S
N565 C562 1.301 . S
N565 C563 1.317 . S
N566 C562 1.328 . S
N566 C564 1.350 . S
H567 C562 0.930 . S
H568 C563 0.930 . S
C569 O570 1.224 . S
C569 O588 1.247 . S
O570 C569 1.224 . S
N571 Co561 2.128 . S
N571 C572 1.355 . S
N571 C574 1.311 . S
C572 N571 1.355 . S
C572 C573 1.389 . S
C572 H584 0.929 . S
C573 C572 1.389 . S
C573 N575 1.376 . S
C573 H591 0.909 1_556 S
C574 N571 1.311 . S
C574 N575 1.347 . S
C574 H585 0.929 . S
N575 C573 1.376 . S
N575 C574 1.347 . S
C576 C579 1.365 . S
C576 N581 1.328 . S
C576 H582 0.929 . S
C577 C578 1.362 . S
C577 C580 1.378 . S
C577 H592 0.929 . S
C578 C577 1.362 . S
C578 C579 1.366 . S
C579 C576 1.365 . S
C579 C578 1.366 . S
C579 H593 0.930 . S
C580 C577 1.378 . S
C580 N581 1.315 . S
C580 H583 0.930 . S
N581 Co561 2.194 . S
N581 C576 1.328 . S
N581 C580 1.315 . S
H582 C576 0.929 . S
H583 C580 0.930 . S
H584 C572 0.929 . S
H585 C574 0.929 . S
O586 Co561 2.351 . S
O586 C589 1.244 . S
O587 Co561 2.155 . S
O587 C589 1.240 . S
O588 Co561 2.096 . S
O588 C569 1.247 . S
C589 O586 1.244 . S
C589 O587 1.240 . S
H590 C564 0.931 . S
H591 C573 0.909 1_554 S
H592 C577 0.929 . S
H593 C579 0.930 . S
Co594 N598 2.148 . S
Co594 N604 2.128 . S
Co594 N614 2.194 . S
Co594 O619 2.351 . S
Co594 O620 2.155 . S
Co594 O621 2.096 . S
C595 N598 1.301 . S
C595 N599 1.328 . S
C595 H600 0.930 . S
C596 C597 1.333 . S
C596 N598 1.317 . S
C596 H601 0.930 . S
C597 C596 1.333 . S
C597 N599 1.350 . S
C597 H623 0.931 . S
N598 Co594 2.148 . S
N598 C595 1.301 . S
N598 C596 1.317 . S
N599 C595 1.328 . S
N599 C597 1.350 . S
H600 C595 0.930 . S
H601 C596 0.930 . S
C602 O603 1.224 . S
C602 O621 1.247 . S
O603 C602 1.224 . S
N604 Co594 2.128 . S
N604 C605 1.355 . S
N604 C607 1.311 . S
C605 N604 1.355 . S
C605 C606 1.363 . S
C605 H617 0.929 . S
C606 C605 1.363 . S
C606 N608 1.375 . S
C606 H624 0.931 . S
C607 N604 1.311 . S
C607 N608 1.347 . S
C607 H618 0.929 . S
N608 C606 1.375 . S
N608 C607 1.347 . S
C609 C612 1.365 . S
C609 N614 1.328 . S
C609 H615 0.929 . S
C610 C611 1.362 . S
C610 C613 1.378 . S
C610 H625 0.929 . S
C611 C610 1.362 . S
C611 C612 1.366 . S
C612 C609 1.365 . S
C612 C611 1.366 . S
C612 H626 0.930 . S
C613 C610 1.378 . S
C613 N614 1.315 . S
C613 H616 0.930 . S
N614 Co594 2.194 . S
N614 C609 1.328 . S
N614 C613 1.315 . S
H615 C609 0.929 . S
H616 C613 0.930 . S
H617 C605 0.929 . S
H618 C607 0.929 . S
O619 Co594 2.351 . S
O619 C622 1.244 . S
O620 Co594 2.155 . S
O620 C622 1.240 . S
O621 Co594 2.096 . S
O621 C602 1.247 . S
C622 O619 1.244 . S
C622 O620 1.240 . S
H623 C597 0.931 . S
H624 C606 0.931 . S
H625 C610 0.929 . S
H626 C612 0.930 . S
Co627 N631 2.148 . S
Co627 N637 2.128 . S
Co627 N647 2.194 . S
Co627 O652 2.351 . S
Co627 O653 2.155 . S
Co627 O654 2.096 . S
C628 N631 1.301 . S
C628 N632 1.328 . S
C628 H633 0.930 . S
C629 C630 1.333 . S
C629 N631 1.317 . S
C629 H634 0.930 . S
C630 C629 1.333 . S
C630 N632 1.350 . S
C630 H656 0.931 . S
N631 Co627 2.148 . S
N631 C628 1.301 . S
N631 C629 1.317 . S
N632 C628 1.328 . S
N632 C630 1.350 . S
H633 C628 0.930 . S
H634 C629 0.930 . S
C635 O636 1.224 . S
C635 O654 1.247 . S
O636 C635 1.224 . S
N637 Co627 2.128 . S
N637 C638 1.355 . S
N637 C640 1.311 . S
C638 N637 1.355 . S
C638 C639 1.363 . S
C638 H650 0.929 . S
C639 C638 1.363 . S
C639 N641 1.375 . S
C639 H657 0.931 . S
C640 N637 1.311 . S
C640 N641 1.347 . S
C640 H651 0.929 . S
N641 C639 1.375 . S
N641 C640 1.347 . S
C642 C645 1.365 1_655 S
C642 N647 1.328 . S
C642 H648 0.929 . S
C643 C644 1.362 . S
C643 C646 1.378 . S
C643 H658 0.929 . S
C644 C643 1.362 . S
C644 C645 1.366 1_655 S
C645 C642 1.365 1_455 S
C645 C644 1.366 1_455 S
C645 H659 0.930 . S
C646 C643 1.378 . S
C646 N647 1.315 . S
C646 H649 0.930 . S
N647 Co627 2.194 . S
N647 C642 1.328 . S
N647 C646 1.315 . S
H648 C642 0.929 . S
H649 C646 0.930 . S
H650 C638 0.929 . S
H651 C640 0.929 . S
O652 Co627 2.351 . S
O652 C655 1.244 . S
O653 Co627 2.155 . S
O653 C655 1.240 . S
O654 Co627 2.096 . S
O654 C635 1.247 . S
C655 O652 1.244 . S
C655 O653 1.240 . S
H656 C630 0.931 . S
H657 C639 0.931 . S
H658 C643 0.929 . S
H659 C645 0.930 . S
Co660 N664 2.148 . S
Co660 N670 2.128 . S
Co660 N680 2.194 . S
Co660 O685 2.351 . S
Co660 O686 2.155 . S
Co660 O687 2.096 . S
C661 N664 1.301 . S
C661 N665 1.328 . S
C661 H666 0.930 . S
C662 C663 1.333 . S
C662 N664 1.317 . S
C662 H667 0.930 . S
C663 C662 1.333 . S
C663 N665 1.350 . S
C663 H689 0.931 . S
N664 Co660 2.148 . S
N664 C661 1.301 . S
N664 C662 1.317 . S
N665 C661 1.328 . S
N665 C663 1.350 . S
H666 C661 0.930 . S
H667 C662 0.930 . S
C668 O669 1.224 . S
C668 O687 1.247 . S
O669 C668 1.224 . S
N670 Co660 2.128 . S
N670 C671 1.355 . S
N670 C673 1.311 . S
C671 N670 1.355 . S
C671 C672 1.363 . S
C671 H683 0.929 . S
C672 C671 1.363 . S
C672 N674 1.375 . S
C672 H690 0.931 . S
C673 N670 1.311 . S
C673 N674 1.347 . S
C673 H684 0.929 . S
N674 C672 1.375 . S
N674 C673 1.347 . S
C675 C678 1.365 . S
C675 N680 1.328 . S
C675 H681 0.929 . S
C676 C677 1.362 . S
C676 C679 1.378 . S
C676 H691 0.929 . S
C677 C676 1.362 . S
C677 C678 1.366 . S
C678 C675 1.365 . S
C678 C677 1.366 . S
C678 H692 0.930 . S
C679 C676 1.378 . S
C679 N680 1.315 . S
C679 H682 0.930 . S
N680 Co660 2.194 . S
N680 C675 1.328 . S
N680 C679 1.315 . S
H681 C675 0.929 . S
H682 C679 0.930 . S
H683 C671 0.929 . S
H684 C673 0.929 . S
O685 Co660 2.351 . S
O685 C688 1.244 . S
O686 Co660 2.155 . S
O686 C688 1.240 . S
O687 Co660 2.096 . S
O687 C668 1.247 . S
C688 O685 1.244 . S
C688 O686 1.240 . S
H689 C663 0.931 . S
H690 C672 0.931 . S
H691 C676 0.929 . S
H692 C678 0.930 . S
Co693 N697 2.148 . S
Co693 N703 2.128 . S
Co693 N713 2.194 . S
Co693 O718 2.351 . S
Co693 O719 2.155 . S
Co693 O720 2.096 . S
C694 N697 1.301 . S
C694 N698 1.328 . S
C694 H699 0.930 . S
C695 C696 1.333 . S
C695 N697 1.317 . S
C695 H700 0.930 . S
C696 C695 1.333 . S
C696 N698 1.350 . S
C696 H722 0.931 . S
N697 Co693 2.148 . S
N697 C694 1.301 . S
N697 C695 1.317 . S
N698 C694 1.328 . S
N698 C696 1.350 . S
H699 C694 0.930 . S
H700 C695 0.930 . S
C701 O702 1.224 . S
C701 O720 1.247 . S
O702 C701 1.224 . S
N703 Co693 2.128 . S
N703 C704 1.355 . S
N703 C706 1.311 . S
C704 N703 1.355 . S
C704 C705 1.363 . S
C704 H716 0.929 . S
C705 C704 1.363 . S
C705 N707 1.375 . S
C705 H723 0.931 . S
C706 N703 1.311 . S
C706 N707 1.347 . S
C706 H717 0.929 . S
N707 C705 1.375 . S
N707 C706 1.347 . S
C708 C711 1.365 . S
C708 N713 1.328 . S
C708 H714 0.929 . S
C709 C710 1.362 . S
C709 C712 1.378 . S
C709 H724 0.929 . S
C710 C709 1.362 . S
C710 C711 1.366 . S
C711 C708 1.365 . S
C711 C710 1.366 . S
C711 H725 0.930 . S
C712 C709 1.378 . S
C712 N713 1.315 . S
C712 H715 0.930 . S
N713 Co693 2.194 . S
N713 C708 1.328 . S
N713 C712 1.315 . S
H714 C708 0.929 . S
H715 C712 0.930 . S
H716 C704 0.929 . S
H717 C706 0.929 . S
O718 Co693 2.351 . S
O718 C721 1.244 . S
O719 Co693 2.155 . S
O719 C721 1.240 . S
O720 Co693 2.096 . S
O720 C701 1.247 . S
C721 O718 1.244 . S
C721 O719 1.240 . S
H722 C696 0.931 . S
H723 C705 0.931 . S
H724 C709 0.929 . S
H725 C711 0.930 . S
Co726 N730 2.148 . S
Co726 N736 2.128 . S
Co726 N746 2.194 . S
Co726 O751 2.351 . S
Co726 O752 2.155 . S
Co726 O753 2.096 . S
C727 N730 1.301 . S
C727 N731 1.328 . S
C727 H732 0.930 . S
C728 C729 1.333 . S
C728 N730 1.317 . S
C728 H733 0.930 . S
C729 C728 1.333 . S
C729 N731 1.350 . S
C729 H755 0.931 . S
N730 Co726 2.148 . S
N730 C727 1.301 . S
N730 C728 1.317 . S
N731 C727 1.328 . S
N731 C729 1.350 . S
H732 C727 0.930 . S
H733 C728 0.930 . S
C734 O735 1.224 . S
C734 O753 1.247 . S
O735 C734 1.224 . S
N736 Co726 2.128 . S
N736 C737 1.355 . S
N736 C739 1.311 . S
C737 N736 1.355 . S
C737 C738 1.363 . S
C737 H749 0.929 . S
C738 C737 1.363 . S
C738 N740 1.375 . S
C738 H756 0.931 . S
C739 N736 1.311 . S
C739 N740 1.347 . S
C739 H750 0.929 . S
N740 C738 1.375 . S
N740 C739 1.347 . S
C741 C744 1.365 . S
C741 N746 1.328 . S
C741 H747 0.929 . S
C742 C743 1.362 . S
C742 C745 1.378 . S
C742 H757 0.929 . S
C743 C742 1.362 . S
C743 C744 1.366 . S
C744 C741 1.365 . S
C744 C743 1.366 . S
C744 H758 0.930 . S
C745 C742 1.378 . S
C745 N746 1.315 . S
C745 H748 0.930 . S
N746 Co726 2.194 . S
N746 C741 1.328 . S
N746 C745 1.315 . S
H747 C741 0.929 . S
H748 C745 0.930 . S
H749 C737 0.929 . S
H750 C739 0.929 . S
O751 Co726 2.351 . S
O751 C754 1.244 . S
O752 Co726 2.155 . S
O752 C754 1.240 . S
O753 Co726 2.096 . S
O753 C734 1.247 . S
C754 O751 1.244 . S
C754 O752 1.240 . S
H755 C729 0.931 . S
H756 C738 0.931 . S
H757 C742 0.929 . S
H758 C744 0.930 . S
Co759 N763 2.148 . S
Co759 N769 2.128 . S
Co759 N779 2.194 . S
Co759 O784 2.351 . S
Co759 O785 2.155 . S
Co759 O786 2.096 . S
C760 N763 1.301 . S
C760 N764 1.328 . S
C760 H765 0.930 . S
C761 C762 1.333 . S
C761 N763 1.317 . S
C761 H766 0.930 . S
C762 C761 1.333 . S
C762 N764 1.350 . S
C762 H788 0.931 . S
N763 Co759 2.148 . S
N763 C760 1.301 . S
N763 C761 1.317 . S
N764 C760 1.328 . S
N764 C762 1.350 . S
H765 C760 0.930 . S
H766 C761 0.930 . S
C767 O768 1.224 . S
C767 O786 1.247 . S
O768 C767 1.224 . S
N769 Co759 2.128 . S
N769 C770 1.355 . S
N769 C772 1.311 . S
C770 N769 1.355 . S
C770 C771 1.363 . S
C770 H782 0.929 . S
C771 C770 1.363 . S
C771 N773 1.375 . S
C771 H789 0.931 . S
C772 N769 1.311 . S
C772 N773 1.347 . S
C772 H783 0.929 . S
N773 C771 1.375 . S
N773 C772 1.347 . S
C774 C777 1.365 . S
C774 N779 1.328 . S
C774 H780 0.929 . S
C775 C776 1.362 . S
C775 C778 1.378 . S
C775 H790 0.929 . S
C776 C775 1.362 . S
C776 C777 1.366 . S
C777 C774 1.365 . S
C777 C776 1.366 . S
C777 H791 0.930 . S
C778 C775 1.378 . S
C778 N779 1.315 . S
C778 H781 0.930 . S
N779 Co759 2.194 . S
N779 C774 1.328 . S
N779 C778 1.315 . S
H780 C774 0.929 . S
H781 C778 0.930 . S
H782 C770 0.929 . S
H783 C772 0.929 . S
O784 Co759 2.351 . S
O784 C787 1.244 . S
O785 Co759 2.155 . S
O785 C787 1.240 . S
O786 Co759 2.096 . S
O786 C767 1.247 . S
C787 O784 1.244 . S
C787 O785 1.240 . S
H788 C762 0.931 . S
H789 C771 0.931 . S
H790 C775 0.929 . S
H791 C777 0.930 . S
Co792 N796 2.148 . S
Co792 N802 2.128 . S
Co792 N812 2.194 . S
Co792 O817 2.351 . S
Co792 O818 2.155 . S
Co792 O819 2.096 . S
C793 N796 1.301 . S
C793 N797 1.328 . S
C793 H798 0.930 . S
C794 C795 1.333 . S
C794 N796 1.317 . S
C794 H799 0.930 . S
C795 C794 1.333 . S
C795 N797 1.350 . S
C795 H821 0.931 . S
N796 Co792 2.148 . S
N796 C793 1.301 . S
N796 C794 1.317 . S
N797 C793 1.328 . S
N797 C795 1.350 . S
H798 C793 0.930 . S
H799 C794 0.930 . S
C800 O801 1.224 . S
C800 O819 1.247 . S
O801 C800 1.224 . S
N802 Co792 2.128 . S
N802 C803 1.355 . S
N802 C805 1.311 . S
C803 N802 1.355 . S
C803 C804 1.363 . S
C803 H815 0.929 . S
C804 C803 1.363 . S
C804 N806 1.375 . S
C804 H822 0.931 . S
C805 N802 1.311 . S
C805 N806 1.347 . S
C805 H816 0.929 . S
N806 C804 1.375 . S
N806 C805 1.347 . S
C807 C810 1.365 . S
C807 N812 1.328 . S
C807 H813 0.929 . S
C808 C809 1.362 . S
C808 C811 1.378 . S
C808 H823 0.929 . S
C809 C808 1.362 . S
C809 C810 1.366 . S
C810 C807 1.365 . S
C810 C809 1.366 . S
C810 H824 0.930 . S
C811 C808 1.378 . S
C811 N812 1.315 . S
C811 H814 0.930 . S
N812 Co792 2.194 . S
N812 C807 1.328 . S
N812 C811 1.315 . S
H813 C807 0.929 . S
H814 C811 0.930 . S
H815 C803 0.929 . S
H816 C805 0.929 . S
O817 Co792 2.351 . S
O817 C820 1.244 . S
O818 Co792 2.155 . S
O818 C820 1.240 . S
O819 Co792 2.096 . S
O819 C800 1.247 . S
C820 O817 1.244 . S
C820 O818 1.240 . S
H821 C795 0.931 . S
H822 C804 0.931 . S
H823 C808 0.929 . S
H824 C810 0.930 . S
Co825 N829 2.148 . S
Co825 N835 2.128 . S
Co825 N845 2.194 . S
Co825 O850 2.351 . S
Co825 O851 2.155 . S
Co825 O852 2.096 . S
C826 N829 1.301 . S
C826 N830 1.328 . S
C826 H831 0.930 . S
C827 C828 1.333 . S
C827 N829 1.317 . S
C827 H832 0.930 . S
C828 C827 1.333 . S
C828 N830 1.350 . S
C828 H854 0.931 . S
N829 Co825 2.148 . S
N829 C826 1.301 . S
N829 C827 1.317 . S
N830 C826 1.328 . S
N830 C828 1.350 . S
H831 C826 0.930 . S
H832 C827 0.930 . S
C833 O834 1.224 . S
C833 O852 1.247 . S
O834 C833 1.224 . S
N835 Co825 2.128 . S
N835 C836 1.355 . S
N835 C838 1.311 . S
C836 N835 1.355 . S
C836 C837 1.363 . S
C836 H848 0.929 . S
C837 C836 1.363 . S
C837 N839 1.375 . S
C837 H855 0.931 . S
C838 N835 1.311 . S
C838 N839 1.347 . S
C838 H849 0.929 . S
N839 C837 1.375 . S
N839 C838 1.347 . S
C840 C843 1.365 . S
C840 N845 1.328 . S
C840 H846 0.929 . S
C841 C842 1.362 . S
C841 C844 1.378 . S
C841 H856 0.929 . S
C842 C841 1.362 . S
C842 C843 1.366 . S
C843 C840 1.365 . S
C843 C842 1.366 . S
C843 H857 0.930 . S
C844 C841 1.378 . S
C844 N845 1.315 . S
C844 H847 0.930 . S
N845 Co825 2.194 . S
N845 C840 1.328 . S
N845 C844 1.315 . S
H846 C840 0.929 . S
H847 C844 0.930 . S
H848 C836 0.929 . S
H849 C838 0.929 . S
O850 Co825 2.351 . S
O850 C853 1.244 . S
O851 Co825 2.155 . S
O851 C853 1.240 . S
O852 Co825 2.096 . S
O852 C833 1.247 . S
C853 O850 1.244 . S
C853 O851 1.240 . S
H854 C828 0.931 . S
H855 C837 0.931 . S
H856 C841 0.929 . S
H857 C843 0.930 . S
Co858 N862 2.148 . S
Co858 N868 2.128 . S
Co858 N878 2.194 . S
Co858 O883 2.351 . S
Co858 O884 2.155 . S
Co858 O885 2.096 . S
C859 N862 1.301 . S
C859 N863 1.328 . S
C859 H864 0.930 . S
C860 C861 1.333 . S
C860 N862 1.317 . S
C860 H865 0.930 . S
C861 C860 1.333 . S
C861 N863 1.350 . S
C861 H887 0.931 . S
N862 Co858 2.148 . S
N862 C859 1.301 . S
N862 C860 1.317 . S
N863 C859 1.328 . S
N863 C861 1.350 . S
H864 C859 0.930 . S
H865 C860 0.930 . S
C866 O867 1.224 . S
C866 O885 1.247 . S
O867 C866 1.224 . S
N868 Co858 2.128 . S
N868 C869 1.355 . S
N868 C871 1.311 . S
C869 N868 1.355 . S
C869 C870 1.384 . S
C869 H881 0.929 . S
C870 C869 1.384 . S
C870 N872 1.376 . S
C870 H888 0.913 1_655 S
C871 N868 1.311 . S
C871 N872 1.347 . S
C871 H882 0.929 . S
N872 C870 1.376 . S
N872 C871 1.347 . S
C873 C876 1.365 . S
C873 N878 1.328 . S
C873 H879 0.929 . S
C874 C875 1.362 . S
C874 C877 1.378 . S
C874 H889 0.929 . S
C875 C874 1.362 . S
C875 C876 1.366 . S
C876 C873 1.365 . S
C876 C875 1.366 . S
C876 H890 0.930 . S
C877 C874 1.378 . S
C877 N878 1.315 . S
C877 H880 0.930 . S
N878 Co858 2.194 . S
N878 C873 1.328 . S
N878 C877 1.315 . S
H879 C873 0.929 . S
H880 C877 0.930 . S
H881 C869 0.929 . S
H882 C871 0.929 . S
O883 Co858 2.351 . S
O883 C886 1.244 . S
O884 Co858 2.155 . S
O884 C886 1.240 . S
O885 Co858 2.096 . S
O885 C866 1.247 . S
C886 O883 1.244 . S
C886 O884 1.240 . S
H887 C861 0.931 . S
H888 C870 0.913 1_455 S
H889 C874 0.929 . S
H890 C876 0.930 . S
Co891 N895 2.148 . S
Co891 N901 2.128 . S
Co891 N911 2.194 . S
Co891 O916 2.351 . S
Co891 O917 2.155 . S
Co891 O918 2.096 . S
C892 N895 1.301 . S
C892 N896 1.328 . S
C892 H897 0.930 . S
C893 C894 1.333 . S
C893 N895 1.317 . S
C893 H898 0.930 . S
C894 C893 1.333 . S
C894 N896 1.350 . S
C894 H920 0.931 . S
N895 Co891 2.148 . S
N895 C892 1.301 . S
N895 C893 1.317 . S
N896 C892 1.328 . S
N896 C894 1.350 . S
H897 C892 0.930 . S
H898 C893 0.930 . S
C899 O900 1.224 . S
C899 O918 1.247 . S
O900 C899 1.224 . S
N901 Co891 2.128 . S
N901 C902 1.355 . S
N901 C904 1.311 . S
C902 N901 1.355 . S
C902 C903 1.363 . S
C902 H914 0.929 . S
C903 C902 1.363 . S
C903 N905 1.375 . S
C903 H921 0.931 . S
C904 N901 1.311 . S
C904 N905 1.347 . S
C904 H915 0.929 . S
N905 C903 1.375 . S
N905 C904 1.347 . S
C906 C909 1.365 . S
C906 N911 1.328 . S
C906 H912 0.929 . S
C907 C908 1.362 . S
C907 C910 1.378 . S
C907 H922 0.929 . S
C908 C907 1.362 . S
C908 C909 1.366 . S
C909 C906 1.365 . S
C909 C908 1.366 . S
C909 H923 0.930 . S
C910 C907 1.378 . S
C910 N911 1.315 . S
C910 H913 0.930 . S
N911 Co891 2.194 . S
N911 C906 1.328 . S
N911 C910 1.315 . S
H912 C906 0.929 . S
H913 C910 0.930 . S
H914 C902 0.929 . S
H915 C904 0.929 . S
O916 Co891 2.351 . S
O916 C919 1.244 . S
O917 Co891 2.155 . S
O917 C919 1.240 . S
O918 Co891 2.096 . S
O918 C899 1.247 . S
C919 O916 1.244 . S
C919 O917 1.240 . S
H920 C894 0.931 . S
H921 C903 0.931 . S
H922 C907 0.929 . S
H923 C909 0.930 . S
Co924 N928 2.148 . S
Co924 N934 2.128 . S
Co924 N944 2.194 . S
Co924 O949 2.351 . S
Co924 O950 2.155 . S
Co924 O951 2.096 . S
C925 N928 1.301 . S
C925 N929 1.328 . S
C925 H930 0.930 . S
C926 C927 1.333 . S
C926 N928 1.317 . S
C926 H931 0.930 . S
C927 C926 1.333 . S
C927 N929 1.350 . S
C927 H953 0.931 . S
N928 Co924 2.148 . S
N928 C925 1.301 . S
N928 C926 1.317 . S
N929 C925 1.328 . S
N929 C927 1.350 . S
H930 C925 0.930 . S
H931 C926 0.930 . S
C932 O933 1.224 . S
C932 O951 1.247 . S
O933 C932 1.224 . S
N934 Co924 2.128 . S
N934 C935 1.355 . S
N934 C937 1.311 . S
C935 N934 1.355 . S
C935 C936 1.363 . S
C935 H947 0.929 . S
C936 C935 1.363 . S
C936 N938 1.375 . S
C936 H954 0.931 . S
C937 N934 1.311 . S
C937 N938 1.347 . S
C937 H948 0.929 . S
N938 C936 1.375 . S
N938 C937 1.347 . S
C939 C942 1.365 . S
C939 N944 1.328 . S
C939 H945 0.929 . S
C940 C941 1.362 . S
C940 C943 1.378 . S
C940 H955 0.929 . S
C941 C940 1.362 . S
C941 C942 1.366 . S
C942 C939 1.365 . S
C942 C941 1.366 . S
C942 H956 0.930 . S
C943 C940 1.378 . S
C943 N944 1.315 . S
C943 H946 0.930 . S
N944 Co924 2.194 . S
N944 C939 1.328 . S
N944 C943 1.315 . S
H945 C939 0.929 . S
H946 C943 0.930 . S
H947 C935 0.929 . S
H948 C937 0.929 . S
O949 Co924 2.351 . S
O949 C952 1.244 . S
O950 Co924 2.155 . S
O950 C952 1.240 . S
O951 Co924 2.096 . S
O951 C932 1.247 . S
C952 O949 1.244 . S
C952 O950 1.240 . S
H953 C927 0.931 . S
H954 C936 0.931 . S
H955 C940 0.929 . S
H956 C942 0.930 . S
Co957 N961 2.148 . S
Co957 N967 2.128 . S
Co957 N977 2.194 . S
Co957 O982 2.351 . S
Co957 O983 2.155 . S
Co957 O984 2.096 . S
C958 N961 1.301 . S
C958 N962 1.328 . S
C958 H963 0.930 . S
C959 C960 1.333 . S
C959 N961 1.317 . S
C959 H964 0.930 . S
C960 C959 1.333 . S
C960 N962 1.350 . S
C960 H986 0.931 . S
N961 Co957 2.148 . S
N961 C958 1.301 . S
N961 C959 1.317 . S
N962 C958 1.328 . S
N962 C960 1.350 . S
H963 C958 0.930 . S
H964 C959 0.930 . S
C965 O966 1.224 . S
C965 O984 1.247 . S
O966 C965 1.224 . S
N967 Co957 2.128 . S
N967 C968 1.355 . S
N967 C970 1.311 . S
C968 N967 1.355 . S
C968 C969 1.363 . S
C968 H980 0.929 . S
C969 C968 1.363 . S
C969 N971 1.375 . S
C969 H987 0.931 . S
C970 N967 1.311 . S
C970 N971 1.347 . S
C970 H981 0.929 . S
N971 C969 1.375 . S
N971 C970 1.347 . S
C972 C975 1.365 . S
C972 N977 1.328 . S
C972 H978 0.929 . S
C973 C974 1.362 . S
C973 C976 1.378 . S
C973 H988 0.929 . S
C974 C973 1.362 . S
C974 C975 1.366 . S
C975 C972 1.365 . S
C975 C974 1.366 . S
C975 H989 0.930 . S
C976 C973 1.378 . S
C976 N977 1.315 . S
C976 H979 0.930 . S
N977 Co957 2.194 . S
N977 C972 1.328 . S
N977 C976 1.315 . S
H978 C972 0.929 . S
H979 C976 0.930 . S
H980 C968 0.929 . S
H981 C970 0.929 . S
O982 Co957 2.351 . S
O982 C985 1.244 . S
O983 Co957 2.155 . S
O983 C985 1.240 . S
O984 Co957 2.096 . S
O984 C965 1.247 . S
C985 O982 1.244 . S
C985 O983 1.240 . S
H986 C960 0.931 . S
H987 C969 0.931 . S
H988 C973 0.929 . S
H989 C975 0.930 . S
Co990 N994 2.148 . S
Co990 N1000 2.128 . S
Co990 N1010 2.194 . S
Co990 O1015 2.351 . S
Co990 O1016 2.155 . S
Co990 O1017 2.096 . S
C991 N994 1.301 . S
C991 N995 1.328 . S
C991 H996 0.930 . S
C992 C993 1.333 . S
C992 N994 1.317 . S
C992 H997 0.930 . S
C993 C992 1.333 . S
C993 N995 1.350 . S
C993 H1019 0.931 . S
N994 Co990 2.148 . S
N994 C991 1.301 . S
N994 C992 1.317 . S
N995 C991 1.328 . S
N995 C993 1.350 . S
H996 C991 0.930 . S
H997 C992 0.930 . S
C998 O999 1.224 . S
C998 O1017 1.247 . S
O999 C998 1.224 . S
N1000 Co990 2.128 . S
N1000 C1001 1.355 . S
N1000 C1003 1.311 . S
C1001 N1000 1.355 . S
C1001 C1002 1.389 . S
C1001 H1013 0.929 . S
C1002 C1001 1.389 . S
C1002 N1004 1.376 . S
C1002 H1020 0.909 1_655 S
C1003 N1000 1.311 . S
C1003 N1004 1.347 . S
C1003 H1014 0.929 . S
N1004 C1002 1.376 . S
N1004 C1003 1.347 . S
C1005 C1008 1.365 . S
C1005 N1010 1.328 . S
C1005 H1011 0.929 . S
C1006 C1007 1.362 . S
C1006 C1009 1.378 . S
C1006 H1021 0.929 . S
C1007 C1006 1.362 . S
C1007 C1008 1.366 . S
C1008 C1005 1.365 . S
C1008 C1007 1.366 . S
C1008 H1022 0.930 . S
C1009 C1006 1.378 . S
C1009 N1010 1.315 . S
C1009 H1012 0.930 . S
N1010 Co990 2.194 . S
N1010 C1005 1.328 . S
N1010 C1009 1.315 . S
H1011 C1005 0.929 . S
H1012 C1009 0.930 . S
H1013 C1001 0.929 . S
H1014 C1003 0.929 . S
O1015 Co990 2.351 . S
O1015 C1018 1.244 . S
O1016 Co990 2.155 . S
O1016 C1018 1.240 . S
O1017 Co990 2.096 . S
O1017 C998 1.247 . S
C1018 O1015 1.244 . S
C1018 O1016 1.240 . S
H1019 C993 0.931 . S
H1020 C1002 0.909 1_455 S
H1021 C1006 0.929 . S
H1022 C1008 0.930 . S
Co1023 N1027 2.148 . S
Co1023 N1033 2.128 . S
Co1023 N1043 2.194 . S
Co1023 O1048 2.351 . S
Co1023 O1049 2.155 . S
Co1023 O1050 2.096 . S
C1024 N1027 1.301 . S
C1024 N1028 1.328 . S
C1024 H1029 0.930 . S
C1025 C1026 1.333 . S
C1025 N1027 1.317 . S
C1025 H1030 0.930 . S
C1026 C1025 1.333 . S
C1026 N1028 1.350 . S
C1026 H1052 0.931 . S
N1027 Co1023 2.148 . S
N1027 C1024 1.301 . S
N1027 C1025 1.317 . S
N1028 C1024 1.328 . S
N1028 C1026 1.350 . S
H1029 C1024 0.930 . S
H1030 C1025 0.930 . S
C1031 O1032 1.224 . S
C1031 O1050 1.247 . S
O1032 C1031 1.224 . S
N1033 Co1023 2.128 . S
N1033 C1034 1.355 . S
N1033 C1036 1.311 . S
C1034 N1033 1.355 . S
C1034 C1035 1.363 . S
C1034 H1046 0.929 . S
C1035 C1034 1.363 . S
C1035 N1037 1.375 . S
C1035 H1053 0.931 . S
C1036 N1033 1.311 . S
C1036 N1037 1.347 . S
C1036 H1047 0.929 . S
N1037 C1035 1.375 . S
N1037 C1036 1.347 . S
C1038 C1041 1.365 . S
C1038 N1043 1.328 . S
C1038 H1044 0.929 . S
C1039 C1040 1.362 . S
C1039 C1042 1.378 . S
C1039 H1054 0.929 . S
C1040 C1039 1.362 . S
C1040 C1041 1.366 . S
C1041 C1038 1.365 . S
C1041 C1040 1.366 . S
C1041 H1055 0.930 . S
C1042 C1039 1.378 . S
C1042 N1043 1.315 . S
C1042 H1045 0.930 . S
N1043 Co1023 2.194 . S
N1043 C1038 1.328 . S
N1043 C1042 1.315 . S
H1044 C1038 0.929 . S
H1045 C1042 0.930 . S
H1046 C1034 0.929 . S
H1047 C1036 0.929 . S
O1048 Co1023 2.351 . S
O1048 C1051 1.244 . S
O1049 Co1023 2.155 . S
O1049 C1051 1.240 . S
O1050 Co1023 2.096 . S
O1050 C1031 1.247 . S
C1051 O1048 1.244 . S
C1051 O1049 1.240 . S
H1052 C1026 0.931 . S
H1053 C1035 0.931 . S
H1054 C1039 0.929 . S
H1055 C1041 0.930 . S
Co1056 N1060 2.148 . S
Co1056 N1066 2.128 . S
Co1056 N1076 2.194 . S
Co1056 O1081 2.351 . S
Co1056 O1082 2.155 . S
Co1056 O1083 2.096 . S
C1057 N1060 1.301 . S
C1057 N1061 1.328 . S
C1057 H1062 0.930 . S
C1058 C1059 1.333 . S
C1058 N1060 1.317 . S
C1058 H1063 0.930 . S
C1059 C1058 1.333 . S
C1059 N1061 1.350 . S
C1059 H1085 0.931 . S
N1060 Co1056 2.148 . S
N1060 C1057 1.301 . S
N1060 C1058 1.317 . S
N1061 C1057 1.328 . S
N1061 C1059 1.350 . S
H1062 C1057 0.930 . S
H1063 C1058 0.930 . S
C1064 O1065 1.224 . S
C1064 O1083 1.247 . S
O1065 C1064 1.224 . S
N1066 Co1056 2.128 . S
N1066 C1067 1.355 . S
N1066 C1069 1.311 . S
C1067 N1066 1.355 . S
C1067 C1068 1.363 . S
C1067 H1079 0.929 . S
C1068 C1067 1.363 . S
C1068 N1070 1.375 . S
C1068 H1086 0.931 . S
C1069 N1066 1.311 . S
C1069 N1070 1.347 . S
C1069 H1080 0.929 . S
N1070 C1068 1.375 . S
N1070 C1069 1.347 . S
C1071 C1074 1.365 . S
C1071 N1076 1.328 . S
C1071 H1077 0.929 . S
C1072 C1073 1.362 . S
C1072 C1075 1.378 . S
C1072 H1087 0.929 . S
C1073 C1072 1.362 . S
C1073 C1074 1.366 . S
C1074 C1071 1.365 . S
C1074 C1073 1.366 . S
C1074 H1088 0.930 . S
C1075 C1072 1.378 . S
C1075 N1076 1.315 . S
C1075 H1078 0.930 . S
N1076 Co1056 2.194 . S
N1076 C1071 1.328 . S
N1076 C1075 1.315 . S
H1077 C1071 0.929 . S
H1078 C1075 0.930 . S
H1079 C1067 0.929 . S
H1080 C1069 0.929 . S
O1081 Co1056 2.351 . S
O1081 C1084 1.244 . S
O1082 Co1056 2.155 . S
O1082 C1084 1.240 . S
O1083 Co1056 2.096 . S
O1083 C1064 1.247 . S
C1084 O1081 1.244 . S
C1084 O1082 1.240 . S
H1085 C1059 0.931 . S
H1086 C1068 0.931 . S
H1087 C1072 0.929 . S
H1088 C1074 0.930 . S
Co1089 N1093 2.148 . S
Co1089 N1099 2.128 . S
Co1089 N1109 2.194 . S
Co1089 O1114 2.351 . S
Co1089 O1115 2.155 . S
Co1089 O1116 2.096 . S
C1090 N1093 1.301 . S
C1090 N1094 1.328 . S
C1090 H1095 0.930 . S
C1091 C1092 1.333 . S
C1091 N1093 1.317 . S
C1091 H1096 0.930 . S
C1092 C1091 1.333 . S
C1092 N1094 1.350 . S
C1092 H1118 0.931 . S
N1093 Co1089 2.148 . S
N1093 C1090 1.301 . S
N1093 C1091 1.317 . S
N1094 C1090 1.328 . S
N1094 C1092 1.350 . S
H1095 C1090 0.930 . S
H1096 C1091 0.930 . S
C1097 O1098 1.224 . S
C1097 O1116 1.247 . S
O1098 C1097 1.224 . S
N1099 Co1089 2.128 . S
N1099 C1100 1.355 . S
N1099 C1102 1.311 . S
C1100 N1099 1.355 . S
C1100 C1101 1.363 . S
C1100 H1112 0.929 . S
C1101 C1100 1.363 . S
C1101 N1103 1.375 . S
C1101 H1119 0.931 . S
C1102 N1099 1.311 . S
C1102 N1103 1.347 . S
C1102 H1113 0.929 . S
N1103 C1101 1.375 . S
N1103 C1102 1.347 . S
C1104 C1107 1.365 . S
C1104 N1109 1.328 . S
C1104 H1110 0.929 . S
C1105 C1106 1.362 . S
C1105 C1108 1.378 . S
C1105 H1120 0.929 . S
C1106 C1105 1.362 . S
C1106 C1107 1.366 . S
C1107 C1104 1.365 . S
C1107 C1106 1.366 . S
C1107 H1121 0.930 . S
C1108 C1105 1.378 . S
C1108 N1109 1.315 . S
C1108 H1111 0.930 . S
N1109 Co1089 2.194 . S
N1109 C1104 1.328 . S
N1109 C1108 1.315 . S
H1110 C1104 0.929 . S
H1111 C1108 0.930 . S
H1112 C1100 0.929 . S
H1113 C1102 0.929 . S
O1114 Co1089 2.351 . S
O1114 C1117 1.244 . S
O1115 Co1089 2.155 . S
O1115 C1117 1.240 . S
O1116 Co1089 2.096 . S
O1116 C1097 1.247 . S
C1117 O1114 1.244 . S
C1117 O1115 1.240 . S
H1118 C1092 0.931 . S
H1119 C1101 0.931 . S
H1120 C1105 0.929 . S
H1121 C1107 0.930 . S
Co1122 N1126 2.148 . S
Co1122 N1132 2.128 . S
Co1122 N1142 2.194 . S
Co1122 O1147 2.351 . S
Co1122 O1148 2.155 . S
Co1122 O1149 2.096 . S
C1123 N1126 1.301 . S
C1123 N1127 1.328 . S
C1123 H1128 0.930 . S
C1124 C1125 1.333 . S
C1124 N1126 1.317 . S
C1124 H1129 0.930 . S
C1125 C1124 1.333 . S
C1125 N1127 1.350 . S
C1125 H1151 0.931 . S
N1126 Co1122 2.148 . S
N1126 C1123 1.301 . S
N1126 C1124 1.317 . S
N1127 C1123 1.328 . S
N1127 C1125 1.350 . S
H1128 C1123 0.930 . S
H1129 C1124 0.930 . S
C1130 O1131 1.224 . S
C1130 O1149 1.247 . S
O1131 C1130 1.224 . S
N1132 Co1122 2.128 . S
N1132 C1133 1.355 . S
N1132 C1135 1.311 . S
C1133 N1132 1.355 . S
C1133 C1134 1.363 . S
C1133 H1145 0.929 . S
C1134 C1133 1.363 . S
C1134 N1136 1.375 . S
C1134 H1152 0.931 . S
C1135 N1132 1.311 . S
C1135 N1136 1.347 . S
C1135 H1146 0.929 . S
N1136 C1134 1.375 . S
N1136 C1135 1.347 . S
C1137 C1140 1.365 1_554 S
C1137 N1142 1.328 . S
C1137 H1143 0.929 . S
C1138 C1139 1.362 . S
C1138 C1141 1.378 . S
C1138 H1153 0.929 . S
C1139 C1138 1.362 . S
C1139 C1140 1.366 1_554 S
C1140 C1137 1.365 1_556 S
C1140 C1139 1.366 1_556 S
C1140 H1154 0.930 . S
C1141 C1138 1.378 . S
C1141 N1142 1.315 . S
C1141 H1144 0.930 . S
N1142 Co1122 2.194 . S
N1142 C1137 1.328 . S
N1142 C1141 1.315 . S
H1143 C1137 0.929 . S
H1144 C1141 0.930 . S
H1145 C1133 0.929 . S
H1146 C1135 0.929 . S
O1147 Co1122 2.351 . S
O1147 C1150 1.244 . S
O1148 Co1122 2.155 . S
O1148 C1150 1.240 . S
O1149 Co1122 2.096 . S
O1149 C1130 1.247 . S
C1150 O1147 1.244 . S
C1150 O1148 1.240 . S
H1151 C1125 0.931 . S
H1152 C1134 0.931 . S
H1153 C1138 0.929 . S
H1154 C1140 0.930 . S
Co1155 N1159 2.148 . S
Co1155 N1165 2.128 . S
Co1155 N1175 2.194 . S
Co1155 O1180 2.351 . S
Co1155 O1181 2.155 . S
Co1155 O1182 2.096 . S
C1156 N1159 1.301 . S
C1156 N1160 1.328 . S
C1156 H1161 0.930 . S
C1157 C1158 1.333 . S
C1157 N1159 1.317 . S
C1157 H1162 0.930 . S
C1158 C1157 1.333 . S
C1158 N1160 1.350 . S
C1158 H1184 0.931 . S
N1159 Co1155 2.148 . S
N1159 C1156 1.301 . S
N1159 C1157 1.317 . S
N1160 C1156 1.328 . S
N1160 C1158 1.350 . S
H1161 C1156 0.930 . S
H1162 C1157 0.930 . S
C1163 O1164 1.224 . S
C1163 O1182 1.247 . S
O1164 C1163 1.224 . S
N1165 Co1155 2.128 . S
N1165 C1166 1.355 . S
N1165 C1168 1.311 . S
C1166 N1165 1.355 . S
C1166 C1167 1.363 . S
C1166 H1178 0.929 . S
C1167 C1166 1.363 . S
C1167 N1169 1.375 . S
C1167 H1185 0.931 . S
C1168 N1165 1.311 . S
C1168 N1169 1.347 . S
C1168 H1179 0.929 . S
N1169 C1167 1.375 . S
N1169 C1168 1.347 . S
C1170 C1173 1.365 . S
C1170 N1175 1.328 . S
C1170 H1176 0.929 . S
C1171 C1172 1.362 . S
C1171 C1174 1.378 . S
C1171 H1186 0.929 . S
C1172 C1171 1.362 . S
C1172 C1173 1.366 . S
C1173 C1170 1.365 . S
C1173 C1172 1.366 . S
C1173 H1187 0.930 . S
C1174 C1171 1.378 . S
C1174 N1175 1.315 . S
C1174 H1177 0.930 . S
N1175 Co1155 2.194 . S
N1175 C1170 1.328 . S
N1175 C1174 1.315 . S
H1176 C1170 0.929 . S
H1177 C1174 0.930 . S
H1178 C1166 0.929 . S
H1179 C1168 0.929 . S
O1180 Co1155 2.351 . S
O1180 C1183 1.244 . S
O1181 Co1155 2.155 . S
O1181 C1183 1.240 . S
O1182 Co1155 2.096 . S
O1182 C1163 1.247 . S
C1183 O1180 1.244 . S
C1183 O1181 1.240 . S
H1184 C1158 0.931 . S
H1185 C1167 0.931 . S
H1186 C1171 0.929 . S
H1187 C1173 0.930 . S
Co1188 N1192 2.148 . S
Co1188 N1198 2.128 . S
Co1188 N1208 2.194 . S
Co1188 O1213 2.351 . S
Co1188 O1214 2.155 . S
Co1188 O1215 2.096 . S
C1189 N1192 1.301 . S
C1189 N1193 1.328 . S
C1189 H1194 0.930 . S
C1190 C1191 1.333 . S
C1190 N1192 1.317 . S
C1190 H1195 0.930 . S
C1191 C1190 1.333 . S
C1191 N1193 1.350 . S
C1191 H1217 0.931 . S
N1192 Co1188 2.148 . S
N1192 C1189 1.301 . S
N1192 C1190 1.317 . S
N1193 C1189 1.328 . S
N1193 C1191 1.350 . S
H1194 C1189 0.930 . S
H1195 C1190 0.930 . S
C1196 O1197 1.224 . S
C1196 O1215 1.247 . S
O1197 C1196 1.224 . S
N1198 Co1188 2.128 . S
N1198 C1199 1.355 . S
N1198 C1201 1.311 . S
C1199 N1198 1.355 . S
C1199 C1200 1.363 . S
C1199 H1211 0.929 . S
C1200 C1199 1.363 . S
C1200 N1202 1.375 . S
C1200 H1218 0.931 . S
C1201 N1198 1.311 . S
C1201 N1202 1.347 . S
C1201 H1212 0.929 . S
N1202 C1200 1.375 . S
N1202 C1201 1.347 . S
C1203 C1206 1.365 1_556 S
C1203 N1208 1.328 . S
C1203 H1209 0.929 . S
C1204 C1205 1.362 . S
C1204 C1207 1.378 . S
C1204 H1219 0.929 . S
C1205 C1204 1.362 . S
C1205 C1206 1.366 1_556 S
C1206 C1203 1.365 1_554 S
C1206 C1205 1.366 1_554 S
C1206 H1220 0.930 . S
C1207 C1204 1.378 . S
C1207 N1208 1.315 . S
C1207 H1210 0.930 . S
N1208 Co1188 2.194 . S
N1208 C1203 1.328 . S
N1208 C1207 1.315 . S
H1209 C1203 0.929 . S
H1210 C1207 0.930 . S
H1211 C1199 0.929 . S
H1212 C1201 0.929 . S
O1213 Co1188 2.351 . S
O1213 C1216 1.244 . S
O1214 Co1188 2.155 . S
O1214 C1216 1.240 . S
O1215 Co1188 2.096 . S
O1215 C1196 1.247 . S
C1216 O1213 1.244 . S
C1216 O1214 1.240 . S
H1217 C1191 0.931 . S
H1218 C1200 0.931 . S
H1219 C1204 0.929 . S
H1220 C1206 0.930 . S
Co1221 N1225 2.148 . S
Co1221 N1231 2.128 . S
Co1221 N1241 2.194 . S
Co1221 O1246 2.351 . S
Co1221 O1247 2.155 . S
Co1221 O1248 2.096 . S
C1222 N1225 1.301 . S
C1222 N1226 1.328 . S
C1222 H1227 0.930 . S
C1223 C1224 1.333 . S
C1223 N1225 1.317 . S
C1223 H1228 0.930 . S
C1224 C1223 1.333 . S
C1224 N1226 1.350 . S
C1224 H1250 0.931 . S
N1225 Co1221 2.148 . S
N1225 C1222 1.301 . S
N1225 C1223 1.317 . S
N1226 C1222 1.328 . S
N1226 C1224 1.350 . S
H1227 C1222 0.930 . S
H1228 C1223 0.930 . S
C1229 O1230 1.224 . S
C1229 O1248 1.247 . S
O1230 C1229 1.224 . S
N1231 Co1221 2.128 . S
N1231 C1232 1.355 . S
N1231 C1234 1.311 . S
C1232 N1231 1.355 . S
C1232 C1233 1.363 . S
C1232 H1244 0.929 . S
C1233 C1232 1.363 . S
C1233 N1235 1.375 . S
C1233 H1251 0.931 . S
C1234 N1231 1.311 . S
C1234 N1235 1.347 . S
C1234 H1245 0.929 . S
N1235 C1233 1.375 . S
N1235 C1234 1.347 . S
C1236 C1239 1.365 . S
C1236 N1241 1.328 . S
C1236 H1242 0.929 . S
C1237 C1238 1.362 . S
C1237 C1240 1.378 . S
C1237 H1252 0.929 . S
C1238 C1237 1.362 . S
C1238 C1239 1.366 . S
C1239 C1236 1.365 . S
C1239 C1238 1.366 . S
C1239 H1253 0.930 . S
C1240 C1237 1.378 . S
C1240 N1241 1.315 . S
C1240 H1243 0.930 . S
N1241 Co1221 2.194 . S
N1241 C1236 1.328 . S
N1241 C1240 1.315 . S
H1242 C1236 0.929 . S
H1243 C1240 0.930 . S
H1244 C1232 0.929 . S
H1245 C1234 0.929 . S
O1246 Co1221 2.351 . S
O1246 C1249 1.244 . S
O1247 Co1221 2.155 . S
O1247 C1249 1.240 . S
O1248 Co1221 2.096 . S
O1248 C1229 1.247 . S
C1249 O1246 1.244 . S
C1249 O1247 1.240 . S
H1250 C1224 0.931 . S
H1251 C1233 0.931 . S
H1252 C1237 0.929 . S
H1253 C1239 0.930 . S
Co1254 N1258 2.148 . S
Co1254 N1264 2.128 . S
Co1254 N1274 2.194 . S
Co1254 O1279 2.351 . S
Co1254 O1280 2.155 . S
Co1254 O1281 2.096 . S
C1255 N1258 1.301 . S
C1255 N1259 1.328 . S
C1255 H1260 0.930 . S
C1256 C1257 1.333 . S
C1256 N1258 1.317 . S
C1256 H1261 0.930 . S
C1257 C1256 1.333 . S
C1257 N1259 1.350 . S
C1257 H1283 0.931 . S
N1258 Co1254 2.148 . S
N1258 C1255 1.301 . S
N1258 C1256 1.317 . S
N1259 C1255 1.328 . S
N1259 C1257 1.350 . S
H1260 C1255 0.930 . S
H1261 C1256 0.930 . S
C1262 O1263 1.224 . S
C1262 O1281 1.247 . S
O1263 C1262 1.224 . S
N1264 Co1254 2.128 . S
N1264 C1265 1.355 . S
N1264 C1267 1.311 . S
C1265 N1264 1.355 . S
C1265 C1266 1.363 . S
C1265 H1277 0.929 . S
C1266 C1265 1.363 . S
C1266 N1268 1.375 . S
C1266 H1284 0.931 . S
C1267 N1264 1.311 . S
C1267 N1268 1.347 . S
C1267 H1278 0.929 . S
N1268 C1266 1.375 . S
N1268 C1267 1.347 . S
C1269 C1272 1.365 . S
C1269 N1274 1.328 . S
C1269 H1275 0.929 . S
C1270 C1271 1.362 . S
C1270 C1273 1.378 . S
C1270 H1285 0.929 . S
C1271 C1270 1.362 . S
C1271 C1272 1.366 . S
C1272 C1269 1.365 . S
C1272 C1271 1.366 . S
C1272 H1286 0.930 . S
C1273 C1270 1.378 . S
C1273 N1274 1.315 . S
C1273 H1276 0.930 . S
N1274 Co1254 2.194 . S
N1274 C1269 1.328 . S
N1274 C1273 1.315 . S
H1275 C1269 0.929 . S
H1276 C1273 0.930 . S
H1277 C1265 0.929 . S
H1278 C1267 0.929 . S
O1279 Co1254 2.351 . S
O1279 C1282 1.244 . S
O1280 Co1254 2.155 . S
O1280 C1282 1.240 . S
O1281 Co1254 2.096 . S
O1281 C1262 1.247 . S
C1282 O1279 1.244 . S
C1282 O1280 1.240 . S
H1283 C1257 0.931 . S
H1284 C1266 0.931 . S
H1285 C1270 0.929 . S
H1286 C1272 0.930 . S
Co1287 N1291 2.148 . S
Co1287 N1297 2.128 . S
Co1287 N1307 2.194 . S
Co1287 O1312 2.351 . S
Co1287 O1313 2.155 . S
Co1287 O1314 2.096 . S
C1288 N1291 1.301 . S
C1288 N1292 1.328 . S
C1288 H1293 0.930 . S
C1289 C1290 1.333 . S
C1289 N1291 1.317 . S
C1289 H1294 0.930 . S
C1290 C1289 1.333 . S
C1290 N1292 1.350 . S
C1290 H1316 0.931 . S
N1291 Co1287 2.148 . S
N1291 C1288 1.301 . S
N1291 C1289 1.317 . S
N1292 C1288 1.328 . S
N1292 C1290 1.350 . S
H1293 C1288 0.930 . S
H1294 C1289 0.930 . S
C1295 O1296 1.224 . S
C1295 O1314 1.247 . S
O1296 C1295 1.224 . S
N1297 Co1287 2.128 . S
N1297 C1298 1.355 . S
N1297 C1300 1.311 . S
C1298 N1297 1.355 . S
C1298 C1299 1.363 . S
C1298 H1310 0.929 . S
C1299 C1298 1.363 . S
C1299 N1301 1.375 . S
C1299 H1317 0.931 . S
C1300 N1297 1.311 . S
C1300 N1301 1.347 . S
C1300 H1311 0.929 . S
N1301 C1299 1.375 . S
N1301 C1300 1.347 . S
C1302 C1305 1.365 . S
C1302 N1307 1.328 . S
C1302 H1308 0.929 . S
C1303 C1304 1.362 . S
C1303 C1306 1.378 . S
C1303 H1318 0.929 . S
C1304 C1303 1.362 . S
C1304 C1305 1.366 . S
C1305 C1302 1.365 . S
C1305 C1304 1.366 . S
C1305 H1319 0.930 . S
C1306 C1303 1.378 . S
C1306 N1307 1.315 . S
C1306 H1309 0.930 . S
N1307 Co1287 2.194 . S
N1307 C1302 1.328 . S
N1307 C1306 1.315 . S
H1308 C1302 0.929 . S
H1309 C1306 0.930 . S
H1310 C1298 0.929 . S
H1311 C1300 0.929 . S
O1312 Co1287 2.351 . S
O1312 C1315 1.244 . S
O1313 Co1287 2.155 . S
O1313 C1315 1.240 . S
O1314 Co1287 2.096 . S
O1314 C1295 1.247 . S
C1315 O1312 1.244 . S
C1315 O1313 1.240 . S
H1316 C1290 0.931 . S
H1317 C1299 0.931 . S
H1318 C1303 0.929 . S
H1319 C1305 0.930 . S
Co1320 N1324 2.148 . S
Co1320 N1330 2.128 . S
Co1320 N1340 2.194 . S
Co1320 O1345 2.351 . S
Co1320 O1346 2.155 . S
Co1320 O1347 2.096 . S
C1321 N1324 1.301 . S
C1321 N1325 1.328 . S
C1321 H1326 0.930 . S
C1322 C1323 1.333 . S
C1322 N1324 1.317 . S
C1322 H1327 0.930 . S
C1323 C1322 1.333 . S
C1323 N1325 1.350 . S
C1323 H1349 0.931 . S
N1324 Co1320 2.148 . S
N1324 C1321 1.301 . S
N1324 C1322 1.317 . S
N1325 C1321 1.328 . S
N1325 C1323 1.350 . S
H1326 C1321 0.930 . S
H1327 C1322 0.930 . S
C1328 O1329 1.224 . S
C1328 O1347 1.247 . S
O1329 C1328 1.224 . S
N1330 Co1320 2.128 . S
N1330 C1331 1.355 . S
N1330 C1333 1.311 . S
C1331 N1330 1.355 . S
C1331 C1332 1.363 . S
C1331 H1343 0.929 . S
C1332 C1331 1.363 . S
C1332 N1334 1.375 . S
C1332 H1350 0.931 . S
C1333 N1330 1.311 . S
C1333 N1334 1.347 . S
C1333 H1344 0.929 . S
N1334 C1332 1.375 . S
N1334 C1333 1.347 . S
C1335 C1338 1.365 . S
C1335 N1340 1.328 . S
C1335 H1341 0.929 . S
C1336 C1337 1.362 . S
C1336 C1339 1.378 . S
C1336 H1351 0.929 . S
C1337 C1336 1.362 . S
C1337 C1338 1.366 . S
C1338 C1335 1.365 . S
C1338 C1337 1.366 . S
C1338 H1352 0.930 . S
C1339 C1336 1.378 . S
C1339 N1340 1.315 . S
C1339 H1342 0.930 . S
N1340 Co1320 2.194 . S
N1340 C1335 1.328 . S
N1340 C1339 1.315 . S
H1341 C1335 0.929 . S
H1342 C1339 0.930 . S
H1343 C1331 0.929 . S
H1344 C1333 0.929 . S
O1345 Co1320 2.351 . S
O1345 C1348 1.244 . S
O1346 Co1320 2.155 . S
O1346 C1348 1.240 . S
O1347 Co1320 2.096 . S
O1347 C1328 1.247 . S
C1348 O1345 1.244 . S
C1348 O1346 1.240 . S
H1349 C1323 0.931 . S
H1350 C1332 0.931 . S
H1351 C1336 0.929 . S
H1352 C1338 0.930 . S
Co1353 N1357 2.148 . S
Co1353 N1363 2.128 . S
Co1353 N1373 2.194 . S
Co1353 O1378 2.351 . S
Co1353 O1379 2.155 . S
Co1353 O1380 2.096 . S
C1354 N1357 1.301 . S
C1354 N1358 1.328 . S
C1354 H1359 0.930 . S
C1355 C1356 1.333 . S
C1355 N1357 1.317 . S
C1355 H1360 0.930 . S
C1356 C1355 1.333 . S
C1356 N1358 1.350 . S
C1356 H1382 0.931 . S
N1357 Co1353 2.148 . S
N1357 C1354 1.301 . S
N1357 C1355 1.317 . S
N1358 C1354 1.328 . S
N1358 C1356 1.350 . S
H1359 C1354 0.930 . S
H1360 C1355 0.930 . S
C1361 O1362 1.224 . S
C1361 O1380 1.247 . S
O1362 C1361 1.224 . S
N1363 Co1353 2.128 . S
N1363 C1364 1.355 . S
N1363 C1366 1.311 . S
C1364 N1363 1.355 . S
C1364 C1365 1.363 . S
C1364 H1376 0.929 . S
C1365 C1364 1.363 . S
C1365 N1367 1.375 . S
C1365 H1383 0.931 . S
C1366 N1363 1.311 . S
C1366 N1367 1.347 . S
C1366 H1377 0.929 . S
N1367 C1365 1.375 . S
N1367 C1366 1.347 . S
C1368 C1371 1.365 1_455 S
C1368 N1373 1.328 . S
C1368 H1374 0.929 . S
C1369 C1370 1.362 . S
C1369 C1372 1.378 . S
C1369 H1384 0.929 . S
C1370 C1369 1.362 . S
C1370 C1371 1.366 1_455 S
C1371 C1368 1.365 1_655 S
C1371 C1370 1.366 1_655 S
C1371 H1385 0.930 . S
C1372 C1369 1.378 . S
C1372 N1373 1.315 . S
C1372 H1375 0.930 . S
N1373 Co1353 2.194 . S
N1373 C1368 1.328 . S
N1373 C1372 1.315 . S
H1374 C1368 0.929 . S
H1375 C1372 0.930 . S
H1376 C1364 0.929 . S
H1377 C1366 0.929 . S
O1378 Co1353 2.351 . S
O1378 C1381 1.244 . S
O1379 Co1353 2.155 . S
O1379 C1381 1.240 . S
O1380 Co1353 2.096 . S
O1380 C1361 1.247 . S
C1381 O1378 1.244 . S
C1381 O1379 1.240 . S
H1382 C1356 0.931 . S
H1383 C1365 0.931 . S
H1384 C1369 0.929 . S
H1385 C1371 0.930 . S
Co1386 N1390 2.148 . S
Co1386 N1396 2.128 . S
Co1386 N1406 2.194 . S
Co1386 O1411 2.351 . S
Co1386 O1412 2.155 . S
Co1386 O1413 2.096 . S
C1387 N1390 1.301 . S
C1387 N1391 1.328 . S
C1387 H1392 0.930 . S
C1388 C1389 1.333 . S
C1388 N1390 1.317 . S
C1388 H1393 0.930 . S
C1389 C1388 1.333 . S
C1389 N1391 1.350 . S
C1389 H1415 0.931 . S
N1390 Co1386 2.148 . S
N1390 C1387 1.301 . S
N1390 C1388 1.317 . S
N1391 C1387 1.328 . S
N1391 C1389 1.350 . S
H1392 C1387 0.930 . S
H1393 C1388 0.930 . S
C1394 O1395 1.224 . S
C1394 O1413 1.247 . S
O1395 C1394 1.224 . S
N1396 Co1386 2.128 . S
N1396 C1397 1.355 . S
N1396 C1399 1.311 . S
C1397 N1396 1.355 . S
C1397 C1398 1.363 . S
C1397 H1409 0.929 . S
C1398 C1397 1.363 . S
C1398 N1400 1.375 . S
C1398 H1416 0.931 . S
C1399 N1396 1.311 . S
C1399 N1400 1.347 . S
C1399 H1410 0.929 . S
N1400 C1398 1.375 . S
N1400 C1399 1.347 . S
C1401 C1404 1.365 . S
C1401 N1406 1.328 . S
C1401 H1407 0.929 . S
C1402 C1403 1.362 . S
C1402 C1405 1.378 . S
C1402 H1417 0.929 . S
C1403 C1402 1.362 . S
C1403 C1404 1.366 . S
C1404 C1401 1.365 . S
C1404 C1403 1.366 . S
C1404 H1418 0.930 . S
C1405 C1402 1.378 . S
C1405 N1406 1.315 . S
C1405 H1408 0.930 . S
N1406 Co1386 2.194 . S
N1406 C1401 1.328 . S
N1406 C1405 1.315 . S
H1407 C1401 0.929 . S
H1408 C1405 0.930 . S
H1409 C1397 0.929 . S
H1410 C1399 0.929 . S
O1411 Co1386 2.351 . S
O1411 C1414 1.244 . S
O1412 Co1386 2.155 . S
O1412 C1414 1.240 . S
O1413 Co1386 2.096 . S
O1413 C1394 1.247 . S
C1414 O1411 1.244 . S
C1414 O1412 1.240 . S
H1415 C1389 0.931 . S
H1416 C1398 0.931 . S
H1417 C1402 0.929 . S
H1418 C1404 0.930 . S
Co1419 N1423 2.148 . S
Co1419 N1429 2.128 . S
Co1419 N1439 2.194 . S
Co1419 O1444 2.351 . S
Co1419 O1445 2.155 . S
Co1419 O1446 2.096 . S
C1420 N1423 1.301 . S
C1420 N1424 1.328 . S
C1420 H1425 0.930 . S
C1421 C1422 1.333 . S
C1421 N1423 1.317 . S
C1421 H1426 0.930 . S
C1422 C1421 1.333 . S
C1422 N1424 1.350 . S
C1422 H1448 0.931 . S
N1423 Co1419 2.148 . S
N1423 C1420 1.301 . S
N1423 C1421 1.317 . S
N1424 C1420 1.328 . S
N1424 C1422 1.350 . S
H1425 C1420 0.930 . S
H1426 C1421 0.930 . S
C1427 O1428 1.224 . S
C1427 O1446 1.247 . S
O1428 C1427 1.224 . S
N1429 Co1419 2.128 . S
N1429 C1430 1.355 . S
N1429 C1432 1.311 . S
C1430 N1429 1.355 . S
C1430 C1431 1.384 . S
C1430 H1442 0.929 . S
C1431 C1430 1.384 . S
C1431 N1433 1.376 . S
C1431 H1449 0.913 1_556 S
C1432 N1429 1.311 . S
C1432 N1433 1.347 . S
C1432 H1443 0.929 . S
N1433 C1431 1.376 . S
N1433 C1432 1.347 . S
C1434 C1437 1.365 . S
C1434 N1439 1.328 . S
C1434 H1440 0.929 . S
C1435 C1436 1.362 . S
C1435 C1438 1.378 . S
C1435 H1450 0.929 . S
C1436 C1435 1.362 . S
C1436 C1437 1.366 . S
C1437 C1434 1.365 . S
C1437 C1436 1.366 . S
C1437 H1451 0.930 . S
C1438 C1435 1.378 . S
C1438 N1439 1.315 . S
C1438 H1441 0.930 . S
N1439 Co1419 2.194 . S
N1439 C1434 1.328 . S
N1439 C1438 1.315 . S
H1440 C1434 0.929 . S
H1441 C1438 0.930 . S
H1442 C1430 0.929 . S
H1443 C1432 0.929 . S
O1444 Co1419 2.351 . S
O1444 C1447 1.244 . S
O1445 Co1419 2.155 . S
O1445 C1447 1.240 . S
O1446 Co1419 2.096 . S
O1446 C1427 1.247 . S
C1447 O1444 1.244 . S
C1447 O1445 1.240 . S
H1448 C1422 0.931 . S
H1449 C1431 0.913 1_554 S
H1450 C1435 0.929 . S
H1451 C1437 0.930 . S
Co1452 N1456 2.148 . S
Co1452 N1462 2.128 . S
Co1452 N1472 2.194 . S
Co1452 O1477 2.351 . S
Co1452 O1478 2.155 . S
Co1452 O1479 2.096 . S
C1453 N1456 1.301 . S
C1453 N1457 1.328 . S
C1453 H1458 0.930 . S
C1454 C1455 1.333 . S
C1454 N1456 1.317 . S
C1454 H1459 0.930 . S
C1455 C1454 1.333 . S
C1455 N1457 1.350 . S
C1455 H1481 0.931 . S
N1456 Co1452 2.148 . S
N1456 C1453 1.301 . S
N1456 C1454 1.317 . S
N1457 C1453 1.328 . S
N1457 C1455 1.350 . S
H1458 C1453 0.930 . S
H1459 C1454 0.930 . S
C1460 O1461 1.224 . S
C1460 O1479 1.247 . S
O1461 C1460 1.224 . S
N1462 Co1452 2.128 . S
N1462 C1463 1.355 . S
N1462 C1465 1.311 . S
C1463 N1462 1.355 . S
C1463 C1464 1.363 . S
C1463 H1475 0.929 . S
C1464 C1463 1.363 . S
C1464 N1466 1.375 . S
C1464 H1482 0.931 . S
C1465 N1462 1.311 . S
C1465 N1466 1.347 . S
C1465 H1476 0.929 . S
N1466 C1464 1.375 . S
N1466 C1465 1.347 . S
C1467 C1470 1.365 . S
C1467 N1472 1.328 . S
C1467 H1473 0.929 . S
C1468 C1469 1.362 . S
C1468 C1471 1.378 . S
C1468 H1483 0.929 . S
C1469 C1468 1.362 . S
C1469 C1470 1.366 . S
C1470 C1467 1.365 . S
C1470 C1469 1.366 . S
C1470 H1484 0.930 . S
C1471 C1468 1.378 . S
C1471 N1472 1.315 . S
C1471 H1474 0.930 . S
N1472 Co1452 2.194 . S
N1472 C1467 1.328 . S
N1472 C1471 1.315 . S
H1473 C1467 0.929 . S
H1474 C1471 0.930 . S
H1475 C1463 0.929 . S
H1476 C1465 0.929 . S
O1477 Co1452 2.351 . S
O1477 C1480 1.244 . S
O1478 Co1452 2.155 . S
O1478 C1480 1.240 . S
O1479 Co1452 2.096 . S
O1479 C1460 1.247 . S
C1480 O1477 1.244 . S
C1480 O1478 1.240 . S
H1481 C1455 0.931 . S
H1482 C1464 0.931 . S
H1483 C1468 0.929 . S
H1484 C1470 0.930 . S
Co1485 N1489 2.148 . S
Co1485 N1495 2.128 . S
Co1485 N1505 2.194 . S
Co1485 O1510 2.351 . S
Co1485 O1511 2.155 . S
Co1485 O1512 2.096 . S
C1486 N1489 1.301 . S
C1486 N1490 1.328 . S
C1486 H1491 0.930 . S
C1487 C1488 1.333 . S
C1487 N1489 1.317 . S
C1487 H1492 0.930 . S
C1488 C1487 1.333 . S
C1488 N1490 1.350 . S
C1488 H1514 0.931 . S
N1489 Co1485 2.148 . S
N1489 C1486 1.301 . S
N1489 C1487 1.317 . S
N1490 C1486 1.328 . S
N1490 C1488 1.350 . S
H1491 C1486 0.930 . S
H1492 C1487 0.930 . S
C1493 O1494 1.224 . S
C1493 O1512 1.247 . S
O1494 C1493 1.224 . S
N1495 Co1485 2.128 . S
N1495 C1496 1.355 . S
N1495 C1498 1.311 . S
C1496 N1495 1.355 . S
C1496 C1497 1.393 . S
C1496 H1508 0.929 . S
C1497 C1496 1.393 . S
C1497 N1499 1.377 . S
C1497 H1515 0.905 1_554 S
C1498 N1495 1.311 . S
C1498 N1499 1.347 . S
C1498 H1509 0.929 . S
N1499 C1497 1.377 . S
N1499 C1498 1.347 . S
C1500 C1503 1.365 1_655 S
C1500 N1505 1.328 . S
C1500 H1506 0.929 . S
C1501 C1502 1.362 . S
C1501 C1504 1.378 . S
C1501 H1516 0.929 . S
C1502 C1501 1.362 . S
C1502 C1503 1.366 1_655 S
C1503 C1500 1.365 1_455 S
C1503 C1502 1.366 1_455 S
C1503 H1517 0.930 . S
C1504 C1501 1.378 . S
C1504 N1505 1.315 . S
C1504 H1507 0.930 . S
N1505 Co1485 2.194 . S
N1505 C1500 1.328 . S
N1505 C1504 1.315 . S
H1506 C1500 0.929 . S
H1507 C1504 0.930 . S
H1508 C1496 0.929 . S
H1509 C1498 0.929 . S
O1510 Co1485 2.351 . S
O1510 C1513 1.244 . S
O1511 Co1485 2.155 . S
O1511 C1513 1.240 . S
O1512 Co1485 2.096 . S
O1512 C1493 1.247 . S
C1513 O1510 1.244 . S
C1513 O1511 1.240 . S
H1514 C1488 0.931 . S
H1515 C1497 0.905 1_556 S
H1516 C1501 0.929 . S
H1517 C1503 0.930 . S
Co1518 N1522 2.148 . S
Co1518 N1528 2.128 . S
Co1518 N1538 2.194 . S
Co1518 O1543 2.351 . S
Co1518 O1544 2.155 . S
Co1518 O1545 2.096 . S
C1519 N1522 1.301 . S
C1519 N1523 1.328 . S
C1519 H1524 0.930 . S
C1520 C1521 1.333 . S
C1520 N1522 1.317 . S
C1520 H1525 0.930 . S
C1521 C1520 1.333 . S
C1521 N1523 1.350 . S
C1521 H1547 0.931 . S
N1522 Co1518 2.148 . S
N1522 C1519 1.301 . S
N1522 C1520 1.317 . S
N1523 C1519 1.328 . S
N1523 C1521 1.350 . S
H1524 C1519 0.930 . S
H1525 C1520 0.930 . S
C1526 O1527 1.224 . S
C1526 O1545 1.247 . S
O1527 C1526 1.224 . S
N1528 Co1518 2.128 . S
N1528 C1529 1.355 . S
N1528 C1531 1.311 . S
C1529 N1528 1.355 . S
C1529 C1530 1.363 . S
C1529 H1541 0.929 . S
C1530 C1529 1.363 . S
C1530 N1532 1.375 . S
C1530 H1548 0.931 . S
C1531 N1528 1.311 . S
C1531 N1532 1.347 . S
C1531 H1542 0.929 . S
N1532 C1530 1.375 . S
N1532 C1531 1.347 . S
C1533 C1536 1.365 . S
C1533 N1538 1.328 . S
C1533 H1539 0.929 . S
C1534 C1535 1.362 . S
C1534 C1537 1.378 . S
C1534 H1549 0.929 . S
C1535 C1534 1.362 . S
C1535 C1536 1.366 . S
C1536 C1533 1.365 . S
C1536 C1535 1.366 . S
C1536 H1550 0.930 . S
C1537 C1534 1.378 . S
C1537 N1538 1.315 . S
C1537 H1540 0.930 . S
N1538 Co1518 2.194 . S
N1538 C1533 1.328 . S
N1538 C1537 1.315 . S
H1539 C1533 0.929 . S
H1540 C1537 0.930 . S
H1541 C1529 0.929 . S
H1542 C1531 0.929 . S
O1543 Co1518 2.351 . S
O1543 C1546 1.244 . S
O1544 Co1518 2.155 . S
O1544 C1546 1.240 . S
O1545 Co1518 2.096 . S
O1545 C1526 1.247 . S
C1546 O1543 1.244 . S
C1546 O1544 1.240 . S
H1547 C1521 0.931 . S
H1548 C1530 0.931 . S
H1549 C1534 0.929 . S
H1550 C1536 0.930 . S
Co1551 N1555 2.148 . S
Co1551 N1561 2.128 . S
Co1551 N1571 2.194 . S
Co1551 O1576 2.351 . S
Co1551 O1577 2.155 . S
Co1551 O1578 2.096 . S
C1552 N1555 1.301 . S
C1552 N1556 1.328 . S
C1552 H1557 0.930 . S
C1553 C1554 1.333 . S
C1553 N1555 1.317 . S
C1553 H1558 0.930 . S
C1554 C1553 1.333 . S
C1554 N1556 1.350 . S
C1554 H1580 0.931 . S
N1555 Co1551 2.148 . S
N1555 C1552 1.301 . S
N1555 C1553 1.317 . S
N1556 C1552 1.328 . S
N1556 C1554 1.350 . S
H1557 C1552 0.930 . S
H1558 C1553 0.930 . S
C1559 O1560 1.224 . S
C1559 O1578 1.247 . S
O1560 C1559 1.224 . S
N1561 Co1551 2.128 . S
N1561 C1562 1.355 . S
N1561 C1564 1.311 . S
C1562 N1561 1.355 . S
C1562 C1563 1.363 . S
C1562 H1574 0.929 . S
C1563 C1562 1.363 . S
C1563 N1565 1.375 . S
C1563 H1581 0.931 . S
C1564 N1561 1.311 . S
C1564 N1565 1.347 . S
C1564 H1575 0.929 . S
N1565 C1563 1.375 . S
N1565 C1564 1.347 . S
C1566 C1569 1.365 . S
C1566 N1571 1.328 . S
C1566 H1572 0.929 . S
C1567 C1568 1.362 . S
C1567 C1570 1.378 . S
C1567 H1582 0.929 . S
C1568 C1567 1.362 . S
C1568 C1569 1.366 . S
C1569 C1566 1.365 . S
C1569 C1568 1.366 . S
C1569 H1583 0.930 . S
C1570 C1567 1.378 . S
C1570 N1571 1.315 . S
C1570 H1573 0.930 . S
N1571 Co1551 2.194 . S
N1571 C1566 1.328 . S
N1571 C1570 1.315 . S
H1572 C1566 0.929 . S
H1573 C1570 0.930 . S
H1574 C1562 0.929 . S
H1575 C1564 0.929 . S
O1576 Co1551 2.351 . S
O1576 C1579 1.244 . S
O1577 Co1551 2.155 . S
O1577 C1579 1.240 . S
O1578 Co1551 2.096 . S
O1578 C1559 1.247 . S
C1579 O1576 1.244 . S
C1579 O1577 1.240 . S
H1580 C1554 0.931 . S
H1581 C1563 0.931 . S
H1582 C1567 0.929 . S
H1583 C1569 0.930 . S
C1584 C1585 1.369 . S
C1584 C1586 1.419 . S
C1584 H1588 0.930 . S
C1585 C1584 1.369 . S
C1585 C1594 1.429 . S
C1586 C1584 1.419 . S
C1586 C1587 1.363 . S
C1586 H1589 0.929 . S
C1587 C1586 1.363 . S
C1587 C1593 1.428 1_455 S
H1588 C1584 0.930 . S
H1589 C1586 0.929 . S
S1590 N1591 1.613 . S
S1590 N1592 1.610 . S
N1591 S1590 1.613 . S
N1591 C1594 1.350 1_655 S
N1592 S1590 1.610 . S
N1592 C1593 1.351 . S
C1593 C1587 1.428 1_655 S
C1593 N1592 1.351 . S
C1593 C1594 1.434 1_655 S
C1594 C1585 1.429 . S
C1594 N1591 1.350 1_455 S
C1594 C1593 1.434 1_455 S
C1595 C1596 1.369 . S
C1595 C1597 1.419 . S
C1595 H1599 0.930 . S
C1596 C1595 1.369 . S
C1596 C1605 1.429 . S
C1597 C1595 1.419 . S
C1597 C1598 1.363 . S
C1597 H1600 0.929 . S
C1598 C1597 1.363 . S
C1598 C1604 1.428 . S
H1599 C1595 0.930 . S
H1600 C1597 0.929 . S
S1601 N1602 1.613 . S
S1601 N1603 1.610 . S
N1602 S1601 1.613 . S
N1602 C1605 1.350 . S
N1603 S1601 1.610 . S
N1603 C1604 1.351 . S
C1604 C1598 1.428 . S
C1604 N1603 1.351 . S
C1604 C1605 1.434 . S
C1605 C1596 1.429 . S
C1605 N1602 1.350 . S
C1605 C1604 1.434 . S
C1606 C1607 1.369 . S
C1606 C1608 1.419 . S
C1606 H1610 0.930 . S
C1607 C1606 1.369 . S
C1607 C1616 1.429 . S
C1608 C1606 1.419 . S
C1608 C1609 1.363 . S
C1608 H1611 0.929 . S
C1609 C1608 1.363 . S
C1609 C1615 1.428 . S
H1610 C1606 0.930 . S
H1611 C1608 0.929 . S
S1612 N1613 1.613 . S
S1612 N1614 1.610 . S
N1613 S1612 1.613 . S
N1613 C1616 1.350 . S
N1614 S1612 1.610 . S
N1614 C1615 1.351 . S
C1615 C1609 1.428 . S
C1615 N1614 1.351 . S
C1615 C1616 1.434 . S
C1616 C1607 1.429 . S
C1616 N1613 1.350 . S
C1616 C1615 1.434 . S
C1617 C1618 1.369 . S
C1617 C1619 1.419 . S
C1617 H1621 0.930 . S
C1618 C1617 1.369 . S
C1618 C1627 1.429 . S
C1619 C1617 1.419 . S
C1619 C1620 1.363 . S
C1619 H1622 0.929 . S
C1620 C1619 1.363 . S
C1620 C1626 1.428 . S
H1621 C1617 0.930 . S
H1622 C1619 0.929 . S
S1623 N1624 1.613 . S
S1623 N1625 1.610 . S
N1624 S1623 1.613 . S
N1624 C1627 1.350 . S
N1625 S1623 1.610 . S
N1625 C1626 1.351 . S
C1626 C1620 1.428 . S
C1626 N1625 1.351 . S
C1626 C1627 1.434 . S
C1627 C1618 1.429 . S
C1627 N1624 1.350 . S
C1627 C1626 1.434 . S
C1628 C1629 1.369 . S
C1628 C1630 1.419 . S
C1628 H1632 0.930 . S
C1629 C1628 1.369 . S
C1629 C1638 1.429 1_455 S
C1630 C1628 1.419 . S
C1630 C1631 1.363 . S
C1630 H1633 0.929 . S
C1631 C1630 1.363 . S
C1631 C1637 1.428 . S
H1632 C1628 0.930 . S
H1633 C1630 0.929 . S
S1634 N1635 1.613 . S
S1634 N1636 1.610 . S
N1635 S1634 1.613 . S
N1635 C1638 1.350 . S
N1636 S1634 1.610 . S
N1636 C1637 1.351 1_655 S
C1637 C1631 1.428 . S
C1637 N1636 1.351 1_455 S
C1637 C1638 1.434 1_455 S
C1638 C1629 1.429 1_655 S
C1638 N1635 1.350 . S
C1638 C1637 1.434 1_655 S
C1639 C1640 1.369 . S
C1639 C1641 1.419 . S
C1639 H1643 0.930 . S
C1640 C1639 1.369 . S
C1640 C1649 1.429 . S
C1641 C1639 1.419 . S
C1641 C1642 1.363 . S
C1641 H1644 0.929 . S
C1642 C1641 1.363 . S
C1642 C1648 1.428 . S
H1643 C1639 0.930 . S
H1644 C1641 0.929 . S
S1645 N1646 1.613 . S
S1645 N1647 1.610 . S
N1646 S1645 1.613 . S
N1646 C1649 1.350 . S
N1647 S1645 1.610 . S
N1647 C1648 1.351 . S
C1648 C1642 1.428 . S
C1648 N1647 1.351 . S
C1648 C1649 1.434 . S
C1649 C1640 1.429 . S
C1649 N1646 1.350 . S
C1649 C1648 1.434 . S
C1650 C1651 1.369 . S
C1650 C1652 1.419 . S
C1650 H1654 0.930 . S
C1651 C1650 1.369 . S
C1651 C1660 1.429 . S
C1652 C1650 1.419 . S
C1652 C1653 1.363 . S
C1652 H1655 0.929 . S
C1653 C1652 1.363 . S
C1653 C1659 1.428 . S
H1654 C1650 0.930 . S
H1655 C1652 0.929 . S
S1656 N1657 1.613 . S
S1656 N1658 1.610 . S
N1657 S1656 1.613 . S
N1657 C1660 1.350 . S
N1658 S1656 1.610 . S
N1658 C1659 1.351 . S
C1659 C1653 1.428 . S
C1659 N1658 1.351 . S
C1659 C1660 1.434 . S
C1660 C1651 1.429 . S
C1660 N1657 1.350 . S
C1660 C1659 1.434 . S
C1661 C1662 1.369 . S
C1661 C1663 1.419 . S
C1661 H1665 0.930 . S
C1662 C1661 1.369 . S
C1662 C1671 1.429 . S
C1663 C1661 1.419 . S
C1663 C1664 1.363 . S
C1663 H1666 0.929 . S
C1664 C1663 1.363 . S
C1664 C1670 1.428 . S
H1665 C1661 0.930 . S
H1666 C1663 0.929 . S
S1667 N1668 1.613 . S
S1667 N1669 1.610 . S
N1668 S1667 1.613 . S
N1668 C1671 1.350 . S
N1669 S1667 1.610 . S
N1669 C1670 1.351 . S
C1670 C1664 1.428 . S
C1670 N1669 1.351 . S
C1670 C1671 1.434 . S
C1671 C1662 1.429 . S
C1671 N1668 1.350 . S
C1671 C1670 1.434 . S
C1672 C1673 1.369 . S
C1672 C1674 1.419 . S
C1672 H1676 0.930 . S
C1673 C1672 1.369 . S
C1673 C1682 1.429 1_545 S
C1674 C1672 1.419 . S
C1674 C1675 1.363 . S
C1674 H1677 0.929 . S
C1675 C1674 1.363 . S
C1675 C1681 1.428 . S
H1676 C1672 0.930 . S
H1677 C1674 0.929 . S
S1678 N1679 1.613 . S
S1678 N1680 1.610 1_565 S
N1679 S1678 1.613 . S
N1679 C1682 1.350 . S
N1680 S1678 1.610 1_545 S
N1680 C1681 1.351 . S
C1681 C1675 1.428 . S
C1681 N1680 1.351 . S
C1681 C1682 1.434 1_545 S
C1682 C1673 1.429 1_565 S
C1682 N1679 1.350 . S
C1682 C1681 1.434 1_565 S
C1683 C1684 1.369 . S
C1683 C1685 1.419 . S
C1683 H1687 0.930 . S
C1684 C1683 1.369 . S
C1684 C1693 1.429 . S
C1685 C1683 1.419 . S
C1685 C1686 1.363 . S
C1685 H1688 0.929 . S
C1686 C1685 1.363 . S
C1686 C1692 1.428 . S
H1687 C1683 0.930 . S
H1688 C1685 0.929 . S
S1689 N1690 1.613 . S
S1689 N1691 1.610 . S
N1690 S1689 1.613 . S
N1690 C1693 1.350 . S
N1691 S1689 1.610 . S
N1691 C1692 1.351 . S
C1692 C1686 1.428 . S
C1692 N1691 1.351 . S
C1692 C1693 1.434 . S
C1693 C1684 1.429 . S
C1693 N1690 1.350 . S
C1693 C1692 1.434 . S
C1694 C1695 1.369 . S
C1694 C1696 1.419 . S
C1694 H1698 0.930 . S
C1695 C1694 1.369 . S
C1695 C1704 1.429 1_565 S
C1696 C1694 1.419 . S
C1696 C1697 1.363 . S
C1696 H1699 0.929 . S
C1697 C1696 1.363 . S
C1697 C1703 1.428 . S
H1698 C1694 0.930 . S
H1699 C1696 0.929 . S
S1700 N1701 1.613 . S
S1700 N1702 1.610 . S
N1701 S1700 1.613 . S
N1701 C1704 1.350 . S
N1702 S1700 1.610 . S
N1702 C1703 1.351 1_545 S
C1703 C1697 1.428 . S
C1703 N1702 1.351 1_565 S
C1703 C1704 1.434 1_565 S
C1704 C1695 1.429 1_545 S
C1704 N1701 1.350 . S
C1704 C1703 1.434 1_545 S
C1705 C1706 1.369 . S
C1705 C1707 1.419 . S
C1705 H1709 0.930 . S
C1706 C1705 1.369 . S
C1706 C1715 1.429 . S
C1707 C1705 1.419 . S
C1707 C1708 1.363 . S
C1707 H1710 0.929 . S
C1708 C1707 1.363 . S
C1708 C1714 1.428 . S
H1709 C1705 0.930 . S
H1710 C1707 0.929 . S
S1711 N1712 1.613 . S
S1711 N1713 1.610 . S
N1712 S1711 1.613 . S
N1712 C1715 1.350 . S
N1713 S1711 1.610 . S
N1713 C1714 1.351 . S
C1714 C1708 1.428 . S
C1714 N1713 1.351 . S
C1714 C1715 1.434 . S
C1715 C1706 1.429 . S
C1715 N1712 1.350 . S
C1715 C1714 1.434 . S
C1716 C1717 1.369 . S
C1716 C1718 1.419 . S
C1716 H1720 0.930 1_565 S
C1717 C1716 1.369 . S
C1717 C1726 1.429 . S
C1718 C1716 1.419 . S
C1718 C1719 1.363 . S
C1718 H1721 0.929 . S
C1719 C1718 1.363 . S
C1719 C1725 1.428 . S
H1720 C1716 0.930 1_545 S
H1721 C1718 0.929 . S
S1722 N1723 1.613 . S
S1722 N1724 1.610 . S
N1723 S1722 1.613 . S
N1723 C1726 1.350 . S
N1724 S1722 1.610 . S
N1724 C1725 1.351 . S
C1725 C1719 1.428 . S
C1725 N1724 1.351 . S
C1725 C1726 1.434 . S
C1726 C1717 1.429 . S
C1726 N1723 1.350 . S
C1726 C1725 1.434 . S
C1727 C1728 1.369 . S
C1727 C1729 1.419 . S
C1727 H1731 0.930 . S
C1728 C1727 1.369 . S
C1728 C1737 1.429 . S
C1729 C1727 1.419 . S
C1729 C1730 1.363 . S
C1729 H1732 0.929 . S
C1730 C1729 1.363 . S
C1730 C1736 1.428 . S
H1731 C1727 0.930 . S
H1732 C1729 0.929 . S
S1733 N1734 1.613 . S
S1733 N1735 1.610 . S
N1734 S1733 1.613 . S
N1734 C1737 1.350 . S
N1735 S1733 1.610 . S
N1735 C1736 1.351 . S
C1736 C1730 1.428 . S
C1736 N1735 1.351 . S
C1736 C1737 1.434 . S
C1737 C1728 1.429 . S
C1737 N1734 1.350 . S
C1737 C1736 1.434 . S
C1738 C1739 1.369 . S
C1738 C1740 1.419 . S
C1738 H1742 0.930 . S
C1739 C1738 1.369 . S
C1739 C1748 1.429 . S
C1740 C1738 1.419 . S
C1740 C1741 1.363 . S
C1740 H1743 0.929 . S
C1741 C1740 1.363 . S
C1741 C1747 1.428 . S
H1742 C1738 0.930 . S
H1743 C1740 0.929 . S
S1744 N1745 1.613 . S
S1744 N1746 1.609 1_545 S
N1745 S1744 1.613 . S
N1745 C1748 1.350 . S
N1746 S1744 1.609 1_565 S
N1746 C1747 1.350 1_565 S
C1747 C1741 1.428 . S
C1747 N1746 1.350 1_545 S
C1747 C1748 1.434 . S
C1748 C1739 1.429 . S
C1748 N1745 1.350 . S
C1748 C1747 1.434 . S
C1749 C1750 1.369 . S
C1749 C1751 1.419 . S
C1749 H1753 0.930 . S
C1750 C1749 1.369 . S
C1750 C1759 1.429 . S
C1751 C1749 1.419 . S
C1751 C1752 1.363 . S
C1751 H1754 0.929 . S
C1752 C1751 1.363 . S
C1752 C1758 1.428 . S
H1753 C1749 0.930 . S
H1754 C1751 0.929 . S
S1755 N1756 1.613 . S
S1755 N1757 1.610 . S
N1756 S1755 1.613 . S
N1756 C1759 1.350 . S
N1757 S1755 1.610 . S
N1757 C1758 1.351 . S
C1758 C1752 1.428 . S
C1758 N1757 1.351 . S
C1758 C1759 1.434 . S
C1759 C1750 1.429 . S
C1759 N1756 1.350 . S
C1759 C1758 1.434 . S
C1760 C1761 1.369 . S
C1760 C1762 1.419 1_554 S
C1760 H1764 0.930 . S
C1761 C1760 1.369 . S
C1761 C1770 1.429 . S
C1762 C1760 1.419 1_556 S
C1762 C1763 1.363 1_556 S
C1762 H1765 0.929 . S
C1763 C1762 1.363 1_554 S
C1763 C1769 1.428 . S
H1764 C1760 0.930 . S
H1765 C1762 0.929 . S
S1766 N1767 1.613 . S
S1766 N1768 1.610 . S
N1767 S1766 1.613 . S
N1767 C1770 1.350 . S
N1768 S1766 1.610 . S
N1768 C1769 1.351 . S
C1769 C1763 1.428 . S
C1769 N1768 1.351 . S
C1769 C1770 1.434 . S
C1770 C1761 1.429 . S
C1770 N1767 1.350 . S
C1770 C1769 1.434 . S
C1771 C1772 1.369 . S
C1771 C1773 1.419 1_556 S
C1771 H1775 0.930 1_556 S
C1772 C1771 1.369 . S
C1772 C1781 1.429 . S
C1773 C1771 1.419 1_554 S
C1773 C1774 1.363 1_554 S
C1773 H1776 0.929 . S
C1774 C1773 1.363 1_556 S
C1774 C1780 1.428 . S
H1775 C1771 0.930 1_554 S
H1776 C1773 0.929 . S
S1777 N1778 1.613 . S
S1777 N1779 1.610 . S
N1778 S1777 1.613 . S
N1778 C1781 1.350 . S
N1779 S1777 1.610 . S
N1779 C1780 1.351 . S
C1780 C1774 1.428 . S
C1780 N1779 1.351 . S
C1780 C1781 1.434 . S
C1781 C1772 1.429 . S
C1781 N1778 1.350 . S
C1781 C1780 1.434 . S
C1782 C1783 1.369 . S
C1782 C1784 1.419 . S
C1782 H1786 0.930 . S
C1783 C1782 1.369 . S
C1783 C1792 1.429 . S
C1784 C1782 1.419 . S
C1784 C1785 1.363 . S
C1784 H1787 0.929 . S
C1785 C1784 1.363 . S
C1785 C1791 1.428 . S
H1786 C1782 0.930 . S
H1787 C1784 0.929 . S
S1788 N1789 1.613 . S
S1788 N1790 1.610 . S
N1789 S1788 1.613 . S
N1789 C1792 1.350 . S
N1790 S1788 1.610 . S
N1790 C1791 1.351 . S
C1791 C1785 1.428 . S
C1791 N1790 1.351 . S
C1791 C1792 1.434 . S
C1792 C1783 1.429 . S
C1792 N1789 1.350 . S
C1792 C1791 1.434 . S
C1793 C1794 1.369 . S
C1793 C1795 1.419 . S
C1793 H1797 0.930 . S
C1794 C1793 1.369 . S
C1794 C1803 1.429 . S
C1795 C1793 1.419 . S
C1795 C1796 1.363 . S
C1795 H1798 0.929 . S
C1796 C1795 1.363 . S
C1796 C1802 1.428 . S
H1797 C1793 0.930 . S
H1798 C1795 0.929 . S
S1799 N1800 1.613 . S
S1799 N1801 1.610 . S
N1800 S1799 1.613 . S
N1800 C1803 1.350 . S
N1801 S1799 1.610 . S
N1801 C1802 1.351 . S
C1802 C1796 1.428 . S
C1802 N1801 1.351 . S
C1802 C1803 1.434 . S
C1803 C1794 1.429 . S
C1803 N1800 1.350 . S
C1803 C1802 1.434 . S
C1804 C1805 1.369 . S
C1804 C1806 1.419 . S
C1804 H1808 0.930 . S
C1805 C1804 1.369 . S
C1805 C1814 1.429 . S
C1806 C1804 1.419 . S
C1806 C1807 1.363 . S
C1806 H1809 0.929 . S
C1807 C1806 1.363 . S
C1807 C1813 1.428 . S
H1808 C1804 0.930 . S
H1809 C1806 0.929 . S
S1810 N1811 1.613 . S
S1810 N1812 1.610 . S
N1811 S1810 1.613 . S
N1811 C1814 1.350 . S
N1812 S1810 1.610 . S
N1812 C1813 1.351 . S
C1813 C1807 1.428 . S
C1813 N1812 1.351 . S
C1813 C1814 1.434 . S
C1814 C1805 1.429 . S
C1814 N1811 1.350 . S
C1814 C1813 1.434 . S
C1815 C1816 1.369 . S
C1815 C1817 1.419 . S
C1815 H1819 0.930 . S
C1816 C1815 1.369 . S
C1816 C1825 1.429 . S
C1817 C1815 1.419 . S
C1817 C1818 1.363 . S
C1817 H1820 0.929 . S
C1818 C1817 1.363 . S
C1818 C1824 1.428 . S
H1819 C1815 0.930 . S
H1820 C1817 0.929 . S
S1821 N1822 1.613 . S
S1821 N1823 1.610 . S
N1822 S1821 1.613 . S
N1822 C1825 1.350 . S
N1823 S1821 1.610 . S
N1823 C1824 1.351 . S
C1824 C1818 1.428 . S
C1824 N1823 1.351 . S
C1824 C1825 1.434 . S
C1825 C1816 1.429 . S
C1825 N1822 1.350 . S
C1825 C1824 1.434 . S
C1826 C1827 1.369 . S
C1826 C1828 1.419 . S
C1826 H1830 0.930 . S
C1827 C1826 1.369 . S
C1827 C1836 1.429 . S
C1828 C1826 1.419 . S
C1828 C1829 1.363 . S
C1828 H1831 0.929 . S
C1829 C1828 1.363 . S
C1829 C1835 1.428 . S
H1830 C1826 0.930 . S
H1831 C1828 0.929 . S
S1832 N1833 1.613 . S
S1832 N1834 1.610 . S
N1833 S1832 1.613 . S
N1833 C1836 1.350 . S
N1834 S1832 1.610 . S
N1834 C1835 1.351 . S
C1835 C1829 1.428 . S
C1835 N1834 1.351 . S
C1835 C1836 1.434 . S
C1836 C1827 1.429 . S
C1836 N1833 1.350 . S
C1836 C1835 1.434 . S
C1837 C1838 1.369 . S
C1837 C1839 1.419 . S
C1837 H1841 0.930 . S
C1838 C1837 1.369 . S
C1838 C1847 1.429 . S
C1839 C1837 1.419 . S
C1839 C1840 1.363 . S
C1839 H1842 0.929 . S
C1840 C1839 1.363 . S
C1840 C1846 1.428 . S
H1841 C1837 0.930 . S
H1842 C1839 0.929 . S
S1843 N1844 1.613 . S
S1843 N1845 1.610 . S
N1844 S1843 1.613 . S
N1844 C1847 1.350 . S
N1845 S1843 1.610 . S
N1845 C1846 1.351 . S
C1846 C1840 1.428 . S
C1846 N1845 1.351 . S
C1846 C1847 1.434 . S
C1847 C1838 1.429 . S
C1847 N1844 1.350 . S
C1847 C1846 1.434 . S
C1848 C1849 1.369 . S
C1848 C1850 1.419 . S
C1848 H1852 0.930 . S
C1849 C1848 1.369 . S
C1849 C1858 1.429 . S
C1850 C1848 1.419 . S
C1850 C1851 1.363 . S
C1850 H1853 0.929 . S
C1851 C1850 1.363 . S
C1851 C1857 1.428 . S
H1852 C1848 0.930 . S
H1853 C1850 0.929 . S
S1854 N1855 1.613 . S
S1854 N1856 1.610 . S
N1855 S1854 1.613 . S
N1855 C1858 1.350 . S
N1856 S1854 1.610 . S
N1856 C1857 1.351 . S
C1857 C1851 1.428 . S
C1857 N1856 1.351 . S
C1857 C1858 1.434 . S
C1858 C1849 1.429 . S
C1858 N1855 1.350 . S
C1858 C1857 1.434 . S
C1859 C1860 1.369 . S
C1859 C1861 1.419 . S
C1859 H1863 0.930 . S
C1860 C1859 1.369 . S
C1860 C1869 1.429 . S
C1861 C1859 1.419 . S
C1861 C1862 1.363 . S
C1861 H1864 0.929 . S
C1862 C1861 1.363 . S
C1862 C1868 1.428 . S
H1863 C1859 0.930 . S
H1864 C1861 0.929 . S
S1865 N1866 1.613 . S
S1865 N1867 1.610 . S
N1866 S1865 1.613 . S
N1866 C1869 1.350 . S
N1867 S1865 1.610 . S
N1867 C1868 1.351 . S
C1868 C1862 1.428 . S
C1868 N1867 1.351 . S
C1868 C1869 1.434 . S
C1869 C1860 1.429 . S
C1869 N1866 1.350 . S
C1869 C1868 1.434 . S
C1870 C1871 1.369 . S
C1870 C1872 1.419 . S
C1870 H1874 0.930 . S
C1871 C1870 1.369 . S
C1871 C1880 1.429 . S
C1872 C1870 1.419 . S
C1872 C1873 1.363 . S
C1872 H1875 0.929 . S
C1873 C1872 1.363 . S
C1873 C1879 1.428 . S
H1874 C1870 0.930 . S
H1875 C1872 0.929 . S
S1876 N1877 1.613 . S
S1876 N1878 1.610 . S
N1877 S1876 1.613 . S
N1877 C1880 1.350 . S
N1878 S1876 1.610 . S
N1878 C1879 1.351 . S
C1879 C1873 1.428 . S
C1879 N1878 1.351 . S
C1879 C1880 1.434 . S
C1880 C1871 1.429 . S
C1880 N1877 1.350 . S
C1880 C1879 1.434 . S
C1881 C1882 1.369 . S
C1881 C1883 1.419 . S
C1881 H1885 0.930 . S
C1882 C1881 1.369 . S
C1882 C1891 1.429 . S
C1883 C1881 1.419 . S
C1883 C1884 1.363 . S
C1883 H1886 0.929 . S
C1884 C1883 1.363 . S
C1884 C1890 1.428 . S
H1885 C1881 0.930 . S
H1886 C1883 0.929 . S
S1887 N1888 1.613 . S
S1887 N1889 1.610 . S
N1888 S1887 1.613 . S
N1888 C1891 1.350 . S
N1889 S1887 1.610 . S
N1889 C1890 1.351 . S
C1890 C1884 1.428 . S
C1890 N1889 1.351 . S
C1890 C1891 1.434 . S
C1891 C1882 1.429 . S
C1891 N1888 1.350 . S
C1891 C1890 1.434 . S
C1892 C1893 1.369 . S
C1892 C1894 1.419 . S
C1892 H1896 0.930 . S
C1893 C1892 1.369 . S
C1893 C1902 1.429 . S
C1894 C1892 1.419 . S
C1894 C1895 1.363 . S
C1894 H1897 0.929 . S
C1895 C1894 1.363 . S
C1895 C1901 1.428 . S
H1896 C1892 0.930 . S
H1897 C1894 0.929 . S
S1898 N1899 1.613 . S
S1898 N1900 1.610 . S
N1899 S1898 1.613 . S
N1899 C1902 1.350 . S
N1900 S1898 1.610 . S
N1900 C1901 1.351 . S
C1901 C1895 1.428 . S
C1901 N1900 1.351 . S
C1901 C1902 1.434 . S
C1902 C1893 1.429 . S
C1902 N1899 1.350 . S
C1902 C1901 1.434 . S
C1903 C1904 1.369 . S
C1903 C1905 1.419 . S
C1903 H1907 0.930 . S
C1904 C1903 1.369 . S
C1904 C1913 1.429 . S
C1905 C1903 1.419 . S
C1905 C1906 1.363 . S
C1905 H1908 0.929 . S
C1906 C1905 1.363 . S
C1906 C1912 1.428 . S
H1907 C1903 0.930 . S
H1908 C1905 0.929 . S
S1909 N1910 1.613 . S
S1909 N1911 1.610 . S
N1910 S1909 1.613 . S
N1910 C1913 1.350 . S
N1911 S1909 1.610 . S
N1911 C1912 1.351 . S
C1912 C1906 1.428 . S
C1912 N1911 1.351 . S
C1912 C1913 1.434 . S
C1913 C1904 1.429 . S
C1913 N1910 1.350 . S
C1913 C1912 1.434 . S
C1914 C1915 1.369 . S
C1914 C1916 1.419 1_655 S
C1914 H1918 0.930 1_655 S
C1915 C1914 1.369 . S
C1915 C1924 1.429 . S
C1916 C1914 1.419 1_455 S
C1916 C1917 1.363 1_455 S
C1916 H1919 0.929 . S
C1917 C1916 1.363 1_655 S
C1917 C1923 1.428 . S
H1918 C1914 0.930 1_455 S
H1919 C1916 0.929 . S
S1920 N1921 1.613 . S
S1920 N1922 1.610 . S
N1921 S1920 1.613 . S
N1921 C1924 1.350 . S
N1922 S1920 1.610 . S
N1922 C1923 1.351 . S
C1923 C1917 1.428 . S
C1923 N1922 1.351 . S
C1923 C1924 1.434 . S
C1924 C1915 1.429 . S
C1924 N1921 1.350 . S
C1924 C1923 1.434 . S
C1925 C1926 1.369 . S
C1925 C1927 1.419 . S
C1925 H1929 0.930 . S
C1926 C1925 1.369 . S
C1926 C1935 1.429 . S
C1927 C1925 1.419 . S
C1927 C1928 1.363 . S
C1927 H1930 0.929 . S
C1928 C1927 1.363 . S
C1928 C1934 1.428 . S
H1929 C1925 0.930 . S
H1930 C1927 0.929 . S
S1931 N1932 1.613 . S
S1931 N1933 1.610 . S
N1932 S1931 1.613 . S
N1932 C1935 1.350 . S
N1933 S1931 1.610 . S
N1933 C1934 1.351 . S
C1934 C1928 1.428 . S
C1934 N1933 1.351 . S
C1934 C1935 1.434 . S
C1935 C1926 1.429 . S
C1935 N1932 1.350 . S
C1935 C1934 1.434 . S
C1936 C1937 1.369 . S
C1936 C1938 1.419 . S
C1936 H1940 0.930 . S
C1937 C1936 1.369 . S
C1937 C1946 1.429 . S
C1938 C1936 1.419 . S
C1938 C1939 1.363 . S
C1938 H1941 0.929 . S
C1939 C1938 1.363 . S
C1939 C1945 1.428 . S
H1940 C1936 0.930 . S
H1941 C1938 0.929 . S
S1942 N1943 1.613 . S
S1942 N1944 1.610 . S
N1943 S1942 1.613 . S
N1943 C1946 1.350 . S
N1944 S1942 1.610 . S
N1944 C1945 1.351 . S
C1945 C1939 1.428 . S
C1945 N1944 1.351 . S
C1945 C1946 1.434 . S
C1946 C1937 1.429 . S
C1946 N1943 1.350 . S
C1946 C1945 1.434 . S
C1947 C1948 1.369 . S
C1947 C1949 1.419 . S
C1947 H1951 0.930 . S
C1948 C1947 1.369 . S
C1948 C1957 1.429 . S
C1949 C1947 1.419 . S
C1949 C1950 1.363 . S
C1949 H1952 0.929 . S
C1950 C1949 1.363 . S
C1950 C1956 1.428 . S
H1951 C1947 0.930 . S
H1952 C1949 0.929 . S
S1953 N1954 1.613 . S
S1953 N1955 1.610 . S
N1954 S1953 1.613 . S
N1954 C1957 1.350 . S
N1955 S1953 1.610 . S
N1955 C1956 1.351 . S
C1956 C1950 1.428 . S
C1956 N1955 1.351 . S
C1956 C1957 1.434 . S
C1957 C1948 1.429 . S
C1957 N1954 1.350 . S
C1957 C1956 1.434 . S
C1958 C1959 1.369 . S
C1958 C1960 1.419 . S
C1958 H1962 0.930 . S
C1959 C1958 1.369 . S
C1959 C1968 1.429 . S
C1960 C1958 1.419 . S
C1960 C1961 1.363 . S
C1960 H1963 0.929 . S
C1961 C1960 1.363 . S
C1961 C1967 1.428 . S
H1962 C1958 0.930 . S
H1963 C1960 0.929 . S
S1964 N1965 1.613 . S
S1964 N1966 1.610 . S
N1965 S1964 1.613 . S
N1965 C1968 1.350 . S
N1966 S1964 1.610 . S
N1966 C1967 1.351 . S
C1967 C1961 1.428 . S
C1967 N1966 1.351 . S
C1967 C1968 1.434 . S
C1968 C1959 1.429 . S
C1968 N1965 1.350 . S
C1968 C1967 1.434 . S
C1969 C1970 1.369 . S
C1969 C1971 1.419 . S
C1969 H1973 0.930 . S
C1970 C1969 1.369 . S
C1970 C1979 1.429 . S
C1971 C1969 1.419 . S
C1971 C1972 1.363 . S
C1971 H1974 0.929 . S
C1972 C1971 1.363 . S
C1972 C1978 1.428 . S
H1973 C1969 0.930 . S
H1974 C1971 0.929 . S
S1975 N1976 1.613 . S
S1975 N1977 1.610 . S
N1976 S1975 1.613 . S
N1976 C1979 1.350 . S
N1977 S1975 1.610 . S
N1977 C1978 1.351 . S
C1978 C1972 1.428 . S
C1978 N1977 1.351 . S
C1978 C1979 1.434 . S
C1979 C1970 1.429 . S
C1979 N1976 1.350 . S
C1979 C1978 1.434 . S
C1980 C1981 1.369 . S
C1980 C1982 1.419 . S
C1980 H1984 0.930 . S
C1981 C1980 1.369 . S
C1981 C1990 1.429 . S
C1982 C1980 1.419 . S
C1982 C1983 1.363 . S
C1982 H1985 0.929 . S
C1983 C1982 1.363 . S
C1983 C1989 1.428 . S
H1984 C1980 0.930 . S
H1985 C1982 0.929 . S
S1986 N1987 1.613 . S
S1986 N1988 1.610 . S
N1987 S1986 1.613 . S
N1987 C1990 1.350 . S
N1988 S1986 1.610 . S
N1988 C1989 1.351 . S
C1989 C1983 1.428 . S
C1989 N1988 1.351 . S
C1989 C1990 1.434 . S
C1990 C1981 1.429 . S
C1990 N1987 1.350 . S
C1990 C1989 1.434 . S
C1991 C1992 1.369 . S
C1991 C1993 1.419 . S
C1991 H1995 0.930 . S
C1992 C1991 1.369 . S
C1992 C2001 1.429 . S
C1993 C1991 1.419 . S
C1993 C1994 1.363 . S
C1993 H1996 0.929 . S
C1994 C1993 1.363 . S
C1994 C2000 1.428 . S
H1995 C1991 0.930 . S
H1996 C1993 0.929 . S
S1997 N1998 1.613 . S
S1997 N1999 1.610 . S
N1998 S1997 1.613 . S
N1998 C2001 1.350 . S
N1999 S1997 1.610 . S
N1999 C2000 1.351 . S
C2000 C1994 1.428 . S
C2000 N1999 1.351 . S
C2000 C2001 1.434 . S
C2001 C1992 1.429 . S
C2001 N1998 1.350 . S
C2001 C2000 1.434 . S
C2002 C2003 1.369 . S
C2002 C2004 1.419 . S
C2002 H2006 0.930 . S
C2003 C2002 1.369 . S
C2003 C2012 1.429 . S
C2004 C2002 1.419 . S
C2004 C2005 1.363 . S
C2004 H2007 0.929 . S
C2005 C2004 1.363 . S
C2005 C2011 1.428 . S
H2006 C2002 0.930 . S
H2007 C2004 0.929 . S
S2008 N2009 1.613 . S
S2008 N2010 1.610 . S
N2009 S2008 1.613 . S
N2009 C2012 1.350 . S
N2010 S2008 1.610 . S
N2010 C2011 1.351 . S
C2011 C2005 1.428 . S
C2011 N2010 1.351 . S
C2011 C2012 1.434 . S
C2012 C2003 1.429 . S
C2012 N2009 1.350 . S
C2012 C2011 1.434 . S
C2013 C2014 1.369 . S
C2013 C2015 1.419 . S
C2013 H2017 0.930 . S
C2014 C2013 1.369 . S
C2014 C2023 1.429 . S
C2015 C2013 1.419 . S
C2015 C2016 1.363 . S
C2015 H2018 0.929 . S
C2016 C2015 1.363 . S
C2016 C2022 1.428 . S
H2017 C2013 0.930 . S
H2018 C2015 0.929 . S
S2019 N2020 1.613 . S
S2019 N2021 1.610 . S
N2020 S2019 1.613 . S
N2020 C2023 1.350 . S
N2021 S2019 1.610 . S
N2021 C2022 1.351 . S
C2022 C2016 1.428 . S
C2022 N2021 1.351 . S
C2022 C2023 1.434 . S
C2023 C2014 1.429 . S
C2023 N2020 1.350 . S
C2023 C2022 1.434 . S
C2024 C2025 1.369 . S
C2024 C2026 1.419 . S
C2024 H2028 0.930 . S
C2025 C2024 1.369 . S
C2025 C2034 1.429 . S
C2026 C2024 1.419 . S
C2026 C2027 1.363 . S
C2026 H2029 0.929 . S
C2027 C2026 1.363 . S
C2027 C2033 1.428 . S
H2028 C2024 0.930 . S
H2029 C2026 0.929 . S
S2030 N2031 1.613 . S
S2030 N2032 1.610 . S
N2031 S2030 1.613 . S
N2031 C2034 1.350 . S
N2032 S2030 1.610 . S
N2032 C2033 1.351 . S
C2033 C2027 1.428 . S
C2033 N2032 1.351 . S
C2033 C2034 1.434 . S
C2034 C2025 1.429 . S
C2034 N2031 1.350 . S
C2034 C2033 1.434 . S
C2035 C2036 1.369 . S
C2035 C2037 1.419 . S
C2035 H2039 0.930 . S
C2036 C2035 1.369 . S
C2036 C2045 1.429 . S
C2037 C2035 1.419 . S
C2037 C2038 1.363 . S
C2037 H2040 0.929 . S
C2038 C2037 1.363 . S
C2038 C2044 1.428 . S
H2039 C2035 0.930 . S
H2040 C2037 0.929 . S
S2041 N2042 1.613 . S
S2041 N2043 1.610 . S
N2042 S2041 1.613 . S
N2042 C2045 1.350 . S
N2043 S2041 1.610 . S
N2043 C2044 1.351 . S
C2044 C2038 1.428 . S
C2044 N2043 1.351 . S
C2044 C2045 1.434 . S
C2045 C2036 1.429 . S
C2045 N2042 1.350 . S
C2045 C2044 1.434 . S
C2046 C2047 1.369 . S
C2046 C2048 1.419 . S
C2046 H2050 0.930 . S
C2047 C2046 1.369 . S
C2047 C2056 1.429 . S
C2048 C2046 1.419 . S
C2048 C2049 1.363 . S
C2048 H2051 0.929 . S
C2049 C2048 1.363 . S
C2049 C2055 1.428 . S
H2050 C2046 0.930 . S
H2051 C2048 0.929 . S
S2052 N2053 1.613 . S
S2052 N2054 1.610 . S
N2053 S2052 1.613 . S
N2053 C2056 1.350 . S
N2054 S2052 1.610 . S
N2054 C2055 1.351 . S
C2055 C2049 1.428 . S
C2055 N2054 1.351 . S
C2055 C2056 1.434 . S
C2056 C2047 1.429 . S
C2056 N2053 1.350 . S
C2056 C2055 1.434 . S
C2057 C2058 1.369 . S
C2057 C2059 1.419 1_556 S
C2057 H2061 0.930 1_556 S
C2058 C2057 1.369 . S
C2058 C2067 1.429 . S
C2059 C2057 1.419 1_554 S
C2059 C2060 1.363 1_554 S
C2059 H2062 0.929 . S
C2060 C2059 1.363 1_556 S
C2060 C2066 1.428 . S
H2061 C2057 0.930 1_554 S
H2062 C2059 0.929 . S
S2063 N2064 1.613 . S
S2063 N2065 1.610 . S
N2064 S2063 1.613 . S
N2064 C2067 1.350 . S
N2065 S2063 1.610 . S
N2065 C2066 1.351 . S
C2066 C2060 1.428 . S
C2066 N2065 1.351 . S
C2066 C2067 1.434 . S
C2067 C2058 1.429 . S
C2067 N2064 1.350 . S
C2067 C2066 1.434 . S
C2068 C2069 1.369 . S
C2068 C2070 1.419 . S
C2068 H2072 0.930 . S
C2069 C2068 1.369 . S
C2069 C2078 1.429 . S
C2070 C2068 1.419 . S
C2070 C2071 1.363 . S
C2070 H2073 0.929 . S
C2071 C2070 1.363 . S
C2071 C2077 1.428 . S
H2072 C2068 0.930 . S
H2073 C2070 0.929 . S
S2074 N2075 1.613 . S
S2074 N2076 1.610 . S
N2075 S2074 1.613 . S
N2075 C2078 1.350 . S
N2076 S2074 1.610 . S
N2076 C2077 1.351 . S
C2077 C2071 1.428 . S
C2077 N2076 1.351 . S
C2077 C2078 1.434 . S
C2078 C2069 1.429 . S
C2078 N2075 1.350 . S
C2078 C2077 1.434 . S
C2079 C2080 1.369 . S
C2079 C2081 1.419 . S
C2079 H2083 0.930 . S
C2080 C2079 1.369 . S
C2080 C2089 1.429 1_554 S
C2081 C2079 1.419 . S
C2081 C2082 1.363 . S
C2081 H2084 0.929 . S
C2082 C2081 1.363 . S
C2082 C2088 1.428 . S
H2083 C2079 0.930 . S
H2084 C2081 0.929 . S
S2085 N2086 1.613 . S
S2085 N2087 1.610 . S
N2086 S2085 1.613 . S
N2086 C2089 1.350 . S
N2087 S2085 1.610 . S
N2087 C2088 1.351 1_556 S
C2088 C2082 1.428 . S
C2088 N2087 1.351 1_554 S
C2088 C2089 1.434 1_554 S
C2089 C2080 1.429 1_556 S
C2089 N2086 1.350 . S
C2089 C2088 1.434 1_556 S
C2090 C2091 1.369 . S
C2090 C2092 1.419 . S
C2090 H2094 0.930 . S
C2091 C2090 1.369 . S
C2091 C2100 1.429 . S
C2092 C2090 1.419 . S
C2092 C2093 1.363 . S
C2092 H2095 0.929 . S
C2093 C2092 1.363 . S
C2093 C2099 1.428 . S
H2094 C2090 0.930 . S
H2095 C2092 0.929 . S
S2096 N2097 1.613 . S
S2096 N2098 1.610 . S
N2097 S2096 1.613 . S
N2097 C2100 1.350 . S
N2098 S2096 1.610 . S
N2098 C2099 1.351 . S
C2099 C2093 1.428 . S
C2099 N2098 1.351 . S
C2099 C2100 1.434 . S
C2100 C2091 1.429 . S
C2100 N2097 1.350 . S
C2100 C2099 1.434 . S
C2101 C2102 1.369 . S
C2101 C2103 1.419 . S
C2101 H2105 0.930 . S
C2102 C2101 1.369 . S
C2102 C2111 1.429 . S
C2103 C2101 1.419 . S
C2103 C2104 1.363 . S
C2103 H2106 0.929 . S
C2104 C2103 1.363 . S
C2104 C2110 1.428 . S
H2105 C2101 0.930 . S
H2106 C2103 0.929 . S
S2107 N2108 1.613 . S
S2107 N2109 1.610 . S
N2108 S2107 1.613 . S
N2108 C2111 1.350 . S
N2109 S2107 1.610 . S
N2109 C2110 1.351 . S
C2110 C2104 1.428 . S
C2110 N2109 1.351 . S
C2110 C2111 1.434 . S
C2111 C2102 1.429 . S
C2111 N2108 1.350 . S
C2111 C2110 1.434 . S
C2112 C2113 1.369 . S
C2112 C2114 1.419 . S
C2112 H2116 0.930 . S
C2113 C2112 1.369 . S
C2113 C2122 1.429 . S
C2114 C2112 1.419 . S
C2114 C2115 1.363 . S
C2114 H2117 0.929 . S
C2115 C2114 1.363 . S
C2115 C2121 1.428 . S
H2116 C2112 0.930 . S
H2117 C2114 0.929 . S
S2118 N2119 1.613 . S
S2118 N2120 1.610 . S
N2119 S2118 1.613 . S
N2119 C2122 1.350 . S
N2120 S2118 1.610 . S
N2120 C2121 1.351 . S
C2121 C2115 1.428 . S
C2121 N2120 1.351 . S
C2121 C2122 1.434 . S
C2122 C2113 1.429 . S
C2122 N2119 1.350 . S
C2122 C2121 1.434 . S
C2123 C2124 1.369 . S
C2123 C2125 1.419 . S
C2123 H2127 0.930 . S
C2124 C2123 1.369 . S
C2124 C2133 1.429 . S
C2125 C2123 1.419 . S
C2125 C2126 1.363 . S
C2125 H2128 0.929 . S
C2126 C2125 1.363 . S
C2126 C2132 1.428 . S
H2127 C2123 0.930 . S
H2128 C2125 0.929 . S
S2129 N2130 1.613 . S
S2129 N2131 1.610 . S
N2130 S2129 1.613 . S
N2130 C2133 1.350 . S
N2131 S2129 1.610 . S
N2131 C2132 1.351 . S
C2132 C2126 1.428 . S
C2132 N2131 1.351 . S
C2132 C2133 1.434 . S
C2133 C2124 1.429 . S
C2133 N2130 1.350 . S
C2133 C2132 1.434 . S
C2134 C2135 1.369 . S
C2134 C2136 1.419 . S
C2134 H2138 0.930 . S
C2135 C2134 1.369 . S
C2135 C2144 1.429 . S
C2136 C2134 1.419 . S
C2136 C2137 1.363 . S
C2136 H2139 0.929 . S
C2137 C2136 1.363 . S
C2137 C2143 1.428 . S
H2138 C2134 0.930 . S
H2139 C2136 0.929 . S
S2140 N2141 1.613 . S
S2140 N2142 1.610 . S
N2141 S2140 1.613 . S
N2141 C2144 1.350 . S
N2142 S2140 1.610 . S
N2142 C2143 1.351 . S
C2143 C2137 1.428 . S
C2143 N2142 1.351 . S
C2143 C2144 1.434 . S
C2144 C2135 1.429 . S
C2144 N2141 1.350 . S
C2144 C2143 1.434 . S
C2145 C2146 1.369 . S
C2145 C2147 1.419 . S
C2145 H2149 0.930 . S
C2146 C2145 1.369 . S
C2146 C2155 1.429 . S
C2147 C2145 1.419 . S
C2147 C2148 1.363 . S
C2147 H2150 0.929 . S
C2148 C2147 1.363 . S
C2148 C2154 1.428 . S
H2149 C2145 0.930 . S
H2150 C2147 0.929 . S
S2151 N2152 1.613 . S
S2151 N2153 1.610 . S
N2152 S2151 1.613 . S
N2152 C2155 1.350 . S
N2153 S2151 1.610 . S
N2153 C2154 1.351 . S
C2154 C2148 1.428 . S
C2154 N2153 1.351 . S
C2154 C2155 1.434 . S
C2155 C2146 1.429 . S
C2155 N2152 1.350 . S
C2155 C2154 1.434 . S
C2156 C2157 1.369 . S
C2156 C2158 1.419 . S
C2156 H2160 0.930 . S
C2157 C2156 1.369 . S
C2157 C2166 1.429 . S
C2158 C2156 1.419 . S
C2158 C2159 1.363 . S
C2158 H2161 0.929 . S
C2159 C2158 1.363 . S
C2159 C2165 1.428 . S
H2160 C2156 0.930 . S
H2161 C2158 0.929 . S
S2162 N2163 1.613 . S
S2162 N2164 1.610 . S
N2163 S2162 1.613 . S
N2163 C2166 1.350 . S
N2164 S2162 1.610 . S
N2164 C2165 1.351 . S
C2165 C2159 1.428 . S
C2165 N2164 1.351 . S
C2165 C2166 1.434 . S
C2166 C2157 1.429 . S
C2166 N2163 1.350 . S
C2166 C2165 1.434 . S
C2167 C2168 1.369 . S
C2167 C2169 1.419 . S
C2167 H2171 0.930 . S
C2168 C2167 1.369 . S
C2168 C2177 1.429 . S
C2169 C2167 1.419 . S
C2169 C2170 1.363 . S
C2169 H2172 0.929 . S
C2170 C2169 1.363 . S
C2170 C2176 1.428 . S
H2171 C2167 0.930 . S
H2172 C2169 0.929 . S
S2173 N2174 1.613 . S
S2173 N2175 1.610 . S
N2174 S2173 1.613 . S
N2174 C2177 1.350 . S
N2175 S2173 1.610 . S
N2175 C2176 1.351 . S
C2176 C2170 1.428 . S
C2176 N2175 1.351 . S
C2176 C2177 1.434 . S
C2177 C2168 1.429 . S
C2177 N2174 1.350 . S
C2177 C2176 1.434 . S
C2178 C2179 1.369 . S
C2178 C2180 1.419 . S
C2178 H2182 0.930 . S
C2179 C2178 1.369 . S
C2179 C2188 1.429 . S
C2180 C2178 1.419 . S
C2180 C2181 1.363 . S
C2180 H2183 0.929 . S
C2181 C2180 1.363 . S
C2181 C2187 1.428 . S
H2182 C2178 0.930 . S
H2183 C2180 0.929 . S
S2184 N2185 1.613 . S
S2184 N2186 1.610 . S
N2185 S2184 1.613 . S
N2185 C2188 1.350 . S
N2186 S2184 1.610 . S
N2186 C2187 1.351 . S
C2187 C2181 1.428 . S
C2187 N2186 1.351 . S
C2187 C2188 1.434 . S
C2188 C2179 1.429 . S
C2188 N2185 1.350 . S
C2188 C2187 1.434 . S
C2189 C2190 1.369 . S
C2189 C2191 1.419 . S
C2189 H2193 0.930 . S
C2190 C2189 1.369 . S
C2190 C2199 1.429 . S
C2191 C2189 1.419 . S
C2191 C2192 1.363 . S
C2191 H2194 0.929 . S
C2192 C2191 1.363 . S
C2192 C2198 1.428 . S
H2193 C2189 0.930 . S
H2194 C2191 0.929 . S
S2195 N2196 1.613 . S
S2195 N2197 1.610 . S
N2196 S2195 1.613 . S
N2196 C2199 1.350 . S
N2197 S2195 1.610 . S
N2197 C2198 1.351 . S
C2198 C2192 1.428 . S
C2198 N2197 1.351 . S
C2198 C2199 1.434 . S
C2199 C2190 1.429 . S
C2199 N2196 1.350 . S
C2199 C2198 1.434 . S
C2200 C2201 1.369 . S
C2200 C2202 1.419 . S
C2200 H2204 0.930 . S
C2201 C2200 1.369 . S
C2201 C2210 1.429 . S
C2202 C2200 1.419 . S
C2202 C2203 1.363 . S
C2202 H2205 0.929 . S
C2203 C2202 1.363 . S
C2203 C2209 1.428 . S
H2204 C2200 0.930 . S
H2205 C2202 0.929 . S
S2206 N2207 1.613 . S
S2206 N2208 1.610 . S
N2207 S2206 1.613 . S
N2207 C2210 1.350 . S
N2208 S2206 1.610 . S
N2208 C2209 1.351 . S
C2209 C2203 1.428 . S
C2209 N2208 1.351 . S
C2209 C2210 1.434 . S
C2210 C2201 1.429 . S
C2210 N2207 1.350 . S
C2210 C2209 1.434 . S
C2211 C2212 1.369 . S
C2211 C2213 1.419 . S
C2211 H2215 0.930 . S
C2212 C2211 1.369 . S
C2212 C2221 1.429 . S
C2213 C2211 1.419 . S
C2213 C2214 1.363 . S
C2213 H2216 0.929 . S
C2214 C2213 1.363 . S
C2214 C2220 1.428 . S
H2215 C2211 0.930 . S
H2216 C2213 0.929 . S
S2217 N2218 1.613 . S
S2217 N2219 1.610 . S
N2218 S2217 1.613 . S
N2218 C2221 1.350 . S
N2219 S2217 1.610 . S
N2219 C2220 1.351 . S
C2220 C2214 1.428 . S
C2220 N2219 1.351 . S
C2220 C2221 1.434 . S
C2221 C2212 1.429 . S
C2221 N2218 1.350 . S
C2221 C2220 1.434 . S
C2222 C2223 1.369 . S
C2222 C2224 1.419 . S
C2222 H2226 0.930 . S
C2223 C2222 1.369 . S
C2223 C2232 1.429 . S
C2224 C2222 1.419 . S
C2224 C2225 1.363 . S
C2224 H2227 0.929 . S
C2225 C2224 1.363 . S
C2225 C2231 1.428 . S
H2226 C2222 0.930 . S
H2227 C2224 0.929 . S
S2228 N2229 1.613 . S
S2228 N2230 1.610 . S
N2229 S2228 1.613 . S
N2229 C2232 1.350 . S
N2230 S2228 1.610 . S
N2230 C2231 1.351 . S
C2231 C2225 1.428 . S
C2231 N2230 1.351 . S
C2231 C2232 1.434 . S
C2232 C2223 1.429 . S
C2232 N2229 1.350 . S
C2232 C2231 1.434 . S
C2233 C2234 1.369 . S
C2233 C2235 1.419 . S
C2233 H2237 0.930 . S
C2234 C2233 1.369 . S
C2234 C2243 1.429 . S
C2235 C2233 1.419 . S
C2235 C2236 1.363 . S
C2235 H2238 0.929 . S
C2236 C2235 1.363 . S
C2236 C2242 1.428 . S
H2237 C2233 0.930 . S
H2238 C2235 0.929 . S
S2239 N2240 1.658 . S
S2239 N2241 1.616 . S
N2240 S2239 1.658 . S
N2240 C2243 1.350 . S
N2241 S2239 1.616 . S
N2241 C2242 1.351 . S
C2242 C2236 1.428 . S
C2242 N2241 1.351 . S
C2242 C2243 1.434 . S
C2243 C2234 1.429 . S
C2243 N2240 1.350 . S
C2243 C2242 1.434 . S
C2244 C2245 1.369 . S
C2244 C2246 1.419 . S
C2244 H2248 0.930 . S
C2245 C2244 1.369 . S
C2245 C2254 1.429 . S
C2246 C2244 1.419 . S
C2246 C2247 1.363 . S
C2246 H2249 0.929 . S
C2247 C2246 1.363 . S
C2247 C2253 1.428 . S
H2248 C2244 0.930 . S
H2249 C2246 0.929 . S
S2250 N2251 1.613 . S
S2250 N2252 1.610 . S
N2251 S2250 1.613 . S
N2251 C2254 1.350 . S
N2252 S2250 1.610 . S
N2252 C2253 1.351 . S
C2253 C2247 1.428 . S
C2253 N2252 1.351 . S
C2253 C2254 1.434 . S
C2254 C2245 1.429 . S
C2254 N2251 1.350 . S
C2254 C2253 1.434 . S
C2255 C2256 1.369 . S
C2255 C2257 1.419 . S
C2255 H2259 0.930 . S
C2256 C2255 1.369 . S
C2256 C2265 1.429 . S
C2257 C2255 1.419 . S
C2257 C2258 1.363 . S
C2257 H2260 0.929 . S
C2258 C2257 1.363 . S
C2258 C2264 1.428 . S
H2259 C2255 0.930 . S
H2260 C2257 0.929 . S
S2261 N2262 1.613 . S
S2261 N2263 1.610 . S
N2262 S2261 1.613 . S
N2262 C2265 1.350 . S
N2263 S2261 1.610 . S
N2263 C2264 1.351 . S
C2264 C2258 1.428 . S
C2264 N2263 1.351 . S
C2264 C2265 1.434 . S
C2265 C2256 1.429 . S
C2265 N2262 1.350 . S
C2265 C2264 1.434 . S
C2266 C2267 1.369 . S
C2266 C2268 1.419 . S
C2266 H2270 0.930 . S
C2267 C2266 1.369 . S
C2267 C2276 1.429 . S
C2268 C2266 1.419 . S
C2268 C2269 1.363 . S
C2268 H2271 0.929 . S
C2269 C2268 1.363 . S
C2269 C2275 1.428 . S
H2270 C2266 0.930 . S
H2271 C2268 0.929 . S
S2272 N2273 1.613 . S
S2272 N2274 1.610 . S
N2273 S2272 1.613 . S
N2273 C2276 1.350 . S
N2274 S2272 1.610 . S
N2274 C2275 1.351 . S
C2275 C2269 1.428 . S
C2275 N2274 1.351 . S
C2275 C2276 1.434 . S
C2276 C2267 1.429 . S
C2276 N2273 1.350 . S
C2276 C2275 1.434 . S
C2277 C2278 1.369 . S
C2277 C2279 1.419 . S
C2277 H2281 0.930 . S
C2278 C2277 1.369 . S
C2278 C2287 1.429 . S
C2279 C2277 1.419 . S
C2279 C2280 1.363 . S
C2279 H2282 0.929 . S
C2280 C2279 1.363 . S
C2280 C2286 1.428 . S
H2281 C2277 0.930 . S
H2282 C2279 0.929 . S
S2283 N2284 1.613 . S
S2283 N2285 1.610 . S
N2284 S2283 1.613 . S
N2284 C2287 1.350 . S
N2285 S2283 1.610 . S
N2285 C2286 1.351 . S
C2286 C2280 1.428 . S
C2286 N2285 1.351 . S
C2286 C2287 1.434 . S
C2287 C2278 1.429 . S
C2287 N2284 1.350 . S
C2287 C2286 1.434 . S
C2288 C2289 1.369 . S
C2288 C2290 1.419 . S
C2288 H2292 0.930 . S
C2289 C2288 1.369 . S
C2289 C2298 1.429 . S
C2290 C2288 1.419 . S
C2290 C2291 1.363 . S
C2290 H2293 0.929 . S
C2291 C2290 1.363 . S
C2291 C2297 1.428 . S
H2292 C2288 0.930 . S
H2293 C2290 0.929 . S
S2294 N2295 1.613 . S
S2294 N2296 1.610 . S
N2295 S2294 1.613 . S
N2295 C2298 1.350 . S
N2296 S2294 1.610 . S
N2296 C2297 1.351 . S
C2297 C2291 1.428 . S
C2297 N2296 1.351 . S
C2297 C2298 1.434 . S
C2298 C2289 1.429 . S
C2298 N2295 1.350 . S
C2298 C2297 1.434 . S
C2299 C2300 1.369 . S
C2299 C2301 1.419 . S
C2299 H2303 0.930 . S
C2300 C2299 1.369 . S
C2300 C2309 1.429 . S
C2301 C2299 1.419 . S
C2301 C2302 1.363 . S
C2301 H2304 0.929 . S
C2302 C2301 1.363 . S
C2302 C2308 1.428 . S
H2303 C2299 0.930 . S
H2304 C2301 0.929 . S
S2305 N2306 1.613 . S
S2305 N2307 1.610 . S
N2306 S2305 1.613 . S
N2306 C2309 1.350 . S
N2307 S2305 1.610 . S
N2307 C2308 1.351 . S
C2308 C2302 1.428 . S
C2308 N2307 1.351 . S
C2308 C2309 1.434 . S
C2309 C2300 1.429 . S
C2309 N2306 1.350 . S
C2309 C2308 1.434 . S
C2310 C2311 1.369 . S
C2310 C2312 1.419 . S
C2310 H2314 0.930 . S
C2311 C2310 1.369 . S
C2311 C2320 1.429 . S
C2312 C2310 1.419 . S
C2312 C2313 1.363 . S
C2312 H2315 0.929 . S
C2313 C2312 1.363 . S
C2313 C2319 1.428 . S
H2314 C2310 0.930 . S
H2315 C2312 0.929 . S
S2316 N2317 1.613 . S
S2316 N2318 1.610 . S
N2317 S2316 1.613 . S
N2317 C2320 1.350 . S
N2318 S2316 1.610 . S
N2318 C2319 1.351 . S
C2319 C2313 1.428 . S
C2319 N2318 1.351 . S
C2319 C2320 1.434 . S
C2320 C2311 1.429 . S
C2320 N2317 1.350 . S
C2320 C2319 1.434 . S
C2321 C2322 1.369 . S
C2321 C2323 1.419 . S
C2321 H2325 0.930 . S
C2322 C2321 1.369 . S
C2322 C2331 1.429 . S
C2323 C2321 1.419 . S
C2323 C2324 1.363 . S
C2323 H2326 0.929 . S
C2324 C2323 1.363 . S
C2324 C2330 1.428 . S
H2325 C2321 0.930 . S
H2326 C2323 0.929 . S
S2327 N2328 1.613 . S
S2327 N2329 1.610 . S
N2328 S2327 1.613 . S
N2328 C2331 1.350 . S
N2329 S2327 1.610 . S
N2329 C2330 1.351 . S
C2330 C2324 1.428 . S
C2330 N2329 1.351 . S
C2330 C2331 1.434 . S
C2331 C2322 1.429 . S
C2331 N2328 1.350 . S
C2331 C2330 1.434 . S
C2332 C2333 1.369 . S
C2332 C2334 1.419 . S
C2332 H2336 0.930 . S
C2333 C2332 1.369 . S
C2333 C2342 1.429 . S
C2334 C2332 1.419 . S
C2334 C2335 1.363 . S
C2334 H2337 0.929 . S
C2335 C2334 1.363 . S
C2335 C2341 1.428 . S
H2336 C2332 0.930 . S
H2337 C2334 0.929 . S
S2338 N2339 1.613 . S
S2338 N2340 1.610 . S
N2339 S2338 1.613 . S
N2339 C2342 1.350 . S
N2340 S2338 1.610 . S
N2340 C2341 1.351 . S
C2341 C2335 1.428 . S
C2341 N2340 1.351 . S
C2341 C2342 1.434 . S
C2342 C2333 1.429 . S
C2342 N2339 1.350 . S
C2342 C2341 1.434 . S
C2343 C2344 1.369 . S
C2343 C2345 1.419 . S
C2343 H2347 0.930 . S
C2344 C2343 1.369 . S
C2344 C2353 1.429 . S
C2345 C2343 1.419 . S
C2345 C2346 1.363 . S
C2345 H2348 0.929 . S
C2346 C2345 1.363 . S
C2346 C2352 1.428 . S
H2347 C2343 0.930 . S
H2348 C2345 0.929 . S
S2349 N2350 1.613 . S
S2349 N2351 1.610 . S
N2350 S2349 1.613 . S
N2350 C2353 1.350 . S
N2351 S2349 1.610 . S
N2351 C2352 1.351 . S
C2352 C2346 1.428 . S
C2352 N2351 1.351 . S
C2352 C2353 1.434 . S
C2353 C2344 1.429 . S
C2353 N2350 1.350 . S
C2353 C2352 1.434 . S
C2354 C2355 1.369 . S
C2354 C2356 1.419 . S
C2354 H2358 0.930 . S
C2355 C2354 1.369 . S
C2355 C2364 1.429 . S
C2356 C2354 1.419 . S
C2356 C2357 1.363 . S
C2356 H2359 0.929 . S
C2357 C2356 1.363 . S
C2357 C2363 1.428 . S
H2358 C2354 0.930 . S
H2359 C2356 0.929 . S
S2360 N2361 1.613 . S
S2360 N2362 1.610 . S
N2361 S2360 1.613 . S
N2361 C2364 1.350 . S
N2362 S2360 1.610 . S
N2362 C2363 1.351 . S
C2363 C2357 1.428 . S
C2363 N2362 1.351 . S
C2363 C2364 1.434 . S
C2364 C2355 1.429 . S
C2364 N2361 1.350 . S
C2364 C2363 1.434 . S
C2365 C2366 1.369 . S
C2365 C2367 1.419 . S
C2365 H2369 0.930 . S
C2366 C2365 1.369 . S
C2366 C2375 1.429 . S
C2367 C2365 1.419 . S
C2367 C2368 1.363 . S
C2367 H2370 0.929 . S
C2368 C2367 1.363 . S
C2368 C2374 1.428 . S
H2369 C2365 0.930 . S
H2370 C2367 0.929 . S
S2371 N2372 1.613 . S
S2371 N2373 1.610 . S
N2372 S2371 1.613 . S
N2372 C2375 1.350 . S
N2373 S2371 1.610 . S
N2373 C2374 1.351 . S
C2374 C2368 1.428 . S
C2374 N2373 1.351 . S
C2374 C2375 1.434 . S
C2375 C2366 1.429 . S
C2375 N2372 1.350 . S
C2375 C2374 1.434 . S
C2376 C2377 1.369 . S
C2376 C2378 1.419 . S
C2376 H2380 0.930 . S
C2377 C2376 1.369 . S
C2377 C2386 1.429 . S
C2378 C2376 1.419 . S
C2378 C2379 1.363 . S
C2378 H2381 0.929 . S
C2379 C2378 1.363 . S
C2379 C2385 1.428 . S
H2380 C2376 0.930 . S
H2381 C2378 0.929 . S
S2382 N2383 1.613 . S
S2382 N2384 1.610 . S
N2383 S2382 1.613 . S
N2383 C2386 1.350 . S
N2384 S2382 1.610 . S
N2384 C2385 1.351 . S
C2385 C2379 1.428 . S
C2385 N2384 1.351 . S
C2385 C2386 1.434 . S
C2386 C2377 1.429 . S
C2386 N2383 1.350 . S
C2386 C2385 1.434 . S
C2387 C2388 1.369 . S
C2387 C2389 1.419 . S
C2387 H2391 0.930 . S
C2388 C2387 1.369 . S
C2388 C2397 1.429 . S
C2389 C2387 1.419 . S
C2389 C2390 1.363 . S
C2389 H2392 0.929 . S
C2390 C2389 1.363 . S
C2390 C2396 1.428 . S
H2391 C2387 0.930 . S
H2392 C2389 0.929 . S
S2393 N2394 1.613 . S
S2393 N2395 1.610 . S
N2394 S2393 1.613 . S
N2394 C2397 1.350 . S
N2395 S2393 1.610 . S
N2395 C2396 1.351 . S
C2396 C2390 1.428 . S
C2396 N2395 1.351 . S
C2396 C2397 1.434 . S
C2397 C2388 1.429 . S
C2397 N2394 1.350 . S
C2397 C2396 1.434 . S
C2398 C2399 1.369 . S
C2398 C2400 1.419 . S
C2398 H2402 0.930 . S
C2399 C2398 1.369 . S
C2399 C2408 1.429 . S
C2400 C2398 1.419 . S
C2400 C2401 1.363 . S
C2400 H2403 0.929 . S
C2401 C2400 1.363 . S
C2401 C2407 1.428 . S
H2402 C2398 0.930 . S
H2403 C2400 0.929 . S
S2404 N2405 1.613 . S
S2404 N2406 1.610 . S
N2405 S2404 1.613 . S
N2405 C2408 1.350 . S
N2406 S2404 1.610 . S
N2406 C2407 1.351 . S
C2407 C2401 1.428 . S
C2407 N2406 1.351 . S
C2407 C2408 1.434 . S
C2408 C2399 1.429 . S
C2408 N2405 1.350 . S
C2408 C2407 1.434 . S
C2409 C2410 1.369 . S
C2409 C2411 1.419 . S
C2409 H2413 0.930 . S
C2410 C2409 1.369 . S
C2410 C2419 1.429 . S
C2411 C2409 1.419 . S
C2411 C2412 1.363 . S
C2411 H2414 0.929 . S
C2412 C2411 1.363 . S
C2412 C2418 1.428 . S
H2413 C2409 0.930 . S
H2414 C2411 0.929 . S
S2415 N2416 1.613 . S
S2415 N2417 1.610 . S
N2416 S2415 1.613 . S
N2416 C2419 1.350 . S
N2417 S2415 1.610 . S
N2417 C2418 1.351 . S
C2418 C2412 1.428 . S
C2418 N2417 1.351 . S
C2418 C2419 1.434 . S
C2419 C2410 1.429 . S
C2419 N2416 1.350 . S
C2419 C2418 1.434 . S
C2420 C2421 1.369 . S
C2420 C2422 1.419 . S
C2420 H2424 0.930 . S
C2421 C2420 1.369 . S
C2421 C2430 1.429 . S
C2422 C2420 1.419 . S
C2422 C2423 1.363 . S
C2422 H2425 0.929 . S
C2423 C2422 1.363 . S
C2423 C2429 1.428 . S
H2424 C2420 0.930 . S
H2425 C2422 0.929 . S
S2426 N2427 1.613 . S
S2426 N2428 1.610 . S
N2427 S2426 1.613 . S
N2427 C2430 1.350 . S
N2428 S2426 1.610 . S
N2428 C2429 1.351 . S
C2429 C2423 1.428 . S
C2429 N2428 1.351 . S
C2429 C2430 1.434 . S
C2430 C2421 1.429 . S
C2430 N2427 1.350 . S
C2430 C2429 1.434 . S
C2431 C2432 1.369 . S
C2431 C2433 1.419 . S
C2431 H2435 0.930 . S
C2432 C2431 1.369 . S
C2432 C2441 1.429 . S
C2433 C2431 1.419 . S
C2433 C2434 1.363 . S
C2433 H2436 0.929 . S
C2434 C2433 1.363 . S
C2434 C2440 1.428 . S
H2435 C2431 0.930 . S
H2436 C2433 0.929 . S
S2437 N2438 1.613 . S
S2437 N2439 1.610 . S
N2438 S2437 1.613 . S
N2438 C2441 1.350 . S
N2439 S2437 1.610 . S
N2439 C2440 1.351 . S
C2440 C2434 1.428 . S
C2440 N2439 1.351 . S
C2440 C2441 1.434 . S
C2441 C2432 1.429 . S
C2441 N2438 1.350 . S
C2441 C2440 1.434 . S
C2442 C2443 1.369 . S
C2442 C2444 1.419 . S
C2442 H2446 0.930 . S
C2443 C2442 1.369 . S
C2443 C2452 1.429 . S
C2444 C2442 1.419 . S
C2444 C2445 1.363 . S
C2444 H2447 0.929 . S
C2445 C2444 1.363 . S
C2445 C2451 1.428 . S
H2446 C2442 0.930 . S
H2447 C2444 0.929 . S
S2448 N2449 1.613 . S
S2448 N2450 1.610 . S
N2449 S2448 1.613 . S
N2449 C2452 1.350 . S
N2450 S2448 1.610 . S
N2450 C2451 1.351 . S
C2451 C2445 1.428 . S
C2451 N2450 1.351 . S
C2451 C2452 1.434 . S
C2452 C2443 1.429 . S
C2452 N2449 1.350 . S
C2452 C2451 1.434 . S
C2453 C2454 1.369 . S
C2453 C2455 1.419 . S
C2453 H2457 0.930 . S
C2454 C2453 1.369 . S
C2454 C2463 1.429 . S
C2455 C2453 1.419 . S
C2455 C2456 1.363 . S
C2455 H2458 0.929 . S
C2456 C2455 1.363 . S
C2456 C2462 1.428 . S
H2457 C2453 0.930 . S
H2458 C2455 0.929 . S
S2459 N2460 1.613 . S
S2459 N2461 1.610 . S
N2460 S2459 1.613 . S
N2460 C2463 1.350 . S
N2461 S2459 1.610 . S
N2461 C2462 1.351 . S
C2462 C2456 1.428 . S
C2462 N2461 1.351 . S
C2462 C2463 1.434 . S
C2463 C2454 1.429 . S
C2463 N2460 1.350 . S
C2463 C2462 1.434 . S
C2464 C2465 1.369 . S
C2464 C2466 1.419 . S
C2464 H2468 0.930 . S
C2465 C2464 1.369 . S
C2465 C2474 1.429 . S
C2466 C2464 1.419 . S
C2466 C2467 1.363 . S
C2466 H2469 0.929 . S
C2467 C2466 1.363 . S
C2467 C2473 1.428 . S
H2468 C2464 0.930 . S
H2469 C2466 0.929 . S
S2470 N2471 1.613 . S
S2470 N2472 1.610 . S
N2471 S2470 1.613 . S
N2471 C2474 1.350 . S
N2472 S2470 1.610 . S
N2472 C2473 1.351 . S
C2473 C2467 1.428 . S
C2473 N2472 1.351 . S
C2473 C2474 1.434 . S
C2474 C2465 1.429 . S
C2474 N2471 1.350 . S
C2474 C2473 1.434 . S
C2475 C2476 1.369 . S
C2475 C2477 1.419 . S
C2475 H2479 0.930 . S
C2476 C2475 1.369 . S
C2476 C2485 1.429 . S
C2477 C2475 1.419 . S
C2477 C2478 1.363 . S
C2477 H2480 0.929 . S
C2478 C2477 1.363 . S
C2478 C2484 1.428 . S
H2479 C2475 0.930 . S
H2480 C2477 0.929 . S
S2481 N2482 1.613 . S
S2481 N2483 1.610 . S
N2482 S2481 1.613 . S
N2482 C2485 1.350 . S
N2483 S2481 1.610 . S
N2483 C2484 1.351 . S
C2484 C2478 1.428 . S
C2484 N2483 1.351 . S
C2484 C2485 1.434 . S
C2485 C2476 1.429 . S
C2485 N2482 1.350 . S
C2485 C2484 1.434 . S
C2486 C2487 1.369 . S
C2486 C2488 1.419 . S
C2486 H2490 0.930 . S
C2487 C2486 1.369 . S
C2487 C2496 1.429 . S
C2488 C2486 1.419 . S
C2488 C2489 1.363 . S
C2488 H2491 0.929 . S
C2489 C2488 1.363 . S
C2489 C2495 1.428 . S
H2490 C2486 0.930 . S
H2491 C2488 0.929 . S
S2492 N2493 1.613 . S
S2492 N2494 1.610 . S
N2493 S2492 1.613 . S
N2493 C2496 1.350 . S
N2494 S2492 1.610 . S
N2494 C2495 1.351 . S
C2495 C2489 1.428 . S
C2495 N2494 1.351 . S
C2495 C2496 1.434 . S
C2496 C2487 1.429 . S
C2496 N2493 1.350 . S
C2496 C2495 1.434 . S
C2497 C2498 1.369 . S
C2497 C2499 1.419 . S
C2497 H2501 0.930 . S
C2498 C2497 1.369 . S
C2498 C2507 1.429 . S
C2499 C2497 1.419 . S
C2499 C2500 1.363 . S
C2499 H2502 0.929 . S
C2500 C2499 1.363 . S
C2500 C2506 1.428 . S
H2501 C2497 0.930 . S
H2502 C2499 0.929 . S
S2503 N2504 1.613 . S
S2503 N2505 1.610 . S
N2504 S2503 1.613 . S
N2504 C2507 1.350 . S
N2505 S2503 1.610 . S
N2505 C2506 1.351 . S
C2506 C2500 1.428 . S
C2506 N2505 1.351 . S
C2506 C2507 1.434 . S
C2507 C2498 1.429 . S
C2507 N2504 1.350 . S
C2507 C2506 1.434 . S
C2508 C2509 1.369 . S
C2508 C2510 1.419 . S
C2508 H2512 0.930 . S
C2509 C2508 1.369 . S
C2509 C2518 1.429 . S
C2510 C2508 1.419 . S
C2510 C2511 1.363 . S
C2510 H2513 0.929 . S
C2511 C2510 1.363 . S
C2511 C2517 1.428 . S
H2512 C2508 0.930 . S
H2513 C2510 0.929 . S
S2514 N2515 1.613 . S
S2514 N2516 1.610 . S
N2515 S2514 1.613 . S
N2515 C2518 1.350 . S
N2516 S2514 1.610 . S
N2516 C2517 1.351 . S
C2517 C2511 1.428 . S
C2517 N2516 1.351 . S
C2517 C2518 1.434 . S
C2518 C2509 1.429 . S
C2518 N2515 1.350 . S
C2518 C2517 1.434 . S
C2519 C2520 1.369 . S
C2519 C2521 1.419 . S
C2519 H2523 0.930 . S
C2520 C2519 1.369 . S
C2520 C2529 1.429 . S
C2521 C2519 1.419 . S
C2521 C2522 1.363 . S
C2521 H2524 0.929 . S
C2522 C2521 1.363 . S
C2522 C2528 1.428 . S
H2523 C2519 0.930 . S
H2524 C2521 0.929 . S
S2525 N2526 1.613 . S
S2525 N2527 1.610 . S
N2526 S2525 1.613 . S
N2526 C2529 1.350 . S
N2527 S2525 1.610 . S
N2527 C2528 1.351 . S
C2528 C2522 1.428 . S
C2528 N2527 1.351 . S
C2528 C2529 1.434 . S
C2529 C2520 1.429 . S
C2529 N2526 1.350 . S
C2529 C2528 1.434 . S
C2530 C2531 1.369 . S
C2530 C2532 1.419 . S
C2530 H2534 0.930 . S
C2531 C2530 1.369 . S
C2531 C2540 1.429 . S
C2532 C2530 1.419 . S
C2532 C2533 1.363 . S
C2532 H2535 0.929 . S
C2533 C2532 1.363 . S
C2533 C2539 1.428 . S
H2534 C2530 0.930 . S
H2535 C2532 0.929 . S
S2536 N2537 1.613 . S
S2536 N2538 1.610 . S
N2537 S2536 1.613 . S
N2537 C2540 1.350 . S
N2538 S2536 1.610 . S
N2538 C2539 1.351 . S
C2539 C2533 1.428 . S
C2539 N2538 1.351 . S
C2539 C2540 1.434 . S
C2540 C2531 1.429 . S
C2540 N2537 1.350 . S
C2540 C2539 1.434 . S
C2541 C2542 1.369 . S
C2541 C2543 1.419 . S
C2541 H2545 0.930 . S
C2542 C2541 1.369 . S
C2542 C2551 1.429 . S
C2543 C2541 1.419 . S
C2543 C2544 1.363 . S
C2543 H2546 0.929 . S
C2544 C2543 1.363 . S
C2544 C2550 1.428 . S
H2545 C2541 0.930 . S
H2546 C2543 0.929 . S
S2547 N2548 1.613 . S
S2547 N2549 1.610 . S
N2548 S2547 1.613 . S
N2548 C2551 1.350 . S
N2549 S2547 1.610 . S
N2549 C2550 1.351 . S
C2550 C2544 1.428 . S
C2550 N2549 1.351 . S
C2550 C2551 1.434 . S
C2551 C2542 1.429 . S
C2551 N2548 1.350 . S
C2551 C2550 1.434 . S
C2552 C2553 1.369 . S
C2552 C2554 1.419 . S
C2552 H2556 0.930 . S
C2553 C2552 1.369 . S
C2553 C2562 1.429 . S
C2554 C2552 1.419 . S
C2554 C2555 1.363 . S
C2554 H2557 0.929 . S
C2555 C2554 1.363 . S
C2555 C2561 1.428 . S
H2556 C2552 0.930 . S
H2557 C2554 0.929 . S
S2558 N2559 1.613 . S
S2558 N2560 1.610 . S
N2559 S2558 1.613 . S
N2559 C2562 1.350 . S
N2560 S2558 1.610 . S
N2560 C2561 1.351 . S
C2561 C2555 1.428 . S
C2561 N2560 1.351 . S
C2561 C2562 1.434 . S
C2562 C2553 1.429 . S
C2562 N2559 1.350 . S
C2562 C2561 1.434 . S
C2563 C2564 1.369 . S
C2563 C2565 1.419 . S
C2563 H2567 0.930 . S
C2564 C2563 1.369 . S
C2564 C2573 1.429 . S
C2565 C2563 1.419 . S
C2565 C2566 1.363 . S
C2565 H2568 0.929 . S
C2566 C2565 1.363 . S
C2566 C2572 1.428 . S
H2567 C2563 0.930 . S
H2568 C2565 0.929 . S
S2569 N2570 1.613 . S
S2569 N2571 1.610 . S
N2570 S2569 1.613 . S
N2570 C2573 1.350 . S
N2571 S2569 1.610 . S
N2571 C2572 1.351 . S
C2572 C2566 1.428 . S
C2572 N2571 1.351 . S
C2572 C2573 1.434 . S
C2573 C2564 1.429 . S
C2573 N2570 1.350 . S
C2573 C2572 1.434 . S
C2574 C2575 1.369 . S
C2574 C2576 1.419 . S
C2574 H2578 0.930 . S
C2575 C2574 1.369 . S
C2575 C2584 1.429 . S
C2576 C2574 1.419 . S
C2576 C2577 1.363 . S
C2576 H2579 0.929 . S
C2577 C2576 1.363 . S
C2577 C2583 1.428 . S
H2578 C2574 0.930 . S
H2579 C2576 0.929 . S
S2580 N2581 1.613 . S
S2580 N2582 1.610 . S
N2581 S2580 1.613 . S
N2581 C2584 1.350 . S
N2582 S2580 1.610 . S
N2582 C2583 1.351 . S
C2583 C2577 1.428 . S
C2583 N2582 1.351 . S
C2583 C2584 1.434 . S
C2584 C2575 1.429 . S
C2584 N2581 1.350 . S
C2584 C2583 1.434 . S
C2585 C2586 1.369 . S
C2585 C2587 1.419 . S
C2585 H2589 0.930 . S
C2586 C2585 1.369 . S
C2586 C2595 1.429 . S
C2587 C2585 1.419 . S
C2587 C2588 1.363 . S
C2587 H2590 0.929 . S
C2588 C2587 1.363 . S
C2588 C2594 1.428 . S
H2589 C2585 0.930 . S
H2590 C2587 0.929 . S
S2591 N2592 1.613 . S
S2591 N2593 1.610 . S
N2592 S2591 1.613 . S
N2592 C2595 1.350 . S
N2593 S2591 1.610 . S
N2593 C2594 1.351 . S
C2594 C2588 1.428 . S
C2594 N2593 1.351 . S
C2594 C2595 1.434 . S
C2595 C2586 1.429 . S
C2595 N2592 1.350 . S
C2595 C2594 1.434 . S
C2596 C2597 1.369 . S
C2596 C2598 1.419 . S
C2596 H2600 0.930 . S
C2597 C2596 1.369 . S
C2597 C2606 1.429 . S
C2598 C2596 1.419 . S
C2598 C2599 1.363 . S
C2598 H2601 0.929 . S
C2599 C2598 1.363 . S
C2599 C2605 1.428 . S
H2600 C2596 0.930 . S
H2601 C2598 0.929 . S
S2602 N2603 1.613 . S
S2602 N2604 1.610 . S
N2603 S2602 1.613 . S
N2603 C2606 1.350 . S
N2604 S2602 1.610 . S
N2604 C2605 1.351 . S
C2605 C2599 1.428 . S
C2605 N2604 1.351 . S
C2605 C2606 1.434 . S
C2606 C2597 1.429 . S
C2606 N2603 1.350 . S
C2606 C2605 1.434 . S
C2607 C2608 1.369 . S
C2607 C2609 1.419 . S
C2607 H2611 0.930 . S
C2608 C2607 1.369 . S
C2608 C2617 1.429 . S
C2609 C2607 1.419 . S
C2609 C2610 1.363 . S
C2609 H2612 0.929 . S
C2610 C2609 1.363 . S
C2610 C2616 1.428 . S
H2611 C2607 0.930 . S
H2612 C2609 0.929 . S
S2613 N2614 1.613 . S
S2613 N2615 1.610 . S
N2614 S2613 1.613 . S
N2614 C2617 1.350 . S
N2615 S2613 1.610 . S
N2615 C2616 1.351 . S
C2616 C2610 1.428 . S
C2616 N2615 1.351 . S
C2616 C2617 1.434 . S
C2617 C2608 1.429 . S
C2617 N2614 1.350 . S
C2617 C2616 1.434 . S
C2618 C2619 1.369 . S
C2618 C2620 1.419 . S
C2618 H2622 0.930 . S
C2619 C2618 1.369 . S
C2619 C2628 1.429 . S
C2620 C2618 1.419 . S
C2620 C2621 1.363 . S
C2620 H2623 0.929 . S
C2621 C2620 1.363 . S
C2621 C2627 1.428 . S
H2622 C2618 0.930 . S
H2623 C2620 0.929 . S
S2624 N2625 1.613 . S
S2624 N2626 1.610 . S
N2625 S2624 1.613 . S
N2625 C2628 1.350 . S
N2626 S2624 1.610 . S
N2626 C2627 1.351 . S
C2627 C2621 1.428 . S
C2627 N2626 1.351 . S
C2627 C2628 1.434 . S
C2628 C2619 1.429 . S
C2628 N2625 1.350 . S
C2628 C2627 1.434 . S
C2629 C2630 1.369 . S
C2629 C2631 1.419 . S
C2629 H2633 0.930 . S
C2630 C2629 1.369 . S
C2630 C2639 1.429 . S
C2631 C2629 1.419 . S
C2631 C2632 1.363 . S
C2631 H2634 0.929 . S
C2632 C2631 1.363 . S
C2632 C2638 1.428 . S
H2633 C2629 0.930 . S
H2634 C2631 0.929 . S
S2635 N2636 1.613 . S
S2635 N2637 1.610 . S
N2636 S2635 1.613 . S
N2636 C2639 1.350 . S
N2637 S2635 1.610 . S
N2637 C2638 1.351 . S
C2638 C2632 1.428 . S
C2638 N2637 1.351 . S
C2638 C2639 1.434 . S
C2639 C2630 1.429 . S
C2639 N2636 1.350 . S
C2639 C2638 1.434 . S
C2640 C2641 1.369 . S
C2640 C2642 1.419 . S
C2640 H2644 0.930 . S
C2641 C2640 1.369 . S
C2641 C2650 1.429 1_545 S
C2642 C2640 1.419 . S
C2642 C2643 1.363 1_545 S
C2642 H2645 0.929 . S
C2643 C2642 1.363 1_565 S
C2643 C2649 1.428 . S
H2644 C2640 0.930 . S
H2645 C2642 0.929 . S
S2646 N2647 1.608 1_655 S
S2646 N2648 1.609 1_655 S
N2647 S2646 1.608 1_455 S
N2647 C2650 1.358 . S
N2648 S2646 1.609 1_455 S
N2648 C2649 1.353 . S
C2649 C2643 1.428 . S
C2649 N2648 1.353 . S
C2649 C2650 1.434 . S
C2650 C2641 1.429 1_565 S
C2650 N2647 1.358 . S
C2650 C2649 1.434 . S
C2651 C2652 1.369 . S
C2651 C2653 1.419 . S
C2651 H2655 0.930 . S
C2652 C2651 1.369 . S
C2652 C2661 1.429 . S
C2653 C2651 1.419 . S
C2653 C2654 1.363 . S
C2653 H2656 0.929 . S
C2654 C2653 1.363 . S
C2654 C2660 1.428 . S
H2655 C2651 0.930 . S
H2656 C2653 0.929 . S
S2657 N2658 1.613 . S
S2657 N2659 1.610 . S
N2658 S2657 1.613 . S
N2658 C2661 1.350 . S
N2659 S2657 1.610 . S
N2659 C2660 1.351 . S
C2660 C2654 1.428 . S
C2660 N2659 1.351 . S
C2660 C2661 1.434 . S
C2661 C2652 1.429 . S
C2661 N2658 1.350 . S
C2661 C2660 1.434 . S
C2662 C2663 1.369 1_545 S
C2662 C2664 1.419 . S
C2662 H2666 0.930 . S
C2663 C2662 1.369 1_565 S
C2663 C2672 1.429 . S
C2664 C2662 1.419 . S
C2664 C2665 1.363 . S
C2664 H2667 0.929 . S
C2665 C2664 1.363 . S
C2665 C2671 1.428 1_545 S
H2666 C2662 0.930 . S
H2667 C2664 0.929 . S
S2668 N2669 1.613 . S
S2668 N2670 1.610 . S
N2669 S2668 1.613 . S
N2669 C2672 1.350 . S
N2670 S2668 1.610 . S
N2670 C2671 1.351 . S
C2671 C2665 1.428 1_565 S
C2671 N2670 1.351 . S
C2671 C2672 1.434 . S
C2672 C2663 1.429 . S
C2672 N2669 1.350 . S
C2672 C2671 1.434 . S
C2673 C2674 1.369 . S
C2673 C2675 1.419 1_556 S
C2673 H2677 0.930 . S
C2674 C2673 1.369 . S
C2674 C2683 1.429 . S
C2675 C2673 1.419 1_554 S
C2675 C2676 1.363 . S
C2675 H2678 0.929 . S
C2676 C2675 1.363 . S
C2676 C2682 1.428 . S
H2677 C2673 0.930 . S
H2678 C2675 0.929 . S
S2679 N2680 1.613 1_554 S
S2679 N2681 1.610 . S
N2680 S2679 1.613 1_556 S
N2680 C2683 1.350 . S
N2681 S2679 1.610 . S
N2681 C2682 1.351 . S
C2682 C2676 1.428 . S
C2682 N2681 1.351 . S
C2682 C2683 1.434 1_554 S
C2683 C2674 1.429 . S
C2683 N2680 1.350 . S
C2683 C2682 1.434 1_556 S
C2684 C2685 1.369 1_556 S
C2684 C2686 1.419 . S
C2684 H2688 0.930 . S
C2685 C2684 1.369 1_554 S
C2685 C2694 1.448 . S
C2686 C2684 1.419 . S
C2686 C2687 1.363 . S
C2686 H2689 0.929 . S
C2687 C2686 1.363 . S
C2687 C2693 1.451 1_556 S
H2688 C2684 0.930 . S
H2689 C2686 0.929 . S
S2690 N2691 1.613 . S
S2690 N2692 1.610 . S
N2691 S2690 1.613 . S
N2691 C2694 1.328 1_565 S
N2692 S2690 1.610 . S
N2692 C2693 1.326 1_565 S
C2693 C2687 1.451 1_554 S
C2693 N2692 1.326 1_545 S
C2693 C2694 1.434 . S
C2694 C2685 1.448 . S
C2694 N2691 1.328 1_545 S
C2694 C2693 1.434 . S
C2695 C2696 1.369 . S
C2695 C2697 1.419 1_545 S
C2695 H2699 0.930 . S
C2696 C2695 1.369 . S
C2696 C2705 1.429 . S
C2697 C2695 1.419 1_565 S
C2697 C2698 1.363 . S
C2697 H2700 0.929 . S
C2698 C2697 1.363 . S
C2698 C2704 1.428 . S
H2699 C2695 0.930 . S
H2700 C2697 0.929 . S
S2701 N2702 1.613 1_565 S
S2701 N2703 1.610 . S
N2702 S2701 1.613 1_545 S
N2702 C2705 1.350 . S
N2703 S2701 1.610 . S
N2703 C2704 1.351 . S
C2704 C2698 1.428 . S
C2704 N2703 1.351 . S
C2704 C2705 1.434 1_565 S
C2705 C2696 1.429 . S
C2705 N2702 1.350 . S
C2705 C2704 1.434 1_545 S
C2706 C2707 1.369 . S
C2706 C2708 1.419 . S
C2706 H2710 0.930 . S
C2707 C2706 1.369 . S
C2707 C2716 1.429 . S
C2708 C2706 1.419 . S
C2708 C2709 1.363 . S
C2708 H2711 0.929 . S
C2709 C2708 1.363 . S
C2709 C2715 1.428 . S
H2710 C2706 0.930 . S
H2711 C2708 0.929 . S
S2712 N2713 1.613 . S
S2712 N2714 1.610 . S
N2713 S2712 1.613 . S
N2713 C2716 1.350 . S
N2714 S2712 1.610 . S
N2714 C2715 1.351 . S
C2715 C2709 1.428 . S
C2715 N2714 1.351 . S
C2715 C2716 1.434 . S
C2716 C2707 1.429 . S
C2716 N2713 1.350 . S
C2716 C2715 1.434 . S
C2717 C2718 1.369 . S
C2717 C2719 1.419 1_545 S
C2717 H2721 0.930 . S
C2718 C2717 1.369 . S
C2718 C2727 1.429 . S
C2719 C2717 1.419 1_565 S
C2719 C2720 1.363 . S
C2719 H2722 0.929 . S
C2720 C2719 1.363 . S
C2720 C2726 1.428 . S
H2721 C2717 0.930 . S
H2722 C2719 0.929 . S
S2723 N2724 1.613 . S
S2723 N2725 1.610 1_545 S
N2724 S2723 1.613 . S
N2724 C2727 1.350 . S
N2725 S2723 1.610 1_565 S
N2725 C2726 1.351 . S
C2726 C2720 1.428 . S
C2726 N2725 1.351 . S
C2726 C2727 1.434 1_565 S
C2727 C2718 1.429 . S
C2727 N2724 1.350 . S
C2727 C2726 1.434 1_545 S
C2728 C2729 1.369 1_455 S
C2728 C2730 1.419 . S
C2728 H2732 0.930 . S
C2729 C2728 1.369 1_655 S
C2729 C2738 1.429 . S
C2730 C2728 1.419 . S
C2730 C2731 1.363 . S
C2730 H2733 0.929 . S
C2731 C2730 1.363 . S
C2731 C2737 1.428 1_455 S
H2732 C2728 0.930 . S
H2733 C2730 0.929 . S
S2734 N2735 1.613 . S
S2734 N2736 1.610 . S
N2735 S2734 1.613 . S
N2735 C2738 1.350 1_556 S
N2736 S2734 1.610 . S
N2736 C2737 1.351 1_556 S
C2737 C2731 1.428 1_655 S
C2737 N2736 1.351 1_554 S
C2737 C2738 1.434 . S
C2738 C2729 1.429 . S
C2738 N2735 1.350 1_554 S
C2738 C2737 1.434 . S
C2739 C2740 1.369 . S
C2739 C2741 1.419 . S
C2739 H2743 0.930 . S
C2740 C2739 1.369 . S
C2740 C2749 1.429 . S
C2741 C2739 1.419 . S
C2741 C2742 1.363 . S
C2741 H2744 0.929 . S
C2742 C2741 1.363 . S
C2742 C2748 1.428 . S
H2743 C2739 0.930 . S
H2744 C2741 0.929 . S
S2745 N2746 1.613 . S
S2745 N2747 1.610 . S
N2746 S2745 1.613 . S
N2746 C2749 1.350 . S
N2747 S2745 1.610 . S
N2747 C2748 1.351 . S
C2748 C2742 1.428 . S
C2748 N2747 1.351 . S
C2748 C2749 1.434 . S
C2749 C2740 1.429 . S
C2749 N2746 1.350 . S
C2749 C2748 1.434 . S
C2750 C2751 1.369 . S
C2750 C2752 1.419 1_655 S
C2750 H2754 0.930 . S
C2751 C2750 1.369 . S
C2751 C2760 1.429 . S
C2752 C2750 1.419 1_455 S
C2752 C2753 1.363 . S
C2752 H2755 0.929 . S
C2753 C2752 1.363 . S
C2753 C2759 1.428 . S
H2754 C2750 0.930 . S
H2755 C2752 0.929 . S
S2756 N2757 1.613 . S
S2756 N2758 1.610 1_655 S
N2757 S2756 1.613 . S
N2757 C2760 1.350 . S
N2758 S2756 1.610 1_455 S
N2758 C2759 1.351 . S
C2759 C2753 1.428 . S
C2759 N2758 1.351 . S
C2759 C2760 1.434 1_455 S
C2760 C2751 1.429 . S
C2760 N2757 1.350 . S
C2760 C2759 1.434 1_655 S
C2761 C2762 1.369 1_455 S
C2761 C2763 1.419 . S
C2761 H2765 0.930 . S
C2762 C2761 1.369 1_655 S
C2762 C2771 1.429 . S
C2763 C2761 1.419 . S
C2763 C2764 1.363 . S
C2763 H2766 0.929 . S
C2764 C2763 1.363 . S
C2764 C2770 1.428 1_455 S
H2765 C2761 0.930 . S
H2766 C2763 0.929 . S
S2767 N2768 1.613 . S
S2767 N2769 1.610 . S
N2768 S2767 1.613 . S
N2768 C2771 1.350 . S
N2769 S2767 1.610 . S
N2769 C2770 1.351 . S
C2770 C2764 1.428 1_655 S
C2770 N2769 1.351 . S
C2770 C2771 1.434 . S
C2771 C2762 1.429 . S
C2771 N2768 1.350 . S
C2771 C2770 1.434 . S
C2772 C2773 1.369 . S
C2772 C2774 1.419 . S
C2772 H2776 0.930 . S
C2773 C2772 1.369 . S
C2773 C2782 1.429 . S
C2774 C2772 1.419 . S
C2774 C2775 1.363 . S
C2774 H2777 0.929 . S
C2775 C2774 1.363 . S
C2775 C2781 1.428 . S
H2776 C2772 0.930 . S
H2777 C2774 0.929 . S
S2778 N2779 1.613 . S
S2778 N2780 1.610 . S
N2779 S2778 1.613 . S
N2779 C2782 1.350 . S
N2780 S2778 1.610 . S
N2780 C2781 1.351 . S
C2781 C2775 1.428 . S
C2781 N2780 1.351 . S
C2781 C2782 1.434 . S
C2782 C2773 1.429 . S
C2782 N2779 1.350 . S
C2782 C2781 1.434 . S
C2783 C2784 1.369 . S
C2783 C2785 1.419 1_655 S
C2783 H2787 0.930 . S
C2784 C2783 1.369 . S
C2784 C2793 1.429 . S
C2785 C2783 1.419 1_455 S
C2785 C2786 1.363 . S
C2785 H2788 0.929 . S
C2786 C2785 1.363 . S
C2786 C2792 1.428 . S
H2787 C2783 0.930 . S
H2788 C2785 0.929 . S
S2789 N2790 1.613 . S
S2789 N2791 1.610 1_655 S
N2790 S2789 1.613 . S
N2790 C2793 1.350 . S
N2791 S2789 1.610 1_455 S
N2791 C2792 1.351 . S
C2792 C2786 1.428 . S
C2792 N2791 1.351 . S
C2792 C2793 1.434 1_455 S
C2793 C2784 1.429 . S
C2793 N2790 1.350 . S
C2793 C2792 1.434 1_655 S
C2794 C2795 1.369 . S
C2794 C2796 1.419 . S
C2794 H2798 0.930 . S
C2795 C2794 1.369 . S
C2795 C2804 1.429 . S
C2796 C2794 1.419 . S
C2796 C2797 1.363 . S
C2796 H2799 0.929 . S
C2797 C2796 1.363 . S
C2797 C2803 1.428 . S
H2798 C2794 0.930 . S
H2799 C2796 0.929 . S
S2800 N2801 1.613 . S
S2800 N2802 1.610 . S
N2801 S2800 1.613 . S
N2801 C2804 1.350 . S
N2802 S2800 1.610 . S
N2802 C2803 1.351 . S
C2803 C2797 1.428 . S
C2803 N2802 1.351 . S
C2803 C2804 1.434 . S
C2804 C2795 1.429 . S
C2804 N2801 1.350 . S
C2804 C2803 1.434 . S
C2805 C2806 1.369 . S
C2805 C2807 1.419 . S
C2805 H2809 0.930 . S
C2806 C2805 1.369 . S
C2806 C2815 1.429 . S
C2807 C2805 1.419 . S
C2807 C2808 1.363 . S
C2807 H2810 0.929 . S
C2808 C2807 1.363 . S
C2808 C2814 1.428 . S
H2809 C2805 0.930 . S
H2810 C2807 0.929 . S
S2811 N2812 1.613 . S
S2811 N2813 1.610 . S
N2812 S2811 1.613 . S
N2812 C2815 1.350 . S
N2813 S2811 1.610 . S
N2813 C2814 1.351 . S
C2814 C2808 1.428 . S
C2814 N2813 1.351 . S
C2814 C2815 1.434 . S
C2815 C2806 1.429 . S
C2815 N2812 1.350 . S
C2815 C2814 1.434 . S
C2816 C2817 1.369 . S
C2816 C2818 1.419 1_554 S
C2816 H2820 0.930 . S
C2817 C2816 1.369 . S
C2817 C2826 1.429 . S
C2818 C2816 1.419 1_556 S
C2818 C2819 1.363 . S
C2818 H2821 0.929 . S
C2819 C2818 1.363 . S
C2819 C2825 1.428 . S
H2820 C2816 0.930 . S
H2821 C2818 0.929 . S
S2822 N2823 1.613 . S
S2822 N2824 1.610 1_554 S
N2823 S2822 1.613 . S
N2823 C2826 1.350 . S
N2824 S2822 1.610 1_556 S
N2824 C2825 1.351 . S
C2825 C2819 1.428 . S
C2825 N2824 1.351 . S
C2825 C2826 1.434 1_556 S
C2826 C2817 1.429 . S
C2826 N2823 1.350 . S
C2826 C2825 1.434 1_554 S
C2827 C2828 1.369 . S
C2827 C2829 1.419 . S
C2827 H2831 0.930 . S
C2828 C2827 1.369 . S
C2828 C2837 1.429 1_655 S
C2829 C2827 1.419 . S
C2829 C2830 1.363 . S
C2829 H2832 0.929 . S
C2830 C2829 1.363 . S
C2830 C2836 1.428 1_655 S
H2831 C2827 0.930 . S
H2832 C2829 0.929 . S
S2833 N2834 1.613 . S
S2833 N2835 1.610 . S
N2834 S2833 1.613 . S
N2834 C2837 1.350 . S
N2835 S2833 1.610 . S
N2835 C2836 1.351 . S
C2836 C2830 1.428 1_455 S
C2836 N2835 1.351 . S
C2836 C2837 1.434 . S
C2837 C2828 1.429 1_455 S
C2837 N2834 1.350 . S
C2837 C2836 1.434 . S
C2838 C2839 1.369 . S
C2838 C2840 1.419 . S
C2838 H2842 0.930 . S
C2839 C2838 1.369 . S
C2839 C2848 1.429 . S
C2840 C2838 1.419 . S
C2840 C2841 1.363 . S
C2840 H2843 0.929 . S
C2841 C2840 1.363 . S
C2841 C2847 1.428 . S
H2842 C2838 0.930 . S
H2843 C2840 0.929 . S
S2844 N2845 1.613 . S
S2844 N2846 1.610 . S
N2845 S2844 1.613 . S
N2845 C2848 1.350 . S
N2846 S2844 1.610 . S
N2846 C2847 1.351 . S
C2847 C2841 1.428 . S
C2847 N2846 1.351 . S
C2847 C2848 1.434 . S
C2848 C2839 1.429 . S
C2848 N2845 1.350 . S
C2848 C2847 1.434 . S
C2849 C2850 1.369 . S
C2849 C2851 1.419 . S
C2849 H2853 0.930 . S
C2850 C2849 1.369 . S
C2850 C2859 1.429 . S
C2851 C2849 1.419 . S
C2851 C2852 1.363 . S
C2851 H2854 0.929 . S
C2852 C2851 1.363 . S
C2852 C2858 1.428 . S
H2853 C2849 0.930 . S
H2854 C2851 0.929 . S
S2855 N2856 1.613 . S
S2855 N2857 1.610 . S
N2856 S2855 1.613 . S
N2856 C2859 1.350 . S
N2857 S2855 1.610 . S
N2857 C2858 1.351 . S
C2858 C2852 1.428 . S
C2858 N2857 1.351 . S
C2858 C2859 1.434 . S
C2859 C2850 1.429 . S
C2859 N2856 1.350 . S
C2859 C2858 1.434 . S
C2860 C2861 1.369 . S
C2860 C2862 1.419 . S
C2860 H2864 0.930 . S
C2861 C2860 1.369 . S
C2861 C2870 1.429 . S
C2862 C2860 1.419 . S
C2862 C2863 1.363 . S
C2862 H2865 0.929 . S
C2863 C2862 1.363 . S
C2863 C2869 1.428 . S
H2864 C2860 0.930 . S
H2865 C2862 0.929 . S
S2866 N2867 1.613 . S
S2866 N2868 1.610 . S
N2867 S2866 1.613 . S
N2867 C2870 1.350 . S
N2868 S2866 1.610 . S
N2868 C2869 1.351 . S
C2869 C2863 1.428 . S
C2869 N2868 1.351 . S
C2869 C2870 1.434 . S
C2870 C2861 1.429 . S
C2870 N2867 1.350 . S
C2870 C2869 1.434 . S
C2871 C2872 1.369 1_554 S
C2871 C2873 1.419 . S
C2871 H2875 0.930 . S
C2872 C2871 1.369 1_556 S
C2872 C2881 1.429 . S
C2873 C2871 1.419 . S
C2873 C2874 1.363 . S
C2873 H2876 0.929 . S
C2874 C2873 1.363 . S
C2874 C2880 1.428 1_554 S
H2875 C2871 0.930 . S
H2876 C2873 0.929 . S
S2877 N2878 1.613 . S
S2877 N2879 1.610 . S
N2878 S2877 1.613 . S
N2878 C2881 1.350 . S
N2879 S2877 1.610 . S
N2879 C2880 1.351 . S
C2880 C2874 1.428 1_556 S
C2880 N2879 1.351 . S
C2880 C2881 1.434 . S
C2881 C2872 1.429 . S
C2881 N2878 1.350 . S
C2881 C2880 1.434 . S
C2882 C2883 1.369 . S
C2882 C2884 1.419 . S
C2882 H2886 0.930 . S
C2883 C2882 1.369 . S
C2883 C2892 1.429 . S
C2884 C2882 1.419 . S
C2884 C2885 1.363 . S
C2884 H2887 0.929 . S
C2885 C2884 1.363 . S
C2885 C2891 1.428 . S
H2886 C2882 0.930 . S
H2887 C2884 0.929 . S
S2888 N2889 1.613 . S
S2888 N2890 1.610 . S
N2889 S2888 1.613 . S
N2889 C2892 1.350 . S
N2890 S2888 1.610 . S
N2890 C2891 1.351 . S
C2891 C2885 1.428 . S
C2891 N2890 1.351 . S
C2891 C2892 1.434 . S
C2892 C2883 1.429 . S
C2892 N2889 1.350 . S
C2892 C2891 1.434 . S
C2893 C2894 1.369 . S
C2893 C2895 1.419 . S
C2893 H2897 0.930 . S
C2894 C2893 1.369 . S
C2894 C2903 1.429 . S
C2895 C2893 1.419 . S
C2895 C2896 1.363 . S
C2895 H2898 0.929 . S
C2896 C2895 1.363 . S
C2896 C2902 1.428 . S
H2897 C2893 0.930 . S
H2898 C2895 0.929 . S
S2899 N2900 1.613 . S
S2899 N2901 1.610 . S
N2900 S2899 1.613 . S
N2900 C2903 1.350 . S
N2901 S2899 1.610 . S
N2901 C2902 1.351 . S
C2902 C2896 1.428 . S
C2902 N2901 1.351 . S
C2902 C2903 1.434 . S
C2903 C2894 1.429 . S
C2903 N2900 1.350 . S
C2903 C2902 1.434 . S
C1585 C556 2.202 . S
C1587 N14 1.813 . S
C1596 N47 1.812 . S
C1598 C1579 2.201 . S
C1607 N80 1.804 . S
C1609 C721 2.204 . S
C1618 N113 1.812 . S
C1620 C1546 2.201 . S
C1629 N146 1.815 . S
C1631 C1381 2.201 . S
C1640 N179 1.809 . S
C1642 C1414 2.203 . S
C1651 N212 1.801 . S
C1653 C1447 2.201 . S
C1662 C688 2.202 . S
C1664 N245 1.813 . S
C1673 N278 1.809 . S
C1675 C28 2.202 . S
C1684 N311 1.813 . S
C1686 C61 2.201 . S
C1695 N344 1.812 . S
C1697 C94 2.201 . S
C1706 N377 1.812 . S
C1708 C127 2.204 . S
C1717 N410 1.812 . S
C1719 C160 2.203 . S
C1728 C193 2.200 . S
C1730 N443 1.811 . S
C1739 C226 2.201 . S
C1741 N476 1.808 . S
C1750 N509 1.802 . S
C1752 C259 2.202 . S
C1761 C292 2.203 . S
C1763 N542 1.806 . S
C1772 C1216 2.201 . S
C1774 N575 1.804 . S
C1783 C1249 2.201 . S
C1785 N608 1.810 . S
C1794 C1282 2.204 . S
C1796 N641 1.805 . S
C1805 N674 1.810 . S
C1807 C523 2.202 . S
C1816 N707 1.804 . S
C1818 C358 2.202 . S
C1827 C1183 2.200 . S
C1829 N740 1.810 . S
C1838 N773 1.813 . S
C1840 C1117 2.203 . S
C1849 N806 1.815 . S
C1851 C1348 2.202 . S
C1860 C787 2.201 . S
C1862 N839 1.802 . S
C1871 C1513 2.203 . S
C1873 N872 1.810 . S
C1882 N905 1.810 . S
C1884 C754 2.201 . S
C1893 N938 1.814 . S
C1895 C589 2.201 . S
C1904 C622 2.203 . S
C1906 N971 1.815 . S
C1915 C655 2.201 . S
C1917 N1004 1.802 . S
C1926 C1480 2.202 . S
C1928 N1037 1.810 . S
C1937 C820 2.202 . S
C1939 N1070 1.808 . S
C1948 C853 2.201 . S
C1950 N1103 1.808 . S
C1959 N1136 1.812 . S
C1961 C886 2.201 . S
C1970 N1169 1.813 . S
C1972 C919 2.203 . S
C1981 N1202 1.806 . S
C1983 C952 2.204 . S
C1992 N1235 1.813 . S
C1994 C985 2.201 . S
C2003 N1268 1.814 . S
C2005 C1018 2.201 . S
C2014 C1051 2.202 . S
C2016 N1301 1.809 . S
C2025 C1084 2.202 . S
C2027 N1334 1.811 . S
C2036 C424 2.201 . S
C2038 N1367 1.809 . S
C2047 N1400 1.810 . S
C2049 C457 2.201 . S
C2058 C490 2.204 . S
C2060 N1433 1.804 . S
C2069 C1315 2.202 . S
C2071 N1466 1.809 . S
C2080 N1499 1.815 . S
C2082 C1150 2.201 . S
C2091 N1532 1.812 . S
C2093 C391 2.201 . S
C2102 C325 2.204 . S
C2104 N1565 1.805 . S
C2113 N500 0.720 . S
C2115 N5 0.731 . S
C2124 N38 0.725 . S
C2126 N401 0.705 . S
C2135 N434 0.720 . S
C2137 N71 0.731 . S
C2146 N467 0.702 . S
C2148 N104 0.718 . S
C2157 N137 0.724 . S
C2159 N302 0.705 . S
C2168 N170 0.734 . S
C2170 N335 0.722 . S
C2179 N368 0.736 . S
C2181 N203 0.714 . S
C2190 N236 0.709 . S
C2192 N269 0.731 . S
C2201 N665 0.719 . S
C2203 N533 0.706 . S
C2212 N566 0.729 . S
C2214 N764 0.706 . S
C2223 N1490 0.702 . S
C2225 N599 0.725 . S
C2234 N731 0.717 . S
C2236 N632 0.732 . S
C2245 N698 0.702 . S
C2247 N1391 0.724 . S
C2256 N797 0.735 . S
C2258 N1292 0.720 . S
C2267 N1193 0.727 . S
C2269 N830 0.729 . S
C2278 N1226 0.706 . S
C2280 N863 0.730 . S
C2289 N1259 0.708 . S
C2291 N896 0.731 . S
C2300 N1094 0.704 . S
C2302 N929 0.715 . S
C2311 N962 0.711 . S
C2313 N1127 0.732 . S
C2322 N1160 0.702 . S
C2324 N995 0.724 . S
C2333 N1028 0.723 . S
C2335 N1061 0.731 . S
C2344 N1457 0.702 . S
C2346 N1325 0.722 . S
C2355 N1358 0.705 . S
C2357 N1556 0.714 . S
C2366 N1523 0.723 . S
C2368 N1424 0.705 . S
C2377 C668 1.482 . S
C2379 C8 1.487 . S
C2388 C41 1.481 . S
C2390 C1361 1.488 . S
C2399 C74 1.482 . S
C2401 C1394 1.488 . S
C2410 C107 1.487 . S
C2412 C1427 1.485 . S
C2421 C140 1.480 . S
C2423 C1559 1.487 . S
C2432 C701 1.489 . S
C2434 C173 1.481 . S
C2443 C206 1.481 . S
C2445 C1526 1.488 . S
C2454 C239 1.482 . S
C2456 C536 1.483 . S
C2465 C503 1.488 . S
C2467 C272 1.480 . S
C2476 C404 1.480 . S
C2478 C305 1.487 . S
C2487 C338 1.484 . S
C2489 C437 1.482 . S
C2498 C470 1.482 . S
C2500 C371 1.488 . S
C2509 C833 1.489 . S
C2511 C569 1.481 . S
C2520 C602 1.486 . S
C2522 C866 1.486 . S
C2531 C635 1.489 . S
C2533 C899 1.481 . S
C2542 C998 1.488 . S
C2544 C734 1.481 . S
C2553 C932 1.481 . S
C2555 C767 1.485 . S
C2564 C800 1.482 . S
C2566 C1460 1.487 . S
C2575 C1493 1.484 . S
C2577 C965 1.482 . S
C2586 C1328 1.483 . S
C2588 C1031 1.486 . S
C2597 C1064 1.488 . S
C2599 C1295 1.483 . S
C2608 C1196 1.480 . S
C2610 C1097 1.486 . S
C2619 C1130 1.485 . S
C2621 C1229 1.486 . S
C2630 C1163 1.489 . S
C2632 C1262 1.481 . S
C2641 C149 1.754 1_545 S
C2643 C17 1.762 1_565 S
C2652 C182 1.751 . S
C2654 C50 1.753 . S
C2663 C215 1.762 1_565 S
C2665 C83 1.752 1_545 S
C2674 C116 1.762 . S
C2676 C248 1.760 . S
C2685 C479 1.764 1_554 S
C2687 C281 1.760 1_556 S
C2696 C512 1.763 . S
C2698 C314 1.758 . S
C2707 C347 1.750 . S
C2709 C413 1.758 . S
C2718 C380 1.749 . S
C2720 C446 1.758 . S
C2729 C545 1.764 1_655 S
C2731 C1502 1.759 1_455 S
C2740 C578 1.762 . S
C2742 C1436 1.752 . S
C2751 C611 1.752 . S
C2753 C677 1.756 . S
C2762 C1370 1.763 1_655 S
C2764 C644 1.755 1_455 S
C2773 C1337 1.765 . S
C2775 C710 1.758 . S
C2784 C743 1.756 . S
C2786 C1568 1.761 . S
C2795 C1535 1.750 . S
C2797 C776 1.759 . S
C2806 C941 1.764 . S
C2808 C809 1.755 . S
C2817 C974 1.750 . S
C2819 C842 1.756 . S
C2828 C875 1.757 . S
C2830 C1007 1.761 . S
C2839 C908 1.757 . S
C2841 C1040 1.762 . S
C2850 C1073 1.765 . S
C2852 C1271 1.756 . S
C2861 C1106 1.751 . S
C2863 C1304 1.756 . S
C2872 C1139 1.761 1_556 S
C2874 C1205 1.752 1_554 S
C2883 C1172 1.755 . S
C2885 C1238 1.761 . S
C2894 C1469 1.757 . S
C2896 C1403 1.762 . S
