# Generated by pormake.
# Topology soe, (5)-cn, num edge types: 1
# Building blocks:
#     Node 0, Type 0, BuildingBlock: XOMCOT_clean_sbu_1, # of connection points: 5
#     Node 1, Type 0, BuildingBlock: XOMCOT_clean_sbu_1, # of connection points: 5
#     Node 2, Type 0, BuildingBlock: XOMCOT_clean_sbu_1, # of connection points: 5
#     Node 3, Type 0, BuildingBlock: XOMCOT_clean_sbu_1, # of connection points: 5
#     Node 4, Type 0, BuildingBlock: XOMCOT_clean_sbu_1, # of connection points: 5
#     Node 5, Type 0, BuildingBlock: XOMCOT_clean_sbu_1, # of connection points: 5
#     Node 6, Type 0, BuildingBlock: XOMCOT_clean_sbu_1, # of connection points: 5
#     Node 7, Type 0, BuildingBlock: XOMCOT_clean_sbu_1, # of connection points: 5
#     Edge 8, Type (0, 0), BuildingBlock: UVAHIK_clean_linker_0, # of connection points: 2
#     Edge 9, Type (0, 0), BuildingBlock: UVAHIK_clean_linker_0, # of connection points: 2
#     Edge 10, Type (0, 0), BuildingBlock: UVAHIK_clean_linker_0, # of connection points: 2
#     Edge 11, Type (0, 0), BuildingBlock: UVAHIK_clean_linker_0, # of connection points: 2
#     Edge 12, Type (0, 0), BuildingBlock: UVAHIK_clean_linker_0, # of connection points: 2
#     Edge 13, Type (0, 0), BuildingBlock: UVAHIK_clean_linker_0, # of connection points: 2
#     Edge 14, Type (0, 0), BuildingBlock: UVAHIK_clean_linker_0, # of connection points: 2
#     Edge 15, Type (0, 0), BuildingBlock: UVAHIK_clean_linker_0, # of connection points: 2
#     Edge 16, Type (0, 0), BuildingBlock: UVAHIK_clean_linker_0, # of connection points: 2
#     Edge 17, Type (0, 0), BuildingBlock: UVAHIK_clean_linker_0, # of connection points: 2
#     Edge 18, Type (0, 0), BuildingBlock: UVAHIK_clean_linker_0, # of connection points: 2
#     Edge 19, Type (0, 0), BuildingBlock: UVAHIK_clean_linker_0, # of connection points: 2
#     Edge 20, Type (0, 0), BuildingBlock: UVAHIK_clean_linker_0, # of connection points: 2
#     Edge 21, Type (0, 0), BuildingBlock: UVAHIK_clean_linker_0, # of connection points: 2
#     Edge 22, Type (0, 0), BuildingBlock: UVAHIK_clean_linker_0, # of connection points: 2
#     Edge 23, Type (0, 0), BuildingBlock: UVAHIK_clean_linker_0, # of connection points: 2
#     Edge 24, Type (0, 0), BuildingBlock: UVAHIK_clean_linker_0, # of connection points: 2
#     Edge 25, Type (0, 0), BuildingBlock: UVAHIK_clean_linker_0, # of connection points: 2
#     Edge 26, Type (0, 0), BuildingBlock: UVAHIK_clean_linker_0, # of connection points: 2
#     Edge 27, Type (0, 0), BuildingBlock: UVAHIK_clean_linker_0, # of connection points: 2
# Relax obj value: 0.045
# Max RMSD: 0.083
# Mean RMSD: 0.083
data_MOF--net-soe--node1-XOMCOT_clean_sbu_1--edge1-UVAHIK_clean_linker_0
_symmetry_space_group_name_H-M    P1
_symmetry_Int_Tables_number       1
_symmetry_cell_setting            triclinic
loop_
_symmetry_equiv_pos_as_xyz
'x, y, z'
_cell_length_a     70.237206
_cell_length_b     59.526805
_cell_length_c     21.971333
_cell_angle_alpha  90.002701
_cell_angle_beta   90.032549
_cell_angle_gamma 89.980308
loop_
_atom_site_label
_atom_site_type_symbol
_atom_site_fract_x
_atom_site_fract_y
_atom_site_fract_z
_atom_type_partial_charge
C0 C 0.13726 0.1321 0.09358 0.0
C1 C 0.14057 0.13402 0.03204 0.0
N2 N 0.12839 0.12033 1.00247 0.0
N3 N 0.12303 0.11734 0.10283 0.0
C4 C 0.11789 0.11048 0.04654 0.0
H5 H 0.14497 0.14058 0.12949 0.0
Co6 Co 0.11441 0.1084 0.17896 0.0
C7 C 0.08981 0.06878 0.15424 0.0
O8 O 0.09838 0.05806 0.19884 0.0
N9 N 0.10545 0.10005 0.25716 0.0
C10 C 0.0845 0.09576 0.33232 0.0
C11 C 0.08677 0.09795 0.2707 0.0
C12 C 0.1142 0.09971 0.31221 0.0
N13 N 0.10175 0.09709 0.3587 0.0
O14 O 0.09697 0.13335 0.18027 0.0
H15 H 0.07529 0.09917 0.23805 0.0
H16 H 0.12913 0.10306 0.31893 0.0
O17 O 0.09501 0.08882 0.14089 0.0
C18 C 0.10451 0.14868 0.21294 0.0
O19 O 0.12151 0.14495 0.23594 0.0
N20 N 0.13334 0.08595 0.17902 0.0
C21 C 0.16795 0.0627 0.17154 0.0
C22 C 0.15226 0.05617 0.13598 0.0
C23 C 0.13518 0.06837 0.13934 0.0
C24 C 0.14855 0.09257 0.21305 0.0
C25 C 0.16577 0.08099 0.21104 0.0
H26 H 0.12404 0.06449 0.10721 0.0
H27 H 0.14778 0.10797 0.23886 0.0
H28 H 0.1067 0.09844 0.03787 0.0
H29 H 0.15145 0.14427 0.01096 0.0
H30 H 0.07104 0.09415 0.35585 0.0
H31 H 0.15353 0.04264 0.10326 0.0
H32 H 0.17751 0.08687 0.23874 0.0
C33 C 0.38378 0.89173 0.09065 0.0
C34 C 0.38088 0.88958 0.02897 0.0
N35 N 0.39475 0.90094 0.99964 0.0
N36 N 0.39933 0.90443 0.10032 0.0
C37 C 0.4058 0.90964 0.04421 0.0
H38 H 0.37485 0.88497 0.12632 0.0
Co39 Co 0.40779 0.91339 0.17639 0.0
C40 C 0.43189 0.95359 0.15318 0.0
O41 O 0.42326 0.96395 0.19827 0.0
N42 N 0.41655 0.92183 0.25465 0.0
C43 C 0.43689 0.92738 0.3311 0.0
C44 C 0.43513 0.92425 0.26948 0.0
C45 C 0.40738 0.92281 0.30882 0.0
N46 N 0.41942 0.92632 0.35583 0.0
O47 O 0.42573 0.88899 0.17654 0.0
H48 H 0.44684 0.92276 0.23778 0.0
H49 H 0.39234 0.91999 0.31467 0.0
O50 O 0.42684 0.93359 0.13889 0.0
C51 C 0.42015 0.87324 0.21162 0.0
O52 O 0.40418 0.87593 0.24188 0.0
N53 N 0.38846 0.93538 0.17674 0.0
C54 C 0.35376 0.95848 0.16933 0.0
C55 C 0.36948 0.96524 0.13434 0.0
C56 C 0.38659 0.95312 0.13758 0.0
C57 C 0.37317 0.92838 0.2098 0.0
C58 C 0.3559 0.93989 0.20785 0.0
H59 H 0.39776 0.95721 0.1058 0.0
H60 H 0.37397 0.91283 0.23497 0.0
H61 H 0.4183 0.91977 0.03621 0.0
H62 H 0.36911 0.88087 0.00773 0.0
H63 H 0.4501 0.92888 0.35621 0.0
H64 H 0.36825 0.97895 0.10219 0.0
H65 H 0.34412 0.93379 0.23503 0.0
C66 C 0.13828 0.40118 0.42714 0.0
C67 C 0.14115 0.39961 0.4889 0.0
N68 N 0.12576 0.40816 0.51725 0.0
N69 N 0.12116 0.41064 0.4166 0.0
C70 C 0.11383 0.41464 0.47234 0.0
H71 H 0.14813 0.396 0.39203 0.0
Co72 Co 0.11126 0.41669 0.34003 0.0
C73 C 0.08611 0.45635 0.35786 0.0
O74 O 0.09352 0.46557 0.30894 0.0
N75 N 0.10103 0.42202 0.26207 0.0
C76 C 0.07904 0.42334 0.18907 0.0
C77 C 0.08212 0.42209 0.25057 0.0
C78 C 0.10913 0.42278 0.2062 0.0
N79 N 0.09606 0.42368 0.16109 0.0
O80 O 0.09406 0.3918 0.34803 0.0
H81 H 0.07115 0.42052 0.28483 0.0
H82 H 0.12421 0.42135 0.19791 0.0
O83 O 0.09218 0.43717 0.37585 0.0
C84 C 0.10228 0.37333 0.33503 0.0
O85 O 0.12044 0.37357 0.32082 0.0
N86 N 0.12977 0.43943 0.33146 0.0
C87 C 0.16368 0.46428 0.32934 0.0
C88 C 0.14829 0.471 0.36596 0.0
C89 C 0.13159 0.45811 0.36728 0.0
C90 C 0.14477 0.43242 0.29707 0.0
C91 C 0.16163 0.44474 0.29433 0.0
H92 H 0.12075 0.46245 0.4 0.0
H93 H 0.1442 0.41622 0.27499 0.0
H94 H 0.09996 0.42202 0.47998 0.0
H95 H 0.15377 0.39315 0.51113 0.0
H96 H 0.06531 0.42349 0.1667 0.0
H97 H 0.14936 0.48567 0.3949 0.0
H98 H 0.17337 0.4382 0.26776 0.0
C99 C 0.38264 0.62603 0.40054 0.0
C100 C 0.37988 0.62905 0.46201 0.0
N101 N 0.3947 0.61978 0.49173 0.0
N102 N 0.399 0.61467 0.39164 0.0
C103 C 0.40616 0.61132 0.44804 0.0
H104 H 0.37308 0.6312 0.36456 0.0
Co105 Co 0.40735 0.60467 0.31624 0.0
C106 C 0.42999 0.56361 0.34555 0.0
O107 O 0.42092 0.55257 0.30258 0.0
N108 N 0.416 0.59522 0.23842 0.0
C109 C 0.43597 0.58713 0.16247 0.0
C110 C 0.43418 0.5897 0.22432 0.0
C111 C 0.4073 0.59689 0.1835 0.0
N112 N 0.41907 0.59183 0.1369 0.0
O113 O 0.42597 0.62828 0.31484 0.0
H114 H 0.44581 0.58898 0.25648 0.0
H115 H 0.39301 0.60301 0.17683 0.0
O116 O 0.42574 0.58419 0.35595 0.0
C117 C 0.4209 0.64409 0.27917 0.0
O118 O 0.40479 0.64217 0.24925 0.0
N119 N 0.38742 0.58332 0.31688 0.0
C120 C 0.35223 0.56129 0.32473 0.0
C121 C 0.36749 0.55497 0.36235 0.0
C122 C 0.38484 0.56659 0.35881 0.0
C123 C 0.37256 0.58988 0.28116 0.0
C124 C 0.35507 0.57887 0.28334 0.0
H125 H 0.39562 0.56302 0.39243 0.0
H126 H 0.37375 0.60491 0.25408 0.0
H127 H 0.41911 0.60209 0.45731 0.0
H128 H 0.36782 0.63722 0.48327 0.0
H129 H 0.449 0.58368 0.13786 0.0
H130 H 0.36569 0.54209 0.39667 0.0
H131 H 0.34363 0.58467 0.25423 0.0
C132 C 0.88274 0.89829 0.91301 0.0
C133 C 0.87968 0.89584 0.97455 0.0
N134 N 0.8941 0.90589 1.00447 0.0
N135 N 0.89892 0.90998 0.9042 0.0
C136 C 0.90562 0.91422 0.96072 0.0
H137 H 0.8736 0.89229 0.87687 0.0
Co138 Co 0.908 0.91881 0.82857 0.0
C139 C 0.93123 0.95959 0.85458 0.0
O140 O 0.92277 0.97001 0.80925 0.0
N141 N 0.91746 0.92707 0.75077 0.0
C142 C 0.93869 0.93246 0.67692 0.0
C143 C 0.93608 0.93056 0.73851 0.0
C144 C 0.90918 0.92621 0.69504 0.0
N145 N 0.92177 0.9295 0.64922 0.0
O146 O 0.92625 0.89476 0.8309 0.0
H147 H 0.94735 0.9305 0.77204 0.0
H148 H 0.89457 0.92146 0.68756 0.0
O149 O 0.92641 0.9394 0.86764 0.0
C150 C 0.92125 0.87874 0.79584 0.0
O151 O 0.90546 0.88074 0.76425 0.0
N152 N 0.88843 0.94052 0.82557 0.0
C153 C 0.85341 0.96308 0.82914 0.0
C154 C 0.86857 0.9698 0.86673 0.0
C155 C 0.88584 0.95795 0.86531 0.0
C156 C 0.87371 0.93361 0.78981 0.0
C157 C 0.85631 0.94487 0.78983 0.0
H158 H 0.89651 0.96194 0.89895 0.0
H159 H 0.87494 0.91818 0.76435 0.0
H160 H 0.91839 0.92378 0.9699 0.0
H161 H 0.86777 0.88731 0.9956 0.0
H162 H 0.95222 0.93501 0.65454 0.0
H163 H 0.86673 0.98321 0.89951 0.0
H164 H 0.84498 0.93879 0.7607 0.0
C165 C 0.63928 0.12386 0.92639 0.0
C166 C 0.64214 0.12516 0.98819 0.0
N167 N 0.62672 0.11656 0.01624 0.0
N168 N 0.62214 0.11452 0.9155 0.0
C169 C 0.61478 0.11032 0.97109 0.0
H170 H 0.64915 0.12917 0.89149 0.0
Co171 Co 0.6122 0.10882 0.83873 0.0
C172 C 0.58757 0.06867 0.85478 0.0
O173 O 0.59501 0.05993 0.80527 0.0
N174 N 0.6019 0.10377 0.7607 0.0
C175 C 0.57981 0.10246 0.68801 0.0
C176 C 0.58297 0.10388 0.74946 0.0
C177 C 0.60993 0.10265 0.70476 0.0
N178 N 0.59679 0.10177 0.65985 0.0
O179 O 0.5947 0.13337 0.84825 0.0
H180 H 0.57206 0.10554 0.78388 0.0
H181 H 0.62501 0.10368 0.69623 0.0
O182 O 0.59346 0.08778 0.8738 0.0
C183 C 0.60281 0.15205 0.83691 0.0
O184 O 0.621 0.15212 0.82311 0.0
N185 N 0.63102 0.08652 0.82877 0.0
C186 C 0.66582 0.06349 0.82778 0.0
C187 C 0.65045 0.0556 0.86266 0.0
C188 C 0.63327 0.06765 0.86358 0.0
C189 C 0.64587 0.09435 0.79503 0.0
C190 C 0.66316 0.08292 0.79279 0.0
H191 H 0.62246 0.06265 0.89571 0.0
H192 H 0.64479 0.11058 0.77323 0.0
H193 H 0.60088 0.103 0.97844 0.0
H194 H 0.65477 0.13148 0.01063 0.0
H195 H 0.56605 0.10234 0.66583 0.0
H196 H 0.65207 0.04113 0.89206 0.0
H197 H 0.67464 0.08983 0.76574 0.0
C198 C 0.8832 0.63295 0.60013 0.0
C199 C 0.88036 0.63532 0.53848 0.0
N200 N 0.89388 0.62344 0.50898 0.0
N201 N 0.89838 0.61961 0.60963 0.0
C202 C 0.90468 0.61421 0.55344 0.0
H203 H 0.87447 0.63999 0.6359 0.0
Co204 Co 0.90652 0.6101 0.68564 0.0
C205 C 0.93036 0.56974 0.66111 0.0
O206 O 0.92154 0.55915 0.7054 0.0
N207 N 0.91494 0.60111 0.76384 0.0
C208 C 0.935 0.59492 0.8407 0.0
C209 C 0.93343 0.59814 0.77907 0.0
C210 C 0.90564 0.60038 0.81782 0.0
N211 N 0.91751 0.59648 0.86508 0.0
O212 O 0.92464 0.63428 0.68755 0.0
H213 H 0.94524 0.59941 0.74771 0.0
H214 H 0.89066 0.60373 0.82338 0.0
O215 O 0.92552 0.58991 0.64783 0.0
C216 C 0.91889 0.64991 0.72278 0.0
O217 O 0.90267 0.6472 0.75163 0.0
N218 N 0.887 0.58836 0.68437 0.0
C219 C 0.85203 0.56603 0.67417 0.0
C220 C 0.86783 0.55913 0.63974 0.0
C221 C 0.88509 0.57088 0.64437 0.0
C222 C 0.87167 0.59542 0.71713 0.0
C223 C 0.85424 0.5843 0.71373 0.0
H224 H 0.89634 0.56677 0.6129 0.0
H225 H 0.87255 0.6108 0.74304 0.0
H226 H 0.91685 0.60355 0.54529 0.0
H227 H 0.86884 0.64452 0.51737 0.0
H228 H 0.94812 0.59307 0.86608 0.0
H229 H 0.86656 0.54564 0.60689 0.0
H230 H 0.8424 0.5905 0.74047 0.0
C231 C 0.6379 0.39534 0.59221 0.0
C232 C 0.64087 0.39269 0.53074 0.0
N233 N 0.62596 0.40175 0.501 0.0
N234 N 0.62131 0.40624 0.60109 0.0
C235 C 0.61424 0.40971 0.54464 0.0
H236 H 0.64752 0.39037 0.62822 0.0
Co237 Co 0.61298 0.41611 0.67664 0.0
C238 C 0.58884 0.45588 0.6479 0.0
O239 O 0.59789 0.46728 0.69025 0.0
N240 N 0.60442 0.42538 0.75462 0.0
C241 C 0.58455 0.43282 0.83127 0.0
C242 C 0.58613 0.43 0.76946 0.0
C243 C 0.61344 0.42437 0.80912 0.0
N244 N 0.60174 0.42912 0.85611 0.0
O245 O 0.59541 0.39142 0.68072 0.0
H246 H 0.57432 0.42998 0.7379 0.0
H247 H 0.62797 0.41899 0.81526 0.0
O248 O 0.59357 0.43544 0.6374 0.0
C249 C 0.60333 0.37614 0.71262 0.0
O250 O 0.62067 0.37978 0.73293 0.0
N251 N 0.63205 0.43849 0.67404 0.0
C252 C 0.66637 0.46224 0.66421 0.0
C253 C 0.65076 0.46765 0.62701 0.0
C254 C 0.63386 0.45517 0.63153 0.0
C255 C 0.64728 0.43281 0.70927 0.0
C256 C 0.66434 0.44467 0.7061 0.0
H257 H 0.62281 0.45808 0.59831 0.0
H258 H 0.64675 0.41783 0.73677 0.0
H259 H 0.60122 0.4188 0.53531 0.0
H260 H 0.65316 0.38502 0.50949 0.0
H261 H 0.57154 0.43576 0.85642 0.0
H262 H 0.65196 0.48051 0.59237 0.0
H263 H 0.67608 0.43956 0.7349 0.0
C264 C 0.31811 0.95668 0.1611 0.0
C265 C 0.33486 0.96963 0.1631 0.0
C266 C 0.30025 0.96695 0.15739 0.0
C267 C 0.27577 0.02041 0.19016 0.0
H268 H 0.23542 0.99492 0.09133 0.0
C269 C 0.20351 0.06504 0.16277 0.0
C270 C 0.18693 0.0518 0.16468 0.0
C271 C 0.22148 0.05509 0.15895 0.0
C272 C 0.24646 1.00211 0.11967 0.0
H273 H 0.34591 1.0036 0.16146 0.0
H274 H 0.31466 0.02161 0.15439 0.0
H275 H 0.26702 0.97782 0.09031 0.0
H276 H 0.17628 0.01767 0.1625 0.0
H277 H 0.20777 1.00018 0.1563 0.0
H278 H 0.25525 0.04454 0.22006 0.0
C279 C 0.31538 1.00345 0.15646 0.0
C280 C 0.2646 0.99234 0.11901 0.0
C281 C 0.3333 0.99315 0.15996 0.0
C282 C 0.18876 0.02833 0.16096 0.0
C283 C 0.20682 0.01833 0.15729 0.0
C284 C 0.25765 0.03015 0.19089 0.0
C285 C 0.29862 0.99047 0.15556 0.0
C286 C 0.27948 1.00133 0.15439 0.0
C287 C 0.22342 0.0316 0.15696 0.0
C288 C 0.24273 0.02114 0.15572 0.0
H289 H 0.31877 0.93851 0.16233 0.0
H290 H 0.28768 0.95642 0.15729 0.0
H291 H 0.28677 0.02754 0.2188 0.0
H292 H 0.20261 0.0832 0.16396 0.0
H293 H 0.23388 0.06588 0.15728 0.0
C294 C 0.18994 0.4841 0.38643 0.0
C295 C 0.18237 0.47621 0.33111 0.0
C296 C 0.20824 0.49344 0.38874 0.0
C297 C 0.25395 0.49376 0.30512 0.0
H298 H 0.26492 0.54647 0.40263 0.0
C299 C 0.31664 0.56456 0.33074 0.0
C300 C 0.33302 0.55095 0.33132 0.0
C301 C 0.29849 0.55506 0.33482 0.0
C302 C 0.26209 0.53176 0.37506 0.0
H303 H 0.1879 0.47288 0.23441 0.0
H304 H 0.21973 0.48911 0.23849 0.0
H305 H 0.23259 0.53143 0.39997 0.0
H306 H 0.34313 0.51665 0.33792 0.0
H307 H 0.31132 0.49997 0.34528 0.0
H308 H 0.28335 0.49433 0.27929 0.0
C309 C 0.21166 0.48769 0.28032 0.0
C310 C 0.24358 0.52303 0.37395 0.0
C311 C 0.19338 0.47844 0.27797 0.0
C312 C 0.3308 0.52758 0.33736 0.0
C313 C 0.31258 0.51804 0.34107 0.0
C314 C 0.27247 0.50243 0.30647 0.0
C315 C 0.21944 0.49505 0.33584 0.0
C316 C 0.23923 0.50405 0.33848 0.0
C317 C 0.2962 0.53167 0.3395 0.0
C318 C 0.27674 0.52167 0.34099 0.0
H319 H 0.18203 0.48235 0.42844 0.0
H320 H 0.21384 0.49876 0.43236 0.0
H321 H 0.25117 0.47893 0.27799 0.0
H322 H 0.31782 0.58265 0.32719 0.0
H323 H 0.28622 0.56606 0.33294 0.0
C324 C 0.68718 0.02936 0.83173 0.0
C325 C 0.685 0.05284 0.83158 0.0
C326 C 0.70536 0.01966 0.83412 0.0
C327 C 0.75622 0.03293 0.8047 0.0
H328 H 0.76576 0.97937 0.90028 0.0
C329 C 0.83226 0.99719 0.83861 0.0
C330 C 0.83426 0.97376 0.8337 0.0
C331 C 0.81414 1.00705 0.84104 0.0
C332 C 0.76331 0.99423 0.87293 0.0
H333 H 0.70028 0.08447 0.83684 0.0
H334 H 0.73177 0.06764 0.84111 0.0
H335 H 0.73392 0.99578 0.89876 0.0
H336 H 0.81871 0.9423 0.83 0.0
H337 H 0.78728 0.95943 0.83315 0.0
H338 H 0.78557 0.03137 0.77874 0.0
C339 C 0.71952 0.05667 0.83771 0.0
C340 C 0.74502 1.00362 0.87198 0.0
C341 C 0.70141 0.06634 0.83522 0.0
C342 C 0.81772 0.96043 0.83265 0.0
C343 C 0.79966 0.97024 0.83528 0.0
C344 C 0.77449 0.02357 0.80571 0.0
C345 C 0.72178 0.03321 0.83669 0.0
C346 C 0.74123 0.02308 0.83778 0.0
C347 C 0.79761 0.99368 0.83908 0.0
C348 C 0.77827 1.00406 0.83969 0.0
H349 H 0.67485 0.0185 0.82874 0.0
H350 H 0.70657 1.00153 0.83271 0.0
H351 H 0.75378 0.04771 0.77703 0.0
H352 H 0.8447 1.00794 0.83947 0.0
H353 H 0.81309 0.02515 0.84467 0.0
C354 C 0.83092 0.53202 0.66244 0.0
C355 C 0.83297 0.55547 0.66608 0.0
C356 C 0.81281 0.5223 0.65722 0.0
C357 C 0.76173 0.53491 0.68517 0.0
H358 H 0.7532 0.48187 0.58654 0.0
C359 C 0.68645 0.49703 0.65111 0.0
C360 C 0.68513 0.47356 0.65693 0.0
C361 C 0.70428 0.50753 0.64751 0.0
C362 C 0.75537 0.49661 0.61459 0.0
H363 H 0.81764 0.5871 0.66385 0.0
H364 H 0.78625 0.57026 0.65429 0.0
H365 H 0.78477 0.49895 0.58946 0.0
H366 H 0.70151 0.44269 0.66055 0.0
H367 H 0.73245 0.46093 0.65499 0.0
H368 H 0.73237 0.53252 0.71048 0.0
C369 C 0.79851 0.55928 0.65722 0.0
C370 C 0.7735 0.50637 0.6164 0.0
C371 C 0.81655 0.56896 0.66268 0.0
C372 C 0.70201 0.46083 0.65716 0.0
C373 C 0.71978 0.47128 0.65321 0.0
C374 C 0.74361 0.52519 0.68321 0.0
C375 C 0.79634 0.53582 0.65513 0.0
C376 C 0.77696 0.52559 0.652 0.0
C377 C 0.72117 0.49478 0.649 0.0
C378 C 0.74022 0.50583 0.64826 0.0
H379 H 0.84327 0.52117 0.66518 0.0
H380 H 0.81169 0.50416 0.65634 0.0
H381 H 0.7639 0.54947 0.71391 0.0
H382 H 0.67372 0.50729 0.6508 0.0
H383 H 0.70485 0.52565 0.64362 0.0
C384 C 0.95229 0.99299 0.8721 0.0
C385 C 0.94689 0.97101 0.88801 0.0
C386 C 0.96751 1.00362 0.90137 0.0
C387 C 0.011 0.99165 0.9911 0.0
H388 H 1.00851 0.0552 0.02921 0.0
C389 C 0.06823 0.03583 0.13751 0.0
C390 C 0.07385 0.05771 0.12139 0.0
C391 C 0.0529 0.02538 0.10835 0.0
C392 C 1.00955 0.03751 0.01819 0.0
H393 H 0.9532 0.94309 0.94814 0.0
H394 H 0.97968 0.96174 0.99976 0.0
H395 H 0.98123 0.03676 0.98208 0.0
H396 H 0.0678 0.08567 0.06116 0.0
H397 H 0.04109 0.06734 0.00978 0.0
H398 H 0.03931 0.9924 0.02722 0.0
C399 C 0.97226 0.97066 0.96392 0.0
C400 C 0.99387 0.0269 0.99122 0.0
C401 C 0.95698 0.96001 0.9346 0.0
C402 C 0.06383 0.06883 0.07486 0.0
C403 C 0.04843 0.05836 0.04565 0.0
C404 C 0.02667 1.00226 0.01808 0.0
C405 C 0.97779 0.99258 0.94745 0.0
C406 C 0.99438 1.00382 0.9773 0.0
C407 C 0.04274 0.0365 0.06216 0.0
C408 C 0.02616 0.02534 0.03208 0.0
H409 H 0.9449 1.002 0.83634 0.0
H410 H 0.97147 0.02036 0.88684 0.0
H411 H 0.01206 0.97397 0.98007 0.0
H412 H 0.07555 0.02673 0.17323 0.0
H413 H 0.0488 1.0087 0.12295 0.0
C414 C 0.45719 0.95476 0.07171 0.0
C415 C 0.4477 0.96506 0.1207 0.0
C416 C 0.47242 0.96562 0.04269 0.0
C417 C 0.50839 1.01044 0.06722 0.0
H418 H 0.51332 1.00899 0.89162 0.0
C419 C 0.56301 0.0659 0.93809 0.0
C420 C 0.57216 0.05645 0.88725 0.0
C421 C 0.54806 0.05451 0.96698 0.0
C422 C 0.51232 1.00935 0.94079 0.0
H423 H 0.44673 0.99502 0.17696 0.0
H424 H 0.47302 0.01385 0.12636 0.0
H425 H 0.48695 0.98935 0.94032 0.0
H426 H 0.5729 0.02737 0.82773 0.0
H427 H 0.54717 1.00749 0.87843 0.0
H428 H 0.53377 0.03038 0.06781 0.0
C429 C 0.46892 0.99729 0.11077 0.0
C430 C 0.49716 0.99807 0.96872 0.0
C431 C 0.45371 0.9865 0.13955 0.0
C432 C 0.56615 0.03525 0.86655 0.0
C433 C 0.55125 0.02387 0.89542 0.0
C434 C 0.52357 0.02168 0.03933 0.0
C435 C 0.47856 0.98698 0.06217 0.0
C436 C 0.49495 0.99853 0.0323 0.0
C437 C 0.5419 0.03338 0.9458 0.0
C438 C 0.52573 0.02134 0.97569 0.0
H439 H 0.45296 0.93825 0.05603 0.0
H440 H 0.4796 0.95711 0.0057 0.0
H441 H 0.50733 1.01087 0.11638 0.0
H442 H 0.56723 0.08223 0.95517 0.0
H443 H 0.54108 0.06249 0.00524 0.0
C444 C 0.06463 0.48961 0.37195 0.0
C445 C 0.07062 0.46818 0.39102 0.0
C446 C 0.0497 0.50068 0.40154 0.0
C447 C 1.00768 0.49033 0.49881 0.0
H448 H 0.0104 0.55446 0.52857 0.0
C449 C 0.95183 0.53658 0.64567 0.0
C450 C 0.9461 0.55828 0.62814 0.0
C451 C 0.96689 0.52575 0.61618 0.0
C452 C 1.00927 0.53661 0.51989 0.0
H453 H 0.06564 0.44171 0.45688 0.0
H454 H 0.03959 0.46109 0.50879 0.0
H455 H 0.03709 0.53531 0.48013 0.0
H456 H 0.95169 0.58551 0.56512 0.0
H457 H 0.97787 0.56647 0.51296 0.0
H458 H 0.97984 0.4916 0.53821 0.0
C459 C 0.04637 0.46923 0.47041 0.0
C460 C 0.02463 0.52559 0.49222 0.0
C461 C 0.06138 0.45817 0.44089 0.0
C462 C 0.95576 0.56883 0.57993 0.0
C463 C 0.97085 0.55795 0.55027 0.0
C464 C 0.99231 0.50134 0.52633 0.0
C465 C 0.04029 0.49061 0.45097 0.0
C466 C 0.02405 0.5023 0.48136 0.0
C467 C 0.97665 0.53626 0.56812 0.0
C468 C 0.9929 0.52464 0.53741 0.0
H469 H 0.07137 0.49786 0.33367 0.0
H470 H 0.04527 0.51698 0.3848 0.0
H471 H 1.00658 0.47246 0.49021 0.0
H472 H 0.94481 0.52794 0.68277 0.0
H473 H 0.9711 0.50924 0.63192 0.0
C474 C 0.45668 0.5641 0.42238 0.0
C475 C 0.44569 0.55238 0.3793 0.0
C476 C 0.47197 0.55356 0.45191 0.0
C477 C 0.49222 0.49729 0.48794 0.0
H478 H 0.5391 0.53055 0.51085 0.0
C479 C 0.56194 0.4547 0.57177 0.0
C480 C 0.57283 0.46667 0.61461 0.0
C481 C 0.54649 0.46498 0.54226 0.0
C482 C 0.52606 0.52106 0.5054 0.0
H483 H 0.4421 0.5202 0.33428 0.0
H484 H 0.4687 0.50199 0.38518 0.0
H485 H 0.51183 0.54886 0.46338 0.0
H486 H 0.57604 0.49893 0.65949 0.0
H487 H 0.54922 0.51665 0.60869 0.0
H488 H 0.50647 0.46948 0.52997 0.0
C489 C 0.46544 0.51926 0.39674 0.0
C490 C 0.51039 0.5316 0.47824 0.0
C491 C 0.4502 0.52978 0.36721 0.0
C492 C 0.56802 0.48917 0.6267 0.0
C493 C 0.55267 0.49942 0.59721 0.0
C494 C 0.50791 0.48674 0.51511 0.0
C495 C 0.47662 0.53102 0.4392 0.0
C496 C 0.49323 0.51987 0.46916 0.0
C497 C 0.54163 0.48748 0.55473 0.0
C498 C 0.52504 0.4985 0.52433 0.0
H499 H 0.45359 0.5815 0.43294 0.0
H500 H 0.4801 0.56306 0.48494 0.0
H501 H 0.47918 0.4878 0.48247 0.0
H502 H 0.56525 0.43736 0.56126 0.0
H503 H 0.53845 0.45534 0.5093 0.0
C504 C 0.11972 0.09639 0.91447 0.0
C505 C 0.12714 0.1166 0.93762 0.0
C506 C 0.11825 0.09292 0.85171 0.0
C507 C 0.13597 0.11327 0.70261 0.0
H508 H 0.08927 0.08686 0.64152 0.0
C509 C 0.12365 0.09253 0.44664 0.0
C510 C 0.10564 0.09826 0.42322 0.0
C511 C 0.12723 0.09368 0.50934 0.0
C512 C 0.10238 0.09432 0.6578 0.0
H513 H 0.13886 0.149 0.91242 0.0
H514 H 0.13626 0.14296 0.80305 0.0
H515 H 0.09379 0.09116 0.75076 0.0
H516 H 0.07752 0.11043 0.44779 0.0
H517 H 0.0837 0.11223 0.55616 0.0
H518 H 0.1443 0.11693 0.60925 0.0
C519 C 0.13182 0.12965 0.83352 0.0
C520 C 0.10507 0.09656 0.7205 0.0
C521 C 0.13328 0.13313 0.89631 0.0
C522 C 0.0914 0.10533 0.46398 0.0
C523 C 0.09496 0.10641 0.52637 0.0
C524 C 0.1333 0.11096 0.63976 0.0
C525 C 0.12417 0.10956 0.81045 0.0
C526 C 0.12181 0.10627 0.74371 0.0
C527 C 0.11286 0.10051 0.54993 0.0
C528 C 0.11636 0.10171 0.61663 0.0
H529 H 0.11521 0.08309 0.94475 0.0
H530 H 0.11257 0.0771 0.83548 0.0
H531 H 0.14912 0.12059 0.71902 0.0
H532 H 0.13488 0.08686 0.41667 0.0
H533 H 0.14115 0.08888 0.52614 0.0
C534 C 0.42588 0.93891 0.46069 0.0
C535 C 0.41512 0.92596 0.41988 0.0
C536 C 0.4228 0.93733 0.52335 0.0
C537 C 0.3886 0.91614 0.63957 0.0
H538 H 0.4332 0.91748 0.74366 0.0
C539 C 0.38735 0.88975 0.89337 0.0
C540 C 0.39679 0.90402 0.93464 0.0
C541 C 0.38909 0.89296 0.83057 0.0
C542 C 0.4206 0.91727 0.71522 0.0
H543 H 0.39256 0.90131 0.41255 0.0
H544 H 0.38738 0.89813 0.52194 0.0
H545 H 0.43686 0.92234 0.63428 0.0
H546 H 0.41534 0.93317 0.94099 0.0
H547 H 0.41867 0.93832 0.83185 0.0
H548 H 0.37245 0.9105 0.72093 0.0
C549 C 0.39793 0.90994 0.50567 0.0
C550 C 0.42266 0.92015 0.65248 0.0
C551 C 0.40089 0.91173 0.4429 0.0
C552 C 0.4081 0.92153 0.91116 0.0
C553 C 0.40998 0.92458 0.84839 0.0
C554 C 0.38657 0.91303 0.70235 0.0
C555 C 0.40902 0.92252 0.54678 0.0
C556 C 0.40669 0.91969 0.61377 0.0
C557 C 0.40047 0.91037 0.80745 0.0
C558 C 0.40255 0.91361 0.74081 0.0
H559 H 0.43676 0.95022 0.44404 0.0
H560 H 0.4313 0.94768 0.55341 0.0
H561 H 0.37594 0.91601 0.6114 0.0
H562 H 0.37874 0.8759 0.90932 0.0
H563 H 0.38178 0.88157 0.80004 0.0
C564 C 0.11151 0.4278 0.60532 0.0
C565 C 0.12294 0.41046 0.58191 0.0
C566 C 0.10901 0.4302 0.66807 0.0
C567 C 0.13012 0.414 0.81635 0.0
H568 H 0.08008 0.42911 0.87847 0.0
C569 C 0.11627 0.43199 0.07163 0.0
C570 C 0.09946 0.42305 0.09643 0.0
C571 C 0.11946 0.43136 0.00879 0.0
C572 C 0.09413 0.42476 0.86191 0.0
H573 H 0.14044 0.38181 0.60606 0.0
H574 H 0.13593 0.38582 0.71545 0.0
H575 H 0.08493 0.42578 0.76918 0.0
H576 H 0.07309 0.40587 0.07472 0.0
H577 H 0.07866 0.40465 0.96569 0.0
H578 H 0.13916 0.41231 0.9093 0.0
C579 C 0.12922 0.39787 0.6854 0.0
C580 C 0.09696 0.42311 0.79917 0.0
C581 C 0.13177 0.39553 0.62267 0.0
C582 C 0.086 0.41333 0.05709 0.0
C583 C 0.0892 0.41264 0.99446 0.0
C584 C 0.12728 0.41561 0.87916 0.0
C585 C 0.11782 0.41525 0.70888 0.0
C586 C 0.11496 0.41759 0.77562 0.0
C587 C 0.10593 0.4217 0.96948 0.0
C588 C 0.1092 0.42085 0.90269 0.0
H589 H 0.10477 0.4398 0.57522 0.0
H590 H 0.10037 0.44398 0.68464 0.0
H591 H 0.14423 0.41 0.7997 0.0
H592 H 0.12681 0.43979 0.10068 0.0
H593 H 0.13241 0.43871 0.99094 0.0
C594 C 0.40519 0.61273 0.05056 0.0
C595 C 0.41541 0.59421 0.07281 0.0
C596 C 0.40284 0.61585 0.98787 0.0
C597 C 0.42247 0.59675 0.83819 0.0
H598 H 0.37716 0.62584 0.77574 0.0
C599 C 0.3812 0.61418 0.59427 0.0
C600 C 0.39705 0.61776 0.55662 0.0
C601 C 0.38345 0.61162 0.65711 0.0
C602 C 0.38982 0.6174 0.79208 0.0
H603 H 0.43066 0.56409 0.04767 0.0
H604 H 0.42579 0.56871 0.93846 0.0
H605 H 0.38033 0.6195 0.88424 0.0
H606 H 0.42762 0.62196 0.5551 0.0
H607 H 0.43162 0.61848 0.66504 0.0
H608 H 0.43148 0.59348 0.7458 0.0
C609 C 0.42018 0.58141 0.96881 0.0
C610 C 0.3918 0.61411 0.8548 0.0
C611 C 0.42285 0.57858 0.03141 0.0
C612 C 0.4152 0.61899 0.58312 0.0
C613 C 0.41745 0.61685 0.64616 0.0
C614 C 0.42034 0.59968 0.7754 0.0
C615 C 0.41035 0.60026 0.94596 0.0
C616 C 0.40817 0.60374 0.87889 0.0
C617 C 0.40161 0.61297 0.68412 0.0
C618 C 0.40399 0.61007 0.75132 0.0
H619 H 0.3996 0.62522 0.08162 0.0
H620 H 0.39553 0.63081 0.97243 0.0
H621 H 0.43547 0.5891 0.85466 0.0
H622 H 0.36707 0.61281 0.57489 0.0
H623 H 0.37093 0.60814 0.68421 0.0
C624 C 0.91463 0.90924 0.09553 0.0
C625 C 0.89638 0.90804 0.06946 0.0
C626 C 0.91684 0.91133 0.15855 0.0
C627 C 0.89229 0.93024 0.2971 0.0
H628 H 0.9294 0.893 0.3801 0.0
C629 C 0.89985 0.9294 0.56029 0.0
C630 C 0.91836 0.92753 0.58442 0.0
C631 C 0.8966 0.92688 0.49773 0.0
C632 C 0.91915 0.90377 0.35765 0.0
H633 H 0.86614 0.9085 0.08909 0.0
H634 H 0.87 0.91219 0.19919 0.0
H635 H 0.92504 0.88913 0.27064 0.0
H636 H 0.94794 0.92151 0.56032 0.0
H637 H 0.94239 0.91806 0.45224 0.0
H638 H 0.88663 0.94523 0.38382 0.0
C639 C 0.88259 0.91147 0.1708 0.0
C640 C 0.91663 0.90148 0.29486 0.0
C641 C 0.88039 0.90913 0.10783 0.0
C642 C 0.93351 0.92333 0.54404 0.0
C643 C 0.93027 0.92098 0.48167 0.0
C644 C 0.89493 0.93269 0.35992 0.0
C645 C 0.90084 0.91251 0.19687 0.0
C646 C 0.90323 0.91475 0.26382 0.0
C647 C 0.91178 0.92253 0.45762 0.0
C648 C 0.90848 0.91957 0.391 0.0
H649 H 0.92722 0.90828 0.06726 0.0
H650 H 0.93109 0.91227 0.17726 0.0
H651 H 0.88197 0.94085 0.27431 0.0
H652 H 0.88783 0.93287 0.58956 0.0
H653 H 0.88213 0.92801 0.481 0.0
C654 C 0.61681 0.09263 0.57055 0.0
C655 C 0.60012 0.10197 0.59513 0.0
C656 C 0.61998 0.09293 0.5077 0.0
C657 C 0.5948 0.09958 0.36049 0.0
H658 H 0.64508 0.11366 0.29861 0.0
C659 C 0.61229 0.09679 0.1038 0.0
C660 C 0.62386 0.11409 0.08083 0.0
C661 C 0.60975 0.09423 0.1665 0.0
C662 C 0.63092 0.10984 0.31516 0.0
H663 H 0.57391 0.11942 0.57298 0.0
H664 H 0.57945 0.12008 0.46389 0.0
H665 H 0.63992 0.11142 0.40815 0.0
H666 H 0.64153 0.14248 0.1057 0.0
H667 H 0.63696 0.13819 0.21494 0.0
H668 H 0.58565 0.09871 0.26767 0.0
C669 C 0.58991 0.11205 0.49287 0.0
C670 C 0.62802 0.10827 0.37795 0.0
C671 C 0.58673 0.11168 0.55553 0.0
C672 C 0.63277 0.12879 0.12195 0.0
C673 C 0.63018 0.12629 0.1846 0.0
C674 C 0.59769 0.10119 0.29776 0.0
C675 C 0.60655 0.10265 0.46813 0.0
C676 C 0.60988 0.10331 0.40136 0.0
C677 C 0.61866 0.10897 0.20766 0.0
C678 C 0.61575 0.1065 0.27434 0.0
H679 H 0.62729 0.0848 0.59981 0.0
H680 H 0.63285 0.08531 0.49004 0.0
H681 H 0.5807 0.09544 0.37697 0.0
H682 H 0.60548 0.08496 0.07341 0.0
H683 H 0.601 0.08051 0.18274 0.0
C684 C 0.88671 0.63498 0.40279 0.0
C685 C 0.8958 0.62033 0.44394 0.0
C686 C 0.88832 0.63174 0.33995 0.0
C687 C 0.91905 0.60621 0.22423 0.0
H688 H 0.87437 0.60914 0.12078 0.0
C689 C 0.92353 0.5838 0.97011 0.0
C690 C 0.91313 0.59708 0.92907 0.0
C691 C 0.92051 0.58565 0.03273 0.0
C692 C 0.88703 0.60853 0.14884 0.0
H693 H 0.91357 0.59048 0.44996 0.0
H694 H 0.91667 0.58528 0.34081 0.0
H695 H 0.87113 0.61493 0.23031 0.0
H696 H 0.89128 0.62259 0.92134 0.0
H697 H 0.88621 0.62623 0.03071 0.0
H698 H 0.93508 0.60036 0.1432 0.0
C699 C 0.90837 0.59933 0.35746 0.0
C700 C 0.88515 0.61181 0.21162 0.0
C701 C 0.90662 0.60242 0.42026 0.0
C702 C 0.89931 0.61191 0.95187 0.0
C703 C 0.89642 0.61397 0.01463 0.0
C704 C 0.92097 0.60316 0.1615 0.0
C705 C 0.8992 0.61392 0.31665 0.0
C706 C 0.90114 0.61061 0.24996 0.0
C707 C 0.90717 0.60108 0.05595 0.0
C708 C 0.90498 0.60419 0.12292 0.0
H709 H 0.87849 0.64914 0.41887 0.0
H710 H 0.88128 0.64342 0.30953 0.0
H711 H 0.93167 0.60552 0.25255 0.0
H712 H 0.9341 0.57203 0.95363 0.0
H713 H 0.92873 0.57505 0.06296 0.0
C714 C 0.60586 0.40236 0.4088 0.0
C715 C 0.62384 0.40422 0.43619 0.0
C716 C 0.60383 0.40484 0.3458 0.0
C717 C 0.60093 0.42248 0.21717 0.0
H718 H 0.64195 0.4048 0.10946 0.0
C719 C 0.59792 0.44288 0.96103 0.0
C720 C 0.60579 0.42739 0.92009 0.0
C721 C 0.60082 0.44053 0.02364 0.0
C722 C 0.63021 0.4096 0.13859 0.0
H723 H 0.6537 0.41072 0.41973 0.0
H724 H 0.65018 0.41601 0.31046 0.0
H725 H 0.64501 0.3985 0.21802 0.0
H726 H 0.62271 0.39718 0.91204 0.0
H727 H 0.62723 0.3924 0.02134 0.0
H728 H 0.58566 0.43236 0.13753 0.0
C729 C 0.63767 0.41176 0.33678 0.0
C730 C 0.63211 0.40633 0.20134 0.0
C731 C 0.63972 0.40883 0.39955 0.0
C732 C 0.61676 0.40955 0.94275 0.0
C733 C 0.61936 0.40689 0.00549 0.0
C734 C 0.59889 0.42538 0.15436 0.0
C735 C 0.6197 0.40972 0.30883 0.0
C736 C 0.61754 0.41283 0.24166 0.0
C737 C 0.61132 0.42228 0.04696 0.0
C738 C 0.61354 0.4191 0.11408 0.0
H739 H 0.59343 0.39861 0.43608 0.0
H740 H 0.58982 0.40266 0.32616 0.0
H741 H 0.58948 0.42806 0.24645 0.0
H742 H 0.58953 0.45687 0.9444 0.0
H743 H 0.5948 0.45308 0.05364 0.0
C744 C 0.08201 0.18059 0.18814 0.0
C745 C 0.09479 0.17001 0.22817 0.0
C746 C 0.07519 0.20232 0.20103 0.0
C747 C 0.07206 0.24481 0.32632 0.0
H748 H 0.07955 0.28877 0.19843 0.0
C749 C 0.09939 0.33371 0.36752 0.0
C750 C 0.09212 0.35173 0.33369 0.0
C751 C 0.09284 0.3119 0.35739 0.0
C752 C 0.07694 0.2767 0.23436 0.0
H753 H 0.10954 0.17321 0.31445 0.0
H754 H 0.0978 0.21049 0.33677 0.0
H755 H 0.08033 0.24873 0.17381 0.0
H756 H 0.07216 0.36141 0.26337 0.0
H757 H 0.0609 0.32284 0.24429 0.0
H758 H 0.07003 0.27276 0.38748 0.0
C759 C 0.09288 0.20234 0.29559 0.0
C760 C 0.07736 0.25372 0.22024 0.0
C761 C 0.0998 0.18096 0.28246 0.0
C762 C 0.07767 0.34775 0.29085 0.0
C763 C 0.07139 0.32574 0.2796 0.0
C764 C 0.07181 0.26771 0.34045 0.0
C765 C 0.0808 0.21355 0.25466 0.0
C766 C 0.07577 0.23751 0.26655 0.0
C767 C 0.07921 0.30754 0.31202 0.0
C768 C 0.07501 0.28387 0.29504 0.0
H769 H 0.07797 0.17253 0.14587 0.0
H770 H 0.06585 0.21048 0.16863 0.0
H771 H 0.07035 0.23278 0.3629 0.0
H772 H 0.11078 0.3364 0.40003 0.0
H773 H 0.09935 0.29824 0.38252 0.0
C774 C 0.42952 0.83998 0.27289 0.0
C775 C 0.43039 0.85167 0.21742 0.0
C776 C 0.43587 0.81782 0.27705 0.0
C777 C 0.43758 0.76808 0.18377 0.0
H778 H 0.46247 0.7413 0.3237 0.0
C779 C 0.43585 0.67278 0.21316 0.0
C780 C 0.43193 0.66493 0.27198 0.0
C781 C 0.44193 0.69486 0.20387 0.0
C782 C 0.45539 0.74844 0.28442 0.0
H783 H 0.4394 0.84977 0.12339 0.0
H784 H 0.45021 0.81055 0.13018 0.0
H785 H 0.46202 0.78213 0.31212 0.0
H786 H 0.43193 0.67346 0.36756 0.0
H787 H 0.44176 0.71239 0.35173 0.0
H788 H 0.42969 0.73489 0.15782 0.0
C789 C 0.44476 0.81872 0.17062 0.0
C790 C 0.45528 0.77186 0.2776 0.0
C791 C 0.43871 0.84116 0.16678 0.0
C792 C 0.43519 0.67909 0.32185 0.0
C793 C 0.44084 0.70144 0.31253 0.0
C794 C 0.43745 0.74475 0.19096 0.0
C795 C 0.44294 0.80666 0.22549 0.0
C796 C 0.44602 0.78194 0.22783 0.0
C797 C 0.44358 0.70988 0.25312 0.0
C798 C 0.446 0.73455 0.24205 0.0
H799 H 0.42318 0.84773 0.31268 0.0
H800 H 0.4341 0.80898 0.31977 0.0
H801 H 0.43004 0.77533 0.14549 0.0
H802 H 0.43338 0.66209 0.174 0.0
H803 H 0.44448 0.70039 0.15766 0.0
C804 C 0.93426 0.84333 0.84013 0.0
C805 C 0.9322 0.85778 0.7902 0.0
C806 C 0.93982 0.82093 0.83121 0.0
C807 C 0.9382 0.77821 0.70793 0.0
H808 H 0.96013 0.73991 0.83215 0.0
C809 C 0.93836 0.68186 0.68134 0.0
C810 C 0.92925 0.67132 0.73049 0.0
C811 C 0.94463 0.70417 0.68669 0.0
C812 C 0.95412 0.75044 0.7968 0.0
H813 H 0.93565 0.86103 0.69285 0.0
H814 H 0.94656 0.82258 0.67745 0.0
H815 H 0.96087 0.78068 0.84505 0.0
H816 H 0.92085 0.67502 0.82483 0.0
H817 H 0.93209 0.71353 0.83453 0.0
H818 H 0.93117 0.74796 0.66032 0.0
C819 C 0.94318 0.82797 0.72324 0.0
C820 C 0.95442 0.77382 0.80434 0.0
C821 C 0.9372 0.85012 0.73204 0.0
C822 C 0.92778 0.6828 0.78614 0.0
C823 C 0.93433 0.70483 0.79182 0.0
C824 C 0.93814 0.75491 0.70009 0.0
C825 C 0.94365 0.8127 0.77219 0.0
C826 C 0.94597 0.78804 0.76078 0.0
C827 C 0.94222 0.71607 0.74163 0.0
C828 C 0.9456 0.74071 0.74518 0.0
H829 H 0.93013 0.84882 0.88526 0.0
H830 H 0.93983 0.80978 0.87011 0.0
H831 H 0.93118 0.78836 0.67375 0.0
H832 H 0.93954 0.67341 0.63785 0.0
H833 H 0.95074 0.71239 0.6473 0.0
C834 C 0.57738 0.17742 0.79642 0.0
C835 C 0.59251 0.17358 0.83691 0.0
C836 C 0.57082 0.19939 0.78604 0.0
C837 C 0.57203 0.25754 0.84623 0.0
H838 H 0.57815 0.27628 0.67833 0.0
C839 C 0.59949 0.34401 0.78322 0.0
C840 C 0.59374 0.35491 0.7296 0.0
C841 C 0.59266 0.32271 0.79765 0.0
C842 C 0.57584 0.27135 0.7252 0.0
H843 H 0.61204 0.18911 0.9003 0.0
H844 H 0.60017 0.22715 0.88435 0.0
H845 H 0.57765 0.23628 0.7034 0.0
H846 H 0.5757 0.3524 0.64998 0.0
H847 H 0.56374 0.3146 0.67501 0.0
H848 H 0.57099 0.29249 0.86857 0.0
C849 C 0.59336 0.21344 0.86034 0.0
C850 C 0.57558 0.2484 0.73956 0.0
C851 C 0.60017 0.19168 0.86953 0.0
C852 C 0.58032 0.34438 0.69169 0.0
C853 C 0.57359 0.32273 0.70587 0.0
C854 C 0.57213 0.28041 0.83188 0.0
C855 C 0.57904 0.21767 0.81709 0.0
C856 C 0.57453 0.24131 0.80054 0.0
C857 C 0.57993 0.31154 0.75871 0.0
C858 C 0.57498 0.28763 0.77156 0.0
H859 H 0.57153 0.16371 0.76991 0.0
H860 H 0.5598 0.20219 0.75238 0.0
H861 H 0.57094 0.25255 0.89353 0.0
H862 H 0.60973 0.35174 0.81361 0.0
H863 H 0.59814 0.31458 0.83814 0.0
loop_
_geom_bond_atom_site_label_1
_geom_bond_atom_site_label_2
_geom_bond_distance
_geom_bond_site_symmetry_2
_ccdc_geom_bond_type
C0 C1 1.351 1_554 S
C0 N3 1.368 . S
C0 H5 0.931 . S
C1 C0 1.351 1_556 S
C1 N2 1.373 . S
C1 H29 0.930 . S
N2 C1 1.373 . S
N2 C4 1.340 . S
N3 C0 1.368 . S
N3 C4 1.321 1_554 S
N3 Co6 2.135 . S
C4 N2 1.340 . S
C4 N3 1.321 1_556 S
C4 H28 0.930 . S
H5 C0 0.931 . S
Co6 N3 2.135 . S
Co6 N9 2.121 . S
Co6 O14 2.055 . S
Co6 O17 2.039 . S
Co6 N20 2.140 . S
C7 O8 1.227 . S
C7 O17 1.265 . S
O8 C7 1.227 . S
N9 Co6 2.121 . S
N9 C11 1.375 . S
N9 C12 1.313 . S
C10 C11 1.338 . S
C10 N13 1.377 . S
C10 H30 0.930 . S
C11 N9 1.375 . S
C11 C10 1.338 . S
C11 H15 0.931 . S
C12 N9 1.313 . S
C12 N13 1.344 . S
C12 H16 0.930 . S
N13 C10 1.377 . S
N13 C12 1.344 . S
O14 Co6 2.055 . S
O14 C18 1.253 . S
H15 C11 0.931 . S
H16 C12 0.930 . S
O17 Co6 2.039 . S
O17 C7 1.265 . S
C18 O14 1.253 . S
C18 O19 1.227 . S
O19 C18 1.227 . S
N20 Co6 2.140 . S
N20 C23 1.346 . S
N20 C24 1.345 . S
C21 C22 1.387 . S
C21 C25 1.391 . S
C22 C21 1.387 . S
C22 C23 1.369 . S
C22 H31 0.929 . S
C23 N20 1.346 . S
C23 C22 1.369 . S
C23 H26 0.928 . S
C24 N20 1.345 . S
C24 C25 1.371 . S
C24 H27 0.931 . S
C25 C21 1.391 . S
C25 C24 1.371 . S
C25 H32 0.930 . S
H26 C23 0.928 . S
H27 C24 0.931 . S
H28 C4 0.930 . S
H29 C1 0.930 . S
H30 C10 0.930 . S
H31 C22 0.929 . S
H32 C25 0.930 . S
C33 C34 1.351 1_554 S
C33 N36 1.368 . S
C33 H38 0.931 . S
C34 C33 1.351 1_556 S
C34 N35 1.373 . S
C34 H62 0.930 . S
N35 C34 1.373 . S
N35 C37 1.340 . S
N36 C33 1.368 . S
N36 C37 1.321 1_554 S
N36 Co39 2.135 . S
C37 N35 1.340 . S
C37 N36 1.321 1_556 S
C37 H61 0.930 . S
H38 C33 0.931 . S
Co39 N36 2.135 . S
Co39 N42 2.121 . S
Co39 O47 2.055 . S
Co39 O50 2.039 . S
Co39 N53 2.140 . S
C40 O41 1.227 . S
C40 O50 1.265 . S
O41 C40 1.227 . S
N42 Co39 2.121 . S
N42 C44 1.375 . S
N42 C45 1.313 . S
C43 C44 1.338 . S
C43 N46 1.377 . S
C43 H63 0.930 . S
C44 N42 1.375 . S
C44 C43 1.338 . S
C44 H48 0.931 . S
C45 N42 1.313 . S
C45 N46 1.344 . S
C45 H49 0.930 . S
N46 C43 1.377 . S
N46 C45 1.344 . S
O47 Co39 2.055 . S
O47 C51 1.253 . S
H48 C44 0.931 . S
H49 C45 0.930 . S
O50 Co39 2.039 . S
O50 C40 1.265 . S
C51 O47 1.253 . S
C51 O52 1.227 . S
O52 C51 1.227 . S
N53 Co39 2.140 . S
N53 C56 1.346 . S
N53 C57 1.345 . S
C54 C55 1.387 . S
C54 C58 1.391 . S
C55 C54 1.387 . S
C55 C56 1.369 . S
C55 H64 0.929 . S
C56 N53 1.346 . S
C56 C55 1.369 . S
C56 H59 0.928 . S
C57 N53 1.345 . S
C57 C58 1.371 . S
C57 H60 0.931 . S
C58 C54 1.391 . S
C58 C57 1.371 . S
C58 H65 0.930 . S
H59 C56 0.928 . S
H60 C57 0.931 . S
H61 C37 0.930 . S
H62 C34 0.930 . S
H63 C43 0.930 . S
H64 C55 0.929 . S
H65 C58 0.930 . S
C66 C67 1.351 . S
C66 N69 1.368 . S
C66 H71 0.931 . S
C67 C66 1.351 . S
C67 N68 1.373 . S
C67 H95 0.930 . S
N68 C67 1.373 . S
N68 C70 1.340 . S
N69 C66 1.368 . S
N69 C70 1.321 . S
N69 Co72 2.135 . S
C70 N68 1.340 . S
C70 N69 1.321 . S
C70 H94 0.930 . S
H71 C66 0.931 . S
Co72 N69 2.135 . S
Co72 N75 2.121 . S
Co72 O80 2.055 . S
Co72 O83 2.039 . S
Co72 N86 2.140 . S
C73 O74 1.227 . S
C73 O83 1.265 . S
O74 C73 1.227 . S
N75 Co72 2.121 . S
N75 C77 1.375 . S
N75 C78 1.313 . S
C76 C77 1.338 . S
C76 N79 1.377 . S
C76 H96 0.930 . S
C77 N75 1.375 . S
C77 C76 1.338 . S
C77 H81 0.931 . S
C78 N75 1.313 . S
C78 N79 1.344 . S
C78 H82 0.930 . S
N79 C76 1.377 . S
N79 C78 1.344 . S
O80 Co72 2.055 . S
O80 C84 1.253 . S
H81 C77 0.931 . S
H82 C78 0.930 . S
O83 Co72 2.039 . S
O83 C73 1.265 . S
C84 O80 1.253 . S
C84 O85 1.227 . S
O85 C84 1.227 . S
N86 Co72 2.140 . S
N86 C89 1.346 . S
N86 C90 1.345 . S
C87 C88 1.387 . S
C87 C91 1.391 . S
C88 C87 1.387 . S
C88 C89 1.369 . S
C88 H97 0.929 . S
C89 N86 1.346 . S
C89 C88 1.369 . S
C89 H92 0.928 . S
C90 N86 1.345 . S
C90 C91 1.371 . S
C90 H93 0.931 . S
C91 C87 1.391 . S
C91 C90 1.371 . S
C91 H98 0.930 . S
H92 C89 0.928 . S
H93 C90 0.931 . S
H94 C70 0.930 . S
H95 C67 0.930 . S
H96 C76 0.930 . S
H97 C88 0.929 . S
H98 C91 0.930 . S
C99 C100 1.351 . S
C99 N102 1.368 . S
C99 H104 0.931 . S
C100 C99 1.351 . S
C100 N101 1.373 . S
C100 H128 0.930 . S
N101 C100 1.373 . S
N101 C103 1.340 . S
N102 C99 1.368 . S
N102 C103 1.321 . S
N102 Co105 2.135 . S
C103 N101 1.340 . S
C103 N102 1.321 . S
C103 H127 0.930 . S
H104 C99 0.931 . S
Co105 N102 2.135 . S
Co105 N108 2.121 . S
Co105 O113 2.055 . S
Co105 O116 2.039 . S
Co105 N119 2.140 . S
C106 O107 1.227 . S
C106 O116 1.265 . S
O107 C106 1.227 . S
N108 Co105 2.121 . S
N108 C110 1.375 . S
N108 C111 1.313 . S
C109 C110 1.338 . S
C109 N112 1.377 . S
C109 H129 0.930 . S
C110 N108 1.375 . S
C110 C109 1.338 . S
C110 H114 0.931 . S
C111 N108 1.313 . S
C111 N112 1.344 . S
C111 H115 0.930 . S
N112 C109 1.377 . S
N112 C111 1.344 . S
O113 Co105 2.055 . S
O113 C117 1.253 . S
H114 C110 0.931 . S
H115 C111 0.930 . S
O116 Co105 2.039 . S
O116 C106 1.265 . S
C117 O113 1.253 . S
C117 O118 1.227 . S
O118 C117 1.227 . S
N119 Co105 2.140 . S
N119 C122 1.346 . S
N119 C123 1.345 . S
C120 C121 1.387 . S
C120 C124 1.391 . S
C121 C120 1.387 . S
C121 C122 1.369 . S
C121 H130 0.929 . S
C122 N119 1.346 . S
C122 C121 1.369 . S
C122 H125 0.928 . S
C123 N119 1.345 . S
C123 C124 1.371 . S
C123 H126 0.931 . S
C124 C120 1.391 . S
C124 C123 1.371 . S
C124 H131 0.930 . S
H125 C122 0.928 . S
H126 C123 0.931 . S
H127 C103 0.930 . S
H128 C100 0.930 . S
H129 C109 0.930 . S
H130 C121 0.929 . S
H131 C124 0.930 . S
C132 C133 1.351 1_556 S
C132 N135 1.368 . S
C132 H137 0.931 . S
C133 C132 1.351 1_554 S
C133 N134 1.373 . S
C133 H161 0.930 . S
N134 C133 1.373 . S
N134 C136 1.340 . S
N135 C132 1.368 . S
N135 C136 1.321 1_556 S
N135 Co138 2.135 . S
C136 N134 1.340 . S
C136 N135 1.321 1_554 S
C136 H160 0.930 . S
H137 C132 0.931 . S
Co138 N135 2.135 . S
Co138 N141 2.121 . S
Co138 O146 2.055 . S
Co138 O149 2.039 . S
Co138 N152 2.140 . S
C139 O140 1.227 . S
C139 O149 1.265 . S
O140 C139 1.227 . S
N141 Co138 2.121 . S
N141 C143 1.375 . S
N141 C144 1.313 . S
C142 C143 1.338 . S
C142 N145 1.377 . S
C142 H162 0.930 . S
C143 N141 1.375 . S
C143 C142 1.338 . S
C143 H147 0.931 . S
C144 N141 1.313 . S
C144 N145 1.344 . S
C144 H148 0.930 . S
N145 C142 1.377 . S
N145 C144 1.344 . S
O146 Co138 2.055 . S
O146 C150 1.253 . S
H147 C143 0.931 . S
H148 C144 0.930 . S
O149 Co138 2.039 . S
O149 C139 1.265 . S
C150 O146 1.253 . S
C150 O151 1.227 . S
O151 C150 1.227 . S
N152 Co138 2.140 . S
N152 C155 1.346 . S
N152 C156 1.345 . S
C153 C154 1.387 . S
C153 C157 1.391 . S
C154 C153 1.387 . S
C154 C155 1.369 . S
C154 H163 0.929 . S
C155 N152 1.346 . S
C155 C154 1.369 . S
C155 H158 0.928 . S
C156 N152 1.345 . S
C156 C157 1.371 . S
C156 H159 0.931 . S
C157 C153 1.391 . S
C157 C156 1.371 . S
C157 H164 0.930 . S
H158 C155 0.928 . S
H159 C156 0.931 . S
H160 C136 0.930 . S
H161 C133 0.930 . S
H162 C142 0.930 . S
H163 C154 0.929 . S
H164 C157 0.930 . S
C165 C166 1.351 1_556 S
C165 N168 1.368 . S
C165 H170 0.931 . S
C166 C165 1.351 1_554 S
C166 N167 1.373 . S
C166 H194 0.930 . S
N167 C166 1.373 . S
N167 C169 1.340 . S
N168 C165 1.368 . S
N168 C169 1.321 1_556 S
N168 Co171 2.135 . S
C169 N167 1.340 . S
C169 N168 1.321 1_554 S
C169 H193 0.930 . S
H170 C165 0.931 . S
Co171 N168 2.135 . S
Co171 N174 2.121 . S
Co171 O179 2.055 . S
Co171 O182 2.039 . S
Co171 N185 2.140 . S
C172 O173 1.227 . S
C172 O182 1.265 . S
O173 C172 1.227 . S
N174 Co171 2.121 . S
N174 C176 1.375 . S
N174 C177 1.313 . S
C175 C176 1.338 . S
C175 N178 1.377 . S
C175 H195 0.930 . S
C176 N174 1.375 . S
C176 C175 1.338 . S
C176 H180 0.931 . S
C177 N174 1.313 . S
C177 N178 1.344 . S
C177 H181 0.930 . S
N178 C175 1.377 . S
N178 C177 1.344 . S
O179 Co171 2.055 . S
O179 C183 1.253 . S
H180 C176 0.931 . S
H181 C177 0.930 . S
O182 Co171 2.039 . S
O182 C172 1.265 . S
C183 O179 1.253 . S
C183 O184 1.227 . S
O184 C183 1.227 . S
N185 Co171 2.140 . S
N185 C188 1.346 . S
N185 C189 1.345 . S
C186 C187 1.387 . S
C186 C190 1.391 . S
C187 C186 1.387 . S
C187 C188 1.369 . S
C187 H196 0.929 . S
C188 N185 1.346 . S
C188 C187 1.369 . S
C188 H191 0.928 . S
C189 N185 1.345 . S
C189 C190 1.371 . S
C189 H192 0.931 . S
C190 C186 1.391 . S
C190 C189 1.371 . S
C190 H197 0.930 . S
H191 C188 0.928 . S
H192 C189 0.931 . S
H193 C169 0.930 . S
H194 C166 0.930 . S
H195 C175 0.930 . S
H196 C187 0.929 . S
H197 C190 0.930 . S
C198 C199 1.351 . S
C198 N201 1.368 . S
C198 H203 0.931 . S
C199 C198 1.351 . S
C199 N200 1.373 . S
C199 H227 0.930 . S
N200 C199 1.373 . S
N200 C202 1.340 . S
N201 C198 1.368 . S
N201 C202 1.321 . S
N201 Co204 2.135 . S
C202 N200 1.340 . S
C202 N201 1.321 . S
C202 H226 0.930 . S
H203 C198 0.931 . S
Co204 N201 2.135 . S
Co204 N207 2.121 . S
Co204 O212 2.055 . S
Co204 O215 2.039 . S
Co204 N218 2.140 . S
C205 O206 1.227 . S
C205 O215 1.265 . S
O206 C205 1.227 . S
N207 Co204 2.121 . S
N207 C209 1.375 . S
N207 C210 1.313 . S
C208 C209 1.338 . S
C208 N211 1.377 . S
C208 H228 0.930 . S
C209 N207 1.375 . S
C209 C208 1.338 . S
C209 H213 0.931 . S
C210 N207 1.313 . S
C210 N211 1.344 . S
C210 H214 0.930 . S
N211 C208 1.377 . S
N211 C210 1.344 . S
O212 Co204 2.055 . S
O212 C216 1.253 . S
H213 C209 0.931 . S
H214 C210 0.930 . S
O215 Co204 2.039 . S
O215 C205 1.265 . S
C216 O212 1.253 . S
C216 O217 1.227 . S
O217 C216 1.227 . S
N218 Co204 2.140 . S
N218 C221 1.346 . S
N218 C222 1.345 . S
C219 C220 1.387 . S
C219 C223 1.391 . S
C220 C219 1.387 . S
C220 C221 1.369 . S
C220 H229 0.929 . S
C221 N218 1.346 . S
C221 C220 1.369 . S
C221 H224 0.928 . S
C222 N218 1.345 . S
C222 C223 1.371 . S
C222 H225 0.931 . S
C223 C219 1.391 . S
C223 C222 1.371 . S
C223 H230 0.930 . S
H224 C221 0.928 . S
H225 C222 0.931 . S
H226 C202 0.930 . S
H227 C199 0.930 . S
H228 C208 0.930 . S
H229 C220 0.929 . S
H230 C223 0.930 . S
C231 C232 1.351 . S
C231 N234 1.368 . S
C231 H236 0.931 . S
C232 C231 1.351 . S
C232 N233 1.373 . S
C232 H260 0.930 . S
N233 C232 1.373 . S
N233 C235 1.340 . S
N234 C231 1.368 . S
N234 C235 1.321 . S
N234 Co237 2.135 . S
C235 N233 1.340 . S
C235 N234 1.321 . S
C235 H259 0.930 . S
H236 C231 0.931 . S
Co237 N234 2.135 . S
Co237 N240 2.121 . S
Co237 O245 2.055 . S
Co237 O248 2.039 . S
Co237 N251 2.140 . S
C238 O239 1.227 . S
C238 O248 1.265 . S
O239 C238 1.227 . S
N240 Co237 2.121 . S
N240 C242 1.375 . S
N240 C243 1.313 . S
C241 C242 1.338 . S
C241 N244 1.377 . S
C241 H261 0.930 . S
C242 N240 1.375 . S
C242 C241 1.338 . S
C242 H246 0.931 . S
C243 N240 1.313 . S
C243 N244 1.344 . S
C243 H247 0.930 . S
N244 C241 1.377 . S
N244 C243 1.344 . S
O245 Co237 2.055 . S
O245 C249 1.253 . S
H246 C242 0.931 . S
H247 C243 0.930 . S
O248 Co237 2.039 . S
O248 C238 1.265 . S
C249 O245 1.253 . S
C249 O250 1.227 . S
O250 C249 1.227 . S
N251 Co237 2.140 . S
N251 C254 1.346 . S
N251 C255 1.345 . S
C252 C253 1.387 . S
C252 C256 1.391 . S
C253 C252 1.387 . S
C253 C254 1.369 . S
C253 H262 0.929 . S
C254 N251 1.346 . S
C254 C253 1.369 . S
C254 H257 0.928 . S
C255 N251 1.345 . S
C255 C256 1.371 . S
C255 H258 0.931 . S
C256 C252 1.391 . S
C256 C255 1.371 . S
C256 H263 0.930 . S
H257 C254 0.928 . S
H258 C255 0.931 . S
H259 C235 0.930 . S
H260 C232 0.930 . S
H261 C241 0.930 . S
H262 C253 0.929 . S
H263 C256 0.930 . S
C264 C265 1.349 . S
C264 C266 1.327 . S
C264 H289 0.950 . S
C265 C264 1.349 . S
C265 C281 1.349 . S
C266 C264 1.327 . S
C266 C285 1.429 . S
C266 H290 0.950 . S
C267 C284 1.574 . S
C267 C286 1.368 1_545 S
C267 H291 0.949 . S
H268 C272 0.949 . S
C269 C270 1.349 . S
C269 C271 1.327 . S
C269 H292 0.950 . S
C270 C269 1.349 . S
C270 C282 1.349 . S
C271 C269 1.327 . S
C271 C287 1.429 . S
C271 H293 0.950 . S
C272 H268 0.949 . S
C272 C280 1.574 . S
C272 C288 1.368 1_565 S
H273 C281 0.950 . S
H274 C279 0.950 . S
H275 C280 0.949 . S
H276 C282 0.950 . S
H277 C283 0.950 . S
H278 C284 0.949 . S
C279 H274 0.950 . S
C279 C281 1.327 . S
C279 C285 1.429 . S
C280 C272 1.574 . S
C280 H275 0.949 . S
C280 C286 1.368 . S
C281 C265 1.349 . S
C281 H273 0.950 . S
C281 C279 1.327 . S
C282 C270 1.349 . S
C282 H276 0.950 . S
C282 C283 1.327 . S
C283 H277 0.950 . S
C283 C282 1.327 . S
C283 C287 1.429 . S
C284 C267 1.574 . S
C284 H278 0.949 . S
C284 C288 1.368 . S
C285 C266 1.429 . S
C285 C279 1.429 . S
C285 C286 1.523 . S
C286 C267 1.368 1_565 S
C286 C280 1.368 . S
C286 C285 1.523 . S
C287 C271 1.429 . S
C287 C283 1.429 . S
C287 C288 1.523 . S
C288 C272 1.368 1_545 S
C288 C284 1.368 . S
C288 C287 1.523 . S
H289 C264 0.950 . S
H290 C266 0.950 . S
H291 C267 0.949 . S
H292 C269 0.950 . S
H293 C271 0.950 . S
C294 C295 1.349 . S
C294 C296 1.327 . S
C294 H319 0.950 . S
C295 C294 1.349 . S
C295 C311 1.349 . S
C296 C294 1.327 . S
C296 C315 1.429 . S
C296 H320 0.950 . S
C297 C314 1.574 . S
C297 C316 1.368 . S
C297 H321 0.949 . S
H298 C302 0.949 . S
C299 C300 1.349 . S
C299 C301 1.327 . S
C299 H322 0.950 . S
C300 C299 1.349 . S
C300 C312 1.349 . S
C301 C299 1.327 . S
C301 C317 1.429 . S
C301 H323 0.950 . S
C302 H298 0.949 . S
C302 C310 1.574 . S
C302 C318 1.368 . S
H303 C311 0.950 . S
H304 C309 0.950 . S
H305 C310 0.949 . S
H306 C312 0.950 . S
H307 C313 0.950 . S
H308 C314 0.949 . S
C309 H304 0.950 . S
C309 C311 1.327 . S
C309 C315 1.429 . S
C310 C302 1.574 . S
C310 H305 0.949 . S
C310 C316 1.368 . S
C311 C295 1.349 . S
C311 H303 0.950 . S
C311 C309 1.327 . S
C312 C300 1.349 . S
C312 H306 0.950 . S
C312 C313 1.327 . S
C313 H307 0.950 . S
C313 C312 1.327 . S
C313 C317 1.429 . S
C314 C297 1.574 . S
C314 H308 0.949 . S
C314 C318 1.368 . S
C315 C296 1.429 . S
C315 C309 1.429 . S
C315 C316 1.523 . S
C316 C297 1.368 . S
C316 C310 1.368 . S
C316 C315 1.523 . S
C317 C301 1.429 . S
C317 C313 1.429 . S
C317 C318 1.523 . S
C318 C302 1.368 . S
C318 C314 1.368 . S
C318 C317 1.523 . S
H319 C294 0.950 . S
H320 C296 0.950 . S
H321 C297 0.949 . S
H322 C299 0.950 . S
H323 C301 0.950 . S
C324 C325 1.349 . S
C324 C326 1.327 . S
C324 H349 0.950 . S
C325 C324 1.349 . S
C325 C341 1.349 . S
C326 C324 1.327 . S
C326 C345 1.429 . S
C326 H350 0.950 . S
C327 C344 1.574 . S
C327 C346 1.368 . S
C327 H351 0.949 . S
H328 C332 0.949 . S
C329 C330 1.349 . S
C329 C331 1.327 . S
C329 H352 0.950 . S
C330 C329 1.349 . S
C330 C342 1.349 . S
C331 C329 1.327 . S
C331 C347 1.429 . S
C331 H353 0.950 . S
C332 H328 0.949 . S
C332 C340 1.574 . S
C332 C348 1.368 . S
H333 C341 0.950 . S
H334 C339 0.950 . S
H335 C340 0.949 . S
H336 C342 0.950 . S
H337 C343 0.950 . S
H338 C344 0.949 . S
C339 H334 0.950 . S
C339 C341 1.327 . S
C339 C345 1.429 . S
C340 C332 1.574 . S
C340 H335 0.949 . S
C340 C346 1.368 1_565 S
C341 C325 1.349 . S
C341 H333 0.950 . S
C341 C339 1.327 . S
C342 C330 1.349 . S
C342 H336 0.950 . S
C342 C343 1.327 . S
C343 H337 0.950 . S
C343 C342 1.327 . S
C343 C347 1.429 . S
C344 C327 1.574 . S
C344 H338 0.949 . S
C344 C348 1.368 1_545 S
C345 C326 1.429 . S
C345 C339 1.429 . S
C345 C346 1.523 . S
C346 C327 1.368 . S
C346 C340 1.368 1_545 S
C346 C345 1.523 . S
C347 C331 1.429 . S
C347 C343 1.429 . S
C347 C348 1.523 . S
C348 C332 1.368 . S
C348 C344 1.368 1_565 S
C348 C347 1.523 . S
H349 C324 0.950 . S
H350 C326 0.950 . S
H351 C327 0.949 . S
H352 C329 0.950 . S
H353 C331 0.950 . S
C354 C355 1.349 . S
C354 C356 1.327 . S
C354 H379 0.950 . S
C355 C354 1.349 . S
C355 C371 1.349 . S
C356 C354 1.327 . S
C356 C375 1.429 . S
C356 H380 0.950 . S
C357 C374 1.574 . S
C357 C376 1.368 . S
C357 H381 0.949 . S
H358 C362 0.949 . S
C359 C360 1.349 . S
C359 C361 1.327 . S
C359 H382 0.950 . S
C360 C359 1.349 . S
C360 C372 1.349 . S
C361 C359 1.327 . S
C361 C377 1.429 . S
C361 H383 0.950 . S
C362 H358 0.949 . S
C362 C370 1.574 . S
C362 C378 1.368 . S
H363 C371 0.950 . S
H364 C369 0.950 . S
H365 C370 0.949 . S
H366 C372 0.950 . S
H367 C373 0.950 . S
H368 C374 0.949 . S
C369 H364 0.950 . S
C369 C371 1.327 . S
C369 C375 1.429 . S
C370 C362 1.574 . S
C370 H365 0.949 . S
C370 C376 1.368 . S
C371 C355 1.349 . S
C371 H363 0.950 . S
C371 C369 1.327 . S
C372 C360 1.349 . S
C372 H366 0.950 . S
C372 C373 1.327 . S
C373 H367 0.950 . S
C373 C372 1.327 . S
C373 C377 1.429 . S
C374 C357 1.574 . S
C374 H368 0.949 . S
C374 C378 1.368 . S
C375 C356 1.429 . S
C375 C369 1.429 . S
C375 C376 1.523 . S
C376 C357 1.368 . S
C376 C370 1.368 . S
C376 C375 1.523 . S
C377 C361 1.429 . S
C377 C373 1.429 . S
C377 C378 1.523 . S
C378 C362 1.368 . S
C378 C374 1.368 . S
C378 C377 1.523 . S
H379 C354 0.950 . S
H380 C356 0.950 . S
H381 C357 0.949 . S
H382 C359 0.950 . S
H383 C361 0.950 . S
C384 C385 1.349 . S
C384 C386 1.327 1_556 S
C384 H409 0.950 1_556 S
C385 C384 1.349 . S
C385 C401 1.349 . S
C386 C384 1.327 1_554 S
C386 C405 1.429 1_554 S
C386 H410 0.950 . S
C387 C404 1.574 1_665 S
C387 C406 1.368 . S
C387 H411 0.949 . S
H388 C392 0.949 . S
C389 C390 1.349 . S
C389 C391 1.327 1_554 S
C389 H412 0.950 1_554 S
C390 C389 1.349 . S
C390 C402 1.349 . S
C391 C389 1.327 1_556 S
C391 C407 1.429 1_556 S
C391 H413 0.950 . S
C392 H388 0.949 . S
C392 C400 1.574 1_445 S
C392 C408 1.368 . S
H393 C401 0.950 . S
H394 C399 0.950 . S
H395 C400 0.949 . S
H396 C402 0.950 . S
H397 C403 0.950 . S
H398 C404 0.949 . S
C399 H394 0.950 . S
C399 C401 1.327 . S
C399 C405 1.429 . S
C400 C392 1.574 1_665 S
C400 H395 0.949 . S
C400 C406 1.368 1_554 S
C401 C385 1.349 . S
C401 H393 0.950 . S
C401 C399 1.327 . S
C402 C390 1.349 . S
C402 H396 0.950 . S
C402 C403 1.327 . S
C403 H397 0.950 . S
C403 C402 1.327 . S
C403 C407 1.429 . S
C404 C387 1.574 1_445 S
C404 H398 0.949 . S
C404 C408 1.368 1_556 S
C405 C386 1.429 1_556 S
C405 C399 1.429 . S
C405 C406 1.523 . S
C406 C387 1.368 . S
C406 C400 1.368 1_556 S
C406 C405 1.523 . S
C407 C391 1.429 1_554 S
C407 C403 1.429 . S
C407 C408 1.523 . S
C408 C392 1.368 . S
C408 C404 1.368 1_554 S
C408 C407 1.523 . S
H409 C384 0.950 1_554 S
H410 C386 0.950 . S
H411 C387 0.949 . S
H412 C389 0.950 1_556 S
H413 C391 0.950 . S
C414 C415 1.349 . S
C414 C416 1.327 1_554 S
C414 H439 0.950 1_554 S
C415 C414 1.349 . S
C415 C431 1.349 . S
C416 C414 1.327 1_556 S
C416 C435 1.429 1_556 S
C416 H440 0.950 . S
C417 C434 1.574 1_565 S
C417 C436 1.368 . S
C417 H441 0.949 . S
H418 C422 0.949 . S
C419 C420 1.349 . S
C419 C421 1.327 1_556 S
C419 H442 0.950 1_556 S
C420 C419 1.349 . S
C420 C432 1.349 . S
C421 C419 1.327 1_554 S
C421 C437 1.429 1_554 S
C421 H443 0.950 . S
C422 H418 0.949 . S
C422 C430 1.574 1_545 S
C422 C438 1.368 . S
H423 C431 0.950 . S
H424 C429 0.950 . S
H425 C430 0.949 . S
H426 C432 0.950 . S
H427 C433 0.950 . S
H428 C434 0.949 . S
C429 H424 0.950 . S
C429 C431 1.327 . S
C429 C435 1.429 . S
C430 C422 1.574 1_565 S
C430 H425 0.949 . S
C430 C436 1.368 1_556 S
C431 C415 1.349 . S
C431 H423 0.950 . S
C431 C429 1.327 . S
C432 C420 1.349 . S
C432 H426 0.950 . S
C432 C433 1.327 . S
C433 H427 0.950 . S
C433 C432 1.327 . S
C433 C437 1.429 . S
C434 C417 1.574 1_545 S
C434 H428 0.949 . S
C434 C438 1.368 1_554 S
C435 C416 1.429 1_554 S
C435 C429 1.429 . S
C435 C436 1.523 . S
C436 C417 1.368 . S
C436 C430 1.368 1_554 S
C436 C435 1.523 . S
C437 C421 1.429 1_556 S
C437 C433 1.429 . S
C437 C438 1.523 . S
C438 C422 1.368 . S
C438 C434 1.368 1_556 S
C438 C437 1.523 . S
H439 C414 0.950 1_556 S
H440 C416 0.950 . S
H441 C417 0.949 . S
H442 C419 0.950 1_554 S
H443 C421 0.950 . S
C444 C445 1.349 . S
C444 C446 1.327 . S
C444 H469 0.950 . S
C445 C444 1.349 . S
C445 C461 1.349 . S
C446 C444 1.327 . S
C446 C465 1.429 . S
C446 H470 0.950 . S
C447 C464 1.574 1_455 S
C447 C466 1.368 . S
C447 H471 0.949 . S
H448 C452 0.949 . S
C449 C450 1.349 . S
C449 C451 1.327 . S
C449 H472 0.950 . S
C450 C449 1.349 . S
C450 C462 1.349 . S
C451 C449 1.327 . S
C451 C467 1.429 . S
C451 H473 0.950 . S
C452 H448 0.949 . S
C452 C460 1.574 1_655 S
C452 C468 1.368 . S
H453 C461 0.950 . S
H454 C459 0.950 . S
H455 C460 0.949 . S
H456 C462 0.950 . S
H457 C463 0.950 . S
H458 C464 0.949 . S
C459 H454 0.950 . S
C459 C461 1.327 . S
C459 C465 1.429 . S
C460 C452 1.574 1_455 S
C460 H455 0.949 . S
C460 C466 1.368 . S
C461 C445 1.349 . S
C461 H453 0.950 . S
C461 C459 1.327 . S
C462 C450 1.349 . S
C462 H456 0.950 . S
C462 C463 1.327 . S
C463 H457 0.950 . S
C463 C462 1.327 . S
C463 C467 1.429 . S
C464 C447 1.574 1_655 S
C464 H458 0.949 . S
C464 C468 1.368 . S
C465 C446 1.429 . S
C465 C459 1.429 . S
C465 C466 1.523 . S
C466 C447 1.368 . S
C466 C460 1.368 . S
C466 C465 1.523 . S
C467 C451 1.429 . S
C467 C463 1.429 . S
C467 C468 1.523 . S
C468 C452 1.368 . S
C468 C464 1.368 . S
C468 C467 1.523 . S
H469 C444 0.950 . S
H470 C446 0.950 . S
H471 C447 0.949 . S
H472 C449 0.950 . S
H473 C451 0.950 . S
C474 C475 1.349 . S
C474 C476 1.327 . S
C474 H499 0.950 . S
C475 C474 1.349 . S
C475 C491 1.349 . S
C476 C474 1.327 . S
C476 C495 1.429 . S
C476 H500 0.950 . S
C477 C494 1.574 . S
C477 C496 1.368 . S
C477 H501 0.949 . S
H478 C482 0.949 . S
C479 C480 1.349 . S
C479 C481 1.327 . S
C479 H502 0.950 . S
C480 C479 1.349 . S
C480 C492 1.349 . S
C481 C479 1.327 . S
C481 C497 1.429 . S
C481 H503 0.950 . S
C482 H478 0.949 . S
C482 C490 1.574 . S
C482 C498 1.368 . S
H483 C491 0.950 . S
H484 C489 0.950 . S
H485 C490 0.949 . S
H486 C492 0.950 . S
H487 C493 0.950 . S
H488 C494 0.949 . S
C489 H484 0.950 . S
C489 C491 1.327 . S
C489 C495 1.429 . S
C490 C482 1.574 . S
C490 H485 0.949 . S
C490 C496 1.368 . S
C491 C475 1.349 . S
C491 H483 0.950 . S
C491 C489 1.327 . S
C492 C480 1.349 . S
C492 H486 0.950 . S
C492 C493 1.327 . S
C493 H487 0.950 . S
C493 C492 1.327 . S
C493 C497 1.429 . S
C494 C477 1.574 . S
C494 H488 0.949 . S
C494 C498 1.368 . S
C495 C476 1.429 . S
C495 C489 1.429 . S
C495 C496 1.523 . S
C496 C477 1.368 . S
C496 C490 1.368 . S
C496 C495 1.523 . S
C497 C481 1.429 . S
C497 C493 1.429 . S
C497 C498 1.523 . S
C498 C482 1.368 . S
C498 C494 1.368 . S
C498 C497 1.523 . S
H499 C474 0.950 . S
H500 C476 0.950 . S
H501 C477 0.949 . S
H502 C479 0.950 . S
H503 C481 0.950 . S
C504 C505 1.349 . S
C504 C506 1.327 . S
C504 H529 0.950 . S
C505 C504 1.349 . S
C505 C521 1.349 . S
C506 C504 1.327 . S
C506 C525 1.429 . S
C506 H530 0.950 . S
C507 C524 1.574 . S
C507 C526 1.368 . S
C507 H531 0.949 . S
H508 C512 0.949 . S
C509 C510 1.349 . S
C509 C511 1.327 . S
C509 H532 0.950 . S
C510 C509 1.349 . S
C510 C522 1.349 . S
C511 C509 1.327 . S
C511 C527 1.429 . S
C511 H533 0.950 . S
C512 H508 0.949 . S
C512 C520 1.574 . S
C512 C528 1.368 . S
H513 C521 0.950 . S
H514 C519 0.950 . S
H515 C520 0.949 . S
H516 C522 0.950 . S
H517 C523 0.950 . S
H518 C524 0.949 . S
C519 H514 0.950 . S
C519 C521 1.327 . S
C519 C525 1.429 . S
C520 C512 1.574 . S
C520 H515 0.949 . S
C520 C526 1.368 . S
C521 C505 1.349 . S
C521 H513 0.950 . S
C521 C519 1.327 . S
C522 C510 1.349 . S
C522 H516 0.950 . S
C522 C523 1.327 . S
C523 H517 0.950 . S
C523 C522 1.327 . S
C523 C527 1.429 . S
C524 C507 1.574 . S
C524 H518 0.949 . S
C524 C528 1.368 . S
C525 C506 1.429 . S
C525 C519 1.429 . S
C525 C526 1.523 . S
C526 C507 1.368 . S
C526 C520 1.368 . S
C526 C525 1.523 . S
C527 C511 1.429 . S
C527 C523 1.429 . S
C527 C528 1.523 . S
C528 C512 1.368 . S
C528 C524 1.368 . S
C528 C527 1.523 . S
H529 C504 0.950 . S
H530 C506 0.950 . S
H531 C507 0.949 . S
H532 C509 0.950 . S
H533 C511 0.950 . S
C534 C535 1.349 . S
C534 C536 1.327 . S
C534 H559 0.950 . S
C535 C534 1.349 . S
C535 C551 1.349 . S
C536 C534 1.327 . S
C536 C555 1.429 . S
C536 H560 0.950 . S
C537 C554 1.574 . S
C537 C556 1.368 . S
C537 H561 0.949 . S
H538 C542 0.949 . S
C539 C540 1.349 . S
C539 C541 1.327 . S
C539 H562 0.950 . S
C540 C539 1.349 . S
C540 C552 1.349 . S
C541 C539 1.327 . S
C541 C557 1.429 . S
C541 H563 0.950 . S
C542 H538 0.949 . S
C542 C550 1.574 . S
C542 C558 1.368 . S
H543 C551 0.950 . S
H544 C549 0.950 . S
H545 C550 0.949 . S
H546 C552 0.950 . S
H547 C553 0.950 . S
H548 C554 0.949 . S
C549 H544 0.950 . S
C549 C551 1.327 . S
C549 C555 1.429 . S
C550 C542 1.574 . S
C550 H545 0.949 . S
C550 C556 1.368 . S
C551 C535 1.349 . S
C551 H543 0.950 . S
C551 C549 1.327 . S
C552 C540 1.349 . S
C552 H546 0.950 . S
C552 C553 1.327 . S
C553 H547 0.950 . S
C553 C552 1.327 . S
C553 C557 1.429 . S
C554 C537 1.574 . S
C554 H548 0.949 . S
C554 C558 1.368 . S
C555 C536 1.429 . S
C555 C549 1.429 . S
C555 C556 1.523 . S
C556 C537 1.368 . S
C556 C550 1.368 . S
C556 C555 1.523 . S
C557 C541 1.429 . S
C557 C553 1.429 . S
C557 C558 1.523 . S
C558 C542 1.368 . S
C558 C554 1.368 . S
C558 C557 1.523 . S
H559 C534 0.950 . S
H560 C536 0.950 . S
H561 C537 0.949 . S
H562 C539 0.950 . S
H563 C541 0.950 . S
C564 C565 1.349 . S
C564 C566 1.327 . S
C564 H589 0.950 . S
C565 C564 1.349 . S
C565 C581 1.349 . S
C566 C564 1.327 . S
C566 C585 1.429 . S
C566 H590 0.950 . S
C567 C584 1.574 . S
C567 C586 1.368 . S
C567 H591 0.949 . S
H568 C572 0.949 . S
C569 C570 1.349 . S
C569 C571 1.327 . S
C569 H592 0.950 . S
C570 C569 1.349 . S
C570 C582 1.349 . S
C571 C569 1.327 . S
C571 C587 1.429 . S
C571 H593 0.950 . S
C572 H568 0.949 . S
C572 C580 1.574 . S
C572 C588 1.368 . S
H573 C581 0.950 . S
H574 C579 0.950 . S
H575 C580 0.949 . S
H576 C582 0.950 . S
H577 C583 0.950 . S
H578 C584 0.949 . S
C579 H574 0.950 . S
C579 C581 1.327 . S
C579 C585 1.429 . S
C580 C572 1.574 . S
C580 H575 0.949 . S
C580 C586 1.368 . S
C581 C565 1.349 . S
C581 H573 0.950 . S
C581 C579 1.327 . S
C582 C570 1.349 . S
C582 H576 0.950 . S
C582 C583 1.327 . S
C583 H577 0.950 . S
C583 C582 1.327 . S
C583 C587 1.429 . S
C584 C567 1.574 . S
C584 H578 0.949 . S
C584 C588 1.368 . S
C585 C566 1.429 . S
C585 C579 1.429 . S
C585 C586 1.523 . S
C586 C567 1.368 . S
C586 C580 1.368 . S
C586 C585 1.523 . S
C587 C571 1.429 . S
C587 C583 1.429 . S
C587 C588 1.523 1_554 S
C588 C572 1.368 . S
C588 C584 1.368 . S
C588 C587 1.523 1_556 S
H589 C564 0.950 . S
H590 C566 0.950 . S
H591 C567 0.949 . S
H592 C569 0.950 . S
H593 C571 0.950 . S
C594 C595 1.349 . S
C594 C596 1.327 . S
C594 H619 0.950 . S
C595 C594 1.349 . S
C595 C611 1.349 . S
C596 C594 1.327 . S
C596 C615 1.429 . S
C596 H620 0.950 . S
C597 C614 1.574 . S
C597 C616 1.368 . S
C597 H621 0.949 . S
H598 C602 0.949 . S
C599 C600 1.349 . S
C599 C601 1.327 . S
C599 H622 0.950 . S
C600 C599 1.349 . S
C600 C612 1.349 . S
C601 C599 1.327 . S
C601 C617 1.429 . S
C601 H623 0.950 . S
C602 H598 0.949 . S
C602 C610 1.574 . S
C602 C618 1.368 . S
H603 C611 0.950 . S
H604 C609 0.950 . S
H605 C610 0.949 . S
H606 C612 0.950 . S
H607 C613 0.950 . S
H608 C614 0.949 . S
C609 H604 0.950 . S
C609 C611 1.327 . S
C609 C615 1.429 . S
C610 C602 1.574 . S
C610 H605 0.949 . S
C610 C616 1.368 . S
C611 C595 1.349 . S
C611 H603 0.950 . S
C611 C609 1.327 . S
C612 C600 1.349 . S
C612 H606 0.950 . S
C612 C613 1.327 . S
C613 H607 0.950 . S
C613 C612 1.327 . S
C613 C617 1.429 . S
C614 C597 1.574 . S
C614 H608 0.949 . S
C614 C618 1.368 . S
C615 C596 1.429 . S
C615 C609 1.429 . S
C615 C616 1.523 1_554 S
C616 C597 1.368 . S
C616 C610 1.368 . S
C616 C615 1.523 1_556 S
C617 C601 1.429 . S
C617 C613 1.429 . S
C617 C618 1.523 . S
C618 C602 1.368 . S
C618 C614 1.368 . S
C618 C617 1.523 . S
H619 C594 0.950 . S
H620 C596 0.950 . S
H621 C597 0.949 . S
H622 C599 0.950 . S
H623 C601 0.950 . S
C624 C625 1.349 . S
C624 C626 1.327 . S
C624 H649 0.950 . S
C625 C624 1.349 . S
C625 C641 1.349 . S
C626 C624 1.327 . S
C626 C645 1.429 . S
C626 H650 0.950 . S
C627 C644 1.574 . S
C627 C646 1.368 . S
C627 H651 0.949 . S
H628 C632 0.949 . S
C629 C630 1.349 . S
C629 C631 1.327 . S
C629 H652 0.950 . S
C630 C629 1.349 . S
C630 C642 1.349 . S
C631 C629 1.327 . S
C631 C647 1.429 . S
C631 H653 0.950 . S
C632 H628 0.949 . S
C632 C640 1.574 . S
C632 C648 1.368 . S
H633 C641 0.950 . S
H634 C639 0.950 . S
H635 C640 0.949 . S
H636 C642 0.950 . S
H637 C643 0.950 . S
H638 C644 0.949 . S
C639 H634 0.950 . S
C639 C641 1.327 . S
C639 C645 1.429 . S
C640 C632 1.574 . S
C640 H635 0.949 . S
C640 C646 1.368 . S
C641 C625 1.349 . S
C641 H633 0.950 . S
C641 C639 1.327 . S
C642 C630 1.349 . S
C642 H636 0.950 . S
C642 C643 1.327 . S
C643 H637 0.950 . S
C643 C642 1.327 . S
C643 C647 1.429 . S
C644 C627 1.574 . S
C644 H638 0.949 . S
C644 C648 1.368 . S
C645 C626 1.429 . S
C645 C639 1.429 . S
C645 C646 1.523 . S
C646 C627 1.368 . S
C646 C640 1.368 . S
C646 C645 1.523 . S
C647 C631 1.429 . S
C647 C643 1.429 . S
C647 C648 1.523 . S
C648 C632 1.368 . S
C648 C644 1.368 . S
C648 C647 1.523 . S
H649 C624 0.950 . S
H650 C626 0.950 . S
H651 C627 0.949 . S
H652 C629 0.950 . S
H653 C631 0.950 . S
C654 C655 1.349 . S
C654 C656 1.327 . S
C654 H679 0.950 . S
C655 C654 1.349 . S
C655 C671 1.349 . S
C656 C654 1.327 . S
C656 C675 1.429 . S
C656 H680 0.950 . S
C657 C674 1.574 . S
C657 C676 1.368 . S
C657 H681 0.949 . S
H658 C662 0.949 . S
C659 C660 1.349 . S
C659 C661 1.327 . S
C659 H682 0.950 . S
C660 C659 1.349 . S
C660 C672 1.349 . S
C661 C659 1.327 . S
C661 C677 1.429 . S
C661 H683 0.950 . S
C662 H658 0.949 . S
C662 C670 1.574 . S
C662 C678 1.368 . S
H663 C671 0.950 . S
H664 C669 0.950 . S
H665 C670 0.949 . S
H666 C672 0.950 . S
H667 C673 0.950 . S
H668 C674 0.949 . S
C669 H664 0.950 . S
C669 C671 1.327 . S
C669 C675 1.429 . S
C670 C662 1.574 . S
C670 H665 0.949 . S
C670 C676 1.368 . S
C671 C655 1.349 . S
C671 H663 0.950 . S
C671 C669 1.327 . S
C672 C660 1.349 . S
C672 H666 0.950 . S
C672 C673 1.327 . S
C673 H667 0.950 . S
C673 C672 1.327 . S
C673 C677 1.429 . S
C674 C657 1.574 . S
C674 H668 0.949 . S
C674 C678 1.368 . S
C675 C656 1.429 . S
C675 C669 1.429 . S
C675 C676 1.523 . S
C676 C657 1.368 . S
C676 C670 1.368 . S
C676 C675 1.523 . S
C677 C661 1.429 . S
C677 C673 1.429 . S
C677 C678 1.523 . S
C678 C662 1.368 . S
C678 C674 1.368 . S
C678 C677 1.523 . S
H679 C654 0.950 . S
H680 C656 0.950 . S
H681 C657 0.949 . S
H682 C659 0.950 . S
H683 C661 0.950 . S
C684 C685 1.349 . S
C684 C686 1.327 . S
C684 H709 0.950 . S
C685 C684 1.349 . S
C685 C701 1.349 . S
C686 C684 1.327 . S
C686 C705 1.429 . S
C686 H710 0.950 . S
C687 C704 1.574 . S
C687 C706 1.368 . S
C687 H711 0.949 . S
H688 C692 0.949 . S
C689 C690 1.349 . S
C689 C691 1.327 . S
C689 H712 0.950 . S
C690 C689 1.349 . S
C690 C702 1.349 . S
C691 C689 1.327 . S
C691 C707 1.429 . S
C691 H713 0.950 . S
C692 H688 0.949 . S
C692 C700 1.574 . S
C692 C708 1.368 . S
H693 C701 0.950 . S
H694 C699 0.950 . S
H695 C700 0.949 . S
H696 C702 0.950 . S
H697 C703 0.950 . S
H698 C704 0.949 . S
C699 H694 0.950 . S
C699 C701 1.327 . S
C699 C705 1.429 . S
C700 C692 1.574 . S
C700 H695 0.949 . S
C700 C706 1.368 . S
C701 C685 1.349 . S
C701 H693 0.950 . S
C701 C699 1.327 . S
C702 C690 1.349 . S
C702 H696 0.950 . S
C702 C703 1.327 . S
C703 H697 0.950 . S
C703 C702 1.327 . S
C703 C707 1.429 . S
C704 C687 1.574 . S
C704 H698 0.949 . S
C704 C708 1.368 . S
C705 C686 1.429 . S
C705 C699 1.429 . S
C705 C706 1.523 . S
C706 C687 1.368 . S
C706 C700 1.368 . S
C706 C705 1.523 . S
C707 C691 1.429 . S
C707 C703 1.429 . S
C707 C708 1.523 1_556 S
C708 C692 1.368 . S
C708 C704 1.368 . S
C708 C707 1.523 1_554 S
H709 C684 0.950 . S
H710 C686 0.950 . S
H711 C687 0.949 . S
H712 C689 0.950 . S
H713 C691 0.950 . S
C714 C715 1.349 . S
C714 C716 1.327 . S
C714 H739 0.950 . S
C715 C714 1.349 . S
C715 C731 1.349 . S
C716 C714 1.327 . S
C716 C735 1.429 . S
C716 H740 0.950 . S
C717 C734 1.574 . S
C717 C736 1.368 . S
C717 H741 0.949 . S
H718 C722 0.949 . S
C719 C720 1.349 . S
C719 C721 1.327 . S
C719 H742 0.950 . S
C720 C719 1.349 . S
C720 C732 1.349 . S
C721 C719 1.327 . S
C721 C737 1.429 . S
C721 H743 0.950 . S
C722 H718 0.949 . S
C722 C730 1.574 . S
C722 C738 1.368 . S
H723 C731 0.950 . S
H724 C729 0.950 . S
H725 C730 0.949 . S
H726 C732 0.950 . S
H727 C733 0.950 . S
H728 C734 0.949 . S
C729 H724 0.950 . S
C729 C731 1.327 . S
C729 C735 1.429 . S
C730 C722 1.574 . S
C730 H725 0.949 . S
C730 C736 1.368 . S
C731 C715 1.349 . S
C731 H723 0.950 . S
C731 C729 1.327 . S
C732 C720 1.349 . S
C732 H726 0.950 . S
C732 C733 1.327 . S
C733 H727 0.950 . S
C733 C732 1.327 . S
C733 C737 1.429 . S
C734 C717 1.574 . S
C734 H728 0.949 . S
C734 C738 1.368 . S
C735 C716 1.429 . S
C735 C729 1.429 . S
C735 C736 1.523 . S
C736 C717 1.368 . S
C736 C730 1.368 . S
C736 C735 1.523 . S
C737 C721 1.429 . S
C737 C733 1.429 . S
C737 C738 1.523 1_556 S
C738 C722 1.368 . S
C738 C734 1.368 . S
C738 C737 1.523 1_554 S
H739 C714 0.950 . S
H740 C716 0.950 . S
H741 C717 0.949 . S
H742 C719 0.950 . S
H743 C721 0.950 . S
C744 C745 1.349 . S
C744 C746 1.327 . S
C744 H769 0.950 . S
C745 C744 1.349 . S
C745 C761 1.349 . S
C746 C744 1.327 . S
C746 C765 1.429 . S
C746 H770 0.950 . S
C747 C764 1.574 . S
C747 C766 1.368 . S
C747 H771 0.949 . S
H748 C752 0.949 . S
C749 C750 1.349 . S
C749 C751 1.327 . S
C749 H772 0.950 . S
C750 C749 1.349 . S
C750 C762 1.349 . S
C751 C749 1.327 . S
C751 C767 1.429 . S
C751 H773 0.950 . S
C752 H748 0.949 . S
C752 C760 1.574 . S
C752 C768 1.368 . S
H753 C761 0.950 . S
H754 C759 0.950 . S
H755 C760 0.949 . S
H756 C762 0.950 . S
H757 C763 0.950 . S
H758 C764 0.949 . S
C759 H754 0.950 . S
C759 C761 1.327 . S
C759 C765 1.429 . S
C760 C752 1.574 . S
C760 H755 0.949 . S
C760 C766 1.368 . S
C761 C745 1.349 . S
C761 H753 0.950 . S
C761 C759 1.327 . S
C762 C750 1.349 . S
C762 H756 0.950 . S
C762 C763 1.327 . S
C763 H757 0.950 . S
C763 C762 1.327 . S
C763 C767 1.429 . S
C764 C747 1.574 . S
C764 H758 0.949 . S
C764 C768 1.368 . S
C765 C746 1.429 . S
C765 C759 1.429 . S
C765 C766 1.523 . S
C766 C747 1.368 . S
C766 C760 1.368 . S
C766 C765 1.523 . S
C767 C751 1.429 . S
C767 C763 1.429 . S
C767 C768 1.523 . S
C768 C752 1.368 . S
C768 C764 1.368 . S
C768 C767 1.523 . S
H769 C744 0.950 . S
H770 C746 0.950 . S
H771 C747 0.949 . S
H772 C749 0.950 . S
H773 C751 0.950 . S
C774 C775 1.349 . S
C774 C776 1.327 . S
C774 H799 0.950 . S
C775 C774 1.349 . S
C775 C791 1.349 . S
C776 C774 1.327 . S
C776 C795 1.429 . S
C776 H800 0.950 . S
C777 C794 1.574 . S
C777 C796 1.368 . S
C777 H801 0.949 . S
H778 C782 0.949 . S
C779 C780 1.349 . S
C779 C781 1.327 . S
C779 H802 0.950 . S
C780 C779 1.349 . S
C780 C792 1.349 . S
C781 C779 1.327 . S
C781 C797 1.429 . S
C781 H803 0.950 . S
C782 H778 0.949 . S
C782 C790 1.574 . S
C782 C798 1.368 . S
H783 C791 0.950 . S
H784 C789 0.950 . S
H785 C790 0.949 . S
H786 C792 0.950 . S
H787 C793 0.950 . S
H788 C794 0.949 . S
C789 H784 0.950 . S
C789 C791 1.327 . S
C789 C795 1.429 . S
C790 C782 1.574 . S
C790 H785 0.949 . S
C790 C796 1.368 . S
C791 C775 1.349 . S
C791 H783 0.950 . S
C791 C789 1.327 . S
C792 C780 1.349 . S
C792 H786 0.950 . S
C792 C793 1.327 . S
C793 H787 0.950 . S
C793 C792 1.327 . S
C793 C797 1.429 . S
C794 C777 1.574 . S
C794 H788 0.949 . S
C794 C798 1.368 . S
C795 C776 1.429 . S
C795 C789 1.429 . S
C795 C796 1.523 . S
C796 C777 1.368 . S
C796 C790 1.368 . S
C796 C795 1.523 . S
C797 C781 1.429 . S
C797 C793 1.429 . S
C797 C798 1.523 . S
C798 C782 1.368 . S
C798 C794 1.368 . S
C798 C797 1.523 . S
H799 C774 0.950 . S
H800 C776 0.950 . S
H801 C777 0.949 . S
H802 C779 0.950 . S
H803 C781 0.950 . S
C804 C805 1.349 . S
C804 C806 1.327 . S
C804 H829 0.950 . S
C805 C804 1.349 . S
C805 C821 1.349 . S
C806 C804 1.327 . S
C806 C825 1.429 . S
C806 H830 0.950 . S
C807 C824 1.574 . S
C807 C826 1.368 . S
C807 H831 0.949 . S
H808 C812 0.949 . S
C809 C810 1.349 . S
C809 C811 1.327 . S
C809 H832 0.950 . S
C810 C809 1.349 . S
C810 C822 1.349 . S
C811 C809 1.327 . S
C811 C827 1.429 . S
C811 H833 0.950 . S
C812 H808 0.949 . S
C812 C820 1.574 . S
C812 C828 1.368 . S
H813 C821 0.950 . S
H814 C819 0.950 . S
H815 C820 0.949 . S
H816 C822 0.950 . S
H817 C823 0.950 . S
H818 C824 0.949 . S
C819 H814 0.950 . S
C819 C821 1.327 . S
C819 C825 1.429 . S
C820 C812 1.574 . S
C820 H815 0.949 . S
C820 C826 1.368 . S
C821 C805 1.349 . S
C821 H813 0.950 . S
C821 C819 1.327 . S
C822 C810 1.349 . S
C822 H816 0.950 . S
C822 C823 1.327 . S
C823 H817 0.950 . S
C823 C822 1.327 . S
C823 C827 1.429 . S
C824 C807 1.574 . S
C824 H818 0.949 . S
C824 C828 1.368 . S
C825 C806 1.429 . S
C825 C819 1.429 . S
C825 C826 1.523 . S
C826 C807 1.368 . S
C826 C820 1.368 . S
C826 C825 1.523 . S
C827 C811 1.429 . S
C827 C823 1.429 . S
C827 C828 1.523 . S
C828 C812 1.368 . S
C828 C824 1.368 . S
C828 C827 1.523 . S
H829 C804 0.950 . S
H830 C806 0.950 . S
H831 C807 0.949 . S
H832 C809 0.950 . S
H833 C811 0.950 . S
C834 C835 1.349 . S
C834 C836 1.327 . S
C834 H859 0.950 . S
C835 C834 1.349 . S
C835 C851 1.349 . S
C836 C834 1.327 . S
C836 C855 1.429 . S
C836 H860 0.950 . S
C837 C854 1.574 . S
C837 C856 1.368 . S
C837 H861 0.949 . S
H838 C842 0.949 . S
C839 C840 1.349 . S
C839 C841 1.327 . S
C839 H862 0.950 . S
C840 C839 1.349 . S
C840 C852 1.349 . S
C841 C839 1.327 . S
C841 C857 1.429 . S
C841 H863 0.950 . S
C842 H838 0.949 . S
C842 C850 1.574 . S
C842 C858 1.368 . S
H843 C851 0.950 . S
H844 C849 0.950 . S
H845 C850 0.949 . S
H846 C852 0.950 . S
H847 C853 0.950 . S
H848 C854 0.949 . S
C849 H844 0.950 . S
C849 C851 1.327 . S
C849 C855 1.429 . S
C850 C842 1.574 . S
C850 H845 0.949 . S
C850 C856 1.368 . S
C851 C835 1.349 . S
C851 H843 0.950 . S
C851 C849 1.327 . S
C852 C840 1.349 . S
C852 H846 0.950 . S
C852 C853 1.327 . S
C853 H847 0.950 . S
C853 C852 1.327 . S
C853 C857 1.429 . S
C854 C837 1.574 . S
C854 H848 0.949 . S
C854 C858 1.368 . S
C855 C836 1.429 . S
C855 C849 1.429 . S
C855 C856 1.523 . S
C856 C837 1.368 . S
C856 C850 1.368 . S
C856 C855 1.523 . S
C857 C841 1.429 . S
C857 C853 1.429 . S
C857 C858 1.523 . S
C858 C842 1.368 . S
C858 C854 1.368 . S
C858 C857 1.523 . S
H859 C834 0.950 . S
H860 C836 0.950 . S
H861 C837 0.949 . S
H862 C839 0.950 . S
H863 C841 0.950 . S
C265 C54 1.508 . S
C270 C21 1.508 . S
C295 C87 1.508 . S
C300 C120 1.508 . S
C325 C186 1.508 . S
C330 C153 1.508 . S
C355 C219 1.508 . S
C360 C252 1.508 . S
C385 C139 1.508 . S
C390 C7 1.508 . S
C415 C40 1.508 . S
C420 C172 1.508 . S
C445 C73 1.508 . S
C450 C205 1.508 . S
C475 C106 1.508 . S
C480 C238 1.508 . S
C505 N2 1.272 . S
C510 N13 1.274 . S
C535 N46 1.274 . S
C540 N35 1.272 . S
C565 N68 1.272 . S
C570 N79 1.274 . S
C595 N112 1.274 . S
C600 N101 1.272 . S
C625 N134 1.272 . S
C630 N145 1.274 . S
C655 N178 1.274 . S
C660 N167 1.272 . S
C685 N200 1.272 . S
C690 N211 1.274 . S
C715 N233 1.272 . S
C720 N244 1.274 . S
C745 C18 1.524 . S
C750 C84 1.524 . S
C775 C51 1.524 . S
C780 C117 1.524 . S
C805 C150 1.524 . S
C810 C216 1.524 . S
C835 C183 1.524 . S
C840 C249 1.524 . S
