# Generated by pormake.
# Topology wjt, (5)-cn, num edge types: 1
# Building blocks:
#     Node 0, Type 0, BuildingBlock: BEQFEK_clean_sbu_0, # of connection points: 5
#     Node 1, Type 0, BuildingBlock: BEQFEK_clean_sbu_0, # of connection points: 5
#     Node 2, Type 0, BuildingBlock: BEQFEK_clean_sbu_0, # of connection points: 5
#     Node 3, Type 0, BuildingBlock: BEQFEK_clean_sbu_0, # of connection points: 5
#     Node 4, Type 0, BuildingBlock: BEQFEK_clean_sbu_0, # of connection points: 5
#     Node 5, Type 0, BuildingBlock: BEQFEK_clean_sbu_0, # of connection points: 5
#     Node 6, Type 0, BuildingBlock: BEQFEK_clean_sbu_0, # of connection points: 5
#     Node 7, Type 0, BuildingBlock: BEQFEK_clean_sbu_0, # of connection points: 5
#     Node 8, Type 0, BuildingBlock: BEQFEK_clean_sbu_0, # of connection points: 5
#     Node 9, Type 0, BuildingBlock: BEQFEK_clean_sbu_0, # of connection points: 5
#     Node 10, Type 0, BuildingBlock: BEQFEK_clean_sbu_0, # of connection points: 5
#     Node 11, Type 0, BuildingBlock: BEQFEK_clean_sbu_0, # of connection points: 5
#     Edge 12, Type (0, 0), BuildingBlock: KIFKEQ_clean_linker_1, # of connection points: 2
#     Edge 13, Type (0, 0), BuildingBlock: KIFKEQ_clean_linker_1, # of connection points: 2
#     Edge 14, Type (0, 0), BuildingBlock: KIFKEQ_clean_linker_1, # of connection points: 2
#     Edge 15, Type (0, 0), BuildingBlock: KIFKEQ_clean_linker_1, # of connection points: 2
#     Edge 16, Type (0, 0), BuildingBlock: KIFKEQ_clean_linker_1, # of connection points: 2
#     Edge 17, Type (0, 0), BuildingBlock: KIFKEQ_clean_linker_1, # of connection points: 2
#     Edge 18, Type (0, 0), BuildingBlock: KIFKEQ_clean_linker_1, # of connection points: 2
#     Edge 19, Type (0, 0), BuildingBlock: KIFKEQ_clean_linker_1, # of connection points: 2
#     Edge 20, Type (0, 0), BuildingBlock: KIFKEQ_clean_linker_1, # of connection points: 2
#     Edge 21, Type (0, 0), BuildingBlock: KIFKEQ_clean_linker_1, # of connection points: 2
#     Edge 22, Type (0, 0), BuildingBlock: KIFKEQ_clean_linker_1, # of connection points: 2
#     Edge 23, Type (0, 0), BuildingBlock: KIFKEQ_clean_linker_1, # of connection points: 2
#     Edge 24, Type (0, 0), BuildingBlock: KIFKEQ_clean_linker_1, # of connection points: 2
#     Edge 25, Type (0, 0), BuildingBlock: KIFKEQ_clean_linker_1, # of connection points: 2
#     Edge 26, Type (0, 0), BuildingBlock: KIFKEQ_clean_linker_1, # of connection points: 2
#     Edge 27, Type (0, 0), BuildingBlock: KIFKEQ_clean_linker_1, # of connection points: 2
#     Edge 28, Type (0, 0), BuildingBlock: KIFKEQ_clean_linker_1, # of connection points: 2
#     Edge 29, Type (0, 0), BuildingBlock: KIFKEQ_clean_linker_1, # of connection points: 2
#     Edge 30, Type (0, 0), BuildingBlock: KIFKEQ_clean_linker_1, # of connection points: 2
#     Edge 31, Type (0, 0), BuildingBlock: KIFKEQ_clean_linker_1, # of connection points: 2
#     Edge 32, Type (0, 0), BuildingBlock: KIFKEQ_clean_linker_1, # of connection points: 2
#     Edge 33, Type (0, 0), BuildingBlock: KIFKEQ_clean_linker_1, # of connection points: 2
#     Edge 34, Type (0, 0), BuildingBlock: KIFKEQ_clean_linker_1, # of connection points: 2
#     Edge 35, Type (0, 0), BuildingBlock: KIFKEQ_clean_linker_1, # of connection points: 2
#     Edge 36, Type (0, 0), BuildingBlock: KIFKEQ_clean_linker_1, # of connection points: 2
#     Edge 37, Type (0, 0), BuildingBlock: KIFKEQ_clean_linker_1, # of connection points: 2
#     Edge 38, Type (0, 0), BuildingBlock: KIFKEQ_clean_linker_1, # of connection points: 2
#     Edge 39, Type (0, 0), BuildingBlock: KIFKEQ_clean_linker_1, # of connection points: 2
#     Edge 40, Type (0, 0), BuildingBlock: KIFKEQ_clean_linker_1, # of connection points: 2
#     Edge 41, Type (0, 0), BuildingBlock: KIFKEQ_clean_linker_1, # of connection points: 2
# Relax obj value: 0.295
# Max RMSD: 0.183
# Mean RMSD: 0.183
data_MOF--net-wjt--node1-BEQFEK_clean_sbu_0--edge1-KIFKEQ_clean_linker_1
_symmetry_space_group_name_H-M    P1
_symmetry_Int_Tables_number       1
_symmetry_cell_setting            triclinic
loop_
_symmetry_equiv_pos_as_xyz
'x, y, z'
_cell_length_a     70.534298
_cell_length_b     70.518668
_cell_length_c     18.453254
_cell_angle_alpha  90.020767
_cell_angle_beta   90.001973
_cell_angle_gamma 119.99103
loop_
_atom_site_label
_atom_site_type_symbol
_atom_site_fract_x
_atom_site_fract_y
_atom_site_fract_z
_atom_type_partial_charge
Co0 Co 0.32793 0.45199 0.28372 0.0
Co1 Co 0.34953 0.45722 0.1324 0.0
C2 C 0.34637 0.42368 0.23815 0.0
O3 O 0.33683 0.42958 0.2837 0.0
O4 O 0.35209 0.43281 0.17632 0.0
C5 C 0.30337 0.43011 0.40862 0.0
O6 O 0.29953 0.41244 0.37279 0.0
C7 C 0.3504 0.44435 0.98287 0.0
C8 C 0.36982 0.47658 0.9302 0.0
C9 C 0.35685 0.4544 0.91552 0.0
N10 N 0.35832 0.46 0.03407 0.0
N11 N 0.37051 0.47915 0.00248 0.0
C12 C 0.33683 0.4204 -0.00074 0.0
H13 H 0.344 0.41626 0.0459 0.0
H14 H 0.32006 0.41637 0.015 0.0
H15 H 0.33606 0.4103 0.95199 0.0
C16 C 0.29136 0.44823 0.19417 0.0
N17 N 0.31113 0.44989 0.2015 0.0
N18 N 0.3204 0.45287 0.13741 0.0
C19 C 0.3069 0.45374 0.08724 0.0
C20 C 0.28804 0.45068 0.12146 0.0
C21 C 0.27701 0.44638 0.25661 0.0
H22 H 0.28651 0.45985 0.29556 0.0
H23 H 0.27181 0.43071 0.28532 0.0
H24 H 0.26234 0.44706 0.23873 0.0
O25 O 0.35457 0.48133 0.2888 0.0
O26 O 0.37032 0.48492 0.18178 0.0
H27 H 0.32874 0.47244 0.00137 0.0
H28 H 0.30025 0.46107 0.97862 0.0
C29 C 0.31215 0.45809 0.00822 0.0
H30 H 0.31165 0.44362 0.98315 0.0
H31 H 0.37806 0.4941 0.02987 0.0
O32 O 0.31254 0.44842 0.37593 0.0
C33 C 0.37012 0.49233 0.24455 0.0
Co34 Co 0.87617 0.32886 0.62261 0.0
Co35 Co 0.89177 0.3503 0.47073 0.0
C36 C 0.92251 0.34664 0.57385 0.0
O37 O 0.90731 0.33741 0.62037 0.0
O38 O 0.91887 0.35231 0.51219 0.0
C39 C 0.87345 0.30411 0.74788 0.0
O40 O 0.88803 0.30103 0.71365 0.0
C41 C 0.90286 0.34973 0.31934 0.0
C42 C 0.89162 0.37088 0.26997 0.0
C43 C 0.89906 0.35655 0.25331 0.0
N44 N 0.8974 0.35917 0.37233 0.0
N45 N 0.8915 0.37246 0.34257 0.0
C46 C 0.90858 0.33221 0.33197 0.0
H47 H 0.90307 0.32484 0.3865 0.0
H48 H 0.9013 0.31935 0.28958 0.0
H49 H 0.92663 0.33966 0.32906 0.0
C50 C 0.84282 0.29222 0.53485 0.0
N51 N 0.8609 0.31207 0.54114 0.0
N52 N 0.86655 0.32139 0.47693 0.0
C53 C 0.85163 0.30792 0.42795 0.0
C54 C 0.83632 0.28895 0.46286 0.0
C55 C 0.83113 0.27764 0.59772 0.0
H56 H 0.8267 0.28669 0.6371 0.0
H57 H 0.84232 0.27323 0.62567 0.0
H58 H 0.81611 0.26253 0.58044 0.0
O59 O 0.87386 0.35573 0.6287 0.0
O60 O 0.88576 0.37148 0.52155 0.0
H61 H 0.8559 0.33063 0.3436 0.0
H62 H 0.83531 0.3029 0.32384 0.0
C63 C 0.85145 0.31328 0.34955 0.0
H64 H 0.86335 0.31032 0.31994 0.0
H65 H 0.88555 0.38109 0.37161 0.0
O66 O 0.8645 0.31342 0.71485 0.0
C67 C 0.87848 0.37138 0.58478 0.0
Co68 Co 0.54712 0.87653 0.94558 0.0
Co69 Co 0.54197 0.89319 0.79466 0.0
C70 C 0.57553 0.92331 0.90118 0.0
O71 O 0.56957 0.90776 0.94631 0.0
O72 O 0.56643 0.92006 0.83931 0.0
C73 C 0.56875 0.87355 0.07066 0.0
O74 O 0.5865 0.88732 0.03506 0.0
C75 C 0.55508 0.90675 0.64525 0.0
C76 C 0.52302 0.89489 0.59237 0.0
C77 C 0.54512 0.90346 0.57782 0.0
N78 N 0.53943 0.89945 0.69635 0.0
N79 N 0.5204 0.89304 0.66464 0.0
C80 C 0.57896 0.91647 0.66185 0.0
H81 H 0.58332 0.92754 0.70926 0.0
H82 H 0.58254 0.90333 0.67646 0.0
H83 H 0.58922 0.92588 0.61502 0.0
C84 C 0.551 0.84392 0.85537 0.0
N85 N 0.54927 0.86199 0.86307 0.0
N86 N 0.54611 0.86826 0.7992 0.0
C87 C 0.5451 0.85386 0.74884 0.0
C88 C 0.54837 0.83814 0.78268 0.0
C89 C 0.55313 0.83149 0.91748 0.0
H90 H 0.53954 0.82715 0.95627 0.0
H91 H 0.56868 0.84216 0.94654 0.0
H92 H 0.55284 0.81636 0.8992 0.0
O93 O 0.51784 0.87395 0.95034 0.0
O94 O 0.51426 0.88637 0.8438 0.0
H95 H 0.52634 0.85751 0.6642 0.0
H96 H 0.53637 0.83928 0.64126 0.0
C97 C 0.54027 0.85456 0.67014 0.0
H98 H 0.55485 0.86797 0.64361 0.0
H99 H 0.50545 0.88603 0.69192 0.0
O100 O 0.55049 0.8645 0.03767 0.0
C101 C 0.50686 0.87864 0.90645 0.0
Co102 Co 0.67054 0.54637 0.28982 0.0
Co103 Co 0.64996 0.54164 0.13708 0.0
C104 C 0.65213 0.57464 0.2421 0.0
O105 O 0.66061 0.56793 0.28895 0.0
O106 O 0.64774 0.5666 0.17845 0.0
C107 C 0.69519 0.56895 0.41411 0.0
O108 O 0.69796 0.58632 0.37875 0.0
C109 C 0.65057 0.55354 0.98594 0.0
C110 C 0.62997 0.52116 0.93568 0.0
C111 C 0.64397 0.54304 0.91962 0.0
N112 N 0.64131 0.53848 0.03851 0.0
N113 N 0.62833 0.51928 0.00822 0.0
C114 C 0.66769 0.57689 -0.00078 0.0
H115 H 0.67522 0.57874 0.05346 0.0
H116 H 0.68048 0.58291 0.95652 0.0
H117 H 0.65983 0.58714 -0.00247 0.0
C118 C 0.70782 0.55077 0.20327 0.0
N119 N 0.68791 0.54891 0.20881 0.0
N120 N 0.67895 0.54566 0.1441 0.0
C121 C 0.69274 0.54465 0.09545 0.0
C122 C 0.71152 0.54809 0.13119 0.0
C123 C 0.72196 0.55301 0.2668 0.0
H124 H 0.71256 0.53931 0.30507 0.0
H125 H 0.72643 0.56848 0.29579 0.0
H126 H 0.73706 0.55299 0.25004 0.0
O127 O 0.64438 0.51681 0.29375 0.0
O128 O 0.62874 0.51412 0.18706 0.0
H129 H 0.67063 0.52645 0.00946 0.0
H130 H 0.69866 0.53449 0.99052 0.0
C131 C 0.68782 0.53962 0.01659 0.0
H132 H 0.69046 0.55455 0.98822 0.0
H133 H 0.61989 0.5046 0.03687 0.0
O134 O 0.68593 0.55049 0.38229 0.0
C135 C 0.62881 0.50624 0.24911 0.0
Co136 Co 0.12351 0.6713 0.61563 0.0
Co137 Co 0.10693 0.65001 0.46408 0.0
C138 C 0.0768 0.65322 0.57095 0.0
O139 O 0.09231 0.66259 0.61633 0.0
O140 O 0.08007 0.64756 0.50876 0.0
C141 C 0.12666 0.69614 0.74023 0.0
O142 O 0.11312 0.70032 0.70403 0.0
C143 C 0.09353 0.64999 0.31476 0.0
C144 C 0.10516 0.62966 0.26132 0.0
C145 C 0.09672 0.64333 0.24717 0.0
N146 N 0.10075 0.64148 0.36559 0.0
N147 N 0.10703 0.62879 0.33355 0.0
C148 C 0.08395 0.66425 0.33173 0.0
H149 H 0.07285 0.65752 0.37903 0.0
H150 H 0.09715 0.6809 0.3467 0.0
H151 H 0.07461 0.66528 0.28496 0.0
C152 C 0.15621 0.70803 0.52669 0.0
N153 N 0.13812 0.68823 0.5337 0.0
N154 N 0.1319 0.67901 0.46949 0.0
C155 C 0.14636 0.69254 0.41958 0.0
C156 C 0.16205 0.71141 0.45409 0.0
C157 C 0.1686 0.72237 0.5893 0.0
H158 H 0.17271 0.71293 0.62798 0.0
H159 H 0.158 0.72737 0.61823 0.0
H160 H 0.18385 0.73716 0.57155 0.0
O161 O 0.12605 0.64454 0.61943 0.0
O162 O 0.11362 0.62892 0.51235 0.0
H163 H 0.14269 0.67032 0.33418 0.0
H164 H 0.16114 0.69863 0.31233 0.0
C165 C 0.14577 0.68724 0.34069 0.0
H166 H 0.13247 0.6886 0.31409 0.0
H167 H 0.11393 0.62071 0.36059 0.0
O168 O 0.13545 0.68655 0.70797 0.0
C169 C 0.12131 0.629 0.57485 0.0
Co170 Co 0.45312 0.12403 0.95208 0.0
Co171 Co 0.45833 0.10771 0.80067 0.0
C172 C 0.42477 0.07736 0.90659 0.0
O173 O 0.43068 0.09279 0.9522 0.0
O174 O 0.4339 0.08077 0.84475 0.0
C175 C 0.43132 0.12693 0.07684 0.0
O176 O 0.41363 0.1132 0.0409 0.0
C177 C 0.44519 0.09423 0.65125 0.0
C178 C 0.47725 0.10632 0.59811 0.0
C179 C 0.45511 0.09759 0.58375 0.0
N180 N 0.46088 0.10162 0.70223 0.0
N181 N 0.47992 0.10817 0.67036 0.0
C182 C 0.42131 0.08435 0.668 0.0
H183 H 0.41765 0.09739 0.68337 0.0
H184 H 0.41105 0.07504 0.62101 0.0
H185 H 0.41702 0.07315 0.71498 0.0
C186 C 0.4491 0.15673 0.86287 0.0
N187 N 0.45096 0.13872 0.87003 0.0
N188 N 0.45412 0.13257 0.80592 0.0
C189 C 0.45499 0.14699 0.75593 0.0
C190 C 0.45164 0.1626 0.79028 0.0
C191 C 0.44689 0.169 0.92535 0.0
H192 H 0.46039 0.17319 0.96438 0.0
H193 H 0.43127 0.15828 0.95392 0.0
H194 H 0.44725 0.1842 0.90753 0.0
O195 O 0.48243 0.12664 0.95673 0.0
O196 O 0.48603 0.11447 0.84971 0.0
H197 H 0.4737 0.14356 0.67062 0.0
H198 H 0.4634 0.16162 0.64842 0.0
C199 C 0.45969 0.14637 0.67706 0.0
H200 H 0.44512 0.13289 0.65069 0.0
H201 H 0.4949 0.11526 0.69755 0.0
O202 O 0.44965 0.13591 0.04432 0.0
C203 C 0.49342 0.12205 0.91252 0.0
Co204 Co 0.54564 0.67167 0.3617 0.0
Co205 Co 0.54229 0.65117 0.51376 0.0
C206 C 0.57433 0.65333 0.40445 0.0
O207 O 0.56729 0.66181 0.3588 0.0
O208 O 0.56674 0.64891 0.4686 0.0
C209 C 0.56753 0.69654 0.23795 0.0
O210 O 0.58508 0.70068 0.27515 0.0
C211 C 0.55619 0.6516 0.66282 0.0
C212 C 0.52445 0.63086 0.71695 0.0
C213 C 0.54654 0.64479 0.73059 0.0
N214 N 0.54035 0.64288 0.61236 0.0
N215 N 0.52153 0.62996 0.64482 0.0
C216 C 0.57994 0.66612 0.64534 0.0
H217 H 0.5831 0.68264 0.63001 0.0
H218 H 0.59047 0.66743 0.69197 0.0
H219 H 0.58437 0.65941 0.5981 0.0
C220 C 0.55054 0.70887 0.45038 0.0
N221 N 0.54888 0.68908 0.44356 0.0
N222 N 0.54622 0.68008 0.508 0.0
C223 C 0.54544 0.69371 0.55784 0.0
C224 C 0.54839 0.71246 0.52307 0.0
C225 C 0.55198 0.72294 0.38762 0.0
H226 H 0.53816 0.71331 0.34997 0.0
H227 H 0.56738 0.7279 0.35752 0.0
H228 H 0.55157 0.73777 0.40539 0.0
O229 O 0.51612 0.6454 0.36016 0.0
O230 O 0.51427 0.62984 0.46641 0.0
H231 H 0.52721 0.67153 0.64371 0.0
H232 H 0.53662 0.69979 0.66494 0.0
C233 C 0.54084 0.68853 0.63684 0.0
H234 H 0.55564 0.69023 0.66351 0.0
H235 H 0.50649 0.62167 0.61813 0.0
O236 O 0.549 0.68684 0.26922 0.0
C237 C 0.50591 0.62986 0.40521 0.0
Co238 Co 0.87667 0.54779 0.71315 0.0
Co239 Co 0.89351 0.54311 0.86435 0.0
C240 C 0.92344 0.57647 0.75726 0.0
O241 O 0.90787 0.57031 0.71213 0.0
O242 O 0.92027 0.56755 0.8194 0.0
C243 C 0.87347 0.56933 0.58828 0.0
O244 O 0.88703 0.5871 0.62426 0.0
C245 C 0.90709 0.55648 0.01366 0.0
C246 C 0.89553 0.52451 0.06683 0.0
C247 C 0.90396 0.54661 0.08117 0.0
N248 N 0.89984 0.54078 0.96272 0.0
N249 N 0.89361 0.5218 0.9946 0.0
C250 C 0.91665 0.58033 -0.00315 0.0
H251 H 0.90343 0.58377 0.98201 0.0
H252 H 0.92599 0.59067 0.04366 0.0
H253 H 0.92773 0.58472 0.9495 0.0
C254 C 0.84396 0.55159 0.80296 0.0
N255 N 0.86212 0.55002 0.79548 0.0
N256 N 0.86848 0.54707 0.8595 0.0
C257 C 0.85406 0.54604 0.90975 0.0
C258 C 0.83821 0.54907 0.87568 0.0
C259 C 0.8314 0.5534 0.74066 0.0
H260 H 0.84186 0.56901 0.71162 0.0
H261 H 0.81611 0.55282 0.75873 0.0
H262 H 0.82732 0.53985 0.70194 0.0
O263 O 0.87419 0.51853 0.70909 0.0
O264 O 0.8868 0.51534 0.8158 0.0
H265 H 0.83959 0.5375 0.01752 0.0
H266 H 0.86824 0.55607 0.01482 0.0
C267 C 0.85485 0.5414 0.98858 0.0
H268 H 0.8579 0.52753 0.99487 0.0
H269 H 0.88669 0.50682 0.96746 0.0
O270 O 0.86461 0.55102 0.6209 0.0
C271 C 0.87902 0.50774 0.75336 0.0
Co272 Co 0.32871 0.87645 0.03906 0.0
Co273 Co 0.35029 0.89252 0.1905 0.0
C274 C 0.3472 0.92309 0.08514 0.0
O275 O 0.3376 0.90772 0.03938 0.0
O276 O 0.35293 0.91957 0.14681 0.0
C277 C 0.30405 0.87373 0.91432 0.0
O278 O 0.30025 0.88759 0.95016 0.0
C279 C 0.35074 0.90593 0.34002 0.0
C280 C 0.37044 0.89349 0.39301 0.0
C281 C 0.35719 0.9024 0.40747 0.0
N282 N 0.35894 0.89845 0.28896 0.0
N283 N 0.37127 0.89169 0.32073 0.0
C284 C 0.33691 0.91601 0.3234 0.0
H285 H 0.34391 0.92724 0.27654 0.0
H286 H 0.32018 0.90308 0.30794 0.0
H287 H 0.33604 0.92534 0.37049 0.0
C288 C 0.29199 0.84372 0.12797 0.0
N289 N 0.31186 0.86171 0.12098 0.0
N290 N 0.32116 0.86775 0.18512 0.0
C291 C 0.30759 0.8533 0.23496 0.0
C292 C 0.28863 0.83776 0.20048 0.0
C293 C 0.27753 0.83153 0.06536 0.0
H294 H 0.28682 0.82733 0.02631 0.0
H295 H 0.27267 0.8423 0.03687 0.0
H296 H 0.26266 0.81633 0.08301 0.0
O297 O 0.35535 0.87375 0.03402 0.0
O298 O 0.37114 0.88569 0.14114 0.0
H299 H 0.32962 0.85643 0.32024 0.0
H300 H 0.30121 0.83862 0.34241 0.0
C301 C 0.31288 0.85383 0.31383 0.0
H302 H 0.31198 0.86742 0.34024 0.0
H303 H 0.37904 0.8845 0.29346 0.0
O304 O 0.31332 0.86466 0.94685 0.0
C305 C 0.37091 0.8782 0.07814 0.0
Co306 Co 0.45165 0.32807 0.37237 0.0
Co307 Co 0.45679 0.34952 0.52387 0.0
C308 C 0.4233 0.34641 0.41773 0.0
O309 O 0.42921 0.3369 0.37209 0.0
O310 O 0.43241 0.35209 0.47962 0.0
C311 C 0.42987 0.3033 0.24767 0.0
O312 O 0.41217 0.29932 0.28361 0.0
C313 C 0.44355 0.34964 0.67322 0.0
C314 C 0.47555 0.36982 0.72655 0.0
C315 C 0.45344 0.35625 0.74077 0.0
N316 N 0.45926 0.35809 0.62233 0.0
N317 N 0.47826 0.3707 0.65431 0.0
C318 C 0.41971 0.33546 0.65632 0.0
H319 H 0.41535 0.34224 0.60911 0.0
H320 H 0.41621 0.31879 0.64127 0.0
H321 H 0.40938 0.33447 0.70315 0.0
C322 C 0.44775 0.29138 0.46136 0.0
N323 N 0.44945 0.31118 0.45433 0.0
N324 N 0.45259 0.32046 0.51849 0.0
C325 C 0.45363 0.30698 0.56835 0.0
C326 C 0.45038 0.28807 0.53389 0.0
C327 C 0.4457 0.27699 0.39877 0.0
H328 H 0.45929 0.28636 0.36012 0.0
H329 H 0.43014 0.27211 0.36977 0.0
H330 H 0.44604 0.26214 0.41653 0.0
O331 O 0.48098 0.35477 0.36799 0.0
O332 O 0.48452 0.37044 0.47518 0.0
H333 H 0.46243 0.30092 0.6755 0.0
H334 H 0.44396 0.31116 0.67398 0.0
C335 C 0.45851 0.31236 0.64713 0.0
H336 H 0.47245 0.32924 0.65329 0.0
H337 H 0.49323 0.37871 0.6272 0.0
O338 O 0.44821 0.31275 0.28013 0.0
C339 C 0.49196 0.37029 0.41243 0.0
Co340 Co 0.12328 0.45238 0.70261 0.0
Co341 Co 0.10758 0.4581 0.85453 0.0
C342 C 0.07688 0.42387 0.75092 0.0
O343 O 0.09211 0.42987 0.70451 0.0
O344 O 0.08048 0.43308 0.81275 0.0
C345 C 0.12597 0.43033 0.57735 0.0
O346 O 0.11141 0.4127 0.61168 0.0
C347 C 0.09642 0.44635 0.00584 0.0
C348 C 0.10761 0.47871 0.05543 0.0
C349 C 0.10018 0.45694 0.07195 0.0
N350 N 0.10189 0.46127 0.95295 0.0
N351 N 0.10776 0.48044 0.98284 0.0
C352 C 0.09071 0.42312 0.99306 0.0
H353 H 0.09624 0.42128 0.93853 0.0
H354 H 0.09797 0.41752 0.03543 0.0
H355 H 0.07266 0.41251 -0.00411 0.0
C356 C 0.15651 0.44891 0.79046 0.0
N357 N 0.13845 0.45071 0.78413 0.0
N358 N 0.13276 0.45434 0.84835 0.0
C359 C 0.14765 0.45574 0.89739 0.0
C360 C 0.16296 0.45208 0.8625 0.0
C361 C 0.16825 0.44608 0.7276 0.0
H362 H 0.17276 0.45962 0.68846 0.0
H363 H 0.15707 0.43053 0.69935 0.0
H364 H 0.18323 0.44591 0.74497 0.0
O365 O 0.12573 0.48163 0.6969 0.0
O366 O 0.11373 0.48537 0.80403 0.0
H367 H 0.16396 0.46706 0.0015 0.0
H368 H 0.13592 0.44642 0.00539 0.0
C369 C 0.14782 0.46129 0.97579 0.0
H370 H 0.14335 0.47417 0.98176 0.0
H371 H 0.11371 0.49504 0.95391 0.0
O372 O 0.13494 0.4486 0.61033 0.0
C373 C 0.1211 0.49263 0.74097 0.0
Co374 Co 0.67149 0.12375 0.04204 0.0
Co375 Co 0.64984 0.10712 0.19318 0.0
C376 C 0.65302 0.07693 0.08655 0.0
O377 O 0.66258 0.09246 0.04137 0.0
O378 O 0.6473 0.08021 0.14859 0.0
C379 C 0.69608 0.12658 0.91708 0.0
O380 O 0.70002 0.11282 0.9529 0.0
C381 C 0.6492 0.09342 0.3426 0.0
C382 C 0.62938 0.10573 0.3955 0.0
C383 C 0.64263 0.09684 0.41004 0.0
N384 N 0.64107 0.10095 0.29152 0.0
N385 N 0.62865 0.10762 0.32324 0.0
C386 C 0.66307 0.08337 0.32602 0.0
H387 H 0.65614 0.07221 0.27892 0.0
H388 H 0.67982 0.09632 0.3109 0.0
H389 H 0.66388 0.07399 0.37302 0.0
C390 C 0.708 0.15646 0.1319 0.0
N391 N 0.68826 0.13832 0.12441 0.0
N392 N 0.67894 0.13199 0.18842 0.0
C393 C 0.69237 0.14637 0.23869 0.0
C394 C 0.71125 0.16221 0.20463 0.0
C395 C 0.72236 0.16901 0.06957 0.0
H396 H 0.72753 0.15856 0.04059 0.0
H397 H 0.73703 0.18433 0.0876 0.0
H398 H 0.71286 0.17304 0.0308 0.0
O399 O 0.64485 0.12643 0.03744 0.0
O400 O 0.62898 0.11402 0.14415 0.0
H401 H 0.69869 0.16055 0.34704 0.0
H402 H 0.68781 0.13177 0.34315 0.0
C403 C 0.68701 0.14551 0.31761 0.0
H404 H 0.67029 0.14296 0.32413 0.0
H405 H 0.6209 0.11483 0.29597 0.0
O406 O 0.68686 0.13567 0.94984 0.0
C407 C 0.62924 0.12175 0.08157 0.0
H408 H 0.28948 0.48468 0.04791 0.0
H409 H 0.24514 0.41886 0.11975 0.0
H410 H 0.2599 0.48512 0.98088 0.0
H411 H 0.21503 0.41946 0.05551 0.0
H412 H 0.17174 0.41875 0.87062 0.0
H413 H 0.20215 0.41864 0.93446 0.0
H414 H 0.2273 0.48638 0.99433 0.0
H415 H 0.19751 0.48653 0.92766 0.0
C416 C 0.27324 0.47039 0.04978 0.0
C417 C 0.26952 0.45164 0.08793 0.0
C418 C 0.25626 0.47065 0.01186 0.0
C419 C 0.23506 0.45225 0.01219 0.0
C420 C 0.23123 0.43374 0.05274 0.0
C421 C 0.24834 0.43345 0.09027 0.0
C422 C 0.18402 0.43362 0.89673 0.0
C423 C 0.18232 0.45258 0.89511 0.0
C424 C 0.20125 0.43353 0.93404 0.0
C425 C 0.21707 0.45243 0.97042 0.0
C426 C 0.21557 0.47157 0.96663 0.0
C427 C 0.19846 0.47166 0.92891 0.0
H428 H 0.75413 0.17325 0.20682 0.0
H429 H 0.70979 0.19484 0.27779 0.0
H430 H 0.78422 0.20401 0.27087 0.0
H431 H 0.73935 0.22493 0.34467 0.0
H432 H 0.80178 0.28879 0.39737 0.0
H433 H 0.77197 0.25877 0.33099 0.0
H434 H 0.7971 0.21624 0.39176 0.0
H435 H 0.82753 0.24683 0.45527 0.0
C436 C 0.75092 0.18467 0.23611 0.0
C437 C 0.72974 0.18169 0.23826 0.0
C438 C 0.76802 0.2021 0.27352 0.0
C439 C 0.7642 0.21685 0.31377 0.0
C440 C 0.743 0.21406 0.31393 0.0
C441 C 0.72601 0.19676 0.27612 0.0
C442 C 0.80083 0.27297 0.39635 0.0
C443 C 0.81697 0.27007 0.4303 0.0
C444 C 0.7837 0.25572 0.35881 0.0
C445 C 0.78218 0.23507 0.35537 0.0
C446 C 0.798 0.23203 0.3919 0.0
C447 C 0.81525 0.24939 0.42902 0.0
H448 H 0.51421 0.71166 0.59338 0.0
H449 H 0.58083 0.75502 0.52691 0.0
H450 H 0.51402 0.74151 0.65974 0.0
H451 H 0.58057 0.78537 0.59083 0.0
H452 H 0.58089 0.82813 0.77759 0.0
H453 H 0.58063 0.79762 0.71304 0.0
H454 H 0.51402 0.77494 0.64476 0.0
H455 H 0.51421 0.80487 0.71182 0.0
C456 C 0.52874 0.72774 0.59255 0.0
C457 C 0.54762 0.73112 0.55611 0.0
C458 C 0.52863 0.74487 0.6301 0.0
C459 C 0.54736 0.76585 0.63123 0.0
C460 C 0.56603 0.76933 0.59238 0.0
C461 C 0.56613 0.7521 0.5551 0.0
C462 C 0.56619 0.81639 0.74937 0.0
C463 C 0.54765 0.81882 0.74882 0.0
C464 C 0.56608 0.7991 0.71172 0.0
C465 C 0.54738 0.78394 0.67292 0.0
C466 C 0.52865 0.78617 0.67435 0.0
C467 C 0.52876 0.80336 0.7123 0.0
H468 H 0.82758 0.58118 0.87878 0.0
H469 H 0.80533 0.51496 0.94789 0.0
H470 H 0.79688 0.58069 0.94263 0.0
H471 H 0.77527 0.51459 0.01451 0.0
H472 H 0.7115 0.51375 0.06486 0.0
H473 H 0.7416 0.5138 -0.0004 0.0
H474 H 0.78447 0.58109 0.06368 0.0
H475 H 0.75382 0.58109 0.12621 0.0
C476 C 0.81603 0.56653 0.90764 0.0
C477 C 0.8188 0.5482 0.90931 0.0
C478 C 0.79864 0.56629 0.94492 0.0
C479 C 0.78371 0.54768 0.98453 0.0
C480 C 0.7863 0.52915 0.98427 0.0
C481 C 0.80357 0.52937 0.9466 0.0
C482 C 0.72742 0.52849 0.06487 0.0
C483 C 0.73041 0.5475 0.09943 0.0
C484 C 0.74471 0.52852 0.02796 0.0
C485 C 0.76547 0.54752 0.02574 0.0
C486 C 0.7686 0.56632 0.06292 0.0
C487 C 0.7512 0.56629 0.09946 0.0
H488 H 0.19543 0.71072 0.38334 0.0
H489 H 0.1721 0.75397 0.45076 0.0
H490 H 0.22565 0.74075 0.31828 0.0
H491 H 0.20286 0.78447 0.38813 0.0
H492 H 0.24612 0.82788 0.20388 0.0
H493 H 0.21556 0.79716 0.26645 0.0
H494 H 0.25908 0.77412 0.33606 0.0
H495 H 0.28917 0.80428 0.27106 0.0
C496 C 0.19698 0.72679 0.38456 0.0
C497 C 0.18143 0.73011 0.421 0.0
C498 C 0.21432 0.74403 0.34779 0.0
C499 C 0.21662 0.76503 0.34744 0.0
C500 C 0.20134 0.76842 0.38604 0.0
C501 C 0.1839 0.7511 0.42256 0.0
C502 C 0.24894 0.81603 0.232 0.0
C503 C 0.26988 0.81841 0.23351 0.0
C504 C 0.23157 0.79861 0.26849 0.0
C505 C 0.23489 0.78327 0.30701 0.0
C506 C 0.25585 0.78548 0.30661 0.0
C507 C 0.27312 0.80281 0.26986 0.0
H508 H 0.48473 0.28903 0.60356 0.0
H509 H 0.41801 0.24547 0.53837 0.0
H510 H 0.48519 0.25924 0.66931 0.0
H511 H 0.41855 0.21518 0.60163 0.0
H512 H 0.41893 0.17236 0.78685 0.0
H513 H 0.41885 0.20284 0.72341 0.0
H514 H 0.48535 0.22593 0.65305 0.0
H515 H 0.48551 0.19602 0.71901 0.0
C516 C 0.47023 0.27293 0.60292 0.0
C517 C 0.45125 0.26947 0.56697 0.0
C518 C 0.4705 0.25583 0.6401 0.0
C519 C 0.45184 0.23481 0.64132 0.0
C520 C 0.43305 0.23125 0.60308 0.0
C521 C 0.43279 0.24845 0.56618 0.0
C522 C 0.43354 0.18418 0.7584 0.0
C523 C 0.45215 0.18187 0.75695 0.0
C524 C 0.43346 0.20146 0.7214 0.0
C525 C 0.45202 0.21673 0.68236 0.0
C526 C 0.47083 0.21461 0.68287 0.0
C527 C 0.47091 0.19743 0.72017 0.0
H528 H 0.48332 0.62402 0.2788 0.0
H529 H 0.47989 0.59279 0.48385 0.0
H530 H 0.44938 0.59192 0.24078 0.0
H531 H 0.44614 0.56054 0.44506 0.0
H532 H 0.37625 0.51268 0.37602 0.0
H533 H 0.40774 0.54693 0.41583 0.0
H534 H 0.43783 0.55442 0.20598 0.0
H535 H 0.40624 0.52043 0.1656 0.0
C536 C 0.4753 0.61036 0.31596 0.0
C537 C 0.48444 0.61097 0.38428 0.0
C538 C 0.45589 0.5919 0.29391 0.0
C539 C 0.44513 0.5736 0.33962 0.0
C540 C 0.45391 0.57444 0.40877 0.0
C541 C 0.47334 0.5929 0.43085 0.0
C542 C 0.3895 0.5217 0.33812 0.0
C543 C 0.38872 0.51373 0.26762 0.0
C544 C 0.40761 0.54128 0.36115 0.0
C545 C 0.42534 0.55338 0.31421 0.0
C546 C 0.42435 0.54565 0.24327 0.0
C547 C 0.40627 0.52606 0.22024 0.0
H548 H 0.86312 0.48642 0.62435 0.0
H549 H 0.88911 0.48073 0.83026 0.0
H550 H 0.86081 0.45244 0.58405 0.0
H551 H 0.8872 0.44699 0.78922 0.0
H552 H 0.88768 0.40816 0.5077 0.0
H553 H 0.88602 0.44004 0.54948 0.0
H554 H 0.86202 0.40904 0.75735 0.0
H555 H 0.86409 0.37729 0.71619 0.0
C556 C 0.86828 0.47791 0.66116 0.0
C557 C 0.8764 0.4864 0.73048 0.0
C558 C 0.86707 0.45848 0.63783 0.0
C559 C 0.87394 0.44705 0.68322 0.0
C560 C 0.88156 0.45525 0.75316 0.0
C561 C 0.88277 0.47468 0.77654 0.0
C562 C 0.88193 0.40806 0.5622 0.0
C563 C 0.87614 0.39018 0.60867 0.0
C564 C 0.88085 0.42631 0.58602 0.0
C565 C 0.87393 0.42712 0.65684 0.0
C566 C 0.86771 0.40907 0.70282 0.0
C567 C 0.86879 0.3908 0.67903 0.0
H568 H 0.48602 0.86291 0.03622 0.0
H569 H 0.47944 0.88836 0.83042 0.0
H570 H 0.45209 0.86047 0.07767 0.0
H571 H 0.44575 0.88632 0.87257 0.0
H572 H 0.37637 0.8632 0.94733 0.0
H573 H 0.40799 0.861 0.9057 0.0
H574 H 0.43954 0.88558 0.11254 0.0
H575 H 0.40778 0.88737 0.15485 0.0
C576 C 0.47733 0.86793 -0.00033 0.0
C577 C 0.48555 0.87593 0.93004 0.0
C578 C 0.45792 0.86664 0.02366 0.0
C579 C 0.44626 0.8733 0.97862 0.0
C580 C 0.45419 0.88081 0.90838 0.0
C581 C 0.4736 0.88211 0.88435 0.0
C582 C 0.38997 0.86798 0.98422 0.0
C583 C 0.38955 0.87556 0.05439 0.0
C584 C 0.40816 0.86683 0.96013 0.0
C585 C 0.42635 0.87322 0.0056 0.0
C586 C 0.42571 0.8803 0.07636 0.0
C587 C 0.40752 0.88145 0.10049 0.0
H588 H 0.59187 0.47954 0.171 0.0
H589 H 0.62304 0.48455 0.37747 0.0
H590 H 0.55984 0.44582 0.21088 0.0
H591 H 0.59116 0.45059 0.41662 0.0
H592 H 0.51964 0.40677 0.49081 0.0
H593 H 0.5535 0.43848 0.45029 0.0
H594 H 0.5468 0.40773 0.24202 0.0
H595 H 0.51267 0.37615 0.2819 0.0
C596 C 0.59202 0.47335 0.22459 0.0
C597 C 0.61 0.48487 0.27116 0.0
C598 C 0.57368 0.45392 0.2473 0.0
C599 C 0.5729 0.44555 0.31708 0.0
C600 C 0.59111 0.45677 0.36295 0.0
C601 C 0.60944 0.47619 0.34028 0.0
C602 C 0.52542 0.40668 0.4365 0.0
C603 C 0.51333 0.38893 0.38952 0.0
C604 C 0.54493 0.42483 0.41341 0.0
C605 C 0.55283 0.42567 0.34282 0.0
C606 C 0.541 0.40773 0.29638 0.0
C607 C 0.52149 0.38956 0.31945 0.0
H608 H 0.11185 0.52014 0.81838 0.0
H609 H 0.13585 0.51321 0.61016 0.0
H610 H 0.11375 0.55384 0.77725 0.0
H611 H 0.13818 0.5472 0.56967 0.0
H612 H 0.13692 0.62329 0.70402 0.0
H613 H 0.13909 0.5915 0.74378 0.0
H614 H 0.11318 0.56014 0.53756 0.0
H615 H 0.11142 0.59209 0.49708 0.0
C616 C 0.11774 0.5259 0.76407 0.0
C617 C 0.12358 0.51386 0.71748 0.0
C618 C 0.11896 0.54532 0.74063 0.0
C619 C 0.12607 0.5532 0.67008 0.0
C620 C 0.13234 0.54141 0.62399 0.0
C621 C 0.13112 0.52198 0.6474 0.0
C622 C 0.13184 0.6097 0.66687 0.0
C623 C 0.12389 0.61023 0.59743 0.0
C624 C 0.13297 0.59141 0.68989 0.0
C625 C 0.12619 0.57322 0.64405 0.0
C626 C 0.11876 0.57397 0.57398 0.0
C627 C 0.11763 0.59226 0.55091 0.0
H628 H 0.5923 0.11225 0.15847 0.0
H629 H 0.62384 0.13727 0.95173 0.0
H630 H 0.56058 0.11424 0.11693 0.0
H631 H 0.59226 0.13966 0.91089 0.0
H632 H 0.52089 0.11265 0.83546 0.0
H633 H 0.55453 0.11449 0.8771 0.0
H634 H 0.54807 0.13952 0.08375 0.0
H635 H 0.51417 0.13728 0.04279 0.0
C636 C 0.59259 0.1184 0.10445 0.0
C637 C 0.6106 0.12446 0.05833 0.0
C638 C 0.57443 0.11966 0.08078 0.0
C639 C 0.57384 0.12704 0.01046 0.0
C640 C 0.59206 0.1336 0.96498 0.0
C641 C 0.61022 0.13234 0.98862 0.0
C642 C 0.52669 0.11868 0.88964 0.0
C643 C 0.51472 0.12468 0.93588 0.0
C644 C 0.54607 0.11986 0.91337 0.0
C645 C 0.55396 0.12708 0.98388 0.0
C646 C 0.54227 0.13358 0.02951 0.0
C647 C 0.52289 0.1324 0.0058 0.0
H648 H 0.33666 0.40092 0.36564 0.0
H649 H 0.37079 0.40994 0.16268 0.0
H650 H 0.35126 0.37828 0.40995 0.0
H651 H 0.3857 0.38762 0.20771 0.0
H652 H 0.40058 0.33678 0.29015 0.0
H653 H 0.37802 0.35148 0.24583 0.0
H654 H 0.38735 0.38585 0.4483 0.0
H655 H 0.40958 0.37083 0.49333 0.0
C656 C 0.34708 0.39789 0.33007 0.0
C657 C 0.35273 0.40746 0.26077 0.0
C658 C 0.35554 0.385 0.35575 0.0
C659 C 0.36984 0.38133 0.31276 0.0
C660 C 0.37459 0.38996 0.24207 0.0
C661 C 0.36611 0.40286 0.21632 0.0
C662 C 0.39756 0.3472 0.32576 0.0
C663 C 0.40711 0.35281 0.39513 0.0
C664 C 0.38472 0.35572 0.30008 0.0
C665 C 0.38108 0.37003 0.34313 0.0
C666 C 0.38967 0.37473 0.41389 0.0
C667 C 0.40252 0.36619 0.43964 0.0
H668 H 0.03881 0.41013 0.8271 0.0
H669 H 0.06367 0.40082 0.62404 0.0
H670 H 0.00151 0.38775 0.78242 0.0
H671 H 0.0264 0.3782 0.58004 0.0
H672 H 0.96055 0.37109 0.49762 0.0
H673 H 0.99786 0.38605 0.54216 0.0
H674 H 0.97308 0.35136 0.74411 0.0
H675 H 0.93579 0.33666 0.70027 0.0
C676 C 0.03634 0.40296 0.77356 0.0
C677 C 0.05427 0.40751 0.72896 0.0
C678 C 0.01493 0.39005 0.74798 0.0
C679 C 0.01099 0.38137 0.67731 0.0
C680 C 0.02889 0.38496 0.63422 0.0
C681 C 0.05027 0.39784 0.65974 0.0
C682 C 0.96304 0.36635 0.55102 0.0
C683 C 0.94514 0.35288 0.59558 0.0
C684 C 0.98446 0.37486 0.57652 0.0
C685 C 0.98843 0.37007 0.64706 0.0
C686 C 0.97056 0.35567 0.69005 0.0
C687 C 0.94917 0.34715 0.66461 0.0
H688 H 0.66272 0.06419 0.9584 0.0
H689 H 0.62843 0.03856 0.16077 0.0
H690 H 0.64792 0.02707 0.91255 0.0
H691 H 0.61332 0.00145 0.11421 0.0
H692 H 0.59825 0.93591 0.0288 0.0
H693 H 0.6209 0.973 0.07448 0.0
H694 H 0.6117 0.99881 0.87358 0.0
H695 H 0.58935 0.96173 0.82717 0.0
C696 C 0.65223 0.05065 0.99352 0.0
C697 C 0.64658 0.05439 0.06311 0.0
C698 C 0.64365 0.02936 0.96695 0.0
C699 C 0.62925 0.0113 0.00933 0.0
C700 C 0.62451 0.01499 0.08031 0.0
C701 C 0.6331 0.03629 0.10694 0.0
C702 C 0.60131 0.94949 0.9938 0.0
C703 C 0.59177 0.94581 0.92448 0.0
C704 C 0.61421 0.97075 0.02028 0.0
C705 C 0.61791 0.98886 0.97808 0.0
C706 C 0.60932 0.98523 0.90734 0.0
C707 C 0.59641 0.96395 0.88079 0.0
H708 H 0.60472 0.64915 0.48457 0.0
H709 H 0.57872 0.64169 0.26815 0.0
H710 H 0.62806 0.63486 0.44407 0.0
H711 H 0.60042 0.62577 0.22867 0.0
H712 H 0.64642 0.6036 0.15855 0.0
H713 H 0.63223 0.6272 0.19747 0.0
H714 H 0.62613 0.60267 0.41641 0.0
H715 H 0.64186 0.58076 0.37831 0.0
C716 C 0.60401 0.64441 0.42835 0.0
C717 C 0.58988 0.64644 0.37964 0.0
C718 C 0.61723 0.63599 0.40502 0.0
C719 C 0.61605 0.62872 0.33299 0.0
C720 C 0.60227 0.63145 0.28408 0.0
C721 C 0.5896 0.64045 0.30691 0.0
C722 C 0.64235 0.60363 0.21514 0.0
C723 C 0.6452 0.59032 0.26527 0.0
C724 C 0.634 0.617 0.23759 0.0
C725 C 0.62768 0.61683 0.31029 0.0
C726 C 0.63113 0.60381 0.36041 0.0
C727 C 0.64003 0.59099 0.33837 0.0
H728 H 0.06423 0.66336 0.69855 0.0
H729 H 0.03838 0.62857 0.497 0.0
H730 H 0.02716 0.64883 0.74443 0.0
H731 H 0.00132 0.61372 0.54362 0.0
H732 H 0.9359 0.59888 0.62906 0.0
H733 H 0.97293 0.62141 0.58293 0.0
H734 H 0.99894 0.61278 0.78433 0.0
H735 H 0.96191 0.59056 0.83117 0.0
C736 C 0.05065 0.65281 0.66362 0.0
C737 C 0.0543 0.64694 0.59427 0.0
C738 C 0.0294 0.64439 0.6902 0.0
C739 C 0.01129 0.62992 0.6481 0.0
C740 C 0.01489 0.62497 0.57731 0.0
C741 C 0.03617 0.63341 0.55064 0.0
C742 C 0.9495 0.60205 0.66406 0.0
C743 C 0.9459 0.59269 0.73366 0.0
C744 C 0.97074 0.61487 0.63733 0.0
C745 C 0.98888 0.6187 0.67955 0.0
C746 C 0.98533 0.61031 0.75055 0.0
C747 C 0.96408 0.59747 0.77735 0.0
H748 H 0.40212 0.06433 0.03425 0.0
H749 H 0.41086 0.03921 0.83083 0.0
H750 H 0.37943 0.02709 0.07847 0.0
H751 H 0.38848 0.00197 0.87574 0.0
H752 H 0.37186 0.96115 0.1609 0.0
H753 H 0.38696 0.99844 0.11619 0.0
H754 H 0.35226 0.97363 0.91415 0.0
H755 H 0.33746 0.93633 0.95814 0.0
C756 C 0.39902 0.05088 -0.00144 0.0
C757 C 0.40852 0.05479 0.92915 0.0
C758 C 0.38609 0.02952 0.02419 0.0
C759 C 0.38234 0.01156 0.98102 0.0
C760 C 0.3909 0.01543 0.91023 0.0
C761 C 0.40383 0.03681 0.88455 0.0
C762 C 0.36716 0.96364 0.10739 0.0
C763 C 0.35366 0.94572 0.06288 0.0
C764 C 0.37575 0.98504 0.08182 0.0
C765 C 0.37098 0.98901 0.01126 0.0
C766 C 0.35656 0.97112 0.96824 0.0
C767 C 0.34798 0.94973 0.99374 0.0
H768 H 0.294 0.39573 0.49958 0.0
H769 H 0.3152 0.46488 0.49884 0.0
H770 H 0.30526 0.39858 0.62655 0.0
H771 H 0.32667 0.46756 0.62459 0.0
H772 H 0.37698 0.4688 0.78607 0.0
H773 H 0.3599 0.46051 0.66647 0.0
H774 H 0.29837 0.41287 0.76102 0.0
H775 H 0.31499 0.42171 0.88099 0.0
C776 C 0.30047 0.41136 0.52685 0.0
C777 C 0.3041 0.43018 0.48868 0.0
C778 C 0.30698 0.41296 0.59928 0.0
C779 C 0.3173 0.43338 0.63403 0.0
C780 C 0.31913 0.45173 0.59805 0.0
C781 C 0.31242 0.45012 0.52624 0.0
C782 C 0.35992 0.45624 0.7813 0.0
C783 C 0.34753 0.4457 0.84314 0.0
C784 C 0.35015 0.45161 0.71306 0.0
C785 C 0.32784 0.43622 0.70523 0.0
C786 C 0.31565 0.42471 0.76605 0.0
C787 C 0.32534 0.42959 0.83469 0.0
H788 H 0.85905 0.33033 0.19761 0.0
H789 H 0.92762 0.35474 0.15763 0.0
H790 H 0.84972 0.31031 0.08368 0.0
H791 H 0.9186 0.33591 0.04033 0.0
H792 H 0.89809 0.29511 0.84166 0.0
H793 H 0.90257 0.30293 0.97131 0.0
H794 H 0.85179 0.32023 0.96269 0.0
H795 H 0.84672 0.31155 0.83503 0.0
C796 C 0.87212 0.33142 0.16384 0.0
C797 C 0.89403 0.34425 0.18513 0.0
C798 C 0.86682 0.32003 0.0985 0.0
C799 C 0.88339 0.32171 0.05207 0.0
C800 C 0.90537 0.33401 0.07496 0.0
C801 C 0.91063 0.34504 0.14146 0.0
C802 C 0.88742 0.29991 0.86809 0.0
C803 C 0.87231 0.30309 0.82783 0.0
C804 C 0.89019 0.30466 0.94224 0.0
C805 C 0.8779 0.31268 0.97732 0.0
C806 C 0.86151 0.31399 0.938 0.0
C807 C 0.85865 0.3091 0.86431 0.0
H808 H 0.60319 0.89802 0.16209 0.0
H809 H 0.53375 0.85124 0.16042 0.0
H810 H 0.60046 0.90657 0.28902 0.0
H811 H 0.53119 0.86017 0.28611 0.0
H812 H 0.53101 0.90961 0.44838 0.0
H813 H 0.53902 0.90061 0.3287 0.0
H814 H 0.58582 0.88546 0.42305 0.0
H815 H 0.57723 0.89344 0.54308 0.0
C816 C 0.5875 0.88914 0.18914 0.0
C817 C 0.5686 0.87425 0.15072 0.0
C818 C 0.58598 0.89413 0.26155 0.0
C819 C 0.56553 0.8844 0.29604 0.0
C820 C 0.54705 0.86817 0.25978 0.0
C821 C 0.54859 0.86299 0.18801 0.0
C822 C 0.54332 0.90478 0.44357 0.0
C823 C 0.5537 0.90264 0.5054 0.0
C824 C 0.54779 0.89952 0.37526 0.0
C825 C 0.56287 0.89219 0.36734 0.0
C826 C 0.57422 0.89121 0.42815 0.0
C827 C 0.56949 0.89614 0.49684 0.0
H828 H 0.67152 0.53068 0.86575 0.0
H829 H 0.64455 0.57254 0.82266 0.0
H830 H 0.69147 0.54157 0.75178 0.0
H831 H 0.66334 0.5825 0.70531 0.0
H832 H 0.70363 0.60289 0.50579 0.0
H833 H 0.69631 0.60013 0.63572 0.0
H834 H 0.68108 0.53263 0.63121 0.0
H835 H 0.68921 0.53568 0.50317 0.0
C836 C 0.6699 0.54224 0.83139 0.0
C837 C 0.65637 0.5506 0.85177 0.0
C838 C 0.68124 0.54843 0.76602 0.0
C839 C 0.6788 0.56266 0.71867 0.0
C840 C 0.66582 0.57169 0.7407 0.0
C841 C 0.65483 0.56583 0.80722 0.0
C842 C 0.6994 0.58769 0.53316 0.0
C843 C 0.69661 0.56936 0.49398 0.0
C844 C 0.69495 0.58604 0.60747 0.0
C845 C 0.68765 0.56604 0.64377 0.0
C846 C 0.68677 0.54836 0.60551 0.0
C847 C 0.69133 0.55005 0.53163 0.0
H848 H 0.09009 0.62303 0.11763 0.0
H849 H 0.10713 0.6856 0.21299 0.0
H850 H 0.09914 0.64008 -0.00196 0.0
H851 H 0.11517 0.70222 0.09301 0.0
H852 H 0.10209 0.70631 0.83045 0.0
H853 H 0.09355 0.6954 0.95765 0.0
H854 H 0.14026 0.6729 0.95712 0.0
H855 H 0.14919 0.68404 0.83117 0.0
C856 C 0.09512 0.64023 0.11297 0.0
C857 C 0.09751 0.65279 0.17494 0.0
C858 C 0.10039 0.64997 0.04474 0.0
C859 C 0.10799 0.67243 0.03704 0.0
C860 C 0.10921 0.68483 0.09798 0.0
C861 C 0.10425 0.67515 0.16662 0.0
C862 C 0.11105 0.69968 0.85808 0.0
C863 C 0.12601 0.69564 0.82028 0.0
C864 C 0.10607 0.69338 0.93065 0.0
C865 C 0.11589 0.68286 0.96585 0.0
C866 C 0.13221 0.68062 0.93023 0.0
C867 C 0.13738 0.68713 0.8583 0.0
H868 H 0.46905 0.09132 0.45419 0.0
H869 H 0.42292 0.10752 0.54953 0.0
H870 H 0.46084 0.10019 0.3346 0.0
H871 H 0.41414 0.11537 0.42958 0.0
H872 H 0.39681 0.10218 0.16759 0.0
H873 H 0.39947 0.09378 0.29472 0.0
H874 H 0.46854 0.14095 0.29314 0.0
H875 H 0.46604 0.14975 0.16726 0.0
C876 C 0.45671 0.09612 0.44953 0.0
C877 C 0.44642 0.09831 0.51148 0.0
C878 C 0.45213 0.10129 0.3813 0.0
C879 C 0.43703 0.1086 0.3736 0.0
C880 C 0.42575 0.10963 0.43454 0.0
C881 C 0.4306 0.10478 0.50316 0.0
C882 C 0.41242 0.11127 0.19498 0.0
C883 C 0.43131 0.12633 0.15689 0.0
C884 C 0.41391 0.10636 0.2675 0.0
C885 C 0.4343 0.11636 0.30239 0.0
C886 C 0.45273 0.13276 0.26649 0.0
C887 C 0.45122 0.13786 0.1946 0.0
H888 H 0.60279 0.7072 0.14974 0.0
H889 H 0.53336 0.68457 0.14501 0.0
H890 H 0.60116 0.69671 0.02231 0.0
H891 H 0.53191 0.67386 0.01882 0.0
H892 H 0.57776 0.68728 0.76486 0.0
H893 H 0.58611 0.70383 0.8851 0.0
H894 H 0.54143 0.64117 0.97971 0.0
H895 H 0.53365 0.62423 0.85989 0.0
C896 C 0.58735 0.70059 0.12119 0.0
C897 C 0.56811 0.69631 0.15792 0.0
C898 C 0.58646 0.69453 0.04849 0.0
C899 C 0.56633 0.68405 0.01209 0.0
C900 C 0.54753 0.68159 0.04665 0.0
C901 C 0.54843 0.68784 0.11873 0.0
C902 C 0.57048 0.67673 0.81121 0.0
C903 C 0.55528 0.65426 0.80276 0.0
C904 C 0.57507 0.68636 0.87998 0.0
C905 C 0.56419 0.67376 0.94087 0.0
C906 C 0.54983 0.6512 0.93303 0.0
C907 C 0.54548 0.64152 0.86467 0.0
H908 H 0.91056 0.53285 0.21057 0.0
H909 H 0.89349 0.57841 0.1158 0.0
H910 H 0.90141 0.54071 0.33025 0.0
H911 H 0.88532 0.58683 0.23586 0.0
H912 H 0.89774 0.60403 0.49758 0.0
H913 H 0.90645 0.60163 0.37059 0.0
H914 H 0.86058 0.53221 0.37202 0.0
H915 H 0.85148 0.53444 0.49777 0.0
C916 C 0.9055 0.545 0.21538 0.0
C917 C 0.90313 0.55521 0.15353 0.0
C918 C 0.90016 0.54938 0.28368 0.0
C919 C 0.89251 0.5642 0.29158 0.0
C920 C 0.89132 0.57543 0.23077 0.0
C921 C 0.89634 0.57079 0.16207 0.0
C922 C 0.88901 0.58837 0.4702 0.0
C923 C 0.87422 0.56934 0.50822 0.0
C924 C 0.89409 0.58704 0.39774 0.0
C925 C 0.88456 0.56666 0.36283 0.0
C926 C 0.86842 0.54803 0.39868 0.0
C927 C 0.86314 0.54937 0.4705 0.0
H928 H 0.37729 0.90835 0.53711 0.0
H929 H 0.31519 0.89286 0.44155 0.0
H930 H 0.36017 0.89963 0.65665 0.0
H931 H 0.29854 0.88518 0.56143 0.0
H932 H 0.2947 0.89876 0.82339 0.0
H933 H 0.30577 0.90696 0.69621 0.0
H934 H 0.32671 0.85902 0.69814 0.0
H935 H 0.3154 0.85043 0.82408 0.0
C936 C 0.3602 0.90374 0.54171 0.0
C937 C 0.34779 0.90172 0.47972 0.0
C938 C 0.35042 0.89865 0.60991 0.0
C939 C 0.32807 0.89161 0.61752 0.0
C940 C 0.31584 0.89072 0.55653 0.0
C941 C 0.32556 0.89548 0.48795 0.0
C942 C 0.30101 0.88946 0.79607 0.0
C943 C 0.30458 0.87424 0.83427 0.0
C944 C 0.30741 0.89425 0.72352 0.0
C945 C 0.31754 0.88398 0.68872 0.0
C946 C 0.31929 0.86742 0.72473 0.0
C947 C 0.31269 0.86245 0.79665 0.0
H948 H 0.46721 0.37646 0.87041 0.0
H949 H 0.42147 0.31402 0.77479 0.0
H950 H 0.45905 0.35936 0.98996 0.0
H951 H 0.41273 0.29737 0.8947 0.0
H952 H 0.3953 0.29338 0.15694 0.0
H953 H 0.3979 0.30433 0.02971 0.0
H954 H 0.46699 0.32632 0.03123 0.0
H955 H 0.46455 0.31514 0.15722 0.0
C956 C 0.45497 0.35929 0.875 0.0
C957 C 0.44476 0.34678 0.81298 0.0
C958 C 0.4504 0.34952 0.9432 0.0
C959 C 0.43542 0.32708 0.95081 0.0
C960 C 0.42424 0.31474 0.8898 0.0
C961 C 0.42906 0.32444 0.8212 0.0
C962 C 0.4109 0.2999 0.12952 0.0
C963 C 0.42982 0.3038 0.16762 0.0
C964 C 0.41235 0.30622 0.05694 0.0
C965 C 0.43273 0.31662 0.02201 0.0
C966 C 0.45119 0.3187 0.05792 0.0
C967 C 0.44972 0.31217 0.12987 0.0
H968 H 0.10124 0.39666 0.48377 0.0
H969 H 0.15266 0.46444 0.48998 0.0
H970 H 0.09669 0.39992 0.35413 0.0
H971 H 0.14752 0.46797 0.36233 0.0
H972 H 0.14019 0.47067 0.12744 0.0
H973 H 0.14954 0.46001 0.24136 0.0
H974 H 0.08066 0.41686 0.28508 0.0
H975 H 0.07162 0.42664 0.16777 0.0
C976 C 0.1119 0.4121 0.45725 0.0
C977 C 0.12705 0.4304 0.4974 0.0
C978 C 0.1091 0.41404 0.38311 0.0
C979 C 0.12138 0.43431 0.34791 0.0
C980 C 0.13781 0.45204 0.38711 0.0
C981 C 0.14071 0.45006 0.4608 0.0
C982 C 0.12713 0.45871 0.16128 0.0
C983 C 0.10521 0.44966 0.14008 0.0
C984 C 0.13244 0.45265 0.22662 0.0
C985 C 0.11588 0.43782 0.27316 0.0
C986 C 0.09388 0.42815 0.25036 0.0
C987 C 0.08861 0.4339 0.18385 0.0
H988 H 0.68463 0.10647 0.44467 0.0
H989 H 0.62241 0.09082 0.53946 0.0
H990 H 0.70123 0.1144 0.56468 0.0
H991 H 0.63945 0.09976 0.65911 0.0
H992 H 0.68376 0.14912 0.82689 0.0
H993 H 0.67231 0.14019 0.70117 0.0
H994 H 0.69459 0.0933 0.69912 0.0
H995 H 0.70583 0.10185 0.82608 0.0
C996 C 0.67424 0.10387 0.49094 0.0
C997 C 0.65199 0.09754 0.48243 0.0
C998 C 0.68391 0.10877 0.55961 0.0
C999 C 0.67164 0.10792 0.62042 0.0
C1000 C 0.64927 0.10074 0.61254 0.0
C1001 C 0.63952 0.09552 0.54427 0.0
C1002 C 0.68673 0.13726 0.79948 0.0
C1003 C 0.6953 0.12586 0.83702 0.0
C1004 C 0.68003 0.13208 0.72768 0.0
C1005 C 0.68213 0.11572 0.69167 0.0
C1006 C 0.69267 0.10584 0.7264 0.0
C1007 C 0.69916 0.11083 0.79883 0.0
loop_
_geom_bond_atom_site_label_1
_geom_bond_atom_site_label_2
_geom_bond_distance
_geom_bond_site_symmetry_2
_ccdc_geom_bond_type
Co0 O3 1.970 . S
Co0 N17 1.989 . S
Co0 O25 1.967 . S
Co0 O32 1.920 . S
Co1 O4 1.966 . S
Co1 N10 2.022 . S
Co1 N18 1.993 . S
Co1 O26 1.941 . S
C2 O3 1.258 . S
C2 O4 1.263 . S
O3 Co0 1.970 . S
O3 C2 1.258 . S
O4 Co1 1.966 . S
O4 C2 1.263 . S
C5 O6 1.235 . S
C5 O32 1.289 . S
O6 C5 1.235 . S
C7 C9 1.400 . S
C7 N10 1.351 1_556 S
C7 C12 1.501 1_556 S
C8 C9 1.387 . S
C8 N11 1.341 . S
C9 C7 1.400 . S
C9 C8 1.387 . S
N10 Co1 2.022 . S
N10 C7 1.351 1_554 S
N10 N11 1.365 1_554 S
N11 C8 1.341 . S
N11 N10 1.365 1_556 S
N11 H31 0.862 . S
C12 C7 1.501 1_554 S
C12 H13 0.961 . S
C12 H14 0.961 1_554 S
C12 H15 0.960 1_554 S
H13 C12 0.961 . S
H14 C12 0.961 1_556 S
H15 C12 0.960 1_556 S
C16 N17 1.342 . S
C16 C20 1.401 . S
C16 C21 1.499 . S
N17 Co0 1.989 . S
N17 C16 1.342 . S
N17 N18 1.388 . S
N18 Co1 1.993 . S
N18 N17 1.388 . S
N18 C19 1.346 . S
C19 N18 1.346 . S
C19 C20 1.396 . S
C19 C29 1.510 . S
C20 C16 1.401 . S
C20 C19 1.396 . S
C21 C16 1.499 . S
C21 H22 0.959 . S
C21 H23 0.960 . S
C21 H24 0.961 . S
H22 C21 0.959 . S
H23 C21 0.960 . S
H24 C21 0.961 . S
O25 Co0 1.967 . S
O25 C33 1.258 . S
O26 Co1 1.941 . S
O26 C33 1.266 . S
H27 C29 0.959 . S
H28 C29 0.961 . S
C29 C19 1.510 . S
C29 H27 0.959 . S
C29 H28 0.961 . S
C29 H30 0.960 . S
H30 C29 0.960 . S
H31 N11 0.862 . S
O32 Co0 1.920 . S
O32 C5 1.289 . S
C33 O25 1.258 . S
C33 O26 1.266 . S
Co34 O37 1.970 . S
Co34 N51 1.989 . S
Co34 O59 1.967 . S
Co34 O66 1.920 . S
Co35 O38 1.966 . S
Co35 N44 2.022 . S
Co35 N52 1.993 . S
Co35 O60 1.941 . S
C36 O37 1.258 . S
C36 O38 1.263 . S
O37 Co34 1.970 . S
O37 C36 1.258 . S
O38 Co35 1.966 . S
O38 C36 1.263 . S
C39 O40 1.235 . S
C39 O66 1.289 . S
O40 C39 1.235 . S
C41 C43 1.400 . S
C41 N44 1.351 . S
C41 C46 1.501 . S
C42 C43 1.387 . S
C42 N45 1.341 . S
C43 C41 1.400 . S
C43 C42 1.387 . S
N44 Co35 2.022 . S
N44 C41 1.351 . S
N44 N45 1.365 . S
N45 C42 1.341 . S
N45 N44 1.365 . S
N45 H65 0.862 . S
C46 C41 1.501 . S
C46 H47 0.961 . S
C46 H48 0.961 . S
C46 H49 0.960 . S
H47 C46 0.961 . S
H48 C46 0.961 . S
H49 C46 0.960 . S
C50 N51 1.342 . S
C50 C54 1.401 . S
C50 C55 1.499 . S
N51 Co34 1.989 . S
N51 C50 1.342 . S
N51 N52 1.388 . S
N52 Co35 1.993 . S
N52 N51 1.388 . S
N52 C53 1.346 . S
C53 N52 1.346 . S
C53 C54 1.396 . S
C53 C63 1.510 . S
C54 C50 1.401 . S
C54 C53 1.396 . S
C55 C50 1.499 . S
C55 H56 0.959 . S
C55 H57 0.960 . S
C55 H58 0.961 . S
H56 C55 0.959 . S
H57 C55 0.960 . S
H58 C55 0.961 . S
O59 Co34 1.967 . S
O59 C67 1.258 . S
O60 Co35 1.941 . S
O60 C67 1.266 . S
H61 C63 0.959 . S
H62 C63 0.961 . S
C63 C53 1.510 . S
C63 H61 0.959 . S
C63 H62 0.961 . S
C63 H64 0.960 . S
H64 C63 0.960 . S
H65 N45 0.862 . S
O66 Co34 1.920 . S
O66 C39 1.289 . S
C67 O59 1.258 . S
C67 O60 1.266 . S
Co68 O71 1.970 . S
Co68 N85 1.989 . S
Co68 O93 1.967 . S
Co68 O100 1.920 1_556 S
Co69 O72 1.966 . S
Co69 N78 2.022 . S
Co69 N86 1.993 . S
Co69 O94 1.941 . S
C70 O71 1.258 . S
C70 O72 1.263 . S
O71 Co68 1.970 . S
O71 C70 1.258 . S
O72 Co69 1.966 . S
O72 C70 1.263 . S
C73 O74 1.235 . S
C73 O100 1.289 . S
O74 C73 1.235 . S
C75 C77 1.400 . S
C75 N78 1.351 . S
C75 C80 1.501 . S
C76 C77 1.387 . S
C76 N79 1.341 . S
C77 C75 1.400 . S
C77 C76 1.387 . S
N78 Co69 2.022 . S
N78 C75 1.351 . S
N78 N79 1.365 . S
N79 C76 1.341 . S
N79 N78 1.365 . S
N79 H99 0.862 . S
C80 C75 1.501 . S
C80 H81 0.961 . S
C80 H82 0.961 . S
C80 H83 0.960 . S
H81 C80 0.961 . S
H82 C80 0.961 . S
H83 C80 0.960 . S
C84 N85 1.342 . S
C84 C88 1.401 . S
C84 C89 1.499 . S
N85 Co68 1.989 . S
N85 C84 1.342 . S
N85 N86 1.388 . S
N86 Co69 1.993 . S
N86 N85 1.388 . S
N86 C87 1.346 . S
C87 N86 1.346 . S
C87 C88 1.396 . S
C87 C97 1.510 . S
C88 C84 1.401 . S
C88 C87 1.396 . S
C89 C84 1.499 . S
C89 H90 0.959 1_556 S
C89 H91 0.960 . S
C89 H92 0.961 . S
H90 C89 0.959 1_554 S
H91 C89 0.960 . S
H92 C89 0.961 . S
O93 Co68 1.967 . S
O93 C101 1.258 . S
O94 Co69 1.941 . S
O94 C101 1.266 . S
H95 C97 0.959 . S
H96 C97 0.961 . S
C97 C87 1.510 . S
C97 H95 0.959 . S
C97 H96 0.961 . S
C97 H98 0.960 . S
H98 C97 0.960 . S
H99 N79 0.862 . S
O100 Co68 1.920 1_554 S
O100 C73 1.289 . S
C101 O93 1.258 . S
C101 O94 1.266 . S
Co102 O105 1.970 . S
Co102 N119 1.989 . S
Co102 O127 1.967 . S
Co102 O134 1.920 . S
Co103 O106 1.966 . S
Co103 N112 2.022 . S
Co103 N120 1.993 . S
Co103 O128 1.941 . S
C104 O105 1.258 . S
C104 O106 1.263 . S
O105 Co102 1.970 . S
O105 C104 1.258 . S
O106 Co103 1.966 . S
O106 C104 1.263 . S
C107 O108 1.235 . S
C107 O134 1.289 . S
O108 C107 1.235 . S
C109 C111 1.400 . S
C109 N112 1.351 1_556 S
C109 C114 1.501 1_556 S
C110 C111 1.387 . S
C110 N113 1.341 . S
C111 C109 1.400 . S
C111 C110 1.387 . S
N112 Co103 2.022 . S
N112 C109 1.351 1_554 S
N112 N113 1.365 1_554 S
N113 C110 1.341 . S
N113 N112 1.365 1_556 S
N113 H133 0.862 . S
C114 C109 1.501 1_554 S
C114 H115 0.961 . S
C114 H116 0.961 1_554 S
C114 H117 0.960 1_554 S
H115 C114 0.961 . S
H116 C114 0.961 1_556 S
H117 C114 0.960 1_556 S
C118 N119 1.342 . S
C118 C122 1.401 . S
C118 C123 1.499 . S
N119 Co102 1.989 . S
N119 C118 1.342 . S
N119 N120 1.388 . S
N120 Co103 1.993 . S
N120 N119 1.388 . S
N120 C121 1.346 . S
C121 N120 1.346 . S
C121 C122 1.396 . S
C121 C131 1.510 . S
C122 C118 1.401 . S
C122 C121 1.396 . S
C123 C118 1.499 . S
C123 H124 0.959 . S
C123 H125 0.960 . S
C123 H126 0.961 . S
H124 C123 0.959 . S
H125 C123 0.960 . S
H126 C123 0.961 . S
O127 Co102 1.967 . S
O127 C135 1.258 . S
O128 Co103 1.941 . S
O128 C135 1.266 . S
H129 C131 0.959 . S
H130 C131 0.961 . S
C131 C121 1.510 . S
C131 H129 0.959 . S
C131 H130 0.961 . S
C131 H132 0.960 . S
H132 C131 0.960 . S
H133 N113 0.862 . S
O134 Co102 1.920 . S
O134 C107 1.289 . S
C135 O127 1.258 . S
C135 O128 1.266 . S
Co136 O139 1.970 . S
Co136 N153 1.989 . S
Co136 O161 1.967 . S
Co136 O168 1.920 . S
Co137 O140 1.966 . S
Co137 N146 2.022 . S
Co137 N154 1.993 . S
Co137 O162 1.941 . S
C138 O139 1.258 . S
C138 O140 1.263 . S
O139 Co136 1.970 . S
O139 C138 1.258 . S
O140 Co137 1.966 . S
O140 C138 1.263 . S
C141 O142 1.235 . S
C141 O168 1.289 . S
O142 C141 1.235 . S
C143 C145 1.400 . S
C143 N146 1.351 . S
C143 C148 1.501 . S
C144 C145 1.387 . S
C144 N147 1.341 . S
C145 C143 1.400 . S
C145 C144 1.387 . S
N146 Co137 2.022 . S
N146 C143 1.351 . S
N146 N147 1.365 . S
N147 C144 1.341 . S
N147 N146 1.365 . S
N147 H167 0.862 . S
C148 C143 1.501 . S
C148 H149 0.961 . S
C148 H150 0.961 . S
C148 H151 0.960 . S
H149 C148 0.961 . S
H150 C148 0.961 . S
H151 C148 0.960 . S
C152 N153 1.342 . S
C152 C156 1.401 . S
C152 C157 1.499 . S
N153 Co136 1.989 . S
N153 C152 1.342 . S
N153 N154 1.388 . S
N154 Co137 1.993 . S
N154 N153 1.388 . S
N154 C155 1.346 . S
C155 N154 1.346 . S
C155 C156 1.396 . S
C155 C165 1.510 . S
C156 C152 1.401 . S
C156 C155 1.396 . S
C157 C152 1.499 . S
C157 H158 0.959 . S
C157 H159 0.960 . S
C157 H160 0.961 . S
H158 C157 0.959 . S
H159 C157 0.960 . S
H160 C157 0.961 . S
O161 Co136 1.967 . S
O161 C169 1.258 . S
O162 Co137 1.941 . S
O162 C169 1.266 . S
H163 C165 0.959 . S
H164 C165 0.961 . S
C165 C155 1.510 . S
C165 H163 0.959 . S
C165 H164 0.961 . S
C165 H166 0.960 . S
H166 C165 0.960 . S
H167 N147 0.862 . S
O168 Co136 1.920 . S
O168 C141 1.289 . S
C169 O161 1.258 . S
C169 O162 1.266 . S
Co170 O173 1.970 . S
Co170 N187 1.989 . S
Co170 O195 1.967 . S
Co170 O202 1.920 1_556 S
Co171 O174 1.966 . S
Co171 N180 2.022 . S
Co171 N188 1.993 . S
Co171 O196 1.941 . S
C172 O173 1.258 . S
C172 O174 1.263 . S
O173 Co170 1.970 . S
O173 C172 1.258 . S
O174 Co171 1.966 . S
O174 C172 1.263 . S
C175 O176 1.235 . S
C175 O202 1.289 . S
O176 C175 1.235 . S
C177 C179 1.400 . S
C177 N180 1.351 . S
C177 C182 1.501 . S
C178 C179 1.387 . S
C178 N181 1.341 . S
C179 C177 1.400 . S
C179 C178 1.387 . S
N180 Co171 2.022 . S
N180 C177 1.351 . S
N180 N181 1.365 . S
N181 C178 1.341 . S
N181 N180 1.365 . S
N181 H201 0.862 . S
C182 C177 1.501 . S
C182 H183 0.961 . S
C182 H184 0.961 . S
C182 H185 0.960 . S
H183 C182 0.961 . S
H184 C182 0.961 . S
H185 C182 0.960 . S
C186 N187 1.342 . S
C186 C190 1.401 . S
C186 C191 1.499 . S
N187 Co170 1.989 . S
N187 C186 1.342 . S
N187 N188 1.388 . S
N188 Co171 1.993 . S
N188 N187 1.388 . S
N188 C189 1.346 . S
C189 N188 1.346 . S
C189 C190 1.396 . S
C189 C199 1.510 . S
C190 C186 1.401 . S
C190 C189 1.396 . S
C191 C186 1.499 . S
C191 H192 0.959 1_556 S
C191 H193 0.960 . S
C191 H194 0.961 . S
H192 C191 0.959 1_554 S
H193 C191 0.960 . S
H194 C191 0.961 . S
O195 Co170 1.967 . S
O195 C203 1.258 . S
O196 Co171 1.941 . S
O196 C203 1.266 . S
H197 C199 0.959 . S
H198 C199 0.961 . S
C199 C189 1.510 . S
C199 H197 0.959 . S
C199 H198 0.961 . S
C199 H200 0.960 . S
H200 C199 0.960 . S
H201 N181 0.862 . S
O202 Co170 1.920 1_554 S
O202 C175 1.289 . S
C203 O195 1.258 . S
C203 O196 1.266 . S
Co204 O207 1.970 . S
Co204 N221 1.989 . S
Co204 O229 1.967 . S
Co204 O236 1.920 . S
Co205 O208 1.966 . S
Co205 N214 2.022 . S
Co205 N222 1.993 . S
Co205 O230 1.941 . S
C206 O207 1.258 . S
C206 O208 1.263 . S
O207 Co204 1.970 . S
O207 C206 1.258 . S
O208 Co205 1.966 . S
O208 C206 1.263 . S
C209 O210 1.235 . S
C209 O236 1.289 . S
O210 C209 1.235 . S
C211 C213 1.400 . S
C211 N214 1.351 . S
C211 C216 1.501 . S
C212 C213 1.387 . S
C212 N215 1.341 . S
C213 C211 1.400 . S
C213 C212 1.387 . S
N214 Co205 2.022 . S
N214 C211 1.351 . S
N214 N215 1.365 . S
N215 C212 1.341 . S
N215 N214 1.365 . S
N215 H235 0.862 . S
C216 C211 1.501 . S
C216 H217 0.961 . S
C216 H218 0.961 . S
C216 H219 0.960 . S
H217 C216 0.961 . S
H218 C216 0.961 . S
H219 C216 0.960 . S
C220 N221 1.342 . S
C220 C224 1.401 . S
C220 C225 1.499 . S
N221 Co204 1.989 . S
N221 C220 1.342 . S
N221 N222 1.388 . S
N222 Co205 1.993 . S
N222 N221 1.388 . S
N222 C223 1.346 . S
C223 N222 1.346 . S
C223 C224 1.396 . S
C223 C233 1.510 . S
C224 C220 1.401 . S
C224 C223 1.396 . S
C225 C220 1.499 . S
C225 H226 0.959 . S
C225 H227 0.960 . S
C225 H228 0.961 . S
H226 C225 0.959 . S
H227 C225 0.960 . S
H228 C225 0.961 . S
O229 Co204 1.967 . S
O229 C237 1.258 . S
O230 Co205 1.941 . S
O230 C237 1.266 . S
H231 C233 0.959 . S
H232 C233 0.961 . S
C233 C223 1.510 . S
C233 H231 0.959 . S
C233 H232 0.961 . S
C233 H234 0.960 . S
H234 C233 0.960 . S
H235 N215 0.862 . S
O236 Co204 1.920 . S
O236 C209 1.289 . S
C237 O229 1.258 . S
C237 O230 1.266 . S
Co238 O241 1.970 . S
Co238 N255 1.989 . S
Co238 O263 1.967 . S
Co238 O270 1.920 . S
Co239 O242 1.966 . S
Co239 N248 2.022 . S
Co239 N256 1.993 . S
Co239 O264 1.941 . S
C240 O241 1.258 . S
C240 O242 1.263 . S
O241 Co238 1.970 . S
O241 C240 1.258 . S
O242 Co239 1.966 . S
O242 C240 1.263 . S
C243 O244 1.235 . S
C243 O270 1.289 . S
O244 C243 1.235 . S
C245 C247 1.400 . S
C245 N248 1.351 1_554 S
C245 C250 1.501 1_554 S
C246 C247 1.387 . S
C246 N249 1.341 . S
C247 C245 1.400 . S
C247 C246 1.387 . S
N248 Co239 2.022 . S
N248 C245 1.351 1_556 S
N248 N249 1.365 1_556 S
N249 C246 1.341 . S
N249 N248 1.365 1_554 S
N249 H269 0.862 . S
C250 C245 1.501 1_556 S
C250 H251 0.961 . S
C250 H252 0.961 1_556 S
C250 H253 0.960 1_556 S
H251 C250 0.961 . S
H252 C250 0.961 1_554 S
H253 C250 0.960 1_554 S
C254 N255 1.342 . S
C254 C258 1.401 . S
C254 C259 1.499 . S
N255 Co238 1.989 . S
N255 C254 1.342 . S
N255 N256 1.388 . S
N256 Co239 1.993 . S
N256 N255 1.388 . S
N256 C257 1.346 . S
C257 N256 1.346 . S
C257 C258 1.396 . S
C257 C267 1.510 . S
C258 C254 1.401 . S
C258 C257 1.396 . S
C259 C254 1.499 . S
C259 H260 0.959 . S
C259 H261 0.960 . S
C259 H262 0.961 . S
H260 C259 0.959 . S
H261 C259 0.960 . S
H262 C259 0.961 . S
O263 Co238 1.967 . S
O263 C271 1.258 . S
O264 Co239 1.941 . S
O264 C271 1.266 . S
H265 C267 0.959 . S
H266 C267 0.961 . S
C267 C257 1.510 . S
C267 H265 0.959 . S
C267 H266 0.961 . S
C267 H268 0.960 . S
H268 C267 0.960 . S
H269 N249 0.862 . S
O270 Co238 1.920 . S
O270 C243 1.289 . S
C271 O263 1.258 . S
C271 O264 1.266 . S
Co272 O275 1.970 . S
Co272 N289 1.989 . S
Co272 O297 1.967 . S
Co272 O304 1.920 1_554 S
Co273 O276 1.966 . S
Co273 N282 2.022 . S
Co273 N290 1.993 . S
Co273 O298 1.941 . S
C274 O275 1.258 . S
C274 O276 1.263 . S
O275 Co272 1.970 . S
O275 C274 1.258 . S
O276 Co273 1.966 . S
O276 C274 1.263 . S
C277 O278 1.235 . S
C277 O304 1.289 . S
O278 C277 1.235 . S
C279 C281 1.400 . S
C279 N282 1.351 . S
C279 C284 1.501 . S
C280 C281 1.387 . S
C280 N283 1.341 . S
C281 C279 1.400 . S
C281 C280 1.387 . S
N282 Co273 2.022 . S
N282 C279 1.351 . S
N282 N283 1.365 . S
N283 C280 1.341 . S
N283 N282 1.365 . S
N283 H303 0.862 . S
C284 C279 1.501 . S
C284 H285 0.961 . S
C284 H286 0.961 . S
C284 H287 0.960 . S
H285 C284 0.961 . S
H286 C284 0.961 . S
H287 C284 0.960 . S
C288 N289 1.342 . S
C288 C292 1.401 . S
C288 C293 1.499 . S
N289 Co272 1.989 . S
N289 C288 1.342 . S
N289 N290 1.388 . S
N290 Co273 1.993 . S
N290 N289 1.388 . S
N290 C291 1.346 . S
C291 N290 1.346 . S
C291 C292 1.396 . S
C291 C301 1.510 . S
C292 C288 1.401 . S
C292 C291 1.396 . S
C293 C288 1.499 . S
C293 H294 0.959 1_554 S
C293 H295 0.960 . S
C293 H296 0.961 . S
H294 C293 0.959 1_556 S
H295 C293 0.960 . S
H296 C293 0.961 . S
O297 Co272 1.967 . S
O297 C305 1.258 . S
O298 Co273 1.941 . S
O298 C305 1.266 . S
H299 C301 0.959 . S
H300 C301 0.961 . S
C301 C291 1.510 . S
C301 H299 0.959 . S
C301 H300 0.961 . S
C301 H302 0.960 . S
H302 C301 0.960 . S
H303 N283 0.862 . S
O304 Co272 1.920 1_556 S
O304 C277 1.289 . S
C305 O297 1.258 . S
C305 O298 1.266 . S
Co306 O309 1.970 . S
Co306 N323 1.989 . S
Co306 O331 1.967 . S
Co306 O338 1.920 . S
Co307 O310 1.966 . S
Co307 N316 2.022 . S
Co307 N324 1.993 . S
Co307 O332 1.941 . S
C308 O309 1.258 . S
C308 O310 1.263 . S
O309 Co306 1.970 . S
O309 C308 1.258 . S
O310 Co307 1.966 . S
O310 C308 1.263 . S
C311 O312 1.235 . S
C311 O338 1.289 . S
O312 C311 1.235 . S
C313 C315 1.400 . S
C313 N316 1.351 . S
C313 C318 1.501 . S
C314 C315 1.387 . S
C314 N317 1.341 . S
C315 C313 1.400 . S
C315 C314 1.387 . S
N316 Co307 2.022 . S
N316 C313 1.351 . S
N316 N317 1.365 . S
N317 C314 1.341 . S
N317 N316 1.365 . S
N317 H337 0.862 . S
C318 C313 1.501 . S
C318 H319 0.961 . S
C318 H320 0.961 . S
C318 H321 0.960 . S
H319 C318 0.961 . S
H320 C318 0.961 . S
H321 C318 0.960 . S
C322 N323 1.342 . S
C322 C326 1.401 . S
C322 C327 1.499 . S
N323 Co306 1.989 . S
N323 C322 1.342 . S
N323 N324 1.388 . S
N324 Co307 1.993 . S
N324 N323 1.388 . S
N324 C325 1.346 . S
C325 N324 1.346 . S
C325 C326 1.396 . S
C325 C335 1.510 . S
C326 C322 1.401 . S
C326 C325 1.396 . S
C327 C322 1.499 . S
C327 H328 0.959 . S
C327 H329 0.960 . S
C327 H330 0.961 . S
H328 C327 0.959 . S
H329 C327 0.960 . S
H330 C327 0.961 . S
O331 Co306 1.967 . S
O331 C339 1.258 . S
O332 Co307 1.941 . S
O332 C339 1.266 . S
H333 C335 0.959 . S
H334 C335 0.961 . S
C335 C325 1.510 . S
C335 H333 0.959 . S
C335 H334 0.961 . S
C335 H336 0.960 . S
H336 C335 0.960 . S
H337 N317 0.862 . S
O338 Co306 1.920 . S
O338 C311 1.289 . S
C339 O331 1.258 . S
C339 O332 1.266 . S
Co340 O343 1.970 . S
Co340 N357 1.989 . S
Co340 O365 1.967 . S
Co340 O372 1.920 . S
Co341 O344 1.966 . S
Co341 N350 2.022 . S
Co341 N358 1.993 . S
Co341 O366 1.941 . S
C342 O343 1.258 . S
C342 O344 1.263 . S
O343 Co340 1.970 . S
O343 C342 1.258 . S
O344 Co341 1.966 . S
O344 C342 1.263 . S
C345 O346 1.235 . S
C345 O372 1.289 . S
O346 C345 1.235 . S
C347 C349 1.400 . S
C347 N350 1.351 1_554 S
C347 C352 1.501 1_554 S
C348 C349 1.387 . S
C348 N351 1.341 . S
C349 C347 1.400 . S
C349 C348 1.387 . S
N350 Co341 2.022 . S
N350 C347 1.351 1_556 S
N350 N351 1.365 1_556 S
N351 C348 1.341 . S
N351 N350 1.365 1_554 S
N351 H371 0.862 . S
C352 C347 1.501 1_556 S
C352 H353 0.961 . S
C352 H354 0.961 1_556 S
C352 H355 0.960 1_556 S
H353 C352 0.961 . S
H354 C352 0.961 1_554 S
H355 C352 0.960 1_554 S
C356 N357 1.342 . S
C356 C360 1.401 . S
C356 C361 1.499 . S
N357 Co340 1.989 . S
N357 C356 1.342 . S
N357 N358 1.388 . S
N358 Co341 1.993 . S
N358 N357 1.388 . S
N358 C359 1.346 . S
C359 N358 1.346 . S
C359 C360 1.396 . S
C359 C369 1.510 . S
C360 C356 1.401 . S
C360 C359 1.396 . S
C361 C356 1.499 . S
C361 H362 0.959 . S
C361 H363 0.960 . S
C361 H364 0.961 . S
H362 C361 0.959 . S
H363 C361 0.960 . S
H364 C361 0.961 . S
O365 Co340 1.967 . S
O365 C373 1.258 . S
O366 Co341 1.941 . S
O366 C373 1.266 . S
H367 C369 0.959 . S
H368 C369 0.961 . S
C369 C359 1.510 . S
C369 H367 0.959 . S
C369 H368 0.961 . S
C369 H370 0.960 . S
H370 C369 0.960 . S
H371 N351 0.862 . S
O372 Co340 1.920 . S
O372 C345 1.289 . S
C373 O365 1.258 . S
C373 O366 1.266 . S
Co374 O377 1.970 . S
Co374 N391 1.989 . S
Co374 O399 1.967 . S
Co374 O406 1.920 1_554 S
Co375 O378 1.966 . S
Co375 N384 2.022 . S
Co375 N392 1.993 . S
Co375 O400 1.941 . S
C376 O377 1.258 . S
C376 O378 1.263 . S
O377 Co374 1.970 . S
O377 C376 1.258 . S
O378 Co375 1.966 . S
O378 C376 1.263 . S
C379 O380 1.235 . S
C379 O406 1.289 . S
O380 C379 1.235 . S
C381 C383 1.400 . S
C381 N384 1.351 . S
C381 C386 1.501 . S
C382 C383 1.387 . S
C382 N385 1.341 . S
C383 C381 1.400 . S
C383 C382 1.387 . S
N384 Co375 2.022 . S
N384 C381 1.351 . S
N384 N385 1.365 . S
N385 C382 1.341 . S
N385 N384 1.365 . S
N385 H405 0.862 . S
C386 C381 1.501 . S
C386 H387 0.961 . S
C386 H388 0.961 . S
C386 H389 0.960 . S
H387 C386 0.961 . S
H388 C386 0.961 . S
H389 C386 0.960 . S
C390 N391 1.342 . S
C390 C394 1.401 . S
C390 C395 1.499 . S
N391 Co374 1.989 . S
N391 C390 1.342 . S
N391 N392 1.388 . S
N392 Co375 1.993 . S
N392 N391 1.388 . S
N392 C393 1.346 . S
C393 N392 1.346 . S
C393 C394 1.396 . S
C393 C403 1.510 . S
C394 C390 1.401 . S
C394 C393 1.396 . S
C395 C390 1.499 . S
C395 H396 0.959 1_554 S
C395 H397 0.960 . S
C395 H398 0.961 . S
H396 C395 0.959 1_556 S
H397 C395 0.960 . S
H398 C395 0.961 . S
O399 Co374 1.967 . S
O399 C407 1.258 . S
O400 Co375 1.941 . S
O400 C407 1.266 . S
H401 C403 0.959 . S
H402 C403 0.961 . S
C403 C393 1.510 . S
C403 H401 0.959 . S
C403 H402 0.961 . S
C403 H404 0.960 . S
H404 C403 0.960 . S
H405 N385 0.862 . S
O406 Co374 1.920 1_556 S
O406 C379 1.289 . S
C407 O399 1.258 . S
C407 O400 1.266 . S
H408 C416 0.950 . S
H409 C421 0.950 . S
H410 C418 0.950 1_556 S
H411 C420 0.950 . S
H412 C422 0.950 . S
H413 C424 0.950 1_554 S
H414 C426 0.950 . S
H415 C427 0.950 . S
C416 H408 0.950 . S
C416 C417 1.386 . S
C416 C418 1.391 . S
C417 C416 1.386 . S
C417 C421 1.393 . S
C418 H410 0.950 1_554 S
C418 C416 1.391 . S
C418 C419 1.400 . S
C419 C418 1.400 . S
C419 C420 1.398 . S
C419 C425 1.491 1_554 S
C420 H411 0.950 . S
C420 C419 1.398 . S
C420 C421 1.391 . S
C421 H409 0.950 . S
C421 C417 1.393 . S
C421 C420 1.391 . S
C422 H412 0.950 . S
C422 C423 1.386 . S
C422 C424 1.391 . S
C423 C422 1.386 . S
C423 C427 1.393 . S
C424 H413 0.950 1_556 S
C424 C422 1.391 . S
C424 C425 1.400 . S
C425 C419 1.491 1_556 S
C425 C424 1.400 . S
C425 C426 1.398 . S
C426 H414 0.950 . S
C426 C425 1.398 . S
C426 C427 1.391 . S
C427 H415 0.950 . S
C427 C423 1.393 . S
C427 C426 1.391 . S
H428 C436 0.950 . S
H429 C441 0.950 . S
H430 C438 0.950 . S
H431 C440 0.950 . S
H432 C442 0.950 . S
H433 C444 0.950 . S
H434 C446 0.950 . S
H435 C447 0.950 . S
C436 H428 0.950 . S
C436 C437 1.386 . S
C436 C438 1.391 . S
C437 C436 1.386 . S
C437 C441 1.393 . S
C438 H430 0.950 . S
C438 C436 1.391 . S
C438 C439 1.400 . S
C439 C438 1.400 . S
C439 C440 1.398 . S
C439 C445 1.491 . S
C440 H431 0.950 . S
C440 C439 1.398 . S
C440 C441 1.391 . S
C441 H429 0.950 . S
C441 C437 1.393 . S
C441 C440 1.391 . S
C442 H432 0.950 . S
C442 C443 1.386 . S
C442 C444 1.391 . S
C443 C442 1.386 . S
C443 C447 1.393 . S
C444 H433 0.950 . S
C444 C442 1.391 . S
C444 C445 1.400 . S
C445 C439 1.491 . S
C445 C444 1.400 . S
C445 C446 1.398 . S
C446 H434 0.950 . S
C446 C445 1.398 . S
C446 C447 1.391 . S
C447 H435 0.950 . S
C447 C443 1.393 . S
C447 C446 1.391 . S
H448 C456 0.950 . S
H449 C461 0.950 . S
H450 C458 0.950 . S
H451 C460 0.950 . S
H452 C462 0.950 . S
H453 C464 0.950 . S
H454 C466 0.950 . S
H455 C467 0.950 . S
C456 H448 0.950 . S
C456 C457 1.386 . S
C456 C458 1.391 . S
C457 C456 1.386 . S
C457 C461 1.393 . S
C458 H450 0.950 . S
C458 C456 1.391 . S
C458 C459 1.400 . S
C459 C458 1.400 . S
C459 C460 1.398 . S
C459 C465 1.491 . S
C460 H451 0.950 . S
C460 C459 1.398 . S
C460 C461 1.391 . S
C461 H449 0.950 . S
C461 C457 1.393 . S
C461 C460 1.391 . S
C462 H452 0.950 . S
C462 C463 1.386 . S
C462 C464 1.391 . S
C463 C462 1.386 . S
C463 C467 1.393 . S
C464 H453 0.950 . S
C464 C462 1.391 . S
C464 C465 1.400 . S
C465 C459 1.491 . S
C465 C464 1.400 . S
C465 C466 1.398 . S
C466 H454 0.950 . S
C466 C465 1.398 . S
C466 C467 1.391 . S
C467 H455 0.950 . S
C467 C463 1.393 . S
C467 C466 1.391 . S
H468 C476 0.950 . S
H469 C481 0.950 . S
H470 C478 0.946 1_554 S
H471 C480 0.950 . S
H472 C482 0.950 . S
H473 C484 0.946 1_556 S
H474 C486 0.950 . S
H475 C487 0.950 . S
C476 H468 0.950 . S
C476 C477 1.386 . S
C476 C478 1.393 . S
C477 C476 1.386 . S
C477 C481 1.393 . S
C478 H470 0.946 1_556 S
C478 C476 1.393 . S
C478 C479 1.401 . S
C479 C478 1.401 . S
C479 C480 1.398 . S
C479 C485 1.491 1_556 S
C480 H471 0.950 . S
C480 C479 1.398 . S
C480 C481 1.391 . S
C481 H469 0.950 . S
C481 C477 1.393 . S
C481 C480 1.391 . S
C482 H472 0.950 . S
C482 C483 1.386 . S
C482 C484 1.393 . S
C483 C482 1.386 . S
C483 C487 1.393 . S
C484 H473 0.946 1_554 S
C484 C482 1.393 . S
C484 C485 1.401 . S
C485 C479 1.491 1_554 S
C485 C484 1.401 . S
C485 C486 1.398 . S
C486 H474 0.950 . S
C486 C485 1.398 . S
C486 C487 1.391 . S
C487 H475 0.950 . S
C487 C483 1.393 . S
C487 C486 1.391 . S
H488 C496 0.950 . S
H489 C501 0.950 . S
H490 C498 0.950 . S
H491 C500 0.950 . S
H492 C502 0.950 . S
H493 C504 0.950 . S
H494 C506 0.950 . S
H495 C507 0.950 . S
C496 H488 0.950 . S
C496 C497 1.386 . S
C496 C498 1.391 . S
C497 C496 1.386 . S
C497 C501 1.393 . S
C498 H490 0.950 . S
C498 C496 1.391 . S
C498 C499 1.400 . S
C499 C498 1.400 . S
C499 C500 1.398 . S
C499 C505 1.491 . S
C500 H491 0.950 . S
C500 C499 1.398 . S
C500 C501 1.391 . S
C501 H489 0.950 . S
C501 C497 1.393 . S
C501 C500 1.391 . S
C502 H492 0.950 . S
C502 C503 1.386 . S
C502 C504 1.391 . S
C503 C502 1.386 . S
C503 C507 1.393 . S
C504 H493 0.950 . S
C504 C502 1.391 . S
C504 C505 1.400 . S
C505 C499 1.491 . S
C505 C504 1.400 . S
C505 C506 1.398 . S
C506 H494 0.950 . S
C506 C505 1.398 . S
C506 C507 1.391 . S
C507 H495 0.950 . S
C507 C503 1.393 . S
C507 C506 1.391 . S
H508 C516 0.950 . S
H509 C521 0.950 . S
H510 C518 0.950 . S
H511 C520 0.950 . S
H512 C522 0.950 . S
H513 C524 0.950 . S
H514 C526 0.950 . S
H515 C527 0.950 . S
C516 H508 0.950 . S
C516 C517 1.386 . S
C516 C518 1.391 . S
C517 C516 1.386 . S
C517 C521 1.393 . S
C518 H510 0.950 . S
C518 C516 1.391 . S
C518 C519 1.400 . S
C519 C518 1.400 . S
C519 C520 1.398 . S
C519 C525 1.491 . S
C520 H511 0.950 . S
C520 C519 1.398 . S
C520 C521 1.391 . S
C521 H509 0.950 . S
C521 C517 1.393 . S
C521 C520 1.391 . S
C522 H512 0.950 . S
C522 C523 1.386 . S
C522 C524 1.391 . S
C523 C522 1.386 . S
C523 C527 1.393 . S
C524 H513 0.950 . S
C524 C522 1.391 . S
C524 C525 1.400 . S
C525 C519 1.491 . S
C525 C524 1.400 . S
C525 C526 1.398 . S
C526 H514 0.950 . S
C526 C525 1.398 . S
C526 C527 1.391 . S
C527 H515 0.950 . S
C527 C523 1.393 . S
C527 C526 1.391 . S
H528 C536 0.950 . S
H529 C541 0.950 . S
H530 C538 0.950 . S
H531 C540 0.950 . S
H532 C542 0.950 . S
H533 C544 0.950 . S
H534 C546 0.950 . S
H535 C547 0.950 . S
C536 H528 0.950 . S
C536 C537 1.386 . S
C536 C538 1.391 . S
C537 C536 1.386 . S
C537 C541 1.393 . S
C538 H530 0.950 . S
C538 C536 1.391 . S
C538 C539 1.400 . S
C539 C538 1.400 . S
C539 C540 1.398 . S
C539 C545 1.491 . S
C540 H531 0.950 . S
C540 C539 1.398 . S
C540 C541 1.391 . S
C541 H529 0.950 . S
C541 C537 1.393 . S
C541 C540 1.391 . S
C542 H532 0.950 . S
C542 C543 1.386 . S
C542 C544 1.391 . S
C543 C542 1.386 . S
C543 C547 1.393 . S
C544 H533 0.950 . S
C544 C542 1.391 . S
C544 C545 1.400 . S
C545 C539 1.491 . S
C545 C544 1.400 . S
C545 C546 1.398 . S
C546 H534 0.950 . S
C546 C545 1.398 . S
C546 C547 1.391 . S
C547 H535 0.950 . S
C547 C543 1.393 . S
C547 C546 1.391 . S
H548 C556 0.950 . S
H549 C561 0.950 . S
H550 C558 0.950 . S
H551 C560 0.950 . S
H552 C562 0.950 . S
H553 C564 0.950 . S
H554 C566 0.950 . S
H555 C567 0.950 . S
C556 H548 0.950 . S
C556 C557 1.386 . S
C556 C558 1.391 . S
C557 C556 1.386 . S
C557 C561 1.393 . S
C558 H550 0.950 . S
C558 C556 1.391 . S
C558 C559 1.400 . S
C559 C558 1.400 . S
C559 C560 1.398 . S
C559 C565 1.491 . S
C560 H551 0.950 . S
C560 C559 1.398 . S
C560 C561 1.391 . S
C561 H549 0.950 . S
C561 C557 1.393 . S
C561 C560 1.391 . S
C562 H552 0.950 . S
C562 C563 1.386 . S
C562 C564 1.391 . S
C563 C562 1.386 . S
C563 C567 1.393 . S
C564 H553 0.950 . S
C564 C562 1.391 . S
C564 C565 1.400 . S
C565 C559 1.491 . S
C565 C564 1.400 . S
C565 C566 1.398 . S
C566 H554 0.950 . S
C566 C565 1.398 . S
C566 C567 1.391 . S
C567 H555 0.950 . S
C567 C563 1.393 . S
C567 C566 1.391 . S
H568 C576 0.941 1_554 S
H569 C581 0.950 . S
H570 C578 0.950 . S
H571 C580 0.950 . S
H572 C582 0.941 1_556 S
H573 C584 0.950 . S
H574 C586 0.950 . S
H575 C587 0.950 . S
C576 H568 0.941 1_556 S
C576 C577 1.400 . S
C576 C578 1.386 1_556 S
C577 C576 1.400 . S
C577 C581 1.393 . S
C578 H570 0.950 . S
C578 C576 1.386 1_554 S
C578 C579 1.400 1_554 S
C579 C578 1.400 1_556 S
C579 C580 1.398 . S
C579 C585 1.491 1_556 S
C580 H571 0.950 . S
C580 C579 1.398 . S
C580 C581 1.391 . S
C581 H569 0.950 . S
C581 C577 1.393 . S
C581 C580 1.391 . S
C582 H572 0.941 1_554 S
C582 C583 1.400 . S
C582 C584 1.386 1_554 S
C583 C582 1.400 . S
C583 C587 1.393 . S
C584 H573 0.950 . S
C584 C582 1.386 1_556 S
C584 C585 1.400 1_556 S
C585 C579 1.491 1_554 S
C585 C584 1.400 1_554 S
C585 C586 1.398 . S
C586 H574 0.950 . S
C586 C585 1.398 . S
C586 C587 1.391 . S
C587 H575 0.950 . S
C587 C583 1.393 . S
C587 C586 1.391 . S
H588 C596 0.950 . S
H589 C601 0.950 . S
H590 C598 0.950 . S
H591 C600 0.950 . S
H592 C602 0.950 . S
H593 C604 0.950 . S
H594 C606 0.950 . S
H595 C607 0.950 . S
C596 H588 0.950 . S
C596 C597 1.386 . S
C596 C598 1.391 . S
C597 C596 1.386 . S
C597 C601 1.393 . S
C598 H590 0.950 . S
C598 C596 1.391 . S
C598 C599 1.400 . S
C599 C598 1.400 . S
C599 C600 1.398 . S
C599 C605 1.491 . S
C600 H591 0.950 . S
C600 C599 1.398 . S
C600 C601 1.391 . S
C601 H589 0.950 . S
C601 C597 1.393 . S
C601 C600 1.391 . S
C602 H592 0.950 . S
C602 C603 1.386 . S
C602 C604 1.391 . S
C603 C602 1.386 . S
C603 C607 1.393 . S
C604 H593 0.950 . S
C604 C602 1.391 . S
C604 C605 1.400 . S
C605 C599 1.491 . S
C605 C604 1.400 . S
C605 C606 1.398 . S
C606 H594 0.950 . S
C606 C605 1.398 . S
C606 C607 1.391 . S
C607 H595 0.950 . S
C607 C603 1.393 . S
C607 C606 1.391 . S
H608 C616 0.950 . S
H609 C621 0.950 . S
H610 C618 0.950 . S
H611 C620 0.950 . S
H612 C622 0.950 . S
H613 C624 0.950 . S
H614 C626 0.950 . S
H615 C627 0.950 . S
C616 H608 0.950 . S
C616 C617 1.386 . S
C616 C618 1.391 . S
C617 C616 1.386 . S
C617 C621 1.393 . S
C618 H610 0.950 . S
C618 C616 1.391 . S
C618 C619 1.400 . S
C619 C618 1.400 . S
C619 C620 1.398 . S
C619 C625 1.491 . S
C620 H611 0.950 . S
C620 C619 1.398 . S
C620 C621 1.391 . S
C621 H609 0.950 . S
C621 C617 1.393 . S
C621 C620 1.391 . S
C622 H612 0.950 . S
C622 C623 1.386 . S
C622 C624 1.391 . S
C623 C622 1.386 . S
C623 C627 1.393 . S
C624 H613 0.950 . S
C624 C622 1.391 . S
C624 C625 1.400 . S
C625 C619 1.491 . S
C625 C624 1.400 . S
C625 C626 1.398 . S
C626 H614 0.950 . S
C626 C625 1.398 . S
C626 C627 1.391 . S
C627 H615 0.950 . S
C627 C623 1.393 . S
C627 C626 1.391 . S
H628 C636 0.950 . S
H629 C641 0.948 1_556 S
H630 C638 0.950 . S
H631 C640 0.950 . S
H632 C642 0.950 . S
H633 C644 0.950 . S
H634 C646 0.950 . S
H635 C647 0.948 1_554 S
C636 H628 0.950 . S
C636 C637 1.386 . S
C636 C638 1.391 . S
C637 C636 1.386 . S
C637 C641 1.396 . S
C638 H630 0.950 . S
C638 C636 1.391 . S
C638 C639 1.400 . S
C639 C638 1.400 . S
C639 C640 1.398 1_554 S
C639 C645 1.491 1_554 S
C640 H631 0.950 . S
C640 C639 1.398 1_556 S
C640 C641 1.389 1_556 S
C641 H629 0.948 1_554 S
C641 C637 1.396 . S
C641 C640 1.389 1_554 S
C642 H632 0.950 . S
C642 C643 1.386 . S
C642 C644 1.391 . S
C643 C642 1.386 . S
C643 C647 1.396 . S
C644 H633 0.950 . S
C644 C642 1.391 . S
C644 C645 1.400 . S
C645 C639 1.491 1_556 S
C645 C644 1.400 . S
C645 C646 1.398 1_556 S
C646 H634 0.950 . S
C646 C645 1.398 1_554 S
C646 C647 1.389 1_554 S
C647 H635 0.948 1_556 S
C647 C643 1.396 . S
C647 C646 1.389 1_556 S
H648 C656 0.950 . S
H649 C661 0.950 . S
H650 C658 0.950 . S
H651 C660 0.950 . S
H652 C662 0.950 . S
H653 C664 0.950 . S
H654 C666 0.950 . S
H655 C667 0.950 . S
C656 H648 0.950 . S
C656 C657 1.386 . S
C656 C658 1.391 . S
C657 C656 1.386 . S
C657 C661 1.393 . S
C658 H650 0.950 . S
C658 C656 1.391 . S
C658 C659 1.400 . S
C659 C658 1.400 . S
C659 C660 1.398 . S
C659 C665 1.491 . S
C660 H651 0.950 . S
C660 C659 1.398 . S
C660 C661 1.391 . S
C661 H649 0.950 . S
C661 C657 1.393 . S
C661 C660 1.391 . S
C662 H652 0.950 . S
C662 C663 1.386 . S
C662 C664 1.391 . S
C663 C662 1.386 . S
C663 C667 1.393 . S
C664 H653 0.950 . S
C664 C662 1.391 . S
C664 C665 1.400 . S
C665 C659 1.491 . S
C665 C664 1.400 . S
C665 C666 1.398 . S
C666 H654 0.950 . S
C666 C665 1.398 . S
C666 C667 1.391 . S
C667 H655 0.950 . S
C667 C663 1.393 . S
C667 C666 1.391 . S
H668 C676 0.950 . S
H669 C681 0.950 . S
H670 C678 0.950 . S
H671 C680 0.950 . S
H672 C682 0.950 . S
H673 C684 0.950 . S
H674 C686 0.950 . S
H675 C687 0.950 . S
C676 H668 0.950 . S
C676 C677 1.386 . S
C676 C678 1.391 . S
C677 C676 1.386 . S
C677 C681 1.393 . S
C678 H670 0.950 . S
C678 C676 1.391 . S
C678 C679 1.400 . S
C679 C678 1.400 . S
C679 C680 1.398 . S
C679 C685 1.491 1_455 S
C680 H671 0.950 . S
C680 C679 1.398 . S
C680 C681 1.391 . S
C681 H669 0.950 . S
C681 C677 1.393 . S
C681 C680 1.391 . S
C682 H672 0.950 . S
C682 C683 1.386 . S
C682 C684 1.391 . S
C683 C682 1.386 . S
C683 C687 1.393 . S
C684 H673 0.950 . S
C684 C682 1.391 . S
C684 C685 1.400 . S
C685 C679 1.491 1_655 S
C685 C684 1.400 . S
C685 C686 1.398 . S
C686 H674 0.950 . S
C686 C685 1.398 . S
C686 C687 1.391 . S
C687 H675 0.950 . S
C687 C683 1.393 . S
C687 C686 1.391 . S
H688 C696 0.950 1_556 S
H689 C701 0.950 . S
H690 C698 0.950 . S
H691 C700 0.950 . S
H692 C702 0.950 1_554 S
H693 C704 0.950 . S
H694 C706 0.950 . S
H695 C707 0.950 . S
C696 H688 0.950 1_554 S
C696 C697 1.386 . S
C696 C698 1.391 1_554 S
C697 C696 1.386 . S
C697 C701 1.393 . S
C698 H690 0.950 . S
C698 C696 1.391 1_556 S
C698 C699 1.400 1_556 S
C699 C698 1.400 1_554 S
C699 C700 1.398 . S
C699 C705 1.491 1_544 S
C700 H691 0.950 . S
C700 C699 1.398 . S
C700 C701 1.391 . S
C701 H689 0.950 . S
C701 C697 1.393 . S
C701 C700 1.391 . S
C702 H692 0.950 1_556 S
C702 C703 1.386 . S
C702 C704 1.391 1_556 S
C703 C702 1.386 . S
C703 C707 1.393 . S
C704 H693 0.950 . S
C704 C702 1.391 1_554 S
C704 C705 1.400 1_554 S
C705 C699 1.491 1_566 S
C705 C704 1.400 1_556 S
C705 C706 1.398 . S
C706 H694 0.950 . S
C706 C705 1.398 . S
C706 C707 1.391 . S
C707 H695 0.950 . S
C707 C703 1.393 . S
C707 C706 1.391 . S
H708 C716 0.950 . S
H709 C721 0.950 . S
H710 C718 0.950 . S
H711 C720 0.950 . S
H712 C722 0.950 . S
H713 C724 0.950 . S
H714 C726 0.950 . S
H715 C727 0.950 . S
C716 H708 0.950 . S
C716 C717 1.386 . S
C716 C718 1.391 . S
C717 C716 1.386 . S
C717 C721 1.393 . S
C718 H710 0.950 . S
C718 C716 1.391 . S
C718 C719 1.400 . S
C719 C718 1.400 . S
C719 C720 1.398 . S
C719 C725 1.491 . S
C720 H711 0.950 . S
C720 C719 1.398 . S
C720 C721 1.391 . S
C721 H709 0.950 . S
C721 C717 1.393 . S
C721 C720 1.391 . S
C722 H712 0.950 . S
C722 C723 1.386 . S
C722 C724 1.391 . S
C723 C722 1.386 . S
C723 C727 1.393 . S
C724 H713 0.950 . S
C724 C722 1.391 . S
C724 C725 1.400 . S
C725 C719 1.491 . S
C725 C724 1.400 . S
C725 C726 1.398 . S
C726 H714 0.950 . S
C726 C725 1.398 . S
C726 C727 1.391 . S
C727 H715 0.950 . S
C727 C723 1.393 . S
C727 C726 1.391 . S
H728 C736 0.950 . S
H729 C741 0.950 . S
H730 C738 0.950 . S
H731 C740 0.992 . S
H732 C742 0.950 . S
H733 C744 0.950 . S
H734 C746 0.992 . S
H735 C747 0.950 . S
C736 H728 0.950 . S
C736 C737 1.386 . S
C736 C738 1.391 . S
C737 C736 1.386 . S
C737 C741 1.393 . S
C738 H730 0.950 . S
C738 C736 1.391 . S
C738 C739 1.400 . S
C739 C738 1.400 . S
C739 C740 1.398 . S
C739 C745 1.491 1_455 S
C740 H731 0.992 . S
C740 C739 1.398 . S
C740 C741 1.391 . S
C741 H729 0.950 . S
C741 C737 1.393 . S
C741 C740 1.391 . S
C742 H732 0.950 . S
C742 C743 1.386 . S
C742 C744 1.391 . S
C743 C742 1.386 . S
C743 C747 1.393 . S
C744 H733 0.950 . S
C744 C742 1.391 . S
C744 C745 1.400 . S
C745 C739 1.491 1_655 S
C745 C744 1.400 . S
C745 C746 1.398 . S
C746 H734 0.992 . S
C746 C745 1.398 . S
C746 C747 1.391 . S
C747 H735 0.950 . S
C747 C743 1.393 . S
C747 C746 1.391 . S
H748 C756 0.950 . S
H749 C761 0.950 . S
H750 C758 0.950 . S
H751 C760 0.950 . S
H752 C762 0.950 . S
H753 C764 0.950 . S
H754 C766 0.950 . S
H755 C767 0.950 . S
C756 H748 0.950 . S
C756 C757 1.386 . S
C756 C758 1.391 . S
C757 C756 1.386 . S
C757 C761 1.393 . S
C758 H750 0.950 . S
C758 C756 1.391 . S
C758 C759 1.400 . S
C759 C758 1.400 . S
C759 C760 1.398 . S
C759 C765 1.491 1_546 S
C760 H751 0.950 . S
C760 C759 1.398 . S
C760 C761 1.391 . S
C761 H749 0.950 . S
C761 C757 1.393 . S
C761 C760 1.391 . S
C762 H752 0.950 . S
C762 C763 1.386 . S
C762 C764 1.391 . S
C763 C762 1.386 . S
C763 C767 1.393 . S
C764 H753 0.950 . S
C764 C762 1.391 . S
C764 C765 1.400 . S
C765 C759 1.491 1_564 S
C765 C764 1.400 . S
C765 C766 1.398 . S
C766 H754 0.950 . S
C766 C765 1.398 . S
C766 C767 1.391 . S
C767 H755 0.950 . S
C767 C763 1.393 . S
C767 C766 1.391 . S
H768 C776 0.950 . S
H769 C781 0.950 . S
H770 C778 0.950 . S
H771 C780 0.950 . S
H772 C782 0.950 . S
H773 C784 0.950 . S
H774 C786 0.950 . S
H775 C787 0.950 . S
C776 H768 0.950 . S
C776 C777 1.386 . S
C776 C778 1.391 . S
C777 C776 1.386 . S
C777 C781 1.393 . S
C778 H770 0.950 . S
C778 C776 1.391 . S
C778 C779 1.400 . S
C779 C778 1.400 . S
C779 C780 1.398 . S
C779 C785 1.491 . S
C780 H771 0.950 . S
C780 C779 1.398 . S
C780 C781 1.391 . S
C781 H769 0.950 . S
C781 C777 1.393 . S
C781 C780 1.391 . S
C782 H772 0.950 . S
C782 C783 1.386 . S
C782 C784 1.391 . S
C783 C782 1.386 . S
C783 C787 1.393 . S
C784 H773 0.950 . S
C784 C782 1.391 . S
C784 C785 1.400 . S
C785 C779 1.491 . S
C785 C784 1.400 . S
C785 C786 1.398 . S
C786 H774 0.950 . S
C786 C785 1.398 . S
C786 C787 1.391 . S
C787 H775 0.950 . S
C787 C783 1.393 . S
C787 C786 1.391 . S
H788 C796 0.950 . S
H789 C801 0.950 . S
H790 C798 0.950 . S
H791 C800 0.950 . S
H792 C802 0.950 . S
H793 C804 0.950 . S
H794 C806 0.950 . S
H795 C807 0.950 . S
C796 H788 0.950 . S
C796 C797 1.386 . S
C796 C798 1.391 . S
C797 C796 1.386 . S
C797 C801 1.393 . S
C798 H790 0.950 . S
C798 C796 1.391 . S
C798 C799 1.400 . S
C799 C798 1.400 . S
C799 C800 1.398 . S
C799 C805 1.491 1_554 S
C800 H791 0.950 . S
C800 C799 1.398 . S
C800 C801 1.391 . S
C801 H789 0.950 . S
C801 C797 1.393 . S
C801 C800 1.391 . S
C802 H792 0.950 . S
C802 C803 1.386 . S
C802 C804 1.391 . S
C803 C802 1.386 . S
C803 C807 1.393 . S
C804 H793 0.950 . S
C804 C802 1.391 . S
C804 C805 1.400 . S
C805 C799 1.491 1_556 S
C805 C804 1.400 . S
C805 C806 1.398 . S
C806 H794 0.950 . S
C806 C805 1.398 . S
C806 C807 1.391 . S
C807 H795 0.950 . S
C807 C803 1.393 . S
C807 C806 1.391 . S
H808 C816 0.950 . S
H809 C821 0.950 . S
H810 C818 0.950 . S
H811 C820 0.950 . S
H812 C822 0.950 . S
H813 C824 0.950 . S
H814 C826 0.950 . S
H815 C827 0.950 . S
C816 H808 0.950 . S
C816 C817 1.386 . S
C816 C818 1.391 . S
C817 C816 1.386 . S
C817 C821 1.393 . S
C818 H810 0.950 . S
C818 C816 1.391 . S
C818 C819 1.400 . S
C819 C818 1.400 . S
C819 C820 1.398 . S
C819 C825 1.491 . S
C820 H811 0.950 . S
C820 C819 1.398 . S
C820 C821 1.391 . S
C821 H809 0.950 . S
C821 C817 1.393 . S
C821 C820 1.391 . S
C822 H812 0.950 . S
C822 C823 1.386 . S
C822 C824 1.391 . S
C823 C822 1.386 . S
C823 C827 1.393 . S
C824 H813 0.950 . S
C824 C822 1.391 . S
C824 C825 1.400 . S
C825 C819 1.491 . S
C825 C824 1.400 . S
C825 C826 1.398 . S
C826 H814 0.950 . S
C826 C825 1.398 . S
C826 C827 1.391 . S
C827 H815 0.950 . S
C827 C823 1.393 . S
C827 C826 1.391 . S
H828 C836 0.950 . S
H829 C841 0.950 . S
H830 C838 0.950 . S
H831 C840 0.950 . S
H832 C842 0.950 . S
H833 C844 0.950 . S
H834 C846 0.950 . S
H835 C847 0.950 . S
C836 H828 0.950 . S
C836 C837 1.386 . S
C836 C838 1.391 . S
C837 C836 1.386 . S
C837 C841 1.393 . S
C838 H830 0.950 . S
C838 C836 1.391 . S
C838 C839 1.400 . S
C839 C838 1.400 . S
C839 C840 1.398 . S
C839 C845 1.491 . S
C840 H831 0.950 . S
C840 C839 1.398 . S
C840 C841 1.391 . S
C841 H829 0.950 . S
C841 C837 1.393 . S
C841 C840 1.391 . S
C842 H832 0.950 . S
C842 C843 1.386 . S
C842 C844 1.391 . S
C843 C842 1.386 . S
C843 C847 1.393 . S
C844 H833 0.950 . S
C844 C842 1.391 . S
C844 C845 1.400 . S
C845 C839 1.491 . S
C845 C844 1.400 . S
C845 C846 1.398 . S
C846 H834 0.950 . S
C846 C845 1.398 . S
C846 C847 1.391 . S
C847 H835 0.950 . S
C847 C843 1.393 . S
C847 C846 1.391 . S
H848 C856 0.950 . S
H849 C861 0.950 . S
H850 C858 0.950 . S
H851 C860 0.950 . S
H852 C862 0.950 . S
H853 C864 0.950 . S
H854 C866 0.950 . S
H855 C867 0.950 . S
C856 H848 0.950 . S
C856 C857 1.386 . S
C856 C858 1.391 . S
C857 C856 1.386 . S
C857 C861 1.393 . S
C858 H850 0.950 . S
C858 C856 1.391 . S
C858 C859 1.400 . S
C859 C858 1.400 . S
C859 C860 1.398 . S
C859 C865 1.491 1_554 S
C860 H851 0.950 . S
C860 C859 1.398 . S
C860 C861 1.391 . S
C861 H849 0.950 . S
C861 C857 1.393 . S
C861 C860 1.391 . S
C862 H852 0.950 . S
C862 C863 1.386 . S
C862 C864 1.391 . S
C863 C862 1.386 . S
C863 C867 1.393 . S
C864 H853 0.950 . S
C864 C862 1.391 . S
C864 C865 1.400 . S
C865 C859 1.491 1_556 S
C865 C864 1.400 . S
C865 C866 1.398 . S
C866 H854 0.950 . S
C866 C865 1.398 . S
C866 C867 1.391 . S
C867 H855 0.950 . S
C867 C863 1.393 . S
C867 C866 1.391 . S
H868 C876 0.950 . S
H869 C881 0.950 . S
H870 C878 0.950 . S
H871 C880 0.950 . S
H872 C882 0.950 . S
H873 C884 0.950 . S
H874 C886 0.950 . S
H875 C887 0.950 . S
C876 H868 0.950 . S
C876 C877 1.386 . S
C876 C878 1.391 . S
C877 C876 1.386 . S
C877 C881 1.393 . S
C878 H870 0.950 . S
C878 C876 1.391 . S
C878 C879 1.400 . S
C879 C878 1.400 . S
C879 C880 1.398 . S
C879 C885 1.491 . S
C880 H871 0.950 . S
C880 C879 1.398 . S
C880 C881 1.391 . S
C881 H869 0.950 . S
C881 C877 1.393 . S
C881 C880 1.391 . S
C882 H872 0.950 . S
C882 C883 1.386 . S
C882 C884 1.391 . S
C883 C882 1.386 . S
C883 C887 1.393 . S
C884 H873 0.950 . S
C884 C882 1.391 . S
C884 C885 1.400 . S
C885 C879 1.491 . S
C885 C884 1.400 . S
C885 C886 1.398 . S
C886 H874 0.950 . S
C886 C885 1.398 . S
C886 C887 1.391 . S
C887 H875 0.950 . S
C887 C883 1.393 . S
C887 C886 1.391 . S
H888 C896 0.950 . S
H889 C901 0.950 . S
H890 C898 0.950 . S
H891 C900 0.950 . S
H892 C902 0.950 . S
H893 C904 0.950 . S
H894 C906 0.950 . S
H895 C907 0.950 . S
C896 H888 0.950 . S
C896 C897 1.386 . S
C896 C898 1.391 . S
C897 C896 1.386 . S
C897 C901 1.393 . S
C898 H890 0.950 . S
C898 C896 1.391 . S
C898 C899 1.400 . S
C899 C898 1.400 . S
C899 C900 1.398 . S
C899 C905 1.491 1_554 S
C900 H891 0.950 . S
C900 C899 1.398 . S
C900 C901 1.391 . S
C901 H889 0.950 . S
C901 C897 1.393 . S
C901 C900 1.391 . S
C902 H892 0.950 . S
C902 C903 1.386 . S
C902 C904 1.391 . S
C903 C902 1.386 . S
C903 C907 1.393 . S
C904 H893 0.950 . S
C904 C902 1.391 . S
C904 C905 1.400 . S
C905 C899 1.491 1_556 S
C905 C904 1.400 . S
C905 C906 1.398 . S
C906 H894 0.950 . S
C906 C905 1.398 . S
C906 C907 1.391 . S
C907 H895 0.950 . S
C907 C903 1.393 . S
C907 C906 1.391 . S
H908 C916 0.950 . S
H909 C921 0.950 . S
H910 C918 0.950 . S
H911 C920 0.950 . S
H912 C922 0.950 . S
H913 C924 0.950 . S
H914 C926 0.950 . S
H915 C927 0.950 . S
C916 H908 0.950 . S
C916 C917 1.386 . S
C916 C918 1.391 . S
C917 C916 1.386 . S
C917 C921 1.393 . S
C918 H910 0.950 . S
C918 C916 1.391 . S
C918 C919 1.400 . S
C919 C918 1.400 . S
C919 C920 1.398 . S
C919 C925 1.491 . S
C920 H911 0.950 . S
C920 C919 1.398 . S
C920 C921 1.391 . S
C921 H909 0.950 . S
C921 C917 1.393 . S
C921 C920 1.391 . S
C922 H912 0.950 . S
C922 C923 1.386 . S
C922 C924 1.391 . S
C923 C922 1.386 . S
C923 C927 1.393 . S
C924 H913 0.950 . S
C924 C922 1.391 . S
C924 C925 1.400 . S
C925 C919 1.491 . S
C925 C924 1.400 . S
C925 C926 1.398 . S
C926 H914 0.950 . S
C926 C925 1.398 . S
C926 C927 1.391 . S
C927 H915 0.950 . S
C927 C923 1.393 . S
C927 C926 1.391 . S
H928 C936 0.950 . S
H929 C941 0.950 . S
H930 C938 0.950 . S
H931 C940 0.950 . S
H932 C942 0.950 . S
H933 C944 0.950 . S
H934 C946 0.950 . S
H935 C947 0.950 . S
C936 H928 0.950 . S
C936 C937 1.386 . S
C936 C938 1.391 . S
C937 C936 1.386 . S
C937 C941 1.393 . S
C938 H930 0.950 . S
C938 C936 1.391 . S
C938 C939 1.400 . S
C939 C938 1.400 . S
C939 C940 1.398 . S
C939 C945 1.491 . S
C940 H931 0.950 . S
C940 C939 1.398 . S
C940 C941 1.391 . S
C941 H929 0.950 . S
C941 C937 1.393 . S
C941 C940 1.391 . S
C942 H932 0.950 . S
C942 C943 1.386 . S
C942 C944 1.391 . S
C943 C942 1.386 . S
C943 C947 1.393 . S
C944 H933 0.950 . S
C944 C942 1.391 . S
C944 C945 1.400 . S
C945 C939 1.491 . S
C945 C944 1.400 . S
C945 C946 1.398 . S
C946 H934 0.950 . S
C946 C945 1.398 . S
C946 C947 1.391 . S
C947 H935 0.950 . S
C947 C943 1.393 . S
C947 C946 1.391 . S
H948 C956 0.950 . S
H949 C961 0.950 . S
H950 C958 0.950 . S
H951 C960 0.950 . S
H952 C962 0.950 . S
H953 C964 0.950 . S
H954 C966 0.950 . S
H955 C967 0.950 . S
C956 H948 0.950 . S
C956 C957 1.386 . S
C956 C958 1.391 . S
C957 C956 1.386 . S
C957 C961 1.393 . S
C958 H950 0.950 . S
C958 C956 1.391 . S
C958 C959 1.400 . S
C959 C958 1.400 . S
C959 C960 1.398 . S
C959 C965 1.491 1_556 S
C960 H951 0.950 . S
C960 C959 1.398 . S
C960 C961 1.391 . S
C961 H949 0.950 . S
C961 C957 1.393 . S
C961 C960 1.391 . S
C962 H952 0.950 . S
C962 C963 1.386 . S
C962 C964 1.391 . S
C963 C962 1.386 . S
C963 C967 1.393 . S
C964 H953 0.950 . S
C964 C962 1.391 . S
C964 C965 1.400 . S
C965 C959 1.491 1_554 S
C965 C964 1.400 . S
C965 C966 1.398 . S
C966 H954 0.950 . S
C966 C965 1.398 . S
C966 C967 1.391 . S
C967 H955 0.950 . S
C967 C963 1.393 . S
C967 C966 1.391 . S
H968 C976 0.950 . S
H969 C981 0.950 . S
H970 C978 0.950 . S
H971 C980 0.950 . S
H972 C982 0.950 . S
H973 C984 0.950 . S
H974 C986 0.950 . S
H975 C987 0.950 . S
C976 H968 0.950 . S
C976 C977 1.386 . S
C976 C978 1.391 . S
C977 C976 1.386 . S
C977 C981 1.393 . S
C978 H970 0.950 . S
C978 C976 1.391 . S
C978 C979 1.400 . S
C979 C978 1.400 . S
C979 C980 1.398 . S
C979 C985 1.491 . S
C980 H971 0.950 . S
C980 C979 1.398 . S
C980 C981 1.391 . S
C981 H969 0.950 . S
C981 C977 1.393 . S
C981 C980 1.391 . S
C982 H972 0.950 . S
C982 C983 1.386 . S
C982 C984 1.391 . S
C983 C982 1.386 . S
C983 C987 1.393 . S
C984 H973 0.950 . S
C984 C982 1.391 . S
C984 C985 1.400 . S
C985 C979 1.491 . S
C985 C984 1.400 . S
C985 C986 1.398 . S
C986 H974 0.950 . S
C986 C985 1.398 . S
C986 C987 1.391 . S
C987 H975 0.950 . S
C987 C983 1.393 . S
C987 C986 1.391 . S
H988 C996 0.950 . S
H989 C1001 0.950 . S
H990 C998 0.950 . S
H991 C1000 0.950 . S
H992 C1002 0.950 . S
H993 C1004 0.950 . S
H994 C1006 0.950 . S
H995 C1007 0.950 . S
C996 H988 0.950 . S
C996 C997 1.386 . S
C996 C998 1.391 . S
C997 C996 1.386 . S
C997 C1001 1.393 . S
C998 H990 0.950 . S
C998 C996 1.391 . S
C998 C999 1.400 . S
C999 C998 1.400 . S
C999 C1000 1.398 . S
C999 C1005 1.491 . S
C1000 H991 0.950 . S
C1000 C999 1.398 . S
C1000 C1001 1.391 . S
C1001 H989 0.950 . S
C1001 C997 1.393 . S
C1001 C1000 1.391 . S
C1002 H992 0.950 . S
C1002 C1003 1.386 . S
C1002 C1004 1.391 . S
C1003 C1002 1.386 . S
C1003 C1007 1.393 . S
C1004 H993 0.950 . S
C1004 C1002 1.391 . S
C1004 C1005 1.400 . S
C1005 C999 1.491 . S
C1005 C1004 1.400 . S
C1005 C1006 1.398 . S
C1006 H994 0.950 . S
C1006 C1005 1.398 . S
C1006 C1007 1.391 . S
C1007 H995 0.950 . S
C1007 C1003 1.393 . S
C1007 C1006 1.391 . S
C417 C20 1.621 . S
C423 C360 1.623 . S
C437 C394 1.631 . S
C443 C54 1.633 . S
C457 C224 1.618 . S
C463 C88 1.618 . S
C477 C258 1.628 . S
C483 C122 1.631 . S
C497 C156 1.619 . S
C503 C292 1.618 . S
C517 C326 1.621 . S
C523 C190 1.619 . S
C537 C237 1.441 . S
C543 C33 1.446 . S
C557 C271 1.440 . S
C563 C67 1.443 . S
C577 C101 1.442 . S
C583 C305 1.447 . S
C597 C135 1.448 . S
C603 C339 1.442 . S
C617 C373 1.448 . S
C623 C169 1.449 . S
C637 C407 1.446 . S
C643 C203 1.441 . S
C657 C2 1.485 . S
C663 C308 1.480 . S
C677 C342 1.479 . S
C683 C36 1.484 . S
C697 C376 1.488 . S
C703 C70 1.484 . S
C717 C206 1.488 . S
C723 C104 1.491 . S
C737 C138 1.487 . S
C743 C240 1.482 . S
C757 C172 1.491 . S
C763 C274 1.492 . S
C777 C5 0.930 . S
C783 C9 0.897 . S
C797 C43 0.920 . S
C803 C39 0.962 . S
C817 C73 0.931 . S
C823 C77 0.894 . S
C837 C111 0.908 . S
C843 C107 0.955 . S
C857 C145 0.947 . S
C863 C141 0.964 . S
C877 C179 0.947 . S
C883 C175 0.958 . S
C897 C209 0.954 . S
C903 C213 0.944 . S
C917 C247 0.945 . S
C923 C243 0.956 . S
C937 C281 0.932 . S
C943 C277 0.966 . S
C957 C315 0.947 . S
C963 C311 0.959 . S
C977 C345 0.950 . S
C983 C349 0.941 . S
C997 C383 0.900 . S
C1003 C379 0.930 . S
