# Generated by pormake.
# Topology reo, (8)-cn, num edge types: 1
# Building blocks:
#     Node 0, Type 0, BuildingBlock: TAGTUT_clean_sbu_3, # of connection points: 8
#     Node 1, Type 0, BuildingBlock: TAGTUT_clean_sbu_3, # of connection points: 8
#     Node 2, Type 0, BuildingBlock: TAGTUT_clean_sbu_3, # of connection points: 8
#     Edge 3, Type (0, 0), BuildingBlock: XIVTED_clean_linker_0, # of connection points: 2
#     Edge 4, Type (0, 0), BuildingBlock: XIVTED_clean_linker_0, # of connection points: 2
#     Edge 5, Type (0, 0), BuildingBlock: XIVTED_clean_linker_0, # of connection points: 2
#     Edge 6, Type (0, 0), BuildingBlock: XIVTED_clean_linker_0, # of connection points: 2
#     Edge 7, Type (0, 0), BuildingBlock: XIVTED_clean_linker_0, # of connection points: 2
#     Edge 8, Type (0, 0), BuildingBlock: XIVTED_clean_linker_0, # of connection points: 2
#     Edge 9, Type (0, 0), BuildingBlock: XIVTED_clean_linker_0, # of connection points: 2
#     Edge 10, Type (0, 0), BuildingBlock: XIVTED_clean_linker_0, # of connection points: 2
#     Edge 11, Type (0, 0), BuildingBlock: XIVTED_clean_linker_0, # of connection points: 2
#     Edge 12, Type (0, 0), BuildingBlock: XIVTED_clean_linker_0, # of connection points: 2
#     Edge 13, Type (0, 0), BuildingBlock: XIVTED_clean_linker_0, # of connection points: 2
#     Edge 14, Type (0, 0), BuildingBlock: XIVTED_clean_linker_0, # of connection points: 2
# Relax obj value: 0.169
# Max RMSD: 0.190
# Mean RMSD: 0.190
data_MOF--net-reo--node1-TAGTUT_clean_sbu_3--edge1-XIVTED_clean_linker_0
_symmetry_space_group_name_H-M    P1
_symmetry_Int_Tables_number       1
_symmetry_cell_setting            triclinic
loop_
_symmetry_equiv_pos_as_xyz
'x, y, z'
_cell_length_a     23.66176
_cell_length_b     23.692697
_cell_length_c     23.757378
_cell_angle_alpha  90.550286
_cell_angle_beta   90.803188
_cell_angle_gamma 91.126952
loop_
_atom_site_label
_atom_site_type_symbol
_atom_site_fract_x
_atom_site_fract_y
_atom_site_fract_z
_atom_type_partial_charge
C0 C 0.94562 0.88456 0.53968 0.0
C1 C 0.76901 0.01788 0.54513 0.0
C2 C 0.84433 0.08457 0.39293 0.0
Mg3 Mg 0.07367 0.91718 0.49825 0.0
Mg4 Mg 0.11764 0.04907 0.50831 0.0
O5 O 0.06526 -0.002 0.47454 0.0
Mg6 Mg 0.98494 0.00914 0.49581 0.0
O7 O 0.90432 0.0167 0.51643 0.0
Mg8 Mg 0.86857 0.96282 0.46018 0.0
Mg9 Mg 0.87526 0.09047 0.51742 0.0
C10 C 0.0308 0.13497 0.45577 0.0
O11 O 0.00805 0.06036 0.57502 0.0
O12 O 0.16276 0.92454 0.4564 0.0
O13 O 0.94391 0.12964 0.56815 0.0
O14 O 0.11332 0.93819 0.58476 0.0
O15 O 0.18989 0.01581 0.46746 0.0
O16 O 0.12465 0.03106 0.59646 0.0
O17 O 0.95694 0.95939 0.41735 0.0
O18 O 0.02877 0.89909 0.41455 0.0
C19 C 0.98282 0.91853 0.39391 0.0
C20 C 0.19869 0.9655 0.44982 0.0
O21 O 0.99138 0.09663 0.45352 0.0
O22 O 0.78609 0.97768 0.51279 0.0
O23 O 0.07962 0.12652 0.47825 0.0
O24 O 0.84574 0.0314 0.3991 0.0
O25 O 0.79724 0.06409 0.55288 0.0
O26 O 0.85538 0.11862 0.43338 0.0
O27 O 0.98487 0.92253 0.53707 0.0
O28 O 0.89668 0.89286 0.51818 0.0
C29 C 0.12595 0.98103 0.61568 0.0
C30 C 0.98936 0.10889 0.5892 0.0
C31 C 0.3904 0.98537 0.91946 0.0
C32 C 0.44762 0.19923 0.97543 0.0
C33 C 0.61339 0.1273 0.9838 0.0
Mg34 Mg 0.45903 0.87026 0.95898 0.0
Mg35 Mg 0.52465 0.87486 0.08283 0.0
O36 O 0.51863 0.90505 0.00967 0.0
Mg37 Mg 0.49517 0.98489 0.00607 0.0
O38 O 0.47183 0.06475 -0.00012 0.0
Mg39 Mg 0.49441 0.0777 0.91971 0.0
Mg40 Mg 0.50694 0.11333 0.05385 0.0
C41 C 0.59951 0.98615 0.09781 0.0
O42 O 0.4539 0.98408 0.09221 0.0
O43 O 0.51242 0.78752 0.96935 0.0
O44 O 0.47833 0.06904 0.12957 0.0
O45 O 0.40329 0.84435 0.03211 0.0
O46 O 0.55455 0.79587 0.05498 0.0
O47 O 0.44227 0.85824 0.11725 0.0
O48 O 0.5339 0.98939 0.91915 0.0
O49 O 0.513 0.9025 0.88686 0.0
C50 C 0.53437 0.95199 0.87969 0.0
C51 C 0.54497 0.76883 0.00882 0.0
O52 O 0.57564 0.0087 0.0551 0.0
O53 O 0.45341 0.16587 0.93277 0.0
O54 O 0.58413 0.93802 0.11754 0.0
O55 O 0.58164 0.1165 0.94107 0.0
O56 O 0.46548 0.18729 0.02502 0.0
O57 O 0.59496 0.12347 0.03383 0.0
O58 O 0.41561 0.95792 0.95838 0.0
O59 O 0.40994 0.03274 0.90155 0.0
C60 C 0.40036 0.84398 0.08563 0.0
C61 C 0.45549 0.01951 0.13343 0.0
C62 C 0.88041 0.53751 0.94907 0.0
C63 C 0.01186 0.5469 0.76942 0.0
C64 C 0.08506 0.39924 0.84402 0.0
Mg65 Mg 0.91991 0.49871 0.07695 0.0
Mg66 Mg 0.05482 0.51373 0.11116 0.0
O67 O 0.00025 0.47728 0.06417 0.0
Mg68 Mg 0.00662 0.49898 0.98412 0.0
O69 O 0.01155 0.52024 0.90397 0.0
Mg70 Mg 0.95998 0.46067 0.87036 0.0
Mg71 Mg 0.08578 0.52321 0.87504 0.0
C72 C 0.13412 0.4601 0.02034 0.0
O73 O 0.05679 0.57993 0.00578 0.0
O74 O 0.93442 0.45763 0.16596 0.0
O75 O 0.12544 0.57616 0.9409 0.0
O76 O 0.94128 0.58623 0.11462 0.0
O77 O 0.02728 0.4722 0.18515 0.0
O78 O 0.03437 0.60138 0.12039 0.0
O79 O 0.95846 0.4186 0.95887 0.0
O80 O 0.90161 0.41397 0.03357 0.0
C81 C 0.91935 0.39383 0.98683 0.0
C82 C 0.97833 0.45286 0.19836 0.0
O83 O 0.09247 0.45753 0.9852 0.0
O84 O 0.97208 0.51393 0.78763 0.0
O85 O 0.13085 0.4847 0.06864 0.0
O86 O 0.0315 0.40305 0.84531 0.0
O87 O 0.05839 0.55598 0.79659 0.0
O88 O 0.1178 0.44071 0.85702 0.0
O89 O 0.91925 0.5377 0.98744 0.0
O90 O 0.88869 0.51542 0.90056 0.0
C91 C 0.98391 0.61874 0.12485 0.0
C92 C 0.10462 0.59632 0.98639 0.0
H93 H 0.895 0.37715 0.23063 0.0
H94 H 0.10893 0.21254 0.41897 0.0
H95 H 0.0566 0.44918 0.28322 0.0
H96 H 0.92981 0.18551 0.43605 0.0
H97 H 0.09034 0.29925 0.3676 0.0
H98 H 0.90413 0.30627 0.30475 0.0
C99 C 0.93166 0.37894 0.25845 0.0
C100 C 0.9756 0.41844 0.24991 0.0
C101 C 0.05495 0.27433 0.38277 0.0
C102 C 0.98676 0.33721 0.3335 0.0
C103 C 0.06554 0.22479 0.41203 0.0
C104 C 0.02044 0.19037 0.42977 0.0
C105 C -0.00111 0.28921 0.37072 0.0
C106 C 0.96528 0.20887 0.42015 0.0
C107 C 0.93696 0.33839 0.30055 0.0
C108 C 0.02219 0.41877 0.28734 0.0
N109 N 0.95581 0.25652 0.39044 0.0
N110 N 0.02705 0.3781 0.3267 0.0
H111 H 0.75604 0.15252 0.36761 0.0
H112 H 0.70673 0.95225 0.11551 0.0
H113 H 0.88968 0.05753 0.29323 0.0
H114 H 0.5955 0.09086 0.14512 0.0
H115 H 0.78015 0.00091 0.17185 0.0
H116 H 0.70355 0.14676 0.278 0.0
C117 C 0.77552 0.13304 0.33149 0.0
C118 C 0.82643 0.10451 0.33755 0.0
C119 C 0.74017 0.02148 0.1652 0.0
C120 C 0.76644 0.09584 0.23647 0.0
C121 C 0.69828 0.99338 0.13349 0.0
C122 C 0.6454 0.01763 0.12648 0.0
C123 C 0.72818 0.07321 0.19161 0.0
C124 C 0.63609 0.07106 0.14997 0.0
C125 C 0.74539 0.12917 0.28051 0.0
C126 C 0.84993 0.07927 0.29001 0.0
N127 N 0.67677 0.09669 0.18269 0.0
N128 N 0.81904 0.07415 0.24176 0.0
H129 H 0.88456 0.86213 0.36527 0.0
H130 H 0.88229 0.66797 0.1462 0.0
H131 H 0.04319 0.92185 0.29932 0.0
H132 H 0.06247 0.70058 0.15436 0.0
H133 H 0.86743 0.75653 0.19672 0.0
H134 H 0.87282 0.79909 0.28342 0.0
C135 C 0.91547 0.86375 0.33207 0.0
C136 C 0.96492 0.89658 0.33862 0.0
C137 C 0.91015 0.7444 0.18732 0.0
C138 C 0.95265 0.82481 0.24566 0.0
C139 C 0.91877 0.69397 0.15809 0.0
C140 C 0.97393 0.67612 0.1471 0.0
C141 C 0.95708 0.77706 0.20564 0.0
C142 C 0.01932 0.71213 0.1625 0.0
C143 C 0.90898 0.82771 0.28531 0.0
C144 C 0.00458 0.89669 0.29547 0.0
N145 N 0.00987 0.76057 0.19145 0.0
N146 N -0.00183 0.86041 0.25135 0.0
H147 H 0.47475 0.06146 0.2404 0.0
H148 H 0.21412 0.8863 0.36672 0.0
H149 H 0.37076 0.94165 0.14596 0.0
H150 H 0.29669 0.02791 0.45145 0.0
H151 H 0.28673 0.89013 0.29434 0.0
H152 H 0.42303 0.03619 0.3256 0.0
C153 C 0.44153 0.02939 0.23772 0.0
C154 C 0.4274 0.00313 0.18614 0.0
C155 C 0.28947 0.91972 0.32935 0.0
C156 C 0.36835 0.97389 0.28311 0.0
C157 C 0.24833 0.91718 0.37094 0.0
C158 C 0.24886 0.95748 0.41455 0.0
C159 C 0.33129 0.96275 0.33167 0.0
C160 C 0.29415 -0.00333 0.4179 0.0
C161 C 0.41223 0.01478 0.28632 0.0
C162 C 0.38408 0.96178 0.18505 0.0
N163 N 0.3331 -0.00116 0.37656 0.0
N164 N 0.35592 0.94866 0.23266 0.0
H165 H 0.86825 0.80053 0.55937 0.0
H166 H 0.09136 0.5987 0.705 0.0
H167 H 0.04624 0.84151 0.57837 0.0
H168 H 0.91072 0.57764 0.72153 0.0
H169 H 0.07605 0.67611 0.64017 0.0
H170 H 0.8843 0.70951 0.60269 0.0
C171 C 0.91088 0.79042 0.57246 0.0
C172 C 0.95601 0.82913 0.56555 0.0
C173 C 0.03974 0.65407 0.65732 0.0
C174 C 0.97448 0.72435 0.61494 0.0
C175 C 0.04835 0.60961 0.6941 0.0
C176 C 0.00218 0.58232 0.71954 0.0
C177 C 0.98457 0.67145 0.6458 0.0
C178 C 0.9475 0.59769 0.70316 0.0
C179 C 0.91989 0.73827 0.59713 0.0
C180 C 0.01017 0.81333 0.58323 0.0
N181 N 0.94019 0.64193 0.66789 0.0
N182 N 0.01787 0.76215 0.60729 0.0
H183 H 0.36283 0.88623 0.86507 0.0
H184 H 0.14655 0.88007 0.66692 0.0
H185 H 0.2949 0.04443 0.92018 0.0
H186 H 0.15316 0.06023 0.69677 0.0
H187 H 0.19519 0.86624 0.75689 0.0
H188 H 0.28136 0.87276 0.80128 0.0
C189 C 0.32927 0.91669 0.86551 0.0
C190 C 0.33526 0.96661 0.89708 0.0
C191 C 0.18587 0.90872 0.74382 0.0
C192 C 0.24268 0.95229 0.8246 0.0
C193 C 0.15772 0.91675 0.69259 0.0
C194 C 0.14704 0.97161 0.67356 0.0
C195 C 0.20337 0.95596 0.77606 0.0
C196 C 0.16141 0.0173 0.70914 0.0
C197 C 0.28271 0.9092 0.82906 0.0
C198 C 0.29159 0.00558 0.89583 0.0
N199 N 0.18933 0.00843 0.75838 0.0
N200 N 0.24768 -0.00181 0.85922 0.0
H201 H 0.06553 0.29196 0.87811 0.0
H202 H 0.02159 0.21726 0.57275 0.0
H203 H 0.14954 0.38994 0.75127 0.0
H204 H 0.03702 0.08099 0.69053 0.0
H205 H 0.07442 0.27933 0.63818 0.0
H206 H 0.0649 0.20984 0.8149 0.0
C207 C 0.08631 0.29524 0.83788 0.0
C208 C 0.10721 0.34748 0.81936 0.0
C209 C 0.06723 0.2356 0.64941 0.0
C210 C 0.10408 0.25526 0.74625 0.0
C211 C 0.03644 0.20054 0.61249 0.0
C212 C 0.02417 0.14465 0.62719 0.0
C213 C 0.08423 0.21504 0.7021 0.0
C214 C 0.04518 0.12429 0.6784 0.0
C215 C 0.08566 0.24856 0.8017 0.0
C216 C 0.13307 0.35016 0.76682 0.0
N217 N 0.07307 0.16 0.71493 0.0
N218 N 0.129 0.3051 0.73111 0.0
H219 H 0.57749 0.05347 0.84236 0.0
H220 H 0.7132 0.91824 0.56968 0.0
H221 H 0.54825 0.87988 0.79087 0.0
H222 H 0.71188 0.09761 0.60369 0.0
H223 H 0.64597 0.90395 0.64585 0.0
H224 H 0.62254 0.07143 0.75214 0.0
C225 C 0.58027 0.01924 0.8121 0.0
C226 C 0.55953 0.96501 0.82455 0.0
C227 C 0.65975 0.94652 0.63598 0.0
C228 C 0.61097 0.98514 0.72118 0.0
C229 C 0.69785 0.9547 0.59222 0.0
C230 C 0.71906 0.00905 0.58096 0.0
C231 C 0.64324 0.99298 0.66876 0.0
C232 C 0.69758 0.05477 0.61159 0.0
C233 C 0.60574 0.02953 0.76043 0.0
C234 C 0.56396 0.92232 0.78339 0.0
N235 N 0.66164 0.04561 0.65464 0.0
N236 N 0.58964 0.93317 0.73385 0.0
H237 H 0.14526 0.37625 0.94288 0.0
H238 H 0.44944 0.2923 0.04401 0.0
H239 H 0.24142 0.47569 0.06488 0.0
H240 H 0.36793 0.22242 0.89457 0.0
H241 H 0.37919 0.36618 0.04658 0.0
H242 H 0.22983 0.32549 0.91924 0.0
C243 C 0.18461 0.38853 0.96362 0.0
C244 C 0.18643 0.43108 0.00508 0.0
C245 C 0.37726 0.33538 0.01259 0.0
C246 C 0.28347 0.37105 0.98007 0.0
C247 C 0.41733 0.29313 0.01108 0.0
C248 C 0.41382 0.25054 0.96958 0.0
C249 C 0.33289 0.33449 0.97282 0.0
C250 C 0.37193 0.25414 0.92757 0.0
C251 C 0.23294 0.35907 0.95045 0.0
C252 C 0.23813 0.44313 0.03265 0.0
N253 N 0.33236 0.29477 0.9309 0.0
N254 N 0.28459 0.41281 0.02003 0.0
H255 H 0.07601 0.69775 0.03302 0.0
H256 H 0.39082 0.7495 0.14804 0.0
H257 H 0.21254 0.58081 0.01962 0.0
H258 H 0.29337 0.88022 0.07082 0.0
H259 H 0.3068 0.68724 0.14527 0.0
H260 H 0.13972 0.76339 0.08604 0.0
C261 C 0.11917 0.68582 0.04189 0.0
C262 C 0.13995 0.6349 0.02099 0.0
C263 C 0.30327 0.73043 0.13126 0.0
C264 C 0.21124 0.70753 0.08311 0.0
C265 C 0.35088 0.76611 0.13354 0.0
C266 C 0.34867 0.81951 0.10908 0.0
C267 C 0.25362 0.74889 0.10474 0.0
C268 C 0.29638 0.83896 0.08975 0.0
C269 C 0.15511 0.72283 0.07231 0.0
C270 C 0.19565 0.62048 0.03404 0.0
N271 N 0.25092 0.80316 0.08685 0.0
N272 N 0.2295 0.65674 0.06418 0.0
H273 H 0.66355 0.1512 0.88321 0.0
H274 H 0.86556 0.36511 0.88775 0.0
H275 H 0.69621 0.15181 0.06257 0.0
H276 H 0.91778 0.29938 0.04824 0.0
H277 H 0.80109 0.28384 0.87493 0.0
H278 H 0.75369 0.2004 0.86954 0.0
C279 C 0.68982 0.16138 0.91976 0.0
C280 C 0.67144 0.14893 0.97439 0.0
C281 C 0.82828 0.28559 0.91189 0.0
C282 C 0.7742 0.20626 0.95898 0.0
C283 C 0.86517 0.33208 0.91898 0.0
C284 C 0.89619 0.33866 0.96921 0.0
C285 C 0.82285 0.2461 0.95564 0.0
C286 C 0.89388 0.29563 0.00911 0.0
C287 C 0.74119 0.18992 0.91185 0.0
C288 C 0.7079 0.16181 0.01986 0.0
N289 N 0.85694 0.2517 0.00198 0.0
N290 N 0.7572 0.19037 0.01114 0.0
H291 H 0.79604 0.55306 0.87201 0.0
H292 H 0.59201 0.70242 0.08881 0.0
H293 H 0.83709 0.57875 0.04832 0.0
H294 H 0.57764 0.72122 0.90864 0.0
H295 H 0.66864 0.63666 0.07543 0.0
H296 H 0.7051 0.59637 0.88654 0.0
C297 C 0.78594 0.56756 0.914 0.0
C298 C 0.8247 0.56264 0.95905 0.0
C299 C 0.64819 0.65449 0.03881 0.0
C300 C 0.71991 0.61204 0.97571 0.0
C301 C 0.60419 0.69178 0.04627 0.0
C302 C 0.57912 0.71818 -0.00029 0.0
C303 C 0.66722 0.6433 0.98438 0.0
C304 C 0.59597 0.70209 0.94567 0.0
C305 C 0.73383 0.59226 0.9221 0.0
C306 C 0.80884 0.58208 0.01234 0.0
N307 N 0.6397 0.66622 0.93948 0.0
N308 N 0.7576 0.60614 0.01917 0.0
loop_
_geom_bond_atom_site_label_1
_geom_bond_atom_site_label_2
_geom_bond_distance
_geom_bond_site_symmetry_2
_ccdc_geom_bond_type
C0 O27 1.312 1_655 S
C0 O28 1.208 . S
C1 O22 1.331 . S
C1 O25 1.244 1_565 S
C2 O24 1.264 1_545 S
C2 O26 1.273 . S
Mg3 O5 1.936 1_565 S
Mg3 O12 2.081 . S
Mg3 O14 2.023 . S
Mg3 O18 2.031 . S
Mg3 O27 2.291 . S
Mg4 O5 1.963 . S
Mg4 O15 1.942 . S
Mg4 O16 1.955 . S
Mg4 O23 1.986 . S
O5 Mg3 1.936 1_545 S
O5 Mg4 1.963 . S
O5 Mg6 1.915 . S
Mg6 O5 1.915 . S
Mg6 O7 1.915 1_455 S
Mg6 O11 2.013 . S
Mg6 O17 2.114 1_445 S
Mg6 O21 2.013 1_455 S
Mg6 O27 2.114 1_545 S
O7 Mg6 1.915 1_655 S
O7 Mg8 1.936 1_545 S
O7 Mg9 1.963 . S
Mg8 O7 1.936 1_565 S
Mg8 O17 2.291 . S
Mg8 O22 2.081 . S
Mg8 O24 2.023 . S
Mg8 O28 2.031 . S
Mg9 O7 1.963 . S
Mg9 O13 1.986 . S
Mg9 O25 1.942 . S
Mg9 O26 1.955 . S
C10 O21 1.191 1_455 S
C10 O23 1.307 . S
O11 Mg6 2.013 . S
O11 C30 1.191 1_455 S
O12 Mg3 2.081 . S
O12 C20 1.331 . S
O13 Mg9 1.986 . S
O13 C30 1.307 . S
O14 Mg3 2.023 . S
O14 C29 1.264 1_565 S
O15 Mg4 1.942 . S
O15 C20 1.244 1_545 S
O16 Mg4 1.955 . S
O16 C29 1.273 . S
O17 Mg6 2.114 1_665 S
O17 Mg8 2.291 . S
O17 C19 1.312 1_655 S
O18 Mg3 2.031 . S
O18 C19 1.208 . S
C19 O17 1.312 1_455 S
C19 O18 1.208 . S
C20 O12 1.331 . S
C20 O15 1.244 1_565 S
O21 Mg6 2.013 1_655 S
O21 C10 1.191 1_655 S
O22 C1 1.331 . S
O22 Mg8 2.081 . S
O23 Mg4 1.986 . S
O23 C10 1.307 . S
O24 C2 1.264 1_565 S
O24 Mg8 2.023 . S
O25 C1 1.244 1_545 S
O25 Mg9 1.942 . S
O26 C2 1.273 . S
O26 Mg9 1.955 . S
O27 C0 1.312 1_455 S
O27 Mg3 2.291 . S
O27 Mg6 2.114 1_565 S
O28 C0 1.208 . S
O28 Mg8 2.031 . S
C29 O14 1.264 1_545 S
C29 O16 1.273 . S
C30 O11 1.191 1_655 S
C30 O13 1.307 . S
C31 O58 1.312 1_545 S
C31 O59 1.208 . S
C32 O53 1.331 . S
C32 O56 1.244 1_556 S
C33 O55 1.264 1_554 S
C33 O57 1.273 . S
Mg34 O36 1.936 1_556 S
Mg34 O43 2.081 . S
Mg34 O45 2.023 . S
Mg34 O49 2.031 . S
Mg34 O58 2.291 . S
Mg35 O36 1.963 . S
Mg35 O46 1.942 . S
Mg35 O47 1.955 . S
Mg35 O54 1.986 . S
O36 Mg34 1.936 1_554 S
O36 Mg35 1.963 . S
O36 Mg37 1.915 1_565 S
Mg37 O36 1.915 1_545 S
Mg37 O38 1.915 . S
Mg37 O42 2.013 1_545 S
Mg37 O48 2.114 1_554 S
Mg37 O52 2.013 . S
Mg37 O58 2.114 1_544 S
O38 Mg37 1.915 . S
O38 Mg39 1.936 1_554 S
O38 Mg40 1.963 . S
Mg39 O38 1.936 1_556 S
Mg39 O48 2.291 . S
Mg39 O53 2.081 . S
Mg39 O55 2.023 . S
Mg39 O59 2.031 . S
Mg40 O38 1.963 . S
Mg40 O44 1.986 . S
Mg40 O56 1.942 . S
Mg40 O57 1.955 . S
C41 O52 1.191 1_565 S
C41 O54 1.307 . S
O42 Mg37 2.013 1_565 S
O42 C61 1.191 1_565 S
O43 Mg34 2.081 . S
O43 C51 1.331 . S
O44 Mg40 1.986 . S
O44 C61 1.307 . S
O45 Mg34 2.023 . S
O45 C60 1.264 1_556 S
O46 Mg35 1.942 . S
O46 C51 1.244 1_554 S
O47 Mg35 1.955 . S
O47 C60 1.273 . S
O48 Mg37 2.114 1_556 S
O48 Mg39 2.291 . S
O48 C50 1.312 1_545 S
O49 Mg34 2.031 . S
O49 C50 1.208 . S
C50 O48 1.312 1_565 S
C50 O49 1.208 . S
C51 O43 1.331 . S
C51 O46 1.244 1_556 S
O52 Mg37 2.013 . S
O52 C41 1.191 1_545 S
O53 C32 1.331 . S
O53 Mg39 2.081 . S
O54 Mg35 1.986 . S
O54 C41 1.307 . S
O55 C33 1.264 1_556 S
O55 Mg39 2.023 . S
O56 C32 1.244 1_554 S
O56 Mg40 1.942 . S
O57 C33 1.273 . S
O57 Mg40 1.955 . S
O58 C31 1.312 1_565 S
O58 Mg34 2.291 . S
O58 Mg37 2.114 1_566 S
O59 C31 1.208 . S
O59 Mg39 2.031 . S
C60 O45 1.264 1_554 S
C60 O47 1.273 . S
C61 O42 1.191 1_545 S
C61 O44 1.307 . S
C62 O89 1.312 1_556 S
C62 O90 1.208 . S
C63 O84 1.331 . S
C63 O87 1.244 1_655 S
C64 O86 1.264 1_455 S
C64 O88 1.273 . S
Mg65 O67 1.936 1_655 S
Mg65 O74 2.081 . S
Mg65 O76 2.023 . S
Mg65 O80 2.031 . S
Mg65 O89 2.291 . S
Mg66 O67 1.963 . S
Mg66 O77 1.942 . S
Mg66 O78 1.955 . S
Mg66 O85 1.986 . S
O67 Mg65 1.936 1_455 S
O67 Mg66 1.963 . S
O67 Mg68 1.915 . S
Mg68 O67 1.915 . S
Mg68 O69 1.915 1_554 S
Mg68 O73 2.013 . S
Mg68 O79 2.114 1_454 S
Mg68 O83 2.013 1_554 S
Mg68 O89 2.114 1_455 S
O69 Mg68 1.915 1_556 S
O69 Mg70 1.936 1_455 S
O69 Mg71 1.963 . S
Mg70 O69 1.936 1_655 S
Mg70 O79 2.291 . S
Mg70 O84 2.081 . S
Mg70 O86 2.023 . S
Mg70 O90 2.031 . S
Mg71 O69 1.963 . S
Mg71 O75 1.986 . S
Mg71 O87 1.942 . S
Mg71 O88 1.955 . S
C72 O83 1.191 1_554 S
C72 O85 1.307 . S
O73 Mg68 2.013 . S
O73 C92 1.191 1_554 S
O74 Mg65 2.081 . S
O74 C82 1.331 . S
O75 Mg71 1.986 . S
O75 C92 1.307 . S
O76 Mg65 2.023 . S
O76 C91 1.264 1_655 S
O77 Mg66 1.942 . S
O77 C82 1.244 1_455 S
O78 Mg66 1.955 . S
O78 C91 1.273 . S
O79 Mg68 2.114 1_656 S
O79 Mg70 2.291 . S
O79 C81 1.312 1_556 S
O80 Mg65 2.031 . S
O80 C81 1.208 . S
C81 O79 1.312 1_554 S
C81 O80 1.208 . S
C82 O74 1.331 . S
C82 O77 1.244 1_655 S
O83 Mg68 2.013 1_556 S
O83 C72 1.191 1_556 S
O84 C63 1.331 . S
O84 Mg70 2.081 . S
O85 Mg66 1.986 . S
O85 C72 1.307 . S
O86 C64 1.264 1_655 S
O86 Mg70 2.023 . S
O87 C63 1.244 1_455 S
O87 Mg71 1.942 . S
O88 C64 1.273 . S
O88 Mg71 1.955 . S
O89 C62 1.312 1_554 S
O89 Mg65 2.291 . S
O89 Mg68 2.114 1_655 S
O90 C62 1.208 . S
O90 Mg70 2.031 . S
C91 O76 1.264 1_455 S
C91 O78 1.273 . S
C92 O73 1.191 1_556 S
C92 O75 1.307 . S
H93 C99 0.930 . S
H94 C103 0.930 . S
H95 C108 0.929 . S
H96 C106 0.929 . S
H97 C101 0.929 . S
H98 C107 0.929 . S
C99 H93 0.930 . S
C99 C100 1.367 . S
C99 C107 1.378 . S
C100 C99 1.367 . S
C100 C108 1.433 1_655 S
C101 H97 0.929 . S
C101 C103 1.378 . S
C101 C105 1.361 . S
C102 C105 1.461 1_655 S
C102 C107 1.350 . S
C102 N110 1.427 1_655 S
C103 H94 0.930 . S
C103 C101 1.378 . S
C103 C104 1.367 . S
C104 C103 1.367 . S
C104 C106 1.433 1_455 S
C105 C101 1.361 . S
C105 C102 1.461 1_455 S
C105 N109 1.417 1_455 S
C106 H96 0.929 . S
C106 C104 1.433 1_655 S
C106 N109 1.384 . S
C107 H98 0.929 . S
C107 C99 1.378 . S
C107 C102 1.350 . S
C108 H95 0.929 . S
C108 C100 1.433 1_455 S
C108 N110 1.384 . S
N109 C105 1.417 1_655 S
N109 C106 1.384 . S
N110 C102 1.427 1_455 S
N110 C108 1.384 . S
H111 C117 0.930 . S
H112 C121 0.930 . S
H113 C126 0.929 . S
H114 C124 0.929 . S
H115 C119 0.929 . S
H116 C125 0.929 . S
C117 H111 0.930 . S
C117 C118 1.367 . S
C117 C125 1.378 . S
C118 C117 1.367 . S
C118 C126 1.433 1_545 S
C119 H115 0.929 . S
C119 C121 1.378 . S
C119 C123 1.350 1_565 S
C120 C123 1.463 . S
C120 C125 1.350 . S
C120 N128 1.427 1_545 S
C121 H112 0.930 . S
C121 C119 1.378 . S
C121 C122 1.367 1_565 S
C122 C121 1.367 1_545 S
C122 C124 1.433 . S
C123 C119 1.350 1_545 S
C123 C120 1.463 . S
C123 N127 1.427 . S
C124 H114 0.929 . S
C124 C122 1.433 . S
C124 N127 1.384 . S
C125 H116 0.929 . S
C125 C117 1.378 . S
C125 C120 1.350 . S
C126 H113 0.929 . S
C126 C118 1.433 1_565 S
C126 N128 1.384 . S
N127 C123 1.427 . S
N127 C124 1.384 . S
N128 C120 1.427 1_565 S
N128 C126 1.384 . S
H129 C135 0.930 . S
H130 C139 0.930 . S
H131 C144 0.929 . S
H132 C142 0.929 . S
H133 C137 0.929 . S
H134 C143 0.929 . S
C135 H129 0.930 . S
C135 C136 1.367 . S
C135 C143 1.378 . S
C136 C135 1.367 . S
C136 C144 1.433 1_655 S
C137 H133 0.929 . S
C137 C139 1.378 . S
C137 C141 1.350 . S
C138 C141 1.463 . S
C138 C143 1.350 1_455 S
C138 N146 1.427 . S
C139 H130 0.930 . S
C139 C137 1.378 . S
C139 C140 1.367 . S
C140 C139 1.367 . S
C140 C142 1.433 1_455 S
C141 C137 1.350 . S
C141 C138 1.463 . S
C141 N145 1.427 1_455 S
C142 H132 0.929 . S
C142 C140 1.433 1_655 S
C142 N145 1.384 . S
C143 H134 0.929 . S
C143 C135 1.378 . S
C143 C138 1.350 1_655 S
C144 H131 0.929 . S
C144 C136 1.433 1_455 S
C144 N146 1.384 . S
N145 C141 1.427 1_655 S
N145 C142 1.384 . S
N146 C138 1.427 . S
N146 C144 1.384 . S
H147 C153 0.930 . S
H148 C157 0.930 . S
H149 C162 0.929 . S
H150 C160 0.929 . S
H151 C155 0.929 . S
H152 C161 0.929 . S
C153 H147 0.930 . S
C153 C154 1.367 . S
C153 C161 1.378 . S
C154 C153 1.367 . S
C154 C162 1.433 1_545 S
C155 H151 0.929 . S
C155 C157 1.378 . S
C155 C159 1.350 . S
C156 C159 1.461 1_545 S
C156 C161 1.361 . S
C156 N164 1.417 1_545 S
C157 H148 0.930 . S
C157 C155 1.378 . S
C157 C158 1.367 . S
C158 C157 1.367 . S
C158 C160 1.433 1_565 S
C159 C155 1.350 . S
C159 C156 1.461 1_565 S
C159 N163 1.427 1_565 S
C160 H150 0.929 . S
C160 C158 1.433 1_545 S
C160 N163 1.384 . S
C161 H152 0.929 . S
C161 C153 1.378 . S
C161 C156 1.361 . S
C162 H149 0.929 . S
C162 C154 1.433 1_565 S
C162 N164 1.384 . S
N163 C159 1.427 1_545 S
N163 C160 1.384 . S
N164 C156 1.417 1_565 S
N164 C162 1.384 . S
H165 C171 0.930 . S
H166 C175 0.930 . S
H167 C180 0.929 . S
H168 C178 0.929 . S
H169 C173 0.929 . S
H170 C179 0.929 . S
C171 H165 0.930 . S
C171 C172 1.367 1_655 S
C171 C179 1.378 . S
C172 C171 1.367 1_455 S
C172 C180 1.433 . S
C173 H169 0.929 . S
C173 C175 1.378 . S
C173 C177 1.350 1_455 S
C174 C177 1.463 . S
C174 C179 1.350 . S
C174 N182 1.427 1_655 S
C175 H166 0.930 . S
C175 C173 1.378 . S
C175 C176 1.367 1_455 S
C176 C175 1.367 1_655 S
C176 C178 1.433 . S
C177 C173 1.350 1_655 S
C177 C174 1.463 . S
C177 N181 1.427 . S
C178 H168 0.929 . S
C178 C176 1.433 . S
C178 N181 1.384 . S
C179 H170 0.929 . S
C179 C171 1.378 . S
C179 C174 1.350 . S
C180 H167 0.929 . S
C180 C172 1.433 . S
C180 N182 1.384 . S
N181 C177 1.427 . S
N181 C178 1.384 . S
N182 C174 1.427 1_455 S
N182 C180 1.384 . S
H183 C189 0.930 . S
H184 C193 0.930 . S
H185 C198 0.929 . S
H186 C196 0.929 . S
H187 C191 0.929 . S
H188 C197 0.929 . S
C189 H183 0.930 . S
C189 C190 1.371 . S
C189 C197 1.378 . S
C190 C189 1.371 . S
C190 C198 1.430 1_545 S
C191 H187 0.929 . S
C191 C193 1.378 . S
C191 C195 1.350 1_565 S
C192 C195 1.463 . S
C192 C197 1.350 . S
C192 N200 1.427 1_545 S
C193 H184 0.930 . S
C193 C191 1.378 . S
C193 C194 1.367 1_565 S
C194 C193 1.367 1_545 S
C194 C196 1.433 . S
C195 C191 1.350 1_545 S
C195 C192 1.463 . S
C195 N199 1.427 . S
C196 H186 0.929 . S
C196 C194 1.433 . S
C196 N199 1.384 . S
C197 H188 0.929 . S
C197 C189 1.378 . S
C197 C192 1.350 . S
C198 H185 0.929 . S
C198 C190 1.430 1_565 S
C198 N200 1.384 . S
N199 C195 1.427 . S
N199 C196 1.384 . S
N200 C192 1.427 1_565 S
N200 C198 1.384 . S
H201 C207 0.930 . S
H202 C211 0.930 . S
H203 C216 0.929 . S
H204 C214 0.929 . S
H205 C209 0.929 . S
H206 C215 0.929 . S
C207 H201 0.930 . S
C207 C208 1.367 1_655 S
C207 C215 1.378 . S
C208 C207 1.367 1_455 S
C208 C216 1.433 . S
C209 H205 0.929 . S
C209 C211 1.378 . S
C209 C213 1.350 . S
C210 C213 1.463 . S
C210 C215 1.350 1_455 S
C210 N218 1.427 . S
C211 H202 0.930 . S
C211 C209 1.378 . S
C211 C212 1.367 . S
C212 C211 1.367 . S
C212 C214 1.433 1_455 S
C213 C209 1.350 . S
C213 C210 1.463 . S
C213 N217 1.427 1_455 S
C214 H204 0.929 . S
C214 C212 1.433 1_655 S
C214 N217 1.384 . S
C215 H206 0.929 . S
C215 C207 1.378 . S
C215 C210 1.350 1_655 S
C216 H203 0.929 . S
C216 C208 1.433 . S
C216 N218 1.384 . S
N217 C213 1.427 1_655 S
N217 C214 1.384 . S
N218 C210 1.427 . S
N218 C216 1.384 . S
H219 C225 0.930 . S
H220 C229 0.930 . S
H221 C234 0.929 . S
H222 C232 0.929 . S
H223 C227 0.929 . S
H224 C233 0.929 . S
C225 H219 0.930 . S
C225 C226 1.367 . S
C225 C233 1.378 . S
C226 C225 1.367 . S
C226 C234 1.433 1_545 S
C227 H223 0.929 . S
C227 C229 1.378 . S
C227 C231 1.350 . S
C228 C231 1.463 . S
C228 C233 1.350 1_565 S
C228 N236 1.427 . S
C229 H220 0.930 . S
C229 C227 1.378 . S
C229 C230 1.367 . S
C230 C229 1.367 . S
C230 C232 1.433 1_565 S
C231 C227 1.350 . S
C231 C228 1.463 . S
C231 N235 1.427 1_565 S
C232 H222 0.929 . S
C232 C230 1.433 1_545 S
C232 N235 1.384 . S
C233 H224 0.929 . S
C233 C225 1.378 . S
C233 C228 1.350 1_545 S
C234 H221 0.929 . S
C234 C226 1.433 1_565 S
C234 N236 1.384 . S
N235 C231 1.427 1_545 S
N235 C232 1.384 . S
N236 C228 1.427 . S
N236 C234 1.384 . S
H237 C243 0.930 . S
H238 C247 0.930 . S
H239 C252 0.929 . S
H240 C250 0.929 . S
H241 C245 0.929 . S
H242 C251 0.929 . S
C243 H237 0.930 . S
C243 C244 1.367 1_556 S
C243 C251 1.378 . S
C244 C243 1.367 1_554 S
C244 C252 1.433 . S
C245 H241 0.929 . S
C245 C247 1.378 . S
C245 C249 1.350 1_554 S
C246 C249 1.463 . S
C246 C251 1.350 . S
C246 N254 1.427 1_556 S
C247 H238 0.930 . S
C247 C245 1.378 . S
C247 C248 1.367 1_554 S
C248 C247 1.367 1_556 S
C248 C250 1.433 . S
C249 C245 1.350 1_556 S
C249 C246 1.463 . S
C249 N253 1.427 . S
C250 H240 0.929 . S
C250 C248 1.433 . S
C250 N253 1.384 . S
C251 H242 0.929 . S
C251 C243 1.378 . S
C251 C246 1.350 . S
C252 H239 0.929 . S
C252 C244 1.433 . S
C252 N254 1.384 . S
N253 C249 1.427 . S
N253 C250 1.384 . S
N254 C246 1.427 1_554 S
N254 C252 1.384 . S
H255 C261 0.930 . S
H256 C265 0.930 . S
H257 C270 0.929 . S
H258 C268 0.929 . S
H259 C263 0.929 . S
H260 C269 0.929 . S
C261 H255 0.930 . S
C261 C262 1.367 1_556 S
C261 C269 1.378 . S
C262 C261 1.367 1_554 S
C262 C270 1.433 . S
C263 H259 0.929 . S
C263 C265 1.378 . S
C263 C267 1.350 . S
C264 C267 1.463 . S
C264 C269 1.350 1_554 S
C264 N272 1.427 . S
C265 H256 0.930 . S
C265 C263 1.378 . S
C265 C266 1.367 . S
C266 C265 1.367 . S
C266 C268 1.433 1_554 S
C267 C263 1.350 . S
C267 C264 1.463 . S
C267 N271 1.427 1_554 S
C268 H258 0.929 . S
C268 C266 1.433 1_556 S
C268 N271 1.384 . S
C269 H260 0.929 . S
C269 C261 1.378 . S
C269 C264 1.350 1_556 S
C270 H257 0.929 . S
C270 C262 1.433 . S
C270 N272 1.384 . S
N271 C267 1.427 1_556 S
N271 C268 1.384 . S
N272 C264 1.427 . S
N272 C270 1.384 . S
H273 C279 0.930 . S
H274 C283 0.930 . S
H275 C288 0.929 1_556 S
H276 C286 0.929 . S
H277 C281 0.929 . S
H278 C287 0.929 . S
C279 H273 0.930 . S
C279 C280 1.367 . S
C279 C287 1.378 . S
C280 C279 1.367 . S
C280 C288 1.433 . S
C281 H277 0.929 . S
C281 C283 1.378 . S
C281 C285 1.350 1_556 S
C282 C285 1.463 . S
C282 C287 1.350 . S
C282 N290 1.428 1_554 S
C283 H274 0.930 . S
C283 C281 1.378 . S
C283 C284 1.369 . S
C284 C283 1.369 . S
C284 C286 1.430 1_556 S
C285 C281 1.350 1_554 S
C285 C282 1.463 . S
C285 N289 1.427 . S
C286 H276 0.929 . S
C286 C284 1.430 1_554 S
C286 N289 1.384 . S
C287 H278 0.929 . S
C287 C279 1.378 . S
C287 C282 1.350 . S
C288 H275 0.929 1_554 S
C288 C280 1.433 . S
C288 N290 1.384 1_554 S
N289 C285 1.427 . S
N289 C286 1.384 . S
N290 C282 1.428 1_556 S
N290 C288 1.384 1_556 S
H291 C297 0.930 . S
H292 C301 0.930 . S
H293 C306 0.929 . S
H294 C304 0.929 . S
H295 C299 0.929 . S
H296 C305 0.929 . S
C297 H291 0.930 . S
C297 C298 1.367 1_556 S
C297 C305 1.378 . S
C298 C297 1.367 1_554 S
C298 C306 1.433 . S
C299 H295 0.929 . S
C299 C301 1.378 . S
C299 C303 1.350 1_554 S
C300 C303 1.463 . S
C300 C305 1.350 . S
C300 N308 1.427 1_556 S
C301 H292 0.930 . S
C301 C299 1.378 . S
C301 C302 1.367 1_554 S
C302 C301 1.367 1_556 S
C302 C304 1.433 . S
C303 C299 1.350 1_556 S
C303 C300 1.463 . S
C303 N307 1.427 . S
C304 H294 0.929 . S
C304 C302 1.433 . S
C304 N307 1.384 . S
C305 H296 0.929 . S
C305 C297 1.378 . S
C305 C300 1.350 . S
C306 H293 0.929 . S
C306 C298 1.433 . S
C306 N308 1.384 . S
N307 C303 1.427 . S
N307 C304 1.384 . S
N308 C300 1.427 1_554 S
N308 C306 1.384 . S
C100 C82 1.280 . S
C104 C10 1.242 . S
C118 C2 1.328 . S
C122 C41 1.281 1_545 S
C136 C19 1.318 1_655 S
C140 C91 1.396 . S
C154 C61 1.243 . S
C158 C20 1.280 . S
C172 C0 1.236 1_455 S
C176 C63 1.300 . S
C190 C31 1.313 . S
C194 C29 1.393 . S
C208 C64 1.327 . S
C212 C30 1.283 1_455 S
C226 C50 1.248 1_545 S
C230 C1 1.304 . S
C244 C72 1.253 . S
C248 C32 1.274 . S
C262 C92 1.292 1_554 S
C266 C60 1.325 . S
C280 C33 1.395 . S
C284 C81 1.313 1_556 S
C298 C62 1.227 1_554 S
C302 C51 1.301 . S
