# Generated by pormake.
# Topology gme, (4)-cn, num edge types: 1
# Building blocks:
#     Node 0, Type 0, BuildingBlock: GALJAG_clean_sbu_0, # of connection points: 4
#     Node 1, Type 0, BuildingBlock: GALJAG_clean_sbu_0, # of connection points: 4
#     Node 2, Type 0, BuildingBlock: GALJAG_clean_sbu_0, # of connection points: 4
#     Node 3, Type 0, BuildingBlock: GALJAG_clean_sbu_0, # of connection points: 4
#     Node 4, Type 0, BuildingBlock: GALJAG_clean_sbu_0, # of connection points: 4
#     Node 5, Type 0, BuildingBlock: GALJAG_clean_sbu_0, # of connection points: 4
#     Node 6, Type 0, BuildingBlock: GALJAG_clean_sbu_0, # of connection points: 4
#     Node 7, Type 0, BuildingBlock: GALJAG_clean_sbu_0, # of connection points: 4
#     Node 8, Type 0, BuildingBlock: GALJAG_clean_sbu_0, # of connection points: 4
#     Node 9, Type 0, BuildingBlock: GALJAG_clean_sbu_0, # of connection points: 4
#     Node 10, Type 0, BuildingBlock: GALJAG_clean_sbu_0, # of connection points: 4
#     Node 11, Type 0, BuildingBlock: GALJAG_clean_sbu_0, # of connection points: 4
#     Node 12, Type 0, BuildingBlock: GALJAG_clean_sbu_0, # of connection points: 4
#     Node 13, Type 0, BuildingBlock: GALJAG_clean_sbu_0, # of connection points: 4
#     Node 14, Type 0, BuildingBlock: GALJAG_clean_sbu_0, # of connection points: 4
#     Node 15, Type 0, BuildingBlock: GALJAG_clean_sbu_0, # of connection points: 4
#     Node 16, Type 0, BuildingBlock: GALJAG_clean_sbu_0, # of connection points: 4
#     Node 17, Type 0, BuildingBlock: GALJAG_clean_sbu_0, # of connection points: 4
#     Node 18, Type 0, BuildingBlock: GALJAG_clean_sbu_0, # of connection points: 4
#     Node 19, Type 0, BuildingBlock: GALJAG_clean_sbu_0, # of connection points: 4
#     Node 20, Type 0, BuildingBlock: GALJAG_clean_sbu_0, # of connection points: 4
#     Node 21, Type 0, BuildingBlock: GALJAG_clean_sbu_0, # of connection points: 4
#     Node 22, Type 0, BuildingBlock: GALJAG_clean_sbu_0, # of connection points: 4
#     Node 23, Type 0, BuildingBlock: GALJAG_clean_sbu_0, # of connection points: 4
#     Edge 24, Type (0, 0), BuildingBlock: XIVTED_clean_linker_0, # of connection points: 2
#     Edge 25, Type (0, 0), BuildingBlock: XIVTED_clean_linker_0, # of connection points: 2
#     Edge 26, Type (0, 0), BuildingBlock: XIVTED_clean_linker_0, # of connection points: 2
#     Edge 27, Type (0, 0), BuildingBlock: XIVTED_clean_linker_0, # of connection points: 2
#     Edge 28, Type (0, 0), BuildingBlock: XIVTED_clean_linker_0, # of connection points: 2
#     Edge 29, Type (0, 0), BuildingBlock: XIVTED_clean_linker_0, # of connection points: 2
#     Edge 30, Type (0, 0), BuildingBlock: XIVTED_clean_linker_0, # of connection points: 2
#     Edge 31, Type (0, 0), BuildingBlock: XIVTED_clean_linker_0, # of connection points: 2
#     Edge 32, Type (0, 0), BuildingBlock: XIVTED_clean_linker_0, # of connection points: 2
#     Edge 33, Type (0, 0), BuildingBlock: XIVTED_clean_linker_0, # of connection points: 2
#     Edge 34, Type (0, 0), BuildingBlock: XIVTED_clean_linker_0, # of connection points: 2
#     Edge 35, Type (0, 0), BuildingBlock: XIVTED_clean_linker_0, # of connection points: 2
#     Edge 36, Type (0, 0), BuildingBlock: XIVTED_clean_linker_0, # of connection points: 2
#     Edge 37, Type (0, 0), BuildingBlock: XIVTED_clean_linker_0, # of connection points: 2
#     Edge 38, Type (0, 0), BuildingBlock: XIVTED_clean_linker_0, # of connection points: 2
#     Edge 39, Type (0, 0), BuildingBlock: XIVTED_clean_linker_0, # of connection points: 2
#     Edge 40, Type (0, 0), BuildingBlock: XIVTED_clean_linker_0, # of connection points: 2
#     Edge 41, Type (0, 0), BuildingBlock: XIVTED_clean_linker_0, # of connection points: 2
#     Edge 42, Type (0, 0), BuildingBlock: XIVTED_clean_linker_0, # of connection points: 2
#     Edge 43, Type (0, 0), BuildingBlock: XIVTED_clean_linker_0, # of connection points: 2
#     Edge 44, Type (0, 0), BuildingBlock: XIVTED_clean_linker_0, # of connection points: 2
#     Edge 45, Type (0, 0), BuildingBlock: XIVTED_clean_linker_0, # of connection points: 2
#     Edge 46, Type (0, 0), BuildingBlock: XIVTED_clean_linker_0, # of connection points: 2
#     Edge 47, Type (0, 0), BuildingBlock: XIVTED_clean_linker_0, # of connection points: 2
#     Edge 48, Type (0, 0), BuildingBlock: XIVTED_clean_linker_0, # of connection points: 2
#     Edge 49, Type (0, 0), BuildingBlock: XIVTED_clean_linker_0, # of connection points: 2
#     Edge 50, Type (0, 0), BuildingBlock: XIVTED_clean_linker_0, # of connection points: 2
#     Edge 51, Type (0, 0), BuildingBlock: XIVTED_clean_linker_0, # of connection points: 2
#     Edge 52, Type (0, 0), BuildingBlock: XIVTED_clean_linker_0, # of connection points: 2
#     Edge 53, Type (0, 0), BuildingBlock: XIVTED_clean_linker_0, # of connection points: 2
#     Edge 54, Type (0, 0), BuildingBlock: XIVTED_clean_linker_0, # of connection points: 2
#     Edge 55, Type (0, 0), BuildingBlock: XIVTED_clean_linker_0, # of connection points: 2
#     Edge 56, Type (0, 0), BuildingBlock: XIVTED_clean_linker_0, # of connection points: 2
#     Edge 57, Type (0, 0), BuildingBlock: XIVTED_clean_linker_0, # of connection points: 2
#     Edge 58, Type (0, 0), BuildingBlock: XIVTED_clean_linker_0, # of connection points: 2
#     Edge 59, Type (0, 0), BuildingBlock: XIVTED_clean_linker_0, # of connection points: 2
#     Edge 60, Type (0, 0), BuildingBlock: XIVTED_clean_linker_0, # of connection points: 2
#     Edge 61, Type (0, 0), BuildingBlock: XIVTED_clean_linker_0, # of connection points: 2
#     Edge 62, Type (0, 0), BuildingBlock: XIVTED_clean_linker_0, # of connection points: 2
#     Edge 63, Type (0, 0), BuildingBlock: XIVTED_clean_linker_0, # of connection points: 2
#     Edge 64, Type (0, 0), BuildingBlock: XIVTED_clean_linker_0, # of connection points: 2
#     Edge 65, Type (0, 0), BuildingBlock: XIVTED_clean_linker_0, # of connection points: 2
#     Edge 66, Type (0, 0), BuildingBlock: XIVTED_clean_linker_0, # of connection points: 2
#     Edge 67, Type (0, 0), BuildingBlock: XIVTED_clean_linker_0, # of connection points: 2
#     Edge 68, Type (0, 0), BuildingBlock: XIVTED_clean_linker_0, # of connection points: 2
#     Edge 69, Type (0, 0), BuildingBlock: XIVTED_clean_linker_0, # of connection points: 2
#     Edge 70, Type (0, 0), BuildingBlock: XIVTED_clean_linker_0, # of connection points: 2
#     Edge 71, Type (0, 0), BuildingBlock: XIVTED_clean_linker_0, # of connection points: 2
# Relax obj value: 0.080
# Max RMSD: 0.062
# Mean RMSD: 0.062
data_MOF--net-gme--node1-GALJAG_clean_sbu_0--edge1-XIVTED_clean_linker_0
_symmetry_space_group_name_H-M    P1
_symmetry_Int_Tables_number       1
_symmetry_cell_setting            triclinic
loop_
_symmetry_equiv_pos_as_xyz
'x, y, z'
_cell_length_a     58.091528
_cell_length_b     58.09741
_cell_length_c     55.982784
_cell_angle_alpha  89.985773
_cell_angle_beta   89.994156
_cell_angle_gamma 120.03857
loop_
_atom_site_label
_atom_site_type_symbol
_atom_site_fract_x
_atom_site_fract_y
_atom_site_fract_z
_atom_type_partial_charge
In0 In 0.4113 0.07785 0.11523 0.0
O1 O 0.38382 0.05522 0.14703 0.0
O2 O 0.42558 0.07648 0.15246 0.0
C3 C 0.3828 0.05279 0.07593 0.0
C4 C 0.40947 0.12314 0.11853 0.0
C5 C 0.45596 0.07688 0.10453 0.0
O6 O 0.37973 0.04077 0.09553 0.0
O7 O 0.39961 0.07726 0.07649 0.0
O8 O 0.45545 0.0983 0.1063 0.0
O9 O 0.43388 0.05599 0.10794 0.0
C10 C 0.4029 0.0622 0.16146 0.0
O11 O 0.43065 0.12296 0.11398 0.0
O12 O 0.38921 0.10047 0.12137 0.0
In13 In 0.32989 0.39957 0.62039 0.0
O14 O 0.30636 0.42129 0.62443 0.0
O15 O 0.2848 0.37929 0.62031 0.0
C16 C 0.37272 0.44876 0.61768 0.0
C17 C 0.33496 0.37754 0.66143 0.0
C18 C 0.32854 0.37612 0.57839 0.0
O19 O 0.35371 0.44313 0.63189 0.0
O20 O 0.36993 0.42969 0.60482 0.0
O21 O 0.33545 0.36993 0.59763 0.0
O22 O 0.32219 0.39382 0.58049 0.0
C23 C 0.28395 0.40039 0.623 0.0
O24 O 0.35445 0.39615 0.65076 0.0
O25 O 0.31303 0.36938 0.65102 0.0
In26 In 0.93419 0.32798 0.11742 0.0
O27 O 0.95283 0.31616 0.14794 0.0
O28 O 0.94959 0.35062 0.15228 0.0
C29 C 0.95773 0.32537 0.07676 0.0
C30 C 0.88782 0.28238 0.1237 0.0
C31 C 0.93038 0.37117 0.10696 0.0
O32 O 0.97038 0.33376 0.09611 0.0
O33 O 0.93333 0.31781 0.07817 0.0
O34 O 0.91019 0.34849 0.11013 0.0
O35 O 0.95243 0.37198 0.10897 0.0
C36 C 0.95659 0.33523 0.16124 0.0
O37 O 0.88988 0.30495 0.12581 0.0
O38 O 0.90918 0.28281 0.11856 0.0
In39 In 0.59228 0.92746 0.62083 0.0
O40 O 0.56978 0.88205 0.62375 0.0
O41 O 0.61188 0.90209 0.62074 0.0
C42 C 0.54309 0.92113 0.61775 0.0
C43 C 0.6145 0.95392 0.66201 0.0
C44 C 0.61784 0.95118 0.58 0.0
O45 O 0.54934 0.90986 0.6337 0.0
O46 O 0.56152 0.93527 0.60334 0.0
O47 O 0.62251 0.96372 0.59947 0.0
O48 O 0.60052 0.92689 0.58127 0.0
C49 C 0.59051 0.88022 0.62273 0.0
O50 O 0.59743 0.95678 0.65059 0.0
O51 O 0.62094 0.93843 0.65231 0.0
In52 In 0.66334 0.60213 0.1211 0.0
O53 O 0.64118 0.60765 0.15245 0.0
O54 O 0.68312 0.63098 0.15227 0.0
C55 C 0.66446 0.62676 0.07981 0.0
C56 C 0.70764 0.59823 0.12053 0.0
C57 C 0.61915 0.55379 0.12002 0.0
O58 O 0.65812 0.63281 0.09942 0.0
O59 O 0.67036 0.60871 0.08122 0.0
O60 O 0.63851 0.55903 0.13366 0.0
O61 O 0.62221 0.57285 0.10699 0.0
C62 C 0.6618 0.62462 0.16315 0.0
O63 O 0.68461 0.57806 0.12049 0.0
O64 O 0.70826 0.62023 0.12109 0.0
In65 In 0.06558 0.66357 0.61602 0.0
O66 O 0.05067 0.67889 0.64697 0.0
O67 O 0.04817 0.64158 0.65115 0.0
C68 C 0.03993 0.66306 0.57549 0.0
C69 C 0.11203 0.71009 0.61672 0.0
C70 C 0.07025 0.62004 0.61082 0.0
O71 O 0.02838 0.6565 0.59551 0.0
O72 O 0.06427 0.67018 0.57608 0.0
O73 O 0.08868 0.64151 0.61946 0.0
O74 O 0.04964 0.62068 0.6047 0.0
C75 C 0.04453 0.65923 0.66036 0.0
O76 O 0.111 0.68789 0.61584 0.0
O77 O 0.08971 0.70878 0.61722 0.0
In78 In 0.91678 0.58102 0.38222 0.0
O79 O 0.93902 0.60654 0.34925 0.0
O80 O 0.91168 0.56534 0.34463 0.0
C81 C 0.94361 0.61023 0.4206 0.0
C82 C 0.87196 0.58389 0.38211 0.0
C83 C 0.92018 0.53736 0.39155 0.0
O84 O 0.95439 0.61407 0.40025 0.0
O85 O 0.91951 0.59228 0.42125 0.0
O86 O 0.89831 0.53712 0.39167 0.0
O87 O 0.94028 0.55968 0.38699 0.0
C88 C 0.92784 0.58712 0.33498 0.0
O89 O 0.87206 0.56271 0.38692 0.0
O90 O 0.89449 0.60365 0.37746 0.0
In91 In 0.33452 0.93562 0.87844 0.0
O92 O 0.31163 0.89015 0.87745 0.0
O93 O 0.28944 0.91014 0.87837 0.0
C94 C 0.3783 0.93111 0.88237 0.0
C95 C 0.33773 0.95861 0.83528 0.0
C96 C 0.33393 0.95972 0.91956 0.0
O97 O 0.35803 0.91457 0.87079 0.0
O98 O 0.37637 0.94972 0.89199 0.0
O99 O 0.34084 0.97201 0.89989 0.0
O100 O 0.32713 0.93549 0.9183 0.0
C101 C 0.28902 0.88824 0.87776 0.0
O102 O 0.35708 0.95815 0.84484 0.0
O103 O 0.31697 0.94839 0.84783 0.0
In104 In 0.39574 0.33767 0.3761 0.0
O105 O 0.4198 0.31634 0.37684 0.0
O106 O 0.37786 0.29285 0.37316 0.0
C107 C 0.44412 0.38167 0.37869 0.0
C108 C 0.37388 0.34068 0.3342 0.0
C109 C 0.37032 0.33571 0.41714 0.0
O110 O 0.439 0.36301 0.36422 0.0
O111 O 0.42491 0.37802 0.39183 0.0
O112 O 0.36602 0.34422 0.39787 0.0
O113 O 0.38701 0.32799 0.41551 0.0
C114 C 0.39978 0.2934 0.3747 0.0
O115 O 0.36533 0.31937 0.34578 0.0
O116 O 0.39279 0.36062 0.34412 0.0
In117 In 0.07134 0.40302 0.87855 0.0
O118 O 0.11673 0.42472 0.87605 0.0
O119 O 0.09587 0.38251 0.87743 0.0
C120 C 0.07898 0.45267 0.88183 0.0
C121 C 0.04461 0.38165 0.83731 0.0
C122 C 0.04759 0.37756 0.9194 0.0
O123 O 0.09028 0.44618 0.8661 0.0
O124 O 0.06409 0.43421 0.89594 0.0
O125 O 0.03489 0.37346 0.90009 0.0
O126 O 0.07203 0.39434 0.91799 0.0
C127 C 0.11801 0.40367 0.87614 0.0
O128 O 0.05875 0.37374 0.84739 0.0
O129 O 0.0432 0.39976 0.84839 0.0
In130 In 0.6646 0.06672 0.38305 0.0
O131 O 0.69019 0.11166 0.37915 0.0
O132 O 0.70963 0.08891 0.37859 0.0
C133 C 0.62089 0.06934 0.3941 0.0
C134 C 0.65597 0.04668 0.33823 0.0
C135 C 0.66722 0.04246 0.42318 0.0
O136 O 0.64341 0.08986 0.39124 0.0
O137 O 0.62053 0.04755 0.39158 0.0
O138 O 0.6579 0.02997 0.40387 0.0
O139 O 0.67565 0.06707 0.42199 0.0
C140 C 0.71182 0.1116 0.37747 0.0
O141 O 0.67103 0.04378 0.35263 0.0
O142 O 0.6453 0.05919 0.34656 0.0
In143 In 0.59662 0.66809 0.87886 0.0
O144 O 0.60185 0.6434 0.8497 0.0
O145 O 0.6249 0.68528 0.84704 0.0
C146 C 0.62168 0.66922 0.91982 0.0
C147 C 0.5957 0.71399 0.8769 0.0
C148 C 0.54705 0.62573 0.88152 0.0
O149 O 0.60496 0.67693 0.9184 0.0
O150 O 0.62614 0.66109 0.9004 0.0
O151 O 0.56477 0.63049 0.89688 0.0
O152 O 0.55416 0.6426 0.86487 0.0
C153 C 0.61852 0.66314 0.83778 0.0
O154 O 0.57474 0.69157 0.87615 0.0
O155 O 0.6169 0.71314 0.87861 0.0
In156 In 0.59815 0.93397 0.8778 0.0
O157 O 0.59996 0.95954 0.84592 0.0
O158 O 0.62776 0.94622 0.84678 0.0
C159 C 0.62348 0.95698 0.91891 0.0
C160 C 0.59592 0.88651 0.87597 0.0
C161 C 0.54971 0.92915 0.88166 0.0
O162 O 0.62911 0.96956 0.8994 0.0
O163 O 0.60529 0.93304 0.91756 0.0
O164 O 0.55392 0.91369 0.86889 0.0
O165 O 0.56987 0.94682 0.89256 0.0
C166 C 0.61874 0.95874 0.83553 0.0
O167 O 0.57529 0.88855 0.87556 0.0
O168 O 0.61747 0.90831 0.87726 0.0
In169 In 0.66231 0.60127 0.37909 0.0
O170 O 0.64001 0.60755 0.3483 0.0
O171 O 0.68201 0.62987 0.34777 0.0
C172 C 0.66364 0.62591 0.42041 0.0
C173 C 0.70664 0.59739 0.37898 0.0
C174 C 0.61813 0.55287 0.38015 0.0
O175 O 0.65687 0.6317 0.40089 0.0
O176 O 0.66996 0.60816 0.41888 0.0
O177 O 0.63709 0.55845 0.3659 0.0
O178 O 0.62161 0.57158 0.39385 0.0
C179 C 0.66062 0.62408 0.33729 0.0
O180 O 0.68362 0.5772 0.37915 0.0
O181 O 0.70723 0.61938 0.37877 0.0
In182 In 0.07195 0.6672 0.87893 0.0
O183 O 0.11741 0.69098 0.87836 0.0
O184 O 0.09657 0.71235 0.87968 0.0
C185 C 0.07941 0.62508 0.88288 0.0
C186 C 0.04806 0.66259 0.83605 0.0
C187 C 0.04531 0.66686 0.91868 0.0
O188 O 0.09119 0.64293 0.86728 0.0
O189 O 0.06424 0.6287 0.89653 0.0
O190 O 0.03404 0.65948 0.89859 0.0
O191 O 0.06984 0.67476 0.9185 0.0
C192 C 0.11875 0.71333 0.87899 0.0
O193 O 0.0623 0.68461 0.8462 0.0
O194 O 0.04494 0.64283 0.84793 0.0
In195 In 0.40982 0.08002 0.38498 0.0
O196 O 0.42867 0.12507 0.38706 0.0
O197 O 0.38776 0.1025 0.37772 0.0
C198 C 0.45429 0.07885 0.39604 0.0
C199 C 0.40265 0.06442 0.33875 0.0
C200 C 0.38059 0.05445 0.42383 0.0
O201 O 0.45398 0.10035 0.39396 0.0
O202 O 0.43211 0.05803 0.39284 0.0
O203 O 0.37752 0.04284 0.40402 0.0
O204 O 0.39776 0.07883 0.42373 0.0
C205 C 0.40768 0.12517 0.38147 0.0
O206 O 0.38319 0.05734 0.35276 0.0
O207 O 0.42507 0.0789 0.34812 0.0
In208 In 0.33544 0.40118 0.87562 0.0
O209 O 0.31273 0.42379 0.87322 0.0
O210 O 0.2904 0.38162 0.87523 0.0
C211 C 0.37744 0.45097 0.87802 0.0
C212 C 0.33912 0.37836 0.83462 0.0
C213 C 0.33451 0.37644 0.91675 0.0
O214 O 0.37317 0.43331 0.89331 0.0
O215 O 0.36042 0.44358 0.86147 0.0
O216 O 0.32524 0.39185 0.91484 0.0
O217 O 0.3442 0.37317 0.89772 0.0
C218 C 0.29009 0.40312 0.8738 0.0
O219 O 0.3592 0.39602 0.84548 0.0
O220 O 0.31736 0.3715 0.8449 0.0
In221 In 0.93299 0.32688 0.38007 0.0
O222 O 0.95212 0.3152 0.34985 0.0
O223 O 0.94726 0.34862 0.3447 0.0
C224 C 0.95658 0.32447 0.42077 0.0
C225 C 0.88646 0.28127 0.37437 0.0
C226 C 0.92969 0.37049 0.38987 0.0
O227 O 0.96918 0.33268 0.40137 0.0
O228 O 0.93222 0.3171 0.41942 0.0
O229 O 0.90937 0.3478 0.38718 0.0
O230 O 0.95165 0.3711 0.38782 0.0
C231 C 0.955 0.33366 0.33612 0.0
O232 O 0.88852 0.30386 0.37246 0.0
O233 O 0.90792 0.28168 0.37897 0.0
In234 In 0.06468 0.39935 0.62082 0.0
O235 O 0.10986 0.42164 0.62558 0.0
O236 O 0.09012 0.37979 0.62053 0.0
C237 C 0.069 0.44725 0.61408 0.0
C238 C 0.04031 0.38045 0.66359 0.0
C239 C 0.04187 0.37335 0.57995 0.0
O240 O 0.08647 0.44447 0.62507 0.0
O241 O 0.04956 0.42592 0.60643 0.0
O242 O 0.02927 0.36786 0.59945 0.0
O243 O 0.06576 0.39172 0.58121 0.0
C244 C 0.11184 0.40104 0.62374 0.0
O245 O 0.05101 0.36974 0.65201 0.0
O246 O 0.04124 0.40016 0.65336 0.0
In247 In 0.66705 0.06674 0.1179 0.0
O248 O 0.67344 0.04447 0.14901 0.0
O249 O 0.64606 0.05812 0.15363 0.0
C250 C 0.67058 0.04278 0.07794 0.0
C251 C 0.71396 0.1119 0.1238 0.0
C252 C 0.62342 0.06911 0.10608 0.0
O253 O 0.66133 0.03023 0.09724 0.0
O254 O 0.67852 0.06728 0.07908 0.0
O255 O 0.6457 0.08971 0.10969 0.0
O256 O 0.62328 0.0474 0.1082 0.0
C257 C 0.6572 0.04639 0.16265 0.0
O258 O 0.69225 0.11173 0.12176 0.0
O259 O 0.712 0.08929 0.12297 0.0
In260 In 0.59474 0.66357 0.62251 0.0
O261 O 0.59654 0.64002 0.65459 0.0
O262 O 0.62566 0.68072 0.65254 0.0
C263 C 0.6192 0.66503 0.58107 0.0
C264 C 0.59307 0.70911 0.62454 0.0
C265 C 0.54598 0.62032 0.61884 0.0
O266 O 0.62428 0.65721 0.60037 0.0
O267 O 0.60206 0.67218 0.58282 0.0
O268 O 0.55085 0.63933 0.63279 0.0
O269 O 0.56564 0.62327 0.60677 0.0
C270 C 0.61622 0.65943 0.66427 0.0
O271 O 0.5723 0.68654 0.62498 0.0
O272 O 0.61447 0.7086 0.62317 0.0
In273 In 0.91712 0.58126 0.10922 0.0
O274 O 0.87242 0.5633 0.10469 0.0
O275 O 0.89511 0.60401 0.11483 0.0
C276 C 0.92044 0.53761 0.09977 0.0
C277 C 0.92819 0.5866 0.15644 0.0
C278 C 0.94382 0.61067 0.07086 0.0
O279 O 0.89857 0.53737 0.0997 0.0
O280 O 0.94058 0.55995 0.1042 0.0
O281 O 0.95462 0.61447 0.0912 0.0
O282 O 0.91974 0.59265 0.07021 0.0
C283 C 0.8725 0.58444 0.11008 0.0
O284 O 0.93931 0.6063 0.14243 0.0
O285 O 0.91211 0.56497 0.14654 0.0
In286 In 0.32957 0.93072 0.61782 0.0
O287 O 0.35348 0.9591 0.64823 0.0
O288 O 0.31154 0.93963 0.65047 0.0
C289 C 0.32913 0.9565 0.57773 0.0
C290 C 0.28406 0.88336 0.61776 0.0
C291 C 0.37215 0.92388 0.6151 0.0
O292 O 0.3365 0.96811 0.59766 0.0
O293 O 0.32174 0.9321 0.57822 0.0
O294 O 0.35424 0.91242 0.63071 0.0
O295 O 0.36841 0.93849 0.60083 0.0
C296 C 0.33348 0.95507 0.66025 0.0
O297 O 0.30669 0.88529 0.61791 0.0
O298 O 0.28444 0.90525 0.61762 0.0
In299 In 0.39885 0.33626 0.11973 0.0
O300 O 0.36929 0.31771 0.15062 0.0
O301 O 0.39276 0.35961 0.14963 0.0
C302 C 0.37532 0.33355 0.07739 0.0
C303 C 0.40259 0.29192 0.1221 0.0
C304 C 0.44695 0.38072 0.11826 0.0
O305 O 0.36837 0.34002 0.09645 0.0
O306 O 0.39369 0.32821 0.07986 0.0
O307 O 0.44186 0.36175 0.13235 0.0
O308 O 0.42789 0.37709 0.10494 0.0
C309 C 0.37551 0.33943 0.16066 0.0
O310 O 0.42282 0.31491 0.12196 0.0
O311 O 0.38064 0.29139 0.12114 0.0
H312 H 0.4412 0.06786 0.30932 0.0
H313 H 0.35768 0.04327 0.18909 0.0
H314 H 0.35844 0.04596 0.30982 0.0
H315 H 0.44087 0.0671 0.19247 0.0
H316 H 0.35513 0.03848 0.23287 0.0
H317 H 0.43902 0.06176 0.2663 0.0
C318 C 0.42245 0.06156 0.30033 0.0
C319 C 0.40004 0.05767 0.3131 0.0
C320 C 0.37383 0.04445 0.22394 0.0
C321 C 0.39741 0.05094 0.26352 0.0
C322 C 0.37526 0.0471 0.199 0.0
C323 C 0.39959 0.05585 0.18722 0.0
C324 C 0.39687 0.0505 0.23699 0.0
C325 C 0.42178 0.06059 0.20083 0.0
C326 C 0.42119 0.05807 0.2757 0.0
C327 C 0.3762 0.04923 0.30056 0.0
N328 N 0.41991 0.05801 0.22492 0.0
N329 N 0.37556 0.04646 0.27635 0.0
H330 H 0.29507 0.34015 0.68927 0.0
H331 H 0.38323 0.39452 0.80666 0.0
H332 H 0.37949 0.39567 0.68908 0.0
H333 H 0.29808 0.34275 0.80676 0.0
H334 H 0.38381 0.38696 0.76377 0.0
H335 H 0.29747 0.33274 0.73194 0.0
C336 C 0.31421 0.3504 0.69812 0.0
C337 C 0.33704 0.3689 0.68574 0.0
C338 C 0.36505 0.37687 0.77323 0.0
C339 C 0.33989 0.36079 0.7346 0.0
C340 C 0.36472 0.38112 0.79775 0.0
C341 C 0.34051 0.36961 0.81017 0.0
C342 C 0.34097 0.36113 0.76108 0.0
C343 C 0.31716 0.3523 0.79778 0.0
C344 C 0.31556 0.34622 0.7225 0.0
C345 C 0.36134 0.38147 0.69803 0.0
N346 N 0.31791 0.34892 0.77384 0.0
N347 N 0.36206 0.37751 0.72188 0.0
H348 H 0.9738 0.37855 0.1898 0.0
H349 H 0.96052 0.29744 0.30883 0.0
H350 H 0.95953 0.2982 0.18954 0.0
H351 H 0.9699 0.37591 0.30663 0.0
H352 H 0.96872 0.30008 0.26562 0.0
H353 H 0.98145 0.38079 0.23272 0.0
C354 C 0.97264 0.36148 0.19878 0.0
C355 C 0.96565 0.33803 0.18622 0.0
C356 C 0.96939 0.31687 0.27469 0.0
C357 C 0.97392 0.34023 0.2355 0.0
C358 C 0.9648 0.3154 0.29933 0.0
C359 C 0.96416 0.33634 0.31118 0.0
C360 C 0.97342 0.33947 0.26198 0.0
C361 C 0.96985 0.35916 0.2981 0.0
C362 C 0.97697 0.36273 0.22332 0.0
C363 C 0.96471 0.3166 0.19865 0.0
N364 N 0.97397 0.36 0.2742 0.0
N365 N 0.96835 0.31804 0.22274 0.0
H366 H 0.59895 0.98313 0.68882 0.0
H367 H 0.6557 0.95518 0.80799 0.0
H368 H 0.64971 0.94867 0.69056 0.0
H369 H 0.59943 0.98307 0.80659 0.0
H370 H 0.66199 0.96263 0.76493 0.0
H371 H 0.60719 0.99309 0.73144 0.0
C372 C 0.61224 0.97812 0.69808 0.0
C373 C 0.62331 0.96465 0.68628 0.0
C374 C 0.64859 0.96754 0.77409 0.0
C375 C 0.63259 0.97571 0.73502 0.0
C376 C 0.64505 0.96336 0.79869 0.0
C377 C 0.62667 0.96809 0.81077 0.0
C378 C 0.63351 0.97636 0.7615 0.0
C379 C 0.61355 0.97885 0.79789 0.0
C380 C 0.61688 0.98374 0.72242 0.0
C381 C 0.6405 0.95878 0.69907 0.0
N382 N 0.61692 0.98224 0.77388 0.0
N383 N 0.64431 0.964 0.72284 0.0
H384 H 0.61696 0.61093 0.3096 0.0
H385 H 0.70398 0.65861 0.1909 0.0
H386 H 0.70269 0.65645 0.3087 0.0
H387 H 0.61845 0.60996 0.19172 0.0
H388 H 0.70329 0.66597 0.2338 0.0
H389 H 0.61659 0.61837 0.26666 0.0
C390 C 0.63569 0.62292 0.30044 0.0
C391 C 0.65991 0.63274 0.31263 0.0
C392 C 0.68463 0.65402 0.22455 0.0
C393 C 0.65967 0.64105 0.26347 0.0
C394 C 0.68501 0.64987 0.20003 0.0
C395 C 0.66127 0.63331 0.18783 0.0
C396 C 0.66034 0.64137 0.23696 0.0
C397 C 0.63725 0.62264 0.20051 0.0
C398 C 0.63548 0.6271 0.2759 0.0
C399 C 0.68358 0.64827 0.29992 0.0
N400 N 0.63743 0.62653 0.22446 0.0
N401 N 0.68289 0.65161 0.27597 0.0
H402 H 0.0455 0.69902 0.68742 0.0
H403 H 0.02161 0.61763 0.80896 0.0
H404 H 0.02663 0.61722 0.691 0.0
H405 H 0.05456 0.70264 0.80604 0.0
H406 H 0.01381 0.6153 0.7659 0.0
H407 H 0.03952 0.69868 0.73079 0.0
C408 C 0.03963 0.68086 0.69727 0.0
C409 C 0.03684 0.6582 0.68567 0.0
C410 C 0.02242 0.63443 0.77472 0.0
C411 C 0.03011 0.6577 0.73519 0.0
C412 C 0.02678 0.63576 0.79932 0.0
C413 C 0.03905 0.66041 0.81104 0.0
C414 C 0.03041 0.65793 0.76171 0.0
C415 C 0.04525 0.68324 0.79767 0.0
C416 C 0.03633 0.68071 0.72202 0.0
C417 C 0.02923 0.6352 0.69928 0.0
N418 N 0.04114 0.6815 0.77366 0.0
N419 N 0.02636 0.63562 0.72333 0.0
H420 H 0.91239 0.54531 0.18695 0.0
H421 H 0.95461 0.63212 0.30688 0.0
H422 H 0.95344 0.63106 0.18539 0.0
H423 H 0.9109 0.54641 0.30362 0.0
H424 H 0.95823 0.63347 0.26295 0.0
H425 H 0.91574 0.54658 0.23011 0.0
C426 C 0.92226 0.5645 0.19573 0.0
C427 C 0.93248 0.58812 0.18255 0.0
C428 C 0.94803 0.61443 0.27196 0.0
C429 C 0.93624 0.58978 0.23242 0.0
C430 C 0.94601 0.61365 0.29696 0.0
C431 C 0.93229 0.58912 0.30887 0.0
C432 C 0.93633 0.59049 0.25897 0.0
C433 C 0.92148 0.56579 0.29523 0.0
C434 C 0.92418 0.56523 0.22048 0.0
C435 C 0.94526 0.61239 0.19494 0.0
N436 N 0.92368 0.56708 0.27112 0.0
N437 N 0.9466 0.61263 0.21929 0.0
H438 H 0.29644 0.95452 0.80847 0.0
H439 H 0.37846 0.98394 0.68689 0.0
H440 H 0.38026 0.98101 0.80493 0.0
H441 H 0.29302 0.9471 0.69033 0.0
H442 H 0.38077 0.99227 0.72987 0.0
H443 H 0.29632 0.96098 0.76529 0.0
C444 C 0.31492 0.96217 0.79867 0.0
C445 C 0.33833 0.96691 0.81023 0.0
C446 C 0.36154 0.98271 0.72118 0.0
C447 C 0.33829 0.97412 0.76083 0.0
C448 C 0.36022 0.97803 0.69661 0.0
C449 C 0.33548 0.96449 0.6851 0.0
C450 C 0.33795 0.97372 0.73431 0.0
C451 C 0.31249 0.95738 0.69856 0.0
C452 C 0.31482 0.96576 0.77401 0.0
C453 C 0.36172 0.97685 0.79668 0.0
N454 N 0.31425 0.96179 0.72251 0.0
N455 N 0.36104 0.97984 0.77266 0.0
H456 H 0.33736 0.29922 0.30716 0.0
H457 H 0.38944 0.38388 0.1874 0.0
H458 H 0.39124 0.38395 0.30502 0.0
H459 H 0.34162 0.29831 0.18948 0.0
H460 H 0.38158 0.38533 0.23011 0.0
H461 H 0.33011 0.29975 0.26419 0.0
C462 C 0.34726 0.31802 0.29772 0.0
C463 C 0.36528 0.34151 0.30956 0.0
C464 C 0.37244 0.36625 0.22116 0.0
C465 C 0.35731 0.34223 0.2604 0.0
C466 C 0.37685 0.36542 0.19675 0.0
C467 C 0.36653 0.3409 0.18499 0.0
C468 C 0.35773 0.34238 0.2339 0.0
C469 C 0.35022 0.31762 0.19793 0.0
C470 C 0.34318 0.3183 0.27318 0.0
C471 C 0.37744 0.36533 0.29651 0.0
N472 N 0.34665 0.31891 0.22178 0.0
N473 N 0.37353 0.36502 0.27256 0.0
H474 H 0.01661 0.40088 0.69192 0.0
H475 H 0.04651 0.344 0.8095 0.0
H476 H 0.043 0.34343 0.69179 0.0
H477 H 0.01904 0.40061 0.80955 0.0
H478 H 0.03681 0.33677 0.76681 0.0
H479 H 0.00885 0.39434 0.7349 0.0
C480 C 0.02033 0.38654 0.70089 0.0
C481 C 0.03088 0.373 0.68839 0.0
C482 C 0.03247 0.35045 0.77621 0.0
C483 C 0.0224 0.36566 0.7376 0.0
C484 C 0.03796 0.35454 0.8006 0.0
C485 C 0.03398 0.37326 0.81295 0.0
C486 C 0.02318 0.36538 0.76408 0.0
C487 C 0.02269 0.38621 0.80062 0.0
C488 C 0.01594 0.38283 0.72544 0.0
C489 C 0.03513 0.35449 0.70082 0.0
N490 N 0.01808 0.38235 0.77677 0.0
N491 N 0.03128 0.35167 0.72482 0.0
H492 H 0.68638 0.03228 0.31137 0.0
H493 H 0.61621 0.03885 0.19104 0.0
H494 H 0.61771 0.04227 0.30775 0.0
H495 H 0.68834 0.03478 0.19152 0.0
H496 H 0.61221 0.03145 0.23397 0.0
H497 H 0.68342 0.02495 0.26796 0.0
C498 C 0.67043 0.03245 0.3015 0.0
C499 C 0.65246 0.03822 0.31303 0.0
C500 C 0.62881 0.03188 0.22476 0.0
C501 C 0.64899 0.02996 0.26367 0.0
C502 C 0.63108 0.03608 0.20021 0.0
C503 C 0.65283 0.03778 0.18782 0.0
C504 C 0.64866 0.02973 0.23718 0.0
C505 C 0.67134 0.03374 0.20051 0.0
C506 C 0.6688 0.02837 0.27676 0.0
C507 C 0.63218 0.03823 0.2995 0.0
N508 N 0.66908 0.0303 0.22464 0.0
N509 N 0.63114 0.0344 0.27556 0.0
H510 H 0.65493 0.69999 0.69057 0.0
H511 H 0.60215 0.6178 0.81162 0.0
H512 H 0.59691 0.61633 0.69394 0.0
H513 H 0.65284 0.703 0.80816 0.0
H514 H 0.60864 0.61518 0.76876 0.0
H515 H 0.66285 0.69951 0.73341 0.0
C516 C 0.64422 0.6814 0.70025 0.0
C517 C 0.62491 0.65826 0.6888 0.0
C518 C 0.61871 0.63441 0.77745 0.0
C519 C 0.63365 0.65762 0.73782 0.0
C520 C 0.61509 0.6359 0.80193 0.0
C521 C 0.62662 0.6607 0.81335 0.0
C522 C 0.63389 0.6579 0.76432 0.0
C523 C 0.64331 0.6835 0.79998 0.0
C524 C 0.64869 0.68115 0.72472 0.0
C525 C 0.61175 0.6347 0.70215 0.0
N526 N 0.64613 0.68159 0.7761 0.0
N527 N 0.61608 0.63506 0.72603 0.0
H528 H 0.36583 0.1283 0.12599 0.0
H529 H 0.44733 0.2875 0.12136 0.0
H530 H 0.45064 0.17427 0.1148 0.0
H531 H 0.3617 0.24071 0.12446 0.0
H532 H 0.44938 0.24642 0.12147 0.0
H533 H 0.36431 0.16953 0.12797 0.0
C534 C 0.38414 0.1471 0.12399 0.0
C535 C 0.40839 0.14791 0.12016 0.0
C536 C 0.43015 0.24515 0.12216 0.0
C537 C 0.40683 0.19516 0.12243 0.0
C538 C 0.42898 0.26858 0.12213 0.0
C539 C 0.40431 0.26746 0.12284 0.0
C540 C 0.40647 0.22048 0.12297 0.0
C541 C 0.38114 0.24245 0.12384 0.0
C542 C 0.38327 0.17062 0.1251 0.0
C543 C 0.43152 0.17278 0.11772 0.0
N544 N 0.38279 0.21996 0.12385 0.0
N545 N 0.43017 0.19544 0.11889 0.0
H546 H 0.16164 0.44424 0.62973 0.0
H547 H 0.23381 0.35779 0.62012 0.0
H548 H 0.12033 0.35911 0.62015 0.0
H549 H 0.27647 0.44309 0.62841 0.0
H550 H 0.19198 0.35804 0.62127 0.0
H551 H 0.20392 0.44444 0.63049 0.0
C552 C 0.16148 0.4256 0.62784 0.0
C553 C 0.13749 0.40163 0.62482 0.0
C554 C 0.21046 0.37673 0.62287 0.0
C555 C 0.18564 0.40169 0.62564 0.0
C556 C 0.23435 0.37659 0.62222 0.0
C557 C 0.25862 0.40047 0.62412 0.0
C558 C 0.21077 0.40094 0.62543 0.0
C559 C 0.25817 0.42425 0.62684 0.0
C560 C 0.18559 0.42573 0.62827 0.0
C561 C 0.13838 0.37805 0.62248 0.0
N562 N 0.23459 0.42389 0.62738 0.0
N563 N 0.16204 0.37869 0.6229 0.0
H564 H 0.83874 0.27645 0.13171 0.0
H565 H 0.76347 0.11743 0.12576 0.0
H566 H 0.87877 0.23154 0.12133 0.0
H567 H 0.72303 0.16269 0.1272 0.0
H568 H 0.80608 0.15891 0.12788 0.0
H569 H 0.79629 0.23479 0.13387 0.0
C570 C 0.83859 0.2578 0.13 0.0
C571 C 0.86225 0.2574 0.12622 0.0
C572 C 0.78789 0.15977 0.12781 0.0
C573 C 0.81383 0.20972 0.12864 0.0
C574 C 0.76357 0.13611 0.12663 0.0
C575 C 0.73973 0.13668 0.12619 0.0
C576 C 0.78835 0.18416 0.1286 0.0
C577 C 0.74098 0.16139 0.12741 0.0
C578 C 0.81437 0.23404 0.1312 0.0
C579 C 0.86096 0.23272 0.12417 0.0
N580 N 0.7649 0.18417 0.12849 0.0
N581 N 0.83713 0.20985 0.12534 0.0
H582 H 0.63542 0.75949 0.62353 0.0
H583 H 0.5472 0.8301 0.62641 0.0
H584 H 0.54969 0.71588 0.62695 0.0
H585 H 0.63282 0.87219 0.62125 0.0
H586 H 0.54734 0.788 0.62762 0.0
H587 H 0.63457 0.80101 0.62374 0.0
C588 C 0.61639 0.75867 0.62437 0.0
C589 C 0.59258 0.73423 0.62518 0.0
C590 C 0.56608 0.80646 0.62624 0.0
C591 C 0.59142 0.78173 0.6254 0.0
C592 C 0.566 0.83046 0.62556 0.0
C593 C 0.59003 0.85462 0.62369 0.0
C594 C 0.59037 0.8067 0.62507 0.0
C595 C 0.61383 0.85401 0.62266 0.0
C596 C 0.61591 0.78239 0.62448 0.0
C597 C 0.5685 0.73433 0.62627 0.0
N598 N 0.61339 0.83045 0.62335 0.0
N599 N 0.56852 0.75775 0.62632 0.0
H600 H 0.75908 0.63879 0.1224 0.0
H601 H 0.82125 0.54436 0.10363 0.0
H602 H 0.71162 0.55346 0.11599 0.0
H603 H 0.86804 0.62823 0.1191 0.0
H604 H 0.78085 0.54747 0.10631 0.0
H605 H 0.79929 0.63549 0.11964 0.0
C606 C 0.75714 0.61934 0.12046 0.0
C607 C 0.73201 0.59635 0.11944 0.0
C608 C 0.79995 0.56519 0.10912 0.0
C609 C 0.77792 0.59242 0.11617 0.0
C610 C 0.82301 0.56344 0.10754 0.0
C611 C 0.84799 0.58608 0.11117 0.0
C612 C 0.80194 0.58978 0.11426 0.0
C613 C 0.84916 0.61028 0.11621 0.0
C614 C 0.78009 0.61747 0.11889 0.0
C615 C 0.73063 0.57167 0.11689 0.0
N616 N 0.82645 0.6115 0.11759 0.0
N617 N 0.75329 0.57036 0.11529 0.0
H618 H 0.27795 0.83348 0.61738 0.0
H619 H 0.11879 0.76003 0.61842 0.0
H620 H 0.23332 0.87459 0.61812 0.0
H621 H 0.16271 0.71825 0.61582 0.0
H622 H 0.16071 0.80219 0.61884 0.0
H623 H 0.2361 0.79101 0.6173 0.0
C624 C 0.25933 0.83355 0.61753 0.0
C625 C 0.25906 0.85756 0.61774 0.0
C626 C 0.16123 0.78383 0.61818 0.0
C627 C 0.21118 0.80913 0.61766 0.0
C628 C 0.13729 0.75975 0.61794 0.0
C629 C 0.1373 0.73564 0.61707 0.0
C630 C 0.1854 0.78383 0.61754 0.0
C631 C 0.16183 0.73642 0.61649 0.0
C632 C 0.23547 0.80932 0.61748 0.0
C633 C 0.23442 0.85653 0.61793 0.0
N634 N 0.18492 0.76015 0.61673 0.0
N635 N 0.21148 0.83272 0.61789 0.0
H636 H 0.82092 0.54356 0.38904 0.0
H637 H 0.75798 0.63803 0.37638 0.0
H638 H 0.8671 0.62771 0.37454 0.0
H639 H 0.71083 0.55262 0.38224 0.0
H640 H 0.79829 0.63477 0.37721 0.0
H641 H 0.78042 0.54658 0.38823 0.0
C642 C 0.82252 0.56267 0.38571 0.0
C643 C 0.84737 0.58542 0.38184 0.0
C644 C 0.77914 0.61672 0.37828 0.0
C645 C 0.80119 0.58904 0.3809 0.0
C646 C 0.75613 0.61857 0.37782 0.0
C647 C 0.73106 0.59555 0.37923 0.0
C648 C 0.77709 0.59166 0.38026 0.0
C649 C 0.72979 0.57086 0.38108 0.0
C650 C 0.79941 0.56438 0.3852 0.0
C651 C 0.84833 0.60967 0.37758 0.0
N652 N 0.75251 0.56957 0.38159 0.0
N653 N 0.82556 0.61085 0.37726 0.0
H654 H 0.16922 0.72092 0.87748 0.0
H655 H 0.23844 0.87977 0.87851 0.0
H656 H 0.12608 0.76349 0.87996 0.0
H657 H 0.2826 0.83821 0.87679 0.0
H658 H 0.19707 0.83713 0.8787 0.0
H659 H 0.21103 0.76346 0.87695 0.0
C660 C 0.16856 0.73922 0.87792 0.0
C661 C 0.14418 0.73872 0.87878 0.0
C662 C 0.21578 0.83728 0.87827 0.0
C663 C 0.19182 0.78736 0.87816 0.0
C664 C 0.23941 0.86164 0.87815 0.0
C665 C 0.26396 0.8625 0.87765 0.0
C666 C 0.21666 0.81356 0.87789 0.0
C667 C 0.26407 0.83841 0.87719 0.0
C668 C 0.19241 0.76348 0.87762 0.0
C669 C 0.14444 0.76298 0.87931 0.0
N670 N 0.24075 0.81488 0.87734 0.0
N671 N 0.16788 0.7863 0.87899 0.0
H672 H 0.36446 0.13016 0.37103 0.0
H673 H 0.44431 0.28914 0.3801 0.0
H674 H 0.44812 0.17631 0.3876 0.0
H675 H 0.35954 0.24221 0.36913 0.0
H676 H 0.44663 0.24823 0.38098 0.0
H677 H 0.36272 0.17124 0.36841 0.0
C678 C 0.38247 0.14896 0.37409 0.0
C679 C 0.40645 0.14986 0.37959 0.0
C680 C 0.42753 0.24689 0.37834 0.0
C681 C 0.40465 0.19695 0.3766 0.0
C682 C 0.42621 0.27022 0.37781 0.0
C683 C 0.40169 0.26902 0.37459 0.0
C684 C 0.40415 0.2222 0.3756 0.0
C685 C 0.37884 0.24402 0.3717 0.0
C686 C 0.38147 0.17241 0.3726 0.0
C687 C 0.4292 0.17474 0.38336 0.0
N688 N 0.38063 0.2216 0.3723 0.0
N689 N 0.42774 0.19732 0.38181 0.0
H690 H 0.28399 0.44684 0.87149 0.0
H691 H 0.12501 0.36068 0.8761 0.0
H692 H 0.23943 0.36113 0.87484 0.0
H693 H 0.16852 0.44645 0.87363 0.0
H694 H 0.16696 0.36068 0.87476 0.0
H695 H 0.24211 0.44739 0.87135 0.0
C696 C 0.26538 0.42815 0.87215 0.0
C697 C 0.26512 0.40391 0.87322 0.0
C698 C 0.16739 0.37953 0.87449 0.0
C699 C 0.21726 0.40436 0.87308 0.0
C700 C 0.14343 0.37954 0.87525 0.0
C701 C 0.14333 0.40361 0.87502 0.0
C702 C 0.19148 0.40379 0.87349 0.0
C703 C 0.16776 0.42745 0.87387 0.0
C704 C 0.24151 0.42847 0.87208 0.0
C705 C 0.24052 0.38027 0.87403 0.0
N706 N 0.19089 0.42694 0.87318 0.0
N707 N 0.21759 0.3811 0.87398 0.0
H708 H 0.76116 0.11666 0.37582 0.0
H709 H 0.83737 0.27555 0.36712 0.0
H710 H 0.72133 0.16249 0.3734 0.0
H711 H 0.87714 0.23035 0.37721 0.0
H712 H 0.79474 0.23406 0.36596 0.0
H713 H 0.80394 0.15788 0.37303 0.0
C714 C 0.76143 0.13541 0.37461 0.0
C715 C 0.73771 0.13622 0.37495 0.0
C716 C 0.81279 0.2332 0.36834 0.0
C717 C 0.78652 0.1834 0.37175 0.0
C718 C 0.83713 0.25687 0.36897 0.0
C719 C 0.86077 0.25635 0.37237 0.0
C720 C 0.81211 0.20883 0.37112 0.0
C721 C 0.85934 0.23162 0.37463 0.0
C722 C 0.78585 0.15892 0.37304 0.0
C723 C 0.73918 0.161 0.37329 0.0
N724 N 0.83539 0.20883 0.37404 0.0
N725 N 0.76319 0.18363 0.37181 0.0
H726 H 0.63853 0.76409 0.87788 0.0
H727 H 0.55215 0.83661 0.87349 0.0
H728 H 0.55282 0.72152 0.87398 0.0
H729 H 0.63786 0.87785 0.87696 0.0
H730 H 0.55164 0.79418 0.87305 0.0
H731 H 0.63839 0.80596 0.87697 0.0
C732 C 0.61966 0.76357 0.8768 0.0
C733 C 0.59564 0.73932 0.87604 0.0
C734 C 0.57054 0.81252 0.87388 0.0
C735 C 0.5953 0.78723 0.87501 0.0
C736 C 0.57085 0.83672 0.87412 0.0
C737 C 0.59509 0.86073 0.8753 0.0
C738 C 0.59467 0.81242 0.87483 0.0
C739 C 0.61872 0.85979 0.87607 0.0
C740 C 0.61958 0.7875 0.87628 0.0
C741 C 0.57178 0.73982 0.87463 0.0
N742 N 0.61791 0.83604 0.87585 0.0
N743 N 0.5722 0.76343 0.87419 0.0
H744 H 0.31894 0.93656 0.96347 0.0
H745 H 0.38529 0.07531 0.03259 0.0
H746 H 0.3529 0.01267 0.92814 0.0
H747 H 0.3514 -0.00075 0.068 0.0
H748 H 0.3688 0.05251 0.99447 0.0
H749 H 0.32597 0.95884 0.00197 0.0
C750 C 0.32766 0.95797 0.96381 0.0
C751 C 0.33558 0.97283 0.9426 0.0
C752 C 0.36471 0.04076 0.01058 0.0
C753 C 0.34384 0.99851 0.98665 0.0
C754 C 0.37409 0.05377 0.03237 0.0
C755 C 0.3699 0.03912 0.05345 0.0
C756 C 0.35117 0.01287 0.00981 0.0
C757 C 0.35516 0.0113 0.05215 0.0
C758 C 0.33167 0.97068 0.98581 0.0
C759 C 0.34663 0.00047 0.94408 0.0
N760 N 0.34656 -0.00094 0.03064 0.0
N761 N 0.35066 0.01245 0.96576 0.0
H762 H 0.33845 0.35686 0.42679 0.0
H763 H 0.34571 0.34107 0.56824 0.0
H764 H 0.37594 0.31703 0.46011 0.0
H765 H 0.31397 0.3864 0.53516 0.0
H766 H 0.35133 0.32677 0.52862 0.0
H767 H 0.32365 0.36254 0.46618 0.0
C768 C 0.34329 0.34904 0.44237 0.0
C769 C 0.35865 0.33669 0.44025 0.0
C770 C 0.34293 0.33967 0.53004 0.0
C771 C 0.34197 0.34322 0.4853 0.0
C772 C 0.33968 0.34779 0.55265 0.0
C773 C 0.32961 0.36513 0.55494 0.0
C774 C 0.33607 0.34901 0.50961 0.0
C775 C 0.32202 0.37317 0.53417 0.0
C776 C 0.33491 0.35234 0.46484 0.0
C777 C 0.36432 0.32687 0.46098 0.0
N778 N 0.32559 0.3652 0.51237 0.0
N779 N 0.35616 0.33053 0.48265 0.0
H780 H 0.07152 0.38269 0.96251 0.0
H781 H 0.93405 0.30767 0.03338 0.0
H782 H 0.99466 0.34398 0.92824 0.0
H783 H 0.01089 0.34686 0.06768 0.0
H784 H 0.95601 0.31578 0.99461 0.0
H785 H 0.04987 0.36505 0.00089 0.0
C786 C 0.05007 0.37028 0.96305 0.0
C787 C 0.03481 0.365 0.94222 0.0
C788 C 0.96809 0.32236 0.01061 0.0
C789 C 0.00988 0.34483 0.98611 0.0
C790 C 0.95557 0.31769 0.03276 0.0
C791 C 0.97071 0.32687 0.05373 0.0
C792 C 0.99598 0.33646 0.00941 0.0
C793 C -0.00152 0.3396 0.05191 0.0
C794 C 0.03772 0.3602 0.98497 0.0
C795 C 0.00714 0.34867 0.94391 0.0
N796 N 0.01025 0.34429 0.03009 0.0
N797 N 0.99553 0.33936 0.96553 0.0
H798 H 0.68644 0.06559 0.46652 0.0
H799 H 0.61143 0.92756 0.53654 0.0
H800 H 0.64486 0.98912 0.43176 0.0
H801 H 0.65211 0.00402 0.5714 0.0
H802 H 0.62831 0.94948 0.49813 0.0
H803 H 0.67909 0.0432 0.50501 0.0
C804 C 0.67603 0.04406 0.46697 0.0
C805 C 0.66598 0.02916 0.44597 0.0
C806 C 0.63377 0.96147 0.51418 0.0
C807 C 0.65729 0.00341 0.48997 0.0
C808 C 0.62413 0.94897 0.53612 0.0
C809 C 0.63017 0.96405 0.55713 0.0
C810 C 0.64945 0.98929 0.51321 0.0
C811 C 0.64684 0.99168 0.55559 0.0
C812 C 0.67181 0.03129 0.48896 0.0
C813 C 0.65279 0.00135 0.44755 0.0
N814 N 0.65571 0.00346 0.53395 0.0
N815 N 0.64858 0.98936 0.46923 0.0
H816 H 0.64676 0.66167 0.07069 0.0
H817 H 0.65408 0.64857 0.92886 0.0
H818 H 0.67919 0.61769 0.03622 0.0
H819 H 0.61549 0.68674 0.96321 0.0
H820 H 0.66909 0.64253 0.96799 0.0
H821 H 0.64075 0.6765 0.03141 0.0
C822 C 0.65288 0.65538 0.05488 0.0
C823 C 0.66324 0.63824 0.05666 0.0
C824 C 0.65753 0.65244 0.96695 0.0
C825 C 0.65634 0.65495 0.01176 0.0
C826 C 0.64903 0.65593 0.94461 0.0
C827 C 0.63332 0.66793 0.94285 0.0
C828 C 0.65025 0.66099 0.98763 0.0
C829 C 0.62739 0.67718 0.96381 0.0
C830 C 0.6494 0.66379 0.03247 0.0
C831 C 0.67091 0.63074 0.03563 0.0
N832 N 0.63568 0.67334 0.98535 0.0
N833 N 0.66713 0.63898 0.01405 0.0
H834 H 0.98679 0.64449 0.5688 0.0
H835 H 0.9973 0.64382 0.42613 0.0
H836 H 0.06099 0.6757 0.53057 0.0
H837 H 0.92325 0.60706 0.46509 0.0
H838 H 0.02122 0.66135 0.46384 0.0
H839 H 0.96343 0.63627 0.53065 0.0
C840 C 0.99818 0.64987 0.55239 0.0
C841 C 0.02582 0.66056 0.55283 0.0
C842 C -0.00028 0.64967 0.46409 0.0
C843 C -0.00074 0.65109 0.5091 0.0
C844 C 0.98607 0.63975 0.44257 0.0
C845 C 0.95829 0.62378 0.44253 0.0
C846 C 0.98544 0.64356 0.48568 0.0
C847 C 0.94471 0.6191 0.46433 0.0
C848 C 0.98485 0.64513 0.5306 0.0
C849 C 0.03962 0.66724 0.53103 0.0
N850 N 0.95842 0.62877 0.48502 0.0
N851 N 0.02618 0.6622 0.51005 0.0
H852 H 0.66001 0.00922 0.92759 0.0
H853 H 0.64919 0.98954 0.06937 0.0
H854 H 0.61491 0.93313 0.96249 0.0
H855 H 0.6895 0.0661 0.03462 0.0
H856 H 0.64239 0.96809 0.03037 0.0
H857 H 0.67672 0.02997 0.96659 0.0
C858 C 0.65385 0.99686 0.94344 0.0
C859 C 0.63583 0.96949 0.94188 0.0
C860 C 0.65299 0.98959 0.0313 0.0
C861 C 0.65473 0.99302 0.98648 0.0
C862 C 0.65694 0.00182 0.05356 0.0
C863 C 0.66965 0.0296 0.05516 0.0
C864 C 0.66176 0.00528 0.01053 0.0
C865 C 0.67937 0.0446 0.03414 0.0
C866 C 0.66336 0.00869 0.96569 0.0
C867 C 0.62858 0.95436 0.96294 0.0
N868 N 0.67499 0.03224 0.01267 0.0
N869 N 0.63788 0.96635 0.98438 0.0
H870 H 0.64428 0.65937 0.42989 0.0
H871 H 0.65319 0.64639 0.57157 0.0
H872 H 0.6796 0.61775 0.46378 0.0
H873 H 0.61143 0.68163 0.5378 0.0
H874 H 0.6686 0.64138 0.53226 0.0
H875 H 0.63768 0.67343 0.46932 0.0
C876 C 0.65093 0.65347 0.44561 0.0
C877 C 0.66225 0.63717 0.44362 0.0
C878 C 0.65624 0.65041 0.53347 0.0
C879 C 0.65468 0.653 0.48869 0.0
C880 C 0.64749 0.65331 0.5559 0.0
C881 C 0.63082 0.66419 0.55788 0.0
C882 C 0.64822 0.65844 0.51291 0.0
C883 C 0.6241 0.67292 0.53703 0.0
C884 C 0.6471 0.66142 0.4681 0.0
C885 C 0.67056 0.63013 0.46453 0.0
N886 N 0.63266 0.66968 0.5154 0.0
N887 N 0.66643 0.63791 0.4862 0.0
H888 H 0.92343 0.60763 0.02639 0.0
H889 H 0.06589 0.68193 0.96352 0.0
H890 H 0.99746 0.6445 0.06533 0.0
H891 H 0.99163 0.64552 0.92493 0.0
H892 H 0.0413 0.67291 0.00101 0.0
H893 H 0.94805 0.62582 0.98933 0.0
C894 C 0.94489 0.61981 0.02717 0.0
C895 C 0.95846 0.62438 0.04895 0.0
C896 C 0.03037 0.66712 0.98435 0.0
C897 C 0.98683 0.6451 0.00649 0.0
C898 C 0.04439 0.67228 0.96292 0.0
C899 C 0.03074 0.66425 0.94109 0.0
C900 C 0.00246 0.65367 0.98398 0.0
C901 C 0.00293 0.65194 0.94137 0.0
C902 C 0.95894 0.63019 0.00598 0.0
C903 C 0.98624 0.64042 0.04891 0.0
N904 N 0.98969 0.6468 0.9625 0.0
N905 N -0.00046 0.64999 0.02796 0.0
H906 H 0.31325 0.93492 0.53335 0.0
H907 H 0.38358 0.07593 0.46783 0.0
H908 H 0.34957 0.00995 0.57069 0.0
H909 H 0.34778 0.0009 0.43052 0.0
H910 H 0.36639 0.05211 0.50544 0.0
H911 H 0.32086 0.95862 0.49554 0.0
C912 C 0.3226 0.9564 0.5336 0.0
C913 C 0.33102 0.97053 0.55517 0.0
C914 C 0.36203 0.04083 0.48902 0.0
C915 C 0.33998 0.99782 0.5119 0.0
C916 C 0.37181 0.05442 0.46752 0.0
C917 C 0.3673 0.04034 0.44605 0.0
C918 C 0.34775 0.01291 0.4891 0.0
C919 C 0.35182 0.01252 0.44669 0.0
C920 C 0.32695 0.96992 0.51199 0.0
C921 C 0.34289 0.9983 0.55445 0.0
N922 N 0.34283 -0.0003 0.46791 0.0
N923 N 0.34725 0.01106 0.53313 0.0
H924 H 0.38681 0.31919 0.03463 0.0
H925 H 0.31261 0.37911 0.95896 0.0
H926 H 0.33969 0.34972 0.06619 0.0
H927 H 0.35898 0.34778 0.92729 0.0
H928 H 0.31828 0.36402 0.99805 0.0
H929 H 0.37283 0.32498 0.99505 0.0
C930 C 0.37329 0.32687 0.03323 0.0
C931 C 0.36458 0.33423 0.05369 0.0
C932 C 0.32703 0.36022 0.98255 0.0
C933 C 0.34864 0.34108 0.00842 0.0
C934 C 0.3238 0.36883 0.96022 0.0
C935 C 0.33557 0.3649 0.93991 0.0
C936 C 0.34229 0.34772 0.98464 0.0
C937 C 0.34969 0.35132 0.94253 0.0
C938 C 0.36533 0.33018 0.01061 0.0
C939 C 0.34698 0.34394 0.05085 0.0
N940 N 0.35288 0.34344 0.96455 0.0
N941 N 0.33978 0.34732 0.0286 0.0
H942 H 0.98961 0.33686 0.57137 0.0
H943 H 0.00966 0.34501 0.42962 0.0
H944 H 0.06582 0.38118 0.53649 0.0
H945 H 0.93298 0.30718 0.46425 0.0
H946 H 0.03091 0.35219 0.46876 0.0
H947 H 0.96889 0.31974 0.53244 0.0
C948 C 0.002 0.34275 0.55554 0.0
C949 C 0.02939 0.36068 0.55708 0.0
C950 C 0.00942 0.34207 0.46778 0.0
C951 C 0.0059 0.34131 0.51257 0.0
C952 C 0.9973 0.3379 0.44544 0.0
C953 C 0.96956 0.32577 0.44375 0.0
C954 C 0.99367 0.33406 0.48852 0.0
C955 C 0.95446 0.31686 0.46478 0.0
C956 C 0.99018 0.33302 0.53333 0.0
C957 C 0.04457 0.36759 0.53606 0.0
N958 N 0.96672 0.3214 0.48632 0.0
N959 N 0.03258 0.35806 0.51465 0.0
H960 H 0.5064 0.11909 0.09957 0.0
H961 H 0.5732 0.0275 0.09897 0.0
H962 H 0.46189 0.03331 0.1003 0.0
H963 H 0.61803 0.11317 0.1028 0.0
H964 H 0.53236 0.02946 0.09483 0.0
H965 H 0.54758 0.11753 0.09618 0.0
C966 C 0.50529 0.09993 0.09881 0.0
C967 C 0.48074 0.07629 0.10041 0.0
C968 C 0.55113 0.04785 0.09641 0.0
C969 C 0.52771 0.07434 0.09663 0.0
C970 C 0.57446 0.04674 0.09874 0.0
C971 C 0.59898 0.07021 0.10142 0.0
C972 C 0.55233 0.07261 0.09681 0.0
C973 C 0.59949 0.0946 0.10091 0.0
C974 C 0.5288 0.09904 0.09691 0.0
C975 C 0.48042 0.05201 0.09927 0.0
N976 N 0.57647 0.09516 0.09883 0.0
N977 N 0.50357 0.05167 0.0976 0.0
H978 H 0.53099 0.57795 0.58921 0.0
H979 H 0.38488 0.49273 0.64477 0.0
H980 H 0.50109 0.60746 0.6448 0.0
H981 H 0.41571 0.46489 0.58858 0.0
H982 H 0.42635 0.53563 0.64408 0.0
H983 H 0.48798 0.5371 0.58773 0.0
C984 C 0.51531 0.57585 0.60106 0.0
C985 C 0.51962 0.59607 0.61721 0.0
C986 C 0.42398 0.52016 0.63184 0.0
C987 C 0.47027 0.54925 0.61569 0.0
C988 C 0.40032 0.4957 0.63221 0.0
C989 C 0.39692 0.47522 0.61677 0.0
C990 C 0.44434 0.52409 0.61592 0.0
C991 C 0.41752 0.48011 0.60085 0.0
C992 C 0.49073 0.55251 0.60021 0.0
C993 C 0.49859 0.59232 0.6321 0.0
N994 N 0.44036 0.50399 0.6009 0.0
N995 N 0.47482 0.56929 0.63106 0.0
H996 H 0.88538 0.37466 0.10191 0.0
H997 H 0.96526 0.5336 0.09834 0.0
H998 H 0.97102 0.42227 0.10174 0.0
H999 H 0.8797 0.48638 0.09465 0.0
H1000 H 0.96776 0.4929 0.09701 0.0
H1001 H 0.88279 0.41513 0.09682 0.0
C1002 C 0.90364 0.39363 0.10065 0.0
C1003 C 0.92845 0.39516 0.10239 0.0
C1004 C 0.94843 0.49141 0.0963 0.0
C1005 C 0.92567 0.44151 0.09666 0.0
C1006 C 0.947 0.51465 0.09704 0.0
C1007 C 0.92223 0.51332 0.09675 0.0
C1008 C 0.9249 0.46662 0.09541 0.0
C1009 C 0.89921 0.48827 0.09499 0.0
C1010 C 0.90215 0.41672 0.09773 0.0
C1011 C 0.95147 0.4202 0.10058 0.0
N1012 N 0.90109 0.46587 0.09457 0.0
N1013 N 0.94952 0.44241 0.09796 0.0
H1014 H 0.41256 0.94603 0.58267 0.0
H1015 H 0.50053 0.89368 0.64768 0.0
H1016 H 0.38642 0.89599 0.64528 0.0
H1017 H 0.52561 0.94368 0.58502 0.0
H1018 H 0.45772 0.89231 0.64617 0.0
H1019 H 0.4532 0.94344 0.58225 0.0
C1020 C 0.41534 0.93439 0.59628 0.0
C1021 C 0.39615 0.92128 0.61409 0.0
C1022 C 0.47255 0.90348 0.63269 0.0
C1023 C 0.44273 0.91829 0.6138 0.0
C1024 C 0.49696 0.90424 0.63354 0.0
C1025 C 0.51666 0.91889 0.6165 0.0
C1026 C 0.46785 0.91749 0.61469 0.0
C1027 C 0.51101 0.9322 0.59856 0.0
C1028 C 0.43857 0.93292 0.59605 0.0
C1029 C 0.40075 0.90643 0.63126 0.0
N1030 N 0.48718 0.93125 0.59818 0.0
N1031 N 0.42364 0.90543 0.63075 0.0
H1032 H 0.6068 0.50973 0.14708 0.0
H1033 H 0.46178 0.42373 0.0895 0.0
H1034 H 0.57557 0.53831 0.09186 0.0
H1035 H 0.49101 0.39438 0.1458 0.0
H1036 H 0.50412 0.46535 0.08943 0.0
H1037 H 0.5653 0.46685 0.14628 0.0
C1038 C 0.59124 0.50695 0.13476 0.0
C1039 C 0.59458 0.52759 0.11953 0.0
C1040 C 0.50136 0.44983 0.10179 0.0
C1041 C 0.54716 0.47872 0.11852 0.0
C1042 C 0.47717 0.42603 0.10182 0.0
C1043 C 0.47288 0.4056 0.11771 0.0
C1044 C 0.52148 0.4533 0.11779 0.0
C1045 C 0.49352 0.40966 0.13326 0.0
C1046 C 0.56757 0.4825 0.13431 0.0
C1047 C 0.57381 0.52295 0.10392 0.0
N1048 N 0.51695 0.4331 0.13295 0.0
N1049 N 0.55101 0.49904 0.10385 0.0
H1050 H 0.03328 0.45759 0.59202 0.0
H1051 H 0.1109 0.61243 0.62556 0.0
H1052 H 0.10811 0.49598 0.62972 0.0
H1053 H 0.03355 0.57208 0.59225 0.0
H1054 H 0.11207 0.57089 0.6245 0.0
H1055 H 0.03486 0.50029 0.58919 0.0
C1056 C 0.05012 0.47506 0.59961 0.0
C1057 C 0.07054 0.47324 0.61122 0.0
C1058 C 0.0949 0.57116 0.61733 0.0
C1059 C 0.07246 0.52221 0.60811 0.0
C1060 C 0.09425 0.59486 0.61789 0.0
C1061 C 0.07204 0.59563 0.60908 0.0
C1062 C 0.0732 0.54811 0.60786 0.0
C1063 C 0.05102 0.57233 0.59933 0.0
C1064 C 0.051 0.49944 0.598 0.0
C1065 C 0.09191 0.49651 0.62067 0.0
N1066 N 0.05208 0.54951 0.59905 0.0
N1067 N 0.09227 0.52003 0.61899 0.0
H1068 H 0.965 0.53332 0.39286 0.0
H1069 H 0.8849 0.37433 0.39481 0.0
H1070 H 0.87951 0.48631 0.39783 0.0
H1071 H 0.97054 0.42173 0.39352 0.0
H1072 H 0.8825 0.41504 0.39833 0.0
H1073 H 0.9675 0.49267 0.39551 0.0
C1074 C 0.94676 0.51443 0.39468 0.0
C1075 C 0.922 0.51314 0.39499 0.0
C1076 C 0.90183 0.41654 0.39744 0.0
C1077 C 0.92467 0.4665 0.39789 0.0
C1078 C 0.9032 0.39331 0.39544 0.0
C1079 C 0.92795 0.3947 0.39373 0.0
C1080 C 0.92538 0.44133 0.39763 0.0
C1081 C 0.95104 0.41977 0.3947 0.0
C1082 C 0.94819 0.49122 0.39619 0.0
C1083 C 0.899 0.48817 0.39745 0.0
N1084 N 0.94918 0.44211 0.39643 0.0
N1085 N 0.90088 0.4658 0.39864 0.0
H1086 H 0.50343 0.89368 0.85925 0.0
H1087 H 0.42353 0.96359 0.90724 0.0
H1088 H 0.53648 0.96083 0.90721 0.0
H1089 H 0.38885 0.89494 0.86102 0.0
H1090 H 0.4646 0.96181 0.90841 0.0
H1091 H 0.46081 0.89268 0.8606 0.0
C1092 C 0.50167 0.90813 0.87015 0.0
C1093 C 0.52352 0.92742 0.88308 0.0
C1094 C 0.448 0.94706 0.89807 0.0
C1095 C 0.47493 0.92647 0.88466 0.0
C1096 C 0.42454 0.94807 0.89739 0.0
C1097 C 0.40279 0.92943 0.88395 0.0
C1098 C 0.44982 0.92731 0.88512 0.0
C1099 C 0.40518 0.90972 0.87158 0.0
C1100 C 0.47735 0.90756 0.87091 0.0
C1101 C 0.52016 0.94565 0.89692 0.0
N1102 N 0.42833 0.90924 0.87239 0.0
N1103 N 0.49636 0.94478 0.89727 0.0
H1104 H 0.45956 0.42376 0.40882 0.0
H1105 H 0.60483 0.50966 0.35159 0.0
H1106 H 0.48821 0.39543 0.35122 0.0
H1107 H 0.57518 0.53679 0.40933 0.0
H1108 H 0.56293 0.46716 0.35175 0.0
H1109 H 0.50246 0.46481 0.40989 0.0
C1110 C 0.47493 0.42617 0.39643 0.0
C1111 C 0.47032 0.4062 0.37987 0.0
C1112 C 0.56564 0.48239 0.36443 0.0
C1113 C 0.51953 0.45322 0.38094 0.0
C1114 C 0.58954 0.50663 0.36435 0.0
C1115 C 0.59343 0.52677 0.38044 0.0
C1116 C 0.54552 0.47833 0.38071 0.0
C1117 C 0.57299 0.52182 0.39659 0.0
C1118 C 0.49944 0.44962 0.39704 0.0
C1119 C 0.49095 0.41036 0.36425 0.0
N1120 N 0.54992 0.49814 0.39627 0.0
N1121 N 0.51467 0.43345 0.36512 0.0
H1122 H 0.10787 0.49524 0.85229 0.0
H1123 H 0.05691 0.58514 0.9157 0.0
H1124 H 0.05675 0.47088 0.9142 0.0
H1125 H 0.10766 0.61042 0.85353 0.0
H1126 H 0.05904 0.54427 0.91673 0.0
H1127 H 0.11041 0.53859 0.85366 0.0
C1128 C 0.09732 0.49908 0.86625 0.0
C1129 C 0.08198 0.47942 0.8831 0.0
C1130 C 0.06984 0.55878 0.90291 0.0
C1131 C 0.08473 0.52886 0.88475 0.0
C1132 C 0.06864 0.58214 0.90232 0.0
C1133 C 0.08204 0.60113 0.88443 0.0
C1134 C 0.08447 0.55427 0.88542 0.0
C1135 C 0.09699 0.59624 0.8676 0.0
C1136 C 0.09875 0.52381 0.86702 0.0
C1137 C 0.06873 0.48544 0.90081 0.0
N1138 N 0.09769 0.5732 0.86843 0.0
N1139 N 0.07033 0.50956 0.90111 0.0
H1140 H 0.57037 0.02797 0.4004 0.0
H1141 H 0.50497 0.12081 0.40057 0.0
H1142 H 0.616 0.11366 0.39779 0.0
H1143 H 0.45976 0.03505 0.40057 0.0
H1144 H 0.54595 0.11882 0.4037 0.0
H1145 H 0.52977 0.03037 0.40459 0.0
C1146 C 0.57185 0.04731 0.40089 0.0
C1147 C 0.59654 0.07065 0.39857 0.0
C1148 C 0.52706 0.10043 0.40319 0.0
C1149 C 0.55016 0.07357 0.40324 0.0
C1150 C 0.50367 0.10157 0.40145 0.0
C1151 C 0.47898 0.07806 0.40013 0.0
C1152 C 0.52571 0.0756 0.40358 0.0
C1153 C 0.47841 0.05366 0.4014 0.0
C1154 C 0.54866 0.04867 0.40326 0.0
C1155 C 0.59734 0.09517 0.39941 0.0
N1156 N 0.50144 0.05307 0.40289 0.0
N1157 N 0.57445 0.09599 0.40152 0.0
H1158 H 0.52741 0.5878 0.91629 0.0
H1159 H 0.39268 0.4918 0.84606 0.0
H1160 H 0.50669 0.60843 0.84876 0.0
H1161 H 0.41559 0.47142 0.91259 0.0
H1162 H 0.4328 0.53574 0.84775 0.0
H1163 H 0.48492 0.5463 0.91639 0.0
C1164 C 0.51382 0.58365 0.90153 0.0
C1165 C 0.52061 0.60151 0.88243 0.0
C1166 C 0.42898 0.52169 0.86202 0.0
C1167 C 0.47194 0.5539 0.88233 0.0
C1168 C 0.40609 0.49663 0.86107 0.0
C1169 C 0.4009 0.47793 0.87916 0.0
C1170 C 0.44675 0.52805 0.88121 0.0
C1171 C 0.41889 0.4852 0.89821 0.0
C1172 C 0.48956 0.55992 0.90158 0.0
C1173 C 0.50222 0.59515 0.86381 0.0
N1174 N 0.44103 0.50964 0.89869 0.0
N1175 N 0.47875 0.57178 0.86416 0.0
loop_
_geom_bond_atom_site_label_1
_geom_bond_atom_site_label_2
_geom_bond_distance
_geom_bond_site_symmetry_2
_ccdc_geom_bond_type
In0 O1 2.294 . S
In0 O2 2.326 . S
In0 O6 2.266 . S
In0 O7 2.326 . S
In0 O8 2.266 . S
In0 O9 2.326 . S
In0 O11 2.294 . S
In0 O12 2.326 . S
O1 In0 2.294 . S
O1 C10 1.240 . S
O2 In0 2.326 . S
O2 C10 1.252 . S
C3 O6 1.252 . S
C3 O7 1.260 . S
C4 O11 1.240 . S
C4 O12 1.252 . S
C5 O8 1.252 . S
C5 O9 1.260 . S
O6 In0 2.266 . S
O6 C3 1.252 . S
O7 In0 2.326 . S
O7 C3 1.260 . S
O8 In0 2.266 . S
O8 C5 1.252 . S
O9 In0 2.326 . S
O9 C5 1.260 . S
C10 O1 1.240 . S
C10 O2 1.252 . S
O11 In0 2.294 . S
O11 C4 1.240 . S
O12 In0 2.326 . S
O12 C4 1.252 . S
In13 O14 2.294 . S
In13 O15 2.326 . S
In13 O19 2.266 . S
In13 O20 2.326 . S
In13 O21 2.266 . S
In13 O22 2.326 . S
In13 O24 2.294 . S
In13 O25 2.326 . S
O14 In13 2.294 . S
O14 C23 1.240 . S
O15 In13 2.326 . S
O15 C23 1.252 . S
C16 O19 1.252 . S
C16 O20 1.260 . S
C17 O24 1.240 . S
C17 O25 1.252 . S
C18 O21 1.252 . S
C18 O22 1.260 . S
O19 In13 2.266 . S
O19 C16 1.252 . S
O20 In13 2.326 . S
O20 C16 1.260 . S
O21 In13 2.266 . S
O21 C18 1.252 . S
O22 In13 2.326 . S
O22 C18 1.260 . S
C23 O14 1.240 . S
C23 O15 1.252 . S
O24 In13 2.294 . S
O24 C17 1.240 . S
O25 In13 2.326 . S
O25 C17 1.252 . S
In26 O27 2.294 . S
In26 O28 2.326 . S
In26 O32 2.266 . S
In26 O33 2.326 . S
In26 O34 2.266 . S
In26 O35 2.326 . S
In26 O37 2.294 . S
In26 O38 2.326 . S
O27 In26 2.294 . S
O27 C36 1.240 . S
O28 In26 2.326 . S
O28 C36 1.252 . S
C29 O32 1.252 . S
C29 O33 1.260 . S
C30 O37 1.240 . S
C30 O38 1.252 . S
C31 O34 1.252 . S
C31 O35 1.260 . S
O32 In26 2.266 . S
O32 C29 1.252 . S
O33 In26 2.326 . S
O33 C29 1.260 . S
O34 In26 2.266 . S
O34 C31 1.252 . S
O35 In26 2.326 . S
O35 C31 1.260 . S
C36 O27 1.240 . S
C36 O28 1.252 . S
O37 In26 2.294 . S
O37 C30 1.240 . S
O38 In26 2.326 . S
O38 C30 1.252 . S
In39 O40 2.294 . S
In39 O41 2.326 . S
In39 O45 2.266 . S
In39 O46 2.326 . S
In39 O47 2.266 . S
In39 O48 2.326 . S
In39 O50 2.294 . S
In39 O51 2.326 . S
O40 In39 2.294 . S
O40 C49 1.240 . S
O41 In39 2.326 . S
O41 C49 1.252 . S
C42 O45 1.252 . S
C42 O46 1.260 . S
C43 O50 1.240 . S
C43 O51 1.252 . S
C44 O47 1.252 . S
C44 O48 1.260 . S
O45 In39 2.266 . S
O45 C42 1.252 . S
O46 In39 2.326 . S
O46 C42 1.260 . S
O47 In39 2.266 . S
O47 C44 1.252 . S
O48 In39 2.326 . S
O48 C44 1.260 . S
C49 O40 1.240 . S
C49 O41 1.252 . S
O50 In39 2.294 . S
O50 C43 1.240 . S
O51 In39 2.326 . S
O51 C43 1.252 . S
In52 O53 2.294 . S
In52 O54 2.326 . S
In52 O58 2.266 . S
In52 O59 2.326 . S
In52 O60 2.266 . S
In52 O61 2.326 . S
In52 O63 2.294 . S
In52 O64 2.326 . S
O53 In52 2.294 . S
O53 C62 1.240 . S
O54 In52 2.326 . S
O54 C62 1.252 . S
C55 O58 1.252 . S
C55 O59 1.260 . S
C56 O63 1.240 . S
C56 O64 1.252 . S
C57 O60 1.252 . S
C57 O61 1.260 . S
O58 In52 2.266 . S
O58 C55 1.252 . S
O59 In52 2.326 . S
O59 C55 1.260 . S
O60 In52 2.266 . S
O60 C57 1.252 . S
O61 In52 2.326 . S
O61 C57 1.260 . S
C62 O53 1.240 . S
C62 O54 1.252 . S
O63 In52 2.294 . S
O63 C56 1.240 . S
O64 In52 2.326 . S
O64 C56 1.252 . S
In65 O66 2.294 . S
In65 O67 2.326 . S
In65 O71 2.266 . S
In65 O72 2.326 . S
In65 O73 2.266 . S
In65 O74 2.326 . S
In65 O76 2.294 . S
In65 O77 2.326 . S
O66 In65 2.294 . S
O66 C75 1.240 . S
O67 In65 2.326 . S
O67 C75 1.252 . S
C68 O71 1.252 . S
C68 O72 1.260 . S
C69 O76 1.240 . S
C69 O77 1.252 . S
C70 O73 1.252 . S
C70 O74 1.260 . S
O71 In65 2.266 . S
O71 C68 1.252 . S
O72 In65 2.326 . S
O72 C68 1.260 . S
O73 In65 2.266 . S
O73 C70 1.252 . S
O74 In65 2.326 . S
O74 C70 1.260 . S
C75 O66 1.240 . S
C75 O67 1.252 . S
O76 In65 2.294 . S
O76 C69 1.240 . S
O77 In65 2.326 . S
O77 C69 1.252 . S
In78 O79 2.294 . S
In78 O80 2.326 . S
In78 O84 2.266 . S
In78 O85 2.326 . S
In78 O86 2.266 . S
In78 O87 2.326 . S
In78 O89 2.294 . S
In78 O90 2.326 . S
O79 In78 2.294 . S
O79 C88 1.240 . S
O80 In78 2.326 . S
O80 C88 1.252 . S
C81 O84 1.252 . S
C81 O85 1.260 . S
C82 O89 1.240 . S
C82 O90 1.252 . S
C83 O86 1.252 . S
C83 O87 1.260 . S
O84 In78 2.266 . S
O84 C81 1.252 . S
O85 In78 2.326 . S
O85 C81 1.260 . S
O86 In78 2.266 . S
O86 C83 1.252 . S
O87 In78 2.326 . S
O87 C83 1.260 . S
C88 O79 1.240 . S
C88 O80 1.252 . S
O89 In78 2.294 . S
O89 C82 1.240 . S
O90 In78 2.326 . S
O90 C82 1.252 . S
In91 O92 2.294 . S
In91 O93 2.326 . S
In91 O97 2.266 . S
In91 O98 2.326 . S
In91 O99 2.266 . S
In91 O100 2.326 . S
In91 O102 2.294 . S
In91 O103 2.326 . S
O92 In91 2.294 . S
O92 C101 1.240 . S
O93 In91 2.326 . S
O93 C101 1.252 . S
C94 O97 1.252 . S
C94 O98 1.260 . S
C95 O102 1.240 . S
C95 O103 1.252 . S
C96 O99 1.252 . S
C96 O100 1.260 . S
O97 In91 2.266 . S
O97 C94 1.252 . S
O98 In91 2.326 . S
O98 C94 1.260 . S
O99 In91 2.266 . S
O99 C96 1.252 . S
O100 In91 2.326 . S
O100 C96 1.260 . S
C101 O92 1.240 . S
C101 O93 1.252 . S
O102 In91 2.294 . S
O102 C95 1.240 . S
O103 In91 2.326 . S
O103 C95 1.252 . S
In104 O105 2.294 . S
In104 O106 2.326 . S
In104 O110 2.266 . S
In104 O111 2.326 . S
In104 O112 2.266 . S
In104 O113 2.326 . S
In104 O115 2.294 . S
In104 O116 2.326 . S
O105 In104 2.294 . S
O105 C114 1.240 . S
O106 In104 2.326 . S
O106 C114 1.252 . S
C107 O110 1.252 . S
C107 O111 1.260 . S
C108 O115 1.240 . S
C108 O116 1.252 . S
C109 O112 1.252 . S
C109 O113 1.260 . S
O110 In104 2.266 . S
O110 C107 1.252 . S
O111 In104 2.326 . S
O111 C107 1.260 . S
O112 In104 2.266 . S
O112 C109 1.252 . S
O113 In104 2.326 . S
O113 C109 1.260 . S
C114 O105 1.240 . S
C114 O106 1.252 . S
O115 In104 2.294 . S
O115 C108 1.240 . S
O116 In104 2.326 . S
O116 C108 1.252 . S
In117 O118 2.294 . S
In117 O119 2.326 . S
In117 O123 2.266 . S
In117 O124 2.326 . S
In117 O125 2.266 . S
In117 O126 2.326 . S
In117 O128 2.294 . S
In117 O129 2.326 . S
O118 In117 2.294 . S
O118 C127 1.240 . S
O119 In117 2.326 . S
O119 C127 1.252 . S
C120 O123 1.252 . S
C120 O124 1.260 . S
C121 O128 1.240 . S
C121 O129 1.252 . S
C122 O125 1.252 . S
C122 O126 1.260 . S
O123 In117 2.266 . S
O123 C120 1.252 . S
O124 In117 2.326 . S
O124 C120 1.260 . S
O125 In117 2.266 . S
O125 C122 1.252 . S
O126 In117 2.326 . S
O126 C122 1.260 . S
C127 O118 1.240 . S
C127 O119 1.252 . S
O128 In117 2.294 . S
O128 C121 1.240 . S
O129 In117 2.326 . S
O129 C121 1.252 . S
In130 O131 2.294 . S
In130 O132 2.326 . S
In130 O136 2.266 . S
In130 O137 2.326 . S
In130 O138 2.266 . S
In130 O139 2.326 . S
In130 O141 2.294 . S
In130 O142 2.326 . S
O131 In130 2.294 . S
O131 C140 1.240 . S
O132 In130 2.326 . S
O132 C140 1.252 . S
C133 O136 1.252 . S
C133 O137 1.260 . S
C134 O141 1.240 . S
C134 O142 1.252 . S
C135 O138 1.252 . S
C135 O139 1.260 . S
O136 In130 2.266 . S
O136 C133 1.252 . S
O137 In130 2.326 . S
O137 C133 1.260 . S
O138 In130 2.266 . S
O138 C135 1.252 . S
O139 In130 2.326 . S
O139 C135 1.260 . S
C140 O131 1.240 . S
C140 O132 1.252 . S
O141 In130 2.294 . S
O141 C134 1.240 . S
O142 In130 2.326 . S
O142 C134 1.252 . S
In143 O144 2.294 . S
In143 O145 2.326 . S
In143 O149 2.266 . S
In143 O150 2.326 . S
In143 O151 2.266 . S
In143 O152 2.326 . S
In143 O154 2.294 . S
In143 O155 2.326 . S
O144 In143 2.294 . S
O144 C153 1.240 . S
O145 In143 2.326 . S
O145 C153 1.252 . S
C146 O149 1.252 . S
C146 O150 1.260 . S
C147 O154 1.240 . S
C147 O155 1.252 . S
C148 O151 1.252 . S
C148 O152 1.260 . S
O149 In143 2.266 . S
O149 C146 1.252 . S
O150 In143 2.326 . S
O150 C146 1.260 . S
O151 In143 2.266 . S
O151 C148 1.252 . S
O152 In143 2.326 . S
O152 C148 1.260 . S
C153 O144 1.240 . S
C153 O145 1.252 . S
O154 In143 2.294 . S
O154 C147 1.240 . S
O155 In143 2.326 . S
O155 C147 1.252 . S
In156 O157 2.294 . S
In156 O158 2.326 . S
In156 O162 2.266 . S
In156 O163 2.326 . S
In156 O164 2.266 . S
In156 O165 2.326 . S
In156 O167 2.294 . S
In156 O168 2.326 . S
O157 In156 2.294 . S
O157 C166 1.240 . S
O158 In156 2.326 . S
O158 C166 1.252 . S
C159 O162 1.252 . S
C159 O163 1.260 . S
C160 O167 1.240 . S
C160 O168 1.252 . S
C161 O164 1.252 . S
C161 O165 1.260 . S
O162 In156 2.266 . S
O162 C159 1.252 . S
O163 In156 2.326 . S
O163 C159 1.260 . S
O164 In156 2.266 . S
O164 C161 1.252 . S
O165 In156 2.326 . S
O165 C161 1.260 . S
C166 O157 1.240 . S
C166 O158 1.252 . S
O167 In156 2.294 . S
O167 C160 1.240 . S
O168 In156 2.326 . S
O168 C160 1.252 . S
In169 O170 2.294 . S
In169 O171 2.326 . S
In169 O175 2.266 . S
In169 O176 2.326 . S
In169 O177 2.266 . S
In169 O178 2.326 . S
In169 O180 2.294 . S
In169 O181 2.326 . S
O170 In169 2.294 . S
O170 C179 1.240 . S
O171 In169 2.326 . S
O171 C179 1.252 . S
C172 O175 1.252 . S
C172 O176 1.260 . S
C173 O180 1.240 . S
C173 O181 1.252 . S
C174 O177 1.252 . S
C174 O178 1.260 . S
O175 In169 2.266 . S
O175 C172 1.252 . S
O176 In169 2.326 . S
O176 C172 1.260 . S
O177 In169 2.266 . S
O177 C174 1.252 . S
O178 In169 2.326 . S
O178 C174 1.260 . S
C179 O170 1.240 . S
C179 O171 1.252 . S
O180 In169 2.294 . S
O180 C173 1.240 . S
O181 In169 2.326 . S
O181 C173 1.252 . S
In182 O183 2.294 . S
In182 O184 2.326 . S
In182 O188 2.266 . S
In182 O189 2.326 . S
In182 O190 2.266 . S
In182 O191 2.326 . S
In182 O193 2.294 . S
In182 O194 2.326 . S
O183 In182 2.294 . S
O183 C192 1.240 . S
O184 In182 2.326 . S
O184 C192 1.252 . S
C185 O188 1.252 . S
C185 O189 1.260 . S
C186 O193 1.240 . S
C186 O194 1.252 . S
C187 O190 1.252 . S
C187 O191 1.260 . S
O188 In182 2.266 . S
O188 C185 1.252 . S
O189 In182 2.326 . S
O189 C185 1.260 . S
O190 In182 2.266 . S
O190 C187 1.252 . S
O191 In182 2.326 . S
O191 C187 1.260 . S
C192 O183 1.240 . S
C192 O184 1.252 . S
O193 In182 2.294 . S
O193 C186 1.240 . S
O194 In182 2.326 . S
O194 C186 1.252 . S
In195 O196 2.294 . S
In195 O197 2.326 . S
In195 O201 2.266 . S
In195 O202 2.326 . S
In195 O203 2.266 . S
In195 O204 2.326 . S
In195 O206 2.294 . S
In195 O207 2.326 . S
O196 In195 2.294 . S
O196 C205 1.240 . S
O197 In195 2.326 . S
O197 C205 1.252 . S
C198 O201 1.252 . S
C198 O202 1.260 . S
C199 O206 1.240 . S
C199 O207 1.252 . S
C200 O203 1.252 . S
C200 O204 1.260 . S
O201 In195 2.266 . S
O201 C198 1.252 . S
O202 In195 2.326 . S
O202 C198 1.260 . S
O203 In195 2.266 . S
O203 C200 1.252 . S
O204 In195 2.326 . S
O204 C200 1.260 . S
C205 O196 1.240 . S
C205 O197 1.252 . S
O206 In195 2.294 . S
O206 C199 1.240 . S
O207 In195 2.326 . S
O207 C199 1.252 . S
In208 O209 2.294 . S
In208 O210 2.326 . S
In208 O214 2.266 . S
In208 O215 2.326 . S
In208 O216 2.266 . S
In208 O217 2.326 . S
In208 O219 2.294 . S
In208 O220 2.326 . S
O209 In208 2.294 . S
O209 C218 1.240 . S
O210 In208 2.326 . S
O210 C218 1.252 . S
C211 O214 1.252 . S
C211 O215 1.260 . S
C212 O219 1.240 . S
C212 O220 1.252 . S
C213 O216 1.252 . S
C213 O217 1.260 . S
O214 In208 2.266 . S
O214 C211 1.252 . S
O215 In208 2.326 . S
O215 C211 1.260 . S
O216 In208 2.266 . S
O216 C213 1.252 . S
O217 In208 2.326 . S
O217 C213 1.260 . S
C218 O209 1.240 . S
C218 O210 1.252 . S
O219 In208 2.294 . S
O219 C212 1.240 . S
O220 In208 2.326 . S
O220 C212 1.252 . S
In221 O222 2.294 . S
In221 O223 2.326 . S
In221 O227 2.266 . S
In221 O228 2.326 . S
In221 O229 2.266 . S
In221 O230 2.326 . S
In221 O232 2.294 . S
In221 O233 2.326 . S
O222 In221 2.294 . S
O222 C231 1.240 . S
O223 In221 2.326 . S
O223 C231 1.252 . S
C224 O227 1.252 . S
C224 O228 1.260 . S
C225 O232 1.240 . S
C225 O233 1.252 . S
C226 O229 1.252 . S
C226 O230 1.260 . S
O227 In221 2.266 . S
O227 C224 1.252 . S
O228 In221 2.326 . S
O228 C224 1.260 . S
O229 In221 2.266 . S
O229 C226 1.252 . S
O230 In221 2.326 . S
O230 C226 1.260 . S
C231 O222 1.240 . S
C231 O223 1.252 . S
O232 In221 2.294 . S
O232 C225 1.240 . S
O233 In221 2.326 . S
O233 C225 1.252 . S
In234 O235 2.294 . S
In234 O236 2.326 . S
In234 O240 2.266 . S
In234 O241 2.326 . S
In234 O242 2.266 . S
In234 O243 2.326 . S
In234 O245 2.294 . S
In234 O246 2.326 . S
O235 In234 2.294 . S
O235 C244 1.240 . S
O236 In234 2.326 . S
O236 C244 1.252 . S
C237 O240 1.252 . S
C237 O241 1.260 . S
C238 O245 1.240 . S
C238 O246 1.252 . S
C239 O242 1.252 . S
C239 O243 1.260 . S
O240 In234 2.266 . S
O240 C237 1.252 . S
O241 In234 2.326 . S
O241 C237 1.260 . S
O242 In234 2.266 . S
O242 C239 1.252 . S
O243 In234 2.326 . S
O243 C239 1.260 . S
C244 O235 1.240 . S
C244 O236 1.252 . S
O245 In234 2.294 . S
O245 C238 1.240 . S
O246 In234 2.326 . S
O246 C238 1.252 . S
In247 O248 2.294 . S
In247 O249 2.326 . S
In247 O253 2.266 . S
In247 O254 2.326 . S
In247 O255 2.266 . S
In247 O256 2.326 . S
In247 O258 2.294 . S
In247 O259 2.326 . S
O248 In247 2.294 . S
O248 C257 1.240 . S
O249 In247 2.326 . S
O249 C257 1.252 . S
C250 O253 1.252 . S
C250 O254 1.260 . S
C251 O258 1.240 . S
C251 O259 1.252 . S
C252 O255 1.252 . S
C252 O256 1.260 . S
O253 In247 2.266 . S
O253 C250 1.252 . S
O254 In247 2.326 . S
O254 C250 1.260 . S
O255 In247 2.266 . S
O255 C252 1.252 . S
O256 In247 2.326 . S
O256 C252 1.260 . S
C257 O248 1.240 . S
C257 O249 1.252 . S
O258 In247 2.294 . S
O258 C251 1.240 . S
O259 In247 2.326 . S
O259 C251 1.252 . S
In260 O261 2.294 . S
In260 O262 2.326 . S
In260 O266 2.266 . S
In260 O267 2.326 . S
In260 O268 2.266 . S
In260 O269 2.326 . S
In260 O271 2.294 . S
In260 O272 2.326 . S
O261 In260 2.294 . S
O261 C270 1.240 . S
O262 In260 2.326 . S
O262 C270 1.252 . S
C263 O266 1.252 . S
C263 O267 1.260 . S
C264 O271 1.240 . S
C264 O272 1.252 . S
C265 O268 1.252 . S
C265 O269 1.260 . S
O266 In260 2.266 . S
O266 C263 1.252 . S
O267 In260 2.326 . S
O267 C263 1.260 . S
O268 In260 2.266 . S
O268 C265 1.252 . S
O269 In260 2.326 . S
O269 C265 1.260 . S
C270 O261 1.240 . S
C270 O262 1.252 . S
O271 In260 2.294 . S
O271 C264 1.240 . S
O272 In260 2.326 . S
O272 C264 1.252 . S
In273 O274 2.294 . S
In273 O275 2.326 . S
In273 O279 2.266 . S
In273 O280 2.326 . S
In273 O281 2.266 . S
In273 O282 2.326 . S
In273 O284 2.294 . S
In273 O285 2.326 . S
O274 In273 2.294 . S
O274 C283 1.240 . S
O275 In273 2.326 . S
O275 C283 1.252 . S
C276 O279 1.252 . S
C276 O280 1.260 . S
C277 O284 1.240 . S
C277 O285 1.252 . S
C278 O281 1.252 . S
C278 O282 1.260 . S
O279 In273 2.266 . S
O279 C276 1.252 . S
O280 In273 2.326 . S
O280 C276 1.260 . S
O281 In273 2.266 . S
O281 C278 1.252 . S
O282 In273 2.326 . S
O282 C278 1.260 . S
C283 O274 1.240 . S
C283 O275 1.252 . S
O284 In273 2.294 . S
O284 C277 1.240 . S
O285 In273 2.326 . S
O285 C277 1.252 . S
In286 O287 2.294 . S
In286 O288 2.326 . S
In286 O292 2.266 . S
In286 O293 2.326 . S
In286 O294 2.266 . S
In286 O295 2.326 . S
In286 O297 2.294 . S
In286 O298 2.326 . S
O287 In286 2.294 . S
O287 C296 1.240 . S
O288 In286 2.326 . S
O288 C296 1.252 . S
C289 O292 1.252 . S
C289 O293 1.260 . S
C290 O297 1.240 . S
C290 O298 1.252 . S
C291 O294 1.252 . S
C291 O295 1.260 . S
O292 In286 2.266 . S
O292 C289 1.252 . S
O293 In286 2.326 . S
O293 C289 1.260 . S
O294 In286 2.266 . S
O294 C291 1.252 . S
O295 In286 2.326 . S
O295 C291 1.260 . S
C296 O287 1.240 . S
C296 O288 1.252 . S
O297 In286 2.294 . S
O297 C290 1.240 . S
O298 In286 2.326 . S
O298 C290 1.252 . S
In299 O300 2.294 . S
In299 O301 2.326 . S
In299 O305 2.266 . S
In299 O306 2.326 . S
In299 O307 2.266 . S
In299 O308 2.326 . S
In299 O310 2.294 . S
In299 O311 2.326 . S
O300 In299 2.294 . S
O300 C309 1.240 . S
O301 In299 2.326 . S
O301 C309 1.252 . S
C302 O305 1.252 . S
C302 O306 1.260 . S
C303 O310 1.240 . S
C303 O311 1.252 . S
C304 O307 1.252 . S
C304 O308 1.260 . S
O305 In299 2.266 . S
O305 C302 1.252 . S
O306 In299 2.326 . S
O306 C302 1.260 . S
O307 In299 2.266 . S
O307 C304 1.252 . S
O308 In299 2.326 . S
O308 C304 1.260 . S
C309 O300 1.240 . S
C309 O301 1.252 . S
O310 In299 2.294 . S
O310 C303 1.240 . S
O311 In299 2.326 . S
O311 C303 1.252 . S
H312 C318 0.930 . S
H313 C322 0.930 . S
H314 C327 0.929 . S
H315 C325 0.929 . S
H316 C320 0.929 . S
H317 C326 0.929 . S
C318 H312 0.930 . S
C318 C319 1.367 . S
C318 C326 1.378 . S
C319 C318 1.367 . S
C319 C327 1.433 . S
C320 H316 0.929 . S
C320 C322 1.378 . S
C320 C324 1.350 . S
C321 C324 1.463 . S
C321 C326 1.350 . S
C321 N329 1.427 . S
C322 H313 0.930 . S
C322 C320 1.378 . S
C322 C323 1.367 . S
C323 C322 1.367 . S
C323 C325 1.433 . S
C324 C320 1.350 . S
C324 C321 1.463 . S
C324 N328 1.427 . S
C325 H315 0.929 . S
C325 C323 1.433 . S
C325 N328 1.384 . S
C326 H317 0.929 . S
C326 C318 1.378 . S
C326 C321 1.350 . S
C327 H314 0.929 . S
C327 C319 1.433 . S
C327 N329 1.384 . S
N328 C324 1.427 . S
N328 C325 1.384 . S
N329 C321 1.427 . S
N329 C327 1.384 . S
H330 C336 0.930 . S
H331 C340 0.930 . S
H332 C345 0.929 . S
H333 C343 0.929 . S
H334 C338 0.929 . S
H335 C344 0.929 . S
C336 H330 0.930 . S
C336 C337 1.367 . S
C336 C344 1.378 . S
C337 C336 1.367 . S
C337 C345 1.433 . S
C338 H334 0.929 . S
C338 C340 1.378 . S
C338 C342 1.350 . S
C339 C342 1.463 . S
C339 C344 1.350 . S
C339 N347 1.427 . S
C340 H331 0.930 . S
C340 C338 1.378 . S
C340 C341 1.367 . S
C341 C340 1.367 . S
C341 C343 1.433 . S
C342 C338 1.350 . S
C342 C339 1.463 . S
C342 N346 1.427 . S
C343 H333 0.929 . S
C343 C341 1.433 . S
C343 N346 1.384 . S
C344 H335 0.929 . S
C344 C336 1.378 . S
C344 C339 1.350 . S
C345 H332 0.929 . S
C345 C337 1.433 . S
C345 N347 1.384 . S
N346 C342 1.427 . S
N346 C343 1.384 . S
N347 C339 1.427 . S
N347 C345 1.384 . S
H348 C354 0.930 . S
H349 C358 0.930 . S
H350 C363 0.929 . S
H351 C361 0.929 . S
H352 C356 0.929 . S
H353 C362 0.929 . S
C354 H348 0.930 . S
C354 C355 1.367 . S
C354 C362 1.378 . S
C355 C354 1.367 . S
C355 C363 1.433 . S
C356 H352 0.929 . S
C356 C358 1.378 . S
C356 C360 1.350 . S
C357 C360 1.463 . S
C357 C362 1.350 . S
C357 N365 1.427 . S
C358 H349 0.930 . S
C358 C356 1.378 . S
C358 C359 1.367 . S
C359 C358 1.367 . S
C359 C361 1.433 . S
C360 C356 1.350 . S
C360 C357 1.463 . S
C360 N364 1.427 . S
C361 H351 0.929 . S
C361 C359 1.433 . S
C361 N364 1.384 . S
C362 H353 0.929 . S
C362 C354 1.378 . S
C362 C357 1.350 . S
C363 H350 0.929 . S
C363 C355 1.433 . S
C363 N365 1.384 . S
N364 C360 1.427 . S
N364 C361 1.384 . S
N365 C357 1.427 . S
N365 C363 1.384 . S
H366 C372 0.930 . S
H367 C376 0.930 . S
H368 C381 0.929 . S
H369 C379 0.929 . S
H370 C374 0.929 . S
H371 C380 0.929 . S
C372 H366 0.930 . S
C372 C373 1.367 . S
C372 C380 1.378 . S
C373 C372 1.367 . S
C373 C381 1.433 . S
C374 H370 0.929 . S
C374 C376 1.378 . S
C374 C378 1.350 . S
C375 C378 1.463 . S
C375 C380 1.350 . S
C375 N383 1.427 . S
C376 H367 0.930 . S
C376 C374 1.378 . S
C376 C377 1.367 . S
C377 C376 1.367 . S
C377 C379 1.433 . S
C378 C374 1.350 . S
C378 C375 1.463 . S
C378 N382 1.427 . S
C379 H369 0.929 . S
C379 C377 1.433 . S
C379 N382 1.384 . S
C380 H371 0.929 . S
C380 C372 1.378 . S
C380 C375 1.350 . S
C381 H368 0.929 . S
C381 C373 1.433 . S
C381 N383 1.384 . S
N382 C378 1.427 . S
N382 C379 1.384 . S
N383 C375 1.427 . S
N383 C381 1.384 . S
H384 C390 0.930 . S
H385 C394 0.930 . S
H386 C399 0.929 . S
H387 C397 0.929 . S
H388 C392 0.929 . S
H389 C398 0.929 . S
C390 H384 0.930 . S
C390 C391 1.367 . S
C390 C398 1.378 . S
C391 C390 1.367 . S
C391 C399 1.433 . S
C392 H388 0.929 . S
C392 C394 1.378 . S
C392 C396 1.350 . S
C393 C396 1.463 . S
C393 C398 1.350 . S
C393 N401 1.427 . S
C394 H385 0.930 . S
C394 C392 1.378 . S
C394 C395 1.367 . S
C395 C394 1.367 . S
C395 C397 1.433 . S
C396 C392 1.350 . S
C396 C393 1.463 . S
C396 N400 1.427 . S
C397 H387 0.929 . S
C397 C395 1.433 . S
C397 N400 1.384 . S
C398 H389 0.929 . S
C398 C390 1.378 . S
C398 C393 1.350 . S
C399 H386 0.929 . S
C399 C391 1.433 . S
C399 N401 1.384 . S
N400 C396 1.427 . S
N400 C397 1.384 . S
N401 C393 1.427 . S
N401 C399 1.384 . S
H402 C408 0.930 . S
H403 C412 0.930 . S
H404 C417 0.929 . S
H405 C415 0.929 . S
H406 C410 0.929 . S
H407 C416 0.929 . S
C408 H402 0.930 . S
C408 C409 1.367 . S
C408 C416 1.378 . S
C409 C408 1.367 . S
C409 C417 1.433 . S
C410 H406 0.929 . S
C410 C412 1.378 . S
C410 C414 1.350 . S
C411 C414 1.463 . S
C411 C416 1.350 . S
C411 N419 1.427 . S
C412 H403 0.930 . S
C412 C410 1.378 . S
C412 C413 1.367 . S
C413 C412 1.367 . S
C413 C415 1.433 . S
C414 C410 1.350 . S
C414 C411 1.463 . S
C414 N418 1.427 . S
C415 H405 0.929 . S
C415 C413 1.433 . S
C415 N418 1.384 . S
C416 H407 0.929 . S
C416 C408 1.378 . S
C416 C411 1.350 . S
C417 H404 0.929 . S
C417 C409 1.433 . S
C417 N419 1.384 . S
N418 C414 1.427 . S
N418 C415 1.384 . S
N419 C411 1.427 . S
N419 C417 1.384 . S
H420 C426 0.930 . S
H421 C430 0.930 . S
H422 C435 0.929 . S
H423 C433 0.929 . S
H424 C428 0.929 . S
H425 C434 0.929 . S
C426 H420 0.930 . S
C426 C427 1.367 . S
C426 C434 1.378 . S
C427 C426 1.367 . S
C427 C435 1.433 . S
C428 H424 0.929 . S
C428 C430 1.378 . S
C428 C432 1.350 . S
C429 C432 1.463 . S
C429 C434 1.350 . S
C429 N437 1.427 . S
C430 H421 0.930 . S
C430 C428 1.378 . S
C430 C431 1.367 . S
C431 C430 1.367 . S
C431 C433 1.433 . S
C432 C428 1.350 . S
C432 C429 1.463 . S
C432 N436 1.427 . S
C433 H423 0.929 . S
C433 C431 1.433 . S
C433 N436 1.384 . S
C434 H425 0.929 . S
C434 C426 1.378 . S
C434 C429 1.350 . S
C435 H422 0.929 . S
C435 C427 1.433 . S
C435 N437 1.384 . S
N436 C432 1.427 . S
N436 C433 1.384 . S
N437 C429 1.427 . S
N437 C435 1.384 . S
H438 C444 0.930 . S
H439 C448 0.930 . S
H440 C453 0.929 . S
H441 C451 0.929 . S
H442 C446 0.929 . S
H443 C452 0.929 . S
C444 H438 0.930 . S
C444 C445 1.367 . S
C444 C452 1.378 . S
C445 C444 1.367 . S
C445 C453 1.433 . S
C446 H442 0.929 . S
C446 C448 1.378 . S
C446 C450 1.350 . S
C447 C450 1.463 . S
C447 C452 1.350 . S
C447 N455 1.427 . S
C448 H439 0.930 . S
C448 C446 1.378 . S
C448 C449 1.367 . S
C449 C448 1.367 . S
C449 C451 1.433 . S
C450 C446 1.350 . S
C450 C447 1.463 . S
C450 N454 1.427 . S
C451 H441 0.929 . S
C451 C449 1.433 . S
C451 N454 1.384 . S
C452 H443 0.929 . S
C452 C444 1.378 . S
C452 C447 1.350 . S
C453 H440 0.929 . S
C453 C445 1.433 . S
C453 N455 1.384 . S
N454 C450 1.427 . S
N454 C451 1.384 . S
N455 C447 1.427 . S
N455 C453 1.384 . S
H456 C462 0.930 . S
H457 C466 0.930 . S
H458 C471 0.929 . S
H459 C469 0.929 . S
H460 C464 0.929 . S
H461 C470 0.929 . S
C462 H456 0.930 . S
C462 C463 1.367 . S
C462 C470 1.378 . S
C463 C462 1.367 . S
C463 C471 1.433 . S
C464 H460 0.929 . S
C464 C466 1.378 . S
C464 C468 1.350 . S
C465 C468 1.463 . S
C465 C470 1.350 . S
C465 N473 1.427 . S
C466 H457 0.930 . S
C466 C464 1.378 . S
C466 C467 1.367 . S
C467 C466 1.367 . S
C467 C469 1.433 . S
C468 C464 1.350 . S
C468 C465 1.463 . S
C468 N472 1.427 . S
C469 H459 0.929 . S
C469 C467 1.433 . S
C469 N472 1.384 . S
C470 H461 0.929 . S
C470 C462 1.378 . S
C470 C465 1.350 . S
C471 H458 0.929 . S
C471 C463 1.433 . S
C471 N473 1.384 . S
N472 C468 1.427 . S
N472 C469 1.384 . S
N473 C465 1.427 . S
N473 C471 1.384 . S
H474 C480 0.930 . S
H475 C484 0.930 . S
H476 C489 0.929 . S
H477 C487 0.929 . S
H478 C482 0.929 . S
H479 C488 0.929 . S
C480 H474 0.930 . S
C480 C481 1.367 . S
C480 C488 1.378 . S
C481 C480 1.367 . S
C481 C489 1.433 . S
C482 H478 0.929 . S
C482 C484 1.378 . S
C482 C486 1.350 . S
C483 C486 1.463 . S
C483 C488 1.350 . S
C483 N491 1.427 . S
C484 H475 0.930 . S
C484 C482 1.378 . S
C484 C485 1.367 . S
C485 C484 1.367 . S
C485 C487 1.433 . S
C486 C482 1.350 . S
C486 C483 1.463 . S
C486 N490 1.427 . S
C487 H477 0.929 . S
C487 C485 1.433 . S
C487 N490 1.384 . S
C488 H479 0.929 . S
C488 C480 1.378 . S
C488 C483 1.350 . S
C489 H476 0.929 . S
C489 C481 1.433 . S
C489 N491 1.384 . S
N490 C486 1.427 . S
N490 C487 1.384 . S
N491 C483 1.427 . S
N491 C489 1.384 . S
H492 C498 0.930 . S
H493 C502 0.930 . S
H494 C507 0.929 . S
H495 C505 0.929 . S
H496 C500 0.929 . S
H497 C506 0.929 . S
C498 H492 0.930 . S
C498 C499 1.367 . S
C498 C506 1.378 . S
C499 C498 1.367 . S
C499 C507 1.433 . S
C500 H496 0.929 . S
C500 C502 1.378 . S
C500 C504 1.350 . S
C501 C504 1.463 . S
C501 C506 1.350 . S
C501 N509 1.427 . S
C502 H493 0.930 . S
C502 C500 1.378 . S
C502 C503 1.367 . S
C503 C502 1.367 . S
C503 C505 1.433 . S
C504 C500 1.350 . S
C504 C501 1.463 . S
C504 N508 1.427 . S
C505 H495 0.929 . S
C505 C503 1.433 . S
C505 N508 1.384 . S
C506 H497 0.929 . S
C506 C498 1.378 . S
C506 C501 1.350 . S
C507 H494 0.929 . S
C507 C499 1.433 . S
C507 N509 1.384 . S
N508 C504 1.427 . S
N508 C505 1.384 . S
N509 C501 1.427 . S
N509 C507 1.384 . S
H510 C516 0.930 . S
H511 C520 0.930 . S
H512 C525 0.929 . S
H513 C523 0.929 . S
H514 C518 0.929 . S
H515 C524 0.929 . S
C516 H510 0.930 . S
C516 C517 1.367 . S
C516 C524 1.378 . S
C517 C516 1.367 . S
C517 C525 1.433 . S
C518 H514 0.929 . S
C518 C520 1.378 . S
C518 C522 1.350 . S
C519 C522 1.463 . S
C519 C524 1.350 . S
C519 N527 1.427 . S
C520 H511 0.930 . S
C520 C518 1.378 . S
C520 C521 1.367 . S
C521 C520 1.367 . S
C521 C523 1.433 . S
C522 C518 1.350 . S
C522 C519 1.463 . S
C522 N526 1.427 . S
C523 H513 0.929 . S
C523 C521 1.433 . S
C523 N526 1.384 . S
C524 H515 0.929 . S
C524 C516 1.378 . S
C524 C519 1.350 . S
C525 H512 0.929 . S
C525 C517 1.433 . S
C525 N527 1.384 . S
N526 C522 1.427 . S
N526 C523 1.384 . S
N527 C519 1.427 . S
N527 C525 1.384 . S
H528 C534 0.930 . S
H529 C538 0.930 . S
H530 C543 0.929 . S
H531 C541 0.929 . S
H532 C536 0.929 . S
H533 C542 0.929 . S
C534 H528 0.930 . S
C534 C535 1.367 . S
C534 C542 1.378 . S
C535 C534 1.367 . S
C535 C543 1.433 . S
C536 H532 0.929 . S
C536 C538 1.378 . S
C536 C540 1.350 . S
C537 C540 1.463 . S
C537 C542 1.350 . S
C537 N545 1.427 . S
C538 H529 0.930 . S
C538 C536 1.378 . S
C538 C539 1.367 . S
C539 C538 1.367 . S
C539 C541 1.433 . S
C540 C536 1.350 . S
C540 C537 1.463 . S
C540 N544 1.427 . S
C541 H531 0.929 . S
C541 C539 1.433 . S
C541 N544 1.384 . S
C542 H533 0.929 . S
C542 C534 1.378 . S
C542 C537 1.350 . S
C543 H530 0.929 . S
C543 C535 1.433 . S
C543 N545 1.384 . S
N544 C540 1.427 . S
N544 C541 1.384 . S
N545 C537 1.427 . S
N545 C543 1.384 . S
H546 C552 0.930 . S
H547 C556 0.930 . S
H548 C561 0.929 . S
H549 C559 0.929 . S
H550 C554 0.929 . S
H551 C560 0.929 . S
C552 H546 0.930 . S
C552 C553 1.367 . S
C552 C560 1.378 . S
C553 C552 1.367 . S
C553 C561 1.433 . S
C554 H550 0.929 . S
C554 C556 1.378 . S
C554 C558 1.350 . S
C555 C558 1.463 . S
C555 C560 1.350 . S
C555 N563 1.427 . S
C556 H547 0.930 . S
C556 C554 1.378 . S
C556 C557 1.367 . S
C557 C556 1.367 . S
C557 C559 1.433 . S
C558 C554 1.350 . S
C558 C555 1.463 . S
C558 N562 1.427 . S
C559 H549 0.929 . S
C559 C557 1.433 . S
C559 N562 1.384 . S
C560 H551 0.929 . S
C560 C552 1.378 . S
C560 C555 1.350 . S
C561 H548 0.929 . S
C561 C553 1.433 . S
C561 N563 1.384 . S
N562 C558 1.427 . S
N562 C559 1.384 . S
N563 C555 1.427 . S
N563 C561 1.384 . S
H564 C570 0.930 . S
H565 C574 0.930 . S
H566 C579 0.929 . S
H567 C577 0.929 . S
H568 C572 0.929 . S
H569 C578 0.929 . S
C570 H564 0.930 . S
C570 C571 1.367 . S
C570 C578 1.378 . S
C571 C570 1.367 . S
C571 C579 1.433 . S
C572 H568 0.929 . S
C572 C574 1.378 . S
C572 C576 1.350 . S
C573 C576 1.463 . S
C573 C578 1.350 . S
C573 N581 1.427 . S
C574 H565 0.930 . S
C574 C572 1.378 . S
C574 C575 1.367 . S
C575 C574 1.367 . S
C575 C577 1.433 . S
C576 C572 1.350 . S
C576 C573 1.463 . S
C576 N580 1.427 . S
C577 H567 0.929 . S
C577 C575 1.433 . S
C577 N580 1.384 . S
C578 H569 0.929 . S
C578 C570 1.378 . S
C578 C573 1.350 . S
C579 H566 0.929 . S
C579 C571 1.433 . S
C579 N581 1.384 . S
N580 C576 1.427 . S
N580 C577 1.384 . S
N581 C573 1.427 . S
N581 C579 1.384 . S
H582 C588 0.930 . S
H583 C592 0.930 . S
H584 C597 0.929 . S
H585 C595 0.929 . S
H586 C590 0.929 . S
H587 C596 0.929 . S
C588 H582 0.930 . S
C588 C589 1.367 . S
C588 C596 1.378 . S
C589 C588 1.367 . S
C589 C597 1.433 . S
C590 H586 0.929 . S
C590 C592 1.378 . S
C590 C594 1.350 . S
C591 C594 1.463 . S
C591 C596 1.350 . S
C591 N599 1.427 . S
C592 H583 0.930 . S
C592 C590 1.378 . S
C592 C593 1.367 . S
C593 C592 1.367 . S
C593 C595 1.433 . S
C594 C590 1.350 . S
C594 C591 1.463 . S
C594 N598 1.427 . S
C595 H585 0.929 . S
C595 C593 1.433 . S
C595 N598 1.384 . S
C596 H587 0.929 . S
C596 C588 1.378 . S
C596 C591 1.350 . S
C597 H584 0.929 . S
C597 C589 1.433 . S
C597 N599 1.384 . S
N598 C594 1.427 . S
N598 C595 1.384 . S
N599 C591 1.427 . S
N599 C597 1.384 . S
H600 C606 0.930 . S
H601 C610 0.930 . S
H602 C615 0.929 . S
H603 C613 0.929 . S
H604 C608 0.929 . S
H605 C614 0.929 . S
C606 H600 0.930 . S
C606 C607 1.367 . S
C606 C614 1.378 . S
C607 C606 1.367 . S
C607 C615 1.433 . S
C608 H604 0.929 . S
C608 C610 1.378 . S
C608 C612 1.350 . S
C609 C612 1.463 . S
C609 C614 1.350 . S
C609 N617 1.427 . S
C610 H601 0.930 . S
C610 C608 1.378 . S
C610 C611 1.367 . S
C611 C610 1.367 . S
C611 C613 1.433 . S
C612 C608 1.350 . S
C612 C609 1.463 . S
C612 N616 1.427 . S
C613 H603 0.929 . S
C613 C611 1.433 . S
C613 N616 1.384 . S
C614 H605 0.929 . S
C614 C606 1.378 . S
C614 C609 1.350 . S
C615 H602 0.929 . S
C615 C607 1.433 . S
C615 N617 1.384 . S
N616 C612 1.427 . S
N616 C613 1.384 . S
N617 C609 1.427 . S
N617 C615 1.384 . S
H618 C624 0.930 . S
H619 C628 0.930 . S
H620 C633 0.929 . S
H621 C631 0.929 . S
H622 C626 0.929 . S
H623 C632 0.929 . S
C624 H618 0.930 . S
C624 C625 1.367 . S
C624 C632 1.378 . S
C625 C624 1.367 . S
C625 C633 1.433 . S
C626 H622 0.929 . S
C626 C628 1.378 . S
C626 C630 1.350 . S
C627 C630 1.463 . S
C627 C632 1.350 . S
C627 N635 1.427 . S
C628 H619 0.930 . S
C628 C626 1.378 . S
C628 C629 1.367 . S
C629 C628 1.367 . S
C629 C631 1.433 . S
C630 C626 1.350 . S
C630 C627 1.463 . S
C630 N634 1.427 . S
C631 H621 0.929 . S
C631 C629 1.433 . S
C631 N634 1.384 . S
C632 H623 0.929 . S
C632 C624 1.378 . S
C632 C627 1.350 . S
C633 H620 0.929 . S
C633 C625 1.433 . S
C633 N635 1.384 . S
N634 C630 1.427 . S
N634 C631 1.384 . S
N635 C627 1.427 . S
N635 C633 1.384 . S
H636 C642 0.930 . S
H637 C646 0.930 . S
H638 C651 0.929 . S
H639 C649 0.929 . S
H640 C644 0.929 . S
H641 C650 0.929 . S
C642 H636 0.930 . S
C642 C643 1.367 . S
C642 C650 1.378 . S
C643 C642 1.367 . S
C643 C651 1.433 . S
C644 H640 0.929 . S
C644 C646 1.378 . S
C644 C648 1.350 . S
C645 C648 1.463 . S
C645 C650 1.350 . S
C645 N653 1.427 . S
C646 H637 0.930 . S
C646 C644 1.378 . S
C646 C647 1.367 . S
C647 C646 1.367 . S
C647 C649 1.433 . S
C648 C644 1.350 . S
C648 C645 1.463 . S
C648 N652 1.427 . S
C649 H639 0.929 . S
C649 C647 1.433 . S
C649 N652 1.384 . S
C650 H641 0.929 . S
C650 C642 1.378 . S
C650 C645 1.350 . S
C651 H638 0.929 . S
C651 C643 1.433 . S
C651 N653 1.384 . S
N652 C648 1.427 . S
N652 C649 1.384 . S
N653 C645 1.427 . S
N653 C651 1.384 . S
H654 C660 0.930 . S
H655 C664 0.930 . S
H656 C669 0.929 . S
H657 C667 0.929 . S
H658 C662 0.929 . S
H659 C668 0.929 . S
C660 H654 0.930 . S
C660 C661 1.367 . S
C660 C668 1.378 . S
C661 C660 1.367 . S
C661 C669 1.433 . S
C662 H658 0.929 . S
C662 C664 1.378 . S
C662 C666 1.350 . S
C663 C666 1.463 . S
C663 C668 1.350 . S
C663 N671 1.427 . S
C664 H655 0.930 . S
C664 C662 1.378 . S
C664 C665 1.367 . S
C665 C664 1.367 . S
C665 C667 1.433 . S
C666 C662 1.350 . S
C666 C663 1.463 . S
C666 N670 1.427 . S
C667 H657 0.929 . S
C667 C665 1.433 . S
C667 N670 1.384 . S
C668 H659 0.929 . S
C668 C660 1.378 . S
C668 C663 1.350 . S
C669 H656 0.929 . S
C669 C661 1.433 . S
C669 N671 1.384 . S
N670 C666 1.427 . S
N670 C667 1.384 . S
N671 C663 1.427 . S
N671 C669 1.384 . S
H672 C678 0.930 . S
H673 C682 0.930 . S
H674 C687 0.929 . S
H675 C685 0.929 . S
H676 C680 0.929 . S
H677 C686 0.929 . S
C678 H672 0.930 . S
C678 C679 1.367 . S
C678 C686 1.378 . S
C679 C678 1.367 . S
C679 C687 1.433 . S
C680 H676 0.929 . S
C680 C682 1.378 . S
C680 C684 1.350 . S
C681 C684 1.463 . S
C681 C686 1.350 . S
C681 N689 1.427 . S
C682 H673 0.930 . S
C682 C680 1.378 . S
C682 C683 1.367 . S
C683 C682 1.367 . S
C683 C685 1.433 . S
C684 C680 1.350 . S
C684 C681 1.463 . S
C684 N688 1.427 . S
C685 H675 0.929 . S
C685 C683 1.433 . S
C685 N688 1.384 . S
C686 H677 0.929 . S
C686 C678 1.378 . S
C686 C681 1.350 . S
C687 H674 0.929 . S
C687 C679 1.433 . S
C687 N689 1.384 . S
N688 C684 1.427 . S
N688 C685 1.384 . S
N689 C681 1.427 . S
N689 C687 1.384 . S
H690 C696 0.930 . S
H691 C700 0.930 . S
H692 C705 0.929 . S
H693 C703 0.929 . S
H694 C698 0.929 . S
H695 C704 0.929 . S
C696 H690 0.930 . S
C696 C697 1.367 . S
C696 C704 1.378 . S
C697 C696 1.367 . S
C697 C705 1.433 . S
C698 H694 0.929 . S
C698 C700 1.378 . S
C698 C702 1.350 . S
C699 C702 1.463 . S
C699 C704 1.350 . S
C699 N707 1.427 . S
C700 H691 0.930 . S
C700 C698 1.378 . S
C700 C701 1.367 . S
C701 C700 1.367 . S
C701 C703 1.433 . S
C702 C698 1.350 . S
C702 C699 1.463 . S
C702 N706 1.427 . S
C703 H693 0.929 . S
C703 C701 1.433 . S
C703 N706 1.384 . S
C704 H695 0.929 . S
C704 C696 1.378 . S
C704 C699 1.350 . S
C705 H692 0.929 . S
C705 C697 1.433 . S
C705 N707 1.384 . S
N706 C702 1.427 . S
N706 C703 1.384 . S
N707 C699 1.427 . S
N707 C705 1.384 . S
H708 C714 0.930 . S
H709 C718 0.930 . S
H710 C723 0.929 . S
H711 C721 0.929 . S
H712 C716 0.929 . S
H713 C722 0.929 . S
C714 H708 0.930 . S
C714 C715 1.367 . S
C714 C722 1.378 . S
C715 C714 1.367 . S
C715 C723 1.433 . S
C716 H712 0.929 . S
C716 C718 1.378 . S
C716 C720 1.350 . S
C717 C720 1.463 . S
C717 C722 1.350 . S
C717 N725 1.427 . S
C718 H709 0.930 . S
C718 C716 1.378 . S
C718 C719 1.367 . S
C719 C718 1.367 . S
C719 C721 1.433 . S
C720 C716 1.350 . S
C720 C717 1.463 . S
C720 N724 1.427 . S
C721 H711 0.929 . S
C721 C719 1.433 . S
C721 N724 1.384 . S
C722 H713 0.929 . S
C722 C714 1.378 . S
C722 C717 1.350 . S
C723 H710 0.929 . S
C723 C715 1.433 . S
C723 N725 1.384 . S
N724 C720 1.427 . S
N724 C721 1.384 . S
N725 C717 1.427 . S
N725 C723 1.384 . S
H726 C732 0.930 . S
H727 C736 0.930 . S
H728 C741 0.929 . S
H729 C739 0.929 . S
H730 C734 0.929 . S
H731 C740 0.929 . S
C732 H726 0.930 . S
C732 C733 1.367 . S
C732 C740 1.378 . S
C733 C732 1.367 . S
C733 C741 1.433 . S
C734 H730 0.929 . S
C734 C736 1.378 . S
C734 C738 1.350 . S
C735 C738 1.463 . S
C735 C740 1.350 . S
C735 N743 1.427 . S
C736 H727 0.930 . S
C736 C734 1.378 . S
C736 C737 1.367 . S
C737 C736 1.367 . S
C737 C739 1.433 . S
C738 C734 1.350 . S
C738 C735 1.463 . S
C738 N742 1.427 . S
C739 H729 0.929 . S
C739 C737 1.433 . S
C739 N742 1.384 . S
C740 H731 0.929 . S
C740 C732 1.378 . S
C740 C735 1.350 . S
C741 H728 0.929 . S
C741 C733 1.433 . S
C741 N743 1.384 . S
N742 C738 1.427 . S
N742 C739 1.384 . S
N743 C735 1.427 . S
N743 C741 1.384 . S
H744 C750 0.930 . S
H745 C754 0.930 . S
H746 C759 0.929 . S
H747 C757 0.929 . S
H748 C752 0.929 . S
H749 C758 0.929 . S
C750 H744 0.930 . S
C750 C751 1.367 . S
C750 C758 1.378 . S
C751 C750 1.367 . S
C751 C759 1.433 1_565 S
C752 H748 0.929 . S
C752 C754 1.378 . S
C752 C756 1.350 . S
C753 C756 1.463 1_566 S
C753 C758 1.350 . S
C753 N761 1.427 1_565 S
C754 H745 0.930 . S
C754 C752 1.378 . S
C754 C755 1.367 . S
C755 C754 1.367 . S
C755 C757 1.433 1_545 S
C756 C752 1.350 . S
C756 C753 1.463 1_544 S
C756 N760 1.427 1_545 S
C757 H747 0.929 . S
C757 C755 1.433 1_565 S
C757 N760 1.384 . S
C758 H749 0.929 . S
C758 C750 1.378 . S
C758 C753 1.350 . S
C759 H746 0.929 . S
C759 C751 1.433 1_545 S
C759 N761 1.384 . S
N760 C756 1.427 1_565 S
N760 C757 1.384 . S
N761 C753 1.427 1_545 S
N761 C759 1.384 . S
H762 C768 0.930 . S
H763 C772 0.930 . S
H764 C777 0.929 . S
H765 C775 0.929 . S
H766 C770 0.929 . S
H767 C776 0.929 . S
C768 H762 0.930 . S
C768 C769 1.367 . S
C768 C776 1.378 . S
C769 C768 1.367 . S
C769 C777 1.433 . S
C770 H766 0.929 . S
C770 C772 1.378 . S
C770 C774 1.350 . S
C771 C774 1.463 . S
C771 C776 1.350 . S
C771 N779 1.427 . S
C772 H763 0.930 . S
C772 C770 1.378 . S
C772 C773 1.367 . S
C773 C772 1.367 . S
C773 C775 1.433 . S
C774 C770 1.350 . S
C774 C771 1.463 . S
C774 N778 1.427 . S
C775 H765 0.929 . S
C775 C773 1.433 . S
C775 N778 1.384 . S
C776 H767 0.929 . S
C776 C768 1.378 . S
C776 C771 1.350 . S
C777 H764 0.929 . S
C777 C769 1.433 . S
C777 N779 1.384 . S
N778 C774 1.427 . S
N778 C775 1.384 . S
N779 C771 1.427 . S
N779 C777 1.384 . S
H780 C786 0.930 . S
H781 C790 0.930 . S
H782 C795 0.929 . S
H783 C793 0.929 . S
H784 C788 0.929 . S
H785 C794 0.929 . S
C786 H780 0.930 . S
C786 C787 1.367 . S
C786 C794 1.378 . S
C787 C786 1.367 . S
C787 C795 1.433 . S
C788 H784 0.929 . S
C788 C790 1.378 . S
C788 C792 1.350 . S
C789 C792 1.463 1_456 S
C789 C794 1.350 . S
C789 N797 1.427 . S
C790 H781 0.930 . S
C790 C788 1.378 . S
C790 C791 1.367 . S
C791 C790 1.367 . S
C791 C793 1.433 . S
C792 C788 1.350 . S
C792 C789 1.463 1_654 S
C792 N796 1.427 . S
C793 H783 0.929 . S
C793 C791 1.433 . S
C793 N796 1.384 . S
C794 H785 0.929 . S
C794 C786 1.378 . S
C794 C789 1.350 . S
C795 H782 0.929 . S
C795 C787 1.433 . S
C795 N797 1.384 . S
N796 C792 1.427 . S
N796 C793 1.384 . S
N797 C789 1.427 . S
N797 C795 1.384 . S
H798 C804 0.930 . S
H799 C808 0.930 . S
H800 C813 0.929 . S
H801 C811 0.929 . S
H802 C806 0.929 . S
H803 C812 0.929 . S
C804 H798 0.930 . S
C804 C805 1.367 . S
C804 C812 1.378 . S
C805 C804 1.367 . S
C805 C813 1.433 1_545 S
C806 H802 0.929 . S
C806 C808 1.378 . S
C806 C810 1.350 . S
C807 C810 1.463 1_545 S
C807 C812 1.350 . S
C807 N815 1.427 1_545 S
C808 H799 0.930 . S
C808 C806 1.378 . S
C808 C809 1.367 . S
C809 C808 1.367 . S
C809 C811 1.433 1_565 S
C810 C806 1.350 . S
C810 C807 1.463 1_565 S
C810 N814 1.427 1_565 S
C811 H801 0.929 . S
C811 C809 1.433 1_545 S
C811 N814 1.384 . S
C812 H803 0.929 . S
C812 C804 1.378 . S
C812 C807 1.350 . S
C813 H800 0.929 . S
C813 C805 1.433 1_565 S
C813 N815 1.384 . S
N814 C810 1.427 1_545 S
N814 C811 1.384 . S
N815 C807 1.427 1_565 S
N815 C813 1.384 . S
H816 C822 0.930 . S
H817 C826 0.930 . S
H818 C831 0.929 . S
H819 C829 0.929 . S
H820 C824 0.929 . S
H821 C830 0.929 . S
C822 H816 0.930 . S
C822 C823 1.367 . S
C822 C830 1.378 . S
C823 C822 1.367 . S
C823 C831 1.433 . S
C824 H820 0.929 . S
C824 C826 1.378 . S
C824 C828 1.350 . S
C825 C828 1.463 1_554 S
C825 C830 1.350 . S
C825 N833 1.427 . S
C826 H817 0.930 . S
C826 C824 1.378 . S
C826 C827 1.367 . S
C827 C826 1.367 . S
C827 C829 1.433 . S
C828 C824 1.350 . S
C828 C825 1.463 1_556 S
C828 N832 1.427 . S
C829 H819 0.929 . S
C829 C827 1.433 . S
C829 N832 1.384 . S
C830 H821 0.929 . S
C830 C822 1.378 . S
C830 C825 1.350 . S
C831 H818 0.929 . S
C831 C823 1.433 . S
C831 N833 1.384 . S
N832 C828 1.427 . S
N832 C829 1.384 . S
N833 C825 1.427 . S
N833 C831 1.384 . S
H834 C840 0.930 . S
H835 C844 0.930 . S
H836 C849 0.929 . S
H837 C847 0.929 . S
H838 C842 0.929 . S
H839 C848 0.929 . S
C840 H834 0.930 . S
C840 C841 1.367 1_655 S
C840 C848 1.378 . S
C841 C840 1.367 1_455 S
C841 C849 1.433 . S
C842 H838 0.929 . S
C842 C844 1.378 . S
C842 C846 1.350 1_455 S
C843 C846 1.463 1_455 S
C843 C848 1.350 1_455 S
C843 N851 1.427 . S
C844 H835 0.930 . S
C844 C842 1.378 . S
C844 C845 1.367 1_455 S
C845 C844 1.367 1_655 S
C845 C847 1.433 . S
C846 C842 1.350 1_655 S
C846 C843 1.463 1_655 S
C846 N850 1.427 . S
C847 H837 0.929 . S
C847 C845 1.433 . S
C847 N850 1.384 . S
C848 H839 0.929 . S
C848 C840 1.378 . S
C848 C843 1.350 1_655 S
C849 H836 0.929 . S
C849 C841 1.433 . S
C849 N851 1.384 . S
N850 C846 1.427 . S
N850 C847 1.384 . S
N851 C843 1.427 . S
N851 C849 1.384 . S
H852 C858 0.915 1_545 S
H853 C862 0.915 1_565 S
H854 C867 0.929 . S
H855 C865 0.929 . S
H856 C860 0.929 . S
H857 C866 0.929 . S
C858 H852 0.915 1_565 S
C858 C859 1.390 . S
C858 C866 1.370 1_565 S
C859 C858 1.390 . S
C859 C867 1.433 . S
C860 H856 0.929 . S
C860 C862 1.371 1_565 S
C860 C864 1.350 1_565 S
C861 C864 1.463 1_566 S
C861 C866 1.350 1_565 S
C861 N869 1.427 . S
C862 H853 0.915 1_545 S
C862 C860 1.371 1_545 S
C862 C863 1.389 . S
C863 C862 1.389 . S
C863 C865 1.433 . S
C864 C860 1.350 1_545 S
C864 C861 1.463 1_544 S
C864 N868 1.427 . S
C865 H855 0.929 . S
C865 C863 1.433 . S
C865 N868 1.384 . S
C866 H857 0.929 . S
C866 C858 1.370 1_545 S
C866 C861 1.350 1_545 S
C867 H854 0.929 . S
C867 C859 1.433 . S
C867 N869 1.384 . S
N868 C864 1.427 . S
N868 C865 1.384 . S
N869 C861 1.427 . S
N869 C867 1.384 . S
H870 C876 0.930 . S
H871 C880 0.930 . S
H872 C885 0.929 . S
H873 C883 0.929 . S
H874 C878 0.929 . S
H875 C884 0.929 . S
C876 H870 0.930 . S
C876 C877 1.367 . S
C876 C884 1.378 . S
C877 C876 1.367 . S
C877 C885 1.433 . S
C878 H874 0.929 . S
C878 C880 1.378 . S
C878 C882 1.350 . S
C879 C882 1.463 . S
C879 C884 1.350 . S
C879 N887 1.427 . S
C880 H871 0.930 . S
C880 C878 1.378 . S
C880 C881 1.367 . S
C881 C880 1.367 . S
C881 C883 1.433 . S
C882 C878 1.350 . S
C882 C879 1.463 . S
C882 N886 1.427 . S
C883 H873 0.929 . S
C883 C881 1.433 . S
C883 N886 1.384 . S
C884 H875 0.929 . S
C884 C876 1.378 . S
C884 C879 1.350 . S
C885 H872 0.929 . S
C885 C877 1.433 . S
C885 N887 1.384 . S
N886 C882 1.427 . S
N886 C883 1.384 . S
N887 C879 1.427 . S
N887 C885 1.384 . S
H888 C894 0.930 . S
H889 C898 0.930 . S
H890 C903 0.929 1_455 S
H891 C901 0.929 1_655 S
H892 C896 0.929 . S
H893 C902 0.929 . S
C894 H888 0.930 . S
C894 C895 1.367 . S
C894 C902 1.378 . S
C895 C894 1.367 . S
C895 C903 1.433 . S
C896 H892 0.929 . S
C896 C898 1.378 . S
C896 C900 1.350 . S
C897 C900 1.463 1_654 S
C897 C902 1.350 . S
C897 N905 1.427 1_655 S
C898 H889 0.930 . S
C898 C896 1.378 . S
C898 C899 1.367 . S
C899 C898 1.367 . S
C899 C901 1.433 . S
C900 C896 1.350 . S
C900 C897 1.463 1_456 S
C900 N904 1.427 1_455 S
C901 H891 0.929 1_455 S
C901 C899 1.433 . S
C901 N904 1.384 1_455 S
C902 H893 0.929 . S
C902 C894 1.378 . S
C902 C897 1.350 . S
C903 H890 0.929 1_655 S
C903 C895 1.433 . S
C903 N905 1.384 1_655 S
N904 C900 1.427 1_655 S
N904 C901 1.384 1_655 S
N905 C897 1.427 1_455 S
N905 C903 1.384 1_455 S
H906 C912 0.930 . S
H907 C916 0.930 . S
H908 C921 0.927 . S
H909 C919 0.927 . S
H910 C914 0.929 . S
H911 C920 0.929 . S
C912 H906 0.930 . S
C912 C913 1.367 . S
C912 C920 1.378 . S
C913 C912 1.367 . S
C913 C921 1.433 . S
C914 H910 0.929 . S
C914 C916 1.378 . S
C914 C918 1.350 . S
C915 C918 1.463 1_565 S
C915 C920 1.350 . S
C915 N923 1.427 1_565 S
C916 H907 0.930 . S
C916 C914 1.378 . S
C916 C917 1.367 . S
C917 C916 1.367 . S
C917 C919 1.433 . S
C918 C914 1.350 . S
C918 C915 1.463 1_545 S
C918 N922 1.427 1_545 S
C919 H909 0.927 . S
C919 C917 1.433 . S
C919 N922 1.384 1_545 S
C920 H911 0.929 . S
C920 C912 1.378 . S
C920 C915 1.350 . S
C921 H908 0.927 . S
C921 C913 1.433 . S
C921 N923 1.384 1_565 S
N922 C918 1.427 1_565 S
N922 C919 1.384 1_565 S
N923 C915 1.427 1_545 S
N923 C921 1.384 1_545 S
H924 C930 0.930 . S
H925 C934 0.930 . S
H926 C939 0.929 . S
H927 C937 0.929 . S
H928 C932 0.929 . S
H929 C938 0.929 . S
C930 H924 0.930 . S
C930 C931 1.367 . S
C930 C938 1.378 . S
C931 C930 1.367 . S
C931 C939 1.433 . S
C932 H928 0.929 . S
C932 C934 1.378 . S
C932 C936 1.350 . S
C933 C936 1.463 1_554 S
C933 C938 1.350 . S
C933 N941 1.427 . S
C934 H925 0.930 . S
C934 C932 1.378 . S
C934 C935 1.367 . S
C935 C934 1.367 . S
C935 C937 1.433 . S
C936 C932 1.350 . S
C936 C933 1.463 1_556 S
C936 N940 1.427 . S
C937 H927 0.929 . S
C937 C935 1.433 . S
C937 N940 1.384 . S
C938 H929 0.929 . S
C938 C930 1.378 . S
C938 C933 1.350 . S
C939 H926 0.929 . S
C939 C931 1.433 . S
C939 N941 1.384 . S
N940 C936 1.427 . S
N940 C937 1.384 . S
N941 C933 1.427 . S
N941 C939 1.384 . S
H942 C948 0.921 1_655 S
H943 C952 0.921 1_455 S
H944 C957 0.929 . S
H945 C955 0.929 . S
H946 C950 0.929 . S
H947 C956 0.929 . S
C948 H942 0.921 1_455 S
C948 C949 1.393 . S
C948 C956 1.363 1_455 S
C949 C948 1.393 . S
C949 C957 1.433 . S
C950 H946 0.929 . S
C950 C952 1.363 1_455 S
C950 C954 1.350 1_455 S
C951 C954 1.463 1_455 S
C951 C956 1.350 1_455 S
C951 N959 1.427 . S
C952 H943 0.921 1_655 S
C952 C950 1.363 1_655 S
C952 C953 1.393 . S
C953 C952 1.393 . S
C953 C955 1.433 . S
C954 C950 1.350 1_655 S
C954 C951 1.463 1_655 S
C954 N958 1.427 . S
C955 H945 0.929 . S
C955 C953 1.433 . S
C955 N958 1.384 . S
C956 H947 0.929 . S
C956 C948 1.363 1_655 S
C956 C951 1.350 1_655 S
C957 H944 0.929 . S
C957 C949 1.433 . S
C957 N959 1.384 . S
N958 C954 1.427 . S
N958 C955 1.384 . S
N959 C951 1.427 . S
N959 C957 1.384 . S
H960 C966 0.930 . S
H961 C970 0.930 . S
H962 C975 0.929 . S
H963 C973 0.929 . S
H964 C968 0.929 . S
H965 C974 0.929 . S
C966 H960 0.930 . S
C966 C967 1.367 . S
C966 C974 1.378 . S
C967 C966 1.367 . S
C967 C975 1.433 . S
C968 H964 0.929 . S
C968 C970 1.378 . S
C968 C972 1.350 . S
C969 C972 1.463 . S
C969 C974 1.350 . S
C969 N977 1.427 . S
C970 H961 0.930 . S
C970 C968 1.378 . S
C970 C971 1.367 . S
C971 C970 1.367 . S
C971 C973 1.433 . S
C972 C968 1.350 . S
C972 C969 1.463 . S
C972 N976 1.427 . S
C973 H963 0.929 . S
C973 C971 1.433 . S
C973 N976 1.384 . S
C974 H965 0.929 . S
C974 C966 1.378 . S
C974 C969 1.350 . S
C975 H962 0.929 . S
C975 C967 1.433 . S
C975 N977 1.384 . S
N976 C972 1.427 . S
N976 C973 1.384 . S
N977 C969 1.427 . S
N977 C975 1.384 . S
H978 C984 0.930 . S
H979 C988 0.930 . S
H980 C993 0.929 . S
H981 C991 0.929 . S
H982 C986 0.929 . S
H983 C992 0.929 . S
C984 H978 0.930 . S
C984 C985 1.367 . S
C984 C992 1.378 . S
C985 C984 1.367 . S
C985 C993 1.433 . S
C986 H982 0.929 . S
C986 C988 1.378 . S
C986 C990 1.350 . S
C987 C990 1.463 . S
C987 C992 1.350 . S
C987 N995 1.427 . S
C988 H979 0.930 . S
C988 C986 1.378 . S
C988 C989 1.367 . S
C989 C988 1.367 . S
C989 C991 1.433 . S
C990 C986 1.350 . S
C990 C987 1.463 . S
C990 N994 1.427 . S
C991 H981 0.929 . S
C991 C989 1.433 . S
C991 N994 1.384 . S
C992 H983 0.929 . S
C992 C984 1.378 . S
C992 C987 1.350 . S
C993 H980 0.929 . S
C993 C985 1.433 . S
C993 N995 1.384 . S
N994 C990 1.427 . S
N994 C991 1.384 . S
N995 C987 1.427 . S
N995 C993 1.384 . S
H996 C1002 0.930 . S
H997 C1006 0.930 . S
H998 C1011 0.929 . S
H999 C1009 0.929 . S
H1000 C1004 0.929 . S
H1001 C1010 0.929 . S
C1002 H996 0.930 . S
C1002 C1003 1.367 . S
C1002 C1010 1.378 . S
C1003 C1002 1.367 . S
C1003 C1011 1.433 . S
C1004 H1000 0.929 . S
C1004 C1006 1.378 . S
C1004 C1008 1.350 . S
C1005 C1008 1.463 . S
C1005 C1010 1.350 . S
C1005 N1013 1.427 . S
C1006 H997 0.930 . S
C1006 C1004 1.378 . S
C1006 C1007 1.367 . S
C1007 C1006 1.367 . S
C1007 C1009 1.433 . S
C1008 C1004 1.350 . S
C1008 C1005 1.463 . S
C1008 N1012 1.427 . S
C1009 H999 0.929 . S
C1009 C1007 1.433 . S
C1009 N1012 1.384 . S
C1010 H1001 0.929 . S
C1010 C1002 1.378 . S
C1010 C1005 1.350 . S
C1011 H998 0.929 . S
C1011 C1003 1.433 . S
C1011 N1013 1.384 . S
N1012 C1008 1.427 . S
N1012 C1009 1.384 . S
N1013 C1005 1.427 . S
N1013 C1011 1.384 . S
H1014 C1020 0.930 . S
H1015 C1024 0.930 . S
H1016 C1029 0.929 . S
H1017 C1027 0.929 . S
H1018 C1022 0.929 . S
H1019 C1028 0.929 . S
C1020 H1014 0.930 . S
C1020 C1021 1.367 . S
C1020 C1028 1.378 . S
C1021 C1020 1.367 . S
C1021 C1029 1.433 . S
C1022 H1018 0.929 . S
C1022 C1024 1.378 . S
C1022 C1026 1.350 . S
C1023 C1026 1.463 . S
C1023 C1028 1.350 . S
C1023 N1031 1.427 . S
C1024 H1015 0.930 . S
C1024 C1022 1.378 . S
C1024 C1025 1.367 . S
C1025 C1024 1.367 . S
C1025 C1027 1.433 . S
C1026 C1022 1.350 . S
C1026 C1023 1.463 . S
C1026 N1030 1.427 . S
C1027 H1017 0.929 . S
C1027 C1025 1.433 . S
C1027 N1030 1.384 . S
C1028 H1019 0.929 . S
C1028 C1020 1.378 . S
C1028 C1023 1.350 . S
C1029 H1016 0.929 . S
C1029 C1021 1.433 . S
C1029 N1031 1.384 . S
N1030 C1026 1.427 . S
N1030 C1027 1.384 . S
N1031 C1023 1.427 . S
N1031 C1029 1.384 . S
H1032 C1038 0.930 . S
H1033 C1042 0.930 . S
H1034 C1047 0.929 . S
H1035 C1045 0.929 . S
H1036 C1040 0.929 . S
H1037 C1046 0.929 . S
C1038 H1032 0.930 . S
C1038 C1039 1.367 . S
C1038 C1046 1.378 . S
C1039 C1038 1.367 . S
C1039 C1047 1.433 . S
C1040 H1036 0.929 . S
C1040 C1042 1.378 . S
C1040 C1044 1.350 . S
C1041 C1044 1.463 . S
C1041 C1046 1.350 . S
C1041 N1049 1.427 . S
C1042 H1033 0.930 . S
C1042 C1040 1.378 . S
C1042 C1043 1.367 . S
C1043 C1042 1.367 . S
C1043 C1045 1.433 . S
C1044 C1040 1.350 . S
C1044 C1041 1.463 . S
C1044 N1048 1.427 . S
C1045 H1035 0.929 . S
C1045 C1043 1.433 . S
C1045 N1048 1.384 . S
C1046 H1037 0.929 . S
C1046 C1038 1.378 . S
C1046 C1041 1.350 . S
C1047 H1034 0.929 . S
C1047 C1039 1.433 . S
C1047 N1049 1.384 . S
N1048 C1044 1.427 . S
N1048 C1045 1.384 . S
N1049 C1041 1.427 . S
N1049 C1047 1.384 . S
H1050 C1056 0.930 . S
H1051 C1060 0.930 . S
H1052 C1065 0.929 . S
H1053 C1063 0.929 . S
H1054 C1058 0.929 . S
H1055 C1064 0.929 . S
C1056 H1050 0.930 . S
C1056 C1057 1.367 . S
C1056 C1064 1.378 . S
C1057 C1056 1.367 . S
C1057 C1065 1.433 . S
C1058 H1054 0.929 . S
C1058 C1060 1.378 . S
C1058 C1062 1.350 . S
C1059 C1062 1.463 . S
C1059 C1064 1.350 . S
C1059 N1067 1.427 . S
C1060 H1051 0.930 . S
C1060 C1058 1.378 . S
C1060 C1061 1.367 . S
C1061 C1060 1.367 . S
C1061 C1063 1.433 . S
C1062 C1058 1.350 . S
C1062 C1059 1.463 . S
C1062 N1066 1.427 . S
C1063 H1053 0.929 . S
C1063 C1061 1.433 . S
C1063 N1066 1.384 . S
C1064 H1055 0.929 . S
C1064 C1056 1.378 . S
C1064 C1059 1.350 . S
C1065 H1052 0.929 . S
C1065 C1057 1.433 . S
C1065 N1067 1.384 . S
N1066 C1062 1.427 . S
N1066 C1063 1.384 . S
N1067 C1059 1.427 . S
N1067 C1065 1.384 . S
H1068 C1074 0.930 . S
H1069 C1078 0.930 . S
H1070 C1083 0.929 . S
H1071 C1081 0.929 . S
H1072 C1076 0.929 . S
H1073 C1082 0.929 . S
C1074 H1068 0.930 . S
C1074 C1075 1.367 . S
C1074 C1082 1.378 . S
C1075 C1074 1.367 . S
C1075 C1083 1.433 . S
C1076 H1072 0.929 . S
C1076 C1078 1.378 . S
C1076 C1080 1.350 . S
C1077 C1080 1.463 . S
C1077 C1082 1.350 . S
C1077 N1085 1.427 . S
C1078 H1069 0.930 . S
C1078 C1076 1.378 . S
C1078 C1079 1.367 . S
C1079 C1078 1.367 . S
C1079 C1081 1.433 . S
C1080 C1076 1.350 . S
C1080 C1077 1.463 . S
C1080 N1084 1.427 . S
C1081 H1071 0.929 . S
C1081 C1079 1.433 . S
C1081 N1084 1.384 . S
C1082 H1073 0.929 . S
C1082 C1074 1.378 . S
C1082 C1077 1.350 . S
C1083 H1070 0.929 . S
C1083 C1075 1.433 . S
C1083 N1085 1.384 . S
N1084 C1080 1.427 . S
N1084 C1081 1.384 . S
N1085 C1077 1.427 . S
N1085 C1083 1.384 . S
H1086 C1092 0.930 . S
H1087 C1096 0.930 . S
H1088 C1101 0.929 . S
H1089 C1099 0.929 . S
H1090 C1094 0.929 . S
H1091 C1100 0.929 . S
C1092 H1086 0.930 . S
C1092 C1093 1.367 . S
C1092 C1100 1.378 . S
C1093 C1092 1.367 . S
C1093 C1101 1.433 . S
C1094 H1090 0.929 . S
C1094 C1096 1.378 . S
C1094 C1098 1.350 . S
C1095 C1098 1.463 . S
C1095 C1100 1.350 . S
C1095 N1103 1.427 . S
C1096 H1087 0.930 . S
C1096 C1094 1.378 . S
C1096 C1097 1.367 . S
C1097 C1096 1.367 . S
C1097 C1099 1.433 . S
C1098 C1094 1.350 . S
C1098 C1095 1.463 . S
C1098 N1102 1.427 . S
C1099 H1089 0.929 . S
C1099 C1097 1.433 . S
C1099 N1102 1.384 . S
C1100 H1091 0.929 . S
C1100 C1092 1.378 . S
C1100 C1095 1.350 . S
C1101 H1088 0.929 . S
C1101 C1093 1.433 . S
C1101 N1103 1.384 . S
N1102 C1098 1.427 . S
N1102 C1099 1.384 . S
N1103 C1095 1.427 . S
N1103 C1101 1.384 . S
H1104 C1110 0.930 . S
H1105 C1114 0.930 . S
H1106 C1119 0.929 . S
H1107 C1117 0.929 . S
H1108 C1112 0.929 . S
H1109 C1118 0.929 . S
C1110 H1104 0.930 . S
C1110 C1111 1.367 . S
C1110 C1118 1.378 . S
C1111 C1110 1.367 . S
C1111 C1119 1.433 . S
C1112 H1108 0.929 . S
C1112 C1114 1.378 . S
C1112 C1116 1.350 . S
C1113 C1116 1.463 . S
C1113 C1118 1.350 . S
C1113 N1121 1.427 . S
C1114 H1105 0.930 . S
C1114 C1112 1.378 . S
C1114 C1115 1.367 . S
C1115 C1114 1.367 . S
C1115 C1117 1.433 . S
C1116 C1112 1.350 . S
C1116 C1113 1.463 . S
C1116 N1120 1.427 . S
C1117 H1107 0.929 . S
C1117 C1115 1.433 . S
C1117 N1120 1.384 . S
C1118 H1109 0.929 . S
C1118 C1110 1.378 . S
C1118 C1113 1.350 . S
C1119 H1106 0.929 . S
C1119 C1111 1.433 . S
C1119 N1121 1.384 . S
N1120 C1116 1.427 . S
N1120 C1117 1.384 . S
N1121 C1113 1.427 . S
N1121 C1119 1.384 . S
H1122 C1128 0.930 . S
H1123 C1132 0.930 . S
H1124 C1137 0.929 . S
H1125 C1135 0.929 . S
H1126 C1130 0.929 . S
H1127 C1136 0.929 . S
C1128 H1122 0.930 . S
C1128 C1129 1.367 . S
C1128 C1136 1.378 . S
C1129 C1128 1.367 . S
C1129 C1137 1.433 . S
C1130 H1126 0.929 . S
C1130 C1132 1.378 . S
C1130 C1134 1.350 . S
C1131 C1134 1.463 . S
C1131 C1136 1.350 . S
C1131 N1139 1.427 . S
C1132 H1123 0.930 . S
C1132 C1130 1.378 . S
C1132 C1133 1.367 . S
C1133 C1132 1.367 . S
C1133 C1135 1.433 . S
C1134 C1130 1.350 . S
C1134 C1131 1.463 . S
C1134 N1138 1.427 . S
C1135 H1125 0.929 . S
C1135 C1133 1.433 . S
C1135 N1138 1.384 . S
C1136 H1127 0.929 . S
C1136 C1128 1.378 . S
C1136 C1131 1.350 . S
C1137 H1124 0.929 . S
C1137 C1129 1.433 . S
C1137 N1139 1.384 . S
N1138 C1134 1.427 . S
N1138 C1135 1.384 . S
N1139 C1131 1.427 . S
N1139 C1137 1.384 . S
H1140 C1146 0.930 . S
H1141 C1150 0.930 . S
H1142 C1155 0.929 . S
H1143 C1153 0.929 . S
H1144 C1148 0.929 . S
H1145 C1154 0.929 . S
C1146 H1140 0.930 . S
C1146 C1147 1.367 . S
C1146 C1154 1.378 . S
C1147 C1146 1.367 . S
C1147 C1155 1.433 . S
C1148 H1144 0.929 . S
C1148 C1150 1.378 . S
C1148 C1152 1.350 . S
C1149 C1152 1.463 . S
C1149 C1154 1.350 . S
C1149 N1157 1.427 . S
C1150 H1141 0.930 . S
C1150 C1148 1.378 . S
C1150 C1151 1.367 . S
C1151 C1150 1.367 . S
C1151 C1153 1.433 . S
C1152 C1148 1.350 . S
C1152 C1149 1.463 . S
C1152 N1156 1.427 . S
C1153 H1143 0.929 . S
C1153 C1151 1.433 . S
C1153 N1156 1.384 . S
C1154 H1145 0.929 . S
C1154 C1146 1.378 . S
C1154 C1149 1.350 . S
C1155 H1142 0.929 . S
C1155 C1147 1.433 . S
C1155 N1157 1.384 . S
N1156 C1152 1.427 . S
N1156 C1153 1.384 . S
N1157 C1149 1.427 . S
N1157 C1155 1.384 . S
H1158 C1164 0.930 . S
H1159 C1168 0.930 . S
H1160 C1173 0.929 . S
H1161 C1171 0.929 . S
H1162 C1166 0.929 . S
H1163 C1172 0.929 . S
C1164 H1158 0.930 . S
C1164 C1165 1.367 . S
C1164 C1172 1.378 . S
C1165 C1164 1.367 . S
C1165 C1173 1.433 . S
C1166 H1162 0.929 . S
C1166 C1168 1.378 . S
C1166 C1170 1.350 . S
C1167 C1170 1.463 . S
C1167 C1172 1.350 . S
C1167 N1175 1.427 . S
C1168 H1159 0.930 . S
C1168 C1166 1.378 . S
C1168 C1169 1.367 . S
C1169 C1168 1.367 . S
C1169 C1171 1.433 . S
C1170 C1166 1.350 . S
C1170 C1167 1.463 . S
C1170 N1174 1.427 . S
C1171 H1161 0.929 . S
C1171 C1169 1.433 . S
C1171 N1174 1.384 . S
C1172 H1163 0.929 . S
C1172 C1164 1.378 . S
C1172 C1167 1.350 . S
C1173 H1160 0.929 . S
C1173 C1165 1.433 . S
C1173 N1175 1.384 . S
N1174 C1170 1.427 . S
N1174 C1171 1.384 . S
N1175 C1167 1.427 . S
N1175 C1173 1.384 . S
C319 C199 1.392 . S
C323 C10 1.398 . S
C337 C17 1.391 . S
C341 C212 1.398 . S
C355 C36 1.392 . S
C359 C231 1.398 . S
C373 C43 1.396 . S
C377 C166 1.394 . S
C391 C179 1.395 . S
C395 C62 1.394 . S
C409 C75 1.398 . S
C413 C186 1.392 . S
C427 C277 1.391 . S
C431 C88 1.398 . S
C445 C95 1.393 . S
C449 C296 1.397 . S
C463 C108 1.398 . S
C467 C309 1.392 . S
C481 C238 1.392 . S
C485 C121 1.397 . S
C499 C134 1.398 . S
C503 C257 1.392 . S
C517 C270 1.394 . S
C521 C153 1.396 . S
C535 C4 1.688 . S
C539 C303 1.684 . S
C553 C244 1.684 . S
C557 C23 1.687 . S
C571 C30 1.684 . S
C575 C251 1.688 . S
C589 C264 1.688 . S
C593 C49 1.684 . S
C607 C56 1.685 . S
C611 C283 1.687 . S
C625 C290 1.686 . S
C629 C69 1.685 . S
C643 C82 1.683 . S
C647 C173 1.688 . S
C661 C192 1.684 . S
C665 C101 1.688 . S
C679 C205 1.686 . S
C683 C114 1.685 . S
C697 C218 1.685 . S
C701 C127 1.687 . S
C715 C140 1.687 . S
C719 C225 1.684 . S
C733 C147 1.688 . S
C737 C160 1.683 . S
C751 C96 1.281 . S
C755 C3 1.281 . S
C769 C109 1.286 . S
C773 C18 1.289 . S
C787 C122 1.282 . S
C791 C29 1.287 . S
C805 C135 1.281 . S
C809 C44 1.282 . S
C823 C55 1.288 . S
C827 C146 1.283 . S
C841 C68 1.288 . S
C845 C81 1.288 . S
C859 C159 1.287 . S
C863 C250 1.289 . S
C877 C172 1.287 . S
C881 C263 1.289 . S
C895 C278 1.280 . S
C899 C187 1.283 . S
C913 C289 1.285 . S
C917 C200 1.281 . S
C931 C302 1.282 . S
C935 C213 1.287 . S
C949 C239 1.289 . S
C953 C224 1.287 . S
C967 C5 1.731 . S
C971 C252 1.729 . S
C985 C265 1.731 . S
C989 C16 1.729 . S
C1003 C31 1.730 . S
C1007 C276 1.730 . S
C1021 C291 1.732 . S
C1025 C42 1.728 . S
C1039 C57 1.728 . S
C1043 C304 1.732 . S
C1057 C237 1.729 . S
C1061 C70 1.731 . S
C1075 C83 1.731 . S
C1079 C226 1.728 . S
C1093 C161 1.730 . S
C1097 C94 1.730 . S
C1111 C107 1.731 . S
C1115 C174 1.729 . S
C1129 C120 1.729 . S
C1133 C185 1.731 . S
C1147 C133 1.729 . S
C1151 C198 1.731 . S
C1165 C148 1.731 . S
C1169 C211 1.729 . S
