# Generated by pormake.
# Topology umu, (4)-cn, num edge types: 1
# Building blocks:
#     Node 0, Type 0, BuildingBlock: NAHDIM_clean_sbu_0, # of connection points: 4
#     Node 1, Type 0, BuildingBlock: NAHDIM_clean_sbu_0, # of connection points: 4
#     Node 2, Type 0, BuildingBlock: NAHDIM_clean_sbu_0, # of connection points: 4
#     Node 3, Type 0, BuildingBlock: NAHDIM_clean_sbu_0, # of connection points: 4
#     Node 4, Type 0, BuildingBlock: NAHDIM_clean_sbu_0, # of connection points: 4
#     Node 5, Type 0, BuildingBlock: NAHDIM_clean_sbu_0, # of connection points: 4
#     Node 6, Type 0, BuildingBlock: NAHDIM_clean_sbu_0, # of connection points: 4
#     Node 7, Type 0, BuildingBlock: NAHDIM_clean_sbu_0, # of connection points: 4
#     Node 8, Type 0, BuildingBlock: NAHDIM_clean_sbu_0, # of connection points: 4
#     Node 9, Type 0, BuildingBlock: NAHDIM_clean_sbu_0, # of connection points: 4
#     Node 10, Type 0, BuildingBlock: NAHDIM_clean_sbu_0, # of connection points: 4
#     Node 11, Type 0, BuildingBlock: NAHDIM_clean_sbu_0, # of connection points: 4
#     Node 12, Type 0, BuildingBlock: NAHDIM_clean_sbu_0, # of connection points: 4
#     Node 13, Type 0, BuildingBlock: NAHDIM_clean_sbu_0, # of connection points: 4
#     Node 14, Type 0, BuildingBlock: NAHDIM_clean_sbu_0, # of connection points: 4
#     Node 15, Type 0, BuildingBlock: NAHDIM_clean_sbu_0, # of connection points: 4
#     Node 16, Type 0, BuildingBlock: NAHDIM_clean_sbu_0, # of connection points: 4
#     Node 17, Type 0, BuildingBlock: NAHDIM_clean_sbu_0, # of connection points: 4
#     Node 18, Type 0, BuildingBlock: NAHDIM_clean_sbu_0, # of connection points: 4
#     Node 19, Type 0, BuildingBlock: NAHDIM_clean_sbu_0, # of connection points: 4
#     Node 20, Type 0, BuildingBlock: NAHDIM_clean_sbu_0, # of connection points: 4
#     Node 21, Type 0, BuildingBlock: NAHDIM_clean_sbu_0, # of connection points: 4
#     Node 22, Type 0, BuildingBlock: NAHDIM_clean_sbu_0, # of connection points: 4
#     Node 23, Type 0, BuildingBlock: NAHDIM_clean_sbu_0, # of connection points: 4
#     Node 24, Type 0, BuildingBlock: NAHDIM_clean_sbu_0, # of connection points: 4
#     Node 25, Type 0, BuildingBlock: NAHDIM_clean_sbu_0, # of connection points: 4
#     Node 26, Type 0, BuildingBlock: NAHDIM_clean_sbu_0, # of connection points: 4
#     Node 27, Type 0, BuildingBlock: NAHDIM_clean_sbu_0, # of connection points: 4
#     Node 28, Type 0, BuildingBlock: NAHDIM_clean_sbu_0, # of connection points: 4
#     Node 29, Type 0, BuildingBlock: NAHDIM_clean_sbu_0, # of connection points: 4
#     Node 30, Type 0, BuildingBlock: NAHDIM_clean_sbu_0, # of connection points: 4
#     Node 31, Type 0, BuildingBlock: NAHDIM_clean_sbu_0, # of connection points: 4
#     Edge 32, Type (0, 0), BuildingBlock: MIFKUJ_clean_linker_0, # of connection points: 2
#     Edge 33, Type (0, 0), BuildingBlock: MIFKUJ_clean_linker_0, # of connection points: 2
#     Edge 34, Type (0, 0), BuildingBlock: MIFKUJ_clean_linker_0, # of connection points: 2
#     Edge 35, Type (0, 0), BuildingBlock: MIFKUJ_clean_linker_0, # of connection points: 2
#     Edge 36, Type (0, 0), BuildingBlock: MIFKUJ_clean_linker_0, # of connection points: 2
#     Edge 37, Type (0, 0), BuildingBlock: MIFKUJ_clean_linker_0, # of connection points: 2
#     Edge 38, Type (0, 0), BuildingBlock: MIFKUJ_clean_linker_0, # of connection points: 2
#     Edge 39, Type (0, 0), BuildingBlock: MIFKUJ_clean_linker_0, # of connection points: 2
#     Edge 40, Type (0, 0), BuildingBlock: MIFKUJ_clean_linker_0, # of connection points: 2
#     Edge 41, Type (0, 0), BuildingBlock: MIFKUJ_clean_linker_0, # of connection points: 2
#     Edge 42, Type (0, 0), BuildingBlock: MIFKUJ_clean_linker_0, # of connection points: 2
#     Edge 43, Type (0, 0), BuildingBlock: MIFKUJ_clean_linker_0, # of connection points: 2
#     Edge 44, Type (0, 0), BuildingBlock: MIFKUJ_clean_linker_0, # of connection points: 2
#     Edge 45, Type (0, 0), BuildingBlock: MIFKUJ_clean_linker_0, # of connection points: 2
#     Edge 46, Type (0, 0), BuildingBlock: MIFKUJ_clean_linker_0, # of connection points: 2
#     Edge 47, Type (0, 0), BuildingBlock: MIFKUJ_clean_linker_0, # of connection points: 2
#     Edge 48, Type (0, 0), BuildingBlock: MIFKUJ_clean_linker_0, # of connection points: 2
#     Edge 49, Type (0, 0), BuildingBlock: MIFKUJ_clean_linker_0, # of connection points: 2
#     Edge 50, Type (0, 0), BuildingBlock: MIFKUJ_clean_linker_0, # of connection points: 2
#     Edge 51, Type (0, 0), BuildingBlock: MIFKUJ_clean_linker_0, # of connection points: 2
#     Edge 52, Type (0, 0), BuildingBlock: MIFKUJ_clean_linker_0, # of connection points: 2
#     Edge 53, Type (0, 0), BuildingBlock: MIFKUJ_clean_linker_0, # of connection points: 2
#     Edge 54, Type (0, 0), BuildingBlock: MIFKUJ_clean_linker_0, # of connection points: 2
#     Edge 55, Type (0, 0), BuildingBlock: MIFKUJ_clean_linker_0, # of connection points: 2
#     Edge 56, Type (0, 0), BuildingBlock: MIFKUJ_clean_linker_0, # of connection points: 2
#     Edge 57, Type (0, 0), BuildingBlock: MIFKUJ_clean_linker_0, # of connection points: 2
#     Edge 58, Type (0, 0), BuildingBlock: MIFKUJ_clean_linker_0, # of connection points: 2
#     Edge 59, Type (0, 0), BuildingBlock: MIFKUJ_clean_linker_0, # of connection points: 2
#     Edge 60, Type (0, 0), BuildingBlock: MIFKUJ_clean_linker_0, # of connection points: 2
#     Edge 61, Type (0, 0), BuildingBlock: MIFKUJ_clean_linker_0, # of connection points: 2
#     Edge 62, Type (0, 0), BuildingBlock: MIFKUJ_clean_linker_0, # of connection points: 2
#     Edge 63, Type (0, 0), BuildingBlock: MIFKUJ_clean_linker_0, # of connection points: 2
#     Edge 64, Type (0, 0), BuildingBlock: MIFKUJ_clean_linker_0, # of connection points: 2
#     Edge 65, Type (0, 0), BuildingBlock: MIFKUJ_clean_linker_0, # of connection points: 2
#     Edge 66, Type (0, 0), BuildingBlock: MIFKUJ_clean_linker_0, # of connection points: 2
#     Edge 67, Type (0, 0), BuildingBlock: MIFKUJ_clean_linker_0, # of connection points: 2
#     Edge 68, Type (0, 0), BuildingBlock: MIFKUJ_clean_linker_0, # of connection points: 2
#     Edge 69, Type (0, 0), BuildingBlock: MIFKUJ_clean_linker_0, # of connection points: 2
#     Edge 70, Type (0, 0), BuildingBlock: MIFKUJ_clean_linker_0, # of connection points: 2
#     Edge 71, Type (0, 0), BuildingBlock: MIFKUJ_clean_linker_0, # of connection points: 2
#     Edge 72, Type (0, 0), BuildingBlock: MIFKUJ_clean_linker_0, # of connection points: 2
#     Edge 73, Type (0, 0), BuildingBlock: MIFKUJ_clean_linker_0, # of connection points: 2
#     Edge 74, Type (0, 0), BuildingBlock: MIFKUJ_clean_linker_0, # of connection points: 2
#     Edge 75, Type (0, 0), BuildingBlock: MIFKUJ_clean_linker_0, # of connection points: 2
#     Edge 76, Type (0, 0), BuildingBlock: MIFKUJ_clean_linker_0, # of connection points: 2
#     Edge 77, Type (0, 0), BuildingBlock: MIFKUJ_clean_linker_0, # of connection points: 2
#     Edge 78, Type (0, 0), BuildingBlock: MIFKUJ_clean_linker_0, # of connection points: 2
#     Edge 79, Type (0, 0), BuildingBlock: MIFKUJ_clean_linker_0, # of connection points: 2
#     Edge 80, Type (0, 0), BuildingBlock: MIFKUJ_clean_linker_0, # of connection points: 2
#     Edge 81, Type (0, 0), BuildingBlock: MIFKUJ_clean_linker_0, # of connection points: 2
#     Edge 82, Type (0, 0), BuildingBlock: MIFKUJ_clean_linker_0, # of connection points: 2
#     Edge 83, Type (0, 0), BuildingBlock: MIFKUJ_clean_linker_0, # of connection points: 2
#     Edge 84, Type (0, 0), BuildingBlock: MIFKUJ_clean_linker_0, # of connection points: 2
#     Edge 85, Type (0, 0), BuildingBlock: MIFKUJ_clean_linker_0, # of connection points: 2
#     Edge 86, Type (0, 0), BuildingBlock: MIFKUJ_clean_linker_0, # of connection points: 2
#     Edge 87, Type (0, 0), BuildingBlock: MIFKUJ_clean_linker_0, # of connection points: 2
#     Edge 88, Type (0, 0), BuildingBlock: MIFKUJ_clean_linker_0, # of connection points: 2
#     Edge 89, Type (0, 0), BuildingBlock: MIFKUJ_clean_linker_0, # of connection points: 2
#     Edge 90, Type (0, 0), BuildingBlock: MIFKUJ_clean_linker_0, # of connection points: 2
#     Edge 91, Type (0, 0), BuildingBlock: MIFKUJ_clean_linker_0, # of connection points: 2
#     Edge 92, Type (0, 0), BuildingBlock: MIFKUJ_clean_linker_0, # of connection points: 2
#     Edge 93, Type (0, 0), BuildingBlock: MIFKUJ_clean_linker_0, # of connection points: 2
#     Edge 94, Type (0, 0), BuildingBlock: MIFKUJ_clean_linker_0, # of connection points: 2
#     Edge 95, Type (0, 0), BuildingBlock: MIFKUJ_clean_linker_0, # of connection points: 2
# Relax obj value: 0.144
# Max RMSD: 0.102
# Mean RMSD: 0.102
data_MOF--net-umu--node1-NAHDIM_clean_sbu_0--edge1-MIFKUJ_clean_linker_0
_symmetry_space_group_name_H-M    P1
_symmetry_Int_Tables_number       1
_symmetry_cell_setting            triclinic
loop_
_symmetry_equiv_pos_as_xyz
'x, y, z'
_cell_length_a     112.78867
_cell_length_b     112.79903
_cell_length_c     30.546365
_cell_angle_alpha  90.015535
_cell_angle_beta   90.024031
_cell_angle_gamma 90.010306
loop_
_atom_site_label
_atom_site_type_symbol
_atom_site_fract_x
_atom_site_fract_y
_atom_site_fract_z
_atom_type_partial_charge
C0 C 0.18489 0.14566 0.01213 0.0
O1 O 0.19623 0.14356 0.00604 0.0
O2 O 0.20595 0.16092 0.08839 0.0
Zn3 Zn 0.19498 0.16694 0.04129 0.0
O4 O 0.20407 0.16867 0.98512 0.0
C5 C 0.19486 0.18959 0.08303 0.0
O6 O 0.20483 0.18542 0.09908 0.0
O7 O 0.18179 0.15546 0.02922 0.0
C8 C 0.21522 0.17019 0.98371 0.0
O9 O 0.22124 0.17086 0.02045 0.0
C10 C 0.20416 0.15226 0.11415 0.0
O11 O 0.19429 0.14613 0.11105 0.0
O12 O 0.18872 0.18306 0.05774 0.0
C13 C 0.10518 0.9275 0.30873 0.0
O14 O 0.10864 0.93506 0.33886 0.0
O15 O 0.09094 0.953 0.35167 0.0
Zn16 Zn 0.08503 0.94338 0.3005 0.0
O17 O 0.08502 0.95314 0.24549 0.0
C18 C 0.06174 0.94455 0.33761 0.0
O19 O 0.06643 0.9537 0.35781 0.0
O20 O 0.09531 0.92912 0.28955 0.0
C21 C 0.08173 0.9639 0.24433 0.0
O22 O 0.07838 0.96915 0.28069 0.0
C23 C 0.09901 0.96085 0.34977 0.0
O24 O 0.10445 0.96281 0.31244 0.0
O25 O 0.06815 0.93846 0.31179 0.0
C26 C 0.31248 0.8571 0.53118 0.0
O27 O 0.30118 0.85994 0.53167 0.0
O28 O 0.29217 0.84226 0.60567 0.0
Zn29 Zn 0.30254 0.83539 0.55811 0.0
O30 O 0.29305 0.83261 0.50325 0.0
C31 C 0.30485 0.81411 0.60962 0.0
O32 O 0.29622 0.81901 0.63211 0.0
O33 O 0.31553 0.84674 0.54288 0.0
C34 C 0.28711 0.82318 0.49693 0.0
O35 O 0.28699 0.81494 0.5273 0.0
C36 C 0.2812 0.8444 0.60012 0.0
O37 O 0.27641 0.8426 0.56149 0.0
O38 O 0.30928 0.81971 0.57742 0.0
C39 C 0.39222 0.06487 0.77264 0.0
O40 O 0.38839 0.05407 0.78034 0.0
O41 O 0.40635 0.04458 0.84592 0.0
Zn42 Zn 0.41367 0.05374 0.79591 0.0
O43 O 0.4154 0.04337 0.7427 0.0
C44 C 0.43564 0.05464 0.84338 0.0
O45 O 0.43074 0.04579 0.86464 0.0
O46 O 0.40312 0.0672 0.77861 0.0
C47 C 0.42418 0.03651 0.73648 0.0
O48 O 0.4326 0.03592 0.76611 0.0
C49 C 0.40376 0.03364 0.84297 0.0
O50 O 0.40549 0.02808 0.80574 0.0
O51 O 0.42983 0.05973 0.81307 0.0
C52 C 0.18945 0.85075 0.10221 0.0
O53 O 0.20079 0.85234 0.11015 0.0
O54 O 0.2059 0.84068 0.99555 0.0
Zn55 Zn 0.19913 0.8327 0.04878 0.0
O56 O 0.21184 0.8301 0.09408 0.0
C57 C 0.19843 0.81068 0.00313 0.0
O58 O 0.20776 0.81537 0.98409 0.0
O59 O 0.18632 0.84271 0.07545 0.0
C60 C 0.2105 0.82211 0.12298 0.0
O61 O 0.20093 0.81547 0.12204 0.0
C62 C 0.21592 0.84582 0.99591 0.0
O63 O 0.22188 0.84652 0.03279 0.0
O64 O 0.19284 0.8167 0.03159 0.0
C65 C 0.39152 0.93826 0.31805 0.0
O66 O 0.38805 0.94932 0.31388 0.0
O67 O 0.40539 0.95652 0.23175 0.0
Zn68 Zn 0.41243 0.9486 0.28489 0.0
O69 O 0.41407 0.96042 0.33376 0.0
C70 C 0.43532 0.94918 0.24688 0.0
O71 O 0.43106 0.95925 0.23208 0.0
O72 O 0.40195 0.93547 0.30628 0.0
C73 C 0.42164 0.9588 0.36399 0.0
O74 O 0.42846 0.94937 0.36267 0.0
C75 C 0.40009 0.96644 0.23441 0.0
O76 O 0.39868 0.97139 0.27298 0.0
O77 O 0.42871 0.94259 0.27016 0.0
C78 C 0.31034 0.14458 0.56741 0.0
O79 O 0.2992 0.14324 0.57884 0.0
O80 O 0.2914 0.15872 0.47247 0.0
Zn81 Zn 0.30024 0.1646 0.52565 0.0
O82 O 0.2893 0.16638 0.57714 0.0
C83 C 0.30083 0.18768 0.48895 0.0
O84 O 0.29072 0.18388 0.47281 0.0
O85 O 0.31319 0.15328 0.54315 0.0
C86 C 0.27817 0.16805 0.57517 0.0
O87 O 0.27296 0.16874 0.5368 0.0
C88 C 0.28494 0.1495 0.47091 0.0
O89 O 0.28392 0.14279 0.50579 0.0
O90 O 0.30695 0.18075 0.51273 0.0
C91 C 0.10623 0.06223 0.81007 0.0
O92 O 0.11064 0.05162 0.80315 0.0
O93 O 0.09231 0.04189 0.73265 0.0
Zn94 Zn 0.0855 0.04977 0.78644 0.0
O95 O 0.08531 0.03882 0.83846 0.0
C96 C 0.06255 0.04784 0.74866 0.0
O97 O 0.06769 0.03865 0.73029 0.0
O98 O 0.09524 0.06395 0.80352 0.0
C99 C 0.0815 0.02822 0.83817 0.0
O100 O 0.07765 0.02357 0.80139 0.0
C101 C 0.09913 0.03291 0.73248 0.0
O102 O 0.1027 0.02838 0.76983 0.0
O103 O 0.06859 0.05443 0.77403 0.0
C104 C 0.81505 0.8544 0.04845 0.0
O105 O 0.80559 0.85873 0.02915 0.0
O106 O 0.79336 0.83662 0.98867 0.0
Zn107 Zn 0.80162 0.83268 0.04531 0.0
O108 O 0.79008 0.83405 0.09506 0.0
C109 C 0.81138 0.81101 0.00915 0.0
O110 O 0.81303 0.81748 0.97392 0.0
O111 O 0.81546 0.84341 0.05729 0.0
C112 C 0.78062 0.82795 0.09444 0.0
O113 O 0.77852 0.82098 0.06082 0.0
C114 C 0.78455 0.84364 0.9872 0.0
O115 O 0.78106 0.84895 0.02322 0.0
O116 O 0.80696 0.81577 0.04312 0.0
C117 C 0.89203 0.06595 0.79857 0.0
O118 O 0.88745 0.05545 0.79062 0.0
O119 O 0.9055 0.04341 0.733 0.0
Zn120 Zn 0.91272 0.05275 0.78276 0.0
O121 O 0.91288 0.04307 0.8378 0.0
C122 C 0.93587 0.04835 0.75248 0.0
O123 O 0.93086 0.03801 0.74533 0.0
O124 O 0.90318 0.0673 0.79544 0.0
C125 C 0.91845 0.04685 0.87115 0.0
O126 O 0.92404 0.05705 0.86881 0.0
C127 C 0.9025 0.03263 0.73789 0.0
O128 O 0.90374 0.02762 0.77643 0.0
O129 O 0.92963 0.05671 0.76818 0.0
C130 C 0.68851 0.14219 0.57813 0.0
O131 O 0.6995 0.14161 0.59215 0.0
O132 O 0.7073 0.15856 0.48477 0.0
Zn133 Zn 0.69781 0.16292 0.53811 0.0
O134 O 0.70847 0.1646 0.59083 0.0
C135 C 0.69686 0.1877 0.53096 0.0
O136 O 0.70818 0.186 0.53901 0.0
O137 O 0.68553 0.15059 0.55262 0.0
C138 C 0.71973 0.16468 0.59019 0.0
O139 O 0.72533 0.16372 0.55265 0.0
C140 C 0.7123 0.1486 0.47863 0.0
O141 O 0.7111 0.14019 0.50801 0.0
O142 O 0.69007 0.17876 0.52782 0.0
C143 C 0.60311 0.93622 0.32071 0.0
O144 O 0.60553 0.94752 0.32586 0.0
O145 O 0.59104 0.95332 0.22037 0.0
Zn146 Zn 0.58396 0.94657 0.27544 0.0
O147 O 0.5831 0.95912 0.32203 0.0
C148 C 0.56113 0.94649 0.23514 0.0
O149 O 0.56601 0.95513 0.21266 0.0
O150 O 0.59402 0.93327 0.29865 0.0
C151 C 0.57929 0.96959 0.31599 0.0
O152 O 0.57559 0.97276 0.27692 0.0
C153 C 0.59881 0.96148 0.22063 0.0
O154 O 0.60288 0.9654 0.25823 0.0
O155 O 0.5673 0.94106 0.26364 0.0
C156 C 0.8141 0.14629 0.01871 0.0
O157 O 0.80271 0.1443 0.01331 0.0
O158 O 0.79412 0.16143 0.10204 0.0
Zn159 Zn 0.80426 0.16715 0.05214 0.0
O160 O 0.7943 0.16863 0.99786 0.0
C161 C 0.80339 0.19024 0.08673 0.0
O162 O 0.79278 0.18632 0.09698 0.0
O163 O 0.81735 0.15579 0.0376 0.0
C164 C 0.78307 0.16945 0.99805 0.0
O165 O 0.77739 0.16961 0.03558 0.0
C166 C 0.79498 0.15198 0.12443 0.0
O167 O 0.80342 0.14432 0.11562 0.0
O168 O 0.81051 0.18336 0.06689 0.0
C169 C 0.60518 0.06174 0.77153 0.0
O170 O 0.6092 0.05138 0.78433 0.0
O171 O 0.5903 0.04028 0.83446 0.0
Zn172 Zn 0.58332 0.04992 0.78515 0.0
O173 O 0.58201 0.03998 0.73094 0.0
C174 C 0.56064 0.04989 0.82763 0.0
O175 O 0.56493 0.04015 0.84505 0.0
O176 O 0.59406 0.0635 0.77054 0.0
C177 C 0.57859 0.04467 0.6953 0.0
O178 O 0.57576 0.05597 0.69485 0.0
C179 C 0.59014 0.02901 0.83326 0.0
O180 O 0.58538 0.02366 0.79934 0.0
O181 O 0.56704 0.0558 0.80125 0.0
C182 C 0.68122 0.85484 0.53613 0.0
O183 O 0.69162 0.85913 0.54721 0.0
O184 O 0.70234 0.83951 0.60435 0.0
Zn185 Zn 0.69382 0.83365 0.55067 0.0
O186 O 0.70473 0.83412 0.49887 0.0
C187 C 0.69804 0.81007 0.57177 0.0
O188 O 0.70868 0.81475 0.57452 0.0
O189 O 0.67967 0.84369 0.53665 0.0
C190 C 0.70153 0.82935 0.46312 0.0
O191 O 0.6911 0.82419 0.46091 0.0
C192 C 0.7122 0.84492 0.60207 0.0
O193 O 0.71666 0.84745 0.56346 0.0
O194 O 0.68938 0.8167 0.56134 0.0
C195 C 0.89353 0.93847 0.24719 0.0
O196 O 0.89104 0.94976 0.24199 0.0
O197 O 0.90632 0.9559 0.34549 0.0
Zn198 Zn 0.91315 0.94877 0.29056 0.0
O199 O 0.9141 0.9611 0.24327 0.0
C200 C 0.9358 0.94716 0.33318 0.0
O201 O 0.93101 0.95523 0.35865 0.0
O202 O 0.90276 0.9356 0.26858 0.0
C203 C 0.92045 0.97038 0.24605 0.0
O204 O 0.92681 0.9722 0.28146 0.0
C205 C 0.90013 0.96532 0.34519 0.0
O206 O 0.89753 0.97035 0.30763 0.0
O207 O 0.92969 0.9428 0.30211 0.0
C208 C 0.68235 0.64063 0.54185 0.0
O209 O 0.69341 0.63703 0.54433 0.0
O210 O 0.70106 0.65408 0.63063 0.0
Zn211 Zn 0.69345 0.6608 0.57651 0.0
O212 O 0.70539 0.66136 0.52768 0.0
C213 C 0.69699 0.68414 0.60338 0.0
O214 O 0.70754 0.67945 0.6092 0.0
O215 O 0.67976 0.65092 0.55584 0.0
C216 C 0.70418 0.66885 0.49695 0.0
O217 O 0.69512 0.67616 0.49768 0.0
C218 C 0.71056 0.64804 0.62928 0.0
O219 O 0.7152 0.64534 0.59112 0.0
O220 O 0.68863 0.67756 0.58961 0.0
C221 C 0.60496 0.43894 0.74749 0.0
O222 O 0.60785 0.45021 0.74531 0.0
O223 O 0.59123 0.45792 0.83422 0.0
Zn224 Zn 0.58417 0.44919 0.78283 0.0
O225 O 0.58191 0.46028 0.73199 0.0
C226 C 0.56224 0.44741 0.83004 0.0
O227 O 0.56691 0.45627 0.85199 0.0
O228 O 0.59498 0.43609 0.7636 0.0
C229 C 0.57559 0.46957 0.73488 0.0
O230 O 0.57042 0.47212 0.77226 0.0
C231 C 0.59696 0.46757 0.8306 0.0
O232 O 0.59894 0.47199 0.7915 0.0
O233 O 0.56816 0.44266 0.79929 0.0
C234 C 0.81374 0.35917 0.03074 0.0
O235 O 0.8026 0.36236 0.0349 0.0
O236 O 0.79546 0.34459 0.11613 0.0
Zn237 Zn 0.80402 0.33797 0.06376 0.0
O238 O 0.79258 0.33602 0.01381 0.0
C239 C 0.80366 0.31497 0.09968 0.0
O240 O 0.79308 0.31878 0.111 0.0
O241 O 0.81684 0.34887 0.04309 0.0
C242 C 0.79332 0.32746 0.98693 0.0
O243 O 0.80169 0.31948 0.99208 0.0
C244 C 0.78533 0.34945 0.11269 0.0
O245 O 0.78064 0.35086 0.07367 0.0
O246 O 0.81055 0.32194 0.0792 0.0
C247 C 0.90002 0.55934 0.20935 0.0
O248 O 0.90642 0.55236 0.18431 0.0
O249 O 0.90534 0.53962 0.33364 0.0
Zn250 Zn 0.91081 0.54513 0.27461 0.0
O251 O 0.91072 0.53129 0.23324 0.0
C252 C 0.93211 0.55506 0.31362 0.0
O253 O 0.92563 0.55565 0.3493 0.0
O254 O 0.90036 0.55795 0.25062 0.0
C255 C 0.91902 0.52369 0.2339 0.0
O256 O 0.92756 0.52478 0.2629 0.0
C257 C 0.89724 0.53185 0.33694 0.0
O258 O 0.89204 0.52793 0.30126 0.0
O259 O 0.92752 0.55112 0.27854 0.0
C260 C 0.68609 0.3536 0.57038 0.0
O261 O 0.69701 0.35716 0.56328 0.0
O262 O 0.70595 0.33696 0.50104 0.0
Zn263 Zn 0.69731 0.33169 0.55558 0.0
O264 O 0.70824 0.33219 0.60783 0.0
C265 C 0.68339 0.31097 0.52481 0.0
O266 O 0.67727 0.3183 0.50021 0.0
O267 O 0.68374 0.34261 0.56783 0.0
C268 C 0.71418 0.32308 0.61876 0.0
O269 O 0.71322 0.31336 0.5953 0.0
C270 C 0.71721 0.3374 0.50001 0.0
O271 O 0.72326 0.33431 0.5349 0.0
O272 O 0.69167 0.31494 0.54889 0.0
C273 C 0.89312 0.43214 0.78493 0.0
O274 O 0.8902 0.44333 0.77964 0.0
O275 O 0.90861 0.45307 0.72261 0.0
Zn276 Zn 0.91516 0.44257 0.77023 0.0
O277 O 0.91595 0.45156 0.82705 0.0
C278 C 0.93809 0.44298 0.72986 0.0
O279 O 0.9339 0.45295 0.71394 0.0
O280 O 0.90391 0.42915 0.78056 0.0
C281 C 0.9238 0.44935 0.85575 0.0
O282 O 0.93189 0.44126 0.84765 0.0
C283 C 0.90912 0.46431 0.72524 0.0
O284 O 0.91409 0.46921 0.75967 0.0
O285 O 0.9315 0.43669 0.75433 0.0
C286 C 0.81971 0.64714 0.04887 0.0
O287 O 0.81567 0.64778 0.00859 0.0
O288 O 0.79166 0.65837 0.01559 0.0
Zn289 Zn 0.80099 0.66397 0.06788 0.0
O290 O 0.79058 0.66366 0.12153 0.0
C291 C 0.8105 0.6846 0.02215 0.0
O292 O 0.81139 0.67746 0.98831 0.0
O293 O 0.81487 0.65333 0.07865 0.0
C294 C 0.78532 0.67296 0.13485 0.0
O295 O 0.78668 0.68292 0.11316 0.0
C296 C 0.78113 0.66206 0.0099 0.0
O297 O 0.77657 0.66952 0.03827 0.0
O298 O 0.80659 0.6806 0.05822 0.0
C299 C 0.60386 0.56462 0.30315 0.0
O300 O 0.60748 0.55359 0.29965 0.0
O301 O 0.59042 0.54465 0.22362 0.0
Zn302 Zn 0.58319 0.5533 0.27486 0.0
O303 O 0.58197 0.54261 0.32719 0.0
C304 C 0.55952 0.5498 0.2519 0.0
O305 O 0.56359 0.53889 0.25295 0.0
O306 O 0.59327 0.56712 0.29242 0.0
C307 C 0.57697 0.54652 0.36154 0.0
O308 O 0.57288 0.55742 0.3618 0.0
C309 C 0.59189 0.53348 0.22432 0.0
O310 O 0.58895 0.52752 0.2596 0.0
O311 O 0.56663 0.5583 0.25949 0.0
C312 C 0.30975 0.35525 0.57551 0.0
O313 O 0.29838 0.35769 0.57799 0.0
O314 O 0.29114 0.34145 0.48826 0.0
Zn315 Zn 0.3 0.33445 0.53962 0.0
O316 O 0.28942 0.33195 0.59186 0.0
C317 C 0.30125 0.31229 0.49463 0.0
O318 O 0.2917 0.3166 0.47586 0.0
O319 O 0.31296 0.34548 0.55854 0.0
C320 C 0.27945 0.32672 0.59113 0.0
O321 O 0.27524 0.32271 0.55385 0.0
C322 C 0.28126 0.34682 0.49076 0.0
O323 O 0.27632 0.34848 0.52921 0.0
O324 O 0.30669 0.31856 0.52281 0.0
C325 C 0.39002 0.56184 0.32487 0.0
O326 O 0.38641 0.55081 0.32122 0.0
O327 O 0.40439 0.54334 0.24041 0.0
Zn328 Zn 0.41103 0.55104 0.29461 0.0
O329 O 0.41192 0.53921 0.34353 0.0
C330 C 0.43345 0.55351 0.24965 0.0
O331 O 0.42825 0.54678 0.22026 0.0
O332 O 0.40059 0.5644 0.31414 0.0
C333 C 0.41866 0.53021 0.34114 0.0
O334 O 0.425 0.52853 0.30561 0.0
C335 C 0.39877 0.53357 0.24096 0.0
O336 O 0.39657 0.52839 0.27858 0.0
O337 O 0.42766 0.55676 0.28329 0.0
C338 C 0.18635 0.64548 0.09391 0.0
O339 O 0.19726 0.64422 0.1082 0.0
O340 O 0.20457 0.65498 0.98521 0.0
Zn341 Zn 0.19774 0.66249 0.03917 0.0
O342 O 0.21034 0.66381 0.08544 0.0
C343 C 0.19676 0.68481 0.99389 0.0
O344 O 0.20465 0.67962 0.96877 0.0
O345 O 0.18428 0.65275 0.06307 0.0
C346 C 0.21963 0.67009 0.08179 0.0
O347 O 0.22142 0.67615 0.04569 0.0
C348 C 0.21319 0.64774 0.98692 0.0
O349 O 0.21734 0.64449 0.02527 0.0
O350 O 0.19223 0.67903 0.02548 0.0
C351 C 0.10671 0.43929 0.8004 0.0
O352 O 0.1083 0.45068 0.80732 0.0
O353 O 0.09085 0.45824 0.71139 0.0
Zn354 Zn 0.08571 0.44836 0.76274 0.0
O355 O 0.08371 0.4592 0.81427 0.0
C356 C 0.06247 0.44752 0.72862 0.0
O357 O 0.06574 0.45817 0.71606 0.0
O358 O 0.09758 0.4359 0.7795 0.0
C359 C 0.07824 0.45564 0.84815 0.0
O360 O 0.07375 0.44489 0.84858 0.0
C361 C 0.10083 0.45875 0.69222 0.0
O362 O 0.10957 0.45194 0.70546 0.0
O363 O 0.06982 0.44111 0.74946 0.0
C364 C 0.31051 0.64555 0.52184 0.0
O365 O 0.29926 0.64254 0.52369 0.0
O366 O 0.29101 0.65939 0.59965 0.0
Zn367 Zn 0.30015 0.66674 0.5498 0.0
O368 O 0.28976 0.66839 0.49676 0.0
C369 C 0.30059 0.68913 0.59441 0.0
O370 O 0.29109 0.68471 0.61313 0.0
O371 O 0.31349 0.65599 0.53296 0.0
C372 C 0.29301 0.67482 0.4648 0.0
O373 O 0.30309 0.68061 0.46737 0.0
C374 C 0.27975 0.6588 0.59898 0.0
O375 O 0.27398 0.663 0.56501 0.0
O376 O 0.3062 0.68289 0.56663 0.0
C377 C 0.09823 0.57096 0.28704 0.0
O378 O 0.09979 0.56637 0.32613 0.0
O379 O 0.08553 0.54402 0.33013 0.0
Zn380 Zn 0.08041 0.55239 0.2753 0.0
O381 O 0.08149 0.54099 0.22515 0.0
C382 C 0.05856 0.56035 0.31617 0.0
O383 O 0.06494 0.56066 0.35217 0.0
O384 O 0.09052 0.56651 0.26153 0.0
C385 C 0.0758 0.53129 0.22662 0.0
O386 O 0.06946 0.52882 0.26154 0.0
C387 C 0.0954 0.53862 0.33254 0.0
O388 O 0.10265 0.53889 0.29892 0.0
O389 O 0.06342 0.55731 0.28039 0.0
C390 C 0.18385 0.35917 0.02812 0.0
O391 O 0.19457 0.36298 0.03735 0.0
O392 O 0.20411 0.34393 0.10047 0.0
Zn393 Zn 0.19479 0.33728 0.04953 0.0
O394 O 0.20491 0.33524 0.9959 0.0
C395 C 0.19415 0.31476 0.09256 0.0
O396 O 0.2036 0.31915 0.11178 0.0
O397 O 0.18152 0.34822 0.03264 0.0
C398 C 0.21474 0.32974 0.99503 0.0
O399 O 0.21909 0.32531 0.03142 0.0
C400 C 0.21396 0.34931 0.09686 0.0
O401 O 0.21838 0.35128 0.05776 0.0
O402 O 0.18852 0.32112 0.06521 0.0
C403 C 0.39211 0.43458 0.7822 0.0
O404 O 0.38854 0.44547 0.78995 0.0
O405 O 0.4077 0.4552 0.8508 0.0
Zn406 Zn 0.41402 0.44555 0.80011 0.0
O407 O 0.415 0.45569 0.74628 0.0
C408 C 0.43722 0.44605 0.8371 0.0
O409 O 0.43314 0.45609 0.85283 0.0
O410 O 0.40305 0.43213 0.7861 0.0
C411 C 0.42027 0.45211 0.71203 0.0
O412 O 0.42524 0.44157 0.71198 0.0
C413 C 0.40663 0.46639 0.84757 0.0
O414 O 0.40939 0.47159 0.81049 0.0
O415 O 0.43044 0.43963 0.81378 0.0
H416 H 0.09936 0.08397 0.84103 0.0
H417 H 0.11176 0.09875 0.87772 0.0
H418 H 0.14249 0.07659 0.8581 0.0
H419 H 0.13015 0.06171 0.82226 0.0
H420 H 0.1415 0.08418 0.94016 0.0
H421 H 0.1377 0.10194 0.79732 0.0
H422 H 0.12689 0.10984 0.73349 0.0
H423 H 0.10999 0.13577 0.81535 0.0
H424 H 0.12059 0.12791 0.87981 0.0
H425 H 0.18881 0.12375 0.97749 0.0
H426 H 0.17422 0.11012 0.94687 0.0
H427 H 0.14613 0.13445 0.98018 0.0
H428 H 0.16073 0.14826 0.01069 0.0
H429 H 0.1443 0.12641 0.89606 0.0
H430 H 0.14937 0.10943 0.03808 0.0
H431 H 0.16052 0.10161 0.10122 0.0
H432 H 0.17528 0.0742 0.02033 0.0
H433 H 0.16435 0.08196 0.95652 0.0
C434 C 0.10878 0.08231 0.84416 0.0
C435 C 0.11378 0.07166 0.82884 0.0
C436 C 0.11586 0.09077 0.86506 0.0
C437 C 0.12806 0.08879 0.87051 0.0
C438 C 0.13309 0.07828 0.85442 0.0
C439 C 0.12602 0.0698 0.8338 0.0
C440 C 0.13559 0.09743 0.89427 0.0
C441 C 0.14221 0.09339 0.93022 0.0
C442 C 0.13621 0.10953 0.88218 0.0
C443 C 0.12984 0.11425 0.84346 0.0
C444 C 0.1316 0.10926 0.80177 0.0
C445 C 0.12553 0.11374 0.76547 0.0
C446 C 0.11773 0.12328 0.77038 0.0
C447 C 0.11602 0.12837 0.8116 0.0
C448 C 0.12206 0.12391 0.84803 0.0
C449 C 0.17952 0.12618 0.97868 0.0
C450 C 0.17592 0.13709 0.99652 0.0
C451 C 0.17119 0.11835 0.96128 0.0
C452 C 0.15909 0.12124 0.96157 0.0
C453 C 0.15543 0.13206 0.97972 0.0
C454 C 0.16378 0.13991 0.99728 0.0
C455 C 0.15037 0.11309 0.94134 0.0
C456 C 0.14351 0.11722 0.90618 0.0
C457 C 0.14955 0.10106 0.95405 0.0
C458 C 0.15611 0.09634 0.99242 0.0
C459 C 0.15507 0.10179 0.03366 0.0
C460 C 0.16133 0.09736 0.0696 0.0
C461 C 0.16862 0.08743 0.06477 0.0
C462 C 0.16964 0.08189 0.02402 0.0
C463 C 0.1634 0.0863 0.98797 0.0
H464 H 0.17347 0.08401 0.09263 0.0
H465 H 0.11304 0.12674 0.74223 0.0
H466 H 0.10062 0.91011 0.24864 0.0
H467 H 0.11468 0.89591 0.21782 0.0
H468 H 0.14207 0.90933 0.30312 0.0
H469 H 0.12808 0.9236 0.33405 0.0
H470 H 0.14891 0.90864 0.21726 0.0
H471 H 0.1306 0.88234 0.32073 0.0
H472 H 0.1139 0.87222 0.35697 0.0
H473 H 0.1039 0.85619 0.2349 0.0
H474 H 0.12046 0.86635 0.19778 0.0
H475 H 0.1932 0.86675 0.16767 0.0
H476 H 0.17849 0.87881 0.20557 0.0
H477 H 0.15079 0.86357 0.12598 0.0
H478 H 0.16546 0.85123 0.08845 0.0
H479 H 0.14394 0.86499 0.20946 0.0
H480 H 0.1614 0.89139 0.10517 0.0
H481 H 0.17764 0.90169 0.0668 0.0
H482 H 0.18859 0.91784 0.18752 0.0
H483 H 0.17251 0.9075 0.22674 0.0
C484 C 0.10959 0.90994 0.26128 0.0
C485 C 0.11326 0.91803 0.29363 0.0
C486 C 0.1176 0.90179 0.24374 0.0
C487 C 0.1294 0.90156 0.25828 0.0
C488 C 0.13299 0.90938 0.29146 0.0
C489 C 0.12498 0.9175 0.30917 0.0
C490 C 0.13818 0.89376 0.23677 0.0
C491 C 0.14794 0.89908 0.21617 0.0
C492 C 0.13665 0.88134 0.23412 0.0
C493 C 0.12671 0.8752 0.25639 0.0
C494 C 0.12478 0.87674 0.30153 0.0
C495 C 0.11535 0.87098 0.32225 0.0
C496 C 0.10782 0.86359 0.29823 0.0
C497 C 0.10973 0.86193 0.25345 0.0
C498 C 0.11914 0.86767 0.23257 0.0
C499 C 0.18398 0.86596 0.15813 0.0
C500 C 0.1805 0.85809 0.12486 0.0
C501 C 0.17558 0.87289 0.17978 0.0
C502 C 0.16356 0.87221 0.16818 0.0
C503 C 0.16002 0.86424 0.13538 0.0
C504 C 0.16842 0.85724 0.11387 0.0
C505 C 0.15472 0.87987 0.1902 0.0
C506 C 0.14493 0.87455 0.21071 0.0
C507 C 0.15615 0.89233 0.19247 0.0
C508 C 0.16582 0.89858 0.16896 0.0
C509 C 0.16733 0.89706 0.1236 0.0
C510 C 0.17649 0.90292 0.10168 0.0
C511 C 0.18416 0.91039 0.12473 0.0
C512 C 0.18266 0.91204 0.16972 0.0
C513 C 0.17351 0.90619 0.19181 0.0
H514 H 0.19125 0.91492 0.1077 0.0
H515 H 0.10053 0.85914 0.31433 0.0
H516 H 0.39688 0.91549 0.34183 0.0
H517 H 0.38409 0.90137 0.38 0.0
H518 H 0.3556 0.9269 0.379 0.0
H519 H 0.36839 0.94113 0.34171 0.0
H520 H 0.35779 0.91719 0.45764 0.0
H521 H 0.35583 0.90282 0.30951 0.0
H522 H 0.36389 0.89566 0.23931 0.0
H523 H 0.38037 0.86633 0.30509 0.0
H524 H 0.37253 0.87341 0.37582 0.0
H525 H 0.30886 0.87998 0.50542 0.0
H526 H 0.32321 0.89346 0.4722 0.0
H527 H 0.35047 0.86684 0.48438 0.0
H528 H 0.33614 0.85323 0.5174 0.0
H529 H 0.34986 0.87656 0.40276 0.0
H530 H 0.35081 0.89054 0.55064 0.0
H531 H 0.34239 0.8977 0.62027 0.0
H532 H 0.32745 0.92781 0.55431 0.0
H533 H 0.33565 0.92075 0.48413 0.0
C534 C 0.38786 0.91807 0.34947 0.0
C535 C 0.38364 0.92943 0.33874 0.0
C536 C 0.38056 0.90998 0.37119 0.0
C537 C 0.36886 0.91306 0.38207 0.0
C538 C 0.3646 0.92435 0.371 0.0
C539 C 0.37192 0.93246 0.34954 0.0
C540 C 0.36111 0.90464 0.4059 0.0
C541 C 0.35594 0.90836 0.44537 0.0
C542 C 0.35898 0.893 0.39051 0.0
C543 C 0.3637 0.88872 0.34801 0.0
C544 C 0.36125 0.8949 0.30906 0.0
C545 C 0.36577 0.89084 0.26916 0.0
C546 C 0.37267 0.88056 0.26776 0.0
C547 C 0.37504 0.8743 0.30624 0.0
C548 C 0.37056 0.87833 0.34623 0.0
C549 C 0.31793 0.87701 0.5014 0.0
C550 C 0.32136 0.86553 0.51402 0.0
C551 C 0.32613 0.88474 0.48254 0.0
C552 C 0.33791 0.88116 0.47611 0.0
C553 C 0.34141 0.86976 0.48911 0.0
C554 C 0.33322 0.86202 0.50811 0.0
C555 C 0.34644 0.88918 0.45418 0.0
C556 C 0.35176 0.88538 0.41512 0.0
C557 C 0.34867 0.90076 0.46985 0.0
C558 C 0.34376 0.90506 0.51205 0.0
C559 C 0.34565 0.89864 0.55091 0.0
C560 C 0.34093 0.90269 0.59049 0.0
C561 C 0.33437 0.91319 0.5917 0.0
C562 C 0.33253 0.91968 0.55332 0.0
C563 C 0.33722 0.91566 0.51364 0.0
H564 H 0.33072 0.91631 0.62237 0.0
H565 H 0.37616 0.87744 0.23684 0.0
H566 H 0.36828 0.06324 0.76173 0.0
H567 H 0.35523 0.07735 0.72508 0.0
H568 H 0.38493 0.10068 0.70247 0.0
H569 H 0.39802 0.08671 0.74006 0.0
H570 H 0.36589 0.11305 0.72586 0.0
H571 H 0.37438 0.08294 0.62069 0.0
H572 H 0.37612 0.06255 0.59233 0.0
H573 H 0.33869 0.05737 0.60962 0.0
H574 H 0.33676 0.07769 0.6387 0.0
H575 H 0.33449 0.14723 0.56578 0.0
H576 H 0.34932 0.13406 0.5986 0.0
H577 H 0.32154 0.11038 0.64065 0.0
H578 H 0.3067 0.12346 0.60822 0.0
H579 H 0.34086 0.09873 0.60305 0.0
H580 H 0.33299 0.12882 0.71216 0.0
H581 H 0.33163 0.14936 0.73944 0.0
H582 H 0.36857 0.15472 0.7119 0.0
H583 H 0.37012 0.13425 0.68387 0.0
C584 C 0.37203 0.07141 0.74924 0.0
C585 C 0.3842 0.07382 0.75349 0.0
C586 C 0.36457 0.07944 0.72809 0.0
C587 C 0.36916 0.08995 0.71025 0.0
C588 C 0.38122 0.09258 0.71578 0.0
C589 C 0.38869 0.08459 0.73725 0.0
C590 C 0.36136 0.09808 0.68531 0.0
C591 C 0.36056 0.10996 0.69856 0.0
C592 C 0.35433 0.09402 0.64993 0.0
C593 C 0.35544 0.08181 0.63223 0.0
C594 C 0.36653 0.07743 0.61875 0.0
C595 C 0.36755 0.06588 0.6025 0.0
C596 C 0.35753 0.05866 0.59927 0.0
C597 C 0.34645 0.06297 0.61218 0.0
C598 C 0.34539 0.07451 0.62851 0.0
C599 C 0.33156 0.13918 0.58175 0.0
C600 C 0.31943 0.1364 0.58462 0.0
C601 C 0.34003 0.1317 0.60058 0.0
C602 C 0.33649 0.12132 0.62228 0.0
C603 C 0.32443 0.11837 0.62406 0.0
C604 C 0.31596 0.12587 0.60564 0.0
C605 C 0.34528 0.1136 0.64407 0.0
C606 C 0.34627 0.10181 0.63014 0.0
C607 C 0.35255 0.11777 0.67852 0.0
C608 C 0.35163 0.13006 0.69545 0.0
C609 C 0.3408 0.13442 0.71156 0.0
C610 C 0.34 0.14603 0.72723 0.0
C611 C 0.35 0.15335 0.72728 0.0
C612 C 0.36083 0.14905 0.71177 0.0
C613 C 0.36167 0.13744 0.69601 0.0
H614 H 0.34936 0.16234 0.73944 0.0
H615 H 0.35833 0.04972 0.58668 0.0
H616 H 0.81654 0.8784 0.03756 0.0
H617 H 0.83137 0.8918 0.06823 0.0
H618 H 0.84999 0.86201 0.1241 0.0
H619 H 0.8351 0.84853 0.09397 0.0
H620 H 0.84658 0.87916 0.18357 0.0
H621 H 0.86162 0.87692 0.03784 0.0
H622 H 0.86084 0.87768 0.95723 0.0
H623 H 0.85035 0.91424 0.96257 0.0
H624 H 0.8509 0.91366 0.04327 0.0
H625 H 0.89579 0.91434 0.25278 0.0
H626 H 0.88358 0.89931 0.21661 0.0
H627 H 0.86214 0.92683 0.15875 0.0
H628 H 0.87431 0.9419 0.19445 0.0
H629 H 0.86831 0.90983 0.09928 0.0
H630 H 0.85198 0.91153 0.24493 0.0
H631 H 0.85269 0.91072 0.32556 0.0
H632 H 0.8657 0.87498 0.31988 0.0
H633 H 0.86522 0.87563 0.23914 0.0
C634 C 0.82386 0.87467 0.05594 0.0
C635 C 0.82462 0.8624 0.06345 0.0
C636 C 0.83236 0.88234 0.0733 0.0
C637 C 0.84182 0.87789 0.09822 0.0
C638 C 0.84275 0.86562 0.10496 0.0
C639 C 0.83425 0.85794 0.08761 0.0
C640 C 0.85033 0.88611 0.11932 0.0
C641 C 0.85151 0.88572 0.16504 0.0
C642 C 0.85654 0.89482 0.09521 0.0
C643 C 0.85621 0.89522 0.04665 0.0
C644 C 0.85905 0.8851 0.02185 0.0
C645 C 0.85867 0.8855 0.97613 0.0
C646 C 0.85552 0.896 0.9548 0.0
C647 C 0.85277 0.90612 0.97915 0.0
C648 C 0.85313 0.90576 0.02488 0.0
C649 C 0.88846 0.91719 0.23247 0.0
C650 C 0.886 0.92931 0.22657 0.0
C651 C 0.88149 0.9086 0.21189 0.0
C652 C 0.87193 0.91197 0.1852 0.0
C653 C 0.86949 0.92405 0.17916 0.0
C654 C 0.87643 0.93264 0.19978 0.0
C655 C 0.86445 0.90294 0.16346 0.0
C656 C 0.86346 0.90319 0.11767 0.0
C657 C 0.85841 0.89408 0.18747 0.0
C658 C 0.8587 0.89368 0.236 0.0
C659 C 0.85509 0.90353 0.26087 0.0
C660 C 0.85543 0.9031 0.30659 0.0
C661 C 0.85927 0.89282 0.32783 0.0
C662 C 0.86275 0.88294 0.30338 0.0
C663 C 0.86244 0.88334 0.25764 0.0
H664 H 0.85952 0.8925 0.36323 0.0
H665 H 0.85523 0.89629 0.9194 0.0
H666 H 0.8991 0.08732 0.83212 0.0
H667 H 0.88664 0.10226 0.86756 0.0
H668 H 0.85556 0.08125 0.83988 0.0
H669 H 0.86791 0.06631 0.80427 0.0
H670 H 0.85192 0.10513 0.82567 0.0
H671 H 0.86803 0.07966 0.93808 0.0
H672 H 0.88415 0.06978 0.97866 0.0
H673 H 0.89885 0.10365 0.01297 0.0
H674 H 0.88291 0.11374 0.972 0.0
H675 H 0.80981 0.12551 0.97611 0.0
H676 H 0.82405 0.11303 0.93761 0.0
H677 H 0.85249 0.13624 0.97734 0.0
H678 H 0.83827 0.14877 0.01653 0.0
H679 H 0.85867 0.11288 0.98373 0.0
H680 H 0.8417 0.13844 0.87599 0.0
H681 H 0.82556 0.14832 0.83561 0.0
H682 H 0.81255 0.11453 0.79213 0.0
H683 H 0.82851 0.10442 0.83283 0.0
C684 C 0.88959 0.08595 0.83307 0.0
C685 C 0.88449 0.07559 0.81571 0.0
C686 C 0.88251 0.09447 0.85348 0.0
C687 C 0.87022 0.09276 0.85678 0.0
C688 C 0.86504 0.0827 0.83773 0.0
C689 C 0.87212 0.07416 0.81752 0.0
C690 C 0.86276 0.10116 0.88178 0.0
C691 C 0.85333 0.10677 0.86028 0.0
C692 C 0.86482 0.10349 0.92668 0.0
C693 C 0.87436 0.09745 0.95156 0.0
C694 C 0.87476 0.085 0.95397 0.0
C695 C 0.88385 0.07937 0.97709 0.0
C696 C 0.89254 0.08609 0.99826 0.0
C697 C 0.89213 0.09846 0.99648 0.0
C698 C 0.88307 0.10414 0.97333 0.0
C699 C 0.8191 0.12793 0.97702 0.0
C700 C 0.8229 0.13819 0.99907 0.0
C701 C 0.82722 0.12081 0.95481 0.0
C702 C 0.83928 0.12385 0.95395 0.0
C703 C 0.8432 0.1338 0.97741 0.0
C704 C 0.83507 0.14094 -0.00026 0.0
C705 C 0.8477 0.11672 0.92776 0.0
C706 C 0.85732 0.11134 0.94901 0.0
C707 C 0.84582 0.11462 0.88259 0.0
C708 C 0.83626 0.12067 0.85778 0.0
C709 C 0.83535 0.13311 0.85809 0.0
C710 C 0.82624 0.13875 0.8351 0.0
C711 C 0.81802 0.13206 0.8114 0.0
C712 C 0.81892 0.11971 0.81054 0.0
C713 C 0.828 0.11401 0.83353 0.0
H714 H 0.81097 0.13645 0.79363 0.0
H715 H 0.89957 0.08171 0.01615 0.0
H716 H 0.69239 0.12289 0.6298 0.0
H717 H 0.67766 0.10947 0.66074 0.0
H718 H 0.6498 0.12871 0.59507 0.0
H719 H 0.66451 0.1423 0.56406 0.0
H720 H 0.64484 0.12453 0.682 0.0
H721 H 0.65782 0.10212 0.55741 0.0
H722 H 0.67249 0.09278 0.5085 0.0
H723 H 0.68477 0.07095 0.61433 0.0
H724 H 0.67029 0.08028 0.66406 0.0
H725 H 0.59973 0.08197 0.72658 0.0
H726 H 0.61354 0.096 0.69326 0.0
H727 H 0.64304 0.07614 0.74541 0.0
H728 H 0.6293 0.0619 0.7778 0.0
H729 H 0.64666 0.0809 0.66257 0.0
H730 H 0.63448 0.10347 0.78796 0.0
H731 H 0.62028 0.11291 0.83843 0.0
H732 H 0.60696 0.13447 0.73353 0.0
H733 H 0.62099 0.12504 0.68227 0.0
C734 C 0.68314 0.12424 0.62161 0.0
C735 C 0.67961 0.13366 0.59443 0.0
C736 C 0.67474 0.11653 0.63925 0.0
C737 C 0.66266 0.11806 0.62992 0.0
C738 C 0.65909 0.1274 0.60259 0.0
C739 C 0.66751 0.1351 0.58477 0.0
C740 C 0.65377 0.11008 0.64984 0.0
C741 C 0.64509 0.115 0.67724 0.0
C742 C 0.65435 0.09764 0.64446 0.0
C743 C 0.66303 0.09197 0.61455 0.0
C744 C 0.66371 0.09539 0.57035 0.0
C745 C 0.67198 0.09009 0.54246 0.0
C746 C 0.67958 0.0813 0.55832 0.0
C747 C 0.67889 0.07777 0.60209 0.0
C748 C 0.67064 0.08305 0.63013 0.0
C749 C 0.60916 0.08067 0.73137 0.0
C750 C 0.61344 0.07082 0.75476 0.0
C751 C 0.61704 0.08871 0.7124 0.0
C752 C 0.62933 0.08717 0.71711 0.0
C753 C 0.6336 0.07749 0.74127 0.0
C754 C 0.62573 0.06938 0.75987 0.0
C755 C 0.63776 0.09532 0.69521 0.0
C756 C 0.64635 0.09043 0.66732 0.0
C757 C 0.63715 0.10777 0.70042 0.0
C758 C 0.62871 0.11346 0.73118 0.0
C759 C 0.62846 0.11015 0.77557 0.0
C760 C 0.62045 0.11552 0.80434 0.0
C761 C 0.6127 0.12426 0.78917 0.0
C762 C 0.61296 0.12768 0.74522 0.0
C763 C 0.62094 0.12234 0.7163 0.0
H764 H 0.60651 0.1284 0.81149 0.0
H765 H 0.68597 0.0772 0.53668 0.0
H766 H 0.62318 0.93992 0.36835 0.0
H767 H 0.63554 0.92516 0.40452 0.0
H768 H 0.61268 0.8973 0.35716 0.0
H769 H 0.60012 0.91208 0.32101 0.0
H770 H 0.61842 0.89452 0.44409 0.0
H771 H 0.63893 0.90142 0.30949 0.0
H772 H 0.64817 0.91342 0.25131 0.0
H773 H 0.6731 0.92754 0.34395 0.0
H774 H 0.6639 0.91574 0.40285 0.0
H775 H 0.66002 0.84868 0.4987 0.0
H776 H 0.64578 0.86186 0.46305 0.0
H777 H 0.66716 0.89209 0.49868 0.0
H778 H 0.68152 0.87899 0.5337 0.0
H779 H 0.6616 0.89254 0.41395 0.0
H780 H 0.64061 0.88628 0.54915 0.0
H781 H 0.63129 0.87442 0.60757 0.0
H782 H 0.60733 0.85909 0.51409 0.0
H783 H 0.61661 0.87076 0.45497 0.0
C784 C 0.62077 0.93066 0.36544 0.0
C785 C 0.61069 0.92717 0.34164 0.0
C786 C 0.62787 0.92223 0.38607 0.0
C787 C 0.62509 0.91014 0.3831 0.0
C788 C 0.61498 0.9066 0.35971 0.0
C789 C 0.60785 0.91504 0.33896 0.0
C790 C 0.63276 0.90127 0.40478 0.0
C791 C 0.62783 0.89392 0.43706 0.0
C792 C 0.64506 0.90069 0.39606 0.0
C793 C 0.65066 0.90776 0.36066 0.0
C794 C 0.64632 0.90715 0.31753 0.0
C795 C 0.65156 0.9139 0.28441 0.0
C796 C 0.6612 0.92126 0.29395 0.0
C797 C 0.66563 0.92184 0.33661 0.0
C798 C 0.66041 0.91512 0.36987 0.0
C799 C 0.66161 0.85815 0.49945 0.0
C800 C 0.67193 0.86279 0.51883 0.0
C801 C 0.65345 0.86567 0.47915 0.0
C802 C 0.6554 0.87796 0.47832 0.0
C803 C 0.66551 0.88263 0.49882 0.0
C804 C 0.67369 0.87512 0.51892 0.0
C805 C 0.64732 0.88592 0.45395 0.0
C806 C 0.65218 0.89308 0.42094 0.0
C807 C 0.63498 0.88631 0.46206 0.0
C808 C 0.62939 0.8793 0.49756 0.0
C809 C 0.63342 0.88031 0.54099 0.0
C810 C 0.62813 0.87364 0.57424 0.0
C811 C 0.61875 0.86598 0.56453 0.0
C812 C 0.61461 0.86501 0.52155 0.0
C813 C 0.61987 0.87166 0.48817 0.0
H814 H 0.61467 0.86083 0.59032 0.0
H815 H 0.66524 0.92648 0.26826 0.0
H816 H 0.65936 0.64638 0.52192 0.0
H817 H 0.64521 0.63461 0.47947 0.0
H818 H 0.67095 0.60646 0.46871 0.0
H819 H 0.68517 0.6182 0.51044 0.0
H820 H 0.66125 0.61142 0.39084 0.0
H821 H 0.64714 0.6043 0.53758 0.0
H822 H 0.6398 0.61001 0.61065 0.0
H823 H 0.61001 0.62758 0.5519 0.0
H824 H 0.61726 0.62211 0.47841 0.0
H825 H 0.62704 0.56214 0.32665 0.0
H826 H 0.63956 0.57654 0.36415 0.0
H827 H 0.61101 0.60198 0.36211 0.0
H828 H 0.59832 0.58753 0.3248 0.0
H829 H 0.62112 0.60021 0.44275 0.0
H830 H 0.63447 0.60589 0.29608 0.0
H831 H 0.64176 0.59993 0.22325 0.0
H832 H 0.67298 0.58499 0.28173 0.0
H833 H 0.6658 0.5907 0.35501 0.0
C834 C 0.66196 0.63764 0.51086 0.0
C835 C 0.67339 0.63323 0.51947 0.0
C836 C 0.65386 0.63092 0.48667 0.0
C837 C 0.65703 0.61965 0.47103 0.0
C838 C 0.66835 0.61516 0.4803 0.0
C839 C 0.67645 0.62187 0.50432 0.0
C840 C 0.64872 0.61261 0.44388 0.0
C841 C 0.65252 0.60887 0.40236 0.0
C842 C 0.63719 0.60963 0.45835 0.0
C843 C 0.63282 0.61292 0.5025 0.0
C844 C 0.63908 0.60947 0.54023 0.0
C845 C 0.63492 0.61264 0.58172 0.0
C846 C 0.62446 0.61918 0.58591 0.0
C847 C 0.61812 0.62253 0.54861 0.0
C848 C 0.62225 0.6194 0.50703 0.0
C849 C 0.62343 0.57083 0.33378 0.0
C850 C 0.61168 0.57369 0.32275 0.0
C851 C 0.63063 0.57907 0.35509 0.0
C852 C 0.62624 0.59035 0.36559 0.0
C853 C 0.61456 0.59331 0.3542 0.0
C854 C 0.60735 0.58507 0.33274 0.0
C855 C 0.63376 0.59882 0.39012 0.0
C856 C 0.62981 0.60286 0.43107 0.0
C857 C 0.64517 0.60207 0.37516 0.0
C858 C 0.64954 0.59865 0.3311 0.0
C859 C 0.64284 0.60125 0.29346 0.0
C860 C 0.64697 0.59793 0.25208 0.0
C861 C 0.65781 0.59206 0.24787 0.0
C862 C 0.66458 0.58953 0.28504 0.0
C863 C 0.66049 0.59282 0.3265 0.0
H864 H 0.66099 0.5895 0.2158 0.0
H865 H 0.62126 0.62163 0.61806 0.0
H866 H 0.60084 0.41512 0.73972 0.0
H867 H 0.61393 0.4002 0.70759 0.0
H868 H 0.64031 0.4271 0.68322 0.0
H869 H 0.62721 0.4421 0.71449 0.0
H870 H 0.63748 0.41328 0.61322 0.0
H871 H 0.64321 0.40729 0.76773 0.0
H872 H 0.637 0.40351 0.84385 0.0
H873 H 0.62179 0.37022 0.80512 0.0
H874 H 0.62778 0.37387 0.72862 0.0
H875 H 0.68826 0.3776 0.57809 0.0
H876 H 0.6735 0.3916 0.6053 0.0
H877 H 0.6484 0.36306 0.62114 0.0
H878 H 0.66317 0.34894 0.59429 0.0
H879 H 0.64962 0.37702 0.69343 0.0
H880 H 0.64493 0.38267 0.53915 0.0
H881 H 0.65149 0.38649 0.46347 0.0
H882 H 0.66506 0.42049 0.50211 0.0
H883 H 0.65873 0.41681 0.5782 0.0
C884 C 0.60945 0.41785 0.7277 0.0
C885 C 0.613 0.42979 0.7297 0.0
C886 C 0.61693 0.40931 0.70946 0.0
C887 C 0.62813 0.41253 0.69334 0.0
C888 C 0.6317 0.42443 0.69541 0.0
C889 C 0.62421 0.43299 0.71344 0.0
C890 C 0.6361 0.40355 0.67369 0.0
C891 C 0.64025 0.40542 0.63093 0.0
C892 C 0.63943 0.39313 0.69639 0.0
C893 C 0.63583 0.39091 0.74237 0.0
C894 C 0.63846 0.39921 0.77538 0.0
C895 C 0.63499 0.39708 0.81861 0.0
C896 C 0.62897 0.38665 0.82929 0.0
C897 C 0.62643 0.3783 0.79678 0.0
C898 C 0.62987 0.38039 0.75349 0.0
C899 C 0.67958 0.3743 0.58702 0.0
C900 C 0.67689 0.36215 0.58408 0.0
C901 C 0.67113 0.38232 0.60241 0.0
C902 C 0.65984 0.37837 0.61492 0.0
C903 C 0.65708 0.36628 0.6116 0.0
C904 C 0.66551 0.35824 0.59612 0.0
C905 C 0.6511 0.38682 0.63316 0.0
C906 C 0.6468 0.38485 0.67563 0.0
C907 C 0.64766 0.39716 0.61025 0.0
C908 C 0.65144 0.39942 0.56447 0.0
C909 C 0.6494 0.39093 0.53159 0.0
C910 C 0.65306 0.39307 0.4886 0.0
C911 C 0.65871 0.40371 0.47801 0.0
C912 C 0.66069 0.41225 0.51038 0.0
C913 C 0.65705 0.41014 0.55343 0.0
H914 H 0.66154 0.40536 0.4447 0.0
H915 H 0.6263 0.38501 0.86278 0.0
H916 H 0.86963 0.43608 0.80003 0.0
H917 H 0.85575 0.42304 0.83788 0.0
H918 H 0.88266 0.39598 0.84639 0.0
H919 H 0.89665 0.40896 0.80819 0.0
H920 H 0.85965 0.38705 0.82887 0.0
H921 H 0.87926 0.4138 0.92922 0.0
H922 H 0.88557 0.43372 0.953 0.0
H923 H 0.84918 0.4445 0.96381 0.0
H924 H 0.84265 0.42472 0.93903 0.0
H925 H 0.83639 0.35392 0.00537 0.0
H926 H 0.84965 0.36616 0.9611 0.0
H927 H 0.82353 0.39408 0.95895 0.0
H928 H 0.8102 0.38193 0.00334 0.0
H929 H 0.84599 0.40259 0.97238 0.0
H930 H 0.82597 0.37689 0.87263 0.0
H931 H 0.81875 0.35779 0.84393 0.0
H932 H 0.85461 0.34564 0.82923 0.0
H933 H 0.86205 0.36463 0.85854 0.0
C934 C 0.87256 0.42729 0.80929 0.0
C935 C 0.88429 0.42361 0.8017 0.0
C936 C 0.86461 0.41986 0.83093 0.0
C937 C 0.86827 0.40865 0.84551 0.0
C938 C 0.87972 0.40463 0.83549 0.0
C939 C 0.88769 0.41207 0.8138 0.0
C940 C 0.8605 0.40159 0.8744 0.0
C941 C 0.85677 0.39035 0.86049 0.0
C942 C 0.85656 0.40609 0.91515 0.0
C943 C 0.86047 0.41782 0.93183 0.0
C944 C 0.8726 0.42044 0.93644 0.0
C945 C 0.87622 0.43171 0.95003 0.0
C946 C 0.86778 0.44038 0.95974 0.0
C947 C 0.8557 0.43778 0.95617 0.0
C948 C 0.85204 0.42654 0.94232 0.0
C949 C 0.8335 0.36271 0.99587 0.0
C950 C 0.82222 0.36694 0.00762 0.0
C951 C 0.84107 0.36966 0.97041 0.0
C952 C 0.83748 0.38094 0.95632 0.0
C953 C 0.82642 0.38537 0.96941 0.0
C954 C 0.81882 0.37841 0.9947 0.0
C955 C 0.84515 0.388 0.92697 0.0
C956 C 0.84888 0.39925 0.94083 0.0
C957 C 0.84898 0.38356 0.886 0.0
C958 C 0.84456 0.37213 0.86824 0.0
C959 C 0.83232 0.37011 0.86365 0.0
C960 C 0.82818 0.35931 0.84719 0.0
C961 C 0.83621 0.35049 0.83486 0.0
C962 C 0.8484 0.35247 0.83886 0.0
C963 C 0.85258 0.36326 0.85537 0.0
H964 H 0.83299 0.34214 0.82211 0.0
H965 H 0.87059 0.44912 0.97008 0.0
H966 H 0.83058 0.6446 0.12802 0.0
H967 H 0.84567 0.63018 0.14846 0.0
H968 H 0.8459 0.6165 0.01655 0.0
H969 H 0.83063 0.63088 0.99578 0.0
H970 H 0.84439 0.59895 0.07635 0.0
H971 H 0.86912 0.63248 0.05305 0.0
H972 H 0.87569 0.65325 0.05973 0.0
H973 H 0.87967 0.64895 0.19862 0.0
H974 H 0.87295 0.6282 0.19289 0.0
H975 H 0.89448 0.56222 0.12301 0.0
H976 H 0.88193 0.57755 0.09045 0.0
H977 H 0.87615 0.59282 0.21813 0.0
H978 H 0.88865 0.5775 0.25108 0.0
H979 H 0.8817 0.60959 0.15307 0.0
H980 H 0.8552 0.57655 0.1759 0.0
H981 H 0.84863 0.55579 0.16861 0.0
H982 H 0.84823 0.5593 0.02865 0.0
H983 H 0.85497 0.58005 0.0351 0.0
C984 C 0.83389 0.6386 0.10318 0.0
C985 C 0.82939 0.63887 0.06027 0.0
C986 C 0.84257 0.6304 0.11489 0.0
C987 C 0.84699 0.62236 0.08391 0.0
C988 C 0.84262 0.62267 0.04089 0.0
C989 C 0.83392 0.6309 0.02908 0.0
C990 C 0.8557 0.61325 0.09738 0.0
C991 C 0.85267 0.60127 0.09229 0.0
C992 C 0.86639 0.61631 0.11891 0.0
C993 C 0.87044 0.6288 0.12256 0.0
C994 C 0.8713 0.63599 0.08508 0.0
C995 C 0.87507 0.64776 0.08868 0.0
C996 C 0.87807 0.65243 0.12958 0.0
C997 C 0.87733 0.64533 0.16696 0.0
C998 C 0.87356 0.63355 0.16354 0.0
C999 C 0.89056 0.56885 0.14418 0.0
C1000 C 0.89252 0.56864 0.18964 0.0
C1001 C 0.88338 0.57757 0.12552 0.0
C1002 C 0.8781 0.58625 0.15197 0.0
C1003 C 0.88017 0.58618 0.19724 0.0
C1004 C 0.88726 0.5774 0.21599 0.0
C1005 C 0.87027 0.59534 0.13257 0.0
C1006 C 0.87348 0.6073 0.1366 0.0
C1007 C 0.85978 0.59227 0.1099 0.0
C1008 C 0.85573 0.5798 0.10597 0.0
C1009 C 0.85382 0.57286 0.14356 0.0
C1010 C 0.85004 0.5611 0.13958 0.0
C1011 C 0.84805 0.55622 0.09819 0.0
C1012 C 0.8498 0.56309 0.06068 0.0
C1013 C 0.8536 0.57485 0.06448 0.0
H1014 H 0.84512 0.54712 0.09517 0.0
H1015 H 0.88099 0.66154 0.1323 0.0
H1016 H 0.33379 0.35219 0.58154 0.0
H1017 H 0.34813 0.36537 0.61685 0.0
H1018 H 0.32002 0.38981 0.64875 0.0
H1019 H 0.30565 0.37679 0.61321 0.0
H1020 H 0.33947 0.40117 0.61765 0.0
H1021 H 0.33085 0.37122 0.72556 0.0
H1022 H 0.32913 0.35076 0.75332 0.0
H1023 H 0.36627 0.34516 0.73038 0.0
H1024 H 0.36817 0.36554 0.70191 0.0
H1025 H 0.36809 0.4366 0.77468 0.0
H1026 H 0.35442 0.42262 0.74037 0.0
H1027 H 0.38341 0.39861 0.7154 0.0
H1028 H 0.39713 0.41245 0.75054 0.0
H1029 H 0.36407 0.38675 0.74143 0.0
H1030 H 0.37293 0.4166 0.63473 0.0
H1031 H 0.37484 0.43699 0.60644 0.0
H1032 H 0.33756 0.44266 0.62575 0.0
H1033 H 0.33546 0.42235 0.65476 0.0
C1034 C 0.33067 0.3604 0.59586 0.0
C1035 C 0.31858 0.36342 0.59474 0.0
C1036 C 0.33887 0.36789 0.61619 0.0
C1037 C 0.3351 0.37849 0.63586 0.0
C1038 C 0.3231 0.38166 0.63384 0.0
C1039 C 0.3149 0.37418 0.61359 0.0
C1040 C 0.34364 0.38627 0.65891 0.0
C1041 C 0.34475 0.39806 0.64504 0.0
C1042 C 0.35074 0.3821 0.69389 0.0
C1043 C 0.34962 0.36986 0.71118 0.0
C1044 C 0.33863 0.36559 0.72611 0.0
C1045 C 0.33763 0.35402 0.74203 0.0
C1046 C 0.34758 0.34666 0.7435 0.0
C1047 C 0.35856 0.35087 0.72916 0.0
C1048 C 0.35961 0.36243 0.71316 0.0
C1049 C 0.37155 0.4283 0.76223 0.0
C1050 C 0.38371 0.42567 0.76499 0.0
C1051 C 0.36373 0.42034 0.74245 0.0
C1052 C 0.36794 0.40968 0.72457 0.0
C1053 C 0.37999 0.40681 0.7288 0.0
C1054 C 0.38782 0.41474 0.74885 0.0
C1055 C 0.35982 0.40169 0.70041 0.0
C1056 C 0.35881 0.38985 0.71399 0.0
C1057 C 0.35284 0.4058 0.665 0.0
C1058 C 0.35406 0.41799 0.64729 0.0
C1059 C 0.36515 0.42223 0.63324 0.0
C1060 C 0.36627 0.43376 0.61703 0.0
C1061 C 0.35633 0.44112 0.6144 0.0
C1062 C 0.34525 0.43695 0.62786 0.0
C1063 C 0.34409 0.42542 0.64415 0.0
H1064 H 0.35721 0.45005 0.60185 0.0
H1065 H 0.34679 0.3377 0.75584 0.0
H1066 H 0.30701 0.62246 0.49885 0.0
H1067 H 0.32141 0.60873 0.46749 0.0
H1068 H 0.34845 0.63571 0.47458 0.0
H1069 H 0.33405 0.64958 0.50579 0.0
H1070 H 0.34796 0.62463 0.39484 0.0
H1071 H 0.34901 0.61322 0.54566 0.0
H1072 H 0.34063 0.60723 0.61684 0.0
H1073 H 0.32586 0.57595 0.55807 0.0
H1074 H 0.33401 0.58184 0.48636 0.0
H1075 H 0.3953 0.58496 0.34406 0.0
H1076 H 0.38239 0.59964 0.37862 0.0
H1077 H 0.35394 0.57408 0.38226 0.0
H1078 H 0.36683 0.5593 0.34846 0.0
H1079 H 0.35613 0.58507 0.45906 0.0
H1080 H 0.35413 0.59683 0.30793 0.0
H1081 H 0.36216 0.60281 0.23619 0.0
H1082 H 0.37842 0.63334 0.29496 0.0
H1083 H 0.37061 0.62745 0.36719 0.0
C1084 C 0.31603 0.62547 0.49402 0.0
C1085 C 0.3194 0.6371 0.50485 0.0
C1086 C 0.32426 0.61759 0.47622 0.0
C1087 C 0.33601 0.62119 0.46907 0.0
C1088 C 0.33942 0.63278 0.47994 0.0
C1089 C 0.3312 0.64067 0.4979 0.0
C1090 C 0.34461 0.6129 0.44906 0.0
C1091 C 0.34992 0.61605 0.40921 0.0
C1092 C 0.34692 0.60162 0.46742 0.0
C1093 C 0.34204 0.59803 0.51054 0.0
C1094 C 0.34389 0.60511 0.54783 0.0
C1095 C 0.3392 0.60173 0.58829 0.0
C1096 C 0.3327 0.59123 0.59195 0.0
C1097 C 0.33089 0.58409 0.55517 0.0
C1098 C 0.33556 0.58744 0.51462 0.0
C1099 C 0.38627 0.58248 0.35197 0.0
C1100 C 0.38209 0.57096 0.34354 0.0
C1101 C 0.3789 0.59089 0.3716 0.0
C1102 C 0.36719 0.58797 0.38274 0.0
C1103 C 0.36297 0.57651 0.374 0.0
C1104 C 0.37034 0.56809 0.35455 0.0
C1105 C 0.35938 0.59673 0.40451 0.0
C1106 C 0.35423 0.59366 0.44477 0.0
C1107 C 0.35719 0.60807 0.38644 0.0
C1108 C 0.36189 0.61163 0.34304 0.0
C1109 C 0.3595 0.60476 0.30562 0.0
C1110 C 0.364 0.60815 0.26485 0.0
C1111 C 0.37083 0.61843 0.26104 0.0
C1112 C 0.37315 0.62537 0.29797 0.0
C1113 C 0.36868 0.62202 0.33882 0.0
H1114 H 0.3743 0.62104 0.22945 0.0
H1115 H 0.32907 0.58862 0.62331 0.0
H1116 H 0.11894 0.57892 0.32324 0.0
H1117 H 0.13275 0.59332 0.2921 0.0
H1118 H 0.10882 0.59919 0.18395 0.0
H1119 H 0.09515 0.58457 0.21423 0.0
H1120 H 0.13008 0.59547 0.15444 0.0
H1121 H 0.11356 0.62043 0.26482 0.0
H1122 H 0.10725 0.62622 0.33908 0.0
H1123 H 0.14319 0.62353 0.38441 0.0
H1124 H 0.1497 0.61757 0.31052 0.0
H1125 H 0.16332 0.64368 0.06641 0.0
H1126 H 0.14728 0.63244 0.10103 0.0
H1127 H 0.17126 0.62102 0.20262 0.0
H1128 H 0.18734 0.63217 0.16831 0.0
H1129 H 0.14917 0.62866 0.23443 0.0
H1130 H 0.16508 0.60249 0.12382 0.0
H1131 H 0.1711 0.59701 0.04889 0.0
H1132 H 0.13551 0.60262 0.00349 0.0
H1133 H 0.12931 0.60829 0.0781 0.0
C1134 C 0.11655 0.58339 0.29314 0.0
C1135 C 0.10599 0.58056 0.27105 0.0
C1136 C 0.12443 0.59167 0.27546 0.0
C1137 C 0.12178 0.59739 0.2358 0.0
C1138 C 0.11106 0.59486 0.2145 0.0
C1139 C 0.10325 0.58651 0.2319 0.0
C1140 C 0.13056 0.60536 0.21487 0.0
C1141 C 0.13407 0.60287 0.17173 0.0
C1142 C 0.13597 0.61486 0.23767 0.0
C1143 C 0.1321 0.61845 0.28219 0.0
C1144 C 0.12011 0.62098 0.29069 0.0
C1145 C 0.1165 0.62431 0.33271 0.0
C1146 C 0.12481 0.62521 0.36647 0.0
C1147 C 0.13676 0.62281 0.35824 0.0
C1148 C 0.14041 0.61947 0.31628 0.0
C1149 C 0.16517 0.63878 0.09614 0.0
C1150 C 0.1766 0.63875 0.11451 0.0
C1151 C 0.15601 0.63238 0.11583 0.0
C1152 C 0.15813 0.62589 0.15424 0.0
C1153 C 0.16947 0.62601 0.17303 0.0
C1154 C 0.17865 0.63232 0.15321 0.0
C1155 C 0.14862 0.61871 0.17432 0.0
C1156 C 0.14504 0.62134 0.2172 0.0
C1157 C 0.14306 0.60938 0.15124 0.0
C1158 C 0.14677 0.60594 0.10642 0.0
C1159 C 0.15857 0.60265 0.09778 0.0
C1160 C 0.162 0.59949 0.05539 0.0
C1161 C 0.1537 0.5995 0.02143 0.0
C1162 C 0.14193 0.60264 0.02982 0.0
C1163 C 0.13845 0.60582 0.07215 0.0
H1164 H 0.15638 0.59705 0.98863 0.0
H1165 H 0.122 0.62779 0.39898 0.0
H1166 H 0.12744 0.44371 0.84343 0.0
H1167 H 0.14027 0.42945 0.88043 0.0
H1168 H 0.1174 0.40089 0.83925 0.0
H1169 H 0.10444 0.41513 0.80224 0.0
H1170 H 0.12288 0.39973 0.92672 0.0
H1171 H 0.14373 0.40428 0.79122 0.0
H1172 H 0.1533 0.41529 0.73114 0.0
H1173 H 0.17829 0.43024 0.82176 0.0
H1174 H 0.16876 0.41944 0.88253 0.0
H1175 H 0.16243 0.35353 0.99146 0.0
H1176 H 0.14894 0.36678 0.95245 0.0
H1177 H 0.17187 0.3964 0.9812 0.0
H1178 H 0.18554 0.38317 0.01936 0.0
H1179 H 0.16601 0.39636 0.89758 0.0
H1180 H 0.14491 0.39249 0.03343 0.0
H1181 H 0.13529 0.38179 0.09416 0.0
H1182 H 0.1108 0.36586 0.00397 0.0
H1183 H 0.12038 0.37635 0.94258 0.0
C1184 C 0.12518 0.43439 0.84188 0.0
C1185 C 0.11493 0.43055 0.81988 0.0
C1186 C 0.13254 0.42625 0.86296 0.0
C1187 C 0.12981 0.41412 0.86235 0.0
C1188 C 0.11965 0.41022 0.84006 0.0
C1189 C 0.1123 0.41836 0.81878 0.0
C1190 C 0.13738 0.40557 0.88625 0.0
C1191 C 0.13228 0.39883 0.91994 0.0
C1192 C 0.14968 0.40465 0.878 0.0
C1193 C 0.15546 0.41113 0.84149 0.0
C1194 C 0.1512 0.40999 0.7984 0.0
C1195 C 0.15664 0.41618 0.76421 0.0
C1196 C 0.16638 0.42348 0.77264 0.0
C1197 C 0.17073 0.42459 0.81528 0.0
C1198 C 0.16533 0.41843 0.84961 0.0
C1199 C 0.16453 0.36288 0.98992 0.0
C1200 C 0.17507 0.3673 0.00841 0.0
C1201 C 0.15679 0.37046 0.9677 0.0
C1202 C 0.15937 0.3826 0.96409 0.0
C1203 C 0.16974 0.38706 0.98345 0.0
C1204 C 0.17751 0.37949 0.00539 0.0
C1205 C 0.15156 0.39058 0.93849 0.0
C1206 C 0.15661 0.39721 0.90437 0.0
C1207 C 0.13923 0.39143 0.94648 0.0
C1208 C 0.13345 0.38512 0.98335 0.0
C1209 C 0.13754 0.38663 0.02649 0.0
C1210 C 0.13208 0.38062 0.06105 0.0
C1211 C 0.12246 0.37312 0.05292 0.0
C1212 C 0.11826 0.37165 0.01021 0.0
C1213 C 0.1237 0.37764 0.97553 0.0
H1214 H 0.11825 0.36848 0.07971 0.0
H1215 H 0.17058 0.42826 0.74612 0.0
H1216 H 0.23906 0.17194 0.96842 0.0
H1217 H 0.24912 0.17247 0.89761 0.0
H1218 H 0.21534 0.17061 0.83159 0.0
H1219 H 0.20523 0.16986 0.90221 0.0
H1220 H 0.2307 0.15566 0.79558 0.0
H1221 H 0.23096 0.19661 0.83652 0.0
H1222 H 0.23461 0.21378 0.88466 0.0
H1223 H 0.27189 0.20605 0.88506 0.0
H1224 H 0.26844 0.18872 0.83739 0.0
H1225 H 0.25403 0.16933 0.58428 0.0
H1226 H 0.24272 0.17055 0.65259 0.0
H1227 H 0.2753 0.17018 0.72655 0.0
H1228 H 0.28666 0.16902 0.65872 0.0
H1229 H 0.25975 0.18696 0.75659 0.0
H1230 H 0.2592 0.1455 0.7183 0.0
H1231 H 0.25548 0.12839 0.66993 0.0
H1232 H 0.21851 0.13735 0.66419 0.0
H1233 H 0.22204 0.15463 0.71208 0.0
C1234 C 0.23376 0.1717 0.93886 0.0
C1235 C 0.22134 0.17088 0.94097 0.0
C1236 C 0.23952 0.17205 0.89839 0.0
C1237 C 0.23297 0.17172 0.8593 0.0
C1238 C 0.22057 0.1709 0.86134 0.0
C1239 C 0.21481 0.1705 0.90176 0.0
C1240 C 0.23905 0.17192 0.81629 0.0
C1241 C 0.23691 0.16262 0.78677 0.0
C1242 C 0.24731 0.18087 0.80513 0.0
C1243 C 0.24943 0.1913 0.8337 0.0
C1244 C 0.23993 0.19851 0.84715 0.0
C1245 C 0.24196 0.20828 0.8743 0.0
C1246 C 0.25347 0.21098 0.888 0.0
C1247 C 0.26298 0.20394 0.87447 0.0
C1248 C 0.26099 0.19415 0.84734 0.0
C1249 C 0.25878 0.16955 0.61508 0.0
C1250 C 0.27124 0.16904 0.61608 0.0
C1251 C 0.25231 0.17021 0.65405 0.0
C1252 C 0.25819 0.17037 0.69459 0.0
C1253 C 0.27061 0.17008 0.6956 0.0
C1254 C 0.27707 0.16936 0.65677 0.0
C1255 C 0.25144 0.17069 0.73614 0.0
C1256 C 0.25348 0.18007 0.76536 0.0
C1257 C 0.24306 0.16184 0.74699 0.0
C1258 C 0.24091 0.15143 0.71836 0.0
C1259 C 0.25029 0.14388 0.70642 0.0
C1260 C 0.24821 0.13415 0.67916 0.0
C1261 C 0.23677 0.13181 0.66389 0.0
C1262 C 0.22737 0.13919 0.67598 0.0
C1263 C 0.22941 0.14895 0.7032 0.0
H1264 H 0.23518 0.12427 0.64279 0.0
H1265 H 0.25503 0.21855 0.90902 0.0
H1266 H 0.07972 0.98779 0.23131 0.0
H1267 H 0.07936 0.99835 0.16146 0.0
H1268 H 0.08243 0.9651 0.09243 0.0
H1269 H 0.08324 0.95455 0.16213 0.0
H1270 H 0.09617 0.98041 0.05575 0.0
H1271 H 0.05566 0.98065 0.10027 0.0
H1272 H 0.03874 0.98395 0.14987 0.0
H1273 H 0.04638 0.02124 0.15273 0.0
H1274 H 0.06346 0.01813 0.10363 0.0
H1275 H 0.07858 0.00428 0.84781 0.0
H1276 H 0.07828 0.99297 0.91635 0.0
H1277 H 0.08331 0.02525 0.98965 0.0
H1278 H 0.08377 0.0366 0.9215 0.0
H1279 H 0.06488 0.00996 0.0221 0.0
H1280 H 0.10604 0.00865 0.97699 0.0
H1281 H 0.12225 0.00451 0.92504 0.0
H1282 H 0.11202 0.96786 0.9202 0.0
H1283 H 0.09563 0.97183 0.97168 0.0
C1284 C 0.08031 0.98274 0.20124 0.0
C1285 C 0.08148 0.97034 0.20222 0.0
C1286 C 0.08004 0.98878 0.16131 0.0
C1287 C 0.08067 0.98251 0.12159 0.0
C1288 C 0.08192 0.97013 0.12258 0.0
C1289 C 0.08236 0.96411 0.16248 0.0
C1290 C 0.08022 0.98886 0.07903 0.0
C1291 C 0.08922 0.98674 0.04823 0.0
C1292 C 0.07122 0.99722 0.06922 0.0
C1293 C 0.06092 -0.00086 0.09858 0.0
C1294 C 0.05379 0.98954 0.11172 0.0
C1295 C 0.04416 0.99138 0.13972 0.0
C1296 C 0.0415 0.00279 0.15452 0.0
C1297 C 0.04846 0.0124 0.14127 0.0
C1298 C 0.05811 0.01061 0.11333 0.0
C1299 C 0.07961 0.00896 0.87853 0.0
C1300 C 0.08124 0.02132 0.87927 0.0
C1301 C 0.07945 0.00249 0.91758 0.0
C1302 C 0.0808 0.0083 0.95792 0.0
C1303 C 0.08225 0.02064 0.95879 0.0
C1304 C 0.08257 0.02708 0.91981 0.0
C1305 C 0.08084 0.00152 -0.00065 0.0
C1306 C 0.07177 0.00358 0.02979 0.0
C1307 C 0.08964 0.99296 0.00852 0.0
C1308 C 0.09954 0.99056 0.9778 0.0
C1309 C 0.10718 -0.00027 0.96455 0.0
C1310 C 0.11642 0.99741 0.93525 0.0
C1311 C 0.11814 0.98594 0.91923 0.0
C1312 C 0.11066 0.97675 0.93258 0.0
C1313 C 0.10141 0.97902 0.96184 0.0
H1314 H 0.1253 0.98416 0.89655 0.0
H1315 H 0.03405 0.0042 0.1762 0.0
H1316 H 0.22968 0.83615 0.14045 0.0
H1317 H 0.24345 0.83452 0.20183 0.0
H1318 H 0.22505 0.80331 0.24721 0.0
H1319 H 0.21107 0.80503 0.18638 0.0
H1320 H 0.22884 0.818 0.31278 0.0
H1321 H 0.25267 0.80151 0.19889 0.0
H1322 H 0.26228 0.80066 0.12646 0.0
H1323 H 0.28204 0.83218 0.15637 0.0
H1324 H 0.27243 0.83331 0.22879 0.0
H1325 H 0.27212 0.805 0.47551 0.0
H1326 H 0.25987 0.80315 0.40969 0.0
H1327 H 0.27395 0.83617 0.36105 0.0
H1328 H 0.28623 0.83809 0.42657 0.0
H1329 H 0.27261 0.81888 0.29692 0.0
H1330 H 0.24758 0.83594 0.40854 0.0
H1331 H 0.23798 0.83669 0.48099 0.0
H1332 H 0.22047 0.80363 0.4547 0.0
H1333 H 0.23012 0.80261 0.3823 0.0
C1334 C 0.22862 0.82888 0.16327 0.0
C1335 C 0.21927 0.82072 0.15857 0.0
C1336 C 0.23653 0.82792 0.19825 0.0
C1337 C 0.23536 0.81871 0.22887 0.0
C1338 C 0.22613 0.81048 0.22395 0.0
C1339 C 0.21816 0.81147 0.18911 0.0
C1340 C 0.24342 0.81803 0.26718 0.0
C1341 C 0.23841 0.81796 0.30924 0.0
C1342 C 0.25591 0.81822 0.26262 0.0
C1343 C 0.26175 0.81754 0.21915 0.0
C1344 C 0.259 0.80831 0.18991 0.0
C1345 C 0.26446 0.80777 0.14887 0.0
C1346 C 0.27274 0.81637 0.13679 0.0
C1347 C 0.27561 0.82552 0.16577 0.0
C1348 C 0.27018 0.82611 0.20684 0.0
C1349 C 0.27265 0.81184 0.45074 0.0
C1350 C 0.28007 0.82174 0.45642 0.0
C1351 C 0.26564 0.81078 0.4132 0.0
C1352 C 0.26595 0.81958 0.38075 0.0
C1353 C 0.2736 0.82929 0.38574 0.0
C1354 C 0.28056 0.83039 0.42331 0.0
C1355 C 0.258 0.81893 0.34224 0.0
C1356 C 0.26304 0.81878 0.30026 0.0
C1357 C 0.24553 0.8185 0.34681 0.0
C1358 C 0.23968 0.81913 0.39023 0.0
C1359 C 0.24176 0.82878 0.41836 0.0
C1360 C 0.2363 0.82926 0.45939 0.0
C1361 C 0.22864 0.82019 0.47249 0.0
C1362 C 0.22642 0.81064 0.44454 0.0
C1363 C 0.23188 0.81011 0.4035 0.0
H1364 H 0.22442 0.82058 0.50427 0.0
H1365 H 0.27696 0.81594 0.105 0.0
H1366 H 0.40899 0.03672 0.66689 0.0
H1367 H 0.4093 0.02386 0.60271 0.0
H1368 H 0.44046 0.00623 0.65245 0.0
H1369 H 0.44038 0.01927 0.71648 0.0
H1370 H 0.44237 0.01011 0.56621 0.0
H1371 H 0.4131 0.99354 0.66196 0.0
H1372 H 0.39538 0.99376 0.70922 0.0
H1373 H 0.37386 0.00416 0.5998 0.0
H1374 H 0.39148 0.00417 0.552 0.0
H1375 H 0.43766 0.95868 0.43116 0.0
H1376 H 0.4387 0.97236 0.49317 0.0
H1377 H 0.40871 0.99167 0.44228 0.0
H1378 H 0.40755 0.97801 0.38027 0.0
H1379 H 0.40645 0.98673 0.52943 0.0
H1380 H 0.43601 0.0031 0.43369 0.0
H1381 H 0.45384 0.00262 0.38708 0.0
H1382 H 0.47496 0.99208 0.4974 0.0
H1383 H 0.45721 0.99234 0.54457 0.0
C1384 C 0.41593 0.03013 0.66419 0.0
C1385 C 0.42461 0.02895 0.69697 0.0
C1386 C 0.41607 0.02276 0.62753 0.0
C1387 C 0.42478 0.01395 0.62317 0.0
C1388 C 0.43363 0.01294 0.65527 0.0
C1389 C 0.43355 0.02038 0.69189 0.0
C1390 C 0.42452 0.00571 0.58538 0.0
C1391 C 0.43458 0.00487 0.55849 0.0
C1392 C 0.41427 0.99904 0.57489 0.0
C1393 C 0.40363 0.99896 0.60349 0.0
C1394 C 0.4046 0.99596 0.64804 0.0
C1395 C 0.39457 0.99603 0.67492 0.0
C1396 C 0.3835 0.999 0.65755 0.0
C1397 C 0.38244 0.00188 0.61323 0.0
C1398 C 0.39244 0.00183 0.58621 0.0
C1399 C 0.43131 0.96586 0.43305 0.0
C1400 C 0.42252 0.96726 0.40081 0.0
C1401 C 0.43195 0.97369 0.46841 0.0
C1402 C 0.42383 0.98306 0.4721 0.0
C1403 C 0.41506 0.98449 0.43997 0.0
C1404 C 0.41444 0.9767 0.40451 0.0
C1405 C 0.42426 0.99119 0.51015 0.0
C1406 C 0.41424 0.99197 0.53716 0.0
C1407 C 0.43456 0.99774 0.52083 0.0
C1408 C 0.44525 0.99762 0.49256 0.0
C1409 C 0.44444 0.00059 0.44794 0.0
C1410 C 0.45453 0.00037 0.42143 0.0
C1411 C 0.46552 0.99729 0.43924 0.0
C1412 C 0.46644 0.99445 0.48363 0.0
C1413 C 0.45636 0.99464 0.51028 0.0
H1414 H 0.47333 0.99714 0.41866 0.0
H1415 H 0.37575 0.99906 0.67841 0.0
H1416 H 0.78315 0.84009 0.17133 0.0
H1417 H 0.76941 0.84061 0.23313 0.0
H1418 H 0.74531 0.81772 0.16323 0.0
H1419 H 0.75898 0.81718 0.10108 0.0
H1420 H 0.7339 0.8364 0.20362 0.0
H1421 H 0.76232 0.80633 0.24138 0.0
H1422 H 0.78235 0.7982 0.25345 0.0
H1423 H 0.78874 0.82424 0.35328 0.0
H1424 H 0.76879 0.83263 0.34137 0.0
H1425 H 0.69781 0.81917 0.38305 0.0
H1426 H 0.71105 0.81939 0.31977 0.0
H1427 H 0.7363 0.84035 0.39244 0.0
H1428 H 0.72321 0.84 0.45614 0.0
H1429 H 0.74711 0.82276 0.35019 0.0
H1430 H 0.71884 0.85285 0.31345 0.0
H1431 H 0.69894 0.86128 0.30149 0.0
H1432 H 0.69235 0.83572 0.20014 0.0
H1433 H 0.71217 0.82703 0.21191 0.0
C1434 C 0.77491 0.83519 0.169 0.0
C1435 C 0.77218 0.82854 0.13138 0.0
C1436 C 0.76709 0.83547 0.20441 0.0
C1437 C 0.75641 0.8291 0.20287 0.0
C1438 C 0.75353 0.82267 0.16504 0.0
C1439 C 0.76137 0.82234 0.12965 0.0
C1440 C 0.74832 0.82905 0.24101 0.0
C1441 C 0.73672 0.83328 0.23557 0.0
C1442 C 0.75213 0.82524 0.28284 0.0
C1443 C 0.76411 0.82018 0.29017 0.0
C1444 C 0.76803 0.81038 0.26566 0.0
C1445 C 0.77936 0.80572 0.27251 0.0
C1446 C 0.78682 0.81072 0.30403 0.0
C1447 C 0.78295 0.82038 0.32884 0.0
C1448 C 0.77163 0.82509 0.32207 0.0
C1449 C 0.70617 0.82385 0.38556 0.0
C1450 C 0.70945 0.82958 0.4246 0.0
C1451 C 0.7137 0.82401 0.34929 0.0
C1452 C 0.7246 0.83 0.35124 0.0
C1453 C 0.72792 0.83568 0.39023 0.0
C1454 C 0.72042 0.83549 0.42656 0.0
C1455 C 0.73266 0.83014 0.31292 0.0
C1456 C 0.74427 0.82591 0.31829 0.0
C1457 C 0.72887 0.83399 0.2711 0.0
C1458 C 0.71695 0.83921 0.26387 0.0
C1459 C 0.71311 0.84896 0.28886 0.0
C1460 C 0.70185 0.8538 0.28206 0.0
C1461 C 0.69437 0.84902 0.25016 0.0
C1462 C 0.69815 0.83941 0.22489 0.0
C1463 C 0.7094 0.83453 0.23158 0.0
H1464 H 0.68565 0.85278 0.24494 0.0
H1465 H 0.79559 0.8071 0.30929 0.0
H1466 H 0.93049 0.05171 0.94682 0.0
H1467 H 0.93097 0.03987 0.01391 0.0
H1468 H 0.90745 0.01428 0.95484 0.0
H1469 H 0.90686 0.02607 0.88782 0.0
H1470 H 0.90091 0.01982 0.03855 0.0
H1471 H 0.93661 0.00871 0.96166 0.0
H1472 H 0.95569 0.01245 0.92476 0.0
H1473 H 0.9696 0.0279 0.04257 0.0
H1474 H 0.95053 0.02439 0.08 0.0
H1475 H 0.90811 0.96916 0.16937 0.0
H1476 H 0.90798 0.98348 0.10965 0.0
H1477 H 0.93244 0.0057 0.18086 0.0
H1478 H 0.93276 0.99128 0.24082 0.0
H1479 H 0.93875 0.00354 0.09573 0.0
H1480 H 0.90359 0.01332 0.17452 0.0
H1481 H 0.88457 0.00951 0.21167 0.0
H1482 H 0.86962 0.99678 0.0912 0.0
H1483 H 0.88861 0.00036 0.05344 0.0
C1484 C 0.92541 0.04357 0.94812 0.0
C1485 C 0.91867 0.0398 0.91195 0.0
C1486 C 0.92572 0.03681 0.98643 0.0
C1487 C 0.91932 0.02617 0.98916 0.0
C1488 C 0.91245 0.02248 0.95336 0.0
C1489 C 0.91216 0.02921 0.91504 0.0
C1490 C 0.9198 0.01878 0.02917 0.0
C1491 C 0.90917 0.01617 0.05088 0.0
C1492 C 0.93063 0.01433 0.04589 0.0
C1493 C 0.9421 0.01641 0.02347 0.0
C1494 C 0.9437 0.013 0.97958 0.0
C1495 C 0.95452 0.01506 0.95859 0.0
C1496 C 0.96384 0.02044 0.98127 0.0
C1497 C 0.96237 0.02375 0.02502 0.0
C1498 C 0.95156 0.02172 0.04615 0.0
C1499 C 0.91347 0.97709 0.17246 0.0
C1500 C 0.92043 0.9791 0.20993 0.0
C1501 C 0.91333 0.9853 0.13834 0.0
C1502 C 0.92007 0.99573 0.1411 0.0
C1503 C 0.92714 0.99772 0.1782 0.0
C1504 C 0.92729 0.98949 0.21243 0.0
C1505 C 0.91982 0.00441 0.10474 0.0
C1506 C 0.9305 0.00728 0.08372 0.0
C1507 C 0.90904 0.00913 0.08869 0.0
C1508 C 0.89756 0.00703 0.11122 0.0
C1509 C 0.89627 0.00963 0.15601 0.0
C1510 C 0.88549 0.00752 0.17717 0.0
C1511 C 0.8759 0.00288 0.15383 0.0
C1512 C 0.87706 0.00037 0.10925 0.0
C1513 C 0.88783 0.00245 0.08793 0.0
H1514 H 0.86756 0.00125 0.17028 0.0
H1515 H 0.97221 0.02203 0.96496 0.0
H1516 H 0.79221 0.16847 0.91533 0.0
H1517 H 0.78136 0.16836 0.84622 0.0
H1518 H 0.74828 0.17108 0.9164 0.0
H1519 H 0.75907 0.17103 0.98592 0.0
H1520 H 0.74729 0.15433 0.85347 0.0
H1521 H 0.75969 0.1949 0.86316 0.0
H1522 H 0.77402 0.21121 0.8729 0.0
H1523 H 0.7932 0.19958 0.75934 0.0
H1524 H 0.77908 0.18309 0.74929 0.0
H1525 H 0.71071 0.16741 0.67248 0.0
H1526 H 0.72163 0.16885 0.74119 0.0
H1527 H 0.75469 0.16581 0.67109 0.0
H1528 H 0.74382 0.16454 0.60184 0.0
H1529 H 0.75569 0.18289 0.73389 0.0
H1530 H 0.74348 0.14221 0.72476 0.0
H1531 H 0.7292 0.12587 0.71499 0.0
H1532 H 0.70975 0.13767 0.82766 0.0
H1533 H 0.72381 0.1542 0.83773 0.0
C1534 C 0.78262 0.16911 0.91615 0.0
C1535 C 0.77649 0.16978 0.95617 0.0
C1536 C 0.77644 0.16909 0.87656 0.0
C1537 C 0.76403 0.16984 0.87617 0.0
C1538 C 0.75788 0.17051 0.91602 0.0
C1539 C 0.76405 0.17052 0.9557 0.0
C1540 C 0.75747 0.16961 0.83414 0.0
C1541 C 0.74899 0.16068 0.82757 0.0
C1542 C 0.75993 0.17772 0.79997 0.0
C1543 C 0.76839 0.18769 0.80572 0.0
C1544 C 0.76702 0.19577 0.84045 0.0
C1545 C 0.77509 0.20505 0.846 0.0
C1546 C 0.78453 0.20641 0.81682 0.0
C1547 C 0.78589 0.19851 0.78195 0.0
C1548 C 0.77785 0.1892 0.77629 0.0
C1549 C 0.72032 0.16707 0.67156 0.0
C1550 C 0.72641 0.16579 0.63167 0.0
C1551 C 0.72653 0.16786 0.71093 0.0
C1552 C 0.73896 0.16728 0.71128 0.0
C1553 C 0.74509 0.16625 0.6715 0.0
C1554 C 0.73887 0.16548 0.63199 0.0
C1555 C 0.7455 0.16763 0.75332 0.0
C1556 C 0.75398 0.17656 0.75985 0.0
C1557 C 0.74305 0.15951 0.78748 0.0
C1558 C 0.73464 0.14951 0.78175 0.0
C1559 C 0.73611 0.14137 0.74727 0.0
C1560 C 0.72806 0.13207 0.7417 0.0
C1561 C 0.71856 0.13075 0.77062 0.0
C1562 C 0.7171 0.13871 0.80525 0.0
C1563 C 0.72512 0.14804 0.81093 0.0
H1564 H 0.71233 0.12354 0.76624 0.0
H1565 H 0.79078 0.2136 0.82118 0.0
H1566 H 0.58437 0.02132 0.68514 0.0
H1567 H 0.58437 0.00977 0.61759 0.0
H1568 H 0.5721 0.04031 0.54574 0.0
H1569 H 0.57195 0.05196 0.6134 0.0
H1570 H 0.56033 0.02006 0.52199 0.0
H1571 H 0.60061 0.03254 0.53924 0.0
H1572 H 0.61951 0.0354 0.57845 0.0
H1573 H 0.62304 0.99774 0.59417 0.0
H1574 H 0.60407 0.99466 0.55559 0.0
H1575 H 0.57245 0.99291 0.3149 0.0
H1576 H 0.57231 0.00682 0.37649 0.0
H1577 H 0.58557 0.97935 0.4617 0.0
H1578 H 0.58591 0.96549 0.40049 0.0
H1579 H 0.59717 -0.00027 0.47464 0.0
H1580 H 0.55638 0.9873 0.46201 0.0
H1581 H 0.53741 0.98427 0.42338 0.0
H1582 H 0.53483 0.02169 0.3993 0.0
H1583 H 0.55389 0.02491 0.43726 0.0
C1584 C 0.58164 0.0256 0.65503 0.0
C1585 C 0.57822 0.03758 0.6546 0.0
C1586 C 0.58169 0.01899 0.61642 0.0
C1587 C 0.57839 0.02424 0.5766 0.0
C1588 C 0.57471 0.03612 0.57614 0.0
C1589 C 0.57467 0.04275 0.61481 0.0
C1590 C 0.57887 0.01729 0.5355 0.0
C1591 C 0.56843 0.01577 0.51117 0.0
C1592 C 0.5894 0.01157 0.52186 0.0
C1593 C 0.60087 0.01338 0.54482 0.0
C1594 C 0.60538 0.02487 0.55133 0.0
C1595 C 0.61611 0.02653 0.5734 0.0
C1596 C 0.62246 0.01676 0.58887 0.0
C1597 C 0.61811 0.0053 0.5822 0.0
C1598 C 0.60737 0.00359 0.56019 0.0
C1599 C 0.57533 0.98984 0.34677 0.0
C1600 C 0.57915 0.97809 0.35284 0.0
C1601 C 0.57522 0.99779 0.38193 0.0
C1602 C 0.57884 0.99408 0.42374 0.0
C1603 C 0.58275 0.98239 0.42971 0.0
C1604 C 0.5829 0.97447 0.39466 0.0
C1605 C 0.57858 0.0023 0.46155 0.0
C1606 C 0.5891 0.00409 0.48522 0.0
C1607 C 0.56811 0.00825 0.47458 0.0
C1608 C 0.55662 0.00633 0.45205 0.0
C1609 C 0.55181 0.99487 0.44818 0.0
C1610 C 0.54104 0.99312 0.42645 0.0
C1611 C 0.53494 0.00278 0.40879 0.0
C1612 C 0.53958 0.01422 0.41293 0.0
C1613 C 0.55036 0.01601 0.43457 0.0
H1614 H 0.5266 0.00141 0.39198 0.0
H1615 H 0.63077 0.01806 0.60595 0.0
H1616 H 0.72183 0.65301 0.47872 0.0
H1617 H 0.7359 0.65363 0.418 0.0
H1618 H 0.72034 0.68639 0.37308 0.0
H1619 H 0.70603 0.68566 0.43305 0.0
H1620 H 0.72394 0.6721 0.30649 0.0
H1621 H 0.74725 0.68561 0.42801 0.0
H1622 H 0.75579 0.68462 0.50224 0.0
H1623 H 0.77384 0.65235 0.46886 0.0
H1624 H 0.76526 0.65305 0.39458 0.0
H1625 H 0.76998 0.69002 0.16318 0.0
H1626 H 0.75653 0.68906 0.22579 0.0
H1627 H 0.76934 0.65401 0.25651 0.0
H1628 H 0.78282 0.65486 0.19374 0.0
H1629 H 0.76738 0.66914 0.33009 0.0
H1630 H 0.74394 0.65602 0.20784 0.0
H1631 H 0.73545 0.65746 0.13363 0.0
H1632 H 0.71779 0.68979 0.16894 0.0
H1633 H 0.72632 0.68864 0.24322 0.0
C1634 C 0.72142 0.66036 0.45598 0.0
C1635 C 0.71283 0.6693 0.4607 0.0
C1636 C 0.72951 0.66073 0.42138 0.0
C1637 C 0.72928 0.67014 0.39131 0.0
C1638 C 0.72068 0.67905 0.39591 0.0
C1639 C 0.71253 0.67863 0.43025 0.0
C1640 C 0.73786 0.6706 0.35457 0.0
C1641 C 0.73344 0.67162 0.31176 0.0
C1642 C 0.75025 0.66971 0.36133 0.0
C1643 C 0.75552 0.66932 0.40585 0.0
C1644 C 0.75297 0.67826 0.43659 0.0
C1645 C 0.75783 0.67776 0.47866 0.0
C1646 C 0.76533 0.66841 0.4903 0.0
C1647 C 0.76802 0.65958 0.45982 0.0
C1648 C 0.76317 0.66002 0.41772 0.0
C1649 C 0.76998 0.68212 0.1833 0.0
C1650 C 0.77743 0.67249 0.17341 0.0
C1651 C 0.76227 0.68158 0.21898 0.0
C1652 C 0.76191 0.67143 0.24549 0.0
C1653 C 0.76951 0.66191 0.23635 0.0
C1654 C 0.77715 0.6624 0.20041 0.0
C1655 C 0.75343 0.67071 0.28232 0.0
C1656 C 0.75787 0.66963 0.32501 0.0
C1657 C 0.74107 0.67163 0.27553 0.0
C1658 C 0.73586 0.6723 0.23096 0.0
C1659 C 0.73832 0.66349 0.19968 0.0
C1660 C 0.73349 0.66424 0.15762 0.0
C1661 C 0.72611 0.67372 0.14654 0.0
C1662 C 0.72352 0.68246 0.17755 0.0
C1663 C 0.72834 0.68175 0.21965 0.0
H1664 H 0.72238 0.67429 0.11396 0.0
H1665 H 0.76907 0.66804 0.52291 0.0
H1666 H 0.5837 0.52338 0.37047 0.0
H1667 H 0.58173 0.51081 0.43512 0.0
H1668 H 0.56542 0.53968 0.50547 0.0
H1669 H 0.56745 0.55238 0.44097 0.0
H1670 H 0.58222 0.52871 0.55427 0.0
H1671 H 0.54859 0.51727 0.47016 0.0
H1672 H 0.53771 0.51086 0.40428 0.0
H1673 H 0.55789 0.47861 0.40071 0.0
H1674 H 0.56903 0.4849 0.46624 0.0
H1675 H 0.56515 0.49146 0.73239 0.0
H1676 H 0.5638 0.50493 0.66974 0.0
H1677 H 0.58192 0.47932 0.58903 0.0
H1678 H 0.5833 0.46581 0.65131 0.0
H1679 H 0.56245 0.48943 0.54757 0.0
H1680 H 0.59694 0.502 0.62957 0.0
H1681 H 0.6075 0.50868 0.69583 0.0
H1682 H 0.58488 0.53922 0.7039 0.0
H1683 H 0.57407 0.53263 0.63799 0.0
C1684 C 0.57968 0.52706 0.39964 0.0
C1685 C 0.57572 0.53888 0.40058 0.0
C1686 C 0.57851 0.51985 0.4365 0.0
C1687 C 0.57332 0.52428 0.47492 0.0
C1688 C 0.56943 0.53609 0.47609 0.0
C1689 C 0.57057 0.54332 0.43918 0.0
C1690 C 0.5722 0.51662 0.51406 0.0
C1691 C 0.57771 0.52021 0.55305 0.0
C1692 C 0.56645 0.50548 0.51222 0.0
C1693 C 0.55972 0.50161 0.47293 0.0
C1694 C 0.55078 0.50885 0.45515 0.0
C1695 C 0.54455 0.50523 0.41789 0.0
C1696 C 0.54712 0.49435 0.39827 0.0
C1697 C 0.55592 0.48704 0.41593 0.0
C1698 C 0.56218 0.49063 0.45317 0.0
C1699 C 0.5688 0.48867 0.70126 0.0
C1700 C 0.57439 0.47759 0.69686 0.0
C1701 C 0.56804 0.49638 0.66556 0.0
C1702 C 0.57284 0.49313 0.6249 0.0
C1703 C 0.57816 0.48198 0.62016 0.0
C1704 C 0.57899 0.4743 0.65585 0.0
C1705 C 0.57261 0.50146 0.58747 0.0
C1706 C 0.56685 0.49798 0.54884 0.0
C1707 C 0.57806 0.51274 0.58972 0.0
C1708 C 0.58461 0.51675 0.62915 0.0
C1709 C 0.59415 0.51009 0.64568 0.0
C1710 C 0.6002 0.51387 0.68314 0.0
C1711 C 0.59684 0.52435 0.70414 0.0
C1712 C 0.58746 0.53109 0.68764 0.0
C1713 C 0.58137 0.52734 0.65023 0.0
H1714 H 0.60153 0.52726 0.73313 0.0
H1715 H 0.54229 0.49156 0.36943 0.0
H1716 H 0.7285 0.30537 0.64912 0.0
H1717 H 0.74196 0.30604 0.71167 0.0
H1718 H 0.7317 0.34223 0.73707 0.0
H1719 H 0.71832 0.34171 0.67407 0.0
H1720 H 0.75541 0.33946 0.74278 0.0
H1721 H 0.72091 0.31977 0.7993 0.0
H1722 H 0.7051 0.30467 0.80061 0.0
H1723 H 0.73122 0.27711 0.81031 0.0
H1724 H 0.7472 0.29204 0.80845 0.0
H1725 H 0.77756 0.34423 0.95931 0.0
H1726 H 0.76425 0.34318 0.89626 0.0
H1727 H 0.777 0.30801 0.86699 0.0
H1728 H 0.7904 0.30899 0.92999 0.0
H1729 H 0.75226 0.31008 0.86317 0.0
H1730 H 0.78671 0.32965 0.80676 0.0
H1731 H 0.80258 0.34467 0.80616 0.0
H1732 H 0.77659 0.37238 0.79685 0.0
H1733 H 0.76054 0.3575 0.79793 0.0
C1734 C 0.72909 0.31348 0.66799 0.0
C1735 C 0.7223 0.32348 0.65673 0.0
C1736 C 0.73676 0.31383 0.70383 0.0
C1737 C 0.73772 0.32414 0.7293 0.0
C1738 C 0.73107 0.33418 0.71786 0.0
C1739 C 0.7234 0.33385 0.68195 0.0
C1740 C 0.74571 0.32446 0.7678 0.0
C1741 C 0.75462 0.33313 0.76938 0.0
C1742 C 0.74485 0.31602 0.80197 0.0
C1743 C 0.73525 0.30702 0.8033 0.0
C1744 C 0.72328 0.31049 0.80137 0.0
C1745 C 0.71429 0.30196 0.80227 0.0
C1746 C 0.71715 0.28994 0.80543 0.0
C1747 C 0.72902 0.28642 0.80781 0.0
C1748 C 0.73804 0.29492 0.80687 0.0
C1749 C 0.77752 0.33625 0.93956 0.0
C1750 C 0.78506 0.3267 0.94952 0.0
C1751 C 0.76994 0.33569 0.90349 0.0
C1752 C 0.76974 0.32556 0.87687 0.0
C1753 C 0.77707 0.31591 0.88717 0.0
C1754 C 0.78473 0.31651 0.92305 0.0
C1755 C 0.7619 0.32509 0.83812 0.0
C1756 C 0.75303 0.31639 0.83651 0.0
C1757 C 0.7628 0.33349 0.80395 0.0
C1758 C 0.77242 0.34247 0.80288 0.0
C1759 C 0.78437 0.33895 0.80494 0.0
C1760 C 0.7934 0.34744 0.80445 0.0
C1761 C 0.7906 0.35948 0.80163 0.0
C1762 C 0.77875 0.36305 0.7991 0.0
C1763 C 0.76968 0.35459 0.7996 0.0
H1764 H 0.7976 0.36604 0.8013 0.0
H1765 H 0.71018 0.28335 0.80612 0.0
H1766 H 0.93693 0.50784 0.21884 0.0
H1767 H 0.93822 0.49326 0.15967 0.0
H1768 H 0.90356 0.50368 0.11395 0.0
H1769 H 0.90216 0.51822 0.17298 0.0
H1770 H 0.90678 0.47936 0.11293 0.0
H1771 H 0.92758 0.51463 0.06552 0.0
H1772 H 0.94262 0.53041 0.07209 0.0
H1773 H 0.97029 0.50426 0.07349 0.0
H1774 H 0.95539 0.48832 0.06753 0.0
H1775 H 0.90604 0.46303 0.88938 0.0
H1776 H 0.90578 0.47344 0.95953 0.0
H1777 H 0.94083 0.46031 0.98842 0.0
H1778 H 0.94116 0.44979 0.91825 0.0
H1779 H 0.93871 0.48425 0.0027 0.0
H1780 H 0.91837 0.44907 0.04205 0.0
H1781 H 0.90363 0.43296 0.03891 0.0
H1782 H 0.87548 0.45819 0.0548 0.0
H1783 H 0.89003 0.47451 0.05719 0.0
C1784 C 0.92953 0.50695 0.19644 0.0
C1785 C 0.91948 0.51425 0.20038 0.0
C1786 C 0.9303 0.49864 0.16262 0.0
C1787 C 0.92103 0.49749 0.13223 0.0
C1788 C 0.91081 0.50444 0.13708 0.0
C1789 C 0.91005 0.51278 0.17072 0.0
C1790 C 0.92215 0.48945 0.09419 0.0
C1791 C 0.91369 0.48047 0.08857 0.0
C1792 C 0.9314 0.4907 0.06327 0.0
C1793 C 0.94037 0.50028 0.06659 0.0
C1794 C 0.93686 0.51224 0.06759 0.0
C1795 C 0.94536 0.52122 0.07114 0.0
C1796 C 0.9574 0.51834 0.07335 0.0
C1797 C 0.96096 0.50648 0.07187 0.0
C1798 C 0.95249 0.49747 0.06838 0.0
C1799 C 0.91369 0.46233 0.91066 0.0
C1800 C 0.92364 0.45561 0.89825 0.0
C1801 C 0.91349 0.46822 0.95086 0.0
C1802 C 0.92324 0.46755 0.97928 0.0
C1803 C 0.9332 0.46089 0.96696 0.0
C1804 C 0.93337 0.45489 0.92692 0.0
C1805 C 0.92319 0.47427 0.02091 0.0
C1806 C 0.93186 0.48303 0.0272 0.0
C1807 C 0.91414 0.47277 0.0525 0.0
C1808 C 0.90531 0.46304 0.04945 0.0
C1809 C 0.90903 0.45121 0.0443 0.0
C1810 C 0.90071 0.44204 0.04281 0.0
C1811 C 0.88863 0.44455 0.0468 0.0
C1812 C 0.88484 0.45626 0.05186 0.0
C1813 C 0.89312 0.46548 0.05325 0.0
H1814 H 0.88221 0.43742 0.04599 0.0
H1815 H 0.96396 0.5253 0.07609 0.0
H1816 H 0.25561 0.32294 0.59973 0.0
H1817 H 0.24416 0.32212 0.66794 0.0
H1818 H 0.27627 0.32675 0.74262 0.0
H1819 H 0.28775 0.32782 0.67476 0.0
H1820 H 0.25962 0.30815 0.77369 0.0
H1821 H 0.26142 0.34965 0.73065 0.0
H1822 H 0.25861 0.36611 0.67856 0.0
H1823 H 0.22146 0.35805 0.67009 0.0
H1824 H 0.22411 0.34141 0.72166 0.0
H1825 H 0.23819 0.32459 0.98283 0.0
H1826 H 0.24877 0.32288 0.91325 0.0
H1827 H 0.21618 0.32959 0.84329 0.0
H1828 H 0.20572 0.33184 0.9127 0.0
H1829 H 0.23252 0.34159 0.80721 0.0
H1830 H 0.2294 0.3012 0.85108 0.0
H1831 H 0.23122 0.28397 0.90027 0.0
H1832 H 0.26902 0.2884 0.90366 0.0
H1833 H 0.26742 0.30578 0.85501 0.0
C1834 C 0.26023 0.32369 0.6307 0.0
C1835 C 0.27255 0.32551 0.63197 0.0
C1836 C 0.25369 0.32323 0.66953 0.0
C1837 C 0.2594 0.32439 0.71013 0.0
C1838 C 0.27174 0.32581 0.71154 0.0
C1839 C 0.27825 0.32649 0.67277 0.0
C1840 C 0.25248 0.32474 0.75116 0.0
C1841 C 0.25375 0.31548 0.78138 0.0
C1842 C 0.24459 0.33415 0.76026 0.0
C1843 C 0.24299 0.34421 0.7296 0.0
C1844 C 0.25268 0.35132 0.71737 0.0
C1845 C 0.25111 0.3607 0.688 0.0
C1846 C 0.23987 0.3631 0.67092 0.0
C1847 C 0.23017 0.35616 0.68329 0.0
C1848 C 0.2317 0.34676 0.71259 0.0
C1849 C 0.23329 0.32566 0.95258 0.0
C1850 C 0.22114 0.32836 0.95318 0.0
C1851 C 0.23933 0.32461 0.9128 0.0
C1852 C 0.23325 0.32593 0.87288 0.0
C1853 C 0.22108 0.32855 0.87356 0.0
C1854 C 0.2151 0.32982 0.91328 0.0
C1855 C 0.23962 0.32497 0.83043 0.0
C1856 C 0.23828 0.33416 0.79976 0.0
C1857 C 0.24726 0.31535 0.82061 0.0
C1858 C 0.24828 0.30486 0.8497 0.0
C1859 C 0.2381 0.29855 0.86257 0.0
C1860 C 0.23909 0.28875 0.89032 0.0
C1861 C 0.25022 0.2851 0.90515 0.0
C1862 C 0.2604 0.29124 0.89218 0.0
C1863 C 0.25945 0.30106 0.86448 0.0
H1864 H 0.25097 0.27751 0.92664 0.0
H1865 H 0.23867 0.37037 0.6482 0.0
H1866 H 0.43095 0.50931 0.34502 0.0
H1867 H 0.43209 0.49549 0.40668 0.0
H1868 H 0.40904 0.51817 0.48206 0.0
H1869 H 0.40789 0.53203 0.42085 0.0
H1870 H 0.42838 0.51087 0.52891 0.0
H1871 H 0.3984 0.49336 0.43666 0.0
H1872 H 0.39043 0.48523 0.3677 0.0
H1873 H 0.41742 0.45838 0.36751 0.0
H1874 H 0.42565 0.46646 0.43619 0.0
H1875 H 0.41 0.47379 0.70077 0.0
H1876 H 0.41079 0.48646 0.63618 0.0
H1877 H 0.43248 0.46057 0.56994 0.0
H1878 H 0.43157 0.44769 0.63438 0.0
H1879 H 0.41542 0.46896 0.51677 0.0
H1880 H 0.44484 0.48568 0.6108 0.0
H1881 H 0.45294 0.49374 0.67963 0.0
H1882 H 0.42748 0.52202 0.67623 0.0
H1883 H 0.41911 0.51403 0.60767 0.0
C1884 C 0.42611 0.51135 0.37471 0.0
C1885 C 0.41932 0.52176 0.37804 0.0
C1886 C 0.42675 0.50343 0.40983 0.0
C1887 C 0.42059 0.50579 0.44879 0.0
C1888 C 0.41387 0.5162 0.45227 0.0
C1889 C 0.41319 0.52409 0.41718 0.0
C1890 C 0.42119 0.49749 0.48623 0.0
C1891 C 0.42544 0.50174 0.52642 0.0
C1892 C 0.41769 0.48548 0.48248 0.0
C1893 C 0.41272 0.4806 0.44129 0.0
C1894 C 0.4027 0.48578 0.42171 0.0
C1895 C 0.39812 0.48118 0.38272 0.0
C1896 C 0.40344 0.47132 0.36316 0.0
C1897 C 0.41332 0.46603 0.38265 0.0
C1898 C 0.41794 0.47062 0.42162 0.0
C1899 C 0.41496 0.47078 0.67253 0.0
C1900 C 0.42077 0.45975 0.67278 0.0
C1901 C 0.41544 0.47806 0.63567 0.0
C1902 C 0.42184 0.47453 0.59849 0.0
C1903 C 0.42753 0.46347 0.59837 0.0
C1904 C 0.42702 0.45614 0.63524 0.0
C1905 C 0.42245 0.48239 0.55971 0.0
C1906 C 0.41845 0.47806 0.51924 0.0
C1907 C 0.42623 0.49433 0.56313 0.0
C1908 C 0.43128 0.4992 0.60426 0.0
C1909 C 0.44091 0.49357 0.62489 0.0
C1910 C 0.44556 0.49813 0.66383 0.0
C1911 C 0.44071 0.50837 0.68234 0.0
C1912 C 0.43122 0.51408 0.66187 0.0
C1913 C 0.42653 0.50955 0.62294 0.0
H1914 H 0.44433 0.51188 0.71249 0.0
H1915 H 0.39988 0.46776 0.33298 0.0
H1916 H 0.27265 0.66263 0.44707 0.0
H1917 H 0.26132 0.66255 0.37898 0.0
H1918 H 0.28567 0.6878 0.32278 0.0
H1919 H 0.29707 0.688 0.39104 0.0
H1920 H 0.2621 0.69306 0.30444 0.0
H1921 H 0.28825 0.65974 0.29468 0.0
H1922 H 0.29788 0.64139 0.32035 0.0
H1923 H 0.26405 0.624 0.32616 0.0
H1924 H 0.25419 0.64231 0.30115 0.0
H1925 H 0.23963 0.68379 0.08825 0.0
H1926 H 0.25329 0.68508 0.15043 0.0
H1927 H 0.23249 0.65915 0.22027 0.0
H1928 H 0.21891 0.65771 0.15839 0.0
H1929 H 0.25599 0.65476 0.22759 0.0
H1930 H 0.22971 0.68816 0.24373 0.0
H1931 H 0.21967 0.70633 0.21861 0.0
H1932 H 0.25338 0.72341 0.20125 0.0
H1933 H 0.26362 0.70525 0.22582 0.0
C1934 C 0.27558 0.66822 0.42036 0.0
C1935 C 0.28581 0.67526 0.42436 0.0
C1936 C 0.26912 0.66813 0.38142 0.0
C1937 C 0.27276 0.67505 0.34571 0.0
C1938 C 0.28275 0.68237 0.34996 0.0
C1939 C 0.28926 0.68244 0.38892 0.0
C1940 C 0.26622 0.67441 0.30375 0.0
C1941 C 0.26093 0.68473 0.28718 0.0
C1942 C 0.26456 0.6635 0.28169 0.0
C1943 C 0.27048 0.65243 0.29637 0.0
C1944 C 0.28286 0.65203 0.30173 0.0
C1945 C 0.28836 0.64163 0.31612 0.0
C1946 C 0.28158 0.63154 0.32497 0.0
C1947 C 0.26929 0.63182 0.31933 0.0
C1948 C 0.26374 0.64221 0.305 0.0
C1949 C 0.238 0.67833 0.11678 0.0
C1950 C 0.22815 0.67069 0.11848 0.0
C1951 C 0.24578 0.67911 0.1523 0.0
C1952 C 0.24383 0.67228 0.19006 0.0
C1953 C 0.23416 0.66449 0.19142 0.0
C1954 C 0.22637 0.66372 0.15606 0.0
C1955 C 0.2517 0.67336 0.22868 0.0
C1956 C 0.25726 0.66311 0.24459 0.0
C1957 C 0.25356 0.68432 0.25017 0.0
C1958 C 0.24743 0.69531 0.23614 0.0
C1959 C 0.23498 0.69577 0.23428 0.0
C1960 C 0.22925 0.70607 0.22017 0.0
C1961 C 0.23588 0.71602 0.20815 0.0
C1962 C 0.24825 0.71569 0.21047 0.0
C1963 C 0.25403 0.7054 0.22453 0.0
H1964 H 0.23143 0.72398 0.19715 0.0
H1965 H 0.28585 0.6235 0.33612 0.0
H1966 H 0.08739 0.53418 0.14883 0.0
H1967 H 0.08714 0.52097 0.08551 0.0
H1968 H 0.0643 0.49675 0.155 0.0
H1969 H 0.06458 0.50988 0.21881 0.0
H1970 H 0.08214 0.48525 0.11171 0.0
H1971 H 0.05278 0.51466 0.07862 0.0
H1972 H 0.04502 0.53495 0.06949 0.0
H1973 H 0.07087 0.54174 0.96941 0.0
H1974 H 0.07889 0.52154 0.97838 0.0
H1975 H 0.06644 0.45117 0.92461 0.0
H1976 H 0.06541 0.46379 0.98959 0.0
H1977 H 0.08706 0.49005 0.92509 0.0
H1978 H 0.08797 0.47759 0.85979 0.0
H1979 H 0.06894 0.50024 0.96695 0.0
H1980 H 0.09879 0.47128 0.00143 0.0
H1981 H 0.10686 0.45111 0.01058 0.0
H1982 H 0.08045 0.44357 0.10788 0.0
H1983 H 0.07212 0.46365 0.09886 0.0
C1984 C 0.08233 0.52603 0.15075 0.0
C1985 C 0.07595 0.5231 0.1888 0.0
C1986 C 0.08216 0.51852 0.11446 0.0
C1987 C 0.07557 0.50797 0.1154 0.0
C1988 C 0.06941 0.50488 0.15361 0.0
C1989 C 0.06956 0.5124 0.18997 0.0
C1990 C 0.07511 0.50019 0.07635 0.0
C1991 C 0.07908 0.48845 0.08018 0.0
C1992 C 0.07135 0.50448 0.03509 0.0
C1993 C 0.06651 0.51662 0.02946 0.0
C1994 C 0.05687 0.52051 0.0549 0.0
C1995 C 0.05241 0.53199 0.04971 0.0
C1996 C 0.05747 0.53964 0.01896 0.0
C1997 C 0.06697 0.53581 0.99325 0.0
C1998 C 0.07147 0.52434 0.99834 0.0
C1999 C 0.07096 0.45964 0.92422 0.0
C2000 C 0.07733 0.46336 0.88711 0.0
C2001 C 0.0704 0.46682 0.96144 0.0
C2002 C 0.07629 0.47779 0.96236 0.0
C2003 C 0.08247 0.48161 0.92509 0.0
C2004 C 0.083 0.47446 0.88783 0.0
C2005 C 0.07606 0.4853 0.00217 0.0
C2006 C 0.07195 0.497 0.9985 0.0
C2007 C 0.07973 0.48098 0.04353 0.0
C2008 C 0.08475 0.46892 0.04913 0.0
C2009 C 0.09464 0.46529 0.02452 0.0
C2010 C 0.09928 0.45388 0.02973 0.0
C2011 C 0.09415 0.44606 0.0597 0.0
C2012 C 0.0844 0.44964 0.08463 0.0
C2013 C 0.07972 0.46103 0.0795 0.0
H2014 H 0.09775 0.43723 0.06369 0.0
H2015 H 0.05401 0.54852 0.01499 0.0
H2016 H 0.20558 0.20536 0.13791 0.0
H2017 H 0.20145 0.22648 0.14532 0.0
H2018 H 0.17251 0.22331 0.05369 0.0
H2019 H 0.17665 0.20211 0.04573 0.0
H2020 H 0.18755 0.24098 0.03181 0.0
H2021 H 0.16689 0.22903 0.16064 0.0
H2022 H 0.16405 0.21859 0.23076 0.0
H2023 H 0.19293 0.23813 0.28726 0.0
H2024 H 0.19605 0.24857 0.21729 0.0
H2025 H 0.17614 0.30233 0.05358 0.0
H2026 H 0.17246 0.28099 0.05797 0.0
H2027 H 0.20139 0.27734 0.14942 0.0
H2028 H 0.20502 0.29864 0.14576 0.0
H2029 H 0.183 0.26304 0.17135 0.0
H2030 H 0.20578 0.27226 0.04185 0.0
H2031 H 0.20976 0.2824 0.97185 0.0
H2032 H 0.17792 0.26765 0.91718 0.0
H2033 H 0.17368 0.25753 0.9871 0.0
C2034 C 0.19823 0.2091 0.11975 0.0
C2035 C 0.19148 0.20207 0.09104 0.0
C2036 C 0.19583 0.22117 0.12425 0.0
C2037 C 0.18661 0.22645 0.10031 0.0
C2038 C 0.17964 0.21939 0.07255 0.0
C2039 C 0.18201 0.20728 0.06812 0.0
C2040 C 0.18501 0.23948 0.1015 0.0
C2041 C 0.18625 0.24579 0.0622 0.0
C2042 C 0.18363 0.24575 0.14131 0.0
C2043 C 0.18175 0.23953 0.18357 0.0
C2044 C 0.17269 0.23104 0.18791 0.0
C2045 C 0.17102 0.22513 0.22766 0.0
C2046 C 0.17832 0.22768 0.26342 0.0
C2047 C 0.18728 0.23617 0.25953 0.0
C2048 C 0.18899 0.2421 0.21984 0.0
C2049 C 0.18161 0.29702 0.07512 0.0
C2050 C 0.19096 0.30216 0.09894 0.0
C2051 C 0.17951 0.28482 0.07751 0.0
C2052 C 0.18677 0.27757 0.10353 0.0
C2053 C 0.19569 0.28278 0.12909 0.0
C2054 C 0.19779 0.29496 0.12679 0.0
C2055 C 0.1857 0.26449 0.10178 0.0
C2056 C 0.18402 0.2582 0.14091 0.0
C2057 C 0.18679 0.2582 0.06188 0.0
C2058 C 0.18934 0.26426 0.01984 0.0
C2059 C 0.19958 0.27126 0.01501 0.0
C2060 C 0.20189 0.27699 0.97534 0.0
C2061 C 0.19408 0.27571 0.94015 0.0
C2062 C 0.18395 0.26866 0.94451 0.0
C2063 C 0.18159 0.26292 0.98413 0.0
H2064 H 0.19589 0.28015 0.90946 0.0
H2065 H 0.17701 0.2231 0.29416 0.0
H2066 H 0.0485 0.92829 0.29238 0.0
H2067 H 0.02698 0.9256 0.29519 0.0
H2068 H 0.02452 0.95251 0.39513 0.0
H2069 H 0.04599 0.95522 0.39276 0.0
H2070 H 0.00976 0.93351 0.41148 0.0
H2071 H 0.01934 0.95978 0.29169 0.0
H2072 H 0.02948 0.96548 0.22333 0.0
H2073 H 0.01359 0.93594 0.15678 0.0
H2074 H 0.00347 0.92998 0.22496 0.0
H2075 H 0.95159 0.95607 0.39238 0.0
H2076 H 0.97284 0.9523 0.39634 0.0
H2077 H 0.96999 0.92739 0.28965 0.0
H2078 H 0.94869 0.93127 0.28491 0.0
H2079 H 0.98745 0.94269 0.27561 0.0
H2080 H 0.97577 0.91795 0.39465 0.0
H2081 H 0.96552 0.91276 0.46329 0.0
H2082 H 0.98512 0.93962 0.5318 0.0
H2083 H 0.99538 0.94508 0.46343 0.0
C2084 C 0.0434 0.93353 0.31533 0.0
C2085 C 0.04894 0.94205 0.34207 0.0
C2086 C 0.03111 0.932 0.31682 0.0
C2087 C 0.02417 0.93895 0.34503 0.0
C2088 C 0.02973 0.94706 0.37313 0.0
C2089 C 0.042 0.94864 0.37157 0.0
C2090 C 0.01107 0.93834 0.34348 0.0
C2091 C 0.00485 0.93556 0.38189 0.0
C2092 C 0.00472 0.94076 0.30456 0.0
C2093 C 0.01077 0.94435 0.26353 0.0
C2094 C 0.01809 0.95445 0.26257 0.0
C2095 C 0.02382 0.95774 0.22385 0.0
C2096 C 0.02221 0.95106 0.18577 0.0
C2097 C 0.01484 0.94109 0.18632 0.0
C2098 C 0.00911 0.93776 0.22498 0.0
C2099 C 0.95544 0.94968 0.37007 0.0
C2100 C 0.94845 0.944 0.33821 0.0
C2101 C 0.9676 0.94748 0.37255 0.0
C2102 C 0.973 0.93947 0.34356 0.0
C2103 C 0.966 0.93358 0.31239 0.0
C2104 C 0.95383 0.9358 0.30979 0.0
C2105 C 0.98606 0.93797 0.3438 0.0
C2106 C 0.9923 0.94041 0.30511 0.0
C2107 C 0.99241 0.93527 0.38252 0.0
C2108 C 0.98629 0.93198 0.4238 0.0
C2109 C 0.97784 0.92281 0.42427 0.0
C2110 C 0.97203 0.91981 0.46316 0.0
C2111 C 0.97465 0.92587 0.50186 0.0
C2112 C 0.9831 0.93493 0.50179 0.0
C2113 C 0.98892 0.93797 0.46299 0.0
H2114 H 0.97014 0.92354 0.53193 0.0
H2115 H 0.02665 0.95362 0.15582 0.0
H2116 H 0.32203 0.80113 0.56845 0.0
H2117 H 0.32507 0.77971 0.57293 0.0
H2118 H 0.29771 0.77726 0.67115 0.0
H2119 H 0.29477 0.79867 0.66757 0.0
H2120 H 0.31547 0.76168 0.68745 0.0
H2121 H 0.29107 0.77315 0.56508 0.0
H2122 H 0.28649 0.78426 0.49763 0.0
H2123 H 0.31621 0.76811 0.43311 0.0
H2124 H 0.32108 0.75706 0.50049 0.0
H2125 H 0.29078 0.70459 0.65285 0.0
H2126 H 0.29525 0.72563 0.66162 0.0
H2127 H 0.32266 0.72292 0.56369 0.0
H2128 H 0.31818 0.70184 0.55437 0.0
H2129 H 0.3075 0.74095 0.54717 0.0
H2130 H 0.32995 0.72728 0.67017 0.0
H2131 H 0.33343 0.71619 0.73851 0.0
H2132 H 0.30609 0.73618 0.80264 0.0
H2133 H 0.30232 0.74728 0.7345 0.0
C2134 C 0.31682 0.79607 0.59161 0.0
C2135 C 0.30803 0.80157 0.61716 0.0
C2136 C 0.31856 0.78383 0.59408 0.0
C2137 C 0.31145 0.77688 0.62175 0.0
C2138 C 0.30326 0.78246 0.64947 0.0
C2139 C 0.30156 0.7947 0.64722 0.0
C2140 C 0.31169 0.76378 0.61878 0.0
C2141 C 0.31369 0.75712 0.65686 0.0
C2142 C 0.30953 0.75787 0.57869 0.0
C2143 C 0.30652 0.76438 0.53796 0.0
C2144 C 0.29667 0.77203 0.5366 0.0
C2145 C 0.29402 0.77832 0.49839 0.0
C2146 C 0.30108 0.77692 0.46115 0.0
C2147 C 0.31077 0.76921 0.46201 0.0
C2148 C 0.31348 0.76293 0.5002 0.0
C2149 C 0.29786 0.70842 0.63354 0.0
C2150 C 0.30409 0.70156 0.60276 0.0
C2151 C 0.30045 0.72044 0.63879 0.0
C2152 C 0.30935 0.72581 0.61353 0.0
C2153 C 0.31579 0.71892 0.58357 0.0
C2154 C 0.31322 0.70688 0.57836 0.0
C2155 C 0.31122 0.73879 0.61591 0.0
C2156 C 0.30952 0.74546 0.57766 0.0
C2157 C 0.31351 0.74468 0.65595 0.0
C2158 C 0.3158 0.73806 0.69709 0.0
C2159 C 0.32462 0.72926 0.69875 0.0
C2160 C 0.32665 0.72298 0.73747 0.0
C2161 C 0.31997 0.72546 0.77487 0.0
C2162 C 0.31126 0.73426 0.77365 0.0
C2163 C 0.30918 0.74056 0.73499 0.0
H2164 H 0.32156 0.72059 0.80482 0.0
H2165 H 0.29901 0.78179 0.43159 0.0
H2166 H 0.44851 0.07255 0.80601 0.0
H2167 H 0.46995 0.07557 0.81047 0.0
H2168 H 0.4728 0.04611 0.89993 0.0
H2169 H 0.45138 0.04321 0.8965 0.0
H2170 H 0.48806 0.06341 0.92196 0.0
H2171 H 0.47694 0.04232 0.7905 0.0
H2172 H 0.46608 0.03959 0.72112 0.0
H2173 H 0.48218 0.07109 0.66915 0.0
H2174 H 0.49301 0.07409 0.73854 0.0
H2175 H 0.54477 0.03912 0.88201 0.0
H2176 H 0.52381 0.04376 0.89109 0.0
H2177 H 0.52735 0.07318 0.80179 0.0
H2178 H 0.54837 0.06849 0.79203 0.0
H2179 H 0.50907 0.0591 0.78014 0.0
H2180 H 0.52265 0.07807 0.91064 0.0
H2181 H 0.53362 0.07975 0.98021 0.0
H2182 H 0.5132 0.05117 0.03432 0.0
H2183 H 0.50222 0.0492 0.96486 0.0
C2184 C 0.45368 0.06684 0.82719 0.0
C2185 C 0.44828 0.05753 0.85043 0.0
C2186 C 0.46592 0.06856 0.82964 0.0
C2187 C 0.47298 0.06093 0.85489 0.0
C2188 C 0.46752 0.05209 0.88015 0.0
C2189 C 0.45527 0.05041 0.87799 0.0
C2190 C 0.48608 0.06141 0.85223 0.0
C2191 C 0.49268 0.06244 0.89101 0.0
C2192 C 0.49208 0.06037 0.81171 0.0
C2193 C 0.48567 0.05851 0.76985 0.0
C2194 C 0.4781 0.04871 0.76438 0.0
C2195 C 0.47196 0.04711 0.72505 0.0
C2196 C 0.47341 0.05518 0.69079 0.0
C2197 C 0.48104 0.06486 0.69575 0.0
C2198 C 0.48718 0.06651 0.73506 0.0
C2199 C 0.54115 0.04667 0.86467 0.0
C2200 C 0.54823 0.0534 0.83613 0.0
C2201 C 0.52916 0.04936 0.87013 0.0
C2202 C 0.52404 0.05889 0.84743 0.0
C2203 C 0.53115 0.06581 0.81972 0.0
C2204 C 0.54315 0.06313 0.81423 0.0
C2205 C 0.51109 0.06095 0.84996 0.0
C2206 C 0.5045 0.06033 0.81107 0.0
C2207 C 0.50512 0.06224 0.89043 0.0
C2208 C 0.51166 0.06345 0.9324 0.0
C2209 C 0.52055 0.07209 0.93726 0.0
C2210 C 0.52677 0.0731 0.9767 0.0
C2211 C 0.52412 0.06556 0.01164 0.0
C2212 C 0.51524 0.057 0.00723 0.0
C2213 C 0.509 0.05595 0.96785 0.0
H2214 H 0.52894 0.06635 0.04214 0.0
H2215 H 0.46865 0.05393 0.66037 0.0
H2216 H 0.20817 0.7956 0.94313 0.0
H2217 H 0.20478 0.77429 0.93634 0.0
H2218 H 0.17847 0.77599 0.03862 0.0
H2219 H 0.18187 0.7973 0.04594 0.0
H2220 H 0.19501 0.75913 0.0542 0.0
H2221 H 0.1702 0.7705 0.93414 0.0
H2222 H 0.16524 0.78082 0.86539 0.0
H2223 H 0.1928 0.76182 0.7985 0.0
H2224 H 0.19804 0.7515 0.86701 0.0
H2225 H 0.18111 0.69835 0.04062 0.0
H2226 H 0.17852 0.71984 0.03691 0.0
H2227 H 0.20419 0.72168 0.93244 0.0
H2228 H 0.20668 0.70019 0.93536 0.0
H2229 H 0.18612 0.73682 0.91808 0.0
H2230 H 0.21237 0.72719 0.03719 0.0
H2231 H 0.21846 0.71729 0.10562 0.0
H2232 H 0.18929 0.73339 0.17356 0.0
H2233 H 0.18295 0.74328 0.1054 0.0
C2234 C 0.20154 0.79148 0.96378 0.0
C2235 C 0.19535 0.79813 0.99528 0.0
C2236 C 0.19957 0.77931 0.95968 0.0
C2237 C 0.19134 0.77358 0.98687 0.0
C2238 C 0.18485 0.78026 0.01732 0.0
C2239 C 0.18679 0.79244 0.02136 0.0
C2240 C 0.19026 0.76049 0.98607 0.0
C2241 C 0.19281 0.75426 0.02466 0.0
C2242 C 0.18775 0.75416 0.94718 0.0
C2243 C 0.18457 0.76029 0.90583 0.0
C2244 C 0.17526 0.76859 0.90486 0.0
C2245 C 0.17239 0.77442 0.86591 0.0
C2246 C 0.17871 0.77199 0.82762 0.0
C2247 C 0.18791 0.7637 0.82819 0.0
C2248 C 0.19083 0.75784 0.86706 0.0
C2249 C 0.1861 0.7033 0.01647 0.0
C2250 C 0.1942 0.69758 0.98859 0.0
C2251 C 0.18463 0.71559 0.01449 0.0
C2252 C 0.19131 0.72236 0.9849 0.0
C2253 C 0.19897 0.71661 0.95559 0.0
C2254 C 0.2004 0.70433 0.95742 0.0
C2255 C 0.19088 0.73549 0.9862 0.0
C2256 C 0.18813 0.74172 0.94774 0.0
C2257 C 0.19333 0.74185 0.02512 0.0
C2258 C 0.1971 0.73586 0.06608 0.0
C2259 C 0.20719 0.72854 0.06664 0.0
C2260 C 0.2107 0.72294 0.10538 0.0
C2261 C 0.20424 0.72468 0.14386 0.0
C2262 C 0.19427 0.73204 0.1437 0.0
C2263 C 0.19072 0.73764 0.10504 0.0
H2264 H 0.20696 0.72036 0.17383 0.0
H2265 H 0.17647 0.77652 0.7975 0.0
H2266 H 0.45118 0.9605 0.19405 0.0
H2267 H 0.47239 0.95665 0.18732 0.0
H2268 H 0.46928 0.92727 0.27692 0.0
H2269 H 0.448 0.93109 0.28406 0.0
H2270 H 0.48698 0.94261 0.29971 0.0
H2271 H 0.47475 0.92196 0.17065 0.0
H2272 H 0.46422 0.91934 0.10056 0.0
H2273 H 0.48394 0.94815 0.04465 0.0
H2274 H 0.49448 0.95106 0.1146 0.0
H2275 H 0.54804 0.92954 0.27742 0.0
H2276 H 0.52654 0.9268 0.27458 0.0
H2277 H 0.52377 0.95516 0.18039 0.0
H2278 H 0.54523 0.9578 0.18236 0.0
H2279 H 0.50887 0.93753 0.16008 0.0
H2280 H 0.51879 0.96018 0.28882 0.0
H2281 H 0.52902 0.96412 0.35871 0.0
H2282 H 0.51336 0.93291 0.4147 0.0
H2283 H 0.50313 0.92872 0.34492 0.0
C2284 C 0.45496 0.95313 0.21195 0.0
C2285 C 0.44791 0.94612 0.2397 0.0
C2286 C 0.46708 0.9509 0.20787 0.0
C2287 C 0.47238 0.94162 0.23138 0.0
C2288 C 0.46534 0.93445 0.25841 0.0
C2289 C 0.45318 0.93663 0.26235 0.0
C2290 C 0.48541 0.94002 0.23008 0.0
C2291 C 0.49176 0.94122 0.26932 0.0
C2292 C 0.49163 0.93854 0.19024 0.0
C2293 C 0.48535 0.93678 0.14801 0.0
C2294 C 0.47678 0.92779 0.14352 0.0
C2295 C 0.47082 0.92625 0.10378 0.0
C2296 C 0.4734 0.93359 0.0682 0.0
C2297 C 0.48196 0.94248 0.07224 0.0
C2298 C 0.48794 0.94407 0.11191 0.0
C2299 C 0.54287 0.9351 0.25571 0.0
C2300 C 0.54833 0.94397 0.23044 0.0
C2301 C 0.53058 0.93354 0.25423 0.0
C2302 C 0.52354 0.9409 0.22778 0.0
C2303 C 0.52903 0.94939 0.20107 0.0
C2304 C 0.5413 0.95092 0.20238 0.0
C2305 C 0.51043 0.94026 0.22964 0.0
C2306 C 0.50407 0.93869 0.19056 0.0
C2307 C 0.50418 0.94155 0.26955 0.0
C2308 C 0.51032 0.94406 0.31152 0.0
C2309 C 0.51761 0.95411 0.31594 0.0
C2310 C 0.52339 0.9564 0.35554 0.0
C2311 C 0.52187 0.94875 0.39107 0.0
C2312 C 0.51454 0.93881 0.38711 0.0
C2313 C 0.50875 0.93648 0.34756 0.0
H2314 H 0.52635 0.95054 0.42171 0.0
H2315 H 0.46877 0.93238 0.03747 0.0
H2316 H 0.29011 0.20428 0.43765 0.0
H2317 H 0.29478 0.22532 0.43252 0.0
H2318 H 0.32435 0.22049 0.52032 0.0
H2319 H 0.31965 0.19935 0.52605 0.0
H2320 H 0.3103 0.23837 0.54614 0.0
H2321 H 0.32926 0.2273 0.41338 0.0
H2322 H 0.33134 0.21745 0.34174 0.0
H2323 H 0.30226 0.23783 0.29112 0.0
H2324 H 0.29988 0.24769 0.36264 0.0
H2325 H 0.32006 0.30024 0.52996 0.0
H2326 H 0.32447 0.27909 0.52253 0.0
H2327 H 0.29483 0.27513 0.43443 0.0
H2328 H 0.2905 0.29623 0.44096 0.0
H2329 H 0.31323 0.2616 0.40864 0.0
H2330 H 0.29201 0.26948 0.54376 0.0
H2331 H 0.28912 0.27909 0.61551 0.0
H2332 H 0.32194 0.26431 0.66132 0.0
H2333 H 0.32509 0.25474 0.58956 0.0
C2334 C 0.29771 0.20764 0.45546 0.0
C2335 C 0.30447 0.20015 0.48245 0.0
C2336 C 0.30042 0.21967 0.45223 0.0
C2337 C 0.30998 0.22446 0.47571 0.0
C2338 C 0.31696 0.21696 0.5018 0.0
C2339 C 0.31427 0.20489 0.50498 0.0
C2340 C 0.31193 0.23746 0.47594 0.0
C2341 C 0.31126 0.24343 0.51614 0.0
C2342 C 0.31294 0.24406 0.43673 0.0
C2343 C 0.31436 0.23819 0.39352 0.0
C2344 C 0.32325 0.22963 0.38707 0.0
C2345 C 0.32449 0.22405 0.34646 0.0
C2346 C 0.31692 0.227 0.31192 0.0
C2347 C 0.30811 0.23555 0.31791 0.0
C2348 C 0.30683 0.24115 0.35846 0.0
C2349 C 0.31458 0.2949 0.50851 0.0
C2350 C 0.30483 0.29988 0.48648 0.0
C2351 C 0.31711 0.28281 0.50436 0.0
C2352 C 0.30986 0.27551 0.47846 0.0
C2353 C 0.30053 0.2806 0.45463 0.0
C2354 C 0.29803 0.29266 0.45859 0.0
C2355 C 0.31131 0.26245 0.47869 0.0
C2356 C 0.31258 0.25649 0.43864 0.0
C2357 C 0.31078 0.25583 0.518 0.0
C2358 C 0.30886 0.26152 0.56118 0.0
C2359 C 0.29865 0.26836 0.56904 0.0
C2360 C 0.29696 0.27379 0.60971 0.0
C2361 C 0.30536 0.27235 0.64291 0.0
C2362 C 0.31546 0.26544 0.63554 0.0
C2363 C 0.3172 0.26001 0.59489 0.0
H2364 H 0.30404 0.27655 0.67438 0.0
H2365 H 0.3179 0.22267 0.28051 0.0
H2366 H 0.94978 0.06727 0.77554 0.0
H2367 H 0.97137 0.06876 0.77 0.0
H2368 H 0.97261 0.03437 0.70828 0.0
H2369 H 0.95111 0.03273 0.71433 0.0
H2370 H 0.98799 0.03561 0.77356 0.0
H2371 H 0.97776 0.06001 0.65048 0.0
H2372 H 0.96775 0.07645 0.61219 0.0
H2373 H 0.98528 0.10161 0.69557 0.0
H2374 H 0.99527 0.08531 0.73478 0.0
H2375 H 0.04702 0.03394 0.70353 0.0
H2376 H 0.0255 0.03583 0.70018 0.0
H2377 H 0.02727 0.06777 0.77747 0.0
H2378 H 0.04891 0.06596 0.78117 0.0
H2379 H 0.01058 0.06868 0.70628 0.0
H2380 H 0.02079 0.04407 0.82892 0.0
H2381 H 0.03096 0.02754 0.866 0.0
H2382 H 0.01333 0.00262 0.78195 0.0
H2383 H 0.00319 0.01903 0.74388 0.0
C2384 C 0.95464 0.06009 0.76032 0.0
C2385 C 0.94875 0.04985 0.74559 0.0
C2386 C 0.96698 0.06098 0.75704 0.0
C2387 C 0.9736 0.05169 0.73858 0.0
C2388 C 0.96768 0.04162 0.72277 0.0
C2389 C 0.95538 0.04071 0.7262 0.0
C2390 C 0.98673 0.05209 0.73812 0.0
C2391 C 0.99291 0.04277 0.75828 0.0
C2392 C 0.99316 0.06161 0.71939 0.0
C2393 C 0.98716 0.07143 0.69587 0.0
C2394 C 0.9794 0.06905 0.66091 0.0
C2395 C 0.97375 0.07834 0.63899 0.0
C2396 C 0.97585 0.09007 0.65152 0.0
C2397 C 0.98364 0.09252 0.68594 0.0
C2398 C 0.98931 0.08326 0.708 0.0
C2399 C 0.04288 0.04145 0.71945 0.0
C2400 C 0.04967 0.04974 0.74302 0.0
C2401 C 0.03058 0.04251 0.71749 0.0
C2402 C 0.02482 0.05186 0.73898 0.0
C2403 C 0.03158 0.06049 0.76074 0.0
C2404 C 0.04392 0.0594 0.76295 0.0
C2405 C 0.01173 0.05212 0.741 0.0
C2406 C 0.0056 0.06155 0.72146 0.0
C2407 C 0.00531 0.0427 0.76021 0.0
C2408 C 0.01132 0.03279 0.78327 0.0
C2409 C 0.01916 0.03507 0.8181 0.0
C2410 C 0.0249 0.02572 0.83934 0.0
C2411 C 0.02282 0.01404 0.82627 0.0
C2412 C 0.01495 0.01168 0.792 0.0
C2413 C 0.00919 0.021 0.7706 0.0
H2414 H 0.02727 0.00681 0.84275 0.0
H2415 H 0.97147 0.09725 0.6345 0.0
H2416 H 0.80886 0.70146 0.08568 0.0
H2417 H 0.81101 0.72282 0.07756 0.0
H2418 H 0.81987 0.71833 0.94125 0.0
H2419 H 0.81776 0.69677 0.94902 0.0
H2420 H 0.83376 0.73603 0.9862 0.0
H2421 H 0.79318 0.72567 0.96112 0.0
H2422 H 0.77424 0.71566 0.97716 0.0
H2423 H 0.77152 0.73468 0.09852 0.0
H2424 H 0.79056 0.74467 0.08353 0.0
H2425 H 0.8197 0.7975 0.94106 0.0
H2426 H 0.82159 0.77586 0.9387 0.0
H2427 H 0.80997 0.77376 0.07299 0.0
H2428 H 0.808 0.79526 0.07563 0.0
H2429 H 0.79745 0.75916 0.01976 0.0
H2430 H 0.83847 0.76875 0.04669 0.0
H2431 H 0.85762 0.77849 0.03167 0.0
H2432 H 0.85952 0.76103 0.90693 0.0
H2433 H 0.84029 0.75131 0.92097 0.0
C2434 C 0.81139 0.70495 0.05401 0.0
C2435 C 0.81301 0.69741 0.01783 0.0
C2436 C 0.81262 0.71718 0.04947 0.0
C2437 C 0.81545 0.72212 0.0087 0.0
C2438 C 0.81766 0.71464 0.97295 0.0
C2439 C 0.8164 0.70235 0.97743 0.0
C2440 C 0.81527 0.73515 0.00336 0.0
C2441 C 0.82579 0.74111 0.99275 0.0
C2442 C 0.80488 0.74172 0.01242 0.0
C2443 C 0.79335 0.73585 0.02134 0.0
C2444 C 0.78859 0.72765 0.99137 0.0
C2445 C 0.77783 0.72199 0.00026 0.0
C2446 C 0.77169 0.72452 0.03888 0.0
C2447 C 0.77629 0.73273 0.06864 0.0
C2448 C 0.78706 0.7384 0.05994 0.0
C2449 C 0.81768 0.79243 0.97022 0.0
C2450 C 0.81363 0.79809 0.00844 0.0
C2451 C 0.81879 0.78008 0.96884 0.0
C2452 C 0.81591 0.77323 0.00568 0.0
C2453 C 0.81219 0.7789 0.04416 0.0
C2454 C 0.8111 0.7912 0.04561 0.0
C2455 C 0.81603 0.76012 0.00375 0.0
C2456 C 0.80542 0.75411 0.01279 0.0
C2457 C 0.82633 0.75356 0.99316 0.0
C2458 C 0.83787 0.75942 0.98465 0.0
C2459 C 0.84292 0.76708 0.01587 0.0
C2460 C 0.85379 0.77257 0.00758 0.0
C2461 C 0.85976 0.77041 0.96831 0.0
C2462 C 0.85488 0.76272 0.9373 0.0
C2463 C 0.84399 0.75721 0.94541 0.0
H2464 H 0.86819 0.77467 0.96196 0.0
H2465 H 0.76337 0.72012 0.04571 0.0
H2466 H 0.67593 0.19516 0.49411 0.0
H2467 H 0.66848 0.21565 0.48997 0.0
H2468 H 0.6996 0.22795 0.55828 0.0
H2469 H 0.70718 0.20774 0.56171 0.0
H2470 H 0.67641 0.2364 0.59121 0.0
H2471 H 0.69986 0.23131 0.45654 0.0
H2472 H 0.70395 0.22164 0.38571 0.0
H2473 H 0.66901 0.2306 0.34069 0.0
H2474 H 0.66467 0.24019 0.41158 0.0
H2475 H 0.6948 0.29398 0.5717 0.0
H2476 H 0.69161 0.27273 0.57023 0.0
H2477 H 0.66342 0.27718 0.47615 0.0
H2478 H 0.66673 0.29872 0.4768 0.0
H2479 H 0.67804 0.25937 0.45281 0.0
H2480 H 0.65649 0.26893 0.57999 0.0
H2481 H 0.65207 0.27873 0.65025 0.0
H2482 H 0.6818 0.26128 0.70988 0.0
H2483 H 0.68651 0.2515 0.63984 0.0
C2484 C 0.68115 0.20226 0.50821 0.0
C2485 C 0.69215 0.19988 0.52812 0.0
C2486 C 0.67689 0.21391 0.5058 0.0
C2487 C 0.68349 0.22324 0.52399 0.0
C2488 C 0.69437 0.22084 0.54426 0.0
C2489 C 0.69872 0.20929 0.54595 0.0
C2490 C 0.67937 0.23564 0.52172 0.0
C2491 C 0.67668 0.24145 0.56101 0.0
C2492 C 0.67925 0.24204 0.48199 0.0
C2493 C 0.68188 0.2363 0.4395 0.0
C2494 C 0.69301 0.2311 0.4317 0.0
C2495 C 0.69538 0.22567 0.39151 0.0
C2496 C 0.68673 0.22546 0.35878 0.0
C2497 C 0.67569 0.23073 0.36612 0.0
C2498 C 0.67327 0.23617 0.40628 0.0
C2499 C 0.68785 0.29052 0.55081 0.0
C2500 C 0.681 0.29807 0.52441 0.0
C2501 C 0.68598 0.27833 0.55027 0.0
C2502 C 0.67711 0.27337 0.52375 0.0
C2503 C 0.67023 0.28084 0.49715 0.0
C2504 C 0.67213 0.29313 0.4976 0.0
C2505 C 0.67568 0.26031 0.52279 0.0
C2506 C 0.67732 0.25433 0.48294 0.0
C2507 C 0.67469 0.25371 0.56205 0.0
C2508 C 0.67186 0.25949 0.60452 0.0
C2509 C 0.66213 0.26722 0.60801 0.0
C2510 C 0.65956 0.27277 0.64782 0.0
C2511 C 0.66665 0.27063 0.6845 0.0
C2512 C 0.6763 0.26292 0.68145 0.0
C2513 C 0.67891 0.25735 0.64171 0.0
H2514 H 0.66465 0.27494 0.71528 0.0
H2515 H 0.68858 0.22125 0.32768 0.0
H2516 H 0.79099 0.29812 0.1432 0.0
H2517 H 0.79526 0.277 0.14836 0.0
H2518 H 0.82791 0.28217 0.07738 0.0
H2519 H 0.82362 0.3034 0.07151 0.0
H2520 H 0.81503 0.26457 0.04282 0.0
H2521 H 0.82858 0.27458 0.18549 0.0
H2522 H 0.82784 0.28397 0.25833 0.0
H2523 H 0.79689 0.26361 0.2906 0.0
H2524 H 0.79733 0.25422 0.21772 0.0
H2525 H 0.82349 0.20217 0.06176 0.0
H2526 H 0.82769 0.22333 0.07132 0.0
H2527 H 0.79463 0.22763 0.14045 0.0
H2528 H 0.79043 0.20658 0.13157 0.0
H2529 H 0.81222 0.24046 0.17825 0.0
H2530 H 0.79653 0.23373 0.03225 0.0
H2531 H 0.79643 0.22465 0.95878 0.0
H2532 H 0.83093 0.23916 0.933 0.0
H2533 H 0.83128 0.24821 0.0066 0.0
C2534 C 0.79916 0.29482 0.12917 0.0
C2535 C 0.80694 0.30243 0.10679 0.0
C2536 C 0.80163 0.28274 0.13241 0.0
C2537 C 0.81197 0.27803 0.11364 0.0
C2538 C 0.81991 0.28564 0.09224 0.0
C2539 C 0.81745 0.29776 0.08901 0.0
C2540 C 0.81384 0.26502 0.11322 0.0
C2541 C 0.81474 0.25931 0.07254 0.0
C2542 C 0.81323 0.25816 0.15194 0.0
C2543 C 0.81296 0.26373 0.19599 0.0
C2544 C 0.82157 0.27216 0.208 0.0
C2545 C 0.82121 0.27747 0.24933 0.0
C2546 C 0.81231 0.2744 0.27905 0.0
C2547 C 0.80377 0.26598 0.26754 0.0
C2548 C 0.80409 0.26064 0.22625 0.0
C2549 C 0.81719 0.2076 0.07945 0.0
C2550 C 0.80657 0.20273 0.09553 0.0
C2551 C 0.8196 0.21968 0.08481 0.0
C2552 C 0.81141 0.22706 0.1062 0.0
C2553 C 0.80107 0.2221 0.12388 0.0
C2554 C 0.79865 0.21006 0.11853 0.0
C2555 C 0.8131 0.24007 0.10786 0.0
C2556 C 0.81283 0.24576 0.1487 0.0
C2557 C 0.81422 0.24693 0.06931 0.0
C2558 C 0.814 0.24151 0.02508 0.0
C2559 C 0.80413 0.2349 0.01103 0.0
C2560 C 0.80402 0.22978 0.96936 0.0
C2561 C 0.81368 0.23129 0.9413 0.0
C2562 C 0.82346 0.23797 0.95481 0.0
C2563 C 0.82362 0.2431 0.99649 0.0
H2564 H 0.81358 0.22732 0.90904 0.0
H2565 H 0.81205 0.27852 0.31103 0.0
H2566 H 0.6765 0.69692 0.59308 0.0
H2567 H 0.67428 0.7185 0.59595 0.0
H2568 H 0.7114 0.72205 0.62764 0.0
H2569 H 0.71363 0.70057 0.62586 0.0
H2570 H 0.69868 0.73757 0.67329 0.0
H2571 H 0.70131 0.72506 0.52252 0.0
H2572 H 0.69531 0.71365 0.45728 0.0
H2573 H 0.66083 0.72975 0.46121 0.0
H2574 H 0.66658 0.74113 0.52692 0.0
H2575 H 0.71479 0.79395 0.59578 0.0
H2576 H 0.71219 0.77278 0.60811 0.0
H2577 H 0.67485 0.77599 0.57977 0.0
H2578 H 0.67742 0.79727 0.56661 0.0
H2579 H 0.6849 0.75734 0.53737 0.0
H2580 H 0.68412 0.77208 0.68448 0.0
H2581 H 0.69153 0.78397 0.74649 0.0
H2582 H 0.72393 0.76401 0.7469 0.0
H2583 H 0.71679 0.7521 0.68449 0.0
C2584 C 0.68415 0.7023 0.60117 0.0
C2585 C 0.69527 0.69704 0.60883 0.0
C2586 C 0.68288 0.71462 0.60269 0.0
C2587 C 0.69272 0.72188 0.61138 0.0
C2588 C 0.70369 0.71662 0.62085 0.0
C2589 C 0.70495 0.70432 0.61961 0.0
C2590 C 0.69186 0.73497 0.60809 0.0
C2591 C 0.69569 0.7419 0.64356 0.0
C2592 C 0.68777 0.74061 0.56955 0.0
C2593 C 0.68432 0.73383 0.52992 0.0
C2594 C 0.69242 0.7261 0.50966 0.0
C2595 C 0.68907 0.71965 0.47258 0.0
C2596 C 0.67768 0.72095 0.45519 0.0
C2597 C 0.66964 0.72873 0.47478 0.0
C2598 C 0.67293 0.73519 0.51194 0.0
C2599 C 0.70601 0.79019 0.59229 0.0
C2600 C 0.6963 0.79729 0.58024 0.0
C2601 C 0.70453 0.77809 0.59961 0.0
C2602 C 0.6933 0.77285 0.59547 0.0
C2603 C 0.68358 0.77989 0.58334 0.0
C2604 C 0.68506 0.79203 0.57592 0.0
C2605 C 0.69188 0.75993 0.60231 0.0
C2606 C 0.68765 0.75303 0.56745 0.0
C2607 C 0.69574 0.75432 0.64122 0.0
C2608 C 0.69993 0.76123 0.67963 0.0
C2609 C 0.69284 0.77025 0.69769 0.0
C2610 C 0.69699 0.777 0.73291 0.0
C2611 C 0.7082 0.77476 0.75059 0.0
C2612 C 0.71525 0.76573 0.73319 0.0
C2613 C 0.71114 0.75896 0.69794 0.0
H2614 H 0.71141 0.78001 0.77777 0.0
H2615 H 0.67511 0.71595 0.42648 0.0
H2616 H 0.54995 0.42908 0.79248 0.0
H2617 H 0.5288 0.42474 0.7999 0.0
H2618 H 0.52521 0.4536 0.89166 0.0
H2619 H 0.54634 0.45781 0.88529 0.0
H2620 H 0.5116 0.43538 0.91577 0.0
H2621 H 0.51915 0.45721 0.78222 0.0
H2622 H 0.52857 0.46062 0.71045 0.0
H2623 H 0.51378 0.42807 0.66209 0.0
H2624 H 0.5044 0.42439 0.73382 0.0
H2625 H 0.45355 0.45731 0.88817 0.0
H2626 H 0.47475 0.45332 0.89285 0.0
H2627 H 0.47073 0.42367 0.80487 0.0
H2628 H 0.44943 0.42767 0.79963 0.0
H2629 H 0.4881 0.43854 0.77892 0.0
H2630 H 0.47764 0.41886 0.91141 0.0
H2631 H 0.46793 0.4165 0.98318 0.0
H2632 H 0.4878 0.44593 0.03394 0.0
H2633 H 0.4975 0.44859 0.96229 0.0
C2634 C 0.54469 0.4344 0.81469 0.0
C2635 C 0.54979 0.44389 0.83789 0.0
C2636 C 0.5326 0.43192 0.81882 0.0
C2637 C 0.52539 0.43898 0.84577 0.0
C2638 C 0.5306 0.44805 0.87063 0.0
C2639 C 0.54268 0.45048 0.86679 0.0
C2640 C 0.51233 0.43756 0.84579 0.0
C2641 C 0.50645 0.43609 0.88591 0.0
C2642 C 0.50562 0.43822 0.80667 0.0
C2643 C 0.5112 0.44045 0.7635 0.0
C2644 C 0.51799 0.45074 0.75637 0.0
C2645 C 0.52331 0.45272 0.7157 0.0
C2646 C 0.52181 0.44455 0.68178 0.0
C2647 C 0.51496 0.43438 0.68842 0.0
C2648 C 0.50964 0.43234 0.72907 0.0
C2649 C 0.45712 0.44984 0.87023 0.0
C2650 C 0.44981 0.44284 0.84335 0.0
C2651 C 0.46925 0.44752 0.87319 0.0
C2652 C 0.4743 0.43814 0.84951 0.0
C2653 C 0.46698 0.43093 0.82353 0.0
C2654 C 0.45483 0.43322 0.82064 0.0
C2655 C 0.48734 0.43658 0.84903 0.0
C2656 C 0.49323 0.43754 0.80876 0.0
C2657 C 0.49402 0.43557 0.88806 0.0
C2658 C 0.48825 0.43396 0.93134 0.0
C2659 C 0.47988 0.42489 0.93777 0.0
C2660 C 0.47439 0.42348 0.97846 0.0
C2661 C 0.47723 0.43107 0.01308 0.0
C2662 C 0.4856 0.44006 0.0071 0.0
C2663 C 0.49111 0.4415 0.96647 0.0
H2664 H 0.47297 0.42997 0.04455 0.0
H2665 H 0.52593 0.4461 0.65031 0.0
H2666 H 0.94552 0.56146 0.38464 0.0
H2667 H 0.96699 0.56457 0.3869 0.0
H2668 H 0.96895 0.55856 0.24759 0.0
H2669 H 0.9476 0.55528 0.24511 0.0
H2670 H 0.98466 0.54532 0.2904 0.0
H2671 H 0.97277 0.58621 0.29126 0.0
H2672 H 0.96199 0.6038 0.31794 0.0
H2673 H 0.97937 0.60084 0.44255 0.0
H2674 H 0.99014 0.58312 0.4168 0.0
H2675 H 0.04326 0.56095 0.24714 0.0
H2676 H 0.0217 0.56227 0.24952 0.0
H2677 H 0.02289 0.56567 0.39008 0.0
H2678 H 0.04459 0.56446 0.38807 0.0
H2679 H 0.00573 0.58034 0.3507 0.0
H2680 H 0.01759 0.53946 0.34933 0.0
H2681 H 0.02855 0.52206 0.32196 0.0
H2682 H 0.01105 0.52512 0.19762 0.0
H2683 H 0.0001 0.54266 0.22406 0.0
C2684 C 0.95051 0.56094 0.35441 0.0
C2685 C 0.94487 0.55805 0.31475 0.0
C2686 C 0.96277 0.56277 0.35574 0.0
C2687 C 0.96955 0.56183 0.31738 0.0
C2688 C 0.96388 0.55929 0.27759 0.0
C2689 C 0.95167 0.55743 0.27625 0.0
C2690 C 0.98265 0.56269 0.31889 0.0
C2691 C 0.98925 0.55306 0.30305 0.0
C2692 C 0.98863 0.57262 0.33668 0.0
C2693 C 0.98216 0.58326 0.35225 0.0
C2694 C 0.97421 0.58924 0.32448 0.0
C2695 C 0.96812 0.59925 0.33941 0.0
C2696 C 0.96997 0.60341 0.38195 0.0
C2697 C 0.97794 0.59759 0.40963 0.0
C2698 C 0.98404 0.58757 0.39487 0.0
C2699 C 0.03898 0.56211 0.27859 0.0
C2700 C 0.04563 0.56245 0.31751 0.0
C2701 C 0.02665 0.56286 0.27985 0.0
C2702 C 0.02073 0.56388 0.32003 0.0
C2703 C 0.02733 0.56485 0.35878 0.0
C2704 C 0.03971 0.56412 0.35756 0.0
C2705 C 0.00764 0.56307 0.32146 0.0
C2706 C 0.00109 0.57264 0.33808 0.0
C2707 C 0.00165 0.55308 0.30438 0.0
C2708 C 0.0081 0.54244 0.28856 0.0
C2709 C 0.01614 0.53647 0.31606 0.0
C2710 C 0.02234 0.52658 0.30072 0.0
C2711 C 0.02052 0.52251 0.25804 0.0
C2712 C 0.01246 0.5283 0.23066 0.0
C2713 C 0.00625 0.53821 0.24581 0.0
H2714 H 0.02534 0.51485 0.24622 0.0
H2715 H 0.96525 0.61117 0.39345 0.0
H2716 H 0.95421 0.45453 0.67899 0.0
H2717 H 0.97535 0.45057 0.67273 0.0
H2718 H 0.97167 0.42024 0.75769 0.0
H2719 H 0.95042 0.42428 0.76477 0.0
H2720 H 0.98927 0.43418 0.78413 0.0
H2721 H 0.9784 0.4165 0.64904 0.0
H2722 H 0.96837 0.41481 0.57759 0.0
H2723 H 0.98746 0.44516 0.53046 0.0
H2724 H 0.99748 0.44715 0.60182 0.0
H2725 H 0.05172 0.42747 0.76029 0.0
H2726 H 0.03074 0.4221 0.75414 0.0
H2727 H 0.02442 0.45323 0.67554 0.0
H2728 H 0.04531 0.45859 0.68111 0.0
H2729 H 0.01204 0.43406 0.64518 0.0
H2730 H 0.0195 0.45375 0.78427 0.0
H2731 H 0.02936 0.45591 0.85593 0.0
H2732 H 0.01637 0.42173 0.89505 0.0
H2733 H 0.00657 0.4193 0.82331 0.0
C2734 C 0.95784 0.44692 0.69592 0.0
C2735 C 0.95064 0.43975 0.72253 0.0
C2736 C 0.96993 0.4446 0.69204 0.0
C2737 C 0.97508 0.43502 0.71435 0.0
C2738 C 0.96787 0.42765 0.74005 0.0
C2739 C 0.95573 0.42996 0.74399 0.0
C2740 C 0.98813 0.43346 0.71372 0.0
C2741 C 0.99424 0.43382 0.75374 0.0
C2742 C 0.99462 0.43318 0.67408 0.0
C2743 C 0.98866 0.432 0.63093 0.0
C2744 C 0.9804 0.42286 0.62355 0.0
C2745 C 0.97472 0.42185 0.58303 0.0
C2746 C 0.97726 0.42988 0.54952 0.0
C2747 C 0.9855 0.43894 0.55644 0.0
C2748 C 0.9912 0.44 0.5969 0.0
C2749 C 0.04589 0.43308 0.7412 0.0
C2750 C 0.05014 0.44353 0.72157 0.0
C2751 C 0.03391 0.43 0.73778 0.0
C2752 C 0.02602 0.43734 0.71476 0.0
C2753 C 0.03037 0.44745 0.69343 0.0
C2754 C 0.0423 0.45054 0.69689 0.0
C2755 C 0.01308 0.43511 0.71543 0.0
C2756 C 0.00703 0.43407 0.67548 0.0
C2757 C 0.00662 0.43479 0.7551 0.0
C2758 C 0.01244 0.43628 0.79828 0.0
C2759 C 0.01883 0.44666 0.80804 0.0
C2760 C 0.02439 0.44793 0.84868 0.0
C2761 C 0.02353 0.43894 0.87997 0.0
C2762 C 0.01706 0.42867 0.87074 0.0
C2763 C 0.01149 0.42734 0.83011 0.0
H2764 H 0.02784 0.43995 0.91141 0.0
H2765 H 0.97285 0.42908 0.51818 0.0
H2766 H 0.44743 0.56524 0.30867 0.0
H2767 H 0.46894 0.56769 0.30633 0.0
H2768 H 0.47003 0.55 0.18118 0.0
H2769 H 0.44851 0.54756 0.18305 0.0
H2770 H 0.48493 0.54999 0.30566 0.0
H2771 H 0.49358 0.56063 0.12265 0.0
H2772 H 0.48396 0.57135 0.0619 0.0
H2773 H 0.46582 0.5937 0.1539 0.0
H2774 H 0.47545 0.58322 0.21517 0.0
H2775 H 0.54208 0.53331 0.24237 0.0
H2776 H 0.52074 0.53668 0.23918 0.0
H2777 H 0.52648 0.57445 0.2448 0.0
H2778 H 0.54796 0.57117 0.24806 0.0
H2779 H 0.50849 0.56732 0.18428 0.0
H2780 H 0.51939 0.56187 0.33494 0.0
H2781 H 0.52935 0.55155 0.3959 0.0
H2782 H 0.50837 0.52046 0.37178 0.0
H2783 H 0.49841 0.53054 0.3102 0.0
C2784 C 0.45221 0.56202 0.28032 0.0
C2785 C 0.44626 0.55615 0.24613 0.0
C2786 C 0.46451 0.56341 0.27911 0.0
C2787 C 0.47107 0.55906 0.24355 0.0
C2788 C 0.46512 0.55355 0.20869 0.0
C2789 C 0.45282 0.55212 0.20992 0.0
C2790 C 0.48419 0.55946 0.24443 0.0
C2791 C 0.49006 0.55386 0.27925 0.0
C2792 C 0.4909 0.5646 0.21015 0.0
C2793 C 0.48517 0.57107 0.17351 0.0
C2794 C 0.48758 0.56787 0.12991 0.0
C2795 C 0.48212 0.5739 0.09539 0.0
C2796 C 0.47426 0.58318 0.10404 0.0
C2797 C 0.47187 0.58648 0.14724 0.0
C2798 C 0.47732 0.58048 0.18189 0.0
C2799 C 0.53884 0.54235 0.24249 0.0
C2800 C 0.54671 0.55198 0.24588 0.0
C2801 C 0.52664 0.54425 0.2407 0.0
C2802 C 0.52207 0.5558 0.24225 0.0
C2803 C 0.52987 0.56547 0.24364 0.0
C2804 C 0.54212 0.56358 0.24566 0.0
C2805 C 0.50911 0.55763 0.24493 0.0
C2806 C 0.50331 0.56359 0.21083 0.0
C2807 C 0.50244 0.55293 0.28006 0.0
C2808 C 0.50821 0.54693 0.31776 0.0
C2809 C 0.51694 0.55281 0.34248 0.0
C2810 C 0.52258 0.54701 0.37716 0.0
C2811 C 0.51951 0.53535 0.38766 0.0
C2812 C 0.51074 0.52949 0.3636 0.0
C2813 C 0.50509 0.53525 0.32884 0.0
H2814 H 0.5239 0.53087 0.41447 0.0
H2815 H 0.47003 0.58783 0.07727 0.0
H2816 H 0.22407 0.16479 0.13449 0.0
H2817 H 0.23838 0.16076 0.1922 0.0
H2818 H 0.21895 0.12932 0.22865 0.0
H2819 H 0.20432 0.13348 0.17127 0.0
H2820 H 0.22468 0.14178 0.29899 0.0
H2821 H 0.24597 0.12736 0.1755 0.0
H2822 H 0.25423 0.12781 0.10079 0.0
H2823 H 0.2755 0.15803 0.13453 0.0
H2824 H 0.26725 0.15788 0.20927 0.0
H2825 H 0.27023 0.1306 0.4555 0.0
H2826 H 0.25737 0.12746 0.39194 0.0
H2827 H 0.27052 0.15975 0.33385 0.0
H2828 H 0.28352 0.16283 0.39656 0.0
H2829 H 0.2681 0.14275 0.27325 0.0
H2830 H 0.24429 0.15889 0.39194 0.0
H2831 H 0.23592 0.15873 0.46655 0.0
H2832 H 0.21937 0.12514 0.44099 0.0
H2833 H 0.22778 0.12504 0.36638 0.0
C2834 C 0.22285 0.15696 0.15451 0.0
C2835 C 0.21305 0.14944 0.14822 0.0
C2836 C 0.2311 0.15463 0.18737 0.0
C2837 C 0.22986 0.14462 0.21429 0.0
C2838 C 0.22011 0.13706 0.20808 0.0
C2839 C 0.21178 0.13944 0.17528 0.0
C2840 C 0.23846 0.14251 0.25023 0.0
C2841 C 0.23417 0.14171 0.29324 0.0
C2842 C 0.25086 0.14257 0.24284 0.0
C2843 C 0.25594 0.14264 0.19798 0.0
C2844 C 0.25236 0.13415 0.16693 0.0
C2845 C 0.25704 0.13434 0.12457 0.0
C2846 C 0.26537 0.14295 0.1129 0.0
C2847 C 0.26905 0.15137 0.14361 0.0
C2848 C 0.26439 0.15122 0.18601 0.0
C2849 C 0.27046 0.13697 0.42898 0.0
C2850 C 0.27783 0.14702 0.43125 0.0
C2851 C 0.26309 0.13517 0.39275 0.0
C2852 C 0.26288 0.14346 0.35844 0.0
C2853 C 0.27054 0.15324 0.35994 0.0
C2854 C 0.27794 0.15501 0.39595 0.0
C2855 C 0.25429 0.14238 0.32187 0.0
C2856 C 0.2586 0.14257 0.2788 0.0
C2857 C 0.24191 0.14176 0.32918 0.0
C2858 C 0.23676 0.14189 0.37381 0.0
C2859 C 0.23893 0.15144 0.40235 0.0
C2860 C 0.23417 0.1514 0.44461 0.0
C2861 C 0.22715 0.14192 0.45855 0.0
C2862 C 0.22483 0.13247 0.43018 0.0
C2863 C 0.22958 0.13246 0.38791 0.0
H2864 H 0.22348 0.1419 0.49128 0.0
H2865 H 0.26898 0.14309 0.08009 0.0
H2866 H 0.08965 0.95853 0.4316 0.0
H2867 H 0.09221 0.9718 0.49386 0.0
H2868 H 0.11635 0.99333 0.41864 0.0
H2869 H 0.11395 0.97997 0.35593 0.0
H2870 H 0.12353 0.9907 0.50537 0.0
H2871 H 0.08876 0.00211 0.42598 0.0
H2872 H 0.06961 0.9987 0.38907 0.0
H2873 H 0.0544 0.98678 0.51015 0.0
H2874 H 0.07352 0.98994 0.54766 0.0
H2875 H 0.09363 0.04037 0.6499 0.0
H2876 H 0.09637 0.02958 0.5814 0.0
H2877 H 0.11335 0.00106 0.65159 0.0
H2878 H 0.11082 0.0119 0.72026 0.0
H2879 H 0.08658 0.00927 0.56084 0.0
H2880 H 0.13236 0.98639 0.58347 0.0
H2881 H 0.1518 0.99067 0.61697 0.0
H2882 H 0.14551 0.02803 0.60356 0.0
H2883 H 0.12611 0.02398 0.56944 0.0
C2884 C 0.09561 0.96601 0.4283 0.0
C2885 C 0.1015 0.96827 0.38861 0.0
C2886 C 0.09705 0.97359 0.46395 0.0
C2887 C 0.10433 0.98363 0.46058 0.0
C2888 C 0.11067 0.98563 0.42179 0.0
C2889 C 0.10926 0.97801 0.38599 0.0
C2890 C 0.10466 0.99236 0.49675 0.0
C2891 C 0.11548 0.9948 0.51755 0.0
C2892 C 0.09418 0.9979 0.51182 0.0
C2893 C 0.0826 0.99618 0.48955 0.0
C2894 C 0.08135 0.99869 0.44468 0.0
C2895 C 0.0705 0.99681 0.42366 0.0
C2896 C 0.0608 0.99251 0.44723 0.0
C2897 C 0.06192 0.99011 0.49192 0.0
C2898 C 0.07276 0.99196 0.51309 0.0
C2899 C 0.09811 0.03188 0.65075 0.0
C2900 C 0.10195 0.02696 0.6906 0.0
C2901 C 0.09965 0.02572 0.61153 0.0
C2902 C 0.10509 0.01453 0.61132 0.0
C2903 C 0.10929 0.00976 0.65085 0.0
C2904 C 0.10778 0.01594 0.69014 0.0
C2905 C 0.10543 0.00744 0.57042 0.0
C2906 C 0.09469 0.00528 0.54866 0.0
C2907 C 0.11602 0.00234 0.55414 0.0
C2908 C 0.12773 0.00487 0.57425 0.0
C2909 C 0.13515 0.99552 0.5875 0.0
C2910 C 0.14615 0.9979 0.60663 0.0
C2911 C 0.14987 0.00961 0.61251 0.0
C2912 C 0.1426 0.01896 0.59915 0.0
C2913 C 0.13159 0.01663 0.57997 0.0
H2914 H 0.15839 0.01144 0.62734 0.0
H2915 H 0.05241 0.99104 0.43089 0.0
H2916 H 0.20554 0.84702 0.91523 0.0
H2917 H 0.21536 0.85028 0.84501 0.0
H2918 H 0.24864 0.85579 0.91165 0.0
H2919 H 0.23883 0.85281 0.98213 0.0
H2920 H 0.24666 0.87025 0.8412 0.0
H2921 H 0.24136 0.82874 0.87282 0.0
H2922 H 0.22972 0.81098 0.89216 0.0
H2923 H 0.20889 0.81507 0.77544 0.0
H2924 H 0.22028 0.83298 0.7558 0.0
H2925 H 0.28839 0.85019 0.68289 0.0
H2926 H 0.27588 0.85381 0.7468 0.0
H2927 H 0.2446 0.84965 0.66699 0.0
H2928 H 0.25704 0.84601 0.60282 0.0
H2929 H 0.24418 0.83579 0.74053 0.0
H2930 H 0.25145 0.87644 0.70556 0.0
H2931 H 0.26357 0.89396 0.68764 0.0
H2932 H 0.28152 0.89108 0.81117 0.0
H2933 H 0.26962 0.87343 0.8296 0.0
C2934 C 0.21491 0.84912 0.91502 0.0
C2935 C 0.22145 0.84948 0.95419 0.0
C2936 C 0.2205 0.85097 0.87486 0.0
C2937 C 0.23277 0.85303 0.87311 0.0
C2938 C 0.23917 0.85416 0.91228 0.0
C2939 C 0.23356 0.85241 0.95253 0.0
C2940 C 0.23909 0.85295 0.83062 0.0
C2941 C 0.24619 0.8627 0.81926 0.0
C2942 C 0.2383 0.84316 0.80173 0.0
C2943 C 0.23158 0.83228 0.81309 0.0
C2944 C 0.23424 0.8259 0.85143 0.0
C2945 C 0.22769 0.8158 0.86244 0.0
C2946 C 0.21855 0.81192 0.83511 0.0
C2947 C 0.21596 0.8181 0.79663 0.0
C2948 C 0.22246 0.82822 0.78553 0.0
C2949 C 0.27885 0.8502 0.67878 0.0
C2950 C 0.2737 0.84776 0.63782 0.0
C2951 C 0.27172 0.85233 0.7153 0.0
C2952 C 0.25932 0.85205 0.71154 0.0
C2953 C 0.25416 0.84992 0.67051 0.0
C2954 C 0.26128 0.84787 0.63389 0.0
C2955 C 0.2518 0.85307 0.75109 0.0
C2956 C 0.24453 0.84344 0.76208 0.0
C2957 C 0.25253 0.86291 0.77971 0.0
C2958 C 0.2597 0.87354 0.7688 0.0
C2959 C 0.25805 0.87948 0.72876 0.0
C2960 C 0.26487 0.88945 0.71854 0.0
C2961 C 0.27333 0.89361 0.7482 0.0
C2962 C 0.27497 0.88784 0.78821 0.0
C2963 C 0.26817 0.87786 0.79858 0.0
H2964 H 0.2786 0.90134 0.74023 0.0
H2965 H 0.21348 0.80411 0.84372 0.0
H2966 H 0.40219 0.00964 0.85266 0.0
H2967 H 0.39792 0.99864 0.91951 0.0
H2968 H 0.39215 0.03152 0.98861 0.0
H2969 H 0.39681 0.04261 0.92205 0.0
H2970 H 0.40637 0.01822 0.03319 0.0
H2971 H 0.36902 0.01167 0.96411 0.0
H2972 H 0.35533 0.00601 0.90474 0.0
H2973 H 0.36914 0.97054 0.90639 0.0
H2974 H 0.38304 0.97603 0.96538 0.0
H2975 H 0.39081 0.98876 0.22823 0.0
H2976 H 0.38773 0.00038 0.1617 0.0
H2977 H 0.39888 0.97062 0.08325 0.0
H2978 H 0.40194 0.95888 0.14957 0.0
H2979 H 0.3799 0.98325 0.04604 0.0
H2980 H 0.41861 0.99077 0.10882 0.0
H2981 H 0.4323 0.99644 0.16823 0.0
H2982 H 0.41543 0.03046 0.17791 0.0
H2983 H 0.40152 0.02492 0.11893 0.0
C2984 C 0.39985 0.01454 0.88191 0.0
C2985 C 0.3999 0.027 0.88214 0.0
C2986 C 0.39733 0.00822 0.9201 0.0
C2987 C 0.39459 0.01424 0.95906 0.0
C2988 C 0.39424 0.02669 0.95895 0.0
C2989 C 0.3969 0.03301 0.92088 0.0
C2990 C 0.39314 0.00759 0.00064 0.0
C2991 C 0.40036 0.01075 0.0362 0.0
C2992 C 0.38552 0.99765 0.00438 0.0
C2993 C 0.37714 0.99429 0.96899 0.0
C2994 C 0.3692 0.00268 0.95161 0.0
C2995 C 0.3614 -0.0005 0.91805 0.0
C2996 C 0.36138 0.98793 0.90175 0.0
C2997 C 0.36916 0.9795 0.91904 0.0
C2998 C 0.377 0.98264 0.95259 0.0
C2999 C 0.39243 0.98461 0.19683 0.0
C3000 C 0.39677 0.97294 0.1942 0.0
C3001 C 0.39067 0.99127 0.15886 0.0
C3002 C 0.39322 0.98639 0.11768 0.0
C3003 C 0.39687 0.97453 0.11477 0.0
C3004 C 0.39867 0.96787 0.15273 0.0
C3005 C 0.39313 0.99392 0.07804 0.0
C3006 C 0.38571 0.99088 0.04297 0.0
C3007 C 0.40053 0.00401 0.07466 0.0
C3008 C 0.40895 0.00738 0.10985 0.0
C3009 C 0.41776 -0.00058 0.12386 0.0
C3010 C 0.42557 0.00262 0.15741 0.0
C3011 C 0.42471 0.01379 0.17693 0.0
C3012 C 0.41607 0.0218 0.16283 0.0
C3013 C 0.40822 0.01864 0.12933 0.0
H3014 H 0.43076 0.01625 0.20289 0.0
H3015 H 0.35533 0.98548 0.87576 0.0
H3016 H 0.78829 0.8325 0.90894 0.0
H3017 H 0.77643 0.83415 0.84225 0.0
H3018 H 0.75366 0.85963 0.90568 0.0
H3019 H 0.76551 0.8581 0.97246 0.0
H3020 H 0.75329 0.82881 0.83075 0.0
H3021 H 0.74375 0.87922 0.82766 0.0
H3022 H 0.75328 0.89794 0.8502 0.0
H3023 H 0.78758 0.88172 0.83873 0.0
H3024 H 0.77826 0.86296 0.81555 0.0
H3025 H 0.70597 0.83987 0.68649 0.0
H3026 H 0.71847 0.84122 0.7516 0.0
H3027 H 0.74681 0.85586 0.67376 0.0
H3028 H 0.73432 0.85469 0.60847 0.0
H3029 H 0.74524 0.86666 0.75343 0.0
H3030 H 0.74661 0.82692 0.69634 0.0
H3031 H 0.7379 0.80811 0.67055 0.0
H3032 H 0.72212 0.8025 0.79675 0.0
H3033 H 0.73059 0.82138 0.82311 0.0
C3034 C 0.78082 0.83854 0.90862 0.0
C3035 C 0.77784 0.84517 0.94602 0.0
C3036 C 0.77403 0.83943 0.87054 0.0
C3037 C 0.7642 0.84704 0.86901 0.0
C3038 C 0.76129 0.8538 0.90605 0.0
C3039 C 0.76806 0.85289 0.94421 0.0
C3040 C 0.75676 0.84759 0.82911 0.0
C3041 C 0.75153 0.83708 0.81386 0.0
C3042 C 0.75457 0.85837 0.80687 0.0
C3043 C 0.76029 0.86965 0.82031 0.0
C3044 C 0.75332 0.87966 0.8298 0.0
C3045 C 0.75869 0.89028 0.84271 0.0
C3046 C 0.77103 0.89101 0.84603 0.0
C3047 C 0.77802 0.88113 0.83631 0.0
C3048 C 0.7727 0.8705 0.82335 0.0
C3049 C 0.7148 0.84352 0.68326 0.0
C3050 C 0.7192 0.84705 0.64221 0.0
C3051 C 0.72194 0.84426 0.72049 0.0
C3052 C 0.73362 0.84846 0.71729 0.0
C3053 C 0.73783 0.85256 0.67684 0.0
C3054 C 0.73069 0.85185 0.63956 0.0
C3055 C 0.74166 0.84792 0.75552 0.0
C3056 C 0.74699 0.8584 0.77045 0.0
C3057 C 0.74408 0.83708 0.77712 0.0
C3058 C 0.73915 0.82562 0.76157 0.0
C3059 C 0.74122 0.82171 0.71852 0.0
C3060 C 0.73633 0.81103 0.7038 0.0
C3061 C 0.72944 0.80413 0.73196 0.0
C3062 C 0.72745 0.80786 0.77496 0.0
C3063 C 0.7323 0.81855 0.78981 0.0
H3064 H 0.72565 0.79587 0.72049 0.0
H3065 H 0.77516 0.89923 0.85606 0.0
H3066 H 0.89977 0.00861 0.73405 0.0
H3067 H 0.8963 0.99652 0.66894 0.0
H3068 H 0.89376 0.02812 0.59012 0.0
H3069 H 0.89731 0.04035 0.65511 0.0
H3070 H 0.87682 0.00959 0.56831 0.0
H3071 H 0.9188 0.01565 0.59159 0.0
H3072 H 0.93714 0.01537 0.63558 0.0
H3073 H 0.93349 0.97782 0.65428 0.0
H3074 H 0.915 0.97791 0.611 0.0
H3075 H 0.89165 0.98778 0.35682 0.0
H3076 H 0.88904 0.99833 0.42593 0.0
H3077 H 0.89902 0.96679 0.49694 0.0
H3078 H 0.90199 0.9563 0.42787 0.0
H3079 H 0.91117 0.98468 0.52539 0.0
H3080 H 0.87006 0.97802 0.49759 0.0
H3081 H 0.85148 0.97809 0.45507 0.0
H3082 H 0.85297 0.01604 0.44569 0.0
H3083 H 0.87166 0.01619 0.48766 0.0
C3084 C 0.89829 0.01302 0.70303 0.0
C3085 C 0.89895 0.02544 0.69962 0.0
C3086 C 0.89631 0.00609 0.6659 0.0
C3087 C 0.89487 0.01145 0.62482 0.0
C3088 C 0.89484 0.02385 0.62163 0.0
C3089 C 0.89694 0.0308 0.65872 0.0
C3090 C 0.89453 0.0041 0.58478 0.0
C3091 C 0.88433 0.0042 0.55856 0.0
C3092 C 0.90426 0.9969 0.57288 0.0
C3093 C 0.91545 0.99681 0.59849 0.0
C3094 C 0.92185 0.00735 0.60541 0.0
C3095 C 0.93228 0.00722 0.63015 0.0
C3096 C 0.93646 0.99659 0.64781 0.0
C3097 C 0.93023 0.98605 0.64064 0.0
C3098 C 0.91978 0.98613 0.616 0.0
C3099 C 0.89311 0.98303 0.38716 0.0
C3100 C 0.8971 0.97123 0.38689 0.0
C3101 C 0.89155 0.98906 0.4267 0.0
C3102 C 0.89375 0.98333 0.46671 0.0
C3103 C 0.89729 0.9714 0.46649 0.0
C3104 C 0.89897 0.96541 0.42698 0.0
C3105 C 0.89339 0.99005 0.50847 0.0
C3106 C 0.90354 0.98993 0.53508 0.0
C3107 C 0.88357 0.99715 0.52071 0.0
C3108 C 0.87232 0.99711 0.49547 0.0
C3109 C 0.86648 0.98638 0.48617 0.0
C3110 C 0.85592 0.98638 0.46222 0.0
C3111 C 0.85106 0.99706 0.4476 0.0
C3112 C 0.85674 0.00777 0.457 0.0
C3113 C 0.86732 0.00782 0.48092 0.0
H3114 H 0.84288 0.99704 0.42907 0.0
H3115 H 0.94453 0.99651 0.66695 0.0
H3116 H 0.79311 0.13241 0.1776 0.0
H3117 H 0.77946 0.12962 0.23932 0.0
H3118 H 0.76443 0.16418 0.21531 0.0
H3119 H 0.77794 0.16705 0.15413 0.0
H3120 H 0.77008 0.16076 0.30145 0.0
H3121 H 0.74979 0.1397 0.18514 0.0
H3122 H 0.74797 0.12448 0.12756 0.0
H3123 H 0.75387 0.09709 0.22272 0.0
H3124 H 0.75589 0.11218 0.28081 0.0
H3125 H 0.71653 0.16424 0.41243 0.0
H3126 H 0.73102 0.16246 0.35368 0.0
H3127 H 0.74086 0.12772 0.40015 0.0
H3128 H 0.72622 0.12937 0.45918 0.0
H3129 H 0.73965 0.12903 0.30883 0.0
H3130 H 0.75804 0.14993 0.42635 0.0
H3131 H 0.75954 0.1651 0.48421 0.0
H3132 H 0.7575 0.19264 0.38747 0.0
H3133 H 0.75578 0.17763 0.32906 0.0
C3134 C 0.78687 0.13939 0.18545 0.0
C3135 C 0.78663 0.14996 0.16102 0.0
C3136 C 0.77906 0.13777 0.22058 0.0
C3137 C 0.77094 0.1467 0.23176 0.0
C3138 C 0.77067 0.1572 0.20729 0.0
C3139 C 0.77839 0.1588 0.17221 0.0
C3140 C 0.76281 0.14537 0.26948 0.0
C3141 C 0.76338 0.15386 0.30295 0.0
C3142 C 0.75435 0.13613 0.27208 0.0
C3143 C 0.75314 0.12707 0.2372 0.0
C3144 C 0.75081 0.13044 0.19371 0.0
C3145 C 0.74972 0.12184 0.161 0.0
C3146 C 0.75084 0.10983 0.17145 0.0
C3147 C 0.75303 0.1064 0.21466 0.0
C3148 C 0.75414 0.11497 0.24749 0.0
C3149 C 0.72168 0.15616 0.41006 0.0
C3150 C 0.72031 0.14699 0.44078 0.0
C3151 C 0.72998 0.15517 0.37648 0.0
C3152 C 0.73714 0.14504 0.37308 0.0
C3153 C 0.73545 0.13563 0.40241 0.0
C3154 C 0.72711 0.13661 0.43614 0.0
C3155 C 0.7467 0.14465 0.33997 0.0
C3156 C 0.74645 0.13583 0.30759 0.0
C3157 C 0.75551 0.15357 0.33836 0.0
C3158 C 0.7567 0.16264 0.37334 0.0
C3159 C 0.75783 0.15922 0.41743 0.0
C3160 C 0.75873 0.16779 0.45033 0.0
C3161 C 0.75859 0.17983 0.43953 0.0
C3162 C 0.75759 0.18331 0.39579 0.0
C3163 C 0.75667 0.17478 0.36276 0.0
H3164 H 0.75928 0.18645 0.46504 0.0
H3165 H 0.74998 0.10318 0.14608 0.0
H3166 H 0.61209 0.98159 0.21045 0.0
H3167 H 0.6149 0.99301 0.1432 0.0
H3168 H 0.59547 0.9666 0.07054 0.0
H3169 H 0.59265 0.95509 0.13744 0.0
H3170 H 0.61481 0.97587 0.02396 0.0
H3171 H 0.58109 0.98966 0.10874 0.0
H3172 H 0.57156 0.99723 0.17582 0.0
H3173 H 0.59455 0.02758 0.1745 0.0
H3174 H 0.60434 0.02008 0.10774 0.0
H3175 H 0.58786 0.00521 0.8465 0.0
H3176 H 0.5935 0.99392 0.91126 0.0
H3177 H 0.60794 0.0256 0.96995 0.0
H3178 H 0.60202 0.03704 0.90555 0.0
H3179 H 0.59427 0.01477 0.02574 0.0
H3180 H 0.62606 0.0025 0.93416 0.0
H3181 H 0.63569 0.99488 0.86741 0.0
H3182 H 0.61694 0.96195 0.88085 0.0
H3183 H 0.60707 0.96943 0.94736 0.0
C3184 C 0.6086 0.97809 0.18004 0.0
C3185 C 0.60201 0.96751 0.17935 0.0
C3186 C 0.61022 0.98464 0.14168 0.0
C3187 C 0.60527 0.9807 0.10211 0.0
C3188 C 0.59935 0.96978 0.1008 0.0
C3189 C 0.59769 0.96325 0.13912 0.0
C3190 C 0.60516 0.98845 0.06308 0.0
C3191 C 0.61031 0.98437 0.02414 0.0
C3192 C 0.59953 -0.00035 0.06384 0.0
C3193 C 0.59354 0.00425 0.10359 0.0
C3194 C 0.58417 0.99791 0.12295 0.0
C3195 C 0.57872 0.00219 0.16088 0.0
C3196 C 0.58248 0.01287 0.17949 0.0
C3197 C 0.59167 0.0193 0.1601 0.0
C3198 C 0.59717 0.01504 0.12222 0.0
C3199 C 0.59236 0.00976 0.87294 0.0
C3200 C 0.59445 0.02203 0.87098 0.0
C3201 C 0.59566 0.00327 0.90988 0.0
C3202 C 0.60128 0.00888 0.9453 0.0
C3203 C 0.60364 0.02108 0.94297 0.0
C3204 C 0.60025 0.02761 0.90615 0.0
C3205 C 0.6038 0.00216 0.98601 0.0
C3206 C 0.59902 0.00641 0.02543 0.0
C3207 C 0.60981 0.99113 0.98559 0.0
C3208 C 0.61576 0.98657 0.94564 0.0
C3209 C 0.62392 0.99367 0.92273 0.0
C3210 C 0.62944 0.98936 0.88495 0.0
C3211 C 0.62691 0.97795 0.86986 0.0
C3212 C 0.61889 0.97079 0.89257 0.0
C3213 C 0.61334 0.97506 0.93036 0.0
H3214 H 0.63119 0.97463 0.8406 0.0
H3215 H 0.57825 0.01617 0.20887 0.0
H3216 H 0.758 0.66714 0.99189 0.0
H3217 H 0.74648 0.6611 0.92811 0.0
H3218 H 0.77668 0.64203 0.87766 0.0
H3219 H 0.78836 0.64813 0.94144 0.0
H3220 H 0.76633 0.656 0.81578 0.0
H3221 H 0.75362 0.62681 0.91854 0.0
H3222 H 0.74609 0.61938 0.98915 0.0
H3223 H 0.71385 0.63904 0.97139 0.0
H3224 H 0.72125 0.64673 0.90094 0.0
H3225 H 0.73144 0.63593 0.63851 0.0
H3226 H 0.74369 0.63448 0.70437 0.0
H3227 H 0.71715 0.65357 0.77763 0.0
H3228 H 0.70476 0.65485 0.71237 0.0
H3229 H 0.72699 0.63651 0.82692 0.0
H3230 H 0.74073 0.66791 0.73149 0.0
H3231 H 0.74803 0.67608 0.66162 0.0
H3232 H 0.77818 0.65288 0.66679 0.0
H3233 H 0.77096 0.64446 0.73646 0.0
C3234 C 0.7622 0.66162 0.96738 0.0
C3235 C 0.7741 0.65812 0.97172 0.0
C3236 C 0.75557 0.65811 0.93106 0.0
C3237 C 0.76068 0.651 0.89845 0.0
C3238 C 0.77256 0.64748 0.90262 0.0
C3239 C 0.77921 0.65095 0.93907 0.0
C3240 C 0.75372 0.64776 0.85911 0.0
C3241 C 0.75785 0.65149 0.81808 0.0
C3242 C 0.74256 0.64209 0.86231 0.0
C3243 C 0.73803 0.63741 0.90455 0.0
C3244 C 0.74496 0.62962 0.92982 0.0
C3245 C 0.74071 0.62534 0.9698 0.0
C3246 C 0.72951 0.62875 0.98478 0.0
C3247 C 0.72253 0.63641 0.95975 0.0
C3248 C 0.72674 0.64072 0.91975 0.0
C3249 C 0.72812 0.63964 0.66881 0.0
C3250 C 0.7172 0.64564 0.67008 0.0
C3251 C 0.73515 0.63883 0.70638 0.0
C3252 C 0.73143 0.64412 0.74566 0.0
C3253 C 0.72022 0.64947 0.74762 0.0
C3254 C 0.71316 0.65022 0.7102 0.0
C3255 C 0.73951 0.64495 0.78379 0.0
C3256 C 0.73558 0.64079 0.82458 0.0
C3257 C 0.75082 0.65031 0.78047 0.0
C3258 C 0.75524 0.65546 0.73888 0.0
C3259 C 0.74887 0.6645 0.71757 0.0
C3260 C 0.753 0.66918 0.67803 0.0
C3261 C 0.76354 0.66497 0.65969 0.0
C3262 C 0.77 0.65611 0.68097 0.0
C3263 C 0.7659 0.65138 0.72049 0.0
H3264 H 0.76671 0.6686 0.62906 0.0
H3265 H 0.72624 0.62544 0.01576 0.0
H3266 H 0.6003 0.54304 0.14804 0.0
H3267 H 0.60509 0.53255 0.08026 0.0
H3268 H 0.59692 0.4992 0.14253 0.0
H3269 H 0.59243 0.50957 0.21064 0.0
H3270 H 0.61554 0.49674 0.08981 0.0
H3271 H 0.57642 0.5139 0.0792 0.0
H3272 H 0.5618 0.53015 0.08101 0.0
H3273 H 0.58031 0.54792 0.9772 0.0
H3274 H 0.59514 0.53183 0.97519 0.0
H3275 H 0.59529 0.46044 0.91581 0.0
H3276 H 0.59851 0.4724 0.98132 0.0
H3277 H 0.60901 0.50205 0.90101 0.0
H3278 H 0.60577 0.49014 0.83512 0.0
H3279 H 0.59177 0.50786 0.95941 0.0
H3280 H 0.62932 0.48845 0.96392 0.0
H3281 H 0.64311 0.4715 0.96234 0.0
H3282 H 0.62674 0.45713 0.07757 0.0
H3283 H 0.61273 0.47391 0.0795 0.0
C3284 C 0.59965 0.53346 0.14744 0.0
C3285 C 0.59585 0.52715 0.18456 0.0
C3286 C 0.60237 0.52748 0.10866 0.0
C3287 C 0.60116 0.51511 0.10612 0.0
C3288 C 0.5979 0.50875 0.14371 0.0
C3289 C 0.59529 0.51471 0.18259 0.0
C3290 C 0.60253 0.50882 0.06379 0.0
C3291 C 0.61031 0.49913 0.06132 0.0
C3292 C 0.59589 0.5121 0.02634 0.0
C3293 C 0.58696 0.52174 0.02741 0.0
C3294 C 0.57742 0.52132 0.05699 0.0
C3295 C 0.56909 0.53049 0.05802 0.0
C3296 C 0.57015 0.54008 0.02934 0.0
C3297 C 0.57952 0.5405 -0.00053 0.0
C3298 C 0.58789 0.53136 0.99836 0.0
C3299 C 0.59845 0.46945 0.91204 0.0
C3300 C 0.60021 0.47436 0.87024 0.0
C3301 C 0.60036 0.47625 0.94955 0.0
C3302 C 0.60407 0.48809 0.94601 0.0
C3303 C 0.60618 0.49292 0.90441 0.0
C3304 C 0.60434 0.48609 0.86682 0.0
C3305 C 0.60466 0.49567 0.98555 0.0
C3306 C 0.59718 0.50559 0.98757 0.0
C3307 C 0.61148 0.49251 0.02262 0.0
C3308 C 0.61992 0.48241 0.02166 0.0
C3309 C 0.6286 0.48163 0.98874 0.0
C3310 C 0.63647 0.47206 0.98782 0.0
C3311 C 0.63579 0.46323 0.01979 0.0
C3312 C 0.62725 0.46397 0.05281 0.0
C3313 C 0.61936 0.47352 0.05387 0.0
H3314 H 0.64189 0.45583 0.01902 0.0
H3315 H 0.56369 0.54717 0.03017 0.0
H3316 H 0.74107 0.33769 0.48602 0.0
H3317 H 0.75153 0.34321 0.41933 0.0
H3318 H 0.71821 0.3513 0.35661 0.0
H3319 H 0.70761 0.34553 0.42323 0.0
H3320 H 0.73174 0.3382 0.30483 0.0
H3321 H 0.73739 0.37354 0.38756 0.0
H3322 H 0.74268 0.3856 0.45199 0.0
H3323 H 0.77848 0.37278 0.44573 0.0
H3324 H 0.77337 0.3605 0.38161 0.0
H3325 H 0.76263 0.3579 0.1171 0.0
H3326 H 0.75015 0.35948 0.18226 0.0
H3327 H 0.77945 0.34816 0.26285 0.0
H3328 H 0.79202 0.34666 0.19806 0.0
H3329 H 0.7662 0.36556 0.30261 0.0
H3330 H 0.75962 0.32828 0.22741 0.0
H3331 H 0.75445 0.31592 0.16357 0.0
H3332 H 0.72024 0.33254 0.1566 0.0
H3333 H 0.72529 0.34511 0.22009 0.0
C3334 C 0.73595 0.34071 0.45819 0.0
C3335 C 0.7235 0.34116 0.45992 0.0
C3336 C 0.74196 0.34395 0.42014 0.0
C3337 C 0.73567 0.34785 0.3832 0.0
C3338 C 0.72324 0.34837 0.38484 0.0
C3339 C 0.7172 0.34507 0.4229 0.0
C3340 C 0.7421 0.35068 0.3422 0.0
C3341 C 0.7391 0.3444 0.30413 0.0
C3342 C 0.75184 0.3586 0.34147 0.0
C3343 C 0.75497 0.36603 0.3799 0.0
C3344 C 0.74637 0.37322 0.40009 0.0
C3345 C 0.74934 0.38011 0.43654 0.0
C3346 C 0.7609 0.37994 0.45299 0.0
C3347 C 0.76952 0.3729 0.43295 0.0
C3348 C 0.7666 0.36599 0.39651 0.0
C3349 C 0.76648 0.35593 0.14876 0.0
C3350 C 0.77828 0.352 0.15236 0.0
C3351 C 0.75933 0.35682 0.18592 0.0
C3352 C 0.76384 0.35376 0.22722 0.0
C3353 C 0.7758 0.35053 0.23123 0.0
C3354 C 0.78296 0.34964 0.19413 0.0
C3355 C 0.75593 0.35295 0.26574 0.0
C3356 C 0.75868 0.35957 0.30327 0.0
C3357 C 0.74596 0.34534 0.26606 0.0
C3358 C 0.74289 0.33773 0.22813 0.0
C3359 C 0.75103 0.32935 0.21205 0.0
C3360 C 0.74812 0.3223 0.17597 0.0
C3361 C 0.73704 0.32347 0.15595 0.0
C3362 C 0.72883 0.33166 0.17208 0.0
C3363 C 0.73172 0.33875 0.20811 0.0
H3364 H 0.7348 0.318 0.12803 0.0
H3365 H 0.76318 0.38528 0.48122 0.0
H3366 H 0.91279 0.488 0.71281 0.0
H3367 H 0.90722 0.49987 0.64929 0.0
H3368 H 0.89019 0.46938 0.59151 0.0
H3369 H 0.89604 0.45736 0.65444 0.0
H3370 H 0.90387 0.4794 0.53429 0.0
H3371 H 0.8741 0.49353 0.63183 0.0
H3372 H 0.86594 0.50176 0.70027 0.0
H3373 H 0.88646 0.53346 0.68262 0.0
H3374 H 0.89488 0.52536 0.61437 0.0
H3375 H 0.88345 0.51243 0.3535 0.0
H3376 H 0.88186 0.50154 0.42246 0.0
H3377 H 0.90406 0.52752 0.48586 0.0
H3378 H 0.9057 0.53849 0.41713 0.0
H3379 H 0.88537 0.51929 0.53939 0.0
H3380 H 0.91665 0.50379 0.44685 0.0
H3381 H 0.92466 0.49556 0.37817 0.0
H3382 H 0.90063 0.46612 0.3872 0.0
H3383 H 0.89235 0.4743 0.45565 0.0
C3384 C 0.90775 0.48385 0.68681 0.0
C3385 C 0.90491 0.47173 0.68853 0.0
C3386 C 0.90449 0.49067 0.65062 0.0
C3387 C 0.89816 0.48556 0.6158 0.0
C3388 C 0.89506 0.47352 0.618 0.0
C3389 C 0.89841 0.46666 0.65398 0.0
C3390 C 0.89562 0.49252 0.57567 0.0
C3391 C 0.89957 0.488 0.53541 0.0
C3392 C 0.89025 0.50387 0.57711 0.0
C3393 C 0.88519 0.50879 0.61812 0.0
C3394 C 0.87694 0.50222 0.6427 0.0
C3395 C 0.87226 0.50687 0.68144 0.0
C3396 C 0.8757 0.51811 0.69583 0.0
C3397 C 0.88381 0.52475 0.67145 0.0
C3398 C 0.88853 0.52014 0.6327 0.0
C3399 C 0.88782 0.51595 0.38227 0.0
C3400 C 0.89483 0.52623 0.37973 0.0
C3401 C 0.8869 0.50971 0.42162 0.0
C3402 C 0.89295 0.51367 0.459 0.0
C3403 C 0.89933 0.52433 0.4573 0.0
C3404 C 0.9003 0.53055 0.41794 0.0
C3405 C 0.89365 0.50614 0.49855 0.0
C3406 C 0.88944 0.51058 0.5385 0.0
C3407 C 0.89874 0.4947 0.49695 0.0
C3408 C 0.90379 0.48972 0.45605 0.0
C3409 C 0.91301 0.49561 0.43399 0.0
C3410 C 0.91761 0.49095 0.39515 0.0
C3411 C 0.91314 0.48034 0.37826 0.0
C3412 C 0.90408 0.47435 0.40027 0.0
C3413 C 0.89943 0.47899 0.4391 0.0
H3414 H 0.91671 0.47674 0.34818 0.0
H3415 H 0.87206 0.5217 0.72583 0.0
H3416 H 0.23732 0.35563 0.10176 0.0
H3417 H 0.24924 0.35822 0.16803 0.0
H3418 H 0.21827 0.35223 0.24768 0.0
H3419 H 0.20627 0.34952 0.18166 0.0
H3420 H 0.2337 0.37093 0.27855 0.0
H3421 H 0.23494 0.32993 0.23106 0.0
H3422 H 0.23836 0.31406 0.17697 0.0
H3423 H 0.27459 0.32513 0.16291 0.0
H3424 H 0.27132 0.3412 0.21646 0.0
H3425 H 0.25773 0.35195 0.4814 0.0
H3426 H 0.24691 0.3553 0.41329 0.0
H3427 H 0.27962 0.35279 0.34056 0.0
H3428 H 0.29041 0.34896 0.40847 0.0
H3429 H 0.26407 0.33982 0.30323 0.0
H3430 H 0.26382 0.37972 0.35484 0.0
H3431 H 0.26071 0.39603 0.40734 0.0
H3432 H 0.22352 0.38801 0.41239 0.0
H3433 H 0.22643 0.37154 0.36036 0.0
C3434 C 0.233 0.35504 0.13335 0.0
C3435 C 0.22088 0.35226 0.13651 0.0
C3436 C 0.23983 0.35652 0.17113 0.0
C3437 C 0.23463 0.35533 0.21262 0.0
C3438 C 0.22242 0.35319 0.2159 0.0
C3439 C 0.21561 0.35158 0.17816 0.0
C3440 C 0.24207 0.35532 0.2525 0.0
C3441 C 0.24031 0.36412 0.28426 0.0
C3442 C 0.25085 0.34657 0.25919 0.0
C3443 C 0.25285 0.33684 0.22736 0.0
C3444 C 0.24361 0.32904 0.21616 0.0
C3445 C 0.24552 0.32 0.18565 0.0
C3446 C 0.25667 0.31861 0.16642 0.0
C3447 C 0.26595 0.32623 0.17777 0.0
C3448 C 0.26407 0.3353 0.2082 0.0
C3449 C 0.26264 0.35228 0.45096 0.0
C3450 C 0.27491 0.35015 0.45026 0.0
C3451 C 0.25645 0.35426 0.412 0.0
C3452 C 0.26245 0.35443 0.37169 0.0
C3453 C 0.27478 0.35269 0.37118 0.0
C3454 C 0.28094 0.35052 0.41003 0.0
C3455 C 0.25578 0.35548 0.32988 0.0
C3456 C 0.25762 0.34679 0.29763 0.0
C3457 C 0.24716 0.36441 0.32269 0.0
C3458 C 0.24536 0.37433 0.35395 0.0
C3459 C 0.25499 0.38138 0.36739 0.0
C3460 C 0.25326 0.39066 0.39703 0.0
C3461 C 0.24193 0.39304 0.41327 0.0
C3462 C 0.23229 0.38615 0.39981 0.0
C3463 C 0.23398 0.37685 0.3702 0.0
H3464 H 0.24061 0.40023 0.43621 0.0
H3465 H 0.25814 0.31161 0.1428 0.0
H3466 H 0.40008 0.45862 0.92901 0.0
H3467 H 0.39604 0.47072 0.99381 0.0
H3468 H 0.40162 0.5025 0.91807 0.0
H3469 H 0.4057 0.49051 0.85323 0.0
H3470 H 0.41442 0.50236 0.99383 0.0
H3471 H 0.37419 0.49517 0.94998 0.0
H3472 H 0.35701 0.48294 0.9287 0.0
H3473 H 0.35822 0.46508 0.05274 0.0
H3474 H 0.37552 0.4771 0.07454 0.0
H3475 H 0.39961 0.54274 0.15835 0.0
H3476 H 0.398 0.5319 0.08939 0.0
H3477 H 0.39089 0.49962 0.16039 0.0
H3478 H 0.39215 0.51046 0.22955 0.0
H3479 H 0.37817 0.50043 0.08562 0.0
H3480 H 0.41878 0.50631 0.12811 0.0
H3481 H 0.43605 0.5182 0.15104 0.0
H3482 H 0.43455 0.53775 0.03058 0.0
H3483 H 0.41713 0.5261 0.00724 0.0
C3484 C 0.40033 0.46819 0.92603 0.0
C3485 C 0.40326 0.47361 0.88602 0.0
C3486 C 0.39797 0.47508 0.96304 0.0
C3487 C 0.39849 0.4875 0.96063 0.0
C3488 C 0.40118 0.49293 0.92056 0.0
C3489 C 0.40348 0.48605 0.88354 0.0
C3490 C 0.39696 0.49482 0.00047 0.0
C3491 C 0.40641 0.50209 0.01349 0.0
C3492 C 0.38665 0.49418 0.02671 0.0
C3493 C 0.37623 0.48696 0.01373 0.0
C3494 C 0.37086 0.48857 0.97258 0.0
C3495 C 0.36109 0.48169 0.96045 0.0
C3496 C 0.35655 0.47322 0.9893 0.0
C3497 C 0.36176 0.47163 0.0304 0.0
C3498 C 0.37154 0.47849 0.04268 0.0
C3499 C 0.39751 0.53337 0.15928 0.0
C3500 C 0.39617 0.52741 0.19938 0.0
C3501 C 0.39662 0.52719 0.11986 0.0
C3502 C 0.39459 0.51491 0.11986 0.0
C3503 C 0.39251 0.50908 0.1597 0.0
C3504 C 0.39328 0.51529 0.19918 0.0
C3505 C 0.3956 0.50801 0.07877 0.0
C3506 C 0.38612 0.50077 0.06569 0.0
C3507 C 0.40595 0.50856 0.05258 0.0
C3508 C 0.41658 0.51541 0.06612 0.0
C3509 C 0.42209 0.51319 0.10662 0.0
C3510 C 0.43191 0.51989 0.11969 0.0
C3511 C 0.43637 0.52875 0.09234 0.0
C3512 C 0.43106 0.5309 0.05177 0.0
C3513 C 0.42122 0.52425 0.03859 0.0
H3514 H 0.44396 0.53394 0.10255 0.0
H3515 H 0.34898 0.4679 0.97985 0.0
H3516 H 0.23445 0.63627 0.9791 0.0
H3517 H 0.24616 0.6337 0.91234 0.0
H3518 H 0.21795 0.64929 0.83636 0.0
H3519 H 0.20618 0.65187 0.90275 0.0
H3520 H 0.22932 0.6305 0.79299 0.0
H3521 H 0.23921 0.66654 0.87206 0.0
H3522 H 0.24557 0.6777 0.93742 0.0
H3523 H 0.27824 0.65817 0.9404 0.0
H3524 H 0.27197 0.64676 0.8754 0.0
H3525 H 0.25581 0.65873 0.61194 0.0
H3526 H 0.2451 0.65255 0.67736 0.0
H3527 H 0.27804 0.64203 0.73786 0.0
H3528 H 0.28888 0.64848 0.67274 0.0
H3529 H 0.26573 0.65521 0.79166 0.0
H3530 H 0.25714 0.62128 0.7049 0.0
H3531 H 0.25068 0.61014 0.63965 0.0
H3532 H 0.21588 0.62527 0.65034 0.0
H3533 H 0.22216 0.63664 0.71531 0.0
C3534 C 0.23064 0.63893 0.94808 0.0
C3535 C 0.21946 0.64442 0.94626 0.0
C3536 C 0.23734 0.63746 0.91001 0.0
C3537 C 0.23296 0.64144 0.8696 0.0
C3538 C 0.22148 0.64617 0.86727 0.0
C3539 C 0.2148 0.64769 0.9053 0.0
C3540 C 0.24072 0.64191 0.83063 0.0
C3541 C 0.23728 0.6359 0.7925 0.0
C3542 C 0.25124 0.64875 0.83052 0.0
C3543 C 0.25507 0.6557 0.86924 0.0
C3544 C 0.24771 0.66457 0.88686 0.0
C3545 C 0.2513 0.67094 0.92381 0.0
C3546 C 0.26229 0.66862 0.94314 0.0
C3547 C 0.26972 0.65994 0.92546 0.0
C3548 C 0.26616 0.65351 0.88857 0.0
C3549 C 0.26078 0.65498 0.63894 0.0
C3550 C 0.2732 0.65415 0.63722 0.0
C3551 C 0.25462 0.65137 0.67625 0.0
C3552 C 0.26075 0.64669 0.71237 0.0
C3553 C 0.27313 0.64559 0.71034 0.0
C3554 C 0.27931 0.64928 0.6731 0.0
C3555 C 0.2543 0.64391 0.75342 0.0
C3556 C 0.25794 0.64956 0.79208 0.0
C3557 C 0.24399 0.63672 0.7539 0.0
C3558 C 0.24015 0.62988 0.71485 0.0
C3559 C 0.24813 0.6223 0.69317 0.0
C3560 C 0.2445 0.61593 0.65625 0.0
C3561 C 0.23289 0.61701 0.64082 0.0
C3562 C 0.22487 0.62445 0.66233 0.0
C3563 C 0.22846 0.63084 0.69925 0.0
H3564 H 0.23009 0.61207 0.61223 0.0
H3565 H 0.26506 0.67356 0.97174 0.0
H3566 H 0.11636 0.52754 0.35221 0.0
H3567 H 0.12065 0.51504 0.41581 0.0
H3568 H 0.08523 0.52103 0.46441 0.0
H3569 H 0.081 0.53374 0.40188 0.0
H3570 H 0.10051 0.52193 0.52937 0.0
H3571 H 0.09337 0.49543 0.40655 0.0
H3572 H 0.09727 0.48736 0.33289 0.0
H3573 H 0.13288 0.47866 0.37089 0.0
H3574 H 0.12923 0.48682 0.44465 0.0
H3575 H 0.08435 0.47375 0.65802 0.0
H3576 H 0.0869 0.48812 0.59952 0.0
H3577 H 0.1235 0.47772 0.5854 0.0
H3578 H 0.121 0.46308 0.64421 0.0
H3579 H 0.11198 0.47993 0.50602 0.0
H3580 H 0.11745 0.50355 0.63381 0.0
H3581 H 0.11277 0.51112 0.70754 0.0
H3582 H 0.07968 0.52494 0.6604 0.0
H3583 H 0.08407 0.51731 0.58651 0.0
C3584 C 0.10952 0.52625 0.37663 0.0
C3585 C 0.09831 0.53157 0.37189 0.0
C3586 C 0.11197 0.51907 0.41287 0.0
C3587 C 0.10321 0.51696 0.44458 0.0
C3588 C 0.09214 0.52253 0.44039 0.0
C3589 C 0.08972 0.52977 0.4045 0.0
C3590 C 0.10529 0.50871 0.48161 0.0
C3591 C 0.10299 0.51273 0.52424 0.0
C3592 C 0.1089 0.49681 0.47511 0.0
C3593 C 0.11107 0.49186 0.43089 0.0
C3594 C 0.10206 0.49188 0.39907 0.0
C3595 C 0.10422 0.48727 0.35734 0.0
C3596 C 0.11533 0.48254 0.34717 0.0
C3597 C 0.12429 0.48236 0.37878 0.0
C3598 C 0.12218 0.48697 0.42055 0.0
C3599 C 0.09297 0.47448 0.64265 0.0
C3600 C 0.1025 0.46729 0.65598 0.0
C3601 C 0.09442 0.48276 0.6093 0.0
C3602 C 0.10544 0.48413 0.58867 0.0
C3603 C 0.11495 0.47684 0.60119 0.0
C3604 C 0.1135 0.46851 0.63476 0.0
C3605 C 0.10677 0.49305 0.55346 0.0
C3606 C 0.10975 0.48918 0.51125 0.0
C3607 C 0.1037 0.50508 0.56028 0.0
C3608 C 0.10107 0.5098 0.60462 0.0
C3609 C 0.10914 0.50815 0.63921 0.0
C3610 C 0.10654 0.51245 0.68104 0.0
C3611 C 0.09593 0.51849 0.68866 0.0
C3612 C 0.0879 0.52026 0.65444 0.0
C3613 C 0.09045 0.51596 0.61256 0.0
H3614 H 0.09393 0.52182 0.72108 0.0
H3615 H 0.11699 0.47898 0.31484 0.0
loop_
_geom_bond_atom_site_label_1
_geom_bond_atom_site_label_2
_geom_bond_distance
_geom_bond_site_symmetry_2
_ccdc_geom_bond_type
C0 O1 1.160 . S
C0 O7 1.185 . S
O1 C0 1.160 . S
O2 Zn3 1.899 . S
O2 C10 1.284 . S
Zn3 O2 1.899 . S
Zn3 O4 2.032 1_554 S
Zn3 O7 2.086 . S
Zn3 O12 1.977 . S
O4 Zn3 2.032 1_556 S
O4 C8 1.278 . S
C5 O6 1.203 . S
C5 O12 1.267 . S
O6 C5 1.203 . S
O7 C0 1.185 . S
O7 Zn3 2.086 . S
C8 O4 1.278 . S
C8 O9 1.211 . S
O9 C8 1.211 . S
C10 O2 1.284 . S
C10 O11 1.273 . S
O11 C10 1.273 . S
O12 Zn3 1.977 . S
O12 C5 1.267 . S
C13 O14 1.160 . S
C13 O20 1.185 . S
O14 C13 1.160 . S
O15 Zn16 1.899 . S
O15 C23 1.284 . S
Zn16 O15 1.899 . S
Zn16 O17 2.032 . S
Zn16 O20 2.086 . S
Zn16 O25 1.977 . S
O17 Zn16 2.032 . S
O17 C21 1.278 . S
C18 O19 1.203 . S
C18 O25 1.267 . S
O19 C18 1.203 . S
O20 C13 1.185 . S
O20 Zn16 2.086 . S
C21 O17 1.278 . S
C21 O22 1.211 . S
O22 C21 1.211 . S
C23 O15 1.284 . S
C23 O24 1.273 . S
O24 C23 1.273 . S
O25 Zn16 1.977 . S
O25 C18 1.267 . S
C26 O27 1.160 . S
C26 O33 1.185 . S
O27 C26 1.160 . S
O28 Zn29 1.899 . S
O28 C36 1.284 . S
Zn29 O28 1.899 . S
Zn29 O30 2.032 . S
Zn29 O33 2.086 . S
Zn29 O38 1.977 . S
O30 Zn29 2.032 . S
O30 C34 1.278 . S
C31 O32 1.203 . S
C31 O38 1.267 . S
O32 C31 1.203 . S
O33 C26 1.185 . S
O33 Zn29 2.086 . S
C34 O30 1.278 . S
C34 O35 1.211 . S
O35 C34 1.211 . S
C36 O28 1.284 . S
C36 O37 1.273 . S
O37 C36 1.273 . S
O38 Zn29 1.977 . S
O38 C31 1.267 . S
C39 O40 1.160 . S
C39 O46 1.185 . S
O40 C39 1.160 . S
O41 Zn42 1.899 . S
O41 C49 1.284 . S
Zn42 O41 1.899 . S
Zn42 O43 2.032 . S
Zn42 O46 2.086 . S
Zn42 O51 1.977 . S
O43 Zn42 2.032 . S
O43 C47 1.278 . S
C44 O45 1.203 . S
C44 O51 1.267 . S
O45 C44 1.203 . S
O46 C39 1.185 . S
O46 Zn42 2.086 . S
C47 O43 1.278 . S
C47 O48 1.211 . S
O48 C47 1.211 . S
C49 O41 1.284 . S
C49 O50 1.273 . S
O50 C49 1.273 . S
O51 Zn42 1.977 . S
O51 C44 1.267 . S
C52 O53 1.160 . S
C52 O59 1.185 . S
O53 C52 1.160 . S
O54 Zn55 1.899 1_556 S
O54 C62 1.284 . S
Zn55 O54 1.899 1_554 S
Zn55 O56 2.032 . S
Zn55 O59 2.086 . S
Zn55 O64 1.977 . S
O56 Zn55 2.032 . S
O56 C60 1.278 . S
C57 O58 1.203 . S
C57 O64 1.267 . S
O58 C57 1.203 . S
O59 C52 1.185 . S
O59 Zn55 2.086 . S
C60 O56 1.278 . S
C60 O61 1.211 . S
O61 C60 1.211 . S
C62 O54 1.284 . S
C62 O63 1.273 1_556 S
O63 C62 1.273 1_554 S
O64 Zn55 1.977 . S
O64 C57 1.267 . S
C65 O66 1.160 . S
C65 O72 1.185 . S
O66 C65 1.160 . S
O67 Zn68 1.899 . S
O67 C75 1.284 . S
Zn68 O67 1.899 . S
Zn68 O69 2.032 . S
Zn68 O72 2.086 . S
Zn68 O77 1.977 . S
O69 Zn68 2.032 . S
O69 C73 1.278 . S
C70 O71 1.203 . S
C70 O77 1.267 . S
O71 C70 1.203 . S
O72 C65 1.185 . S
O72 Zn68 2.086 . S
C73 O69 1.278 . S
C73 O74 1.211 . S
O74 C73 1.211 . S
C75 O67 1.284 . S
C75 O76 1.273 . S
O76 C75 1.273 . S
O77 Zn68 1.977 . S
O77 C70 1.267 . S
C78 O79 1.160 . S
C78 O85 1.185 . S
O79 C78 1.160 . S
O80 Zn81 1.899 . S
O80 C88 1.284 . S
Zn81 O80 1.899 . S
Zn81 O82 2.032 . S
Zn81 O85 2.086 . S
Zn81 O90 1.977 . S
O82 Zn81 2.032 . S
O82 C86 1.278 . S
C83 O84 1.203 . S
C83 O90 1.267 . S
O84 C83 1.203 . S
O85 C78 1.185 . S
O85 Zn81 2.086 . S
C86 O82 1.278 . S
C86 O87 1.211 . S
O87 C86 1.211 . S
C88 O80 1.284 . S
C88 O89 1.273 . S
O89 C88 1.273 . S
O90 Zn81 1.977 . S
O90 C83 1.267 . S
C91 O92 1.160 . S
C91 O98 1.185 . S
O92 C91 1.160 . S
O93 Zn94 1.899 . S
O93 C101 1.284 . S
Zn94 O93 1.899 . S
Zn94 O95 2.032 . S
Zn94 O98 2.086 . S
Zn94 O103 1.977 . S
O95 Zn94 2.032 . S
O95 C99 1.278 . S
C96 O97 1.203 . S
C96 O103 1.267 . S
O97 C96 1.203 . S
O98 C91 1.185 . S
O98 Zn94 2.086 . S
C99 O95 1.278 . S
C99 O100 1.211 . S
O100 C99 1.211 . S
C101 O93 1.284 . S
C101 O102 1.273 . S
O102 C101 1.273 . S
O103 Zn94 1.977 . S
O103 C96 1.267 . S
C104 O105 1.160 . S
C104 O111 1.185 . S
O105 C104 1.160 . S
O106 Zn107 1.899 1_556 S
O106 C114 1.284 . S
Zn107 O106 1.899 1_554 S
Zn107 O108 2.032 . S
Zn107 O111 2.086 . S
Zn107 O116 1.977 . S
O108 Zn107 2.032 . S
O108 C112 1.278 . S
C109 O110 1.203 . S
C109 O116 1.267 . S
O110 C109 1.203 . S
O111 C104 1.185 . S
O111 Zn107 2.086 . S
C112 O108 1.278 . S
C112 O113 1.211 . S
O113 C112 1.211 . S
C114 O106 1.284 . S
C114 O115 1.273 1_556 S
O115 C114 1.273 1_554 S
O116 Zn107 1.977 . S
O116 C109 1.267 . S
C117 O118 1.160 . S
C117 O124 1.185 . S
O118 C117 1.160 . S
O119 Zn120 1.899 . S
O119 C127 1.284 . S
Zn120 O119 1.899 . S
Zn120 O121 2.032 . S
Zn120 O124 2.086 . S
Zn120 O129 1.977 . S
O121 Zn120 2.032 . S
O121 C125 1.278 . S
C122 O123 1.203 . S
C122 O129 1.267 . S
O123 C122 1.203 . S
O124 C117 1.185 . S
O124 Zn120 2.086 . S
C125 O121 1.278 . S
C125 O126 1.211 . S
O126 C125 1.211 . S
C127 O119 1.284 . S
C127 O128 1.273 . S
O128 C127 1.273 . S
O129 Zn120 1.977 . S
O129 C122 1.267 . S
C130 O131 1.160 . S
C130 O137 1.185 . S
O131 C130 1.160 . S
O132 Zn133 1.899 . S
O132 C140 1.284 . S
Zn133 O132 1.899 . S
Zn133 O134 2.032 . S
Zn133 O137 2.086 . S
Zn133 O142 1.977 . S
O134 Zn133 2.032 . S
O134 C138 1.278 . S
C135 O136 1.203 . S
C135 O142 1.267 . S
O136 C135 1.203 . S
O137 C130 1.185 . S
O137 Zn133 2.086 . S
C138 O134 1.278 . S
C138 O139 1.211 . S
O139 C138 1.211 . S
C140 O132 1.284 . S
C140 O141 1.273 . S
O141 C140 1.273 . S
O142 Zn133 1.977 . S
O142 C135 1.267 . S
C143 O144 1.160 . S
C143 O150 1.185 . S
O144 C143 1.160 . S
O145 Zn146 1.899 . S
O145 C153 1.284 . S
Zn146 O145 1.899 . S
Zn146 O147 2.032 . S
Zn146 O150 2.086 . S
Zn146 O155 1.977 . S
O147 Zn146 2.032 . S
O147 C151 1.278 . S
C148 O149 1.203 . S
C148 O155 1.267 . S
O149 C148 1.203 . S
O150 C143 1.185 . S
O150 Zn146 2.086 . S
C151 O147 1.278 . S
C151 O152 1.211 . S
O152 C151 1.211 . S
C153 O145 1.284 . S
C153 O154 1.273 . S
O154 C153 1.273 . S
O155 Zn146 1.977 . S
O155 C148 1.267 . S
C156 O157 1.160 . S
C156 O163 1.185 . S
O157 C156 1.160 . S
O158 Zn159 1.899 . S
O158 C166 1.284 . S
Zn159 O158 1.899 . S
Zn159 O160 2.032 1_554 S
Zn159 O163 2.086 . S
Zn159 O168 1.977 . S
O160 Zn159 2.032 1_556 S
O160 C164 1.278 . S
C161 O162 1.203 . S
C161 O168 1.267 . S
O162 C161 1.203 . S
O163 C156 1.185 . S
O163 Zn159 2.086 . S
C164 O160 1.278 . S
C164 O165 1.211 . S
O165 C164 1.211 . S
C166 O158 1.284 . S
C166 O167 1.273 . S
O167 C166 1.273 . S
O168 Zn159 1.977 . S
O168 C161 1.267 . S
C169 O170 1.160 . S
C169 O176 1.185 . S
O170 C169 1.160 . S
O171 Zn172 1.899 . S
O171 C179 1.284 . S
Zn172 O171 1.899 . S
Zn172 O173 2.032 . S
Zn172 O176 2.086 . S
Zn172 O181 1.977 . S
O173 Zn172 2.032 . S
O173 C177 1.278 . S
C174 O175 1.203 . S
C174 O181 1.267 . S
O175 C174 1.203 . S
O176 C169 1.185 . S
O176 Zn172 2.086 . S
C177 O173 1.278 . S
C177 O178 1.211 . S
O178 C177 1.211 . S
C179 O171 1.284 . S
C179 O180 1.273 . S
O180 C179 1.273 . S
O181 Zn172 1.977 . S
O181 C174 1.267 . S
C182 O183 1.160 . S
C182 O189 1.185 . S
O183 C182 1.160 . S
O184 Zn185 1.899 . S
O184 C192 1.284 . S
Zn185 O184 1.899 . S
Zn185 O186 2.032 . S
Zn185 O189 2.086 . S
Zn185 O194 1.977 . S
O186 Zn185 2.032 . S
O186 C190 1.278 . S
C187 O188 1.203 . S
C187 O194 1.267 . S
O188 C187 1.203 . S
O189 C182 1.185 . S
O189 Zn185 2.086 . S
C190 O186 1.278 . S
C190 O191 1.211 . S
O191 C190 1.211 . S
C192 O184 1.284 . S
C192 O193 1.273 . S
O193 C192 1.273 . S
O194 Zn185 1.977 . S
O194 C187 1.267 . S
C195 O196 1.160 . S
C195 O202 1.185 . S
O196 C195 1.160 . S
O197 Zn198 1.899 . S
O197 C205 1.284 . S
Zn198 O197 1.899 . S
Zn198 O199 2.032 . S
Zn198 O202 2.086 . S
Zn198 O207 1.977 . S
O199 Zn198 2.032 . S
O199 C203 1.278 . S
C200 O201 1.203 . S
C200 O207 1.267 . S
O201 C200 1.203 . S
O202 C195 1.185 . S
O202 Zn198 2.086 . S
C203 O199 1.278 . S
C203 O204 1.211 . S
O204 C203 1.211 . S
C205 O197 1.284 . S
C205 O206 1.273 . S
O206 C205 1.273 . S
O207 Zn198 1.977 . S
O207 C200 1.267 . S
C208 O209 1.160 . S
C208 O215 1.185 . S
O209 C208 1.160 . S
O210 Zn211 1.899 . S
O210 C218 1.284 . S
Zn211 O210 1.899 . S
Zn211 O212 2.032 . S
Zn211 O215 2.086 . S
Zn211 O220 1.977 . S
O212 Zn211 2.032 . S
O212 C216 1.278 . S
C213 O214 1.203 . S
C213 O220 1.267 . S
O214 C213 1.203 . S
O215 C208 1.185 . S
O215 Zn211 2.086 . S
C216 O212 1.278 . S
C216 O217 1.211 . S
O217 C216 1.211 . S
C218 O210 1.284 . S
C218 O219 1.273 . S
O219 C218 1.273 . S
O220 Zn211 1.977 . S
O220 C213 1.267 . S
C221 O222 1.160 . S
C221 O228 1.185 . S
O222 C221 1.160 . S
O223 Zn224 1.899 . S
O223 C231 1.284 . S
Zn224 O223 1.899 . S
Zn224 O225 2.032 . S
Zn224 O228 2.086 . S
Zn224 O233 1.977 . S
O225 Zn224 2.032 . S
O225 C229 1.278 . S
C226 O227 1.203 . S
C226 O233 1.267 . S
O227 C226 1.203 . S
O228 C221 1.185 . S
O228 Zn224 2.086 . S
C229 O225 1.278 . S
C229 O230 1.211 . S
O230 C229 1.211 . S
C231 O223 1.284 . S
C231 O232 1.273 . S
O232 C231 1.273 . S
O233 Zn224 1.977 . S
O233 C226 1.267 . S
C234 O235 1.160 . S
C234 O241 1.185 . S
O235 C234 1.160 . S
O236 Zn237 1.899 . S
O236 C244 1.284 . S
Zn237 O236 1.899 . S
Zn237 O238 2.032 1_554 S
Zn237 O241 2.086 . S
Zn237 O246 1.977 . S
O238 Zn237 2.032 1_556 S
O238 C242 1.278 . S
C239 O240 1.203 . S
C239 O246 1.267 . S
O240 C239 1.203 . S
O241 C234 1.185 . S
O241 Zn237 2.086 . S
C242 O238 1.278 . S
C242 O243 1.211 . S
O243 C242 1.211 . S
C244 O236 1.284 . S
C244 O245 1.273 . S
O245 C244 1.273 . S
O246 Zn237 1.977 . S
O246 C239 1.267 . S
C247 O248 1.160 . S
C247 O254 1.185 . S
O248 C247 1.160 . S
O249 Zn250 1.899 . S
O249 C257 1.284 . S
Zn250 O249 1.899 . S
Zn250 O251 2.032 . S
Zn250 O254 2.086 . S
Zn250 O259 1.977 . S
O251 Zn250 2.032 . S
O251 C255 1.278 . S
C252 O253 1.203 . S
C252 O259 1.267 . S
O253 C252 1.203 . S
O254 C247 1.185 . S
O254 Zn250 2.086 . S
C255 O251 1.278 . S
C255 O256 1.211 . S
O256 C255 1.211 . S
C257 O249 1.284 . S
C257 O258 1.273 . S
O258 C257 1.273 . S
O259 Zn250 1.977 . S
O259 C252 1.267 . S
C260 O261 1.160 . S
C260 O267 1.185 . S
O261 C260 1.160 . S
O262 Zn263 1.899 . S
O262 C270 1.284 . S
Zn263 O262 1.899 . S
Zn263 O264 2.032 . S
Zn263 O267 2.086 . S
Zn263 O272 1.977 . S
O264 Zn263 2.032 . S
O264 C268 1.278 . S
C265 O266 1.203 . S
C265 O272 1.267 . S
O266 C265 1.203 . S
O267 C260 1.185 . S
O267 Zn263 2.086 . S
C268 O264 1.278 . S
C268 O269 1.211 . S
O269 C268 1.211 . S
C270 O262 1.284 . S
C270 O271 1.273 . S
O271 C270 1.273 . S
O272 Zn263 1.977 . S
O272 C265 1.267 . S
C273 O274 1.160 . S
C273 O280 1.185 . S
O274 C273 1.160 . S
O275 Zn276 1.899 . S
O275 C283 1.284 . S
Zn276 O275 1.899 . S
Zn276 O277 2.032 . S
Zn276 O280 2.086 . S
Zn276 O285 1.977 . S
O277 Zn276 2.032 . S
O277 C281 1.278 . S
C278 O279 1.203 . S
C278 O285 1.267 . S
O279 C278 1.203 . S
O280 C273 1.185 . S
O280 Zn276 2.086 . S
C281 O277 1.278 . S
C281 O282 1.211 . S
O282 C281 1.211 . S
C283 O275 1.284 . S
C283 O284 1.273 . S
O284 C283 1.273 . S
O285 Zn276 1.977 . S
O285 C278 1.267 . S
C286 O287 1.160 . S
C286 O293 1.185 . S
O287 C286 1.160 . S
O288 Zn289 1.899 1_556 S
O288 C296 1.284 . S
Zn289 O288 1.899 1_554 S
Zn289 O290 2.032 . S
Zn289 O293 2.086 . S
Zn289 O298 1.977 . S
O290 Zn289 2.032 . S
O290 C294 1.278 . S
C291 O292 1.203 . S
C291 O298 1.267 . S
O292 C291 1.203 . S
O293 C286 1.185 . S
O293 Zn289 2.086 . S
C294 O290 1.278 . S
C294 O295 1.211 . S
O295 C294 1.211 . S
C296 O288 1.284 . S
C296 O297 1.273 1_556 S
O297 C296 1.273 1_554 S
O298 Zn289 1.977 . S
O298 C291 1.267 . S
C299 O300 1.160 . S
C299 O306 1.185 . S
O300 C299 1.160 . S
O301 Zn302 1.899 . S
O301 C309 1.284 . S
Zn302 O301 1.899 . S
Zn302 O303 2.032 . S
Zn302 O306 2.086 . S
Zn302 O311 1.977 . S
O303 Zn302 2.032 . S
O303 C307 1.278 . S
C304 O305 1.203 . S
C304 O311 1.267 . S
O305 C304 1.203 . S
O306 C299 1.185 . S
O306 Zn302 2.086 . S
C307 O303 1.278 . S
C307 O308 1.211 . S
O308 C307 1.211 . S
C309 O301 1.284 . S
C309 O310 1.273 . S
O310 C309 1.273 . S
O311 Zn302 1.977 . S
O311 C304 1.267 . S
C312 O313 1.160 . S
C312 O319 1.185 . S
O313 C312 1.160 . S
O314 Zn315 1.899 . S
O314 C322 1.284 . S
Zn315 O314 1.899 . S
Zn315 O316 2.032 . S
Zn315 O319 2.086 . S
Zn315 O324 1.977 . S
O316 Zn315 2.032 . S
O316 C320 1.278 . S
C317 O318 1.203 . S
C317 O324 1.267 . S
O318 C317 1.203 . S
O319 C312 1.185 . S
O319 Zn315 2.086 . S
C320 O316 1.278 . S
C320 O321 1.211 . S
O321 C320 1.211 . S
C322 O314 1.284 . S
C322 O323 1.273 . S
O323 C322 1.273 . S
O324 Zn315 1.977 . S
O324 C317 1.267 . S
C325 O326 1.160 . S
C325 O332 1.185 . S
O326 C325 1.160 . S
O327 Zn328 1.899 . S
O327 C335 1.284 . S
Zn328 O327 1.899 . S
Zn328 O329 2.032 . S
Zn328 O332 2.086 . S
Zn328 O337 1.977 . S
O329 Zn328 2.032 . S
O329 C333 1.278 . S
C330 O331 1.203 . S
C330 O337 1.267 . S
O331 C330 1.203 . S
O332 C325 1.185 . S
O332 Zn328 2.086 . S
C333 O329 1.278 . S
C333 O334 1.211 . S
O334 C333 1.211 . S
C335 O327 1.284 . S
C335 O336 1.273 . S
O336 C335 1.273 . S
O337 Zn328 1.977 . S
O337 C330 1.267 . S
C338 O339 1.160 . S
C338 O345 1.185 . S
O339 C338 1.160 . S
O340 Zn341 1.899 1_556 S
O340 C348 1.284 . S
Zn341 O340 1.899 1_554 S
Zn341 O342 2.032 . S
Zn341 O345 2.086 . S
Zn341 O350 1.977 . S
O342 Zn341 2.032 . S
O342 C346 1.278 . S
C343 O344 1.203 . S
C343 O350 1.267 . S
O344 C343 1.203 . S
O345 C338 1.185 . S
O345 Zn341 2.086 . S
C346 O342 1.278 . S
C346 O347 1.211 . S
O347 C346 1.211 . S
C348 O340 1.284 . S
C348 O349 1.273 1_556 S
O349 C348 1.273 1_554 S
O350 Zn341 1.977 . S
O350 C343 1.267 . S
C351 O352 1.160 . S
C351 O358 1.185 . S
O352 C351 1.160 . S
O353 Zn354 1.899 . S
O353 C361 1.284 . S
Zn354 O353 1.899 . S
Zn354 O355 2.032 . S
Zn354 O358 2.086 . S
Zn354 O363 1.977 . S
O355 Zn354 2.032 . S
O355 C359 1.278 . S
C356 O357 1.203 . S
C356 O363 1.267 . S
O357 C356 1.203 . S
O358 C351 1.185 . S
O358 Zn354 2.086 . S
C359 O355 1.278 . S
C359 O360 1.211 . S
O360 C359 1.211 . S
C361 O353 1.284 . S
C361 O362 1.273 . S
O362 C361 1.273 . S
O363 Zn354 1.977 . S
O363 C356 1.267 . S
C364 O365 1.160 . S
C364 O371 1.185 . S
O365 C364 1.160 . S
O366 Zn367 1.899 . S
O366 C374 1.284 . S
Zn367 O366 1.899 . S
Zn367 O368 2.032 . S
Zn367 O371 2.086 . S
Zn367 O376 1.977 . S
O368 Zn367 2.032 . S
O368 C372 1.278 . S
C369 O370 1.203 . S
C369 O376 1.267 . S
O370 C369 1.203 . S
O371 C364 1.185 . S
O371 Zn367 2.086 . S
C372 O368 1.278 . S
C372 O373 1.211 . S
O373 C372 1.211 . S
C374 O366 1.284 . S
C374 O375 1.273 . S
O375 C374 1.273 . S
O376 Zn367 1.977 . S
O376 C369 1.267 . S
C377 O378 1.160 . S
C377 O384 1.185 . S
O378 C377 1.160 . S
O379 Zn380 1.899 . S
O379 C387 1.284 . S
Zn380 O379 1.899 . S
Zn380 O381 2.032 . S
Zn380 O384 2.086 . S
Zn380 O389 1.977 . S
O381 Zn380 2.032 . S
O381 C385 1.278 . S
C382 O383 1.203 . S
C382 O389 1.267 . S
O383 C382 1.203 . S
O384 C377 1.185 . S
O384 Zn380 2.086 . S
C385 O381 1.278 . S
C385 O386 1.211 . S
O386 C385 1.211 . S
C387 O379 1.284 . S
C387 O388 1.273 . S
O388 C387 1.273 . S
O389 Zn380 1.977 . S
O389 C382 1.267 . S
C390 O391 1.160 . S
C390 O397 1.185 . S
O391 C390 1.160 . S
O392 Zn393 1.899 . S
O392 C400 1.284 . S
Zn393 O392 1.899 . S
Zn393 O394 2.032 1_554 S
Zn393 O397 2.086 . S
Zn393 O402 1.977 . S
O394 Zn393 2.032 1_556 S
O394 C398 1.278 . S
C395 O396 1.203 . S
C395 O402 1.267 . S
O396 C395 1.203 . S
O397 C390 1.185 . S
O397 Zn393 2.086 . S
C398 O394 1.278 . S
C398 O399 1.211 . S
O399 C398 1.211 . S
C400 O392 1.284 . S
C400 O401 1.273 . S
O401 C400 1.273 . S
O402 Zn393 1.977 . S
O402 C395 1.267 . S
C403 O404 1.160 . S
C403 O410 1.185 . S
O404 C403 1.160 . S
O405 Zn406 1.899 . S
O405 C413 1.284 . S
Zn406 O405 1.899 . S
Zn406 O407 2.032 . S
Zn406 O410 2.086 . S
Zn406 O415 1.977 . S
O407 Zn406 2.032 . S
O407 C411 1.278 . S
C408 O409 1.203 . S
C408 O415 1.267 . S
O409 C408 1.203 . S
O410 C403 1.185 . S
O410 Zn406 2.086 . S
C411 O407 1.278 . S
C411 O412 1.211 . S
O412 C411 1.211 . S
C413 O405 1.284 . S
C413 O414 1.273 . S
O414 C413 1.273 . S
O415 Zn406 1.977 . S
O415 C408 1.267 . S
H416 C434 0.951 . S
H417 C436 0.951 . S
H418 C438 0.950 . S
H419 C439 0.950 . S
H420 C441 0.950 . S
H421 C444 0.950 . S
H422 C445 0.950 . S
H423 C447 0.950 . S
H424 C448 0.950 . S
H425 C449 0.951 . S
H426 C451 0.951 . S
H427 C453 0.950 . S
H428 C454 0.950 . S
H429 C456 0.950 . S
H430 C459 0.950 . S
H431 C460 0.950 . S
H432 C462 0.950 . S
H433 C463 0.950 . S
C434 H416 0.951 . S
C434 C435 1.366 . S
C434 C436 1.388 . S
C435 C434 1.366 . S
C435 C439 1.385 . S
C436 H417 0.951 . S
C436 C434 1.388 . S
C436 C437 1.366 . S
C437 C436 1.366 . S
C437 C438 1.414 . S
C437 C440 1.499 . S
C438 H418 0.950 . S
C438 C437 1.414 . S
C438 C439 1.374 . S
C439 H419 0.950 . S
C439 C435 1.385 . S
C439 C438 1.374 . S
C440 C437 1.499 . S
C440 C441 1.373 . S
C440 C442 1.389 . S
C441 H420 0.950 . S
C441 C440 1.373 . S
C441 C457 1.377 . S
C442 C440 1.389 . S
C442 C443 1.524 . S
C442 C456 1.377 . S
C443 C442 1.524 . S
C443 C444 1.397 . S
C443 C448 1.363 . S
C444 H421 0.950 . S
C444 C443 1.397 . S
C444 C445 1.334 . S
C445 H422 0.950 . S
C445 C444 1.334 . S
C445 C446 1.287 . S
C446 C445 1.287 . S
C446 C447 1.524 . S
C446 H465 0.913 . S
C447 H423 0.950 . S
C447 C446 1.524 . S
C447 C448 1.415 . S
C448 H424 0.950 . S
C448 C443 1.363 . S
C448 C447 1.415 . S
C449 H425 0.951 . S
C449 C450 1.370 . S
C449 C451 1.388 . S
C450 C449 1.370 . S
C450 C454 1.384 1_556 S
C451 H426 0.951 . S
C451 C449 1.388 . S
C451 C452 1.366 . S
C452 C451 1.366 . S
C452 C453 1.414 . S
C452 C455 1.499 . S
C453 H427 0.950 . S
C453 C452 1.414 . S
C453 C454 1.374 1_556 S
C454 H428 0.950 . S
C454 C450 1.384 1_554 S
C454 C453 1.374 1_554 S
C455 C452 1.499 . S
C455 C456 1.373 . S
C455 C457 1.389 . S
C456 H429 0.950 . S
C456 C442 1.377 . S
C456 C455 1.373 . S
C457 C441 1.377 . S
C457 C455 1.389 . S
C457 C458 1.524 . S
C458 C457 1.524 . S
C458 C459 1.397 1_556 S
C458 C463 1.363 . S
C459 H430 0.950 . S
C459 C458 1.397 1_554 S
C459 C460 1.334 . S
C460 H431 0.950 . S
C460 C459 1.334 . S
C460 C461 1.287 . S
C461 C460 1.287 . S
C461 C462 1.524 1_554 S
C461 H464 0.999 . S
C462 H432 0.950 . S
C462 C461 1.524 1_556 S
C462 C463 1.415 . S
C463 H433 0.950 . S
C463 C458 1.363 . S
C463 C462 1.415 . S
H464 C461 0.999 . S
H465 C446 0.913 . S
H466 C484 0.951 . S
H467 C486 0.951 . S
H468 C488 0.950 . S
H469 C489 0.950 . S
H470 C491 0.950 . S
H471 C494 0.950 . S
H472 C495 0.950 . S
H473 C497 0.950 . S
H474 C498 0.950 . S
H475 C499 0.951 . S
H476 C501 0.951 . S
H477 C503 0.950 . S
H478 C504 0.950 . S
H479 C506 0.950 . S
H480 C509 0.950 . S
H481 C510 0.950 . S
H482 C512 0.950 . S
H483 C513 0.950 . S
C484 H466 0.951 . S
C484 C485 1.366 . S
C484 C486 1.388 . S
C485 C484 1.366 . S
C485 C489 1.385 . S
C486 H467 0.951 . S
C486 C484 1.388 . S
C486 C487 1.366 . S
C487 C486 1.366 . S
C487 C488 1.414 . S
C487 C490 1.499 . S
C488 H468 0.950 . S
C488 C487 1.414 . S
C488 C489 1.374 . S
C489 H469 0.950 . S
C489 C485 1.385 . S
C489 C488 1.374 . S
C490 C487 1.499 . S
C490 C491 1.373 . S
C490 C492 1.389 . S
C491 H470 0.950 . S
C491 C490 1.373 . S
C491 C507 1.377 . S
C492 C490 1.389 . S
C492 C493 1.524 . S
C492 C506 1.377 . S
C493 C492 1.524 . S
C493 C494 1.397 . S
C493 C498 1.363 . S
C494 H471 0.950 . S
C494 C493 1.397 . S
C494 C495 1.334 . S
C495 H472 0.950 . S
C495 C494 1.334 . S
C495 C496 1.287 . S
C496 C495 1.287 . S
C496 C497 1.524 . S
C496 H515 0.913 . S
C497 H473 0.950 . S
C497 C496 1.524 . S
C497 C498 1.415 . S
C498 H474 0.950 . S
C498 C493 1.363 . S
C498 C497 1.415 . S
C499 H475 0.951 . S
C499 C500 1.366 . S
C499 C501 1.388 . S
C500 C499 1.366 . S
C500 C504 1.385 . S
C501 H476 0.951 . S
C501 C499 1.388 . S
C501 C502 1.366 . S
C502 C501 1.366 . S
C502 C503 1.414 . S
C502 C505 1.499 . S
C503 H477 0.950 . S
C503 C502 1.414 . S
C503 C504 1.374 . S
C504 H478 0.950 . S
C504 C500 1.385 . S
C504 C503 1.374 . S
C505 C502 1.499 . S
C505 C506 1.373 . S
C505 C507 1.389 . S
C506 H479 0.950 . S
C506 C492 1.377 . S
C506 C505 1.373 . S
C507 C491 1.377 . S
C507 C505 1.389 . S
C507 C508 1.524 . S
C508 C507 1.524 . S
C508 C509 1.397 . S
C508 C513 1.363 . S
C509 H480 0.950 . S
C509 C508 1.397 . S
C509 C510 1.334 . S
C510 H481 0.950 . S
C510 C509 1.334 . S
C510 C511 1.287 . S
C511 C510 1.287 . S
C511 C512 1.524 . S
C511 H514 0.999 . S
C512 H482 0.950 . S
C512 C511 1.524 . S
C512 C513 1.415 . S
C513 H483 0.950 . S
C513 C508 1.363 . S
C513 C512 1.415 . S
H514 C511 0.999 . S
H515 C496 0.913 . S
H516 C534 0.951 . S
H517 C536 0.951 . S
H518 C538 0.950 . S
H519 C539 0.950 . S
H520 C541 0.950 . S
H521 C544 0.950 . S
H522 C545 0.950 . S
H523 C547 0.950 . S
H524 C548 0.950 . S
H525 C549 0.951 . S
H526 C551 0.951 . S
H527 C553 0.950 . S
H528 C554 0.950 . S
H529 C556 0.950 . S
H530 C559 0.950 . S
H531 C560 0.950 . S
H532 C562 0.950 . S
H533 C563 0.950 . S
C534 H516 0.951 . S
C534 C535 1.366 . S
C534 C536 1.388 . S
C535 C534 1.366 . S
C535 C539 1.385 . S
C536 H517 0.951 . S
C536 C534 1.388 . S
C536 C537 1.366 . S
C537 C536 1.366 . S
C537 C538 1.414 . S
C537 C540 1.499 . S
C538 H518 0.950 . S
C538 C537 1.414 . S
C538 C539 1.374 . S
C539 H519 0.950 . S
C539 C535 1.385 . S
C539 C538 1.374 . S
C540 C537 1.499 . S
C540 C541 1.373 . S
C540 C542 1.389 . S
C541 H520 0.950 . S
C541 C540 1.373 . S
C541 C557 1.377 . S
C542 C540 1.389 . S
C542 C543 1.524 . S
C542 C556 1.377 . S
C543 C542 1.524 . S
C543 C544 1.397 . S
C543 C548 1.363 . S
C544 H521 0.950 . S
C544 C543 1.397 . S
C544 C545 1.334 . S
C545 H522 0.950 . S
C545 C544 1.334 . S
C545 C546 1.287 . S
C546 C545 1.287 . S
C546 C547 1.524 . S
C546 H565 0.913 . S
C547 H523 0.950 . S
C547 C546 1.524 . S
C547 C548 1.415 . S
C548 H524 0.950 . S
C548 C543 1.363 . S
C548 C547 1.415 . S
C549 H525 0.951 . S
C549 C550 1.366 . S
C549 C551 1.388 . S
C550 C549 1.366 . S
C550 C554 1.385 . S
C551 H526 0.951 . S
C551 C549 1.388 . S
C551 C552 1.366 . S
C552 C551 1.366 . S
C552 C553 1.414 . S
C552 C555 1.499 . S
C553 H527 0.950 . S
C553 C552 1.414 . S
C553 C554 1.374 . S
C554 H528 0.950 . S
C554 C550 1.385 . S
C554 C553 1.374 . S
C555 C552 1.499 . S
C555 C556 1.373 . S
C555 C557 1.389 . S
C556 H529 0.950 . S
C556 C542 1.377 . S
C556 C555 1.373 . S
C557 C541 1.377 . S
C557 C555 1.389 . S
C557 C558 1.524 . S
C558 C557 1.524 . S
C558 C559 1.397 . S
C558 C563 1.363 . S
C559 H530 0.950 . S
C559 C558 1.397 . S
C559 C560 1.334 . S
C560 H531 0.950 . S
C560 C559 1.334 . S
C560 C561 1.287 . S
C561 C560 1.287 . S
C561 C562 1.524 . S
C561 H564 0.999 . S
C562 H532 0.950 . S
C562 C561 1.524 . S
C562 C563 1.415 . S
C563 H533 0.950 . S
C563 C558 1.363 . S
C563 C562 1.415 . S
H564 C561 0.999 . S
H565 C546 0.913 . S
H566 C584 0.951 . S
H567 C586 0.951 . S
H568 C588 0.950 . S
H569 C589 0.950 . S
H570 C591 0.950 . S
H571 C594 0.950 . S
H572 C595 0.950 . S
H573 C597 0.950 . S
H574 C598 0.950 . S
H575 C599 0.951 . S
H576 C601 0.951 . S
H577 C603 0.950 . S
H578 C604 0.950 . S
H579 C606 0.950 . S
H580 C609 0.950 . S
H581 C610 0.950 . S
H582 C612 0.950 . S
H583 C613 0.950 . S
C584 H566 0.951 . S
C584 C585 1.366 . S
C584 C586 1.388 . S
C585 C584 1.366 . S
C585 C589 1.385 . S
C586 H567 0.951 . S
C586 C584 1.388 . S
C586 C587 1.366 . S
C587 C586 1.366 . S
C587 C588 1.414 . S
C587 C590 1.499 . S
C588 H568 0.950 . S
C588 C587 1.414 . S
C588 C589 1.374 . S
C589 H569 0.950 . S
C589 C585 1.385 . S
C589 C588 1.374 . S
C590 C587 1.499 . S
C590 C591 1.373 . S
C590 C592 1.389 . S
C591 H570 0.950 . S
C591 C590 1.373 . S
C591 C607 1.377 . S
C592 C590 1.389 . S
C592 C593 1.524 . S
C592 C606 1.377 . S
C593 C592 1.524 . S
C593 C594 1.397 . S
C593 C598 1.363 . S
C594 H571 0.950 . S
C594 C593 1.397 . S
C594 C595 1.334 . S
C595 H572 0.950 . S
C595 C594 1.334 . S
C595 C596 1.287 . S
C596 C595 1.287 . S
C596 C597 1.524 . S
C596 H615 0.913 . S
C597 H573 0.950 . S
C597 C596 1.524 . S
C597 C598 1.415 . S
C598 H574 0.950 . S
C598 C593 1.363 . S
C598 C597 1.415 . S
C599 H575 0.951 . S
C599 C600 1.366 . S
C599 C601 1.388 . S
C600 C599 1.366 . S
C600 C604 1.385 . S
C601 H576 0.951 . S
C601 C599 1.388 . S
C601 C602 1.366 . S
C602 C601 1.366 . S
C602 C603 1.414 . S
C602 C605 1.499 . S
C603 H577 0.950 . S
C603 C602 1.414 . S
C603 C604 1.374 . S
C604 H578 0.950 . S
C604 C600 1.385 . S
C604 C603 1.374 . S
C605 C602 1.499 . S
C605 C606 1.373 . S
C605 C607 1.389 . S
C606 H579 0.950 . S
C606 C592 1.377 . S
C606 C605 1.373 . S
C607 C591 1.377 . S
C607 C605 1.389 . S
C607 C608 1.524 . S
C608 C607 1.524 . S
C608 C609 1.397 . S
C608 C613 1.363 . S
C609 H580 0.950 . S
C609 C608 1.397 . S
C609 C610 1.334 . S
C610 H581 0.950 . S
C610 C609 1.334 . S
C610 C611 1.287 . S
C611 C610 1.287 . S
C611 C612 1.524 . S
C611 H614 0.999 . S
C612 H582 0.950 . S
C612 C611 1.524 . S
C612 C613 1.415 . S
C613 H583 0.950 . S
C613 C608 1.363 . S
C613 C612 1.415 . S
H614 C611 0.999 . S
H615 C596 0.913 . S
H616 C634 0.951 . S
H617 C636 0.951 . S
H618 C638 0.950 . S
H619 C639 0.950 . S
H620 C641 0.950 . S
H621 C644 0.950 . S
H622 C645 0.950 . S
H623 C647 0.950 1_556 S
H624 C648 0.950 . S
H625 C649 0.951 . S
H626 C651 0.951 . S
H627 C653 0.950 . S
H628 C654 0.950 . S
H629 C656 0.950 . S
H630 C659 0.950 . S
H631 C660 0.950 . S
H632 C662 0.950 . S
H633 C663 0.950 . S
C634 H616 0.951 . S
C634 C635 1.366 . S
C634 C636 1.388 . S
C635 C634 1.366 . S
C635 C639 1.385 . S
C636 H617 0.951 . S
C636 C634 1.388 . S
C636 C637 1.366 . S
C637 C636 1.366 . S
C637 C638 1.414 . S
C637 C640 1.499 . S
C638 H618 0.950 . S
C638 C637 1.414 . S
C638 C639 1.374 . S
C639 H619 0.950 . S
C639 C635 1.385 . S
C639 C638 1.374 . S
C640 C637 1.499 . S
C640 C641 1.373 . S
C640 C642 1.389 . S
C641 H620 0.950 . S
C641 C640 1.373 . S
C641 C657 1.377 . S
C642 C640 1.389 . S
C642 C643 1.524 . S
C642 C656 1.377 . S
C643 C642 1.524 . S
C643 C644 1.397 . S
C643 C648 1.363 . S
C644 H621 0.950 . S
C644 C643 1.397 . S
C644 C645 1.334 . S
C645 H622 0.950 . S
C645 C644 1.334 . S
C645 C646 1.287 . S
C646 C645 1.287 . S
C646 C647 1.524 . S
C646 H665 0.913 1_554 S
C647 H623 0.950 1_554 S
C647 C646 1.524 . S
C647 C648 1.415 . S
C648 H624 0.950 . S
C648 C643 1.363 . S
C648 C647 1.415 . S
C649 H625 0.951 . S
C649 C650 1.366 . S
C649 C651 1.388 . S
C650 C649 1.366 . S
C650 C654 1.385 . S
C651 H626 0.951 . S
C651 C649 1.388 . S
C651 C652 1.366 . S
C652 C651 1.366 . S
C652 C653 1.414 . S
C652 C655 1.499 . S
C653 H627 0.950 . S
C653 C652 1.414 . S
C653 C654 1.374 . S
C654 H628 0.950 . S
C654 C650 1.385 . S
C654 C653 1.374 . S
C655 C652 1.499 . S
C655 C656 1.373 . S
C655 C657 1.389 . S
C656 H629 0.950 . S
C656 C642 1.377 . S
C656 C655 1.373 . S
C657 C641 1.377 . S
C657 C655 1.389 . S
C657 C658 1.524 . S
C658 C657 1.524 . S
C658 C659 1.397 . S
C658 C663 1.363 . S
C659 H630 0.950 . S
C659 C658 1.397 . S
C659 C660 1.334 . S
C660 H631 0.950 . S
C660 C659 1.334 . S
C660 C661 1.287 . S
C661 C660 1.287 . S
C661 C662 1.524 . S
C661 H664 0.999 . S
C662 H632 0.950 . S
C662 C661 1.524 . S
C662 C663 1.415 . S
C663 H633 0.950 . S
C663 C658 1.363 . S
C663 C662 1.415 . S
H664 C661 0.999 . S
H665 C646 0.913 1_556 S
H666 C684 0.951 . S
H667 C686 0.951 . S
H668 C688 0.950 . S
H669 C689 0.950 . S
H670 C691 0.950 . S
H671 C694 0.950 . S
H672 C695 0.950 . S
H673 C697 0.950 . S
H674 C698 0.950 1_554 S
H675 C699 0.951 . S
H676 C701 0.951 . S
H677 C703 0.950 . S
H678 C704 0.950 . S
H679 C706 0.950 . S
H680 C709 0.950 . S
H681 C710 0.950 . S
H682 C712 0.950 . S
H683 C713 0.950 . S
C684 H666 0.951 . S
C684 C685 1.366 . S
C684 C686 1.388 . S
C685 C684 1.366 . S
C685 C689 1.385 . S
C686 H667 0.951 . S
C686 C684 1.388 . S
C686 C687 1.366 . S
C687 C686 1.366 . S
C687 C688 1.414 . S
C687 C690 1.499 . S
C688 H668 0.950 . S
C688 C687 1.414 . S
C688 C689 1.374 . S
C689 H669 0.950 . S
C689 C685 1.385 . S
C689 C688 1.374 . S
C690 C687 1.499 . S
C690 C691 1.373 . S
C690 C692 1.389 . S
C691 H670 0.950 . S
C691 C690 1.373 . S
C691 C707 1.377 . S
C692 C690 1.389 . S
C692 C693 1.524 . S
C692 C706 1.377 . S
C693 C692 1.524 . S
C693 C694 1.397 . S
C693 C698 1.363 . S
C694 H671 0.950 . S
C694 C693 1.397 . S
C694 C695 1.334 . S
C695 H672 0.950 . S
C695 C694 1.334 . S
C695 C696 1.287 . S
C696 C695 1.287 . S
C696 C697 1.524 1_556 S
C696 H715 0.913 . S
C697 H673 0.950 . S
C697 C696 1.524 1_554 S
C697 C698 1.415 1_554 S
C698 H674 0.950 1_556 S
C698 C693 1.363 . S
C698 C697 1.415 1_556 S
C699 H675 0.951 . S
C699 C700 1.371 . S
C699 C701 1.388 . S
C700 C699 1.371 . S
C700 C704 1.381 1_556 S
C701 H676 0.951 . S
C701 C699 1.388 . S
C701 C702 1.366 . S
C702 C701 1.366 . S
C702 C703 1.414 1_556 S
C702 C705 1.499 . S
C703 H677 0.950 . S
C703 C702 1.414 1_554 S
C703 C704 1.374 . S
C704 H678 0.950 . S
C704 C700 1.381 1_554 S
C704 C703 1.374 . S
C705 C702 1.499 . S
C705 C706 1.373 . S
C705 C707 1.389 . S
C706 H679 0.950 . S
C706 C692 1.377 . S
C706 C705 1.373 . S
C707 C691 1.377 . S
C707 C705 1.389 . S
C707 C708 1.524 . S
C708 C707 1.524 . S
C708 C709 1.397 . S
C708 C713 1.363 . S
C709 H680 0.950 . S
C709 C708 1.397 . S
C709 C710 1.334 . S
C710 H681 0.950 . S
C710 C709 1.334 . S
C710 C711 1.287 . S
C711 C710 1.287 . S
C711 C712 1.524 . S
C711 H714 0.999 . S
C712 H682 0.950 . S
C712 C711 1.524 . S
C712 C713 1.415 . S
C713 H683 0.950 . S
C713 C708 1.363 . S
C713 C712 1.415 . S
H714 C711 0.999 . S
H715 C696 0.913 . S
H716 C734 0.951 . S
H717 C736 0.951 . S
H718 C738 0.950 . S
H719 C739 0.950 . S
H720 C741 0.950 . S
H721 C744 0.950 . S
H722 C745 0.950 . S
H723 C747 0.950 . S
H724 C748 0.950 . S
H725 C749 0.951 . S
H726 C751 0.951 . S
H727 C753 0.950 . S
H728 C754 0.950 . S
H729 C756 0.950 . S
H730 C759 0.950 . S
H731 C760 0.950 . S
H732 C762 0.950 . S
H733 C763 0.950 . S
C734 H716 0.951 . S
C734 C735 1.366 . S
C734 C736 1.388 . S
C735 C734 1.366 . S
C735 C739 1.385 . S
C736 H717 0.951 . S
C736 C734 1.388 . S
C736 C737 1.366 . S
C737 C736 1.366 . S
C737 C738 1.414 . S
C737 C740 1.499 . S
C738 H718 0.950 . S
C738 C737 1.414 . S
C738 C739 1.374 . S
C739 H719 0.950 . S
C739 C735 1.385 . S
C739 C738 1.374 . S
C740 C737 1.499 . S
C740 C741 1.373 . S
C740 C742 1.389 . S
C741 H720 0.950 . S
C741 C740 1.373 . S
C741 C757 1.377 . S
C742 C740 1.389 . S
C742 C743 1.524 . S
C742 C756 1.377 . S
C743 C742 1.524 . S
C743 C744 1.397 . S
C743 C748 1.363 . S
C744 H721 0.950 . S
C744 C743 1.397 . S
C744 C745 1.334 . S
C745 H722 0.950 . S
C745 C744 1.334 . S
C745 C746 1.287 . S
C746 C745 1.287 . S
C746 C747 1.524 . S
C746 H765 0.913 . S
C747 H723 0.950 . S
C747 C746 1.524 . S
C747 C748 1.415 . S
C748 H724 0.950 . S
C748 C743 1.363 . S
C748 C747 1.415 . S
C749 H725 0.951 . S
C749 C750 1.366 . S
C749 C751 1.388 . S
C750 C749 1.366 . S
C750 C754 1.385 . S
C751 H726 0.951 . S
C751 C749 1.388 . S
C751 C752 1.366 . S
C752 C751 1.366 . S
C752 C753 1.414 . S
C752 C755 1.499 . S
C753 H727 0.950 . S
C753 C752 1.414 . S
C753 C754 1.374 . S
C754 H728 0.950 . S
C754 C750 1.385 . S
C754 C753 1.374 . S
C755 C752 1.499 . S
C755 C756 1.373 . S
C755 C757 1.389 . S
C756 H729 0.950 . S
C756 C742 1.377 . S
C756 C755 1.373 . S
C757 C741 1.377 . S
C757 C755 1.389 . S
C757 C758 1.524 . S
C758 C757 1.524 . S
C758 C759 1.397 . S
C758 C763 1.363 . S
C759 H730 0.950 . S
C759 C758 1.397 . S
C759 C760 1.334 . S
C760 H731 0.950 . S
C760 C759 1.334 . S
C760 C761 1.287 . S
C761 C760 1.287 . S
C761 C762 1.524 . S
C761 H764 0.999 . S
C762 H732 0.950 . S
C762 C761 1.524 . S
C762 C763 1.415 . S
C763 H733 0.950 . S
C763 C758 1.363 . S
C763 C762 1.415 . S
H764 C761 0.999 . S
H765 C746 0.913 . S
H766 C784 0.951 . S
H767 C786 0.951 . S
H768 C788 0.950 . S
H769 C789 0.950 . S
H770 C791 0.950 . S
H771 C794 0.950 . S
H772 C795 0.950 . S
H773 C797 0.950 . S
H774 C798 0.950 . S
H775 C799 0.951 . S
H776 C801 0.951 . S
H777 C803 0.950 . S
H778 C804 0.950 . S
H779 C806 0.950 . S
H780 C809 0.950 . S
H781 C810 0.950 . S
H782 C812 0.950 . S
H783 C813 0.950 . S
C784 H766 0.951 . S
C784 C785 1.366 . S
C784 C786 1.388 . S
C785 C784 1.366 . S
C785 C789 1.385 . S
C786 H767 0.951 . S
C786 C784 1.388 . S
C786 C787 1.366 . S
C787 C786 1.366 . S
C787 C788 1.414 . S
C787 C790 1.499 . S
C788 H768 0.950 . S
C788 C787 1.414 . S
C788 C789 1.374 . S
C789 H769 0.950 . S
C789 C785 1.385 . S
C789 C788 1.374 . S
C790 C787 1.499 . S
C790 C791 1.373 . S
C790 C792 1.389 . S
C791 H770 0.950 . S
C791 C790 1.373 . S
C791 C807 1.377 . S
C792 C790 1.389 . S
C792 C793 1.524 . S
C792 C806 1.377 . S
C793 C792 1.524 . S
C793 C794 1.397 . S
C793 C798 1.363 . S
C794 H771 0.950 . S
C794 C793 1.397 . S
C794 C795 1.334 . S
C795 H772 0.950 . S
C795 C794 1.334 . S
C795 C796 1.287 . S
C796 C795 1.287 . S
C796 C797 1.524 . S
C796 H815 0.913 . S
C797 H773 0.950 . S
C797 C796 1.524 . S
C797 C798 1.415 . S
C798 H774 0.950 . S
C798 C793 1.363 . S
C798 C797 1.415 . S
C799 H775 0.951 . S
C799 C800 1.366 . S
C799 C801 1.388 . S
C800 C799 1.366 . S
C800 C804 1.385 . S
C801 H776 0.951 . S
C801 C799 1.388 . S
C801 C802 1.366 . S
C802 C801 1.366 . S
C802 C803 1.414 . S
C802 C805 1.499 . S
C803 H777 0.950 . S
C803 C802 1.414 . S
C803 C804 1.374 . S
C804 H778 0.950 . S
C804 C800 1.385 . S
C804 C803 1.374 . S
C805 C802 1.499 . S
C805 C806 1.373 . S
C805 C807 1.389 . S
C806 H779 0.950 . S
C806 C792 1.377 . S
C806 C805 1.373 . S
C807 C791 1.377 . S
C807 C805 1.389 . S
C807 C808 1.524 . S
C808 C807 1.524 . S
C808 C809 1.397 . S
C808 C813 1.363 . S
C809 H780 0.950 . S
C809 C808 1.397 . S
C809 C810 1.334 . S
C810 H781 0.950 . S
C810 C809 1.334 . S
C810 C811 1.287 . S
C811 C810 1.287 . S
C811 C812 1.524 . S
C811 H814 0.999 . S
C812 H782 0.950 . S
C812 C811 1.524 . S
C812 C813 1.415 . S
C813 H783 0.950 . S
C813 C808 1.363 . S
C813 C812 1.415 . S
H814 C811 0.999 . S
H815 C796 0.913 . S
H816 C834 0.951 . S
H817 C836 0.951 . S
H818 C838 0.950 . S
H819 C839 0.950 . S
H820 C841 0.950 . S
H821 C844 0.950 . S
H822 C845 0.950 . S
H823 C847 0.950 . S
H824 C848 0.950 . S
H825 C849 0.951 . S
H826 C851 0.951 . S
H827 C853 0.950 . S
H828 C854 0.950 . S
H829 C856 0.950 . S
H830 C859 0.950 . S
H831 C860 0.950 . S
H832 C862 0.950 . S
H833 C863 0.950 . S
C834 H816 0.951 . S
C834 C835 1.366 . S
C834 C836 1.388 . S
C835 C834 1.366 . S
C835 C839 1.385 . S
C836 H817 0.951 . S
C836 C834 1.388 . S
C836 C837 1.366 . S
C837 C836 1.366 . S
C837 C838 1.414 . S
C837 C840 1.499 . S
C838 H818 0.950 . S
C838 C837 1.414 . S
C838 C839 1.374 . S
C839 H819 0.950 . S
C839 C835 1.385 . S
C839 C838 1.374 . S
C840 C837 1.499 . S
C840 C841 1.373 . S
C840 C842 1.389 . S
C841 H820 0.950 . S
C841 C840 1.373 . S
C841 C857 1.377 . S
C842 C840 1.389 . S
C842 C843 1.524 . S
C842 C856 1.377 . S
C843 C842 1.524 . S
C843 C844 1.397 . S
C843 C848 1.363 . S
C844 H821 0.950 . S
C844 C843 1.397 . S
C844 C845 1.334 . S
C845 H822 0.950 . S
C845 C844 1.334 . S
C845 C846 1.287 . S
C846 C845 1.287 . S
C846 C847 1.524 . S
C846 H865 0.913 . S
C847 H823 0.950 . S
C847 C846 1.524 . S
C847 C848 1.415 . S
C848 H824 0.950 . S
C848 C843 1.363 . S
C848 C847 1.415 . S
C849 H825 0.951 . S
C849 C850 1.366 . S
C849 C851 1.388 . S
C850 C849 1.366 . S
C850 C854 1.385 . S
C851 H826 0.951 . S
C851 C849 1.388 . S
C851 C852 1.366 . S
C852 C851 1.366 . S
C852 C853 1.414 . S
C852 C855 1.499 . S
C853 H827 0.950 . S
C853 C852 1.414 . S
C853 C854 1.374 . S
C854 H828 0.950 . S
C854 C850 1.385 . S
C854 C853 1.374 . S
C855 C852 1.499 . S
C855 C856 1.373 . S
C855 C857 1.389 . S
C856 H829 0.950 . S
C856 C842 1.377 . S
C856 C855 1.373 . S
C857 C841 1.377 . S
C857 C855 1.389 . S
C857 C858 1.524 . S
C858 C857 1.524 . S
C858 C859 1.397 . S
C858 C863 1.363 . S
C859 H830 0.950 . S
C859 C858 1.397 . S
C859 C860 1.334 . S
C860 H831 0.950 . S
C860 C859 1.334 . S
C860 C861 1.287 . S
C861 C860 1.287 . S
C861 C862 1.524 . S
C861 H864 0.999 . S
C862 H832 0.950 . S
C862 C861 1.524 . S
C862 C863 1.415 . S
C863 H833 0.950 . S
C863 C858 1.363 . S
C863 C862 1.415 . S
H864 C861 0.999 . S
H865 C846 0.913 . S
H866 C884 0.951 . S
H867 C886 0.951 . S
H868 C888 0.950 . S
H869 C889 0.950 . S
H870 C891 0.950 . S
H871 C894 0.950 . S
H872 C895 0.950 . S
H873 C897 0.950 . S
H874 C898 0.950 . S
H875 C899 0.951 . S
H876 C901 0.951 . S
H877 C903 0.950 . S
H878 C904 0.950 . S
H879 C906 0.950 . S
H880 C909 0.950 . S
H881 C910 0.950 . S
H882 C912 0.950 . S
H883 C913 0.950 . S
C884 H866 0.951 . S
C884 C885 1.366 . S
C884 C886 1.388 . S
C885 C884 1.366 . S
C885 C889 1.385 . S
C886 H867 0.951 . S
C886 C884 1.388 . S
C886 C887 1.366 . S
C887 C886 1.366 . S
C887 C888 1.414 . S
C887 C890 1.499 . S
C888 H868 0.950 . S
C888 C887 1.414 . S
C888 C889 1.374 . S
C889 H869 0.950 . S
C889 C885 1.385 . S
C889 C888 1.374 . S
C890 C887 1.499 . S
C890 C891 1.373 . S
C890 C892 1.389 . S
C891 H870 0.950 . S
C891 C890 1.373 . S
C891 C907 1.377 . S
C892 C890 1.389 . S
C892 C893 1.524 . S
C892 C906 1.377 . S
C893 C892 1.524 . S
C893 C894 1.397 . S
C893 C898 1.363 . S
C894 H871 0.950 . S
C894 C893 1.397 . S
C894 C895 1.334 . S
C895 H872 0.950 . S
C895 C894 1.334 . S
C895 C896 1.287 . S
C896 C895 1.287 . S
C896 C897 1.524 . S
C896 H915 0.913 . S
C897 H873 0.950 . S
C897 C896 1.524 . S
C897 C898 1.415 . S
C898 H874 0.950 . S
C898 C893 1.363 . S
C898 C897 1.415 . S
C899 H875 0.951 . S
C899 C900 1.366 . S
C899 C901 1.388 . S
C900 C899 1.366 . S
C900 C904 1.385 . S
C901 H876 0.951 . S
C901 C899 1.388 . S
C901 C902 1.366 . S
C902 C901 1.366 . S
C902 C903 1.414 . S
C902 C905 1.499 . S
C903 H877 0.950 . S
C903 C902 1.414 . S
C903 C904 1.374 . S
C904 H878 0.950 . S
C904 C900 1.385 . S
C904 C903 1.374 . S
C905 C902 1.499 . S
C905 C906 1.373 . S
C905 C907 1.389 . S
C906 H879 0.950 . S
C906 C892 1.377 . S
C906 C905 1.373 . S
C907 C891 1.377 . S
C907 C905 1.389 . S
C907 C908 1.524 . S
C908 C907 1.524 . S
C908 C909 1.397 . S
C908 C913 1.363 . S
C909 H880 0.950 . S
C909 C908 1.397 . S
C909 C910 1.334 . S
C910 H881 0.950 . S
C910 C909 1.334 . S
C910 C911 1.287 . S
C911 C910 1.287 . S
C911 C912 1.524 . S
C911 H914 0.999 . S
C912 H882 0.950 . S
C912 C911 1.524 . S
C912 C913 1.415 . S
C913 H883 0.950 . S
C913 C908 1.363 . S
C913 C912 1.415 . S
H914 C911 0.999 . S
H915 C896 0.913 . S
H916 C934 0.951 . S
H917 C936 0.951 . S
H918 C938 0.950 . S
H919 C939 0.950 . S
H920 C941 0.950 . S
H921 C944 0.950 . S
H922 C945 0.950 1_554 S
H923 C947 0.950 1_554 S
H924 C948 0.950 . S
H925 C949 0.951 . S
H926 C951 0.951 . S
H927 C953 0.950 . S
H928 C954 0.950 . S
H929 C956 0.950 . S
H930 C959 0.950 . S
H931 C960 0.950 . S
H932 C962 0.950 . S
H933 C963 0.950 . S
C934 H916 0.951 . S
C934 C935 1.366 . S
C934 C936 1.388 . S
C935 C934 1.366 . S
C935 C939 1.385 . S
C936 H917 0.951 . S
C936 C934 1.388 . S
C936 C937 1.366 . S
C937 C936 1.366 . S
C937 C938 1.414 . S
C937 C940 1.499 . S
C938 H918 0.950 . S
C938 C937 1.414 . S
C938 C939 1.374 . S
C939 H919 0.950 . S
C939 C935 1.385 . S
C939 C938 1.374 . S
C940 C937 1.499 . S
C940 C941 1.373 . S
C940 C942 1.389 . S
C941 H920 0.950 . S
C941 C940 1.373 . S
C941 C957 1.377 . S
C942 C940 1.389 . S
C942 C943 1.524 . S
C942 C956 1.377 . S
C943 C942 1.524 . S
C943 C944 1.397 . S
C943 C948 1.363 . S
C944 H921 0.950 . S
C944 C943 1.397 . S
C944 C945 1.334 . S
C945 H922 0.950 1_556 S
C945 C944 1.334 . S
C945 C946 1.287 1_556 S
C946 C945 1.287 1_554 S
C946 C947 1.524 1_554 S
C946 H965 0.913 . S
C947 H923 0.950 1_556 S
C947 C946 1.524 1_556 S
C947 C948 1.415 . S
C948 H924 0.950 . S
C948 C943 1.363 . S
C948 C947 1.415 . S
C949 H925 0.951 . S
C949 C950 1.367 . S
C949 C951 1.388 . S
C950 C949 1.367 . S
C950 C954 1.386 . S
C951 H926 0.951 . S
C951 C949 1.388 . S
C951 C952 1.366 . S
C952 C951 1.366 . S
C952 C953 1.414 . S
C952 C955 1.499 . S
C953 H927 0.950 . S
C953 C952 1.414 . S
C953 C954 1.374 . S
C954 H928 0.950 . S
C954 C950 1.386 . S
C954 C953 1.374 . S
C955 C952 1.499 . S
C955 C956 1.373 . S
C955 C957 1.389 . S
C956 H929 0.950 . S
C956 C942 1.377 . S
C956 C955 1.373 . S
C957 C941 1.377 . S
C957 C955 1.389 . S
C957 C958 1.524 . S
C958 C957 1.524 . S
C958 C959 1.397 . S
C958 C963 1.363 . S
C959 H930 0.950 . S
C959 C958 1.397 . S
C959 C960 1.334 . S
C960 H931 0.950 . S
C960 C959 1.334 . S
C960 C961 1.287 . S
C961 C960 1.287 . S
C961 C962 1.524 . S
C961 H964 0.999 . S
C962 H932 0.950 . S
C962 C961 1.524 . S
C962 C963 1.415 . S
C963 H933 0.950 . S
C963 C958 1.363 . S
C963 C962 1.415 . S
H964 C961 0.999 . S
H965 C946 0.913 . S
H966 C984 0.951 . S
H967 C986 0.951 . S
H968 C988 0.950 . S
H969 C989 0.950 . S
H970 C991 0.950 . S
H971 C994 0.950 . S
H972 C995 0.950 . S
H973 C997 0.950 . S
H974 C998 0.950 . S
H975 C999 0.951 . S
H976 C1001 0.951 . S
H977 C1003 0.950 . S
H978 C1004 0.950 . S
H979 C1006 0.950 . S
H980 C1009 0.950 . S
H981 C1010 0.950 . S
H982 C1012 0.950 . S
H983 C1013 0.950 . S
C984 H966 0.951 . S
C984 C985 1.366 . S
C984 C986 1.388 . S
C985 C984 1.366 . S
C985 C989 1.385 . S
C986 H967 0.951 . S
C986 C984 1.388 . S
C986 C987 1.366 . S
C987 C986 1.366 . S
C987 C988 1.414 . S
C987 C990 1.499 . S
C988 H968 0.950 . S
C988 C987 1.414 . S
C988 C989 1.374 . S
C989 H969 0.950 . S
C989 C985 1.385 . S
C989 C988 1.374 . S
C990 C987 1.499 . S
C990 C991 1.373 . S
C990 C992 1.389 . S
C991 H970 0.950 . S
C991 C990 1.373 . S
C991 C1007 1.377 . S
C992 C990 1.389 . S
C992 C993 1.524 . S
C992 C1006 1.377 . S
C993 C992 1.524 . S
C993 C994 1.397 . S
C993 C998 1.363 . S
C994 H971 0.950 . S
C994 C993 1.397 . S
C994 C995 1.334 . S
C995 H972 0.950 . S
C995 C994 1.334 . S
C995 C996 1.287 . S
C996 C995 1.287 . S
C996 C997 1.524 . S
C996 H1015 0.913 . S
C997 H973 0.950 . S
C997 C996 1.524 . S
C997 C998 1.415 . S
C998 H974 0.950 . S
C998 C993 1.363 . S
C998 C997 1.415 . S
C999 H975 0.951 . S
C999 C1000 1.366 . S
C999 C1001 1.388 . S
C1000 C999 1.366 . S
C1000 C1004 1.385 . S
C1001 H976 0.951 . S
C1001 C999 1.388 . S
C1001 C1002 1.366 . S
C1002 C1001 1.366 . S
C1002 C1003 1.414 . S
C1002 C1005 1.499 . S
C1003 H977 0.950 . S
C1003 C1002 1.414 . S
C1003 C1004 1.374 . S
C1004 H978 0.950 . S
C1004 C1000 1.385 . S
C1004 C1003 1.374 . S
C1005 C1002 1.499 . S
C1005 C1006 1.373 . S
C1005 C1007 1.389 . S
C1006 H979 0.950 . S
C1006 C992 1.377 . S
C1006 C1005 1.373 . S
C1007 C991 1.377 . S
C1007 C1005 1.389 . S
C1007 C1008 1.524 . S
C1008 C1007 1.524 . S
C1008 C1009 1.397 . S
C1008 C1013 1.363 . S
C1009 H980 0.950 . S
C1009 C1008 1.397 . S
C1009 C1010 1.334 . S
C1010 H981 0.950 . S
C1010 C1009 1.334 . S
C1010 C1011 1.287 . S
C1011 C1010 1.287 . S
C1011 C1012 1.524 . S
C1011 H1014 0.999 . S
C1012 H982 0.950 . S
C1012 C1011 1.524 . S
C1012 C1013 1.415 . S
C1013 H983 0.950 . S
C1013 C1008 1.363 . S
C1013 C1012 1.415 . S
H1014 C1011 0.999 . S
H1015 C996 0.913 . S
H1016 C1034 0.951 . S
H1017 C1036 0.951 . S
H1018 C1038 0.950 . S
H1019 C1039 0.950 . S
H1020 C1041 0.950 . S
H1021 C1044 0.950 . S
H1022 C1045 0.950 . S
H1023 C1047 0.950 . S
H1024 C1048 0.950 . S
H1025 C1049 0.951 . S
H1026 C1051 0.951 . S
H1027 C1053 0.950 . S
H1028 C1054 0.950 . S
H1029 C1056 0.950 . S
H1030 C1059 0.950 . S
H1031 C1060 0.950 . S
H1032 C1062 0.950 . S
H1033 C1063 0.950 . S
C1034 H1016 0.951 . S
C1034 C1035 1.366 . S
C1034 C1036 1.388 . S
C1035 C1034 1.366 . S
C1035 C1039 1.385 . S
C1036 H1017 0.951 . S
C1036 C1034 1.388 . S
C1036 C1037 1.366 . S
C1037 C1036 1.366 . S
C1037 C1038 1.414 . S
C1037 C1040 1.499 . S
C1038 H1018 0.950 . S
C1038 C1037 1.414 . S
C1038 C1039 1.374 . S
C1039 H1019 0.950 . S
C1039 C1035 1.385 . S
C1039 C1038 1.374 . S
C1040 C1037 1.499 . S
C1040 C1041 1.373 . S
C1040 C1042 1.389 . S
C1041 H1020 0.950 . S
C1041 C1040 1.373 . S
C1041 C1057 1.377 . S
C1042 C1040 1.389 . S
C1042 C1043 1.524 . S
C1042 C1056 1.377 . S
C1043 C1042 1.524 . S
C1043 C1044 1.397 . S
C1043 C1048 1.363 . S
C1044 H1021 0.950 . S
C1044 C1043 1.397 . S
C1044 C1045 1.334 . S
C1045 H1022 0.950 . S
C1045 C1044 1.334 . S
C1045 C1046 1.287 . S
C1046 C1045 1.287 . S
C1046 C1047 1.524 . S
C1046 H1065 0.913 . S
C1047 H1023 0.950 . S
C1047 C1046 1.524 . S
C1047 C1048 1.415 . S
C1048 H1024 0.950 . S
C1048 C1043 1.363 . S
C1048 C1047 1.415 . S
C1049 H1025 0.951 . S
C1049 C1050 1.366 . S
C1049 C1051 1.388 . S
C1050 C1049 1.366 . S
C1050 C1054 1.385 . S
C1051 H1026 0.951 . S
C1051 C1049 1.388 . S
C1051 C1052 1.366 . S
C1052 C1051 1.366 . S
C1052 C1053 1.414 . S
C1052 C1055 1.499 . S
C1053 H1027 0.950 . S
C1053 C1052 1.414 . S
C1053 C1054 1.374 . S
C1054 H1028 0.950 . S
C1054 C1050 1.385 . S
C1054 C1053 1.374 . S
C1055 C1052 1.499 . S
C1055 C1056 1.373 . S
C1055 C1057 1.389 . S
C1056 H1029 0.950 . S
C1056 C1042 1.377 . S
C1056 C1055 1.373 . S
C1057 C1041 1.377 . S
C1057 C1055 1.389 . S
C1057 C1058 1.524 . S
C1058 C1057 1.524 . S
C1058 C1059 1.397 . S
C1058 C1063 1.363 . S
C1059 H1030 0.950 . S
C1059 C1058 1.397 . S
C1059 C1060 1.334 . S
C1060 H1031 0.950 . S
C1060 C1059 1.334 . S
C1060 C1061 1.287 . S
C1061 C1060 1.287 . S
C1061 C1062 1.524 . S
C1061 H1064 0.999 . S
C1062 H1032 0.950 . S
C1062 C1061 1.524 . S
C1062 C1063 1.415 . S
C1063 H1033 0.950 . S
C1063 C1058 1.363 . S
C1063 C1062 1.415 . S
H1064 C1061 0.999 . S
H1065 C1046 0.913 . S
H1066 C1084 0.951 . S
H1067 C1086 0.951 . S
H1068 C1088 0.950 . S
H1069 C1089 0.950 . S
H1070 C1091 0.950 . S
H1071 C1094 0.950 . S
H1072 C1095 0.950 . S
H1073 C1097 0.950 . S
H1074 C1098 0.950 . S
H1075 C1099 0.951 . S
H1076 C1101 0.951 . S
H1077 C1103 0.950 . S
H1078 C1104 0.950 . S
H1079 C1106 0.950 . S
H1080 C1109 0.950 . S
H1081 C1110 0.950 . S
H1082 C1112 0.950 . S
H1083 C1113 0.950 . S
C1084 H1066 0.951 . S
C1084 C1085 1.366 . S
C1084 C1086 1.388 . S
C1085 C1084 1.366 . S
C1085 C1089 1.385 . S
C1086 H1067 0.951 . S
C1086 C1084 1.388 . S
C1086 C1087 1.366 . S
C1087 C1086 1.366 . S
C1087 C1088 1.414 . S
C1087 C1090 1.499 . S
C1088 H1068 0.950 . S
C1088 C1087 1.414 . S
C1088 C1089 1.374 . S
C1089 H1069 0.950 . S
C1089 C1085 1.385 . S
C1089 C1088 1.374 . S
C1090 C1087 1.499 . S
C1090 C1091 1.373 . S
C1090 C1092 1.389 . S
C1091 H1070 0.950 . S
C1091 C1090 1.373 . S
C1091 C1107 1.377 . S
C1092 C1090 1.389 . S
C1092 C1093 1.524 . S
C1092 C1106 1.377 . S
C1093 C1092 1.524 . S
C1093 C1094 1.397 . S
C1093 C1098 1.363 . S
C1094 H1071 0.950 . S
C1094 C1093 1.397 . S
C1094 C1095 1.334 . S
C1095 H1072 0.950 . S
C1095 C1094 1.334 . S
C1095 C1096 1.287 . S
C1096 C1095 1.287 . S
C1096 C1097 1.524 . S
C1096 H1115 0.913 . S
C1097 H1073 0.950 . S
C1097 C1096 1.524 . S
C1097 C1098 1.415 . S
C1098 H1074 0.950 . S
C1098 C1093 1.363 . S
C1098 C1097 1.415 . S
C1099 H1075 0.951 . S
C1099 C1100 1.366 . S
C1099 C1101 1.388 . S
C1100 C1099 1.366 . S
C1100 C1104 1.385 . S
C1101 H1076 0.951 . S
C1101 C1099 1.388 . S
C1101 C1102 1.366 . S
C1102 C1101 1.366 . S
C1102 C1103 1.414 . S
C1102 C1105 1.499 . S
C1103 H1077 0.950 . S
C1103 C1102 1.414 . S
C1103 C1104 1.374 . S
C1104 H1078 0.950 . S
C1104 C1100 1.385 . S
C1104 C1103 1.374 . S
C1105 C1102 1.499 . S
C1105 C1106 1.373 . S
C1105 C1107 1.389 . S
C1106 H1079 0.950 . S
C1106 C1092 1.377 . S
C1106 C1105 1.373 . S
C1107 C1091 1.377 . S
C1107 C1105 1.389 . S
C1107 C1108 1.524 . S
C1108 C1107 1.524 . S
C1108 C1109 1.397 . S
C1108 C1113 1.363 . S
C1109 H1080 0.950 . S
C1109 C1108 1.397 . S
C1109 C1110 1.334 . S
C1110 H1081 0.950 . S
C1110 C1109 1.334 . S
C1110 C1111 1.287 . S
C1111 C1110 1.287 . S
C1111 C1112 1.524 . S
C1111 H1114 0.999 . S
C1112 H1082 0.950 . S
C1112 C1111 1.524 . S
C1112 C1113 1.415 . S
C1113 H1083 0.950 . S
C1113 C1108 1.363 . S
C1113 C1112 1.415 . S
H1114 C1111 0.999 . S
H1115 C1096 0.913 . S
H1116 C1134 0.951 . S
H1117 C1136 0.951 . S
H1118 C1138 0.950 . S
H1119 C1139 0.950 . S
H1120 C1141 0.950 . S
H1121 C1144 0.950 . S
H1122 C1145 0.950 . S
H1123 C1147 0.950 . S
H1124 C1148 0.950 . S
H1125 C1149 0.951 . S
H1126 C1151 0.951 . S
H1127 C1153 0.950 . S
H1128 C1154 0.950 . S
H1129 C1156 0.950 . S
H1130 C1159 0.950 . S
H1131 C1160 0.950 . S
H1132 C1162 0.950 1_556 S
H1133 C1163 0.950 . S
C1134 H1116 0.951 . S
C1134 C1135 1.366 . S
C1134 C1136 1.388 . S
C1135 C1134 1.366 . S
C1135 C1139 1.385 . S
C1136 H1117 0.951 . S
C1136 C1134 1.388 . S
C1136 C1137 1.366 . S
C1137 C1136 1.366 . S
C1137 C1138 1.414 . S
C1137 C1140 1.499 . S
C1138 H1118 0.950 . S
C1138 C1137 1.414 . S
C1138 C1139 1.374 . S
C1139 H1119 0.950 . S
C1139 C1135 1.385 . S
C1139 C1138 1.374 . S
C1140 C1137 1.499 . S
C1140 C1141 1.373 . S
C1140 C1142 1.389 . S
C1141 H1120 0.950 . S
C1141 C1140 1.373 . S
C1141 C1157 1.377 . S
C1142 C1140 1.389 . S
C1142 C1143 1.524 . S
C1142 C1156 1.377 . S
C1143 C1142 1.524 . S
C1143 C1144 1.397 . S
C1143 C1148 1.363 . S
C1144 H1121 0.950 . S
C1144 C1143 1.397 . S
C1144 C1145 1.334 . S
C1145 H1122 0.950 . S
C1145 C1144 1.334 . S
C1145 C1146 1.287 . S
C1146 C1145 1.287 . S
C1146 C1147 1.524 . S
C1146 H1165 0.913 . S
C1147 H1123 0.950 . S
C1147 C1146 1.524 . S
C1147 C1148 1.415 . S
C1148 H1124 0.950 . S
C1148 C1143 1.363 . S
C1148 C1147 1.415 . S
C1149 H1125 0.951 . S
C1149 C1150 1.366 . S
C1149 C1151 1.388 . S
C1150 C1149 1.366 . S
C1150 C1154 1.385 . S
C1151 H1126 0.951 . S
C1151 C1149 1.388 . S
C1151 C1152 1.366 . S
C1152 C1151 1.366 . S
C1152 C1153 1.414 . S
C1152 C1155 1.499 . S
C1153 H1127 0.950 . S
C1153 C1152 1.414 . S
C1153 C1154 1.374 . S
C1154 H1128 0.950 . S
C1154 C1150 1.385 . S
C1154 C1153 1.374 . S
C1155 C1152 1.499 . S
C1155 C1156 1.373 . S
C1155 C1157 1.389 . S
C1156 H1129 0.950 . S
C1156 C1142 1.377 . S
C1156 C1155 1.373 . S
C1157 C1141 1.377 . S
C1157 C1155 1.389 . S
C1157 C1158 1.524 . S
C1158 C1157 1.524 . S
C1158 C1159 1.397 . S
C1158 C1163 1.363 . S
C1159 H1130 0.950 . S
C1159 C1158 1.397 . S
C1159 C1160 1.334 . S
C1160 H1131 0.950 . S
C1160 C1159 1.334 . S
C1160 C1161 1.287 . S
C1161 C1160 1.287 . S
C1161 C1162 1.524 . S
C1161 H1164 0.999 1_554 S
C1162 H1132 0.950 1_554 S
C1162 C1161 1.524 . S
C1162 C1163 1.415 . S
C1163 H1133 0.950 . S
C1163 C1158 1.363 . S
C1163 C1162 1.415 . S
H1164 C1161 0.999 1_556 S
H1165 C1146 0.913 . S
H1166 C1184 0.951 . S
H1167 C1186 0.951 . S
H1168 C1188 0.950 . S
H1169 C1189 0.950 . S
H1170 C1191 0.950 . S
H1171 C1194 0.950 . S
H1172 C1195 0.950 . S
H1173 C1197 0.950 . S
H1174 C1198 0.950 . S
H1175 C1199 0.951 . S
H1176 C1201 0.951 . S
H1177 C1203 0.950 . S
H1178 C1204 0.950 1_554 S
H1179 C1206 0.950 . S
H1180 C1209 0.950 . S
H1181 C1210 0.950 . S
H1182 C1212 0.950 . S
H1183 C1213 0.950 . S
C1184 H1166 0.951 . S
C1184 C1185 1.366 . S
C1184 C1186 1.388 . S
C1185 C1184 1.366 . S
C1185 C1189 1.385 . S
C1186 H1167 0.951 . S
C1186 C1184 1.388 . S
C1186 C1187 1.366 . S
C1187 C1186 1.366 . S
C1187 C1188 1.414 . S
C1187 C1190 1.499 . S
C1188 H1168 0.950 . S
C1188 C1187 1.414 . S
C1188 C1189 1.374 . S
C1189 H1169 0.950 . S
C1189 C1185 1.385 . S
C1189 C1188 1.374 . S
C1190 C1187 1.499 . S
C1190 C1191 1.373 . S
C1190 C1192 1.389 . S
C1191 H1170 0.950 . S
C1191 C1190 1.373 . S
C1191 C1207 1.377 . S
C1192 C1190 1.389 . S
C1192 C1193 1.524 . S
C1192 C1206 1.377 . S
C1193 C1192 1.524 . S
C1193 C1194 1.397 . S
C1193 C1198 1.363 . S
C1194 H1171 0.950 . S
C1194 C1193 1.397 . S
C1194 C1195 1.334 . S
C1195 H1172 0.950 . S
C1195 C1194 1.334 . S
C1195 C1196 1.287 . S
C1196 C1195 1.287 . S
C1196 C1197 1.524 . S
C1196 H1215 0.913 . S
C1197 H1173 0.950 . S
C1197 C1196 1.524 . S
C1197 C1198 1.415 . S
C1198 H1174 0.950 . S
C1198 C1193 1.363 . S
C1198 C1197 1.415 . S
C1199 H1175 0.951 . S
C1199 C1200 1.368 . S
C1199 C1201 1.388 . S
C1200 C1199 1.368 . S
C1200 C1204 1.386 . S
C1201 H1176 0.951 . S
C1201 C1199 1.388 . S
C1201 C1202 1.366 . S
C1202 C1201 1.366 . S
C1202 C1203 1.414 . S
C1202 C1205 1.499 . S
C1203 H1177 0.950 . S
C1203 C1202 1.414 . S
C1203 C1204 1.374 . S
C1204 H1178 0.950 1_556 S
C1204 C1200 1.386 . S
C1204 C1203 1.374 . S
C1205 C1202 1.499 . S
C1205 C1206 1.373 . S
C1205 C1207 1.389 . S
C1206 H1179 0.950 . S
C1206 C1192 1.377 . S
C1206 C1205 1.373 . S
C1207 C1191 1.377 . S
C1207 C1205 1.389 . S
C1207 C1208 1.524 . S
C1208 C1207 1.524 . S
C1208 C1209 1.397 1_556 S
C1208 C1213 1.363 . S
C1209 H1180 0.950 . S
C1209 C1208 1.397 1_554 S
C1209 C1210 1.334 . S
C1210 H1181 0.950 . S
C1210 C1209 1.334 . S
C1210 C1211 1.287 . S
C1211 C1210 1.287 . S
C1211 C1212 1.524 . S
C1211 H1214 0.999 . S
C1212 H1182 0.950 . S
C1212 C1211 1.524 . S
C1212 C1213 1.415 1_554 S
C1213 H1183 0.950 . S
C1213 C1208 1.363 . S
C1213 C1212 1.415 1_556 S
H1214 C1211 0.999 . S
H1215 C1196 0.913 . S
H1216 C1234 0.951 . S
H1217 C1236 0.951 . S
H1218 C1238 0.950 . S
H1219 C1239 0.950 . S
H1220 C1241 0.950 . S
H1221 C1244 0.950 . S
H1222 C1245 0.950 . S
H1223 C1247 0.950 . S
H1224 C1248 0.950 . S
H1225 C1249 0.951 . S
H1226 C1251 0.951 . S
H1227 C1253 0.950 . S
H1228 C1254 0.950 . S
H1229 C1256 0.950 . S
H1230 C1259 0.950 . S
H1231 C1260 0.950 . S
H1232 C1262 0.950 . S
H1233 C1263 0.950 . S
C1234 H1216 0.951 . S
C1234 C1235 1.366 . S
C1234 C1236 1.388 . S
C1235 C1234 1.366 . S
C1235 C1239 1.385 . S
C1236 H1217 0.951 . S
C1236 C1234 1.388 . S
C1236 C1237 1.366 . S
C1237 C1236 1.366 . S
C1237 C1238 1.414 . S
C1237 C1240 1.499 . S
C1238 H1218 0.950 . S
C1238 C1237 1.414 . S
C1238 C1239 1.374 . S
C1239 H1219 0.950 . S
C1239 C1235 1.385 . S
C1239 C1238 1.374 . S
C1240 C1237 1.499 . S
C1240 C1241 1.373 . S
C1240 C1242 1.389 . S
C1241 H1220 0.950 . S
C1241 C1240 1.373 . S
C1241 C1257 1.377 . S
C1242 C1240 1.389 . S
C1242 C1243 1.524 . S
C1242 C1256 1.377 . S
C1243 C1242 1.524 . S
C1243 C1244 1.397 . S
C1243 C1248 1.363 . S
C1244 H1221 0.950 . S
C1244 C1243 1.397 . S
C1244 C1245 1.334 . S
C1245 H1222 0.950 . S
C1245 C1244 1.334 . S
C1245 C1246 1.287 . S
C1246 C1245 1.287 . S
C1246 C1247 1.524 . S
C1246 H1265 0.913 . S
C1247 H1223 0.950 . S
C1247 C1246 1.524 . S
C1247 C1248 1.415 . S
C1248 H1224 0.950 . S
C1248 C1243 1.363 . S
C1248 C1247 1.415 . S
C1249 H1225 0.951 . S
C1249 C1250 1.366 . S
C1249 C1251 1.388 . S
C1250 C1249 1.366 . S
C1250 C1254 1.385 . S
C1251 H1226 0.951 . S
C1251 C1249 1.388 . S
C1251 C1252 1.366 . S
C1252 C1251 1.366 . S
C1252 C1253 1.414 . S
C1252 C1255 1.499 . S
C1253 H1227 0.950 . S
C1253 C1252 1.414 . S
C1253 C1254 1.374 . S
C1254 H1228 0.950 . S
C1254 C1250 1.385 . S
C1254 C1253 1.374 . S
C1255 C1252 1.499 . S
C1255 C1256 1.373 . S
C1255 C1257 1.389 . S
C1256 H1229 0.950 . S
C1256 C1242 1.377 . S
C1256 C1255 1.373 . S
C1257 C1241 1.377 . S
C1257 C1255 1.389 . S
C1257 C1258 1.524 . S
C1258 C1257 1.524 . S
C1258 C1259 1.397 . S
C1258 C1263 1.363 . S
C1259 H1230 0.950 . S
C1259 C1258 1.397 . S
C1259 C1260 1.334 . S
C1260 H1231 0.950 . S
C1260 C1259 1.334 . S
C1260 C1261 1.287 . S
C1261 C1260 1.287 . S
C1261 C1262 1.524 . S
C1261 H1264 0.999 . S
C1262 H1232 0.950 . S
C1262 C1261 1.524 . S
C1262 C1263 1.415 . S
C1263 H1233 0.950 . S
C1263 C1258 1.363 . S
C1263 C1262 1.415 . S
H1264 C1261 0.999 . S
H1265 C1246 0.913 . S
H1266 C1284 0.951 . S
H1267 C1286 0.951 . S
H1268 C1288 0.950 . S
H1269 C1289 0.950 . S
H1270 C1291 0.950 . S
H1271 C1294 0.950 1_565 S
H1272 C1295 0.950 . S
H1273 C1297 0.950 . S
H1274 C1298 0.950 . S
H1275 C1299 0.951 . S
H1276 C1301 0.951 . S
H1277 C1303 0.950 . S
H1278 C1304 0.950 . S
H1279 C1306 0.950 . S
H1280 C1309 0.950 1_545 S
H1281 C1310 0.950 . S
H1282 C1312 0.950 . S
H1283 C1313 0.950 . S
C1284 H1266 0.951 . S
C1284 C1285 1.366 . S
C1284 C1286 1.388 . S
C1285 C1284 1.366 . S
C1285 C1289 1.385 . S
C1286 H1267 0.951 . S
C1286 C1284 1.388 . S
C1286 C1287 1.366 . S
C1287 C1286 1.366 . S
C1287 C1288 1.414 . S
C1287 C1290 1.499 . S
C1288 H1268 0.950 . S
C1288 C1287 1.414 . S
C1288 C1289 1.374 . S
C1289 H1269 0.950 . S
C1289 C1285 1.385 . S
C1289 C1288 1.374 . S
C1290 C1287 1.499 . S
C1290 C1291 1.373 . S
C1290 C1292 1.389 1_565 S
C1291 H1270 0.950 . S
C1291 C1290 1.373 . S
C1291 C1307 1.377 . S
C1292 C1290 1.389 1_545 S
C1292 C1293 1.524 . S
C1292 C1306 1.377 . S
C1293 C1292 1.524 . S
C1293 C1294 1.397 . S
C1293 C1298 1.363 . S
C1294 H1271 0.950 1_545 S
C1294 C1293 1.397 . S
C1294 C1295 1.334 . S
C1295 H1272 0.950 . S
C1295 C1294 1.334 . S
C1295 C1296 1.287 . S
C1296 C1295 1.287 . S
C1296 C1297 1.524 . S
C1296 H1315 0.913 . S
C1297 H1273 0.950 . S
C1297 C1296 1.524 . S
C1297 C1298 1.415 . S
C1298 H1274 0.950 . S
C1298 C1293 1.363 . S
C1298 C1297 1.415 . S
C1299 H1275 0.951 . S
C1299 C1300 1.366 . S
C1299 C1301 1.388 . S
C1300 C1299 1.366 . S
C1300 C1304 1.385 . S
C1301 H1276 0.951 . S
C1301 C1299 1.388 . S
C1301 C1302 1.366 . S
C1302 C1301 1.366 . S
C1302 C1303 1.414 . S
C1302 C1305 1.499 1_556 S
C1303 H1277 0.950 . S
C1303 C1302 1.414 . S
C1303 C1304 1.374 . S
C1304 H1278 0.950 . S
C1304 C1300 1.385 . S
C1304 C1303 1.374 . S
C1305 C1302 1.499 1_554 S
C1305 C1306 1.373 . S
C1305 C1307 1.389 1_545 S
C1306 H1279 0.950 . S
C1306 C1292 1.377 . S
C1306 C1305 1.373 . S
C1307 C1291 1.377 . S
C1307 C1305 1.389 1_565 S
C1307 C1308 1.524 1_554 S
C1308 C1307 1.524 1_556 S
C1308 C1309 1.397 . S
C1308 C1313 1.363 . S
C1309 H1280 0.950 1_565 S
C1309 C1308 1.397 . S
C1309 C1310 1.334 . S
C1310 H1281 0.950 . S
C1310 C1309 1.334 . S
C1310 C1311 1.287 . S
C1311 C1310 1.287 . S
C1311 C1312 1.524 . S
C1311 H1314 0.999 . S
C1312 H1282 0.950 . S
C1312 C1311 1.524 . S
C1312 C1313 1.415 . S
C1313 H1283 0.950 . S
C1313 C1308 1.363 . S
C1313 C1312 1.415 . S
H1314 C1311 0.999 . S
H1315 C1296 0.913 . S
H1316 C1334 0.951 . S
H1317 C1336 0.951 . S
H1318 C1338 0.950 . S
H1319 C1339 0.950 . S
H1320 C1341 0.950 . S
H1321 C1344 0.950 . S
H1322 C1345 0.950 . S
H1323 C1347 0.950 . S
H1324 C1348 0.950 . S
H1325 C1349 0.951 . S
H1326 C1351 0.951 . S
H1327 C1353 0.950 . S
H1328 C1354 0.950 . S
H1329 C1356 0.950 . S
H1330 C1359 0.950 . S
H1331 C1360 0.950 . S
H1332 C1362 0.950 . S
H1333 C1363 0.950 . S
C1334 H1316 0.951 . S
C1334 C1335 1.366 . S
C1334 C1336 1.388 . S
C1335 C1334 1.366 . S
C1335 C1339 1.385 . S
C1336 H1317 0.951 . S
C1336 C1334 1.388 . S
C1336 C1337 1.366 . S
C1337 C1336 1.366 . S
C1337 C1338 1.414 . S
C1337 C1340 1.499 . S
C1338 H1318 0.950 . S
C1338 C1337 1.414 . S
C1338 C1339 1.374 . S
C1339 H1319 0.950 . S
C1339 C1335 1.385 . S
C1339 C1338 1.374 . S
C1340 C1337 1.499 . S
C1340 C1341 1.373 . S
C1340 C1342 1.389 . S
C1341 H1320 0.950 . S
C1341 C1340 1.373 . S
C1341 C1357 1.377 . S
C1342 C1340 1.389 . S
C1342 C1343 1.524 . S
C1342 C1356 1.377 . S
C1343 C1342 1.524 . S
C1343 C1344 1.397 . S
C1343 C1348 1.363 . S
C1344 H1321 0.950 . S
C1344 C1343 1.397 . S
C1344 C1345 1.334 . S
C1345 H1322 0.950 . S
C1345 C1344 1.334 . S
C1345 C1346 1.287 . S
C1346 C1345 1.287 . S
C1346 C1347 1.524 . S
C1346 H1365 0.913 . S
C1347 H1323 0.950 . S
C1347 C1346 1.524 . S
C1347 C1348 1.415 . S
C1348 H1324 0.950 . S
C1348 C1343 1.363 . S
C1348 C1347 1.415 . S
C1349 H1325 0.951 . S
C1349 C1350 1.366 . S
C1349 C1351 1.388 . S
C1350 C1349 1.366 . S
C1350 C1354 1.385 . S
C1351 H1326 0.951 . S
C1351 C1349 1.388 . S
C1351 C1352 1.366 . S
C1352 C1351 1.366 . S
C1352 C1353 1.414 . S
C1352 C1355 1.499 . S
C1353 H1327 0.950 . S
C1353 C1352 1.414 . S
C1353 C1354 1.374 . S
C1354 H1328 0.950 . S
C1354 C1350 1.385 . S
C1354 C1353 1.374 . S
C1355 C1352 1.499 . S
C1355 C1356 1.373 . S
C1355 C1357 1.389 . S
C1356 H1329 0.950 . S
C1356 C1342 1.377 . S
C1356 C1355 1.373 . S
C1357 C1341 1.377 . S
C1357 C1355 1.389 . S
C1357 C1358 1.524 . S
C1358 C1357 1.524 . S
C1358 C1359 1.397 . S
C1358 C1363 1.363 . S
C1359 H1330 0.950 . S
C1359 C1358 1.397 . S
C1359 C1360 1.334 . S
C1360 H1331 0.950 . S
C1360 C1359 1.334 . S
C1360 C1361 1.287 . S
C1361 C1360 1.287 . S
C1361 C1362 1.524 . S
C1361 H1364 0.999 . S
C1362 H1332 0.950 . S
C1362 C1361 1.524 . S
C1362 C1363 1.415 . S
C1363 H1333 0.950 . S
C1363 C1358 1.363 . S
C1363 C1362 1.415 . S
H1364 C1361 0.999 . S
H1365 C1346 0.913 . S
H1366 C1384 0.951 . S
H1367 C1386 0.951 . S
H1368 C1388 0.950 . S
H1369 C1389 0.950 . S
H1370 C1391 0.950 . S
H1371 C1394 0.954 1_565 S
H1372 C1395 0.940 1_565 S
H1373 C1397 0.950 . S
H1374 C1398 0.950 . S
H1375 C1399 0.951 . S
H1376 C1401 0.951 . S
H1377 C1403 0.950 . S
H1378 C1404 0.950 . S
H1379 C1406 0.950 . S
H1380 C1409 0.946 . S
H1381 C1410 0.940 1_545 S
H1382 C1412 0.950 . S
H1383 C1413 0.950 . S
C1384 H1366 0.951 . S
C1384 C1385 1.366 . S
C1384 C1386 1.388 . S
C1385 C1384 1.366 . S
C1385 C1389 1.385 . S
C1386 H1367 0.951 . S
C1386 C1384 1.388 . S
C1386 C1387 1.366 . S
C1387 C1386 1.366 . S
C1387 C1388 1.414 . S
C1387 C1390 1.499 . S
C1388 H1368 0.950 . S
C1388 C1387 1.414 . S
C1388 C1389 1.374 . S
C1389 H1369 0.950 . S
C1389 C1385 1.385 . S
C1389 C1388 1.374 . S
C1390 C1387 1.499 . S
C1390 C1391 1.373 . S
C1390 C1392 1.389 . S
C1391 H1370 0.950 . S
C1391 C1390 1.373 . S
C1391 C1407 1.377 1_545 S
C1392 C1390 1.389 . S
C1392 C1393 1.524 . S
C1392 C1406 1.377 1_545 S
C1393 C1392 1.524 . S
C1393 C1394 1.393 . S
C1393 C1398 1.363 . S
C1394 H1371 0.954 1_545 S
C1394 C1393 1.393 . S
C1394 C1395 1.333 . S
C1395 H1372 0.940 1_545 S
C1395 C1394 1.333 . S
C1395 C1396 1.302 . S
C1396 C1395 1.302 . S
C1396 C1397 1.524 . S
C1396 H1415 0.913 . S
C1397 H1373 0.950 . S
C1397 C1396 1.524 . S
C1397 C1398 1.415 . S
C1398 H1374 0.950 . S
C1398 C1393 1.363 . S
C1398 C1397 1.415 . S
C1399 H1375 0.951 . S
C1399 C1400 1.366 . S
C1399 C1401 1.388 . S
C1400 C1399 1.366 . S
C1400 C1404 1.385 . S
C1401 H1376 0.951 . S
C1401 C1399 1.388 . S
C1401 C1402 1.366 . S
C1402 C1401 1.366 . S
C1402 C1403 1.414 . S
C1402 C1405 1.499 . S
C1403 H1377 0.950 . S
C1403 C1402 1.414 . S
C1403 C1404 1.374 . S
C1404 H1378 0.950 . S
C1404 C1400 1.385 . S
C1404 C1403 1.374 . S
C1405 C1402 1.499 . S
C1405 C1406 1.373 . S
C1405 C1407 1.389 . S
C1406 H1379 0.950 . S
C1406 C1392 1.377 1_565 S
C1406 C1405 1.373 . S
C1407 C1391 1.377 1_565 S
C1407 C1405 1.389 . S
C1407 C1408 1.524 . S
C1408 C1407 1.524 . S
C1408 C1409 1.400 1_565 S
C1408 C1413 1.363 . S
C1409 H1380 0.946 . S
C1409 C1408 1.400 1_545 S
C1409 C1410 1.333 1_545 S
C1410 H1381 0.940 1_565 S
C1410 C1409 1.333 1_565 S
C1410 C1411 1.302 . S
C1411 C1410 1.302 . S
C1411 C1412 1.524 . S
C1411 H1414 0.999 . S
C1412 H1382 0.950 . S
C1412 C1411 1.524 . S
C1412 C1413 1.415 . S
C1413 H1383 0.950 . S
C1413 C1408 1.363 . S
C1413 C1412 1.415 . S
H1414 C1411 0.999 . S
H1415 C1396 0.913 . S
H1416 C1434 0.951 . S
H1417 C1436 0.951 . S
H1418 C1438 0.950 . S
H1419 C1439 0.950 . S
H1420 C1441 0.950 . S
H1421 C1444 0.950 . S
H1422 C1445 0.950 . S
H1423 C1447 0.950 . S
H1424 C1448 0.950 . S
H1425 C1449 0.951 . S
H1426 C1451 0.951 . S
H1427 C1453 0.950 . S
H1428 C1454 0.950 . S
H1429 C1456 0.950 . S
H1430 C1459 0.950 . S
H1431 C1460 0.950 . S
H1432 C1462 0.950 . S
H1433 C1463 0.950 . S
C1434 H1416 0.951 . S
C1434 C1435 1.366 . S
C1434 C1436 1.388 . S
C1435 C1434 1.366 . S
C1435 C1439 1.385 . S
C1436 H1417 0.951 . S
C1436 C1434 1.388 . S
C1436 C1437 1.366 . S
C1437 C1436 1.366 . S
C1437 C1438 1.414 . S
C1437 C1440 1.499 . S
C1438 H1418 0.950 . S
C1438 C1437 1.414 . S
C1438 C1439 1.374 . S
C1439 H1419 0.950 . S
C1439 C1435 1.385 . S
C1439 C1438 1.374 . S
C1440 C1437 1.499 . S
C1440 C1441 1.373 . S
C1440 C1442 1.389 . S
C1441 H1420 0.950 . S
C1441 C1440 1.373 . S
C1441 C1457 1.377 . S
C1442 C1440 1.389 . S
C1442 C1443 1.524 . S
C1442 C1456 1.377 . S
C1443 C1442 1.524 . S
C1443 C1444 1.397 . S
C1443 C1448 1.363 . S
C1444 H1421 0.950 . S
C1444 C1443 1.397 . S
C1444 C1445 1.334 . S
C1445 H1422 0.950 . S
C1445 C1444 1.334 . S
C1445 C1446 1.287 . S
C1446 C1445 1.287 . S
C1446 C1447 1.524 . S
C1446 H1465 0.913 . S
C1447 H1423 0.950 . S
C1447 C1446 1.524 . S
C1447 C1448 1.415 . S
C1448 H1424 0.950 . S
C1448 C1443 1.363 . S
C1448 C1447 1.415 . S
C1449 H1425 0.951 . S
C1449 C1450 1.366 . S
C1449 C1451 1.388 . S
C1450 C1449 1.366 . S
C1450 C1454 1.385 . S
C1451 H1426 0.951 . S
C1451 C1449 1.388 . S
C1451 C1452 1.366 . S
C1452 C1451 1.366 . S
C1452 C1453 1.414 . S
C1452 C1455 1.499 . S
C1453 H1427 0.950 . S
C1453 C1452 1.414 . S
C1453 C1454 1.374 . S
C1454 H1428 0.950 . S
C1454 C1450 1.385 . S
C1454 C1453 1.374 . S
C1455 C1452 1.499 . S
C1455 C1456 1.373 . S
C1455 C1457 1.389 . S
C1456 H1429 0.950 . S
C1456 C1442 1.377 . S
C1456 C1455 1.373 . S
C1457 C1441 1.377 . S
C1457 C1455 1.389 . S
C1457 C1458 1.524 . S
C1458 C1457 1.524 . S
C1458 C1459 1.397 . S
C1458 C1463 1.363 . S
C1459 H1430 0.950 . S
C1459 C1458 1.397 . S
C1459 C1460 1.334 . S
C1460 H1431 0.950 . S
C1460 C1459 1.334 . S
C1460 C1461 1.287 . S
C1461 C1460 1.287 . S
C1461 C1462 1.524 . S
C1461 H1464 0.999 . S
C1462 H1432 0.950 . S
C1462 C1461 1.524 . S
C1462 C1463 1.415 . S
C1463 H1433 0.950 . S
C1463 C1458 1.363 . S
C1463 C1462 1.415 . S
H1464 C1461 0.999 . S
H1465 C1446 0.913 . S
H1466 C1484 0.951 . S
H1467 C1486 0.951 . S
H1468 C1488 0.950 . S
H1469 C1489 0.950 . S
H1470 C1491 0.950 . S
H1471 C1494 0.950 . S
H1472 C1495 0.950 . S
H1473 C1497 0.950 . S
H1474 C1498 0.950 1_554 S
H1475 C1499 0.951 . S
H1476 C1501 0.951 . S
H1477 C1503 0.950 . S
H1478 C1504 0.950 . S
H1479 C1506 0.950 . S
H1480 C1509 0.950 . S
H1481 C1510 0.950 . S
H1482 C1512 0.950 . S
H1483 C1513 0.950 . S
C1484 H1466 0.951 . S
C1484 C1485 1.366 . S
C1484 C1486 1.388 . S
C1485 C1484 1.366 . S
C1485 C1489 1.385 . S
C1486 H1467 0.951 . S
C1486 C1484 1.388 . S
C1486 C1487 1.366 . S
C1487 C1486 1.366 . S
C1487 C1488 1.414 . S
C1487 C1490 1.499 1_556 S
C1488 H1468 0.950 . S
C1488 C1487 1.414 . S
C1488 C1489 1.374 . S
C1489 H1469 0.950 . S
C1489 C1485 1.385 . S
C1489 C1488 1.374 . S
C1490 C1487 1.499 1_554 S
C1490 C1491 1.373 . S
C1490 C1492 1.331 1_545 S
C1491 H1470 0.950 . S
C1491 C1490 1.373 . S
C1491 C1507 1.431 . S
C1492 C1490 1.331 1_565 S
C1492 C1493 1.544 1_554 S
C1492 C1506 1.431 . S
C1493 C1492 1.544 1_556 S
C1493 C1494 1.397 . S
C1493 C1498 1.363 . S
C1494 H1471 0.950 . S
C1494 C1493 1.397 . S
C1494 C1495 1.334 . S
C1495 H1472 0.950 . S
C1495 C1494 1.334 . S
C1495 C1496 1.287 . S
C1496 C1495 1.287 . S
C1496 C1497 1.524 . S
C1496 H1515 0.913 . S
C1497 H1473 0.950 . S
C1497 C1496 1.524 . S
C1497 C1498 1.415 . S
C1498 H1474 0.950 1_556 S
C1498 C1493 1.363 . S
C1498 C1497 1.415 . S
C1499 H1475 0.951 . S
C1499 C1500 1.366 . S
C1499 C1501 1.388 . S
C1500 C1499 1.366 . S
C1500 C1504 1.385 . S
C1501 H1476 0.951 . S
C1501 C1499 1.388 . S
C1501 C1502 1.366 . S
C1502 C1501 1.366 . S
C1502 C1503 1.414 . S
C1502 C1505 1.499 . S
C1503 H1477 0.950 . S
C1503 C1502 1.414 . S
C1503 C1504 1.374 . S
C1504 H1478 0.950 . S
C1504 C1500 1.385 . S
C1504 C1503 1.374 . S
C1505 C1502 1.499 . S
C1505 C1506 1.373 . S
C1505 C1507 1.331 1_565 S
C1506 H1479 0.950 . S
C1506 C1492 1.431 . S
C1506 C1505 1.373 . S
C1507 C1491 1.431 . S
C1507 C1505 1.331 1_545 S
C1507 C1508 1.544 . S
C1508 C1507 1.544 . S
C1508 C1509 1.397 . S
C1508 C1513 1.363 . S
C1509 H1480 0.950 . S
C1509 C1508 1.397 . S
C1509 C1510 1.334 . S
C1510 H1481 0.950 . S
C1510 C1509 1.334 . S
C1510 C1511 1.287 . S
C1511 C1510 1.287 . S
C1511 C1512 1.524 . S
C1511 H1514 0.999 . S
C1512 H1482 0.950 . S
C1512 C1511 1.524 . S
C1512 C1513 1.415 . S
C1513 H1483 0.950 . S
C1513 C1508 1.363 . S
C1513 C1512 1.415 . S
H1514 C1511 0.999 . S
H1515 C1496 0.913 . S
H1516 C1534 0.951 . S
H1517 C1536 0.951 . S
H1518 C1538 0.950 . S
H1519 C1539 0.950 . S
H1520 C1541 0.950 . S
H1521 C1544 0.950 . S
H1522 C1545 0.950 . S
H1523 C1547 0.950 . S
H1524 C1548 0.950 . S
H1525 C1549 0.951 . S
H1526 C1551 0.951 . S
H1527 C1553 0.950 . S
H1528 C1554 0.950 . S
H1529 C1556 0.950 . S
H1530 C1559 0.950 . S
H1531 C1560 0.950 . S
H1532 C1562 0.950 . S
H1533 C1563 0.950 . S
C1534 H1516 0.951 . S
C1534 C1535 1.366 . S
C1534 C1536 1.388 . S
C1535 C1534 1.366 . S
C1535 C1539 1.385 . S
C1536 H1517 0.951 . S
C1536 C1534 1.388 . S
C1536 C1537 1.366 . S
C1537 C1536 1.366 . S
C1537 C1538 1.414 . S
C1537 C1540 1.499 . S
C1538 H1518 0.950 . S
C1538 C1537 1.414 . S
C1538 C1539 1.374 . S
C1539 H1519 0.950 . S
C1539 C1535 1.385 . S
C1539 C1538 1.374 . S
C1540 C1537 1.499 . S
C1540 C1541 1.373 . S
C1540 C1542 1.389 . S
C1541 H1520 0.950 . S
C1541 C1540 1.373 . S
C1541 C1557 1.377 . S
C1542 C1540 1.389 . S
C1542 C1543 1.524 . S
C1542 C1556 1.377 . S
C1543 C1542 1.524 . S
C1543 C1544 1.397 . S
C1543 C1548 1.363 . S
C1544 H1521 0.950 . S
C1544 C1543 1.397 . S
C1544 C1545 1.334 . S
C1545 H1522 0.950 . S
C1545 C1544 1.334 . S
C1545 C1546 1.287 . S
C1546 C1545 1.287 . S
C1546 C1547 1.524 . S
C1546 H1565 0.913 . S
C1547 H1523 0.950 . S
C1547 C1546 1.524 . S
C1547 C1548 1.415 . S
C1548 H1524 0.950 . S
C1548 C1543 1.363 . S
C1548 C1547 1.415 . S
C1549 H1525 0.951 . S
C1549 C1550 1.366 . S
C1549 C1551 1.388 . S
C1550 C1549 1.366 . S
C1550 C1554 1.385 . S
C1551 H1526 0.951 . S
C1551 C1549 1.388 . S
C1551 C1552 1.366 . S
C1552 C1551 1.366 . S
C1552 C1553 1.414 . S
C1552 C1555 1.499 . S
C1553 H1527 0.950 . S
C1553 C1552 1.414 . S
C1553 C1554 1.374 . S
C1554 H1528 0.950 . S
C1554 C1550 1.385 . S
C1554 C1553 1.374 . S
C1555 C1552 1.499 . S
C1555 C1556 1.373 . S
C1555 C1557 1.389 . S
C1556 H1529 0.950 . S
C1556 C1542 1.377 . S
C1556 C1555 1.373 . S
C1557 C1541 1.377 . S
C1557 C1555 1.389 . S
C1557 C1558 1.524 . S
C1558 C1557 1.524 . S
C1558 C1559 1.397 . S
C1558 C1563 1.363 . S
C1559 H1530 0.950 . S
C1559 C1558 1.397 . S
C1559 C1560 1.334 . S
C1560 H1531 0.950 . S
C1560 C1559 1.334 . S
C1560 C1561 1.287 . S
C1561 C1560 1.287 . S
C1561 C1562 1.524 . S
C1561 H1564 0.999 . S
C1562 H1532 0.950 . S
C1562 C1561 1.524 . S
C1562 C1563 1.415 . S
C1563 H1533 0.950 . S
C1563 C1558 1.363 . S
C1563 C1562 1.415 . S
H1564 C1561 0.999 . S
H1565 C1546 0.913 . S
H1566 C1584 0.951 . S
H1567 C1586 0.951 . S
H1568 C1588 0.950 . S
H1569 C1589 0.950 . S
H1570 C1591 0.950 . S
H1571 C1594 0.950 . S
H1572 C1595 0.950 . S
H1573 C1597 0.950 . S
H1574 C1598 0.950 . S
H1575 C1599 0.951 . S
H1576 C1601 0.951 . S
H1577 C1603 0.950 . S
H1578 C1604 0.950 . S
H1579 C1606 0.950 . S
H1580 C1609 0.950 . S
H1581 C1610 0.950 . S
H1582 C1612 0.950 . S
H1583 C1613 0.950 . S
C1584 H1566 0.951 . S
C1584 C1585 1.366 . S
C1584 C1586 1.388 . S
C1585 C1584 1.366 . S
C1585 C1589 1.385 . S
C1586 H1567 0.951 . S
C1586 C1584 1.388 . S
C1586 C1587 1.366 . S
C1587 C1586 1.366 . S
C1587 C1588 1.414 . S
C1587 C1590 1.499 . S
C1588 H1568 0.950 . S
C1588 C1587 1.414 . S
C1588 C1589 1.374 . S
C1589 H1569 0.950 . S
C1589 C1585 1.385 . S
C1589 C1588 1.374 . S
C1590 C1587 1.499 . S
C1590 C1591 1.373 . S
C1590 C1592 1.389 . S
C1591 H1570 0.950 . S
C1591 C1590 1.373 . S
C1591 C1607 1.377 1_545 S
C1592 C1590 1.389 . S
C1592 C1593 1.524 . S
C1592 C1606 1.377 1_545 S
C1593 C1592 1.524 . S
C1593 C1594 1.397 . S
C1593 C1598 1.363 1_545 S
C1594 H1571 0.950 . S
C1594 C1593 1.397 . S
C1594 C1595 1.334 . S
C1595 H1572 0.950 . S
C1595 C1594 1.334 . S
C1595 C1596 1.287 . S
C1596 C1595 1.287 . S
C1596 C1597 1.524 1_545 S
C1596 H1615 0.913 . S
C1597 H1573 0.950 . S
C1597 C1596 1.524 1_565 S
C1597 C1598 1.415 . S
C1598 H1574 0.950 . S
C1598 C1593 1.363 1_565 S
C1598 C1597 1.415 . S
C1599 H1575 0.951 . S
C1599 C1600 1.366 . S
C1599 C1601 1.388 . S
C1600 C1599 1.366 . S
C1600 C1604 1.385 . S
C1601 H1576 0.951 . S
C1601 C1599 1.388 . S
C1601 C1602 1.366 . S
C1602 C1601 1.366 . S
C1602 C1603 1.414 . S
C1602 C1605 1.499 . S
C1603 H1577 0.950 . S
C1603 C1602 1.414 . S
C1603 C1604 1.374 . S
C1604 H1578 0.950 . S
C1604 C1600 1.385 . S
C1604 C1603 1.374 . S
C1605 C1602 1.499 . S
C1605 C1606 1.373 . S
C1605 C1607 1.389 . S
C1606 H1579 0.950 . S
C1606 C1592 1.377 1_565 S
C1606 C1605 1.373 . S
C1607 C1591 1.377 1_565 S
C1607 C1605 1.389 . S
C1607 C1608 1.524 . S
C1608 C1607 1.524 . S
C1608 C1609 1.397 . S
C1608 C1613 1.363 1_565 S
C1609 H1580 0.950 . S
C1609 C1608 1.397 . S
C1609 C1610 1.334 . S
C1610 H1581 0.950 . S
C1610 C1609 1.334 . S
C1610 C1611 1.287 . S
C1611 C1610 1.287 . S
C1611 C1612 1.524 1_565 S
C1611 H1614 0.999 . S
C1612 H1582 0.950 . S
C1612 C1611 1.524 1_545 S
C1612 C1613 1.415 . S
C1613 H1583 0.950 . S
C1613 C1608 1.363 1_545 S
C1613 C1612 1.415 . S
H1614 C1611 0.999 . S
H1615 C1596 0.913 . S
H1616 C1634 0.951 . S
H1617 C1636 0.951 . S
H1618 C1638 0.950 . S
H1619 C1639 0.950 . S
H1620 C1641 0.950 . S
H1621 C1644 0.950 . S
H1622 C1645 0.950 . S
H1623 C1647 0.950 . S
H1624 C1648 0.950 . S
H1625 C1649 0.951 . S
H1626 C1651 0.951 . S
H1627 C1653 0.950 . S
H1628 C1654 0.950 . S
H1629 C1656 0.950 . S
H1630 C1659 0.950 . S
H1631 C1660 0.950 . S
H1632 C1662 0.950 . S
H1633 C1663 0.950 . S
C1634 H1616 0.951 . S
C1634 C1635 1.366 . S
C1634 C1636 1.388 . S
C1635 C1634 1.366 . S
C1635 C1639 1.385 . S
C1636 H1617 0.951 . S
C1636 C1634 1.388 . S
C1636 C1637 1.366 . S
C1637 C1636 1.366 . S
C1637 C1638 1.414 . S
C1637 C1640 1.499 . S
C1638 H1618 0.950 . S
C1638 C1637 1.414 . S
C1638 C1639 1.374 . S
C1639 H1619 0.950 . S
C1639 C1635 1.385 . S
C1639 C1638 1.374 . S
C1640 C1637 1.499 . S
C1640 C1641 1.373 . S
C1640 C1642 1.389 . S
C1641 H1620 0.950 . S
C1641 C1640 1.373 . S
C1641 C1657 1.377 . S
C1642 C1640 1.389 . S
C1642 C1643 1.524 . S
C1642 C1656 1.377 . S
C1643 C1642 1.524 . S
C1643 C1644 1.397 . S
C1643 C1648 1.363 . S
C1644 H1621 0.950 . S
C1644 C1643 1.397 . S
C1644 C1645 1.334 . S
C1645 H1622 0.950 . S
C1645 C1644 1.334 . S
C1645 C1646 1.287 . S
C1646 C1645 1.287 . S
C1646 C1647 1.524 . S
C1646 H1665 0.913 . S
C1647 H1623 0.950 . S
C1647 C1646 1.524 . S
C1647 C1648 1.415 . S
C1648 H1624 0.950 . S
C1648 C1643 1.363 . S
C1648 C1647 1.415 . S
C1649 H1625 0.951 . S
C1649 C1650 1.366 . S
C1649 C1651 1.388 . S
C1650 C1649 1.366 . S
C1650 C1654 1.385 . S
C1651 H1626 0.951 . S
C1651 C1649 1.388 . S
C1651 C1652 1.366 . S
C1652 C1651 1.366 . S
C1652 C1653 1.414 . S
C1652 C1655 1.499 . S
C1653 H1627 0.950 . S
C1653 C1652 1.414 . S
C1653 C1654 1.374 . S
C1654 H1628 0.950 . S
C1654 C1650 1.385 . S
C1654 C1653 1.374 . S
C1655 C1652 1.499 . S
C1655 C1656 1.373 . S
C1655 C1657 1.389 . S
C1656 H1629 0.950 . S
C1656 C1642 1.377 . S
C1656 C1655 1.373 . S
C1657 C1641 1.377 . S
C1657 C1655 1.389 . S
C1657 C1658 1.524 . S
C1658 C1657 1.524 . S
C1658 C1659 1.397 . S
C1658 C1663 1.363 . S
C1659 H1630 0.950 . S
C1659 C1658 1.397 . S
C1659 C1660 1.334 . S
C1660 H1631 0.950 . S
C1660 C1659 1.334 . S
C1660 C1661 1.287 . S
C1661 C1660 1.287 . S
C1661 C1662 1.524 . S
C1661 H1664 0.999 . S
C1662 H1632 0.950 . S
C1662 C1661 1.524 . S
C1662 C1663 1.415 . S
C1663 H1633 0.950 . S
C1663 C1658 1.363 . S
C1663 C1662 1.415 . S
H1664 C1661 0.999 . S
H1665 C1646 0.913 . S
H1666 C1684 0.951 . S
H1667 C1686 0.951 . S
H1668 C1688 0.950 . S
H1669 C1689 0.950 . S
H1670 C1691 0.950 . S
H1671 C1694 0.950 . S
H1672 C1695 0.950 . S
H1673 C1697 0.950 . S
H1674 C1698 0.950 . S
H1675 C1699 0.951 . S
H1676 C1701 0.951 . S
H1677 C1703 0.950 . S
H1678 C1704 0.950 . S
H1679 C1706 0.950 . S
H1680 C1709 0.950 . S
H1681 C1710 0.950 . S
H1682 C1712 0.950 . S
H1683 C1713 0.950 . S
C1684 H1666 0.951 . S
C1684 C1685 1.366 . S
C1684 C1686 1.388 . S
C1685 C1684 1.366 . S
C1685 C1689 1.385 . S
C1686 H1667 0.951 . S
C1686 C1684 1.388 . S
C1686 C1687 1.366 . S
C1687 C1686 1.366 . S
C1687 C1688 1.414 . S
C1687 C1690 1.499 . S
C1688 H1668 0.950 . S
C1688 C1687 1.414 . S
C1688 C1689 1.374 . S
C1689 H1669 0.950 . S
C1689 C1685 1.385 . S
C1689 C1688 1.374 . S
C1690 C1687 1.499 . S
C1690 C1691 1.373 . S
C1690 C1692 1.389 . S
C1691 H1670 0.950 . S
C1691 C1690 1.373 . S
C1691 C1707 1.377 . S
C1692 C1690 1.389 . S
C1692 C1693 1.524 . S
C1692 C1706 1.377 . S
C1693 C1692 1.524 . S
C1693 C1694 1.397 . S
C1693 C1698 1.363 . S
C1694 H1671 0.950 . S
C1694 C1693 1.397 . S
C1694 C1695 1.334 . S
C1695 H1672 0.950 . S
C1695 C1694 1.334 . S
C1695 C1696 1.287 . S
C1696 C1695 1.287 . S
C1696 C1697 1.524 . S
C1696 H1715 0.913 . S
C1697 H1673 0.950 . S
C1697 C1696 1.524 . S
C1697 C1698 1.415 . S
C1698 H1674 0.950 . S
C1698 C1693 1.363 . S
C1698 C1697 1.415 . S
C1699 H1675 0.951 . S
C1699 C1700 1.366 . S
C1699 C1701 1.388 . S
C1700 C1699 1.366 . S
C1700 C1704 1.385 . S
C1701 H1676 0.951 . S
C1701 C1699 1.388 . S
C1701 C1702 1.366 . S
C1702 C1701 1.366 . S
C1702 C1703 1.414 . S
C1702 C1705 1.499 . S
C1703 H1677 0.950 . S
C1703 C1702 1.414 . S
C1703 C1704 1.374 . S
C1704 H1678 0.950 . S
C1704 C1700 1.385 . S
C1704 C1703 1.374 . S
C1705 C1702 1.499 . S
C1705 C1706 1.373 . S
C1705 C1707 1.389 . S
C1706 H1679 0.950 . S
C1706 C1692 1.377 . S
C1706 C1705 1.373 . S
C1707 C1691 1.377 . S
C1707 C1705 1.389 . S
C1707 C1708 1.524 . S
C1708 C1707 1.524 . S
C1708 C1709 1.397 . S
C1708 C1713 1.363 . S
C1709 H1680 0.950 . S
C1709 C1708 1.397 . S
C1709 C1710 1.334 . S
C1710 H1681 0.950 . S
C1710 C1709 1.334 . S
C1710 C1711 1.287 . S
C1711 C1710 1.287 . S
C1711 C1712 1.524 . S
C1711 H1714 0.999 . S
C1712 H1682 0.950 . S
C1712 C1711 1.524 . S
C1712 C1713 1.415 . S
C1713 H1683 0.950 . S
C1713 C1708 1.363 . S
C1713 C1712 1.415 . S
H1714 C1711 0.999 . S
H1715 C1696 0.913 . S
H1716 C1734 0.951 . S
H1717 C1736 0.951 . S
H1718 C1738 0.950 . S
H1719 C1739 0.950 . S
H1720 C1741 0.950 . S
H1721 C1744 0.950 . S
H1722 C1745 0.950 . S
H1723 C1747 0.950 . S
H1724 C1748 0.950 . S
H1725 C1749 0.951 . S
H1726 C1751 0.951 . S
H1727 C1753 0.950 . S
H1728 C1754 0.950 . S
H1729 C1756 0.950 . S
H1730 C1759 0.950 . S
H1731 C1760 0.950 . S
H1732 C1762 0.950 . S
H1733 C1763 0.950 . S
C1734 H1716 0.951 . S
C1734 C1735 1.366 . S
C1734 C1736 1.388 . S
C1735 C1734 1.366 . S
C1735 C1739 1.385 . S
C1736 H1717 0.951 . S
C1736 C1734 1.388 . S
C1736 C1737 1.366 . S
C1737 C1736 1.366 . S
C1737 C1738 1.414 . S
C1737 C1740 1.499 . S
C1738 H1718 0.950 . S
C1738 C1737 1.414 . S
C1738 C1739 1.374 . S
C1739 H1719 0.950 . S
C1739 C1735 1.385 . S
C1739 C1738 1.374 . S
C1740 C1737 1.499 . S
C1740 C1741 1.373 . S
C1740 C1742 1.389 . S
C1741 H1720 0.950 . S
C1741 C1740 1.373 . S
C1741 C1757 1.377 . S
C1742 C1740 1.389 . S
C1742 C1743 1.524 . S
C1742 C1756 1.377 . S
C1743 C1742 1.524 . S
C1743 C1744 1.397 . S
C1743 C1748 1.363 . S
C1744 H1721 0.950 . S
C1744 C1743 1.397 . S
C1744 C1745 1.334 . S
C1745 H1722 0.950 . S
C1745 C1744 1.334 . S
C1745 C1746 1.287 . S
C1746 C1745 1.287 . S
C1746 C1747 1.524 . S
C1746 H1765 0.913 . S
C1747 H1723 0.950 . S
C1747 C1746 1.524 . S
C1747 C1748 1.415 . S
C1748 H1724 0.950 . S
C1748 C1743 1.363 . S
C1748 C1747 1.415 . S
C1749 H1725 0.951 . S
C1749 C1750 1.366 . S
C1749 C1751 1.388 . S
C1750 C1749 1.366 . S
C1750 C1754 1.385 . S
C1751 H1726 0.951 . S
C1751 C1749 1.388 . S
C1751 C1752 1.366 . S
C1752 C1751 1.366 . S
C1752 C1753 1.414 . S
C1752 C1755 1.499 . S
C1753 H1727 0.950 . S
C1753 C1752 1.414 . S
C1753 C1754 1.374 . S
C1754 H1728 0.950 . S
C1754 C1750 1.385 . S
C1754 C1753 1.374 . S
C1755 C1752 1.499 . S
C1755 C1756 1.373 . S
C1755 C1757 1.389 . S
C1756 H1729 0.950 . S
C1756 C1742 1.377 . S
C1756 C1755 1.373 . S
C1757 C1741 1.377 . S
C1757 C1755 1.389 . S
C1757 C1758 1.524 . S
C1758 C1757 1.524 . S
C1758 C1759 1.397 . S
C1758 C1763 1.363 . S
C1759 H1730 0.950 . S
C1759 C1758 1.397 . S
C1759 C1760 1.334 . S
C1760 H1731 0.950 . S
C1760 C1759 1.334 . S
C1760 C1761 1.287 . S
C1761 C1760 1.287 . S
C1761 C1762 1.524 . S
C1761 H1764 0.999 . S
C1762 H1732 0.950 . S
C1762 C1761 1.524 . S
C1762 C1763 1.415 . S
C1763 H1733 0.950 . S
C1763 C1758 1.363 . S
C1763 C1762 1.415 . S
H1764 C1761 0.999 . S
H1765 C1746 0.913 . S
H1766 C1784 0.951 . S
H1767 C1786 0.951 . S
H1768 C1788 0.950 . S
H1769 C1789 0.950 . S
H1770 C1791 0.950 . S
H1771 C1794 0.950 . S
H1772 C1795 0.950 . S
H1773 C1797 0.950 . S
H1774 C1798 0.950 . S
H1775 C1799 0.951 . S
H1776 C1801 0.951 . S
H1777 C1803 0.950 . S
H1778 C1804 0.950 . S
H1779 C1806 0.950 1_556 S
H1780 C1809 0.950 . S
H1781 C1810 0.950 . S
H1782 C1812 0.950 . S
H1783 C1813 0.950 . S
C1784 H1766 0.951 . S
C1784 C1785 1.366 . S
C1784 C1786 1.388 . S
C1785 C1784 1.366 . S
C1785 C1789 1.385 . S
C1786 H1767 0.951 . S
C1786 C1784 1.388 . S
C1786 C1787 1.366 . S
C1787 C1786 1.366 . S
C1787 C1788 1.414 . S
C1787 C1790 1.499 . S
C1788 H1768 0.950 . S
C1788 C1787 1.414 . S
C1788 C1789 1.374 . S
C1789 H1769 0.950 . S
C1789 C1785 1.385 . S
C1789 C1788 1.374 . S
C1790 C1787 1.499 . S
C1790 C1791 1.373 . S
C1790 C1792 1.389 . S
C1791 H1770 0.950 . S
C1791 C1790 1.373 . S
C1791 C1807 1.377 . S
C1792 C1790 1.389 . S
C1792 C1793 1.524 . S
C1792 C1806 1.377 . S
C1793 C1792 1.524 . S
C1793 C1794 1.397 . S
C1793 C1798 1.363 . S
C1794 H1771 0.950 . S
C1794 C1793 1.397 . S
C1794 C1795 1.334 . S
C1795 H1772 0.950 . S
C1795 C1794 1.334 . S
C1795 C1796 1.287 . S
C1796 C1795 1.287 . S
C1796 C1797 1.524 . S
C1796 H1815 0.913 . S
C1797 H1773 0.950 . S
C1797 C1796 1.524 . S
C1797 C1798 1.415 . S
C1798 H1774 0.950 . S
C1798 C1793 1.363 . S
C1798 C1797 1.415 . S
C1799 H1775 0.951 . S
C1799 C1800 1.366 . S
C1799 C1801 1.388 . S
C1800 C1799 1.366 . S
C1800 C1804 1.385 . S
C1801 H1776 0.951 . S
C1801 C1799 1.388 . S
C1801 C1802 1.366 . S
C1802 C1801 1.366 . S
C1802 C1803 1.414 . S
C1802 C1805 1.499 1_556 S
C1803 H1777 0.950 . S
C1803 C1802 1.414 . S
C1803 C1804 1.374 . S
C1804 H1778 0.950 . S
C1804 C1800 1.385 . S
C1804 C1803 1.374 . S
C1805 C1802 1.499 1_554 S
C1805 C1806 1.373 . S
C1805 C1807 1.389 . S
C1806 H1779 0.950 1_554 S
C1806 C1792 1.377 . S
C1806 C1805 1.373 . S
C1807 C1791 1.377 . S
C1807 C1805 1.389 . S
C1807 C1808 1.524 . S
C1808 C1807 1.524 . S
C1808 C1809 1.397 . S
C1808 C1813 1.363 . S
C1809 H1780 0.950 . S
C1809 C1808 1.397 . S
C1809 C1810 1.334 . S
C1810 H1781 0.950 . S
C1810 C1809 1.334 . S
C1810 C1811 1.287 . S
C1811 C1810 1.287 . S
C1811 C1812 1.524 . S
C1811 H1814 0.999 . S
C1812 H1782 0.950 . S
C1812 C1811 1.524 . S
C1812 C1813 1.415 . S
C1813 H1783 0.950 . S
C1813 C1808 1.363 . S
C1813 C1812 1.415 . S
H1814 C1811 0.999 . S
H1815 C1796 0.913 . S
H1816 C1834 0.951 . S
H1817 C1836 0.951 . S
H1818 C1838 0.950 . S
H1819 C1839 0.950 . S
H1820 C1841 0.950 . S
H1821 C1844 0.950 . S
H1822 C1845 0.950 . S
H1823 C1847 0.950 . S
H1824 C1848 0.950 . S
H1825 C1849 0.951 . S
H1826 C1851 0.951 . S
H1827 C1853 0.950 . S
H1828 C1854 0.950 . S
H1829 C1856 0.950 . S
H1830 C1859 0.950 . S
H1831 C1860 0.950 . S
H1832 C1862 0.950 . S
H1833 C1863 0.950 . S
C1834 H1816 0.951 . S
C1834 C1835 1.366 . S
C1834 C1836 1.388 . S
C1835 C1834 1.366 . S
C1835 C1839 1.385 . S
C1836 H1817 0.951 . S
C1836 C1834 1.388 . S
C1836 C1837 1.366 . S
C1837 C1836 1.366 . S
C1837 C1838 1.414 . S
C1837 C1840 1.499 . S
C1838 H1818 0.950 . S
C1838 C1837 1.414 . S
C1838 C1839 1.374 . S
C1839 H1819 0.950 . S
C1839 C1835 1.385 . S
C1839 C1838 1.374 . S
C1840 C1837 1.499 . S
C1840 C1841 1.373 . S
C1840 C1842 1.389 . S
C1841 H1820 0.950 . S
C1841 C1840 1.373 . S
C1841 C1857 1.377 . S
C1842 C1840 1.389 . S
C1842 C1843 1.524 . S
C1842 C1856 1.377 . S
C1843 C1842 1.524 . S
C1843 C1844 1.397 . S
C1843 C1848 1.363 . S
C1844 H1821 0.950 . S
C1844 C1843 1.397 . S
C1844 C1845 1.334 . S
C1845 H1822 0.950 . S
C1845 C1844 1.334 . S
C1845 C1846 1.287 . S
C1846 C1845 1.287 . S
C1846 C1847 1.524 . S
C1846 H1865 0.913 . S
C1847 H1823 0.950 . S
C1847 C1846 1.524 . S
C1847 C1848 1.415 . S
C1848 H1824 0.950 . S
C1848 C1843 1.363 . S
C1848 C1847 1.415 . S
C1849 H1825 0.951 . S
C1849 C1850 1.366 . S
C1849 C1851 1.388 . S
C1850 C1849 1.366 . S
C1850 C1854 1.385 . S
C1851 H1826 0.951 . S
C1851 C1849 1.388 . S
C1851 C1852 1.366 . S
C1852 C1851 1.366 . S
C1852 C1853 1.414 . S
C1852 C1855 1.499 . S
C1853 H1827 0.950 . S
C1853 C1852 1.414 . S
C1853 C1854 1.374 . S
C1854 H1828 0.950 . S
C1854 C1850 1.385 . S
C1854 C1853 1.374 . S
C1855 C1852 1.499 . S
C1855 C1856 1.373 . S
C1855 C1857 1.389 . S
C1856 H1829 0.950 . S
C1856 C1842 1.377 . S
C1856 C1855 1.373 . S
C1857 C1841 1.377 . S
C1857 C1855 1.389 . S
C1857 C1858 1.524 . S
C1858 C1857 1.524 . S
C1858 C1859 1.397 . S
C1858 C1863 1.363 . S
C1859 H1830 0.950 . S
C1859 C1858 1.397 . S
C1859 C1860 1.334 . S
C1860 H1831 0.950 . S
C1860 C1859 1.334 . S
C1860 C1861 1.287 . S
C1861 C1860 1.287 . S
C1861 C1862 1.524 . S
C1861 H1864 0.999 . S
C1862 H1832 0.950 . S
C1862 C1861 1.524 . S
C1862 C1863 1.415 . S
C1863 H1833 0.950 . S
C1863 C1858 1.363 . S
C1863 C1862 1.415 . S
H1864 C1861 0.999 . S
H1865 C1846 0.913 . S
H1866 C1884 0.951 . S
H1867 C1886 0.951 . S
H1868 C1888 0.950 . S
H1869 C1889 0.950 . S
H1870 C1891 0.950 . S
H1871 C1894 0.950 . S
H1872 C1895 0.950 . S
H1873 C1897 0.950 . S
H1874 C1898 0.950 . S
H1875 C1899 0.951 . S
H1876 C1901 0.951 . S
H1877 C1903 0.950 . S
H1878 C1904 0.950 . S
H1879 C1906 0.950 . S
H1880 C1909 0.950 . S
H1881 C1910 0.950 . S
H1882 C1912 0.950 . S
H1883 C1913 0.950 . S
C1884 H1866 0.951 . S
C1884 C1885 1.366 . S
C1884 C1886 1.388 . S
C1885 C1884 1.366 . S
C1885 C1889 1.385 . S
C1886 H1867 0.951 . S
C1886 C1884 1.388 . S
C1886 C1887 1.366 . S
C1887 C1886 1.366 . S
C1887 C1888 1.414 . S
C1887 C1890 1.499 . S
C1888 H1868 0.950 . S
C1888 C1887 1.414 . S
C1888 C1889 1.374 . S
C1889 H1869 0.950 . S
C1889 C1885 1.385 . S
C1889 C1888 1.374 . S
C1890 C1887 1.499 . S
C1890 C1891 1.373 . S
C1890 C1892 1.389 . S
C1891 H1870 0.950 . S
C1891 C1890 1.373 . S
C1891 C1907 1.377 . S
C1892 C1890 1.389 . S
C1892 C1893 1.524 . S
C1892 C1906 1.377 . S
C1893 C1892 1.524 . S
C1893 C1894 1.397 . S
C1893 C1898 1.363 . S
C1894 H1871 0.950 . S
C1894 C1893 1.397 . S
C1894 C1895 1.334 . S
C1895 H1872 0.950 . S
C1895 C1894 1.334 . S
C1895 C1896 1.287 . S
C1896 C1895 1.287 . S
C1896 C1897 1.524 . S
C1896 H1915 0.913 . S
C1897 H1873 0.950 . S
C1897 C1896 1.524 . S
C1897 C1898 1.415 . S
C1898 H1874 0.950 . S
C1898 C1893 1.363 . S
C1898 C1897 1.415 . S
C1899 H1875 0.951 . S
C1899 C1900 1.366 . S
C1899 C1901 1.388 . S
C1900 C1899 1.366 . S
C1900 C1904 1.385 . S
C1901 H1876 0.951 . S
C1901 C1899 1.388 . S
C1901 C1902 1.366 . S
C1902 C1901 1.366 . S
C1902 C1903 1.414 . S
C1902 C1905 1.499 . S
C1903 H1877 0.950 . S
C1903 C1902 1.414 . S
C1903 C1904 1.374 . S
C1904 H1878 0.950 . S
C1904 C1900 1.385 . S
C1904 C1903 1.374 . S
C1905 C1902 1.499 . S
C1905 C1906 1.373 . S
C1905 C1907 1.389 . S
C1906 H1879 0.950 . S
C1906 C1892 1.377 . S
C1906 C1905 1.373 . S
C1907 C1891 1.377 . S
C1907 C1905 1.389 . S
C1907 C1908 1.524 . S
C1908 C1907 1.524 . S
C1908 C1909 1.397 . S
C1908 C1913 1.363 . S
C1909 H1880 0.950 . S
C1909 C1908 1.397 . S
C1909 C1910 1.334 . S
C1910 H1881 0.950 . S
C1910 C1909 1.334 . S
C1910 C1911 1.287 . S
C1911 C1910 1.287 . S
C1911 C1912 1.524 . S
C1911 H1914 0.999 . S
C1912 H1882 0.950 . S
C1912 C1911 1.524 . S
C1912 C1913 1.415 . S
C1913 H1883 0.950 . S
C1913 C1908 1.363 . S
C1913 C1912 1.415 . S
H1914 C1911 0.999 . S
H1915 C1896 0.913 . S
H1916 C1934 0.951 . S
H1917 C1936 0.951 . S
H1918 C1938 0.950 . S
H1919 C1939 0.950 . S
H1920 C1941 0.950 . S
H1921 C1944 0.950 . S
H1922 C1945 0.950 . S
H1923 C1947 0.950 . S
H1924 C1948 0.950 . S
H1925 C1949 0.951 . S
H1926 C1951 0.951 . S
H1927 C1953 0.950 . S
H1928 C1954 0.950 . S
H1929 C1956 0.950 . S
H1930 C1959 0.950 . S
H1931 C1960 0.950 . S
H1932 C1962 0.950 . S
H1933 C1963 0.950 . S
C1934 H1916 0.951 . S
C1934 C1935 1.366 . S
C1934 C1936 1.388 . S
C1935 C1934 1.366 . S
C1935 C1939 1.385 . S
C1936 H1917 0.951 . S
C1936 C1934 1.388 . S
C1936 C1937 1.366 . S
C1937 C1936 1.366 . S
C1937 C1938 1.414 . S
C1937 C1940 1.499 . S
C1938 H1918 0.950 . S
C1938 C1937 1.414 . S
C1938 C1939 1.374 . S
C1939 H1919 0.950 . S
C1939 C1935 1.385 . S
C1939 C1938 1.374 . S
C1940 C1937 1.499 . S
C1940 C1941 1.373 . S
C1940 C1942 1.389 . S
C1941 H1920 0.950 . S
C1941 C1940 1.373 . S
C1941 C1957 1.377 . S
C1942 C1940 1.389 . S
C1942 C1943 1.524 . S
C1942 C1956 1.377 . S
C1943 C1942 1.524 . S
C1943 C1944 1.397 . S
C1943 C1948 1.363 . S
C1944 H1921 0.950 . S
C1944 C1943 1.397 . S
C1944 C1945 1.334 . S
C1945 H1922 0.950 . S
C1945 C1944 1.334 . S
C1945 C1946 1.287 . S
C1946 C1945 1.287 . S
C1946 C1947 1.524 . S
C1946 H1965 0.913 . S
C1947 H1923 0.950 . S
C1947 C1946 1.524 . S
C1947 C1948 1.415 . S
C1948 H1924 0.950 . S
C1948 C1943 1.363 . S
C1948 C1947 1.415 . S
C1949 H1925 0.951 . S
C1949 C1950 1.366 . S
C1949 C1951 1.388 . S
C1950 C1949 1.366 . S
C1950 C1954 1.385 . S
C1951 H1926 0.951 . S
C1951 C1949 1.388 . S
C1951 C1952 1.366 . S
C1952 C1951 1.366 . S
C1952 C1953 1.414 . S
C1952 C1955 1.499 . S
C1953 H1927 0.950 . S
C1953 C1952 1.414 . S
C1953 C1954 1.374 . S
C1954 H1928 0.950 . S
C1954 C1950 1.385 . S
C1954 C1953 1.374 . S
C1955 C1952 1.499 . S
C1955 C1956 1.373 . S
C1955 C1957 1.389 . S
C1956 H1929 0.950 . S
C1956 C1942 1.377 . S
C1956 C1955 1.373 . S
C1957 C1941 1.377 . S
C1957 C1955 1.389 . S
C1957 C1958 1.524 . S
C1958 C1957 1.524 . S
C1958 C1959 1.397 . S
C1958 C1963 1.363 . S
C1959 H1930 0.950 . S
C1959 C1958 1.397 . S
C1959 C1960 1.334 . S
C1960 H1931 0.950 . S
C1960 C1959 1.334 . S
C1960 C1961 1.287 . S
C1961 C1960 1.287 . S
C1961 C1962 1.524 . S
C1961 H1964 0.999 . S
C1962 H1932 0.950 . S
C1962 C1961 1.524 . S
C1962 C1963 1.415 . S
C1963 H1933 0.950 . S
C1963 C1958 1.363 . S
C1963 C1962 1.415 . S
H1964 C1961 0.999 . S
H1965 C1946 0.913 . S
H1966 C1984 0.951 . S
H1967 C1986 0.951 . S
H1968 C1988 0.950 . S
H1969 C1989 0.950 . S
H1970 C1991 0.950 . S
H1971 C1994 0.950 . S
H1972 C1995 0.950 . S
H1973 C1997 0.950 . S
H1974 C1998 0.950 1_556 S
H1975 C1999 0.951 . S
H1976 C2001 0.951 . S
H1977 C2003 0.950 . S
H1978 C2004 0.950 . S
H1979 C2006 0.950 1_556 S
H1980 C2009 0.950 . S
H1981 C2010 0.950 . S
H1982 C2012 0.950 . S
H1983 C2013 0.950 . S
C1984 H1966 0.951 . S
C1984 C1985 1.366 . S
C1984 C1986 1.388 . S
C1985 C1984 1.366 . S
C1985 C1989 1.385 . S
C1986 H1967 0.951 . S
C1986 C1984 1.388 . S
C1986 C1987 1.366 . S
C1987 C1986 1.366 . S
C1987 C1988 1.414 . S
C1987 C1990 1.499 . S
C1988 H1968 0.950 . S
C1988 C1987 1.414 . S
C1988 C1989 1.374 . S
C1989 H1969 0.950 . S
C1989 C1985 1.385 . S
C1989 C1988 1.374 . S
C1990 C1987 1.499 . S
C1990 C1991 1.373 . S
C1990 C1992 1.389 . S
C1991 H1970 0.950 . S
C1991 C1990 1.373 . S
C1991 C2007 1.377 . S
C1992 C1990 1.389 . S
C1992 C1993 1.524 . S
C1992 C2006 1.377 . S
C1993 C1992 1.524 . S
C1993 C1994 1.397 . S
C1993 C1998 1.363 . S
C1994 H1971 0.950 . S
C1994 C1993 1.397 . S
C1994 C1995 1.334 . S
C1995 H1972 0.950 . S
C1995 C1994 1.334 . S
C1995 C1996 1.287 . S
C1996 C1995 1.287 . S
C1996 C1997 1.524 1_554 S
C1996 H2015 0.913 . S
C1997 H1973 0.950 . S
C1997 C1996 1.524 1_556 S
C1997 C1998 1.415 1_556 S
C1998 H1974 0.950 1_554 S
C1998 C1993 1.363 . S
C1998 C1997 1.415 1_554 S
C1999 H1975 0.951 . S
C1999 C2000 1.366 . S
C1999 C2001 1.388 . S
C2000 C1999 1.366 . S
C2000 C2004 1.385 . S
C2001 H1976 0.951 . S
C2001 C1999 1.388 . S
C2001 C2002 1.366 . S
C2002 C2001 1.366 . S
C2002 C2003 1.414 . S
C2002 C2005 1.499 1_556 S
C2003 H1977 0.950 . S
C2003 C2002 1.414 . S
C2003 C2004 1.374 . S
C2004 H1978 0.950 . S
C2004 C2000 1.385 . S
C2004 C2003 1.374 . S
C2005 C2002 1.499 1_554 S
C2005 C2006 1.373 . S
C2005 C2007 1.389 . S
C2006 H1979 0.950 1_554 S
C2006 C1992 1.377 . S
C2006 C2005 1.373 . S
C2007 C1991 1.377 . S
C2007 C2005 1.389 . S
C2007 C2008 1.524 . S
C2008 C2007 1.524 . S
C2008 C2009 1.397 . S
C2008 C2013 1.363 . S
C2009 H1980 0.950 . S
C2009 C2008 1.397 . S
C2009 C2010 1.334 . S
C2010 H1981 0.950 . S
C2010 C2009 1.334 . S
C2010 C2011 1.287 . S
C2011 C2010 1.287 . S
C2011 C2012 1.524 . S
C2011 H2014 0.999 . S
C2012 H1982 0.950 . S
C2012 C2011 1.524 . S
C2012 C2013 1.415 . S
C2013 H1983 0.950 . S
C2013 C2008 1.363 . S
C2013 C2012 1.415 . S
H2014 C2011 0.999 . S
H2015 C1996 0.913 . S
H2016 C2034 0.951 . S
H2017 C2036 0.951 . S
H2018 C2038 0.950 . S
H2019 C2039 0.950 . S
H2020 C2041 0.950 . S
H2021 C2044 0.950 . S
H2022 C2045 0.950 . S
H2023 C2047 0.950 . S
H2024 C2048 0.950 . S
H2025 C2049 0.951 . S
H2026 C2051 0.951 . S
H2027 C2053 0.950 . S
H2028 C2054 0.950 . S
H2029 C2056 0.950 . S
H2030 C2059 0.950 . S
H2031 C2060 0.950 . S
H2032 C2062 0.950 . S
H2033 C2063 0.950 . S
C2034 H2016 0.951 . S
C2034 C2035 1.366 . S
C2034 C2036 1.388 . S
C2035 C2034 1.366 . S
C2035 C2039 1.385 . S
C2036 H2017 0.951 . S
C2036 C2034 1.388 . S
C2036 C2037 1.366 . S
C2037 C2036 1.366 . S
C2037 C2038 1.414 . S
C2037 C2040 1.499 . S
C2038 H2018 0.950 . S
C2038 C2037 1.414 . S
C2038 C2039 1.374 . S
C2039 H2019 0.950 . S
C2039 C2035 1.385 . S
C2039 C2038 1.374 . S
C2040 C2037 1.499 . S
C2040 C2041 1.373 1_554 S
C2040 C2042 1.389 . S
C2041 H2020 0.950 . S
C2041 C2040 1.373 1_556 S
C2041 C2057 1.377 . S
C2042 C2040 1.389 . S
C2042 C2043 1.524 . S
C2042 C2056 1.377 . S
C2043 C2042 1.524 . S
C2043 C2044 1.397 . S
C2043 C2048 1.363 . S
C2044 H2021 0.950 . S
C2044 C2043 1.397 . S
C2044 C2045 1.334 . S
C2045 H2022 0.950 . S
C2045 C2044 1.334 . S
C2045 C2046 1.287 . S
C2046 C2045 1.287 . S
C2046 C2047 1.524 . S
C2046 H2065 0.913 . S
C2047 H2023 0.950 . S
C2047 C2046 1.524 . S
C2047 C2048 1.415 . S
C2048 H2024 0.950 . S
C2048 C2043 1.363 . S
C2048 C2047 1.415 . S
C2049 H2025 0.951 . S
C2049 C2050 1.366 . S
C2049 C2051 1.388 . S
C2050 C2049 1.366 . S
C2050 C2054 1.385 . S
C2051 H2026 0.951 . S
C2051 C2049 1.388 . S
C2051 C2052 1.366 . S
C2052 C2051 1.366 . S
C2052 C2053 1.414 . S
C2052 C2055 1.499 . S
C2053 H2027 0.950 . S
C2053 C2052 1.414 . S
C2053 C2054 1.374 . S
C2054 H2028 0.950 . S
C2054 C2050 1.385 . S
C2054 C2053 1.374 . S
C2055 C2052 1.499 . S
C2055 C2056 1.373 . S
C2055 C2057 1.389 1_554 S
C2056 H2029 0.950 . S
C2056 C2042 1.377 . S
C2056 C2055 1.373 . S
C2057 C2041 1.377 . S
C2057 C2055 1.389 1_556 S
C2057 C2058 1.524 . S
C2058 C2057 1.524 . S
C2058 C2059 1.397 . S
C2058 C2063 1.363 . S
C2059 H2030 0.950 . S
C2059 C2058 1.397 . S
C2059 C2060 1.334 . S
C2060 H2031 0.950 . S
C2060 C2059 1.334 . S
C2060 C2061 1.287 . S
C2061 C2060 1.287 . S
C2061 C2062 1.524 . S
C2061 H2064 0.999 . S
C2062 H2032 0.950 . S
C2062 C2061 1.524 . S
C2062 C2063 1.415 . S
C2063 H2033 0.950 . S
C2063 C2058 1.363 . S
C2063 C2062 1.415 . S
H2064 C2061 0.999 . S
H2065 C2046 0.913 . S
H2066 C2084 0.951 . S
H2067 C2086 0.951 . S
H2068 C2088 0.950 . S
H2069 C2089 0.950 . S
H2070 C2091 0.950 . S
H2071 C2094 0.950 . S
H2072 C2095 0.950 . S
H2073 C2097 0.950 . S
H2074 C2098 0.950 . S
H2075 C2099 0.951 . S
H2076 C2101 0.951 . S
H2077 C2103 0.950 . S
H2078 C2104 0.950 . S
H2079 C2106 0.950 . S
H2080 C2109 0.950 . S
H2081 C2110 0.950 . S
H2082 C2112 0.950 . S
H2083 C2113 0.950 . S
C2084 H2066 0.951 . S
C2084 C2085 1.366 . S
C2084 C2086 1.388 . S
C2085 C2084 1.366 . S
C2085 C2089 1.385 . S
C2086 H2067 0.951 . S
C2086 C2084 1.388 . S
C2086 C2087 1.366 . S
C2087 C2086 1.366 . S
C2087 C2088 1.414 . S
C2087 C2090 1.499 . S
C2088 H2068 0.950 . S
C2088 C2087 1.414 . S
C2088 C2089 1.374 . S
C2089 H2069 0.950 . S
C2089 C2085 1.385 . S
C2089 C2088 1.374 . S
C2090 C2087 1.499 . S
C2090 C2091 1.373 . S
C2090 C2092 1.389 . S
C2091 H2070 0.950 . S
C2091 C2090 1.373 . S
C2091 C2107 1.377 1_455 S
C2092 C2090 1.389 . S
C2092 C2093 1.524 . S
C2092 C2106 1.377 1_455 S
C2093 C2092 1.524 . S
C2093 C2094 1.397 . S
C2093 C2098 1.363 . S
C2094 H2071 0.950 . S
C2094 C2093 1.397 . S
C2094 C2095 1.334 . S
C2095 H2072 0.950 . S
C2095 C2094 1.334 . S
C2095 C2096 1.287 . S
C2096 C2095 1.287 . S
C2096 C2097 1.524 . S
C2096 H2115 0.913 . S
C2097 H2073 0.950 . S
C2097 C2096 1.524 . S
C2097 C2098 1.415 . S
C2098 H2074 0.950 . S
C2098 C2093 1.363 . S
C2098 C2097 1.415 . S
C2099 H2075 0.951 . S
C2099 C2100 1.366 . S
C2099 C2101 1.388 . S
C2100 C2099 1.366 . S
C2100 C2104 1.385 . S
C2101 H2076 0.951 . S
C2101 C2099 1.388 . S
C2101 C2102 1.366 . S
C2102 C2101 1.366 . S
C2102 C2103 1.414 . S
C2102 C2105 1.499 . S
C2103 H2077 0.950 . S
C2103 C2102 1.414 . S
C2103 C2104 1.374 . S
C2104 H2078 0.950 . S
C2104 C2100 1.385 . S
C2104 C2103 1.374 . S
C2105 C2102 1.499 . S
C2105 C2106 1.373 . S
C2105 C2107 1.389 . S
C2106 H2079 0.950 . S
C2106 C2092 1.377 1_655 S
C2106 C2105 1.373 . S
C2107 C2091 1.377 1_655 S
C2107 C2105 1.389 . S
C2107 C2108 1.524 . S
C2108 C2107 1.524 . S
C2108 C2109 1.397 . S
C2108 C2113 1.363 . S
C2109 H2080 0.950 . S
C2109 C2108 1.397 . S
C2109 C2110 1.334 . S
C2110 H2081 0.950 . S
C2110 C2109 1.334 . S
C2110 C2111 1.287 . S
C2111 C2110 1.287 . S
C2111 C2112 1.524 . S
C2111 H2114 0.999 . S
C2112 H2082 0.950 . S
C2112 C2111 1.524 . S
C2112 C2113 1.415 . S
C2113 H2083 0.950 . S
C2113 C2108 1.363 . S
C2113 C2112 1.415 . S
H2114 C2111 0.999 . S
H2115 C2096 0.913 . S
H2116 C2134 0.951 . S
H2117 C2136 0.951 . S
H2118 C2138 0.950 . S
H2119 C2139 0.950 . S
H2120 C2141 0.950 . S
H2121 C2144 0.950 . S
H2122 C2145 0.950 . S
H2123 C2147 0.950 . S
H2124 C2148 0.950 . S
H2125 C2149 0.951 . S
H2126 C2151 0.951 . S
H2127 C2153 0.950 . S
H2128 C2154 0.950 . S
H2129 C2156 0.950 . S
H2130 C2159 0.950 . S
H2131 C2160 0.950 . S
H2132 C2162 0.950 . S
H2133 C2163 0.950 . S
C2134 H2116 0.951 . S
C2134 C2135 1.366 . S
C2134 C2136 1.388 . S
C2135 C2134 1.366 . S
C2135 C2139 1.385 . S
C2136 H2117 0.951 . S
C2136 C2134 1.388 . S
C2136 C2137 1.366 . S
C2137 C2136 1.366 . S
C2137 C2138 1.414 . S
C2137 C2140 1.499 . S
C2138 H2118 0.950 . S
C2138 C2137 1.414 . S
C2138 C2139 1.374 . S
C2139 H2119 0.950 . S
C2139 C2135 1.385 . S
C2139 C2138 1.374 . S
C2140 C2137 1.499 . S
C2140 C2141 1.373 . S
C2140 C2142 1.389 . S
C2141 H2120 0.950 . S
C2141 C2140 1.373 . S
C2141 C2157 1.377 . S
C2142 C2140 1.389 . S
C2142 C2143 1.524 . S
C2142 C2156 1.377 . S
C2143 C2142 1.524 . S
C2143 C2144 1.397 . S
C2143 C2148 1.363 . S
C2144 H2121 0.950 . S
C2144 C2143 1.397 . S
C2144 C2145 1.334 . S
C2145 H2122 0.950 . S
C2145 C2144 1.334 . S
C2145 C2146 1.287 . S
C2146 C2145 1.287 . S
C2146 C2147 1.524 . S
C2146 H2165 0.913 . S
C2147 H2123 0.950 . S
C2147 C2146 1.524 . S
C2147 C2148 1.415 . S
C2148 H2124 0.950 . S
C2148 C2143 1.363 . S
C2148 C2147 1.415 . S
C2149 H2125 0.951 . S
C2149 C2150 1.366 . S
C2149 C2151 1.388 . S
C2150 C2149 1.366 . S
C2150 C2154 1.385 . S
C2151 H2126 0.951 . S
C2151 C2149 1.388 . S
C2151 C2152 1.366 . S
C2152 C2151 1.366 . S
C2152 C2153 1.414 . S
C2152 C2155 1.499 . S
C2153 H2127 0.950 . S
C2153 C2152 1.414 . S
C2153 C2154 1.374 . S
C2154 H2128 0.950 . S
C2154 C2150 1.385 . S
C2154 C2153 1.374 . S
C2155 C2152 1.499 . S
C2155 C2156 1.373 . S
C2155 C2157 1.389 . S
C2156 H2129 0.950 . S
C2156 C2142 1.377 . S
C2156 C2155 1.373 . S
C2157 C2141 1.377 . S
C2157 C2155 1.389 . S
C2157 C2158 1.524 . S
C2158 C2157 1.524 . S
C2158 C2159 1.397 . S
C2158 C2163 1.363 . S
C2159 H2130 0.950 . S
C2159 C2158 1.397 . S
C2159 C2160 1.334 . S
C2160 H2131 0.950 . S
C2160 C2159 1.334 . S
C2160 C2161 1.287 . S
C2161 C2160 1.287 . S
C2161 C2162 1.524 . S
C2161 H2164 0.999 . S
C2162 H2132 0.950 . S
C2162 C2161 1.524 . S
C2162 C2163 1.415 . S
C2163 H2133 0.950 . S
C2163 C2158 1.363 . S
C2163 C2162 1.415 . S
H2164 C2161 0.999 . S
H2165 C2146 0.913 . S
H2166 C2184 0.951 . S
H2167 C2186 0.951 . S
H2168 C2188 0.950 . S
H2169 C2189 0.950 . S
H2170 C2191 0.950 . S
H2171 C2194 0.950 . S
H2172 C2195 0.950 . S
H2173 C2197 0.950 . S
H2174 C2198 0.950 . S
H2175 C2199 0.951 . S
H2176 C2201 0.951 . S
H2177 C2203 0.950 . S
H2178 C2204 0.950 . S
H2179 C2206 0.950 . S
H2180 C2209 0.950 . S
H2181 C2210 0.950 . S
H2182 C2212 0.950 . S
H2183 C2213 0.950 . S
C2184 H2166 0.951 . S
C2184 C2185 1.366 . S
C2184 C2186 1.388 . S
C2185 C2184 1.366 . S
C2185 C2189 1.385 . S
C2186 H2167 0.951 . S
C2186 C2184 1.388 . S
C2186 C2187 1.366 . S
C2187 C2186 1.366 . S
C2187 C2188 1.414 . S
C2187 C2190 1.499 . S
C2188 H2168 0.950 . S
C2188 C2187 1.414 . S
C2188 C2189 1.374 . S
C2189 H2169 0.950 . S
C2189 C2185 1.385 . S
C2189 C2188 1.374 . S
C2190 C2187 1.499 . S
C2190 C2191 1.373 . S
C2190 C2192 1.389 . S
C2191 H2170 0.950 . S
C2191 C2190 1.373 . S
C2191 C2207 1.377 . S
C2192 C2190 1.389 . S
C2192 C2193 1.524 . S
C2192 C2206 1.377 . S
C2193 C2192 1.524 . S
C2193 C2194 1.397 . S
C2193 C2198 1.363 . S
C2194 H2171 0.950 . S
C2194 C2193 1.397 . S
C2194 C2195 1.334 . S
C2195 H2172 0.950 . S
C2195 C2194 1.334 . S
C2195 C2196 1.287 . S
C2196 C2195 1.287 . S
C2196 C2197 1.524 . S
C2196 H2215 0.913 . S
C2197 H2173 0.950 . S
C2197 C2196 1.524 . S
C2197 C2198 1.415 . S
C2198 H2174 0.950 . S
C2198 C2193 1.363 . S
C2198 C2197 1.415 . S
C2199 H2175 0.951 . S
C2199 C2200 1.366 . S
C2199 C2201 1.388 . S
C2200 C2199 1.366 . S
C2200 C2204 1.385 . S
C2201 H2176 0.951 . S
C2201 C2199 1.388 . S
C2201 C2202 1.366 . S
C2202 C2201 1.366 . S
C2202 C2203 1.414 . S
C2202 C2205 1.499 . S
C2203 H2177 0.950 . S
C2203 C2202 1.414 . S
C2203 C2204 1.374 . S
C2204 H2178 0.950 . S
C2204 C2200 1.385 . S
C2204 C2203 1.374 . S
C2205 C2202 1.499 . S
C2205 C2206 1.373 . S
C2205 C2207 1.389 . S
C2206 H2179 0.950 . S
C2206 C2192 1.377 . S
C2206 C2205 1.373 . S
C2207 C2191 1.377 . S
C2207 C2205 1.389 . S
C2207 C2208 1.524 . S
C2208 C2207 1.524 . S
C2208 C2209 1.397 . S
C2208 C2213 1.363 . S
C2209 H2180 0.950 . S
C2209 C2208 1.397 . S
C2209 C2210 1.334 . S
C2210 H2181 0.950 . S
C2210 C2209 1.334 . S
C2210 C2211 1.287 . S
C2211 C2210 1.287 . S
C2211 C2212 1.524 . S
C2211 H2214 0.999 . S
C2212 H2182 0.950 . S
C2212 C2211 1.524 . S
C2212 C2213 1.415 . S
C2213 H2183 0.950 . S
C2213 C2208 1.363 . S
C2213 C2212 1.415 . S
H2214 C2211 0.999 . S
H2215 C2196 0.913 . S
H2216 C2234 0.951 . S
H2217 C2236 0.951 . S
H2218 C2238 0.950 . S
H2219 C2239 0.950 . S
H2220 C2241 0.950 . S
H2221 C2244 0.950 . S
H2222 C2245 0.950 . S
H2223 C2247 0.950 . S
H2224 C2248 0.950 . S
H2225 C2249 0.951 . S
H2226 C2251 0.951 . S
H2227 C2253 0.950 . S
H2228 C2254 0.950 . S
H2229 C2256 0.950 1_556 S
H2230 C2259 0.950 . S
H2231 C2260 0.950 . S
H2232 C2262 0.950 . S
H2233 C2263 0.950 . S
C2234 H2216 0.951 . S
C2234 C2235 1.366 . S
C2234 C2236 1.388 . S
C2235 C2234 1.366 . S
C2235 C2239 1.385 . S
C2236 H2217 0.951 . S
C2236 C2234 1.388 . S
C2236 C2237 1.366 . S
C2237 C2236 1.366 . S
C2237 C2238 1.414 . S
C2237 C2240 1.499 . S
C2238 H2218 0.950 . S
C2238 C2237 1.414 . S
C2238 C2239 1.374 . S
C2239 H2219 0.950 . S
C2239 C2235 1.385 . S
C2239 C2238 1.374 . S
C2240 C2237 1.499 . S
C2240 C2241 1.373 . S
C2240 C2242 1.389 . S
C2241 H2220 0.950 . S
C2241 C2240 1.373 . S
C2241 C2257 1.377 . S
C2242 C2240 1.389 . S
C2242 C2243 1.524 1_554 S
C2242 C2256 1.377 . S
C2243 C2242 1.524 1_556 S
C2243 C2244 1.397 . S
C2243 C2248 1.363 . S
C2244 H2221 0.950 . S
C2244 C2243 1.397 . S
C2244 C2245 1.334 . S
C2245 H2222 0.950 . S
C2245 C2244 1.334 . S
C2245 C2246 1.287 . S
C2246 C2245 1.287 . S
C2246 C2247 1.524 . S
C2246 H2265 0.913 . S
C2247 H2223 0.950 . S
C2247 C2246 1.524 . S
C2247 C2248 1.415 . S
C2248 H2224 0.950 . S
C2248 C2243 1.363 . S
C2248 C2247 1.415 . S
C2249 H2225 0.951 . S
C2249 C2250 1.366 . S
C2249 C2251 1.388 . S
C2250 C2249 1.366 . S
C2250 C2254 1.385 . S
C2251 H2226 0.951 . S
C2251 C2249 1.388 . S
C2251 C2252 1.366 . S
C2252 C2251 1.366 . S
C2252 C2253 1.414 . S
C2252 C2255 1.499 . S
C2253 H2227 0.950 . S
C2253 C2252 1.414 . S
C2253 C2254 1.374 . S
C2254 H2228 0.950 . S
C2254 C2250 1.385 . S
C2254 C2253 1.374 . S
C2255 C2252 1.499 . S
C2255 C2256 1.373 . S
C2255 C2257 1.389 . S
C2256 H2229 0.950 1_554 S
C2256 C2242 1.377 . S
C2256 C2255 1.373 . S
C2257 C2241 1.377 . S
C2257 C2255 1.389 . S
C2257 C2258 1.524 . S
C2258 C2257 1.524 . S
C2258 C2259 1.397 . S
C2258 C2263 1.363 . S
C2259 H2230 0.950 . S
C2259 C2258 1.397 . S
C2259 C2260 1.334 . S
C2260 H2231 0.950 . S
C2260 C2259 1.334 . S
C2260 C2261 1.287 . S
C2261 C2260 1.287 . S
C2261 C2262 1.524 . S
C2261 H2264 0.999 . S
C2262 H2232 0.950 . S
C2262 C2261 1.524 . S
C2262 C2263 1.415 . S
C2263 H2233 0.950 . S
C2263 C2258 1.363 . S
C2263 C2262 1.415 . S
H2264 C2261 0.999 . S
H2265 C2246 0.913 . S
H2266 C2284 0.951 . S
H2267 C2286 0.951 . S
H2268 C2288 0.950 . S
H2269 C2289 0.950 . S
H2270 C2291 0.950 . S
H2271 C2294 0.950 . S
H2272 C2295 0.950 . S
H2273 C2297 0.950 . S
H2274 C2298 0.950 . S
H2275 C2299 0.951 . S
H2276 C2301 0.951 . S
H2277 C2303 0.950 . S
H2278 C2304 0.950 . S
H2279 C2306 0.950 . S
H2280 C2309 0.950 . S
H2281 C2310 0.950 . S
H2282 C2312 0.950 . S
H2283 C2313 0.950 . S
C2284 H2266 0.951 . S
C2284 C2285 1.366 . S
C2284 C2286 1.388 . S
C2285 C2284 1.366 . S
C2285 C2289 1.385 . S
C2286 H2267 0.951 . S
C2286 C2284 1.388 . S
C2286 C2287 1.366 . S
C2287 C2286 1.366 . S
C2287 C2288 1.414 . S
C2287 C2290 1.499 . S
C2288 H2268 0.950 . S
C2288 C2287 1.414 . S
C2288 C2289 1.374 . S
C2289 H2269 0.950 . S
C2289 C2285 1.385 . S
C2289 C2288 1.374 . S
C2290 C2287 1.499 . S
C2290 C2291 1.373 . S
C2290 C2292 1.389 . S
C2291 H2270 0.950 . S
C2291 C2290 1.373 . S
C2291 C2307 1.377 . S
C2292 C2290 1.389 . S
C2292 C2293 1.524 . S
C2292 C2306 1.377 . S
C2293 C2292 1.524 . S
C2293 C2294 1.397 . S
C2293 C2298 1.363 . S
C2294 H2271 0.950 . S
C2294 C2293 1.397 . S
C2294 C2295 1.334 . S
C2295 H2272 0.950 . S
C2295 C2294 1.334 . S
C2295 C2296 1.287 . S
C2296 C2295 1.287 . S
C2296 C2297 1.524 . S
C2296 H2315 0.913 . S
C2297 H2273 0.950 . S
C2297 C2296 1.524 . S
C2297 C2298 1.415 . S
C2298 H2274 0.950 . S
C2298 C2293 1.363 . S
C2298 C2297 1.415 . S
C2299 H2275 0.951 . S
C2299 C2300 1.366 . S
C2299 C2301 1.388 . S
C2300 C2299 1.366 . S
C2300 C2304 1.385 . S
C2301 H2276 0.951 . S
C2301 C2299 1.388 . S
C2301 C2302 1.366 . S
C2302 C2301 1.366 . S
C2302 C2303 1.414 . S
C2302 C2305 1.499 . S
C2303 H2277 0.950 . S
C2303 C2302 1.414 . S
C2303 C2304 1.374 . S
C2304 H2278 0.950 . S
C2304 C2300 1.385 . S
C2304 C2303 1.374 . S
C2305 C2302 1.499 . S
C2305 C2306 1.373 . S
C2305 C2307 1.389 . S
C2306 H2279 0.950 . S
C2306 C2292 1.377 . S
C2306 C2305 1.373 . S
C2307 C2291 1.377 . S
C2307 C2305 1.389 . S
C2307 C2308 1.524 . S
C2308 C2307 1.524 . S
C2308 C2309 1.397 . S
C2308 C2313 1.363 . S
C2309 H2280 0.950 . S
C2309 C2308 1.397 . S
C2309 C2310 1.334 . S
C2310 H2281 0.950 . S
C2310 C2309 1.334 . S
C2310 C2311 1.287 . S
C2311 C2310 1.287 . S
C2311 C2312 1.524 . S
C2311 H2314 0.999 . S
C2312 H2282 0.950 . S
C2312 C2311 1.524 . S
C2312 C2313 1.415 . S
C2313 H2283 0.950 . S
C2313 C2308 1.363 . S
C2313 C2312 1.415 . S
H2314 C2311 0.999 . S
H2315 C2296 0.913 . S
H2316 C2334 0.951 . S
H2317 C2336 0.951 . S
H2318 C2338 0.950 . S
H2319 C2339 0.950 . S
H2320 C2341 0.950 . S
H2321 C2344 0.950 . S
H2322 C2345 0.950 . S
H2323 C2347 0.950 . S
H2324 C2348 0.950 . S
H2325 C2349 0.951 . S
H2326 C2351 0.951 . S
H2327 C2353 0.950 . S
H2328 C2354 0.950 . S
H2329 C2356 0.950 . S
H2330 C2359 0.950 . S
H2331 C2360 0.950 . S
H2332 C2362 0.950 . S
H2333 C2363 0.950 . S
C2334 H2316 0.951 . S
C2334 C2335 1.366 . S
C2334 C2336 1.388 . S
C2335 C2334 1.366 . S
C2335 C2339 1.385 . S
C2336 H2317 0.951 . S
C2336 C2334 1.388 . S
C2336 C2337 1.366 . S
C2337 C2336 1.366 . S
C2337 C2338 1.414 . S
C2337 C2340 1.499 . S
C2338 H2318 0.950 . S
C2338 C2337 1.414 . S
C2338 C2339 1.374 . S
C2339 H2319 0.950 . S
C2339 C2335 1.385 . S
C2339 C2338 1.374 . S
C2340 C2337 1.499 . S
C2340 C2341 1.373 . S
C2340 C2342 1.389 . S
C2341 H2320 0.950 . S
C2341 C2340 1.373 . S
C2341 C2357 1.377 . S
C2342 C2340 1.389 . S
C2342 C2343 1.524 . S
C2342 C2356 1.377 . S
C2343 C2342 1.524 . S
C2343 C2344 1.397 . S
C2343 C2348 1.363 . S
C2344 H2321 0.950 . S
C2344 C2343 1.397 . S
C2344 C2345 1.334 . S
C2345 H2322 0.950 . S
C2345 C2344 1.334 . S
C2345 C2346 1.287 . S
C2346 C2345 1.287 . S
C2346 C2347 1.524 . S
C2346 H2365 0.913 . S
C2347 H2323 0.950 . S
C2347 C2346 1.524 . S
C2347 C2348 1.415 . S
C2348 H2324 0.950 . S
C2348 C2343 1.363 . S
C2348 C2347 1.415 . S
C2349 H2325 0.951 . S
C2349 C2350 1.366 . S
C2349 C2351 1.388 . S
C2350 C2349 1.366 . S
C2350 C2354 1.385 . S
C2351 H2326 0.951 . S
C2351 C2349 1.388 . S
C2351 C2352 1.366 . S
C2352 C2351 1.366 . S
C2352 C2353 1.414 . S
C2352 C2355 1.499 . S
C2353 H2327 0.950 . S
C2353 C2352 1.414 . S
C2353 C2354 1.374 . S
C2354 H2328 0.950 . S
C2354 C2350 1.385 . S
C2354 C2353 1.374 . S
C2355 C2352 1.499 . S
C2355 C2356 1.373 . S
C2355 C2357 1.389 . S
C2356 H2329 0.950 . S
C2356 C2342 1.377 . S
C2356 C2355 1.373 . S
C2357 C2341 1.377 . S
C2357 C2355 1.389 . S
C2357 C2358 1.524 . S
C2358 C2357 1.524 . S
C2358 C2359 1.397 . S
C2358 C2363 1.363 . S
C2359 H2330 0.950 . S
C2359 C2358 1.397 . S
C2359 C2360 1.334 . S
C2360 H2331 0.950 . S
C2360 C2359 1.334 . S
C2360 C2361 1.287 . S
C2361 C2360 1.287 . S
C2361 C2362 1.524 . S
C2361 H2364 0.999 . S
C2362 H2332 0.950 . S
C2362 C2361 1.524 . S
C2362 C2363 1.415 . S
C2363 H2333 0.950 . S
C2363 C2358 1.363 . S
C2363 C2362 1.415 . S
H2364 C2361 0.999 . S
H2365 C2346 0.913 . S
H2366 C2384 0.951 . S
H2367 C2386 0.951 . S
H2368 C2388 0.950 . S
H2369 C2389 0.950 . S
H2370 C2391 0.950 . S
H2371 C2394 0.950 . S
H2372 C2395 0.950 . S
H2373 C2397 0.950 . S
H2374 C2398 0.950 . S
H2375 C2399 0.951 . S
H2376 C2401 0.951 . S
H2377 C2403 0.950 . S
H2378 C2404 0.950 . S
H2379 C2406 0.950 . S
H2380 C2409 0.950 . S
H2381 C2410 0.950 . S
H2382 C2412 0.950 . S
H2383 C2413 0.950 . S
C2384 H2366 0.951 . S
C2384 C2385 1.366 . S
C2384 C2386 1.388 . S
C2385 C2384 1.366 . S
C2385 C2389 1.385 . S
C2386 H2367 0.951 . S
C2386 C2384 1.388 . S
C2386 C2387 1.366 . S
C2387 C2386 1.366 . S
C2387 C2388 1.414 . S
C2387 C2390 1.499 . S
C2388 H2368 0.950 . S
C2388 C2387 1.414 . S
C2388 C2389 1.374 . S
C2389 H2369 0.950 . S
C2389 C2385 1.385 . S
C2389 C2388 1.374 . S
C2390 C2387 1.499 . S
C2390 C2391 1.373 . S
C2390 C2392 1.389 . S
C2391 H2370 0.950 . S
C2391 C2390 1.373 . S
C2391 C2407 1.377 1_655 S
C2392 C2390 1.389 . S
C2392 C2393 1.524 . S
C2392 C2406 1.377 1_655 S
C2393 C2392 1.524 . S
C2393 C2394 1.397 . S
C2393 C2398 1.363 . S
C2394 H2371 0.950 . S
C2394 C2393 1.397 . S
C2394 C2395 1.334 . S
C2395 H2372 0.950 . S
C2395 C2394 1.334 . S
C2395 C2396 1.287 . S
C2396 C2395 1.287 . S
C2396 C2397 1.524 . S
C2396 H2415 0.913 . S
C2397 H2373 0.950 . S
C2397 C2396 1.524 . S
C2397 C2398 1.415 . S
C2398 H2374 0.950 . S
C2398 C2393 1.363 . S
C2398 C2397 1.415 . S
C2399 H2375 0.951 . S
C2399 C2400 1.366 . S
C2399 C2401 1.388 . S
C2400 C2399 1.366 . S
C2400 C2404 1.385 . S
C2401 H2376 0.951 . S
C2401 C2399 1.388 . S
C2401 C2402 1.366 . S
C2402 C2401 1.366 . S
C2402 C2403 1.414 . S
C2402 C2405 1.499 . S
C2403 H2377 0.950 . S
C2403 C2402 1.414 . S
C2403 C2404 1.374 . S
C2404 H2378 0.950 . S
C2404 C2400 1.385 . S
C2404 C2403 1.374 . S
C2405 C2402 1.499 . S
C2405 C2406 1.373 . S
C2405 C2407 1.389 . S
C2406 H2379 0.950 . S
C2406 C2392 1.377 1_455 S
C2406 C2405 1.373 . S
C2407 C2391 1.377 1_455 S
C2407 C2405 1.389 . S
C2407 C2408 1.524 . S
C2408 C2407 1.524 . S
C2408 C2409 1.397 . S
C2408 C2413 1.363 . S
C2409 H2380 0.950 . S
C2409 C2408 1.397 . S
C2409 C2410 1.334 . S
C2410 H2381 0.950 . S
C2410 C2409 1.334 . S
C2410 C2411 1.287 . S
C2411 C2410 1.287 . S
C2411 C2412 1.524 . S
C2411 H2414 0.999 . S
C2412 H2382 0.950 . S
C2412 C2411 1.524 . S
C2412 C2413 1.415 . S
C2413 H2383 0.950 . S
C2413 C2408 1.363 . S
C2413 C2412 1.415 . S
H2414 C2411 0.999 . S
H2415 C2396 0.913 . S
H2416 C2434 0.951 . S
H2417 C2436 0.951 . S
H2418 C2438 0.950 . S
H2419 C2439 0.950 . S
H2420 C2441 0.950 . S
H2421 C2444 0.950 1_556 S
H2422 C2445 0.950 . S
H2423 C2447 0.950 . S
H2424 C2448 0.950 . S
H2425 C2449 0.951 . S
H2426 C2451 0.951 . S
H2427 C2453 0.950 . S
H2428 C2454 0.950 . S
H2429 C2456 0.950 . S
H2430 C2459 0.950 . S
H2431 C2460 0.950 . S
H2432 C2462 0.950 . S
H2433 C2463 0.950 . S
C2434 H2416 0.951 . S
C2434 C2435 1.366 . S
C2434 C2436 1.388 . S
C2435 C2434 1.366 . S
C2435 C2439 1.385 . S
C2436 H2417 0.951 . S
C2436 C2434 1.388 . S
C2436 C2437 1.366 . S
C2437 C2436 1.366 . S
C2437 C2438 1.414 . S
C2437 C2440 1.499 . S
C2438 H2418 0.950 . S
C2438 C2437 1.414 . S
C2438 C2439 1.374 . S
C2439 H2419 0.950 . S
C2439 C2435 1.385 . S
C2439 C2438 1.374 . S
C2440 C2437 1.499 . S
C2440 C2441 1.373 . S
C2440 C2442 1.389 . S
C2441 H2420 0.950 . S
C2441 C2440 1.373 . S
C2441 C2457 1.377 . S
C2442 C2440 1.389 . S
C2442 C2443 1.524 . S
C2442 C2456 1.377 . S
C2443 C2442 1.524 . S
C2443 C2444 1.397 . S
C2443 C2448 1.363 . S
C2444 H2421 0.950 1_554 S
C2444 C2443 1.397 . S
C2444 C2445 1.334 1_554 S
C2445 H2422 0.950 . S
C2445 C2444 1.334 1_556 S
C2445 C2446 1.287 1_556 S
C2446 C2445 1.287 1_554 S
C2446 C2447 1.524 . S
C2446 H2465 0.913 . S
C2447 H2423 0.950 . S
C2447 C2446 1.524 . S
C2447 C2448 1.415 . S
C2448 H2424 0.950 . S
C2448 C2443 1.363 . S
C2448 C2447 1.415 . S
C2449 H2425 0.951 . S
C2449 C2450 1.366 . S
C2449 C2451 1.388 . S
C2450 C2449 1.366 . S
C2450 C2454 1.385 . S
C2451 H2426 0.951 . S
C2451 C2449 1.388 . S
C2451 C2452 1.366 . S
C2452 C2451 1.366 . S
C2452 C2453 1.414 . S
C2452 C2455 1.499 . S
C2453 H2427 0.950 . S
C2453 C2452 1.414 . S
C2453 C2454 1.374 . S
C2454 H2428 0.950 . S
C2454 C2450 1.385 . S
C2454 C2453 1.374 . S
C2455 C2452 1.499 . S
C2455 C2456 1.373 . S
C2455 C2457 1.389 . S
C2456 H2429 0.950 . S
C2456 C2442 1.377 . S
C2456 C2455 1.373 . S
C2457 C2441 1.377 . S
C2457 C2455 1.389 . S
C2457 C2458 1.524 . S
C2458 C2457 1.524 . S
C2458 C2459 1.397 . S
C2458 C2463 1.363 . S
C2459 H2430 0.950 . S
C2459 C2458 1.397 . S
C2459 C2460 1.334 . S
C2460 H2431 0.950 . S
C2460 C2459 1.334 . S
C2460 C2461 1.287 . S
C2461 C2460 1.287 . S
C2461 C2462 1.524 . S
C2461 H2464 0.999 . S
C2462 H2432 0.950 . S
C2462 C2461 1.524 . S
C2462 C2463 1.415 . S
C2463 H2433 0.950 . S
C2463 C2458 1.363 . S
C2463 C2462 1.415 . S
H2464 C2461 0.999 . S
H2465 C2446 0.913 . S
H2466 C2484 0.951 . S
H2467 C2486 0.951 . S
H2468 C2488 0.950 . S
H2469 C2489 0.950 . S
H2470 C2491 0.950 . S
H2471 C2494 0.950 . S
H2472 C2495 0.950 . S
H2473 C2497 0.950 . S
H2474 C2498 0.950 . S
H2475 C2499 0.951 . S
H2476 C2501 0.951 . S
H2477 C2503 0.950 . S
H2478 C2504 0.950 . S
H2479 C2506 0.950 . S
H2480 C2509 0.950 . S
H2481 C2510 0.950 . S
H2482 C2512 0.950 . S
H2483 C2513 0.950 . S
C2484 H2466 0.951 . S
C2484 C2485 1.366 . S
C2484 C2486 1.388 . S
C2485 C2484 1.366 . S
C2485 C2489 1.385 . S
C2486 H2467 0.951 . S
C2486 C2484 1.388 . S
C2486 C2487 1.366 . S
C2487 C2486 1.366 . S
C2487 C2488 1.414 . S
C2487 C2490 1.499 . S
C2488 H2468 0.950 . S
C2488 C2487 1.414 . S
C2488 C2489 1.374 . S
C2489 H2469 0.950 . S
C2489 C2485 1.385 . S
C2489 C2488 1.374 . S
C2490 C2487 1.499 . S
C2490 C2491 1.373 . S
C2490 C2492 1.389 . S
C2491 H2470 0.950 . S
C2491 C2490 1.373 . S
C2491 C2507 1.377 . S
C2492 C2490 1.389 . S
C2492 C2493 1.524 . S
C2492 C2506 1.377 . S
C2493 C2492 1.524 . S
C2493 C2494 1.397 . S
C2493 C2498 1.363 . S
C2494 H2471 0.950 . S
C2494 C2493 1.397 . S
C2494 C2495 1.334 . S
C2495 H2472 0.950 . S
C2495 C2494 1.334 . S
C2495 C2496 1.287 . S
C2496 C2495 1.287 . S
C2496 C2497 1.524 . S
C2496 H2515 0.913 . S
C2497 H2473 0.950 . S
C2497 C2496 1.524 . S
C2497 C2498 1.415 . S
C2498 H2474 0.950 . S
C2498 C2493 1.363 . S
C2498 C2497 1.415 . S
C2499 H2475 0.951 . S
C2499 C2500 1.366 . S
C2499 C2501 1.388 . S
C2500 C2499 1.366 . S
C2500 C2504 1.385 . S
C2501 H2476 0.951 . S
C2501 C2499 1.388 . S
C2501 C2502 1.366 . S
C2502 C2501 1.366 . S
C2502 C2503 1.414 . S
C2502 C2505 1.499 . S
C2503 H2477 0.950 . S
C2503 C2502 1.414 . S
C2503 C2504 1.374 . S
C2504 H2478 0.950 . S
C2504 C2500 1.385 . S
C2504 C2503 1.374 . S
C2505 C2502 1.499 . S
C2505 C2506 1.373 . S
C2505 C2507 1.389 . S
C2506 H2479 0.950 . S
C2506 C2492 1.377 . S
C2506 C2505 1.373 . S
C2507 C2491 1.377 . S
C2507 C2505 1.389 . S
C2507 C2508 1.524 . S
C2508 C2507 1.524 . S
C2508 C2509 1.397 . S
C2508 C2513 1.363 . S
C2509 H2480 0.950 . S
C2509 C2508 1.397 . S
C2509 C2510 1.334 . S
C2510 H2481 0.950 . S
C2510 C2509 1.334 . S
C2510 C2511 1.287 . S
C2511 C2510 1.287 . S
C2511 C2512 1.524 . S
C2511 H2514 0.999 . S
C2512 H2482 0.950 . S
C2512 C2511 1.524 . S
C2512 C2513 1.415 . S
C2513 H2483 0.950 . S
C2513 C2508 1.363 . S
C2513 C2512 1.415 . S
H2514 C2511 0.999 . S
H2515 C2496 0.913 . S
H2516 C2534 0.951 . S
H2517 C2536 0.951 . S
H2518 C2538 0.950 . S
H2519 C2539 0.950 . S
H2520 C2541 0.950 1_556 S
H2521 C2544 0.950 . S
H2522 C2545 0.950 . S
H2523 C2547 0.950 . S
H2524 C2548 0.950 . S
H2525 C2549 0.951 . S
H2526 C2551 0.951 . S
H2527 C2553 0.950 . S
H2528 C2554 0.950 . S
H2529 C2556 0.950 . S
H2530 C2559 0.950 . S
H2531 C2560 0.950 . S
H2532 C2562 0.950 . S
H2533 C2563 0.950 . S
C2534 H2516 0.951 . S
C2534 C2535 1.366 . S
C2534 C2536 1.388 . S
C2535 C2534 1.366 . S
C2535 C2539 1.385 . S
C2536 H2517 0.951 . S
C2536 C2534 1.388 . S
C2536 C2537 1.366 . S
C2537 C2536 1.366 . S
C2537 C2538 1.414 . S
C2537 C2540 1.499 . S
C2538 H2518 0.950 . S
C2538 C2537 1.414 . S
C2538 C2539 1.374 . S
C2539 H2519 0.950 . S
C2539 C2535 1.385 . S
C2539 C2538 1.374 . S
C2540 C2537 1.499 . S
C2540 C2541 1.373 . S
C2540 C2542 1.389 . S
C2541 H2520 0.950 1_554 S
C2541 C2540 1.373 . S
C2541 C2557 1.377 . S
C2542 C2540 1.389 . S
C2542 C2543 1.524 . S
C2542 C2556 1.377 . S
C2543 C2542 1.524 . S
C2543 C2544 1.397 . S
C2543 C2548 1.363 . S
C2544 H2521 0.950 . S
C2544 C2543 1.397 . S
C2544 C2545 1.334 . S
C2545 H2522 0.950 . S
C2545 C2544 1.334 . S
C2545 C2546 1.287 . S
C2546 C2545 1.287 . S
C2546 C2547 1.524 . S
C2546 H2565 0.913 . S
C2547 H2523 0.950 . S
C2547 C2546 1.524 . S
C2547 C2548 1.415 . S
C2548 H2524 0.950 . S
C2548 C2543 1.363 . S
C2548 C2547 1.415 . S
C2549 H2525 0.951 . S
C2549 C2550 1.366 . S
C2549 C2551 1.388 . S
C2550 C2549 1.366 . S
C2550 C2554 1.385 . S
C2551 H2526 0.951 . S
C2551 C2549 1.388 . S
C2551 C2552 1.366 . S
C2552 C2551 1.366 . S
C2552 C2553 1.414 . S
C2552 C2555 1.499 . S
C2553 H2527 0.950 . S
C2553 C2552 1.414 . S
C2553 C2554 1.374 . S
C2554 H2528 0.950 . S
C2554 C2550 1.385 . S
C2554 C2553 1.374 . S
C2555 C2552 1.499 . S
C2555 C2556 1.373 . S
C2555 C2557 1.389 . S
C2556 H2529 0.950 . S
C2556 C2542 1.377 . S
C2556 C2555 1.373 . S
C2557 C2541 1.377 . S
C2557 C2555 1.389 . S
C2557 C2558 1.524 1_554 S
C2558 C2557 1.524 1_556 S
C2558 C2559 1.397 . S
C2558 C2563 1.363 . S
C2559 H2530 0.950 . S
C2559 C2558 1.397 . S
C2559 C2560 1.334 . S
C2560 H2531 0.950 . S
C2560 C2559 1.334 . S
C2560 C2561 1.287 . S
C2561 C2560 1.287 . S
C2561 C2562 1.524 . S
C2561 H2564 0.999 . S
C2562 H2532 0.950 . S
C2562 C2561 1.524 . S
C2562 C2563 1.415 . S
C2563 H2533 0.950 . S
C2563 C2558 1.363 . S
C2563 C2562 1.415 . S
H2564 C2561 0.999 . S
H2565 C2546 0.913 . S
H2566 C2584 0.951 . S
H2567 C2586 0.951 . S
H2568 C2588 0.950 . S
H2569 C2589 0.950 . S
H2570 C2591 0.950 . S
H2571 C2594 0.950 . S
H2572 C2595 0.950 . S
H2573 C2597 0.950 . S
H2574 C2598 0.950 . S
H2575 C2599 0.951 . S
H2576 C2601 0.951 . S
H2577 C2603 0.950 . S
H2578 C2604 0.950 . S
H2579 C2606 0.950 . S
H2580 C2609 0.950 . S
H2581 C2610 0.950 . S
H2582 C2612 0.950 . S
H2583 C2613 0.950 . S
C2584 H2566 0.951 . S
C2584 C2585 1.366 . S
C2584 C2586 1.388 . S
C2585 C2584 1.366 . S
C2585 C2589 1.385 . S
C2586 H2567 0.951 . S
C2586 C2584 1.388 . S
C2586 C2587 1.366 . S
C2587 C2586 1.366 . S
C2587 C2588 1.414 . S
C2587 C2590 1.499 . S
C2588 H2568 0.950 . S
C2588 C2587 1.414 . S
C2588 C2589 1.374 . S
C2589 H2569 0.950 . S
C2589 C2585 1.385 . S
C2589 C2588 1.374 . S
C2590 C2587 1.499 . S
C2590 C2591 1.373 . S
C2590 C2592 1.389 . S
C2591 H2570 0.950 . S
C2591 C2590 1.373 . S
C2591 C2607 1.377 . S
C2592 C2590 1.389 . S
C2592 C2593 1.524 . S
C2592 C2606 1.377 . S
C2593 C2592 1.524 . S
C2593 C2594 1.397 . S
C2593 C2598 1.363 . S
C2594 H2571 0.950 . S
C2594 C2593 1.397 . S
C2594 C2595 1.334 . S
C2595 H2572 0.950 . S
C2595 C2594 1.334 . S
C2595 C2596 1.287 . S
C2596 C2595 1.287 . S
C2596 C2597 1.524 . S
C2596 H2615 0.913 . S
C2597 H2573 0.950 . S
C2597 C2596 1.524 . S
C2597 C2598 1.415 . S
C2598 H2574 0.950 . S
C2598 C2593 1.363 . S
C2598 C2597 1.415 . S
C2599 H2575 0.951 . S
C2599 C2600 1.366 . S
C2599 C2601 1.388 . S
C2600 C2599 1.366 . S
C2600 C2604 1.385 . S
C2601 H2576 0.951 . S
C2601 C2599 1.388 . S
C2601 C2602 1.366 . S
C2602 C2601 1.366 . S
C2602 C2603 1.414 . S
C2602 C2605 1.499 . S
C2603 H2577 0.950 . S
C2603 C2602 1.414 . S
C2603 C2604 1.374 . S
C2604 H2578 0.950 . S
C2604 C2600 1.385 . S
C2604 C2603 1.374 . S
C2605 C2602 1.499 . S
C2605 C2606 1.373 . S
C2605 C2607 1.389 . S
C2606 H2579 0.950 . S
C2606 C2592 1.377 . S
C2606 C2605 1.373 . S
C2607 C2591 1.377 . S
C2607 C2605 1.389 . S
C2607 C2608 1.524 . S
C2608 C2607 1.524 . S
C2608 C2609 1.397 . S
C2608 C2613 1.363 . S
C2609 H2580 0.950 . S
C2609 C2608 1.397 . S
C2609 C2610 1.334 . S
C2610 H2581 0.950 . S
C2610 C2609 1.334 . S
C2610 C2611 1.287 . S
C2611 C2610 1.287 . S
C2611 C2612 1.524 . S
C2611 H2614 0.999 . S
C2612 H2582 0.950 . S
C2612 C2611 1.524 . S
C2612 C2613 1.415 . S
C2613 H2583 0.950 . S
C2613 C2608 1.363 . S
C2613 C2612 1.415 . S
H2614 C2611 0.999 . S
H2615 C2596 0.913 . S
H2616 C2634 0.951 . S
H2617 C2636 0.951 . S
H2618 C2638 0.950 . S
H2619 C2639 0.950 . S
H2620 C2641 0.950 . S
H2621 C2644 0.950 . S
H2622 C2645 0.950 . S
H2623 C2647 0.950 . S
H2624 C2648 0.950 . S
H2625 C2649 0.951 . S
H2626 C2651 0.951 . S
H2627 C2653 0.950 . S
H2628 C2654 0.950 . S
H2629 C2656 0.950 . S
H2630 C2659 0.950 . S
H2631 C2660 0.950 . S
H2632 C2662 0.950 . S
H2633 C2663 0.950 . S
C2634 H2616 0.951 . S
C2634 C2635 1.366 . S
C2634 C2636 1.388 . S
C2635 C2634 1.366 . S
C2635 C2639 1.385 . S
C2636 H2617 0.951 . S
C2636 C2634 1.388 . S
C2636 C2637 1.366 . S
C2637 C2636 1.366 . S
C2637 C2638 1.414 . S
C2637 C2640 1.499 . S
C2638 H2618 0.950 . S
C2638 C2637 1.414 . S
C2638 C2639 1.374 . S
C2639 H2619 0.950 . S
C2639 C2635 1.385 . S
C2639 C2638 1.374 . S
C2640 C2637 1.499 . S
C2640 C2641 1.373 . S
C2640 C2642 1.389 . S
C2641 H2620 0.950 . S
C2641 C2640 1.373 . S
C2641 C2657 1.377 . S
C2642 C2640 1.389 . S
C2642 C2643 1.524 . S
C2642 C2656 1.377 . S
C2643 C2642 1.524 . S
C2643 C2644 1.397 . S
C2643 C2648 1.363 . S
C2644 H2621 0.950 . S
C2644 C2643 1.397 . S
C2644 C2645 1.334 . S
C2645 H2622 0.950 . S
C2645 C2644 1.334 . S
C2645 C2646 1.287 . S
C2646 C2645 1.287 . S
C2646 C2647 1.524 . S
C2646 H2665 0.913 . S
C2647 H2623 0.950 . S
C2647 C2646 1.524 . S
C2647 C2648 1.415 . S
C2648 H2624 0.950 . S
C2648 C2643 1.363 . S
C2648 C2647 1.415 . S
C2649 H2625 0.951 . S
C2649 C2650 1.366 . S
C2649 C2651 1.388 . S
C2650 C2649 1.366 . S
C2650 C2654 1.385 . S
C2651 H2626 0.951 . S
C2651 C2649 1.388 . S
C2651 C2652 1.366 . S
C2652 C2651 1.366 . S
C2652 C2653 1.414 . S
C2652 C2655 1.499 . S
C2653 H2627 0.950 . S
C2653 C2652 1.414 . S
C2653 C2654 1.374 . S
C2654 H2628 0.950 . S
C2654 C2650 1.385 . S
C2654 C2653 1.374 . S
C2655 C2652 1.499 . S
C2655 C2656 1.373 . S
C2655 C2657 1.389 . S
C2656 H2629 0.950 . S
C2656 C2642 1.377 . S
C2656 C2655 1.373 . S
C2657 C2641 1.377 . S
C2657 C2655 1.389 . S
C2657 C2658 1.524 . S
C2658 C2657 1.524 . S
C2658 C2659 1.397 . S
C2658 C2663 1.363 . S
C2659 H2630 0.950 . S
C2659 C2658 1.397 . S
C2659 C2660 1.334 . S
C2660 H2631 0.950 . S
C2660 C2659 1.334 . S
C2660 C2661 1.287 . S
C2661 C2660 1.287 . S
C2661 C2662 1.524 . S
C2661 H2664 0.999 . S
C2662 H2632 0.950 . S
C2662 C2661 1.524 . S
C2662 C2663 1.415 . S
C2663 H2633 0.950 . S
C2663 C2658 1.363 . S
C2663 C2662 1.415 . S
H2664 C2661 0.999 . S
H2665 C2646 0.913 . S
H2666 C2684 0.951 . S
H2667 C2686 0.951 . S
H2668 C2688 0.950 . S
H2669 C2689 0.950 . S
H2670 C2691 0.950 . S
H2671 C2694 0.950 . S
H2672 C2695 0.950 . S
H2673 C2697 0.950 . S
H2674 C2698 0.950 . S
H2675 C2699 0.951 . S
H2676 C2701 0.951 . S
H2677 C2703 0.950 . S
H2678 C2704 0.950 . S
H2679 C2706 0.950 . S
H2680 C2709 0.950 . S
H2681 C2710 0.950 . S
H2682 C2712 0.950 . S
H2683 C2713 0.950 . S
C2684 H2666 0.951 . S
C2684 C2685 1.366 . S
C2684 C2686 1.388 . S
C2685 C2684 1.366 . S
C2685 C2689 1.385 . S
C2686 H2667 0.951 . S
C2686 C2684 1.388 . S
C2686 C2687 1.366 . S
C2687 C2686 1.366 . S
C2687 C2688 1.414 . S
C2687 C2690 1.499 . S
C2688 H2668 0.950 . S
C2688 C2687 1.414 . S
C2688 C2689 1.374 . S
C2689 H2669 0.950 . S
C2689 C2685 1.385 . S
C2689 C2688 1.374 . S
C2690 C2687 1.499 . S
C2690 C2691 1.373 . S
C2690 C2692 1.389 . S
C2691 H2670 0.950 . S
C2691 C2690 1.373 . S
C2691 C2707 1.377 1_655 S
C2692 C2690 1.389 . S
C2692 C2693 1.524 . S
C2692 C2706 1.377 1_655 S
C2693 C2692 1.524 . S
C2693 C2694 1.397 . S
C2693 C2698 1.363 . S
C2694 H2671 0.950 . S
C2694 C2693 1.397 . S
C2694 C2695 1.334 . S
C2695 H2672 0.950 . S
C2695 C2694 1.334 . S
C2695 C2696 1.287 . S
C2696 C2695 1.287 . S
C2696 C2697 1.524 . S
C2696 H2715 0.913 . S
C2697 H2673 0.950 . S
C2697 C2696 1.524 . S
C2697 C2698 1.415 . S
C2698 H2674 0.950 . S
C2698 C2693 1.363 . S
C2698 C2697 1.415 . S
C2699 H2675 0.951 . S
C2699 C2700 1.366 . S
C2699 C2701 1.388 . S
C2700 C2699 1.366 . S
C2700 C2704 1.385 . S
C2701 H2676 0.951 . S
C2701 C2699 1.388 . S
C2701 C2702 1.366 . S
C2702 C2701 1.366 . S
C2702 C2703 1.414 . S
C2702 C2705 1.499 . S
C2703 H2677 0.950 . S
C2703 C2702 1.414 . S
C2703 C2704 1.374 . S
C2704 H2678 0.950 . S
C2704 C2700 1.385 . S
C2704 C2703 1.374 . S
C2705 C2702 1.499 . S
C2705 C2706 1.373 . S
C2705 C2707 1.389 . S
C2706 H2679 0.950 . S
C2706 C2692 1.377 1_455 S
C2706 C2705 1.373 . S
C2707 C2691 1.377 1_455 S
C2707 C2705 1.389 . S
C2707 C2708 1.524 . S
C2708 C2707 1.524 . S
C2708 C2709 1.397 . S
C2708 C2713 1.363 . S
C2709 H2680 0.950 . S
C2709 C2708 1.397 . S
C2709 C2710 1.334 . S
C2710 H2681 0.950 . S
C2710 C2709 1.334 . S
C2710 C2711 1.287 . S
C2711 C2710 1.287 . S
C2711 C2712 1.524 . S
C2711 H2714 0.999 . S
C2712 H2682 0.950 . S
C2712 C2711 1.524 . S
C2712 C2713 1.415 . S
C2713 H2683 0.950 . S
C2713 C2708 1.363 . S
C2713 C2712 1.415 . S
H2714 C2711 0.999 . S
H2715 C2696 0.913 . S
H2716 C2734 0.951 . S
H2717 C2736 0.951 . S
H2718 C2738 0.950 . S
H2719 C2739 0.950 . S
H2720 C2741 0.950 . S
H2721 C2744 0.950 . S
H2722 C2745 0.950 . S
H2723 C2747 0.950 . S
H2724 C2748 0.950 . S
H2725 C2749 0.951 . S
H2726 C2751 0.951 . S
H2727 C2753 0.950 . S
H2728 C2754 0.950 . S
H2729 C2756 0.950 . S
H2730 C2759 0.950 . S
H2731 C2760 0.950 . S
H2732 C2762 0.950 . S
H2733 C2763 0.950 . S
C2734 H2716 0.951 . S
C2734 C2735 1.366 . S
C2734 C2736 1.388 . S
C2735 C2734 1.366 . S
C2735 C2739 1.385 . S
C2736 H2717 0.951 . S
C2736 C2734 1.388 . S
C2736 C2737 1.366 . S
C2737 C2736 1.366 . S
C2737 C2738 1.414 . S
C2737 C2740 1.499 . S
C2738 H2718 0.950 . S
C2738 C2737 1.414 . S
C2738 C2739 1.374 . S
C2739 H2719 0.950 . S
C2739 C2735 1.385 . S
C2739 C2738 1.374 . S
C2740 C2737 1.499 . S
C2740 C2741 1.373 . S
C2740 C2742 1.389 . S
C2741 H2720 0.950 . S
C2741 C2740 1.373 . S
C2741 C2757 1.377 1_655 S
C2742 C2740 1.389 . S
C2742 C2743 1.524 . S
C2742 C2756 1.377 1_655 S
C2743 C2742 1.524 . S
C2743 C2744 1.397 . S
C2743 C2748 1.363 . S
C2744 H2721 0.950 . S
C2744 C2743 1.397 . S
C2744 C2745 1.334 . S
C2745 H2722 0.950 . S
C2745 C2744 1.334 . S
C2745 C2746 1.287 . S
C2746 C2745 1.287 . S
C2746 C2747 1.524 . S
C2746 H2765 0.913 . S
C2747 H2723 0.950 . S
C2747 C2746 1.524 . S
C2747 C2748 1.415 . S
C2748 H2724 0.950 . S
C2748 C2743 1.363 . S
C2748 C2747 1.415 . S
C2749 H2725 0.951 . S
C2749 C2750 1.366 . S
C2749 C2751 1.388 . S
C2750 C2749 1.366 . S
C2750 C2754 1.385 . S
C2751 H2726 0.951 . S
C2751 C2749 1.388 . S
C2751 C2752 1.366 . S
C2752 C2751 1.366 . S
C2752 C2753 1.414 . S
C2752 C2755 1.499 . S
C2753 H2727 0.950 . S
C2753 C2752 1.414 . S
C2753 C2754 1.374 . S
C2754 H2728 0.950 . S
C2754 C2750 1.385 . S
C2754 C2753 1.374 . S
C2755 C2752 1.499 . S
C2755 C2756 1.373 . S
C2755 C2757 1.389 . S
C2756 H2729 0.950 . S
C2756 C2742 1.377 1_455 S
C2756 C2755 1.373 . S
C2757 C2741 1.377 1_455 S
C2757 C2755 1.389 . S
C2757 C2758 1.524 . S
C2758 C2757 1.524 . S
C2758 C2759 1.397 . S
C2758 C2763 1.363 . S
C2759 H2730 0.950 . S
C2759 C2758 1.397 . S
C2759 C2760 1.334 . S
C2760 H2731 0.950 . S
C2760 C2759 1.334 . S
C2760 C2761 1.287 . S
C2761 C2760 1.287 . S
C2761 C2762 1.524 . S
C2761 H2764 0.999 . S
C2762 H2732 0.950 . S
C2762 C2761 1.524 . S
C2762 C2763 1.415 . S
C2763 H2733 0.950 . S
C2763 C2758 1.363 . S
C2763 C2762 1.415 . S
H2764 C2761 0.999 . S
H2765 C2746 0.913 . S
H2766 C2784 0.951 . S
H2767 C2786 0.951 . S
H2768 C2788 0.950 . S
H2769 C2789 0.950 . S
H2770 C2791 0.950 . S
H2771 C2794 0.950 . S
H2772 C2795 0.950 . S
H2773 C2797 0.950 . S
H2774 C2798 0.950 . S
H2775 C2799 0.951 . S
H2776 C2801 0.951 . S
H2777 C2803 0.950 . S
H2778 C2804 0.950 . S
H2779 C2806 0.950 . S
H2780 C2809 0.950 . S
H2781 C2810 0.950 . S
H2782 C2812 0.950 . S
H2783 C2813 0.950 . S
C2784 H2766 0.951 . S
C2784 C2785 1.366 . S
C2784 C2786 1.388 . S
C2785 C2784 1.366 . S
C2785 C2789 1.385 . S
C2786 H2767 0.951 . S
C2786 C2784 1.388 . S
C2786 C2787 1.366 . S
C2787 C2786 1.366 . S
C2787 C2788 1.414 . S
C2787 C2790 1.499 . S
C2788 H2768 0.950 . S
C2788 C2787 1.414 . S
C2788 C2789 1.374 . S
C2789 H2769 0.950 . S
C2789 C2785 1.385 . S
C2789 C2788 1.374 . S
C2790 C2787 1.499 . S
C2790 C2791 1.373 . S
C2790 C2792 1.389 . S
C2791 H2770 0.950 . S
C2791 C2790 1.373 . S
C2791 C2807 1.377 . S
C2792 C2790 1.389 . S
C2792 C2793 1.524 . S
C2792 C2806 1.377 . S
C2793 C2792 1.524 . S
C2793 C2794 1.397 . S
C2793 C2798 1.363 . S
C2794 H2771 0.950 . S
C2794 C2793 1.397 . S
C2794 C2795 1.334 . S
C2795 H2772 0.950 . S
C2795 C2794 1.334 . S
C2795 C2796 1.287 . S
C2796 C2795 1.287 . S
C2796 C2797 1.524 . S
C2796 H2815 0.913 . S
C2797 H2773 0.950 . S
C2797 C2796 1.524 . S
C2797 C2798 1.415 . S
C2798 H2774 0.950 . S
C2798 C2793 1.363 . S
C2798 C2797 1.415 . S
C2799 H2775 0.951 . S
C2799 C2800 1.366 . S
C2799 C2801 1.388 . S
C2800 C2799 1.366 . S
C2800 C2804 1.385 . S
C2801 H2776 0.951 . S
C2801 C2799 1.388 . S
C2801 C2802 1.366 . S
C2802 C2801 1.366 . S
C2802 C2803 1.414 . S
C2802 C2805 1.499 . S
C2803 H2777 0.950 . S
C2803 C2802 1.414 . S
C2803 C2804 1.374 . S
C2804 H2778 0.950 . S
C2804 C2800 1.385 . S
C2804 C2803 1.374 . S
C2805 C2802 1.499 . S
C2805 C2806 1.373 . S
C2805 C2807 1.389 . S
C2806 H2779 0.950 . S
C2806 C2792 1.377 . S
C2806 C2805 1.373 . S
C2807 C2791 1.377 . S
C2807 C2805 1.389 . S
C2807 C2808 1.524 . S
C2808 C2807 1.524 . S
C2808 C2809 1.397 . S
C2808 C2813 1.363 . S
C2809 H2780 0.950 . S
C2809 C2808 1.397 . S
C2809 C2810 1.334 . S
C2810 H2781 0.950 . S
C2810 C2809 1.334 . S
C2810 C2811 1.287 . S
C2811 C2810 1.287 . S
C2811 C2812 1.524 . S
C2811 H2814 0.999 . S
C2812 H2782 0.950 . S
C2812 C2811 1.524 . S
C2812 C2813 1.415 . S
C2813 H2783 0.950 . S
C2813 C2808 1.363 . S
C2813 C2812 1.415 . S
H2814 C2811 0.999 . S
H2815 C2796 0.913 . S
H2816 C2834 0.951 . S
H2817 C2836 0.951 . S
H2818 C2838 0.950 . S
H2819 C2839 0.950 . S
H2820 C2841 0.950 . S
H2821 C2844 0.950 . S
H2822 C2845 0.950 . S
H2823 C2847 0.950 . S
H2824 C2848 0.950 . S
H2825 C2849 0.951 . S
H2826 C2851 0.951 . S
H2827 C2853 0.950 . S
H2828 C2854 0.950 . S
H2829 C2856 0.950 . S
H2830 C2859 0.950 . S
H2831 C2860 0.950 . S
H2832 C2862 0.950 . S
H2833 C2863 0.950 . S
C2834 H2816 0.951 . S
C2834 C2835 1.366 . S
C2834 C2836 1.388 . S
C2835 C2834 1.366 . S
C2835 C2839 1.385 . S
C2836 H2817 0.951 . S
C2836 C2834 1.388 . S
C2836 C2837 1.366 . S
C2837 C2836 1.366 . S
C2837 C2838 1.414 . S
C2837 C2840 1.499 . S
C2838 H2818 0.950 . S
C2838 C2837 1.414 . S
C2838 C2839 1.374 . S
C2839 H2819 0.950 . S
C2839 C2835 1.385 . S
C2839 C2838 1.374 . S
C2840 C2837 1.499 . S
C2840 C2841 1.373 . S
C2840 C2842 1.389 . S
C2841 H2820 0.950 . S
C2841 C2840 1.373 . S
C2841 C2857 1.377 . S
C2842 C2840 1.389 . S
C2842 C2843 1.524 . S
C2842 C2856 1.377 . S
C2843 C2842 1.524 . S
C2843 C2844 1.397 . S
C2843 C2848 1.363 . S
C2844 H2821 0.950 . S
C2844 C2843 1.397 . S
C2844 C2845 1.334 . S
C2845 H2822 0.950 . S
C2845 C2844 1.334 . S
C2845 C2846 1.287 . S
C2846 C2845 1.287 . S
C2846 C2847 1.524 . S
C2846 H2865 0.913 . S
C2847 H2823 0.950 . S
C2847 C2846 1.524 . S
C2847 C2848 1.415 . S
C2848 H2824 0.950 . S
C2848 C2843 1.363 . S
C2848 C2847 1.415 . S
C2849 H2825 0.951 . S
C2849 C2850 1.366 . S
C2849 C2851 1.388 . S
C2850 C2849 1.366 . S
C2850 C2854 1.385 . S
C2851 H2826 0.951 . S
C2851 C2849 1.388 . S
C2851 C2852 1.366 . S
C2852 C2851 1.366 . S
C2852 C2853 1.414 . S
C2852 C2855 1.499 . S
C2853 H2827 0.950 . S
C2853 C2852 1.414 . S
C2853 C2854 1.374 . S
C2854 H2828 0.950 . S
C2854 C2850 1.385 . S
C2854 C2853 1.374 . S
C2855 C2852 1.499 . S
C2855 C2856 1.373 . S
C2855 C2857 1.389 . S
C2856 H2829 0.950 . S
C2856 C2842 1.377 . S
C2856 C2855 1.373 . S
C2857 C2841 1.377 . S
C2857 C2855 1.389 . S
C2857 C2858 1.524 . S
C2858 C2857 1.524 . S
C2858 C2859 1.397 . S
C2858 C2863 1.363 . S
C2859 H2830 0.950 . S
C2859 C2858 1.397 . S
C2859 C2860 1.334 . S
C2860 H2831 0.950 . S
C2860 C2859 1.334 . S
C2860 C2861 1.287 . S
C2861 C2860 1.287 . S
C2861 C2862 1.524 . S
C2861 H2864 0.999 . S
C2862 H2832 0.950 . S
C2862 C2861 1.524 . S
C2862 C2863 1.415 . S
C2863 H2833 0.950 . S
C2863 C2858 1.363 . S
C2863 C2862 1.415 . S
H2864 C2861 0.999 . S
H2865 C2846 0.913 . S
H2866 C2884 0.951 . S
H2867 C2886 0.951 . S
H2868 C2888 0.950 . S
H2869 C2889 0.950 . S
H2870 C2891 0.950 . S
H2871 C2894 0.994 . S
H2872 C2895 0.950 . S
H2873 C2897 0.950 . S
H2874 C2898 0.950 . S
H2875 C2899 0.951 . S
H2876 C2901 0.951 . S
H2877 C2903 0.950 . S
H2878 C2904 0.950 . S
H2879 C2906 0.950 . S
H2880 C2909 0.994 . S
H2881 C2910 0.950 . S
H2882 C2912 0.950 . S
H2883 C2913 0.950 . S
C2884 H2866 0.951 . S
C2884 C2885 1.366 . S
C2884 C2886 1.388 . S
C2885 C2884 1.366 . S
C2885 C2889 1.385 . S
C2886 H2867 0.951 . S
C2886 C2884 1.388 . S
C2886 C2887 1.366 . S
C2887 C2886 1.366 . S
C2887 C2888 1.414 . S
C2887 C2890 1.499 . S
C2888 H2868 0.950 . S
C2888 C2887 1.414 . S
C2888 C2889 1.374 . S
C2889 H2869 0.950 . S
C2889 C2885 1.385 . S
C2889 C2888 1.374 . S
C2890 C2887 1.499 . S
C2890 C2891 1.373 . S
C2890 C2892 1.389 . S
C2891 H2870 0.950 . S
C2891 C2890 1.373 . S
C2891 C2907 1.377 1_565 S
C2892 C2890 1.389 . S
C2892 C2893 1.524 . S
C2892 C2906 1.377 1_565 S
C2893 C2892 1.524 . S
C2893 C2894 1.397 . S
C2893 C2898 1.363 . S
C2894 H2871 0.994 . S
C2894 C2893 1.397 . S
C2894 C2895 1.334 . S
C2895 H2872 0.950 . S
C2895 C2894 1.334 . S
C2895 C2896 1.287 . S
C2896 C2895 1.287 . S
C2896 C2897 1.524 . S
C2896 H2915 0.913 . S
C2897 H2873 0.950 . S
C2897 C2896 1.524 . S
C2897 C2898 1.415 . S
C2898 H2874 0.950 . S
C2898 C2893 1.363 . S
C2898 C2897 1.415 . S
C2899 H2875 0.951 . S
C2899 C2900 1.366 . S
C2899 C2901 1.388 . S
C2900 C2899 1.366 . S
C2900 C2904 1.385 . S
C2901 H2876 0.951 . S
C2901 C2899 1.388 . S
C2901 C2902 1.366 . S
C2902 C2901 1.366 . S
C2902 C2903 1.414 . S
C2902 C2905 1.499 . S
C2903 H2877 0.950 . S
C2903 C2902 1.414 . S
C2903 C2904 1.374 . S
C2904 H2878 0.950 . S
C2904 C2900 1.385 . S
C2904 C2903 1.374 . S
C2905 C2902 1.499 . S
C2905 C2906 1.373 . S
C2905 C2907 1.389 . S
C2906 H2879 0.950 . S
C2906 C2892 1.377 1_545 S
C2906 C2905 1.373 . S
C2907 C2891 1.377 1_545 S
C2907 C2905 1.389 . S
C2907 C2908 1.524 . S
C2908 C2907 1.524 . S
C2908 C2909 1.397 . S
C2908 C2913 1.363 . S
C2909 H2880 0.994 . S
C2909 C2908 1.397 . S
C2909 C2910 1.334 . S
C2910 H2881 0.950 . S
C2910 C2909 1.334 . S
C2910 C2911 1.287 . S
C2911 C2910 1.287 . S
C2911 C2912 1.524 . S
C2911 H2914 0.999 . S
C2912 H2882 0.950 . S
C2912 C2911 1.524 . S
C2912 C2913 1.415 . S
C2913 H2883 0.950 . S
C2913 C2908 1.363 . S
C2913 C2912 1.415 . S
H2914 C2911 0.999 . S
H2915 C2896 0.913 . S
H2916 C2934 0.951 . S
H2917 C2936 0.951 . S
H2918 C2938 0.950 . S
H2919 C2939 0.950 . S
H2920 C2941 0.950 . S
H2921 C2944 0.950 . S
H2922 C2945 0.950 . S
H2923 C2947 0.950 . S
H2924 C2948 0.950 . S
H2925 C2949 0.951 . S
H2926 C2951 0.951 . S
H2927 C2953 0.950 . S
H2928 C2954 0.950 . S
H2929 C2956 0.950 . S
H2930 C2959 0.950 . S
H2931 C2960 0.950 . S
H2932 C2962 0.950 . S
H2933 C2963 0.950 . S
C2934 H2916 0.951 . S
C2934 C2935 1.366 . S
C2934 C2936 1.388 . S
C2935 C2934 1.366 . S
C2935 C2939 1.385 . S
C2936 H2917 0.951 . S
C2936 C2934 1.388 . S
C2936 C2937 1.366 . S
C2937 C2936 1.366 . S
C2937 C2938 1.414 . S
C2937 C2940 1.499 . S
C2938 H2918 0.950 . S
C2938 C2937 1.414 . S
C2938 C2939 1.374 . S
C2939 H2919 0.950 . S
C2939 C2935 1.385 . S
C2939 C2938 1.374 . S
C2940 C2937 1.499 . S
C2940 C2941 1.373 . S
C2940 C2942 1.389 . S
C2941 H2920 0.950 . S
C2941 C2940 1.373 . S
C2941 C2957 1.377 . S
C2942 C2940 1.389 . S
C2942 C2943 1.524 . S
C2942 C2956 1.377 . S
C2943 C2942 1.524 . S
C2943 C2944 1.397 . S
C2943 C2948 1.363 . S
C2944 H2921 0.950 . S
C2944 C2943 1.397 . S
C2944 C2945 1.334 . S
C2945 H2922 0.950 . S
C2945 C2944 1.334 . S
C2945 C2946 1.287 . S
C2946 C2945 1.287 . S
C2946 C2947 1.524 . S
C2946 H2965 0.913 . S
C2947 H2923 0.950 . S
C2947 C2946 1.524 . S
C2947 C2948 1.415 . S
C2948 H2924 0.950 . S
C2948 C2943 1.363 . S
C2948 C2947 1.415 . S
C2949 H2925 0.951 . S
C2949 C2950 1.366 . S
C2949 C2951 1.388 . S
C2950 C2949 1.366 . S
C2950 C2954 1.385 . S
C2951 H2926 0.951 . S
C2951 C2949 1.388 . S
C2951 C2952 1.366 . S
C2952 C2951 1.366 . S
C2952 C2953 1.414 . S
C2952 C2955 1.499 . S
C2953 H2927 0.950 . S
C2953 C2952 1.414 . S
C2953 C2954 1.374 . S
C2954 H2928 0.950 . S
C2954 C2950 1.385 . S
C2954 C2953 1.374 . S
C2955 C2952 1.499 . S
C2955 C2956 1.373 . S
C2955 C2957 1.389 . S
C2956 H2929 0.950 . S
C2956 C2942 1.377 . S
C2956 C2955 1.373 . S
C2957 C2941 1.377 . S
C2957 C2955 1.389 . S
C2957 C2958 1.524 . S
C2958 C2957 1.524 . S
C2958 C2959 1.397 . S
C2958 C2963 1.363 . S
C2959 H2930 0.950 . S
C2959 C2958 1.397 . S
C2959 C2960 1.334 . S
C2960 H2931 0.950 . S
C2960 C2959 1.334 . S
C2960 C2961 1.287 . S
C2961 C2960 1.287 . S
C2961 C2962 1.524 . S
C2961 H2964 0.999 . S
C2962 H2932 0.950 . S
C2962 C2961 1.524 . S
C2962 C2963 1.415 . S
C2963 H2933 0.950 . S
C2963 C2958 1.363 . S
C2963 C2962 1.415 . S
H2964 C2961 0.999 . S
H2965 C2946 0.913 . S
H2966 C2984 0.951 . S
H2967 C2986 0.951 . S
H2968 C2988 0.950 . S
H2969 C2989 0.950 . S
H2970 C2991 0.950 . S
H2971 C2994 0.950 . S
H2972 C2995 0.950 . S
H2973 C2997 0.950 . S
H2974 C2998 0.950 . S
H2975 C2999 0.951 . S
H2976 C3001 0.951 . S
H2977 C3003 0.950 . S
H2978 C3004 0.950 . S
H2979 C3006 0.950 . S
H2980 C3009 0.950 . S
H2981 C3010 0.950 . S
H2982 C3012 0.950 . S
H2983 C3013 0.950 . S
C2984 H2966 0.951 . S
C2984 C2985 1.366 . S
C2984 C2986 1.388 . S
C2985 C2984 1.366 . S
C2985 C2989 1.385 . S
C2986 H2967 0.951 . S
C2986 C2984 1.388 . S
C2986 C2987 1.366 . S
C2987 C2986 1.366 . S
C2987 C2988 1.414 . S
C2987 C2990 1.499 1_556 S
C2988 H2968 0.950 . S
C2988 C2987 1.414 . S
C2988 C2989 1.374 . S
C2989 H2969 0.950 . S
C2989 C2985 1.385 . S
C2989 C2988 1.374 . S
C2990 C2987 1.499 1_554 S
C2990 C2991 1.373 . S
C2990 C2992 1.389 1_545 S
C2991 H2970 0.950 . S
C2991 C2990 1.373 . S
C2991 C3007 1.377 . S
C2992 C2990 1.389 1_565 S
C2992 C2993 1.524 1_554 S
C2992 C3006 1.377 . S
C2993 C2992 1.524 1_556 S
C2993 C2994 1.397 . S
C2993 C2998 1.363 . S
C2994 H2971 0.950 . S
C2994 C2993 1.397 . S
C2994 C2995 1.334 . S
C2995 H2972 0.950 . S
C2995 C2994 1.334 . S
C2995 C2996 1.287 . S
C2996 C2995 1.287 . S
C2996 C2997 1.524 . S
C2996 H3015 0.913 . S
C2997 H2973 0.950 . S
C2997 C2996 1.524 . S
C2997 C2998 1.415 . S
C2998 H2974 0.950 . S
C2998 C2993 1.363 . S
C2998 C2997 1.415 . S
C2999 H2975 0.951 . S
C2999 C3000 1.366 . S
C2999 C3001 1.388 . S
C3000 C2999 1.366 . S
C3000 C3004 1.385 . S
C3001 H2976 0.951 . S
C3001 C2999 1.388 . S
C3001 C3002 1.366 . S
C3002 C3001 1.366 . S
C3002 C3003 1.414 . S
C3002 C3005 1.499 . S
C3003 H2977 0.950 . S
C3003 C3002 1.414 . S
C3003 C3004 1.374 . S
C3004 H2978 0.950 . S
C3004 C3000 1.385 . S
C3004 C3003 1.374 . S
C3005 C3002 1.499 . S
C3005 C3006 1.373 . S
C3005 C3007 1.389 1_565 S
C3006 H2979 0.950 . S
C3006 C2992 1.377 . S
C3006 C3005 1.373 . S
C3007 C2991 1.377 . S
C3007 C3005 1.389 1_545 S
C3007 C3008 1.524 . S
C3008 C3007 1.524 . S
C3008 C3009 1.397 . S
C3008 C3013 1.363 . S
C3009 H2980 0.950 . S
C3009 C3008 1.397 . S
C3009 C3010 1.334 . S
C3010 H2981 0.950 . S
C3010 C3009 1.334 . S
C3010 C3011 1.287 . S
C3011 C3010 1.287 . S
C3011 C3012 1.524 . S
C3011 H3014 0.999 . S
C3012 H2982 0.950 . S
C3012 C3011 1.524 . S
C3012 C3013 1.415 . S
C3013 H2983 0.950 . S
C3013 C3008 1.363 . S
C3013 C3012 1.415 . S
H3014 C3011 0.999 . S
H3015 C2996 0.913 . S
H3016 C3034 0.951 . S
H3017 C3036 0.951 . S
H3018 C3038 0.950 . S
H3019 C3039 0.950 . S
H3020 C3041 0.950 . S
H3021 C3044 0.950 . S
H3022 C3045 0.950 . S
H3023 C3047 0.950 . S
H3024 C3048 0.950 . S
H3025 C3049 0.951 . S
H3026 C3051 0.951 . S
H3027 C3053 0.950 . S
H3028 C3054 0.950 . S
H3029 C3056 0.950 . S
H3030 C3059 0.950 . S
H3031 C3060 0.950 . S
H3032 C3062 0.950 . S
H3033 C3063 0.950 . S
C3034 H3016 0.951 . S
C3034 C3035 1.366 . S
C3034 C3036 1.388 . S
C3035 C3034 1.366 . S
C3035 C3039 1.385 . S
C3036 H3017 0.951 . S
C3036 C3034 1.388 . S
C3036 C3037 1.366 . S
C3037 C3036 1.366 . S
C3037 C3038 1.414 . S
C3037 C3040 1.499 . S
C3038 H3018 0.950 . S
C3038 C3037 1.414 . S
C3038 C3039 1.374 . S
C3039 H3019 0.950 . S
C3039 C3035 1.385 . S
C3039 C3038 1.374 . S
C3040 C3037 1.499 . S
C3040 C3041 1.373 . S
C3040 C3042 1.389 . S
C3041 H3020 0.950 . S
C3041 C3040 1.373 . S
C3041 C3057 1.377 . S
C3042 C3040 1.389 . S
C3042 C3043 1.524 . S
C3042 C3056 1.377 . S
C3043 C3042 1.524 . S
C3043 C3044 1.397 . S
C3043 C3048 1.363 . S
C3044 H3021 0.950 . S
C3044 C3043 1.397 . S
C3044 C3045 1.334 . S
C3045 H3022 0.950 . S
C3045 C3044 1.334 . S
C3045 C3046 1.287 . S
C3046 C3045 1.287 . S
C3046 C3047 1.524 . S
C3046 H3065 0.913 . S
C3047 H3023 0.950 . S
C3047 C3046 1.524 . S
C3047 C3048 1.415 . S
C3048 H3024 0.950 . S
C3048 C3043 1.363 . S
C3048 C3047 1.415 . S
C3049 H3025 0.951 . S
C3049 C3050 1.366 . S
C3049 C3051 1.388 . S
C3050 C3049 1.366 . S
C3050 C3054 1.385 . S
C3051 H3026 0.951 . S
C3051 C3049 1.388 . S
C3051 C3052 1.366 . S
C3052 C3051 1.366 . S
C3052 C3053 1.414 . S
C3052 C3055 1.499 . S
C3053 H3027 0.950 . S
C3053 C3052 1.414 . S
C3053 C3054 1.374 . S
C3054 H3028 0.950 . S
C3054 C3050 1.385 . S
C3054 C3053 1.374 . S
C3055 C3052 1.499 . S
C3055 C3056 1.373 . S
C3055 C3057 1.389 . S
C3056 H3029 0.950 . S
C3056 C3042 1.377 . S
C3056 C3055 1.373 . S
C3057 C3041 1.377 . S
C3057 C3055 1.389 . S
C3057 C3058 1.524 . S
C3058 C3057 1.524 . S
C3058 C3059 1.397 . S
C3058 C3063 1.363 . S
C3059 H3030 0.950 . S
C3059 C3058 1.397 . S
C3059 C3060 1.334 . S
C3060 H3031 0.950 . S
C3060 C3059 1.334 . S
C3060 C3061 1.287 . S
C3061 C3060 1.287 . S
C3061 C3062 1.524 . S
C3061 H3064 0.999 . S
C3062 H3032 0.950 . S
C3062 C3061 1.524 . S
C3062 C3063 1.415 . S
C3063 H3033 0.950 . S
C3063 C3058 1.363 . S
C3063 C3062 1.415 . S
H3064 C3061 0.999 . S
H3065 C3046 0.913 . S
H3066 C3084 0.951 . S
H3067 C3086 0.951 . S
H3068 C3088 0.950 . S
H3069 C3089 0.950 . S
H3070 C3091 0.950 . S
H3071 C3094 0.950 . S
H3072 C3095 0.950 . S
H3073 C3097 0.950 . S
H3074 C3098 0.950 . S
H3075 C3099 0.951 . S
H3076 C3101 0.951 . S
H3077 C3103 0.950 . S
H3078 C3104 0.950 . S
H3079 C3106 0.950 . S
H3080 C3109 0.950 . S
H3081 C3110 0.950 . S
H3082 C3112 0.950 . S
H3083 C3113 0.950 . S
C3084 H3066 0.951 . S
C3084 C3085 1.366 . S
C3084 C3086 1.388 . S
C3085 C3084 1.366 . S
C3085 C3089 1.385 . S
C3086 H3067 0.951 . S
C3086 C3084 1.388 . S
C3086 C3087 1.366 . S
C3087 C3086 1.366 . S
C3087 C3088 1.414 . S
C3087 C3090 1.499 . S
C3088 H3068 0.950 . S
C3088 C3087 1.414 . S
C3088 C3089 1.374 . S
C3089 H3069 0.950 . S
C3089 C3085 1.385 . S
C3089 C3088 1.374 . S
C3090 C3087 1.499 . S
C3090 C3091 1.373 . S
C3090 C3092 1.389 . S
C3091 H3070 0.950 . S
C3091 C3090 1.373 . S
C3091 C3107 1.377 1_545 S
C3092 C3090 1.389 . S
C3092 C3093 1.524 . S
C3092 C3106 1.377 1_545 S
C3093 C3092 1.524 . S
C3093 C3094 1.397 . S
C3093 C3098 1.363 . S
C3094 H3071 0.950 . S
C3094 C3093 1.397 . S
C3094 C3095 1.334 . S
C3095 H3072 0.950 . S
C3095 C3094 1.334 . S
C3095 C3096 1.287 . S
C3096 C3095 1.287 . S
C3096 C3097 1.524 . S
C3096 H3115 0.913 . S
C3097 H3073 0.950 . S
C3097 C3096 1.524 . S
C3097 C3098 1.415 . S
C3098 H3074 0.950 . S
C3098 C3093 1.363 . S
C3098 C3097 1.415 . S
C3099 H3075 0.951 . S
C3099 C3100 1.366 . S
C3099 C3101 1.388 . S
C3100 C3099 1.366 . S
C3100 C3104 1.385 . S
C3101 H3076 0.951 . S
C3101 C3099 1.388 . S
C3101 C3102 1.366 . S
C3102 C3101 1.366 . S
C3102 C3103 1.414 . S
C3102 C3105 1.499 . S
C3103 H3077 0.950 . S
C3103 C3102 1.414 . S
C3103 C3104 1.374 . S
C3104 H3078 0.950 . S
C3104 C3100 1.385 . S
C3104 C3103 1.374 . S
C3105 C3102 1.499 . S
C3105 C3106 1.373 . S
C3105 C3107 1.389 . S
C3106 H3079 0.950 . S
C3106 C3092 1.377 1_565 S
C3106 C3105 1.373 . S
C3107 C3091 1.377 1_565 S
C3107 C3105 1.389 . S
C3107 C3108 1.524 . S
C3108 C3107 1.524 . S
C3108 C3109 1.397 . S
C3108 C3113 1.363 . S
C3109 H3080 0.950 . S
C3109 C3108 1.397 . S
C3109 C3110 1.334 . S
C3110 H3081 0.950 . S
C3110 C3109 1.334 . S
C3110 C3111 1.287 . S
C3111 C3110 1.287 . S
C3111 C3112 1.524 . S
C3111 H3114 0.999 . S
C3112 H3082 0.950 . S
C3112 C3111 1.524 . S
C3112 C3113 1.415 . S
C3113 H3083 0.950 . S
C3113 C3108 1.363 . S
C3113 C3112 1.415 . S
H3114 C3111 0.999 . S
H3115 C3096 0.913 . S
H3116 C3134 0.951 . S
H3117 C3136 0.951 . S
H3118 C3138 0.950 . S
H3119 C3139 0.950 . S
H3120 C3141 0.950 . S
H3121 C3144 0.950 . S
H3122 C3145 0.950 . S
H3123 C3147 0.950 . S
H3124 C3148 0.950 . S
H3125 C3149 0.951 . S
H3126 C3151 0.951 . S
H3127 C3153 0.950 . S
H3128 C3154 0.950 . S
H3129 C3156 0.950 . S
H3130 C3159 0.950 . S
H3131 C3160 0.950 . S
H3132 C3162 0.950 . S
H3133 C3163 0.950 . S
C3134 H3116 0.951 . S
C3134 C3135 1.366 . S
C3134 C3136 1.388 . S
C3135 C3134 1.366 . S
C3135 C3139 1.385 . S
C3136 H3117 0.951 . S
C3136 C3134 1.388 . S
C3136 C3137 1.366 . S
C3137 C3136 1.366 . S
C3137 C3138 1.414 . S
C3137 C3140 1.499 . S
C3138 H3118 0.950 . S
C3138 C3137 1.414 . S
C3138 C3139 1.374 . S
C3139 H3119 0.950 . S
C3139 C3135 1.385 . S
C3139 C3138 1.374 . S
C3140 C3137 1.499 . S
C3140 C3141 1.373 . S
C3140 C3142 1.389 . S
C3141 H3120 0.950 . S
C3141 C3140 1.373 . S
C3141 C3157 1.377 . S
C3142 C3140 1.389 . S
C3142 C3143 1.524 . S
C3142 C3156 1.377 . S
C3143 C3142 1.524 . S
C3143 C3144 1.397 . S
C3143 C3148 1.363 . S
C3144 H3121 0.950 . S
C3144 C3143 1.397 . S
C3144 C3145 1.334 . S
C3145 H3122 0.950 . S
C3145 C3144 1.334 . S
C3145 C3146 1.287 . S
C3146 C3145 1.287 . S
C3146 C3147 1.524 . S
C3146 H3165 0.913 . S
C3147 H3123 0.950 . S
C3147 C3146 1.524 . S
C3147 C3148 1.415 . S
C3148 H3124 0.950 . S
C3148 C3143 1.363 . S
C3148 C3147 1.415 . S
C3149 H3125 0.951 . S
C3149 C3150 1.366 . S
C3149 C3151 1.388 . S
C3150 C3149 1.366 . S
C3150 C3154 1.385 . S
C3151 H3126 0.951 . S
C3151 C3149 1.388 . S
C3151 C3152 1.366 . S
C3152 C3151 1.366 . S
C3152 C3153 1.414 . S
C3152 C3155 1.499 . S
C3153 H3127 0.950 . S
C3153 C3152 1.414 . S
C3153 C3154 1.374 . S
C3154 H3128 0.950 . S
C3154 C3150 1.385 . S
C3154 C3153 1.374 . S
C3155 C3152 1.499 . S
C3155 C3156 1.373 . S
C3155 C3157 1.389 . S
C3156 H3129 0.950 . S
C3156 C3142 1.377 . S
C3156 C3155 1.373 . S
C3157 C3141 1.377 . S
C3157 C3155 1.389 . S
C3157 C3158 1.524 . S
C3158 C3157 1.524 . S
C3158 C3159 1.397 . S
C3158 C3163 1.363 . S
C3159 H3130 0.950 . S
C3159 C3158 1.397 . S
C3159 C3160 1.334 . S
C3160 H3131 0.950 . S
C3160 C3159 1.334 . S
C3160 C3161 1.287 . S
C3161 C3160 1.287 . S
C3161 C3162 1.524 . S
C3161 H3164 0.999 . S
C3162 H3132 0.950 . S
C3162 C3161 1.524 . S
C3162 C3163 1.415 . S
C3163 H3133 0.950 . S
C3163 C3158 1.363 . S
C3163 C3162 1.415 . S
H3164 C3161 0.999 . S
H3165 C3146 0.913 . S
H3166 C3184 0.951 . S
H3167 C3186 0.951 . S
H3168 C3188 0.950 . S
H3169 C3189 0.950 . S
H3170 C3191 0.950 . S
H3171 C3194 0.950 . S
H3172 C3195 0.950 . S
H3173 C3197 0.950 . S
H3174 C3198 0.950 . S
H3175 C3199 0.951 . S
H3176 C3201 0.951 . S
H3177 C3203 0.950 . S
H3178 C3204 0.950 . S
H3179 C3206 0.950 . S
H3180 C3209 0.950 . S
H3181 C3210 0.950 . S
H3182 C3212 0.950 . S
H3183 C3213 0.950 . S
C3184 H3166 0.951 . S
C3184 C3185 1.366 . S
C3184 C3186 1.388 . S
C3185 C3184 1.366 . S
C3185 C3189 1.385 . S
C3186 H3167 0.951 . S
C3186 C3184 1.388 . S
C3186 C3187 1.366 . S
C3187 C3186 1.366 . S
C3187 C3188 1.414 . S
C3187 C3190 1.499 . S
C3188 H3168 0.950 . S
C3188 C3187 1.414 . S
C3188 C3189 1.374 . S
C3189 H3169 0.950 . S
C3189 C3185 1.385 . S
C3189 C3188 1.374 . S
C3190 C3187 1.499 . S
C3190 C3191 1.373 . S
C3190 C3192 1.389 1_565 S
C3191 H3170 0.950 . S
C3191 C3190 1.373 . S
C3191 C3207 1.377 . S
C3192 C3190 1.389 1_545 S
C3192 C3193 1.524 . S
C3192 C3206 1.377 . S
C3193 C3192 1.524 . S
C3193 C3194 1.397 . S
C3193 C3198 1.363 . S
C3194 H3171 0.950 . S
C3194 C3193 1.397 . S
C3194 C3195 1.334 . S
C3195 H3172 0.950 . S
C3195 C3194 1.334 . S
C3195 C3196 1.287 . S
C3196 C3195 1.287 . S
C3196 C3197 1.524 . S
C3196 H3215 0.913 . S
C3197 H3173 0.950 . S
C3197 C3196 1.524 . S
C3197 C3198 1.415 . S
C3198 H3174 0.950 . S
C3198 C3193 1.363 . S
C3198 C3197 1.415 . S
C3199 H3175 0.951 . S
C3199 C3200 1.366 . S
C3199 C3201 1.388 . S
C3200 C3199 1.366 . S
C3200 C3204 1.385 . S
C3201 H3176 0.951 . S
C3201 C3199 1.388 . S
C3201 C3202 1.366 . S
C3202 C3201 1.366 . S
C3202 C3203 1.414 . S
C3202 C3205 1.499 1_556 S
C3203 H3177 0.950 . S
C3203 C3202 1.414 . S
C3203 C3204 1.374 . S
C3204 H3178 0.950 . S
C3204 C3200 1.385 . S
C3204 C3203 1.374 . S
C3205 C3202 1.499 1_554 S
C3205 C3206 1.373 . S
C3205 C3207 1.389 1_545 S
C3206 H3179 0.950 . S
C3206 C3192 1.377 . S
C3206 C3205 1.373 . S
C3207 C3191 1.377 . S
C3207 C3205 1.389 1_565 S
C3207 C3208 1.524 1_554 S
C3208 C3207 1.524 1_556 S
C3208 C3209 1.397 . S
C3208 C3213 1.363 . S
C3209 H3180 0.950 . S
C3209 C3208 1.397 . S
C3209 C3210 1.334 . S
C3210 H3181 0.950 . S
C3210 C3209 1.334 . S
C3210 C3211 1.287 . S
C3211 C3210 1.287 . S
C3211 C3212 1.524 . S
C3211 H3214 0.999 . S
C3212 H3182 0.950 . S
C3212 C3211 1.524 . S
C3212 C3213 1.415 . S
C3213 H3183 0.950 . S
C3213 C3208 1.363 . S
C3213 C3212 1.415 . S
H3214 C3211 0.999 . S
H3215 C3196 0.913 . S
H3216 C3234 0.951 . S
H3217 C3236 0.951 . S
H3218 C3238 0.950 . S
H3219 C3239 0.950 . S
H3220 C3241 0.950 . S
H3221 C3244 0.950 . S
H3222 C3245 0.950 . S
H3223 C3247 0.950 . S
H3224 C3248 0.950 . S
H3225 C3249 0.951 . S
H3226 C3251 0.951 . S
H3227 C3253 0.950 . S
H3228 C3254 0.950 . S
H3229 C3256 0.950 . S
H3230 C3259 0.950 . S
H3231 C3260 0.950 . S
H3232 C3262 0.950 . S
H3233 C3263 0.950 . S
C3234 H3216 0.951 . S
C3234 C3235 1.366 . S
C3234 C3236 1.388 . S
C3235 C3234 1.366 . S
C3235 C3239 1.385 . S
C3236 H3217 0.951 . S
C3236 C3234 1.388 . S
C3236 C3237 1.366 . S
C3237 C3236 1.366 . S
C3237 C3238 1.414 . S
C3237 C3240 1.499 . S
C3238 H3218 0.950 . S
C3238 C3237 1.414 . S
C3238 C3239 1.374 . S
C3239 H3219 0.950 . S
C3239 C3235 1.385 . S
C3239 C3238 1.374 . S
C3240 C3237 1.499 . S
C3240 C3241 1.373 . S
C3240 C3242 1.389 . S
C3241 H3220 0.950 . S
C3241 C3240 1.373 . S
C3241 C3257 1.377 . S
C3242 C3240 1.389 . S
C3242 C3243 1.524 . S
C3242 C3256 1.377 . S
C3243 C3242 1.524 . S
C3243 C3244 1.397 . S
C3243 C3248 1.363 . S
C3244 H3221 0.950 . S
C3244 C3243 1.397 . S
C3244 C3245 1.334 . S
C3245 H3222 0.950 . S
C3245 C3244 1.334 . S
C3245 C3246 1.287 . S
C3246 C3245 1.287 . S
C3246 C3247 1.524 . S
C3246 H3265 0.913 . S
C3247 H3223 0.950 . S
C3247 C3246 1.524 . S
C3247 C3248 1.415 . S
C3248 H3224 0.950 . S
C3248 C3243 1.363 . S
C3248 C3247 1.415 . S
C3249 H3225 0.951 . S
C3249 C3250 1.366 . S
C3249 C3251 1.388 . S
C3250 C3249 1.366 . S
C3250 C3254 1.385 . S
C3251 H3226 0.951 . S
C3251 C3249 1.388 . S
C3251 C3252 1.366 . S
C3252 C3251 1.366 . S
C3252 C3253 1.414 . S
C3252 C3255 1.499 . S
C3253 H3227 0.950 . S
C3253 C3252 1.414 . S
C3253 C3254 1.374 . S
C3254 H3228 0.950 . S
C3254 C3250 1.385 . S
C3254 C3253 1.374 . S
C3255 C3252 1.499 . S
C3255 C3256 1.373 . S
C3255 C3257 1.389 . S
C3256 H3229 0.950 . S
C3256 C3242 1.377 . S
C3256 C3255 1.373 . S
C3257 C3241 1.377 . S
C3257 C3255 1.389 . S
C3257 C3258 1.524 . S
C3258 C3257 1.524 . S
C3258 C3259 1.397 . S
C3258 C3263 1.363 . S
C3259 H3230 0.950 . S
C3259 C3258 1.397 . S
C3259 C3260 1.334 . S
C3260 H3231 0.950 . S
C3260 C3259 1.334 . S
C3260 C3261 1.287 . S
C3261 C3260 1.287 . S
C3261 C3262 1.524 . S
C3261 H3264 0.999 . S
C3262 H3232 0.950 . S
C3262 C3261 1.524 . S
C3262 C3263 1.415 . S
C3263 H3233 0.950 . S
C3263 C3258 1.363 . S
C3263 C3262 1.415 . S
H3264 C3261 0.999 . S
H3265 C3246 0.913 . S
H3266 C3284 0.951 . S
H3267 C3286 0.951 . S
H3268 C3288 0.950 . S
H3269 C3289 0.950 . S
H3270 C3291 0.950 . S
H3271 C3294 0.950 . S
H3272 C3295 0.950 . S
H3273 C3297 0.950 . S
H3274 C3298 0.950 1_556 S
H3275 C3299 0.951 . S
H3276 C3301 0.951 . S
H3277 C3303 0.950 . S
H3278 C3304 0.950 . S
H3279 C3306 0.950 1_556 S
H3280 C3309 0.950 1_556 S
H3281 C3310 0.950 1_556 S
H3282 C3312 0.950 . S
H3283 C3313 0.950 . S
C3284 H3266 0.951 . S
C3284 C3285 1.366 . S
C3284 C3286 1.388 . S
C3285 C3284 1.366 . S
C3285 C3289 1.385 . S
C3286 H3267 0.951 . S
C3286 C3284 1.388 . S
C3286 C3287 1.366 . S
C3287 C3286 1.366 . S
C3287 C3288 1.414 . S
C3287 C3290 1.499 . S
C3288 H3268 0.950 . S
C3288 C3287 1.414 . S
C3288 C3289 1.374 . S
C3289 H3269 0.950 . S
C3289 C3285 1.385 . S
C3289 C3288 1.374 . S
C3290 C3287 1.499 . S
C3290 C3291 1.373 . S
C3290 C3292 1.389 . S
C3291 H3270 0.950 . S
C3291 C3290 1.373 . S
C3291 C3307 1.377 . S
C3292 C3290 1.389 . S
C3292 C3293 1.524 . S
C3292 C3306 1.377 . S
C3293 C3292 1.524 . S
C3293 C3294 1.397 . S
C3293 C3298 1.363 . S
C3294 H3271 0.950 . S
C3294 C3293 1.397 . S
C3294 C3295 1.334 . S
C3295 H3272 0.950 . S
C3295 C3294 1.334 . S
C3295 C3296 1.287 . S
C3296 C3295 1.287 . S
C3296 C3297 1.524 1_554 S
C3296 H3315 0.913 . S
C3297 H3273 0.950 . S
C3297 C3296 1.524 1_556 S
C3297 C3298 1.415 1_556 S
C3298 H3274 0.950 1_554 S
C3298 C3293 1.363 . S
C3298 C3297 1.415 1_554 S
C3299 H3275 0.951 . S
C3299 C3300 1.366 . S
C3299 C3301 1.388 . S
C3300 C3299 1.366 . S
C3300 C3304 1.385 . S
C3301 H3276 0.951 . S
C3301 C3299 1.388 . S
C3301 C3302 1.366 . S
C3302 C3301 1.366 . S
C3302 C3303 1.414 . S
C3302 C3305 1.499 1_556 S
C3303 H3277 0.950 . S
C3303 C3302 1.414 . S
C3303 C3304 1.374 . S
C3304 H3278 0.950 . S
C3304 C3300 1.385 . S
C3304 C3303 1.374 . S
C3305 C3302 1.499 1_554 S
C3305 C3306 1.373 . S
C3305 C3307 1.389 . S
C3306 H3279 0.950 1_554 S
C3306 C3292 1.377 . S
C3306 C3305 1.373 . S
C3307 C3291 1.377 . S
C3307 C3305 1.389 . S
C3307 C3308 1.524 . S
C3308 C3307 1.524 . S
C3308 C3309 1.397 . S
C3308 C3313 1.363 . S
C3309 H3280 0.950 1_554 S
C3309 C3308 1.397 . S
C3309 C3310 1.334 . S
C3310 H3281 0.950 1_554 S
C3310 C3309 1.334 . S
C3310 C3311 1.287 . S
C3311 C3310 1.287 . S
C3311 C3312 1.524 . S
C3311 H3314 0.999 . S
C3312 H3282 0.950 . S
C3312 C3311 1.524 . S
C3312 C3313 1.415 . S
C3313 H3283 0.950 . S
C3313 C3308 1.363 . S
C3313 C3312 1.415 . S
H3314 C3311 0.999 . S
H3315 C3296 0.913 . S
H3316 C3334 0.951 . S
H3317 C3336 0.951 . S
H3318 C3338 0.950 . S
H3319 C3339 0.950 . S
H3320 C3341 0.950 . S
H3321 C3344 0.950 . S
H3322 C3345 0.950 . S
H3323 C3347 0.950 . S
H3324 C3348 0.950 . S
H3325 C3349 0.951 . S
H3326 C3351 0.951 . S
H3327 C3353 0.950 . S
H3328 C3354 0.950 . S
H3329 C3356 0.950 . S
H3330 C3359 0.950 . S
H3331 C3360 0.950 . S
H3332 C3362 0.950 . S
H3333 C3363 0.950 . S
C3334 H3316 0.951 . S
C3334 C3335 1.366 . S
C3334 C3336 1.388 . S
C3335 C3334 1.366 . S
C3335 C3339 1.385 . S
C3336 H3317 0.951 . S
C3336 C3334 1.388 . S
C3336 C3337 1.366 . S
C3337 C3336 1.366 . S
C3337 C3338 1.414 . S
C3337 C3340 1.499 . S
C3338 H3318 0.950 . S
C3338 C3337 1.414 . S
C3338 C3339 1.374 . S
C3339 H3319 0.950 . S
C3339 C3335 1.385 . S
C3339 C3338 1.374 . S
C3340 C3337 1.499 . S
C3340 C3341 1.373 . S
C3340 C3342 1.389 . S
C3341 H3320 0.950 . S
C3341 C3340 1.373 . S
C3341 C3357 1.377 . S
C3342 C3340 1.389 . S
C3342 C3343 1.524 . S
C3342 C3356 1.377 . S
C3343 C3342 1.524 . S
C3343 C3344 1.397 . S
C3343 C3348 1.363 . S
C3344 H3321 0.950 . S
C3344 C3343 1.397 . S
C3344 C3345 1.334 . S
C3345 H3322 0.950 . S
C3345 C3344 1.334 . S
C3345 C3346 1.287 . S
C3346 C3345 1.287 . S
C3346 C3347 1.524 . S
C3346 H3365 0.913 . S
C3347 H3323 0.950 . S
C3347 C3346 1.524 . S
C3347 C3348 1.415 . S
C3348 H3324 0.950 . S
C3348 C3343 1.363 . S
C3348 C3347 1.415 . S
C3349 H3325 0.951 . S
C3349 C3350 1.366 . S
C3349 C3351 1.388 . S
C3350 C3349 1.366 . S
C3350 C3354 1.385 . S
C3351 H3326 0.951 . S
C3351 C3349 1.388 . S
C3351 C3352 1.366 . S
C3352 C3351 1.366 . S
C3352 C3353 1.414 . S
C3352 C3355 1.499 . S
C3353 H3327 0.950 . S
C3353 C3352 1.414 . S
C3353 C3354 1.374 . S
C3354 H3328 0.950 . S
C3354 C3350 1.385 . S
C3354 C3353 1.374 . S
C3355 C3352 1.499 . S
C3355 C3356 1.373 . S
C3355 C3357 1.389 . S
C3356 H3329 0.950 . S
C3356 C3342 1.377 . S
C3356 C3355 1.373 . S
C3357 C3341 1.377 . S
C3357 C3355 1.389 . S
C3357 C3358 1.524 . S
C3358 C3357 1.524 . S
C3358 C3359 1.397 . S
C3358 C3363 1.363 . S
C3359 H3330 0.950 . S
C3359 C3358 1.397 . S
C3359 C3360 1.334 . S
C3360 H3331 0.950 . S
C3360 C3359 1.334 . S
C3360 C3361 1.287 . S
C3361 C3360 1.287 . S
C3361 C3362 1.524 . S
C3361 H3364 0.999 . S
C3362 H3332 0.950 . S
C3362 C3361 1.524 . S
C3362 C3363 1.415 . S
C3363 H3333 0.950 . S
C3363 C3358 1.363 . S
C3363 C3362 1.415 . S
H3364 C3361 0.999 . S
H3365 C3346 0.913 . S
H3366 C3384 0.951 . S
H3367 C3386 0.951 . S
H3368 C3388 0.950 . S
H3369 C3389 0.950 . S
H3370 C3391 0.950 . S
H3371 C3394 0.950 . S
H3372 C3395 0.950 . S
H3373 C3397 0.950 . S
H3374 C3398 0.950 . S
H3375 C3399 0.951 . S
H3376 C3401 0.951 . S
H3377 C3403 0.950 . S
H3378 C3404 0.950 . S
H3379 C3406 0.950 . S
H3380 C3409 0.950 . S
H3381 C3410 0.950 . S
H3382 C3412 0.950 . S
H3383 C3413 0.950 . S
C3384 H3366 0.951 . S
C3384 C3385 1.366 . S
C3384 C3386 1.388 . S
C3385 C3384 1.366 . S
C3385 C3389 1.385 . S
C3386 H3367 0.951 . S
C3386 C3384 1.388 . S
C3386 C3387 1.366 . S
C3387 C3386 1.366 . S
C3387 C3388 1.414 . S
C3387 C3390 1.499 . S
C3388 H3368 0.950 . S
C3388 C3387 1.414 . S
C3388 C3389 1.374 . S
C3389 H3369 0.950 . S
C3389 C3385 1.385 . S
C3389 C3388 1.374 . S
C3390 C3387 1.499 . S
C3390 C3391 1.373 . S
C3390 C3392 1.389 . S
C3391 H3370 0.950 . S
C3391 C3390 1.373 . S
C3391 C3407 1.377 . S
C3392 C3390 1.389 . S
C3392 C3393 1.524 . S
C3392 C3406 1.377 . S
C3393 C3392 1.524 . S
C3393 C3394 1.397 . S
C3393 C3398 1.363 . S
C3394 H3371 0.950 . S
C3394 C3393 1.397 . S
C3394 C3395 1.334 . S
C3395 H3372 0.950 . S
C3395 C3394 1.334 . S
C3395 C3396 1.287 . S
C3396 C3395 1.287 . S
C3396 C3397 1.524 . S
C3396 H3415 0.913 . S
C3397 H3373 0.950 . S
C3397 C3396 1.524 . S
C3397 C3398 1.415 . S
C3398 H3374 0.950 . S
C3398 C3393 1.363 . S
C3398 C3397 1.415 . S
C3399 H3375 0.951 . S
C3399 C3400 1.366 . S
C3399 C3401 1.388 . S
C3400 C3399 1.366 . S
C3400 C3404 1.385 . S
C3401 H3376 0.951 . S
C3401 C3399 1.388 . S
C3401 C3402 1.366 . S
C3402 C3401 1.366 . S
C3402 C3403 1.414 . S
C3402 C3405 1.499 . S
C3403 H3377 0.950 . S
C3403 C3402 1.414 . S
C3403 C3404 1.374 . S
C3404 H3378 0.950 . S
C3404 C3400 1.385 . S
C3404 C3403 1.374 . S
C3405 C3402 1.499 . S
C3405 C3406 1.373 . S
C3405 C3407 1.389 . S
C3406 H3379 0.950 . S
C3406 C3392 1.377 . S
C3406 C3405 1.373 . S
C3407 C3391 1.377 . S
C3407 C3405 1.389 . S
C3407 C3408 1.524 . S
C3408 C3407 1.524 . S
C3408 C3409 1.397 . S
C3408 C3413 1.363 . S
C3409 H3380 0.950 . S
C3409 C3408 1.397 . S
C3409 C3410 1.334 . S
C3410 H3381 0.950 . S
C3410 C3409 1.334 . S
C3410 C3411 1.287 . S
C3411 C3410 1.287 . S
C3411 C3412 1.524 . S
C3411 H3414 0.999 . S
C3412 H3382 0.950 . S
C3412 C3411 1.524 . S
C3412 C3413 1.415 . S
C3413 H3383 0.950 . S
C3413 C3408 1.363 . S
C3413 C3412 1.415 . S
H3414 C3411 0.999 . S
H3415 C3396 0.913 . S
H3416 C3434 0.951 . S
H3417 C3436 0.951 . S
H3418 C3438 0.950 . S
H3419 C3439 0.950 . S
H3420 C3441 0.950 . S
H3421 C3444 0.950 . S
H3422 C3445 0.950 . S
H3423 C3447 0.950 . S
H3424 C3448 0.950 . S
H3425 C3449 0.951 . S
H3426 C3451 0.951 . S
H3427 C3453 0.950 . S
H3428 C3454 0.950 . S
H3429 C3456 0.950 . S
H3430 C3459 0.950 . S
H3431 C3460 0.950 . S
H3432 C3462 0.950 . S
H3433 C3463 0.950 . S
C3434 H3416 0.951 . S
C3434 C3435 1.366 . S
C3434 C3436 1.388 . S
C3435 C3434 1.366 . S
C3435 C3439 1.385 . S
C3436 H3417 0.951 . S
C3436 C3434 1.388 . S
C3436 C3437 1.366 . S
C3437 C3436 1.366 . S
C3437 C3438 1.414 . S
C3437 C3440 1.499 . S
C3438 H3418 0.950 . S
C3438 C3437 1.414 . S
C3438 C3439 1.374 . S
C3439 H3419 0.950 . S
C3439 C3435 1.385 . S
C3439 C3438 1.374 . S
C3440 C3437 1.499 . S
C3440 C3441 1.373 . S
C3440 C3442 1.389 . S
C3441 H3420 0.950 . S
C3441 C3440 1.373 . S
C3441 C3457 1.377 . S
C3442 C3440 1.389 . S
C3442 C3443 1.524 . S
C3442 C3456 1.377 . S
C3443 C3442 1.524 . S
C3443 C3444 1.397 . S
C3443 C3448 1.363 . S
C3444 H3421 0.950 . S
C3444 C3443 1.397 . S
C3444 C3445 1.334 . S
C3445 H3422 0.950 . S
C3445 C3444 1.334 . S
C3445 C3446 1.287 . S
C3446 C3445 1.287 . S
C3446 C3447 1.524 . S
C3446 H3465 0.913 . S
C3447 H3423 0.950 . S
C3447 C3446 1.524 . S
C3447 C3448 1.415 . S
C3448 H3424 0.950 . S
C3448 C3443 1.363 . S
C3448 C3447 1.415 . S
C3449 H3425 0.951 . S
C3449 C3450 1.366 . S
C3449 C3451 1.388 . S
C3450 C3449 1.366 . S
C3450 C3454 1.385 . S
C3451 H3426 0.951 . S
C3451 C3449 1.388 . S
C3451 C3452 1.366 . S
C3452 C3451 1.366 . S
C3452 C3453 1.414 . S
C3452 C3455 1.499 . S
C3453 H3427 0.950 . S
C3453 C3452 1.414 . S
C3453 C3454 1.374 . S
C3454 H3428 0.950 . S
C3454 C3450 1.385 . S
C3454 C3453 1.374 . S
C3455 C3452 1.499 . S
C3455 C3456 1.373 . S
C3455 C3457 1.389 . S
C3456 H3429 0.950 . S
C3456 C3442 1.377 . S
C3456 C3455 1.373 . S
C3457 C3441 1.377 . S
C3457 C3455 1.389 . S
C3457 C3458 1.524 . S
C3458 C3457 1.524 . S
C3458 C3459 1.397 . S
C3458 C3463 1.363 . S
C3459 H3430 0.950 . S
C3459 C3458 1.397 . S
C3459 C3460 1.334 . S
C3460 H3431 0.950 . S
C3460 C3459 1.334 . S
C3460 C3461 1.287 . S
C3461 C3460 1.287 . S
C3461 C3462 1.524 . S
C3461 H3464 0.999 . S
C3462 H3432 0.950 . S
C3462 C3461 1.524 . S
C3462 C3463 1.415 . S
C3463 H3433 0.950 . S
C3463 C3458 1.363 . S
C3463 C3462 1.415 . S
H3464 C3461 0.999 . S
H3465 C3446 0.913 . S
H3466 C3484 0.951 . S
H3467 C3486 0.951 . S
H3468 C3488 0.950 . S
H3469 C3489 0.950 . S
H3470 C3491 0.950 1_556 S
H3471 C3494 0.950 . S
H3472 C3495 0.950 . S
H3473 C3497 0.950 . S
H3474 C3498 0.950 . S
H3475 C3499 0.951 . S
H3476 C3501 0.951 . S
H3477 C3503 0.950 . S
H3478 C3504 0.950 . S
H3479 C3506 0.950 . S
H3480 C3509 0.950 . S
H3481 C3510 0.950 . S
H3482 C3512 0.950 . S
H3483 C3513 0.950 1_556 S
C3484 H3466 0.951 . S
C3484 C3485 1.366 . S
C3484 C3486 1.388 . S
C3485 C3484 1.366 . S
C3485 C3489 1.385 . S
C3486 H3467 0.951 . S
C3486 C3484 1.388 . S
C3486 C3487 1.366 . S
C3487 C3486 1.366 . S
C3487 C3488 1.414 . S
C3487 C3490 1.499 1_556 S
C3488 H3468 0.950 . S
C3488 C3487 1.414 . S
C3488 C3489 1.374 . S
C3489 H3469 0.950 . S
C3489 C3485 1.385 . S
C3489 C3488 1.374 . S
C3490 C3487 1.499 1_554 S
C3490 C3491 1.373 . S
C3490 C3492 1.389 . S
C3491 H3470 0.950 1_554 S
C3491 C3490 1.373 . S
C3491 C3507 1.377 . S
C3492 C3490 1.389 . S
C3492 C3493 1.524 . S
C3492 C3506 1.377 . S
C3493 C3492 1.524 . S
C3493 C3494 1.397 1_554 S
C3493 C3498 1.363 . S
C3494 H3471 0.950 . S
C3494 C3493 1.397 1_556 S
C3494 C3495 1.334 . S
C3495 H3472 0.950 . S
C3495 C3494 1.334 . S
C3495 C3496 1.287 1_556 S
C3496 C3495 1.287 1_554 S
C3496 C3497 1.524 . S
C3496 H3515 0.913 . S
C3497 H3473 0.950 . S
C3497 C3496 1.524 . S
C3497 C3498 1.415 . S
C3498 H3474 0.950 . S
C3498 C3493 1.363 . S
C3498 C3497 1.415 . S
C3499 H3475 0.951 . S
C3499 C3500 1.366 . S
C3499 C3501 1.388 . S
C3500 C3499 1.366 . S
C3500 C3504 1.385 . S
C3501 H3476 0.951 . S
C3501 C3499 1.388 . S
C3501 C3502 1.366 . S
C3502 C3501 1.366 . S
C3502 C3503 1.414 . S
C3502 C3505 1.499 . S
C3503 H3477 0.950 . S
C3503 C3502 1.414 . S
C3503 C3504 1.374 . S
C3504 H3478 0.950 . S
C3504 C3500 1.385 . S
C3504 C3503 1.374 . S
C3505 C3502 1.499 . S
C3505 C3506 1.373 . S
C3505 C3507 1.389 . S
C3506 H3479 0.950 . S
C3506 C3492 1.377 . S
C3506 C3505 1.373 . S
C3507 C3491 1.377 . S
C3507 C3505 1.389 . S
C3507 C3508 1.524 . S
C3508 C3507 1.524 . S
C3508 C3509 1.397 . S
C3508 C3513 1.363 . S
C3509 H3480 0.950 . S
C3509 C3508 1.397 . S
C3509 C3510 1.334 . S
C3510 H3481 0.950 . S
C3510 C3509 1.334 . S
C3510 C3511 1.287 . S
C3511 C3510 1.287 . S
C3511 C3512 1.524 . S
C3511 H3514 0.999 . S
C3512 H3482 0.950 . S
C3512 C3511 1.524 . S
C3512 C3513 1.415 . S
C3513 H3483 0.950 1_554 S
C3513 C3508 1.363 . S
C3513 C3512 1.415 . S
H3514 C3511 0.999 . S
H3515 C3496 0.913 . S
H3516 C3534 0.951 . S
H3517 C3536 0.951 . S
H3518 C3538 0.950 . S
H3519 C3539 0.950 . S
H3520 C3541 0.950 . S
H3521 C3544 0.950 . S
H3522 C3545 0.950 . S
H3523 C3547 0.950 . S
H3524 C3548 0.950 . S
H3525 C3549 0.951 . S
H3526 C3551 0.951 . S
H3527 C3553 0.950 . S
H3528 C3554 0.950 . S
H3529 C3556 0.950 . S
H3530 C3559 0.950 . S
H3531 C3560 0.950 . S
H3532 C3562 0.950 . S
H3533 C3563 0.950 . S
C3534 H3516 0.951 . S
C3534 C3535 1.366 . S
C3534 C3536 1.388 . S
C3535 C3534 1.366 . S
C3535 C3539 1.385 . S
C3536 H3517 0.951 . S
C3536 C3534 1.388 . S
C3536 C3537 1.366 . S
C3537 C3536 1.366 . S
C3537 C3538 1.414 . S
C3537 C3540 1.499 . S
C3538 H3518 0.950 . S
C3538 C3537 1.414 . S
C3538 C3539 1.374 . S
C3539 H3519 0.950 . S
C3539 C3535 1.385 . S
C3539 C3538 1.374 . S
C3540 C3537 1.499 . S
C3540 C3541 1.373 . S
C3540 C3542 1.389 . S
C3541 H3520 0.950 . S
C3541 C3540 1.373 . S
C3541 C3557 1.377 . S
C3542 C3540 1.389 . S
C3542 C3543 1.524 . S
C3542 C3556 1.377 . S
C3543 C3542 1.524 . S
C3543 C3544 1.397 . S
C3543 C3548 1.363 . S
C3544 H3521 0.950 . S
C3544 C3543 1.397 . S
C3544 C3545 1.334 . S
C3545 H3522 0.950 . S
C3545 C3544 1.334 . S
C3545 C3546 1.287 . S
C3546 C3545 1.287 . S
C3546 C3547 1.524 . S
C3546 H3565 0.913 . S
C3547 H3523 0.950 . S
C3547 C3546 1.524 . S
C3547 C3548 1.415 . S
C3548 H3524 0.950 . S
C3548 C3543 1.363 . S
C3548 C3547 1.415 . S
C3549 H3525 0.951 . S
C3549 C3550 1.366 . S
C3549 C3551 1.388 . S
C3550 C3549 1.366 . S
C3550 C3554 1.385 . S
C3551 H3526 0.951 . S
C3551 C3549 1.388 . S
C3551 C3552 1.366 . S
C3552 C3551 1.366 . S
C3552 C3553 1.414 . S
C3552 C3555 1.499 . S
C3553 H3527 0.950 . S
C3553 C3552 1.414 . S
C3553 C3554 1.374 . S
C3554 H3528 0.950 . S
C3554 C3550 1.385 . S
C3554 C3553 1.374 . S
C3555 C3552 1.499 . S
C3555 C3556 1.373 . S
C3555 C3557 1.389 . S
C3556 H3529 0.950 . S
C3556 C3542 1.377 . S
C3556 C3555 1.373 . S
C3557 C3541 1.377 . S
C3557 C3555 1.389 . S
C3557 C3558 1.524 . S
C3558 C3557 1.524 . S
C3558 C3559 1.397 . S
C3558 C3563 1.363 . S
C3559 H3530 0.950 . S
C3559 C3558 1.397 . S
C3559 C3560 1.334 . S
C3560 H3531 0.950 . S
C3560 C3559 1.334 . S
C3560 C3561 1.287 . S
C3561 C3560 1.287 . S
C3561 C3562 1.524 . S
C3561 H3564 0.999 . S
C3562 H3532 0.950 . S
C3562 C3561 1.524 . S
C3562 C3563 1.415 . S
C3563 H3533 0.950 . S
C3563 C3558 1.363 . S
C3563 C3562 1.415 . S
H3564 C3561 0.999 . S
H3565 C3546 0.913 . S
H3566 C3584 0.951 . S
H3567 C3586 0.951 . S
H3568 C3588 0.950 . S
H3569 C3589 0.950 . S
H3570 C3591 0.950 . S
H3571 C3594 0.950 . S
H3572 C3595 0.950 . S
H3573 C3597 0.950 . S
H3574 C3598 0.950 . S
H3575 C3599 0.951 . S
H3576 C3601 0.951 . S
H3577 C3603 0.950 . S
H3578 C3604 0.950 . S
H3579 C3606 0.950 . S
H3580 C3609 0.950 . S
H3581 C3610 0.950 . S
H3582 C3612 0.950 . S
H3583 C3613 0.950 . S
C3584 H3566 0.951 . S
C3584 C3585 1.366 . S
C3584 C3586 1.388 . S
C3585 C3584 1.366 . S
C3585 C3589 1.385 . S
C3586 H3567 0.951 . S
C3586 C3584 1.388 . S
C3586 C3587 1.366 . S
C3587 C3586 1.366 . S
C3587 C3588 1.414 . S
C3587 C3590 1.499 . S
C3588 H3568 0.950 . S
C3588 C3587 1.414 . S
C3588 C3589 1.374 . S
C3589 H3569 0.950 . S
C3589 C3585 1.385 . S
C3589 C3588 1.374 . S
C3590 C3587 1.499 . S
C3590 C3591 1.373 . S
C3590 C3592 1.389 . S
C3591 H3570 0.950 . S
C3591 C3590 1.373 . S
C3591 C3607 1.377 . S
C3592 C3590 1.389 . S
C3592 C3593 1.524 . S
C3592 C3606 1.377 . S
C3593 C3592 1.524 . S
C3593 C3594 1.397 . S
C3593 C3598 1.363 . S
C3594 H3571 0.950 . S
C3594 C3593 1.397 . S
C3594 C3595 1.334 . S
C3595 H3572 0.950 . S
C3595 C3594 1.334 . S
C3595 C3596 1.287 . S
C3596 C3595 1.287 . S
C3596 C3597 1.524 . S
C3596 H3615 0.913 . S
C3597 H3573 0.950 . S
C3597 C3596 1.524 . S
C3597 C3598 1.415 . S
C3598 H3574 0.950 . S
C3598 C3593 1.363 . S
C3598 C3597 1.415 . S
C3599 H3575 0.951 . S
C3599 C3600 1.366 . S
C3599 C3601 1.388 . S
C3600 C3599 1.366 . S
C3600 C3604 1.385 . S
C3601 H3576 0.951 . S
C3601 C3599 1.388 . S
C3601 C3602 1.366 . S
C3602 C3601 1.366 . S
C3602 C3603 1.414 . S
C3602 C3605 1.499 . S
C3603 H3577 0.950 . S
C3603 C3602 1.414 . S
C3603 C3604 1.374 . S
C3604 H3578 0.950 . S
C3604 C3600 1.385 . S
C3604 C3603 1.374 . S
C3605 C3602 1.499 . S
C3605 C3606 1.373 . S
C3605 C3607 1.389 . S
C3606 H3579 0.950 . S
C3606 C3592 1.377 . S
C3606 C3605 1.373 . S
C3607 C3591 1.377 . S
C3607 C3605 1.389 . S
C3607 C3608 1.524 . S
C3608 C3607 1.524 . S
C3608 C3609 1.397 . S
C3608 C3613 1.363 . S
C3609 H3580 0.950 . S
C3609 C3608 1.397 . S
C3609 C3610 1.334 . S
C3610 H3581 0.950 . S
C3610 C3609 1.334 . S
C3610 C3611 1.287 . S
C3611 C3610 1.287 . S
C3611 C3612 1.524 . S
C3611 H3614 0.999 . S
C3612 H3582 0.950 . S
C3612 C3611 1.524 . S
C3612 C3613 1.415 . S
C3613 H3583 0.950 . S
C3613 C3608 1.363 . S
C3613 C3612 1.415 . S
H3614 C3611 0.999 . S
H3615 C3596 0.913 . S
C435 C91 1.201 . S
C450 C0 1.197 1_556 S
C485 C13 1.201 . S
C500 C52 1.201 . S
C535 C65 1.201 . S
C550 C26 1.201 . S
C585 C39 1.201 . S
C600 C78 1.201 . S
C635 C104 1.201 . S
C650 C195 1.201 . S
C685 C117 1.201 . S
C700 C156 1.198 1_556 S
C735 C130 1.201 . S
C750 C169 1.201 . S
C785 C143 1.201 . S
C800 C182 1.201 . S
C835 C208 1.201 . S
C850 C299 1.201 . S
C885 C221 1.201 . S
C900 C260 1.201 . S
C935 C273 1.201 . S
C950 C234 1.199 1_556 S
C985 C286 1.200 . S
C1000 C247 1.201 . S
C1035 C312 1.201 . S
C1050 C403 1.201 . S
C1085 C364 1.201 . S
C1100 C325 1.201 . S
C1135 C377 1.201 . S
C1150 C338 1.201 . S
C1185 C351 1.201 . S
C1200 C390 1.197 1_556 S
C1235 C8 0.782 . S
C1250 C86 0.780 . S
C1285 C21 0.782 . S
C1300 C99 0.780 . S
C1335 C60 0.781 . S
C1350 C34 0.780 . S
C1385 C47 0.780 . S
C1400 C73 0.782 . S
C1435 C112 0.782 . S
C1450 C190 0.780 . S
C1485 C125 0.782 . S
C1500 C203 0.780 . S
C1535 C164 0.782 . S
C1550 C138 0.780 . S
C1585 C177 0.780 . S
C1600 C151 0.782 . S
C1635 C216 0.781 . S
C1650 C294 0.781 . S
C1685 C307 0.782 . S
C1700 C229 0.780 . S
C1735 C268 0.781 . S
C1750 C242 0.781 . S
C1785 C255 0.782 . S
C1800 C281 0.781 . S
C1835 C320 0.780 . S
C1850 C398 0.782 . S
C1885 C333 0.780 . S
C1900 C411 0.782 . S
C1935 C372 0.780 . S
C1950 C346 0.782 . S
C1985 C385 0.781 . S
C2000 C359 0.781 . S
C2035 C5 1.297 . S
C2050 C395 1.296 . S
C2085 C18 1.296 . S
C2100 C200 1.297 . S
C2135 C31 1.296 . S
C2150 C369 1.297 . S
C2185 C44 1.296 . S
C2200 C174 1.297 . S
C2235 C57 1.297 . S
C2250 C343 1.297 . S
C2285 C70 1.297 . S
C2300 C148 1.296 . S
C2335 C83 1.297 . S
C2350 C317 1.296 . S
C2385 C122 1.297 . S
C2400 C96 1.297 . S
C2435 C291 1.297 . S
C2450 C109 1.296 . S
C2485 C135 1.297 . S
C2500 C265 1.296 . S
C2535 C239 1.297 . S
C2550 C161 1.296 . S
C2585 C213 1.296 . S
C2600 C187 1.297 . S
C2635 C226 1.296 . S
C2650 C408 1.297 . S
C2685 C252 1.296 . S
C2700 C382 1.297 . S
C2735 C278 1.297 . S
C2750 C356 1.297 . S
C2785 C330 1.297 . S
C2800 C304 1.296 . S
C2835 C10 1.591 . S
C2850 C88 1.591 . S
C2885 C23 1.590 . S
C2900 C101 1.590 . S
C2935 C62 1.591 . S
C2950 C36 1.590 . S
C2985 C49 1.590 . S
C3000 C75 1.591 . S
C3035 C114 1.590 . S
C3050 C192 1.590 . S
C3085 C127 1.590 . S
C3100 C205 1.590 . S
C3135 C166 1.590 . S
C3150 C140 1.591 . S
C3185 C153 1.591 . S
C3200 C179 1.591 . S
C3235 C296 1.590 . S
C3250 C218 1.591 . S
C3285 C309 1.590 . S
C3300 C231 1.590 . S
C3335 C270 1.590 . S
C3350 C244 1.591 . S
C3385 C283 1.590 . S
C3400 C257 1.590 . S
C3435 C400 1.591 . S
C3450 C322 1.590 . S
C3485 C413 1.590 . S
C3500 C335 1.590 . S
C3535 C348 1.591 . S
C3550 C374 1.590 . S
C3585 C387 1.590 . S
C3600 C361 1.590 . S
