# Generated by pormake.
# Topology lvt, (4)-cn, num edge types: 1
# Building blocks:
#     Node 0, Type 0, BuildingBlock: KOZSID_clean_sbu_0, # of connection points: 4
#     Node 1, Type 0, BuildingBlock: KOZSID_clean_sbu_0, # of connection points: 4
#     Node 2, Type 0, BuildingBlock: KOZSID_clean_sbu_0, # of connection points: 4
#     Node 3, Type 0, BuildingBlock: KOZSID_clean_sbu_0, # of connection points: 4
#     Node 4, Type 0, BuildingBlock: KOZSID_clean_sbu_0, # of connection points: 4
#     Node 5, Type 0, BuildingBlock: KOZSID_clean_sbu_0, # of connection points: 4
#     Node 6, Type 0, BuildingBlock: KOZSID_clean_sbu_0, # of connection points: 4
#     Node 7, Type 0, BuildingBlock: KOZSID_clean_sbu_0, # of connection points: 4
#     Edge 8, Type (0, 0), BuildingBlock: MIFKUJ_clean_linker_0, # of connection points: 2
#     Edge 9, Type (0, 0), BuildingBlock: MIFKUJ_clean_linker_0, # of connection points: 2
#     Edge 10, Type (0, 0), BuildingBlock: MIFKUJ_clean_linker_0, # of connection points: 2
#     Edge 11, Type (0, 0), BuildingBlock: MIFKUJ_clean_linker_0, # of connection points: 2
#     Edge 12, Type (0, 0), BuildingBlock: MIFKUJ_clean_linker_0, # of connection points: 2
#     Edge 13, Type (0, 0), BuildingBlock: MIFKUJ_clean_linker_0, # of connection points: 2
#     Edge 14, Type (0, 0), BuildingBlock: MIFKUJ_clean_linker_0, # of connection points: 2
#     Edge 15, Type (0, 0), BuildingBlock: MIFKUJ_clean_linker_0, # of connection points: 2
#     Edge 16, Type (0, 0), BuildingBlock: MIFKUJ_clean_linker_0, # of connection points: 2
#     Edge 17, Type (0, 0), BuildingBlock: MIFKUJ_clean_linker_0, # of connection points: 2
#     Edge 18, Type (0, 0), BuildingBlock: MIFKUJ_clean_linker_0, # of connection points: 2
#     Edge 19, Type (0, 0), BuildingBlock: MIFKUJ_clean_linker_0, # of connection points: 2
#     Edge 20, Type (0, 0), BuildingBlock: MIFKUJ_clean_linker_0, # of connection points: 2
#     Edge 21, Type (0, 0), BuildingBlock: MIFKUJ_clean_linker_0, # of connection points: 2
#     Edge 22, Type (0, 0), BuildingBlock: MIFKUJ_clean_linker_0, # of connection points: 2
#     Edge 23, Type (0, 0), BuildingBlock: MIFKUJ_clean_linker_0, # of connection points: 2
# Relax obj value: 0.002
# Max RMSD: 0.023
# Mean RMSD: 0.016
data_MOF--net-lvt--node1-KOZSID_clean_sbu_0--edge1-MIFKUJ_clean_linker_0
_symmetry_space_group_name_H-M    P1
_symmetry_Int_Tables_number       1
_symmetry_cell_setting            triclinic
loop_
_symmetry_equiv_pos_as_xyz
'x, y, z'
_cell_length_a     53.941622
_cell_length_b     53.973498
_cell_length_c     49.438088
_cell_angle_alpha  84.801541
_cell_angle_beta   92.548822
_cell_angle_gamma 87.467392
loop_
_atom_site_label
_atom_site_type_symbol
_atom_site_fract_x
_atom_site_fract_y
_atom_site_fract_z
_atom_type_partial_charge
C0 C 0.03863 0.95861 0.51271 0.0
C1 C 0.04671 0.93705 0.50174 0.0
C2 C 0.03352 0.9364 0.47767 0.0
C3 C 0.01812 0.95743 0.47533 0.0
N4 N 0.02075 0.97162 0.49638 0.0
Co5 Co 1.00139 0.00337 0.50151 0.0
N6 N 0.98021 1.00099 0.46744 0.0
C7 C 0.98146 0.98263 0.45057 0.0
C8 C 0.96501 0.98624 0.42851 0.0
C9 C 0.95246 0.00826 0.43136 0.0
C10 C 0.96195 0.0168 0.45522 0.0
N11 N 0.98242 0.03539 0.50636 0.0
C12 C 0.96407 0.04806 0.4904 0.0
C13 C 0.95614 0.06973 0.50125 0.0
C14 C 0.97026 0.07108 0.52457 0.0
C15 C 0.98587 0.05021 0.52673 0.0
N16 N 0.02211 0.00541 0.53595 0.0
C17 C 0.02065 0.02353 0.5531 0.0
C18 C 0.03676 0.01958 0.57544 0.0
C19 C 0.04905 0.9974 0.57266 0.0
C20 C 0.03961 0.98905 0.54871 0.0
N21 N 0.02584 0.02264 0.48013 0.0
C22 C 0.05948 0.0509 0.44906 0.0
C23 C 0.05352 0.05679 0.47506 0.0
C24 C 0.03679 0.04266 0.49001 0.0
C25 C 0.04838 0.03039 0.43908 0.0
C26 C 0.03194 0.01661 0.45482 0.0
N27 N 0.97701 0.98411 0.52287 0.0
C28 C 0.95164 0.97864 0.56202 0.0
C29 C 0.94406 0.9557 0.55447 0.0
C30 C 0.95302 0.94743 0.53058 0.0
C31 C 0.9692 0.96184 0.51518 0.0
C32 C 0.96799 0.99237 0.54612 0.0
H33 H 0.97524 0.95449 0.49718 0.0
H34 H 0.97327 0.00951 0.55323 0.0
H35 H 0.03299 0.04837 0.5095 0.0
H36 H 0.02428 1.00126 0.44592 0.0
C37 C 0.9995 0.96315 0.45494 0.0
C38 C 0.04761 0.96528 0.53926 0.0
C39 C 0.9537 0.0405 0.46478 0.0
C40 C 0.00368 0.04385 0.54784 0.0
H41 H 0.06028 0.92288 0.5105 0.0
H42 H 0.03442 0.92187 0.46396 0.0
H43 H 0.96286 0.97459 0.41193 0.0
H44 H 0.9383 0.0172 0.41711 0.0
H45 H 0.94166 0.08323 0.49311 0.0
H46 H 0.96928 0.08557 0.53832 0.0
H47 H 0.03908 0.03128 0.59194 0.0
H48 H 0.06321 0.98828 0.58681 0.0
H49 H 0.06186 0.07215 0.48411 0.0
H50 H 0.05196 0.0251 0.41896 0.0
H51 H 0.94542 0.98579 0.58047 0.0
H52 H 0.94741 0.92997 0.52361 0.0
C53 C 0.20129 0.78079 0.7396 0.0
C54 C 0.17982 0.78816 0.75182 0.0
C55 C 0.17923 0.77371 0.77585 0.0
C56 C 0.20019 0.75831 0.77695 0.0
N57 N 0.21426 0.7621 0.75511 0.0
Co58 Co 0.24599 0.74329 0.74832 0.0
N59 N 0.24354 0.72028 0.78223 0.0
C60 C 0.22464 0.71976 0.79933 0.0
C61 C 0.22774 0.70149 0.82047 0.0
C62 C 0.25012 0.68979 0.81689 0.0
C63 C 0.25955 0.70187 0.79383 0.0
N64 N 0.27824 0.72509 0.74212 0.0
C65 C 0.29177 0.7073 0.75839 0.0
C66 C 0.31445 0.70167 0.74756 0.0
C67 C 0.31524 0.71622 0.72364 0.0
C68 C 0.29326 0.7301 0.72131 0.0
N69 N 0.24792 0.76567 0.71381 0.0
C70 C 0.26592 0.76504 0.69565 0.0
C71 C 0.26206 0.78229 0.67362 0.0
C72 C 0.24002 0.79443 0.67765 0.0
C73 C 0.23162 0.78372 0.70196 0.0
N74 N 0.26494 0.76679 0.76926 0.0
C75 C 0.29342 0.79821 0.79976 0.0
C76 C 0.29789 0.79567 0.77253 0.0
C77 C 0.28372 0.77986 0.75786 0.0
C78 C 0.27422 0.78506 0.81137 0.0
C79 C 0.26013 0.76984 0.79581 0.0
N80 N 0.22706 0.71981 0.72738 0.0
C81 C 0.22223 0.69599 0.68833 0.0
C82 C 0.19892 0.68847 0.69623 0.0
C83 C 0.19023 0.69661 0.72031 0.0
C84 C 0.20443 0.71206 0.7354 0.0
C85 C 0.23587 0.71147 0.70406 0.0
H86 H 0.19658 0.71762 0.7534 0.0
H87 H 0.25336 0.71668 0.69675 0.0
H88 H 0.28853 0.77838 0.73741 0.0
H89 H 0.24554 0.76062 0.8058 0.0
C90 C 0.2055 0.7382 0.79644 0.0
C91 C 0.20787 0.79113 0.71265 0.0
C92 C 0.28432 0.69603 0.78465 0.0
C93 C 0.28657 0.74849 0.70029 0.0
H94 H 0.1656 0.802 0.7439 0.0
H95 H 0.16468 0.77369 0.79025 0.0
H96 H 0.21557 0.69766 0.83702 0.0
H97 H 0.25882 0.67452 0.83017 0.0
H98 H 0.32925 0.68882 0.75621 0.0
H99 H 0.33033 0.71706 0.70992 0.0
H100 H 0.27387 0.78564 0.65666 0.0
H101 H 0.2311 0.80942 0.66412 0.0
H102 H 0.31269 0.80539 0.76271 0.0
H103 H 0.26988 0.78672 0.83234 0.0
H104 H 0.2298 0.69042 0.66976 0.0
H105 H 0.17254 0.69098 0.72769 0.0
C106 C 0.46452 0.04401 0.00839 0.0
C107 C 0.45448 0.06597 0.99452 0.0
C108 C 0.4659 0.06888 0.97047 0.0
C109 C 0.48237 0.04878 0.97101 0.0
N110 N 0.48206 0.03304 0.9939 0.0
Co111 Co 0.50411 0.00224 0.0035 0.0
N112 N 0.52322 0.00855 0.96979 0.0
C113 C 0.52008 0.02836 0.95096 0.0
C114 C 0.53558 0.02744 0.92982 0.0
C115 C 0.54935 0.00561 0.93531 0.0
C116 C 0.5414 0.99444 0.95962 0.0
N117 N 0.52556 0.97098 0.01265 0.0
C118 C 0.54294 0.96004 0.99799 0.0
C119 C 0.55259 0.93768 0.01121 0.0
C120 C 0.54056 0.93409 0.03484 0.0
C121 C 0.52435 0.95439 0.03469 0.0
N122 N 0.48564 0.9964 0.0377 0.0
C123 C 0.48955 0.97717 0.05718 0.0
C124 C 0.47431 0.97826 0.0785 0.0
C125 C 0.46012 0.99977 0.07263 0.0
C126 C 0.46771 0.01071 0.04803 0.0
N127 N 0.48013 0.98257 0.98341 0.0
C128 C 0.44805 0.95314 0.95405 0.0
C129 C 0.45439 0.94697 0.98169 0.0
C130 C 0.47039 0.96163 0.99574 0.0
C131 C 0.45783 0.97468 0.9416 0.0
C132 C 0.47341 0.98908 0.95654 0.0
N133 N 0.52804 0.02191 0.02361 0.0
C134 C 0.55511 0.02657 0.06314 0.0
C135 C 0.55917 0.05124 0.0539 0.0
C136 C 0.54789 0.06072 0.02889 0.0
C137 C 0.53273 0.04584 0.01413 0.0
C138 C 0.53956 0.01239 0.04787 0.0
H139 H 0.5248 0.05424 0.99522 0.0
H140 H 0.53685 0.99389 0.05631 0.0
H141 H 0.4747 0.9555 0.01655 0.0
H142 H 0.48 0.00526 0.94574 0.0
C143 C 0.50057 0.04602 0.95216 0.0
C144 C 0.45785 0.03504 0.03583 0.0
C145 C 0.55051 0.96975 0.97128 0.0
C146 C 0.50753 0.95821 0.05471 0.0
H147 H 0.44093 0.0791 1.00132 0.0
H148 H 0.46339 0.08446 0.95505 0.0
H149 H 0.53609 0.04056 0.91197 0.0
H150 H 0.56311 0.99838 0.92242 0.0
H151 H 0.56665 0.92511 0.00429 0.0
H152 H 0.54306 0.91838 0.0501 0.0
H153 H 0.47371 0.96509 0.0963 0.0
H154 H 0.44597 0.00675 0.08523 0.0
H155 H 0.44701 0.9309 0.99271 0.0
H156 H 0.45394 0.98035 0.92022 0.0
H157 H 0.56338 0.01838 0.08244 0.0
H158 H 0.55082 0.07958 0.02059 0.0
C159 C 0.26628 0.28079 0.19885 0.0
C160 C 0.25591 0.29015 0.17358 0.0
C161 C 0.23429 0.27843 0.1699 0.0
C162 C 0.23273 0.26257 0.19296 0.0
N163 N 0.25189 0.26363 0.21136 0.0
Co164 Co 0.25773 0.24247 0.24681 0.0
N165 N 0.22603 0.22496 0.24115 0.0
C166 C 0.20943 0.22907 0.2197 0.0
C167 C 0.18877 0.2153 0.22213 0.0
C168 C 0.19215 0.20181 0.24682 0.0
C169 C 0.21483 0.20811 0.25799 0.0
N170 N 0.26387 0.22093 0.28195 0.0
C171 C 0.24933 0.20405 0.29465 0.0
C172 C 0.26056 0.19332 0.31896 0.0
C173 C 0.28283 0.20405 0.32195 0.0
C174 C 0.28397 0.2206 0.29935 0.0
N175 N 0.28905 0.26046 0.25289 0.0
C176 C 0.30518 0.25693 0.27481 0.0
C177 C 0.32493 0.27203 0.27334 0.0
C178 C 0.32135 0.28595 0.24893 0.0
C179 C 0.2996 0.27836 0.23679 0.0
N180 N 0.23903 0.26757 0.26605 0.0
C181 C 0.21101 0.30096 0.29478 0.0
C182 C 0.23389 0.29047 0.3055 0.0
C183 C 0.24741 0.27386 0.29099 0.0
C184 C 0.20265 0.29487 0.26918 0.0
C185 C 0.21694 0.27847 0.25518 0.0
N186 N 0.27651 0.21734 0.22747 0.0
C187 C 0.31488 0.19419 0.22054 0.0
C188 C 0.30452 0.18468 0.1974 0.0
C189 C 0.27955 0.1913 0.19019 0.0
C190 C 0.26613 0.20759 0.20518 0.0
C191 C 0.30062 0.21001 0.23529 0.0
H192 H 0.24744 0.21217 0.19811 0.0
H193 H 0.30972 0.21634 0.25273 0.0
H194 H 0.26444 0.26609 0.30055 0.0
H195 H 0.20962 0.27473 0.23569 0.0
C196 C 0.21357 0.24642 0.19786 0.0
C197 C 0.29026 0.28812 0.20958 0.0
C198 C 0.22449 0.19823 0.28504 0.0
C199 C 0.30228 0.23789 0.29537 0.0
H200 H 0.26337 0.30377 0.15911 0.0
H201 H 0.2214 0.28094 0.15235 0.0
H202 H 0.17292 0.21542 0.20789 0.0
H203 H 0.17918 0.18909 0.25579 0.0
H204 H 0.25313 0.17957 0.33333 0.0
H205 H 0.29619 0.20084 0.33904 0.0
H206 H 0.34043 0.27241 0.28795 0.0
H207 H 0.33362 0.29978 0.24072 0.0
H208 H 0.24106 0.29454 0.32535 0.0
H209 H 0.18519 0.30286 0.25988 0.0
H210 H 0.33414 0.19001 0.2271 0.0
H211 H 0.27021 0.18403 0.17299 0.0
C212 C 0.76816 0.21939 0.30158 0.0
C213 C 0.76085 0.21172 0.32753 0.0
C214 C 0.74394 0.22944 0.33437 0.0
C215 C 0.74185 0.24694 0.31241 0.0
N216 N 0.75609 0.24121 0.29192 0.0
Co217 Co 0.75955 0.26258 0.25745 0.0
N218 N 0.72918 0.28325 0.26329 0.0
C219 C 0.718 0.2845 0.28695 0.0
C220 C 0.69675 0.29965 0.28448 0.0
C221 C 0.69448 0.30857 0.2576 0.0
C222 C 0.71471 0.29851 0.24519 0.0
N223 N 0.76287 0.28398 0.22309 0.0
C224 C 0.74571 0.29938 0.20848 0.0
C225 C 0.75583 0.31111 0.18567 0.0
C226 C 0.78017 0.30258 0.18605 0.0
C227 C 0.78355 0.28626 0.20902 0.0
N228 N 0.79008 0.24215 0.25151 0.0
C229 C 0.80748 0.24836 0.23368 0.0
C230 C 0.82632 0.23048 0.23357 0.0
C231 C 0.82073 0.21206 0.25289 0.0
C232 C 0.79885 0.2199 0.26403 0.0
N233 N 0.73936 0.24011 0.23765 0.0
C234 C 0.70998 0.20891 0.20862 0.0
C235 C 0.73299 0.21606 0.19936 0.0
C236 C 0.74722 0.23185 0.21396 0.0
C237 C 0.70202 0.21761 0.23278 0.0
C238 C 0.71709 0.2329 0.24714 0.0
N239 N 0.77978 0.28507 0.27728 0.0
C240 C 0.81239 0.29099 0.3107 0.0
C241 C 0.80868 0.31693 0.30625 0.0
C242 C 0.79006 0.32655 0.28689 0.0
C243 C 0.77588 0.31036 0.27267 0.0
C244 C 0.79791 0.27552 0.29606 0.0
H245 H 0.76174 0.31833 0.25793 0.0
H246 H 0.80142 0.25575 0.30015 0.0
H247 H 0.76454 0.2375 0.20594 0.0
H248 H 0.71063 0.23899 0.26587 0.0
C249 C 0.7251 0.26761 0.30931 0.0
C250 C 0.78907 0.20742 0.28875 0.0
C251 C 0.72033 0.30451 0.21662 0.0
C252 C 0.80394 0.26953 0.21516 0.0
H253 H 0.76762 0.19549 0.34066 0.0
H254 H 0.73426 0.22949 0.35308 0.0
H255 H 0.68372 0.30277 0.3 0.0
H256 H 0.67949 0.32084 0.24829 0.0
H257 H 0.7466 0.32444 0.1704 0.0
H258 H 0.79346 0.30694 0.17075 0.0
H259 H 0.84201 0.2306 0.22067 0.0
H260 H 0.83192 0.19512 0.25872 0.0
H261 H 0.73972 0.20987 0.18065 0.0
H262 H 0.68441 0.21234 0.24073 0.0
H263 H 0.82617 0.28255 0.32573 0.0
H264 H 0.78662 0.34645 0.28247 0.0
C265 C 0.70311 0.72859 0.76307 0.0
C266 C 0.68133 0.72237 0.74985 0.0
C267 C 0.67885 0.73726 0.72597 0.0
C268 C 0.69921 0.75156 0.72591 0.0
N269 N 0.71468 0.74664 0.74823 0.0
Co270 Co 0.74647 0.76315 0.75632 0.0
N271 N 0.74174 0.78646 0.72222 0.0
C272 C 0.72209 0.78803 0.70404 0.0
C273 C 0.72434 0.80519 0.68223 0.0
C274 C 0.74685 0.81507 0.68655 0.0
C275 C 0.75708 0.80336 0.71093 0.0
N276 N 0.77863 0.77915 0.76398 0.0
C277 C 0.79074 0.79633 0.74847 0.0
C278 C 0.8132 0.80161 0.76097 0.0
C279 C 0.81565 0.78689 0.78494 0.0
C280 C 0.79462 0.77356 0.78576 0.0
N281 N 0.75085 0.74032 0.79082 0.0
C282 C 0.76971 0.73981 0.80987 0.0
C283 C 0.76717 0.72301 0.83195 0.0
C284 C 0.7452 0.71231 0.82692 0.0
C285 C 0.73563 0.72319 0.80188 0.0
N286 N 0.76488 0.73853 0.73611 0.0
C287 C 0.79292 0.70589 0.70622 0.0
C288 C 0.79953 0.70892 0.73338 0.0
C289 C 0.78547 0.72523 0.74774 0.0
C290 C 0.77161 0.71915 0.69458 0.0
C291 C 0.75791 0.73501 0.70979 0.0
N292 N 0.72803 0.78779 0.77658 0.0
C293 C 0.72419 0.81092 0.81609 0.0
C294 C 0.70022 0.81989 0.80724 0.0
C295 C 0.69073 0.81305 0.78237 0.0
C296 C 0.70484 0.79726 0.76746 0.0
C297 C 0.73763 0.79506 0.8006 0.0
H298 H 0.69644 0.79279 0.74875 0.0
H299 H 0.75561 0.78866 0.80872 0.0
H300 H 0.79179 0.72691 0.76818 0.0
H301 H 0.74192 0.74448 0.69963 0.0
C302 C 0.70324 0.77115 0.7064 0.0
C303 C 0.71163 0.71723 0.78997 0.0
C304 C 0.78202 0.80778 0.72164 0.0
C305 C 0.78955 0.75537 0.80643 0.0
H306 H 0.66836 0.70878 0.75696 0.0
H307 H 0.66366 0.73803 0.71081 0.0
H308 H 0.71161 0.80925 0.66467 0.0
H309 H 0.7551 0.82875 0.6728 0.0
H310 H 0.82657 0.81456 0.75337 0.0
H311 H 0.8311 0.78576 0.79982 0.0
H312 H 0.77966 0.71921 0.84974 0.0
H313 H 0.737 0.69833 0.84036 0.0
H314 H 0.81549 0.69872 0.7437 0.0
H315 H 0.76569 0.7178 0.67357 0.0
H316 H 0.73237 0.81555 0.83528 0.0
H317 H 0.67244 0.81989 0.77432 0.0
C318 C 0.46485 0.51434 0.95288 0.0
C319 C 0.45595 0.50593 0.92874 0.0
C320 C 0.46918 0.48432 0.92572 0.0
C321 C 0.48526 0.48074 0.94813 0.0
N322 N 0.48294 0.49859 0.9655 0.0
Co323 Co 0.50301 0.50089 1.0003 0.0
N324 N 0.52377 0.47006 0.99481 0.0
C325 C 0.52174 0.4559 0.97365 0.0
C326 C 0.53773 0.43532 0.97597 0.0
C327 C 0.55065 0.43619 1.00016 0.0
C328 C 0.54187 0.45746 0.01121 0.0
N329 N 0.52305 0.50318 0.03511 0.0
C330 C 0.54141 0.48763 0.04754 0.0
C331 C 0.55046 0.49626 0.07152 0.0
C332 C 0.53697 0.51767 0.0747 0.0
C333 C 0.52064 0.52101 0.05251 0.0
N334 N 0.48228 0.53175 0.00575 0.0
C335 C 0.4842 0.54589 0.02693 0.0
C336 C 0.46803 0.56636 0.02465 0.0
C337 C 0.45516 0.56545 1.00042 0.0
C338 C 0.46423 0.54434 0.98931 0.0
N339 N 0.47915 0.47999 0.02065 0.0
C340 C 0.44705 0.44925 0.05079 0.0
C341 C 0.45438 0.4717 0.0599 0.0
C342 C 0.47032 0.4866 0.04471 0.0
C343 C 0.45579 0.44267 0.0261 0.0
C344 C 0.47155 0.45821 0.01145 0.0
N345 N 0.52683 0.5218 0.97996 0.0
C346 C 0.55027 0.55907 0.9747 0.0
C347 C 0.55851 0.5529 0.94964 0.0
C348 C 0.55096 0.53059 0.94031 0.0
C349 C 0.53529 0.51548 0.95563 0.0
C350 C 0.53468 0.5434 0.9894 0.0
H351 H 0.53003 0.49892 0.94719 0.0
H352 H 0.52909 0.54928 0.00825 0.0
H353 H 0.47545 0.50324 0.05304 0.0
H354 H 0.47743 0.45209 0.9928 0.0
C355 C 0.50358 0.46156 0.95272 0.0
C356 C 0.45592 0.53771 0.96254 0.0
C357 C 0.5505 0.46428 0.03785 0.0
C358 C 0.50231 0.54021 0.04791 0.0
H359 H 0.44162 0.51471 0.91457 0.0
H360 H 0.46763 0.47286 0.90891 0.0
H361 H 0.53929 0.42099 0.96209 0.0
H362 H 0.56454 0.42235 0.0089 0.0
H363 H 0.56512 0.48779 0.08546 0.0
H364 H 0.53863 0.52925 0.0914 0.0
H365 H 0.46628 0.5806 0.03861 0.0
H366 H 0.44107 0.57909 0.99166 0.0
H367 H 0.44829 0.47756 0.07902 0.0
H368 H 0.45034 0.42566 0.01792 0.0
H369 H 0.55592 0.57591 0.98311 0.0
H370 H 0.55664 0.52501 0.92092 0.0
C371 C 0.04225 0.51046 0.54696 0.0
C372 C 0.053 0.499 0.5712 0.0
C373 C 0.0419 0.4769 0.57601 0.0
C374 C 0.02507 0.47609 0.55454 0.0
N375 N 0.02483 0.49629 0.53621 0.0
Co376 Co 0.00302 0.50261 0.50205 0.0
N377 N 0.98473 0.47153 0.51083 0.0
C378 C 0.98756 0.45599 0.53391 0.0
C379 C 0.97223 0.43638 0.53442 0.0
C380 C 0.95893 0.43945 0.51012 0.0
C381 C 0.9671 0.46075 0.49604 0.0
N382 N 0.98216 0.5082 0.46715 0.0
C383 C 0.96565 0.49336 0.45584 0.0
C384 C 0.95706 0.50332 0.43006 0.0
C385 C 0.96853 0.52514 0.42487 0.0
C386 C 0.98358 0.52718 0.44754 0.0
N387 N 0.02038 0.53441 0.49402 0.0
C388 C 0.01583 0.55128 0.47223 0.0
C389 C 0.02954 0.57201 0.47291 0.0
C390 C 0.0434 0.56841 0.49682 0.0
C391 C 0.0373 0.54558 0.50938 0.0
N392 N 0.02797 0.48364 0.48255 0.0
C393 C 0.06025 0.45542 0.45254 0.0
C394 C 0.05486 0.48069 0.4449 0.0
C395 C 0.03867 0.49431 0.45996 0.0
C396 C 0.04987 0.4447 0.47589 0.0
C397 C 0.03419 0.45909 0.49067 0.0
N398 N 0.97806 0.52159 0.52155 0.0
C399 C 0.94807 0.55624 0.52247 0.0
C400 C 0.94537 0.55062 0.55028 0.0
C401 C 0.95875 0.52986 0.5633 0.0
C402 C 0.97461 0.51556 0.54863 0.0
C403 C 0.96451 0.54171 0.50864 0.0
H404 H 0.98406 0.49986 0.55978 0.0
H405 H 0.9662 0.54736 0.48761 0.0
H406 H 0.03483 0.51334 0.45267 0.0
H407 H 0.02712 0.44981 0.50844 0.0
C408 C 0.00697 0.45849 0.55297 0.0
C409 C 0.04799 0.53547 0.53595 0.0
C410 C 0.95825 0.46937 0.46829 0.0
C411 C 0.99904 0.54678 0.45117 0.0
H412 H 0.06684 0.50621 0.58453 0.0
H413 H 0.04492 0.46357 0.59369 0.0
H414 H 0.97153 0.42111 0.5501 0.0
H415 H 0.94523 0.42707 0.50323 0.0
H416 H 0.94415 0.49549 0.41618 0.0
H417 H 0.96642 0.53784 0.40658 0.0
H418 H 0.02941 0.58789 0.45785 0.0
H419 H 0.05644 0.58119 0.50426 0.0
H420 H 0.06253 0.48975 0.4269 0.0
H421 H 0.05391 0.42525 0.48281 0.0
H422 H 0.93807 0.57222 0.51157 0.0
H423 H 0.95691 0.52459 0.58477 0.0
H424 H 0.09334 0.03483 0.41352 0.0
H425 H 0.12115 0.05967 0.38591 0.0
H426 H 0.09441 0.12591 0.42022 0.0
H427 H 0.06535 0.10148 0.44661 0.0
H428 H 0.0989 0.13645 0.36859 0.0
H429 H 0.15247 0.09464 0.44008 0.0
H430 H 0.1713 0.05864 0.4693 0.0
H431 H 0.19988 0.02766 0.39931 0.0
H432 H 0.18093 0.06333 0.36961 0.0
H433 H 0.19652 0.21309 0.32555 0.0
H434 H 0.16911 0.18791 0.35413 0.0
H435 H 0.18963 0.12337 0.31303 0.0
H436 H 0.21714 0.14864 0.28461 0.0
H437 H 0.18866 0.11217 0.36814 0.0
H438 H 0.13515 0.15508 0.29698 0.0
H439 H 0.11726 0.19205 0.26865 0.0
H440 H 0.08925 0.22195 0.33951 0.0
H441 H 0.10735 0.18533 0.36835 0.0
C442 C 0.09306 0.05473 0.41502 0.0
C443 C 0.07699 0.06602 0.4325 0.0
C444 C 0.10931 0.06891 0.39943 0.0
C445 C 0.1103 0.09469 0.40126 0.0
C446 C 0.09417 0.10606 0.4185 0.0
C447 C 0.07771 0.09194 0.43387 0.0
C448 C 0.1279 0.10983 0.38501 0.0
C449 C 0.11858 0.13128 0.36885 0.0
C450 C 0.15357 0.10296 0.38478 0.0
C451 C 0.16508 0.08154 0.4026 0.0
C452 C 0.16262 0.08006 0.4309 0.0
C453 C 0.17334 0.05973 0.44755 0.0
C454 C 0.18673 0.04084 0.43616 0.0
C455 C 0.18948 0.04229 0.4081 0.0
C456 C 0.17877 0.06257 0.39135 0.0
C457 C 0.19517 0.19349 0.32283 0.0
C458 C 0.20873 0.18268 0.30299 0.0
C459 C 0.1795 0.17915 0.33902 0.0
C460 C 0.17709 0.15378 0.33554 0.0
C461 C 0.19116 0.14288 0.31607 0.0
C462 C 0.20678 0.15726 0.29984 0.0
C463 C 0.15963 0.1387 0.3519 0.0
C464 C 0.16898 0.11729 0.368 0.0
C465 C 0.13404 0.1457 0.35223 0.0
C466 C 0.12281 0.16756 0.33486 0.0
C467 C 0.12532 0.16961 0.30655 0.0
C468 C 0.11513 0.1905 0.2904 0.0
C469 C 0.10217 0.20936 0.30228 0.0
C470 C 0.09931 0.20734 0.33034 0.0
C471 C 0.10953 0.18651 0.3466 0.0
H472 H 0.09429 0.22553 0.28974 0.0
H473 H 0.19501 0.02511 0.44909 0.0
H474 H 0.09627 0.95234 0.53264 0.0
H475 H 0.12351 0.92235 0.56182 0.0
H476 H 0.06373 0.90934 0.61579 0.0
H477 H 0.03641 0.93882 0.58618 0.0
H478 H 0.14085 0.92052 0.61248 0.0
H479 H 0.06703 0.84906 0.64249 0.0
H480 H 0.02825 0.83389 0.62301 0.0
H481 H 0.05117 0.85483 0.54239 0.0
H482 H 0.09023 0.86975 0.56135 0.0
H483 H 0.19246 0.83837 0.72203 0.0
H484 H 0.16448 0.86761 0.69298 0.0
H485 H 0.15713 0.81291 0.63493 0.0
H486 H 0.18403 0.7833 0.66477 0.0
H487 H 0.11451 0.83497 0.63805 0.0
H488 H 0.19641 0.86337 0.62663 0.0
H489 H 0.23751 0.87692 0.64143 0.0
H490 H 0.20287 0.93912 0.67593 0.0
H491 H 0.16152 0.92573 0.66169 0.0
C492 C 0.08906 0.94293 0.55071 0.0
C493 C 0.06431 0.94753 0.55715 0.0
C494 C 0.10459 0.92595 0.56742 0.0
C495 C 0.09561 0.91333 0.59085 0.0
C496 C 0.07097 0.91847 0.59759 0.0
C497 C 0.05542 0.93533 0.58079 0.0
C498 C 0.11194 0.8947 0.60813 0.0
C499 C 0.13508 0.90183 0.61809 0.0
C500 C 0.10471 0.8701 0.615 0.0
C501 C 0.08144 0.86076 0.60338 0.0
C502 C 0.06384 0.85032 0.62061 0.0
C503 C 0.0418 0.84178 0.60965 0.0
C504 C 0.03721 0.84347 0.58149 0.0
C505 C 0.0547 0.85361 0.5642 0.0
C506 C 0.07678 0.86213 0.57505 0.0
C507 C 0.18455 0.8326 0.70321 0.0
C508 C 0.19022 0.80866 0.69558 0.0
C509 C 0.16878 0.84934 0.68649 0.0
C510 C 0.15897 0.84268 0.66146 0.0
C511 C 0.16441 0.81855 0.65409 0.0
C512 C 0.17984 0.80169 0.67103 0.0
C513 C 0.14333 0.86088 0.64278 0.0
C514 C 0.1203 0.85368 0.63253 0.0
C515 C 0.15101 0.88517 0.63496 0.0
C516 C 0.17586 0.89343 0.64329 0.0
C517 C 0.19755 0.87986 0.63751 0.0
C518 C 0.22089 0.88751 0.64579 0.0
C519 C 0.2228 0.90884 0.65966 0.0
C520 C 0.20136 0.92259 0.66521 0.0
C521 C 0.17797 0.91499 0.65702 0.0
H522 H 0.24089 0.91473 0.66606 0.0
H523 H 0.02013 0.83688 0.57305 0.0
H524 H 0.41464 0.96758 0.91091 0.0
H525 H 0.38903 0.94142 0.88477 0.0
H526 H 0.4168 0.87648 0.93635 0.0
H527 H 0.44412 0.90218 0.96113 0.0
H528 H 0.41415 0.86431 0.88817 0.0
H529 H 0.35616 0.90663 0.94053 0.0
H530 H 0.33494 0.94261 0.95854 0.0
H531 H 0.30998 0.97126 0.87758 0.0
H532 H 0.33133 0.9356 0.85905 0.0
H533 H 0.31615 0.78651 0.85013 0.0
H534 H 0.34232 0.81279 0.87631 0.0
H535 H 0.33144 0.87252 0.81225 0.0
H536 H 0.30557 0.84619 0.7858 0.0
H537 H 0.3248 0.88677 0.86685 0.0
H538 H 0.38392 0.84295 0.81568 0.0
H539 H 0.40462 0.8058 0.79948 0.0
H540 H 0.42584 0.77804 0.88177 0.0
H541 H 0.40502 0.81494 0.8985 0.0
C542 C 0.4157 0.9477 0.91656 0.0
C543 C 0.43161 0.9372 0.93839 0.0
C544 C 0.40061 0.93273 0.90178 0.0
C545 C 0.40044 0.90691 0.90883 0.0
C546 C 0.41636 0.89634 0.93049 0.0
C547 C 0.43181 0.91122 0.94496 0.0
C548 C 0.38407 0.89087 0.89338 0.0
C549 C 0.39454 0.86912 0.88395 0.0
C550 C 0.35846 0.89713 0.8873 0.0
C551 C 0.34555 0.91857 0.89839 0.0
C552 C 0.34629 0.92069 0.92655 0.0
C553 C 0.33422 0.94102 0.93686 0.0
C554 C 0.32118 0.95924 0.91921 0.0
C555 C 0.32012 0.95715 0.89122 0.0
C556 C 0.33218 0.93687 0.88081 0.0
C557 C 0.31926 0.80529 0.84171 0.0
C558 C 0.30883 0.81431 0.81592 0.0
C559 C 0.33429 0.82023 0.85661 0.0
C560 C 0.33888 0.84459 0.84619 0.0
C561 C 0.32815 0.85379 0.82065 0.0
C562 C 0.31348 0.83871 0.80553 0.0
C563 C 0.35497 0.86044 0.86187 0.0
C564 C 0.34442 0.88207 0.87128 0.0
C565 C 0.38035 0.85386 0.86833 0.0
C566 C 0.39272 0.83159 0.85835 0.0
C567 C 0.3928 0.82882 0.83034 0.0
C568 C 0.40462 0.80785 0.82106 0.0
C569 C 0.41656 0.7896 0.83958 0.0
C570 C 0.41663 0.79223 0.86745 0.0
C571 C 0.40485 0.81318 0.87684 0.0
H572 H 0.42578 0.77343 0.83234 0.0
H573 H 0.31184 0.97496 0.92723 0.0
H574 H 0.34332 0.15095 0.21454 0.0
H575 H 0.36916 0.12617 0.18673 0.0
H576 H 0.32548 0.15521 0.11489 0.0
H577 H 0.30048 0.18139 0.14203 0.0
H578 H 0.33672 0.09823 0.12548 0.0
H579 H 0.37408 0.17899 0.11803 0.0
H580 H 0.39246 0.2149 0.13743 0.0
H581 H 0.44936 0.16634 0.18005 0.0
H582 H 0.43105 0.13008 0.16123 0.0
H583 H 0.40946 0.0516 0.02435 0.0
H584 H 0.38339 0.07753 0.05096 0.0
H585 H 0.44348 0.07766 0.1117 0.0
H586 H 0.47014 0.05364 0.08376 0.0
H587 H 0.42325 0.1201 0.10773 0.0
H588 H 0.38921 0.03984 0.1178 0.0
H589 H 0.37168 1.00154 0.10309 0.0
H590 H 0.31002 0.04461 0.06208 0.0
H591 H 0.32737 0.08322 0.07624 0.0
C592 C 0.33931 0.15249 0.1928 0.0
C593 C 0.31968 0.16844 0.18071 0.0
C594 C 0.35402 0.13806 0.17698 0.0
C595 C 0.34919 0.13888 0.14881 0.0
C596 C 0.32938 0.15423 0.13666 0.0
C597 C 0.31497 0.16906 0.15235 0.0
C598 C 0.36511 0.12406 0.13195 0.0
C599 C 0.35555 0.10308 0.12125 0.0
C600 C 0.38991 0.12999 0.12736 0.0
C601 C 0.40103 0.15181 0.13847 0.0
C602 C 0.39036 0.17594 0.13175 0.0
C603 C 0.4008 0.19637 0.14259 0.0
C604 C 0.42202 0.1929 0.16003 0.0
C605 C 0.4329 0.169 0.16658 0.0
C606 C 0.4225 0.14851 0.15582 0.0
C607 C 0.41712 0.05754 0.0432 0.0
C608 C 0.44182 0.05086 0.05193 0.0
C609 C 0.40212 0.07204 0.05865 0.0
C610 C 0.41116 0.07923 0.08379 0.0
C611 C 0.43593 0.07247 0.09246 0.0
C612 C 0.45114 0.05862 0.0766 0.0
C613 C 0.39499 0.09393 0.10093 0.0
C614 C 0.40446 0.11499 0.11181 0.0
C615 C 0.37028 0.08764 0.1063 0.0
C616 C 0.35972 0.06444 0.09787 0.0
C617 C 0.372 0.04116 0.1055 0.0
C618 C 0.36208 0.01939 0.09728 0.0
C619 C 0.33978 0.02065 0.0816 0.0
C620 C 0.32731 0.04367 0.07419 0.0
C621 C 0.33716 0.0655 0.08233 0.0
H622 H 0.33213 0.00377 0.07525 0.0
H623 H 0.43008 0.20873 0.1684 0.0
H624 H 0.9027 0.97159 0.57957 0.0
H625 H 0.87539 0.94658 0.60796 0.0
H626 H 0.9199 0.8803 0.59651 0.0
H627 H 0.94715 0.90521 0.56789 0.0
H628 H 0.87234 0.87104 0.59213 0.0
H629 H 0.92373 0.90941 0.65657 0.0
H630 H 0.94312 0.94431 0.67697 0.0
H631 H 0.87103 0.97631 0.6909 0.0
H632 H 0.8512 0.94177 0.67024 0.0
H633 H 0.82353 0.79199 0.69764 0.0
H634 H 0.85135 0.8171 0.66964 0.0
H635 H 0.80605 0.88322 0.67987 0.0
H636 H 0.77864 0.85809 0.70846 0.0
H637 H 0.854 0.89248 0.68489 0.0
H638 H 0.8027 0.85367 0.62061 0.0
H639 H 0.78359 0.81835 0.60077 0.0
H640 H 0.85589 0.7868 0.58691 0.0
H641 H 0.87545 0.82176 0.60705 0.0
C642 C 0.90678 0.95171 0.58324 0.0
C643 C 0.92719 0.94044 0.57151 0.0
C644 C 0.89114 0.93741 0.59951 0.0
C645 C 0.89573 0.91154 0.60476 0.0
C646 C 0.91592 0.9002 0.59279 0.0
C647 C 0.93147 0.91447 0.57636 0.0
C648 C 0.87947 0.89628 0.62261 0.0
C649 C 0.86862 0.87556 0.61255 0.0
C650 C 0.8741 0.9024 0.64908 0.0
C651 C 0.88599 0.92313 0.66162 0.0
C652 C 0.91201 0.92399 0.66381 0.0
C653 C 0.92308 0.94369 0.67544 0.0
C654 C 0.90832 0.96255 0.68516 0.0
C655 C 0.88245 0.96171 0.68333 0.0
C656 C 0.87128 0.94206 0.67168 0.0
C657 C 0.81964 0.8119 0.69387 0.0
C658 C 0.79893 0.82318 0.70487 0.0
C659 C 0.83541 0.82622 0.67779 0.0
C660 C 0.8306 0.85205 0.67223 0.0
C661 C 0.81012 0.86335 0.68375 0.0
C662 C 0.79442 0.84904 0.69994 0.0
C663 C 0.84689 0.86727 0.65441 0.0
C664 C 0.85773 0.88798 0.66447 0.0
C665 C 0.85229 0.86111 0.62797 0.0
C666 C 0.84055 0.84023 0.61556 0.0
C667 C 0.81453 0.83912 0.61349 0.0
C668 C 0.80362 0.81917 0.60218 0.0
C669 C 0.81852 0.80032 0.59264 0.0
C670 C 0.84437 0.80141 0.59433 0.0
C671 C 0.85538 0.82129 0.60567 0.0
H672 H 0.81003 0.78489 0.58389 0.0
H673 H 0.91692 0.97778 0.69416 0.0
H674 H 0.90467 0.03364 0.45312 0.0
H675 H 0.87518 0.06136 0.42392 0.0
H676 H 0.93257 0.11354 0.40972 0.0
H677 H 0.96211 0.08564 0.43857 0.0
H678 H 0.88624 0.13599 0.42145 0.0
H679 H 0.91932 0.07678 0.36304 0.0
H680 H 0.92898 0.03439 0.35042 0.0
H681 H 0.85138 0.01962 0.34854 0.0
H682 H 0.84129 0.0618 0.36167 0.0
H683 H 0.83495 0.21439 0.31082 0.0
H684 H 0.86178 0.18498 0.34052 0.0
H685 H 0.80628 0.12992 0.33728 0.0
H686 H 0.78006 0.15905 0.30585 0.0
H687 H 0.84957 0.10771 0.33635 0.0
H688 H 0.81531 0.1663 0.3929 0.0
H689 H 0.80443 0.20798 0.40682 0.0
H690 H 0.88177 0.22317 0.41442 0.0
H691 H 0.89312 0.1817 0.40012 0.0
C692 C 0.91087 0.05104 0.44369 0.0
C693 C 0.93558 0.05755 0.4478 0.0
C694 C 0.89409 0.06682 0.42709 0.0
C695 C 0.90175 0.08943 0.41455 0.0
C696 C 0.92629 0.0962 0.41923 0.0
C697 C 0.94313 0.0803 0.43559 0.0
C698 C 0.88437 0.10578 0.39599 0.0
C699 C 0.87837 0.12994 0.4027 0.0
C700 C 0.87355 0.09756 0.37199 0.0
C701 C 0.87957 0.07236 0.36361 0.0
C702 C 0.90433 0.06443 0.36014 0.0
C703 C 0.90988 0.04045 0.35288 0.0
C704 C 0.89081 0.0243 0.34874 0.0
C705 C 0.86614 0.03214 0.35179 0.0
C706 C 0.86049 0.05608 0.35914 0.0
C707 C 0.82871 0.19584 0.31609 0.0
C708 C 0.8056 0.18881 0.3059 0.0
C709 C 0.84388 0.17914 0.33337 0.0
C710 C 0.83587 0.15535 0.34176 0.0
C711 C 0.81288 0.14817 0.33123 0.0
C712 C 0.79789 0.16476 0.31336 0.0
C713 C 0.8515 0.13819 0.36158 0.0
C714 C 0.85721 0.11382 0.35516 0.0
C715 C 0.86179 0.14613 0.38609 0.0
C716 C 0.85506 0.17092 0.39524 0.0
C717 C 0.83 0.17856 0.39741 0.0
C718 C 0.82375 0.20215 0.40537 0.0
C719 C 0.8424 0.21823 0.41145 0.0
C720 C 0.86735 0.2107 0.40968 0.0
C721 C 0.8737 0.18713 0.40168 0.0
H722 H 0.83753 0.2365 0.41757 0.0
H723 H 0.89515 0.00574 0.34312 0.0
H724 H 0.66146 0.21719 0.19068 0.0
H725 H 0.63598 0.19059 0.16441 0.0
H726 H 0.69762 0.13651 0.16635 0.0
H727 H 0.72346 0.16385 0.19131 0.0
H728 H 0.67701 0.1389 0.11947 0.0
H729 H 0.64384 0.13019 0.20792 0.0
H730 H 0.62591 0.14434 0.24924 0.0
H731 H 0.56313 0.17873 0.20142 0.0
H732 H 0.58084 0.16505 0.15976 0.0
H733 H 0.60417 0.03886 0.08098 0.0
H734 H 0.62968 0.06531 0.10759 0.0
H735 H 0.57484 0.12594 0.09059 0.0
H736 H 0.54923 0.09959 0.06409 0.0
H737 H 0.59172 0.1194 0.14523 0.0
H738 H 0.62641 0.12652 0.05667 0.0
H739 H 0.64479 0.11017 0.0167 0.0
H740 H 0.70567 0.07553 0.06741 0.0
H741 H 0.68745 0.0914 0.10776 0.0
C742 C 0.66948 0.19958 0.18553 0.0
C743 C 0.69437 0.19251 0.19313 0.0
C744 C 0.65487 0.18426 0.17064 0.0
C745 C 0.66458 0.16113 0.16377 0.0
C746 C 0.68956 0.15417 0.17132 0.0
C747 C 0.70433 0.16976 0.18566 0.0
C748 C 0.64894 0.14439 0.14837 0.0
C749 C 0.65852 0.13439 0.12546 0.0
C750 C 0.62454 0.13865 0.15567 0.0
C751 C 0.61378 0.14679 0.1807 0.0
C752 C 0.62628 0.14091 0.2062 0.0
C753 C 0.61615 0.14883 0.22968 0.0
C754 C 0.59343 0.16248 0.22795 0.0
C755 C 0.58074 0.16818 0.20273 0.0
C756 C 0.59081 0.16032 0.17918 0.0
C757 C 0.59749 0.05778 0.08303 0.0
C758 C 0.57471 0.06714 0.0703 0.0
C759 C 0.61215 0.07293 0.09811 0.0
C760 C 0.60426 0.09769 0.10094 0.0
C761 C 0.58135 0.10694 0.08865 0.0
C762 C 0.56681 0.0919 0.07334 0.0
C763 C 0.61991 0.11401 0.11661 0.0
C764 C 0.61028 0.12392 0.13946 0.0
C765 C 0.64438 0.11933 0.10955 0.0
C766 C 0.65544 0.10994 0.08527 0.0
C767 C 0.64361 0.11526 0.05933 0.0
C768 C 0.65402 0.1061 0.0366 0.0
C769 C 0.67635 0.09176 0.03952 0.0
C770 C 0.68836 0.08661 0.06518 0.0
C771 C 0.67801 0.0957 0.08798 0.0
H772 H 0.68438 0.08469 0.0219 0.0
H773 H 0.58562 0.1686 0.24615 0.0
H774 H 0.59974 0.97372 0.96234 0.0
H775 H 0.62573 0.94804 0.93509 0.0
H776 H 0.5627 0.90469 0.91708 0.0
H777 H 0.5369 0.93022 0.9447 0.0
H778 H 0.60355 0.87501 0.92848 0.0
H779 H 0.58203 0.94968 0.87087 0.0
H780 H 0.57836 0.99505 0.85877 0.0
H781 H 0.65765 0.99876 0.86715 0.0
H782 H 0.66177 0.95343 0.87981 0.0
H783 H 0.65071 0.81743 0.81671 0.0
H784 H 0.62589 0.84303 0.84477 0.0
H785 H 0.69045 0.88347 0.86446 0.0
H786 H 0.71533 0.85828 0.83587 0.0
H787 H 0.64933 0.91464 0.85248 0.0
H788 H 0.67039 0.83941 0.90997 0.0
H789 H 0.67343 0.79398 0.92191 0.0
H790 H 0.59408 0.79133 0.91285 0.0
H791 H 0.59059 0.83672 0.90047 0.0
C792 C 0.59159 0.95865 0.95255 0.0
C793 C 0.56643 0.95391 0.95531 0.0
C794 C 0.60635 0.94406 0.93694 0.0
C795 C 0.5961 0.92461 0.9237 0.0
C796 C 0.57102 0.91959 0.92703 0.0
C797 C 0.55629 0.93416 0.94268 0.0
C798 C 0.61144 0.90968 0.90616 0.0
C799 C 0.6133 0.88367 0.91166 0.0
C800 C 0.62458 0.92097 0.8845 0.0
C801 C 0.62219 0.94818 0.87655 0.0
C802 C 0.59868 0.96019 0.87033 0.0
C803 C 0.59651 0.9859 0.86336 0.0
C804 C 0.61775 0.99979 0.86225 0.0
C805 C 0.64121 0.98798 0.86805 0.0
C806 C 0.64347 0.96227 0.87513 0.0
C807 C 0.6596 0.83194 0.82677 0.0
C808 C 0.68504 0.83577 0.82404 0.0
C809 C 0.64542 0.84642 0.84301 0.0
C810 C 0.65636 0.865 0.85698 0.0
C811 C 0.68164 0.86918 0.85396 0.0
C812 C 0.69587 0.85464 0.83777 0.0
C813 C 0.64142 0.87999 0.87481 0.0
C814 C 0.63961 0.906 0.86934 0.0
C815 C 0.62822 0.8687 0.89641 0.0
C816 C 0.63025 0.84143 0.90404 0.0
C817 C 0.6536 0.82911 0.91032 0.0
C818 C 0.6554 0.80337 0.9172 0.0
C819 C 0.63396 0.78977 0.91807 0.0
C820 C 0.61067 0.80189 0.91214 0.0
C821 C 0.60877 0.82762 0.90521 0.0
H822 H 0.6354 0.76984 0.9234 0.0
H823 H 0.61604 0.0197 0.85683 0.0
H824 H 0.55493 0.60393 0.94186 0.0
H825 H 0.58098 0.63152 0.91482 0.0
H826 H 0.62395 0.56787 0.89255 0.0
H827 H 0.5984 0.54013 0.92023 0.0
H828 H 0.6537 0.60451 0.90572 0.0
H829 H 0.5804 0.5986 0.8481 0.0
H830 H 0.53537 0.60106 0.83651 0.0
H831 H 0.53184 0.67871 0.84946 0.0
H832 H 0.57681 0.67663 0.86151 0.0
H833 H 0.71611 0.66659 0.79771 0.0
H834 H 0.68984 0.6385 0.82436 0.0
H835 H 0.64485 0.70181 0.84437 0.0
H836 H 0.6709 0.72976 0.81721 0.0
H837 H 0.61608 0.66527 0.83238 0.0
H838 H 0.68882 0.67179 0.88982 0.0
H839 H 0.73379 0.66998 0.90162 0.0
H840 H 0.73833 0.59205 0.89001 0.0
H841 H 0.69343 0.59349 0.87764 0.0
C842 C 0.57007 0.59576 0.93145 0.0
C843 C 0.57451 0.56975 0.93323 0.0
C844 C 0.58482 0.61159 0.91576 0.0
C845 C 0.60427 0.60179 0.90135 0.0
C846 C 0.60899 0.57587 0.90338 0.0
C847 C 0.59423 0.56002 0.91905 0.0
C848 C 0.61966 0.61857 0.88418 0.0
C849 C 0.64551 0.61755 0.88943 0.0
C850 C 0.60895 0.63607 0.86336 0.0
C851 C 0.58194 0.63739 0.85596 0.0
C852 C 0.56999 0.61615 0.84867 0.0
C853 C 0.54448 0.61749 0.84199 0.0
C854 C 0.53074 0.64001 0.84232 0.0
C855 C 0.5425 0.66127 0.84925 0.0
C856 C 0.568 0.66003 0.85599 0.0
C857 C 0.70054 0.67436 0.8078 0.0
C858 C 0.69546 0.70019 0.80567 0.0
C859 C 0.68563 0.65839 0.82309 0.0
C860 C 0.66553 0.66804 0.83674 0.0
C861 C 0.66023 0.69391 0.83411 0.0
C862 C 0.6751 0.70985 0.81871 0.0
C863 C 0.65014 0.65119 0.85387 0.0
C864 C 0.62429 0.65222 0.84864 0.0
C865 C 0.66084 0.63379 0.8748 0.0
C866 C 0.68779 0.6328 0.88255 0.0
C867 C 0.69943 0.6543 0.88959 0.0
C868 C 0.72491 0.65334 0.89639 0.0
C869 C 0.73892 0.63093 0.89651 0.0
C870 C 0.72746 0.60941 0.88988 0.0
C871 C 0.70199 0.61028 0.88297 0.0
H872 H 0.75864 0.63022 0.90179 0.0
H873 H 0.51099 0.641 0.83714 0.0
H874 H 0.70557 0.35296 0.22074 0.0
H875 H 0.67637 0.37951 0.19028 0.0
H876 H 0.66873 0.31978 0.13847 0.0
H877 H 0.69708 0.29286 0.16981 0.0
H878 H 0.67661 0.39807 0.14085 0.0
H879 H 0.61142 0.32269 0.10746 0.0
H880 H 0.59687 0.28205 0.12562 0.0
H881 H 0.60983 0.30156 0.20718 0.0
H882 H 0.62412 0.34242 0.18952 0.0
H883 H 0.59898 0.4516 0.02968 0.0
H884 H 0.62773 0.42361 0.05929 0.0
H885 H 0.5701 0.4115 0.11623 0.0
H886 H 0.54113 0.43866 0.08597 0.0
H887 H 0.5941 0.36945 0.11243 0.0
H888 H 0.61786 0.45171 0.12635 0.0
H889 H 0.63039 0.4943 0.11299 0.0
H890 H 0.69634 0.46478 0.07948 0.0
H891 H 0.68401 0.42198 0.09228 0.0
C892 C 0.69728 0.34546 0.20305 0.0
C893 C 0.70285 0.32072 0.19794 0.0
C894 C 0.68082 0.36068 0.1855 0.0
C895 C 0.66993 0.35158 0.16226 0.0
C896 C 0.67633 0.32708 0.1566 0.0
C897 C 0.69256 0.31174 0.17439 0.0
C898 C 0.65189 0.36776 0.14408 0.0
C899 C 0.6586 0.39175 0.13461 0.0
C900 C 0.62812 0.35983 0.1363 0.0
C901 C 0.61908 0.3355 0.14714 0.0
C902 C 0.61105 0.31834 0.12927 0.0
C903 C 0.60287 0.29526 0.13947 0.0
C904 C 0.60251 0.28919 0.16753 0.0
C905 C 0.61021 0.30624 0.18545 0.0
C906 C 0.61837 0.32935 0.17535 0.0
C907 C 0.59252 0.44275 0.04844 0.0
C908 C 0.56795 0.44713 0.05563 0.0
C909 C 0.60894 0.42691 0.06543 0.0
C910 C 0.60122 0.41564 0.09023 0.0
C911 C 0.57652 0.4199 0.09724 0.0
C912 C 0.56004 0.43549 0.08007 0.0
C913 C 0.61892 0.39967 0.10903 0.0
C914 C 0.61216 0.37571 0.11859 0.0
C915 C 0.64232 0.40793 0.11761 0.0
C916 C 0.64989 0.43364 0.11005 0.0
C917 C 0.63495 0.4543 0.11597 0.0
C918 C 0.64203 0.47848 0.10851 0.0
C919 C 0.66412 0.48225 0.09534 0.0
C920 C 0.67922 0.46183 0.08965 0.0
C921 C 0.6722 0.43761 0.09702 0.0
H922 H 0.66957 0.50098 0.08958 0.0
H923 H 0.59622 0.2713 0.17539 0.0
H924 H 0.85836 0.31109 0.32129 0.0
H925 H 0.88301 0.33703 0.34901 0.0
H926 H 0.81904 0.38685 0.35417 0.0
H927 H 0.79403 0.36073 0.32677 0.0
H928 H 0.86135 0.41218 0.34448 0.0
H929 H 0.83684 0.34537 0.40702 0.0
H930 H 0.83227 0.30134 0.42336 0.0
H931 H 0.91149 0.2884 0.42655 0.0
H932 H 0.91653 0.33229 0.40982 0.0
H933 H 0.90918 0.47732 0.45248 0.0
H934 H 0.88343 0.45146 0.42526 0.0
H935 H 0.94604 0.39949 0.42149 0.0
H936 H 0.97171 0.42537 0.44885 0.0
H937 H 0.90401 0.37523 0.43072 0.0
H938 H 0.92904 0.44113 0.36813 0.0
H939 H 0.93443 0.48478 0.35096 0.0
H940 H 0.85534 0.49905 0.34677 0.0
H941 H 0.84949 0.45556 0.36443 0.0
C942 C 0.84939 0.32744 0.32847 0.0
C943 C 0.82405 0.33361 0.32194 0.0
C944 C 0.86359 0.34232 0.34427 0.0
C945 C 0.85282 0.36373 0.35401 0.0
C946 C 0.82775 0.3704 0.34692 0.0
C947 C 0.81349 0.35547 0.33114 0.0
C948 C 0.86768 0.37893 0.37186 0.0
C949 C 0.87037 0.4042 0.36353 0.0
C950 C 0.88 0.36838 0.39641 0.0
C951 C 0.87704 0.34207 0.40692 0.0
C952 C 0.85328 0.3331 0.41104 0.0
C953 C 0.8506 0.30817 0.42039 0.0
C954 C 0.87157 0.29207 0.42592 0.0
C955 C 0.89527 0.30089 0.42222 0.0
C956 C 0.89804 0.3258 0.41283 0.0
C957 C 0.91733 0.46035 0.4458 0.0
C958 C 0.94238 0.45336 0.45244 0.0
C959 C 0.90268 0.44562 0.43023 0.0
C960 C 0.91286 0.42365 0.421 0.0
C961 C 0.93778 0.41635 0.4283 0.0
C962 C 0.95243 0.43112 0.44383 0.0
C963 C 0.89765 0.40852 0.40337 0.0
C964 C 0.89493 0.38325 0.41171 0.0
C965 C 0.88541 0.41904 0.37876 0.0
C966 C 0.88884 0.44514 0.36788 0.0
C967 C 0.9128 0.45362 0.36376 0.0
C968 C 0.91594 0.47833 0.35392 0.0
C969 C 0.89524 0.49469 0.34784 0.0
C970 C 0.87136 0.48636 0.35154 0.0
C971 C 0.86812 0.46168 0.36146 0.0
H972 H 0.89771 0.51382 0.34021 0.0
H973 H 0.86946 0.27277 0.43312 0.0
H974 H 0.77719 0.67697 0.66621 0.0
H975 H 0.80248 0.65127 0.63899 0.0
H976 H 0.86864 0.67021 0.68329 0.0
H977 H 0.84368 0.69743 0.70925 0.0
H978 H 0.8781 0.6712 0.63302 0.0
H979 H 0.84072 0.61195 0.69431 0.0
H980 H 0.80669 0.5915 0.71786 0.0
H981 H 0.7748 0.57338 0.64142 0.0
H982 H 0.80848 0.59402 0.61736 0.0
H983 H 0.95701 0.5701 0.59795 0.0
H984 H 0.93042 0.59664 0.62351 0.0
H985 H 0.87052 0.59334 0.56342 0.0
H986 H 0.8972 0.56704 0.53752 0.0
H987 H 0.85772 0.58407 0.62063 0.0
H988 H 0.8978 0.64353 0.56042 0.0
H989 H 0.93393 0.66235 0.53934 0.0
H990 H 0.96324 0.67801 0.61783 0.0
H991 H 0.92744 0.65893 0.63943 0.0
C992 C 0.79714 0.676 0.67001 0.0
C993 C 0.80827 0.68937 0.69011 0.0
C994 C 0.8116 0.66092 0.65462 0.0
C995 C 0.83751 0.65837 0.65933 0.0
C996 C 0.84869 0.67172 0.6793 0.0
C997 C 0.83429 0.68708 0.69442 0.0
C998 C 0.85302 0.64212 0.6432 0.0
C999 C 0.87375 0.65206 0.63067 0.0
C1000 C 0.84727 0.61719 0.63962 0.0
C1001 C 0.82699 0.60476 0.65402 0.0
C1002 C 0.82635 0.60377 0.6825 0.0
C1003 C 0.80714 0.59212 0.69595 0.0
C1004 C 0.78855 0.58121 0.68114 0.0
C1005 C 0.78918 0.58188 0.65286 0.0
C1006 C 0.80834 0.59353 0.63931 0.0
C1007 C 0.93814 0.57498 0.59026 0.0
C1008 C 0.92913 0.56652 0.56577 0.0
C1009 C 0.92303 0.59019 0.6048 0.0
C1010 C 0.89855 0.59697 0.5953 0.0
C1011 C 0.88937 0.5883 0.57106 0.0
C1012 C 0.90463 0.57342 0.55624 0.0
C1013 C 0.88262 0.61322 0.61071 0.0
C1014 C 0.8619 0.60325 0.62306 0.0
C1015 C 0.88862 0.63794 0.61453 0.0
C1016 C 0.91006 0.64957 0.60157 0.0
C1017 C 0.91206 0.65078 0.57321 0.0
C1018 C 0.93245 0.66154 0.56117 0.0
C1019 C 0.9509 0.67131 0.57725 0.0
C1020 C 0.94895 0.6704 0.60541 0.0
C1021 C 0.9286 0.65964 0.61756 0.0
H1022 H 0.96668 0.67963 0.56788 0.0
H1023 H 0.7737 0.57219 0.69159 0.0
H1024 H 0.4513 0.39846 0.06091 0.0
H1025 H 0.42445 0.37135 0.08749 0.0
H1026 H 0.37876 0.43538 0.10391 0.0
H1027 H 0.40577 0.46264 0.07758 0.0
H1028 H 0.38618 0.405 0.14861 0.0
H1029 H 0.36054 0.39495 0.05622 0.0
H1030 H 0.36628 0.38599 0.0088 0.0
H1031 H 0.3952 0.31218 0.03638 0.0
H1032 H 0.38995 0.32082 0.084 0.0
H1033 H 0.28342 0.33825 0.19677 0.0
H1034 H 0.30971 0.36575 0.16936 0.0
H1035 H 0.35842 0.3026 0.15696 0.0
H1036 H 0.33193 0.27515 0.18417 0.0
H1037 H 0.34908 0.33255 0.11012 0.0
H1038 H 0.37435 0.34274 0.20257 0.0
H1039 H 0.36795 0.35165 0.24986 0.0
H1040 H 0.33914 0.42542 0.22194 0.0
H1041 H 0.34499 0.4168 0.17441 0.0
C1042 C 0.43542 0.40676 0.06998 0.0
C1043 C 0.43062 0.43273 0.06697 0.0
C1044 C 0.42005 0.39122 0.0852 0.0
C1045 C 0.3993 0.40122 0.09743 0.0
C1046 C 0.39463 0.42717 0.0947 0.0
C1047 C 0.41011 0.44275 0.07965 0.0
C1048 C 0.38258 0.38467 0.1132 0.0
C1049 C 0.3778 0.38938 0.14002 0.0
C1050 C 0.37201 0.3639 0.10232 0.0
C1051 C 0.37506 0.35862 0.07369 0.0
C1052 C 0.36829 0.37687 0.05218 0.0
C1053 C 0.37143 0.37184 0.02527 0.0
C1054 C 0.38116 0.34856 0.01958 0.0
C1055 C 0.3877 0.33022 0.04081 0.0
C1056 C 0.38462 0.33516 0.06776 0.0
C1057 C 0.29971 0.33036 0.18804 0.0
C1058 C 0.30577 0.30472 0.19242 0.0
C1059 C 0.31476 0.34602 0.17252 0.0
C1060 C 0.3362 0.33628 0.16129 0.0
C1061 C 0.342 0.31053 0.16539 0.0
C1062 C 0.32696 0.2949 0.18094 0.0
C1063 C 0.35269 0.35294 0.14543 0.0
C1064 C 0.35745 0.34822 0.11865 0.0
C1065 C 0.36318 0.37372 0.15632 0.0
C1066 C 0.35989 0.37904 0.1849 0.0
C1067 C 0.36648 0.3608 0.20649 0.0
C1068 C 0.36297 0.36581 0.23334 0.0
C1069 C 0.3531 0.38907 0.2389 0.0
C1070 C 0.34676 0.4074 0.21761 0.0
C1071 C 0.35018 0.40247 0.1907 0.0
H1072 H 0.3504 0.39291 0.2597 0.0
H1073 H 0.38358 0.3447 0.99873 0.0
H1074 H 0.30259 0.70412 0.83512 0.0
H1075 H 0.33144 0.67715 0.86551 0.0
H1076 H 0.33594 0.62461 0.8048 0.0
H1077 H 0.30559 0.65081 0.77533 0.0
H1078 H 0.33532 0.59982 0.85051 0.0
H1079 H 0.38277 0.66849 0.81785 0.0
H1080 H 0.39127 0.71294 0.80876 0.0
H1081 H 0.3926 0.72138 0.89433 0.0
H1082 H 0.38377 0.67705 0.90392 0.0
H1083 H 0.46737 0.56787 0.91828 0.0
H1084 H 0.43884 0.59519 0.88749 0.0
H1085 H 0.37757 0.57347 0.93618 0.0
H1086 H 0.40613 0.54599 0.96673 0.0
H1087 H 0.40871 0.63497 0.89439 0.0
H1088 H 0.32642 0.56907 0.89375 0.0
H1089 H 0.3198 0.52397 0.8991 0.0
H1090 H 0.39318 0.50855 0.87265 0.0
H1091 H 0.40006 0.55352 0.86666 0.0
C1092 C 0.30972 0.68674 0.82842 0.0
C1093 C 0.30224 0.67965 0.80279 0.0
C1094 C 0.32638 0.67142 0.84565 0.0
C1095 C 0.33648 0.64905 0.83727 0.0
C1096 C 0.32861 0.6418 0.81176 0.0
C1097 C 0.31146 0.65684 0.79481 0.0
C1098 C 0.3551 0.63316 0.85506 0.0
C1099 C 0.35134 0.60758 0.86005 0.0
C1100 C 0.37638 0.64303 0.86724 0.0
C1101 C 0.38242 0.6695 0.86158 0.0
C1102 C 0.38481 0.67985 0.83472 0.0
C1103 C 0.38967 0.70501 0.82948 0.0
C1104 C 0.39239 0.71997 0.85095 0.0
C1105 C 0.39045 0.70976 0.87773 0.0
C1106 C 0.38555 0.68461 0.88308 0.0
C1107 C 0.4478 0.56912 0.92234 0.0
C1108 C 0.43878 0.55499 0.94469 0.0
C1109 C 0.43157 0.58472 0.90488 0.0
C1110 C 0.40603 0.58624 0.9094 0.0
C1111 C 0.39713 0.57238 0.93211 0.0
C1112 C 0.41338 0.5568 0.94957 0.0
C1113 C 0.38862 0.60185 0.89004 0.0
C1114 C 0.39265 0.62731 0.88479 0.0
C1115 C 0.36798 0.59176 0.87701 0.0
C1116 C 0.36383 0.56467 0.88005 0.0
C1117 C 0.34109 0.55605 0.88895 0.0
C1118 C 0.3373 0.53051 0.8921 0.0
C1119 C 0.35609 0.51341 0.8863 0.0
C1120 C 0.37867 0.52181 0.87722 0.0
C1121 C 0.38253 0.54732 0.87396 0.0
H1122 H 0.35313 0.49364 0.8888 0.0
H1123 H 0.396 0.73946 0.84685 0.0
H1124 H 0.21472 0.64911 0.66861 0.0
H1125 H 0.18957 0.62323 0.64116 0.0
H1126 H 0.12339 0.66552 0.6585 0.0
H1127 H 0.14839 0.69161 0.68576 0.0
H1128 H 0.11563 0.61673 0.66355 0.0
H1129 H 0.14951 0.67391 0.59661 0.0
H1130 H 0.18261 0.69603 0.57316 0.0
H1131 H 0.21551 0.62638 0.5536 0.0
H1132 H 0.18278 0.6038 0.57728 0.0
H1133 H 0.03332 0.575 0.56279 0.0
H1134 H 0.05934 0.60082 0.58976 0.0
H1135 H 0.12445 0.5567 0.57252 0.0
H1136 H 0.09833 0.5311 0.54526 0.0
H1137 H 0.13314 0.60583 0.56755 0.0
H1138 H 0.09858 0.54875 0.63398 0.0
H1139 H 0.06495 0.52694 0.65678 0.0
H1140 H 0.03295 0.59676 0.67699 0.0
H1141 H 0.0662 0.61904 0.65392 0.0
C1142 C 0.19485 0.6531 0.66638 0.0
C1143 C 0.18365 0.67254 0.67945 0.0
C1144 C 0.18045 0.63822 0.65069 0.0
C1145 C 0.15455 0.64251 0.64751 0.0
C1146 C 0.14331 0.66175 0.66068 0.0
C1147 C 0.15767 0.67663 0.67637 0.0
C1148 C 0.13912 0.6269 0.63062 0.0
C1149 C 0.11929 0.61462 0.64246 0.0
C1150 C 0.14415 0.62362 0.60325 0.0
C1151 C 0.16384 0.63715 0.58897 0.0
C1152 C 0.16392 0.66329 0.58751 0.0
C1153 C 0.18259 0.67592 0.57414 0.0
C1154 C 0.20119 0.66262 0.56196 0.0
C1155 C 0.20111 0.63666 0.56308 0.0
C1156 C 0.1825 0.62394 0.57645 0.0
C1157 C 0.05319 0.57091 0.56484 0.0
C1158 C 0.06391 0.55107 0.55223 0.0
C1159 C 0.06804 0.58556 0.58028 0.0
C1160 C 0.09387 0.58055 0.58348 0.0
C1161 C 0.10459 0.56091 0.57043 0.0
C1162 C 0.08972 0.54625 0.55498 0.0
C1163 C 0.10964 0.59574 0.60047 0.0
C1164 C 0.12953 0.60792 0.58866 0.0
C1165 C 0.10464 0.59896 0.62786 0.0
C1166 C 0.08477 0.58559 0.64201 0.0
C1167 C 0.08428 0.55947 0.64312 0.0
C1168 C 0.06529 0.54702 0.65611 0.0
C1169 C 0.04679 0.56046 0.66828 0.0
C1170 C 0.04728 0.58638 0.66754 0.0
C1171 C 0.0662 0.59893 0.65452 0.0
H1172 H 0.03211 0.55079 0.67832 0.0
H1173 H 0.21562 0.67243 0.55161 0.0
H1174 H 0.16145 0.29942 0.30336 0.0
H1175 H 0.13642 0.32649 0.32965 0.0
H1176 H 0.201 0.36776 0.34737 0.0
H1177 H 0.22626 0.34014 0.32173 0.0
H1178 H 0.17687 0.36109 0.39099 0.0
H1179 H 0.15308 0.3906 0.29926 0.0
H1180 H 0.13844 0.38783 0.25172 0.0
H1181 H 0.06948 0.36008 0.27875 0.0
H1182 H 0.08385 0.36236 0.3265 0.0
H1183 H 0.10606 0.46562 0.43397 0.0
H1184 H 0.13224 0.43999 0.40683 0.0
H1185 H 0.07607 0.3856 0.40619 0.0
H1186 H 0.05005 0.41091 0.43368 0.0
H1187 H 0.09632 0.40068 0.35352 0.0
H1188 H 0.12229 0.37122 0.44612 0.0
H1189 H 0.13775 0.37627 0.49289 0.0
H1190 H 0.20404 0.40738 0.46233 0.0
H1191 H 0.18877 0.40287 0.41531 0.0
C1192 C 0.17025 0.31439 0.31271 0.0
C1193 C 0.19578 0.31776 0.31036 0.0
C1194 C 0.15591 0.32992 0.32769 0.0
C1195 C 0.16666 0.34953 0.34016 0.0
C1196 C 0.19222 0.35282 0.33795 0.0
C1197 C 0.20665 0.33704 0.32329 0.0
C1198 C 0.15133 0.36629 0.35588 0.0
C1199 C 0.15946 0.37003 0.38255 0.0
C1200 C 0.12839 0.37779 0.34517 0.0
C1201 C 0.11964 0.37644 0.31647 0.0
C1202 C 0.13487 0.38373 0.29508 0.0
C1203 C 0.12661 0.38227 0.26809 0.0
C1204 C 0.10307 0.37372 0.26222 0.0
C1205 C 0.08772 0.36667 0.28333 0.0
C1206 C 0.0959 0.36807 0.31036 0.0
C1207 C 0.09933 0.44821 0.42798 0.0
C1208 C 0.0761 0.44017 0.43598 0.0
C1209 C 0.11429 0.43359 0.41258 0.0
C1210 C 0.10608 0.4109 0.40459 0.0
C1211 C 0.08272 0.40305 0.41218 0.0
C1212 C 0.06797 0.41742 0.42798 0.0
C1213 C 0.12188 0.39524 0.38842 0.0
C1214 C 0.11382 0.39177 0.36174 0.0
C1215 C 0.14503 0.38433 0.39894 0.0
C1216 C 0.15426 0.38698 0.42719 0.0
C1217 C 0.14005 0.37937 0.44935 0.0
C1218 C 0.1488 0.38208 0.47591 0.0
C1219 C 0.17183 0.39221 0.48058 0.0
C1220 C 0.18618 0.39958 0.45869 0.0
C1221 C 0.1775 0.39694 0.43208 0.0
H1222 H 0.17858 0.39429 0.50116 0.0
H1223 H 0.09671 0.37261 0.24131 0.0
loop_
_geom_bond_atom_site_label_1
_geom_bond_atom_site_label_2
_geom_bond_distance
_geom_bond_site_symmetry_2
_ccdc_geom_bond_type
C0 C1 1.443 . S
C0 N4 1.376 . S
C0 C38 1.389 . S
C1 C0 1.443 . S
C1 C2 1.340 . S
C1 H41 0.951 . S
C2 C1 1.340 . S
C2 C3 1.439 . S
C2 H42 0.950 . S
C3 C2 1.439 . S
C3 N4 1.374 . S
C3 C37 1.395 1_455 S
N4 C0 1.376 . S
N4 C3 1.374 . S
N4 Co5 2.007 1_565 S
Co5 N4 2.007 1_545 S
Co5 N6 1.989 1_445 S
Co5 N11 2.009 1_455 S
Co5 N16 1.995 . S
Co5 N21 2.283 . S
Co5 N27 2.282 1_445 S
N6 Co5 1.989 1_665 S
N6 C7 1.414 . S
N6 C10 1.351 1_565 S
C7 N6 1.414 . S
C7 C8 1.446 . S
C7 C37 1.391 . S
C8 C7 1.446 . S
C8 C9 1.339 1_565 S
C8 H43 0.949 . S
C9 C8 1.339 1_545 S
C9 C10 1.439 . S
C9 H44 0.950 . S
C10 N6 1.351 1_545 S
C10 C9 1.439 . S
C10 C39 1.392 . S
N11 Co5 2.009 1_655 S
N11 C12 1.376 . S
N11 C15 1.374 . S
C12 N11 1.376 . S
C12 C13 1.443 . S
C12 C39 1.389 . S
C13 C12 1.443 . S
C13 C14 1.340 . S
C13 H45 0.951 . S
C14 C13 1.340 . S
C14 C15 1.439 . S
C14 H46 0.950 . S
C15 N11 1.374 . S
C15 C14 1.439 . S
C15 C40 1.395 1_655 S
N16 Co5 1.995 . S
N16 C17 1.376 . S
N16 C20 1.383 1_545 S
C17 N16 1.376 . S
C17 C18 1.446 . S
C17 C40 1.391 . S
C18 C17 1.446 . S
C18 C19 1.339 1_545 S
C18 H47 0.949 . S
C19 C18 1.339 1_565 S
C19 C20 1.439 . S
C19 H48 0.950 . S
C20 N16 1.383 1_565 S
C20 C19 1.439 . S
C20 C38 1.392 . S
N21 Co5 2.283 . S
N21 C24 1.332 . S
N21 C26 1.332 . S
C22 C23 1.386 . S
C22 C25 1.388 . S
C23 C22 1.386 . S
C23 C24 1.382 . S
C23 H49 0.950 . S
C24 N21 1.332 . S
C24 C23 1.382 . S
C24 H35 0.952 . S
C25 C22 1.388 . S
C25 C26 1.382 . S
C25 H50 0.950 . S
C26 N21 1.332 . S
C26 C25 1.382 . S
C26 H36 0.948 . S
N27 Co5 2.282 1_665 S
N27 C31 1.332 . S
N27 C32 1.332 . S
C28 C29 1.388 . S
C28 C32 1.382 . S
C28 H51 0.950 . S
C29 C28 1.388 . S
C29 C30 1.386 . S
C30 C29 1.386 . S
C30 C31 1.382 . S
C30 H52 0.950 . S
C31 N27 1.332 . S
C31 C30 1.382 . S
C31 H33 0.952 . S
C32 N27 1.332 . S
C32 C28 1.382 . S
C32 H34 0.948 . S
H33 C31 0.952 . S
H34 C32 0.948 . S
H35 C24 0.952 . S
H36 C26 0.948 . S
C37 C3 1.395 1_655 S
C37 C7 1.391 . S
C38 C0 1.389 . S
C38 C20 1.392 . S
C39 C10 1.392 . S
C39 C12 1.389 . S
C40 C15 1.395 1_455 S
C40 C17 1.391 . S
H41 C1 0.951 . S
H42 C2 0.950 . S
H43 C8 0.949 . S
H44 C9 0.950 . S
H45 C13 0.951 . S
H46 C14 0.950 . S
H47 C18 0.949 . S
H48 C19 0.950 . S
H49 C23 0.950 . S
H50 C25 0.950 . S
H51 C28 0.950 . S
H52 C30 0.950 . S
C53 C54 1.443 . S
C53 N57 1.376 . S
C53 C91 1.389 . S
C54 C53 1.443 . S
C54 C55 1.340 . S
C54 H94 0.951 . S
C55 C54 1.340 . S
C55 C56 1.439 . S
C55 H95 0.950 . S
C56 C55 1.439 . S
C56 N57 1.374 . S
C56 C90 1.395 . S
N57 C53 1.376 . S
N57 C56 1.374 . S
N57 Co58 2.008 . S
Co58 N57 2.008 . S
Co58 N59 1.995 . S
Co58 N64 2.008 . S
Co58 N69 1.995 . S
Co58 N74 2.282 . S
Co58 N80 2.282 . S
N59 Co58 1.995 . S
N59 C60 1.376 . S
N59 C63 1.383 . S
C60 N59 1.376 . S
C60 C61 1.446 . S
C60 C90 1.391 . S
C61 C60 1.446 . S
C61 C62 1.339 . S
C61 H96 0.949 . S
C62 C61 1.339 . S
C62 C63 1.439 . S
C62 H97 0.950 . S
C63 N59 1.383 . S
C63 C62 1.439 . S
C63 C92 1.392 . S
N64 Co58 2.008 . S
N64 C65 1.376 . S
N64 C68 1.374 . S
C65 N64 1.376 . S
C65 C66 1.443 . S
C65 C92 1.389 . S
C66 C65 1.443 . S
C66 C67 1.340 . S
C66 H98 0.951 . S
C67 C66 1.340 . S
C67 C68 1.439 . S
C67 H99 0.950 . S
C68 N64 1.374 . S
C68 C67 1.439 . S
C68 C93 1.395 . S
N69 Co58 1.995 . S
N69 C70 1.376 . S
N69 C73 1.383 . S
C70 N69 1.376 . S
C70 C71 1.446 . S
C70 C93 1.391 . S
C71 C70 1.446 . S
C71 C72 1.339 . S
C71 H100 0.949 . S
C72 C71 1.339 . S
C72 C73 1.439 . S
C72 H101 0.950 . S
C73 N69 1.383 . S
C73 C72 1.439 . S
C73 C91 1.392 . S
N74 Co58 2.282 . S
N74 C77 1.332 . S
N74 C79 1.332 . S
C75 C76 1.386 . S
C75 C78 1.388 . S
C76 C75 1.386 . S
C76 C77 1.382 . S
C76 H102 0.950 . S
C77 N74 1.332 . S
C77 C76 1.382 . S
C77 H88 0.952 . S
C78 C75 1.388 . S
C78 C79 1.382 . S
C78 H103 0.950 . S
C79 N74 1.332 . S
C79 C78 1.382 . S
C79 H89 0.948 . S
N80 Co58 2.282 . S
N80 C84 1.332 . S
N80 C85 1.332 . S
C81 C82 1.388 . S
C81 C85 1.382 . S
C81 H104 0.950 . S
C82 C81 1.388 . S
C82 C83 1.386 . S
C83 C82 1.386 . S
C83 C84 1.382 . S
C83 H105 0.950 . S
C84 N80 1.332 . S
C84 C83 1.382 . S
C84 H86 0.952 . S
C85 N80 1.332 . S
C85 C81 1.382 . S
C85 H87 0.948 . S
H86 C84 0.952 . S
H87 C85 0.948 . S
H88 C77 0.952 . S
H89 C79 0.948 . S
C90 C56 1.395 . S
C90 C60 1.391 . S
C91 C53 1.389 . S
C91 C73 1.392 . S
C92 C63 1.392 . S
C92 C65 1.389 . S
C93 C68 1.395 . S
C93 C70 1.391 . S
H94 C54 0.951 . S
H95 C55 0.950 . S
H96 C61 0.949 . S
H97 C62 0.950 . S
H98 C66 0.951 . S
H99 C67 0.950 . S
H100 C71 0.949 . S
H101 C72 0.950 . S
H102 C76 0.950 . S
H103 C78 0.950 . S
H104 C81 0.950 . S
H105 C83 0.950 . S
C106 C107 1.442 1_554 S
C106 N110 1.376 1_554 S
C106 C144 1.389 . S
C107 C106 1.442 1_556 S
C107 C108 1.344 . S
C107 H147 0.949 1_556 S
C108 C107 1.344 . S
C108 C109 1.439 . S
C108 H148 0.950 . S
C109 C108 1.439 . S
C109 N110 1.374 . S
C109 C143 1.395 . S
N110 C106 1.376 1_556 S
N110 C109 1.374 . S
N110 Co111 2.009 1_556 S
Co111 N110 2.009 1_554 S
Co111 N112 1.994 1_554 S
Co111 N117 2.007 1_545 S
Co111 N122 1.996 1_545 S
Co111 N127 2.281 1_544 S
Co111 N133 2.284 . S
N112 Co111 1.994 1_556 S
N112 C113 1.376 . S
N112 C116 1.383 1_545 S
C113 N112 1.376 . S
C113 C114 1.446 . S
C113 C143 1.391 . S
C114 C113 1.446 . S
C114 C115 1.311 1_545 S
C114 H149 0.949 . S
C115 C114 1.311 1_565 S
C115 C116 1.449 . S
C115 H150 0.965 . S
C116 N112 1.383 1_565 S
C116 C115 1.449 . S
C116 C145 1.392 . S
N117 Co111 2.007 1_565 S
N117 C118 1.376 1_554 S
N117 C121 1.374 . S
C118 N117 1.376 1_556 S
C118 C119 1.439 1_556 S
C118 C145 1.389 . S
C119 C118 1.439 1_554 S
C119 C120 1.356 . S
C119 H151 0.942 1_554 S
C120 C119 1.356 . S
C120 C121 1.439 . S
C120 H152 0.950 . S
C121 N117 1.374 . S
C121 C120 1.439 . S
C121 C146 1.395 . S
N122 Co111 1.996 1_565 S
N122 C123 1.376 . S
N122 C126 1.383 1_565 S
C123 N122 1.376 . S
C123 C124 1.446 . S
C123 C146 1.391 . S
C124 C123 1.446 . S
C124 C125 1.299 1_565 S
C124 H153 0.949 . S
C125 C124 1.299 1_545 S
C125 C126 1.453 . S
C125 H154 0.972 . S
C126 N122 1.383 1_545 S
C126 C125 1.453 . S
C126 C144 1.392 . S
N127 Co111 2.281 1_566 S
N127 C130 1.332 . S
N127 C132 1.332 . S
C128 C129 1.386 . S
C128 C131 1.388 . S
C129 C128 1.386 . S
C129 C130 1.382 . S
C129 H155 0.950 . S
C130 N127 1.332 . S
C130 C129 1.382 . S
C130 H141 0.952 1_556 S
C131 C128 1.388 . S
C131 C132 1.382 . S
C131 H156 0.950 . S
C132 N127 1.332 . S
C132 C131 1.382 . S
C132 H142 0.948 . S
N133 Co111 2.284 . S
N133 C137 1.332 . S
N133 C138 1.332 . S
C134 C135 1.388 . S
C134 C138 1.382 . S
C134 H157 0.950 . S
C135 C134 1.388 . S
C135 C136 1.386 . S
C136 C135 1.386 . S
C136 C137 1.382 . S
C136 H158 0.950 . S
C137 N133 1.332 . S
C137 C136 1.382 . S
C137 H139 0.952 1_554 S
C138 N133 1.332 . S
C138 C134 1.382 . S
C138 H140 0.948 . S
H139 C137 0.952 1_556 S
H140 C138 0.948 . S
H141 C130 0.952 1_554 S
H142 C132 0.948 . S
C143 C109 1.395 . S
C143 C113 1.391 . S
C144 C106 1.389 . S
C144 C126 1.392 . S
C145 C116 1.392 . S
C145 C118 1.389 . S
C146 C121 1.395 . S
C146 C123 1.391 . S
H147 C107 0.949 1_554 S
H148 C108 0.950 . S
H149 C114 0.949 . S
H150 C115 0.965 . S
H151 C119 0.942 1_556 S
H152 C120 0.950 . S
H153 C124 0.949 . S
H154 C125 0.972 . S
H155 C129 0.950 . S
H156 C131 0.950 . S
H157 C134 0.950 . S
H158 C136 0.950 . S
C159 C160 1.443 . S
C159 N163 1.376 . S
C159 C197 1.389 . S
C160 C159 1.443 . S
C160 C161 1.340 . S
C160 H200 0.951 . S
C161 C160 1.340 . S
C161 C162 1.439 . S
C161 H201 0.950 . S
C162 C161 1.439 . S
C162 N163 1.374 . S
C162 C196 1.395 . S
N163 C159 1.376 . S
N163 C162 1.374 . S
N163 Co164 2.008 . S
Co164 N163 2.008 . S
Co164 N165 1.995 . S
Co164 N170 2.008 . S
Co164 N175 1.995 . S
Co164 N180 2.282 . S
Co164 N186 2.282 . S
N165 Co164 1.995 . S
N165 C166 1.376 . S
N165 C169 1.383 . S
C166 N165 1.376 . S
C166 C167 1.446 . S
C166 C196 1.391 . S
C167 C166 1.446 . S
C167 C168 1.339 . S
C167 H202 0.949 . S
C168 C167 1.339 . S
C168 C169 1.439 . S
C168 H203 0.950 . S
C169 N165 1.383 . S
C169 C168 1.439 . S
C169 C198 1.392 . S
N170 Co164 2.008 . S
N170 C171 1.376 . S
N170 C174 1.374 . S
C171 N170 1.376 . S
C171 C172 1.443 . S
C171 C198 1.389 . S
C172 C171 1.443 . S
C172 C173 1.340 . S
C172 H204 0.951 . S
C173 C172 1.340 . S
C173 C174 1.439 . S
C173 H205 0.950 . S
C174 N170 1.374 . S
C174 C173 1.439 . S
C174 C199 1.395 . S
N175 Co164 1.995 . S
N175 C176 1.376 . S
N175 C179 1.383 . S
C176 N175 1.376 . S
C176 C177 1.446 . S
C176 C199 1.391 . S
C177 C176 1.446 . S
C177 C178 1.339 . S
C177 H206 0.949 . S
C178 C177 1.339 . S
C178 C179 1.439 . S
C178 H207 0.950 . S
C179 N175 1.383 . S
C179 C178 1.439 . S
C179 C197 1.392 . S
N180 Co164 2.282 . S
N180 C183 1.332 . S
N180 C185 1.332 . S
C181 C182 1.386 . S
C181 C184 1.388 . S
C182 C181 1.386 . S
C182 C183 1.382 . S
C182 H208 0.950 . S
C183 N180 1.332 . S
C183 C182 1.382 . S
C183 H194 0.952 . S
C184 C181 1.388 . S
C184 C185 1.382 . S
C184 H209 0.950 . S
C185 N180 1.332 . S
C185 C184 1.382 . S
C185 H195 0.948 . S
N186 Co164 2.282 . S
N186 C190 1.332 . S
N186 C191 1.332 . S
C187 C188 1.388 . S
C187 C191 1.382 . S
C187 H210 0.950 . S
C188 C187 1.388 . S
C188 C189 1.386 . S
C189 C188 1.386 . S
C189 C190 1.382 . S
C189 H211 0.950 . S
C190 N186 1.332 . S
C190 C189 1.382 . S
C190 H192 0.952 . S
C191 N186 1.332 . S
C191 C187 1.382 . S
C191 H193 0.948 . S
H192 C190 0.952 . S
H193 C191 0.948 . S
H194 C183 0.952 . S
H195 C185 0.948 . S
C196 C162 1.395 . S
C196 C166 1.391 . S
C197 C159 1.389 . S
C197 C179 1.392 . S
C198 C169 1.392 . S
C198 C171 1.389 . S
C199 C174 1.395 . S
C199 C176 1.391 . S
H200 C160 0.951 . S
H201 C161 0.950 . S
H202 C167 0.949 . S
H203 C168 0.950 . S
H204 C172 0.951 . S
H205 C173 0.950 . S
H206 C177 0.949 . S
H207 C178 0.950 . S
H208 C182 0.950 . S
H209 C184 0.950 . S
H210 C187 0.950 . S
H211 C189 0.950 . S
C212 C213 1.443 . S
C212 N216 1.376 . S
C212 C250 1.389 . S
C213 C212 1.443 . S
C213 C214 1.340 . S
C213 H253 0.951 . S
C214 C213 1.340 . S
C214 C215 1.439 . S
C214 H254 0.950 . S
C215 C214 1.439 . S
C215 N216 1.374 . S
C215 C249 1.395 . S
N216 C212 1.376 . S
N216 C215 1.374 . S
N216 Co217 2.008 . S
Co217 N216 2.008 . S
Co217 N218 1.995 . S
Co217 N223 2.008 . S
Co217 N228 1.995 . S
Co217 N233 2.282 . S
Co217 N239 2.282 . S
N218 Co217 1.995 . S
N218 C219 1.376 . S
N218 C222 1.383 . S
C219 N218 1.376 . S
C219 C220 1.446 . S
C219 C249 1.391 . S
C220 C219 1.446 . S
C220 C221 1.339 . S
C220 H255 0.949 . S
C221 C220 1.339 . S
C221 C222 1.439 . S
C221 H256 0.950 . S
C222 N218 1.383 . S
C222 C221 1.439 . S
C222 C251 1.392 . S
N223 Co217 2.008 . S
N223 C224 1.376 . S
N223 C227 1.374 . S
C224 N223 1.376 . S
C224 C225 1.443 . S
C224 C251 1.389 . S
C225 C224 1.443 . S
C225 C226 1.340 . S
C225 H257 0.951 . S
C226 C225 1.340 . S
C226 C227 1.439 . S
C226 H258 0.950 . S
C227 N223 1.374 . S
C227 C226 1.439 . S
C227 C252 1.395 . S
N228 Co217 1.995 . S
N228 C229 1.376 . S
N228 C232 1.383 . S
C229 N228 1.376 . S
C229 C230 1.446 . S
C229 C252 1.391 . S
C230 C229 1.446 . S
C230 C231 1.339 . S
C230 H259 0.949 . S
C231 C230 1.339 . S
C231 C232 1.439 . S
C231 H260 0.950 . S
C232 N228 1.383 . S
C232 C231 1.439 . S
C232 C250 1.392 . S
N233 Co217 2.282 . S
N233 C236 1.332 . S
N233 C238 1.332 . S
C234 C235 1.386 . S
C234 C237 1.388 . S
C235 C234 1.386 . S
C235 C236 1.382 . S
C235 H261 0.950 . S
C236 N233 1.332 . S
C236 C235 1.382 . S
C236 H247 0.952 . S
C237 C234 1.388 . S
C237 C238 1.382 . S
C237 H262 0.950 . S
C238 N233 1.332 . S
C238 C237 1.382 . S
C238 H248 0.948 . S
N239 Co217 2.282 . S
N239 C243 1.332 . S
N239 C244 1.332 . S
C240 C241 1.388 . S
C240 C244 1.382 . S
C240 H263 0.950 . S
C241 C240 1.388 . S
C241 C242 1.386 . S
C242 C241 1.386 . S
C242 C243 1.382 . S
C242 H264 0.950 . S
C243 N239 1.332 . S
C243 C242 1.382 . S
C243 H245 0.952 . S
C244 N239 1.332 . S
C244 C240 1.382 . S
C244 H246 0.948 . S
H245 C243 0.952 . S
H246 C244 0.948 . S
H247 C236 0.952 . S
H248 C238 0.948 . S
C249 C215 1.395 . S
C249 C219 1.391 . S
C250 C212 1.389 . S
C250 C232 1.392 . S
C251 C222 1.392 . S
C251 C224 1.389 . S
C252 C227 1.395 . S
C252 C229 1.391 . S
H253 C213 0.951 . S
H254 C214 0.950 . S
H255 C220 0.949 . S
H256 C221 0.950 . S
H257 C225 0.951 . S
H258 C226 0.950 . S
H259 C230 0.949 . S
H260 C231 0.950 . S
H261 C235 0.950 . S
H262 C237 0.950 . S
H263 C240 0.950 . S
H264 C242 0.950 . S
C265 C266 1.443 . S
C265 N269 1.376 . S
C265 C303 1.389 . S
C266 C265 1.443 . S
C266 C267 1.340 . S
C266 H306 0.951 . S
C267 C266 1.340 . S
C267 C268 1.439 . S
C267 H307 0.950 . S
C268 C267 1.439 . S
C268 N269 1.374 . S
C268 C302 1.395 . S
N269 C265 1.376 . S
N269 C268 1.374 . S
N269 Co270 2.008 . S
Co270 N269 2.008 . S
Co270 N271 1.995 . S
Co270 N276 2.008 . S
Co270 N281 1.995 . S
Co270 N286 2.282 . S
Co270 N292 2.282 . S
N271 Co270 1.995 . S
N271 C272 1.376 . S
N271 C275 1.383 . S
C272 N271 1.376 . S
C272 C273 1.446 . S
C272 C302 1.391 . S
C273 C272 1.446 . S
C273 C274 1.339 . S
C273 H308 0.949 . S
C274 C273 1.339 . S
C274 C275 1.439 . S
C274 H309 0.950 . S
C275 N271 1.383 . S
C275 C274 1.439 . S
C275 C304 1.392 . S
N276 Co270 2.008 . S
N276 C277 1.376 . S
N276 C280 1.374 . S
C277 N276 1.376 . S
C277 C278 1.443 . S
C277 C304 1.389 . S
C278 C277 1.443 . S
C278 C279 1.340 . S
C278 H310 0.951 . S
C279 C278 1.340 . S
C279 C280 1.439 . S
C279 H311 0.950 . S
C280 N276 1.374 . S
C280 C279 1.439 . S
C280 C305 1.395 . S
N281 Co270 1.995 . S
N281 C282 1.376 . S
N281 C285 1.383 . S
C282 N281 1.376 . S
C282 C283 1.446 . S
C282 C305 1.391 . S
C283 C282 1.446 . S
C283 C284 1.339 . S
C283 H312 0.949 . S
C284 C283 1.339 . S
C284 C285 1.439 . S
C284 H313 0.950 . S
C285 N281 1.383 . S
C285 C284 1.439 . S
C285 C303 1.392 . S
N286 Co270 2.282 . S
N286 C289 1.332 . S
N286 C291 1.332 . S
C287 C288 1.386 . S
C287 C290 1.388 . S
C288 C287 1.386 . S
C288 C289 1.382 . S
C288 H314 0.950 . S
C289 N286 1.332 . S
C289 C288 1.382 . S
C289 H300 0.952 . S
C290 C287 1.388 . S
C290 C291 1.382 . S
C290 H315 0.950 . S
C291 N286 1.332 . S
C291 C290 1.382 . S
C291 H301 0.948 . S
N292 Co270 2.282 . S
N292 C296 1.332 . S
N292 C297 1.332 . S
C293 C294 1.388 . S
C293 C297 1.382 . S
C293 H316 0.950 . S
C294 C293 1.388 . S
C294 C295 1.386 . S
C295 C294 1.386 . S
C295 C296 1.382 . S
C295 H317 0.950 . S
C296 N292 1.332 . S
C296 C295 1.382 . S
C296 H298 0.952 . S
C297 N292 1.332 . S
C297 C293 1.382 . S
C297 H299 0.948 . S
H298 C296 0.952 . S
H299 C297 0.948 . S
H300 C289 0.952 . S
H301 C291 0.948 . S
C302 C268 1.395 . S
C302 C272 1.391 . S
C303 C265 1.389 . S
C303 C285 1.392 . S
C304 C275 1.392 . S
C304 C277 1.389 . S
C305 C280 1.395 . S
C305 C282 1.391 . S
H306 C266 0.951 . S
H307 C267 0.950 . S
H308 C273 0.949 . S
H309 C274 0.950 . S
H310 C278 0.951 . S
H311 C279 0.950 . S
H312 C283 0.949 . S
H313 C284 0.950 . S
H314 C288 0.950 . S
H315 C290 0.950 . S
H316 C293 0.950 . S
H317 C295 0.950 . S
C318 C319 1.443 . S
C318 N322 1.376 . S
C318 C356 1.389 . S
C319 C318 1.443 . S
C319 C320 1.340 . S
C319 H359 0.951 . S
C320 C319 1.340 . S
C320 C321 1.439 . S
C320 H360 0.950 . S
C321 C320 1.439 . S
C321 N322 1.374 . S
C321 C355 1.395 . S
N322 C318 1.376 . S
N322 C321 1.374 . S
N322 Co323 2.006 1_556 S
Co323 N322 2.006 1_554 S
Co323 N324 1.994 1_554 S
Co323 N329 2.010 . S
Co323 N334 1.995 . S
Co323 N339 2.283 . S
Co323 N345 2.282 1_554 S
N324 Co323 1.994 1_556 S
N324 C325 1.376 . S
N324 C328 1.383 1_556 S
C325 N324 1.376 . S
C325 C326 1.446 . S
C325 C355 1.391 . S
C326 C325 1.446 . S
C326 C327 1.339 1_556 S
C326 H361 0.949 . S
C327 C326 1.339 1_554 S
C327 C328 1.439 . S
C327 H362 0.950 . S
C328 N324 1.383 1_554 S
C328 C327 1.439 . S
C328 C357 1.392 . S
N329 Co323 2.010 . S
N329 C330 1.376 . S
N329 C333 1.374 . S
C330 N329 1.376 . S
C330 C331 1.443 . S
C330 C357 1.389 . S
C331 C330 1.443 . S
C331 C332 1.340 . S
C331 H363 0.951 . S
C332 C331 1.340 . S
C332 C333 1.439 . S
C332 H364 0.950 . S
C333 N329 1.374 . S
C333 C332 1.439 . S
C333 C358 1.395 . S
N334 Co323 1.995 . S
N334 C335 1.376 . S
N334 C338 1.383 1_554 S
C335 N334 1.376 . S
C335 C336 1.446 . S
C335 C358 1.391 . S
C336 C335 1.446 . S
C336 C337 1.339 1_554 S
C336 H365 0.949 . S
C337 C336 1.339 1_556 S
C337 C338 1.439 . S
C337 H366 0.950 . S
C338 N334 1.383 1_556 S
C338 C337 1.439 . S
C338 C356 1.392 . S
N339 Co323 2.283 . S
N339 C342 1.332 . S
N339 C344 1.332 . S
C340 C341 1.386 . S
C340 C343 1.388 . S
C341 C340 1.386 . S
C341 C342 1.382 . S
C341 H367 0.950 . S
C342 N339 1.332 . S
C342 C341 1.382 . S
C342 H353 0.952 . S
C343 C340 1.388 . S
C343 C344 1.382 . S
C343 H368 0.950 . S
C344 N339 1.332 . S
C344 C343 1.382 . S
C344 H354 0.948 . S
N345 Co323 2.282 1_556 S
N345 C349 1.332 . S
N345 C350 1.332 . S
C346 C347 1.388 . S
C346 C350 1.382 . S
C346 H369 0.950 . S
C347 C346 1.388 . S
C347 C348 1.386 . S
C348 C347 1.386 . S
C348 C349 1.382 . S
C348 H370 0.950 . S
C349 N345 1.332 . S
C349 C348 1.382 . S
C349 H351 0.952 . S
C350 N345 1.332 . S
C350 C346 1.382 . S
C350 H352 0.948 . S
H351 C349 0.952 . S
H352 C350 0.948 . S
H353 C342 0.952 . S
H354 C344 0.948 . S
C355 C321 1.395 . S
C355 C325 1.391 . S
C356 C318 1.389 . S
C356 C338 1.392 . S
C357 C328 1.392 . S
C357 C330 1.389 . S
C358 C333 1.395 . S
C358 C335 1.391 . S
H359 C319 0.951 . S
H360 C320 0.950 . S
H361 C326 0.949 . S
H362 C327 0.950 . S
H363 C331 0.951 . S
H364 C332 0.950 . S
H365 C336 0.949 . S
H366 C337 0.950 . S
H367 C341 0.950 . S
H368 C343 0.950 . S
H369 C346 0.950 . S
H370 C348 0.950 . S
C371 C372 1.443 . S
C371 N375 1.376 . S
C371 C409 1.389 . S
C372 C371 1.443 . S
C372 C373 1.340 . S
C372 H412 0.951 . S
C373 C372 1.340 . S
C373 C374 1.439 . S
C373 H413 0.950 . S
C374 C373 1.439 . S
C374 N375 1.374 . S
C374 C408 1.395 1_455 S
N375 C371 1.376 . S
N375 C374 1.374 . S
N375 Co376 2.008 . S
Co376 N375 2.008 . S
Co376 N377 1.995 1_455 S
Co376 N382 2.008 1_455 S
Co376 N387 1.995 . S
Co376 N392 2.282 . S
Co376 N398 2.282 1_455 S
N377 Co376 1.995 1_655 S
N377 C378 1.376 . S
N377 C381 1.383 . S
C378 N377 1.376 . S
C378 C379 1.446 . S
C378 C408 1.391 . S
C379 C378 1.446 . S
C379 C380 1.339 . S
C379 H414 0.949 . S
C380 C379 1.339 . S
C380 C381 1.439 . S
C380 H415 0.950 . S
C381 N377 1.383 . S
C381 C380 1.439 . S
C381 C410 1.392 . S
N382 Co376 2.008 1_655 S
N382 C383 1.376 . S
N382 C386 1.374 . S
C383 N382 1.376 . S
C383 C384 1.443 . S
C383 C410 1.389 . S
C384 C383 1.443 . S
C384 C385 1.340 . S
C384 H416 0.951 . S
C385 C384 1.340 . S
C385 C386 1.439 . S
C385 H417 0.950 . S
C386 N382 1.374 . S
C386 C385 1.439 . S
C386 C411 1.395 1_655 S
N387 Co376 1.995 . S
N387 C388 1.376 . S
N387 C391 1.383 . S
C388 N387 1.376 . S
C388 C389 1.446 . S
C388 C411 1.391 . S
C389 C388 1.446 . S
C389 C390 1.339 . S
C389 H418 0.949 . S
C390 C389 1.339 . S
C390 C391 1.439 . S
C390 H419 0.950 . S
C391 N387 1.383 . S
C391 C390 1.439 . S
C391 C409 1.392 . S
N392 Co376 2.282 . S
N392 C395 1.332 . S
N392 C397 1.332 . S
C393 C394 1.386 . S
C393 C396 1.388 . S
C394 C393 1.386 . S
C394 C395 1.382 . S
C394 H420 0.950 . S
C395 N392 1.332 . S
C395 C394 1.382 . S
C395 H406 0.952 . S
C396 C393 1.388 . S
C396 C397 1.382 . S
C396 H421 0.950 . S
C397 N392 1.332 . S
C397 C396 1.382 . S
C397 H407 0.948 . S
N398 Co376 2.282 1_655 S
N398 C402 1.332 . S
N398 C403 1.332 . S
C399 C400 1.388 . S
C399 C403 1.382 . S
C399 H422 0.950 . S
C400 C399 1.388 . S
C400 C401 1.386 . S
C401 C400 1.386 . S
C401 C402 1.382 . S
C401 H423 0.950 . S
C402 N398 1.332 . S
C402 C401 1.382 . S
C402 H404 0.952 . S
C403 N398 1.332 . S
C403 C399 1.382 . S
C403 H405 0.948 . S
H404 C402 0.952 . S
H405 C403 0.948 . S
H406 C395 0.952 . S
H407 C397 0.948 . S
C408 C374 1.395 1_655 S
C408 C378 1.391 . S
C409 C371 1.389 . S
C409 C391 1.392 . S
C410 C381 1.392 . S
C410 C383 1.389 . S
C411 C386 1.395 1_455 S
C411 C388 1.391 . S
H412 C372 0.951 . S
H413 C373 0.950 . S
H414 C379 0.949 . S
H415 C380 0.950 . S
H416 C384 0.951 . S
H417 C385 0.950 . S
H418 C389 0.949 . S
H419 C390 0.950 . S
H420 C394 0.950 . S
H421 C396 0.950 . S
H422 C399 0.950 . S
H423 C401 0.950 . S
H424 C442 0.951 . S
H425 C444 0.951 . S
H426 C446 0.950 . S
H427 C447 0.950 . S
H428 C449 0.950 . S
H429 C452 0.950 . S
H430 C453 0.950 . S
H431 C455 0.950 . S
H432 C456 0.950 . S
H433 C457 0.951 . S
H434 C459 0.951 . S
H435 C461 0.950 . S
H436 C462 0.950 . S
H437 C464 0.950 . S
H438 C467 0.950 . S
H439 C468 0.950 . S
H440 C470 0.950 . S
H441 C471 0.950 . S
C442 H424 0.951 . S
C442 C443 1.366 . S
C442 C444 1.388 . S
C443 C442 1.366 . S
C443 C447 1.385 . S
C444 H425 0.951 . S
C444 C442 1.388 . S
C444 C445 1.366 . S
C445 C444 1.366 . S
C445 C446 1.414 . S
C445 C448 1.499 . S
C446 H426 0.950 . S
C446 C445 1.414 . S
C446 C447 1.374 . S
C447 H427 0.950 . S
C447 C443 1.385 . S
C447 C446 1.374 . S
C448 C445 1.499 . S
C448 C449 1.373 . S
C448 C450 1.389 . S
C449 H428 0.950 . S
C449 C448 1.373 . S
C449 C465 1.377 . S
C450 C448 1.389 . S
C450 C451 1.524 . S
C450 C464 1.377 . S
C451 C450 1.524 . S
C451 C452 1.397 . S
C451 C456 1.363 . S
C452 H429 0.950 . S
C452 C451 1.397 . S
C452 C453 1.334 . S
C453 H430 0.950 . S
C453 C452 1.334 . S
C453 C454 1.287 . S
C454 C453 1.287 . S
C454 C455 1.524 . S
C454 H473 0.913 . S
C455 H431 0.950 . S
C455 C454 1.524 . S
C455 C456 1.415 . S
C456 H432 0.950 . S
C456 C451 1.363 . S
C456 C455 1.415 . S
C457 H433 0.951 . S
C457 C458 1.366 . S
C457 C459 1.388 . S
C458 C457 1.366 . S
C458 C462 1.385 . S
C459 H434 0.951 . S
C459 C457 1.388 . S
C459 C460 1.366 . S
C460 C459 1.366 . S
C460 C461 1.414 . S
C460 C463 1.499 . S
C461 H435 0.950 . S
C461 C460 1.414 . S
C461 C462 1.374 . S
C462 H436 0.950 . S
C462 C458 1.385 . S
C462 C461 1.374 . S
C463 C460 1.499 . S
C463 C464 1.373 . S
C463 C465 1.389 . S
C464 H437 0.950 . S
C464 C450 1.377 . S
C464 C463 1.373 . S
C465 C449 1.377 . S
C465 C463 1.389 . S
C465 C466 1.524 . S
C466 C465 1.524 . S
C466 C467 1.397 . S
C466 C471 1.363 . S
C467 H438 0.950 . S
C467 C466 1.397 . S
C467 C468 1.334 . S
C468 H439 0.950 . S
C468 C467 1.334 . S
C468 C469 1.287 . S
C469 C468 1.287 . S
C469 C470 1.524 . S
C469 H472 0.999 . S
C470 H440 0.950 . S
C470 C469 1.524 . S
C470 C471 1.415 . S
C471 H441 0.950 . S
C471 C466 1.363 . S
C471 C470 1.415 . S
H472 C469 0.999 . S
H473 C454 0.913 . S
H474 C492 0.951 . S
H475 C494 0.951 . S
H476 C496 0.950 . S
H477 C497 0.950 . S
H478 C499 0.950 . S
H479 C502 0.950 . S
H480 C503 0.950 . S
H481 C505 0.950 . S
H482 C506 0.950 . S
H483 C507 0.951 . S
H484 C509 0.951 . S
H485 C511 0.950 . S
H486 C512 0.950 . S
H487 C514 0.950 . S
H488 C517 0.950 . S
H489 C518 0.950 . S
H490 C520 0.950 . S
H491 C521 0.950 . S
C492 H474 0.951 . S
C492 C493 1.366 . S
C492 C494 1.388 . S
C493 C492 1.366 . S
C493 C497 1.385 . S
C494 H475 0.951 . S
C494 C492 1.388 . S
C494 C495 1.366 . S
C495 C494 1.366 . S
C495 C496 1.414 . S
C495 C498 1.499 . S
C496 H476 0.950 . S
C496 C495 1.414 . S
C496 C497 1.374 . S
C497 H477 0.950 . S
C497 C493 1.385 . S
C497 C496 1.374 . S
C498 C495 1.499 . S
C498 C499 1.373 . S
C498 C500 1.389 . S
C499 H478 0.950 . S
C499 C498 1.373 . S
C499 C515 1.377 . S
C500 C498 1.389 . S
C500 C501 1.524 . S
C500 C514 1.377 . S
C501 C500 1.524 . S
C501 C502 1.397 . S
C501 C506 1.363 . S
C502 H479 0.950 . S
C502 C501 1.397 . S
C502 C503 1.334 . S
C503 H480 0.950 . S
C503 C502 1.334 . S
C503 C504 1.287 . S
C504 C503 1.287 . S
C504 C505 1.524 . S
C504 H523 0.913 . S
C505 H481 0.950 . S
C505 C504 1.524 . S
C505 C506 1.415 . S
C506 H482 0.950 . S
C506 C501 1.363 . S
C506 C505 1.415 . S
C507 H483 0.951 . S
C507 C508 1.366 . S
C507 C509 1.388 . S
C508 C507 1.366 . S
C508 C512 1.385 . S
C509 H484 0.951 . S
C509 C507 1.388 . S
C509 C510 1.366 . S
C510 C509 1.366 . S
C510 C511 1.414 . S
C510 C513 1.499 . S
C511 H485 0.950 . S
C511 C510 1.414 . S
C511 C512 1.374 . S
C512 H486 0.950 . S
C512 C508 1.385 . S
C512 C511 1.374 . S
C513 C510 1.499 . S
C513 C514 1.373 . S
C513 C515 1.389 . S
C514 H487 0.950 . S
C514 C500 1.377 . S
C514 C513 1.373 . S
C515 C499 1.377 . S
C515 C513 1.389 . S
C515 C516 1.524 . S
C516 C515 1.524 . S
C516 C517 1.397 . S
C516 C521 1.363 . S
C517 H488 0.950 . S
C517 C516 1.397 . S
C517 C518 1.334 . S
C518 H489 0.950 . S
C518 C517 1.334 . S
C518 C519 1.287 . S
C519 C518 1.287 . S
C519 C520 1.524 . S
C519 H522 0.999 . S
C520 H490 0.950 . S
C520 C519 1.524 . S
C520 C521 1.415 . S
C521 H491 0.950 . S
C521 C516 1.363 . S
C521 C520 1.415 . S
H522 C519 0.999 . S
H523 C504 0.913 . S
H524 C542 0.951 . S
H525 C544 0.951 . S
H526 C546 0.950 . S
H527 C547 0.950 . S
H528 C549 0.950 . S
H529 C552 0.950 . S
H530 C553 0.950 . S
H531 C555 0.950 . S
H532 C556 0.950 . S
H533 C557 0.951 . S
H534 C559 0.951 . S
H535 C561 0.950 . S
H536 C562 0.950 . S
H537 C564 0.950 . S
H538 C567 0.950 . S
H539 C568 0.950 . S
H540 C570 0.950 . S
H541 C571 0.950 . S
C542 H524 0.951 . S
C542 C543 1.366 . S
C542 C544 1.388 . S
C543 C542 1.366 . S
C543 C547 1.385 . S
C544 H525 0.951 . S
C544 C542 1.388 . S
C544 C545 1.366 . S
C545 C544 1.366 . S
C545 C546 1.414 . S
C545 C548 1.499 . S
C546 H526 0.950 . S
C546 C545 1.414 . S
C546 C547 1.374 . S
C547 H527 0.950 . S
C547 C543 1.385 . S
C547 C546 1.374 . S
C548 C545 1.499 . S
C548 C549 1.373 . S
C548 C550 1.389 . S
C549 H528 0.950 . S
C549 C548 1.373 . S
C549 C565 1.377 . S
C550 C548 1.389 . S
C550 C551 1.524 . S
C550 C564 1.377 . S
C551 C550 1.524 . S
C551 C552 1.397 . S
C551 C556 1.363 . S
C552 H529 0.950 . S
C552 C551 1.397 . S
C552 C553 1.334 . S
C553 H530 0.950 . S
C553 C552 1.334 . S
C553 C554 1.287 . S
C554 C553 1.287 . S
C554 C555 1.524 . S
C554 H573 0.913 . S
C555 H531 0.950 . S
C555 C554 1.524 . S
C555 C556 1.415 . S
C556 H532 0.950 . S
C556 C551 1.363 . S
C556 C555 1.415 . S
C557 H533 0.951 . S
C557 C558 1.366 . S
C557 C559 1.388 . S
C558 C557 1.366 . S
C558 C562 1.385 . S
C559 H534 0.951 . S
C559 C557 1.388 . S
C559 C560 1.366 . S
C560 C559 1.366 . S
C560 C561 1.414 . S
C560 C563 1.499 . S
C561 H535 0.950 . S
C561 C560 1.414 . S
C561 C562 1.374 . S
C562 H536 0.950 . S
C562 C558 1.385 . S
C562 C561 1.374 . S
C563 C560 1.499 . S
C563 C564 1.373 . S
C563 C565 1.389 . S
C564 H537 0.950 . S
C564 C550 1.377 . S
C564 C563 1.373 . S
C565 C549 1.377 . S
C565 C563 1.389 . S
C565 C566 1.524 . S
C566 C565 1.524 . S
C566 C567 1.397 . S
C566 C571 1.363 . S
C567 H538 0.950 . S
C567 C566 1.397 . S
C567 C568 1.334 . S
C568 H539 0.950 . S
C568 C567 1.334 . S
C568 C569 1.287 . S
C569 C568 1.287 . S
C569 C570 1.524 . S
C569 H572 0.999 . S
C570 H540 0.950 . S
C570 C569 1.524 . S
C570 C571 1.415 . S
C571 H541 0.950 . S
C571 C566 1.363 . S
C571 C570 1.415 . S
H572 C569 0.999 . S
H573 C554 0.913 . S
H574 C592 0.951 . S
H575 C594 0.951 . S
H576 C596 0.950 . S
H577 C597 0.950 . S
H578 C599 0.950 . S
H579 C602 0.950 . S
H580 C603 0.950 . S
H581 C605 0.950 . S
H582 C606 0.950 . S
H583 C607 0.951 . S
H584 C609 0.951 . S
H585 C611 0.950 . S
H586 C612 0.950 . S
H587 C614 0.950 . S
H588 C617 0.950 . S
H589 C618 0.950 . S
H590 C620 0.950 . S
H591 C621 0.950 . S
C592 H574 0.951 . S
C592 C593 1.366 . S
C592 C594 1.388 . S
C593 C592 1.366 . S
C593 C597 1.385 . S
C594 H575 0.951 . S
C594 C592 1.388 . S
C594 C595 1.366 . S
C595 C594 1.366 . S
C595 C596 1.414 . S
C595 C598 1.499 . S
C596 H576 0.950 . S
C596 C595 1.414 . S
C596 C597 1.374 . S
C597 H577 0.950 . S
C597 C593 1.385 . S
C597 C596 1.374 . S
C598 C595 1.499 . S
C598 C599 1.373 . S
C598 C600 1.389 . S
C599 H578 0.950 . S
C599 C598 1.373 . S
C599 C615 1.377 . S
C600 C598 1.389 . S
C600 C601 1.524 . S
C600 C614 1.377 . S
C601 C600 1.524 . S
C601 C602 1.397 . S
C601 C606 1.363 . S
C602 H579 0.950 . S
C602 C601 1.397 . S
C602 C603 1.334 . S
C603 H580 0.950 . S
C603 C602 1.334 . S
C603 C604 1.287 . S
C604 C603 1.287 . S
C604 C605 1.524 . S
C604 H623 0.913 . S
C605 H581 0.950 . S
C605 C604 1.524 . S
C605 C606 1.415 . S
C606 H582 0.950 . S
C606 C601 1.363 . S
C606 C605 1.415 . S
C607 H583 0.951 . S
C607 C608 1.366 . S
C607 C609 1.388 . S
C608 C607 1.366 . S
C608 C612 1.385 . S
C609 H584 0.951 . S
C609 C607 1.388 . S
C609 C610 1.366 . S
C610 C609 1.366 . S
C610 C611 1.414 . S
C610 C613 1.499 . S
C611 H585 0.950 . S
C611 C610 1.414 . S
C611 C612 1.374 . S
C612 H586 0.950 . S
C612 C608 1.385 . S
C612 C611 1.374 . S
C613 C610 1.499 . S
C613 C614 1.373 . S
C613 C615 1.389 . S
C614 H587 0.950 . S
C614 C600 1.377 . S
C614 C613 1.373 . S
C615 C599 1.377 . S
C615 C613 1.389 . S
C615 C616 1.524 . S
C616 C615 1.524 . S
C616 C617 1.397 . S
C616 C621 1.363 . S
C617 H588 0.950 . S
C617 C616 1.397 . S
C617 C618 1.334 . S
C618 H589 0.950 . S
C618 C617 1.334 . S
C618 C619 1.287 . S
C619 C618 1.287 . S
C619 C620 1.524 . S
C619 H622 0.999 . S
C620 H590 0.950 . S
C620 C619 1.524 . S
C620 C621 1.415 . S
C621 H591 0.950 . S
C621 C616 1.363 . S
C621 C620 1.415 . S
H622 C619 0.999 . S
H623 C604 0.913 . S
H624 C642 0.951 . S
H625 C644 0.951 . S
H626 C646 0.950 . S
H627 C647 0.950 . S
H628 C649 0.950 . S
H629 C652 0.950 . S
H630 C653 0.950 . S
H631 C655 0.950 . S
H632 C656 0.950 . S
H633 C657 0.951 . S
H634 C659 0.951 . S
H635 C661 0.950 . S
H636 C662 0.950 . S
H637 C664 0.950 . S
H638 C667 0.950 . S
H639 C668 0.950 . S
H640 C670 0.950 . S
H641 C671 0.950 . S
C642 H624 0.951 . S
C642 C643 1.366 . S
C642 C644 1.388 . S
C643 C642 1.366 . S
C643 C647 1.385 . S
C644 H625 0.951 . S
C644 C642 1.388 . S
C644 C645 1.366 . S
C645 C644 1.366 . S
C645 C646 1.414 . S
C645 C648 1.499 . S
C646 H626 0.950 . S
C646 C645 1.414 . S
C646 C647 1.374 . S
C647 H627 0.950 . S
C647 C643 1.385 . S
C647 C646 1.374 . S
C648 C645 1.499 . S
C648 C649 1.373 . S
C648 C650 1.389 . S
C649 H628 0.950 . S
C649 C648 1.373 . S
C649 C665 1.377 . S
C650 C648 1.389 . S
C650 C651 1.524 . S
C650 C664 1.377 . S
C651 C650 1.524 . S
C651 C652 1.397 . S
C651 C656 1.363 . S
C652 H629 0.950 . S
C652 C651 1.397 . S
C652 C653 1.334 . S
C653 H630 0.950 . S
C653 C652 1.334 . S
C653 C654 1.287 . S
C654 C653 1.287 . S
C654 C655 1.524 . S
C654 H673 0.913 . S
C655 H631 0.950 . S
C655 C654 1.524 . S
C655 C656 1.415 . S
C656 H632 0.950 . S
C656 C651 1.363 . S
C656 C655 1.415 . S
C657 H633 0.951 . S
C657 C658 1.366 . S
C657 C659 1.388 . S
C658 C657 1.366 . S
C658 C662 1.385 . S
C659 H634 0.951 . S
C659 C657 1.388 . S
C659 C660 1.366 . S
C660 C659 1.366 . S
C660 C661 1.414 . S
C660 C663 1.499 . S
C661 H635 0.950 . S
C661 C660 1.414 . S
C661 C662 1.374 . S
C662 H636 0.950 . S
C662 C658 1.385 . S
C662 C661 1.374 . S
C663 C660 1.499 . S
C663 C664 1.373 . S
C663 C665 1.389 . S
C664 H637 0.950 . S
C664 C650 1.377 . S
C664 C663 1.373 . S
C665 C649 1.377 . S
C665 C663 1.389 . S
C665 C666 1.524 . S
C666 C665 1.524 . S
C666 C667 1.397 . S
C666 C671 1.363 . S
C667 H638 0.950 . S
C667 C666 1.397 . S
C667 C668 1.334 . S
C668 H639 0.950 . S
C668 C667 1.334 . S
C668 C669 1.287 . S
C669 C668 1.287 . S
C669 C670 1.524 . S
C669 H672 0.999 . S
C670 H640 0.950 . S
C670 C669 1.524 . S
C670 C671 1.415 . S
C671 H641 0.950 . S
C671 C666 1.363 . S
C671 C670 1.415 . S
H672 C669 0.999 . S
H673 C654 0.913 . S
H674 C692 0.951 . S
H675 C694 0.951 . S
H676 C696 0.950 . S
H677 C697 0.950 . S
H678 C699 0.950 . S
H679 C702 0.950 . S
H680 C703 0.950 . S
H681 C705 0.950 . S
H682 C706 0.950 . S
H683 C707 0.951 . S
H684 C709 0.951 . S
H685 C711 0.950 . S
H686 C712 0.950 . S
H687 C714 0.950 . S
H688 C717 0.950 . S
H689 C718 0.950 . S
H690 C720 0.950 . S
H691 C721 0.950 . S
C692 H674 0.951 . S
C692 C693 1.366 . S
C692 C694 1.388 . S
C693 C692 1.366 . S
C693 C697 1.385 . S
C694 H675 0.951 . S
C694 C692 1.388 . S
C694 C695 1.366 . S
C695 C694 1.366 . S
C695 C696 1.414 . S
C695 C698 1.499 . S
C696 H676 0.950 . S
C696 C695 1.414 . S
C696 C697 1.374 . S
C697 H677 0.950 . S
C697 C693 1.385 . S
C697 C696 1.374 . S
C698 C695 1.499 . S
C698 C699 1.373 . S
C698 C700 1.389 . S
C699 H678 0.950 . S
C699 C698 1.373 . S
C699 C715 1.377 . S
C700 C698 1.389 . S
C700 C701 1.524 . S
C700 C714 1.377 . S
C701 C700 1.524 . S
C701 C702 1.397 . S
C701 C706 1.363 . S
C702 H679 0.950 . S
C702 C701 1.397 . S
C702 C703 1.334 . S
C703 H680 0.950 . S
C703 C702 1.334 . S
C703 C704 1.287 . S
C704 C703 1.287 . S
C704 C705 1.524 . S
C704 H723 0.913 . S
C705 H681 0.950 . S
C705 C704 1.524 . S
C705 C706 1.415 . S
C706 H682 0.950 . S
C706 C701 1.363 . S
C706 C705 1.415 . S
C707 H683 0.951 . S
C707 C708 1.366 . S
C707 C709 1.388 . S
C708 C707 1.366 . S
C708 C712 1.385 . S
C709 H684 0.951 . S
C709 C707 1.388 . S
C709 C710 1.366 . S
C710 C709 1.366 . S
C710 C711 1.414 . S
C710 C713 1.499 . S
C711 H685 0.950 . S
C711 C710 1.414 . S
C711 C712 1.374 . S
C712 H686 0.950 . S
C712 C708 1.385 . S
C712 C711 1.374 . S
C713 C710 1.499 . S
C713 C714 1.373 . S
C713 C715 1.389 . S
C714 H687 0.950 . S
C714 C700 1.377 . S
C714 C713 1.373 . S
C715 C699 1.377 . S
C715 C713 1.389 . S
C715 C716 1.524 . S
C716 C715 1.524 . S
C716 C717 1.397 . S
C716 C721 1.363 . S
C717 H688 0.950 . S
C717 C716 1.397 . S
C717 C718 1.334 . S
C718 H689 0.950 . S
C718 C717 1.334 . S
C718 C719 1.287 . S
C719 C718 1.287 . S
C719 C720 1.524 . S
C719 H722 0.999 . S
C720 H690 0.950 . S
C720 C719 1.524 . S
C720 C721 1.415 . S
C721 H691 0.950 . S
C721 C716 1.363 . S
C721 C720 1.415 . S
H722 C719 0.999 . S
H723 C704 0.913 . S
H724 C742 0.951 . S
H725 C744 0.951 . S
H726 C746 0.950 . S
H727 C747 0.950 . S
H728 C749 0.950 . S
H729 C752 0.950 . S
H730 C753 0.950 . S
H731 C755 0.950 . S
H732 C756 0.950 . S
H733 C757 0.951 . S
H734 C759 0.951 . S
H735 C761 0.950 . S
H736 C762 0.950 . S
H737 C764 0.950 . S
H738 C767 0.950 . S
H739 C768 0.950 . S
H740 C770 0.950 . S
H741 C771 0.950 . S
C742 H724 0.951 . S
C742 C743 1.366 . S
C742 C744 1.388 . S
C743 C742 1.366 . S
C743 C747 1.385 . S
C744 H725 0.951 . S
C744 C742 1.388 . S
C744 C745 1.366 . S
C745 C744 1.366 . S
C745 C746 1.414 . S
C745 C748 1.499 . S
C746 H726 0.950 . S
C746 C745 1.414 . S
C746 C747 1.374 . S
C747 H727 0.950 . S
C747 C743 1.385 . S
C747 C746 1.374 . S
C748 C745 1.499 . S
C748 C749 1.373 . S
C748 C750 1.389 . S
C749 H728 0.950 . S
C749 C748 1.373 . S
C749 C765 1.377 . S
C750 C748 1.389 . S
C750 C751 1.524 . S
C750 C764 1.377 . S
C751 C750 1.524 . S
C751 C752 1.397 . S
C751 C756 1.363 . S
C752 H729 0.950 . S
C752 C751 1.397 . S
C752 C753 1.334 . S
C753 H730 0.950 . S
C753 C752 1.334 . S
C753 C754 1.287 . S
C754 C753 1.287 . S
C754 C755 1.524 . S
C754 H773 0.913 . S
C755 H731 0.950 . S
C755 C754 1.524 . S
C755 C756 1.415 . S
C756 H732 0.950 . S
C756 C751 1.363 . S
C756 C755 1.415 . S
C757 H733 0.951 . S
C757 C758 1.366 . S
C757 C759 1.388 . S
C758 C757 1.366 . S
C758 C762 1.385 . S
C759 H734 0.951 . S
C759 C757 1.388 . S
C759 C760 1.366 . S
C760 C759 1.366 . S
C760 C761 1.414 . S
C760 C763 1.499 . S
C761 H735 0.950 . S
C761 C760 1.414 . S
C761 C762 1.374 . S
C762 H736 0.950 . S
C762 C758 1.385 . S
C762 C761 1.374 . S
C763 C760 1.499 . S
C763 C764 1.373 . S
C763 C765 1.389 . S
C764 H737 0.950 . S
C764 C750 1.377 . S
C764 C763 1.373 . S
C765 C749 1.377 . S
C765 C763 1.389 . S
C765 C766 1.524 . S
C766 C765 1.524 . S
C766 C767 1.397 . S
C766 C771 1.363 . S
C767 H738 0.950 . S
C767 C766 1.397 . S
C767 C768 1.334 . S
C768 H739 0.950 . S
C768 C767 1.334 . S
C768 C769 1.287 . S
C769 C768 1.287 . S
C769 C770 1.524 . S
C769 H772 0.999 . S
C770 H740 0.950 . S
C770 C769 1.524 . S
C770 C771 1.415 . S
C771 H741 0.950 . S
C771 C766 1.363 . S
C771 C770 1.415 . S
H772 C769 0.999 . S
H773 C754 0.913 . S
H774 C792 0.951 . S
H775 C794 0.951 . S
H776 C796 0.950 . S
H777 C797 0.950 . S
H778 C799 0.950 . S
H779 C802 0.950 . S
H780 C803 0.950 . S
H781 C805 0.950 . S
H782 C806 0.950 . S
H783 C807 0.951 . S
H784 C809 0.951 . S
H785 C811 0.950 . S
H786 C812 0.950 . S
H787 C814 0.950 . S
H788 C817 0.950 . S
H789 C818 0.950 . S
H790 C820 0.950 . S
H791 C821 0.950 . S
C792 H774 0.951 . S
C792 C793 1.366 . S
C792 C794 1.388 . S
C793 C792 1.366 . S
C793 C797 1.385 . S
C794 H775 0.951 . S
C794 C792 1.388 . S
C794 C795 1.366 . S
C795 C794 1.366 . S
C795 C796 1.414 . S
C795 C798 1.499 . S
C796 H776 0.950 . S
C796 C795 1.414 . S
C796 C797 1.374 . S
C797 H777 0.950 . S
C797 C793 1.385 . S
C797 C796 1.374 . S
C798 C795 1.499 . S
C798 C799 1.373 . S
C798 C800 1.389 . S
C799 H778 0.950 . S
C799 C798 1.373 . S
C799 C815 1.377 . S
C800 C798 1.389 . S
C800 C801 1.524 . S
C800 C814 1.377 . S
C801 C800 1.524 . S
C801 C802 1.397 . S
C801 C806 1.363 . S
C802 H779 0.950 . S
C802 C801 1.397 . S
C802 C803 1.334 . S
C803 H780 0.950 . S
C803 C802 1.334 . S
C803 C804 1.287 . S
C804 C803 1.287 . S
C804 C805 1.524 . S
C804 H823 0.913 1_565 S
C805 H781 0.950 . S
C805 C804 1.524 . S
C805 C806 1.415 . S
C806 H782 0.950 . S
C806 C801 1.363 . S
C806 C805 1.415 . S
C807 H783 0.951 . S
C807 C808 1.366 . S
C807 C809 1.388 . S
C808 C807 1.366 . S
C808 C812 1.385 . S
C809 H784 0.951 . S
C809 C807 1.388 . S
C809 C810 1.366 . S
C810 C809 1.366 . S
C810 C811 1.414 . S
C810 C813 1.499 . S
C811 H785 0.950 . S
C811 C810 1.414 . S
C811 C812 1.374 . S
C812 H786 0.950 . S
C812 C808 1.385 . S
C812 C811 1.374 . S
C813 C810 1.499 . S
C813 C814 1.373 . S
C813 C815 1.389 . S
C814 H787 0.950 . S
C814 C800 1.377 . S
C814 C813 1.373 . S
C815 C799 1.377 . S
C815 C813 1.389 . S
C815 C816 1.524 . S
C816 C815 1.524 . S
C816 C817 1.397 . S
C816 C821 1.363 . S
C817 H788 0.950 . S
C817 C816 1.397 . S
C817 C818 1.334 . S
C818 H789 0.950 . S
C818 C817 1.334 . S
C818 C819 1.287 . S
C819 C818 1.287 . S
C819 C820 1.524 . S
C819 H822 0.999 . S
C820 H790 0.950 . S
C820 C819 1.524 . S
C820 C821 1.415 . S
C821 H791 0.950 . S
C821 C816 1.363 . S
C821 C820 1.415 . S
H822 C819 0.999 . S
H823 C804 0.913 1_545 S
H824 C842 0.951 . S
H825 C844 0.951 . S
H826 C846 0.950 . S
H827 C847 0.950 . S
H828 C849 0.950 . S
H829 C852 0.950 . S
H830 C853 0.950 . S
H831 C855 0.950 . S
H832 C856 0.950 . S
H833 C857 0.951 . S
H834 C859 0.951 . S
H835 C861 0.950 . S
H836 C862 0.950 . S
H837 C864 0.950 . S
H838 C867 0.950 . S
H839 C868 0.950 . S
H840 C870 0.950 . S
H841 C871 0.950 . S
C842 H824 0.951 . S
C842 C843 1.366 . S
C842 C844 1.388 . S
C843 C842 1.366 . S
C843 C847 1.385 . S
C844 H825 0.951 . S
C844 C842 1.388 . S
C844 C845 1.366 . S
C845 C844 1.366 . S
C845 C846 1.414 . S
C845 C848 1.499 . S
C846 H826 0.950 . S
C846 C845 1.414 . S
C846 C847 1.374 . S
C847 H827 0.950 . S
C847 C843 1.385 . S
C847 C846 1.374 . S
C848 C845 1.499 . S
C848 C849 1.373 . S
C848 C850 1.389 . S
C849 H828 0.950 . S
C849 C848 1.373 . S
C849 C865 1.377 . S
C850 C848 1.389 . S
C850 C851 1.524 . S
C850 C864 1.377 . S
C851 C850 1.524 . S
C851 C852 1.397 . S
C851 C856 1.363 . S
C852 H829 0.950 . S
C852 C851 1.397 . S
C852 C853 1.334 . S
C853 H830 0.950 . S
C853 C852 1.334 . S
C853 C854 1.287 . S
C854 C853 1.287 . S
C854 C855 1.524 . S
C854 H873 0.913 . S
C855 H831 0.950 . S
C855 C854 1.524 . S
C855 C856 1.415 . S
C856 H832 0.950 . S
C856 C851 1.363 . S
C856 C855 1.415 . S
C857 H833 0.951 . S
C857 C858 1.366 . S
C857 C859 1.388 . S
C858 C857 1.366 . S
C858 C862 1.385 . S
C859 H834 0.951 . S
C859 C857 1.388 . S
C859 C860 1.366 . S
C860 C859 1.366 . S
C860 C861 1.414 . S
C860 C863 1.499 . S
C861 H835 0.950 . S
C861 C860 1.414 . S
C861 C862 1.374 . S
C862 H836 0.950 . S
C862 C858 1.385 . S
C862 C861 1.374 . S
C863 C860 1.499 . S
C863 C864 1.373 . S
C863 C865 1.389 . S
C864 H837 0.950 . S
C864 C850 1.377 . S
C864 C863 1.373 . S
C865 C849 1.377 . S
C865 C863 1.389 . S
C865 C866 1.524 . S
C866 C865 1.524 . S
C866 C867 1.397 . S
C866 C871 1.363 . S
C867 H838 0.950 . S
C867 C866 1.397 . S
C867 C868 1.334 . S
C868 H839 0.950 . S
C868 C867 1.334 . S
C868 C869 1.287 . S
C869 C868 1.287 . S
C869 C870 1.524 . S
C869 H872 0.999 . S
C870 H840 0.950 . S
C870 C869 1.524 . S
C870 C871 1.415 . S
C871 H841 0.950 . S
C871 C866 1.363 . S
C871 C870 1.415 . S
H872 C869 0.999 . S
H873 C854 0.913 . S
H874 C892 0.951 . S
H875 C894 0.951 . S
H876 C896 0.950 . S
H877 C897 0.950 . S
H878 C899 0.950 . S
H879 C902 0.950 . S
H880 C903 0.950 . S
H881 C905 0.950 . S
H882 C906 0.950 . S
H883 C907 0.951 . S
H884 C909 0.951 . S
H885 C911 0.950 . S
H886 C912 0.950 . S
H887 C914 0.950 . S
H888 C917 0.950 . S
H889 C918 0.950 . S
H890 C920 0.950 . S
H891 C921 0.950 . S
C892 H874 0.951 . S
C892 C893 1.366 . S
C892 C894 1.388 . S
C893 C892 1.366 . S
C893 C897 1.385 . S
C894 H875 0.951 . S
C894 C892 1.388 . S
C894 C895 1.366 . S
C895 C894 1.366 . S
C895 C896 1.414 . S
C895 C898 1.499 . S
C896 H876 0.950 . S
C896 C895 1.414 . S
C896 C897 1.374 . S
C897 H877 0.950 . S
C897 C893 1.385 . S
C897 C896 1.374 . S
C898 C895 1.499 . S
C898 C899 1.373 . S
C898 C900 1.389 . S
C899 H878 0.950 . S
C899 C898 1.373 . S
C899 C915 1.377 . S
C900 C898 1.389 . S
C900 C901 1.524 . S
C900 C914 1.377 . S
C901 C900 1.524 . S
C901 C902 1.397 . S
C901 C906 1.363 . S
C902 H879 0.950 . S
C902 C901 1.397 . S
C902 C903 1.334 . S
C903 H880 0.950 . S
C903 C902 1.334 . S
C903 C904 1.287 . S
C904 C903 1.287 . S
C904 C905 1.524 . S
C904 H923 0.913 . S
C905 H881 0.950 . S
C905 C904 1.524 . S
C905 C906 1.415 . S
C906 H882 0.950 . S
C906 C901 1.363 . S
C906 C905 1.415 . S
C907 H883 0.951 . S
C907 C908 1.366 . S
C907 C909 1.388 . S
C908 C907 1.366 . S
C908 C912 1.385 . S
C909 H884 0.951 . S
C909 C907 1.388 . S
C909 C910 1.366 . S
C910 C909 1.366 . S
C910 C911 1.414 . S
C910 C913 1.499 . S
C911 H885 0.950 . S
C911 C910 1.414 . S
C911 C912 1.374 . S
C912 H886 0.950 . S
C912 C908 1.385 . S
C912 C911 1.374 . S
C913 C910 1.499 . S
C913 C914 1.373 . S
C913 C915 1.389 . S
C914 H887 0.950 . S
C914 C900 1.377 . S
C914 C913 1.373 . S
C915 C899 1.377 . S
C915 C913 1.389 . S
C915 C916 1.524 . S
C916 C915 1.524 . S
C916 C917 1.397 . S
C916 C921 1.363 . S
C917 H888 0.950 . S
C917 C916 1.397 . S
C917 C918 1.334 . S
C918 H889 0.950 . S
C918 C917 1.334 . S
C918 C919 1.287 . S
C919 C918 1.287 . S
C919 C920 1.524 . S
C919 H922 0.999 . S
C920 H890 0.950 . S
C920 C919 1.524 . S
C920 C921 1.415 . S
C921 H891 0.950 . S
C921 C916 1.363 . S
C921 C920 1.415 . S
H922 C919 0.999 . S
H923 C904 0.913 . S
H924 C942 0.951 . S
H925 C944 0.951 . S
H926 C946 0.950 . S
H927 C947 0.950 . S
H928 C949 0.950 . S
H929 C952 0.950 . S
H930 C953 0.950 . S
H931 C955 0.950 . S
H932 C956 0.950 . S
H933 C957 0.951 . S
H934 C959 0.951 . S
H935 C961 0.950 . S
H936 C962 0.950 . S
H937 C964 0.950 . S
H938 C967 0.950 . S
H939 C968 0.950 . S
H940 C970 0.950 . S
H941 C971 0.950 . S
C942 H924 0.951 . S
C942 C943 1.366 . S
C942 C944 1.388 . S
C943 C942 1.366 . S
C943 C947 1.385 . S
C944 H925 0.951 . S
C944 C942 1.388 . S
C944 C945 1.366 . S
C945 C944 1.366 . S
C945 C946 1.414 . S
C945 C948 1.499 . S
C946 H926 0.950 . S
C946 C945 1.414 . S
C946 C947 1.374 . S
C947 H927 0.950 . S
C947 C943 1.385 . S
C947 C946 1.374 . S
C948 C945 1.499 . S
C948 C949 1.373 . S
C948 C950 1.389 . S
C949 H928 0.950 . S
C949 C948 1.373 . S
C949 C965 1.377 . S
C950 C948 1.389 . S
C950 C951 1.524 . S
C950 C964 1.377 . S
C951 C950 1.524 . S
C951 C952 1.397 . S
C951 C956 1.363 . S
C952 H929 0.950 . S
C952 C951 1.397 . S
C952 C953 1.334 . S
C953 H930 0.950 . S
C953 C952 1.334 . S
C953 C954 1.287 . S
C954 C953 1.287 . S
C954 C955 1.524 . S
C954 H973 0.913 . S
C955 H931 0.950 . S
C955 C954 1.524 . S
C955 C956 1.415 . S
C956 H932 0.950 . S
C956 C951 1.363 . S
C956 C955 1.415 . S
C957 H933 0.951 . S
C957 C958 1.366 . S
C957 C959 1.388 . S
C958 C957 1.366 . S
C958 C962 1.385 . S
C959 H934 0.951 . S
C959 C957 1.388 . S
C959 C960 1.366 . S
C960 C959 1.366 . S
C960 C961 1.414 . S
C960 C963 1.499 . S
C961 H935 0.950 . S
C961 C960 1.414 . S
C961 C962 1.374 . S
C962 H936 0.950 . S
C962 C958 1.385 . S
C962 C961 1.374 . S
C963 C960 1.499 . S
C963 C964 1.373 . S
C963 C965 1.389 . S
C964 H937 0.950 . S
C964 C950 1.377 . S
C964 C963 1.373 . S
C965 C949 1.377 . S
C965 C963 1.389 . S
C965 C966 1.524 . S
C966 C965 1.524 . S
C966 C967 1.397 . S
C966 C971 1.363 . S
C967 H938 0.950 . S
C967 C966 1.397 . S
C967 C968 1.334 . S
C968 H939 0.950 . S
C968 C967 1.334 . S
C968 C969 1.287 . S
C969 C968 1.287 . S
C969 C970 1.524 . S
C969 H972 0.999 . S
C970 H940 0.950 . S
C970 C969 1.524 . S
C970 C971 1.415 . S
C971 H941 0.950 . S
C971 C966 1.363 . S
C971 C970 1.415 . S
H972 C969 0.999 . S
H973 C954 0.913 . S
H974 C992 0.951 . S
H975 C994 0.951 . S
H976 C996 0.950 . S
H977 C997 0.950 . S
H978 C999 0.950 . S
H979 C1002 0.950 . S
H980 C1003 0.950 . S
H981 C1005 0.950 . S
H982 C1006 0.950 . S
H983 C1007 0.951 . S
H984 C1009 0.951 . S
H985 C1011 0.950 . S
H986 C1012 0.950 . S
H987 C1014 0.950 . S
H988 C1017 0.950 . S
H989 C1018 0.950 . S
H990 C1020 0.950 . S
H991 C1021 0.950 . S
C992 H974 0.951 . S
C992 C993 1.366 . S
C992 C994 1.388 . S
C993 C992 1.366 . S
C993 C997 1.385 . S
C994 H975 0.951 . S
C994 C992 1.388 . S
C994 C995 1.366 . S
C995 C994 1.366 . S
C995 C996 1.414 . S
C995 C998 1.499 . S
C996 H976 0.950 . S
C996 C995 1.414 . S
C996 C997 1.374 . S
C997 H977 0.950 . S
C997 C993 1.385 . S
C997 C996 1.374 . S
C998 C995 1.499 . S
C998 C999 1.373 . S
C998 C1000 1.389 . S
C999 H978 0.950 . S
C999 C998 1.373 . S
C999 C1015 1.377 . S
C1000 C998 1.389 . S
C1000 C1001 1.524 . S
C1000 C1014 1.377 . S
C1001 C1000 1.524 . S
C1001 C1002 1.397 . S
C1001 C1006 1.363 . S
C1002 H979 0.950 . S
C1002 C1001 1.397 . S
C1002 C1003 1.334 . S
C1003 H980 0.950 . S
C1003 C1002 1.334 . S
C1003 C1004 1.287 . S
C1004 C1003 1.287 . S
C1004 C1005 1.524 . S
C1004 H1023 0.913 . S
C1005 H981 0.950 . S
C1005 C1004 1.524 . S
C1005 C1006 1.415 . S
C1006 H982 0.950 . S
C1006 C1001 1.363 . S
C1006 C1005 1.415 . S
C1007 H983 0.951 . S
C1007 C1008 1.366 . S
C1007 C1009 1.388 . S
C1008 C1007 1.366 . S
C1008 C1012 1.385 . S
C1009 H984 0.951 . S
C1009 C1007 1.388 . S
C1009 C1010 1.366 . S
C1010 C1009 1.366 . S
C1010 C1011 1.414 . S
C1010 C1013 1.499 . S
C1011 H985 0.950 . S
C1011 C1010 1.414 . S
C1011 C1012 1.374 . S
C1012 H986 0.950 . S
C1012 C1008 1.385 . S
C1012 C1011 1.374 . S
C1013 C1010 1.499 . S
C1013 C1014 1.373 . S
C1013 C1015 1.389 . S
C1014 H987 0.950 . S
C1014 C1000 1.377 . S
C1014 C1013 1.373 . S
C1015 C999 1.377 . S
C1015 C1013 1.389 . S
C1015 C1016 1.524 . S
C1016 C1015 1.524 . S
C1016 C1017 1.397 . S
C1016 C1021 1.363 . S
C1017 H988 0.950 . S
C1017 C1016 1.397 . S
C1017 C1018 1.334 . S
C1018 H989 0.950 . S
C1018 C1017 1.334 . S
C1018 C1019 1.287 . S
C1019 C1018 1.287 . S
C1019 C1020 1.524 . S
C1019 H1022 0.999 . S
C1020 H990 0.950 . S
C1020 C1019 1.524 . S
C1020 C1021 1.415 . S
C1021 H991 0.950 . S
C1021 C1016 1.363 . S
C1021 C1020 1.415 . S
H1022 C1019 0.999 . S
H1023 C1004 0.913 . S
H1024 C1042 0.951 . S
H1025 C1044 0.951 . S
H1026 C1046 0.950 . S
H1027 C1047 0.950 . S
H1028 C1049 0.950 . S
H1029 C1052 0.950 . S
H1030 C1053 0.950 . S
H1031 C1055 0.950 . S
H1032 C1056 0.950 . S
H1033 C1057 0.951 . S
H1034 C1059 0.951 . S
H1035 C1061 0.950 . S
H1036 C1062 0.950 . S
H1037 C1064 0.950 . S
H1038 C1067 0.950 . S
H1039 C1068 0.950 . S
H1040 C1070 0.950 . S
H1041 C1071 0.950 . S
C1042 H1024 0.951 . S
C1042 C1043 1.366 . S
C1042 C1044 1.388 . S
C1043 C1042 1.366 . S
C1043 C1047 1.385 . S
C1044 H1025 0.951 . S
C1044 C1042 1.388 . S
C1044 C1045 1.366 . S
C1045 C1044 1.366 . S
C1045 C1046 1.414 . S
C1045 C1048 1.499 . S
C1046 H1026 0.950 . S
C1046 C1045 1.414 . S
C1046 C1047 1.374 . S
C1047 H1027 0.950 . S
C1047 C1043 1.385 . S
C1047 C1046 1.374 . S
C1048 C1045 1.499 . S
C1048 C1049 1.373 . S
C1048 C1050 1.389 . S
C1049 H1028 0.950 . S
C1049 C1048 1.373 . S
C1049 C1065 1.377 . S
C1050 C1048 1.389 . S
C1050 C1051 1.524 . S
C1050 C1064 1.377 . S
C1051 C1050 1.524 . S
C1051 C1052 1.397 . S
C1051 C1056 1.363 . S
C1052 H1029 0.950 . S
C1052 C1051 1.397 . S
C1052 C1053 1.334 . S
C1053 H1030 0.950 . S
C1053 C1052 1.334 . S
C1053 C1054 1.287 . S
C1054 C1053 1.287 . S
C1054 C1055 1.524 . S
C1054 H1073 0.913 . S
C1055 H1031 0.950 . S
C1055 C1054 1.524 . S
C1055 C1056 1.415 . S
C1056 H1032 0.950 . S
C1056 C1051 1.363 . S
C1056 C1055 1.415 . S
C1057 H1033 0.951 . S
C1057 C1058 1.366 . S
C1057 C1059 1.388 . S
C1058 C1057 1.366 . S
C1058 C1062 1.385 . S
C1059 H1034 0.951 . S
C1059 C1057 1.388 . S
C1059 C1060 1.366 . S
C1060 C1059 1.366 . S
C1060 C1061 1.414 . S
C1060 C1063 1.499 . S
C1061 H1035 0.950 . S
C1061 C1060 1.414 . S
C1061 C1062 1.374 . S
C1062 H1036 0.950 . S
C1062 C1058 1.385 . S
C1062 C1061 1.374 . S
C1063 C1060 1.499 . S
C1063 C1064 1.373 . S
C1063 C1065 1.389 . S
C1064 H1037 0.950 . S
C1064 C1050 1.377 . S
C1064 C1063 1.373 . S
C1065 C1049 1.377 . S
C1065 C1063 1.389 . S
C1065 C1066 1.524 . S
C1066 C1065 1.524 . S
C1066 C1067 1.397 . S
C1066 C1071 1.363 . S
C1067 H1038 0.950 . S
C1067 C1066 1.397 . S
C1067 C1068 1.334 . S
C1068 H1039 0.950 . S
C1068 C1067 1.334 . S
C1068 C1069 1.287 . S
C1069 C1068 1.287 . S
C1069 C1070 1.524 . S
C1069 H1072 0.999 . S
C1070 H1040 0.950 . S
C1070 C1069 1.524 . S
C1070 C1071 1.415 . S
C1071 H1041 0.950 . S
C1071 C1066 1.363 . S
C1071 C1070 1.415 . S
H1072 C1069 0.999 . S
H1073 C1054 0.913 . S
H1074 C1092 0.951 . S
H1075 C1094 0.951 . S
H1076 C1096 0.950 . S
H1077 C1097 0.950 . S
H1078 C1099 0.950 . S
H1079 C1102 0.950 . S
H1080 C1103 0.950 . S
H1081 C1105 0.950 . S
H1082 C1106 0.950 . S
H1083 C1107 0.951 . S
H1084 C1109 0.951 . S
H1085 C1111 0.950 . S
H1086 C1112 0.950 . S
H1087 C1114 0.950 . S
H1088 C1117 0.950 . S
H1089 C1118 0.950 . S
H1090 C1120 0.950 . S
H1091 C1121 0.950 . S
C1092 H1074 0.951 . S
C1092 C1093 1.366 . S
C1092 C1094 1.388 . S
C1093 C1092 1.366 . S
C1093 C1097 1.385 . S
C1094 H1075 0.951 . S
C1094 C1092 1.388 . S
C1094 C1095 1.366 . S
C1095 C1094 1.366 . S
C1095 C1096 1.414 . S
C1095 C1098 1.499 . S
C1096 H1076 0.950 . S
C1096 C1095 1.414 . S
C1096 C1097 1.374 . S
C1097 H1077 0.950 . S
C1097 C1093 1.385 . S
C1097 C1096 1.374 . S
C1098 C1095 1.499 . S
C1098 C1099 1.373 . S
C1098 C1100 1.389 . S
C1099 H1078 0.950 . S
C1099 C1098 1.373 . S
C1099 C1115 1.377 . S
C1100 C1098 1.389 . S
C1100 C1101 1.524 . S
C1100 C1114 1.377 . S
C1101 C1100 1.524 . S
C1101 C1102 1.397 . S
C1101 C1106 1.363 . S
C1102 H1079 0.950 . S
C1102 C1101 1.397 . S
C1102 C1103 1.334 . S
C1103 H1080 0.950 . S
C1103 C1102 1.334 . S
C1103 C1104 1.287 . S
C1104 C1103 1.287 . S
C1104 C1105 1.524 . S
C1104 H1123 0.913 . S
C1105 H1081 0.950 . S
C1105 C1104 1.524 . S
C1105 C1106 1.415 . S
C1106 H1082 0.950 . S
C1106 C1101 1.363 . S
C1106 C1105 1.415 . S
C1107 H1083 0.951 . S
C1107 C1108 1.366 . S
C1107 C1109 1.388 . S
C1108 C1107 1.366 . S
C1108 C1112 1.385 . S
C1109 H1084 0.951 . S
C1109 C1107 1.388 . S
C1109 C1110 1.366 . S
C1110 C1109 1.366 . S
C1110 C1111 1.414 . S
C1110 C1113 1.499 . S
C1111 H1085 0.950 . S
C1111 C1110 1.414 . S
C1111 C1112 1.374 . S
C1112 H1086 0.950 . S
C1112 C1108 1.385 . S
C1112 C1111 1.374 . S
C1113 C1110 1.499 . S
C1113 C1114 1.373 . S
C1113 C1115 1.389 . S
C1114 H1087 0.950 . S
C1114 C1100 1.377 . S
C1114 C1113 1.373 . S
C1115 C1099 1.377 . S
C1115 C1113 1.389 . S
C1115 C1116 1.524 . S
C1116 C1115 1.524 . S
C1116 C1117 1.397 . S
C1116 C1121 1.363 . S
C1117 H1088 0.950 . S
C1117 C1116 1.397 . S
C1117 C1118 1.334 . S
C1118 H1089 0.950 . S
C1118 C1117 1.334 . S
C1118 C1119 1.287 . S
C1119 C1118 1.287 . S
C1119 C1120 1.524 . S
C1119 H1122 0.999 . S
C1120 H1090 0.950 . S
C1120 C1119 1.524 . S
C1120 C1121 1.415 . S
C1121 H1091 0.950 . S
C1121 C1116 1.363 . S
C1121 C1120 1.415 . S
H1122 C1119 0.999 . S
H1123 C1104 0.913 . S
H1124 C1142 0.951 . S
H1125 C1144 0.951 . S
H1126 C1146 0.950 . S
H1127 C1147 0.950 . S
H1128 C1149 0.950 . S
H1129 C1152 0.950 . S
H1130 C1153 0.950 . S
H1131 C1155 0.950 . S
H1132 C1156 0.950 . S
H1133 C1157 0.951 . S
H1134 C1159 0.951 . S
H1135 C1161 0.950 . S
H1136 C1162 0.950 . S
H1137 C1164 0.950 . S
H1138 C1167 0.950 . S
H1139 C1168 0.950 . S
H1140 C1170 0.950 . S
H1141 C1171 0.950 . S
C1142 H1124 0.951 . S
C1142 C1143 1.366 . S
C1142 C1144 1.388 . S
C1143 C1142 1.366 . S
C1143 C1147 1.385 . S
C1144 H1125 0.951 . S
C1144 C1142 1.388 . S
C1144 C1145 1.366 . S
C1145 C1144 1.366 . S
C1145 C1146 1.414 . S
C1145 C1148 1.499 . S
C1146 H1126 0.950 . S
C1146 C1145 1.414 . S
C1146 C1147 1.374 . S
C1147 H1127 0.950 . S
C1147 C1143 1.385 . S
C1147 C1146 1.374 . S
C1148 C1145 1.499 . S
C1148 C1149 1.373 . S
C1148 C1150 1.389 . S
C1149 H1128 0.950 . S
C1149 C1148 1.373 . S
C1149 C1165 1.377 . S
C1150 C1148 1.389 . S
C1150 C1151 1.524 . S
C1150 C1164 1.377 . S
C1151 C1150 1.524 . S
C1151 C1152 1.397 . S
C1151 C1156 1.363 . S
C1152 H1129 0.950 . S
C1152 C1151 1.397 . S
C1152 C1153 1.334 . S
C1153 H1130 0.950 . S
C1153 C1152 1.334 . S
C1153 C1154 1.287 . S
C1154 C1153 1.287 . S
C1154 C1155 1.524 . S
C1154 H1173 0.913 . S
C1155 H1131 0.950 . S
C1155 C1154 1.524 . S
C1155 C1156 1.415 . S
C1156 H1132 0.950 . S
C1156 C1151 1.363 . S
C1156 C1155 1.415 . S
C1157 H1133 0.951 . S
C1157 C1158 1.366 . S
C1157 C1159 1.388 . S
C1158 C1157 1.366 . S
C1158 C1162 1.385 . S
C1159 H1134 0.951 . S
C1159 C1157 1.388 . S
C1159 C1160 1.366 . S
C1160 C1159 1.366 . S
C1160 C1161 1.414 . S
C1160 C1163 1.499 . S
C1161 H1135 0.950 . S
C1161 C1160 1.414 . S
C1161 C1162 1.374 . S
C1162 H1136 0.950 . S
C1162 C1158 1.385 . S
C1162 C1161 1.374 . S
C1163 C1160 1.499 . S
C1163 C1164 1.373 . S
C1163 C1165 1.389 . S
C1164 H1137 0.950 . S
C1164 C1150 1.377 . S
C1164 C1163 1.373 . S
C1165 C1149 1.377 . S
C1165 C1163 1.389 . S
C1165 C1166 1.524 . S
C1166 C1165 1.524 . S
C1166 C1167 1.397 . S
C1166 C1171 1.363 . S
C1167 H1138 0.950 . S
C1167 C1166 1.397 . S
C1167 C1168 1.334 . S
C1168 H1139 0.950 . S
C1168 C1167 1.334 . S
C1168 C1169 1.287 . S
C1169 C1168 1.287 . S
C1169 C1170 1.524 . S
C1169 H1172 0.999 . S
C1170 H1140 0.950 . S
C1170 C1169 1.524 . S
C1170 C1171 1.415 . S
C1171 H1141 0.950 . S
C1171 C1166 1.363 . S
C1171 C1170 1.415 . S
H1172 C1169 0.999 . S
H1173 C1154 0.913 . S
H1174 C1192 0.951 . S
H1175 C1194 0.951 . S
H1176 C1196 0.950 . S
H1177 C1197 0.950 . S
H1178 C1199 0.950 . S
H1179 C1202 0.950 . S
H1180 C1203 0.950 . S
H1181 C1205 0.950 . S
H1182 C1206 0.950 . S
H1183 C1207 0.951 . S
H1184 C1209 0.951 . S
H1185 C1211 0.950 . S
H1186 C1212 0.950 . S
H1187 C1214 0.950 . S
H1188 C1217 0.950 . S
H1189 C1218 0.950 . S
H1190 C1220 0.950 . S
H1191 C1221 0.950 . S
C1192 H1174 0.951 . S
C1192 C1193 1.366 . S
C1192 C1194 1.388 . S
C1193 C1192 1.366 . S
C1193 C1197 1.385 . S
C1194 H1175 0.951 . S
C1194 C1192 1.388 . S
C1194 C1195 1.366 . S
C1195 C1194 1.366 . S
C1195 C1196 1.414 . S
C1195 C1198 1.499 . S
C1196 H1176 0.950 . S
C1196 C1195 1.414 . S
C1196 C1197 1.374 . S
C1197 H1177 0.950 . S
C1197 C1193 1.385 . S
C1197 C1196 1.374 . S
C1198 C1195 1.499 . S
C1198 C1199 1.373 . S
C1198 C1200 1.389 . S
C1199 H1178 0.950 . S
C1199 C1198 1.373 . S
C1199 C1215 1.377 . S
C1200 C1198 1.389 . S
C1200 C1201 1.524 . S
C1200 C1214 1.377 . S
C1201 C1200 1.524 . S
C1201 C1202 1.397 . S
C1201 C1206 1.363 . S
C1202 H1179 0.950 . S
C1202 C1201 1.397 . S
C1202 C1203 1.334 . S
C1203 H1180 0.950 . S
C1203 C1202 1.334 . S
C1203 C1204 1.287 . S
C1204 C1203 1.287 . S
C1204 C1205 1.524 . S
C1204 H1223 0.913 . S
C1205 H1181 0.950 . S
C1205 C1204 1.524 . S
C1205 C1206 1.415 . S
C1206 H1182 0.950 . S
C1206 C1201 1.363 . S
C1206 C1205 1.415 . S
C1207 H1183 0.951 . S
C1207 C1208 1.366 . S
C1207 C1209 1.388 . S
C1208 C1207 1.366 . S
C1208 C1212 1.385 . S
C1209 H1184 0.951 . S
C1209 C1207 1.388 . S
C1209 C1210 1.366 . S
C1210 C1209 1.366 . S
C1210 C1211 1.414 . S
C1210 C1213 1.499 . S
C1211 H1185 0.950 . S
C1211 C1210 1.414 . S
C1211 C1212 1.374 . S
C1212 H1186 0.950 . S
C1212 C1208 1.385 . S
C1212 C1211 1.374 . S
C1213 C1210 1.499 . S
C1213 C1214 1.373 . S
C1213 C1215 1.389 . S
C1214 H1187 0.950 . S
C1214 C1200 1.377 . S
C1214 C1213 1.373 . S
C1215 C1199 1.377 . S
C1215 C1213 1.389 . S
C1215 C1216 1.524 . S
C1216 C1215 1.524 . S
C1216 C1217 1.397 . S
C1216 C1221 1.363 . S
C1217 H1188 0.950 . S
C1217 C1216 1.397 . S
C1217 C1218 1.334 . S
C1218 H1189 0.950 . S
C1218 C1217 1.334 . S
C1218 C1219 1.287 . S
C1219 C1218 1.287 . S
C1219 C1220 1.524 . S
C1219 H1222 0.999 . S
C1220 H1190 0.950 . S
C1220 C1219 1.524 . S
C1220 C1221 1.415 . S
C1221 H1191 0.950 . S
C1221 C1216 1.363 . S
C1221 C1220 1.415 . S
H1222 C1219 0.999 . S
H1223 C1204 0.913 . S
C443 C22 1.563 . S
C458 C198 1.564 . S
C493 C38 1.597 . S
C508 C91 1.595 . S
C543 C128 1.396 . S
C558 C75 1.395 . S
C593 C188 1.464 . S
C608 C144 1.464 . S
C643 C29 1.563 . S
C658 C304 1.566 . S
C693 C39 1.597 . S
C708 C250 1.597 . S
C743 C234 1.395 . S
C758 C135 1.396 . S
C793 C145 1.464 . S
C808 C294 1.464 . S
C843 C347 1.521 . S
C858 C303 1.521 . S
C893 C251 1.638 . S
C908 C357 1.637 . S
C943 C241 1.534 . S
C958 C410 1.535 . S
C993 C287 1.333 . S
C1008 C400 1.334 . S
C1043 C340 1.521 . S
C1058 C197 1.521 . S
C1093 C92 1.638 . S
C1108 C356 1.637 . S
C1143 C82 1.534 . S
C1158 C409 1.533 . S
C1193 C181 1.333 . S
C1208 C393 1.332 . S
