# Generated by pormake.
# Topology unf, (4)-cn, num edge types: 1
# Building blocks:
#     Node 0, Type 0, BuildingBlock: AZAVOO_clean_sbu_0, # of connection points: 4
#     Node 1, Type 0, BuildingBlock: AZAVOO_clean_sbu_0, # of connection points: 4
#     Node 2, Type 0, BuildingBlock: AZAVOO_clean_sbu_0, # of connection points: 4
#     Node 3, Type 0, BuildingBlock: AZAVOO_clean_sbu_0, # of connection points: 4
#     Node 4, Type 0, BuildingBlock: AZAVOO_clean_sbu_0, # of connection points: 4
#     Node 5, Type 0, BuildingBlock: AZAVOO_clean_sbu_0, # of connection points: 4
#     Node 6, Type 0, BuildingBlock: AZAVOO_clean_sbu_0, # of connection points: 4
#     Node 7, Type 0, BuildingBlock: AZAVOO_clean_sbu_0, # of connection points: 4
#     Node 8, Type 0, BuildingBlock: AZAVOO_clean_sbu_0, # of connection points: 4
#     Node 9, Type 0, BuildingBlock: AZAVOO_clean_sbu_0, # of connection points: 4
#     Node 10, Type 0, BuildingBlock: AZAVOO_clean_sbu_0, # of connection points: 4
#     Node 11, Type 0, BuildingBlock: AZAVOO_clean_sbu_0, # of connection points: 4
#     Edge 12, Type (0, 0), BuildingBlock: AJUNOK_clean_linker_0, # of connection points: 2
#     Edge 13, Type (0, 0), BuildingBlock: AJUNOK_clean_linker_0, # of connection points: 2
#     Edge 14, Type (0, 0), BuildingBlock: AJUNOK_clean_linker_0, # of connection points: 2
#     Edge 15, Type (0, 0), BuildingBlock: AJUNOK_clean_linker_0, # of connection points: 2
#     Edge 16, Type (0, 0), BuildingBlock: AJUNOK_clean_linker_0, # of connection points: 2
#     Edge 17, Type (0, 0), BuildingBlock: AJUNOK_clean_linker_0, # of connection points: 2
#     Edge 18, Type (0, 0), BuildingBlock: AJUNOK_clean_linker_0, # of connection points: 2
#     Edge 19, Type (0, 0), BuildingBlock: AJUNOK_clean_linker_0, # of connection points: 2
#     Edge 20, Type (0, 0), BuildingBlock: AJUNOK_clean_linker_0, # of connection points: 2
#     Edge 21, Type (0, 0), BuildingBlock: AJUNOK_clean_linker_0, # of connection points: 2
#     Edge 22, Type (0, 0), BuildingBlock: AJUNOK_clean_linker_0, # of connection points: 2
#     Edge 23, Type (0, 0), BuildingBlock: AJUNOK_clean_linker_0, # of connection points: 2
#     Edge 24, Type (0, 0), BuildingBlock: AJUNOK_clean_linker_0, # of connection points: 2
#     Edge 25, Type (0, 0), BuildingBlock: AJUNOK_clean_linker_0, # of connection points: 2
#     Edge 26, Type (0, 0), BuildingBlock: AJUNOK_clean_linker_0, # of connection points: 2
#     Edge 27, Type (0, 0), BuildingBlock: AJUNOK_clean_linker_0, # of connection points: 2
#     Edge 28, Type (0, 0), BuildingBlock: AJUNOK_clean_linker_0, # of connection points: 2
#     Edge 29, Type (0, 0), BuildingBlock: AJUNOK_clean_linker_0, # of connection points: 2
#     Edge 30, Type (0, 0), BuildingBlock: AJUNOK_clean_linker_0, # of connection points: 2
#     Edge 31, Type (0, 0), BuildingBlock: AJUNOK_clean_linker_0, # of connection points: 2
#     Edge 32, Type (0, 0), BuildingBlock: AJUNOK_clean_linker_0, # of connection points: 2
#     Edge 33, Type (0, 0), BuildingBlock: AJUNOK_clean_linker_0, # of connection points: 2
#     Edge 34, Type (0, 0), BuildingBlock: AJUNOK_clean_linker_0, # of connection points: 2
#     Edge 35, Type (0, 0), BuildingBlock: AJUNOK_clean_linker_0, # of connection points: 2
# Relax obj value: 0.240
# Max RMSD: 0.195
# Mean RMSD: 0.195
data_MOF--net-unf--node1-AZAVOO_clean_sbu_0--edge1-AJUNOK_clean_linker_0
_symmetry_space_group_name_H-M    P1
_symmetry_Int_Tables_number       1
_symmetry_cell_setting            triclinic
loop_
_symmetry_equiv_pos_as_xyz
'x, y, z'
_cell_length_a     27.762454
_cell_length_b     27.682689
_cell_length_c     28.242007
_cell_angle_alpha  90.344503
_cell_angle_beta   89.777881
_cell_angle_gamma 120.18181
loop_
_atom_site_label
_atom_site_type_symbol
_atom_site_fract_x
_atom_site_fract_y
_atom_site_fract_z
_atom_type_partial_charge
Mg0 Mg 0.13733 0.4057 0.08438 0.0
O1 O 0.05398 0.32737 0.06437 0.0
O2 O 0.05446 0.24669 0.06877 0.0
Mg3 Mg 0.1294 0.27401 0.11718 0.0
C4 C 0.03121 0.27474 0.0573 0.0
C5 C 0.07113 0.44725 0.03105 0.0
O6 O 0.0772 0.41481 0.00047 0.0
O7 O 0.12072 0.40295 0.1646 0.0
O8 O 0.08675 0.31528 0.15245 0.0
O9 O 0.16835 0.3962 0.01442 0.0
O10 O 0.17648 0.35631 0.07934 0.0
C11 C 0.11114 0.35621 0.1805 0.0
C12 C 0.18294 0.36348 0.03424 0.0
O13 O 0.0954 0.45657 0.07089 0.0
Mg14 Mg 0.5901 0.73009 0.0467 0.0
O15 O 0.6702 0.72616 0.03313 0.0
O16 O 0.74919 0.80773 0.04556 0.0
Mg17 Mg 0.71621 0.85278 0.09107 0.0
C18 C 0.72324 0.75705 0.03112 0.0
C19 C 0.55022 0.61844 -0.007 0.0
O20 O 0.58789 0.65447 0.96374 0.0
O21 O 0.58521 0.7155 0.12725 0.0
O22 O 0.67461 0.76737 0.12401 0.0
O23 O 0.60512 0.77372 0.97761 0.0
O24 O 0.63992 0.81852 0.04541 0.0
C25 C 0.63065 0.7474 0.14848 0.0
C26 C 0.63649 0.82007 5e-05 0.0
O27 O 0.53934 0.63668 0.0306 0.0
Mg28 Mg 0.27937 0.88302 0.08934 0.0
O29 O 0.28237 0.96254 0.06152 0.0
O30 O 0.19829 0.95519 0.05977 0.0
Mg31 Mg 0.15496 0.89127 0.11831 0.0
C32 C 0.24992 0.98023 0.04864 0.0
C33 C 0.38451 0.94352 0.029 0.0
O34 O 0.34421 0.93399 -0.00052 0.0
O35 O 0.29633 0.91214 0.16717 0.0
O36 O 0.23946 0.94111 0.15242 0.0
O37 O 0.2349 0.8407 0.02294 0.0
O38 O 0.19029 0.84051 0.08818 0.0
C39 C 0.25567 0.91735 0.18112 0.0
C40 C 0.18846 0.82723 0.0442 0.0
O41 O 0.37179 0.92484 0.07102 0.0
Mg42 Mg 0.5877 0.84176 0.4251 0.0
O43 O 0.66081 0.93234 0.43137 0.0
O44 O 0.74405 0.93809 0.42689 0.0
Mg45 Mg 0.71916 0.85883 0.38434 0.0
C46 C 0.71382 0.95986 0.43531 0.0
C47 C 0.54023 0.90693 0.4744 0.0
O48 O 0.57985 0.91212 0.50292 0.0
O49 O 0.58055 0.84164 0.34422 0.0
O50 O 0.67082 0.89109 0.34406 0.0
O51 O 0.60832 0.8248 0.49689 0.0
O52 O 0.64476 0.81213 0.43129 0.0
C53 C 0.62613 0.86063 0.32164 0.0
C54 C 0.64246 0.81201 0.47687 0.0
O55 O 0.52988 0.87691 0.43735 0.0
Mg56 Mg 0.10934 0.72224 0.37853 0.0
O57 O 0.02936 0.71296 0.412 0.0
O58 O 0.02171 0.78975 0.40681 0.0
Mg59 Mg 0.08684 0.83987 0.35093 0.0
C60 C 0.00494 0.74044 0.422 0.0
C61 C 0.06054 0.61502 0.43717 0.0
O62 O 0.06976 0.65331 0.46918 0.0
O63 O 0.07389 0.69991 0.30339 0.0
O64 O 0.04379 0.75667 0.31373 0.0
O65 O 0.15352 0.76738 0.44302 0.0
O66 O 0.14392 0.81173 0.38208 0.0
C67 C 0.07182 0.74181 0.28842 0.0
C68 C 0.16031 0.81336 0.42518 0.0
O69 O 0.07591 0.63031 0.39477 0.0
Mg70 Mg 0.27258 0.3956 0.4198 0.0
O71 O 0.27845 0.31756 0.43788 0.0
O72 O 0.19925 0.23675 0.42404 0.0
Mg73 Mg 0.15667 0.26623 0.37261 0.0
C74 C 0.24868 0.26441 0.4406 0.0
C75 C 0.37798 0.43896 0.48164 0.0
O76 O 0.34015 0.4012 0.50977 0.0
O77 O 0.29707 0.40065 0.34099 0.0
O78 O 0.24503 0.31194 0.3465 0.0
O79 O 0.22233 0.37856 0.48538 0.0
O80 O 0.18417 0.34485 0.41516 0.0
C81 C 0.26312 0.35487 0.32103 0.0
C82 C 0.17832 0.34811 0.4601 0.0
O83 O 0.36281 0.44829 0.44199 0.0
Mg84 Mg 0.87246 0.58572 0.92189 0.0
O85 O 0.95744 0.66358 0.93943 0.0
O86 O 0.96113 0.74392 0.9198 0.0
Mg87 Mg 0.89095 0.71278 0.86594 0.0
C88 C 0.98138 0.71692 0.94005 0.0
C89 C 0.93186 0.54254 0.98773 0.0
O90 O 0.93425 0.58244 0.01479 0.0
O91 O 0.89289 0.57368 0.8453 0.0
O92 O 0.93057 0.66268 0.84366 0.0
O93 O 0.84035 0.60915 0.98453 0.0
O94 O 0.83793 0.63846 0.91198 0.0
C95 C 0.90282 0.61667 0.82205 0.0
C96 C 0.82926 0.63935 0.95674 0.0
O97 O 0.90658 0.53212 0.94836 0.0
Mg98 Mg 0.39955 0.27335 0.88975 0.0
O99 O 0.32465 0.28211 0.91331 0.0
O100 O 0.24181 0.20402 0.90292 0.0
Mg101 Mg 0.26481 0.1565 0.85018 0.0
C102 C 0.27187 0.25357 0.91904 0.0
C103 C 0.44829 0.38069 0.94927 0.0
O104 O 0.41421 0.3421 0.97885 0.0
O105 O 0.39871 0.29404 0.81104 0.0
O106 O 0.31057 0.24185 0.81832 0.0
O107 O 0.38934 0.22832 0.95647 0.0
O108 O 0.34451 0.18369 0.89115 0.0
C109 C 0.35343 0.25629 0.7933 0.0
C110 C 0.35302 0.1824 0.93599 0.0
O111 O 0.45533 0.36565 0.90837 0.0
Mg112 Mg 0.72704 0.15246 0.92124 0.0
O113 O 0.71739 0.06455 0.92039 0.0
O114 O 0.79972 0.0688 0.91167 0.0
Mg115 Mg 0.84495 0.14946 0.86931 0.0
C116 C 0.74767 0.04184 0.92126 0.0
C117 C 0.61832 0.07805 0.97528 0.0
O118 O 0.65555 0.07407 0.00093 0.0
O119 O 0.7129 0.1564 0.84124 0.0
O120 O 0.7595 0.11335 0.83684 0.0
O121 O 0.77132 0.16652 0.99019 0.0
O122 O 0.81514 0.18996 0.92112 0.0
C123 C 0.74277 0.14289 0.81671 0.0
C124 C 0.81726 0.18626 0.96634 0.0
O125 O 0.63462 0.10964 0.93918 0.0
Mg126 Mg 0.39557 0.1067 0.57723 0.0
O127 O 0.31468 0.02668 0.55483 0.0
O128 O 0.24201 0.04114 0.55408 0.0
Mg129 Mg 0.269 0.10758 0.61198 0.0
C130 C 0.26484 0.01241 0.54306 0.0
C131 C 0.43318 0.03685 0.51868 0.0
O132 O 0.39917 0.04118 0.4891 0.0
O133 O 0.3895 0.08388 0.65609 0.0
O134 O 0.3033 0.05748 0.6453 0.0
O135 O 0.38926 0.14454 0.50989 0.0
O136 O 0.35253 0.15248 0.57723 0.0
C137 C 0.34537 0.0809 0.67219 0.0
C138 C 0.35958 0.16132 0.5324 0.0
O139 O 0.44244 0.06122 0.55874 0.0
Mg140 Mg 0.85242 0.27812 0.55172 0.0
O141 O 0.93656 0.28071 0.54085 0.0
O142 O 0.93379 0.20089 0.56075 0.0
Mg143 Mg 0.85651 0.16092 0.60716 0.0
C144 C 0.95849 0.24965 0.54252 0.0
C145 C 0.92194 0.38097 0.48929 0.0
O146 O 0.91975 0.34027 0.46353 0.0
O147 O 0.86306 0.30256 0.63099 0.0
O148 O 0.89929 0.25002 0.63227 0.0
O149 O 0.82313 0.22742 0.48583 0.0
O150 O 0.81339 0.18937 0.55671 0.0
C151 C 0.87441 0.27074 0.65452 0.0
C152 C 0.80833 0.18348 0.5114 0.0
O153 O 0.89546 0.36895 0.52832 0.0
Mg154 Mg 0.71879 0.57193 0.58563 0.0
O155 O 0.71555 0.65341 0.57715 0.0
O156 O 0.80083 0.7294 0.57972 0.0
Mg157 Mg 0.84465 0.69629 0.62595 0.0
C158 C 0.74867 0.70573 0.57097 0.0
C159 C 0.6121 0.53898 0.53238 0.0
O160 O 0.6517 0.57661 0.50545 0.0
O161 O 0.70635 0.5652 0.66657 0.0
O162 O 0.76035 0.65391 0.66078 0.0
O163 O 0.75888 0.58965 0.5148 0.0
O164 O 0.80773 0.61895 0.58119 0.0
C165 C 0.74331 0.6104 0.68544 0.0
C166 C 0.80662 0.61806 0.53561 0.0
O167 O 0.62579 0.52463 0.57044 0.0
C168 C 0.18915 0.3212 0.95767 0.0
C169 C 0.20373 0.33294 0.0058 0.0
C170 C 0.20972 0.29343 0.92981 0.0
C171 C 0.24622 0.27767 0.94913 0.0
H172 H 0.1617 0.33354 0.94144 0.0
H173 H 0.19828 0.2856 0.89274 0.0
S174 S 0.2965 0.29759 0.07286 0.0
N175 N 0.25595 0.32531 0.07156 0.0
N176 N 0.29525 0.27413 0.01872 0.0
C177 C 0.26067 0.28854 -0.00294 0.0
C178 C 0.23917 0.31591 0.0256 0.0
C179 C 0.72204 0.91238 0.98689 0.0
C180 C 0.66651 0.87364 0.97502 0.0
C181 C 0.74931 0.96609 0.9673 0.0
C182 C 0.72125 0.9831 0.93629 0.0
H183 H 0.74434 0.90143 0.01195 0.0
H184 H 0.79165 0.99524 0.97819 0.0
S185 S 0.57613 0.89652 0.89305 0.0
N186 N 0.58525 0.85483 0.92886 0.0
N187 N 0.63571 0.95642 0.89316 0.0
C188 C 0.66615 0.94423 0.9233 0.0
C189 C 0.63895 0.88922 0.94235 0.0
C190 C 0.13398 0.80926 0.96937 0.0
C191 C 0.1351 0.80063 0.01834 0.0
C192 C 0.08356 0.7836 0.94425 0.0
C193 C 0.03314 0.74769 0.96721 0.0
H194 H 0.17221 0.83611 0.95041 0.0
H195 H 0.08416 0.79064 0.90649 0.0
S196 S 0.01317 0.7119 0.0946 0.0
N197 N 0.08094 0.75465 0.08884 0.0
N198 N 0.98665 0.70556 0.04115 0.0
C199 C 0.03355 0.73906 0.016 0.0
C200 C 0.0845 0.76585 0.04173 0.0
C201 C 0.66913 0.7223 0.56016 0.0
C202 C 0.72512 0.73853 0.55096 0.0
C203 C 0.64374 0.74884 0.53796 0.0
C204 C 0.67307 0.79158 0.50498 0.0
H205 H 0.64436 0.68808 0.58405 0.0
H206 H 0.60008 0.73393 0.54493 0.0
S207 S 0.82149 0.8523 0.47097 0.0
N208 N 0.81007 0.80245 0.50888 0.0
N209 N 0.76188 0.85165 0.46661 0.0
C210 C 0.7295 0.80954 0.49667 0.0
C211 C 0.75572 0.78323 0.51991 0.0
C212 C 0.20672 0.86443 0.49951 0.0
C213 C 0.18475 0.86491 0.45469 0.0
C214 C 0.23162 0.91215 0.52827 0.0
C215 C 0.23411 0.96176 0.51399 0.0
H216 H 0.20574 0.82715 0.51235 0.0
H217 H 0.24923 0.91029 0.56192 0.0
S218 S 0.18505 0.98689 0.40012 0.0
N219 N 0.16992 0.92116 0.39693 0.0
N220 N 0.21394 0.00981 0.45256 0.0
C221 C 0.2119 0.96312 0.46988 0.0
C222 C 0.18796 0.91495 0.4398 0.0
C223 C 0.02525 0.29632 0.47677 0.0
C224 C 0.01406 0.27118 0.52156 0.0
C225 C 0.07833 0.3195 0.45663 0.0
C226 C 0.12238 0.31983 0.48127 0.0
H227 H 0.99269 0.29797 0.45711 0.0
H228 H 0.08534 0.3388 0.42209 0.0
S229 S 0.11436 0.25853 0.59929 0.0
N230 N 0.05052 0.24627 0.58943 0.0
N231 N 0.15136 0.29211 0.55221 0.0
C232 C 0.11177 0.29462 0.52598 0.0
C233 C 0.05721 0.26958 0.54595 0.0
C234 C 0.73829 0.7039 0.96766 0.0
C235 C 0.75486 0.73233 0.01118 0.0
C236 C 0.76424 0.67559 0.94957 0.0
C237 C 0.8063 0.6733 0.9752 0.0
H238 H 0.70474 0.70322 0.94764 0.0
H239 H 0.74988 0.65366 0.91608 0.0
S240 S 0.86581 0.74243 0.0902 0.0
N241 N 0.8174 0.75873 0.07858 0.0
N242 N 0.86488 0.70335 0.04534 0.0
C243 C 0.82383 0.70218 0.01846 0.0
C244 C 0.79843 0.73238 0.03626 0.0
C245 C 0.3556 0.12007 -0.00274 0.0
C246 C 0.32468 0.13022 0.96358 0.0
C247 C 0.33095 0.07138 0.02442 0.0
C248 C 0.27401 0.03151 0.01978 0.0
H249 H 0.39955 0.1497 0.00223 0.0
H250 H 0.35673 0.06522 0.04958 0.0
S251 S 0.17416 0.03904 0.93762 0.0
N252 N 0.23395 0.09678 0.92752 0.0
N253 N 0.18717 0.00549 0.9792 0.0
C254 C 0.24234 0.04139 0.98667 0.0
C255 C 0.26781 0.09065 0.95832 0.0
C256 C 0.97137 0.27049 -0.00898 0.0
C257 C 0.97718 0.24705 0.03301 0.0
C258 C 0.91949 0.24925 0.96925 0.0
C259 C 0.87131 0.20476 0.98936 0.0
H260 H 0.00719 0.30582 0.97508 0.0
H261 H 0.91691 0.26904 0.9371 0.0
S262 S 0.86494 0.12722 0.09798 0.0
N263 N 0.93144 0.17542 0.09291 0.0
N264 N 0.83293 0.13619 0.05254 0.0
C265 C 0.87662 0.18016 0.03093 0.0
C266 C 0.92994 0.2011 0.05257 0.0
C267 C 0.31888 0.22322 0.53262 0.0
C268 C 0.33048 0.18602 0.50777 0.0
C269 C 0.29151 0.24784 0.51069 0.0
C270 C 0.27331 0.23469 0.46366 0.0
H271 H 0.33203 0.2343 0.56911 0.0
H272 H 0.28454 0.27737 0.53057 0.0
S273 S 0.29234 0.13947 0.38324 0.0
N274 N 0.32163 0.13735 0.43342 0.0
N275 N 0.26824 0.18246 0.3927 0.0
C276 C 0.28356 0.19692 0.43858 0.0
C277 C 0.31274 0.17285 0.46049 0.0
C278 C 0.8072 0.09325 0.50282 0.0
C279 C 0.7865 0.12819 0.48939 0.0
C280 C 0.78493 0.03937 0.48368 0.0
C281 C 0.74013 0.01827 0.45171 0.0
H282 H 0.84078 0.10759 0.5282 0.0
H283 H 0.8016 0.01343 0.49521 0.0
S284 S 0.67113 0.09352 0.40564 0.0
N285 N 0.71989 0.13879 0.44168 0.0
N286 N 0.67636 0.0367 0.40702 0.0
C287 C 0.7193 0.05303 0.43791 0.0
C288 C 0.74298 0.10829 0.45641 0.0
C289 C 0.90406 0.70417 0.43656 0.0
C290 C 0.95583 0.71368 0.45283 0.0
C291 C 0.85567 0.6731 0.46363 0.0
C292 C 0.85802 0.6518 0.50815 0.0
H293 H 0.9007 0.71922 0.40209 0.0
H294 H 0.81625 0.66572 0.44962 0.0
S295 S 0.98477 0.6689 0.56735 0.0
N296 N 0.00742 0.70172 0.51638 0.0
N297 N 0.91687 0.64437 0.56789 0.0
C298 C 0.91004 0.66284 0.52534 0.0
C299 C 0.95893 0.69351 0.49744 0.0
C300 C 0.22986 0.4054 0.2689 0.0
C301 C 0.2263 0.35511 0.2833 0.0
C302 C 0.19192 0.40548 0.23636 0.0
C303 C 0.14903 0.35528 0.21686 0.0
H304 H 0.26163 0.44507 0.28332 0.0
H305 H 0.19652 0.4453 0.22636 0.0
S306 S 0.12213 0.21228 0.24243 0.0
N307 N 0.17763 0.25392 0.27419 0.0
N308 N 0.10481 0.25382 0.21506 0.0
C309 C 0.14502 0.30472 0.23104 0.0
C310 C 0.18414 0.30472 0.26351 0.0
C311 C 0.57949 0.76365 0.21453 0.0
C312 C 0.63022 0.77583 0.19307 0.0
C313 C 0.57837 0.79223 0.25532 0.0
C314 C 0.62793 0.8341 0.27633 0.0
H315 H 0.54019 0.73195 0.19967 0.0
H316 H 0.53827 0.78093 0.2707 0.0
S317 S 0.77197 0.88189 0.23404 0.0
N318 N 0.73144 0.83238 0.19635 0.0
N319 N 0.72934 0.8867 0.27207 0.0
C320 C 0.67897 0.84695 0.255 0.0
C321 C 0.68011 0.81757 0.21378 0.0
C322 C 0.16548 0.87745 0.2244 0.0
C323 C 0.21247 0.87344 0.21188 0.0
C324 C 0.12071 0.83472 0.24902 0.0
C325 C 0.12112 0.78629 0.26306 0.0
H326 H 0.16259 0.91358 0.21418 0.0
H327 H 0.08505 0.83953 0.25656 0.0
S328 S 0.23579 0.75626 0.24178 0.0
N329 N 0.25782 0.81783 0.21721 0.0
N330 N 0.1738 0.73757 0.264 0.0
C331 C 0.16852 0.78215 0.25195 0.0
C332 C 0.21426 0.82582 0.22658 0.0
C333 C 0.86811 0.66118 0.76606 0.0
C334 C 0.8616 0.61201 0.78636 0.0
C335 C 0.82877 0.65987 0.73475 0.0
C336 C 0.78157 0.60918 0.72127 0.0
H337 H 0.90386 0.70147 0.77466 0.0
H338 H 0.83593 0.69928 0.72072 0.0
S339 S 0.74519 0.46785 0.76311 0.0
N340 N 0.80428 0.51054 0.79026 0.0
N341 N 0.73046 0.50807 0.73055 0.0
C342 C 0.77448 0.55935 0.74088 0.0
C343 C 0.8146 0.56072 0.7733 0.0
C344 C 0.30333 0.16867 0.74576 0.0
C345 C 0.35425 0.21329 0.76207 0.0
C346 C 0.30127 0.12574 0.71799 0.0
C347 C 0.35009 0.12571 0.70448 0.0
H348 H 0.26436 0.16667 0.75461 0.0
H349 H 0.26078 0.09238 0.70669 0.0
S350 S 0.49463 0.23274 0.73795 0.0
N351 N 0.45518 0.2547 0.7629 0.0
N352 N 0.45133 0.17405 0.71027 0.0
C353 C 0.40155 0.16993 0.72065 0.0
C354 C 0.40365 0.21383 0.74922 0.0
C355 C 0.81374 0.1657 0.75379 0.0
C356 C 0.77365 0.17601 0.77464 0.0
C357 C 0.84655 0.19751 0.71598 0.0
C358 C 0.84043 0.24077 0.69655 0.0
H359 H 0.82046 0.13288 0.76697 0.0
H360 H 0.87687 0.1876 0.70175 0.0
S361 S 0.74145 0.28532 0.73793 0.0
N362 N 0.72966 0.23306 0.77315 0.0
N363 N 0.79129 0.29286 0.70133 0.0
C364 C 0.8005 0.25184 0.71688 0.0
C365 C 0.76701 0.21936 0.7559 0.0
C366 C 0.03692 0.51376 0.04748 0.0
C367 C 0.03409 0.46973 0.02023 0.0
C368 C 0.0026 0.53604 0.03753 0.0
C369 C 0.96398 0.51495 7e-05 0.0
H370 H 0.06649 0.53185 0.07629 0.0
H371 H 0.00733 0.57085 0.05882 0.0
S372 S 0.93642 0.39606 0.92093 0.0
N373 N 0.98698 0.40333 0.9561 0.0
N374 N 0.9224 0.44492 0.93755 0.0
C375 C 0.9595 0.4697 0.97347 0.0
C376 C -0.0054 0.44721 0.98348 0.0
C377 C 0.5389 0.53874 0.94252 0.0
C378 C 0.52318 0.55754 0.98299 0.0
C379 C 0.515 0.48165 0.93222 0.0
C380 C 0.47448 0.44082 0.96204 0.0
H381 H 0.57008 0.56831 0.9184 0.0
H382 H 0.52848 0.46954 0.90053 0.0
S383 S 0.41786 0.46763 0.07229 0.0
N384 N 0.46393 0.53039 0.05298 0.0
N385 N 0.41911 0.42327 0.03373 0.0
C386 C 0.45835 0.45893 0.00274 0.0
C387 C 0.48261 0.51715 0.01317 0.0
C388 C 0.48633 0.98206 0.04362 0.0
C389 C 0.44362 0.97768 0.01411 0.0
C390 C 0.54248 0.01469 0.03073 0.0
C391 C 0.55839 0.04467 0.98793 0.0
H392 H 0.47642 0.95998 0.077 0.0
H393 H 0.57364 0.01642 0.05475 0.0
S394 S 0.46275 0.04791 0.89806 0.0
N395 N 0.42118 0.00659 0.94002 0.0
N396 N 0.52662 0.06785 0.91595 0.0
C397 C 0.51614 0.04086 0.95808 0.0
C398 C 0.45886 0.00738 0.9711 0.0
C399 C 0.52519 0.97203 0.5256 0.0
C400 C 0.51094 0.9383 0.48467 0.0
C401 C 0.4999 0.00361 0.53614 0.0
C402 C 0.45932 0.00306 0.50615 0.0
H403 H 0.55644 0.97445 0.54988 0.0
H404 H 0.51262 0.02887 0.56807 0.0
S405 S 0.40611 0.92099 0.39474 0.0
N406 N 0.45293 0.90578 0.4141 0.0
N407 N 0.40529 0.96511 0.43386 0.0
C408 C 0.44436 0.96934 0.46511 0.0
C409 C 0.47014 0.93698 0.4544 0.0
C410 C 0.96375 0.48333 0.50507 0.0
C411 C 0.95745 0.44011 0.47464 0.0
C412 C -0.002 0.53954 0.49292 0.0
C413 C 0.02721 0.55503 0.44967 0.0
H414 H 0.94217 0.47387 0.53875 0.0
H415 H 0.00087 0.57103 0.51753 0.0
S416 S 0.02622 0.45824 0.35764 0.0
N417 N 0.98431 0.41683 0.39942 0.0
N418 N 0.04838 0.52255 0.37657 0.0
C419 C 0.02161 0.51236 0.41891 0.0
C420 C 0.98686 0.45496 0.43138 0.0
C421 C 0.45425 0.45061 0.5357 0.0
C422 C 0.43778 0.46688 0.49452 0.0
C423 C 0.51058 0.47414 0.54768 0.0
C424 C 0.55278 0.51495 0.51898 0.0
H425 H 0.42349 0.41888 0.55876 0.0
H426 H 0.521 0.45989 0.5796 0.0
S427 S 0.53186 0.57369 0.40802 0.0
N428 N 0.46836 0.5275 0.42552 0.0
N429 N 0.57405 0.57173 0.44795 0.0
C430 C 0.5369 0.5322 0.47796 0.0
C431 C 0.47951 0.50821 0.46577 0.0
loop_
_geom_bond_atom_site_label_1
_geom_bond_atom_site_label_2
_geom_bond_distance
_geom_bond_site_symmetry_2
_ccdc_geom_bond_type
Mg0 O1 2.023 1_455 S
Mg0 O7 1.986 . S
Mg0 O9 2.114 . S
Mg0 O10 2.251 . S
Mg0 O13 2.010 . S
O1 Mg0 2.023 1_655 S
O1 C4 1.250 . S
O2 Mg3 2.028 1_655 S
O2 C4 1.248 . S
Mg3 O2 2.028 1_455 S
Mg3 O8 2.032 . S
Mg3 O10 2.079 . S
C4 O1 1.250 . S
C4 O2 1.248 . S
C5 O6 1.264 . S
C5 O13 1.249 . S
O6 C5 1.264 . S
O7 Mg0 1.986 . S
O7 C11 1.246 . S
O8 Mg3 2.032 . S
O8 C11 1.259 . S
O9 Mg0 2.114 . S
O9 C12 1.252 . S
O10 Mg0 2.251 . S
O10 Mg3 2.079 . S
O10 C12 1.273 . S
C11 O7 1.246 . S
C11 O8 1.259 . S
C12 O9 1.252 . S
C12 O10 1.273 . S
O13 Mg0 2.010 . S
O13 C5 1.249 . S
Mg14 O15 2.028 . S
Mg14 O21 1.986 . S
Mg14 O23 2.114 . S
Mg14 O24 2.251 . S
Mg14 O27 2.010 . S
O15 Mg14 2.028 . S
O15 C18 1.250 . S
O16 Mg17 2.028 . S
O16 C18 1.248 . S
Mg17 O16 2.028 . S
Mg17 O22 2.032 . S
Mg17 O24 2.079 . S
C18 O15 1.250 . S
C18 O16 1.248 . S
C19 O20 1.264 . S
C19 O27 1.249 . S
O20 C19 1.264 . S
O21 Mg14 1.986 . S
O21 C25 1.246 . S
O22 Mg17 2.032 . S
O22 C25 1.259 . S
O23 Mg14 2.114 . S
O23 C26 1.252 . S
O24 Mg14 2.251 . S
O24 Mg17 2.079 . S
O24 C26 1.273 . S
C25 O21 1.246 . S
C25 O22 1.259 . S
C26 O23 1.252 . S
C26 O24 1.273 . S
O27 Mg14 2.010 . S
O27 C19 1.249 . S
Mg28 O29 2.022 1_565 S
Mg28 O35 1.986 . S
Mg28 O37 2.114 . S
Mg28 O38 2.251 . S
Mg28 O41 2.010 . S
O29 Mg28 2.022 1_545 S
O29 C32 1.256 . S
O30 Mg31 2.028 1_545 S
O30 C32 1.248 . S
Mg31 O30 2.028 1_565 S
Mg31 O36 2.032 . S
Mg31 O38 2.079 . S
C32 O29 1.256 . S
C32 O30 1.248 . S
C33 O34 1.264 . S
C33 O41 1.249 . S
O34 C33 1.264 . S
O35 Mg28 1.986 . S
O35 C39 1.246 . S
O36 Mg31 2.032 . S
O36 C39 1.259 . S
O37 Mg28 2.114 . S
O37 C40 1.252 . S
O38 Mg28 2.251 . S
O38 Mg31 2.079 . S
O38 C40 1.273 . S
C39 O35 1.246 . S
C39 O36 1.259 . S
C40 O37 1.252 . S
C40 O38 1.273 . S
O41 Mg28 2.010 . S
O41 C33 1.249 . S
Mg42 O43 2.023 1_565 S
Mg42 O49 1.986 . S
Mg42 O51 2.114 . S
Mg42 O52 2.251 . S
Mg42 O55 2.010 . S
O43 Mg42 2.023 1_545 S
O43 C46 1.250 . S
O44 Mg45 2.028 1_545 S
O44 C46 1.248 . S
Mg45 O44 2.028 1_565 S
Mg45 O50 2.032 . S
Mg45 O52 2.079 . S
C46 O43 1.250 . S
C46 O44 1.248 . S
C47 O48 1.264 . S
C47 O55 1.249 . S
O48 C47 1.264 . S
O49 Mg42 1.986 . S
O49 C53 1.246 . S
O50 Mg45 2.032 . S
O50 C53 1.259 . S
O51 Mg42 2.114 . S
O51 C54 1.252 . S
O52 Mg42 2.251 . S
O52 Mg45 2.079 . S
O52 C54 1.273 . S
C53 O49 1.246 . S
C53 O50 1.259 . S
C54 O51 1.252 . S
C54 O52 1.273 . S
O55 Mg42 2.010 . S
O55 C47 1.249 . S
Mg56 O57 2.022 1_455 S
Mg56 O63 1.986 . S
Mg56 O65 2.114 . S
Mg56 O66 2.251 . S
Mg56 O69 2.010 . S
O57 Mg56 2.022 1_655 S
O57 C60 1.256 . S
O58 Mg59 2.028 1_655 S
O58 C60 1.248 . S
Mg59 O58 2.028 1_455 S
Mg59 O64 2.032 . S
Mg59 O66 2.079 . S
C60 O57 1.256 . S
C60 O58 1.248 . S
C61 O62 1.264 . S
C61 O69 1.249 . S
O62 C61 1.264 . S
O63 Mg56 1.986 . S
O63 C67 1.246 . S
O64 Mg59 2.032 . S
O64 C67 1.259 . S
O65 Mg56 2.114 . S
O65 C68 1.252 . S
O66 Mg56 2.251 . S
O66 Mg59 2.079 . S
O66 C68 1.273 . S
C67 O63 1.246 . S
C67 O64 1.259 . S
C68 O65 1.252 . S
C68 O66 1.273 . S
O69 Mg56 2.010 . S
O69 C61 1.249 . S
Mg70 O71 2.028 . S
Mg70 O77 1.986 . S
Mg70 O79 2.114 . S
Mg70 O80 2.251 . S
Mg70 O83 2.010 . S
O71 Mg70 2.028 . S
O71 C74 1.250 . S
O72 Mg73 2.028 . S
O72 C74 1.248 . S
Mg73 O72 2.028 . S
Mg73 O78 2.032 . S
Mg73 O80 2.079 . S
C74 O71 1.250 . S
C74 O72 1.248 . S
C75 O76 1.264 . S
C75 O83 1.249 . S
O76 C75 1.264 . S
O77 Mg70 1.986 . S
O77 C81 1.246 . S
O78 Mg73 2.032 . S
O78 C81 1.259 . S
O79 Mg70 2.114 . S
O79 C82 1.252 . S
O80 Mg70 2.251 . S
O80 Mg73 2.079 . S
O80 C82 1.273 . S
C81 O77 1.246 . S
C81 O78 1.259 . S
C82 O79 1.252 . S
C82 O80 1.273 . S
O83 Mg70 2.010 . S
O83 C75 1.249 . S
Mg84 O85 2.023 1_655 S
Mg84 O91 1.986 . S
Mg84 O93 2.114 . S
Mg84 O94 2.251 . S
Mg84 O97 2.010 . S
O85 Mg84 2.023 1_455 S
O85 C88 1.250 . S
O86 Mg87 2.028 1_455 S
O86 C88 1.248 . S
Mg87 O86 2.028 1_655 S
Mg87 O92 2.032 . S
Mg87 O94 2.079 . S
C88 O85 1.250 . S
C88 O86 1.248 . S
C89 O90 1.264 . S
C89 O97 1.249 . S
O90 C89 1.264 . S
O91 Mg84 1.986 . S
O91 C95 1.246 . S
O92 Mg87 2.032 . S
O92 C95 1.259 . S
O93 Mg84 2.114 . S
O93 C96 1.252 . S
O94 Mg84 2.251 . S
O94 Mg87 2.079 . S
O94 C96 1.273 . S
C95 O91 1.246 . S
C95 O92 1.259 . S
C96 O93 1.252 . S
C96 O94 1.273 . S
O97 Mg84 2.010 . S
O97 C89 1.249 . S
Mg98 O99 2.028 . S
Mg98 O105 1.986 . S
Mg98 O107 2.114 . S
Mg98 O108 2.251 . S
Mg98 O111 2.010 . S
O99 Mg98 2.028 . S
O99 C102 1.250 . S
O100 Mg101 2.028 . S
O100 C102 1.248 . S
Mg101 O100 2.028 . S
Mg101 O106 2.032 . S
Mg101 O108 2.079 . S
C102 O99 1.250 . S
C102 O100 1.248 . S
C103 O104 1.264 . S
C103 O111 1.249 . S
O104 C103 1.264 . S
O105 Mg98 1.986 . S
O105 C109 1.246 . S
O106 Mg101 2.032 . S
O106 C109 1.259 . S
O107 Mg98 2.114 . S
O107 C110 1.252 . S
O108 Mg98 2.251 . S
O108 Mg101 2.079 . S
O108 C110 1.273 . S
C109 O105 1.246 . S
C109 O106 1.259 . S
C110 O107 1.252 . S
C110 O108 1.273 . S
O111 Mg98 2.010 . S
O111 C103 1.249 . S
Mg112 O113 2.022 1_545 S
Mg112 O119 1.986 . S
Mg112 O121 2.114 . S
Mg112 O122 2.251 . S
Mg112 O125 2.010 . S
O113 Mg112 2.022 1_565 S
O113 C116 1.256 . S
O114 Mg115 2.028 1_565 S
O114 C116 1.248 . S
Mg115 O114 2.028 1_545 S
Mg115 O120 2.032 . S
Mg115 O122 2.079 . S
C116 O113 1.256 . S
C116 O114 1.248 . S
C117 O118 1.264 . S
C117 O125 1.249 . S
O118 C117 1.264 . S
O119 Mg112 1.986 . S
O119 C123 1.246 . S
O120 Mg115 2.032 . S
O120 C123 1.259 . S
O121 Mg112 2.114 . S
O121 C124 1.252 . S
O122 Mg112 2.251 . S
O122 Mg115 2.079 . S
O122 C124 1.273 . S
C123 O119 1.246 . S
C123 O120 1.259 . S
C124 O121 1.252 . S
C124 O122 1.273 . S
O125 Mg112 2.010 . S
O125 C117 1.249 . S
Mg126 O127 2.023 1_545 S
Mg126 O133 1.986 . S
Mg126 O135 2.114 . S
Mg126 O136 2.251 . S
Mg126 O139 2.010 . S
O127 Mg126 2.023 1_565 S
O127 C130 1.250 . S
O128 Mg129 2.028 1_565 S
O128 C130 1.248 . S
Mg129 O128 2.028 1_545 S
Mg129 O134 2.032 . S
Mg129 O136 2.079 . S
C130 O127 1.250 . S
C130 O128 1.248 . S
C131 O132 1.264 . S
C131 O139 1.249 . S
O132 C131 1.264 . S
O133 Mg126 1.986 . S
O133 C137 1.246 . S
O134 Mg129 2.032 . S
O134 C137 1.259 . S
O135 Mg126 2.114 . S
O135 C138 1.252 . S
O136 Mg126 2.251 . S
O136 Mg129 2.079 . S
O136 C138 1.273 . S
C137 O133 1.246 . S
C137 O134 1.259 . S
C138 O135 1.252 . S
C138 O136 1.273 . S
O139 Mg126 2.010 . S
O139 C131 1.249 . S
Mg140 O141 2.022 1_655 S
Mg140 O147 1.986 . S
Mg140 O149 2.114 . S
Mg140 O150 2.251 . S
Mg140 O153 2.010 . S
O141 Mg140 2.022 1_455 S
O141 C144 1.256 . S
O142 Mg143 2.028 1_455 S
O142 C144 1.248 . S
Mg143 O142 2.028 1_655 S
Mg143 O148 2.032 . S
Mg143 O150 2.079 . S
C144 O141 1.256 . S
C144 O142 1.248 . S
C145 O146 1.264 . S
C145 O153 1.249 . S
O146 C145 1.264 . S
O147 Mg140 1.986 . S
O147 C151 1.246 . S
O148 Mg143 2.032 . S
O148 C151 1.259 . S
O149 Mg140 2.114 . S
O149 C152 1.252 . S
O150 Mg140 2.251 . S
O150 Mg143 2.079 . S
O150 C152 1.273 . S
C151 O147 1.246 . S
C151 O148 1.259 . S
C152 O149 1.252 . S
C152 O150 1.273 . S
O153 Mg140 2.010 . S
O153 C145 1.249 . S
Mg154 O155 2.028 . S
Mg154 O161 1.986 . S
Mg154 O163 2.114 . S
Mg154 O164 2.251 . S
Mg154 O167 2.010 . S
O155 Mg154 2.028 . S
O155 C158 1.250 . S
O156 Mg157 2.028 . S
O156 C158 1.248 . S
Mg157 O156 2.028 . S
Mg157 O162 2.032 . S
Mg157 O164 2.079 . S
C158 O155 1.250 . S
C158 O156 1.248 . S
C159 O160 1.264 . S
C159 O167 1.249 . S
O160 C159 1.264 . S
O161 Mg154 1.986 . S
O161 C165 1.246 . S
O162 Mg157 2.032 . S
O162 C165 1.259 . S
O163 Mg154 2.114 . S
O163 C166 1.252 . S
O164 Mg154 2.251 . S
O164 Mg157 2.079 . S
O164 C166 1.273 . S
C165 O161 1.246 . S
C165 O162 1.259 . S
C166 O163 1.252 . S
C166 O164 1.273 . S
O167 Mg154 2.010 . S
O167 C159 1.249 . S
C168 C169 1.369 1_556 S
C168 C170 1.419 . S
C168 H172 0.930 . S
C169 C168 1.369 1_554 S
C169 C178 1.429 . S
C170 C168 1.419 . S
C170 C171 1.363 . S
C170 H173 0.929 . S
C171 C170 1.363 . S
C171 C177 1.413 1_556 S
H172 C168 0.930 . S
H173 C170 0.929 . S
S174 N175 1.613 . S
S174 N176 1.610 . S
N175 S174 1.613 . S
N175 C178 1.350 . S
N176 S174 1.610 . S
N176 C177 1.360 . S
C177 C171 1.413 1_554 S
C177 N176 1.360 . S
C177 C178 1.442 . S
C178 C169 1.429 . S
C178 N175 1.350 . S
C178 C177 1.442 . S
C179 C180 1.369 . S
C179 C181 1.419 1_554 S
C179 H183 0.930 . S
C180 C179 1.369 . S
C180 C189 1.429 1_554 S
C181 C179 1.419 1_556 S
C181 C182 1.363 . S
C181 H184 0.929 1_556 S
C182 C181 1.363 . S
C182 C188 1.428 . S
H183 C179 0.930 . S
H184 C181 0.929 1_554 S
S185 N186 1.613 . S
S185 N187 1.610 . S
N186 S185 1.613 . S
N186 C189 1.350 . S
N187 S185 1.610 . S
N187 C188 1.351 . S
C188 C182 1.428 . S
C188 N187 1.351 . S
C188 C189 1.434 . S
C189 C180 1.429 1_556 S
C189 N186 1.350 . S
C189 C188 1.434 . S
C190 C191 1.369 1_556 S
C190 C192 1.419 . S
C190 H194 0.930 . S
C191 C190 1.369 1_554 S
C191 C200 1.429 . S
C192 C190 1.419 . S
C192 C193 1.363 . S
C192 H195 0.929 . S
C193 C192 1.363 . S
C193 C199 1.428 1_556 S
H194 C190 0.930 . S
H195 C192 0.929 . S
S196 N197 1.613 . S
S196 N198 1.610 . S
N197 S196 1.613 . S
N197 C200 1.350 . S
N198 S196 1.610 . S
N198 C199 1.351 . S
C199 C193 1.428 1_554 S
C199 N198 1.351 . S
C199 C200 1.434 . S
C200 C191 1.429 . S
C200 N197 1.350 . S
C200 C199 1.434 . S
C201 C202 1.369 . S
C201 C203 1.419 . S
C201 H205 0.930 . S
C202 C201 1.369 . S
C202 C211 1.429 . S
C203 C201 1.419 . S
C203 C204 1.363 . S
C203 H206 0.929 . S
C204 C203 1.363 . S
C204 C210 1.428 . S
H205 C201 0.930 . S
H206 C203 0.929 . S
S207 N208 1.613 . S
S207 N209 1.610 . S
N208 S207 1.613 . S
N208 C211 1.350 . S
N209 S207 1.610 . S
N209 C210 1.351 . S
C210 C204 1.428 . S
C210 N209 1.351 . S
C210 C211 1.434 . S
C211 C202 1.429 . S
C211 N208 1.350 . S
C211 C210 1.434 . S
C212 C213 1.369 . S
C212 C214 1.419 . S
C212 H216 0.930 . S
C213 C212 1.369 . S
C213 C222 1.429 . S
C214 C212 1.419 . S
C214 C215 1.363 . S
C214 H217 0.929 . S
C215 C214 1.363 . S
C215 C221 1.428 . S
H216 C212 0.930 . S
H217 C214 0.929 . S
S218 N219 1.613 . S
S218 N220 1.610 . S
N219 S218 1.613 . S
N219 C222 1.350 . S
N220 S218 1.610 . S
N220 C221 1.351 . S
C221 C215 1.428 . S
C221 N220 1.351 . S
C221 C222 1.434 . S
C222 C213 1.429 . S
C222 N219 1.350 . S
C222 C221 1.434 . S
C223 C224 1.369 . S
C223 C225 1.419 . S
C223 H227 0.930 . S
C224 C223 1.369 . S
C224 C233 1.429 . S
C225 C223 1.419 . S
C225 C226 1.363 . S
C225 H228 0.929 . S
C226 C225 1.363 . S
C226 C232 1.428 . S
H227 C223 0.930 . S
H228 C225 0.929 . S
S229 N230 1.613 . S
S229 N231 1.610 . S
N230 S229 1.613 . S
N230 C233 1.350 . S
N231 S229 1.610 . S
N231 C232 1.351 . S
C232 C226 1.428 . S
C232 N231 1.351 . S
C232 C233 1.434 . S
C233 C224 1.429 . S
C233 N230 1.350 . S
C233 C232 1.434 . S
C234 C235 1.369 . S
C234 C236 1.419 1_554 S
C234 H238 0.930 1_554 S
C235 C234 1.369 . S
C235 C244 1.429 . S
C236 C234 1.419 1_556 S
C236 C237 1.363 . S
C236 H239 0.929 . S
C237 C236 1.363 . S
C237 C243 1.428 1_556 S
H238 C234 0.930 1_556 S
H239 C236 0.929 . S
S240 N241 1.613 . S
S240 N242 1.610 . S
N241 S240 1.613 . S
N241 C244 1.350 . S
N242 S240 1.610 . S
N242 C243 1.351 . S
C243 C237 1.428 1_554 S
C243 N242 1.351 . S
C243 C244 1.434 . S
C244 C235 1.429 . S
C244 N241 1.350 . S
C244 C243 1.434 . S
C245 C246 1.369 1_554 S
C245 C247 1.419 . S
C245 H249 0.930 . S
C246 C245 1.369 1_556 S
C246 C255 1.429 . S
C247 C245 1.419 . S
C247 C248 1.363 . S
C247 H250 0.929 . S
C248 C247 1.363 . S
C248 C254 1.428 . S
H249 C245 0.930 . S
H250 C247 0.929 . S
S251 N252 1.613 . S
S251 N253 1.610 . S
N252 S251 1.613 . S
N252 C255 1.350 . S
N253 S251 1.610 . S
N253 C254 1.351 1_556 S
C254 C248 1.428 . S
C254 N253 1.351 1_554 S
C254 C255 1.434 1_554 S
C255 C246 1.429 . S
C255 N252 1.350 . S
C255 C254 1.434 1_556 S
C256 C257 1.369 . S
C256 C258 1.419 1_554 S
C256 H260 0.930 1_554 S
C257 C256 1.369 . S
C257 C266 1.429 . S
C258 C256 1.419 1_556 S
C258 C259 1.363 . S
C258 H261 0.929 . S
C259 C258 1.363 . S
C259 C265 1.428 1_556 S
H260 C256 0.930 1_556 S
H261 C258 0.929 . S
S262 N263 1.613 . S
S262 N264 1.610 . S
N263 S262 1.613 . S
N263 C266 1.350 . S
N264 S262 1.610 . S
N264 C265 1.351 . S
C265 C259 1.428 1_554 S
C265 N264 1.351 . S
C265 C266 1.434 . S
C266 C257 1.429 . S
C266 N263 1.350 . S
C266 C265 1.434 . S
C267 C268 1.369 . S
C267 C269 1.419 . S
C267 H271 0.930 . S
C268 C267 1.369 . S
C268 C277 1.429 . S
C269 C267 1.419 . S
C269 C270 1.363 . S
C269 H272 0.929 . S
C270 C269 1.363 . S
C270 C276 1.428 . S
H271 C267 0.930 . S
H272 C269 0.929 . S
S273 N274 1.613 . S
S273 N275 1.610 . S
N274 S273 1.613 . S
N274 C277 1.350 . S
N275 S273 1.610 . S
N275 C276 1.351 . S
C276 C270 1.428 . S
C276 N275 1.351 . S
C276 C277 1.434 . S
C277 C268 1.429 . S
C277 N274 1.350 . S
C277 C276 1.434 . S
C278 C279 1.369 . S
C278 C280 1.419 . S
C278 H282 0.930 . S
C279 C278 1.369 . S
C279 C288 1.429 . S
C280 C278 1.419 . S
C280 C281 1.363 . S
C280 H283 0.929 . S
C281 C280 1.363 . S
C281 C287 1.428 . S
H282 C278 0.930 . S
H283 C280 0.929 . S
S284 N285 1.613 . S
S284 N286 1.610 . S
N285 S284 1.613 . S
N285 C288 1.350 . S
N286 S284 1.610 . S
N286 C287 1.351 . S
C287 C281 1.428 . S
C287 N286 1.351 . S
C287 C288 1.434 . S
C288 C279 1.429 . S
C288 N285 1.350 . S
C288 C287 1.434 . S
C289 C290 1.369 . S
C289 C291 1.419 . S
C289 H293 0.930 . S
C290 C289 1.369 . S
C290 C299 1.429 . S
C291 C289 1.419 . S
C291 C292 1.363 . S
C291 H294 0.929 . S
C292 C291 1.363 . S
C292 C298 1.428 . S
H293 C289 0.930 . S
H294 C291 0.929 . S
S295 N296 1.613 . S
S295 N297 1.610 . S
N296 S295 1.613 . S
N296 C299 1.350 . S
N297 S295 1.610 . S
N297 C298 1.351 . S
C298 C292 1.428 . S
C298 N297 1.351 . S
C298 C299 1.434 . S
C299 C290 1.429 . S
C299 N296 1.350 . S
C299 C298 1.434 . S
C300 C301 1.369 . S
C300 C302 1.419 . S
C300 H304 0.930 . S
C301 C300 1.369 . S
C301 C310 1.429 . S
C302 C300 1.419 . S
C302 C303 1.363 . S
C302 H305 0.929 . S
C303 C302 1.363 . S
C303 C309 1.428 . S
H304 C300 0.930 . S
H305 C302 0.929 . S
S306 N307 1.613 . S
S306 N308 1.610 . S
N307 S306 1.613 . S
N307 C310 1.350 . S
N308 S306 1.610 . S
N308 C309 1.351 . S
C309 C303 1.428 . S
C309 N308 1.351 . S
C309 C310 1.434 . S
C310 C301 1.429 . S
C310 N307 1.350 . S
C310 C309 1.434 . S
C311 C312 1.369 . S
C311 C313 1.419 . S
C311 H315 0.930 . S
C312 C311 1.369 . S
C312 C321 1.429 . S
C313 C311 1.419 . S
C313 C314 1.363 . S
C313 H316 0.929 . S
C314 C313 1.363 . S
C314 C320 1.428 . S
H315 C311 0.930 . S
H316 C313 0.929 . S
S317 N318 1.613 . S
S317 N319 1.610 . S
N318 S317 1.613 . S
N318 C321 1.350 . S
N319 S317 1.610 . S
N319 C320 1.351 . S
C320 C314 1.428 . S
C320 N319 1.351 . S
C320 C321 1.434 . S
C321 C312 1.429 . S
C321 N318 1.350 . S
C321 C320 1.434 . S
C322 C323 1.369 . S
C322 C324 1.419 . S
C322 H326 0.930 . S
C323 C322 1.369 . S
C323 C332 1.429 . S
C324 C322 1.419 . S
C324 C325 1.363 . S
C324 H327 0.929 . S
C325 C324 1.363 . S
C325 C331 1.428 . S
H326 C322 0.930 . S
H327 C324 0.929 . S
S328 N329 1.613 . S
S328 N330 1.610 . S
N329 S328 1.613 . S
N329 C332 1.350 . S
N330 S328 1.610 . S
N330 C331 1.351 . S
C331 C325 1.428 . S
C331 N330 1.351 . S
C331 C332 1.434 . S
C332 C323 1.429 . S
C332 N329 1.350 . S
C332 C331 1.434 . S
C333 C334 1.369 . S
C333 C335 1.419 . S
C333 H337 0.930 . S
C334 C333 1.369 . S
C334 C343 1.429 . S
C335 C333 1.419 . S
C335 C336 1.363 . S
C335 H338 0.929 . S
C336 C335 1.363 . S
C336 C342 1.428 . S
H337 C333 0.930 . S
H338 C335 0.929 . S
S339 N340 1.613 . S
S339 N341 1.610 . S
N340 S339 1.613 . S
N340 C343 1.350 . S
N341 S339 1.610 . S
N341 C342 1.351 . S
C342 C336 1.428 . S
C342 N341 1.351 . S
C342 C343 1.434 . S
C343 C334 1.429 . S
C343 N340 1.350 . S
C343 C342 1.434 . S
C344 C345 1.369 . S
C344 C346 1.419 . S
C344 H348 0.930 . S
C345 C344 1.369 . S
C345 C354 1.429 . S
C346 C344 1.419 . S
C346 C347 1.363 . S
C346 H349 0.929 . S
C347 C346 1.363 . S
C347 C353 1.428 . S
H348 C344 0.930 . S
H349 C346 0.929 . S
S350 N351 1.613 . S
S350 N352 1.610 . S
N351 S350 1.613 . S
N351 C354 1.350 . S
N352 S350 1.610 . S
N352 C353 1.351 . S
C353 C347 1.428 . S
C353 N352 1.351 . S
C353 C354 1.434 . S
C354 C345 1.429 . S
C354 N351 1.350 . S
C354 C353 1.434 . S
C355 C356 1.369 . S
C355 C357 1.419 . S
C355 H359 0.930 . S
C356 C355 1.369 . S
C356 C365 1.429 . S
C357 C355 1.419 . S
C357 C358 1.363 . S
C357 H360 0.929 . S
C358 C357 1.363 . S
C358 C364 1.428 . S
H359 C355 0.930 . S
H360 C357 0.929 . S
S361 N362 1.613 . S
S361 N363 1.610 . S
N362 S361 1.613 . S
N362 C365 1.350 . S
N363 S361 1.610 . S
N363 C364 1.351 . S
C364 C358 1.428 . S
C364 N363 1.351 . S
C364 C365 1.434 . S
C365 C356 1.429 . S
C365 N362 1.350 . S
C365 C364 1.434 . S
C366 C367 1.369 1_655 S
C366 C368 1.419 . S
C366 H370 0.930 . S
C367 C366 1.369 1_455 S
C367 C376 1.429 1_554 S
C368 C366 1.419 . S
C368 C369 1.363 1_554 S
C368 H371 0.929 . S
C369 C368 1.363 1_556 S
C369 C375 1.428 1_655 S
H370 C366 0.930 . S
H371 C368 0.929 . S
S372 N373 1.613 . S
S372 N374 1.610 . S
N373 S372 1.613 . S
N373 C376 1.350 . S
N374 S372 1.610 . S
N374 C375 1.351 . S
C375 C369 1.428 1_455 S
C375 N374 1.351 . S
C375 C376 1.434 . S
C376 C367 1.429 1_556 S
C376 N373 1.350 . S
C376 C375 1.434 . S
C377 C378 1.369 . S
C377 C379 1.419 1_554 S
C377 H381 0.930 . S
C378 C377 1.369 . S
C378 C387 1.421 1_554 S
C379 C377 1.419 1_556 S
C379 C380 1.363 . S
C379 H382 0.929 . S
C380 C379 1.363 . S
C380 C386 1.428 . S
H381 C377 0.930 . S
H382 C379 0.929 . S
S383 N384 1.613 . S
S383 N385 1.610 . S
N384 S383 1.613 . S
N384 C387 1.352 . S
N385 S383 1.610 . S
N385 C386 1.351 . S
C386 C380 1.428 . S
C386 N385 1.351 . S
C386 C387 1.441 . S
C387 C378 1.421 1_556 S
C387 N384 1.352 . S
C387 C386 1.441 . S
C388 C389 1.369 1_546 S
C388 C390 1.419 . S
C388 H392 0.930 . S
C389 C388 1.369 1_564 S
C389 C398 1.429 . S
C390 C388 1.419 . S
C390 C391 1.363 . S
C390 H393 0.929 . S
C391 C390 1.363 . S
C391 C397 1.428 1_546 S
H392 C388 0.930 . S
H393 C390 0.929 . S
S394 N395 1.613 . S
S394 N396 1.610 . S
N395 S394 1.613 . S
N395 C398 1.350 . S
N396 S394 1.610 . S
N396 C397 1.351 . S
C397 C391 1.428 1_564 S
C397 N396 1.351 . S
C397 C398 1.434 . S
C398 C389 1.429 . S
C398 N395 1.350 . S
C398 C397 1.434 . S
C399 C400 1.369 . S
C399 C401 1.419 . S
C399 H403 0.930 . S
C400 C399 1.369 . S
C400 C409 1.429 1_565 S
C401 C399 1.419 . S
C401 C402 1.363 1_565 S
C401 H404 0.929 . S
C402 C401 1.363 1_545 S
C402 C408 1.428 . S
H403 C399 0.930 . S
H404 C401 0.929 . S
S405 N406 1.613 . S
S405 N407 1.610 . S
N406 S405 1.613 . S
N406 C409 1.350 . S
N407 S405 1.610 . S
N407 C408 1.351 . S
C408 C402 1.428 . S
C408 N407 1.351 . S
C408 C409 1.434 . S
C409 C400 1.429 1_545 S
C409 N406 1.350 . S
C409 C408 1.434 . S
C410 C411 1.369 1_455 S
C410 C412 1.419 . S
C410 H414 0.930 . S
C411 C410 1.369 1_655 S
C411 C420 1.429 . S
C412 C410 1.419 . S
C412 C413 1.363 . S
C412 H415 0.929 . S
C413 C412 1.363 . S
C413 C419 1.428 1_455 S
H414 C410 0.930 . S
H415 C412 0.929 . S
S416 N417 1.613 . S
S416 N418 1.610 . S
N417 S416 1.613 . S
N417 C420 1.350 . S
N418 S416 1.610 . S
N418 C419 1.351 . S
C419 C413 1.428 1_655 S
C419 N418 1.351 . S
C419 C420 1.434 . S
C420 C411 1.429 . S
C420 N417 1.350 . S
C420 C419 1.434 . S
C421 C422 1.369 . S
C421 C423 1.419 . S
C421 H425 0.930 . S
C422 C421 1.369 . S
C422 C431 1.429 . S
C423 C421 1.419 . S
C423 C424 1.363 . S
C423 H426 0.929 . S
C424 C423 1.363 . S
C424 C430 1.428 . S
H425 C421 0.930 . S
H426 C423 0.929 . S
S427 N428 1.613 . S
S427 N429 1.610 . S
N428 S427 1.613 . S
N428 C431 1.350 . S
N429 S427 1.610 . S
N429 C430 1.351 . S
C430 C424 1.428 . S
C430 N429 1.351 . S
C430 C431 1.434 . S
C431 C422 1.429 . S
C431 N428 1.350 . S
C431 C430 1.434 . S
C169 C12 0.832 . S
C171 C102 0.828 . S
C180 C26 0.832 . S
C182 C116 0.831 . S
C191 C40 0.831 . S
C193 C88 0.826 . S
C202 C158 0.824 . S
C204 C54 0.830 . S
C213 C68 0.831 . S
C215 C130 0.826 . S
C224 C144 0.830 . S
C226 C82 0.831 . S
C235 C18 0.827 . S
C237 C96 0.830 . S
C246 C110 0.829 . S
C248 C32 0.825 . S
C257 C4 0.829 . S
C259 C124 0.831 . S
C268 C138 0.832 . S
C270 C74 0.830 . S
C279 C152 0.833 . S
C281 C46 0.830 . S
C290 C60 0.831 . S
C292 C166 0.832 . S
C301 C81 1.662 . S
C303 C11 1.653 . S
C312 C25 1.661 . S
C314 C53 1.653 . S
C323 C39 1.658 . S
C325 C67 1.660 . S
C334 C95 1.662 . S
C336 C165 1.653 . S
C345 C109 1.661 . S
C347 C137 1.659 . S
C356 C123 1.662 . S
C358 C151 1.653 . S
C367 C5 1.478 . S
C369 C89 1.483 . S
C378 C19 1.486 . S
C380 C103 1.477 . S
C389 C33 1.478 . S
C391 C117 1.484 . S
C400 C47 1.486 . S
C402 C131 1.477 . S
C411 C145 1.474 . S
C413 C61 1.486 . S
C422 C75 1.488 . S
C424 C159 1.476 . S
