# Generated by pormake.
# Topology qdl, (4)-cn, num edge types: 1
# Building blocks:
#     Node 0, Type 0, BuildingBlock: ESEHIV_clean_sbu_0, # of connection points: 4
#     Node 1, Type 0, BuildingBlock: ESEHIV_clean_sbu_0, # of connection points: 4
#     Node 2, Type 0, BuildingBlock: ESEHIV_clean_sbu_0, # of connection points: 4
#     Node 3, Type 0, BuildingBlock: ESEHIV_clean_sbu_0, # of connection points: 4
#     Node 4, Type 0, BuildingBlock: ESEHIV_clean_sbu_0, # of connection points: 4
#     Node 5, Type 0, BuildingBlock: ESEHIV_clean_sbu_0, # of connection points: 4
#     Edge 6, Type (0, 0), BuildingBlock: ZUJKAS_clean_linker_0, # of connection points: 2
#     Edge 7, Type (0, 0), BuildingBlock: ZUJKAS_clean_linker_0, # of connection points: 2
#     Edge 8, Type (0, 0), BuildingBlock: ZUJKAS_clean_linker_0, # of connection points: 2
#     Edge 9, Type (0, 0), BuildingBlock: ZUJKAS_clean_linker_0, # of connection points: 2
#     Edge 10, Type (0, 0), BuildingBlock: ZUJKAS_clean_linker_0, # of connection points: 2
#     Edge 11, Type (0, 0), BuildingBlock: ZUJKAS_clean_linker_0, # of connection points: 2
#     Edge 12, Type (0, 0), BuildingBlock: ZUJKAS_clean_linker_0, # of connection points: 2
#     Edge 13, Type (0, 0), BuildingBlock: ZUJKAS_clean_linker_0, # of connection points: 2
#     Edge 14, Type (0, 0), BuildingBlock: ZUJKAS_clean_linker_0, # of connection points: 2
#     Edge 15, Type (0, 0), BuildingBlock: ZUJKAS_clean_linker_0, # of connection points: 2
#     Edge 16, Type (0, 0), BuildingBlock: ZUJKAS_clean_linker_0, # of connection points: 2
#     Edge 17, Type (0, 0), BuildingBlock: ZUJKAS_clean_linker_0, # of connection points: 2
# Relax obj value: 0.000
# Max RMSD: 0.130
# Mean RMSD: 0.084
data_MOF--net-qdl--node1-ESEHIV_clean_sbu_0--edge1-ZUJKAS_clean_linker_0
_symmetry_space_group_name_H-M    P1
_symmetry_Int_Tables_number       1
_symmetry_cell_setting            triclinic
loop_
_symmetry_equiv_pos_as_xyz
'x, y, z'
_cell_length_a     19.450091
_cell_length_b     22.029344
_cell_length_c     120.58501
_cell_angle_alpha  100.13324
_cell_angle_beta   100.04097
_cell_angle_gamma 116.31817
loop_
_atom_site_label
_atom_site_type_symbol
_atom_site_fract_x
_atom_site_fract_y
_atom_site_fract_z
_atom_type_partial_charge
Cu0 Cu 0.144 0.12371 0.08681 0.0
N1 N 0.08206 0.02402 0.08322 0.0
N2 N 0.051 0.91069 0.08172 0.0
C3 C 0.10863 0.9797 0.08602 0.0
C4 C 0.98582 0.91227 0.07597 0.0
C5 C 1.00506 0.98162 0.0769 0.0
O6 O 0.20937 0.15621 0.10322 0.0
C7 C 0.15262 0.12308 0.06447 0.0
O8 O 0.0754 0.09232 0.06331 0.0
H9 H 0.16935 0.99806 0.0911 0.0
H10 H 0.96592 0.99955 0.07295 0.0
N11 N 0.08284 0.17115 0.08597 0.0
N12 N 0.05154 0.25776 0.08514 0.0
C13 C 0.10895 0.23838 0.08539 0.0
C14 C 1.00635 0.14724 0.08611 0.0
C15 C 0.98701 0.20007 0.08561 0.0
C16 C 0.16784 0.14638 0.11051 0.0
O17 O 0.08974 0.11688 0.10639 0.0
H18 H 0.16895 0.27212 0.0851 0.0
H19 H 0.96753 0.09542 0.08677 0.0
O20 O 0.20032 0.14317 0.07474 0.0
H21 H 0.9285 0.86655 0.07112 0.0
H22 H 0.92994 0.19632 0.08584 0.0
Cu23 Cu 0.24827 0.17607 0.42219 0.0
N24 N 0.20661 0.12363 0.40619 0.0
N25 N 0.18783 0.09753 0.38667 0.0
C26 C 0.22713 0.1484 0.39711 0.0
C27 C 0.14084 0.03854 0.38935 0.0
C28 C 0.15258 0.05473 0.40135 0.0
O29 O 0.3656 0.2294 0.42521 0.0
C30 C 0.11458 0.18955 0.42198 0.0
O31 O 0.0854 0.1209 0.41809 0.0
H32 H 0.26985 0.20287 0.39819 0.0
H33 H 0.12385 1.01865 0.40619 0.0
N34 N 0.22772 0.11735 0.43219 0.0
N35 N 0.21027 0.08208 0.44832 0.0
C36 C 0.21847 0.13303 0.44298 0.0
C37 C 0.22485 0.05417 0.43063 0.0
C38 C 0.21422 0.03238 0.44055 0.0
C39 C 0.39563 0.19153 0.42141 0.0
O40 O 0.34724 0.12372 0.41629 0.0
H41 H 0.22025 0.18192 0.44698 0.0
H42 H 0.23133 0.02628 0.42291 0.0
O43 O 0.19049 0.2292 0.42475 0.0
H44 H 0.10163 0.98683 0.38314 0.0
H45 H 0.20983 0.98368 0.44192 0.0
Cu46 Cu 0.07879 0.16788 0.76685 0.0
N47 N 0.96716 0.11556 0.76475 0.0
N48 N 0.84748 0.02675 0.76408 0.0
C49 C 0.92782 0.05212 0.76678 0.0
C50 C 0.83646 0.07662 0.76018 0.0
C51 C 0.90978 0.13083 0.76059 0.0
O52 O 0.1297 0.15733 0.78141 0.0
C53 C 0.07 0.14631 0.74348 0.0
O54 O 0.02789 0.17858 0.74486 0.0
H55 H 0.95797 0.02534 0.77021 0.0
H56 H 0.9202 0.17757 0.75785 0.0
N57 N 0.11808 0.26601 0.76878 0.0
N58 N 0.19921 0.37843 0.76918 0.0
C59 C 0.188 0.31163 0.76724 0.0
C60 C 0.08392 0.30529 0.77183 0.0
C61 C 0.13345 0.37414 0.7721 0.0
C62 C 0.1186 0.18598 0.7906 0.0
O63 O 0.07746 0.21945 0.78941 0.0
H64 H 0.22916 0.2956 0.76457 0.0
H65 H 0.02716 0.28547 0.77382 0.0
O66 O 0.09997 0.13286 0.75241 0.0
H67 H 0.77929 0.07377 0.75696 0.0
H68 H 0.12196 0.41775 0.77444 0.0
Cu69 Cu 0.18269 0.13724 0.59909 0.0
N70 N 0.16288 0.08187 0.6096 0.0
N71 N 0.14851 0.05279 0.6263 0.0
C72 C 0.15964 0.10273 0.62062 0.0
C73 C 0.14444 0.99832 0.6185 0.0
C74 C 0.15318 1.01633 0.60822 0.0
O75 O 0.12519 0.19109 0.60118 0.0
C76 C 0.32929 0.15015 0.59884 0.0
O77 O 0.28046 0.08173 0.59459 0.0
H78 H 0.16719 0.15431 0.62448 0.0
H79 H 0.15327 0.98409 0.60036 0.0
N80 N 0.14045 0.08208 0.58324 0.0
N81 N 0.12174 0.05352 0.56374 0.0
C82 C 0.16441 0.10418 0.57414 0.0
C83 C 0.08081 1.01493 0.57844 0.0
C84 C 0.06894 0.9973 0.56643 0.0
C85 C 0.04952 0.15155 0.59884 0.0
O86 O 1.02056 0.08274 0.59574 0.0
H87 H 0.21154 0.15688 0.57513 0.0
H88 H 0.04787 0.98121 0.5833 0.0
O89 O 0.29976 0.18984 0.60192 0.0
H90 H 0.13527 0.94874 0.62005 0.0
H91 H 0.02541 0.94671 0.56019 0.0
Cu92 Cu 0.15271 0.21763 0.92994 0.0
N93 N 0.19125 0.3153 0.93163 0.0
N94 N 0.27268 0.42777 0.9321 0.0
C95 C 0.26056 0.36063 0.9299 0.0
C96 C 0.20811 0.42396 0.93536 0.0
C97 C 0.15845 0.35511 0.93507 0.0
O98 O 0.1742 0.18158 0.9156 0.0
C99 C 0.18647 0.23263 0.95356 0.0
O100 O 0.14102 0.26194 0.95197 0.0
H101 H 0.30104 0.3443 0.92704 0.0
H102 H 0.10293 0.33583 0.93741 0.0
N103 N 0.04104 0.16516 0.92792 0.0
N104 N 0.92172 0.07644 0.92738 0.0
C105 C 1.00173 0.10082 0.92965 0.0
C106 C 0.98394 0.18206 0.92442 0.0
C107 C 0.91084 0.12786 0.92407 0.0
C108 C 0.13433 0.18393 0.90623 0.0
O109 O 0.08385 0.20775 0.90713 0.0
H110 H 0.03172 0.07288 0.93262 0.0
H111 H 0.99437 0.23 0.9221 0.0
O112 O 0.20359 0.20839 0.94465 0.0
H113 H 0.19789 0.46802 0.93806 0.0
H114 H 0.85389 0.12624 0.92135 0.0
Cu115 Cu 0.11634 0.09751 0.24415 0.0
N116 N 0.05416 0.14405 0.24324 0.0
N117 N 0.02252 0.23068 0.24276 0.0
C118 C 0.08005 0.21164 0.24285 0.0
C119 C 0.95795 0.17248 0.24305 0.0
C120 C 0.97746 0.11945 0.24332 0.0
O121 O 0.1838 0.12751 0.23365 0.0
C122 C 0.12184 0.09371 0.26677 0.0
O123 O 0.0451 0.05591 0.26117 0.0
H124 H 0.14051 0.24657 0.24287 0.0
H125 H 0.93847 0.06674 0.24364 0.0
N126 N 0.05641 0.99717 0.23878 0.0
N127 N 0.02629 0.88321 0.23606 0.0
C128 C 0.08014 0.95175 0.24193 0.0
C129 C 0.98484 0.95581 0.23069 0.0
C130 C 0.9663 0.88593 0.22898 0.0
C131 C 0.14385 0.11866 0.22333 0.0
O132 O 0.06572 0.09034 0.22097 0.0
H133 H 0.13686 0.96889 0.24821 0.0
H134 H 0.949 0.97509 0.22621 0.0
O135 O 0.17035 0.12104 0.2609 0.0
H136 H 0.90022 0.16814 0.24298 0.0
H137 H 0.91242 0.84058 0.22299 0.0
H138 H 0.92919 0.7776 0.0783 0.0
H139 H 0.93875 0.67169 0.07902 0.0
H140 H 0.19579 0.79292 0.08802 0.0
H141 H 0.18699 0.89956 0.08717 0.0
H142 H 1.00485 0.60709 0.06559 0.0
H143 H 0.16186 0.68715 0.11313 0.0
H144 H 0.11417 0.73281 0.10704 0.0
H145 H 0.20968 0.74808 0.10522 0.0
C146 C 0.98802 0.7823 0.08038 0.0
C147 C 0.05727 0.84809 0.08263 0.0
C148 C 0.99333 0.72126 0.08085 0.0
C149 C 0.06797 0.72391 0.08369 0.0
C150 C 0.13741 0.78936 0.08602 0.0
H151 H 0.18678 0.38641 0.09066 0.0
H152 H 0.19445 0.49958 0.08987 0.0
C153 C 0.1322 0.85062 0.08552 0.0
C154 C 0.07217 0.6576 0.08382 0.0
H155 H 0.13858 0.57768 0.10161 0.0
C156 C 0.03416 0.6008 0.07348 0.0
C157 C 0.11094 0.6491 0.09406 0.0
C158 C 0.15102 0.70717 0.10553 0.0
C159 C 0.03375 0.53626 0.07308 0.0
C160 C 0.07062 0.52695 0.0834 0.0
C161 C 0.11006 0.58427 0.09369 0.0
C162 C 0.06637 0.45755 0.08377 0.0
C163 C 0.99477 0.47903 0.06151 0.0
C164 C 0.99199 0.39571 0.08073 0.0
C165 C 0.98737 0.3307 0.08108 0.0
C166 C 0.05706 0.32533 0.0846 0.0
C167 C 0.13168 0.3876 0.08775 0.0
C168 C 0.1362 0.45279 0.08738 0.0
H169 H 0.99308 0.50138 0.05395 0.0
H170 H 0.02677 0.44824 0.06053 0.0
H171 H 0.9321 0.44233 0.06107 0.0
H172 H 0.93699 0.39768 0.07817 0.0
H173 H 0.9287 0.28456 0.07849 0.0
H174 H 0.52795 0.3112 0.43736 0.0
H175 H 0.67032 0.34687 0.43933 0.0
H176 H 0.59939 0.17001 0.40952 0.0
H177 H 0.45957 0.13475 0.40752 0.0
H178 H 0.7461 0.26199 0.44293 0.0
H179 H 0.77101 0.33465 0.4017 0.0
H180 H 0.69217 0.33009 0.40812 0.0
H181 H 0.68382 0.25104 0.39921 0.0
C182 C 0.54311 0.28088 0.43113 0.0
C183 C 0.48227 0.22015 0.42228 0.0
C184 C 0.62436 0.30105 0.43229 0.0
C185 C 0.64581 0.26165 0.42447 0.0
C186 C 0.58487 0.20214 0.41553 0.0
H187 H 0.95726 0.12235 0.41016 0.0
H188 H 0.85765 0.15847 0.41219 0.0
C189 C 0.50456 0.18175 0.41445 0.0
C190 C 0.73067 0.27837 0.4258 0.0
H191 H 0.86122 0.2935 0.40941 0.0
C192 C 0.77262 0.27122 0.43578 0.0
C193 C 0.76559 0.29048 0.41648 0.0
C194 C 0.72612 0.30274 0.40583 0.0
C195 C 0.84494 0.2699 0.43622 0.0
C196 C 0.87626 0.27625 0.42647 0.0
C197 C 0.83727 0.28847 0.41688 0.0
C198 C 0.94063 0.25846 0.4252 0.0
C199 C 0.8844 0.25638 0.4467 0.0
C200 C 1.02147 0.30334 0.43172 0.0
C201 C 0.07966 0.28292 0.43049 0.0
C202 C 0.05746 0.21695 0.42284 0.0
C203 C 0.97671 0.17328 0.41621 0.0
C204 C 0.91939 0.19389 0.41733 0.0
H205 H 0.85164 0.25096 0.45347 0.0
H206 H 0.88786 0.20732 0.44384 0.0
H207 H 0.94654 0.30063 0.45077 0.0
H208 H 0.03934 0.35371 0.4378 0.0
H209 H 0.1412 0.31763 0.43575 0.0
H210 H 0.69503 0.99238 0.76457 0.0
H211 H 0.59038 0.88005 0.76527 0.0
H212 H 0.7526 0.7958 0.76619 0.0
H213 H 0.85793 0.90807 0.76537 0.0
H214 H 0.5217 0.74634 0.74957 0.0
H215 H 0.66458 0.74705 0.79371 0.0
H216 H 0.69959 0.82513 0.78869 0.0
H217 H 0.72457 0.75778 0.78368 0.0
C218 C 0.70897 0.95022 0.76486 0.0
C219 C 0.78587 0.96024 0.76489 0.0
C220 C 0.64868 0.88571 0.76532 0.0
C221 C 0.6633 0.82921 0.76593 0.0
C222 C 0.73987 0.83878 0.76598 0.0
H223 H 0.35038 0.40118 0.76985 0.0
H224 H 0.46272 0.50746 0.76851 0.0
C225 C 0.80036 0.90339 0.7655 0.0
C226 C 0.59753 0.76011 0.76616 0.0
H227 H 0.54277 0.64421 0.7827 0.0
C228 C 0.52644 0.72415 0.75683 0.0
C229 C 0.60336 0.73039 0.77557 0.0
C230 C 0.67676 0.76719 0.78604 0.0
C231 C 0.46168 0.65978 0.75662 0.0
C232 C 0.46676 0.63076 0.76615 0.0
C233 C 0.53836 0.6661 0.77539 0.0
C234 C 0.39772 0.56515 0.76683 0.0
C235 C 0.38887 0.62288 0.74605 0.0
C236 C 0.32341 0.56168 0.76646 0.0
C237 C 0.25874 0.50069 0.76714 0.0
C238 C 0.26638 0.4412 0.76833 0.0
C239 C 0.34124 0.44504 0.7688 0.0
C240 C 0.40604 0.50626 0.76811 0.0
H241 H 0.40368 0.63897 0.73817 0.0
H242 H 0.36194 0.56453 0.74396 0.0
H243 H 0.34342 0.63746 0.74792 0.0
H244 H 0.31538 0.60657 0.76574 0.0
H245 H 0.20253 0.50033 0.76664 0.0
H246 H 0.39275 0.0813 0.5872 0.0
H247 H 0.53243 0.1174 0.58889 0.0
H248 H 0.60378 0.31589 0.61372 0.0
H249 H 0.46164 0.27955 0.61208 0.0
H250 H 0.65212 0.241 0.58462 0.0
H251 H 0.73108 0.22858 0.63059 0.0
H252 H 0.62824 0.18497 0.62167 0.0
H253 H 0.68282 0.27943 0.62734 0.0
C254 C 0.43769 0.13287 0.59304 0.0
C255 C 0.41563 0.1773 0.59958 0.0
C256 C 0.51789 0.15351 0.59395 0.0
C257 C 0.57891 0.21902 0.6015 0.0
C258 C 0.55771 0.26468 0.60792 0.0
H259 H 0.07475 0.28061 0.61198 0.0
H260 H 0.97188 0.31633 0.61342 0.0
C261 C 0.47654 0.2441 0.60692 0.0
C262 C 0.66377 0.2369 0.60252 0.0
H263 H 0.82215 0.23501 0.61975 0.0
C264 C 0.69018 0.24156 0.59242 0.0
C265 C 0.71376 0.23775 0.61268 0.0
C266 C 0.68804 0.23223 0.62372 0.0
C267 C 0.76252 0.24272 0.59197 0.0
C268 C 0.80953 0.23805 0.60181 0.0
C269 C 0.78622 0.23864 0.61221 0.0
C270 C 0.87445 0.22053 0.60077 0.0
C271 C 0.7863 0.24563 0.58074 0.0
C272 C 0.85403 0.15514 0.59324 0.0
C273 C 0.91185 0.13471 0.59249 0.0
C274 C 0.99223 0.1791 0.59921 0.0
C275 C 1.01356 0.24553 0.60661 0.0
C276 C 0.95481 0.26577 0.60748 0.0
H277 H 0.75987 0.27115 0.57558 0.0
H278 H 0.8524 0.27496 0.58257 0.0
H279 H 0.76384 0.19098 0.57524 0.0
H280 H 0.7925 0.11887 0.58809 0.0
H281 H 0.89306 0.08323 0.58668 0.0
H282 H 0.42245 0.44863 0.93211 0.0
H283 H 0.53656 0.55637 0.93154 0.0
H284 H 0.39233 0.65865 0.92995 0.0
H285 H 0.27813 0.55159 0.93037 0.0
H286 H 0.55533 0.63341 0.91481 0.0
H287 H 0.58774 0.7987 0.95779 0.0
H288 H 0.52842 0.70351 0.95328 0.0
H289 H 0.4887 0.75587 0.94785 0.0
C290 C 0.41449 0.49369 0.93157 0.0
C291 C 0.34038 0.49079 0.93142 0.0
C292 C 0.48023 0.55562 0.93129 0.0
C293 C 0.47394 0.6165 0.93095 0.0
C294 C 0.39973 0.61328 0.93053 0.0
H295 H 0.77197 0.04402 0.92907 0.0
H296 H 0.66747 0.93163 0.92975 0.0
C297 C 0.33408 0.55155 0.93078 0.0
C298 C 0.54424 0.68321 0.93092 0.0
H299 H 0.66167 0.85917 0.94577 0.0
C300 C 0.57906 0.68264 0.92164 0.0
C301 C 0.57556 0.74776 0.9398 0.0
C302 C 0.54379 0.75167 0.95031 0.0
C303 C 0.642 0.74494 0.92079 0.0
C304 C 0.67257 0.80976 0.9296 0.0
C305 C 0.63853 0.80992 0.93897 0.0
C306 C 0.73777 0.87841 0.92909 0.0
C307 C 0.67305 0.7411 0.91021 0.0
C308 C 0.81338 0.88721 0.92865 0.0
C309 C 0.8737 0.95186 0.92815 0.0
C310 C 0.86028 1.00977 0.92815 0.0
C311 C 0.78485 1.00092 0.92882 0.0
C312 C 0.72474 0.9364 0.9293 0.0
H313 H 0.62997 0.69293 0.90286 0.0
H314 H 0.68558 0.78823 0.90702 0.0
H315 H 0.72966 0.73931 0.91267 0.0
H316 H 0.8261 0.84416 0.92876 0.0
H317 H 0.93046 0.95594 0.92763 0.0
H318 H 0.94099 0.2896 0.25205 0.0
H319 H 0.94675 0.40166 0.2512 0.0
H320 H 0.12149 0.43896 0.23192 0.0
H321 H 0.11731 0.32719 0.23303 0.0
H322 H 0.16164 0.55893 0.24735 0.0
H323 H 0.84053 0.43934 0.22405 0.0
H324 H 0.85497 0.41907 0.23774 0.0
H325 H 0.88812 0.38658 0.22616 0.0
C326 C 0.9803 0.32125 0.24755 0.0
C327 C 0.028 0.29849 0.2425 0.0
C328 C 0.98333 0.38557 0.24702 0.0
C329 C 0.03292 0.4287 0.24121 0.0
C330 C 0.08215 0.40693 0.2364 0.0
H331 H 0.9619 0.7594 0.21883 0.0
H332 H 0.96809 0.65248 0.22018 0.0
C333 C 0.07986 0.34283 0.23705 0.0
C334 C 0.0336 0.49628 0.24023 0.0
H335 H 0.91161 0.56458 0.23199 0.0
C336 C 0.10688 0.55994 0.24393 0.0
C337 C 0.96266 0.4984 0.23559 0.0
C338 C 0.88229 0.43209 0.23054 0.0
C339 C 0.11102 0.62498 0.24332 0.0
C340 C 0.03962 0.62754 0.23918 0.0
C341 C 0.96656 0.56365 0.23532 0.0
C342 C 0.03888 0.69493 0.23842 0.0
C343 C 0.19241 0.68986 0.24682 0.0
C344 C 0.07625 0.75556 0.2482 0.0
C345 C 0.07345 0.81752 0.24739 0.0
C346 C 0.03173 0.82022 0.23686 0.0
C347 C 0.99389 0.75938 0.22713 0.0
C348 C 0.99758 0.69793 0.22789 0.0
H349 H 0.23996 0.67564 0.24614 0.0
H350 H 0.19412 0.72533 0.24125 0.0
H351 H 0.20667 0.71941 0.25611 0.0
H352 H 0.10649 0.75475 0.25656 0.0
H353 H 0.10226 0.86277 0.25512 0.0
H354 H 0.08196 0.14972 0.20472 0.0
H355 H 0.13201 0.17307 0.18795 0.0
H356 H 0.3395 0.15852 0.20335 0.0
H357 H 0.28914 0.13496 0.22046 0.0
H358 H 0.28792 0.28429 0.18735 0.0
H359 H 0.22837 1.00881 0.16947 0.0
H360 H 0.18025 0.02885 0.17998 0.0
H361 H 0.285 0.05681 0.18461 0.0
C362 C 0.13861 0.15185 0.20464 0.0
C363 C 0.18126 0.13991 0.21391 0.0
C364 C 0.16727 0.16549 0.19503 0.0
C365 C 0.23907 0.16695 0.19432 0.0
C366 C 0.28354 0.15708 0.20368 0.0
H367 H 0.30399 0.14887 0.12279 0.0
H368 H 0.34651 0.16464 0.14412 0.0
C369 C 0.25503 0.14407 0.21347 0.0
C370 C 0.2636 0.17632 0.18343 0.0
H371 H 0.24806 0.07991 0.15667 0.0
C372 C 0.28145 0.2402 0.18075 0.0
C373 C 0.25552 0.11899 0.17482 0.0
C374 C 0.23609 0.04921 0.17725 0.0
C375 C 0.28606 0.24671 0.16947 0.0
C376 C 0.27086 0.18741 0.16055 0.0
C377 C 0.25954 0.12534 0.16349 0.0
C378 C 0.25253 0.18488 0.14788 0.0
C379 C 0.30345 0.31619 0.16706 0.0
C380 C 0.18609 0.19121 0.14293 0.0
C381 C 0.16168 0.18175 0.13089 0.0
C382 C 0.20311 0.1659 0.12341 0.0
C383 C 0.2715 0.16188 0.12836 0.0
C384 C 0.2955 0.17049 0.14051 0.0
H385 H 0.34045 0.36111 0.17516 0.0
H386 H 0.335 0.32485 0.16017 0.0
H387 H 0.2462 0.31611 0.16398 0.0
H388 H 0.15095 0.20088 0.14835 0.0
H389 H 0.10869 0.18513 0.12737 0.0
H390 H 1.00535 0.98608 0.54293 0.0
H391 H 1.02017 0.99303 0.52339 0.0
H392 H 0.27282 0.1379 0.53871 0.0
H393 H 0.2578 0.13226 0.55832 0.0
H394 H 0.21216 0.18111 0.52232 0.0
H395 H 0.10914 0.89673 0.50381 0.0
H396 H 0.03578 0.91132 0.50918 0.0
H397 H 0.13021 0.93638 0.51928 0.0
C398 C 0.06417 1.01898 0.54213 0.0
C399 C 0.13048 0.05821 0.5522 0.0
C400 C 0.07268 1.02276 0.53093 0.0
C401 C 0.14799 0.06475 0.52948 0.0
C402 C 0.2141 0.10483 0.53955 0.0
H403 H 0.2634 1.02173 0.46294 0.0
H404 H 0.24968 1.02052 0.48267 0.0
C405 C 0.20544 0.10172 0.55077 0.0
C406 C 0.15775 0.06763 0.51752 0.0
H407 H 0.12319 0.96459 0.49021 0.0
C408 C 0.19297 0.13374 0.51531 0.0
C409 C 0.13394 1.00604 0.50838 0.0
C410 C 0.10095 0.93372 0.5103 0.0
C411 C 0.20416 0.13991 0.50425 0.0
C412 C 0.17739 0.07807 0.49497 0.0
C413 C 0.14295 1.01206 0.49723 0.0
C414 C 0.18655 0.08043 0.48297 0.0
C415 C 0.2466 0.2129 0.50275 0.0
C416 C 0.15521 0.11402 0.47642 0.0
C417 C 0.16371 0.11531 0.46513 0.0
C418 C 0.20232 0.0818 0.46003 0.0
C419 C 0.23265 0.04744 0.46654 0.0
C420 C 0.22501 0.0469 0.47786 0.0
H421 H 0.28395 0.25354 0.51133 0.0
H422 H 0.28555 0.21546 0.49692 0.0
H423 H 0.20149 0.22656 0.49875 0.0
H424 H 0.12319 0.13851 0.47997 0.0
H425 H 0.13857 0.14124 0.46029 0.0
H426 H 0.13976 0.2711 0.81148 0.0
H427 H 0.16835 0.25649 0.83095 0.0
H428 H 0.18775 0.07319 0.81649 0.0
H429 H 0.15816 0.08745 0.79667 0.0
H430 H 0.08777 0.04891 0.83093 0.0
H431 H 0.3714 0.295 0.85398 0.0
H432 H 0.29892 0.31376 0.84629 0.0
H433 H 0.33433 0.26258 0.83813 0.0
C434 C 0.15132 0.22818 0.8124 0.0
C435 C 0.14666 0.18043 0.80248 0.0
C436 C 0.16842 0.22027 0.82361 0.0
C437 C 0.18162 0.16447 0.82528 0.0
C438 C 0.17865 0.11717 0.81544 0.0
H439 H 0.26385 0.17774 0.90066 0.0
H440 H 0.28421 0.16022 0.88096 0.0
C441 C 0.16207 0.12548 0.80413 0.0
C442 C 0.19079 0.15312 0.83718 0.0
H443 H 0.28684 0.24373 0.86622 0.0
C444 C 0.1326 0.0908 0.83863 0.0
C445 C 0.24998 0.20699 0.84728 0.0
C446 C 0.31767 0.27298 0.84633 0.0
C447 C 0.12793 0.0836 0.84989 0.0
C448 C 0.18205 0.1406 0.85998 0.0
C449 C 0.2445 0.20029 0.85853 0.0
C450 C 0.16829 0.14347 0.87181 0.0
C451 C 0.06317 1.01579 0.85084 0.0
C452 C 0.09665 0.13979 0.87325 0.0
C453 C 0.08522 0.15 0.88439 0.0
C454 C 0.14518 0.16442 0.89447 0.0
C455 C 0.21625 0.16608 0.89306 0.0
C456 C 0.22801 0.15636 0.88182 0.0
H457 H 0.04764 0.97031 0.84332 0.0
H458 H 0.08156 1.0046 0.85916 0.0
H459 H 1.00836 1.02024 0.85064 0.0
H460 H 0.05039 0.1317 0.86577 0.0
H461 H 0.02974 0.14837 0.88512 0.0
H462 H 0.30746 0.1845 0.06234 0.0
H463 H 0.34701 0.20298 0.04434 0.0
H464 H 0.09856 0.10698 0.02477 0.0
H465 H 0.0591 0.08719 0.04234 0.0
H466 H 0.17845 0.05888 0.01279 0.0
H467 H 0.34639 0.35293 0.02889 0.0
H468 H 0.37972 0.30645 0.03734 0.0
H469 H 0.28364 0.29992 0.03667 0.0
C470 C 0.2615 0.16726 0.05418 0.0
C471 C 0.18012 0.13458 0.05385 0.0
C472 C 0.28414 0.17815 0.0439 0.0
C473 C 0.22577 0.15695 0.03317 0.0
C474 C 0.14486 0.12365 0.03288 0.0
H475 H 0.16181 0.28667 0.97355 0.0
H476 H 0.1891 0.26812 0.99269 0.0
C477 C 0.12239 0.11261 0.04302 0.0
C478 C 0.24641 0.16972 0.02212 0.0
H479 H 0.32331 0.30084 0.00899 0.0
C480 C 0.21145 0.11174 0.01198 0.0
C481 C 0.2893 0.2387 0.02105 0.0
C482 C 0.32663 0.3033 0.03151 0.0
C483 C 0.21342 0.1209 1.00075 0.0
C484 C 0.25331 0.19009 0.99961 0.0
C485 C 0.29288 0.24781 0.00985 0.0
C486 C 0.24381 0.20448 0.98794 0.0
C487 C 0.16773 0.05667 0.99015 0.0
C488 C 0.2667 0.17597 0.97878 0.0
C489 C 0.25028 0.18606 0.96761 0.0
C490 C 0.2112 0.22522 0.96544 0.0
C491 C 0.19145 0.25574 0.97479 0.0
C492 C 0.20743 0.24548 0.98583 0.0
H493 H 0.12884 1.00855 0.99243 0.0
H494 H 0.12974 0.06554 0.98334 0.0
H495 H 0.2107 0.04645 0.9863 0.0
H496 H 0.2963 0.14525 0.98022 0.0
H497 H 0.26671 0.16216 0.96064 0.0
H498 H 0.03167 1.01988 0.27945 0.0
H499 H 0.0679 0.03216 0.30034 0.0
H500 H 0.30651 0.19643 0.30436 0.0
H501 H 0.2703 0.18447 0.28311 0.0
H502 H 0.19609 1.01752 0.31366 0.0
H503 H 0.22347 0.28294 0.32946 0.0
H504 H 0.1703 0.22824 0.31448 0.0
H505 H 0.27748 0.27151 0.31929 0.0
C506 C 0.09207 0.05887 0.28469 0.0
C507 C 0.14798 0.10151 0.27955 0.0
C508 C 0.11268 0.06562 0.29669 0.0
C509 C 0.18959 0.11554 0.30396 0.0
C510 C 0.24642 0.15802 0.29892 0.0
H511 H 0.31319 0.19617 0.38124 0.0
H512 H 0.32447 0.20478 0.36157 0.0
C513 C 0.22584 0.1509 0.28679 0.0
C514 C 0.20819 0.12149 0.31675 0.0
H515 H 0.22869 0.22207 0.34347 0.0
C516 C 0.20447 0.06273 0.32021 0.0
C517 C 0.21932 0.18049 0.32532 0.0
C518 C 0.22264 0.24451 0.32204 0.0
C519 C 0.20884 0.06034 0.33187 0.0
C520 C 0.21529 0.11761 0.34031 0.0
C521 C 0.22313 0.17795 0.337 0.0
C522 C 0.20861 0.11362 0.35233 0.0
C523 C 0.20548 0.99593 0.33501 0.0
C524 C 0.13909 0.06052 0.35373 0.0
C525 C 0.13225 0.05562 0.36494 0.0
C526 C 0.19462 0.10401 0.37509 0.0
C527 C 0.26367 0.1582 0.37367 0.0
C528 C 0.27043 0.16305 0.36241 0.0
H529 H 0.2259 0.96827 0.32888 0.0
H530 H 0.24297 1.01019 0.34412 0.0
H531 H 0.14271 0.95833 0.33438 0.0
H532 H 0.08961 1.02287 0.34612 0.0
H533 H 0.07748 1.01419 0.36562 0.0
H534 H 0.1897 0.98611 0.64098 0.0
H535 H 0.17878 0.99232 0.66105 0.0
H536 H 0.08545 0.1358 0.65888 0.0
H537 H 0.09536 0.12934 0.63879 0.0
H538 H 0.25012 0.1186 0.68139 0.0
H539 H 0.91809 0.97218 0.66882 0.0
H540 H 0.97413 0.96803 0.6585 0.0
H541 H 0.96034 0.04354 0.66246 0.0
C542 C 0.16626 1.01857 0.64473 0.0
C543 C 0.14306 0.05699 0.63821 0.0
C544 C 0.16056 1.0224 0.65624 0.0
C545 C 0.13058 0.06396 0.66143 0.0
C546 C 0.10799 0.10279 0.65501 0.0
H547 H 0.02371 0.1829 0.72434 0.0
H548 H 0.04233 0.15754 0.70504 0.0
C549 C 0.11427 0.09947 0.64354 0.0
C550 C 0.12281 0.06705 0.67357 0.0
H551 H 0.98532 0.03152 0.68908 0.0
C552 C 0.19228 0.09894 0.68311 0.0
C553 C 0.04729 0.04097 0.67577 0.0
C554 C 0.97052 1.00366 0.66586 0.0
C555 C 0.18838 0.10868 0.69481 0.0
C556 C 0.1128 0.08446 0.69702 0.0
C557 C 0.04331 0.05023 0.68743 0.0
C558 C 0.10411 0.09976 0.70911 0.0
C559 C 0.26531 0.14781 0.70469 0.0
C560 C 0.13258 0.0757 0.71799 0.0
C561 C 0.12234 0.09065 0.72924 0.0
C562 C 0.08279 0.12933 0.73176 0.0
C563 C 0.05428 0.1528 0.7228 0.0
C564 C 0.0648 0.13826 0.71168 0.0
H565 H 0.31808 0.17573 0.70154 0.0
H566 H 0.26292 0.18704 0.71157 0.0
H567 H 0.2741 0.10954 0.70881 0.0
H568 H 0.16183 0.04472 0.71619 0.0
H569 H 0.14472 0.07154 0.73591 0.0
loop_
_geom_bond_atom_site_label_1
_geom_bond_atom_site_label_2
_geom_bond_distance
_geom_bond_site_symmetry_2
_ccdc_geom_bond_type
Cu0 N1 1.999 . S
Cu0 O6 1.974 . S
Cu0 N11 1.985 . S
Cu0 O20 1.959 . S
N1 Cu0 1.999 . S
N1 C3 1.263 . S
N1 C5 1.389 . S
N2 C3 1.358 . S
N2 C4 1.400 . S
C3 N1 1.263 . S
C3 N2 1.358 . S
C3 H9 0.930 . S
C4 N2 1.400 . S
C4 C5 1.351 . S
C4 H21 0.930 . S
C5 N1 1.389 . S
C5 C4 1.351 . S
C5 H10 0.930 . S
O6 Cu0 1.974 . S
O6 C16 1.282 . S
C7 O8 1.261 . S
C7 O20 1.251 . S
O8 C7 1.261 . S
H9 C3 0.930 . S
H10 C5 0.930 . S
N11 Cu0 1.985 . S
N11 C13 1.335 . S
N11 C14 1.390 . S
N12 C13 1.345 . S
N12 C15 1.336 . S
C13 N11 1.335 . S
C13 N12 1.345 . S
C13 H18 0.930 . S
C14 N11 1.390 . S
C14 C15 1.346 . S
C14 H19 0.930 . S
C15 N12 1.336 . S
C15 C14 1.346 . S
C15 H22 0.929 . S
C16 O6 1.282 . S
C16 O17 1.216 . S
O17 C16 1.216 . S
H18 C13 0.930 . S
H19 C14 0.930 . S
O20 Cu0 1.959 . S
O20 C7 1.251 . S
H21 C4 0.930 . S
H22 C15 0.929 . S
Cu23 N24 1.999 . S
Cu23 O29 1.974 . S
Cu23 N34 1.985 . S
Cu23 O43 1.959 . S
N24 Cu23 1.999 . S
N24 C26 1.263 . S
N24 C28 1.389 . S
N25 C26 1.358 . S
N25 C27 1.400 . S
C26 N24 1.263 . S
C26 N25 1.358 . S
C26 H32 0.930 . S
C27 N25 1.400 . S
C27 C28 1.351 . S
C27 H44 0.930 . S
C28 N24 1.389 . S
C28 C27 1.351 . S
C28 H33 0.930 . S
O29 Cu23 1.974 . S
O29 C39 1.282 1_545 S
C30 O31 1.254 1_545 S
C30 O43 1.255 1_655 S
O31 C30 1.254 1_565 S
H32 C26 0.930 . S
H33 C28 0.930 . S
N34 Cu23 1.985 . S
N34 C36 1.335 . S
N34 C37 1.390 1_545 S
N35 C36 1.345 . S
N35 C38 1.336 1_545 S
C36 N34 1.335 . S
C36 N35 1.345 . S
C36 H41 0.930 . S
C37 N34 1.390 1_565 S
C37 C38 1.346 . S
C37 H42 0.930 . S
C38 N35 1.336 1_565 S
C38 C37 1.346 . S
C38 H45 0.929 . S
C39 O29 1.282 1_565 S
C39 O40 1.216 . S
O40 C39 1.216 . S
H41 C36 0.930 . S
H42 C37 0.930 . S
O43 Cu23 1.959 . S
O43 C30 1.255 1_455 S
H44 C27 0.930 . S
H45 C38 0.929 . S
Cu46 N47 1.999 1_455 S
Cu46 O52 1.974 . S
Cu46 N57 1.985 . S
Cu46 O66 1.959 . S
N47 Cu46 1.999 1_655 S
N47 C49 1.263 . S
N47 C51 1.389 1_545 S
N48 C49 1.358 1_565 S
N48 C50 1.400 . S
C49 N47 1.263 . S
C49 N48 1.358 1_545 S
C49 H55 0.930 . S
C50 N48 1.400 . S
C50 C51 1.351 . S
C50 H67 0.930 . S
C51 N47 1.389 1_565 S
C51 C50 1.351 . S
C51 H56 0.930 . S
O52 Cu46 1.974 . S
O52 C62 1.282 1_455 S
C53 O54 1.261 . S
C53 O66 1.251 1_655 S
O54 C53 1.261 . S
H55 C49 0.930 . S
H56 C51 0.930 . S
N57 Cu46 1.985 . S
N57 C59 1.335 . S
N57 C60 1.390 . S
N58 C59 1.345 . S
N58 C61 1.336 . S
C59 N57 1.335 . S
C59 N58 1.345 . S
C59 H64 0.930 . S
C60 N57 1.390 . S
C60 C61 1.346 . S
C60 H65 0.930 . S
C61 N58 1.336 . S
C61 C60 1.346 . S
C61 H68 0.929 . S
C62 O52 1.282 1_655 S
C62 O63 1.216 . S
O63 C62 1.216 . S
H64 C59 0.930 . S
H65 C60 0.930 . S
O66 Cu46 1.959 . S
O66 C53 1.251 1_455 S
H67 C50 0.930 . S
H68 C61 0.929 . S
Cu69 N70 1.999 . S
Cu69 O75 1.974 1_455 S
Cu69 N80 1.985 1_455 S
Cu69 O89 1.959 . S
N70 Cu69 1.999 . S
N70 C72 1.263 1_455 S
N70 C74 1.389 . S
N71 C72 1.358 1_455 S
N71 C73 1.400 . S
C72 N70 1.263 1_655 S
C72 N71 1.358 1_655 S
C72 H78 0.930 1_545 S
C73 N71 1.400 . S
C73 C74 1.351 . S
C73 H90 0.930 . S
C74 N70 1.389 . S
C74 C73 1.351 . S
C74 H79 0.930 . S
O75 Cu69 1.974 1_655 S
O75 C85 1.282 1_545 S
C76 O77 1.261 . S
C76 O89 1.251 1_565 S
O77 C76 1.261 . S
H78 C72 0.930 1_565 S
H79 C74 0.930 . S
N80 Cu69 1.985 1_655 S
N80 C82 1.335 1_655 S
N80 C83 1.390 1_545 S
N81 C82 1.345 . S
N81 C84 1.336 1_445 S
C82 N80 1.335 1_455 S
C82 N81 1.345 . S
C82 H87 0.930 . S
C83 N80 1.390 1_565 S
C83 C84 1.346 . S
C83 H88 0.930 . S
C84 N81 1.336 1_665 S
C84 C83 1.346 . S
C84 H91 0.929 . S
C85 O75 1.282 1_565 S
C85 O86 1.216 . S
O86 C85 1.216 . S
H87 C82 0.930 . S
H88 C83 0.930 . S
O89 Cu69 1.959 . S
O89 C76 1.251 1_545 S
H90 C73 0.930 . S
H91 C84 0.929 . S
Cu92 N93 1.999 . S
Cu92 O98 1.974 . S
Cu92 N103 1.985 1_455 S
Cu92 O112 1.959 . S
N93 Cu92 1.999 . S
N93 C95 1.263 . S
N93 C97 1.389 . S
N94 C95 1.358 . S
N94 C96 1.400 . S
C95 N93 1.263 . S
C95 N94 1.358 . S
C95 H101 0.930 . S
C96 N94 1.400 . S
C96 C97 1.351 . S
C96 H113 0.930 . S
C97 N93 1.389 . S
C97 C96 1.351 . S
C97 H102 0.930 . S
O98 Cu92 1.974 . S
O98 C108 1.282 . S
C99 O100 1.261 . S
C99 O112 1.251 . S
O100 C99 1.261 . S
H101 C95 0.930 . S
H102 C97 0.930 . S
N103 Cu92 1.985 1_655 S
N103 C105 1.335 . S
N103 C106 1.390 . S
N104 C105 1.345 . S
N104 C107 1.336 . S
C105 N103 1.335 . S
C105 N104 1.345 . S
C105 H110 0.930 . S
C106 N103 1.390 . S
C106 C107 1.346 . S
C106 H111 0.930 . S
C107 N104 1.336 . S
C107 C106 1.346 . S
C107 H114 0.929 1_545 S
C108 O98 1.282 . S
C108 O109 1.216 1_455 S
O109 C108 1.216 1_655 S
H110 C105 0.930 . S
H111 C106 0.930 . S
O112 Cu92 1.959 . S
O112 C99 1.251 . S
H113 C96 0.930 . S
H114 C107 0.929 1_565 S
Cu115 N116 1.999 . S
Cu115 O121 1.974 . S
Cu115 N126 1.985 . S
Cu115 O135 1.959 . S
N116 Cu115 1.999 . S
N116 C118 1.263 . S
N116 C120 1.389 . S
N117 C118 1.358 . S
N117 C119 1.400 . S
C118 N116 1.263 . S
C118 N117 1.358 . S
C118 H124 0.930 . S
C119 N117 1.400 . S
C119 C120 1.351 . S
C119 H136 0.930 . S
C120 N116 1.389 . S
C120 C119 1.351 . S
C120 H125 0.930 . S
O121 Cu115 1.974 . S
O121 C131 1.282 . S
C122 O123 1.261 . S
C122 O135 1.251 . S
O123 C122 1.261 . S
H124 C118 0.930 . S
H125 C120 0.930 . S
N126 Cu115 1.985 . S
N126 C128 1.335 . S
N126 C129 1.390 . S
N127 C128 1.345 1_565 S
N127 C130 1.336 . S
C128 N126 1.335 . S
C128 N127 1.345 1_545 S
C128 H133 0.930 . S
C129 N126 1.390 . S
C129 C130 1.346 1_545 S
C129 H134 0.930 . S
C130 N127 1.336 . S
C130 C129 1.346 1_565 S
C130 H137 0.929 . S
C131 O121 1.282 . S
C131 O132 1.216 . S
O132 C131 1.216 . S
H133 C128 0.930 . S
H134 C129 0.930 . S
O135 Cu115 1.959 . S
O135 C122 1.251 . S
H136 C119 0.930 . S
H137 C130 0.929 . S
H138 C146 0.929 . S
H139 C148 0.930 . S
H140 C150 0.930 . S
H141 C153 0.929 1_545 S
H142 C156 0.930 . S
H143 C158 0.960 . S
H144 C158 0.960 . S
H145 C158 0.960 . S
C146 H138 0.929 . S
C146 C147 1.377 . S
C146 C148 1.384 . S
C147 C146 1.377 . S
C147 C153 1.390 . S
C148 H139 0.930 . S
C148 C146 1.384 . S
C148 C149 1.372 . S
C149 C148 1.372 . S
C149 C150 1.400 . S
C149 C154 1.490 . S
C150 H140 0.930 . S
C150 C149 1.400 . S
C150 C153 1.386 . S
H151 C167 0.930 . S
H152 C168 0.931 . S
C153 H141 0.929 1_565 S
C153 C147 1.390 . S
C153 C150 1.386 . S
C154 C149 1.490 . S
C154 C156 1.395 . S
C154 C157 1.403 . S
H155 C161 0.930 . S
C156 H142 0.930 . S
C156 C154 1.395 . S
C156 C159 1.403 . S
C157 C154 1.403 . S
C157 C158 1.524 . S
C157 C161 1.400 . S
C158 H143 0.960 . S
C158 H144 0.960 . S
C158 H145 0.960 . S
C158 C157 1.524 . S
C159 C156 1.403 . S
C159 C160 1.392 . S
C159 C163 1.495 . S
C160 C159 1.392 . S
C160 C161 1.385 . S
C160 C162 1.478 . S
C161 H155 0.930 . S
C161 C157 1.400 . S
C161 C160 1.385 . S
C162 C160 1.478 . S
C162 C164 1.381 . S
C162 C168 1.383 . S
C163 C159 1.495 . S
C163 H169 0.959 . S
C163 H170 0.961 . S
C163 H171 0.960 . S
C164 C162 1.381 . S
C164 C165 1.394 . S
C164 H172 0.930 . S
C165 C164 1.394 . S
C165 C166 1.383 . S
C165 H173 0.929 . S
C166 C165 1.383 . S
C166 C167 1.377 . S
C167 H151 0.930 . S
C167 C166 1.377 . S
C167 C168 1.379 . S
C168 H152 0.931 . S
C168 C162 1.383 . S
C168 C167 1.379 . S
H169 C163 0.959 . S
H170 C163 0.961 . S
H171 C163 0.960 . S
H172 C164 0.930 . S
H173 C165 0.929 . S
H174 C182 0.929 . S
H175 C184 0.930 . S
H176 C186 0.930 . S
H177 C189 0.929 . S
H178 C192 0.930 . S
H179 C194 0.960 . S
H180 C194 0.960 . S
H181 C194 0.960 1_565 S
C182 H174 0.929 . S
C182 C183 1.379 . S
C182 C184 1.384 . S
C183 C182 1.379 . S
C183 C189 1.385 1_545 S
C184 H175 0.930 . S
C184 C182 1.384 . S
C184 C185 1.372 . S
C185 C184 1.372 . S
C185 C186 1.400 1_545 S
C185 C190 1.490 . S
C186 H176 0.930 . S
C186 C185 1.400 1_565 S
C186 C189 1.386 . S
H187 C203 0.930 . S
H188 C204 0.931 . S
C189 H177 0.929 . S
C189 C183 1.385 1_565 S
C189 C186 1.386 . S
C190 C185 1.490 . S
C190 C192 1.395 1_545 S
C190 C193 1.403 . S
H191 C197 0.930 . S
C192 H178 0.930 . S
C192 C190 1.395 1_565 S
C192 C195 1.403 . S
C193 C190 1.403 . S
C193 C194 1.524 . S
C193 C197 1.400 . S
C194 H179 0.960 . S
C194 H180 0.960 . S
C194 H181 0.960 1_545 S
C194 C193 1.524 . S
C195 C192 1.403 . S
C195 C196 1.392 1_565 S
C195 C199 1.495 . S
C196 C195 1.392 1_545 S
C196 C197 1.386 . S
C196 C198 1.477 1_545 S
C197 H191 0.930 . S
C197 C193 1.400 . S
C197 C196 1.386 . S
C198 C196 1.477 1_565 S
C198 C200 1.381 1_565 S
C198 C204 1.383 . S
C199 C195 1.495 . S
C199 H205 0.959 . S
C199 H206 0.961 . S
C199 H207 0.960 1_565 S
C200 C198 1.381 1_545 S
C200 C201 1.394 . S
C200 H208 0.930 . S
C201 C200 1.394 . S
C201 C202 1.383 1_545 S
C201 H209 0.929 . S
C202 C201 1.383 1_565 S
C202 C203 1.377 . S
C203 H187 0.930 . S
C203 C202 1.377 . S
C203 C204 1.379 . S
C204 H188 0.931 . S
C204 C198 1.383 . S
C204 C203 1.379 . S
H205 C199 0.959 . S
H206 C199 0.961 . S
H207 C199 0.960 1_545 S
H208 C200 0.930 . S
H209 C201 0.929 . S
H210 C218 0.929 . S
H211 C220 0.930 . S
H212 C222 0.930 . S
H213 C225 0.929 . S
H214 C228 0.930 . S
H215 C230 0.960 . S
H216 C230 0.960 . S
H217 C230 0.960 . S
C218 H210 0.929 . S
C218 C219 1.377 . S
C218 C220 1.384 . S
C219 C218 1.377 . S
C219 C225 1.390 . S
C220 H211 0.930 . S
C220 C218 1.384 . S
C220 C221 1.372 . S
C221 C220 1.372 . S
C221 C222 1.400 . S
C221 C226 1.490 . S
C222 H212 0.930 . S
C222 C221 1.400 . S
C222 C225 1.386 . S
H223 C239 0.930 . S
H224 C240 0.931 . S
C225 H213 0.929 . S
C225 C219 1.390 . S
C225 C222 1.386 . S
C226 C221 1.490 . S
C226 C228 1.395 . S
C226 C229 1.403 . S
H227 C233 0.930 . S
C228 H214 0.930 . S
C228 C226 1.395 . S
C228 C231 1.403 . S
C229 C226 1.403 . S
C229 C230 1.524 . S
C229 C233 1.400 . S
C230 H215 0.960 . S
C230 H216 0.960 . S
C230 H217 0.960 . S
C230 C229 1.524 . S
C231 C228 1.403 . S
C231 C232 1.392 . S
C231 C235 1.495 . S
C232 C231 1.392 . S
C232 C233 1.385 . S
C232 C234 1.478 . S
C233 H227 0.930 . S
C233 C229 1.400 . S
C233 C232 1.385 . S
C234 C232 1.478 . S
C234 C236 1.381 . S
C234 C240 1.383 . S
C235 C231 1.495 . S
C235 H241 0.959 . S
C235 H242 0.961 . S
C235 H243 0.960 . S
C236 C234 1.381 . S
C236 C237 1.394 . S
C236 H244 0.930 . S
C237 C236 1.394 . S
C237 C238 1.383 . S
C237 H245 0.929 . S
C238 C237 1.383 . S
C238 C239 1.377 . S
C239 H223 0.930 . S
C239 C238 1.377 . S
C239 C240 1.379 . S
C240 H224 0.931 . S
C240 C234 1.383 . S
C240 C239 1.379 . S
H241 C235 0.959 . S
H242 C235 0.961 . S
H243 C235 0.960 . S
H244 C236 0.930 . S
H245 C237 0.929 . S
H246 C254 0.929 . S
H247 C256 0.930 . S
H248 C258 0.930 . S
H249 C261 0.929 . S
H250 C264 0.930 . S
H251 C266 0.955 . S
H252 C266 0.953 1_565 S
H253 C266 0.972 . S
C254 H246 0.929 . S
C254 C255 1.377 . S
C254 C256 1.384 . S
C255 C254 1.377 . S
C255 C261 1.390 1_565 S
C256 H247 0.930 . S
C256 C254 1.384 . S
C256 C257 1.372 . S
C257 C256 1.372 . S
C257 C258 1.400 1_565 S
C257 C262 1.490 . S
C258 H248 0.930 . S
C258 C257 1.400 1_545 S
C258 C261 1.386 . S
H259 C275 0.930 . S
H260 C276 0.931 . S
C261 H249 0.929 . S
C261 C255 1.390 1_545 S
C261 C258 1.386 . S
C262 C257 1.490 . S
C262 C264 1.395 . S
C262 C265 1.403 . S
H263 C269 0.930 1_545 S
C264 H250 0.930 . S
C264 C262 1.395 . S
C264 C267 1.403 . S
C265 C262 1.403 . S
C265 C266 1.523 1_565 S
C265 C269 1.400 . S
C266 H251 0.955 . S
C266 H252 0.953 1_545 S
C266 H253 0.972 . S
C266 C265 1.523 1_545 S
C267 C264 1.403 . S
C267 C268 1.392 . S
C267 C271 1.495 . S
C268 C267 1.392 . S
C268 C269 1.385 . S
C268 C270 1.478 . S
C269 H263 0.930 1_565 S
C269 C265 1.400 . S
C269 C268 1.385 . S
C270 C268 1.478 . S
C270 C272 1.381 . S
C270 C276 1.383 1_565 S
C271 C267 1.495 . S
C271 H277 0.959 . S
C271 H278 0.961 1_565 S
C271 H279 0.960 . S
C272 C270 1.381 . S
C272 C273 1.394 . S
C272 H280 0.930 . S
C273 C272 1.394 . S
C273 C274 1.383 . S
C273 H281 0.929 . S
C274 C273 1.383 . S
C274 C275 1.377 1_565 S
C275 H259 0.930 . S
C275 C274 1.377 1_545 S
C275 C276 1.379 . S
C276 H260 0.931 . S
C276 C270 1.383 1_545 S
C276 C275 1.379 . S
H277 C271 0.959 . S
H278 C271 0.961 1_545 S
H279 C271 0.960 . S
H280 C272 0.930 . S
H281 C273 0.929 . S
H282 C290 0.929 . S
H283 C292 0.930 . S
H284 C294 0.930 . S
H285 C297 0.929 . S
H286 C300 0.930 . S
H287 C302 0.960 . S
H288 C302 0.960 . S
H289 C302 0.960 . S
C290 H282 0.929 . S
C290 C291 1.377 . S
C290 C292 1.384 . S
C291 C290 1.377 . S
C291 C297 1.390 . S
C292 H283 0.930 . S
C292 C290 1.384 . S
C292 C293 1.372 . S
C293 C292 1.372 . S
C293 C294 1.400 . S
C293 C298 1.490 . S
C294 H284 0.930 . S
C294 C293 1.400 . S
C294 C297 1.386 . S
H295 C311 0.930 . S
H296 C312 0.931 . S
C297 H285 0.929 . S
C297 C291 1.390 . S
C297 C294 1.386 . S
C298 C293 1.490 . S
C298 C300 1.395 . S
C298 C301 1.403 . S
H299 C305 0.930 . S
C300 H286 0.930 . S
C300 C298 1.395 . S
C300 C303 1.403 . S
C301 C298 1.403 . S
C301 C302 1.524 . S
C301 C305 1.400 . S
C302 H287 0.960 . S
C302 H288 0.960 . S
C302 H289 0.960 . S
C302 C301 1.524 . S
C303 C300 1.403 . S
C303 C304 1.392 . S
C303 C307 1.495 . S
C304 C303 1.392 . S
C304 C305 1.385 . S
C304 C306 1.478 . S
C305 H299 0.930 . S
C305 C301 1.400 . S
C305 C304 1.385 . S
C306 C304 1.478 . S
C306 C308 1.381 . S
C306 C312 1.383 . S
C307 C303 1.495 . S
C307 H313 0.959 . S
C307 H314 0.961 . S
C307 H315 0.960 . S
C308 C306 1.381 . S
C308 C309 1.394 . S
C308 H316 0.930 . S
C309 C308 1.394 . S
C309 C310 1.383 . S
C309 H317 0.929 . S
C310 C309 1.383 . S
C310 C311 1.377 . S
C311 H295 0.930 . S
C311 C310 1.377 . S
C311 C312 1.379 . S
C312 H296 0.931 . S
C312 C306 1.383 . S
C312 C311 1.379 . S
H313 C307 0.959 . S
H314 C307 0.961 . S
H315 C307 0.960 . S
H316 C308 0.930 . S
H317 C309 0.929 . S
H318 C326 0.929 . S
H319 C328 0.930 . S
H320 C330 0.930 . S
H321 C333 0.929 . S
H322 C336 0.930 . S
H323 C338 0.960 . S
H324 C338 0.960 . S
H325 C338 0.960 . S
C326 H318 0.929 . S
C326 C327 1.377 . S
C326 C328 1.384 . S
C327 C326 1.377 . S
C327 C333 1.390 . S
C328 H319 0.930 . S
C328 C326 1.384 . S
C328 C329 1.372 . S
C329 C328 1.372 . S
C329 C330 1.400 . S
C329 C334 1.490 . S
C330 H320 0.930 . S
C330 C329 1.400 . S
C330 C333 1.386 . S
H331 C347 0.930 . S
H332 C348 0.931 . S
C333 H321 0.929 . S
C333 C327 1.390 . S
C333 C330 1.386 . S
C334 C329 1.490 . S
C334 C336 1.395 . S
C334 C337 1.403 . S
H335 C341 0.930 . S
C336 H322 0.930 . S
C336 C334 1.395 . S
C336 C339 1.403 . S
C337 C334 1.403 . S
C337 C338 1.524 . S
C337 C341 1.400 . S
C338 H323 0.960 . S
C338 H324 0.960 . S
C338 H325 0.960 . S
C338 C337 1.524 . S
C339 C336 1.403 . S
C339 C340 1.392 . S
C339 C343 1.495 . S
C340 C339 1.392 . S
C340 C341 1.385 . S
C340 C342 1.478 . S
C341 H335 0.930 . S
C341 C337 1.400 . S
C341 C340 1.385 . S
C342 C340 1.478 . S
C342 C344 1.381 . S
C342 C348 1.383 . S
C343 C339 1.495 . S
C343 H349 0.959 . S
C343 H350 0.961 . S
C343 H351 0.960 . S
C344 C342 1.381 . S
C344 C345 1.394 . S
C344 H352 0.930 . S
C345 C344 1.394 . S
C345 C346 1.383 . S
C345 H353 0.929 . S
C346 C345 1.383 . S
C346 C347 1.377 . S
C347 H331 0.930 . S
C347 C346 1.377 . S
C347 C348 1.379 . S
C348 H332 0.931 . S
C348 C342 1.383 . S
C348 C347 1.379 . S
H349 C343 0.959 . S
H350 C343 0.961 . S
H351 C343 0.960 . S
H352 C344 0.930 . S
H353 C345 0.929 . S
H354 C362 0.929 . S
H355 C364 0.930 . S
H356 C366 0.930 . S
H357 C369 0.929 . S
H358 C372 0.930 . S
H359 C374 0.960 . S
H360 C374 0.960 . S
H361 C374 0.960 . S
C362 H354 0.929 . S
C362 C363 1.377 . S
C362 C364 1.384 . S
C363 C362 1.377 . S
C363 C369 1.390 . S
C364 H355 0.930 . S
C364 C362 1.384 . S
C364 C365 1.372 . S
C365 C364 1.372 . S
C365 C366 1.400 . S
C365 C370 1.490 . S
C366 H356 0.930 . S
C366 C365 1.400 . S
C366 C369 1.386 . S
H367 C383 0.930 . S
H368 C384 0.931 . S
C369 H357 0.929 . S
C369 C363 1.390 . S
C369 C366 1.386 . S
C370 C365 1.490 . S
C370 C372 1.395 . S
C370 C373 1.403 . S
H371 C377 0.930 . S
C372 H358 0.930 . S
C372 C370 1.395 . S
C372 C375 1.403 . S
C373 C370 1.403 . S
C373 C374 1.524 . S
C373 C377 1.400 . S
C374 H359 0.960 . S
C374 H360 0.960 . S
C374 H361 0.960 . S
C374 C373 1.524 . S
C375 C372 1.403 . S
C375 C376 1.392 . S
C375 C379 1.495 . S
C376 C375 1.392 . S
C376 C377 1.385 . S
C376 C378 1.478 . S
C377 H371 0.930 . S
C377 C373 1.400 . S
C377 C376 1.385 . S
C378 C376 1.478 . S
C378 C380 1.381 . S
C378 C384 1.383 . S
C379 C375 1.495 . S
C379 H385 0.959 . S
C379 H386 0.961 . S
C379 H387 0.960 . S
C380 C378 1.381 . S
C380 C381 1.394 . S
C380 H388 0.930 . S
C381 C380 1.394 . S
C381 C382 1.383 . S
C381 H389 0.929 . S
C382 C381 1.383 . S
C382 C383 1.377 . S
C383 H367 0.930 . S
C383 C382 1.377 . S
C383 C384 1.379 . S
C384 H368 0.931 . S
C384 C378 1.383 . S
C384 C383 1.379 . S
H385 C379 0.959 . S
H386 C379 0.961 . S
H387 C379 0.960 . S
H388 C380 0.930 . S
H389 C381 0.929 . S
H390 C398 0.929 . S
H391 C400 0.930 . S
H392 C402 0.930 . S
H393 C405 0.929 . S
H394 C408 0.930 . S
H395 C410 0.960 . S
H396 C410 0.960 1_655 S
H397 C410 0.960 . S
C398 H390 0.929 . S
C398 C399 1.377 1_655 S
C398 C400 1.384 . S
C399 C398 1.377 1_455 S
C399 C405 1.390 . S
C400 H391 0.930 . S
C400 C398 1.384 . S
C400 C401 1.372 1_655 S
C401 C400 1.372 1_455 S
C401 C402 1.400 . S
C401 C406 1.490 . S
C402 H392 0.930 . S
C402 C401 1.400 . S
C402 C405 1.386 . S
H403 C419 0.930 . S
H404 C420 0.931 . S
C405 H393 0.929 . S
C405 C399 1.390 . S
C405 C402 1.386 . S
C406 C401 1.490 . S
C406 C408 1.395 . S
C406 C409 1.403 1_545 S
H407 C413 0.930 . S
C408 H394 0.930 . S
C408 C406 1.395 . S
C408 C411 1.403 . S
C409 C406 1.403 1_565 S
C409 C410 1.524 . S
C409 C413 1.400 . S
C410 H395 0.960 . S
C410 H396 0.960 1_455 S
C410 H397 0.960 . S
C410 C409 1.524 . S
C411 C408 1.403 . S
C411 C412 1.392 . S
C411 C415 1.495 . S
C412 C411 1.392 . S
C412 C413 1.385 1_545 S
C412 C414 1.478 . S
C413 H407 0.930 . S
C413 C409 1.400 . S
C413 C412 1.385 1_565 S
C414 C412 1.478 . S
C414 C416 1.381 . S
C414 C420 1.383 . S
C415 C411 1.495 . S
C415 H421 0.959 . S
C415 H422 0.961 . S
C415 H423 0.960 . S
C416 C414 1.381 . S
C416 C417 1.394 . S
C416 H424 0.930 1_455 S
C417 C416 1.394 . S
C417 C418 1.383 . S
C417 H425 0.929 1_455 S
C418 C417 1.383 . S
C418 C419 1.377 . S
C419 H403 0.930 . S
C419 C418 1.377 . S
C419 C420 1.379 . S
C420 H404 0.931 . S
C420 C414 1.383 . S
C420 C419 1.379 . S
H421 C415 0.959 . S
H422 C415 0.961 . S
H423 C415 0.960 . S
H424 C416 0.930 1_655 S
H425 C417 0.929 1_655 S
H426 C434 0.929 . S
H427 C436 0.930 . S
H428 C438 0.930 . S
H429 C441 0.929 . S
H430 C444 0.930 . S
H431 C446 0.960 . S
H432 C446 0.960 . S
H433 C446 0.960 . S
C434 H426 0.929 . S
C434 C435 1.377 1_455 S
C434 C436 1.384 . S
C435 C434 1.377 1_655 S
C435 C441 1.390 . S
C436 H427 0.930 . S
C436 C434 1.384 . S
C436 C437 1.372 . S
C437 C436 1.372 . S
C437 C438 1.400 1_455 S
C437 C442 1.490 . S
C438 H428 0.930 . S
C438 C437 1.400 1_655 S
C438 C441 1.386 . S
H439 C455 0.930 . S
H440 C456 0.931 . S
C441 H429 0.929 . S
C441 C435 1.390 . S
C441 C438 1.386 . S
C442 C437 1.490 . S
C442 C444 1.395 1_455 S
C442 C445 1.403 . S
H443 C449 0.930 . S
C444 H430 0.930 . S
C444 C442 1.395 1_655 S
C444 C447 1.403 . S
C445 C442 1.403 . S
C445 C446 1.524 . S
C445 C449 1.400 . S
C446 H431 0.960 . S
C446 H432 0.960 . S
C446 H433 0.960 . S
C446 C445 1.524 . S
C447 C444 1.403 . S
C447 C448 1.392 1_655 S
C447 C451 1.495 . S
C448 C447 1.392 1_455 S
C448 C449 1.385 . S
C448 C450 1.478 . S
C449 H443 0.930 . S
C449 C445 1.400 . S
C449 C448 1.385 . S
C450 C448 1.478 . S
C450 C452 1.381 . S
C450 C456 1.383 1_455 S
C451 C447 1.495 . S
C451 H457 0.959 . S
C451 H458 0.961 . S
C451 H459 0.960 . S
C452 C450 1.381 . S
C452 C453 1.394 . S
C452 H460 0.930 . S
C453 C452 1.394 . S
C453 C454 1.383 . S
C453 H461 0.929 . S
C454 C453 1.383 . S
C454 C455 1.377 1_455 S
C455 H439 0.930 . S
C455 C454 1.377 1_655 S
C455 C456 1.379 . S
C456 H440 0.931 . S
C456 C450 1.383 1_655 S
C456 C455 1.379 . S
H457 C451 0.959 . S
H458 C451 0.961 . S
H459 C451 0.960 . S
H460 C452 0.930 . S
H461 C453 0.929 . S
H462 C470 0.929 . S
H463 C472 0.930 . S
H464 C474 0.930 . S
H465 C477 0.929 . S
H466 C480 0.930 . S
H467 C482 0.960 . S
H468 C482 0.960 . S
H469 C482 0.960 . S
C470 H462 0.929 . S
C470 C471 1.377 . S
C470 C472 1.384 . S
C471 C470 1.377 . S
C471 C477 1.390 . S
C472 H463 0.930 . S
C472 C470 1.384 . S
C472 C473 1.372 . S
C473 C472 1.372 . S
C473 C474 1.400 . S
C473 C478 1.490 . S
C474 H464 0.930 . S
C474 C473 1.400 . S
C474 C477 1.386 . S
H475 C491 0.930 1_655 S
H476 C492 0.930 1_655 S
C477 H465 0.929 . S
C477 C471 1.390 . S
C477 C474 1.386 . S
C478 C473 1.490 . S
C478 C480 1.395 . S
C478 C481 1.403 . S
H479 C485 0.956 . S
C480 H466 0.930 . S
C480 C478 1.395 . S
C480 C483 1.403 1_554 S
C481 C478 1.403 . S
C481 C482 1.524 . S
C481 C485 1.341 1_554 S
C482 H467 0.960 . S
C482 H468 0.960 . S
C482 H469 0.960 . S
C482 C481 1.524 . S
C483 C480 1.403 1_556 S
C483 C484 1.392 . S
C483 C487 1.495 . S
C484 C483 1.392 . S
C484 C485 1.422 . S
C484 C486 1.478 . S
C485 H479 0.956 . S
C485 C481 1.341 1_556 S
C485 C484 1.422 . S
C486 C484 1.478 . S
C486 C488 1.381 . S
C486 C492 1.383 . S
C487 C483 1.495 . S
C487 H493 0.959 . S
C487 H494 0.961 . S
C487 H495 0.960 . S
C488 C486 1.381 . S
C488 C489 1.394 . S
C488 H496 0.930 . S
C489 C488 1.394 . S
C489 C490 1.383 . S
C489 H497 0.929 . S
C490 C489 1.383 . S
C490 C491 1.377 . S
C491 H475 0.930 1_455 S
C491 C490 1.377 . S
C491 C492 1.379 . S
C492 H476 0.930 1_455 S
C492 C486 1.383 . S
C492 C491 1.379 . S
H493 C487 0.959 . S
H494 C487 0.961 . S
H495 C487 0.960 . S
H496 C488 0.930 . S
H497 C489 0.929 . S
H498 C506 0.929 . S
H499 C508 0.930 . S
H500 C510 0.930 . S
H501 C513 0.929 . S
H502 C516 0.930 1_565 S
H503 C518 0.960 . S
H504 C518 0.960 . S
H505 C518 0.960 . S
C506 H498 0.929 . S
C506 C507 1.377 . S
C506 C508 1.384 . S
C507 C506 1.377 . S
C507 C513 1.390 . S
C508 H499 0.930 . S
C508 C506 1.384 . S
C508 C509 1.372 . S
C509 C508 1.372 . S
C509 C510 1.400 . S
C509 C514 1.490 . S
C510 H500 0.930 . S
C510 C509 1.400 . S
C510 C513 1.386 . S
H511 C527 0.930 . S
H512 C528 0.931 . S
C513 H501 0.929 . S
C513 C507 1.390 . S
C513 C510 1.386 . S
C514 C509 1.490 . S
C514 C516 1.395 . S
C514 C517 1.403 . S
H515 C521 0.930 . S
C516 H502 0.930 1_545 S
C516 C514 1.395 . S
C516 C519 1.403 . S
C517 C514 1.403 . S
C517 C518 1.524 . S
C517 C521 1.400 . S
C518 H503 0.960 . S
C518 H504 0.960 . S
C518 H505 0.960 . S
C518 C517 1.524 . S
C519 C516 1.403 . S
C519 C520 1.392 . S
C519 C523 1.495 1_545 S
C520 C519 1.392 . S
C520 C521 1.385 . S
C520 C522 1.478 . S
C521 H515 0.930 . S
C521 C517 1.400 . S
C521 C520 1.385 . S
C522 C520 1.478 . S
C522 C524 1.381 . S
C522 C528 1.383 . S
C523 C519 1.495 1_565 S
C523 H529 0.959 . S
C523 H530 0.961 . S
C523 H531 0.960 . S
C524 C522 1.381 . S
C524 C525 1.394 . S
C524 H532 0.930 . S
C525 C524 1.394 . S
C525 C526 1.383 . S
C525 H533 0.929 . S
C526 C525 1.383 . S
C526 C527 1.377 . S
C527 H511 0.930 . S
C527 C526 1.377 . S
C527 C528 1.379 . S
C528 H512 0.931 . S
C528 C522 1.383 . S
C528 C527 1.379 . S
H529 C523 0.959 . S
H530 C523 0.961 . S
H531 C523 0.960 . S
H532 C524 0.930 . S
H533 C525 0.929 . S
H534 C542 0.929 . S
H535 C544 0.930 . S
H536 C546 0.930 . S
H537 C549 0.929 . S
H538 C552 0.939 . S
H539 C554 0.960 . S
H540 C554 0.960 . S
H541 C554 0.960 . S
C542 H534 0.929 . S
C542 C543 1.377 1_665 S
C542 C544 1.384 . S
C543 C542 1.377 1_445 S
C543 C549 1.390 . S
C544 H535 0.930 . S
C544 C542 1.384 . S
C544 C545 1.372 1_565 S
C545 C544 1.372 1_545 S
C545 C546 1.400 1_655 S
C545 C550 1.490 . S
C546 H536 0.930 . S
C546 C545 1.400 1_455 S
C546 C549 1.386 . S
H547 C563 0.930 . S
H548 C564 0.931 . S
C549 H537 0.929 . S
C549 C543 1.390 . S
C549 C546 1.386 . S
C550 C545 1.490 . S
C550 C552 1.395 1_655 S
C550 C553 1.403 . S
H551 C557 0.930 . S
C552 H538 0.939 . S
C552 C550 1.395 1_455 S
C552 C555 1.403 . S
C553 C550 1.403 . S
C553 C554 1.524 . S
C553 C557 1.400 . S
C554 H539 0.960 . S
C554 H540 0.960 . S
C554 H541 0.960 . S
C554 C553 1.524 . S
C555 C552 1.403 . S
C555 C556 1.392 1_455 S
C555 C559 1.495 1_545 S
C556 C555 1.392 1_655 S
C556 C557 1.385 . S
C556 C558 1.478 . S
C557 H551 0.930 . S
C557 C553 1.400 . S
C557 C556 1.385 . S
C558 C556 1.478 . S
C558 C560 1.381 . S
C558 C564 1.383 1_655 S
C559 C555 1.495 1_565 S
C559 H565 0.959 . S
C559 H566 0.961 1_565 S
C559 H567 0.960 1_455 S
C560 C558 1.381 . S
C560 C561 1.394 . S
C560 H568 0.930 . S
C561 C560 1.394 . S
C561 C562 1.383 . S
C561 H569 0.929 . S
C562 C561 1.383 . S
C562 C563 1.377 1_655 S
C563 H547 0.930 . S
C563 C562 1.377 1_455 S
C563 C564 1.379 . S
C564 H548 0.931 . S
C564 C558 1.383 1_455 S
C564 C563 1.379 . S
H565 C559 0.959 . S
H566 C559 0.961 1_545 S
H567 C559 0.960 1_655 S
H568 C560 0.930 . S
H569 C561 0.929 . S
C147 N2 1.459 1_565 S
C166 N12 1.473 . S
C183 C39 1.478 1_545 S
C202 C30 1.484 1_565 S
C219 N48 1.458 . S
C238 N58 1.462 . S
C255 C76 1.480 . S
C274 C85 1.464 . S
C291 N94 1.451 . S
C310 N104 1.432 1_565 S
C327 N117 1.452 . S
C346 N127 1.457 . S
C363 C131 1.463 . S
C382 C16 1.467 . S
C399 N81 1.462 . S
C418 N35 1.473 . S
C435 C62 1.523 . S
C454 C108 1.516 . S
C471 C7 1.514 . S
C490 C99 1.503 . S
C507 C122 1.482 . S
C526 N25 1.456 . S
C543 N71 1.472 . S
C562 C53 1.500 . S
