# Generated by pormake.
# Topology wkj, (6)-cn, num edge types: 1
# Building blocks:
#     Node 0, Type 0, BuildingBlock: NUHQIS_clean_sbu_0, # of connection points: 6
#     Node 1, Type 0, BuildingBlock: NUHQIS_clean_sbu_0, # of connection points: 6
#     Node 2, Type 0, BuildingBlock: NUHQIS_clean_sbu_0, # of connection points: 6
#     Node 3, Type 0, BuildingBlock: NUHQIS_clean_sbu_0, # of connection points: 6
#     Node 4, Type 0, BuildingBlock: NUHQIS_clean_sbu_0, # of connection points: 6
#     Node 5, Type 0, BuildingBlock: NUHQIS_clean_sbu_0, # of connection points: 6
#     Node 6, Type 0, BuildingBlock: NUHQIS_clean_sbu_0, # of connection points: 6
#     Node 7, Type 0, BuildingBlock: NUHQIS_clean_sbu_0, # of connection points: 6
#     Node 8, Type 0, BuildingBlock: NUHQIS_clean_sbu_0, # of connection points: 6
#     Node 9, Type 0, BuildingBlock: NUHQIS_clean_sbu_0, # of connection points: 6
#     Node 10, Type 0, BuildingBlock: NUHQIS_clean_sbu_0, # of connection points: 6
#     Node 11, Type 0, BuildingBlock: NUHQIS_clean_sbu_0, # of connection points: 6
#     Edge 12, Type (0, 0), BuildingBlock: MIFKUJ_clean_linker_0, # of connection points: 2
#     Edge 13, Type (0, 0), BuildingBlock: MIFKUJ_clean_linker_0, # of connection points: 2
#     Edge 14, Type (0, 0), BuildingBlock: MIFKUJ_clean_linker_0, # of connection points: 2
#     Edge 15, Type (0, 0), BuildingBlock: MIFKUJ_clean_linker_0, # of connection points: 2
#     Edge 16, Type (0, 0), BuildingBlock: MIFKUJ_clean_linker_0, # of connection points: 2
#     Edge 17, Type (0, 0), BuildingBlock: MIFKUJ_clean_linker_0, # of connection points: 2
#     Edge 18, Type (0, 0), BuildingBlock: MIFKUJ_clean_linker_0, # of connection points: 2
#     Edge 19, Type (0, 0), BuildingBlock: MIFKUJ_clean_linker_0, # of connection points: 2
#     Edge 20, Type (0, 0), BuildingBlock: MIFKUJ_clean_linker_0, # of connection points: 2
#     Edge 21, Type (0, 0), BuildingBlock: MIFKUJ_clean_linker_0, # of connection points: 2
#     Edge 22, Type (0, 0), BuildingBlock: MIFKUJ_clean_linker_0, # of connection points: 2
#     Edge 23, Type (0, 0), BuildingBlock: MIFKUJ_clean_linker_0, # of connection points: 2
#     Edge 24, Type (0, 0), BuildingBlock: MIFKUJ_clean_linker_0, # of connection points: 2
#     Edge 25, Type (0, 0), BuildingBlock: MIFKUJ_clean_linker_0, # of connection points: 2
#     Edge 26, Type (0, 0), BuildingBlock: MIFKUJ_clean_linker_0, # of connection points: 2
#     Edge 27, Type (0, 0), BuildingBlock: MIFKUJ_clean_linker_0, # of connection points: 2
#     Edge 28, Type (0, 0), BuildingBlock: MIFKUJ_clean_linker_0, # of connection points: 2
#     Edge 29, Type (0, 0), BuildingBlock: MIFKUJ_clean_linker_0, # of connection points: 2
#     Edge 30, Type (0, 0), BuildingBlock: MIFKUJ_clean_linker_0, # of connection points: 2
#     Edge 31, Type (0, 0), BuildingBlock: MIFKUJ_clean_linker_0, # of connection points: 2
#     Edge 32, Type (0, 0), BuildingBlock: MIFKUJ_clean_linker_0, # of connection points: 2
#     Edge 33, Type (0, 0), BuildingBlock: MIFKUJ_clean_linker_0, # of connection points: 2
#     Edge 34, Type (0, 0), BuildingBlock: MIFKUJ_clean_linker_0, # of connection points: 2
#     Edge 35, Type (0, 0), BuildingBlock: MIFKUJ_clean_linker_0, # of connection points: 2
#     Edge 36, Type (0, 0), BuildingBlock: MIFKUJ_clean_linker_0, # of connection points: 2
#     Edge 37, Type (0, 0), BuildingBlock: MIFKUJ_clean_linker_0, # of connection points: 2
#     Edge 38, Type (0, 0), BuildingBlock: MIFKUJ_clean_linker_0, # of connection points: 2
#     Edge 39, Type (0, 0), BuildingBlock: MIFKUJ_clean_linker_0, # of connection points: 2
#     Edge 40, Type (0, 0), BuildingBlock: MIFKUJ_clean_linker_0, # of connection points: 2
#     Edge 41, Type (0, 0), BuildingBlock: MIFKUJ_clean_linker_0, # of connection points: 2
#     Edge 42, Type (0, 0), BuildingBlock: MIFKUJ_clean_linker_0, # of connection points: 2
#     Edge 43, Type (0, 0), BuildingBlock: MIFKUJ_clean_linker_0, # of connection points: 2
#     Edge 44, Type (0, 0), BuildingBlock: MIFKUJ_clean_linker_0, # of connection points: 2
#     Edge 45, Type (0, 0), BuildingBlock: MIFKUJ_clean_linker_0, # of connection points: 2
#     Edge 46, Type (0, 0), BuildingBlock: MIFKUJ_clean_linker_0, # of connection points: 2
#     Edge 47, Type (0, 0), BuildingBlock: MIFKUJ_clean_linker_0, # of connection points: 2
# Relax obj value: 0.573
# Max RMSD: 0.176
# Mean RMSD: 0.176
data_MOF--net-wkj--node1-NUHQIS_clean_sbu_0--edge1-MIFKUJ_clean_linker_0
_symmetry_space_group_name_H-M    P1
_symmetry_Int_Tables_number       1
_symmetry_cell_setting            triclinic
loop_
_symmetry_equiv_pos_as_xyz
'x, y, z'
_cell_length_a     64.699476
_cell_length_b     64.800484
_cell_length_c     37.801955
_cell_angle_alpha  89.722302
_cell_angle_beta   90.395921
_cell_angle_gamma 119.88206
loop_
_atom_site_label
_atom_site_type_symbol
_atom_site_fract_x
_atom_site_fract_y
_atom_site_fract_z
_atom_type_partial_charge
Tb0 Tb 0.44612 0.07957 0.34439 0.0
Eu1 Eu 0.4942 0.08217 0.33211 0.0
C2 C 0.48465 0.12505 0.31095 0.0
C3 C 0.45265 0.05472 0.27289 0.0
C4 C 0.39415 0.07814 0.38643 0.0
C5 C 0.37778 0.09163 0.43263 0.0
C6 C 0.39024 0.09581 0.40091 0.0
C7 C 0.38439 0.05584 0.403 0.0
C8 C 0.37184 0.05161 0.43437 0.0
C9 C 0.36888 0.06962 0.44994 0.0
C10 C 0.41014 0.08382 0.35609 0.0
O11 O 0.43804 0.04767 0.3705 0.0
O12 O 0.46801 0.04291 0.34717 0.0
O13 O 0.49263 0.07734 0.39147 0.0
O14 O 0.46525 0.08921 0.39904 0.0
C15 C 0.44723 0.03432 0.36362 0.0
O16 O 0.51859 0.07596 0.30014 0.0
O17 O 0.53153 0.09715 0.34746 0.0
O18 O 0.49961 0.12055 0.3285 0.0
O19 O 0.46385 0.10683 0.30442 0.0
O20 O 0.43778 0.05512 0.29689 0.0
O21 O 0.47578 0.06793 0.27863 0.0
C22 C 0.48147 0.08417 0.41312 0.0
O23 O 0.43204 0.10087 0.36131 0.0
O24 O 0.4093 0.06577 0.3396 0.0
C25 C 0.55586 0.11143 0.29671 0.0
C26 C 0.57973 0.15165 0.25293 0.0
C27 C 0.56907 0.12869 0.2384 0.0
C28 C 0.55738 0.10872 0.26013 0.0
C29 C 0.56896 0.13437 0.31155 0.0
C30 C 0.5808 0.15437 0.28974 0.0
C31 C 0.53738 0.09144 0.31766 0.0
H32 H 0.37584 0.10581 0.44426 0.0
H33 H 0.3977 0.11315 0.38848 0.0
H34 H 0.3873 0.04194 0.39263 0.0
H35 H 0.36575 0.03468 0.44757 0.0
H36 H 0.5683 0.12626 0.20998 0.0
H37 H 0.54786 0.0913 0.24794 0.0
H38 H 0.56849 0.13708 0.33972 0.0
H39 H 0.58897 0.17195 0.30142 0.0
Tb40 Tb 0.35713 0.45892 0.68414 0.0
Eu41 Eu 0.39784 0.5117 0.66644 0.0
C42 C 0.34128 0.49502 0.65545 0.0
C43 C 0.38512 0.4705 0.60612 0.0
C44 C 0.31791 0.39774 0.72139 0.0
C45 C 0.30695 0.35642 0.7306 0.0
C46 C 0.3108 0.37502 0.70788 0.0
C47 C 0.32038 0.4015 0.75805 0.0
C48 C 0.31626 0.38285 0.7808 0.0
C49 C 0.30985 0.36026 0.7672 0.0
C50 C 0.32357 0.41726 0.69651 0.0
O51 O 0.3877 0.45971 0.70757 0.0
O52 O 0.41488 0.48838 0.67129 0.0
O53 O 0.40244 0.50991 0.72622 0.0
O54 O 0.36639 0.47722 0.73845 0.0
C55 C 0.40791 0.46916 0.69094 0.0
O56 O 0.42308 0.5396 0.63126 0.0
O57 O 0.42083 0.54793 0.68571 0.0
O58 O 0.36282 0.51283 0.66225 0.0
O59 O 0.33723 0.47317 0.65683 0.0
O60 O 0.37126 0.45492 0.63082 0.0
O61 O 0.39488 0.49355 0.61278 0.0
C62 C 0.38665 0.49618 0.74989 0.0
O63 O 0.32433 0.43644 0.70868 0.0
O64 O 0.34112 0.42225 0.67514 0.0
C65 C 0.42528 0.5761 0.6431 0.0
C66 C 0.418 0.61269 0.61636 0.0
C67 C 0.44024 0.61801 0.63091 0.0
C68 C 0.44385 0.59979 0.64417 0.0
C69 C 0.40282 0.57093 0.6305 0.0
C70 C 0.39919 0.58895 0.6173 0.0
C71 C 0.42895 0.55646 0.65444 0.0
H72 H 0.30213 0.33919 0.71959 0.0
H73 H 0.30881 0.37182 0.67961 0.0
H74 H 0.32603 0.41893 0.76909 0.0
H75 H 0.31911 0.38635 0.80893 0.0
H76 H 0.45508 0.63608 0.6308 0.0
H77 H 0.46125 0.60409 0.65428 0.0
H78 H 0.38826 0.55276 0.62946 0.0
H79 H 0.38197 0.58384 0.60566 0.0
Tb80 Tb 0.89532 0.36651 1.02109 0.0
Eu81 Eu 0.87784 0.40292 1.00036 0.0
C82 C 0.84315 0.34619 0.99043 0.0
C83 C 0.91329 0.39523 0.94522 0.0
C84 C 0.91712 0.33142 1.06946 0.0
C85 C 0.93695 0.31213 1.09713 0.0
C86 C 0.92499 0.31486 1.06817 0.0
C87 C 0.92089 0.34499 1.10005 0.0
C88 C 0.93275 0.34224 0.129 0.0
C89 C 0.9411 0.32594 0.12771 0.0
C90 C 0.90615 0.33543 1.03824 0.0
O91 O 0.92113 0.39775 1.04886 0.0
O92 O 0.91617 0.42594 1.01897 0.0
O93 O 0.8767 0.40479 1.06057 0.0
O94 O 0.88357 0.37419 1.07442 0.0
C95 C 0.92771 0.41995 1.04201 0.0
O96 O 0.86917 0.42088 0.95874 0.0
O97 O 0.86357 0.42623 1.01321 0.0
O98 O 0.84428 0.3661 1.00029 0.0
O99 O 0.86289 0.34523 0.98935 0.0
O100 O 0.91557 0.3819 0.97021 0.0
O101 O 0.8984 0.40333 0.95045 0.0
C102 C 0.87872 0.39118 1.08478 0.0
O103 O 0.88506 0.33296 1.0429 0.0
O104 O 0.92006 0.3546 1.0203 0.0
C105 C 0.83508 0.42311 0.97155 0.0
C106 C 0.78945 0.40901 0.94359 0.0
C107 C 0.79427 0.39237 0.96028 0.0
C108 C 0.81679 0.39939 0.97418 0.0
C109 C 0.83005 0.44017 0.95754 0.0
C110 C 0.8073 0.43323 0.94407 0.0
C111 C 0.85963 0.4293 0.98036 0.0
H112 H 0.94309 0.29937 1.09555 0.0
H113 H 0.92224 0.30433 1.04459 0.0
H114 H 0.91509 0.35804 1.10125 0.0
H115 H 0.93605 0.35343 0.15195 0.0
H116 H 0.78136 0.37354 0.96027 0.0
H117 H 0.82027 0.386 0.98517 0.0
H118 H 0.84394 0.45864 0.95563 0.0
H119 H 0.80414 0.44667 0.93225 0.0
Tb120 Tb 0.5124 0.9027 0.35493 0.0
Eu121 Eu 0.45884 0.88652 0.33647 0.0
C122 C 0.48028 0.85077 0.3236 0.0
C123 C 0.49919 0.92136 0.27967 0.0
C124 C 0.57118 0.92075 0.39607 0.0
C125 C 0.60625 0.92374 0.42467 0.0
C126 C 0.59205 0.91929 0.3945 0.0
C127 C 0.56465 0.92685 0.42788 0.0
C128 C 0.57883 0.93137 0.45793 0.0
C129 C 0.59964 0.9296 0.45678 0.0
C130 C 0.55554 0.91437 0.36515 0.0
O131 O 0.50872 0.9289 0.38483 0.0
O132 O 0.47197 0.9218 0.36499 0.0
O133 O 0.45688 0.88103 0.39698 0.0
O134 O 0.49597 0.89318 0.41022 0.0
C135 C 0.49164 0.93415 0.38387 0.0
O136 O 0.4297 0.8865 0.30665 0.0
O137 O 0.42195 0.86009 0.34734 0.0
O138 O 0.46531 0.85761 0.31256 0.0
O139 O 0.49766 0.86461 0.34498 0.0
O140 O 0.51418 0.9173 0.29911 0.0
O141 O 0.477 0.91232 0.29042 0.0
C142 C 0.47349 0.88524 0.42101 0.0
O143 O 0.538 0.89254 0.36493 0.0
O144 O 0.54851 0.92931 0.35601 0.0
C145 C 0.40071 0.84647 0.29486 0.0
C146 C 0.38019 0.80395 0.2555 0.0
C147 C 0.40271 0.82308 0.24656 0.0
C148 C 0.41289 0.84404 0.26609 0.0
C149 C 0.37776 0.82788 0.30302 0.0
C150 C 0.36747 0.80677 0.28329 0.0
C151 C 0.41379 0.86607 0.31993 0.0
H152 H 0.62211 0.92215 0.42304 0.0
H153 H 0.59714 0.91436 0.37009 0.0
H154 H 0.54848 0.9279 0.42954 0.0
H155 H 0.57352 0.93637 0.48206 0.0
H156 H 0.41272 0.82171 0.22473 0.0
H157 H 0.43078 0.85795 0.25962 0.0
H158 H 0.36829 0.82927 0.32558 0.0
H159 H 0.35005 0.79235 0.29064 0.0
Tb160 Tb 0.59587 0.51813 0.68743 0.0
Eu161 Eu 0.56469 0.46216 0.66781 0.0
C162 C 0.62213 0.48894 0.66274 0.0
C163 C 0.57289 0.50314 0.6061 0.0
C164 C 0.64131 0.5743 0.72903 0.0
C165 C 0.67261 0.61182 0.75222 0.0
C166 C 0.6568 0.59877 0.72499 0.0
C167 C 0.64308 0.56259 0.75914 0.0
C168 C 0.6587 0.57559 0.78642 0.0
C169 C 0.67284 0.60054 0.78404 0.0
C170 C 0.62239 0.56139 0.70295 0.0
O171 O 0.56132 0.51316 0.67164 0.0
O172 O 0.54347 0.47654 0.69353 0.0
O173 O 0.56738 0.46146 0.7289 0.0
O174 O 0.58343 0.50112 0.74173 0.0
C175 C 0.54158 0.49317 0.67695 0.0
O176 O 0.53874 0.43214 0.63568 0.0
O177 O 0.55264 0.42575 0.68399 0.0
O178 O 0.60169 0.47108 0.65249 0.0
O179 O 0.62299 0.50682 0.68072 0.0
O180 O 0.58669 0.51971 0.62978 0.0
O181 O 0.56289 0.48021 0.61494 0.0
C182 C 0.57324 0.47849 0.75271 0.0
O183 O 0.62726 0.55056 0.67822 0.0
O184 O 0.60111 0.548 0.71591 0.0
C185 C 0.54918 0.40169 0.63545 0.0
C186 C 0.57159 0.38106 0.59719 0.0
C187 C 0.57431 0.38351 0.63402 0.0
C188 C 0.56307 0.39354 0.653 0.0
C189 C 0.54524 0.39783 0.59893 0.0
C190 C 0.55636 0.38765 0.57999 0.0
C191 C 0.54146 0.41664 0.6544 0.0
H192 H 0.68358 0.63091 0.74921 0.0
H193 H 0.65589 0.60797 0.70153 0.0
H194 H 0.63143 0.54359 0.76242 0.0
H195 H 0.65818 0.56619 0.81044 0.0
H196 H 0.58567 0.37831 0.64801 0.0
H197 H 0.56623 0.39591 0.68126 0.0
H198 H 0.53454 0.40374 0.58468 0.0
H199 H 0.55405 0.38618 0.55154 0.0
Tb200 Tb 0.07525 0.6094 1.01223 0.0
Eu201 Eu 0.07478 0.56232 0.99901 0.0
C202 C 0.11922 0.61339 0.97877 0.0
C203 C 0.05128 0.58017 0.93822 0.0
C204 C 0.07971 0.66202 1.05635 0.0
C205 C 0.07089 0.69066 1.08317 0.0
C206 C 0.07584 0.68139 1.05316 0.0
C207 C 0.07954 0.65257 1.08981 0.0
C208 C 0.07476 0.66187 0.11971 0.0
C209 C 0.06989 0.68068 0.11664 0.0
C210 C 0.082 0.65047 1.0247 0.0
O211 O 0.04301 0.58586 1.03784 0.0
O212 O 0.03546 0.55239 1.00764 0.0
O213 O 0.0688 0.55954 1.05824 0.0
O214 O 0.08555 0.59941 1.0658 0.0
C215 C 0.02796 0.56489 1.02571 0.0
O216 O 0.06942 0.5327 0.96538 0.0
O217 O 0.08373 0.53586 1.01802 0.0
O218 O 0.11403 0.59383 0.99642 0.0
O219 O 0.1014 0.61662 0.97174 0.0
O220 O 0.05231 0.59573 0.96236 0.0
O221 O 0.06252 0.56827 0.94494 0.0
C222 C 0.07808 0.57772 1.07994 0.0
O223 O 0.09884 0.64493 1.02576 0.0
O224 O 0.062 0.63307 1.01246 0.0
C225 C 0.09921 0.52201 0.97306 0.0
C226 C 0.13885 0.52291 0.94055 0.0
C227 C 0.13989 0.52917 0.97635 0.0
C228 C 0.12029 0.52878 0.99244 0.0
C229 C 0.09748 0.51379 0.93833 0.0
C230 C 0.11708 0.51435 0.92218 0.0
C231 C 0.07981 0.52523 0.98754 0.0
H232 H 0.06708 0.70506 1.08012 0.0
H233 H 0.07582 0.68876 1.02738 0.0
H234 H 0.0822 0.63741 1.0927 0.0
H235 H 0.0735 0.65336 0.14497 0.0
H236 H 0.15619 0.53543 0.99149 0.0
H237 H 0.12209 0.5348 1.01955 0.0
H238 H 0.08136 0.50815 0.92293 0.0
H239 H 0.11553 0.50964 0.89447 0.0
Tb240 Tb 0.88912 0.50776 0.52383 0.0
Eu241 Eu 0.86738 0.4543 0.54879 0.0
C242 C 0.83741 0.48088 0.5575 0.0
C243 C 0.90383 0.49842 0.60186 0.0
C244 C 0.91171 0.56409 0.47293 0.0
C245 C 0.92717 0.60203 0.44299 0.0
C246 C 0.91737 0.58794 0.47301 0.0
C247 C 0.91559 0.55424 0.44254 0.0
C248 C 0.92535 0.56829 0.41249 0.0
C249 C 0.93136 0.59236 0.4125 0.0
C250 C 0.9019 0.54973 0.50476 0.0
O251 O 0.91297 0.49832 0.498 0.0
O252 O 0.90397 0.46422 0.52892 0.0
O253 O 0.86784 0.45015 0.48829 0.0
O254 O 0.87584 0.48752 0.47181 0.0
C255 C 0.91655 0.4805 0.50509 0.0
O256 O 0.86595 0.42744 0.58543 0.0
O257 O 0.84033 0.41696 0.54272 0.0
O258 O 0.836 0.46087 0.54787 0.0
O259 O 0.8584 0.50025 0.55767 0.0
O260 O 0.91011 0.51217 0.57332 0.0
O261 O 0.88511 0.4766 0.59967 0.0
C262 C 0.87066 0.46545 0.46287 0.0
O263 O 0.88013 0.532 0.50187 0.0
O264 O 0.91584 0.54361 0.52118 0.0
C265 C 0.82612 0.39817 0.59697 0.0
C266 C 0.78551 0.37563 0.6404 0.0
C267 C 0.80195 0.40009 0.64409 0.0
C268 C 0.8219 0.41125 0.62244 0.0
C269 C 0.80997 0.37377 0.59318 0.0
C270 C 0.78981 0.36253 0.61481 0.0
C271 C 0.84599 0.41054 0.57221 0.0
H272 H 0.93145 0.62045 0.44361 0.0
H273 H 0.91434 0.59569 0.49636 0.0
H274 H 0.91131 0.5358 0.44222 0.0
H275 H 0.92873 0.56046 0.38956 0.0
H276 H 0.79964 0.41067 0.66409 0.0
H277 H 0.83395 0.43021 0.62542 0.0
H278 H 0.81277 0.36351 0.57316 0.0
H279 H 0.77749 0.34372 0.61121 0.0
Tb280 Tb 0.36501 0.88534 0.86379 0.0
Eu281 Eu 0.4022 0.86887 0.89092 0.0
C282 C 0.34352 0.83256 0.89468 0.0
C283 C 0.38657 0.89858 0.94588 0.0
C284 C 0.34142 0.91842 0.81403 0.0
C285 C 0.33181 0.94755 0.79099 0.0
C286 C 0.32906 0.93093 0.81678 0.0
C287 C 0.3567 0.92268 0.7854 0.0
C288 C 0.35941 0.93924 0.75951 0.0
C289 C 0.347 0.95184 0.76208 0.0
C290 C 0.33953 0.90227 0.84245 0.0
O291 O 0.40104 0.90925 0.84762 0.0
O292 O 0.42228 0.90927 0.89374 0.0
O293 O 0.40821 0.87322 0.82985 0.0
O294 O 0.37555 0.87574 0.81184 0.0
C295 C 0.41685 0.92142 0.8716 0.0
O296 O 0.42319 0.86308 0.93113 0.0
O297 O 0.4239 0.85275 0.8774 0.0
O298 O 0.36518 0.83542 0.89607 0.0
O299 O 0.34016 0.85021 0.88526 0.0
O300 O 0.37422 0.90074 0.91909 0.0
O301 O 0.39674 0.8853 0.94184 0.0
C302 C 0.39465 0.87385 0.8037 0.0
O303 O 0.33617 0.88148 0.83295 0.0
O304 O 0.35573 0.91194 0.86701 0.0
C305 C 0.42291 0.82728 0.92273 0.0
C306 C 0.40878 0.78385 0.95824 0.0
C307 C 0.3918 0.78841 0.94198 0.0
C308 C 0.39884 0.80975 0.92428 0.0
C309 C 0.44015 0.82239 0.93658 0.0
C310 C 0.43317 0.80071 0.95387 0.0
C311 C 0.42934 0.85124 0.91015 0.0
H312 H 0.32234 0.95728 0.79395 0.0
H313 H 0.31752 0.92807 0.83913 0.0
H314 H 0.36664 0.91335 0.78324 0.0
H315 H 0.37106 0.94203 0.73737 0.0
H316 H 0.37286 0.77639 0.945 0.0
H317 H 0.3853 0.81307 0.91352 0.0
H318 H 0.45889 0.83568 0.93538 0.0
H319 H 0.44685 0.79772 0.96525 0.0
Tb320 Tb 0.4615 0.37641 0.19912 0.0
Eu321 Eu 0.51603 0.40961 0.22221 0.0
C322 C 0.49116 0.35178 0.22881 0.0
C323 C 0.47232 0.40282 0.27668 0.0
C324 C 0.40589 0.34299 0.14792 0.0
C325 C 0.37184 0.31598 0.11237 0.0
C326 C 0.38285 0.32336 0.1454 0.0
C327 C 0.41765 0.35562 0.11737 0.0
C328 C 0.40679 0.34811 1.08437 0.0
C329 C 0.38396 0.32801 1.08157 0.0
C330 C 0.4186 0.34863 0.1817 0.0
O331 O 0.46926 0.41095 0.17877 0.0
O332 O 0.50921 0.43522 0.19157 0.0
O333 O 0.51826 0.40814 0.16059 0.0
O334 O 0.4787 0.38609 0.14516 0.0
C335 C 0.48927 0.43139 0.17659 0.0
O336 O 0.54476 0.43669 0.25474 0.0
O337 O 0.55274 0.41817 0.21433 0.0
O338 O 0.50817 0.37266 0.23947 0.0
O339 O 0.47309 0.35015 0.21037 0.0
O340 O 0.45737 0.38577 0.25488 0.0
O341 O 0.49538 0.41485 0.26864 0.0
C342 C 0.50148 0.39915 0.13557 0.0
O343 O 0.43481 0.34242 0.18376 0.0
O344 O 0.42639 0.37003 0.1938 0.0
C345 C 0.57417 0.42584 0.26704 0.0
C346 C 0.59657 0.40708 0.3103 0.0
C347 C 0.57545 0.40636 0.32126 0.0
C348 C 0.56428 0.41545 0.29975 0.0
C349 C 0.59567 0.4274 0.2565 0.0
C350 C 0.6068 0.4181 0.27794 0.0
C351 C 0.5607 0.43205 0.24182 0.0
H352 H 0.35421 0.30043 0.11076 0.0
H353 H 0.37368 0.31335 0.16882 0.0
H354 H 0.43544 0.37086 0.11894 0.0
H355 H 0.41631 0.35789 1.06101 0.0
H356 H 0.5674 0.39861 0.34646 0.0
H357 H 0.54756 0.41375 0.30836 0.0
H358 H 0.60339 0.43505 0.23108 0.0
H359 H 0.62299 0.4189 0.26869 0.0
Tb360 Tb 0.07193 0.46667 0.52729 0.0
Eu361 Eu 0.08614 0.51976 0.54737 0.0
C362 C 0.12344 0.50039 0.55399 0.0
C363 C 0.05634 0.47696 0.60528 0.0
C364 C 0.06736 0.41295 0.48589 0.0
C365 C 0.06703 0.37774 0.46379 0.0
C366 C 0.06438 0.39028 0.49172 0.0
C367 C 0.07483 0.42378 0.4527 0.0
C368 C 0.07719 0.41123 0.42475 0.0
C369 C 0.07237 0.38766 0.42958 0.0
C370 C 0.06074 0.42437 0.51339 0.0
O371 O 0.04097 0.47043 0.53413 0.0
O372 O 0.05378 0.50643 0.51153 0.0
O373 O 0.09252 0.52243 0.48687 0.0
O374 O 0.07673 0.48299 0.47232 0.0
C375 C 0.03757 0.48385 0.51194 0.0
O376 O 0.08257 0.54761 0.57443 0.0
O377 O 0.11367 0.55685 0.54236 0.0
O378 O 0.11446 0.51188 0.57061 0.0
O379 O 0.11095 0.48591 0.52838 0.0
O380 O 0.06285 0.46397 0.58576 0.0
O381 O 0.06119 0.49819 0.59338 0.0
C382 C 0.08572 0.50571 0.46224 0.0
O383 O 0.07746 0.43765 0.53586 0.0
O384 O 0.04884 0.43453 0.50231 0.0
C385 C 0.12096 0.57498 0.59756 0.0
C386 C 0.15553 0.58322 0.64949 0.0
C387 C 0.13116 0.56941 0.65732 0.0
C388 C 0.11401 0.5653 0.63162 0.0
C389 C 0.14523 0.59109 0.59112 0.0
C390 C 0.16246 0.59515 0.61694 0.0
C391 C 0.10463 0.56375 0.5673 0.0
H392 H 0.06356 0.3598 0.46852 0.0
H393 H 0.0589 0.38183 0.5174 0.0
H394 H 0.07743 0.44141 0.44781 0.0
H395 H 0.08095 0.41943 0.39882 0.0
H396 H 0.1254 0.56055 0.68269 0.0
H397 H 0.0955 0.55293 0.63765 0.0
H398 H 0.15105 0.59878 0.56506 0.0
H399 H 0.18116 0.60607 0.61049 0.0
Tb400 Tb 0.5874 0.07828 0.85835 0.0
Eu401 Eu 0.55818 0.10391 0.88299 0.0
C402 C 0.61607 0.13253 0.88985 0.0
C403 C 0.56372 0.06694 0.93882 0.0
C404 C 0.61839 0.0481 0.81542 0.0
C405 C 0.64757 0.03966 0.78967 0.0
C406 C 0.64082 0.04981 0.81636 0.0
C407 C 0.60251 0.03591 0.7877 0.0
C408 C 0.6092 0.0256 0.761 0.0
C409 C 0.6319 0.02754 0.76159 0.0
C410 C 0.61255 0.05978 0.84341 0.0
O411 O 0.55192 0.05631 0.83505 0.0
O412 O 0.53223 0.06541 0.87639 0.0
O413 O 0.55452 0.10253 0.82134 0.0
O414 O 0.57963 0.08883 0.80479 0.0
C415 C 0.53208 0.05256 0.84984 0.0
O416 O 0.53636 0.11062 0.91984 0.0
O417 O 0.54393 0.12709 0.86838 0.0
O418 O 0.59613 0.13291 0.89323 0.0
O419 O 0.61594 0.11337 0.87789 0.0
O420 O 0.57573 0.06337 0.91337 0.0
O421 O 0.55635 0.08254 0.93357 0.0
C422 C 0.56469 0.09666 0.7958 0.0
O423 O 0.61918 0.0821 0.83812 0.0
O424 O 0.59143 0.04806 0.85757 0.0
C425 C 0.54263 0.14937 0.91619 0.0
C426 C 0.55649 0.1907 0.95659 0.0
C427 C 0.57352 0.18476 0.94512 0.0
C428 C 0.56663 0.16431 0.92514 0.0
C429 C 0.52574 0.15587 0.92553 0.0
C430 C 0.53262 0.17646 0.94549 0.0
C431 C 0.53517 0.12628 0.89957 0.0
H432 H 0.66527 0.04181 0.79064 0.0
H433 H 0.6533 0.05932 0.83758 0.0
H434 H 0.58512 0.0345 0.78663 0.0
H435 H 0.59661 0.0161 0.73993 0.0
H436 H 0.59196 0.19493 0.9536 0.0
H437 H 0.57988 0.15954 0.91815 0.0
H438 H 0.50712 0.14456 0.91861 0.0
H439 H 0.5191 0.18063 0.9536 0.0
Tb440 Tb 0.50078 0.60113 0.1945 0.0
Eu441 Eu 0.44635 0.56831 0.21589 0.0
C442 C 0.47265 0.62607 0.22504 0.0
C443 C 0.49064 0.57476 0.27127 0.0
C444 C 0.55852 0.62958 0.14601 0.0
C445 C 0.59842 0.6441 0.12368 0.0
C446 C 0.58326 0.64334 0.15031 0.0
C447 C 0.54895 0.61643 0.1149 0.0
C448 C 0.5641 0.61726 1.08815 0.0
C449 C 0.58898 0.63113 1.09234 0.0
C450 C 0.54309 0.62855 0.1748 0.0
O451 O 0.49409 0.56529 0.18531 0.0
O452 O 0.45338 0.54361 0.18301 0.0
O453 O 0.44298 0.56626 0.15509 0.0
O454 O 0.48214 0.59147 0.14051 0.0
C455 C 0.47437 0.54716 0.17324 0.0
O456 O 0.41946 0.54412 0.25344 0.0
O457 O 0.40879 0.55705 0.20824 0.0
O458 O 0.45269 0.60628 0.21866 0.0
O459 O 0.49299 0.62628 0.22267 0.0
O460 O 0.50619 0.5905 0.24869 0.0
O461 O 0.46746 0.56445 0.26374 0.0
C462 C 0.45952 0.57683 0.13047 0.0
O463 O 0.52514 0.63142 0.16615 0.0
O464 O 0.53694 0.61107 0.19697 0.0
C465 C 0.39176 0.55703 0.26197 0.0
C466 C 0.37225 0.57942 0.30261 0.0
C467 C 0.39688 0.59077 0.29615 0.0
C468 C 0.4065 0.57961 0.27644 0.0
C469 C 0.36708 0.54566 0.26746 0.0
C470 C 0.35738 0.5567 0.28804 0.0
C471 C 0.40257 0.54684 0.23904 0.0
H472 H 0.61751 0.65504 0.12738 0.0
H473 H 0.59085 0.65346 0.17433 0.0
H474 H 0.52984 0.60551 0.1114 0.0
H475 H 0.55641 0.60686 1.06438 0.0
H476 H 0.40902 0.60793 0.30769 0.0
H477 H 0.4256 0.58861 0.27272 0.0
H478 H 0.35542 0.52832 0.25604 0.0
H479 H 0.33836 0.54745 0.2928 0.0
H480 H 0.45396 0.13658 0.27793 0.0
H481 H 0.45838 0.17522 0.26444 0.0
H482 H 0.52954 0.20971 0.30778 0.0
H483 H 0.52489 0.17038 0.3224 0.0
H484 H 0.51038 0.23549 0.32613 0.0
H485 H 0.51638 0.20636 0.21526 0.0
H486 H 0.50623 0.17836 0.16564 0.0
H487 H 0.44063 0.17857 0.14898 0.0
H488 H 0.45008 0.20613 0.19909 0.0
H489 H 0.52853 0.34794 0.25855 0.0
H490 H 0.53114 0.31217 0.27071 0.0
H491 H 0.45953 0.26849 0.2314 0.0
H492 H 0.45723 0.30432 0.2179 0.0
H493 H 0.48378 0.24937 0.20959 0.0
H494 H 0.4792 0.2769 0.32878 0.0
H495 H 0.49397 0.30801 0.37483 0.0
H496 H 0.56326 0.31462 0.36955 0.0
H497 H 0.54886 0.28338 0.32393 0.0
C498 C 0.47076 0.15223 0.28453 0.0
C499 C 0.48911 0.14984 0.3012 0.0
C500 C 0.47332 0.17466 0.2765 0.0
C501 C 0.49449 0.19603 0.28423 0.0
C502 C 0.51294 0.19384 0.30114 0.0
C503 C 0.51033 0.17117 0.30939 0.0
C504 C 0.49678 0.22018 0.27488 0.0
C505 C 0.50478 0.23844 0.30042 0.0
C506 C 0.48971 0.22485 0.24134 0.0
C507 C 0.48383 0.20815 0.21125 0.0
C508 C 0.49964 0.20023 0.20132 0.0
C509 C 0.49402 0.18443 0.17308 0.0
C510 C 0.47277 0.17665 0.15422 0.0
C511 C 0.45708 0.18461 0.16363 0.0
C512 C 0.46255 0.2003 0.19198 0.0
C513 C 0.51322 0.33075 0.25255 0.0
C514 C 0.49258 0.32944 0.23727 0.0
C515 C 0.51466 0.31002 0.25987 0.0
C516 C 0.49536 0.28694 0.25294 0.0
C517 C 0.47482 0.28568 0.23738 0.0
C518 C 0.47346 0.30642 0.2297 0.0
C519 C 0.49645 0.26426 0.26124 0.0
C520 C 0.48921 0.2463 0.23537 0.0
C521 C 0.50473 0.26012 0.29411 0.0
C522 C 0.51298 0.2779 0.3229 0.0
C523 C 0.49755 0.28491 0.33765 0.0
C524 C 0.50586 0.30255 0.3637 0.0
C525 C 0.52955 0.31325 0.37521 0.0
C526 C 0.54491 0.3062 0.36088 0.0
C527 C 0.53666 0.28846 0.33503 0.0
H528 H 0.53603 0.32704 0.39516 0.0
H529 H 0.46849 0.16449 0.13227 0.0
H530 H 0.29383 0.46291 0.66236 0.0
H531 H 0.25932 0.46663 0.64683 0.0
H532 H 0.30557 0.53852 0.61121 0.0
H533 H 0.34062 0.53518 0.62859 0.0
H534 H 0.26884 0.53801 0.63797 0.0
H535 H 0.27363 0.48705 0.5525 0.0
H536 H 0.27703 0.45317 0.53015 0.0
H537 H 0.21153 0.40431 0.58152 0.0
H538 H 0.2079 0.43791 0.60456 0.0
H539 H 0.15222 0.48901 0.5153 0.0
H540 H 0.18994 0.49164 0.53205 0.0
H541 H 0.18596 0.51817 0.63476 0.0
H542 H 0.14886 0.51699 0.61696 0.0
H543 H 0.20355 0.47158 0.57136 0.0
H544 H 0.2408 0.54588 0.67849 0.0
H545 H 0.2412 0.58318 0.69249 0.0
H546 H 0.22659 0.59069 0.5837 0.0
H547 H 0.22704 0.55392 0.56873 0.0
C548 C 0.29688 0.47963 0.65123 0.0
C549 C 0.32037 0.49862 0.64648 0.0
C550 C 0.27686 0.48169 0.642 0.0
C551 C 0.27928 0.50262 0.62657 0.0
C552 C 0.30277 0.52199 0.6227 0.0
C553 C 0.32298 0.52007 0.63262 0.0
C554 C 0.25732 0.50383 0.61433 0.0
C555 C 0.25459 0.52344 0.6234 0.0
C556 C 0.23856 0.48529 0.5944 0.0
C557 C 0.2406 0.46501 0.5805 0.0
C558 C 0.26003 0.46908 0.5592 0.0
C559 C 0.26199 0.44992 0.54639 0.0
C560 C 0.24453 0.4266 0.55448 0.0
C561 C 0.22505 0.42238 0.57531 0.0
C562 C 0.22301 0.44148 0.58822 0.0
C563 C 0.15946 0.4957 0.54136 0.0
C564 C 0.14725 0.50289 0.56454 0.0
C565 C 0.1812 0.49708 0.55116 0.0
C566 C 0.1916 0.50532 0.58485 0.0
C567 C 0.17923 0.51234 0.60824 0.0
C568 C 0.15768 0.51149 0.59808 0.0
C569 C 0.21471 0.50567 0.59531 0.0
C570 C 0.21768 0.48626 0.58593 0.0
C571 C 0.23394 0.52478 0.61391 0.0
C572 C 0.23365 0.54694 0.62258 0.0
C573 C 0.23776 0.55552 0.65751 0.0
C574 C 0.23785 0.57659 0.66561 0.0
C575 C 0.23372 0.58919 0.63906 0.0
C576 C 0.22968 0.58085 0.60427 0.0
C577 C 0.22984 0.55993 0.59594 0.0
H578 H 0.23379 0.60549 0.64538 0.0
H579 H 0.24609 0.4118 0.54455 0.0
H580 H 0.83499 0.30338 0.96264 0.0
H581 H 0.79725 0.26818 0.94681 0.0
H582 H 0.75922 0.30365 0.97942 0.0
H583 H 0.79711 0.33899 0.99556 0.0
H584 H 0.73301 0.26054 0.99747 0.0
H585 H 0.76786 0.29312 0.88688 0.0
H586 H 0.79911 0.31011 0.84129 0.0
H587 H 0.80108 0.24486 0.83816 0.0
H588 H 0.77006 0.22767 0.88417 0.0
H589 H 0.62364 0.17639 0.91231 0.0
H590 H 0.66087 0.21193 0.92875 0.0
H591 H 0.69954 0.17514 0.90778 0.0
H592 H 0.66218 0.13949 0.89046 0.0
H593 H 0.72479 0.2194 0.88361 0.0
H594 H 0.68548 0.18766 0.99652 0.0
H595 H 0.65104 0.17348 1.03657 0.0
H596 H 0.65443 0.24124 1.02909 0.0
H597 H 0.68875 0.25574 0.98884 0.0
C598 C 0.81867 0.30388 0.96634 0.0
C599 C 0.81953 0.3245 0.98023 0.0
C600 C 0.79684 0.28356 0.95696 0.0
C601 C 0.77481 0.2829 0.96086 0.0
C602 C 0.7756 0.30326 0.97567 0.0
C603 C 0.7975 0.32373 0.98481 0.0
C604 C 0.75124 0.26112 0.94968 0.0
C605 C 0.73133 0.25182 0.97235 0.0
C606 C 0.74829 0.24915 0.91693 0.0
C607 C 0.7669 0.25927 0.88928 0.0
C608 C 0.77515 0.28252 0.87669 0.0
C609 C 0.79277 0.29215 0.85074 0.0
C610 C 0.80215 0.27859 0.83692 0.0
C611 C 0.79384 0.25535 0.84896 0.0
C612 C 0.77623 0.24565 0.87496 0.0
C613 C 0.63996 0.17564 0.91121 0.0
C614 C 0.63944 0.15458 0.90007 0.0
C615 C 0.66149 0.19619 0.92095 0.0
C616 C 0.6835 0.19658 0.92045 0.0
C617 C 0.68309 0.17569 0.9088 0.0
C618 C 0.66152 0.1551 0.8989 0.0
C619 C 0.70676 0.21863 0.93161 0.0
C620 C 0.7266 0.22803 0.90885 0.0
C621 C 0.70938 0.23107 0.96382 0.0
C622 C 0.68953 0.2227 0.98942 0.0
C623 C 0.67886 0.19951 1.00342 0.0
C624 C 0.65935 0.19142 1.02612 0.0
C625 C 0.65043 0.20638 1.03511 0.0
C626 C 0.66127 0.22962 1.02197 0.0
C627 C 0.68079 0.23781 0.99929 0.0
H628 H 0.63514 0.19998 1.05228 0.0
H629 H 0.81579 0.28607 0.81681 0.0
H630 H 0.5089 0.66826 0.25311 0.0
H631 H 0.50823 0.7046 0.26903 0.0
H632 H 0.43502 0.67238 0.23508 0.0
H633 H 0.43539 0.63571 0.2199 0.0
H634 H 0.46261 0.72065 0.21131 0.0
H635 H 0.44692 0.67792 0.32047 0.0
H636 H 0.45425 0.65634 0.3683 0.0
H637 H 0.5216 0.71838 0.39119 0.0
H638 H 0.51495 0.74023 0.34292 0.0
H639 H 0.4447 0.8139 0.28325 0.0
H640 H 0.44145 0.7758 0.2664 0.0
H641 H 0.5076 0.79573 0.32058 0.0
H642 H 0.51052 0.83328 0.33817 0.0
H643 H 0.48122 0.75208 0.33366 0.0
H644 H 0.49891 0.79459 0.22385 0.0
H645 H 0.4934 0.81656 0.17465 0.0
H646 H 0.42484 0.75623 0.15154 0.0
H647 H 0.42971 0.73417 0.20142 0.0
C648 C 0.49256 0.66875 0.24902 0.0
C649 C 0.4722 0.64864 0.23507 0.0
C650 C 0.49219 0.68973 0.25824 0.0
C651 C 0.47157 0.6917 0.25344 0.0
C652 C 0.45128 0.67175 0.23912 0.0
C653 C 0.4515 0.65057 0.23051 0.0
C654 C 0.47119 0.7143 0.26384 0.0
C655 C 0.46638 0.7273 0.23822 0.0
C656 C 0.47653 0.7237 0.29872 0.0
C657 C 0.48055 0.71064 0.32782 0.0
C658 C 0.4634 0.68691 0.33547 0.0
C659 C 0.46741 0.67464 0.36271 0.0
C660 C 0.48837 0.68597 0.38276 0.0
C661 C 0.50538 0.70962 0.37561 0.0
C662 C 0.50151 0.72196 0.3483 0.0
C663 C 0.45862 0.81025 0.29157 0.0
C664 C 0.47793 0.82713 0.31221 0.0
C665 C 0.45683 0.78829 0.28165 0.0
C666 C 0.47443 0.78239 0.29157 0.0
C667 C 0.4936 0.79926 0.31231 0.0
C668 C 0.49531 0.82105 0.32236 0.0
C669 C 0.47303 0.75887 0.28102 0.0
C670 C 0.47746 0.74558 0.30669 0.0
C671 C 0.4676 0.74938 0.24607 0.0
C672 C 0.46454 0.76276 0.2165 0.0
C673 C 0.48254 0.78609 0.20852 0.0
C674 C 0.47954 0.79858 0.18056 0.0
C675 C 0.45872 0.78783 0.16011 0.0
C676 C 0.44088 0.76456 0.16756 0.0
C677 C 0.44374 0.75207 0.19567 0.0
H678 H 0.45645 0.79749 0.13842 0.0
H679 H 0.49141 0.67643 0.40386 0.0
H680 H 0.62583 0.45433 0.62615 0.0
H681 H 0.66114 0.45283 0.60921 0.0
H682 H 0.70558 0.52031 0.66024 0.0
H683 H 0.66982 0.52209 0.67697 0.0
H684 H 0.72619 0.5205 0.60128 0.0
H685 H 0.69078 0.45998 0.69302 0.0
H686 H 0.65658 0.42401 0.71798 0.0
H687 H 0.65444 0.38384 0.62673 0.0
H688 H 0.68807 0.41973 0.60057 0.0
H689 H 0.83435 0.51698 0.59147 0.0
H690 H 0.79881 0.51808 0.61019 0.0
H691 H 0.7543 0.44782 0.56732 0.0
H692 H 0.78995 0.44625 0.55022 0.0
H693 H 0.73328 0.44866 0.62159 0.0
H694 H 0.76375 0.50445 0.52729 0.0
H695 H 0.7934 0.53896 0.49309 0.0
H696 H 0.80174 0.58544 0.57931 0.0
H697 H 0.77234 0.55115 0.61421 0.0
C698 C 0.64303 0.46895 0.63405 0.0
C699 C 0.64459 0.48832 0.65333 0.0
C700 C 0.66352 0.46801 0.6243 0.0
C701 C 0.68659 0.48627 0.63358 0.0
C702 C 0.68825 0.5058 0.65257 0.0
C703 C 0.66765 0.50679 0.66237 0.0
C704 C 0.70878 0.48515 0.62315 0.0
C705 C 0.72783 0.5049 0.60644 0.0
C706 C 0.71098 0.46449 0.62796 0.0
C707 C 0.69178 0.44263 0.64469 0.0
C708 C 0.68296 0.44349 0.67822 0.0
C709 C 0.66358 0.42316 0.69245 0.0
C710 C 0.65313 0.40177 0.67366 0.0
C711 C 0.66238 0.40052 0.64099 0.0
C712 C 0.68157 0.42085 0.62642 0.0
C713 C 0.81702 0.50171 0.58597 0.0
C714 C 0.81533 0.48156 0.56903 0.0
C715 C 0.79646 0.50243 0.59649 0.0
C716 C 0.77327 0.48327 0.58972 0.0
C717 C 0.77163 0.46301 0.57311 0.0
C718 C 0.79221 0.46214 0.5631 0.0
C719 C 0.75096 0.48421 0.60017 0.0
C720 C 0.73183 0.46439 0.61672 0.0
C721 C 0.74837 0.50455 0.59432 0.0
C722 C 0.76606 0.52521 0.5735 0.0
C723 C 0.77204 0.52201 0.53905 0.0
C724 C 0.78878 0.54153 0.51952 0.0
C725 C 0.7995 0.56437 0.53406 0.0
C726 C 0.79345 0.56774 0.56811 0.0
C727 C 0.77674 0.54827 0.58777 0.0
H728 H 0.81245 0.57946 0.5189 0.0
H729 H 0.63797 0.38611 0.68455 0.0
H730 H 0.29602 0.81973 0.89087 0.0
H731 H 0.26088 0.78215 0.90625 0.0
H732 H 0.30562 0.75311 0.93631 0.0
H733 H 0.34104 0.79069 0.91951 0.0
H734 H 0.26883 0.71885 0.90899 0.0
H735 H 0.27477 0.77224 0.99855 0.0
H736 H 0.27901 0.80894 1.02471 0.0
H737 H 0.21355 0.79549 0.97513 0.0
H738 H 0.20907 0.75886 0.94826 0.0
H739 H 0.16439 0.61858 0.99405 0.0
H740 H 0.20398 0.65363 0.98241 0.0
H741 H 0.17014 0.68921 0.93286 0.0
H742 H 0.13128 0.65487 0.94407 0.0
H743 H 0.20376 0.71939 0.97651 0.0
H744 H 0.19945 0.66301 0.88877 0.0
H745 H 0.19774 0.62634 0.8676 0.0
H746 H 0.26367 0.64553 0.92102 0.0
H747 H 0.26514 0.68174 0.94415 0.0
C748 C 0.2986 0.80547 0.9008 0.0
C749 C 0.32183 0.80879 0.90415 0.0
C750 C 0.27822 0.78376 0.91002 0.0
C751 C 0.28005 0.76443 0.92374 0.0
C752 C 0.30323 0.76746 0.92627 0.0
C753 C 0.3237 0.78919 0.91665 0.0
C754 C 0.25787 0.74129 0.93492 0.0
C755 C 0.25484 0.7191 0.92429 0.0
C756 C 0.23914 0.74092 0.95499 0.0
C757 C 0.24169 0.7629 0.97114 0.0
C758 C 0.26135 0.77718 0.99303 0.0
C759 C 0.26379 0.79797 1.00801 0.0
C760 C 0.24659 0.80457 1.00152 0.0
C761 C 0.22687 0.79037 0.9801 0.0
C762 C 0.22436 0.76957 0.96502 0.0
C763 C 0.1654 0.63376 0.98035 0.0
C764 C 0.14421 0.63347 0.97009 0.0
C765 C 0.18819 0.65396 0.97365 0.0
C766 C 0.19052 0.67455 0.95659 0.0
C767 C 0.16933 0.67398 0.94618 0.0
C768 C 0.14683 0.65398 0.95258 0.0
C769 C 0.21447 0.69699 0.9499 0.0
C770 C 0.21783 0.71914 0.96143 0.0
C771 C 0.23371 0.69718 0.93156 0.0
C772 C 0.23226 0.67497 0.91855 0.0
C773 C 0.21338 0.65923 0.89654 0.0
C774 C 0.21249 0.63853 0.88412 0.0
C775 C 0.23071 0.63372 0.89271 0.0
C776 C 0.2496 0.64932 0.91434 0.0
C777 C 0.25039 0.66985 0.9273 0.0
H778 H 0.23037 0.61803 0.88249 0.0
H779 H 0.24851 0.82067 1.01315 0.0
H780 H 0.53036 0.18792 1.01445 0.0
H781 H 0.54573 0.20907 1.06924 0.0
H782 H 0.61336 0.2553 1.0196 0.0
H783 H 0.59779 0.23396 0.96385 0.0
H784 H 0.61924 0.23109 1.06755 0.0
H785 H 0.58502 0.2793 1.07353 0.0
H786 H 0.55569 0.29277 1.06645 0.0
H787 H 0.50817 0.23821 0.13787 0.0
H788 H 0.53695 0.22413 0.14485 0.0
H789 H 0.62241 0.19339 0.24503 0.0
H790 H 0.63087 0.22573 0.20256 0.0
H791 H 0.55743 0.18776 0.1678 0.0
H792 H 0.5492 0.1559 0.20944 0.0
H793 H 0.57504 0.23635 0.17029 0.0
H794 H 0.60081 0.17913 0.12929 0.0
H795 H 0.62756 0.1622 0.13183 0.0
H796 H 0.68848 0.23233 0.12327 0.0
H797 H 0.66203 0.24964 0.12106 0.0
C798 C 0.54807 0.20337 1.01439 0.0
C799 C 0.56303 0.20879 0.98492 0.0
C800 C 0.55692 0.2157 1.04603 0.0
C801 C 0.58087 0.23378 1.04887 0.0
C802 C 0.59486 0.24135 1.01817 0.0
C803 C 0.58599 0.22898 0.98638 0.0
C804 C 0.59224 0.23916 1.08446 0.0
C805 C 0.61027 0.23338 1.09004 0.0
C806 C 0.5809 0.24241 0.11409 0.0
C807 C 0.56332 0.25073 0.10992 0.0
C808 C 0.56828 0.27009 1.08763 0.0
C809 C 0.55173 0.27784 1.08361 0.0
C810 C 0.53011 0.2664 1.10176 0.0
C811 C 0.52496 0.24714 0.12392 0.0
C812 C 0.54144 0.23931 0.128 0.0
C813 C 0.60818 0.19228 0.22845 0.0
C814 C 0.58533 0.17206 0.22966 0.0
C815 C 0.61294 0.21073 0.2045 0.0
C816 C 0.59476 0.20915 0.1821 0.0
C817 C 0.57169 0.18949 0.18498 0.0
C818 C 0.56706 0.17112 0.20837 0.0
C819 C 0.59957 0.22555 0.15196 0.0
C820 C 0.58497 0.23573 0.14772 0.0
C821 C 0.61372 0.22604 0.12333 0.0
C822 C 0.62954 0.21568 0.12575 0.0
C823 C 0.61993 0.19093 0.12841 0.0
C824 C 0.63502 0.18127 0.1297 0.0
C825 C 0.65971 0.1962 0.12796 0.0
C826 C 0.66936 0.22081 0.12488 0.0
C827 C 0.65434 0.23055 0.12367 0.0
H828 H 0.67136 0.18868 0.12878 0.0
H829 H 0.51733 0.27243 1.09861 0.0
H830 H 0.38418 0.62623 0.30878 0.0
H831 H 0.38523 0.64508 0.36498 0.0
H832 H 0.34109 0.57605 0.41187 0.0
H833 H 0.34097 0.55703 0.35649 0.0
H834 H 0.3585 0.64387 0.43204 0.0
H835 H 0.37615 0.56946 0.4643 0.0
H836 H 0.38613 0.54128 0.43593 0.0
H837 H 0.42718 0.5938 0.35749 0.0
H838 H 0.41689 0.62202 0.38496 0.0
H839 H 0.37865 0.61835 0.60913 0.0
H840 H 0.36823 0.63025 0.55368 0.0
H841 H 0.44075 0.65998 0.51831 0.0
H842 H 0.45094 0.64671 0.57228 0.0
H843 H 0.41087 0.61757 0.48889 0.0
H844 H 0.4119 0.6907 0.50623 0.0
H845 H 0.40299 0.71924 0.53553 0.0
H846 H 0.32811 0.67238 0.51828 0.0
H847 H 0.33652 0.64336 0.48932 0.0
C848 C 0.37382 0.61508 0.33065 0.0
C849 C 0.3634 0.59015 0.32877 0.0
C850 C 0.37418 0.62593 0.36264 0.0
C851 C 0.3638 0.61189 0.39269 0.0
C852 C 0.34939 0.58714 0.3889 0.0
C853 C 0.34936 0.57625 0.35711 0.0
C854 C 0.37434 0.62161 0.42767 0.0
C855 C 0.36991 0.6382 0.44479 0.0
C856 C 0.38976 0.61468 0.44356 0.0
C857 C 0.39572 0.59775 0.42654 0.0
C858 C 0.38724 0.57492 0.44093 0.0
C859 C 0.39284 0.55892 0.42492 0.0
C860 C 0.40715 0.5657 0.39477 0.0
C861 C 0.4159 0.5885 0.38061 0.0
C862 C 0.41012 0.60446 0.39629 0.0
C863 C 0.39264 0.62823 0.59011 0.0
C864 C 0.41523 0.63022 0.59417 0.0
C865 C 0.3867 0.63541 0.55856 0.0
C866 C 0.40353 0.6452 0.53137 0.0
C867 C 0.42739 0.65204 0.53881 0.0
C868 C 0.43321 0.64436 0.56992 0.0
C869 C 0.39508 0.63994 0.49426 0.0
C870 C 0.39977 0.62378 0.47649 0.0
C871 C 0.38004 0.6474 0.47827 0.0
C872 C 0.37486 0.66475 0.4958 0.0
C873 C 0.39351 0.68635 0.50897 0.0
C874 C 0.38855 0.70265 0.52545 0.0
C875 C 0.36499 0.69761 0.52883 0.0
C876 C 0.34635 0.67626 0.51566 0.0
C877 C 0.35121 0.65989 0.49915 0.0
H878 H 0.36119 0.71026 0.54159 0.0
H879 H 0.41155 0.55333 0.38248 0.0
H880 H 0.7443 0.36996 0.95235 0.0
H881 H 0.71774 0.34752 0.90343 0.0
H882 H 0.75904 0.40599 0.8328 0.0
H883 H 0.78625 0.42788 0.8802 0.0
H884 H 0.69974 0.36354 0.82031 0.0
H885 H 0.79255 0.3795 0.81414 0.0
H886 H 0.8245 0.38345 0.85455 0.0
H887 H 0.7722 0.33009 0.92264 0.0
H888 H 0.74014 0.32528 0.88221 0.0
H889 H 0.75766 0.39327 0.66463 0.0
H890 H 0.73345 0.3806 0.71736 0.0
H891 H 0.74044 0.31775 0.72308 0.0
H892 H 0.76661 0.3316 0.6718 0.0
H893 H 0.75719 0.33972 0.77791 0.0
H894 H 0.68372 0.31658 0.72641 0.0
H895 H 0.65269 0.31546 0.68702 0.0
H896 H 0.66332 0.38081 0.7319 0.0
H897 H 0.69503 0.38299 0.77022 0.0
C898 C 0.74733 0.37839 0.92664 0.0
C899 C 0.76817 0.40032 0.92 0.0
C900 C 0.73183 0.36564 0.89886 0.0
C901 C 0.73682 0.37496 0.8645 0.0
C902 C 0.75497 0.39851 0.85924 0.0
C903 C 0.77065 0.41107 0.88667 0.0
C904 C 0.72952 0.35905 0.83356 0.0
C905 C 0.71174 0.3577 0.8108 0.0
C906 C 0.74467 0.35056 0.8222 0.0
C907 C 0.76399 0.3521 0.84528 0.0
C908 C 0.78795 0.36838 0.83753 0.0
C909 C 0.80608 0.37076 0.86045 0.0
C910 C 0.80042 0.35695 0.89116 0.0
C911 C 0.77664 0.34064 0.89883 0.0
C912 C 0.75849 0.33802 0.87587 0.0
C913 C 0.75375 0.37653 0.67675 0.0
C914 C 0.76493 0.364 0.66492 0.0
C915 C 0.73931 0.36892 0.70661 0.0
C916 C 0.73517 0.34823 0.72475 0.0
C917 C 0.74355 0.33392 0.70988 0.0
C918 C 0.75851 0.34185 0.6804 0.0
C919 C 0.72817 0.3455 0.76266 0.0
C920 C 0.74376 0.34379 0.787 0.0
C921 C 0.71062 0.35066 0.77527 0.0
C922 C 0.69182 0.34987 0.75147 0.0
C923 C 0.67966 0.33089 0.72761 0.0
C924 C 0.66195 0.3301 0.70531 0.0
C925 C 0.65606 0.3481 0.70678 0.0
C926 C 0.66793 0.36694 0.73049 0.0
C927 C 0.6858 0.36795 0.75257 0.0
H928 H 0.64227 0.3474 0.68961 0.0
H929 H 0.81442 0.35893 0.90908 0.0
H930 H 0.36768 0.73969 0.9573 0.0
H931 H 0.34777 0.71676 1.01014 0.0
H932 H 0.41178 0.75865 1.07106 0.0
H933 H 0.43117 0.78281 1.01974 0.0
H934 H 0.37612 0.70742 1.09776 0.0
H935 H 0.38494 0.78726 1.06084 0.0
H936 H 0.37852 0.81148 1.0162 0.0
H937 H 0.30511 0.75699 1.00596 0.0
H938 H 0.31132 0.7323 1.05004 0.0
H939 H 0.40364 0.78073 0.23612 0.0
H940 H 0.39177 0.75087 0.19045 0.0
H941 H 0.32232 0.74496 0.18473 0.0
H942 H 0.33481 0.77613 0.22952 0.0
H943 H 0.33936 0.75661 0.126 0.0
H944 H 0.33154 0.69479 0.19438 0.0
H945 H 0.3371 0.67119 0.24074 0.0
H946 H 0.40344 0.68598 0.19429 0.0
H947 H 0.39872 0.71016 0.14813 0.0
C948 C 0.37778 0.74373 0.98172 0.0
C949 C 0.40069 0.76402 0.98446 0.0
C950 C 0.36645 0.73022 1.01175 0.0
C951 C 0.37821 0.73632 1.04452 0.0
C952 C 0.40242 0.75366 1.04591 0.0
C953 C 0.41353 0.7676 1.01623 0.0
C954 C 0.36449 0.73098 1.07764 0.0
C955 C 0.36772 0.71777 1.10438 0.0
C956 C 0.35228 0.74338 1.0853 0.0
C957 C 0.34863 0.75791 1.05835 0.0
C958 C 0.36751 0.78041 1.04879 0.0
C959 C 0.36391 0.79421 1.02363 0.0
C960 C 0.34142 0.78579 1.00828 0.0
C961 C 0.32254 0.76347 1.01781 0.0
C962 C 0.32609 0.74954 1.0428 0.0
C963 C 0.38566 0.77275 0.22562 0.0
C964 C 0.37046 0.7814 0.23535 0.0
C965 C 0.37866 0.75521 0.19983 0.0
C966 C 0.35618 0.74569 0.18348 0.0
C967 C 0.33987 0.75217 0.19655 0.0
C968 C 0.347 0.77 0.2222 0.0
C969 C 0.35265 0.73454 0.14794 0.0
C970 C 0.34631 0.74485 0.12022 0.0
C971 C 0.36145 0.71896 0.13966 0.0
C972 C 0.36474 0.70449 0.16758 0.0
C973 C 0.34746 0.69325 0.19412 0.0
C974 C 0.35046 0.67971 0.22042 0.0
C975 C 0.37061 0.67709 0.22047 0.0
C976 C 0.38779 0.68797 0.19417 0.0
C977 C 0.38493 0.70159 0.16784 0.0
H978 H 0.37291 0.66661 0.24087 0.0
H979 H 0.33862 0.79666 0.9892 0.0
H980 H 0.64424 0.42416 0.32377 0.0
H981 H 0.66139 0.41039 0.36961 0.0
H982 H 0.59081 0.35356 0.39568 0.0
H983 H 0.57409 0.36583 0.34829 0.0
H984 H 0.65574 0.41502 0.43214 0.0
H985 H 0.58535 0.31114 0.44392 0.0
H986 H 0.57107 0.27588 0.406 0.0
H987 H 0.63223 0.31328 0.33928 0.0
H988 H 0.64739 0.34867 0.37734 0.0
H989 H 0.55714 0.35059 0.54128 0.0
H990 H 0.58248 0.34684 0.4979 0.0
H991 H 0.64443 0.3904 0.56254 0.0
H992 H 0.61901 0.39548 0.60515 0.0
H993 H 0.61477 0.33444 0.48531 0.0
H994 H 0.68842 0.41895 0.51106 0.0
H995 H 0.70562 0.45727 0.54289 0.0
H996 H 0.64048 0.45868 0.52763 0.0
H997 H 0.62301 0.4204 0.49554 0.0
C998 C 0.63254 0.40809 0.33826 0.0
C999 C 0.6077 0.39649 0.33308 0.0
C1000 C 0.64238 0.40023 0.36454 0.0
C1001 C 0.62753 0.38083 0.38631 0.0
C1002 C 0.60294 0.36812 0.37893 0.0
C1003 C 0.59322 0.37563 0.35232 0.0
C1004 C 0.63602 0.37729 0.4213 0.0
C1005 C 0.64751 0.39727 0.44341 0.0
C1006 C 0.62665 0.35431 0.43643 0.0
C1007 C 0.61769 0.3327 0.41384 0.0
C1008 C 0.59609 0.31183 0.42162 0.0
C1009 C 0.58777 0.29177 0.39998 0.0
C1010 C 0.60075 0.29232 0.37029 0.0
C1011 C 0.62217 0.31289 0.36228 0.0
C1012 C 0.63065 0.33296 0.38391 0.0
C1013 C 0.57611 0.35907 0.54654 0.0
C1014 C 0.58614 0.37382 0.57608 0.0
C1015 C 0.59066 0.35666 0.52194 0.0
C1016 C 0.61558 0.36882 0.52641 0.0
C1017 C 0.62537 0.38129 0.55803 0.0
C1018 C 0.61077 0.38399 0.58255 0.0
C1019 C 0.63044 0.37196 0.49482 0.0
C1020 C 0.62411 0.35199 0.47341 0.0
C1021 C 0.64484 0.39487 0.48012 0.0
C1022 C 0.65445 0.41691 0.5012 0.0
C1023 C 0.67778 0.42742 0.51471 0.0
C1024 C 0.68758 0.44913 0.53265 0.0
C1025 C 0.67421 0.46047 0.537 0.0
C1026 C 0.65086 0.44993 0.52401 0.0
C1027 C 0.64099 0.42825 0.50597 0.0
H1028 H 0.68194 0.47742 0.55048 0.0
H1029 H 0.59418 0.27682 0.35346 0.0
H1030 H 0.18348 0.5617 0.94933 0.0
H1031 H 0.21424 0.5786 0.90455 0.0
H1032 H 0.17444 0.51612 0.83999 0.0
H1033 H 0.14448 0.49827 0.88587 0.0
H1034 H 0.19629 0.58843 0.85006 0.0
H1035 H 0.24355 0.55295 0.86137 0.0
H1036 H 0.2542 0.52186 0.87206 0.0
H1037 H 0.21401 0.48381 0.78035 0.0
H1038 H 0.20273 0.51439 0.76937 0.0
H1039 H 0.19657 0.62113 0.67588 0.0
H1040 H 0.22118 0.61979 0.72472 0.0
H1041 H 0.17823 0.54313 0.72684 0.0
H1042 H 0.15465 0.54442 0.67754 0.0
H1043 H 0.22156 0.55598 0.75171 0.0
H1044 H 0.15947 0.58113 0.77649 0.0
H1045 H 0.14563 0.61012 0.7677 0.0
H1046 H 0.21564 0.66746 0.79319 0.0
H1047 H 0.22984 0.63874 0.80182 0.0
C1048 C 0.18185 0.55086 0.92662 0.0
C1049 C 0.16093 0.52897 0.92055 0.0
C1050 C 0.19954 0.56069 0.90083 0.0
C1051 C 0.19638 0.54906 0.86834 0.0
C1052 C 0.1774 0.52562 0.86469 0.0
C1053 C 0.15993 0.51556 0.89077 0.0
C1054 C 0.20735 0.56321 0.83584 0.0
C1055 C 0.20323 0.5822 0.82921 0.0
C1056 C 0.21577 0.55478 0.80814 0.0
C1057 C 0.22232 0.5361 0.81452 0.0
C1058 C 0.23684 0.53789 0.84357 0.0
C1059 C 0.24301 0.52034 0.84968 0.0
C1060 C 0.23481 0.50089 0.82688 0.0
C1061 C 0.22041 0.49893 0.79793 0.0
C1062 C 0.21417 0.51642 0.79171 0.0
C1063 C 0.19293 0.60404 0.68628 0.0
C1064 C 0.1732 0.58292 0.67411 0.0
C1065 C 0.20695 0.60327 0.7141 0.0
C1066 C 0.20107 0.5814 0.73022 0.0
C1067 C 0.18305 0.56025 0.71518 0.0
C1068 C 0.16929 0.561 0.68737 0.0
C1069 C 0.20935 0.58013 0.76642 0.0
C1070 C 0.21673 0.56346 0.7736 0.0
C1071 C 0.2041 0.59072 0.79498 0.0
C1072 C 0.19568 0.60792 0.78963 0.0
C1073 C 0.17185 0.59994 0.78016 0.0
C1074 C 0.16397 0.6163 0.77516 0.0
C1075 C 0.17975 0.64062 0.77984 0.0
C1076 C 0.20346 0.64863 0.78947 0.0
C1077 C 0.21144 0.63235 0.79434 0.0
H1078 H 0.17361 0.65326 0.77604 0.0
H1079 H 0.23961 0.48732 0.83165 0.0
H1080 H 0.40664 0.89578 1.01054 0.0
H1081 H 0.41531 0.91959 1.06417 0.0
H1082 H 0.3877 0.96094 1.01464 0.0
H1083 H 0.37727 0.93569 0.96189 0.0
H1084 H 0.37971 0.96488 1.07542 0.0
H1085 H 0.44698 0.94111 0.13555 0.0
H1086 H 0.47722 0.93111 0.11661 0.0
H1087 H 0.48788 0.97069 1.02043 0.0
H1088 H 0.45702 0.98027 1.03845 0.0
H1089 H 0.40604 0.02072 0.24947 0.0
H1090 H 0.39371 -0.00568 0.19766 0.0
H1091 H 0.46716 0.02464 0.16726 0.0
H1092 H 0.47937 0.05048 0.21887 0.0
H1093 H 0.45207 0.98533 0.146 0.0
H1094 H 0.41553 0.03183 0.12202 0.0
H1095 H 0.3904 0.04996 0.13207 0.0
H1096 H 0.32866 0.98051 0.14197 0.0
H1097 H 0.3535 0.96198 0.13233 0.0
C1098 C 0.40219 0.90981 1.01081 0.0
C1099 C 0.39109 0.91326 0.98062 0.0
C1100 C 0.40769 0.92411 1.04199 0.0
C1101 C 0.40329 0.9435 1.04485 0.0
C1102 C 0.39178 0.94665 1.01476 0.0
C1103 C 0.38571 0.93192 0.98386 0.0
C1104 C 0.4102 0.95991 1.07861 0.0
C1105 C 0.39564 0.96915 1.09053 0.0
C1106 C 0.43128 0.96701 1.09944 0.0
C1107 C 0.44963 0.96123 1.08823 0.0
C1108 C 0.45577 0.94764 0.11035 0.0
C1109 C 0.47295 0.94196 1.09968 0.0
C1110 C 0.4845 0.95022 1.06727 0.0
C1111 C 0.47882 0.96416 1.04541 0.0
C1112 C 0.46137 0.9696 1.05574 0.0
C1113 C 0.41968 0.02209 0.23161 0.0
C1114 C 0.44396 0.03854 0.23932 0.0
C1115 C 0.41251 0.0068 0.20115 0.0
C1116 C 0.42912 0.00712 0.17621 0.0
C1117 C 0.45334 0.02342 0.18445 0.0
C1118 C 0.46048 0.03861 0.2147 0.0
C1119 C 0.42185 -0.00933 0.14251 0.0
C1120 C 0.43623 0.98122 0.1308 0.0
C1121 C 0.40138 0.98458 0.12075 0.0
C1122 C 0.38641 -0.00445 0.12696 0.0
C1123 C 0.39663 0.02044 0.12666 0.0
C1124 C 0.38243 0.03078 0.1322 0.0
C1125 C 0.35796 0.01639 0.13779 0.0
C1126 C 0.34762 -0.00837 0.13774 0.0
C1127 C 0.36175 0.98119 0.13222 0.0
H1128 H 0.34699 0.02443 0.14207 0.0
H1129 H 0.49787 0.94586 1.05915 0.0
H1130 H 0.49685 0.43271 0.33481 0.0
H1131 H 0.48148 0.44229 0.38767 0.0
H1132 H 0.40968 0.39649 0.35128 0.0
H1133 H 0.42509 0.38693 0.29833 0.0
H1134 H 0.40648 0.42976 0.38162 0.0
H1135 H 0.44113 0.38568 0.43247 0.0
H1136 H 0.47233 0.37533 0.44528 0.0
H1137 H 0.51803 0.44552 0.48619 0.0
H1138 H 0.48717 0.45634 0.47325 0.0
H1139 H 0.37353 0.42449 0.58199 0.0
H1140 H 0.38648 0.41259 0.52828 0.0
H1141 H 0.42432 0.48548 0.49398 0.0
H1142 H 0.41186 0.49749 0.54768 0.0
H1143 H 0.44133 0.43536 0.50013 0.0
H1144 H 0.41142 0.48242 0.42919 0.0
H1145 H 0.37962 0.49246 0.41977 0.0
H1146 H 0.32686 0.41817 0.42185 0.0
H1147 H 0.35845 0.40781 0.43143 0.0
C1148 C 0.47772 0.42435 0.33786 0.0
C1149 C 0.46262 0.40863 0.31107 0.0
C1150 C 0.46868 0.42976 0.36901 0.0
C1151 C 0.44385 0.42005 0.37556 0.0
C1152 C 0.4288 0.40461 0.34847 0.0
C1153 C 0.43783 0.39894 0.31756 0.0
C1154 C 0.43379 0.42622 0.4095 0.0
C1155 C 0.41449 0.43087 0.40733 0.0
C1156 C 0.44324 0.42811 0.44451 0.0
C1157 C 0.46196 0.42187 0.45162 0.0
C1158 C 0.45792 0.39896 0.44392 0.0
C1159 C 0.47552 0.393 0.45124 0.0
C1160 C 0.49719 0.4098 0.46639 0.0
C1161 C 0.50131 0.4326 0.47423 0.0
C1162 C 0.48377 0.43865 0.46692 0.0
C1163 C 0.38443 0.43815 0.56308 0.0
C1164 C 0.39129 0.46224 0.57057 0.0
C1165 C 0.39198 0.4312 0.53175 0.0
C1166 C 0.40655 0.44779 0.50545 0.0
C1167 C 0.41298 0.47176 0.51253 0.0
C1168 C 0.40567 0.47875 0.54396 0.0
C1169 C 0.41558 0.44036 0.47187 0.0
C1170 C 0.43405 0.43477 0.47431 0.0
C1171 C 0.40603 0.43838 0.43714 0.0
C1172 C 0.38715 0.44439 0.43111 0.0
C1173 C 0.39301 0.46828 0.42768 0.0
C1174 C 0.37506 0.47402 0.42232 0.0
C1175 C 0.35123 0.45596 0.42025 0.0
C1176 C 0.34532 0.43213 0.42348 0.0
C1177 C 0.36322 0.42632 0.42885 0.0
H1178 H 0.33734 0.46042 0.41612 0.0
H1179 H 0.51076 0.40514 0.47215 0.0
H1180 H 0.04761 0.43716 0.64764 0.0
H1181 H 0.02569 0.42296 0.70336 0.0
H1182 H 0.00943 0.47978 0.69981 0.0
H1183 H 0.03276 0.49476 0.64556 0.0
H1184 H 0.00952 0.4752 0.76175 0.0
H1185 H 0.96729 0.40874 0.68461 0.0
H1186 H 0.96112 0.37681 0.64324 0.0
H1187 H -0.01296 0.34696 0.72163 0.0
H1188 H -0.00641 0.37887 0.76335 0.0
H1189 H 0.91414 0.42373 0.88882 0.0
H1190 H 0.93699 0.43498 0.83392 0.0
H1191 H 0.96979 0.39392 0.86448 0.0
H1192 H 0.94646 0.38223 0.91974 0.0
H1193 H 0.96133 0.38941 0.79071 0.0
H1194 H 0.00498 0.46075 0.86561 0.0
H1195 H 0.00161 0.48813 0.90739 0.0
H1196 H 0.96309 0.50392 0.82889 0.0
H1197 H 0.9673 0.47773 0.78651 0.0
C1198 C 0.03942 0.44676 0.65852 0.0
C1199 C 0.04235 0.46739 0.64073 0.0
C1200 C 0.02625 0.43827 0.6909 0.0
C1201 C 0.01444 0.44938 0.70716 0.0
C1202 C 0.01769 0.47015 0.68933 0.0
C1203 C 0.03123 0.47887 0.65747 0.0
C1204 C -0.00064 0.44009 0.74226 0.0
C1205 C -0.00101 0.4563 0.76715 0.0
C1206 C -0.01505 0.41544 0.75189 0.0
C1207 C -0.0188 0.39634 0.72691 0.0
C1208 C 0.97182 0.39545 0.69292 0.0
C1209 C 0.96823 0.37735 0.66943 0.0
C1210 C 0.97376 0.35991 0.67976 0.0
C1211 C -0.01718 0.36051 0.71364 0.0
C1212 C -0.01353 0.37859 0.73723 0.0
C1213 C 0.92616 0.41694 0.88433 0.0
C1214 C 0.92799 0.4019 0.91014 0.0
C1215 C 0.93966 0.42368 0.85232 0.0
C1216 C 0.95612 0.41601 0.8438 0.0
C1217 C 0.95766 0.40055 0.8692 0.0
C1218 C 0.94413 0.39382 0.90144 0.0
C1219 C 0.97171 0.42452 0.80934 0.0
C1220 C 0.97214 0.40824 0.78488 0.0
C1221 C -0.01433 0.44897 0.79949 0.0
C1222 C -0.01353 0.4674 0.82302 0.0
C1223 C -0.00372 0.47055 0.85719 0.0
C1224 C -0.00578 0.48585 0.88098 0.0
C1225 C -0.01788 0.49779 0.87095 0.0
C1226 C 0.97267 0.49496 0.83676 0.0
C1227 C 0.97516 0.48014 0.81265 0.0
H1228 H 0.98022 0.50931 0.88966 0.0
H1229 H 0.97097 0.34591 0.66154 0.0
H1230 H 0.54301 0.94247 0.24196 0.0
H1231 H 0.5544 0.96621 0.18715 0.0
H1232 H 0.48471 0.95902 0.18102 0.0
H1233 H 0.47341 0.93551 0.23566 0.0
H1234 H 0.51282 0.00165 0.15874 0.0
H1235 H 0.5841 0.98278 1.10414 0.0
H1236 H 0.59601 0.95208 1.1059 0.0
H1237 H 0.52368 0.89839 0.12689 0.0
H1238 H 0.51135 0.92868 0.12496 0.0
H1239 H 0.52514 0.05275 0.98516 0.0
H1240 H 0.51445 0.02824 1.03856 0.0
H1241 H 0.57819 0.02347 1.02923 0.0
H1242 H 0.58768 0.04624 0.97375 0.0
H1243 H 0.55386 -0.01292 1.06018 0.0
H1244 H 0.48585 0.01253 0.11047 0.0
H1245 H 0.47988 0.04736 0.11102 0.0
H1246 H 0.55546 0.09423 1.10409 0.0
H1247 H 0.5618 0.05968 1.10355 0.0
C1248 C 0.5299 0.94571 0.22908 0.0
C1249 C 0.50697 0.93634 0.24452 0.0
C1250 C 0.53648 0.95946 0.19689 0.0
C1251 C 0.52058 0.96477 0.17784 0.0
C1252 C 0.49782 0.95568 0.19368 0.0
C1253 C 0.49121 0.94186 0.22563 0.0
C1254 C 0.52734 0.97971 0.14241 0.0
C1255 C 0.52155 -0.002 0.13728 0.0
C1256 C 0.53972 0.9766 0.1134 0.0
C1257 C 0.54681 0.95809 0.11465 0.0
C1258 C 0.57071 0.96441 0.10903 0.0
C1259 C 0.57756 0.94707 0.11008 0.0
C1260 C 0.56062 0.9233 0.11658 0.0
C1261 C 0.5368 0.91682 0.12194 0.0
C1262 C 0.52987 0.93409 0.12087 0.0
C1263 C 0.53715 0.04673 0.99436 0.0
C1264 C 0.55769 0.05232 0.97411 0.0
C1265 C 0.53109 0.03265 1.02604 0.0
C1266 C 0.54564 0.02396 1.04081 0.0
C1267 C 0.56612 0.02943 1.02021 0.0
C1268 C 0.5718 0.04289 0.98785 0.0
C1269 C 0.53949 0.00918 1.07651 0.0
C1270 C 0.54525 -0.00914 1.08166 0.0
C1271 C 0.52796 0.01283 0.10616 0.0
C1272 C 0.52423 0.03355 0.10703 0.0
C1273 C 0.50114 0.03027 0.10946 0.0
C1274 C 0.49771 0.04994 0.10958 0.0
C1275 C 0.51727 0.07296 0.10766 0.0
C1276 C 0.54032 0.07638 1.10556 0.0
C1277 C 0.54383 0.05677 1.10526 0.0
H1278 H 0.51456 0.08815 0.10778 0.0
H1279 H 0.56596 0.90991 0.11742 0.0
H1280 H 0.57505 0.54608 0.5873 0.0
H1281 H 0.56106 0.55719 0.53452 0.0
H1282 H 0.54136 0.48945 0.48752 0.0
H1283 H 0.55317 0.47741 0.54239 0.0
H1284 H 0.51498 0.49742 0.45434 0.0
H1285 H 0.56211 0.59927 0.48242 0.0
H1286 H 0.59937 0.63085 0.50918 0.0
H1287 H 0.63302 0.58899 0.4919 0.0
H1288 H 0.59604 0.55729 0.46473 0.0
H1289 H 0.4652 0.54774 0.33076 0.0
H1290 H 0.47942 0.53757 0.38474 0.0
H1291 H 0.55126 0.57541 0.34597 0.0
H1292 H 0.53719 0.58674 0.2926 0.0
H1293 H 0.55428 0.58176 0.41635 0.0
H1294 H 0.52183 0.50517 0.35421 0.0
H1295 H 0.49058 0.47963 0.31135 0.0
H1296 H 0.43686 0.47581 0.38136 0.0
H1297 H 0.4675 0.4992 0.42594 0.0
C1298 C 0.56808 0.53345 0.56572 0.0
C1299 C 0.56609 0.51076 0.57025 0.0
C1300 C 0.56011 0.54008 0.53439 0.0
C1301 C 0.55063 0.52503 0.50418 0.0
C1302 C 0.54852 0.50219 0.50888 0.0
C1303 C 0.55573 0.49522 0.54085 0.0
C1304 C 0.54279 0.5328 0.46888 0.0
C1305 C 0.52378 0.51602 0.44701 0.0
C1306 C 0.55398 0.55687 0.45575 0.0
C1307 C 0.57624 0.57583 0.47193 0.0
C1308 C 0.57749 0.59686 0.48425 0.0
C1309 C 0.59854 0.61476 0.49951 0.0
C1310 C 0.61852 0.61189 0.50235 0.0
C1311 C 0.61751 0.59115 0.4898 0.0
C1312 C 0.59651 0.57321 0.4745 0.0
C1313 C 0.48408 0.55397 0.33328 0.0
C1314 C 0.49966 0.5682 0.30588 0.0
C1315 C 0.49237 0.54768 0.36462 0.0
C1316 C 0.51674 0.55461 0.37049 0.0
C1317 C 0.53239 0.56922 0.34339 0.0
C1318 C 0.52414 0.57578 0.3122 0.0
C1319 C 0.52569 0.54673 0.40416 0.0
C1320 C 0.54525 0.56332 0.42482 0.0
C1321 C 0.51554 0.52257 0.41563 0.0
C1322 C 0.49693 0.50377 0.39342 0.0
C1323 C 0.50325 0.49802 0.36098 0.0
C1324 C 0.48563 0.48388 0.33643 0.0
C1325 C 0.46167 0.47581 0.34384 0.0
C1326 C 0.4553 0.48134 0.37618 0.0
C1327 C 0.47276 0.49462 0.40142 0.0
H1328 H 0.44806 0.46532 0.3245 0.0
H1329 H 0.63479 0.62576 0.51419 0.0
H1330 H 0.02177 0.59766 0.91093 0.0
H1331 H -0.002 0.58685 0.85605 0.0
H1332 H 0.0225 0.53801 0.83017 0.0
H1333 H 0.04647 0.54918 0.88403 0.0
H1334 H 0.01822 0.551 0.77199 0.0
H1335 H 0.95967 0.52898 0.8681 0.0
H1336 H 0.94 0.53677 0.91742 0.0
H1337 H 0.92795 0.58399 0.85166 0.0
H1338 H 0.94775 0.57654 0.80184 0.0
H1339 H 0.89372 0.47932 0.671 0.0
H1340 H 0.91735 0.49431 0.72589 0.0
H1341 H 0.97169 0.55404 0.66868 0.0
H1342 H 0.94805 0.53934 0.61407 0.0
H1343 H 0.93519 0.53547 0.76817 0.0
H1344 H 0.02787 0.57239 0.70866 0.0
H1345 H 0.04641 0.56754 0.65489 0.0
H1346 H -0.0098 0.49492 0.64585 0.0
H1347 H 0.97178 0.49907 0.70025 0.0
C1348 C 0.02219 0.58459 0.89367 0.0
C1349 C 0.03651 0.57448 0.90322 0.0
C1350 C 0.00806 0.578 0.86183 0.0
C1351 C 0.00706 0.5606 0.83781 0.0
C1352 C 0.02201 0.55118 0.84709 0.0
C1353 C 0.03602 0.5577 0.8787 0.0
C1354 C -0.00885 0.55218 0.8034 0.0
C1355 C 0.0001 0.54775 0.77181 0.0
C1356 C 0.9671 0.54777 0.80087 0.0
C1357 C 0.95535 0.55222 0.83113 0.0
C1358 C 0.95287 0.54098 0.864 0.0
C1359 C 0.9417 0.54538 0.89215 0.0
C1360 C 0.93274 0.56088 0.88771 0.0
C1361 C 0.93492 0.57199 0.85509 0.0
C1362 C 0.94611 0.56767 0.82689 0.0
C1363 C 0.91066 0.49572 0.66981 0.0
C1364 C 0.91848 0.50779 0.6369 0.0
C1365 C 0.92436 0.50448 0.70179 0.0
C1366 C 0.94697 0.52559 0.70277 0.0
C1367 C 0.95471 0.53769 0.6699 0.0
C1368 C 0.94089 0.52914 0.6381 0.0
C1369 C 0.96246 0.53454 0.73732 0.0
C1370 C 0.95337 0.53884 0.76874 0.0
C1371 C -0.01345 0.53947 0.73956 0.0
C1372 C -0.00173 0.53616 0.70827 0.0
C1373 C 0.0196 0.55531 0.69542 0.0
C1374 C 0.03009 0.55268 0.66483 0.0
C1375 C 0.01939 0.531 0.64682 0.0
C1376 C -0.00162 0.51176 0.65969 0.0
C1377 C -0.01203 0.5142 0.69051 0.0
H1378 H 0.02743 0.52908 0.62296 0.0
H1379 H 0.9241 0.56427 0.90952 0.0
H1380 H 0.40564 0.01507 0.40028 0.0
H1381 H 0.38774 0.97891 0.43458 0.0
H1382 H 0.43576 0.95887 0.38801 0.0
H1383 H 0.4555 -0.00353 0.35517 0.0
H1384 H 0.41978 0.98485 0.48162 0.0
H1385 H 0.36556 0.92195 0.42947 0.0
H1386 H 0.33673 0.88904 0.39236 0.0
H1387 H 0.38706 0.86524 0.37729 0.0
H1388 H 0.41709 0.89897 0.41177 0.0
H1389 H 0.5005 0.9304 0.45282 0.0
H1390 H 0.4781 0.93572 0.49989 0.0
H1391 H 0.4667 0.98286 0.43248 0.0
H1392 H 0.48237 0.97136 0.38218 0.0
H1393 H 0.42984 0.91506 0.46547 0.0
H1394 H 0.45367 0.01612 0.50073 0.0
H1395 H 0.47062 0.04178 0.55251 0.0
H1396 H 0.47766 -0.01289 0.60626 0.0
H1397 H 0.4589 0.96019 0.55578 0.0
C1398 C 0.41247 0.00299 0.39673 0.0
C1399 C 0.43328 0.00951 0.37679 0.0
C1400 C 0.40155 0.98185 0.41585 0.0
C1401 C 0.41118 0.96679 0.4154 0.0
C1402 C 0.42869 0.97084 0.38996 0.0
C1403 C 0.44028 -0.00749 0.37153 0.0
C1404 C 0.41115 0.95463 0.44865 0.0
C1405 C 0.42251 0.96989 0.47739 0.0
C1406 C 0.41075 0.9327 0.44768 0.0
C1407 C 0.39372 0.91315 0.42401 0.0
C1408 C 0.37084 0.91007 0.41774 0.0
C1409 C 0.35426 0.89127 0.39687 0.0
C1410 C 0.36015 0.87515 0.38228 0.0
C1411 C 0.38271 0.87796 0.38824 0.0
C1412 C 0.39957 0.89699 0.40851 0.0
C1413 C 0.49294 0.94173 0.448 0.0
C1414 C 0.49104 0.94864 0.41333 0.0
C1415 C 0.48101 0.94557 0.47557 0.0
C1416 C 0.46951 0.95868 0.46931 0.0
C1417 C 0.47411 0.97139 0.4372 0.0
C1418 C 0.48321 0.96501 0.40842 0.0
C1419 C 0.44594 0.95076 0.48544 0.0
C1420 C 0.42771 0.93048 0.46844 0.0
C1421 C 0.44063 0.96843 0.49588 0.0
C1422 C 0.45451 0.98577 0.52427 0.0
C1423 C 0.4585 0.00925 0.52355 0.0
C1424 C 0.46842 0.0241 0.55283 0.0
C1425 C 0.47511 0.01605 0.5827 0.0
C1426 C 0.47236 -0.00672 0.58312 0.0
C1427 C 0.462 0.97816 0.55417 0.0
H1428 H 0.48224 0.0274 0.60559 0.0
H1429 H 0.34721 0.86043 0.36645 0.0
H1430 H 0.38102 0.4238 0.66832 0.0
H1431 H 0.39426 0.40794 0.62092 0.0
H1432 H 0.46702 0.46014 0.64515 0.0
H1433 H 0.45373 0.47805 0.68893 0.0
H1434 H 0.43472 0.46719 0.58609 0.0
H1435 H 0.44974 0.40385 0.63885 0.0
H1436 H 0.43613 0.36171 0.65169 0.0
H1437 H 0.41539 0.34377 0.54302 0.0
H1438 H 0.42852 0.38584 0.52965 0.0
H1439 H 0.53331 0.52093 0.63014 0.0
H1440 H 0.5116 0.50781 0.57457 0.0
H1441 H 0.49196 0.43512 0.60186 0.0
H1442 H 0.51127 0.44804 0.65686 0.0
H1443 H 0.47666 0.42681 0.54269 0.0
H1444 H 0.47944 0.48916 0.49036 0.0
H1445 H 0.49023 0.52968 0.46976 0.0
H1446 H 0.47582 0.54674 0.57261 0.0
H1447 H 0.46505 0.50676 0.59396 0.0
C1448 C 0.39996 0.43123 0.66461 0.0
C1449 C 0.41641 0.45289 0.68084 0.0
C1450 C 0.40745 0.42182 0.63771 0.0
C1451 C 0.4315 0.43338 0.62869 0.0
C1452 C 0.44828 0.45107 0.65149 0.0
C1453 C 0.44074 0.46157 0.67647 0.0
C1454 C 0.43813 0.43596 0.59114 0.0
C1455 C 0.44372 0.45807 0.5765 0.0
C1456 C 0.44768 0.42302 0.57488 0.0
C1457 C 0.4395 0.39786 0.58345 0.0
C1458 C 0.4418 0.39088 0.61784 0.0
C1459 C 0.43433 0.36702 0.62517 0.0
C1460 C 0.42473 0.35004 0.59826 0.0
C1461 C 0.4227 0.35691 0.56389 0.0
C1462 C 0.43014 0.38075 0.55643 0.0
C1463 C 0.52327 0.50204 0.62454 0.0
C1464 C 0.52376 0.48552 0.64824 0.0
C1465 C 0.51097 0.49444 0.59232 0.0
C1466 C 0.49848 0.47008 0.58324 0.0
C1467 C 0.50026 0.454 0.6069 0.0
C1468 C 0.51141 0.46139 0.63939 0.0
C1469 C 0.47951 0.46068 0.55473 0.0
C1470 C 0.46721 0.43561 0.55198 0.0
C1471 C 0.46418 0.47039 0.55585 0.0
C1472 C 0.47148 0.49486 0.54366 0.0
C1473 C 0.4789 0.50167 0.50865 0.0
C1474 C 0.48491 0.52449 0.49683 0.0
C1475 C 0.48386 0.54071 0.51985 0.0
C1476 C 0.47663 0.53416 0.55475 0.0
C1477 C 0.47038 0.51136 0.56665 0.0
H1478 H 0.48859 0.55835 0.51057 0.0
H1479 H 0.41899 0.33158 0.60398 0.0
H1480 H 0.9248 0.41322 0.1129 0.0
H1481 H 0.9286 0.44431 0.15308 0.0
H1482 H 0.97386 0.49728 1.07768 0.0
H1483 H 0.96387 0.46622 1.03338 0.0
H1484 H 0.90736 0.46892 0.10696 0.0
H1485 H 0.95934 0.48394 0.19447 0.0
H1486 H -0.00712 0.48995 0.23212 0.0
H1487 H 0.03847 0.55604 0.17933 0.0
H1488 H 0.00614 0.54945 0.13917 0.0
H1489 H -0.01213 0.52101 1.0121 0.0
H1490 H 0.94872 0.50633 1.03885 0.0
H1491 H 0.97155 0.57578 1.08264 0.0
H1492 H 0.00976 0.59084 1.05444 0.0
H1493 H 0.97198 0.5499 0.13383 0.0
H1494 H 0.88806 0.46653 1.0581 0.0
H1495 H 0.8547 0.46345 1.02325 0.0
H1496 H 0.87899 0.53742 1.03966 0.0
H1497 H 0.91177 0.54102 1.07694 0.0
C1498 C 0.93542 0.43159 1.10478 0.0
C1499 C 0.94221 0.43745 1.0692 0.0
C1500 C 0.9382 0.44932 0.12835 0.0
C1501 C 0.95036 0.47308 0.11745 0.0
C1502 C 0.96303 0.4789 1.08545 0.0
C1503 C 0.95768 0.46122 1.06029 0.0
C1504 C 0.94238 0.48961 0.12935 0.0
C1505 C 0.9218 0.48677 0.1119 0.0
C1506 C 0.95943 0.51251 0.14114 0.0
C1507 C 0.97984 0.51624 0.16393 0.0
C1508 C 0.9766 0.49956 0.19038 0.0
C1509 C -0.00439 0.50302 0.21209 0.0
C1510 C 0.01792 0.52337 0.20809 0.0
C1511 C 0.02131 0.54016 0.18221 0.0
C1512 C 0.00259 0.53648 0.1598 0.0
C1513 C -0.01574 0.5333 1.02644 0.0
C1514 C 0.00252 0.55651 1.03344 0.0
C1515 C 0.96168 0.52507 1.04136 0.0
C1516 C 0.95771 0.53963 1.06492 0.0
C1517 C 0.97433 0.56396 1.06568 0.0
C1518 C -0.00341 0.5723 1.05028 0.0
C1519 C 0.94372 0.52847 1.09749 0.0
C1520 C 0.95818 0.532 0.1273 0.0
C1521 C 0.92247 0.50642 1.09459 0.0
C1522 C 0.90274 0.50405 1.07104 0.0
C1523 C 0.88637 0.48221 1.05514 0.0
C1524 C 0.86745 0.48036 1.03464 0.0
C1525 C 0.86484 0.50021 1.02893 0.0
C1526 C 0.88106 0.52202 1.04399 0.0
C1527 C 0.89979 0.52395 1.06501 0.0
H1528 H 0.85021 0.49868 1.01291 0.0
H1529 H 0.03265 0.5262 0.22489 0.0
H1530 H 0.03743 0.50504 0.44891 0.0
H1531 H 0.01986 0.48578 0.39361 0.0
H1532 H -0.00803 0.41688 0.44455 0.0
H1533 H 0.00871 0.43651 0.49983 0.0
H1534 H 0.96626 0.4003 0.39709 0.0
H1535 H 0.00043 0.49859 0.33609 0.0
H1536 H 0.02721 0.51806 0.28634 0.0
H1537 H 0.03134 0.45506 0.26666 0.0
H1538 H 0.0044 0.43492 0.31653 0.0
H1539 H 0.93675 0.45261 0.51354 0.0
H1540 H 0.94924 0.43564 0.46697 0.0
H1541 H 0.93323 0.47442 0.38835 0.0
H1542 H 0.92297 0.49321 0.43541 0.0
H1543 H 0.96486 0.47258 0.36044 0.0
H1544 H 0.90035 0.40689 0.39034 0.0
H1545 H 0.86487 0.3752 0.42024 0.0
H1546 H 0.90922 0.35558 0.4798 0.0
H1547 H 0.94492 0.38748 0.45097 0.0
C1548 C 0.02711 0.48578 0.44835 0.0
C1549 C 0.02413 0.47241 0.47908 0.0
C1550 C 0.01723 0.47447 0.41618 0.0
C1551 C 0.00349 0.44932 0.4138 0.0
C1552 C 0.00169 0.43613 0.4446 0.0
C1553 C 0.01122 0.44747 0.47675 0.0
C1554 C -0.01263 0.43729 0.3823 0.0
C1555 C 0.96603 0.41652 0.39087 0.0
C1556 C -0.01642 0.45254 0.35987 0.0
C1557 C 0.00014 0.46509 0.33025 0.0
C1558 C 0.00671 0.48863 0.32112 0.0
C1559 C 0.02215 0.4999 0.29292 0.0
C1560 C 0.0309 0.48778 0.27318 0.0
C1561 C 0.02457 0.46445 0.282 0.0
C1562 C 0.00934 0.45315 0.31045 0.0
C1563 C 0.93639 0.45787 0.4864 0.0
C1564 C 0.92891 0.47422 0.47825 0.0
C1565 C 0.94279 0.44758 0.45948 0.0
C1566 C 0.94095 0.45263 0.42361 0.0
C1567 C 0.93442 0.46977 0.41554 0.0
C1568 C 0.92883 0.48073 0.44264 0.0
C1569 C 0.94887 0.44206 0.39569 0.0
C1570 C 0.96531 0.45708 0.37008 0.0
C1571 C 0.9466 0.41927 0.40076 0.0
C1572 C 0.92533 0.3996 0.4182 0.0
C1573 C 0.90251 0.3959 0.40995 0.0
C1574 C 0.88236 0.37788 0.42674 0.0
C1575 C 0.88478 0.36334 0.45185 0.0
C1576 C 0.90736 0.36679 0.46021 0.0
C1577 C 0.92758 0.38482 0.44351 0.0
H1578 H 0.86917 0.3494 0.46487 0.0
H1579 H 0.04247 0.4964 0.25093 0.0
H1580 H 0.43539 0.94682 0.93348 0.0
H1581 H 0.43109 0.97975 0.95453 0.0
H1582 H 0.39326 0.97672 0.85754 0.0
H1583 H 0.39929 0.94571 0.83647 0.0
H1584 H 0.3893 0.00804 0.88029 0.0
H1585 H 0.4006 0.01122 0.98362 0.0
H1586 H 0.40452 0.01116 1.04828 0.0
H1587 H 0.47796 0.03035 1.03844 0.0
H1588 H 0.47469 0.03042 0.97381 0.0
H1589 H 0.51323 0.06869 0.80023 0.0
H1590 H 0.47714 0.06717 0.82049 0.0
H1591 H 0.45962 0.0031 0.8788 0.0
H1592 H 0.49748 0.00688 0.86227 0.0
H1593 H 0.472 0.04786 0.92318 0.0
H1594 H 0.39073 0.00616 0.81669 0.0
H1595 H 0.38044 0.02231 0.76469 0.0
H1596 H 0.43881 0.09203 0.78705 0.0
H1597 H 0.44835 0.07687 0.84084 0.0
C1598 C 0.42677 0.9538 0.91648 0.0
C1599 C 0.41804 0.94381 0.88306 0.0
C1600 C 0.42383 0.97257 0.92879 0.0
C1601 C 0.41217 0.98198 0.90792 0.0
C1602 C 0.40275 0.97097 0.87494 0.0
C1603 C 0.40641 0.95299 0.86235 0.0
C1604 C 0.41397 0.00561 0.91652 0.0
C1605 C 0.40777 0.01593 0.88849 0.0
C1606 C 0.43502 0.02209 0.93436 0.0
C1607 C 0.43741 0.02119 0.97342 0.0
C1608 C 0.41762 0.01534 0.9951 0.0
C1609 C 0.41975 0.01533 1.03189 0.0
C1610 C 0.44151 0.02081 1.04751 0.0
C1611 C 0.46118 0.02629 1.02633 0.0
C1612 C 0.45922 0.02649 0.9895 0.0
C1613 C 0.50107 0.05356 0.8159 0.0
C1614 C 0.50895 0.03912 0.83224 0.0
C1615 C 0.48034 0.05288 0.82785 0.0
C1616 C 0.46617 0.03579 0.8529 0.0
C1617 C 0.47082 0.01715 0.86064 0.0
C1618 C 0.49224 0.01882 0.85029 0.0
C1619 C 0.44983 0.03903 0.87649 0.0
C1620 C 0.45395 0.03827 0.91299 0.0
C1621 C 0.42618 0.03146 0.86564 0.0
C1622 C 0.42079 0.04018 0.83243 0.0
C1623 C 0.40146 0.02494 0.81063 0.0
C1624 C 0.39567 0.03394 0.78081 0.0
C1625 C 0.40932 0.05802 0.77206 0.0
C1626 C 0.42847 0.0733 0.79355 0.0
C1627 C 0.434 0.06452 0.8238 0.0
H1628 H 0.40496 0.06495 0.74886 0.0
H1629 H 0.44311 0.02077 1.07599 0.0
H1630 H 0.43808 0.51219 0.13375 0.0
H1631 H 0.43993 0.50171 1.073 0.0
H1632 H 0.51592 0.55204 1.07283 0.0
H1633 H 0.51389 0.56137 0.13305 0.0
H1634 H 0.44472 0.48998 1.01662 0.0
H1635 H 0.49908 0.54548 0.97459 0.0
H1636 H 0.53064 0.58196 0.94708 0.0
H1637 H 0.58321 0.57831 1.01247 0.0
H1638 H 0.55209 0.54207 1.0409 0.0
H1639 H 0.45537 0.44201 0.15618 0.0
H1640 H 0.45408 0.46063 1.10112 0.0
H1641 H 0.52337 0.47096 1.07303 0.0
H1642 H 0.52558 0.45463 0.1302 0.0
H1643 H 0.52505 0.50296 1.04299 0.0
H1644 H 0.41715 0.45573 1.04781 0.0
H1645 H 0.38477 0.41408 1.04435 0.0
H1646 H 0.43453 0.39236 1.01197 0.0
H1647 H 0.46716 0.434 1.01441 0.0
C1648 C 0.45528 0.52037 0.12088 0.0
C1649 C 0.47595 0.53693 0.13899 0.0
C1650 C 0.45637 0.51477 1.08545 0.0
C1651 C 0.47828 0.52536 1.06698 0.0
C1652 C 0.49868 0.54268 1.08521 0.0
C1653 C 0.49762 0.5479 0.12059 0.0
C1654 C 0.48078 0.51547 1.03205 0.0
C1655 C 0.46207 0.49254 1.02378 0.0
C1656 C 0.50357 0.5183 1.0257 0.0
C1657 C 0.52295 0.54061 1.00977 0.0
C1658 C 0.5173 0.55245 0.98341 0.0
C1659 C 0.53519 0.57314 0.96755 0.0
C1660 C 0.55892 0.58237 0.97789 0.0
C1661 C 0.56481 0.571 1.00427 0.0
C1662 C 0.54699 0.55022 1.02015 0.0
C1663 C 0.47053 0.44885 0.13858 0.0
C1664 C 0.49063 0.44719 0.14763 0.0
C1665 C 0.46953 0.45875 0.10632 0.0
C1666 C 0.48814 0.46625 1.08151 0.0
C1667 C 0.50858 0.46515 1.09111 0.0
C1668 C 0.50998 0.45611 0.12412 0.0
C1669 C 0.48718 0.47823 1.04834 0.0
C1670 C 0.50725 0.49996 1.03856 0.0
C1671 C 0.46484 0.47307 1.03371 0.0
C1672 C 0.44475 0.44813 1.03126 0.0
C1673 C 0.42123 0.44221 1.03942 0.0
C1674 C 0.40278 0.41853 1.03779 0.0
C1675 C 0.40757 0.40057 1.02798 0.0
C1676 C 0.43081 0.40625 1.01966 0.0
C1677 C 0.4493 0.42988 1.02125 0.0
H1678 H 0.39328 0.38225 1.02684 0.0
H1679 H 0.57273 0.59831 0.9654 0.0
H1680 H 0.38805 0.98486 0.72994 0.0
H1681 H 0.39229 0.01326 0.68383 0.0
H1682 H 0.31634 -0.01382 0.68562 0.0
H1683 H 0.31206 0.95805 0.73198 0.0
H1684 H 0.37603 0.00532 0.6204 0.0
H1685 H 0.30279 0.02838 0.66179 0.0
H1686 H 0.28606 0.03428 0.71675 0.0
H1687 H 0.35066 0.05134 0.77259 0.0
H1688 H 0.36785 0.04591 0.7178 0.0
H1689 H 0.3297 0.03109 0.4771 0.0
H1690 H 0.32486 0.01923 0.53924 0.0
H1691 H 0.38327 0.08821 0.56768 0.0
H1692 H 0.38871 0.10003 0.50543 0.0
H1693 H 0.33828 0.05589 0.62185 0.0
H1694 H 0.40762 0.06419 0.5576 0.0
H1695 H 0.42712 0.06062 0.504 0.0
H1696 H 0.37674 0.98579 0.49913 0.0
H1697 H 0.35658 -0.01096 0.55233 0.0
C1698 C 0.37226 0.98496 0.72042 0.0
C1699 C 0.34972 0.9693 0.73459 0.0
C1700 C 0.37473 0.00128 0.69428 0.0
C1701 C 0.35469 0.00209 0.6817 0.0
C1702 C 0.33215 -0.01364 0.69567 0.0
C1703 C 0.32971 0.97023 0.72205 0.0
C1704 C 0.35699 0.01801 0.652 0.0
C1705 C 0.36808 0.01663 0.62109 0.0
C1706 C 0.34678 0.03295 0.65287 0.0
C1707 C 0.33657 0.03657 0.68575 0.0
C1708 C 0.31348 0.03353 0.68574 0.0
C1709 C 0.30389 0.03677 0.71687 0.0
C1710 C 0.31726 0.04313 0.74817 0.0
C1711 C 0.34028 0.04635 0.74838 0.0
C1712 C 0.34994 0.04317 0.71731 0.0
C1713 C 0.34085 0.04407 0.49677 0.0
C1714 C 0.35994 0.06622 0.48651 0.0
C1715 C 0.33798 0.03733 0.53219 0.0
C1716 C 0.35398 0.05279 0.55761 0.0
C1717 C 0.37078 0.07615 0.54821 0.0
C1718 C 0.37381 0.08286 0.51264 0.0
C1719 C 0.35686 0.04263 0.59079 0.0
C1720 C 0.3466 0.04492 0.6219 0.0
C1721 C 0.3684 0.029 0.59061 0.0
C1722 C 0.38041 0.02693 0.55861 0.0
C1723 C 0.40052 0.04703 0.54483 0.0
C1724 C 0.41173 0.04507 0.51458 0.0
C1725 C 0.40314 0.02302 0.49808 0.0
C1726 C 0.38332 0.00288 0.51185 0.0
C1727 C 0.37199 0.00478 0.54204 0.0
H1728 H 0.41189 0.02155 0.47471 0.0
H1729 H 0.30979 0.04559 0.77224 0.0
H1730 H 0.33929 0.31682 1.06048 0.0
H1731 H 0.32282 0.30723 1.00063 0.0
H1732 H 0.38732 0.31025 0.96395 0.0
H1733 H 0.40413 0.32055 1.02373 0.0
H1734 H 0.37817 0.33778 0.92628 0.0
H1735 H 0.33262 0.25742 0.96123 0.0
H1736 H 0.30651 0.22326 0.99904 0.0
H1737 H 0.25018 0.23957 0.98666 0.0
H1738 H 0.27605 0.27407 0.94922 0.0
H1739 H 0.3325 0.33479 0.75942 0.0
H1740 H 0.33995 0.313 0.80611 0.0
H1741 H 0.29319 0.32303 0.87581 0.0
H1742 H 0.28567 0.34481 0.82922 0.0
H1743 H 0.29543 0.2799 0.88913 0.0
H1744 H 0.34614 0.36602 0.87104 0.0
H1745 H 0.37224 0.40114 0.8348 0.0
H1746 H 0.41945 0.37349 0.81773 0.0
H1747 H 0.39328 0.33791 0.8533 0.0
C1748 C 0.34971 0.31494 1.03975 0.0
C1749 C 0.373 0.31963 1.04645 0.0
C1750 C 0.34024 0.30925 1.00564 0.0
C1751 C 0.35376 0.30775 0.97788 0.0
C1752 C 0.37661 0.31129 0.98501 0.0
C1753 C 0.38621 0.31729 1.01901 0.0
C1754 C 0.34549 0.3062 0.94093 0.0
C1755 C 0.36035 0.32458 0.91782 0.0
C1756 C 0.32211 0.28924 0.93004 0.0
C1757 C 0.30635 0.26843 0.95246 0.0
C1758 C 0.31472 0.25383 0.96674 0.0
C1759 C 0.29994 0.23438 0.98809 0.0
C1760 C 0.27671 0.22926 0.99526 0.0
C1761 C 0.26818 0.24355 0.98105 0.0
C1762 C 0.28288 0.26304 0.95969 0.0
C1763 C 0.32301 0.33143 0.78418 0.0
C1764 C 0.30886 0.34178 0.79114 0.0
C1765 C 0.32725 0.31896 0.81075 0.0
C1766 C 0.31734 0.31674 0.84438 0.0
C1767 C 0.30095 0.32457 0.84994 0.0
C1768 C 0.29686 0.33719 0.82351 0.0
C1769 C 0.32796 0.31168 0.87542 0.0
C1770 C 0.31355 0.29233 0.89734 0.0
C1771 C 0.35179 0.32772 0.88545 0.0
C1772 C 0.36756 0.34914 0.86425 0.0
C1773 C 0.36195 0.36731 0.85922 0.0
C1774 C 0.37676 0.38731 0.83886 0.0
C1775 C 0.39744 0.3895 0.82384 0.0
C1776 C 0.40337 0.37172 0.82925 0.0
C1777 C 0.38854 0.35162 0.84945 0.0
H1778 H 0.40891 0.40502 0.80812 0.0
H1779 H 0.2653 0.21419 1.01181 0.0
H1780 H -0.01763 0.32415 0.12467 0.0
H1781 H 0.00837 0.32732 0.17422 0.0
H1782 H 0.95793 0.32821 0.24738 0.0
H1783 H 0.9318 0.32482 0.19812 0.0
H1784 H 0.00221 0.36618 0.25531 0.0
H1785 H 0.96593 0.28123 0.24436 0.0
H1786 H 0.95375 0.2435 0.21322 0.0
H1787 H 0.027 0.26609 0.19105 0.0
H1788 H 0.03961 0.30413 0.22165 0.0
H1789 H 0.0376 0.34132 0.42016 0.0
H1790 H 0.02124 0.32287 0.36346 0.0
H1791 H 0.0798 0.38152 0.31004 0.0
H1792 H 0.09719 0.39973 0.36699 0.0
H1793 H 0.03407 0.31328 0.28993 0.0
H1794 H 0.05063 0.407 0.27004 0.0
H1795 H 0.05941 0.44292 0.30423 0.0
H1796 H 0.01978 0.39921 0.39215 0.0
H1797 H 0.01063 0.36309 0.35836 0.0
C1798 C 0.97656 0.3244 0.15139 0.0
C1799 C 0.95519 0.32448 0.15759 0.0
C1800 C -0.00856 0.32625 0.1796 0.0
C1801 C -0.01494 0.32809 0.21433 0.0
C1802 C 0.96319 0.32696 0.22067 0.0
C1803 C 0.94835 0.32511 0.19256 0.0
C1804 C 0.00206 0.33353 0.24383 0.0
C1805 C 0.00923 0.35463 0.26266 0.0
C1806 C 0.01124 0.31848 0.25335 0.0
C1807 C 0.00369 0.29564 0.23494 0.0
C1808 C 0.97943 0.27825 0.23255 0.0
C1809 C 0.97245 0.25679 0.21506 0.0
C1810 C -0.01041 0.25243 0.20007 0.0
C1811 C 0.01375 0.26951 0.20262 0.0
C1812 C 0.02082 0.29101 0.22006 0.0
C1813 C 0.04792 0.34969 0.39667 0.0
C1814 C 0.06829 0.3725 0.39806 0.0
C1815 C 0.03845 0.33903 0.36413 0.0
C1816 C 0.04906 0.35117 0.33279 0.0
C1817 C 0.07131 0.37205 0.33413 0.0
C1818 C 0.08104 0.38254 0.3667 0.0
C1819 C 0.03407 0.34584 0.30095 0.0
C1820 C 0.02731 0.32492 0.28188 0.0
C1821 C 0.02484 0.36081 0.29136 0.0
C1822 C 0.03027 0.38242 0.31187 0.0
C1823 C 0.04384 0.4051 0.29668 0.0
C1824 C 0.04887 0.42547 0.31597 0.0
C1825 C 0.04024 0.42334 0.35038 0.0
C1826 C 0.02654 0.40083 0.36556 0.0
C1827 C 0.02149 0.38042 0.34639 0.0
H1828 H 0.04403 0.4391 0.3652 0.0
H1829 H -0.01585 0.2358 0.18655 0.0
H1830 H 0.65761 0.00434 0.76632 0.0
H1831 H 0.67045 -0.01144 0.7177 0.0
H1832 H 0.63533 0.01173 0.64313 0.0
H1833 H 0.62362 0.02852 0.69102 0.0
H1834 H 0.64607 0.95453 0.67403 0.0
H1835 H 0.66026 0.02775 0.56817 0.0
H1836 H 0.68005 0.0715 0.56581 0.0
H1837 H 0.72386 0.07657 0.65488 0.0
H1838 H 0.70463 0.03284 0.65749 0.0
H1839 H 0.58407 0.91501 0.52382 0.0
H1840 H 0.60693 0.92925 0.57797 0.0
H1841 H 0.67175 0.96781 0.51763 0.0
H1842 H 0.64842 0.95473 0.46282 0.0
H1843 H 0.67043 -0.00344 0.55877 0.0
H1844 H 0.66507 0.92454 0.58358 0.0
H1845 H 0.64915 0.88123 0.58675 0.0
H1846 H 0.5959 0.87441 0.66043 0.0
H1847 H 0.61117 0.91758 0.65732 0.0
C1848 C 0.65304 0.00645 0.73945 0.0
C1849 C 0.63956 0.01767 0.73249 0.0
C1850 C 0.66032 -0.00265 0.71177 0.0
C1851 C 0.65432 -0.00059 0.67673 0.0
C1852 C 0.6408 0.01053 0.66985 0.0
C1853 C 0.63368 0.01973 0.69736 0.0
C1854 C 0.65998 -0.0118 0.64715 0.0
C1855 C 0.65178 0.96369 0.64886 0.0
C1856 C 0.66909 0.00051 0.61494 0.0
C1857 C 0.681 0.02692 0.61297 0.0
C1858 C 0.6743 0.03815 0.58703 0.0
C1859 C 0.68537 0.06298 0.58572 0.0
C1860 C 0.7032 0.07681 0.61016 0.0
C1861 C 0.71002 0.06584 0.63597 0.0
C1862 C 0.69902 0.04103 0.6374 0.0
C1863 C 0.60323 0.9263 0.52202 0.0
C1864 C 0.61436 0.93426 0.48911 0.0
C1865 C 0.61646 0.93404 0.55313 0.0
C1866 C 0.64123 0.9495 0.55211 0.0
C1867 C 0.65269 0.95587 0.51915 0.0
C1868 C 0.63934 0.94833 0.48784 0.0
C1869 C 0.65365 0.96237 0.58486 0.0
C1870 C 0.6656 -0.01265 0.58398 0.0
C1871 C 0.6488 0.95056 0.61794 0.0
C1872 C 0.63942 0.92445 0.62032 0.0
C1873 C 0.64991 0.91383 0.60039 0.0
C1874 C 0.64099 0.88927 0.60217 0.0
C1875 C 0.62156 0.87509 0.62382 0.0
C1876 C 0.61101 0.88543 0.64376 0.0
C1877 C 0.61986 0.90999 0.64209 0.0
H1878 H 0.61466 0.85607 0.62513 0.0
H1879 H 0.71173 0.09602 0.60912 0.0
H1880 H 0.6288 0.62689 1.09853 0.0
H1881 H 0.65449 0.62745 1.05068 0.0
H1882 H 0.61118 0.639 0.97471 0.0
H1883 H 0.58534 0.63811 1.0222 0.0
H1884 H 0.61735 0.60253 0.95643 0.0
H1885 H 0.6659 0.68326 0.99711 0.0
H1886 H 0.6889 0.71463 1.04096 0.0
H1887 H 0.73567 0.68625 1.05757 0.0
H1888 H 0.71271 0.65448 1.01414 0.0
H1889 H 0.6739 0.64159 0.8033 0.0
H1890 H 0.67475 0.65432 0.86356 0.0
H1891 H 0.69436 0.60347 0.90077 0.0
H1892 H 0.69454 0.59102 0.83987 0.0
H1893 H 0.70434 0.65778 0.94324 0.0
H1894 H 0.64695 0.57134 0.90852 0.0
H1895 H 0.62351 0.54274 0.86124 0.0
H1896 H 0.5942 0.58679 0.83037 0.0
H1897 H 0.61734 0.61543 0.87765 0.0
C1898 C 0.62495 0.62976 1.07161 0.0
C1899 C 0.60503 0.63228 1.0639 0.0
C1900 C 0.63964 0.63014 1.04441 0.0
C1901 C 0.63469 0.63329 1.00927 0.0
C1902 C 0.61516 0.6364 1.00171 0.0
C1903 C 0.60039 0.63581 1.02876 0.0
C1904 C 0.64873 0.63178 0.97983 0.0
C1905 C 0.63639 0.61453 0.95386 0.0
C1906 C 0.67364 0.64726 0.9766 0.0
C1907 C 0.68741 0.66632 1.00272 0.0
C1908 C 0.68094 0.68356 1.01037 0.0
C1909 C 0.694 0.70145 1.03509 0.0
C1910 C 0.71368 0.70239 1.05213 0.0
C1911 C 0.72038 0.68547 1.04441 0.0
C1912 C 0.70736 0.66753 1.01973 0.0
C1913 C 0.67994 0.63405 0.82376 0.0
C1914 C 0.6833 0.61461 0.8168 0.0
C1915 C 0.68045 0.64148 0.8584 0.0
C1916 C 0.68417 0.62949 0.88643 0.0
C1917 C 0.69141 0.61286 0.87931 0.0
C1918 C 0.69115 0.60554 0.84451 0.0
C1919 C 0.67282 0.62859 0.9204 0.0
C1920 C 0.68548 0.64539 0.94678 0.0
C1921 C 0.64812 0.61282 0.92423 0.0
C1922 C 0.63385 0.59542 0.89641 0.0
C1923 C 0.63541 0.57478 0.89167 0.0
C1924 C 0.62219 0.5586 0.86495 0.0
C1925 C 0.60742 0.56298 0.84279 0.0
C1926 C 0.60566 0.58343 0.84753 0.0
C1927 C 0.61875 0.59958 0.87435 0.0
H1928 H 0.59736 0.55058 0.82191 0.0
H1929 H 0.72378 0.71626 1.07125 0.0
H1930 H 0.08651 0.68792 0.18462 0.0
H1931 H 0.06247 0.68279 0.23696 0.0
H1932 H 0.00738 0.68193 0.17114 0.0
H1933 H 0.031 0.68648 0.11859 0.0
H1934 H 0.01237 0.70009 0.24809 0.0
H1935 H -0.00011 0.63302 0.17398 0.0
H1936 H 0.0147 0.61065 0.13997 0.0
H1937 H 0.04839 0.60299 0.23345 0.0
H1938 H 0.03408 0.62569 0.26789 0.0
H1939 H 0.91956 0.58137 0.34296 0.0
H1940 H 0.9417 0.60462 0.29141 0.0
H1941 H -0.00847 0.66061 0.36009 0.0
H1942 H 0.96957 0.63743 0.41172 0.0
H1943 H -0.01337 0.61602 0.27827 0.0
H1944 H 0.01569 0.71385 0.31454 0.0
H1945 H -0.00026 0.73608 0.34617 0.0
H1946 H 0.92827 0.68011 0.32512 0.0
H1947 H 0.94377 0.65771 0.29293 0.0
C1948 C 0.06969 0.68759 0.18144 0.0
C1949 C 0.0603 0.68693 0.14758 0.0
C1950 C 0.05609 0.68485 0.21134 0.0
C1951 C 0.0331 0.6816 0.20759 0.0
C1952 C 0.02515 0.68447 0.17435 0.0
C1953 C 0.0387 0.68706 0.14435 0.0
C1954 C 0.01567 0.66946 0.23589 0.0
C1955 C 0.0067 0.68175 0.25493 0.0
C1956 C 0.00794 0.64536 0.24382 0.0
C1957 C 0.01617 0.6313 0.22338 0.0
C1958 C 0.01062 0.62674 0.18721 0.0
C1959 C 0.01889 0.61397 0.16787 0.0
C1960 C 0.03256 0.6055 0.18451 0.0
C1961 C 0.03786 0.60964 0.22058 0.0
C1962 C 0.02966 0.62244 0.24002 0.0
C1963 C 0.93511 0.59873 0.34702 0.0
C1964 C 0.94298 0.60752 0.38131 0.0
C1965 C 0.94764 0.61202 0.31761 0.0
C1966 C 0.96817 0.63433 0.32201 0.0
C1967 C 0.9755 0.64359 0.35614 0.0
C1968 C 0.96296 0.63032 0.38559 0.0
C1969 C -0.01665 0.64665 0.29126 0.0
C1970 C -0.00794 0.63433 0.27162 0.0
C1971 C -0.00955 0.67056 0.28261 0.0
C1972 C -0.01907 0.68401 0.3016 0.0
C1973 C -0.00343 0.70633 0.31653 0.0
C1974 C -0.01239 0.71895 0.33458 0.0
C1975 C 0.96301 0.70948 0.33775 0.0
C1976 C 0.94732 0.68739 0.32278 0.0
C1977 C 0.95619 0.6747 0.30468 0.0
H1978 H 0.95611 0.71927 0.35175 0.0
H1979 H 0.03904 0.59573 0.16946 0.0
H1980 H 0.46373 0.09574 0.47534 0.0
H1981 H 0.47632 0.09785 0.53761 0.0
H1982 H 0.52957 0.08044 0.50597 0.0
H1983 H 0.51646 0.07736 0.44485 0.0
H1984 H 0.51901 0.06137 0.56334 0.0
H1985 H 0.53721 0.14179 0.54096 0.0
H1986 H 0.52857 0.17353 0.52379 0.0
H1987 H 0.47614 0.15146 0.60584 0.0
H1988 H 0.48432 0.11946 0.62328 0.0
H1989 H 0.58039 0.0856 0.73251 0.0
H1990 H 0.56744 0.08461 0.67109 0.0
H1991 H 0.51728 0.10551 0.70561 0.0
H1992 H 0.53122 0.10779 0.76665 0.0
H1993 H 0.52616 0.12311 0.64682 0.0
H1994 H 0.5073 0.04376 0.67159 0.0
H1995 H 0.51179 0.00921 0.68709 0.0
H1996 H 0.56027 0.02521 0.60078 0.0
H1997 H 0.55641 0.06014 0.5851 0.0
C1998 C 0.47816 0.09237 0.48138 0.0
C1999 C 0.48876 0.08641 0.45335 0.0
C2000 C 0.48578 0.09387 0.51777 0.0
C2001 C 0.5048 0.08992 0.52855 0.0
C2002 C 0.51506 0.08377 0.50037 0.0
C2003 C 0.50738 0.08209 0.46439 0.0
C2004 C 0.51383 0.09152 0.56808 0.0
C2005 C 0.52068 0.07517 0.58114 0.0
C2006 C 0.51609 0.1089 0.59348 0.0
C2007 C 0.51121 0.12812 0.58318 0.0
C2008 C 0.52376 0.14366 0.55521 0.0
C2009 C 0.51895 0.16169 0.54545 0.0
C2010 C 0.50177 0.16447 0.56366 0.0
C2011 C 0.48941 0.14927 0.59173 0.0
C2012 C 0.49414 0.13119 0.60159 0.0
C2013 C 0.56666 0.09015 0.72735 0.0
C2014 C 0.55717 0.09675 0.75616 0.0
C2015 C 0.55878 0.08924 0.6914 0.0
C2016 C 0.5404 0.0943 0.68164 0.0
C2017 C 0.53127 0.10129 0.7105 0.0
C2018 C 0.53938 0.10254 0.74632 0.0
C2019 C 0.53098 0.09264 0.64233 0.0
C2020 C 0.5243 0.10914 0.6292 0.0
C2021 C 0.52843 0.07505 0.61702 0.0
C2022 C 0.53185 0.05484 0.62751 0.0
C2023 C 0.51924 0.04017 0.65627 0.0
C2024 C 0.52159 0.02045 0.66499 0.0
C2025 C 0.53638 0.01507 0.64501 0.0
C2026 C 0.54889 0.02945 0.61631 0.0
C2027 C 0.54664 0.04923 0.60751 0.0
H2028 H 0.53808 -0.00028 0.65168 0.0
H2029 H 0.49807 0.17843 0.55605 0.0
H2030 H 0.42945 0.53064 0.77971 0.0
H2031 H 0.44096 0.54287 0.84096 0.0
H2032 H 0.37088 0.49037 0.87529 0.0
H2033 H 0.35915 0.47792 0.81319 0.0
H2034 H 0.38365 0.52777 0.91644 0.0
H2035 H 0.42703 0.48836 0.8879 0.0
H2036 H 0.45486 0.47945 0.85627 0.0
H2037 H 0.51226 0.55018 0.87687 0.0
H2038 H 0.48469 0.55968 0.908 0.0
H2039 H 0.41513 0.54447 1.102 0.0
H2040 H 0.40311 0.53019 1.04169 0.0
H2041 H 0.47479 0.57663 1.00611 0.0
H2042 H 0.48713 0.59035 1.06741 0.0
H2043 H 0.46052 0.54143 0.96582 0.0
H2044 H 0.41744 0.58212 0.99057 0.0
H2045 H 0.39028 0.59134 1.0236 0.0
H2046 H 0.33351 0.5193 1.01059 0.0
H2047 H 0.36041 0.50959 0.97781 0.0
C2048 C 0.41621 0.52136 0.79995 0.0
C2049 C 0.39307 0.5029 0.78989 0.0
C2050 C 0.42307 0.52846 0.83587 0.0
C2051 C 0.4073 0.5177 0.86468 0.0
C2052 C 0.38398 0.49939 0.85479 0.0
C2053 C 0.37713 0.49206 0.81861 0.0
C2054 C 0.41503 0.52586 0.90413 0.0
C2055 C 0.40041 0.53037 0.92695 0.0
C2056 C 0.43722 0.53028 0.91953 0.0
C2057 C 0.45367 0.52484 0.89983 0.0
C2058 C 0.44551 0.50213 0.88526 0.0
C2059 C 0.46126 0.49695 0.86749 0.0
C2060 C 0.48529 0.51427 0.86442 0.0
C2061 C 0.49362 0.53681 0.87912 0.0
C2062 C 0.47793 0.54211 0.89679 0.0
C2063 C 0.42853 0.55211 1.08157 0.0
C2064 C 0.45229 0.56934 1.09097 0.0
C2065 C 0.42142 0.54385 1.04612 0.0
C2066 C 0.43742 0.55248 1.01713 0.0
C2067 C 0.46138 0.5694 1.02658 0.0
C2068 C 0.46858 0.57758 1.0623 0.0
C2069 C 0.42937 0.54369 0.97794 0.0
C2070 C 0.44387 0.53899 0.9552 0.0
C2071 C 0.4072 0.53929 0.9625 0.0
C2072 C 0.39099 0.54508 0.98205 0.0
C2073 C 0.3992 0.56822 0.99493 0.0
C2074 C 0.38385 0.57353 1.01358 0.0
C2075 C 0.3602 0.5559 1.01927 0.0
C2076 C 0.35183 0.53293 1.00621 0.0
C2077 C 0.36711 0.52751 0.98757 0.0
H2078 H 0.34835 0.56004 1.03373 0.0
H2079 H 0.49747 0.5102 0.85075 0.0
H2080 H 0.88532 0.37181 0.14932 0.0
H2081 H 0.8846 0.38381 0.21095 0.0
H2082 H 0.86933 0.43767 0.17364 0.0
H2083 H 0.86951 0.42545 0.11282 0.0
H2084 H 0.84672 0.42587 0.22833 0.0
H2085 H 0.90689 0.39423 0.30039 0.0
H2086 H 0.94383 0.39281 0.29065 0.0
H2087 H 0.96323 0.44367 0.20629 0.0
H2088 H 0.92672 0.44586 0.21629 0.0
H2089 H 0.87495 0.49001 0.39841 0.0
H2090 H 0.87618 0.47783 0.33701 0.0
H2091 H 0.86765 0.41145 0.37489 0.0
H2092 H 0.86662 0.42348 0.43597 0.0
H2093 H 0.90297 0.43022 0.32134 0.0
H2094 H 0.85069 0.46767 0.24973 0.0
H2095 H 0.81937 0.47783 0.26167 0.0
H2096 H 0.79111 0.42506 0.34387 0.0
H2097 H 0.82205 0.41437 0.33211 0.0
C2098 C 0.88155 0.38607 0.15401 0.0
C2099 C 0.8772 0.39716 0.12457 0.0
C2100 C 0.88144 0.39333 0.18997 0.0
C2101 C 0.87707 0.41221 0.19889 0.0
C2102 C 0.87261 0.42305 0.16934 0.0
C2103 C 0.87274 0.41586 0.13366 0.0
C2104 C 0.87651 0.42038 0.238 0.0
C2105 C 0.85943 0.42696 0.24809 0.0
C2106 C 0.89258 0.42218 0.26582 0.0
C2107 C 0.91373 0.41973 0.25839 0.0
C2108 C 0.91893 0.40496 0.27956 0.0
C2109 C 0.93987 0.40412 0.27416 0.0
C2110 C 0.95578 0.418 0.24769 0.0
C2111 C 0.95081 0.43278 0.2266 0.0
C2112 C 0.92997 0.43378 0.23206 0.0
C2113 C 0.87318 0.47271 0.39398 0.0
C2114 C 0.87038 0.45791 0.42353 0.0
C2115 C 0.87395 0.46563 0.35824 0.0
C2116 C 0.87227 0.44345 0.34986 0.0
C2117 C 0.86952 0.42877 0.37937 0.0
C2118 C 0.86857 0.43571 0.41493 0.0
C2119 C 0.87323 0.43543 0.3111 0.0
C2120 C 0.89031 0.42891 0.30127 0.0
C2121 C 0.85771 0.43439 0.28325 0.0
C2122 C 0.83884 0.44042 0.29027 0.0
C2123 C 0.83774 0.45819 0.27027 0.0
C2124 C 0.82006 0.46404 0.27702 0.0
C2125 C 0.80331 0.45216 0.30359 0.0
C2126 C 0.80415 0.43432 0.32339 0.0
C2127 C 0.82177 0.42838 0.31673 0.0
H2128 H 0.78965 0.45673 0.30879 0.0
H2129 H 0.97202 0.41741 0.24366 0.0
H2130 H 0.43019 0.87537 0.45116 0.0
H2131 H 0.41859 0.8743 0.51269 0.0
H2132 H 0.48795 0.88801 0.5466 0.0
H2133 H 0.49996 0.89028 0.48446 0.0
H2134 H 0.40786 0.8521 0.56699 0.0
H2135 H 0.50077 0.90204 0.63308 0.0
H2136 H 0.54114 0.93594 0.62216 0.0
H2137 H 0.51198 0.96647 0.55026 0.0
H2138 H 0.47151 0.93264 0.56101 0.0
H2139 H 0.43557 0.87512 0.77634 0.0
H2140 H 0.44849 0.87661 0.715 0.0
H2141 H 0.38507 0.87567 0.67777 0.0
H2142 H 0.37209 0.87412 0.73923 0.0
H2143 H 0.46246 0.90472 0.66028 0.0
H2144 H 0.37112 0.85668 0.59075 0.0
H2145 H 0.3296 0.82572 0.60291 0.0
H2146 H 0.35407 0.79492 0.68194 0.0
H2147 H 0.39573 0.82551 0.66995 0.0
C2148 C 0.44325 0.87824 0.47142 0.0
C2149 C 0.46633 0.88296 0.46115 0.0
C2150 C 0.4364 0.87753 0.50759 0.0
C2151 C 0.45203 0.88136 0.53658 0.0
C2152 C 0.47507 0.88563 0.52637 0.0
C2153 C 0.48203 0.88657 0.48997 0.0
C2154 C 0.44386 0.88031 0.57633 0.0
C2155 C 0.42005 0.86408 0.58681 0.0
C2156 C 0.45891 0.89505 0.60451 0.0
C2157 C 0.48326 0.91475 0.59728 0.0
C2158 C 0.50305 0.91595 0.61482 0.0
C2159 C 0.52592 0.93513 0.60871 0.0
C2160 C 0.52915 0.9533 0.58539 0.0
C2161 C 0.50952 0.95233 0.56814 0.0
C2162 C 0.48665 0.93315 0.57412 0.0
C2163 C 0.42409 0.87508 0.75534 0.0
C2164 C 0.40235 0.87424 0.76427 0.0
C2165 C 0.43171 0.87606 0.71948 0.0
C2166 C 0.41803 0.87595 0.68984 0.0
C2167 C 0.39632 0.87526 0.69876 0.0
C2168 C 0.38876 0.87447 0.73469 0.0
C2169 C 0.42653 0.87676 0.65054 0.0
C2170 C 0.45037 0.89282 0.64027 0.0
C2171 C 0.41143 0.8621 0.62248 0.0
C2172 C 0.3865 0.84354 0.62971 0.0
C2173 C 0.36763 0.84326 0.61065 0.0
C2174 C 0.34408 0.82578 0.61752 0.0
C2175 C 0.3392 0.80841 0.64327 0.0
C2176 C 0.35786 0.80843 0.6621 0.0
C2177 C 0.38145 0.82585 0.65531 0.0
H2178 H 0.32095 0.79491 0.64856 0.0
H2179 H 0.54685 0.96817 0.58081 0.0
H2180 H 0.57978 0.50664 0.81384 0.0
H2181 H 0.56791 0.49449 0.87551 0.0
H2182 H 0.53978 0.42119 0.84614 0.0
H2183 H 0.55111 0.43332 0.78461 0.0
H2184 H 0.51168 0.41749 0.89323 0.0
H2185 H 0.5968 0.46208 0.90194 0.0
H2186 H 0.63738 0.49657 0.89656 0.0
H2187 H 0.61743 0.53853 0.96014 0.0
H2188 H 0.57663 0.50434 0.9656 0.0
H2189 H 0.47281 0.39534 1.07658 0.0
H2190 H 0.48385 0.40891 1.0157 0.0
H2191 H 0.55745 0.43333 1.04073 0.0
H2192 H 0.5464 0.42073 1.10229 0.0
H2193 H 0.56294 0.46133 0.99524 0.0
H2194 H 0.47125 0.4096 0.92965 0.0
H2195 H 0.4331 0.37205 0.93661 0.0
H2196 H 0.46977 0.33958 0.98615 0.0
H2197 H 0.50814 0.37687 0.97923 0.0
C2198 C 0.57121 0.48789 0.82023 0.0
C2199 C 0.56687 0.47132 0.79267 0.0
C2200 C 0.56439 0.48073 0.8564 0.0
C2201 C 0.55285 0.45646 0.86771 0.0
C2202 C 0.54843 0.43999 0.83998 0.0
C2203 C 0.55522 0.44713 0.80394 0.0
C2204 C 0.5452 0.44813 0.90731 0.0
C2205 C 0.52315 0.42738 0.91521 0.0
C2206 C 0.55939 0.45998 0.93787 0.0
C2207 C 0.58364 0.48073 0.93392 0.0
C2208 C 0.60103 0.47873 0.91453 0.0
C2209 C 0.62407 0.49819 0.91154 0.0
C2210 C 0.62999 0.51969 0.92807 0.0
C2211 C 0.61283 0.52183 0.94744 0.0
C2212 C 0.58974 0.50242 0.95048 0.0
C2213 C 0.4914 0.40328 1.06937 0.0
C2214 C 0.50837 0.40616 1.09578 0.0
C2215 C 0.49793 0.4112 1.0335 0.0
C2216 C 0.52186 0.42216 1.02098 0.0
C2217 C 0.53881 0.42515 1.04767 0.0
C2218 C 0.53233 0.41756 1.08369 0.0
C2219 C 0.52933 0.43069 0.9813 0.0
C2220 C 0.55138 0.45147 0.97333 0.0
C2221 C 0.5153 0.41864 0.95062 0.0
C2222 C 0.49249 0.39603 0.95413 0.0
C2223 C 0.47116 0.39439 0.94183 0.0
C2224 C 0.44951 0.37318 0.94583 0.0
C2225 C 0.44903 0.35348 0.96188 0.0
C2226 C 0.47019 0.35488 0.97381 0.0
C2227 C 0.49188 0.37604 0.96985 0.0
H2228 H 0.43227 0.33709 0.96499 0.0
H2229 H 0.64789 0.53467 0.92587 0.0
H2230 H 0.1041 0.55109 0.43253 0.0
H2231 H 0.10403 0.56368 0.37148 0.0
H2232 H 0.06791 0.49053 0.33803 0.0
H2233 H 0.06856 0.47788 0.39953 0.0
H2234 H 0.09641 0.51396 0.28613 0.0
H2235 H 0.04425 0.5319 0.35056 0.0
H2236 H 0.03091 0.55044 0.39461 0.0
H2237 H 0.0806 0.61968 0.35419 0.0
H2238 H 0.09444 0.60155 0.30993 0.0
H2239 H 0.06495 0.53431 0.11194 0.0
H2240 H 0.06696 0.52356 0.17293 0.0
H2241 H 0.09822 0.59698 0.20358 0.0
H2242 H 0.09556 0.60788 0.14152 0.0
H2243 H 0.07318 0.57429 0.25728 0.0
H2244 H 0.1283 0.55769 0.19773 0.0
H2245 H 0.14203 0.53992 0.15263 0.0
H2246 H 0.08864 0.46989 0.18536 0.0
H2247 H 0.07441 0.48723 0.23038 0.0
C2248 C 0.09618 0.53742 0.41246 0.0
C2249 C 0.08646 0.51315 0.42248 0.0
C2250 C 0.09593 0.5448 0.37676 0.0
C2251 C 0.08558 0.52846 0.34834 0.0
C2252 C 0.07614 0.50413 0.35816 0.0
C2253 C 0.07652 0.49672 0.39403 0.0
C2254 C 0.08479 0.53665 0.3092 0.0
C2255 C 0.09106 0.52703 0.2803 0.0
C2256 C 0.07852 0.55434 0.29962 0.0
C2257 C 0.07045 0.56527 0.32677 0.0
C2258 C 0.05238 0.55105 0.35093 0.0
C2259 C 0.04474 0.56152 0.37605 0.0
C2260 C 0.0549 0.58623 0.37722 0.0
C2261 C 0.07274 0.60053 0.35327 0.0
C2262 C 0.08049 0.59015 0.32813 0.0
C2263 C 0.07252 0.54856 0.13117 0.0
C2264 C 0.08025 0.57232 0.11999 0.0
C2265 C 0.074 0.54222 0.16699 0.0
C2266 C 0.08353 0.55914 0.19478 0.0
C2267 C 0.09095 0.58299 0.18394 0.0
C2268 C 0.08946 0.58941 0.14771 0.0
C2269 C 0.08499 0.55173 0.23428 0.0
C2270 C 0.07879 0.56144 0.26322 0.0
C2271 C 0.09155 0.5343 0.24406 0.0
C2272 C 0.10011 0.52379 0.21715 0.0
C2273 C 0.11939 0.53851 0.19515 0.0
C2274 C 0.12728 0.52851 0.16962 0.0
C2275 C 0.11616 0.5038 0.16605 0.0
C2276 C 0.09719 0.48903 0.18809 0.0
C2277 C 0.08921 0.49894 0.21363 0.0
H2278 H 0.1223 0.49609 0.14627 0.0
H2279 H 0.04895 0.59431 0.39667 0.0
loop_
_geom_bond_atom_site_label_1
_geom_bond_atom_site_label_2
_geom_bond_distance
_geom_bond_site_symmetry_2
_ccdc_geom_bond_type
Tb0 C10 2.825 . S
Tb0 O11 2.347 . S
Tb0 O14 2.366 . S
Tb0 O19 2.418 . S
Tb0 O20 2.384 . S
Tb0 O23 2.479 . S
Tb0 O24 2.471 . S
Eu1 O12 2.418 . S
Eu1 O13 2.384 . S
Eu1 O16 2.479 . S
Eu1 O17 2.471 . S
Eu1 O18 2.347 . S
Eu1 O21 2.366 . S
Eu1 C31 2.825 . S
C2 O18 1.259 . S
C2 O19 1.265 . S
C3 O20 1.255 . S
C3 O21 1.265 . S
C4 C6 1.380 . S
C4 C7 1.374 . S
C4 C10 1.507 . S
C5 C6 1.384 . S
C5 C9 1.387 . S
C5 H32 0.930 . S
C6 C4 1.380 . S
C6 C5 1.384 . S
C6 H33 0.931 . S
C7 C4 1.374 . S
C7 C8 1.390 . S
C7 H34 0.930 . S
C8 C7 1.390 . S
C8 C9 1.391 . S
C8 H35 0.930 . S
C9 C5 1.387 . S
C9 C8 1.391 . S
C10 Tb0 2.825 . S
C10 C4 1.507 . S
C10 O23 1.238 . S
C10 O24 1.247 . S
O11 Tb0 2.347 . S
O11 C15 1.259 . S
O12 Eu1 2.418 . S
O12 C15 1.265 . S
O13 Eu1 2.384 . S
O13 C22 1.255 . S
O14 Tb0 2.366 . S
O14 C22 1.265 . S
C15 O11 1.259 . S
C15 O12 1.265 . S
O16 Eu1 2.479 . S
O16 C31 1.238 . S
O17 Eu1 2.471 . S
O17 C31 1.247 . S
O18 Eu1 2.347 . S
O18 C2 1.259 . S
O19 Tb0 2.418 . S
O19 C2 1.265 . S
O20 Tb0 2.384 . S
O20 C3 1.255 . S
O21 Eu1 2.366 . S
O21 C3 1.265 . S
C22 O13 1.255 . S
C22 O14 1.265 . S
O23 Tb0 2.479 . S
O23 C10 1.238 . S
O24 Tb0 2.471 . S
O24 C10 1.247 . S
C25 C28 1.380 . S
C25 C29 1.374 . S
C25 C31 1.507 . S
C26 C27 1.387 . S
C26 C30 1.391 . S
C27 C26 1.387 . S
C27 C28 1.384 . S
C27 H36 0.930 . S
C28 C25 1.380 . S
C28 C27 1.384 . S
C28 H37 0.931 . S
C29 C25 1.374 . S
C29 C30 1.390 . S
C29 H38 0.930 . S
C30 C26 1.391 . S
C30 C29 1.390 . S
C30 H39 0.930 . S
C31 Eu1 2.825 . S
C31 O16 1.238 . S
C31 O17 1.247 . S
C31 C25 1.507 . S
H32 C5 0.930 . S
H33 C6 0.931 . S
H34 C7 0.930 . S
H35 C8 0.930 . S
H36 C27 0.930 . S
H37 C28 0.931 . S
H38 C29 0.930 . S
H39 C30 0.930 . S
Tb40 C50 2.825 . S
Tb40 O51 2.347 . S
Tb40 O54 2.366 . S
Tb40 O59 2.418 . S
Tb40 O60 2.384 . S
Tb40 O63 2.479 . S
Tb40 O64 2.471 . S
Eu41 O52 2.418 . S
Eu41 O53 2.384 . S
Eu41 O56 2.479 . S
Eu41 O57 2.471 . S
Eu41 O58 2.347 . S
Eu41 O61 2.366 . S
Eu41 C71 2.825 . S
C42 O58 1.259 . S
C42 O59 1.265 . S
C43 O60 1.255 . S
C43 O61 1.265 . S
C44 C46 1.380 . S
C44 C47 1.374 . S
C44 C50 1.507 . S
C45 C46 1.384 . S
C45 C49 1.387 . S
C45 H72 0.930 . S
C46 C44 1.380 . S
C46 C45 1.384 . S
C46 H73 0.931 . S
C47 C44 1.374 . S
C47 C48 1.390 . S
C47 H74 0.930 . S
C48 C47 1.390 . S
C48 C49 1.391 . S
C48 H75 0.930 . S
C49 C45 1.387 . S
C49 C48 1.391 . S
C50 Tb40 2.825 . S
C50 C44 1.507 . S
C50 O63 1.238 . S
C50 O64 1.247 . S
O51 Tb40 2.347 . S
O51 C55 1.259 . S
O52 Eu41 2.418 . S
O52 C55 1.265 . S
O53 Eu41 2.384 . S
O53 C62 1.255 . S
O54 Tb40 2.366 . S
O54 C62 1.265 . S
C55 O51 1.259 . S
C55 O52 1.265 . S
O56 Eu41 2.479 . S
O56 C71 1.238 . S
O57 Eu41 2.471 . S
O57 C71 1.247 . S
O58 Eu41 2.347 . S
O58 C42 1.259 . S
O59 Tb40 2.418 . S
O59 C42 1.265 . S
O60 Tb40 2.384 . S
O60 C43 1.255 . S
O61 Eu41 2.366 . S
O61 C43 1.265 . S
C62 O53 1.255 . S
C62 O54 1.265 . S
O63 Tb40 2.479 . S
O63 C50 1.238 . S
O64 Tb40 2.471 . S
O64 C50 1.247 . S
C65 C68 1.380 . S
C65 C69 1.374 . S
C65 C71 1.507 . S
C66 C67 1.387 . S
C66 C70 1.391 . S
C67 C66 1.387 . S
C67 C68 1.384 . S
C67 H76 0.930 . S
C68 C65 1.380 . S
C68 C67 1.384 . S
C68 H77 0.931 . S
C69 C65 1.374 . S
C69 C70 1.390 . S
C69 H78 0.930 . S
C70 C66 1.391 . S
C70 C69 1.390 . S
C70 H79 0.930 . S
C71 Eu41 2.825 . S
C71 O56 1.238 . S
C71 O57 1.247 . S
C71 C65 1.507 . S
H72 C45 0.930 . S
H73 C46 0.931 . S
H74 C47 0.930 . S
H75 C48 0.930 . S
H76 C67 0.930 . S
H77 C68 0.931 . S
H78 C69 0.930 . S
H79 C70 0.930 . S
Tb80 C90 2.825 . S
Tb80 O91 2.347 . S
Tb80 O94 2.366 . S
Tb80 O99 2.418 . S
Tb80 O100 2.384 . S
Tb80 O103 2.479 . S
Tb80 O104 2.471 . S
Eu81 O92 2.418 . S
Eu81 O93 2.384 . S
Eu81 O96 2.479 . S
Eu81 O97 2.471 . S
Eu81 O98 2.347 . S
Eu81 O101 2.366 . S
Eu81 C111 2.825 . S
C82 O98 1.259 . S
C82 O99 1.265 . S
C83 O100 1.255 . S
C83 O101 1.265 . S
C84 C86 1.380 . S
C84 C87 1.374 . S
C84 C90 1.507 1_554 S
C85 C86 1.384 . S
C85 C89 1.387 . S
C85 H112 0.930 . S
C86 C84 1.380 . S
C86 C85 1.384 . S
C86 H113 0.931 . S
C87 C84 1.374 . S
C87 C88 1.390 . S
C87 H114 0.930 . S
C88 C87 1.390 . S
C88 C89 1.391 . S
C88 H115 0.930 . S
C89 C85 1.387 . S
C89 C88 1.391 . S
C90 Tb80 2.825 . S
C90 C84 1.507 1_556 S
C90 O103 1.238 . S
C90 O104 1.247 . S
O91 Tb80 2.347 . S
O91 C95 1.259 . S
O92 Eu81 2.418 . S
O92 C95 1.265 . S
O93 Eu81 2.384 . S
O93 C102 1.255 . S
O94 Tb80 2.366 . S
O94 C102 1.265 . S
C95 O91 1.259 . S
C95 O92 1.265 . S
O96 Eu81 2.479 . S
O96 C111 1.238 . S
O97 Eu81 2.471 . S
O97 C111 1.247 . S
O98 Eu81 2.347 . S
O98 C82 1.259 . S
O99 Tb80 2.418 . S
O99 C82 1.265 . S
O100 Tb80 2.384 . S
O100 C83 1.255 . S
O101 Eu81 2.366 . S
O101 C83 1.265 . S
C102 O93 1.255 . S
C102 O94 1.265 . S
O103 Tb80 2.479 . S
O103 C90 1.238 . S
O104 Tb80 2.471 . S
O104 C90 1.247 . S
C105 C108 1.380 . S
C105 C109 1.374 . S
C105 C111 1.507 . S
C106 C107 1.387 . S
C106 C110 1.391 . S
C107 C106 1.387 . S
C107 C108 1.384 . S
C107 H116 0.930 . S
C108 C105 1.380 . S
C108 C107 1.384 . S
C108 H117 0.931 . S
C109 C105 1.374 . S
C109 C110 1.390 . S
C109 H118 0.930 . S
C110 C106 1.391 . S
C110 C109 1.390 . S
C110 H119 0.930 . S
C111 Eu81 2.825 . S
C111 O96 1.238 . S
C111 O97 1.247 . S
C111 C105 1.507 . S
H112 C85 0.930 . S
H113 C86 0.931 . S
H114 C87 0.930 . S
H115 C88 0.930 . S
H116 C107 0.930 . S
H117 C108 0.931 . S
H118 C109 0.930 . S
H119 C110 0.930 . S
Tb120 C130 2.825 . S
Tb120 O131 2.347 . S
Tb120 O134 2.366 . S
Tb120 O139 2.418 . S
Tb120 O140 2.384 . S
Tb120 O143 2.479 . S
Tb120 O144 2.471 . S
Eu121 O132 2.418 . S
Eu121 O133 2.384 . S
Eu121 O136 2.479 . S
Eu121 O137 2.471 . S
Eu121 O138 2.347 . S
Eu121 O141 2.366 . S
Eu121 C151 2.825 . S
C122 O138 1.259 . S
C122 O139 1.265 . S
C123 O140 1.255 . S
C123 O141 1.265 . S
C124 C126 1.380 . S
C124 C127 1.374 . S
C124 C130 1.507 . S
C125 C126 1.384 . S
C125 C129 1.387 . S
C125 H152 0.930 . S
C126 C124 1.380 . S
C126 C125 1.384 . S
C126 H153 0.931 . S
C127 C124 1.374 . S
C127 C128 1.390 . S
C127 H154 0.930 . S
C128 C127 1.390 . S
C128 C129 1.391 . S
C128 H155 0.930 . S
C129 C125 1.387 . S
C129 C128 1.391 . S
C130 Tb120 2.825 . S
C130 C124 1.507 . S
C130 O143 1.238 . S
C130 O144 1.247 . S
O131 Tb120 2.347 . S
O131 C135 1.259 . S
O132 Eu121 2.418 . S
O132 C135 1.265 . S
O133 Eu121 2.384 . S
O133 C142 1.255 . S
O134 Tb120 2.366 . S
O134 C142 1.265 . S
C135 O131 1.259 . S
C135 O132 1.265 . S
O136 Eu121 2.479 . S
O136 C151 1.238 . S
O137 Eu121 2.471 . S
O137 C151 1.247 . S
O138 Eu121 2.347 . S
O138 C122 1.259 . S
O139 Tb120 2.418 . S
O139 C122 1.265 . S
O140 Tb120 2.384 . S
O140 C123 1.255 . S
O141 Eu121 2.366 . S
O141 C123 1.265 . S
C142 O133 1.255 . S
C142 O134 1.265 . S
O143 Tb120 2.479 . S
O143 C130 1.238 . S
O144 Tb120 2.471 . S
O144 C130 1.247 . S
C145 C148 1.380 . S
C145 C149 1.374 . S
C145 C151 1.507 . S
C146 C147 1.387 . S
C146 C150 1.391 . S
C147 C146 1.387 . S
C147 C148 1.384 . S
C147 H156 0.930 . S
C148 C145 1.380 . S
C148 C147 1.384 . S
C148 H157 0.931 . S
C149 C145 1.374 . S
C149 C150 1.390 . S
C149 H158 0.930 . S
C150 C146 1.391 . S
C150 C149 1.390 . S
C150 H159 0.930 . S
C151 Eu121 2.825 . S
C151 O136 1.238 . S
C151 O137 1.247 . S
C151 C145 1.507 . S
H152 C125 0.930 . S
H153 C126 0.931 . S
H154 C127 0.930 . S
H155 C128 0.930 . S
H156 C147 0.930 . S
H157 C148 0.931 . S
H158 C149 0.930 . S
H159 C150 0.930 . S
Tb160 C170 2.825 . S
Tb160 O171 2.347 . S
Tb160 O174 2.366 . S
Tb160 O179 2.418 . S
Tb160 O180 2.384 . S
Tb160 O183 2.479 . S
Tb160 O184 2.471 . S
Eu161 O172 2.418 . S
Eu161 O173 2.384 . S
Eu161 O176 2.479 . S
Eu161 O177 2.471 . S
Eu161 O178 2.347 . S
Eu161 O181 2.366 . S
Eu161 C191 2.825 . S
C162 O178 1.259 . S
C162 O179 1.265 . S
C163 O180 1.255 . S
C163 O181 1.265 . S
C164 C166 1.380 . S
C164 C167 1.374 . S
C164 C170 1.507 . S
C165 C166 1.384 . S
C165 C169 1.387 . S
C165 H192 0.930 . S
C166 C164 1.380 . S
C166 C165 1.384 . S
C166 H193 0.931 . S
C167 C164 1.374 . S
C167 C168 1.390 . S
C167 H194 0.930 . S
C168 C167 1.390 . S
C168 C169 1.391 . S
C168 H195 0.930 . S
C169 C165 1.387 . S
C169 C168 1.391 . S
C170 Tb160 2.825 . S
C170 C164 1.507 . S
C170 O183 1.238 . S
C170 O184 1.247 . S
O171 Tb160 2.347 . S
O171 C175 1.259 . S
O172 Eu161 2.418 . S
O172 C175 1.265 . S
O173 Eu161 2.384 . S
O173 C182 1.255 . S
O174 Tb160 2.366 . S
O174 C182 1.265 . S
C175 O171 1.259 . S
C175 O172 1.265 . S
O176 Eu161 2.479 . S
O176 C191 1.238 . S
O177 Eu161 2.471 . S
O177 C191 1.247 . S
O178 Eu161 2.347 . S
O178 C162 1.259 . S
O179 Tb160 2.418 . S
O179 C162 1.265 . S
O180 Tb160 2.384 . S
O180 C163 1.255 . S
O181 Eu161 2.366 . S
O181 C163 1.265 . S
C182 O173 1.255 . S
C182 O174 1.265 . S
O183 Tb160 2.479 . S
O183 C170 1.238 . S
O184 Tb160 2.471 . S
O184 C170 1.247 . S
C185 C188 1.380 . S
C185 C189 1.374 . S
C185 C191 1.507 . S
C186 C187 1.387 . S
C186 C190 1.391 . S
C187 C186 1.387 . S
C187 C188 1.384 . S
C187 H196 0.930 . S
C188 C185 1.380 . S
C188 C187 1.384 . S
C188 H197 0.931 . S
C189 C185 1.374 . S
C189 C190 1.390 . S
C189 H198 0.930 . S
C190 C186 1.391 . S
C190 C189 1.390 . S
C190 H199 0.930 . S
C191 Eu161 2.825 . S
C191 O176 1.238 . S
C191 O177 1.247 . S
C191 C185 1.507 . S
H192 C165 0.930 . S
H193 C166 0.931 . S
H194 C167 0.930 . S
H195 C168 0.930 . S
H196 C187 0.930 . S
H197 C188 0.931 . S
H198 C189 0.930 . S
H199 C190 0.930 . S
Tb200 C210 2.825 . S
Tb200 O211 2.347 . S
Tb200 O214 2.366 . S
Tb200 O219 2.418 . S
Tb200 O220 2.384 . S
Tb200 O223 2.479 . S
Tb200 O224 2.471 . S
Eu201 O212 2.418 . S
Eu201 O213 2.384 . S
Eu201 O216 2.479 . S
Eu201 O217 2.471 . S
Eu201 O218 2.347 . S
Eu201 O221 2.366 . S
Eu201 C231 2.825 . S
C202 O218 1.259 . S
C202 O219 1.265 . S
C203 O220 1.255 . S
C203 O221 1.265 . S
C204 C206 1.380 . S
C204 C207 1.374 . S
C204 C210 1.507 1_554 S
C205 C206 1.384 . S
C205 C209 1.387 . S
C205 H232 0.930 . S
C206 C204 1.380 . S
C206 C205 1.384 . S
C206 H233 0.931 . S
C207 C204 1.374 . S
C207 C208 1.390 . S
C207 H234 0.930 . S
C208 C207 1.390 . S
C208 C209 1.391 . S
C208 H235 0.930 . S
C209 C205 1.387 . S
C209 C208 1.391 . S
C210 Tb200 2.825 . S
C210 C204 1.507 1_556 S
C210 O223 1.238 . S
C210 O224 1.247 . S
O211 Tb200 2.347 . S
O211 C215 1.259 . S
O212 Eu201 2.418 . S
O212 C215 1.265 . S
O213 Eu201 2.384 . S
O213 C222 1.255 . S
O214 Tb200 2.366 . S
O214 C222 1.265 . S
C215 O211 1.259 . S
C215 O212 1.265 . S
O216 Eu201 2.479 . S
O216 C231 1.238 . S
O217 Eu201 2.471 . S
O217 C231 1.247 . S
O218 Eu201 2.347 . S
O218 C202 1.259 . S
O219 Tb200 2.418 . S
O219 C202 1.265 . S
O220 Tb200 2.384 . S
O220 C203 1.255 . S
O221 Eu201 2.366 . S
O221 C203 1.265 . S
C222 O213 1.255 . S
C222 O214 1.265 . S
O223 Tb200 2.479 . S
O223 C210 1.238 . S
O224 Tb200 2.471 . S
O224 C210 1.247 . S
C225 C228 1.380 . S
C225 C229 1.374 . S
C225 C231 1.507 . S
C226 C227 1.387 . S
C226 C230 1.391 . S
C227 C226 1.387 . S
C227 C228 1.384 . S
C227 H236 0.930 . S
C228 C225 1.380 . S
C228 C227 1.384 . S
C228 H237 0.931 . S
C229 C225 1.374 . S
C229 C230 1.390 . S
C229 H238 0.930 . S
C230 C226 1.391 . S
C230 C229 1.390 . S
C230 H239 0.930 . S
C231 Eu201 2.825 . S
C231 O216 1.238 . S
C231 O217 1.247 . S
C231 C225 1.507 . S
H232 C205 0.930 . S
H233 C206 0.931 . S
H234 C207 0.930 . S
H235 C208 0.930 . S
H236 C227 0.930 . S
H237 C228 0.931 . S
H238 C229 0.930 . S
H239 C230 0.930 . S
Tb240 C250 2.825 . S
Tb240 O251 2.347 . S
Tb240 O254 2.366 . S
Tb240 O259 2.418 . S
Tb240 O260 2.384 . S
Tb240 O263 2.479 . S
Tb240 O264 2.471 . S
Eu241 O252 2.418 . S
Eu241 O253 2.384 . S
Eu241 O256 2.479 . S
Eu241 O257 2.471 . S
Eu241 O258 2.347 . S
Eu241 O261 2.366 . S
Eu241 C271 2.825 . S
C242 O258 1.259 . S
C242 O259 1.265 . S
C243 O260 1.255 . S
C243 O261 1.265 . S
C244 C246 1.380 . S
C244 C247 1.374 . S
C244 C250 1.507 . S
C245 C246 1.384 . S
C245 C249 1.387 . S
C245 H272 0.930 . S
C246 C244 1.380 . S
C246 C245 1.384 . S
C246 H273 0.931 . S
C247 C244 1.374 . S
C247 C248 1.390 . S
C247 H274 0.930 . S
C248 C247 1.390 . S
C248 C249 1.391 . S
C248 H275 0.930 . S
C249 C245 1.387 . S
C249 C248 1.391 . S
C250 Tb240 2.825 . S
C250 C244 1.507 . S
C250 O263 1.238 . S
C250 O264 1.247 . S
O251 Tb240 2.347 . S
O251 C255 1.259 . S
O252 Eu241 2.418 . S
O252 C255 1.265 . S
O253 Eu241 2.384 . S
O253 C262 1.255 . S
O254 Tb240 2.366 . S
O254 C262 1.265 . S
C255 O251 1.259 . S
C255 O252 1.265 . S
O256 Eu241 2.479 . S
O256 C271 1.238 . S
O257 Eu241 2.471 . S
O257 C271 1.247 . S
O258 Eu241 2.347 . S
O258 C242 1.259 . S
O259 Tb240 2.418 . S
O259 C242 1.265 . S
O260 Tb240 2.384 . S
O260 C243 1.255 . S
O261 Eu241 2.366 . S
O261 C243 1.265 . S
C262 O253 1.255 . S
C262 O254 1.265 . S
O263 Tb240 2.479 . S
O263 C250 1.238 . S
O264 Tb240 2.471 . S
O264 C250 1.247 . S
C265 C268 1.380 . S
C265 C269 1.374 . S
C265 C271 1.507 . S
C266 C267 1.387 . S
C266 C270 1.391 . S
C267 C266 1.387 . S
C267 C268 1.384 . S
C267 H276 0.930 . S
C268 C265 1.380 . S
C268 C267 1.384 . S
C268 H277 0.931 . S
C269 C265 1.374 . S
C269 C270 1.390 . S
C269 H278 0.930 . S
C270 C266 1.391 . S
C270 C269 1.390 . S
C270 H279 0.930 . S
C271 Eu241 2.825 . S
C271 O256 1.238 . S
C271 O257 1.247 . S
C271 C265 1.507 . S
H272 C245 0.930 . S
H273 C246 0.931 . S
H274 C247 0.930 . S
H275 C248 0.930 . S
H276 C267 0.930 . S
H277 C268 0.931 . S
H278 C269 0.930 . S
H279 C270 0.930 . S
Tb280 C290 2.825 . S
Tb280 O291 2.347 . S
Tb280 O294 2.366 . S
Tb280 O299 2.418 . S
Tb280 O300 2.384 . S
Tb280 O303 2.479 . S
Tb280 O304 2.471 . S
Eu281 O292 2.418 . S
Eu281 O293 2.384 . S
Eu281 O296 2.479 . S
Eu281 O297 2.471 . S
Eu281 O298 2.347 . S
Eu281 O301 2.366 . S
Eu281 C311 2.825 . S
C282 O298 1.259 . S
C282 O299 1.265 . S
C283 O300 1.255 . S
C283 O301 1.265 . S
C284 C286 1.380 . S
C284 C287 1.374 . S
C284 C290 1.507 . S
C285 C286 1.384 . S
C285 C289 1.387 . S
C285 H312 0.930 . S
C286 C284 1.380 . S
C286 C285 1.384 . S
C286 H313 0.931 . S
C287 C284 1.374 . S
C287 C288 1.390 . S
C287 H314 0.930 . S
C288 C287 1.390 . S
C288 C289 1.391 . S
C288 H315 0.930 . S
C289 C285 1.387 . S
C289 C288 1.391 . S
C290 Tb280 2.825 . S
C290 C284 1.507 . S
C290 O303 1.238 . S
C290 O304 1.247 . S
O291 Tb280 2.347 . S
O291 C295 1.259 . S
O292 Eu281 2.418 . S
O292 C295 1.265 . S
O293 Eu281 2.384 . S
O293 C302 1.255 . S
O294 Tb280 2.366 . S
O294 C302 1.265 . S
C295 O291 1.259 . S
C295 O292 1.265 . S
O296 Eu281 2.479 . S
O296 C311 1.238 . S
O297 Eu281 2.471 . S
O297 C311 1.247 . S
O298 Eu281 2.347 . S
O298 C282 1.259 . S
O299 Tb280 2.418 . S
O299 C282 1.265 . S
O300 Tb280 2.384 . S
O300 C283 1.255 . S
O301 Eu281 2.366 . S
O301 C283 1.265 . S
C302 O293 1.255 . S
C302 O294 1.265 . S
O303 Tb280 2.479 . S
O303 C290 1.238 . S
O304 Tb280 2.471 . S
O304 C290 1.247 . S
C305 C308 1.380 . S
C305 C309 1.374 . S
C305 C311 1.507 . S
C306 C307 1.387 . S
C306 C310 1.391 . S
C307 C306 1.387 . S
C307 C308 1.384 . S
C307 H316 0.930 . S
C308 C305 1.380 . S
C308 C307 1.384 . S
C308 H317 0.931 . S
C309 C305 1.374 . S
C309 C310 1.390 . S
C309 H318 0.930 . S
C310 C306 1.391 . S
C310 C309 1.390 . S
C310 H319 0.930 . S
C311 Eu281 2.825 . S
C311 O296 1.238 . S
C311 O297 1.247 . S
C311 C305 1.507 . S
H312 C285 0.930 . S
H313 C286 0.931 . S
H314 C287 0.930 . S
H315 C288 0.930 . S
H316 C307 0.930 . S
H317 C308 0.931 . S
H318 C309 0.930 . S
H319 C310 0.930 . S
Tb320 C330 2.825 . S
Tb320 O331 2.347 . S
Tb320 O334 2.366 . S
Tb320 O339 2.418 . S
Tb320 O340 2.384 . S
Tb320 O343 2.479 . S
Tb320 O344 2.471 . S
Eu321 O332 2.418 . S
Eu321 O333 2.384 . S
Eu321 O336 2.479 . S
Eu321 O337 2.471 . S
Eu321 O338 2.347 . S
Eu321 O341 2.366 . S
Eu321 C351 2.825 . S
C322 O338 1.259 . S
C322 O339 1.265 . S
C323 O340 1.255 . S
C323 O341 1.265 . S
C324 C326 1.380 . S
C324 C327 1.374 . S
C324 C330 1.507 1_556 S
C325 C326 1.384 . S
C325 C329 1.387 . S
C325 H352 0.930 . S
C326 C324 1.380 . S
C326 C325 1.384 . S
C326 H353 0.931 . S
C327 C324 1.374 . S
C327 C328 1.390 . S
C327 H354 0.930 . S
C328 C327 1.390 . S
C328 C329 1.391 . S
C328 H355 0.930 . S
C329 C325 1.387 . S
C329 C328 1.391 . S
C330 Tb320 2.825 . S
C330 C324 1.507 1_554 S
C330 O343 1.238 . S
C330 O344 1.247 . S
O331 Tb320 2.347 . S
O331 C335 1.259 . S
O332 Eu321 2.418 . S
O332 C335 1.265 . S
O333 Eu321 2.384 . S
O333 C342 1.255 . S
O334 Tb320 2.366 . S
O334 C342 1.265 . S
C335 O331 1.259 . S
C335 O332 1.265 . S
O336 Eu321 2.479 . S
O336 C351 1.238 . S
O337 Eu321 2.471 . S
O337 C351 1.247 . S
O338 Eu321 2.347 . S
O338 C322 1.259 . S
O339 Tb320 2.418 . S
O339 C322 1.265 . S
O340 Tb320 2.384 . S
O340 C323 1.255 . S
O341 Eu321 2.366 . S
O341 C323 1.265 . S
C342 O333 1.255 . S
C342 O334 1.265 . S
O343 Tb320 2.479 . S
O343 C330 1.238 . S
O344 Tb320 2.471 . S
O344 C330 1.247 . S
C345 C348 1.380 . S
C345 C349 1.374 . S
C345 C351 1.507 . S
C346 C347 1.387 . S
C346 C350 1.391 . S
C347 C346 1.387 . S
C347 C348 1.384 . S
C347 H356 0.930 . S
C348 C345 1.380 . S
C348 C347 1.384 . S
C348 H357 0.931 . S
C349 C345 1.374 . S
C349 C350 1.390 . S
C349 H358 0.930 . S
C350 C346 1.391 . S
C350 C349 1.390 . S
C350 H359 0.930 . S
C351 Eu321 2.825 . S
C351 O336 1.238 . S
C351 O337 1.247 . S
C351 C345 1.507 . S
H352 C325 0.930 . S
H353 C326 0.931 . S
H354 C327 0.930 . S
H355 C328 0.930 . S
H356 C347 0.930 . S
H357 C348 0.931 . S
H358 C349 0.930 . S
H359 C350 0.930 . S
Tb360 C370 2.825 . S
Tb360 O371 2.347 . S
Tb360 O374 2.366 . S
Tb360 O379 2.418 . S
Tb360 O380 2.384 . S
Tb360 O383 2.479 . S
Tb360 O384 2.471 . S
Eu361 O372 2.418 . S
Eu361 O373 2.384 . S
Eu361 O376 2.479 . S
Eu361 O377 2.471 . S
Eu361 O378 2.347 . S
Eu361 O381 2.366 . S
Eu361 C391 2.825 . S
C362 O378 1.259 . S
C362 O379 1.265 . S
C363 O380 1.255 . S
C363 O381 1.265 . S
C364 C366 1.380 . S
C364 C367 1.374 . S
C364 C370 1.507 . S
C365 C366 1.384 . S
C365 C369 1.387 . S
C365 H392 0.930 . S
C366 C364 1.380 . S
C366 C365 1.384 . S
C366 H393 0.931 . S
C367 C364 1.374 . S
C367 C368 1.390 . S
C367 H394 0.930 . S
C368 C367 1.390 . S
C368 C369 1.391 . S
C368 H395 0.930 . S
C369 C365 1.387 . S
C369 C368 1.391 . S
C370 Tb360 2.825 . S
C370 C364 1.507 . S
C370 O383 1.238 . S
C370 O384 1.247 . S
O371 Tb360 2.347 . S
O371 C375 1.259 . S
O372 Eu361 2.418 . S
O372 C375 1.265 . S
O373 Eu361 2.384 . S
O373 C382 1.255 . S
O374 Tb360 2.366 . S
O374 C382 1.265 . S
C375 O371 1.259 . S
C375 O372 1.265 . S
O376 Eu361 2.479 . S
O376 C391 1.238 . S
O377 Eu361 2.471 . S
O377 C391 1.247 . S
O378 Eu361 2.347 . S
O378 C362 1.259 . S
O379 Tb360 2.418 . S
O379 C362 1.265 . S
O380 Tb360 2.384 . S
O380 C363 1.255 . S
O381 Eu361 2.366 . S
O381 C363 1.265 . S
C382 O373 1.255 . S
C382 O374 1.265 . S
O383 Tb360 2.479 . S
O383 C370 1.238 . S
O384 Tb360 2.471 . S
O384 C370 1.247 . S
C385 C388 1.380 . S
C385 C389 1.374 . S
C385 C391 1.507 . S
C386 C387 1.387 . S
C386 C390 1.391 . S
C387 C386 1.387 . S
C387 C388 1.384 . S
C387 H396 0.930 . S
C388 C385 1.380 . S
C388 C387 1.384 . S
C388 H397 0.931 . S
C389 C385 1.374 . S
C389 C390 1.390 . S
C389 H398 0.930 . S
C390 C386 1.391 . S
C390 C389 1.390 . S
C390 H399 0.930 . S
C391 Eu361 2.825 . S
C391 O376 1.238 . S
C391 O377 1.247 . S
C391 C385 1.507 . S
H392 C365 0.930 . S
H393 C366 0.931 . S
H394 C367 0.930 . S
H395 C368 0.930 . S
H396 C387 0.930 . S
H397 C388 0.931 . S
H398 C389 0.930 . S
H399 C390 0.930 . S
Tb400 C410 2.825 . S
Tb400 O411 2.347 . S
Tb400 O414 2.366 . S
Tb400 O419 2.418 . S
Tb400 O420 2.384 . S
Tb400 O423 2.479 . S
Tb400 O424 2.471 . S
Eu401 O412 2.418 . S
Eu401 O413 2.384 . S
Eu401 O416 2.479 . S
Eu401 O417 2.471 . S
Eu401 O418 2.347 . S
Eu401 O421 2.366 . S
Eu401 C431 2.825 . S
C402 O418 1.259 . S
C402 O419 1.265 . S
C403 O420 1.255 . S
C403 O421 1.265 . S
C404 C406 1.380 . S
C404 C407 1.374 . S
C404 C410 1.507 . S
C405 C406 1.384 . S
C405 C409 1.387 . S
C405 H432 0.930 . S
C406 C404 1.380 . S
C406 C405 1.384 . S
C406 H433 0.931 . S
C407 C404 1.374 . S
C407 C408 1.390 . S
C407 H434 0.930 . S
C408 C407 1.390 . S
C408 C409 1.391 . S
C408 H435 0.930 . S
C409 C405 1.387 . S
C409 C408 1.391 . S
C410 Tb400 2.825 . S
C410 C404 1.507 . S
C410 O423 1.238 . S
C410 O424 1.247 . S
O411 Tb400 2.347 . S
O411 C415 1.259 . S
O412 Eu401 2.418 . S
O412 C415 1.265 . S
O413 Eu401 2.384 . S
O413 C422 1.255 . S
O414 Tb400 2.366 . S
O414 C422 1.265 . S
C415 O411 1.259 . S
C415 O412 1.265 . S
O416 Eu401 2.479 . S
O416 C431 1.238 . S
O417 Eu401 2.471 . S
O417 C431 1.247 . S
O418 Eu401 2.347 . S
O418 C402 1.259 . S
O419 Tb400 2.418 . S
O419 C402 1.265 . S
O420 Tb400 2.384 . S
O420 C403 1.255 . S
O421 Eu401 2.366 . S
O421 C403 1.265 . S
C422 O413 1.255 . S
C422 O414 1.265 . S
O423 Tb400 2.479 . S
O423 C410 1.238 . S
O424 Tb400 2.471 . S
O424 C410 1.247 . S
C425 C428 1.380 . S
C425 C429 1.374 . S
C425 C431 1.507 . S
C426 C427 1.387 . S
C426 C430 1.391 . S
C427 C426 1.387 . S
C427 C428 1.384 . S
C427 H436 0.930 . S
C428 C425 1.380 . S
C428 C427 1.384 . S
C428 H437 0.931 . S
C429 C425 1.374 . S
C429 C430 1.390 . S
C429 H438 0.930 . S
C430 C426 1.391 . S
C430 C429 1.390 . S
C430 H439 0.930 . S
C431 Eu401 2.825 . S
C431 O416 1.238 . S
C431 O417 1.247 . S
C431 C425 1.507 . S
H432 C405 0.930 . S
H433 C406 0.931 . S
H434 C407 0.930 . S
H435 C408 0.930 . S
H436 C427 0.930 . S
H437 C428 0.931 . S
H438 C429 0.930 . S
H439 C430 0.930 . S
Tb440 C450 2.825 . S
Tb440 O451 2.347 . S
Tb440 O454 2.366 . S
Tb440 O459 2.418 . S
Tb440 O460 2.384 . S
Tb440 O463 2.479 . S
Tb440 O464 2.471 . S
Eu441 O452 2.418 . S
Eu441 O453 2.384 . S
Eu441 O456 2.479 . S
Eu441 O457 2.471 . S
Eu441 O458 2.347 . S
Eu441 O461 2.366 . S
Eu441 C471 2.825 . S
C442 O458 1.259 . S
C442 O459 1.265 . S
C443 O460 1.255 . S
C443 O461 1.265 . S
C444 C446 1.380 . S
C444 C447 1.374 . S
C444 C450 1.507 1_556 S
C445 C446 1.384 . S
C445 C449 1.387 . S
C445 H472 0.930 . S
C446 C444 1.380 . S
C446 C445 1.384 . S
C446 H473 0.931 . S
C447 C444 1.374 . S
C447 C448 1.390 . S
C447 H474 0.930 . S
C448 C447 1.390 . S
C448 C449 1.391 . S
C448 H475 0.930 . S
C449 C445 1.387 . S
C449 C448 1.391 . S
C450 Tb440 2.825 . S
C450 C444 1.507 1_554 S
C450 O463 1.238 . S
C450 O464 1.247 . S
O451 Tb440 2.347 . S
O451 C455 1.259 . S
O452 Eu441 2.418 . S
O452 C455 1.265 . S
O453 Eu441 2.384 . S
O453 C462 1.255 . S
O454 Tb440 2.366 . S
O454 C462 1.265 . S
C455 O451 1.259 . S
C455 O452 1.265 . S
O456 Eu441 2.479 . S
O456 C471 1.238 . S
O457 Eu441 2.471 . S
O457 C471 1.247 . S
O458 Eu441 2.347 . S
O458 C442 1.259 . S
O459 Tb440 2.418 . S
O459 C442 1.265 . S
O460 Tb440 2.384 . S
O460 C443 1.255 . S
O461 Eu441 2.366 . S
O461 C443 1.265 . S
C462 O453 1.255 . S
C462 O454 1.265 . S
O463 Tb440 2.479 . S
O463 C450 1.238 . S
O464 Tb440 2.471 . S
O464 C450 1.247 . S
C465 C468 1.380 . S
C465 C469 1.374 . S
C465 C471 1.507 . S
C466 C467 1.387 . S
C466 C470 1.391 . S
C467 C466 1.387 . S
C467 C468 1.384 . S
C467 H476 0.930 . S
C468 C465 1.380 . S
C468 C467 1.384 . S
C468 H477 0.931 . S
C469 C465 1.374 . S
C469 C470 1.390 . S
C469 H478 0.930 . S
C470 C466 1.391 . S
C470 C469 1.390 . S
C470 H479 0.930 . S
C471 Eu441 2.825 . S
C471 O456 1.238 . S
C471 O457 1.247 . S
C471 C465 1.507 . S
H472 C445 0.930 . S
H473 C446 0.931 . S
H474 C447 0.930 . S
H475 C448 0.930 . S
H476 C467 0.930 . S
H477 C468 0.931 . S
H478 C469 0.930 . S
H479 C470 0.930 . S
H480 C498 0.951 . S
H481 C500 0.951 . S
H482 C502 0.950 . S
H483 C503 0.950 . S
H484 C505 0.950 . S
H485 C508 0.950 . S
H486 C509 0.950 . S
H487 C511 0.950 . S
H488 C512 0.950 . S
H489 C513 0.951 . S
H490 C515 0.951 . S
H491 C517 0.950 . S
H492 C518 0.950 . S
H493 C520 0.950 . S
H494 C523 0.950 . S
H495 C524 0.950 . S
H496 C526 0.950 . S
H497 C527 0.950 . S
C498 H480 0.951 . S
C498 C499 1.366 . S
C498 C500 1.388 . S
C499 C498 1.366 . S
C499 C503 1.385 . S
C500 H481 0.951 . S
C500 C498 1.388 . S
C500 C501 1.366 . S
C501 C500 1.366 . S
C501 C502 1.414 . S
C501 C504 1.499 . S
C502 H482 0.950 . S
C502 C501 1.414 . S
C502 C503 1.374 . S
C503 H483 0.950 . S
C503 C499 1.385 . S
C503 C502 1.374 . S
C504 C501 1.499 . S
C504 C505 1.373 . S
C504 C506 1.389 . S
C505 H484 0.950 . S
C505 C504 1.373 . S
C505 C521 1.377 . S
C506 C504 1.389 . S
C506 C507 1.524 . S
C506 C520 1.377 . S
C507 C506 1.524 . S
C507 C508 1.397 . S
C507 C512 1.363 . S
C508 H485 0.950 . S
C508 C507 1.397 . S
C508 C509 1.334 . S
C509 H486 0.950 . S
C509 C508 1.334 . S
C509 C510 1.287 . S
C510 C509 1.287 . S
C510 C511 1.524 . S
C510 H529 0.913 . S
C511 H487 0.950 . S
C511 C510 1.524 . S
C511 C512 1.415 . S
C512 H488 0.950 . S
C512 C507 1.363 . S
C512 C511 1.415 . S
C513 H489 0.951 . S
C513 C514 1.366 . S
C513 C515 1.388 . S
C514 C513 1.366 . S
C514 C518 1.385 . S
C515 H490 0.951 . S
C515 C513 1.388 . S
C515 C516 1.366 . S
C516 C515 1.366 . S
C516 C517 1.414 . S
C516 C519 1.499 . S
C517 H491 0.950 . S
C517 C516 1.414 . S
C517 C518 1.374 . S
C518 H492 0.950 . S
C518 C514 1.385 . S
C518 C517 1.374 . S
C519 C516 1.499 . S
C519 C520 1.373 . S
C519 C521 1.389 . S
C520 H493 0.950 . S
C520 C506 1.377 . S
C520 C519 1.373 . S
C521 C505 1.377 . S
C521 C519 1.389 . S
C521 C522 1.524 . S
C522 C521 1.524 . S
C522 C523 1.397 . S
C522 C527 1.363 . S
C523 H494 0.950 . S
C523 C522 1.397 . S
C523 C524 1.334 . S
C524 H495 0.950 . S
C524 C523 1.334 . S
C524 C525 1.287 . S
C525 C524 1.287 . S
C525 C526 1.524 . S
C525 H528 0.999 . S
C526 H496 0.950 . S
C526 C525 1.524 . S
C526 C527 1.415 . S
C527 H497 0.950 . S
C527 C522 1.363 . S
C527 C526 1.415 . S
H528 C525 0.999 . S
H529 C510 0.913 . S
H530 C548 0.951 . S
H531 C550 0.951 . S
H532 C552 0.950 . S
H533 C553 0.950 . S
H534 C555 0.950 . S
H535 C558 0.950 . S
H536 C559 0.950 . S
H537 C561 0.950 . S
H538 C562 0.950 . S
H539 C563 0.951 . S
H540 C565 0.951 . S
H541 C567 0.950 . S
H542 C568 0.950 . S
H543 C570 0.950 . S
H544 C573 0.950 . S
H545 C574 0.950 . S
H546 C576 0.950 . S
H547 C577 0.950 . S
C548 H530 0.951 . S
C548 C549 1.366 . S
C548 C550 1.388 . S
C549 C548 1.366 . S
C549 C553 1.385 . S
C550 H531 0.951 . S
C550 C548 1.388 . S
C550 C551 1.366 . S
C551 C550 1.366 . S
C551 C552 1.414 . S
C551 C554 1.499 . S
C552 H532 0.950 . S
C552 C551 1.414 . S
C552 C553 1.374 . S
C553 H533 0.950 . S
C553 C549 1.385 . S
C553 C552 1.374 . S
C554 C551 1.499 . S
C554 C555 1.373 . S
C554 C556 1.389 . S
C555 H534 0.950 . S
C555 C554 1.373 . S
C555 C571 1.377 . S
C556 C554 1.389 . S
C556 C557 1.524 . S
C556 C570 1.377 . S
C557 C556 1.524 . S
C557 C558 1.397 . S
C557 C562 1.363 . S
C558 H535 0.950 . S
C558 C557 1.397 . S
C558 C559 1.334 . S
C559 H536 0.950 . S
C559 C558 1.334 . S
C559 C560 1.287 . S
C560 C559 1.287 . S
C560 C561 1.524 . S
C560 H579 0.913 . S
C561 H537 0.950 . S
C561 C560 1.524 . S
C561 C562 1.415 . S
C562 H538 0.950 . S
C562 C557 1.363 . S
C562 C561 1.415 . S
C563 H539 0.951 . S
C563 C564 1.366 . S
C563 C565 1.388 . S
C564 C563 1.366 . S
C564 C568 1.385 . S
C565 H540 0.951 . S
C565 C563 1.388 . S
C565 C566 1.366 . S
C566 C565 1.366 . S
C566 C567 1.414 . S
C566 C569 1.499 . S
C567 H541 0.950 . S
C567 C566 1.414 . S
C567 C568 1.374 . S
C568 H542 0.950 . S
C568 C564 1.385 . S
C568 C567 1.374 . S
C569 C566 1.499 . S
C569 C570 1.373 . S
C569 C571 1.389 . S
C570 H543 0.950 . S
C570 C556 1.377 . S
C570 C569 1.373 . S
C571 C555 1.377 . S
C571 C569 1.389 . S
C571 C572 1.524 . S
C572 C571 1.524 . S
C572 C573 1.397 . S
C572 C577 1.363 . S
C573 H544 0.950 . S
C573 C572 1.397 . S
C573 C574 1.334 . S
C574 H545 0.950 . S
C574 C573 1.334 . S
C574 C575 1.287 . S
C575 C574 1.287 . S
C575 C576 1.524 . S
C575 H578 0.999 . S
C576 H546 0.950 . S
C576 C575 1.524 . S
C576 C577 1.415 . S
C577 H547 0.950 . S
C577 C572 1.363 . S
C577 C576 1.415 . S
H578 C575 0.999 . S
H579 C560 0.913 . S
H580 C598 0.951 . S
H581 C600 0.951 . S
H582 C602 0.950 . S
H583 C603 0.950 . S
H584 C605 0.950 . S
H585 C608 0.950 . S
H586 C609 0.950 . S
H587 C611 0.950 . S
H588 C612 0.950 . S
H589 C613 0.951 . S
H590 C615 0.951 . S
H591 C617 0.950 . S
H592 C618 0.950 . S
H593 C620 0.950 . S
H594 C623 0.950 . S
H595 C624 0.950 . S
H596 C626 0.950 . S
H597 C627 0.950 . S
C598 H580 0.951 . S
C598 C599 1.366 . S
C598 C600 1.388 . S
C599 C598 1.366 . S
C599 C603 1.385 . S
C600 H581 0.951 . S
C600 C598 1.388 . S
C600 C601 1.366 . S
C601 C600 1.366 . S
C601 C602 1.414 . S
C601 C604 1.499 . S
C602 H582 0.950 . S
C602 C601 1.414 . S
C602 C603 1.374 . S
C603 H583 0.950 . S
C603 C599 1.385 . S
C603 C602 1.374 . S
C604 C601 1.499 . S
C604 C605 1.373 . S
C604 C606 1.389 . S
C605 H584 0.950 . S
C605 C604 1.373 . S
C605 C621 1.377 . S
C606 C604 1.389 . S
C606 C607 1.524 . S
C606 C620 1.377 . S
C607 C606 1.524 . S
C607 C608 1.397 . S
C607 C612 1.363 . S
C608 H585 0.950 . S
C608 C607 1.397 . S
C608 C609 1.334 . S
C609 H586 0.950 . S
C609 C608 1.334 . S
C609 C610 1.287 . S
C610 C609 1.287 . S
C610 C611 1.524 . S
C610 H629 0.913 . S
C611 H587 0.950 . S
C611 C610 1.524 . S
C611 C612 1.415 . S
C612 H588 0.950 . S
C612 C607 1.363 . S
C612 C611 1.415 . S
C613 H589 0.951 . S
C613 C614 1.366 . S
C613 C615 1.388 . S
C614 C613 1.366 . S
C614 C618 1.385 . S
C615 H590 0.951 . S
C615 C613 1.388 . S
C615 C616 1.366 . S
C616 C615 1.366 . S
C616 C617 1.414 . S
C616 C619 1.499 . S
C617 H591 0.950 . S
C617 C616 1.414 . S
C617 C618 1.374 . S
C618 H592 0.950 . S
C618 C614 1.385 . S
C618 C617 1.374 . S
C619 C616 1.499 . S
C619 C620 1.373 . S
C619 C621 1.389 . S
C620 H593 0.950 . S
C620 C606 1.377 . S
C620 C619 1.373 . S
C621 C605 1.377 . S
C621 C619 1.389 . S
C621 C622 1.524 . S
C622 C621 1.524 . S
C622 C623 1.397 . S
C622 C627 1.363 . S
C623 H594 0.950 . S
C623 C622 1.397 . S
C623 C624 1.334 . S
C624 H595 0.950 . S
C624 C623 1.334 . S
C624 C625 1.287 . S
C625 C624 1.287 . S
C625 C626 1.524 . S
C625 H628 0.999 . S
C626 H596 0.950 . S
C626 C625 1.524 . S
C626 C627 1.415 . S
C627 H597 0.950 . S
C627 C622 1.363 . S
C627 C626 1.415 . S
H628 C625 0.999 . S
H629 C610 0.913 . S
H630 C648 0.951 . S
H631 C650 0.951 . S
H632 C652 0.950 . S
H633 C653 0.950 . S
H634 C655 0.950 . S
H635 C658 0.950 . S
H636 C659 0.950 . S
H637 C661 0.950 . S
H638 C662 0.950 . S
H639 C663 0.951 . S
H640 C665 0.951 . S
H641 C667 0.950 . S
H642 C668 0.950 . S
H643 C670 0.950 . S
H644 C673 0.950 . S
H645 C674 0.950 . S
H646 C676 0.950 . S
H647 C677 0.950 . S
C648 H630 0.951 . S
C648 C649 1.366 . S
C648 C650 1.388 . S
C649 C648 1.366 . S
C649 C653 1.385 . S
C650 H631 0.951 . S
C650 C648 1.388 . S
C650 C651 1.366 . S
C651 C650 1.366 . S
C651 C652 1.414 . S
C651 C654 1.499 . S
C652 H632 0.950 . S
C652 C651 1.414 . S
C652 C653 1.374 . S
C653 H633 0.950 . S
C653 C649 1.385 . S
C653 C652 1.374 . S
C654 C651 1.499 . S
C654 C655 1.373 . S
C654 C656 1.389 . S
C655 H634 0.950 . S
C655 C654 1.373 . S
C655 C671 1.377 . S
C656 C654 1.389 . S
C656 C657 1.524 . S
C656 C670 1.377 . S
C657 C656 1.524 . S
C657 C658 1.397 . S
C657 C662 1.363 . S
C658 H635 0.950 . S
C658 C657 1.397 . S
C658 C659 1.334 . S
C659 H636 0.950 . S
C659 C658 1.334 . S
C659 C660 1.287 . S
C660 C659 1.287 . S
C660 C661 1.524 . S
C660 H679 0.913 . S
C661 H637 0.950 . S
C661 C660 1.524 . S
C661 C662 1.415 . S
C662 H638 0.950 . S
C662 C657 1.363 . S
C662 C661 1.415 . S
C663 H639 0.951 . S
C663 C664 1.366 . S
C663 C665 1.388 . S
C664 C663 1.366 . S
C664 C668 1.385 . S
C665 H640 0.951 . S
C665 C663 1.388 . S
C665 C666 1.366 . S
C666 C665 1.366 . S
C666 C667 1.414 . S
C666 C669 1.499 . S
C667 H641 0.950 . S
C667 C666 1.414 . S
C667 C668 1.374 . S
C668 H642 0.950 . S
C668 C664 1.385 . S
C668 C667 1.374 . S
C669 C666 1.499 . S
C669 C670 1.373 . S
C669 C671 1.389 . S
C670 H643 0.950 . S
C670 C656 1.377 . S
C670 C669 1.373 . S
C671 C655 1.377 . S
C671 C669 1.389 . S
C671 C672 1.524 . S
C672 C671 1.524 . S
C672 C673 1.397 . S
C672 C677 1.363 . S
C673 H644 0.950 . S
C673 C672 1.397 . S
C673 C674 1.334 . S
C674 H645 0.950 . S
C674 C673 1.334 . S
C674 C675 1.287 . S
C675 C674 1.287 . S
C675 C676 1.524 . S
C675 H678 0.999 . S
C676 H646 0.950 . S
C676 C675 1.524 . S
C676 C677 1.415 . S
C677 H647 0.950 . S
C677 C672 1.363 . S
C677 C676 1.415 . S
H678 C675 0.999 . S
H679 C660 0.913 . S
H680 C698 0.951 . S
H681 C700 0.951 . S
H682 C702 0.950 . S
H683 C703 0.950 . S
H684 C705 0.950 . S
H685 C708 0.950 . S
H686 C709 0.950 . S
H687 C711 0.950 . S
H688 C712 0.950 . S
H689 C713 0.951 . S
H690 C715 0.951 . S
H691 C717 0.950 . S
H692 C718 0.950 . S
H693 C720 0.950 . S
H694 C723 0.950 . S
H695 C724 0.950 . S
H696 C726 0.950 . S
H697 C727 0.950 . S
C698 H680 0.951 . S
C698 C699 1.366 . S
C698 C700 1.388 . S
C699 C698 1.366 . S
C699 C703 1.385 . S
C700 H681 0.951 . S
C700 C698 1.388 . S
C700 C701 1.366 . S
C701 C700 1.366 . S
C701 C702 1.414 . S
C701 C704 1.499 . S
C702 H682 0.950 . S
C702 C701 1.414 . S
C702 C703 1.374 . S
C703 H683 0.950 . S
C703 C699 1.385 . S
C703 C702 1.374 . S
C704 C701 1.499 . S
C704 C705 1.373 . S
C704 C706 1.389 . S
C705 H684 0.950 . S
C705 C704 1.373 . S
C705 C721 1.377 . S
C706 C704 1.389 . S
C706 C707 1.524 . S
C706 C720 1.377 . S
C707 C706 1.524 . S
C707 C708 1.397 . S
C707 C712 1.363 . S
C708 H685 0.950 . S
C708 C707 1.397 . S
C708 C709 1.334 . S
C709 H686 0.950 . S
C709 C708 1.334 . S
C709 C710 1.287 . S
C710 C709 1.287 . S
C710 C711 1.524 . S
C710 H729 0.913 . S
C711 H687 0.950 . S
C711 C710 1.524 . S
C711 C712 1.415 . S
C712 H688 0.950 . S
C712 C707 1.363 . S
C712 C711 1.415 . S
C713 H689 0.951 . S
C713 C714 1.366 . S
C713 C715 1.388 . S
C714 C713 1.366 . S
C714 C718 1.385 . S
C715 H690 0.951 . S
C715 C713 1.388 . S
C715 C716 1.366 . S
C716 C715 1.366 . S
C716 C717 1.414 . S
C716 C719 1.499 . S
C717 H691 0.950 . S
C717 C716 1.414 . S
C717 C718 1.374 . S
C718 H692 0.950 . S
C718 C714 1.385 . S
C718 C717 1.374 . S
C719 C716 1.499 . S
C719 C720 1.373 . S
C719 C721 1.389 . S
C720 H693 0.950 . S
C720 C706 1.377 . S
C720 C719 1.373 . S
C721 C705 1.377 . S
C721 C719 1.389 . S
C721 C722 1.524 . S
C722 C721 1.524 . S
C722 C723 1.397 . S
C722 C727 1.363 . S
C723 H694 0.950 . S
C723 C722 1.397 . S
C723 C724 1.334 . S
C724 H695 0.950 . S
C724 C723 1.334 . S
C724 C725 1.287 . S
C725 C724 1.287 . S
C725 C726 1.524 . S
C725 H728 0.999 . S
C726 H696 0.950 . S
C726 C725 1.524 . S
C726 C727 1.415 . S
C727 H697 0.950 . S
C727 C722 1.363 . S
C727 C726 1.415 . S
H728 C725 0.999 . S
H729 C710 0.913 . S
H730 C748 0.951 . S
H731 C750 0.951 . S
H732 C752 0.950 . S
H733 C753 0.950 . S
H734 C755 0.950 . S
H735 C758 0.950 . S
H736 C759 0.950 . S
H737 C761 0.950 . S
H738 C762 0.950 . S
H739 C763 0.951 . S
H740 C765 0.951 . S
H741 C767 0.950 . S
H742 C768 0.950 . S
H743 C770 0.950 . S
H744 C773 0.950 . S
H745 C774 0.950 . S
H746 C776 0.950 . S
H747 C777 0.950 . S
C748 H730 0.951 . S
C748 C749 1.366 . S
C748 C750 1.388 . S
C749 C748 1.366 . S
C749 C753 1.385 . S
C750 H731 0.951 . S
C750 C748 1.388 . S
C750 C751 1.366 . S
C751 C750 1.366 . S
C751 C752 1.414 . S
C751 C754 1.499 . S
C752 H732 0.950 . S
C752 C751 1.414 . S
C752 C753 1.374 . S
C753 H733 0.950 . S
C753 C749 1.385 . S
C753 C752 1.374 . S
C754 C751 1.499 . S
C754 C755 1.373 . S
C754 C756 1.389 . S
C755 H734 0.950 . S
C755 C754 1.373 . S
C755 C771 1.377 . S
C756 C754 1.389 . S
C756 C757 1.524 . S
C756 C770 1.377 . S
C757 C756 1.524 . S
C757 C758 1.397 . S
C757 C762 1.363 . S
C758 H735 0.950 . S
C758 C757 1.397 . S
C758 C759 1.334 . S
C759 H736 0.950 . S
C759 C758 1.334 . S
C759 C760 1.287 . S
C760 C759 1.287 . S
C760 C761 1.524 . S
C760 H779 0.913 . S
C761 H737 0.950 . S
C761 C760 1.524 . S
C761 C762 1.415 . S
C762 H738 0.950 . S
C762 C757 1.363 . S
C762 C761 1.415 . S
C763 H739 0.951 . S
C763 C764 1.366 . S
C763 C765 1.388 . S
C764 C763 1.366 . S
C764 C768 1.385 . S
C765 H740 0.951 . S
C765 C763 1.388 . S
C765 C766 1.366 . S
C766 C765 1.366 . S
C766 C767 1.414 . S
C766 C769 1.499 . S
C767 H741 0.950 . S
C767 C766 1.414 . S
C767 C768 1.374 . S
C768 H742 0.950 . S
C768 C764 1.385 . S
C768 C767 1.374 . S
C769 C766 1.499 . S
C769 C770 1.373 . S
C769 C771 1.389 . S
C770 H743 0.950 . S
C770 C756 1.377 . S
C770 C769 1.373 . S
C771 C755 1.377 . S
C771 C769 1.389 . S
C771 C772 1.524 . S
C772 C771 1.524 . S
C772 C773 1.397 . S
C772 C777 1.363 . S
C773 H744 0.950 . S
C773 C772 1.397 . S
C773 C774 1.334 . S
C774 H745 0.950 . S
C774 C773 1.334 . S
C774 C775 1.287 . S
C775 C774 1.287 . S
C775 C776 1.524 . S
C775 H778 0.999 . S
C776 H746 0.950 . S
C776 C775 1.524 . S
C776 C777 1.415 . S
C777 H747 0.950 . S
C777 C772 1.363 . S
C777 C776 1.415 . S
H778 C775 0.999 . S
H779 C760 0.913 . S
H780 C798 0.951 . S
H781 C800 0.951 . S
H782 C802 0.950 . S
H783 C803 0.950 . S
H784 C805 0.950 . S
H785 C808 0.950 . S
H786 C809 0.950 . S
H787 C811 0.950 . S
H788 C812 0.950 . S
H789 C813 0.951 . S
H790 C815 0.951 . S
H791 C817 0.950 . S
H792 C818 0.950 . S
H793 C820 0.950 . S
H794 C823 0.950 . S
H795 C824 0.950 . S
H796 C826 0.950 . S
H797 C827 0.950 . S
C798 H780 0.951 . S
C798 C799 1.366 . S
C798 C800 1.388 . S
C799 C798 1.366 . S
C799 C803 1.385 . S
C800 H781 0.951 . S
C800 C798 1.388 . S
C800 C801 1.366 . S
C801 C800 1.366 . S
C801 C802 1.414 . S
C801 C804 1.499 . S
C802 H782 0.950 . S
C802 C801 1.414 . S
C802 C803 1.374 . S
C803 H783 0.950 . S
C803 C799 1.385 . S
C803 C802 1.374 . S
C804 C801 1.499 . S
C804 C805 1.373 . S
C804 C806 1.389 . S
C805 H784 0.950 . S
C805 C804 1.373 . S
C805 C821 1.377 1_556 S
C806 C804 1.389 . S
C806 C807 1.524 . S
C806 C820 1.377 1_556 S
C807 C806 1.524 . S
C807 C808 1.397 . S
C807 C812 1.363 . S
C808 H785 0.950 . S
C808 C807 1.397 . S
C808 C809 1.334 . S
C809 H786 0.950 . S
C809 C808 1.334 . S
C809 C810 1.287 . S
C810 C809 1.287 . S
C810 C811 1.524 . S
C810 H829 0.913 . S
C811 H787 0.950 . S
C811 C810 1.524 . S
C811 C812 1.415 . S
C812 H788 0.950 . S
C812 C807 1.363 . S
C812 C811 1.415 . S
C813 H789 0.951 . S
C813 C814 1.366 . S
C813 C815 1.388 . S
C814 C813 1.366 . S
C814 C818 1.385 . S
C815 H790 0.951 . S
C815 C813 1.388 . S
C815 C816 1.366 . S
C816 C815 1.366 . S
C816 C817 1.414 . S
C816 C819 1.499 . S
C817 H791 0.950 . S
C817 C816 1.414 . S
C817 C818 1.374 . S
C818 H792 0.950 . S
C818 C814 1.385 . S
C818 C817 1.374 . S
C819 C816 1.499 . S
C819 C820 1.373 . S
C819 C821 1.389 . S
C820 H793 0.950 . S
C820 C806 1.377 1_554 S
C820 C819 1.373 . S
C821 C805 1.377 1_554 S
C821 C819 1.389 . S
C821 C822 1.524 . S
C822 C821 1.524 . S
C822 C823 1.397 . S
C822 C827 1.363 . S
C823 H794 0.950 . S
C823 C822 1.397 . S
C823 C824 1.334 . S
C824 H795 0.950 . S
C824 C823 1.334 . S
C824 C825 1.287 . S
C825 C824 1.287 . S
C825 C826 1.524 . S
C825 H828 0.999 . S
C826 H796 0.950 . S
C826 C825 1.524 . S
C826 C827 1.415 . S
C827 H797 0.950 . S
C827 C822 1.363 . S
C827 C826 1.415 . S
H828 C825 0.999 . S
H829 C810 0.913 . S
H830 C848 0.951 . S
H831 C850 0.951 . S
H832 C852 0.950 . S
H833 C853 0.950 . S
H834 C855 0.950 . S
H835 C858 0.950 . S
H836 C859 0.950 . S
H837 C861 0.950 . S
H838 C862 0.950 . S
H839 C863 0.951 . S
H840 C865 0.951 . S
H841 C867 0.950 . S
H842 C868 0.950 . S
H843 C870 0.950 . S
H844 C873 0.950 . S
H845 C874 0.950 . S
H846 C876 0.950 . S
H847 C877 0.950 . S
C848 H830 0.951 . S
C848 C849 1.366 . S
C848 C850 1.388 . S
C849 C848 1.366 . S
C849 C853 1.385 . S
C850 H831 0.951 . S
C850 C848 1.388 . S
C850 C851 1.366 . S
C851 C850 1.366 . S
C851 C852 1.414 . S
C851 C854 1.499 . S
C852 H832 0.950 . S
C852 C851 1.414 . S
C852 C853 1.374 . S
C853 H833 0.950 . S
C853 C849 1.385 . S
C853 C852 1.374 . S
C854 C851 1.499 . S
C854 C855 1.373 . S
C854 C856 1.389 . S
C855 H834 0.950 . S
C855 C854 1.373 . S
C855 C871 1.377 . S
C856 C854 1.389 . S
C856 C857 1.524 . S
C856 C870 1.377 . S
C857 C856 1.524 . S
C857 C858 1.397 . S
C857 C862 1.363 . S
C858 H835 0.950 . S
C858 C857 1.397 . S
C858 C859 1.334 . S
C859 H836 0.950 . S
C859 C858 1.334 . S
C859 C860 1.287 . S
C860 C859 1.287 . S
C860 C861 1.524 . S
C860 H879 0.913 . S
C861 H837 0.950 . S
C861 C860 1.524 . S
C861 C862 1.415 . S
C862 H838 0.950 . S
C862 C857 1.363 . S
C862 C861 1.415 . S
C863 H839 0.951 . S
C863 C864 1.366 . S
C863 C865 1.388 . S
C864 C863 1.366 . S
C864 C868 1.385 . S
C865 H840 0.951 . S
C865 C863 1.388 . S
C865 C866 1.366 . S
C866 C865 1.366 . S
C866 C867 1.414 . S
C866 C869 1.499 . S
C867 H841 0.950 . S
C867 C866 1.414 . S
C867 C868 1.374 . S
C868 H842 0.950 . S
C868 C864 1.385 . S
C868 C867 1.374 . S
C869 C866 1.499 . S
C869 C870 1.373 . S
C869 C871 1.389 . S
C870 H843 0.950 . S
C870 C856 1.377 . S
C870 C869 1.373 . S
C871 C855 1.377 . S
C871 C869 1.389 . S
C871 C872 1.524 . S
C872 C871 1.524 . S
C872 C873 1.397 . S
C872 C877 1.363 . S
C873 H844 0.950 . S
C873 C872 1.397 . S
C873 C874 1.334 . S
C874 H845 0.950 . S
C874 C873 1.334 . S
C874 C875 1.287 . S
C875 C874 1.287 . S
C875 C876 1.524 . S
C875 H878 0.999 . S
C876 H846 0.950 . S
C876 C875 1.524 . S
C876 C877 1.415 . S
C877 H847 0.950 . S
C877 C872 1.363 . S
C877 C876 1.415 . S
H878 C875 0.999 . S
H879 C860 0.913 . S
H880 C898 0.951 . S
H881 C900 0.951 . S
H882 C902 0.950 . S
H883 C903 0.950 . S
H884 C905 0.950 . S
H885 C908 0.950 . S
H886 C909 0.950 . S
H887 C911 0.950 . S
H888 C912 0.950 . S
H889 C913 0.951 . S
H890 C915 0.951 . S
H891 C917 0.950 . S
H892 C918 0.950 . S
H893 C920 0.950 . S
H894 C923 0.950 . S
H895 C924 0.950 . S
H896 C926 0.950 . S
H897 C927 0.950 . S
C898 H880 0.951 . S
C898 C899 1.366 . S
C898 C900 1.388 . S
C899 C898 1.366 . S
C899 C903 1.385 . S
C900 H881 0.951 . S
C900 C898 1.388 . S
C900 C901 1.366 . S
C901 C900 1.366 . S
C901 C902 1.414 . S
C901 C904 1.499 . S
C902 H882 0.950 . S
C902 C901 1.414 . S
C902 C903 1.374 . S
C903 H883 0.950 . S
C903 C899 1.385 . S
C903 C902 1.374 . S
C904 C901 1.499 . S
C904 C905 1.373 . S
C904 C906 1.389 . S
C905 H884 0.950 . S
C905 C904 1.373 . S
C905 C921 1.377 . S
C906 C904 1.389 . S
C906 C907 1.524 . S
C906 C920 1.377 . S
C907 C906 1.524 . S
C907 C908 1.397 . S
C907 C912 1.363 . S
C908 H885 0.950 . S
C908 C907 1.397 . S
C908 C909 1.334 . S
C909 H886 0.950 . S
C909 C908 1.334 . S
C909 C910 1.287 . S
C910 C909 1.287 . S
C910 C911 1.524 . S
C910 H929 0.913 . S
C911 H887 0.950 . S
C911 C910 1.524 . S
C911 C912 1.415 . S
C912 H888 0.950 . S
C912 C907 1.363 . S
C912 C911 1.415 . S
C913 H889 0.951 . S
C913 C914 1.366 . S
C913 C915 1.388 . S
C914 C913 1.366 . S
C914 C918 1.385 . S
C915 H890 0.951 . S
C915 C913 1.388 . S
C915 C916 1.366 . S
C916 C915 1.366 . S
C916 C917 1.414 . S
C916 C919 1.499 . S
C917 H891 0.950 . S
C917 C916 1.414 . S
C917 C918 1.374 . S
C918 H892 0.950 . S
C918 C914 1.385 . S
C918 C917 1.374 . S
C919 C916 1.499 . S
C919 C920 1.373 . S
C919 C921 1.389 . S
C920 H893 0.950 . S
C920 C906 1.377 . S
C920 C919 1.373 . S
C921 C905 1.377 . S
C921 C919 1.389 . S
C921 C922 1.524 . S
C922 C921 1.524 . S
C922 C923 1.397 . S
C922 C927 1.363 . S
C923 H894 0.950 . S
C923 C922 1.397 . S
C923 C924 1.334 . S
C924 H895 0.950 . S
C924 C923 1.334 . S
C924 C925 1.287 . S
C925 C924 1.287 . S
C925 C926 1.524 . S
C925 H928 0.999 . S
C926 H896 0.950 . S
C926 C925 1.524 . S
C926 C927 1.415 . S
C927 H897 0.950 . S
C927 C922 1.363 . S
C927 C926 1.415 . S
H928 C925 0.999 . S
H929 C910 0.913 . S
H930 C948 0.951 . S
H931 C950 0.951 . S
H932 C952 0.950 . S
H933 C953 0.950 . S
H934 C955 0.950 . S
H935 C958 0.950 . S
H936 C959 0.950 . S
H937 C961 0.950 . S
H938 C962 0.950 . S
H939 C963 0.951 . S
H940 C965 0.951 . S
H941 C967 0.950 . S
H942 C968 0.950 . S
H943 C970 0.950 . S
H944 C973 0.950 . S
H945 C974 0.950 . S
H946 C976 0.950 . S
H947 C977 0.950 . S
C948 H930 0.951 . S
C948 C949 1.366 . S
C948 C950 1.388 . S
C949 C948 1.366 . S
C949 C953 1.385 . S
C950 H931 0.951 . S
C950 C948 1.388 . S
C950 C951 1.366 . S
C951 C950 1.366 . S
C951 C952 1.414 . S
C951 C954 1.499 . S
C952 H932 0.950 . S
C952 C951 1.414 . S
C952 C953 1.374 . S
C953 H933 0.950 . S
C953 C949 1.385 . S
C953 C952 1.374 . S
C954 C951 1.499 . S
C954 C955 1.373 . S
C954 C956 1.389 . S
C955 H934 0.950 . S
C955 C954 1.373 . S
C955 C971 1.377 1_556 S
C956 C954 1.389 . S
C956 C957 1.524 . S
C956 C970 1.377 1_556 S
C957 C956 1.524 . S
C957 C958 1.397 . S
C957 C962 1.363 1_556 S
C958 H935 0.950 . S
C958 C957 1.397 . S
C958 C959 1.334 . S
C959 H936 0.950 . S
C959 C958 1.334 . S
C959 C960 1.287 . S
C960 C959 1.287 . S
C960 C961 1.524 1_556 S
C960 H979 0.913 . S
C961 H937 0.950 . S
C961 C960 1.524 1_554 S
C961 C962 1.415 . S
C962 H938 0.950 . S
C962 C957 1.363 1_554 S
C962 C961 1.415 . S
C963 H939 0.951 . S
C963 C964 1.366 . S
C963 C965 1.388 . S
C964 C963 1.366 . S
C964 C968 1.385 . S
C965 H940 0.951 . S
C965 C963 1.388 . S
C965 C966 1.366 . S
C966 C965 1.366 . S
C966 C967 1.414 . S
C966 C969 1.499 . S
C967 H941 0.950 . S
C967 C966 1.414 . S
C967 C968 1.374 . S
C968 H942 0.950 . S
C968 C964 1.385 . S
C968 C967 1.374 . S
C969 C966 1.499 . S
C969 C970 1.373 . S
C969 C971 1.389 . S
C970 H943 0.950 . S
C970 C956 1.377 1_554 S
C970 C969 1.373 . S
C971 C955 1.377 1_554 S
C971 C969 1.389 . S
C971 C972 1.524 . S
C972 C971 1.524 . S
C972 C973 1.397 . S
C972 C977 1.363 1_554 S
C973 H944 0.950 . S
C973 C972 1.397 . S
C973 C974 1.334 . S
C974 H945 0.950 . S
C974 C973 1.334 . S
C974 C975 1.287 . S
C975 C974 1.287 . S
C975 C976 1.524 1_554 S
C975 H978 0.999 . S
C976 H946 0.950 . S
C976 C975 1.524 1_556 S
C976 C977 1.415 . S
C977 H947 0.950 . S
C977 C972 1.363 1_556 S
C977 C976 1.415 . S
H978 C975 0.999 . S
H979 C960 0.913 . S
H980 C998 0.951 . S
H981 C1000 0.951 . S
H982 C1002 0.950 . S
H983 C1003 0.950 . S
H984 C1005 0.950 . S
H985 C1008 0.950 . S
H986 C1009 0.950 . S
H987 C1011 0.950 . S
H988 C1012 0.950 . S
H989 C1013 0.951 . S
H990 C1015 0.951 . S
H991 C1017 0.950 . S
H992 C1018 0.950 . S
H993 C1020 0.950 . S
H994 C1023 0.950 . S
H995 C1024 0.950 . S
H996 C1026 0.950 . S
H997 C1027 0.950 . S
C998 H980 0.951 . S
C998 C999 1.366 . S
C998 C1000 1.388 . S
C999 C998 1.366 . S
C999 C1003 1.385 . S
C1000 H981 0.951 . S
C1000 C998 1.388 . S
C1000 C1001 1.366 . S
C1001 C1000 1.366 . S
C1001 C1002 1.414 . S
C1001 C1004 1.499 . S
C1002 H982 0.950 . S
C1002 C1001 1.414 . S
C1002 C1003 1.374 . S
C1003 H983 0.950 . S
C1003 C999 1.385 . S
C1003 C1002 1.374 . S
C1004 C1001 1.499 . S
C1004 C1005 1.373 . S
C1004 C1006 1.389 . S
C1005 H984 0.950 . S
C1005 C1004 1.373 . S
C1005 C1021 1.377 . S
C1006 C1004 1.389 . S
C1006 C1007 1.524 . S
C1006 C1020 1.377 . S
C1007 C1006 1.524 . S
C1007 C1008 1.397 . S
C1007 C1012 1.363 . S
C1008 H985 0.950 . S
C1008 C1007 1.397 . S
C1008 C1009 1.334 . S
C1009 H986 0.950 . S
C1009 C1008 1.334 . S
C1009 C1010 1.287 . S
C1010 C1009 1.287 . S
C1010 C1011 1.524 . S
C1010 H1029 0.913 . S
C1011 H987 0.950 . S
C1011 C1010 1.524 . S
C1011 C1012 1.415 . S
C1012 H988 0.950 . S
C1012 C1007 1.363 . S
C1012 C1011 1.415 . S
C1013 H989 0.951 . S
C1013 C1014 1.366 . S
C1013 C1015 1.388 . S
C1014 C1013 1.366 . S
C1014 C1018 1.385 . S
C1015 H990 0.951 . S
C1015 C1013 1.388 . S
C1015 C1016 1.366 . S
C1016 C1015 1.366 . S
C1016 C1017 1.414 . S
C1016 C1019 1.499 . S
C1017 H991 0.950 . S
C1017 C1016 1.414 . S
C1017 C1018 1.374 . S
C1018 H992 0.950 . S
C1018 C1014 1.385 . S
C1018 C1017 1.374 . S
C1019 C1016 1.499 . S
C1019 C1020 1.373 . S
C1019 C1021 1.389 . S
C1020 H993 0.950 . S
C1020 C1006 1.377 . S
C1020 C1019 1.373 . S
C1021 C1005 1.377 . S
C1021 C1019 1.389 . S
C1021 C1022 1.524 . S
C1022 C1021 1.524 . S
C1022 C1023 1.397 . S
C1022 C1027 1.363 . S
C1023 H994 0.950 . S
C1023 C1022 1.397 . S
C1023 C1024 1.334 . S
C1024 H995 0.950 . S
C1024 C1023 1.334 . S
C1024 C1025 1.287 . S
C1025 C1024 1.287 . S
C1025 C1026 1.524 . S
C1025 H1028 0.999 . S
C1026 H996 0.950 . S
C1026 C1025 1.524 . S
C1026 C1027 1.415 . S
C1027 H997 0.950 . S
C1027 C1022 1.363 . S
C1027 C1026 1.415 . S
H1028 C1025 0.999 . S
H1029 C1010 0.913 . S
H1030 C1048 0.951 . S
H1031 C1050 0.951 . S
H1032 C1052 0.950 . S
H1033 C1053 0.950 . S
H1034 C1055 0.950 . S
H1035 C1058 0.950 . S
H1036 C1059 0.950 . S
H1037 C1061 0.950 . S
H1038 C1062 0.950 . S
H1039 C1063 0.951 . S
H1040 C1065 0.951 . S
H1041 C1067 0.950 . S
H1042 C1068 0.950 . S
H1043 C1070 0.950 . S
H1044 C1073 0.950 . S
H1045 C1074 0.950 . S
H1046 C1076 0.950 . S
H1047 C1077 0.950 . S
C1048 H1030 0.951 . S
C1048 C1049 1.366 . S
C1048 C1050 1.388 . S
C1049 C1048 1.366 . S
C1049 C1053 1.385 . S
C1050 H1031 0.951 . S
C1050 C1048 1.388 . S
C1050 C1051 1.366 . S
C1051 C1050 1.366 . S
C1051 C1052 1.414 . S
C1051 C1054 1.499 . S
C1052 H1032 0.950 . S
C1052 C1051 1.414 . S
C1052 C1053 1.374 . S
C1053 H1033 0.950 . S
C1053 C1049 1.385 . S
C1053 C1052 1.374 . S
C1054 C1051 1.499 . S
C1054 C1055 1.373 . S
C1054 C1056 1.389 . S
C1055 H1034 0.950 . S
C1055 C1054 1.373 . S
C1055 C1071 1.377 . S
C1056 C1054 1.389 . S
C1056 C1057 1.524 . S
C1056 C1070 1.377 . S
C1057 C1056 1.524 . S
C1057 C1058 1.397 . S
C1057 C1062 1.363 . S
C1058 H1035 0.950 . S
C1058 C1057 1.397 . S
C1058 C1059 1.334 . S
C1059 H1036 0.950 . S
C1059 C1058 1.334 . S
C1059 C1060 1.287 . S
C1060 C1059 1.287 . S
C1060 C1061 1.524 . S
C1060 H1079 0.913 . S
C1061 H1037 0.950 . S
C1061 C1060 1.524 . S
C1061 C1062 1.415 . S
C1062 H1038 0.950 . S
C1062 C1057 1.363 . S
C1062 C1061 1.415 . S
C1063 H1039 0.951 . S
C1063 C1064 1.366 . S
C1063 C1065 1.388 . S
C1064 C1063 1.366 . S
C1064 C1068 1.385 . S
C1065 H1040 0.951 . S
C1065 C1063 1.388 . S
C1065 C1066 1.366 . S
C1066 C1065 1.366 . S
C1066 C1067 1.414 . S
C1066 C1069 1.499 . S
C1067 H1041 0.950 . S
C1067 C1066 1.414 . S
C1067 C1068 1.374 . S
C1068 H1042 0.950 . S
C1068 C1064 1.385 . S
C1068 C1067 1.374 . S
C1069 C1066 1.499 . S
C1069 C1070 1.373 . S
C1069 C1071 1.389 . S
C1070 H1043 0.950 . S
C1070 C1056 1.377 . S
C1070 C1069 1.373 . S
C1071 C1055 1.377 . S
C1071 C1069 1.389 . S
C1071 C1072 1.524 . S
C1072 C1071 1.524 . S
C1072 C1073 1.397 . S
C1072 C1077 1.363 . S
C1073 H1044 0.950 . S
C1073 C1072 1.397 . S
C1073 C1074 1.334 . S
C1074 H1045 0.950 . S
C1074 C1073 1.334 . S
C1074 C1075 1.287 . S
C1075 C1074 1.287 . S
C1075 C1076 1.524 . S
C1075 H1078 0.999 . S
C1076 H1046 0.950 . S
C1076 C1075 1.524 . S
C1076 C1077 1.415 . S
C1077 H1047 0.950 . S
C1077 C1072 1.363 . S
C1077 C1076 1.415 . S
H1078 C1075 0.999 . S
H1079 C1060 0.913 . S
H1080 C1098 0.951 . S
H1081 C1100 0.951 . S
H1082 C1102 0.950 . S
H1083 C1103 0.950 . S
H1084 C1105 0.950 . S
H1085 C1108 0.950 . S
H1086 C1109 0.950 . S
H1087 C1111 0.950 . S
H1088 C1112 0.950 . S
H1089 C1113 0.951 . S
H1090 C1115 0.951 . S
H1091 C1117 0.950 . S
H1092 C1118 0.950 . S
H1093 C1120 0.950 . S
H1094 C1123 0.950 . S
H1095 C1124 0.950 . S
H1096 C1126 0.950 . S
H1097 C1127 0.950 . S
C1098 H1080 0.951 . S
C1098 C1099 1.366 . S
C1098 C1100 1.388 . S
C1099 C1098 1.366 . S
C1099 C1103 1.385 . S
C1100 H1081 0.951 . S
C1100 C1098 1.388 . S
C1100 C1101 1.366 . S
C1101 C1100 1.366 . S
C1101 C1102 1.414 . S
C1101 C1104 1.499 . S
C1102 H1082 0.950 . S
C1102 C1101 1.414 . S
C1102 C1103 1.374 . S
C1103 H1083 0.950 . S
C1103 C1099 1.385 . S
C1103 C1102 1.374 . S
C1104 C1101 1.499 . S
C1104 C1105 1.373 1_565 S
C1104 C1106 1.377 1_556 S
C1105 H1084 0.950 . S
C1105 C1104 1.373 1_545 S
C1105 C1121 1.390 . S
C1106 C1104 1.377 1_554 S
C1106 C1107 1.526 . S
C1106 C1120 1.389 . S
C1107 C1106 1.526 . S
C1107 C1108 1.397 1_554 S
C1107 C1112 1.363 . S
C1108 H1085 0.950 . S
C1108 C1107 1.397 1_556 S
C1108 C1109 1.334 . S
C1109 H1086 0.950 . S
C1109 C1108 1.334 . S
C1109 C1110 1.287 1_556 S
C1110 C1109 1.287 1_554 S
C1110 C1111 1.524 . S
C1110 H1129 0.913 . S
C1111 H1087 0.950 . S
C1111 C1110 1.524 . S
C1111 C1112 1.415 . S
C1112 H1088 0.950 . S
C1112 C1107 1.363 . S
C1112 C1111 1.415 . S
C1113 H1089 0.951 . S
C1113 C1114 1.366 . S
C1113 C1115 1.388 . S
C1114 C1113 1.366 . S
C1114 C1118 1.385 . S
C1115 H1090 0.951 . S
C1115 C1113 1.388 . S
C1115 C1116 1.366 . S
C1116 C1115 1.366 . S
C1116 C1117 1.414 . S
C1116 C1119 1.499 . S
C1117 H1091 0.950 . S
C1117 C1116 1.414 . S
C1117 C1118 1.374 . S
C1118 H1092 0.950 . S
C1118 C1114 1.385 . S
C1118 C1117 1.374 . S
C1119 C1116 1.499 . S
C1119 C1120 1.373 1_545 S
C1119 C1121 1.376 1_554 S
C1120 H1093 0.950 . S
C1120 C1106 1.389 . S
C1120 C1119 1.373 1_565 S
C1121 C1105 1.390 . S
C1121 C1119 1.376 1_556 S
C1121 C1122 1.526 . S
C1122 C1121 1.526 . S
C1122 C1123 1.397 1_556 S
C1122 C1127 1.363 . S
C1123 H1094 0.950 . S
C1123 C1122 1.397 1_554 S
C1123 C1124 1.334 . S
C1124 H1095 0.950 . S
C1124 C1123 1.334 . S
C1124 C1125 1.287 1_554 S
C1125 C1124 1.287 1_556 S
C1125 C1126 1.524 . S
C1125 H1128 0.999 . S
C1126 H1096 0.950 . S
C1126 C1125 1.524 . S
C1126 C1127 1.415 . S
C1127 H1097 0.950 . S
C1127 C1122 1.363 . S
C1127 C1126 1.415 . S
H1128 C1125 0.999 . S
H1129 C1110 0.913 . S
H1130 C1148 0.951 . S
H1131 C1150 0.951 . S
H1132 C1152 0.950 . S
H1133 C1153 0.950 . S
H1134 C1155 0.950 . S
H1135 C1158 0.950 . S
H1136 C1159 0.950 . S
H1137 C1161 0.950 . S
H1138 C1162 0.950 . S
H1139 C1163 0.951 . S
H1140 C1165 0.951 . S
H1141 C1167 0.950 . S
H1142 C1168 0.950 . S
H1143 C1170 0.950 . S
H1144 C1173 0.950 . S
H1145 C1174 0.950 . S
H1146 C1176 0.950 . S
H1147 C1177 0.950 . S
C1148 H1130 0.951 . S
C1148 C1149 1.366 . S
C1148 C1150 1.388 . S
C1149 C1148 1.366 . S
C1149 C1153 1.385 . S
C1150 H1131 0.951 . S
C1150 C1148 1.388 . S
C1150 C1151 1.366 . S
C1151 C1150 1.366 . S
C1151 C1152 1.414 . S
C1151 C1154 1.499 . S
C1152 H1132 0.950 . S
C1152 C1151 1.414 . S
C1152 C1153 1.374 . S
C1153 H1133 0.950 . S
C1153 C1149 1.385 . S
C1153 C1152 1.374 . S
C1154 C1151 1.499 . S
C1154 C1155 1.373 . S
C1154 C1156 1.389 . S
C1155 H1134 0.950 . S
C1155 C1154 1.373 . S
C1155 C1171 1.377 . S
C1156 C1154 1.389 . S
C1156 C1157 1.524 . S
C1156 C1170 1.377 . S
C1157 C1156 1.524 . S
C1157 C1158 1.397 . S
C1157 C1162 1.363 . S
C1158 H1135 0.950 . S
C1158 C1157 1.397 . S
C1158 C1159 1.334 . S
C1159 H1136 0.950 . S
C1159 C1158 1.334 . S
C1159 C1160 1.287 . S
C1160 C1159 1.287 . S
C1160 C1161 1.524 . S
C1160 H1179 0.913 . S
C1161 H1137 0.950 . S
C1161 C1160 1.524 . S
C1161 C1162 1.415 . S
C1162 H1138 0.950 . S
C1162 C1157 1.363 . S
C1162 C1161 1.415 . S
C1163 H1139 0.951 . S
C1163 C1164 1.366 . S
C1163 C1165 1.388 . S
C1164 C1163 1.366 . S
C1164 C1168 1.385 . S
C1165 H1140 0.951 . S
C1165 C1163 1.388 . S
C1165 C1166 1.366 . S
C1166 C1165 1.366 . S
C1166 C1167 1.414 . S
C1166 C1169 1.499 . S
C1167 H1141 0.950 . S
C1167 C1166 1.414 . S
C1167 C1168 1.374 . S
C1168 H1142 0.950 . S
C1168 C1164 1.385 . S
C1168 C1167 1.374 . S
C1169 C1166 1.499 . S
C1169 C1170 1.373 . S
C1169 C1171 1.389 . S
C1170 H1143 0.950 . S
C1170 C1156 1.377 . S
C1170 C1169 1.373 . S
C1171 C1155 1.377 . S
C1171 C1169 1.389 . S
C1171 C1172 1.524 . S
C1172 C1171 1.524 . S
C1172 C1173 1.397 . S
C1172 C1177 1.363 . S
C1173 H1144 0.950 . S
C1173 C1172 1.397 . S
C1173 C1174 1.334 . S
C1174 H1145 0.950 . S
C1174 C1173 1.334 . S
C1174 C1175 1.287 . S
C1175 C1174 1.287 . S
C1175 C1176 1.524 . S
C1175 H1178 0.999 . S
C1176 H1146 0.950 . S
C1176 C1175 1.524 . S
C1176 C1177 1.415 . S
C1177 H1147 0.950 . S
C1177 C1172 1.363 . S
C1177 C1176 1.415 . S
H1178 C1175 0.999 . S
H1179 C1160 0.913 . S
H1180 C1198 0.951 . S
H1181 C1200 0.951 . S
H1182 C1202 0.950 . S
H1183 C1203 0.950 . S
H1184 C1205 0.950 . S
H1185 C1208 0.950 . S
H1186 C1209 0.950 . S
H1187 C1211 0.950 . S
H1188 C1212 0.950 . S
H1189 C1213 0.951 . S
H1190 C1215 0.951 . S
H1191 C1217 0.950 . S
H1192 C1218 0.950 . S
H1193 C1220 0.950 . S
H1194 C1223 0.950 . S
H1195 C1224 0.950 . S
H1196 C1226 0.950 . S
H1197 C1227 0.950 . S
C1198 H1180 0.951 . S
C1198 C1199 1.366 . S
C1198 C1200 1.388 . S
C1199 C1198 1.366 . S
C1199 C1203 1.385 . S
C1200 H1181 0.951 . S
C1200 C1198 1.388 . S
C1200 C1201 1.366 . S
C1201 C1200 1.366 . S
C1201 C1202 1.414 . S
C1201 C1204 1.499 . S
C1202 H1182 0.950 . S
C1202 C1201 1.414 . S
C1202 C1203 1.374 . S
C1203 H1183 0.950 . S
C1203 C1199 1.385 . S
C1203 C1202 1.374 . S
C1204 C1201 1.499 . S
C1204 C1205 1.373 . S
C1204 C1206 1.389 1_455 S
C1205 H1184 0.950 . S
C1205 C1204 1.373 . S
C1205 C1221 1.377 . S
C1206 C1204 1.389 1_655 S
C1206 C1207 1.524 . S
C1206 C1220 1.377 . S
C1207 C1206 1.524 . S
C1207 C1208 1.397 . S
C1207 C1212 1.363 . S
C1208 H1185 0.950 . S
C1208 C1207 1.397 . S
C1208 C1209 1.334 . S
C1209 H1186 0.950 . S
C1209 C1208 1.334 . S
C1209 C1210 1.287 . S
C1210 C1209 1.287 . S
C1210 C1211 1.524 . S
C1210 H1229 0.913 . S
C1211 H1187 0.950 . S
C1211 C1210 1.524 . S
C1211 C1212 1.415 . S
C1212 H1188 0.950 . S
C1212 C1207 1.363 . S
C1212 C1211 1.415 . S
C1213 H1189 0.951 . S
C1213 C1214 1.366 . S
C1213 C1215 1.388 . S
C1214 C1213 1.366 . S
C1214 C1218 1.385 . S
C1215 H1190 0.951 . S
C1215 C1213 1.388 . S
C1215 C1216 1.366 . S
C1216 C1215 1.366 . S
C1216 C1217 1.414 . S
C1216 C1219 1.499 . S
C1217 H1191 0.950 . S
C1217 C1216 1.414 . S
C1217 C1218 1.374 . S
C1218 H1192 0.950 . S
C1218 C1214 1.385 . S
C1218 C1217 1.374 . S
C1219 C1216 1.499 . S
C1219 C1220 1.373 . S
C1219 C1221 1.389 1_655 S
C1220 H1193 0.950 . S
C1220 C1206 1.377 . S
C1220 C1219 1.373 . S
C1221 C1205 1.377 . S
C1221 C1219 1.389 1_455 S
C1221 C1222 1.524 . S
C1222 C1221 1.524 . S
C1222 C1223 1.397 . S
C1222 C1227 1.363 . S
C1223 H1194 0.950 . S
C1223 C1222 1.397 . S
C1223 C1224 1.334 . S
C1224 H1195 0.950 . S
C1224 C1223 1.334 . S
C1224 C1225 1.287 . S
C1225 C1224 1.287 . S
C1225 C1226 1.524 . S
C1225 H1228 0.999 . S
C1226 H1196 0.950 . S
C1226 C1225 1.524 . S
C1226 C1227 1.415 . S
C1227 H1197 0.950 . S
C1227 C1222 1.363 . S
C1227 C1226 1.415 . S
H1228 C1225 0.999 . S
H1229 C1210 0.913 . S
H1230 C1248 0.951 . S
H1231 C1250 0.951 . S
H1232 C1252 0.950 1_545 S
H1233 C1253 0.950 . S
H1234 C1255 0.950 . S
H1235 C1258 0.950 . S
H1236 C1259 0.950 . S
H1237 C1261 0.950 1_556 S
H1238 C1262 0.950 . S
H1239 C1263 0.951 . S
H1240 C1265 0.951 . S
H1241 C1267 0.950 1_565 S
H1242 C1268 0.950 . S
H1243 C1270 0.950 . S
H1244 C1273 0.950 . S
H1245 C1274 0.950 . S
H1246 C1276 0.950 1_554 S
H1247 C1277 0.950 . S
C1248 H1230 0.951 . S
C1248 C1249 1.366 . S
C1248 C1250 1.388 . S
C1249 C1248 1.366 . S
C1249 C1253 1.385 . S
C1250 H1231 0.951 . S
C1250 C1248 1.388 . S
C1250 C1251 1.366 . S
C1251 C1250 1.366 . S
C1251 C1252 1.414 . S
C1251 C1254 1.499 . S
C1252 H1232 0.950 1_565 S
C1252 C1251 1.414 . S
C1252 C1253 1.374 . S
C1253 H1233 0.950 . S
C1253 C1249 1.385 . S
C1253 C1252 1.374 . S
C1254 C1251 1.499 . S
C1254 C1255 1.373 1_565 S
C1254 C1256 1.389 . S
C1255 H1234 0.950 . S
C1255 C1254 1.373 1_545 S
C1255 C1271 1.377 1_554 S
C1256 C1254 1.389 . S
C1256 C1257 1.524 . S
C1256 C1270 1.377 1_554 S
C1257 C1256 1.524 . S
C1257 C1258 1.397 . S
C1257 C1262 1.363 1_554 S
C1258 H1235 0.950 . S
C1258 C1257 1.397 . S
C1258 C1259 1.334 . S
C1259 H1236 0.950 . S
C1259 C1258 1.334 . S
C1259 C1260 1.287 . S
C1260 C1259 1.287 . S
C1260 C1261 1.524 . S
C1260 H1279 0.913 . S
C1261 H1237 0.950 1_554 S
C1261 C1260 1.524 . S
C1261 C1262 1.415 1_554 S
C1262 H1238 0.950 . S
C1262 C1257 1.363 1_556 S
C1262 C1261 1.415 1_556 S
C1263 H1239 0.951 . S
C1263 C1264 1.366 . S
C1263 C1265 1.388 . S
C1264 C1263 1.366 . S
C1264 C1268 1.385 . S
C1265 H1240 0.951 . S
C1265 C1263 1.388 . S
C1265 C1266 1.366 . S
C1266 C1265 1.366 . S
C1266 C1267 1.414 . S
C1266 C1269 1.499 . S
C1267 H1241 0.950 1_545 S
C1267 C1266 1.414 . S
C1267 C1268 1.374 . S
C1268 H1242 0.950 . S
C1268 C1264 1.385 . S
C1268 C1267 1.374 . S
C1269 C1266 1.499 . S
C1269 C1270 1.373 1_545 S
C1269 C1271 1.389 . S
C1270 H1243 0.950 . S
C1270 C1256 1.377 1_556 S
C1270 C1269 1.373 1_565 S
C1271 C1255 1.377 1_556 S
C1271 C1269 1.389 . S
C1271 C1272 1.524 . S
C1272 C1271 1.524 . S
C1272 C1273 1.397 . S
C1272 C1277 1.363 1_556 S
C1273 H1244 0.950 . S
C1273 C1272 1.397 . S
C1273 C1274 1.334 . S
C1274 H1245 0.950 . S
C1274 C1273 1.334 . S
C1274 C1275 1.287 . S
C1275 C1274 1.287 . S
C1275 C1276 1.524 . S
C1275 H1278 0.999 . S
C1276 H1246 0.950 1_556 S
C1276 C1275 1.524 . S
C1276 C1277 1.415 1_556 S
C1277 H1247 0.950 . S
C1277 C1272 1.363 1_554 S
C1277 C1276 1.415 1_554 S
H1278 C1275 0.999 . S
H1279 C1260 0.913 . S
H1280 C1298 0.951 . S
H1281 C1300 0.951 . S
H1282 C1302 0.950 . S
H1283 C1303 0.950 . S
H1284 C1305 0.950 . S
H1285 C1308 0.950 . S
H1286 C1309 0.950 . S
H1287 C1311 0.950 . S
H1288 C1312 0.950 . S
H1289 C1313 0.951 . S
H1290 C1315 0.951 . S
H1291 C1317 0.950 . S
H1292 C1318 0.950 . S
H1293 C1320 0.950 . S
H1294 C1323 0.950 . S
H1295 C1324 0.950 . S
H1296 C1326 0.950 . S
H1297 C1327 0.950 . S
C1298 H1280 0.951 . S
C1298 C1299 1.366 . S
C1298 C1300 1.388 . S
C1299 C1298 1.366 . S
C1299 C1303 1.385 . S
C1300 H1281 0.951 . S
C1300 C1298 1.388 . S
C1300 C1301 1.366 . S
C1301 C1300 1.366 . S
C1301 C1302 1.414 . S
C1301 C1304 1.499 . S
C1302 H1282 0.950 . S
C1302 C1301 1.414 . S
C1302 C1303 1.374 . S
C1303 H1283 0.950 . S
C1303 C1299 1.385 . S
C1303 C1302 1.374 . S
C1304 C1301 1.499 . S
C1304 C1305 1.373 . S
C1304 C1306 1.389 . S
C1305 H1284 0.950 . S
C1305 C1304 1.373 . S
C1305 C1321 1.377 . S
C1306 C1304 1.389 . S
C1306 C1307 1.524 . S
C1306 C1320 1.377 . S
C1307 C1306 1.524 . S
C1307 C1308 1.397 . S
C1307 C1312 1.363 . S
C1308 H1285 0.950 . S
C1308 C1307 1.397 . S
C1308 C1309 1.334 . S
C1309 H1286 0.950 . S
C1309 C1308 1.334 . S
C1309 C1310 1.287 . S
C1310 C1309 1.287 . S
C1310 C1311 1.524 . S
C1310 H1329 0.913 . S
C1311 H1287 0.950 . S
C1311 C1310 1.524 . S
C1311 C1312 1.415 . S
C1312 H1288 0.950 . S
C1312 C1307 1.363 . S
C1312 C1311 1.415 . S
C1313 H1289 0.951 . S
C1313 C1314 1.366 . S
C1313 C1315 1.388 . S
C1314 C1313 1.366 . S
C1314 C1318 1.385 . S
C1315 H1290 0.951 . S
C1315 C1313 1.388 . S
C1315 C1316 1.366 . S
C1316 C1315 1.366 . S
C1316 C1317 1.414 . S
C1316 C1319 1.499 . S
C1317 H1291 0.950 . S
C1317 C1316 1.414 . S
C1317 C1318 1.374 . S
C1318 H1292 0.950 . S
C1318 C1314 1.385 . S
C1318 C1317 1.374 . S
C1319 C1316 1.499 . S
C1319 C1320 1.373 . S
C1319 C1321 1.389 . S
C1320 H1293 0.950 . S
C1320 C1306 1.377 . S
C1320 C1319 1.373 . S
C1321 C1305 1.377 . S
C1321 C1319 1.389 . S
C1321 C1322 1.524 . S
C1322 C1321 1.524 . S
C1322 C1323 1.397 . S
C1322 C1327 1.363 . S
C1323 H1294 0.950 . S
C1323 C1322 1.397 . S
C1323 C1324 1.334 . S
C1324 H1295 0.950 . S
C1324 C1323 1.334 . S
C1324 C1325 1.287 . S
C1325 C1324 1.287 . S
C1325 C1326 1.524 . S
C1325 H1328 0.999 . S
C1326 H1296 0.950 . S
C1326 C1325 1.524 . S
C1326 C1327 1.415 . S
C1327 H1297 0.950 . S
C1327 C1322 1.363 . S
C1327 C1326 1.415 . S
H1328 C1325 0.999 . S
H1329 C1310 0.913 . S
H1330 C1348 0.951 . S
H1331 C1350 0.951 . S
H1332 C1352 0.950 . S
H1333 C1353 0.950 . S
H1334 C1355 0.950 . S
H1335 C1358 0.950 . S
H1336 C1359 0.950 . S
H1337 C1361 0.950 . S
H1338 C1362 0.950 . S
H1339 C1363 0.951 . S
H1340 C1365 0.951 . S
H1341 C1367 0.950 . S
H1342 C1368 0.950 . S
H1343 C1370 0.950 . S
H1344 C1373 0.950 . S
H1345 C1374 0.950 . S
H1346 C1376 0.950 . S
H1347 C1377 0.950 . S
C1348 H1330 0.951 . S
C1348 C1349 1.366 . S
C1348 C1350 1.388 . S
C1349 C1348 1.366 . S
C1349 C1353 1.385 . S
C1350 H1331 0.951 . S
C1350 C1348 1.388 . S
C1350 C1351 1.366 . S
C1351 C1350 1.366 . S
C1351 C1352 1.414 . S
C1351 C1354 1.499 . S
C1352 H1332 0.950 . S
C1352 C1351 1.414 . S
C1352 C1353 1.374 . S
C1353 H1333 0.950 . S
C1353 C1349 1.385 . S
C1353 C1352 1.374 . S
C1354 C1351 1.499 . S
C1354 C1355 1.373 . S
C1354 C1356 1.389 1_455 S
C1355 H1334 0.950 . S
C1355 C1354 1.373 . S
C1355 C1371 1.377 . S
C1356 C1354 1.389 1_655 S
C1356 C1357 1.524 . S
C1356 C1370 1.377 . S
C1357 C1356 1.524 . S
C1357 C1358 1.397 . S
C1357 C1362 1.363 . S
C1358 H1335 0.950 . S
C1358 C1357 1.397 . S
C1358 C1359 1.334 . S
C1359 H1336 0.950 . S
C1359 C1358 1.334 . S
C1359 C1360 1.287 . S
C1360 C1359 1.287 . S
C1360 C1361 1.524 . S
C1360 H1379 0.913 . S
C1361 H1337 0.950 . S
C1361 C1360 1.524 . S
C1361 C1362 1.415 . S
C1362 H1338 0.950 . S
C1362 C1357 1.363 . S
C1362 C1361 1.415 . S
C1363 H1339 0.951 . S
C1363 C1364 1.366 . S
C1363 C1365 1.388 . S
C1364 C1363 1.366 . S
C1364 C1368 1.385 . S
C1365 H1340 0.951 . S
C1365 C1363 1.388 . S
C1365 C1366 1.366 . S
C1366 C1365 1.366 . S
C1366 C1367 1.414 . S
C1366 C1369 1.499 . S
C1367 H1341 0.950 . S
C1367 C1366 1.414 . S
C1367 C1368 1.374 . S
C1368 H1342 0.950 . S
C1368 C1364 1.385 . S
C1368 C1367 1.374 . S
C1369 C1366 1.499 . S
C1369 C1370 1.373 . S
C1369 C1371 1.389 1_655 S
C1370 H1343 0.950 . S
C1370 C1356 1.377 . S
C1370 C1369 1.373 . S
C1371 C1355 1.377 . S
C1371 C1369 1.389 1_455 S
C1371 C1372 1.524 . S
C1372 C1371 1.524 . S
C1372 C1373 1.397 . S
C1372 C1377 1.363 . S
C1373 H1344 0.950 . S
C1373 C1372 1.397 . S
C1373 C1374 1.334 . S
C1374 H1345 0.950 . S
C1374 C1373 1.334 . S
C1374 C1375 1.287 . S
C1375 C1374 1.287 . S
C1375 C1376 1.524 . S
C1375 H1378 0.999 . S
C1376 H1346 0.950 . S
C1376 C1375 1.524 . S
C1376 C1377 1.415 . S
C1377 H1347 0.950 . S
C1377 C1372 1.363 . S
C1377 C1376 1.415 . S
H1378 C1375 0.999 . S
H1379 C1360 0.913 . S
H1380 C1398 0.951 . S
H1381 C1400 0.951 . S
H1382 C1402 0.950 . S
H1383 C1403 0.950 . S
H1384 C1405 0.970 . S
H1385 C1408 0.950 . S
H1386 C1409 0.950 . S
H1387 C1411 0.950 . S
H1388 C1412 0.950 . S
H1389 C1413 0.951 . S
H1390 C1415 0.951 . S
H1391 C1417 0.950 . S
H1392 C1418 0.950 . S
H1393 C1420 0.970 . S
H1394 C1423 0.950 . S
H1395 C1424 0.950 . S
H1396 C1426 0.950 . S
H1397 C1427 0.950 . S
C1398 H1380 0.951 . S
C1398 C1399 1.366 . S
C1398 C1400 1.388 . S
C1399 C1398 1.366 . S
C1399 C1403 1.385 . S
C1400 H1381 0.951 . S
C1400 C1398 1.388 . S
C1400 C1401 1.366 . S
C1401 C1400 1.366 . S
C1401 C1402 1.414 . S
C1401 C1404 1.499 . S
C1402 H1382 0.950 . S
C1402 C1401 1.414 . S
C1402 C1403 1.374 . S
C1403 H1383 0.950 . S
C1403 C1399 1.385 . S
C1403 C1402 1.374 . S
C1404 C1401 1.499 . S
C1404 C1405 1.403 . S
C1404 C1406 1.389 . S
C1405 H1384 0.970 . S
C1405 C1404 1.403 . S
C1405 C1421 1.328 1_545 S
C1406 C1404 1.389 . S
C1406 C1407 1.524 . S
C1406 C1420 1.328 1_545 S
C1407 C1406 1.524 . S
C1407 C1408 1.397 . S
C1407 C1412 1.363 . S
C1408 H1385 0.950 . S
C1408 C1407 1.397 . S
C1408 C1409 1.334 . S
C1409 H1386 0.950 . S
C1409 C1408 1.334 . S
C1409 C1410 1.287 . S
C1410 C1409 1.287 . S
C1410 C1411 1.524 . S
C1410 H1429 0.913 . S
C1411 H1387 0.950 . S
C1411 C1410 1.524 . S
C1411 C1412 1.415 . S
C1412 H1388 0.950 . S
C1412 C1407 1.363 . S
C1412 C1411 1.415 . S
C1413 H1389 0.951 . S
C1413 C1414 1.366 . S
C1413 C1415 1.388 . S
C1414 C1413 1.366 . S
C1414 C1418 1.385 . S
C1415 H1390 0.951 . S
C1415 C1413 1.388 . S
C1415 C1416 1.366 . S
C1416 C1415 1.366 . S
C1416 C1417 1.414 . S
C1416 C1419 1.499 . S
C1417 H1391 0.950 . S
C1417 C1416 1.414 . S
C1417 C1418 1.374 . S
C1418 H1392 0.950 . S
C1418 C1414 1.385 . S
C1418 C1417 1.374 . S
C1419 C1416 1.499 . S
C1419 C1420 1.403 . S
C1419 C1421 1.389 . S
C1420 H1393 0.970 . S
C1420 C1406 1.328 1_565 S
C1420 C1419 1.403 . S
C1421 C1405 1.328 1_565 S
C1421 C1419 1.389 . S
C1421 C1422 1.524 . S
C1422 C1421 1.524 . S
C1422 C1423 1.397 . S
C1422 C1427 1.363 . S
C1423 H1394 0.950 . S
C1423 C1422 1.397 . S
C1423 C1424 1.334 . S
C1424 H1395 0.950 . S
C1424 C1423 1.334 . S
C1424 C1425 1.287 . S
C1425 C1424 1.287 . S
C1425 C1426 1.524 . S
C1425 H1428 0.999 . S
C1426 H1396 0.950 . S
C1426 C1425 1.524 . S
C1426 C1427 1.415 . S
C1427 H1397 0.950 . S
C1427 C1422 1.363 . S
C1427 C1426 1.415 . S
H1428 C1425 0.999 . S
H1429 C1410 0.913 . S
H1430 C1448 0.951 . S
H1431 C1450 0.951 . S
H1432 C1452 0.950 . S
H1433 C1453 0.950 . S
H1434 C1455 0.950 . S
H1435 C1458 0.950 . S
H1436 C1459 0.950 . S
H1437 C1461 0.950 . S
H1438 C1462 0.950 . S
H1439 C1463 0.951 . S
H1440 C1465 0.951 . S
H1441 C1467 0.950 . S
H1442 C1468 0.950 . S
H1443 C1470 0.950 . S
H1444 C1473 0.950 . S
H1445 C1474 0.950 . S
H1446 C1476 0.950 . S
H1447 C1477 0.950 . S
C1448 H1430 0.951 . S
C1448 C1449 1.366 . S
C1448 C1450 1.388 . S
C1449 C1448 1.366 . S
C1449 C1453 1.385 . S
C1450 H1431 0.951 . S
C1450 C1448 1.388 . S
C1450 C1451 1.366 . S
C1451 C1450 1.366 . S
C1451 C1452 1.414 . S
C1451 C1454 1.499 . S
C1452 H1432 0.950 . S
C1452 C1451 1.414 . S
C1452 C1453 1.374 . S
C1453 H1433 0.950 . S
C1453 C1449 1.385 . S
C1453 C1452 1.374 . S
C1454 C1451 1.499 . S
C1454 C1455 1.373 . S
C1454 C1456 1.389 . S
C1455 H1434 0.950 . S
C1455 C1454 1.373 . S
C1455 C1471 1.377 . S
C1456 C1454 1.389 . S
C1456 C1457 1.524 . S
C1456 C1470 1.377 . S
C1457 C1456 1.524 . S
C1457 C1458 1.397 . S
C1457 C1462 1.363 . S
C1458 H1435 0.950 . S
C1458 C1457 1.397 . S
C1458 C1459 1.334 . S
C1459 H1436 0.950 . S
C1459 C1458 1.334 . S
C1459 C1460 1.287 . S
C1460 C1459 1.287 . S
C1460 C1461 1.524 . S
C1460 H1479 0.913 . S
C1461 H1437 0.950 . S
C1461 C1460 1.524 . S
C1461 C1462 1.415 . S
C1462 H1438 0.950 . S
C1462 C1457 1.363 . S
C1462 C1461 1.415 . S
C1463 H1439 0.951 . S
C1463 C1464 1.366 . S
C1463 C1465 1.388 . S
C1464 C1463 1.366 . S
C1464 C1468 1.385 . S
C1465 H1440 0.951 . S
C1465 C1463 1.388 . S
C1465 C1466 1.366 . S
C1466 C1465 1.366 . S
C1466 C1467 1.414 . S
C1466 C1469 1.499 . S
C1467 H1441 0.950 . S
C1467 C1466 1.414 . S
C1467 C1468 1.374 . S
C1468 H1442 0.950 . S
C1468 C1464 1.385 . S
C1468 C1467 1.374 . S
C1469 C1466 1.499 . S
C1469 C1470 1.373 . S
C1469 C1471 1.389 . S
C1470 H1443 0.950 . S
C1470 C1456 1.377 . S
C1470 C1469 1.373 . S
C1471 C1455 1.377 . S
C1471 C1469 1.389 . S
C1471 C1472 1.524 . S
C1472 C1471 1.524 . S
C1472 C1473 1.397 . S
C1472 C1477 1.363 . S
C1473 H1444 0.950 . S
C1473 C1472 1.397 . S
C1473 C1474 1.334 . S
C1474 H1445 0.950 . S
C1474 C1473 1.334 . S
C1474 C1475 1.287 . S
C1475 C1474 1.287 . S
C1475 C1476 1.524 . S
C1475 H1478 0.999 . S
C1476 H1446 0.950 . S
C1476 C1475 1.524 . S
C1476 C1477 1.415 . S
C1477 H1447 0.950 . S
C1477 C1472 1.363 . S
C1477 C1476 1.415 . S
H1478 C1475 0.999 . S
H1479 C1460 0.913 . S
H1480 C1498 0.951 . S
H1481 C1500 0.951 . S
H1482 C1502 0.950 . S
H1483 C1503 0.950 . S
H1484 C1505 0.950 . S
H1485 C1508 0.950 . S
H1486 C1509 0.950 . S
H1487 C1511 0.950 . S
H1488 C1512 0.950 1_455 S
H1489 C1513 0.951 . S
H1490 C1515 0.951 . S
H1491 C1517 0.950 . S
H1492 C1518 0.950 . S
H1493 C1520 0.950 . S
H1494 C1523 0.950 . S
H1495 C1524 0.950 . S
H1496 C1526 0.950 . S
H1497 C1527 0.950 1_655 S
C1498 H1480 0.951 . S
C1498 C1499 1.366 . S
C1498 C1500 1.388 . S
C1499 C1498 1.366 . S
C1499 C1503 1.385 . S
C1500 H1481 0.951 . S
C1500 C1498 1.388 . S
C1500 C1501 1.366 . S
C1501 C1500 1.366 . S
C1501 C1502 1.414 . S
C1501 C1504 1.499 . S
C1502 H1482 0.950 . S
C1502 C1501 1.414 . S
C1502 C1503 1.374 . S
C1503 H1483 0.950 . S
C1503 C1499 1.385 . S
C1503 C1502 1.374 . S
C1504 C1501 1.499 . S
C1504 C1505 1.373 . S
C1504 C1506 1.389 . S
C1505 H1484 0.950 . S
C1505 C1504 1.373 . S
C1505 C1521 1.377 1_655 S
C1506 C1504 1.389 . S
C1506 C1507 1.524 . S
C1506 C1520 1.377 1_655 S
C1507 C1506 1.524 . S
C1507 C1508 1.397 . S
C1507 C1512 1.363 . S
C1508 H1485 0.950 . S
C1508 C1507 1.397 . S
C1508 C1509 1.334 . S
C1509 H1486 0.950 . S
C1509 C1508 1.334 . S
C1509 C1510 1.287 1_556 S
C1510 C1509 1.287 1_554 S
C1510 C1511 1.524 . S
C1510 H1529 0.913 . S
C1511 H1487 0.950 . S
C1511 C1510 1.524 . S
C1511 C1512 1.415 1_554 S
C1512 H1488 0.950 1_655 S
C1512 C1507 1.363 . S
C1512 C1511 1.415 1_556 S
C1513 H1489 0.951 . S
C1513 C1514 1.366 . S
C1513 C1515 1.388 . S
C1514 C1513 1.366 . S
C1514 C1518 1.385 . S
C1515 H1490 0.951 . S
C1515 C1513 1.388 . S
C1515 C1516 1.366 . S
C1516 C1515 1.366 . S
C1516 C1517 1.414 . S
C1516 C1519 1.499 . S
C1517 H1491 0.950 . S
C1517 C1516 1.414 . S
C1517 C1518 1.374 . S
C1518 H1492 0.950 . S
C1518 C1514 1.385 . S
C1518 C1517 1.374 . S
C1519 C1516 1.499 . S
C1519 C1520 1.373 . S
C1519 C1521 1.389 . S
C1520 H1493 0.950 . S
C1520 C1506 1.377 1_455 S
C1520 C1519 1.373 . S
C1521 C1505 1.377 1_455 S
C1521 C1519 1.389 . S
C1521 C1522 1.524 . S
C1522 C1521 1.524 . S
C1522 C1523 1.397 . S
C1522 C1527 1.363 . S
C1523 H1494 0.950 . S
C1523 C1522 1.397 . S
C1523 C1524 1.334 . S
C1524 H1495 0.950 . S
C1524 C1523 1.334 . S
C1524 C1525 1.287 . S
C1525 C1524 1.287 . S
C1525 C1526 1.524 . S
C1525 H1528 0.999 . S
C1526 H1496 0.950 . S
C1526 C1525 1.524 . S
C1526 C1527 1.415 . S
C1527 H1497 0.950 1_455 S
C1527 C1522 1.363 . S
C1527 C1526 1.415 . S
H1528 C1525 0.999 . S
H1529 C1510 0.913 . S
H1530 C1548 0.951 . S
H1531 C1550 0.951 . S
H1532 C1552 0.950 . S
H1533 C1553 0.950 . S
H1534 C1555 0.956 . S
H1535 C1558 0.950 . S
H1536 C1559 0.950 . S
H1537 C1561 0.950 . S
H1538 C1562 0.950 . S
H1539 C1563 0.951 . S
H1540 C1565 0.951 . S
H1541 C1567 0.950 . S
H1542 C1568 0.950 . S
H1543 C1570 0.956 . S
H1544 C1573 0.950 . S
H1545 C1574 0.950 . S
H1546 C1576 0.950 . S
H1547 C1577 0.950 . S
C1548 H1530 0.951 . S
C1548 C1549 1.366 . S
C1548 C1550 1.388 . S
C1549 C1548 1.366 . S
C1549 C1553 1.385 . S
C1550 H1531 0.951 . S
C1550 C1548 1.388 . S
C1550 C1551 1.366 . S
C1551 C1550 1.366 . S
C1551 C1552 1.414 . S
C1551 C1554 1.499 . S
C1552 H1532 0.950 . S
C1552 C1551 1.414 . S
C1552 C1553 1.374 . S
C1553 H1533 0.950 . S
C1553 C1549 1.385 . S
C1553 C1552 1.374 . S
C1554 C1551 1.499 . S
C1554 C1555 1.374 1_455 S
C1554 C1556 1.389 . S
C1555 H1534 0.956 . S
C1555 C1554 1.374 1_655 S
C1555 C1571 1.375 . S
C1556 C1554 1.389 . S
C1556 C1557 1.524 . S
C1556 C1570 1.375 . S
C1557 C1556 1.524 . S
C1557 C1558 1.397 . S
C1557 C1562 1.363 . S
C1558 H1535 0.950 . S
C1558 C1557 1.397 . S
C1558 C1559 1.334 . S
C1559 H1536 0.950 . S
C1559 C1558 1.334 . S
C1559 C1560 1.287 . S
C1560 C1559 1.287 . S
C1560 C1561 1.524 . S
C1560 H1579 0.913 . S
C1561 H1537 0.950 . S
C1561 C1560 1.524 . S
C1561 C1562 1.415 . S
C1562 H1538 0.950 . S
C1562 C1557 1.363 . S
C1562 C1561 1.415 . S
C1563 H1539 0.951 . S
C1563 C1564 1.366 . S
C1563 C1565 1.388 . S
C1564 C1563 1.366 . S
C1564 C1568 1.385 . S
C1565 H1540 0.951 . S
C1565 C1563 1.388 . S
C1565 C1566 1.366 . S
C1566 C1565 1.366 . S
C1566 C1567 1.414 . S
C1566 C1569 1.499 . S
C1567 H1541 0.950 . S
C1567 C1566 1.414 . S
C1567 C1568 1.374 . S
C1568 H1542 0.950 . S
C1568 C1564 1.385 . S
C1568 C1567 1.374 . S
C1569 C1566 1.499 . S
C1569 C1570 1.374 1_655 S
C1569 C1571 1.389 . S
C1570 H1543 0.956 . S
C1570 C1556 1.375 . S
C1570 C1569 1.374 1_455 S
C1571 C1555 1.375 . S
C1571 C1569 1.389 . S
C1571 C1572 1.524 . S
C1572 C1571 1.524 . S
C1572 C1573 1.397 . S
C1572 C1577 1.363 . S
C1573 H1544 0.950 . S
C1573 C1572 1.397 . S
C1573 C1574 1.334 . S
C1574 H1545 0.950 . S
C1574 C1573 1.334 . S
C1574 C1575 1.287 . S
C1575 C1574 1.287 . S
C1575 C1576 1.524 . S
C1575 H1578 0.999 . S
C1576 H1546 0.950 . S
C1576 C1575 1.524 . S
C1576 C1577 1.415 . S
C1577 H1547 0.950 . S
C1577 C1572 1.363 . S
C1577 C1576 1.415 . S
H1578 C1575 0.999 . S
H1579 C1560 0.913 . S
H1580 C1598 0.951 . S
H1581 C1600 0.951 . S
H1582 C1602 0.950 . S
H1583 C1603 0.950 . S
H1584 C1605 0.950 . S
H1585 C1608 0.950 . S
H1586 C1609 0.950 . S
H1587 C1611 0.950 . S
H1588 C1612 0.950 . S
H1589 C1613 0.951 . S
H1590 C1615 0.951 . S
H1591 C1617 0.950 . S
H1592 C1618 0.950 . S
H1593 C1620 0.950 . S
H1594 C1623 0.950 . S
H1595 C1624 0.950 . S
H1596 C1626 0.950 . S
H1597 C1627 0.950 . S
C1598 H1580 0.951 . S
C1598 C1599 1.366 . S
C1598 C1600 1.388 . S
C1599 C1598 1.366 . S
C1599 C1603 1.385 . S
C1600 H1581 0.951 . S
C1600 C1598 1.388 . S
C1600 C1601 1.366 . S
C1601 C1600 1.366 . S
C1601 C1602 1.414 . S
C1601 C1604 1.499 . S
C1602 H1582 0.950 . S
C1602 C1601 1.414 . S
C1602 C1603 1.374 . S
C1603 H1583 0.950 . S
C1603 C1599 1.385 . S
C1603 C1602 1.374 . S
C1604 C1601 1.499 . S
C1604 C1605 1.373 1_565 S
C1604 C1606 1.389 . S
C1605 H1584 0.950 . S
C1605 C1604 1.373 1_545 S
C1605 C1621 1.377 . S
C1606 C1604 1.389 . S
C1606 C1607 1.524 . S
C1606 C1620 1.377 . S
C1607 C1606 1.524 . S
C1607 C1608 1.397 . S
C1607 C1612 1.363 . S
C1608 H1585 0.950 . S
C1608 C1607 1.397 . S
C1608 C1609 1.334 . S
C1609 H1586 0.950 . S
C1609 C1608 1.334 . S
C1609 C1610 1.287 . S
C1610 C1609 1.287 . S
C1610 C1611 1.524 . S
C1610 H1629 0.913 . S
C1611 H1587 0.950 . S
C1611 C1610 1.524 . S
C1611 C1612 1.415 . S
C1612 H1588 0.950 . S
C1612 C1607 1.363 . S
C1612 C1611 1.415 . S
C1613 H1589 0.951 . S
C1613 C1614 1.366 . S
C1613 C1615 1.388 . S
C1614 C1613 1.366 . S
C1614 C1618 1.385 . S
C1615 H1590 0.951 . S
C1615 C1613 1.388 . S
C1615 C1616 1.366 . S
C1616 C1615 1.366 . S
C1616 C1617 1.414 . S
C1616 C1619 1.499 . S
C1617 H1591 0.950 . S
C1617 C1616 1.414 . S
C1617 C1618 1.374 . S
C1618 H1592 0.950 . S
C1618 C1614 1.385 . S
C1618 C1617 1.374 . S
C1619 C1616 1.499 . S
C1619 C1620 1.373 1_545 S
C1619 C1621 1.389 . S
C1620 H1593 0.950 . S
C1620 C1606 1.377 . S
C1620 C1619 1.373 1_565 S
C1621 C1605 1.377 . S
C1621 C1619 1.389 . S
C1621 C1622 1.524 . S
C1622 C1621 1.524 . S
C1622 C1623 1.397 . S
C1622 C1627 1.363 . S
C1623 H1594 0.950 . S
C1623 C1622 1.397 . S
C1623 C1624 1.334 . S
C1624 H1595 0.950 . S
C1624 C1623 1.334 . S
C1624 C1625 1.287 . S
C1625 C1624 1.287 . S
C1625 C1626 1.524 . S
C1625 H1628 0.999 . S
C1626 H1596 0.950 . S
C1626 C1625 1.524 . S
C1626 C1627 1.415 . S
C1627 H1597 0.950 . S
C1627 C1622 1.363 . S
C1627 C1626 1.415 . S
H1628 C1625 0.999 . S
H1629 C1610 0.913 . S
H1630 C1648 0.951 . S
H1631 C1650 0.951 . S
H1632 C1652 0.950 . S
H1633 C1653 0.950 . S
H1634 C1655 0.950 . S
H1635 C1658 0.950 . S
H1636 C1659 0.950 . S
H1637 C1661 0.950 . S
H1638 C1662 0.950 . S
H1639 C1663 0.951 . S
H1640 C1665 0.951 . S
H1641 C1667 0.950 . S
H1642 C1668 0.950 . S
H1643 C1670 0.950 . S
H1644 C1673 0.950 . S
H1645 C1674 0.950 . S
H1646 C1676 0.950 . S
H1647 C1677 0.950 . S
C1648 H1630 0.951 . S
C1648 C1649 1.366 . S
C1648 C1650 1.388 . S
C1649 C1648 1.366 . S
C1649 C1653 1.385 . S
C1650 H1631 0.951 . S
C1650 C1648 1.388 . S
C1650 C1651 1.366 . S
C1651 C1650 1.366 . S
C1651 C1652 1.414 . S
C1651 C1654 1.499 . S
C1652 H1632 0.950 . S
C1652 C1651 1.414 . S
C1652 C1653 1.374 . S
C1653 H1633 0.950 . S
C1653 C1649 1.385 . S
C1653 C1652 1.374 . S
C1654 C1651 1.499 . S
C1654 C1655 1.373 . S
C1654 C1656 1.389 . S
C1655 H1634 0.950 . S
C1655 C1654 1.373 . S
C1655 C1671 1.377 . S
C1656 C1654 1.389 . S
C1656 C1657 1.524 . S
C1656 C1670 1.377 . S
C1657 C1656 1.524 . S
C1657 C1658 1.397 . S
C1657 C1662 1.363 . S
C1658 H1635 0.950 . S
C1658 C1657 1.397 . S
C1658 C1659 1.334 . S
C1659 H1636 0.950 . S
C1659 C1658 1.334 . S
C1659 C1660 1.287 . S
C1660 C1659 1.287 . S
C1660 C1661 1.524 . S
C1660 H1679 0.913 . S
C1661 H1637 0.950 . S
C1661 C1660 1.524 . S
C1661 C1662 1.415 . S
C1662 H1638 0.950 . S
C1662 C1657 1.363 . S
C1662 C1661 1.415 . S
C1663 H1639 0.951 . S
C1663 C1664 1.366 . S
C1663 C1665 1.388 . S
C1664 C1663 1.366 . S
C1664 C1668 1.385 . S
C1665 H1640 0.951 . S
C1665 C1663 1.388 . S
C1665 C1666 1.366 . S
C1666 C1665 1.366 . S
C1666 C1667 1.414 . S
C1666 C1669 1.499 . S
C1667 H1641 0.950 . S
C1667 C1666 1.414 . S
C1667 C1668 1.374 . S
C1668 H1642 0.950 . S
C1668 C1664 1.385 . S
C1668 C1667 1.374 . S
C1669 C1666 1.499 . S
C1669 C1670 1.373 . S
C1669 C1671 1.389 . S
C1670 H1643 0.950 . S
C1670 C1656 1.377 . S
C1670 C1669 1.373 . S
C1671 C1655 1.377 . S
C1671 C1669 1.389 . S
C1671 C1672 1.524 . S
C1672 C1671 1.524 . S
C1672 C1673 1.397 . S
C1672 C1677 1.363 . S
C1673 H1644 0.950 . S
C1673 C1672 1.397 . S
C1673 C1674 1.334 1_554 S
C1674 H1645 0.950 . S
C1674 C1673 1.334 1_556 S
C1674 C1675 1.287 . S
C1675 C1674 1.287 . S
C1675 C1676 1.524 1_556 S
C1675 H1678 0.999 . S
C1676 H1646 0.950 . S
C1676 C1675 1.524 1_554 S
C1676 C1677 1.415 . S
C1677 H1647 0.950 . S
C1677 C1672 1.363 . S
C1677 C1676 1.415 . S
H1678 C1675 0.999 . S
H1679 C1660 0.913 . S
H1680 C1698 0.951 . S
H1681 C1700 0.951 . S
H1682 C1702 0.950 . S
H1683 C1703 0.950 . S
H1684 C1705 0.950 . S
H1685 C1708 0.950 1_565 S
H1686 C1709 0.950 1_565 S
H1687 C1711 0.950 . S
H1688 C1712 0.950 . S
H1689 C1713 0.951 . S
H1690 C1715 0.951 . S
H1691 C1717 0.950 . S
H1692 C1718 0.950 . S
H1693 C1720 0.950 . S
H1694 C1723 0.950 1_545 S
H1695 C1724 0.950 1_545 S
H1696 C1726 0.950 . S
H1697 C1727 0.950 . S
C1698 H1680 0.951 . S
C1698 C1699 1.366 . S
C1698 C1700 1.388 . S
C1699 C1698 1.366 . S
C1699 C1703 1.385 . S
C1700 H1681 0.951 . S
C1700 C1698 1.388 . S
C1700 C1701 1.366 . S
C1701 C1700 1.366 . S
C1701 C1702 1.414 . S
C1701 C1704 1.499 . S
C1702 H1682 0.950 . S
C1702 C1701 1.414 . S
C1702 C1703 1.374 . S
C1703 H1683 0.950 . S
C1703 C1699 1.385 . S
C1703 C1702 1.374 . S
C1704 C1701 1.499 . S
C1704 C1705 1.373 . S
C1704 C1706 1.389 1_565 S
C1705 H1684 0.950 . S
C1705 C1704 1.373 . S
C1705 C1721 1.377 . S
C1706 C1704 1.389 1_545 S
C1706 C1707 1.524 . S
C1706 C1720 1.377 . S
C1707 C1706 1.524 . S
C1707 C1708 1.397 . S
C1707 C1712 1.363 . S
C1708 H1685 0.950 1_545 S
C1708 C1707 1.397 . S
C1708 C1709 1.334 . S
C1709 H1686 0.950 1_545 S
C1709 C1708 1.334 . S
C1709 C1710 1.287 . S
C1710 C1709 1.287 . S
C1710 C1711 1.524 . S
C1710 H1729 0.913 . S
C1711 H1687 0.950 . S
C1711 C1710 1.524 . S
C1711 C1712 1.415 . S
C1712 H1688 0.950 . S
C1712 C1707 1.363 . S
C1712 C1711 1.415 . S
C1713 H1689 0.951 . S
C1713 C1714 1.366 . S
C1713 C1715 1.388 . S
C1714 C1713 1.366 . S
C1714 C1718 1.385 . S
C1715 H1690 0.951 . S
C1715 C1713 1.388 . S
C1715 C1716 1.366 . S
C1716 C1715 1.366 . S
C1716 C1717 1.414 . S
C1716 C1719 1.499 . S
C1717 H1691 0.950 . S
C1717 C1716 1.414 . S
C1717 C1718 1.374 . S
C1718 H1692 0.950 . S
C1718 C1714 1.385 . S
C1718 C1717 1.374 . S
C1719 C1716 1.499 . S
C1719 C1720 1.373 . S
C1719 C1721 1.389 1_545 S
C1720 H1693 0.950 . S
C1720 C1706 1.377 . S
C1720 C1719 1.373 . S
C1721 C1705 1.377 . S
C1721 C1719 1.389 1_565 S
C1721 C1722 1.524 . S
C1722 C1721 1.524 . S
C1722 C1723 1.397 . S
C1722 C1727 1.363 . S
C1723 H1694 0.950 1_565 S
C1723 C1722 1.397 . S
C1723 C1724 1.334 . S
C1724 H1695 0.950 1_565 S
C1724 C1723 1.334 . S
C1724 C1725 1.287 . S
C1725 C1724 1.287 . S
C1725 C1726 1.524 . S
C1725 H1728 0.999 . S
C1726 H1696 0.950 . S
C1726 C1725 1.524 . S
C1726 C1727 1.415 . S
C1727 H1697 0.950 . S
C1727 C1722 1.363 . S
C1727 C1726 1.415 . S
H1728 C1725 0.999 . S
H1729 C1710 0.913 . S
H1730 C1748 0.951 . S
H1731 C1750 0.951 . S
H1732 C1752 0.950 . S
H1733 C1753 0.950 . S
H1734 C1755 0.950 . S
H1735 C1758 0.950 . S
H1736 C1759 0.950 . S
H1737 C1761 0.950 . S
H1738 C1762 0.950 . S
H1739 C1763 0.951 . S
H1740 C1765 0.951 . S
H1741 C1767 0.950 . S
H1742 C1768 0.950 . S
H1743 C1770 0.950 . S
H1744 C1773 0.950 . S
H1745 C1774 0.950 . S
H1746 C1776 0.950 . S
H1747 C1777 0.950 . S
C1748 H1730 0.951 . S
C1748 C1749 1.366 . S
C1748 C1750 1.388 . S
C1749 C1748 1.366 . S
C1749 C1753 1.385 . S
C1750 H1731 0.951 . S
C1750 C1748 1.388 . S
C1750 C1751 1.366 . S
C1751 C1750 1.366 . S
C1751 C1752 1.414 . S
C1751 C1754 1.499 . S
C1752 H1732 0.950 . S
C1752 C1751 1.414 . S
C1752 C1753 1.374 . S
C1753 H1733 0.950 . S
C1753 C1749 1.385 . S
C1753 C1752 1.374 . S
C1754 C1751 1.499 . S
C1754 C1755 1.373 . S
C1754 C1756 1.389 . S
C1755 H1734 0.950 . S
C1755 C1754 1.373 . S
C1755 C1771 1.377 . S
C1756 C1754 1.389 . S
C1756 C1757 1.524 . S
C1756 C1770 1.377 . S
C1757 C1756 1.524 . S
C1757 C1758 1.397 . S
C1757 C1762 1.363 . S
C1758 H1735 0.950 . S
C1758 C1757 1.397 . S
C1758 C1759 1.334 . S
C1759 H1736 0.950 . S
C1759 C1758 1.334 . S
C1759 C1760 1.287 . S
C1760 C1759 1.287 . S
C1760 C1761 1.524 . S
C1760 H1779 0.913 . S
C1761 H1737 0.950 . S
C1761 C1760 1.524 . S
C1761 C1762 1.415 . S
C1762 H1738 0.950 . S
C1762 C1757 1.363 . S
C1762 C1761 1.415 . S
C1763 H1739 0.951 . S
C1763 C1764 1.366 . S
C1763 C1765 1.388 . S
C1764 C1763 1.366 . S
C1764 C1768 1.385 . S
C1765 H1740 0.951 . S
C1765 C1763 1.388 . S
C1765 C1766 1.366 . S
C1766 C1765 1.366 . S
C1766 C1767 1.414 . S
C1766 C1769 1.499 . S
C1767 H1741 0.950 . S
C1767 C1766 1.414 . S
C1767 C1768 1.374 . S
C1768 H1742 0.950 . S
C1768 C1764 1.385 . S
C1768 C1767 1.374 . S
C1769 C1766 1.499 . S
C1769 C1770 1.373 . S
C1769 C1771 1.389 . S
C1770 H1743 0.950 . S
C1770 C1756 1.377 . S
C1770 C1769 1.373 . S
C1771 C1755 1.377 . S
C1771 C1769 1.389 . S
C1771 C1772 1.524 . S
C1772 C1771 1.524 . S
C1772 C1773 1.397 . S
C1772 C1777 1.363 . S
C1773 H1744 0.950 . S
C1773 C1772 1.397 . S
C1773 C1774 1.334 . S
C1774 H1745 0.950 . S
C1774 C1773 1.334 . S
C1774 C1775 1.287 . S
C1775 C1774 1.287 . S
C1775 C1776 1.524 . S
C1775 H1778 0.999 . S
C1776 H1746 0.950 . S
C1776 C1775 1.524 . S
C1776 C1777 1.415 . S
C1777 H1747 0.950 . S
C1777 C1772 1.363 . S
C1777 C1776 1.415 . S
H1778 C1775 0.999 . S
H1779 C1760 0.913 . S
H1780 C1798 0.951 . S
H1781 C1800 0.951 . S
H1782 C1802 0.950 . S
H1783 C1803 0.950 . S
H1784 C1805 0.950 . S
H1785 C1808 0.950 . S
H1786 C1809 0.950 . S
H1787 C1811 0.950 . S
H1788 C1812 0.950 . S
H1789 C1813 0.951 . S
H1790 C1815 0.951 . S
H1791 C1817 0.950 . S
H1792 C1818 0.950 . S
H1793 C1820 0.950 . S
H1794 C1823 0.950 . S
H1795 C1824 0.950 . S
H1796 C1826 0.950 . S
H1797 C1827 0.950 . S
C1798 H1780 0.951 . S
C1798 C1799 1.366 . S
C1798 C1800 1.388 . S
C1799 C1798 1.366 . S
C1799 C1803 1.385 . S
C1800 H1781 0.951 . S
C1800 C1798 1.388 . S
C1800 C1801 1.366 . S
C1801 C1800 1.366 . S
C1801 C1802 1.414 . S
C1801 C1804 1.499 . S
C1802 H1782 0.950 . S
C1802 C1801 1.414 . S
C1802 C1803 1.374 . S
C1803 H1783 0.950 . S
C1803 C1799 1.385 . S
C1803 C1802 1.374 . S
C1804 C1801 1.499 . S
C1804 C1805 1.373 . S
C1804 C1806 1.389 . S
C1805 H1784 0.950 . S
C1805 C1804 1.373 . S
C1805 C1821 1.377 1_655 S
C1806 C1804 1.389 . S
C1806 C1807 1.524 . S
C1806 C1820 1.377 1_655 S
C1807 C1806 1.524 . S
C1807 C1808 1.397 . S
C1807 C1812 1.363 1_655 S
C1808 H1785 0.950 . S
C1808 C1807 1.397 . S
C1808 C1809 1.334 . S
C1809 H1786 0.950 . S
C1809 C1808 1.334 . S
C1809 C1810 1.287 . S
C1810 C1809 1.287 . S
C1810 C1811 1.524 1_655 S
C1810 H1829 0.913 . S
C1811 H1787 0.950 . S
C1811 C1810 1.524 1_455 S
C1811 C1812 1.415 . S
C1812 H1788 0.950 . S
C1812 C1807 1.363 1_455 S
C1812 C1811 1.415 . S
C1813 H1789 0.951 . S
C1813 C1814 1.366 . S
C1813 C1815 1.388 . S
C1814 C1813 1.366 . S
C1814 C1818 1.385 . S
C1815 H1790 0.951 . S
C1815 C1813 1.388 . S
C1815 C1816 1.366 . S
C1816 C1815 1.366 . S
C1816 C1817 1.414 . S
C1816 C1819 1.499 . S
C1817 H1791 0.950 . S
C1817 C1816 1.414 . S
C1817 C1818 1.374 . S
C1818 H1792 0.950 . S
C1818 C1814 1.385 . S
C1818 C1817 1.374 . S
C1819 C1816 1.499 . S
C1819 C1820 1.373 . S
C1819 C1821 1.389 . S
C1820 H1793 0.950 . S
C1820 C1806 1.377 1_455 S
C1820 C1819 1.373 . S
C1821 C1805 1.377 1_455 S
C1821 C1819 1.389 . S
C1821 C1822 1.524 . S
C1822 C1821 1.524 . S
C1822 C1823 1.397 . S
C1822 C1827 1.363 1_455 S
C1823 H1794 0.950 . S
C1823 C1822 1.397 . S
C1823 C1824 1.334 . S
C1824 H1795 0.950 . S
C1824 C1823 1.334 . S
C1824 C1825 1.287 . S
C1825 C1824 1.287 . S
C1825 C1826 1.524 1_455 S
C1825 H1828 0.999 . S
C1826 H1796 0.950 . S
C1826 C1825 1.524 1_655 S
C1826 C1827 1.415 . S
C1827 H1797 0.950 . S
C1827 C1822 1.363 1_655 S
C1827 C1826 1.415 . S
H1828 C1825 0.999 . S
H1829 C1810 0.913 . S
H1830 C1848 0.951 . S
H1831 C1850 0.951 . S
H1832 C1852 0.950 . S
H1833 C1853 0.950 . S
H1834 C1855 0.950 . S
H1835 C1858 0.950 . S
H1836 C1859 0.950 . S
H1837 C1861 0.950 . S
H1838 C1862 0.950 . S
H1839 C1863 0.951 . S
H1840 C1865 0.951 . S
H1841 C1867 0.950 . S
H1842 C1868 0.950 . S
H1843 C1870 0.950 . S
H1844 C1873 0.950 . S
H1845 C1874 0.950 . S
H1846 C1876 0.950 . S
H1847 C1877 0.950 . S
C1848 H1830 0.951 . S
C1848 C1849 1.366 . S
C1848 C1850 1.388 . S
C1849 C1848 1.366 . S
C1849 C1853 1.385 . S
C1850 H1831 0.951 . S
C1850 C1848 1.388 . S
C1850 C1851 1.366 . S
C1851 C1850 1.366 . S
C1851 C1852 1.414 . S
C1851 C1854 1.499 . S
C1852 H1832 0.950 . S
C1852 C1851 1.414 . S
C1852 C1853 1.374 . S
C1853 H1833 0.950 . S
C1853 C1849 1.385 . S
C1853 C1852 1.374 . S
C1854 C1851 1.499 . S
C1854 C1855 1.373 1_545 S
C1854 C1856 1.389 . S
C1855 H1834 0.950 . S
C1855 C1854 1.373 1_565 S
C1855 C1871 1.377 . S
C1856 C1854 1.389 . S
C1856 C1857 1.524 . S
C1856 C1870 1.377 . S
C1857 C1856 1.524 . S
C1857 C1858 1.397 . S
C1857 C1862 1.363 . S
C1858 H1835 0.950 . S
C1858 C1857 1.397 . S
C1858 C1859 1.334 . S
C1859 H1836 0.950 . S
C1859 C1858 1.334 . S
C1859 C1860 1.287 . S
C1860 C1859 1.287 . S
C1860 C1861 1.524 . S
C1860 H1879 0.913 . S
C1861 H1837 0.950 . S
C1861 C1860 1.524 . S
C1861 C1862 1.415 . S
C1862 H1838 0.950 . S
C1862 C1857 1.363 . S
C1862 C1861 1.415 . S
C1863 H1839 0.951 . S
C1863 C1864 1.366 . S
C1863 C1865 1.388 . S
C1864 C1863 1.366 . S
C1864 C1868 1.385 . S
C1865 H1840 0.951 . S
C1865 C1863 1.388 . S
C1865 C1866 1.366 . S
C1866 C1865 1.366 . S
C1866 C1867 1.414 . S
C1866 C1869 1.499 . S
C1867 H1841 0.950 . S
C1867 C1866 1.414 . S
C1867 C1868 1.374 . S
C1868 H1842 0.950 . S
C1868 C1864 1.385 . S
C1868 C1867 1.374 . S
C1869 C1866 1.499 . S
C1869 C1870 1.373 1_565 S
C1869 C1871 1.389 . S
C1870 H1843 0.950 . S
C1870 C1856 1.377 . S
C1870 C1869 1.373 1_545 S
C1871 C1855 1.377 . S
C1871 C1869 1.389 . S
C1871 C1872 1.524 . S
C1872 C1871 1.524 . S
C1872 C1873 1.397 . S
C1872 C1877 1.363 . S
C1873 H1844 0.950 . S
C1873 C1872 1.397 . S
C1873 C1874 1.334 . S
C1874 H1845 0.950 . S
C1874 C1873 1.334 . S
C1874 C1875 1.287 . S
C1875 C1874 1.287 . S
C1875 C1876 1.524 . S
C1875 H1878 0.999 . S
C1876 H1846 0.950 . S
C1876 C1875 1.524 . S
C1876 C1877 1.415 . S
C1877 H1847 0.950 . S
C1877 C1872 1.363 . S
C1877 C1876 1.415 . S
H1878 C1875 0.999 . S
H1879 C1860 0.913 . S
H1880 C1898 0.951 . S
H1881 C1900 0.951 . S
H1882 C1902 0.950 . S
H1883 C1903 0.950 . S
H1884 C1905 0.950 . S
H1885 C1908 0.950 . S
H1886 C1909 0.950 . S
H1887 C1911 0.950 . S
H1888 C1912 0.950 . S
H1889 C1913 0.951 . S
H1890 C1915 0.951 . S
H1891 C1917 0.950 . S
H1892 C1918 0.950 . S
H1893 C1920 0.950 . S
H1894 C1923 0.950 . S
H1895 C1924 0.950 . S
H1896 C1926 0.950 . S
H1897 C1927 0.950 . S
C1898 H1880 0.951 . S
C1898 C1899 1.366 . S
C1898 C1900 1.388 . S
C1899 C1898 1.366 . S
C1899 C1903 1.385 . S
C1900 H1881 0.951 . S
C1900 C1898 1.388 . S
C1900 C1901 1.366 . S
C1901 C1900 1.366 . S
C1901 C1902 1.414 . S
C1901 C1904 1.499 . S
C1902 H1882 0.950 . S
C1902 C1901 1.414 . S
C1902 C1903 1.374 . S
C1903 H1883 0.950 . S
C1903 C1899 1.385 . S
C1903 C1902 1.374 . S
C1904 C1901 1.499 . S
C1904 C1905 1.373 . S
C1904 C1906 1.389 . S
C1905 H1884 0.950 . S
C1905 C1904 1.373 . S
C1905 C1921 1.377 . S
C1906 C1904 1.389 . S
C1906 C1907 1.524 . S
C1906 C1920 1.377 . S
C1907 C1906 1.524 . S
C1907 C1908 1.397 . S
C1907 C1912 1.363 . S
C1908 H1885 0.950 . S
C1908 C1907 1.397 . S
C1908 C1909 1.334 . S
C1909 H1886 0.950 . S
C1909 C1908 1.334 . S
C1909 C1910 1.287 . S
C1910 C1909 1.287 . S
C1910 C1911 1.524 . S
C1910 H1929 0.913 . S
C1911 H1887 0.950 . S
C1911 C1910 1.524 . S
C1911 C1912 1.415 . S
C1912 H1888 0.950 . S
C1912 C1907 1.363 . S
C1912 C1911 1.415 . S
C1913 H1889 0.951 . S
C1913 C1914 1.366 . S
C1913 C1915 1.388 . S
C1914 C1913 1.366 . S
C1914 C1918 1.385 . S
C1915 H1890 0.951 . S
C1915 C1913 1.388 . S
C1915 C1916 1.366 . S
C1916 C1915 1.366 . S
C1916 C1917 1.414 . S
C1916 C1919 1.499 . S
C1917 H1891 0.950 . S
C1917 C1916 1.414 . S
C1917 C1918 1.374 . S
C1918 H1892 0.950 . S
C1918 C1914 1.385 . S
C1918 C1917 1.374 . S
C1919 C1916 1.499 . S
C1919 C1920 1.373 . S
C1919 C1921 1.389 . S
C1920 H1893 0.950 . S
C1920 C1906 1.377 . S
C1920 C1919 1.373 . S
C1921 C1905 1.377 . S
C1921 C1919 1.389 . S
C1921 C1922 1.524 . S
C1922 C1921 1.524 . S
C1922 C1923 1.397 . S
C1922 C1927 1.363 . S
C1923 H1894 0.950 . S
C1923 C1922 1.397 . S
C1923 C1924 1.334 . S
C1924 H1895 0.950 . S
C1924 C1923 1.334 . S
C1924 C1925 1.287 . S
C1925 C1924 1.287 . S
C1925 C1926 1.524 . S
C1925 H1928 0.999 . S
C1926 H1896 0.950 . S
C1926 C1925 1.524 . S
C1926 C1927 1.415 . S
C1927 H1897 0.950 . S
C1927 C1922 1.363 . S
C1927 C1926 1.415 . S
H1928 C1925 0.999 . S
H1929 C1910 0.913 . S
H1930 C1948 0.951 . S
H1931 C1950 0.951 . S
H1932 C1952 0.950 . S
H1933 C1953 0.950 . S
H1934 C1955 0.950 . S
H1935 C1958 0.950 . S
H1936 C1959 0.950 . S
H1937 C1961 0.950 . S
H1938 C1962 0.950 . S
H1939 C1963 0.951 . S
H1940 C1965 0.951 . S
H1941 C1967 0.950 . S
H1942 C1968 0.950 . S
H1943 C1970 0.950 . S
H1944 C1973 0.950 . S
H1945 C1974 0.950 . S
H1946 C1976 0.950 . S
H1947 C1977 0.950 . S
C1948 H1930 0.951 . S
C1948 C1949 1.366 . S
C1948 C1950 1.388 . S
C1949 C1948 1.366 . S
C1949 C1953 1.385 . S
C1950 H1931 0.951 . S
C1950 C1948 1.388 . S
C1950 C1951 1.366 . S
C1951 C1950 1.366 . S
C1951 C1952 1.414 . S
C1951 C1954 1.499 . S
C1952 H1932 0.950 . S
C1952 C1951 1.414 . S
C1952 C1953 1.374 . S
C1953 H1933 0.950 . S
C1953 C1949 1.385 . S
C1953 C1952 1.374 . S
C1954 C1951 1.499 . S
C1954 C1955 1.373 . S
C1954 C1956 1.389 . S
C1955 H1934 0.950 . S
C1955 C1954 1.373 . S
C1955 C1971 1.377 1_455 S
C1956 C1954 1.389 . S
C1956 C1957 1.524 . S
C1956 C1970 1.377 1_455 S
C1957 C1956 1.524 . S
C1957 C1958 1.397 . S
C1957 C1962 1.363 . S
C1958 H1935 0.950 . S
C1958 C1957 1.397 . S
C1958 C1959 1.334 . S
C1959 H1936 0.950 . S
C1959 C1958 1.334 . S
C1959 C1960 1.287 . S
C1960 C1959 1.287 . S
C1960 C1961 1.524 . S
C1960 H1979 0.913 . S
C1961 H1937 0.950 . S
C1961 C1960 1.524 . S
C1961 C1962 1.415 . S
C1962 H1938 0.950 . S
C1962 C1957 1.363 . S
C1962 C1961 1.415 . S
C1963 H1939 0.951 . S
C1963 C1964 1.366 . S
C1963 C1965 1.388 . S
C1964 C1963 1.366 . S
C1964 C1968 1.385 . S
C1965 H1940 0.951 . S
C1965 C1963 1.388 . S
C1965 C1966 1.366 . S
C1966 C1965 1.366 . S
C1966 C1967 1.414 . S
C1966 C1969 1.499 . S
C1967 H1941 0.950 . S
C1967 C1966 1.414 . S
C1967 C1968 1.374 . S
C1968 H1942 0.950 . S
C1968 C1964 1.385 . S
C1968 C1967 1.374 . S
C1969 C1966 1.499 . S
C1969 C1970 1.373 . S
C1969 C1971 1.389 . S
C1970 H1943 0.950 . S
C1970 C1956 1.377 1_655 S
C1970 C1969 1.373 . S
C1971 C1955 1.377 1_655 S
C1971 C1969 1.389 . S
C1971 C1972 1.524 . S
C1972 C1971 1.524 . S
C1972 C1973 1.397 . S
C1972 C1977 1.363 . S
C1973 H1944 0.950 . S
C1973 C1972 1.397 . S
C1973 C1974 1.334 . S
C1974 H1945 0.950 . S
C1974 C1973 1.334 . S
C1974 C1975 1.287 . S
C1975 C1974 1.287 . S
C1975 C1976 1.524 . S
C1975 H1978 0.999 . S
C1976 H1946 0.950 . S
C1976 C1975 1.524 . S
C1976 C1977 1.415 . S
C1977 H1947 0.950 . S
C1977 C1972 1.363 . S
C1977 C1976 1.415 . S
H1978 C1975 0.999 . S
H1979 C1960 0.913 . S
H1980 C1998 0.951 . S
H1981 C2000 0.951 . S
H1982 C2002 0.950 . S
H1983 C2003 0.950 . S
H1984 C2005 0.950 . S
H1985 C2008 0.950 . S
H1986 C2009 0.950 . S
H1987 C2011 0.950 . S
H1988 C2012 0.950 . S
H1989 C2013 0.951 . S
H1990 C2015 0.951 . S
H1991 C2017 0.950 . S
H1992 C2018 0.950 . S
H1993 C2020 0.950 . S
H1994 C2023 0.950 . S
H1995 C2024 0.950 . S
H1996 C2026 0.950 . S
H1997 C2027 0.950 . S
C1998 H1980 0.951 . S
C1998 C1999 1.366 . S
C1998 C2000 1.388 . S
C1999 C1998 1.366 . S
C1999 C2003 1.385 . S
C2000 H1981 0.951 . S
C2000 C1998 1.388 . S
C2000 C2001 1.366 . S
C2001 C2000 1.366 . S
C2001 C2002 1.414 . S
C2001 C2004 1.499 . S
C2002 H1982 0.950 . S
C2002 C2001 1.414 . S
C2002 C2003 1.374 . S
C2003 H1983 0.950 . S
C2003 C1999 1.385 . S
C2003 C2002 1.374 . S
C2004 C2001 1.499 . S
C2004 C2005 1.373 . S
C2004 C2006 1.389 . S
C2005 H1984 0.950 . S
C2005 C2004 1.373 . S
C2005 C2021 1.377 . S
C2006 C2004 1.389 . S
C2006 C2007 1.524 . S
C2006 C2020 1.377 . S
C2007 C2006 1.524 . S
C2007 C2008 1.397 . S
C2007 C2012 1.363 . S
C2008 H1985 0.950 . S
C2008 C2007 1.397 . S
C2008 C2009 1.334 . S
C2009 H1986 0.950 . S
C2009 C2008 1.334 . S
C2009 C2010 1.287 . S
C2010 C2009 1.287 . S
C2010 C2011 1.524 . S
C2010 H2029 0.913 . S
C2011 H1987 0.950 . S
C2011 C2010 1.524 . S
C2011 C2012 1.415 . S
C2012 H1988 0.950 . S
C2012 C2007 1.363 . S
C2012 C2011 1.415 . S
C2013 H1989 0.951 . S
C2013 C2014 1.366 . S
C2013 C2015 1.388 . S
C2014 C2013 1.366 . S
C2014 C2018 1.385 . S
C2015 H1990 0.951 . S
C2015 C2013 1.388 . S
C2015 C2016 1.366 . S
C2016 C2015 1.366 . S
C2016 C2017 1.414 . S
C2016 C2019 1.499 . S
C2017 H1991 0.950 . S
C2017 C2016 1.414 . S
C2017 C2018 1.374 . S
C2018 H1992 0.950 . S
C2018 C2014 1.385 . S
C2018 C2017 1.374 . S
C2019 C2016 1.499 . S
C2019 C2020 1.373 . S
C2019 C2021 1.389 . S
C2020 H1993 0.950 . S
C2020 C2006 1.377 . S
C2020 C2019 1.373 . S
C2021 C2005 1.377 . S
C2021 C2019 1.389 . S
C2021 C2022 1.524 . S
C2022 C2021 1.524 . S
C2022 C2023 1.397 . S
C2022 C2027 1.363 . S
C2023 H1994 0.950 . S
C2023 C2022 1.397 . S
C2023 C2024 1.334 . S
C2024 H1995 0.950 . S
C2024 C2023 1.334 . S
C2024 C2025 1.287 . S
C2025 C2024 1.287 . S
C2025 C2026 1.524 . S
C2025 H2028 0.999 . S
C2026 H1996 0.950 . S
C2026 C2025 1.524 . S
C2026 C2027 1.415 . S
C2027 H1997 0.950 . S
C2027 C2022 1.363 . S
C2027 C2026 1.415 . S
H2028 C2025 0.999 . S
H2029 C2010 0.913 . S
H2030 C2048 0.951 . S
H2031 C2050 0.951 . S
H2032 C2052 0.950 . S
H2033 C2053 0.950 . S
H2034 C2055 0.950 . S
H2035 C2058 0.950 . S
H2036 C2059 0.950 . S
H2037 C2061 0.950 . S
H2038 C2062 0.950 . S
H2039 C2063 0.951 . S
H2040 C2065 0.951 . S
H2041 C2067 0.950 . S
H2042 C2068 0.950 . S
H2043 C2070 0.950 . S
H2044 C2073 0.950 . S
H2045 C2074 0.950 . S
H2046 C2076 0.950 . S
H2047 C2077 0.950 . S
C2048 H2030 0.951 . S
C2048 C2049 1.366 . S
C2048 C2050 1.388 . S
C2049 C2048 1.366 . S
C2049 C2053 1.385 . S
C2050 H2031 0.951 . S
C2050 C2048 1.388 . S
C2050 C2051 1.366 . S
C2051 C2050 1.366 . S
C2051 C2052 1.414 . S
C2051 C2054 1.499 . S
C2052 H2032 0.950 . S
C2052 C2051 1.414 . S
C2052 C2053 1.374 . S
C2053 H2033 0.950 . S
C2053 C2049 1.385 . S
C2053 C2052 1.374 . S
C2054 C2051 1.499 . S
C2054 C2055 1.373 . S
C2054 C2056 1.389 . S
C2055 H2034 0.950 . S
C2055 C2054 1.373 . S
C2055 C2071 1.377 . S
C2056 C2054 1.389 . S
C2056 C2057 1.524 . S
C2056 C2070 1.377 . S
C2057 C2056 1.524 . S
C2057 C2058 1.397 . S
C2057 C2062 1.363 . S
C2058 H2035 0.950 . S
C2058 C2057 1.397 . S
C2058 C2059 1.334 . S
C2059 H2036 0.950 . S
C2059 C2058 1.334 . S
C2059 C2060 1.287 . S
C2060 C2059 1.287 . S
C2060 C2061 1.524 . S
C2060 H2079 0.913 . S
C2061 H2037 0.950 . S
C2061 C2060 1.524 . S
C2061 C2062 1.415 . S
C2062 H2038 0.950 . S
C2062 C2057 1.363 . S
C2062 C2061 1.415 . S
C2063 H2039 0.951 . S
C2063 C2064 1.366 . S
C2063 C2065 1.388 . S
C2064 C2063 1.366 . S
C2064 C2068 1.385 . S
C2065 H2040 0.951 . S
C2065 C2063 1.388 . S
C2065 C2066 1.366 . S
C2066 C2065 1.366 . S
C2066 C2067 1.414 . S
C2066 C2069 1.499 . S
C2067 H2041 0.950 . S
C2067 C2066 1.414 . S
C2067 C2068 1.374 . S
C2068 H2042 0.950 . S
C2068 C2064 1.385 . S
C2068 C2067 1.374 . S
C2069 C2066 1.499 . S
C2069 C2070 1.373 . S
C2069 C2071 1.389 . S
C2070 H2043 0.950 . S
C2070 C2056 1.377 . S
C2070 C2069 1.373 . S
C2071 C2055 1.377 . S
C2071 C2069 1.389 . S
C2071 C2072 1.524 . S
C2072 C2071 1.524 . S
C2072 C2073 1.397 . S
C2072 C2077 1.363 . S
C2073 H2044 0.950 . S
C2073 C2072 1.397 . S
C2073 C2074 1.334 . S
C2074 H2045 0.950 . S
C2074 C2073 1.334 . S
C2074 C2075 1.287 . S
C2075 C2074 1.287 . S
C2075 C2076 1.524 . S
C2075 H2078 0.999 . S
C2076 H2046 0.950 . S
C2076 C2075 1.524 . S
C2076 C2077 1.415 . S
C2077 H2047 0.950 . S
C2077 C2072 1.363 . S
C2077 C2076 1.415 . S
H2078 C2075 0.999 . S
H2079 C2060 0.913 . S
H2080 C2098 0.951 . S
H2081 C2100 0.951 . S
H2082 C2102 0.950 . S
H2083 C2103 0.950 . S
H2084 C2105 0.950 . S
H2085 C2108 0.950 . S
H2086 C2109 0.950 . S
H2087 C2111 0.950 . S
H2088 C2112 0.950 . S
H2089 C2113 0.951 . S
H2090 C2115 0.951 . S
H2091 C2117 0.950 . S
H2092 C2118 0.950 . S
H2093 C2120 0.950 . S
H2094 C2123 0.950 . S
H2095 C2124 0.950 . S
H2096 C2126 0.950 . S
H2097 C2127 0.950 . S
C2098 H2080 0.951 . S
C2098 C2099 1.366 . S
C2098 C2100 1.388 . S
C2099 C2098 1.366 . S
C2099 C2103 1.385 . S
C2100 H2081 0.951 . S
C2100 C2098 1.388 . S
C2100 C2101 1.366 . S
C2101 C2100 1.366 . S
C2101 C2102 1.414 . S
C2101 C2104 1.499 . S
C2102 H2082 0.950 . S
C2102 C2101 1.414 . S
C2102 C2103 1.374 . S
C2103 H2083 0.950 . S
C2103 C2099 1.385 . S
C2103 C2102 1.374 . S
C2104 C2101 1.499 . S
C2104 C2105 1.373 . S
C2104 C2106 1.389 . S
C2105 H2084 0.950 . S
C2105 C2104 1.373 . S
C2105 C2121 1.377 . S
C2106 C2104 1.389 . S
C2106 C2107 1.524 . S
C2106 C2120 1.377 . S
C2107 C2106 1.524 . S
C2107 C2108 1.397 . S
C2107 C2112 1.363 . S
C2108 H2085 0.950 . S
C2108 C2107 1.397 . S
C2108 C2109 1.334 . S
C2109 H2086 0.950 . S
C2109 C2108 1.334 . S
C2109 C2110 1.287 . S
C2110 C2109 1.287 . S
C2110 C2111 1.524 . S
C2110 H2129 0.913 . S
C2111 H2087 0.950 . S
C2111 C2110 1.524 . S
C2111 C2112 1.415 . S
C2112 H2088 0.950 . S
C2112 C2107 1.363 . S
C2112 C2111 1.415 . S
C2113 H2089 0.951 . S
C2113 C2114 1.366 . S
C2113 C2115 1.388 . S
C2114 C2113 1.366 . S
C2114 C2118 1.385 . S
C2115 H2090 0.951 . S
C2115 C2113 1.388 . S
C2115 C2116 1.366 . S
C2116 C2115 1.366 . S
C2116 C2117 1.414 . S
C2116 C2119 1.499 . S
C2117 H2091 0.950 . S
C2117 C2116 1.414 . S
C2117 C2118 1.374 . S
C2118 H2092 0.950 . S
C2118 C2114 1.385 . S
C2118 C2117 1.374 . S
C2119 C2116 1.499 . S
C2119 C2120 1.373 . S
C2119 C2121 1.389 . S
C2120 H2093 0.950 . S
C2120 C2106 1.377 . S
C2120 C2119 1.373 . S
C2121 C2105 1.377 . S
C2121 C2119 1.389 . S
C2121 C2122 1.524 . S
C2122 C2121 1.524 . S
C2122 C2123 1.397 . S
C2122 C2127 1.363 . S
C2123 H2094 0.950 . S
C2123 C2122 1.397 . S
C2123 C2124 1.334 . S
C2124 H2095 0.950 . S
C2124 C2123 1.334 . S
C2124 C2125 1.287 . S
C2125 C2124 1.287 . S
C2125 C2126 1.524 . S
C2125 H2128 0.999 . S
C2126 H2096 0.950 . S
C2126 C2125 1.524 . S
C2126 C2127 1.415 . S
C2127 H2097 0.950 . S
C2127 C2122 1.363 . S
C2127 C2126 1.415 . S
H2128 C2125 0.999 . S
H2129 C2110 0.913 . S
H2130 C2148 0.951 . S
H2131 C2150 0.951 . S
H2132 C2152 0.950 . S
H2133 C2153 0.950 . S
H2134 C2155 0.950 . S
H2135 C2158 0.950 . S
H2136 C2159 0.950 . S
H2137 C2161 0.950 . S
H2138 C2162 0.950 . S
H2139 C2163 0.951 . S
H2140 C2165 0.951 . S
H2141 C2167 0.950 . S
H2142 C2168 0.950 . S
H2143 C2170 0.950 . S
H2144 C2173 0.950 . S
H2145 C2174 0.950 . S
H2146 C2176 0.950 . S
H2147 C2177 0.950 . S
C2148 H2130 0.951 . S
C2148 C2149 1.366 . S
C2148 C2150 1.388 . S
C2149 C2148 1.366 . S
C2149 C2153 1.385 . S
C2150 H2131 0.951 . S
C2150 C2148 1.388 . S
C2150 C2151 1.366 . S
C2151 C2150 1.366 . S
C2151 C2152 1.414 . S
C2151 C2154 1.499 . S
C2152 H2132 0.950 . S
C2152 C2151 1.414 . S
C2152 C2153 1.374 . S
C2153 H2133 0.950 . S
C2153 C2149 1.385 . S
C2153 C2152 1.374 . S
C2154 C2151 1.499 . S
C2154 C2155 1.373 . S
C2154 C2156 1.389 . S
C2155 H2134 0.950 . S
C2155 C2154 1.373 . S
C2155 C2171 1.377 . S
C2156 C2154 1.389 . S
C2156 C2157 1.524 . S
C2156 C2170 1.377 . S
C2157 C2156 1.524 . S
C2157 C2158 1.397 . S
C2157 C2162 1.363 . S
C2158 H2135 0.950 . S
C2158 C2157 1.397 . S
C2158 C2159 1.334 . S
C2159 H2136 0.950 . S
C2159 C2158 1.334 . S
C2159 C2160 1.287 . S
C2160 C2159 1.287 . S
C2160 C2161 1.524 . S
C2160 H2179 0.913 . S
C2161 H2137 0.950 . S
C2161 C2160 1.524 . S
C2161 C2162 1.415 . S
C2162 H2138 0.950 . S
C2162 C2157 1.363 . S
C2162 C2161 1.415 . S
C2163 H2139 0.951 . S
C2163 C2164 1.366 . S
C2163 C2165 1.388 . S
C2164 C2163 1.366 . S
C2164 C2168 1.385 . S
C2165 H2140 0.951 . S
C2165 C2163 1.388 . S
C2165 C2166 1.366 . S
C2166 C2165 1.366 . S
C2166 C2167 1.414 . S
C2166 C2169 1.499 . S
C2167 H2141 0.950 . S
C2167 C2166 1.414 . S
C2167 C2168 1.374 . S
C2168 H2142 0.950 . S
C2168 C2164 1.385 . S
C2168 C2167 1.374 . S
C2169 C2166 1.499 . S
C2169 C2170 1.373 . S
C2169 C2171 1.389 . S
C2170 H2143 0.950 . S
C2170 C2156 1.377 . S
C2170 C2169 1.373 . S
C2171 C2155 1.377 . S
C2171 C2169 1.389 . S
C2171 C2172 1.524 . S
C2172 C2171 1.524 . S
C2172 C2173 1.397 . S
C2172 C2177 1.363 . S
C2173 H2144 0.950 . S
C2173 C2172 1.397 . S
C2173 C2174 1.334 . S
C2174 H2145 0.950 . S
C2174 C2173 1.334 . S
C2174 C2175 1.287 . S
C2175 C2174 1.287 . S
C2175 C2176 1.524 . S
C2175 H2178 0.999 . S
C2176 H2146 0.950 . S
C2176 C2175 1.524 . S
C2176 C2177 1.415 . S
C2177 H2147 0.950 . S
C2177 C2172 1.363 . S
C2177 C2176 1.415 . S
H2178 C2175 0.999 . S
H2179 C2160 0.913 . S
H2180 C2198 0.951 . S
H2181 C2200 0.951 . S
H2182 C2202 0.950 . S
H2183 C2203 0.950 . S
H2184 C2205 0.950 . S
H2185 C2208 0.950 . S
H2186 C2209 0.950 . S
H2187 C2211 0.950 . S
H2188 C2212 0.950 . S
H2189 C2213 0.951 . S
H2190 C2215 0.951 . S
H2191 C2217 0.950 . S
H2192 C2218 0.950 . S
H2193 C2220 0.950 . S
H2194 C2223 0.950 . S
H2195 C2224 0.950 . S
H2196 C2226 0.950 . S
H2197 C2227 0.950 . S
C2198 H2180 0.951 . S
C2198 C2199 1.366 . S
C2198 C2200 1.388 . S
C2199 C2198 1.366 . S
C2199 C2203 1.385 . S
C2200 H2181 0.951 . S
C2200 C2198 1.388 . S
C2200 C2201 1.366 . S
C2201 C2200 1.366 . S
C2201 C2202 1.414 . S
C2201 C2204 1.499 . S
C2202 H2182 0.950 . S
C2202 C2201 1.414 . S
C2202 C2203 1.374 . S
C2203 H2183 0.950 . S
C2203 C2199 1.385 . S
C2203 C2202 1.374 . S
C2204 C2201 1.499 . S
C2204 C2205 1.373 . S
C2204 C2206 1.389 . S
C2205 H2184 0.950 . S
C2205 C2204 1.373 . S
C2205 C2221 1.377 . S
C2206 C2204 1.389 . S
C2206 C2207 1.524 . S
C2206 C2220 1.377 . S
C2207 C2206 1.524 . S
C2207 C2208 1.397 . S
C2207 C2212 1.363 . S
C2208 H2185 0.950 . S
C2208 C2207 1.397 . S
C2208 C2209 1.334 . S
C2209 H2186 0.950 . S
C2209 C2208 1.334 . S
C2209 C2210 1.287 . S
C2210 C2209 1.287 . S
C2210 C2211 1.524 . S
C2210 H2229 0.913 . S
C2211 H2187 0.950 . S
C2211 C2210 1.524 . S
C2211 C2212 1.415 . S
C2212 H2188 0.950 . S
C2212 C2207 1.363 . S
C2212 C2211 1.415 . S
C2213 H2189 0.951 . S
C2213 C2214 1.366 . S
C2213 C2215 1.388 . S
C2214 C2213 1.366 . S
C2214 C2218 1.385 . S
C2215 H2190 0.951 . S
C2215 C2213 1.388 . S
C2215 C2216 1.366 . S
C2216 C2215 1.366 . S
C2216 C2217 1.414 . S
C2216 C2219 1.499 . S
C2217 H2191 0.950 . S
C2217 C2216 1.414 . S
C2217 C2218 1.374 . S
C2218 H2192 0.950 . S
C2218 C2214 1.385 . S
C2218 C2217 1.374 . S
C2219 C2216 1.499 . S
C2219 C2220 1.373 . S
C2219 C2221 1.389 . S
C2220 H2193 0.950 . S
C2220 C2206 1.377 . S
C2220 C2219 1.373 . S
C2221 C2205 1.377 . S
C2221 C2219 1.389 . S
C2221 C2222 1.524 . S
C2222 C2221 1.524 . S
C2222 C2223 1.397 . S
C2222 C2227 1.363 . S
C2223 H2194 0.950 . S
C2223 C2222 1.397 . S
C2223 C2224 1.334 . S
C2224 H2195 0.950 . S
C2224 C2223 1.334 . S
C2224 C2225 1.287 . S
C2225 C2224 1.287 . S
C2225 C2226 1.524 . S
C2225 H2228 0.999 . S
C2226 H2196 0.950 . S
C2226 C2225 1.524 . S
C2226 C2227 1.415 . S
C2227 H2197 0.950 . S
C2227 C2222 1.363 . S
C2227 C2226 1.415 . S
H2228 C2225 0.999 . S
H2229 C2210 0.913 . S
H2230 C2248 0.951 . S
H2231 C2250 0.951 . S
H2232 C2252 0.950 . S
H2233 C2253 0.950 . S
H2234 C2255 0.950 . S
H2235 C2258 0.950 . S
H2236 C2259 0.950 . S
H2237 C2261 0.950 . S
H2238 C2262 0.950 . S
H2239 C2263 0.951 . S
H2240 C2265 0.951 . S
H2241 C2267 0.950 . S
H2242 C2268 0.950 . S
H2243 C2270 0.950 . S
H2244 C2273 0.950 . S
H2245 C2274 0.950 . S
H2246 C2276 0.950 . S
H2247 C2277 0.950 . S
C2248 H2230 0.951 . S
C2248 C2249 1.366 . S
C2248 C2250 1.388 . S
C2249 C2248 1.366 . S
C2249 C2253 1.385 . S
C2250 H2231 0.951 . S
C2250 C2248 1.388 . S
C2250 C2251 1.366 . S
C2251 C2250 1.366 . S
C2251 C2252 1.414 . S
C2251 C2254 1.499 . S
C2252 H2232 0.950 . S
C2252 C2251 1.414 . S
C2252 C2253 1.374 . S
C2253 H2233 0.950 . S
C2253 C2249 1.385 . S
C2253 C2252 1.374 . S
C2254 C2251 1.499 . S
C2254 C2255 1.373 . S
C2254 C2256 1.389 . S
C2255 H2234 0.950 . S
C2255 C2254 1.373 . S
C2255 C2271 1.377 . S
C2256 C2254 1.389 . S
C2256 C2257 1.524 . S
C2256 C2270 1.377 . S
C2257 C2256 1.524 . S
C2257 C2258 1.397 . S
C2257 C2262 1.363 . S
C2258 H2235 0.950 . S
C2258 C2257 1.397 . S
C2258 C2259 1.334 . S
C2259 H2236 0.950 . S
C2259 C2258 1.334 . S
C2259 C2260 1.287 . S
C2260 C2259 1.287 . S
C2260 C2261 1.524 . S
C2260 H2279 0.913 . S
C2261 H2237 0.950 . S
C2261 C2260 1.524 . S
C2261 C2262 1.415 . S
C2262 H2238 0.950 . S
C2262 C2257 1.363 . S
C2262 C2261 1.415 . S
C2263 H2239 0.951 . S
C2263 C2264 1.366 . S
C2263 C2265 1.388 . S
C2264 C2263 1.366 . S
C2264 C2268 1.385 . S
C2265 H2240 0.951 . S
C2265 C2263 1.388 . S
C2265 C2266 1.366 . S
C2266 C2265 1.366 . S
C2266 C2267 1.414 . S
C2266 C2269 1.499 . S
C2267 H2241 0.950 . S
C2267 C2266 1.414 . S
C2267 C2268 1.374 . S
C2268 H2242 0.950 . S
C2268 C2264 1.385 . S
C2268 C2267 1.374 . S
C2269 C2266 1.499 . S
C2269 C2270 1.373 . S
C2269 C2271 1.389 . S
C2270 H2243 0.950 . S
C2270 C2256 1.377 . S
C2270 C2269 1.373 . S
C2271 C2255 1.377 . S
C2271 C2269 1.389 . S
C2271 C2272 1.524 . S
C2272 C2271 1.524 . S
C2272 C2273 1.397 . S
C2272 C2277 1.363 . S
C2273 H2244 0.950 . S
C2273 C2272 1.397 . S
C2273 C2274 1.334 . S
C2274 H2245 0.950 . S
C2274 C2273 1.334 . S
C2274 C2275 1.287 . S
C2275 C2274 1.287 . S
C2275 C2276 1.524 . S
C2275 H2278 0.999 . S
C2276 H2246 0.950 . S
C2276 C2275 1.524 . S
C2276 C2277 1.415 . S
C2277 H2247 0.950 . S
C2277 C2272 1.363 . S
C2277 C2276 1.415 . S
H2278 C2275 0.999 . S
H2279 C2260 0.913 . S
C499 C2 0.979 . S
C514 C322 0.979 . S
C549 C42 0.979 . S
C564 C362 0.978 . S
C599 C82 0.978 . S
C614 C402 0.978 . S
C649 C442 0.979 . S
C664 C122 0.979 . S
C699 C162 0.978 . S
C714 C242 0.978 . S
C749 C282 0.978 . S
C764 C202 0.977 . S
C799 C426 1.687 . S
C814 C26 1.688 . S
C849 C466 1.687 . S
C864 C66 1.687 . S
C899 C106 1.687 . S
C914 C266 1.687 . S
C949 C306 1.687 . S
C964 C146 1.687 . S
C999 C346 1.687 . S
C1014 C186 1.687 . S
C1049 C226 1.687 . S
C1064 C386 1.688 . S
C1099 C283 4.308 . S
C1114 C3 4.308 . S
C1149 C323 4.308 . S
C1164 C43 4.308 . S
C1199 C363 4.308 . S
C1214 C83 4.308 . S
C1249 C123 4.308 . S
C1264 C403 4.308 . S
C1299 C163 4.308 . S
C1314 C443 4.308 . S
C1349 C203 4.308 . S
C1364 C243 4.308 . S
C1399 C15 0.763 . S
C1414 C135 0.762 . S
C1449 C55 0.761 . S
C1464 C175 0.762 . S
C1499 C95 0.762 . S
C1514 C215 0.763 . S
C1549 C375 0.763 . S
C1564 C255 0.763 . S
C1599 C295 0.763 . S
C1614 C415 0.762 . S
C1649 C455 0.763 . S
C1664 C335 0.762 . S
C1699 C289 0.656 . S
C1714 C9 0.657 . S
C1749 C329 0.655 . S
C1764 C49 0.656 . S
C1799 C89 0.655 . S
C1814 C369 0.656 . S
C1849 C409 0.654 . S
C1864 C129 0.654 . S
C1899 C449 0.655 . S
C1914 C169 0.656 . S
C1949 C209 0.656 . S
C1964 C249 0.655 . S
C1999 C22 4.531 . S
C2014 C422 4.531 . S
C2049 C62 4.531 . S
C2064 C462 4.531 1_556 S
C2099 C102 4.531 1_554 S
C2114 C262 4.531 . S
C2149 C142 4.531 . S
C2164 C302 4.531 . S
C2199 C182 4.531 . S
C2214 C342 4.531 1_556 S
C2249 C382 4.531 . S
C2264 C222 4.531 1_554 S
