# Generated by pormake.
# Topology wkf, (6)-cn, num edge types: 1
# Building blocks:
#     Node 0, Type 0, BuildingBlock: CUWYAW_clean_sbu_0, # of connection points: 6
#     Node 1, Type 0, BuildingBlock: CUWYAW_clean_sbu_0, # of connection points: 6
#     Node 2, Type 0, BuildingBlock: CUWYAW_clean_sbu_0, # of connection points: 6
#     Node 3, Type 0, BuildingBlock: CUWYAW_clean_sbu_0, # of connection points: 6
#     Node 4, Type 0, BuildingBlock: CUWYAW_clean_sbu_0, # of connection points: 6
#     Node 5, Type 0, BuildingBlock: CUWYAW_clean_sbu_0, # of connection points: 6
#     Node 6, Type 0, BuildingBlock: CUWYAW_clean_sbu_0, # of connection points: 6
#     Node 7, Type 0, BuildingBlock: CUWYAW_clean_sbu_0, # of connection points: 6
#     Node 8, Type 0, BuildingBlock: CUWYAW_clean_sbu_0, # of connection points: 6
#     Node 9, Type 0, BuildingBlock: CUWYAW_clean_sbu_0, # of connection points: 6
#     Node 10, Type 0, BuildingBlock: CUWYAW_clean_sbu_0, # of connection points: 6
#     Node 11, Type 0, BuildingBlock: CUWYAW_clean_sbu_0, # of connection points: 6
#     Edge 12, Type (0, 0), BuildingBlock: UVAHIK_clean_linker_0, # of connection points: 2
#     Edge 13, Type (0, 0), BuildingBlock: UVAHIK_clean_linker_0, # of connection points: 2
#     Edge 14, Type (0, 0), BuildingBlock: UVAHIK_clean_linker_0, # of connection points: 2
#     Edge 15, Type (0, 0), BuildingBlock: UVAHIK_clean_linker_0, # of connection points: 2
#     Edge 16, Type (0, 0), BuildingBlock: UVAHIK_clean_linker_0, # of connection points: 2
#     Edge 17, Type (0, 0), BuildingBlock: UVAHIK_clean_linker_0, # of connection points: 2
#     Edge 18, Type (0, 0), BuildingBlock: UVAHIK_clean_linker_0, # of connection points: 2
#     Edge 19, Type (0, 0), BuildingBlock: UVAHIK_clean_linker_0, # of connection points: 2
#     Edge 20, Type (0, 0), BuildingBlock: UVAHIK_clean_linker_0, # of connection points: 2
#     Edge 21, Type (0, 0), BuildingBlock: UVAHIK_clean_linker_0, # of connection points: 2
#     Edge 22, Type (0, 0), BuildingBlock: UVAHIK_clean_linker_0, # of connection points: 2
#     Edge 23, Type (0, 0), BuildingBlock: UVAHIK_clean_linker_0, # of connection points: 2
#     Edge 24, Type (0, 0), BuildingBlock: UVAHIK_clean_linker_0, # of connection points: 2
#     Edge 25, Type (0, 0), BuildingBlock: UVAHIK_clean_linker_0, # of connection points: 2
#     Edge 26, Type (0, 0), BuildingBlock: UVAHIK_clean_linker_0, # of connection points: 2
#     Edge 27, Type (0, 0), BuildingBlock: UVAHIK_clean_linker_0, # of connection points: 2
#     Edge 28, Type (0, 0), BuildingBlock: UVAHIK_clean_linker_0, # of connection points: 2
#     Edge 29, Type (0, 0), BuildingBlock: UVAHIK_clean_linker_0, # of connection points: 2
#     Edge 30, Type (0, 0), BuildingBlock: UVAHIK_clean_linker_0, # of connection points: 2
#     Edge 31, Type (0, 0), BuildingBlock: UVAHIK_clean_linker_0, # of connection points: 2
#     Edge 32, Type (0, 0), BuildingBlock: UVAHIK_clean_linker_0, # of connection points: 2
#     Edge 33, Type (0, 0), BuildingBlock: UVAHIK_clean_linker_0, # of connection points: 2
#     Edge 34, Type (0, 0), BuildingBlock: UVAHIK_clean_linker_0, # of connection points: 2
#     Edge 35, Type (0, 0), BuildingBlock: UVAHIK_clean_linker_0, # of connection points: 2
#     Edge 36, Type (0, 0), BuildingBlock: UVAHIK_clean_linker_0, # of connection points: 2
#     Edge 37, Type (0, 0), BuildingBlock: UVAHIK_clean_linker_0, # of connection points: 2
#     Edge 38, Type (0, 0), BuildingBlock: UVAHIK_clean_linker_0, # of connection points: 2
#     Edge 39, Type (0, 0), BuildingBlock: UVAHIK_clean_linker_0, # of connection points: 2
#     Edge 40, Type (0, 0), BuildingBlock: UVAHIK_clean_linker_0, # of connection points: 2
#     Edge 41, Type (0, 0), BuildingBlock: UVAHIK_clean_linker_0, # of connection points: 2
#     Edge 42, Type (0, 0), BuildingBlock: UVAHIK_clean_linker_0, # of connection points: 2
#     Edge 43, Type (0, 0), BuildingBlock: UVAHIK_clean_linker_0, # of connection points: 2
#     Edge 44, Type (0, 0), BuildingBlock: UVAHIK_clean_linker_0, # of connection points: 2
#     Edge 45, Type (0, 0), BuildingBlock: UVAHIK_clean_linker_0, # of connection points: 2
#     Edge 46, Type (0, 0), BuildingBlock: UVAHIK_clean_linker_0, # of connection points: 2
#     Edge 47, Type (0, 0), BuildingBlock: UVAHIK_clean_linker_0, # of connection points: 2
# Relax obj value: 0.244
# Max RMSD: 0.275
# Mean RMSD: 0.269
data_MOF--net-wkf--node1-CUWYAW_clean_sbu_0--edge1-UVAHIK_clean_linker_0
_symmetry_space_group_name_H-M    P1
_symmetry_Int_Tables_number       1
_symmetry_cell_setting            triclinic
loop_
_symmetry_equiv_pos_as_xyz
'x, y, z'
_cell_length_a     35.114126
_cell_length_b     35.142946
_cell_length_c     119.08032
_cell_angle_alpha  90.096225
_cell_angle_beta   90.01118
_cell_angle_gamma 119.28273
loop_
_atom_site_label
_atom_site_type_symbol
_atom_site_fract_x
_atom_site_fract_y
_atom_site_fract_z
_atom_type_partial_charge
C0 C 0.31787 0.90718 0.37213 0.0
Eu1 Eu 0.3912 0.96488 0.38156 0.0
C2 C 0.29779 0.89557 0.3607 0.0
C3 C 0.25935 0.89718 0.35835 0.0
C4 C 0.23876 0.88409 0.34783 0.0
C5 C 0.25593 0.86878 0.33935 0.0
C6 C 0.29461 0.86747 0.34172 0.0
C7 C 0.31523 0.88067 0.35221 0.0
C8 C 0.44011 0.04766 0.37319 0.0
C9 C 0.46911 0.93703 0.37814 0.0
C10 C 0.5604 0.08526 0.39675 0.0
Eu11 Eu 0.48319 1.01989 0.39289 0.0
C12 C 0.58003 0.13282 0.39613 0.0
C13 C 0.62535 0.15884 0.3968 0.0
C14 C 0.64418 0.20415 0.39743 0.0
C15 C 0.61792 0.22428 0.39732 0.0
C16 C 0.57249 0.19793 0.39603 0.0
C17 C 0.55369 0.15255 0.39554 0.0
C18 C 0.43055 0.9504 0.40639 0.0
C19 C 0.40308 1.0287 0.40193 0.0
O20 O 0.35077 0.90059 0.37416 0.0
O21 O 0.32322 0.94332 0.37672 0.0
O22 O 0.39801 1.02552 0.37312 0.0
O23 O 0.45472 1.0228 0.37639 0.0
O24 O 0.42893 0.92972 0.3758 0.0
O25 O 0.49675 0.97078 0.38426 0.0
O26 O 0.54945 0.06417 0.38718 0.0
O27 O 0.53067 0.06647 0.40454 0.0
O28 O 0.47105 0.97804 0.4087 0.0
O29 O 0.42178 0.96043 0.39699 0.0
O30 O 0.4432 0.05137 0.39797 0.0
O31 O 0.37657 0.98853 0.39813 0.0
H32 H 0.24493 0.90825 0.36471 0.0
H33 H 0.20945 0.88622 0.34634 0.0
H34 H 0.30863 0.85527 0.33554 0.0
H35 H 0.34458 0.87859 0.3537 0.0
H36 H 0.64609 0.14405 0.3973 0.0
H37 H 0.67915 0.22307 0.39865 0.0
H38 H 0.55131 0.21223 0.39575 0.0
H39 H 0.51851 0.13283 0.39498 0.0
C40 C 0.45714 0.30967 0.53818 0.0
Eu41 Eu 0.46566 0.3776 0.54945 0.0
C42 C 0.43421 0.27845 0.52888 0.0
C43 C 0.41933 0.29089 0.51933 0.0
C44 C 0.4073 0.26517 0.50954 0.0
C45 C 0.41012 0.22653 0.50903 0.0
C46 C 0.42262 0.21304 0.51884 0.0
C47 C 0.43454 0.2387 0.52861 0.0
C48 C 0.42686 0.42339 0.54134 0.0
C49 C 0.57043 0.45339 0.54858 0.0
C50 C 0.51327 0.54178 0.56545 0.0
Eu51 Eu 0.49459 0.46181 0.56127 0.0
C52 C 0.48594 0.56258 0.56584 0.0
C53 C 0.50477 0.60731 0.56793 0.0
C54 C 0.47843 0.62673 0.56878 0.0
C55 C 0.43276 0.60172 0.56745 0.0
C56 C 0.41429 0.55701 0.56498 0.0
C57 C 0.44065 0.53758 0.56428 0.0
C58 C 0.49856 0.40191 0.57486 0.0
C59 C 0.40308 0.38335 0.56793 0.0
O60 O 0.48202 0.35021 0.53521 0.0
O61 O 0.43757 0.30606 0.54782 0.0
O62 O 0.4083 0.38143 0.54192 0.0
O63 O 0.46639 0.43935 0.54431 0.0
O64 O 0.53871 0.41565 0.54475 0.0
O65 O 0.5619 0.47697 0.55569 0.0
O66 O 0.51746 0.52831 0.55554 0.0
O67 O 0.50573 0.51302 0.5733 0.0
O68 O 0.48969 0.43185 0.57822 0.0
O69 O 0.50837 0.40643 0.56448 0.0
O70 O 0.42242 0.42465 0.56484 0.0
O71 O 0.41828 0.35743 0.56435 0.0
H72 H 0.4192 0.32165 0.51924 0.0
H73 H 0.39812 0.27687 0.50218 0.0
H74 H 0.42446 0.18316 0.51888 0.0
H75 H 0.44624 0.22851 0.5358 0.0
H76 H 0.5397 0.62699 0.56918 0.0
H77 H 0.49378 0.66102 0.57093 0.0
H78 H 0.37941 0.53686 0.56379 0.0
H79 H 0.4256 0.50289 0.56266 0.0
C80 C 0.16486 0.42605 0.70485 0.0
Eu81 Eu 0.10584 0.43948 0.71484 0.0
C82 C 0.17533 0.41578 0.69345 0.0
C83 C 0.17385 0.37568 0.69134 0.0
C84 C 0.18675 0.36707 0.68089 0.0
C85 C 0.20176 0.39847 0.67224 0.0
C86 C 0.20288 0.43847 0.67437 0.0
C87 C 0.18989 0.44698 0.68478 0.0
C88 C 1.02205 0.40532 0.70675 0.0
C89 C 0.13142 0.54464 0.7125 0.0
C90 C 0.98018 0.48184 0.73059 0.0
Eu91 Eu 0.04887 0.47451 0.72666 0.0
C92 C 0.93311 0.45118 0.72965 0.0
C93 C 0.91605 0.40688 0.73237 0.0
C94 C 0.871 0.37883 0.7324 0.0
C95 C 0.84231 0.39455 0.72965 0.0
C96 C 0.85965 0.43819 0.7262 0.0
C97 C 0.90474 0.46629 0.72622 0.0
C98 C 0.11945 0.49149 0.73995 0.0
C99 C 1.04365 0.3863 0.73504 0.0
O100 O 0.16826 0.46447 0.70627 0.0
O101 O 0.13142 0.39552 0.71025 0.0
O102 O 1.04539 0.38617 0.70631 0.0
O103 O 1.04641 0.44418 0.71009 0.0
O104 O 0.14042 0.51273 0.71016 0.0
O105 O 0.09633 0.53749 0.71827 0.0
O106 O 1.00185 0.49428 0.72113 0.0
O107 O 1.00096 0.47305 0.73841 0.0
O108 O 0.09095 0.50369 0.74245 0.0
O109 O 0.1096 0.47318 0.73049 0.0
O110 O 1.01993 0.4036 0.73142 0.0
O111 O 0.084 0.40059 0.73122 0.0
H112 H 0.16318 0.35106 0.69784 0.0
H113 H 0.18484 0.33569 0.67959 0.0
H114 H 0.21491 0.4639 0.66808 0.0
H115 H 0.19206 0.4785 0.68608 0.0
H116 H 0.93741 0.3942 0.7348 0.0
H117 H 0.8585 0.34527 0.735 0.0
H118 H 0.83832 0.45135 0.72416 0.0
H119 H 0.91736 0.50021 0.72397 0.0
C120 C 0.77361 0.15791 0.87283 0.0
Eu121 Eu 0.70131 0.09758 0.88206 0.0
C122 C 0.79745 0.17018 0.86201 0.0
C123 C 0.78773 0.14013 0.8532 0.0
C124 C 0.80945 0.15378 0.84282 0.0
C125 C 0.84101 0.19781 0.84102 0.0
C126 C 0.85092 0.22743 0.84998 0.0
C127 C 0.82941 0.21377 0.86031 0.0
C128 C 0.6526 1.01527 0.87329 0.0
C129 C 0.62077 0.12118 0.87836 0.0
C130 C 0.53741 0.97277 0.89912 0.0
Eu131 Eu 0.60979 0.04089 0.89337 0.0
C132 C 0.5262 0.94513 0.90913 0.0
C133 C 0.54955 0.96173 0.91918 0.0
C134 C 0.54265 0.93407 0.92828 0.0
C135 C 0.51281 0.88929 0.9274 0.0
C136 C 0.48928 0.87288 0.91735 0.0
C137 C 0.49594 0.90063 0.90828 0.0
C138 C 0.66273 0.10927 0.90732 0.0
C139 C 0.69333 0.03678 0.90297 0.0
O140 O 0.73727 0.15952 0.87322 0.0
O141 O 0.77084 0.12427 0.87825 0.0
O142 O 0.69473 0.03749 0.87335 0.0
O143 O 0.63769 0.03983 0.87662 0.0
O144 O 0.66311 0.13352 0.87777 0.0
O145 O 0.59219 0.08312 0.88271 0.0
O146 O 0.56664 0.97089 0.8927 0.0
O147 O 0.54455 1.01273 0.90061 0.0
O148 O 0.62284 0.08041 0.90971 0.0
O149 O 0.67126 0.10015 0.89777 0.0
O150 O 0.65177 1.01388 0.90012 0.0
O151 O 0.71922 0.0756 0.89841 0.0
H152 H 0.76294 0.10635 0.85428 0.0
H153 H 0.80066 0.13009 0.83611 0.0
H154 H 0.87542 0.26138 0.84902 0.0
H155 H 0.83744 0.23755 0.86697 0.0
H156 H 0.5739 0.99586 0.9199 0.0
H157 H 0.56142 0.94747 0.9359 0.0
H158 H 0.46568 0.83856 0.9165 0.0
H159 H 0.47823 0.88718 0.90053 0.0
C160 C 0.64086 0.75918 0.03877 0.0
Eu161 Eu 0.62936 0.68809 0.04884 0.0
C162 C 0.66108 0.78598 1.02863 0.0
C163 C 0.66958 0.76809 1.01902 0.0
C164 C 0.68189 0.79152 1.0089 0.0
C165 C 0.68595 0.8334 1.00814 0.0
C166 C 0.67909 0.8518 1.01793 0.0
C167 C 0.66672 0.82831 1.02803 0.0
C168 C 0.66464 0.63885 0.04086 0.0
C169 C 0.52419 0.61041 0.04657 0.0
C170 C 0.58534 0.51972 0.06456 0.0
Eu171 Eu 0.59446 0.59623 0.06043 0.0
C172 C 0.61444 0.50089 0.06406 0.0
C173 C 0.59698 0.45577 0.06494 0.0
C174 C 0.62462 0.43777 0.06551 0.0
C175 C 0.67034 0.46466 0.06512 0.0
C176 C 0.68756 0.50986 0.06368 0.0
C177 C 0.65982 0.52785 0.06326 0.0
C178 C 0.57508 0.64932 0.0734 0.0
C179 C 0.68243 0.67762 0.06922 0.0
O180 O 0.60793 0.72027 0.03691 0.0
O181 O 0.66621 0.75951 0.04691 0.0
O182 O 0.68402 0.68098 0.04075 0.0
O183 O 0.62549 0.62459 0.04397 0.0
O184 O 0.555 0.65191 0.04528 0.0
O185 O 0.53246 0.58142 0.05143 0.0
O186 O 0.57482 0.52995 0.05492 0.0
O187 O 0.595 0.54967 0.07228 0.0
O188 O 0.56317 0.60905 0.07595 0.0
O189 O 0.59412 0.6573 0.06408 0.0
O190 O 0.66498 0.63683 0.06564 0.0
O191 O 0.66898 0.70433 0.06515 0.0
H192 H 0.66529 0.7354 1.01925 0.0
H193 H 0.68757 0.77648 1.00162 0.0
H194 H 0.6814 0.88366 1.0177 0.0
H195 H 0.65984 0.84261 0.03529 0.0
H196 H 0.56201 0.43457 0.0656 0.0
H197 H 0.61003 0.40297 0.06686 0.0
H198 H 0.72247 0.53149 0.06318 0.0
H199 H 0.67385 0.56288 0.06255 0.0
C200 C 0.92467 0.62945 0.20313 0.0
Eu201 Eu 0.98329 0.6192 0.21429 0.0
C202 C 0.9151 0.65342 0.19428 0.0
C203 C 0.94151 0.66964 0.18467 0.0
C204 C 0.92652 0.68203 0.17514 0.0
C205 C 0.88465 0.67823 0.17497 0.0
C206 C 0.85958 0.6646 0.18489 0.0
C207 C 0.87461 0.65232 0.1944 0.0
C208 C 0.06759 0.65988 0.20629 0.0
C209 C 0.95451 0.5137 0.21223 0.0
C210 C 0.10235 0.56937 0.22774 0.0
Eu211 Eu 1.03956 0.58746 0.22484 0.0
C212 C 0.15003 0.59682 0.22758 0.0
C213 C 0.16962 0.64141 0.23025 0.0
C214 C 0.21504 0.66701 0.23045 0.0
C215 C 0.24153 0.64849 0.22789 0.0
C216 C 0.2217 0.60435 0.22466 0.0
C217 C 0.17626 0.57871 0.22453 0.0
C218 C 0.97555 0.58014 0.23899 0.0
C219 C 0.04937 0.67705 0.23342 0.0
O220 O 0.94247 0.60646 0.19967 0.0
O221 O 0.93839 0.64655 0.21314 0.0
O222 O 1.04382 0.67826 0.20753 0.0
O223 O 1.04455 0.61971 0.20856 0.0
O224 O 0.94559 0.54557 0.21005 0.0
O225 O 0.98974 0.52164 0.21798 0.0
O226 O 0.08291 0.56505 0.2181 0.0
O227 O 0.08199 0.57609 0.23604 0.0
O228 O 1.01376 0.58707 0.2422 0.0
O229 O 0.97097 0.5733 0.22848 0.0
O230 O 0.072 0.65862 0.22972 0.0
O231 O 1.00871 0.66295 0.22986 0.0
H232 H 0.9727 0.67042 0.18427 0.0
H233 H 0.94676 0.69212 0.16769 0.0
H234 H 0.82757 0.662 0.18519 0.0
H235 H 0.85339 0.63956 0.20163 0.0
H236 H 0.14984 0.65625 0.23239 0.0
H237 H 0.22949 0.701 0.23288 0.0
H238 H 0.2413 0.58906 0.22279 0.0
H239 H 0.16162 0.54452 0.22229 0.0
C240 C 0.17 0.75579 0.52302 0.0
Eu241 Eu 0.11288 0.68226 0.51352 0.0
C242 C 0.18045 0.7782 0.53408 0.0
C243 C 0.16142 0.75567 0.54406 0.0
C244 C 0.17439 0.77695 0.55451 0.0
C245 C 0.20677 0.82129 0.55523 0.0
C246 C 0.22511 0.84374 0.54514 0.0
C247 C 0.21211 0.82245 0.53472 0.0
C248 C 1.03113 0.62901 0.52185 0.0
C249 C 0.14022 0.60433 0.51755 0.0
C250 C 0.99664 0.51566 0.49527 0.0
Eu251 Eu 0.06085 0.58994 0.50162 0.0
C252 C 0.96623 0.50645 0.48588 0.0
C253 C 0.97924 0.53388 0.47644 0.0
C254 C 0.94916 0.5281 0.46803 0.0
C255 C 0.90543 0.49526 0.46902 0.0
C256 C 0.89249 0.46794 0.4785 0.0
C257 C 0.92271 0.4735 0.48687 0.0
C258 C 0.12911 0.64688 0.48827 0.0
C259 C 0.05095 0.67058 0.49241 0.0
O260 O 0.17474 0.72126 0.52222 0.0
O261 O 0.13517 0.75084 0.51774 0.0
O262 O 0.05093 0.67106 0.52241 0.0
O263 O 0.0576 0.61687 0.51832 0.0
O264 O 0.15061 0.64616 0.5184 0.0
O265 O 0.10393 0.57507 0.51256 0.0
O266 O 0.99315 0.53918 0.50328 0.0
O267 O 1.03735 0.52837 0.49262 0.0
O268 O 0.10238 0.60662 0.48562 0.0
O269 O 0.11829 0.6537 0.49781 0.0
O270 O 1.03024 0.62873 0.495 0.0
O271 O 0.08906 0.69817 0.49714 0.0
H272 H 0.13694 0.72146 0.54379 0.0
H273 H 0.15896 0.75859 0.56203 0.0
H274 H 0.25051 0.87757 0.54527 0.0
H275 H 0.22754 0.84044 0.52715 0.0
H276 H 1.01248 0.56035 0.47567 0.0
H277 H 0.95985 0.54983 0.46087 0.0
H278 H 0.85903 0.44208 0.47941 0.0
H279 H 0.91196 0.45261 0.4942 0.0
C280 C 0.44085 0.15195 0.69024 0.0
Eu281 Eu 0.45404 0.09078 0.68149 0.0
C282 C 0.42655 0.16278 0.70091 0.0
C283 C 0.42291 0.13978 0.71085 0.0
C284 C 0.41365 0.15339 0.7211 0.0
C285 C 0.40789 0.19039 0.72166 0.0
C286 C 0.4107 0.21266 0.71159 0.0
C287 C 0.41995 0.19902 0.70137 0.0
C288 C 0.42077 1.00911 0.69067 0.0
C289 C 0.55769 0.11487 0.68592 0.0
C290 C 0.49578 0.96382 0.666 0.0
Eu291 Eu 0.49107 0.0329 0.67121 0.0
C292 C 0.47749 0.93536 0.65619 0.0
C293 C 0.46706 0.95119 0.64651 0.0
C294 C 0.44396 0.9229 0.63773 0.0
C295 C 0.43041 0.87823 0.63856 0.0
C296 C 0.4411 0.86253 0.64825 0.0
C297 C 0.46447 0.89093 0.657 0.0
C298 C 0.50539 0.0997 0.65669 0.0
C299 C 0.40406 1.02765 0.6607 0.0
O300 O 0.47805 0.15202 0.69059 0.0
O301 O 0.41167 0.11971 0.68419 0.0
O302 O 0.40077 1.03165 0.6902 0.0
O303 O 0.4601 0.0332 0.68756 0.0
O304 O 0.52741 0.12729 0.68592 0.0
O305 O 0.54935 0.07624 0.682 0.0
O306 O 0.46614 0.96322 0.67274 0.0
O307 O 0.52781 1.0034 0.6641 0.0
O308 O 0.51692 0.07051 0.65462 0.0
O309 O 0.48784 0.09151 0.66621 0.0
O310 O 0.42307 1.00528 0.66412 0.0
O311 O 0.41558 0.06695 0.66496 0.0
H312 H 0.42804 0.11179 0.71072 0.0
H313 H 0.41115 0.13495 0.7286 0.0
H314 H 0.40713 0.24156 0.71164 0.0
H315 H 0.42306 0.21756 0.69383 0.0
H316 H 0.47569 0.98521 0.64586 0.0
H317 H 0.43579 0.93574 0.63041 0.0
H318 H 0.43143 0.82828 0.64904 0.0
H319 H 0.47143 0.87807 0.66452 0.0
C320 C 0.3214 0.43509 0.85704 0.0
Eu321 Eu 0.39262 0.44615 0.84699 0.0
C322 C 0.29978 0.42376 0.86828 0.0
C323 C 0.26303 0.38268 0.87019 0.0
C324 C 0.24066 0.37306 0.88048 0.0
C325 C 0.25426 0.40437 0.88916 0.0
C326 C 0.29122 0.44537 0.88724 0.0
C327 C 0.31357 0.45493 0.87698 0.0
C328 C 0.44228 0.41239 0.85561 0.0
C329 C 0.47287 0.54889 0.8502 0.0
C330 C 0.55481 0.48114 0.82888 0.0
Eu331 Eu 0.48313 0.47854 0.83528 0.0
C332 C 0.56564 0.46595 0.81843 0.0
C333 C 0.56169 0.48173 0.80789 0.0
C334 C 0.56704 0.4633 0.79803 0.0
C335 C 0.57586 0.42843 0.79851 0.0
C336 C 0.58023 0.41296 0.80903 0.0
C337 C 0.5754 0.43172 0.81889 0.0
C338 C 0.42867 0.49309 0.82137 0.0
C339 C 0.39944 0.39148 0.82633 0.0
O340 O 0.35707 0.47268 0.8561 0.0
O341 O 0.32334 0.40444 0.85121 0.0
O342 O 0.40018 0.39324 0.85569 0.0
O343 O 0.45684 0.45132 0.85219 0.0
O344 O 0.43056 0.51986 0.8509 0.0
O345 O 0.50127 0.53848 0.84584 0.0
O346 O 0.5257 0.44998 0.83517 0.0
O347 O 0.54858 0.51498 0.82819 0.0
O348 O 0.4684 0.50312 0.81882 0.0
O349 O 0.42106 0.47679 0.83105 0.0
O350 O 0.44106 0.40957 0.82912 0.0
O351 O 0.37363 0.40532 0.83082 0.0
H352 H 0.25119 0.35805 0.86365 0.0
H353 H 0.21272 0.34096 0.88164 0.0
H354 H 0.30239 0.47073 0.89357 0.0
H355 H 0.34129 0.48719 0.87582 0.0
H356 H 0.55353 0.50764 0.80724 0.0
H357 H 0.56341 0.47574 0.79001 0.0
H358 H 0.5877 0.38654 0.80962 0.0
H359 H 0.57826 0.41877 0.82691 0.0
C360 C 0.91839 0.30502 1.02354 0.0
Eu361 Eu 0.97663 0.37714 1.01386 0.0
C362 C 0.91108 0.27935 0.03397 0.0
C363 C 0.93493 0.2986 0.04381 0.0
C364 C 0.92319 0.27579 0.05402 0.0
C365 C 0.88727 0.23319 0.05465 0.0
C366 C 0.86454 0.21358 0.04466 0.0
C367 C 0.87629 0.23644 0.03446 0.0
C368 C 0.05997 0.4266 1.02193 0.0
C369 C 0.94743 0.45439 1.0166 0.0
C370 C 0.09563 0.54592 0.99812 0.0
Eu371 Eu 1.03085 0.46881 1.00231 0.0
C372 C 0.14327 0.56654 0.99891 0.0
C373 C 0.16842 0.61188 0.99816 0.0
C374 C 0.21389 0.63173 0.99794 0.0
C375 C 0.23509 0.60654 0.99857 0.0
C376 C 0.2095 0.56104 0.99985 0.0
C377 C 0.16397 0.5412 0.99991 0.0
C378 C 0.95967 0.41557 0.98925 0.0
C379 C 1.03984 0.38822 0.99349 0.0
O380 O 0.92053 0.34295 1.02479 0.0
O381 O 0.94666 0.30611 1.01618 0.0
O382 O 1.03807 0.38449 1.02209 0.0
O383 O 1.03477 0.44086 1.01879 0.0
O384 O 0.93826 0.41319 1.01805 0.0
O385 O 0.98325 0.48326 1.01141 0.0
O386 O 0.07435 0.53577 1.00765 0.0
O387 O 0.07745 0.51522 0.99051 0.0
O388 O 0.98701 0.45595 0.98679 0.0
O389 O 0.97087 0.40742 0.99856 0.0
O390 O 0.06238 0.42887 0.99713 0.0
O391 O 1.00004 0.36164 0.99744 0.0
H392 H 0.96183 0.33176 0.04366 0.0
H393 H 0.94197 0.2918 0.06147 0.0
H394 H 0.83646 0.18115 0.04478 0.0
H395 H 0.85708 0.22108 1.02702 0.0
H396 H 0.15288 0.63184 0.99735 0.0
H397 H 0.23216 0.66667 0.99669 0.0
H398 H 0.22454 0.54061 1.00051 0.0
H399 H 0.1449 0.506 1.00051 0.0
C400 C 0.64801 0.90773 0.18908 0.0
Eu401 Eu 0.63477 0.96836 0.18011 0.0
C402 C 0.65604 0.89425 0.2003 0.0
C403 C 0.69569 0.89487 0.20249 0.0
C404 C 0.70287 0.87999 0.21279 0.0
C405 C 0.67047 0.86382 0.22118 0.0
C406 C 0.63085 0.86347 0.21898 0.0
C407 C 0.62374 0.87846 0.20871 0.0
C408 C 0.66767 0.05017 0.18923 0.0
C409 C 0.53236 0.94774 0.18457 0.0
C410 C 0.59669 0.09675 0.16369 0.0
Eu411 Eu 0.59995 1.0271 0.16917 0.0
C412 C 0.61572 0.1257 0.15402 0.0
C413 C 0.62763 0.11077 0.14441 0.0
C414 C 0.65106 0.1397 0.13579 0.0
C415 C 0.66347 0.1841 0.13673 0.0
C416 C 0.65122 0.19884 0.14635 0.0
C417 C 0.62752 0.16982 0.15493 0.0
C418 C 0.58478 0.95892 0.15503 0.0
C419 C 0.68681 1.03018 0.15937 0.0
O420 O 0.60934 0.90326 0.18719 0.0
O421 O 0.67918 0.9436 0.1847 0.0
O422 O 0.68745 1.0274 0.18903 0.0
O423 O 0.62871 1.02634 0.1858 0.0
O424 O 0.56235 0.93505 0.18533 0.0
O425 O 0.54097 0.98523 0.17984 0.0
O426 O 0.62573 0.09696 0.17059 0.0
O427 O 0.5647 0.05731 0.16159 0.0
O428 O 0.57353 0.98817 0.15275 0.0
O429 O 0.6024 0.96765 0.16455 0.0
O430 O 0.6683 0.05344 0.16245 0.0
O431 O 0.67408 0.99092 0.16374 0.0
H432 H 0.72111 0.90656 0.19618 0.0
H433 H 0.73401 0.8814 0.21417 0.0
H434 H 0.60476 0.85067 0.22511 0.0
H435 H 0.59261 0.87707 0.20731 0.0
H436 H 0.61983 0.07697 0.14371 0.0
H437 H 0.6604 0.12758 0.12852 0.0
H438 H 0.65994 0.23284 0.14722 0.0
H439 H 0.61933 0.18199 0.16239 0.0
C440 C 0.77035 0.62692 0.35593 0.0
Eu441 Eu 0.69806 0.61431 0.34619 0.0
C442 C 0.79159 0.63668 0.36723 0.0
C443 C 0.82598 0.67862 0.36977 0.0
C444 C 0.84803 0.68726 0.38011 0.0
C445 C 0.8365 0.65412 0.38818 0.0
C446 C 0.80193 0.61221 0.38562 0.0
C447 C 0.77988 0.6036 0.37531 0.0
C448 C 0.64754 0.6469 0.35497 0.0
C449 C 0.61845 0.51203 0.34983 0.0
C450 C 0.53534 0.57705 0.32788 0.0
Eu451 Eu 0.60742 0.58115 0.33452 0.0
C452 C 0.52421 0.58993 0.3171 0.0
C453 C 0.52596 0.57041 0.30694 0.0
C454 C 0.52058 0.58657 0.2967 0.0
C455 C 0.51387 0.62281 0.29642 0.0
C456 C 0.51161 0.64198 0.30658 0.0
C457 C 0.51649 0.62553 0.31682 0.0
C458 C 0.662 0.56747 0.32045 0.0
C459 C 0.69023 0.66857 0.32575 0.0
O460 O 0.73607 0.58856 0.35444 0.0
O461 O 0.76653 0.65778 0.35079 0.0
O462 O 0.68968 0.66667 0.35501 0.0
O463 O 0.63348 0.60812 0.35147 0.0
O464 O 0.66059 0.54137 0.35066 0.0
O465 O 0.58997 0.52169 0.34518 0.0
O466 O 0.5647 0.60951 0.33384 0.0
O467 O 0.54149 0.54308 0.32779 0.0
O468 O 0.62222 0.55733 0.31795 0.0
O469 O 0.66974 0.58354 0.33017 0.0
O470 O 0.64891 0.65069 0.32878 0.0
O471 O 0.71614 0.65444 0.32998 0.0
H472 H 0.8362 0.70476 0.36371 0.0
H473 H 0.87407 0.72006 0.38177 0.0
H474 H 0.79246 0.58557 0.39149 0.0
H475 H 0.75405 0.5707 0.37363 0.0
H476 H 0.53244 0.54328 0.30684 0.0
H477 H 0.52251 0.57124 0.28898 0.0
H478 H 0.50573 0.6695 0.3066 0.0
H479 H 0.51529 0.64132 0.32454 0.0
C480 C 0.11402 0.73224 0.24417 0.0
C481 C 0.06839 0.70791 0.24302 0.0
C482 C 0.1332 0.75386 0.25422 0.0
C483 C 0.11121 0.78847 0.28223 0.0
H484 H 0.21478 0.78252 0.29072 0.0
C485 C 0.18756 0.83124 0.32728 0.0
C486 C 0.23349 0.85368 0.32815 0.0
C487 C 0.16675 0.81586 0.31686 0.0
C488 C 0.18622 0.78505 0.28846 0.0
H489 H 1.00707 0.68857 0.25148 0.0
H490 H 1.04045 0.72582 0.26915 0.0
H491 H 0.1799 0.7528 0.27278 0.0
H492 H 0.29318 0.87869 0.31842 0.0
H493 H 0.2571 0.85159 0.30041 0.0
H494 H 0.11739 0.82006 0.29813 0.0
C495 C 0.06158 0.72888 0.26219 0.0
C496 C 0.16613 0.76802 0.27809 0.0
C497 C 1.04231 0.7076 0.25202 0.0
C498 C 0.25784 0.86079 0.31822 0.0
C499 C 0.23707 0.84525 0.30783 0.0
C500 C 0.13127 0.80535 0.29267 0.0
C501 C 0.1074 0.75125 0.26356 0.0
C502 C 0.12845 0.76969 0.27474 0.0
C503 C 0.1912 0.82223 0.30699 0.0
C504 C 0.16926 0.8041 0.29591 0.0
H505 H 0.13508 0.73323 0.23739 0.0
H506 H 0.16849 0.77173 0.25474 0.0
H507 H 0.08254 0.79078 0.27998 0.0
H508 H 0.16748 0.82448 0.33471 0.0
H509 H 0.13142 0.7979 0.3166 0.0
C510 C 0.37041 0.19686 0.4905 0.0
C511 C 0.4033 0.20222 0.49816 0.0
C512 C 0.36577 0.1758 0.48012 0.0
C513 C 0.42955 0.15008 0.45967 0.0
H514 H 0.31709 0.06913 0.44675 0.0
C515 C 0.417 0.09246 0.41402 0.0
C516 C 0.39201 0.0474 0.41186 0.0
C517 C 0.41393 0.11015 0.42428 0.0
C518 C 0.34874 0.09154 0.45026 0.0
H519 H 0.45721 0.18944 0.50069 0.0
H520 H 0.44893 0.15273 0.48278 0.0
H521 H 0.32069 0.10142 0.46529 0.0
H522 H 0.34246 0.98595 0.41873 0.0
H523 H 0.33665 1.01712 0.43674 0.0
H524 H 0.45775 0.14037 0.44476 0.0
C525 C 0.42668 0.16486 0.48477 0.0
C526 C 0.35081 0.11035 0.46085 0.0
C527 C 0.4311 0.18554 0.49514 0.0
C528 C 0.36184 1.02083 0.42005 0.0
C529 C 0.35868 0.0387 0.4304 0.0
C530 C 0.42746 0.1317 0.44908 0.0
C531 C 0.39422 0.15997 0.47705 0.0
C532 C 0.39132 0.13982 0.46573 0.0
C533 C 0.38577 0.08344 0.43277 0.0
C534 C 0.38709 0.10225 0.44418 0.0
H535 H 0.34819 0.20897 0.49252 0.0
H536 H 0.34057 0.17293 0.47438 0.0
H537 H 0.46131 0.1729 0.46305 0.0
H538 H 0.44038 0.11407 0.40789 0.0
H539 H 0.43455 0.14483 0.42567 0.0
C540 C 0.20984 0.40686 0.6511 0.0
C541 C 0.21704 0.39021 0.66115 0.0
C542 C 0.22599 0.40125 0.64082 0.0
C543 C 0.26846 0.33583 0.62612 0.0
H544 H 0.32092 0.4358 0.6063 0.0
C545 C 0.37027 0.34471 0.58616 0.0
C546 C 0.37045 0.37055 0.57713 0.0
C547 C 0.34773 0.34241 0.59614 0.0
C548 C 0.30573 0.40713 0.61158 0.0
H549 H 0.24684 0.35384 0.66802 0.0
H550 H 0.27447 0.34366 0.6501 0.0
H551 H 0.28963 0.44102 0.62402 0.0
H552 H 0.3446 0.41162 0.57122 0.0
H553 H 0.30381 0.40592 0.58822 0.0
H554 H 0.28466 0.30194 0.61362 0.0
C555 C 0.25602 0.36093 0.65019 0.0
C556 C 0.28781 0.41025 0.62183 0.0
C557 C 0.24003 0.36674 0.66051 0.0
C558 C 0.34518 0.39145 0.57802 0.0
C559 C 0.32228 0.3887 0.58788 0.0
C560 C 0.28624 0.3326 0.6158 0.0
C561 C 0.24972 0.37859 0.64021 0.0
C562 C 0.26877 0.37467 0.62926 0.0
C563 C 0.32453 0.3656 0.59728 0.0
C564 C 0.30501 0.36819 0.60833 0.0
H565 H 0.1915 0.42423 0.65114 0.0
H566 H 0.21965 0.41459 0.63331 0.0
H567 H 0.25382 0.30759 0.63157 0.0
H568 H 0.38999 0.32879 0.58581 0.0
H569 H 0.35052 0.32438 0.60316 0.0
C570 C 0.05172 0.35596 0.75357 0.0
C571 C 1.02537 0.35529 0.7446 0.0
C572 C 1.03263 0.33422 0.76369 0.0
C573 C 0.92965 0.29723 0.77969 0.0
H574 H 0.97483 0.24074 0.79932 0.0
C575 C 0.87015 0.25369 0.82549 0.0
C576 C 0.86277 0.21341 0.82983 0.0
C577 C 0.8906 0.26881 0.81508 0.0
C578 C 0.96158 0.25614 0.7939 0.0
H579 H 0.95851 0.32874 0.73891 0.0
H580 H 0.92555 0.29014 0.75624 0.0
H581 H 1.00931 0.26871 0.78104 0.0
H582 H 0.87178 0.15767 0.82649 0.0
H583 H 0.90721 0.18391 0.80825 0.0
H584 H 0.88189 0.28463 0.7924 0.0
C585 C 0.96083 0.30833 0.7557 0.0
C586 C 0.98165 0.27256 0.78345 0.0
C587 C 0.97978 0.33012 0.74569 0.0
C588 C 0.87657 0.18867 0.82341 0.0
C589 C 0.89734 0.20396 0.81299 0.0
C590 C 0.90983 0.28109 0.7901 0.0
C591 C 0.98682 0.31133 0.76501 0.0
C592 C 0.96586 0.29326 0.77617 0.0
C593 C 0.90447 0.2442 0.80864 0.0
C594 C 0.9255 0.26041 0.7974 0.0
H595 H 0.08693 0.3756 0.75306 0.0
H596 H 0.05376 0.3374 0.77067 0.0
H597 H 0.91683 0.31353 0.77445 0.0
H598 H 0.8596 0.27351 0.83008 0.0
H599 H 0.89587 0.30013 0.81212 0.0
C600 C 0.68633 0.97432 0.9144 0.0
C601 C 0.70755 1.01962 0.91256 0.0
C602 C 0.69203 0.9571 0.92443 0.0
C603 C 0.7191 0.98547 0.95429 0.0
H604 H 0.7184 0.87485 0.95511 0.0
C605 C 0.7217 0.90244 0.99642 0.0
C606 C 0.69502 0.85681 0.99709 0.0
C607 C 0.72851 0.92433 0.98613 0.0
C608 C 0.71821 0.90556 0.95507 0.0
H609 H 0.75238 0.08241 0.9198 0.0
H610 H 0.7628 0.05225 0.93742 0.0
H611 H 0.72308 0.90984 0.93714 0.0
H612 H 0.65422 0.79882 0.98729 0.0
H613 H 0.66597 0.83669 0.96947 0.0
H614 H 0.71329 0.98071 0.97222 0.0
C615 C 0.74156 1.03004 0.93104 0.0
C616 C 0.72106 0.92577 0.94473 0.0
C617 C 0.73614 0.04735 0.92088 0.0
C618 C 0.67568 0.83378 0.98713 0.0
C619 C 0.68244 0.85564 0.97686 0.0
C620 C 0.71617 0.96518 0.96466 0.0
C621 C 0.71891 0.98464 0.93302 0.0
C622 C 0.72081 0.96568 0.94415 0.0
C623 C 0.70884 0.90129 0.97619 0.0
C624 C 0.71495 0.92453 0.9652 0.0
H625 H 0.66378 0.95203 0.90821 0.0
H626 H 0.67356 0.92213 0.92564 0.0
H627 H 0.71825 1.01586 0.9542 0.0
H628 H 0.73763 0.92133 1.00386 0.0
H629 H 0.74954 0.95936 0.98597 0.0
C630 C 0.82186 0.65637 0.16145 0.0
C631 C 0.86577 0.68489 0.1643 0.0
C632 C 0.80446 0.66036 0.1512 0.0
C633 C 0.82082 0.7353 0.12735 0.0
H634 H 0.7472 0.62742 0.11147 0.0
C635 C 0.71669 0.72055 0.08703 0.0
C636 C 0.71328 0.68995 0.07889 0.0
C637 C 0.73885 0.72473 0.09724 0.0
C638 C 0.76789 0.65798 0.11572 0.0
H639 H 0.92532 0.74096 0.15854 0.0
H640 H 0.89493 0.74782 0.14061 0.0
H641 H 0.77796 0.62523 0.12958 0.0
H642 H 0.73316 0.64203 0.07482 0.0
H643 H 0.77187 0.64976 0.09232 0.0
H644 H 0.81062 0.76792 0.11333 0.0
C645 C 0.87393 0.72236 0.14638 0.0
C646 C 0.7852 0.65667 0.12622 0.0
C647 C 0.89149 0.71817 0.15663 0.0
C648 C 0.73474 0.66569 0.08092 0.0
C649 C 0.75671 0.66985 0.09103 0.0
C650 C 0.80308 0.73659 0.11683 0.0
C651 C 0.83029 0.69308 0.14345 0.0
C652 C 0.81198 0.69524 0.13221 0.0
C653 C 0.75793 0.69832 0.09951 0.0
C654 C 0.7766 0.6979 0.11083 0.0
H655 H 0.80102 0.62996 0.16701 0.0
H656 H 0.77061 0.63749 0.14934 0.0
H657 H 0.84105 0.76566 0.13173 0.0
H658 H 0.70014 0.73938 0.08581 0.0
H659 H 0.73907 0.747 0.10357 0.0
C660 C 0.36839 0.03506 0.6429 0.0
C661 C 0.37359 1.00881 0.65098 0.0
C662 C 0.34592 1.01666 0.63278 0.0
C663 C 0.27095 0.90897 0.619 0.0
H664 H 0.3211 0.97082 0.59128 0.0
C665 C 0.22633 0.82156 0.57575 0.0
C666 C 0.22219 0.84381 0.5664 0.0
C667 C 0.24193 0.84288 0.58608 0.0
C668 C 0.30626 0.95322 0.59893 0.0
H669 H 0.35784 0.94237 0.65486 0.0
H670 H 0.3195 0.91089 0.63749 0.0
H671 H 0.35161 1.00624 0.60926 0.0
H672 H 0.23064 0.9063 0.56089 0.0
H673 H 0.258 0.94336 0.57883 0.0
H674 H 0.22618 0.85568 0.60871 0.0
C675 C 0.332 0.94544 0.63887 0.0
C676 C 0.32375 0.97367 0.60928 0.0
C677 C 0.35433 0.96369 0.64888 0.0
C678 C 0.23396 0.88808 0.56778 0.0
C679 C 0.2497 0.90945 0.57811 0.0
C680 C 0.25363 0.88851 0.60868 0.0
C681 C 0.32794 0.97158 0.63055 0.0
C682 C 0.30677 0.95162 0.61949 0.0
C683 C 0.25401 0.88722 0.58743 0.0
C684 C 0.27133 0.91006 0.59847 0.0
H685 H 0.38336 0.06998 0.64415 0.0
H686 H 0.3432 0.03786 0.62663 0.0
H687 H 0.25625 0.89109 0.62664 0.0
H688 H 0.21848 0.78777 0.57503 0.0
H689 H 0.24542 0.82474 0.59297 0.0
C690 C 0.37226 0.2245 0.73346 0.0
C691 C 0.40028 0.20648 0.73268 0.0
C692 C 0.36618 0.24066 0.7437 0.0
C693 C 0.37955 0.23554 0.77464 0.0
H694 H 0.37556 0.34385 0.7752 0.0
C695 C 0.40659 0.33506 0.81529 0.0
C696 C 0.38529 0.3597 0.81688 0.0
C697 C 0.40178 0.31219 0.8053 0.0
C698 C 0.37578 0.31315 0.77521 0.0
H699 H 0.44431 0.19218 0.74226 0.0
H700 H 0.43358 0.21998 0.76004 0.0
H701 H 0.38135 0.31328 0.75727 0.0
H702 H 0.34104 0.37853 0.80925 0.0
H703 H 0.33182 0.3377 0.79174 0.0
H704 H 0.37446 0.23553 0.79256 0.0
C705 C 0.41567 0.221 0.75275 0.0
C706 C 0.37925 0.29562 0.7649 0.0
C707 C 0.42182 0.20494 0.74251 0.0
C708 C 0.35728 0.35926 0.80837 0.0
C709 C 0.35263 0.33642 0.79827 0.0
C710 C 0.37598 0.25297 0.78494 0.0
C711 C 0.38782 0.2392 0.75351 0.0
C712 C 0.38183 0.25686 0.76446 0.0
C713 C 0.37558 0.31327 0.7965 0.0
C714 C 0.37472 0.29241 0.78542 0.0
H715 H 0.35456 0.22577 0.72615 0.0
H716 H 0.34403 0.25383 0.74395 0.0
H717 H 0.38049 0.2052 0.77468 0.0
H718 H 0.42873 0.33501 0.82162 0.0
H719 H 0.42051 0.29543 0.80428 0.0
C720 C 0.10404 0.39731 0.98235 0.0
C721 C 0.05849 0.37582 0.98385 0.0
C722 C 0.12245 0.39259 0.97238 0.0
C723 C 0.09765 0.36918 0.94229 0.0
H724 H 0.20691 0.36692 0.94192 0.0
C725 C 0.18388 0.36983 0.90041 0.0
C726 C 0.22979 0.39487 0.90008 0.0
C727 C 0.16105 0.36236 0.91058 0.0
C728 C 0.17665 0.36804 0.94183 0.0
H729 H 0.99656 0.33158 0.97608 0.0
H730 H 1.02881 0.32322 0.95857 0.0
H731 H 0.17037 0.36135 0.95973 0.0
H732 H 0.28737 0.43063 0.91047 0.0
H733 H 0.24784 0.41878 0.92802 0.0
H734 H 0.10448 0.37709 0.92443 0.0
C735 C 0.05027 0.34378 0.96517 0.0
C736 C 0.15552 0.36463 0.95208 0.0
C737 C 1.03178 0.34808 0.97526 0.0
C738 C 0.25208 0.4117 0.91029 0.0
C739 C 0.22929 0.40432 0.92044 0.0
C740 C 0.11892 0.37284 0.93202 0.0
C741 C 0.09589 0.36662 0.96353 0.0
C742 C 0.11603 0.36577 0.95249 0.0
C743 C 0.18337 0.37968 0.92076 0.0
C744 C 0.15912 0.37298 0.93164 0.0
H745 H 0.12557 0.41916 0.98876 0.0
H746 H 0.15759 0.41106 0.97143 0.0
H747 H 0.06762 0.37077 0.94226 0.0
H748 H 0.16535 0.35663 0.89275 0.0
H749 H 0.12581 0.34281 0.91044 0.0
C750 C 0.74017 0.09296 0.14788 0.0
C751 C 0.71799 0.04769 0.14982 0.0
C752 C 0.76331 0.11033 0.13793 0.0
C753 C 0.76711 0.08156 0.10827 0.0
H754 H 0.87256 0.19412 0.10788 0.0
C755 C 0.85575 0.16474 0.06659 0.0
C756 C 0.87226 0.21012 0.06572 0.0
C757 C 0.84008 0.14308 0.07687 0.0
C758 C 0.84292 0.16285 0.10779 0.0
H759 H 0.7037 0.98517 0.14283 0.0
H760 H 0.74483 1.01563 0.12537 0.0
H761 H 0.84141 0.15921 0.12575 0.0
H762 H 0.88447 0.2679 0.07514 0.0
H763 H 0.85741 0.23041 0.09294 0.0
H764 H 0.76825 0.08562 0.09029 0.0
C765 C 0.74403 0.03768 0.13161 0.0
C766 C 0.82506 0.14269 0.11809 0.0
C767 C 0.72097 1.02022 0.14168 0.0
C768 C 0.87291 0.23316 0.07547 0.0
C769 C 0.85727 0.21153 0.08573 0.0
C770 C 0.785 0.10177 0.09796 0.0
C771 C 0.76495 0.083 0.12953 0.0
C772 C 0.78647 0.10208 0.1185 0.0
C773 C 0.84046 0.16612 0.0866 0.0
C774 C 0.82281 0.14308 0.09756 0.0
H775 H 0.73834 0.11512 0.15392 0.0
H776 H 0.7783 0.1452 0.13664 0.0
H777 H 0.73711 0.05059 0.10823 0.0
H778 H 0.85518 0.14587 0.05934 0.0
H779 H 0.82802 0.10825 0.07721 0.0
C780 C 0.72626 0.69588 0.30696 0.0
C781 C 0.70341 0.69955 0.31622 0.0
C782 C 0.72775 0.71683 0.29676 0.0
C783 C 0.663 0.75837 0.28154 0.0
H784 H 0.7605 0.80864 0.26086 0.0
C785 C 0.66079 0.85345 0.24222 0.0
C786 C 0.67757 0.84689 0.2321 0.0
C787 C 0.66631 0.83664 0.25238 0.0
C788 C 0.73279 0.79435 0.26649 0.0
H789 H 0.66682 0.73021 0.32229 0.0
H790 H 0.67076 0.76776 0.30484 0.0
H791 H 0.76795 0.77895 0.2788 0.0
H792 H 0.71348 0.81704 0.22493 0.0
H793 H 0.72338 0.78815 0.24265 0.0
H794 H 0.6277 0.7734 0.26931 0.0
C795 C 0.68647 0.74786 0.30523 0.0
C796 C 0.7371 0.77732 0.2768 0.0
C797 C 0.68475 0.72682 0.31531 0.0
C798 C 0.7006 0.82344 0.23253 0.0
C799 C 0.70626 0.80674 0.24271 0.0
C800 C 0.65872 0.77535 0.27129 0.0
C801 C 0.70645 0.74186 0.29566 0.0
C802 C 0.70237 0.75948 0.28453 0.0
C803 C 0.68891 0.81282 0.25278 0.0
C804 C 0.69362 0.79393 0.26364 0.0
H805 H 0.74017 0.67436 0.30734 0.0
H806 H 0.74337 0.71134 0.28959 0.0
H807 H 0.63507 0.74384 0.2871 0.0
H808 H 0.64366 0.87202 0.24233 0.0
H809 H 0.65315 0.84274 0.25997 0.0
C810 C 0.05843 0.71275 0.47461 0.0
C811 C 1.03204 0.68356 0.48297 0.0
C812 C 1.03973 0.7169 0.46453 0.0
C813 C 0.93309 0.6912 0.45124 0.0
H814 H 0.98792 0.68572 0.4235 0.0
C815 C 0.83856 0.64278 0.40912 0.0
C816 C 0.86068 0.66287 0.39913 0.0
C817 C 0.86118 0.65005 0.4193 0.0
C818 C 0.97237 0.68792 0.43114 0.0
H819 H 0.96534 0.63731 0.4875 0.0
H820 H 0.93303 0.64493 0.47022 0.0
H821 H 1.02483 0.69267 0.44139 0.0
H822 H 0.92459 0.70651 0.39219 0.0
H823 H 0.96376 0.71992 0.40996 0.0
H824 H 0.88043 0.68596 0.44107 0.0
C825 C 0.96799 0.66484 0.47133 0.0
C826 C 0.99367 0.692 0.44143 0.0
C827 C 0.98658 0.66041 0.48128 0.0
C828 C 0.90619 0.69078 0.39969 0.0
C829 C 0.92884 0.69807 0.40989 0.0
C830 C 0.91187 0.68723 0.44098 0.0
C831 C 0.99426 0.69235 0.46269 0.0
C832 C 0.974 0.69297 0.45164 0.0
C833 C 0.9067 0.67775 0.41986 0.0
C834 C 0.9308 0.68479 0.43077 0.0
H835 H 0.0936 0.73041 0.47557 0.0
H836 H 0.06096 0.73864 0.45809 0.0
H837 H 0.91718 0.69256 0.4589 0.0
H838 H 0.80353 0.62148 0.40911 0.0
H839 H 0.8429 0.63328 0.42672 0.0
C840 C 0.64665 0.71585 0.35964 0.0
C841 C 0.62264 0.67077 0.35737 0.0
C842 C 0.62596 0.74053 0.36178 0.0
C843 C 0.5243 0.74655 0.35781 0.0
H844 H 0.57437 0.83331 0.38142 0.0
C845 C 0.45365 0.86264 0.37063 0.0
C846 C 0.48353 0.90501 0.37442 0.0
C847 C 0.46732 0.83165 0.36834 0.0
C848 C 0.56016 0.80985 0.37466 0.0
H849 H 0.55705 0.6164 0.35578 0.0
H850 H 0.52043 0.66007 0.35928 0.0
H851 H 0.60257 0.78354 0.3781 0.0
H852 H 0.55193 0.94791 0.37824 0.0
H853 H 0.57561 0.8952 0.37401 0.0
H854 H 0.48227 0.77364 0.35428 0.0
C855 C 0.55575 0.67617 0.35935 0.0
C856 C 0.57633 0.7809 0.37279 0.0
C857 C 0.57672 0.65106 0.35733 0.0
C858 C 0.52763 0.91569 0.37546 0.0
C859 C 0.54126 0.885 0.37312 0.0
C860 C 0.50817 0.77589 0.35965 0.0
C861 C 0.58021 0.72136 0.3617 0.0
C862 C 0.5593 0.74919 0.36422 0.0
C863 C 0.51134 0.84205 0.36974 0.0
C864 C 0.52638 0.80867 0.36799 0.0
H865 H 0.68201 0.73256 0.35974 0.0
H866 H 0.64616 0.77514 0.36336 0.0
H867 H 0.51037 0.72281 0.3511 0.0
H868 H 0.41938 0.8529 0.36976 0.0
H869 H 0.44302 0.7991 0.3658 0.0
C870 C 0.62815 0.45337 0.53568 0.0
C871 C 0.61709 0.4684 0.54547 0.0
C872 C 0.67218 0.46787 0.5329 0.0
C873 C 0.78231 0.51169 0.54528 0.0
H874 H 0.82616 0.55835 0.51574 0.0
C875 C 0.96914 0.59983 0.53563 0.0
C876 C 0.98375 0.60143 0.52457 0.0
C877 C 0.92429 0.5808 0.5381 0.0
C878 C 0.81476 0.54462 0.52399 0.0
H879 H 0.64432 0.51005 0.56007 0.0
H880 H 0.72052 0.53405 0.55541 0.0
H881 H 0.74914 0.5298 0.52 0.0
H882 H 0.96194 0.58727 0.50732 0.0
H883 H 0.88454 0.55051 0.51155 0.0
H884 H 0.84704 0.52482 0.54926 0.0
C885 C 0.69519 0.51149 0.5498 0.0
C886 C 0.77024 0.52843 0.52644 0.0
C887 C 0.65136 0.49787 0.55244 0.0
C888 C 0.95217 0.58393 0.51601 0.0
C889 C 0.9073 0.56407 0.51847 0.0
C890 C 0.82662 0.52698 0.54278 0.0
C891 C 0.70635 0.4969 0.53997 0.0
C892 C 0.75343 0.51219 0.53716 0.0
C893 C 0.89228 0.5627 0.52955 0.0
C894 C 0.84403 0.5443 0.5321 0.0
H895 H 0.60277 0.43072 0.5301 0.0
H896 H 0.6795 0.45581 0.52529 0.0
H897 H 0.77047 0.49895 0.5536 0.0
H898 H 0.99261 0.6147 0.54237 0.0
H899 H 0.91507 0.58194 0.5467 0.0
C900 C 0.41668 0.93493 0.69451 0.0
C901 C 0.39651 0.96078 0.69301 0.0
C902 C 0.39134 0.88942 0.6965 0.0
C903 C 0.28222 0.80646 0.70744 0.0
H904 H 0.29847 0.7202 0.69106 0.0
C905 C 0.15094 0.62365 0.70981 0.0
C906 C 0.16312 0.591 0.70917 0.0
C907 C 0.18112 0.66769 0.70768 0.0
C908 C 0.29361 0.74363 0.69586 0.0
H909 H 0.3335 0.95822 0.6927 0.0
H910 H 0.29045 0.88076 0.69635 0.0
H911 H 0.34905 0.79806 0.68815 0.0
H912 H 0.21753 0.58012 0.70557 0.0
H913 H 0.27036 0.65681 0.70211 0.0
H914 H 0.22766 0.75299 0.71534 0.0
C915 C 0.32563 0.89507 0.69593 0.0
C916 C 0.32283 0.78855 0.69416 0.0
C917 C 0.35061 0.93987 0.69379 0.0
C918 C 0.20658 0.60402 0.70609 0.0
C919 C 0.23706 0.64834 0.70407 0.0
C920 C 0.25344 0.76183 0.70923 0.0
C921 C 0.34531 0.86887 0.69733 0.0
C922 C 0.31713 0.82074 0.69979 0.0
C923 C 0.2251 0.68125 0.70498 0.0
C924 C 0.25788 0.72933 0.70333 0.0
H925 H 0.4519 0.94982 0.69423 0.0
H926 H 0.40783 0.8705 0.69762 0.0
H927 H 0.27703 0.83 0.71212 0.0
H928 H 0.11786 0.61527 0.71205 0.0
H929 H 0.16963 0.69114 0.70817 0.0
C930 C 0.44171 0.34223 0.85953 0.0
C931 C 0.46644 0.38766 0.85786 0.0
C932 C 0.46159 0.31679 0.86164 0.0
C933 C 0.56447 0.31147 0.85893 0.0
H934 H 0.50767 0.2184 0.88067 0.0
C935 C 0.63496 0.1962 0.87197 0.0
C936 C 0.60527 0.15259 0.87485 0.0
C937 C 0.62052 0.22653 0.86972 0.0
C938 C 0.5238 0.24366 0.87443 0.0
H939 H 0.53248 0.44175 0.85729 0.0
H940 H 0.56773 0.39688 0.86082 0.0
H941 H 0.47982 0.26849 0.87739 0.0
H942 H 0.53645 0.10706 0.87722 0.0
H943 H 0.5114 0.15896 0.87308 0.0
H944 H 0.60825 0.2861 0.8559 0.0
C945 C 0.53246 0.38106 0.86042 0.0
C946 C 0.5078 0.27278 0.87257 0.0
C947 C 0.51228 0.40689 0.85838 0.0
C948 C 0.56056 0.14018 0.8751 0.0
C949 C 0.54614 0.17037 0.87282 0.0
C950 C 0.58048 0.28206 0.86076 0.0
C951 C 0.50726 0.33551 0.86218 0.0
C952 C 0.52735 0.30688 0.86468 0.0
C953 C 0.57582 0.21438 0.87026 0.0
C954 C 0.56004 0.24716 0.86844 0.0
H955 H 0.40639 0.32583 0.85916 0.0
H956 H 0.44082 0.28198 0.86271 0.0
H957 H 0.58038 0.33699 0.85274 0.0
H958 H 0.66967 0.20736 0.87173 0.0
H959 H 0.64471 0.25991 0.86788 0.0
C960 C 0.13073 0.42809 1.02567 0.0
C961 C 0.10816 0.45162 1.02424 0.0
C962 C 0.1756 0.44922 1.02793 0.0
C963 C 0.27961 0.55371 1.02602 0.0
H964 H 0.31709 0.49871 0.04831 0.0
C965 C 0.46365 0.62572 0.04007 0.0
C966 C 0.47784 0.59581 0.04304 0.0
C967 C 0.41928 0.61141 0.03761 0.0
C968 C 0.30765 0.51436 0.04192 0.0
H969 H 0.11606 0.51666 1.0241 0.0
H970 H 0.19532 0.55411 1.02795 0.0
H971 H 0.23986 0.46922 0.0445 0.0
H972 H 0.45575 0.52688 0.04524 0.0
H973 H 0.37986 0.50221 0.04075 0.0
H974 H 0.34785 0.59853 1.02333 0.0
C975 C 0.17775 0.51887 1.02729 0.0
C976 C 0.26295 0.49742 0.03977 0.0
C977 C 0.13226 0.49744 1.02509 0.0
C978 C 0.44644 0.55118 0.04314 0.0
C979 C 0.40241 0.53694 0.04063 0.0
C980 C 0.32468 0.57061 1.02812 0.0
C981 C 0.20001 0.49491 1.02885 0.0
C982 C 0.24805 0.51624 1.03166 0.0
C983 C 0.38768 0.56672 0.03801 0.0
C984 C 0.33956 0.55073 0.036 0.0
H985 H 0.11364 0.39284 1.02503 0.0
H986 H 0.19132 0.42949 1.02887 0.0
H987 H 0.2696 0.56916 1.0197 0.0
H988 H 0.48662 0.66036 0.03992 0.0
H989 H 0.40964 0.6356 0.03569 0.0
C990 C 0.93523 0.43495 0.20918 0.0
C991 C 0.92265 0.46736 0.20899 0.0
C992 C 0.90538 0.39123 0.20655 0.0
C993 C 0.78704 0.30946 0.20538 0.0
H994 H 0.82627 0.24519 0.18667 0.0
C995 C 0.67205 0.12461 0.19271 0.0
C996 C 0.69206 0.09855 0.19142 0.0
C997 C 0.69754 0.17027 0.19445 0.0
C998 C 0.81461 0.26209 0.19208 0.0
H999 H 0.86786 0.47822 0.20593 0.0
H1000 H 0.81563 0.40181 0.20151 0.0
H1001 H 0.8752 0.32187 0.19057 0.0
H1002 H 0.75481 0.10058 0.19155 0.0
H1003 H 0.79803 0.17787 0.19493 0.0
H1004 H 0.72671 0.24917 0.20714 0.0
C1005 C 0.84887 0.41043 0.20366 0.0
C1006 C 0.84292 0.30652 0.19427 0.0
C1007 C 0.87901 0.45443 0.20611 0.0
C1008 C 0.73788 0.11925 0.19231 0.0
C1009 C 0.76305 0.16424 0.19414 0.0
C1010 C 0.75873 0.26462 0.2033 0.0
C1011 C 0.86161 0.37809 0.2038 0.0
C1012 C 0.82994 0.33094 0.20106 0.0
C1013 C 0.74371 0.191 0.19507 0.0
C1014 C 0.77225 0.23985 0.19674 0.0
H1015 H 0.96836 0.44333 0.21137 0.0
H1016 H 0.91653 0.36746 0.20688 0.0
H1017 H 0.77576 0.32699 0.21068 0.0
H1018 H 0.63685 0.10983 0.19236 0.0
H1019 H 0.68102 0.18931 0.19515 0.0
C1020 C 0.1587 0.54487 0.52181 0.0
C1021 C 0.17158 0.58963 0.52156 0.0
C1022 C 0.1886 0.53048 0.52435 0.0
C1023 C 0.29978 0.56393 0.53631 0.0
H1024 H 0.28466 0.46282 0.51956 0.0
C1025 C 0.42191 0.49298 0.53841 0.0
C1026 C 0.40206 0.44718 0.53898 0.0
C1027 C 0.39661 0.51365 0.53647 0.0
C1028 C 0.28933 0.49088 0.5244 0.0
H1029 H 0.22667 0.65426 0.52419 0.0
H1030 H 0.27903 0.62916 0.52854 0.0
H1031 H 0.23585 0.4921 0.51617 0.0
H1032 H 0.33987 0.38753 0.53793 0.0
H1033 H 0.29656 0.42294 0.53449 0.0
H1034 H 0.35386 0.56246 0.54448 0.0
C1035 C 0.24544 0.60505 0.52684 0.0
C1036 C 0.26101 0.50772 0.52248 0.0
C1037 C 0.2153 0.61953 0.52432 0.0
C1038 C 0.35654 0.42281 0.53749 0.0
C1039 C 0.33153 0.44323 0.53547 0.0
C1040 C 0.32842 0.54706 0.53821 0.0
C1041 C 0.23277 0.56022 0.52667 0.0
C1042 C 0.2651 0.54407 0.52852 0.0
C1043 C 0.35097 0.48895 0.53488 0.0
C1044 C 0.32312 0.50975 0.53241 0.0
H1045 H 0.12539 0.52061 0.51985 0.0
H1046 H 0.17689 0.49569 0.52442 0.0
H1047 H 0.30416 0.59183 0.54118 0.0
H1048 H 0.45684 0.51281 0.53949 0.0
H1049 H 0.41287 0.54892 0.53605 0.0
C1050 C 0.61644 0.19086 0.69191 0.0
C1051 C 0.60348 0.14665 0.68974 0.0
C1052 C 0.6601 0.22121 0.69467 0.0
C1053 C 0.76451 0.22876 0.70509 0.0
H1054 H 0.82032 0.34412 0.69181 0.0
C1055 C 0.95229 0.33453 0.705 0.0
C1056 C 0.97305 0.38038 0.70566 0.0
C1057 C 0.90686 0.3091 0.70395 0.0
C1058 C 0.8053 0.31235 0.69576 0.0
H1059 H 0.62739 0.10033 0.68901 0.0
H1060 H 0.70267 0.15262 0.69388 0.0
H1061 H 0.74264 0.29423 0.68843 0.0
H1062 H 0.96114 0.4352 0.70545 0.0
H1063 H 0.88116 0.39069 0.70381 0.0
H1064 H 0.82659 0.24655 0.71248 0.0
C1065 C 0.67909 0.16402 0.6935 0.0
C1066 C 0.76047 0.2835 0.69379 0.0
C1067 C 0.63563 0.13382 0.69064 0.0
C1068 C 0.94648 0.40007 0.70514 0.0
C1069 C 0.90049 0.37437 0.70406 0.0
C1070 C 0.80905 0.25757 0.70712 0.0
C1071 C 0.69231 0.20839 0.69548 0.0
C1072 C 0.73947 0.24078 0.69823 0.0
C1073 C 0.8798 0.32824 0.70351 0.0
C1074 C 0.83074 0.29957 0.70226 0.0
H1075 H 0.59298 0.20234 0.69128 0.0
H1076 H 0.66853 0.25479 0.69623 0.0
H1077 H 0.74967 0.19681 0.70894 0.0
H1078 H 0.9713 0.31785 0.70529 0.0
H1079 H 0.8931 0.2741 0.70326 0.0
C1080 C 0.58288 0.94156 0.86996 0.0
C1081 C 0.62863 0.96692 0.87095 0.0
C1082 C 0.56277 0.89603 0.86787 0.0
C1083 C 0.58819 0.81143 0.85631 0.0
H1084 H 0.48516 0.72693 0.87219 0.0
C1085 C 0.53339 0.62664 0.85352 0.0
C1086 C 0.48858 0.59563 0.85364 0.0
C1087 C 0.54809 0.67102 0.85581 0.0
C1088 C 0.51366 0.74991 0.86754 0.0
H1089 H 0.68861 0.96343 0.87037 0.0
H1090 H 0.65428 0.88588 0.86668 0.0
H1091 H 0.51334 0.80508 0.8754 0.0
H1092 H 0.42427 0.5881 0.85649 0.0
H1093 H 0.44968 0.66519 0.8603 0.0
H1094 H 0.58868 0.75706 0.84834 0.0
C1095 C 0.63355 0.90058 0.86746 0.0
C1096 C 0.52987 0.79501 0.8694 0.0
C1097 C 0.65336 0.94546 0.86965 0.0
C1098 C 0.45905 0.61063 0.85636 0.0
C1099 C 0.47376 0.65518 0.85859 0.0
C1100 C 0.57195 0.76662 0.8544 0.0
C1101 C 0.58795 0.87487 0.86649 0.0
C1102 C 0.56788 0.82658 0.86394 0.0
C1103 C 0.5186 0.68644 0.85822 0.0
C1104 C 0.53474 0.73477 0.86009 0.0
H1105 H 0.5627 0.95685 0.87072 0.0
H1106 H 0.52757 0.87757 0.86711 0.0
H1107 H 0.61692 0.8344 0.85172 0.0
H1108 H 0.55739 0.61676 0.85154 0.0
H1109 H 0.5829 0.69326 0.85569 0.0
C1110 C 0.73454 0.63714 0.03859 0.0
C1111 C 0.68865 0.61388 0.03905 0.0
C1112 C 0.75897 0.61585 0.037 0.0
C1113 C 0.75287 0.51168 1.02711 0.0
H1114 H 0.86713 0.56303 0.04111 0.0
C1115 C 0.87166 0.43836 1.02286 0.0
C1116 C 0.9156 0.46869 1.02047 0.0
C1117 C 0.84155 0.45241 1.02578 0.0
C1118 C 0.83544 0.5483 0.03707 0.0
H1119 H 0.63251 0.5493 0.03789 0.0
H1120 H 0.67529 0.51151 0.03526 0.0
H1121 H 0.81877 0.59251 0.04517 0.0
H1122 H 0.9619 0.53787 1.0195 0.0
H1123 H 0.9101 0.56207 1.02476 0.0
H1124 H 0.76991 0.46702 1.01913 0.0
C1125 C 0.69244 0.54668 0.03608 0.0
C1126 C 0.80753 0.56539 0.03936 0.0
C1127 C 0.66777 0.56827 0.0377 0.0
C1128 C 0.92853 0.51339 1.02128 0.0
C1129 C 0.8987 0.52736 1.02436 0.0
C1130 C 0.78077 0.49421 1.0249 0.0
C1131 C 0.73863 0.57018 0.03582 0.0
C1132 C 0.76615 0.54825 0.0342 0.0
C1133 C 0.85463 0.4972 1.02659 0.0
C1134 C 0.82294 0.51292 1.02965 0.0
H1135 H 0.75198 0.67232 0.03949 0.0
H1136 H 0.79414 0.63565 0.03654 0.0
H1137 H 0.72153 0.49744 1.02292 0.0
H1138 H 0.86027 0.40369 1.02227 0.0
H1139 H 0.80803 0.42815 1.0275 0.0
C1140 C 0.45432 0.9305 0.18813 0.0
C1141 C 0.48624 0.91725 0.18834 0.0
C1142 C 0.41027 0.90104 0.19051 0.0
C1143 C 0.33351 0.78984 0.20256 0.0
H1144 H 0.24791 0.80536 0.18562 0.0
C1145 C 0.14318 0.66634 0.20395 0.0
C1146 C 0.11595 0.68534 0.20417 0.0
C1147 C 0.18877 0.69228 0.20228 0.0
C1148 C 0.27117 0.80058 0.19054 0.0
H1149 H 0.49589 0.86182 0.19155 0.0
H1150 H 0.41924 0.81046 0.19556 0.0
H1151 H 0.32509 0.85445 0.18256 0.0
H1152 H 0.11604 0.74689 0.20281 0.0
H1153 H 0.19403 0.79126 0.19983 0.0
H1154 H 0.27879 0.73529 0.21044 0.0
C1155 C 0.42833 0.84396 0.19367 0.0
C1156 C 0.31587 0.82911 0.1888 0.0
C1157 C 0.47258 0.8736 0.19133 0.0
C1158 C 0.1356 0.73078 0.20262 0.0
C1159 C 0.18066 0.75642 0.20086 0.0
C1160 C 0.28851 0.76101 0.20427 0.0
C1161 C 0.39613 0.85693 0.19312 0.0
C1162 C 0.34806 0.82485 0.19488 0.0
C1163 C 0.2082 0.73781 0.2006 0.0
C1164 C 0.25653 0.76633 0.1984 0.0
H1165 H 0.46318 0.96371 0.18595 0.0
H1166 H 0.38719 0.91307 0.19026 0.0
H1167 H 0.35684 0.78522 0.20749 0.0
H1168 H 0.12939 0.63155 0.20505 0.0
H1169 H 0.20866 0.67653 0.20211 0.0
C1170 C 0.63294 0.4515 0.35655 0.0
C1171 C 0.60311 0.46573 0.3535 0.0
C1172 C 0.61868 0.40721 0.35894 0.0
C1173 C 0.52221 0.29538 0.35433 0.0
H1174 H 0.57903 0.258 0.37616 0.0
C1175 C 0.43988 0.11765 0.36975 0.0
C1176 C 0.46436 0.09597 0.37105 0.0
C1177 C 0.46001 0.16253 0.36767 0.0
C1178 C 0.56304 0.26782 0.36994 0.0
H1179 H 0.53427 0.44368 0.35102 0.0
H1180 H 0.50949 0.36759 0.35544 0.0
H1181 H 0.60677 0.33606 0.3729 0.0
H1182 H 0.53011 0.10559 0.37111 0.0
H1183 H 0.56583 0.18494 0.36759 0.0
H1184 H 0.47815 0.22748 0.35149 0.0
C1185 C 0.54421 0.39024 0.35569 0.0
C1186 C 0.57898 0.31281 0.36805 0.0
C1187 C 0.55846 0.43434 0.35325 0.0
C1188 C 0.51015 0.12105 0.37023 0.0
C1189 C 0.53059 0.16659 0.36822 0.0
C1190 C 0.50622 0.25072 0.35627 0.0
C1191 C 0.57403 0.37554 0.35839 0.0
C1192 C 0.55842 0.32746 0.3603 0.0
C1193 C 0.50563 0.18793 0.36679 0.0
C1194 C 0.52585 0.23603 0.36422 0.0
H1195 H 0.66762 0.47439 0.3568 0.0
H1196 H 0.64295 0.39769 0.36089 0.0
H1197 H 0.50603 0.30464 0.34804 0.0
H1198 H 0.4046 0.09984 0.37036 0.0
H1199 H 0.43952 0.17747 0.36683 0.0
C1200 C 0.18368 0.7243 0.48282 0.0
C1201 C 0.16222 0.67932 0.48053 0.0
C1202 C 0.21236 0.75432 0.47489 0.0
C1203 C 0.24145 0.763 0.4443 0.0
H1204 H 0.34527 0.86814 0.45367 0.0
C1205 C 0.35411 0.89493 0.41216 0.0
C1206 C 0.39921 0.91733 0.41433 0.0
C1207 C 0.32467 0.86652 0.4202 0.0
C1208 C 0.31667 0.83873 0.45086 0.0
H1209 H 0.15491 0.63054 0.46829 0.0
H1210 H 0.2055 0.68213 0.45475 0.0
H1211 H 0.29644 0.81797 0.46777 0.0
H1212 H 0.44882 0.92672 0.42653 0.0
H1213 H 0.39805 0.87637 0.44032 0.0
H1214 H 0.26242 0.78285 0.4274 0.0
C1215 C 0.19954 0.69478 0.46245 0.0
C1216 C 0.28818 0.81015 0.459 0.0
C1217 C 0.17076 0.665 0.47029 0.0
C1218 C 0.41424 0.91 0.4246 0.0
C1219 C 0.38495 0.88141 0.43258 0.0
C1220 C 0.27005 0.79141 0.43617 0.0
C1221 C 0.22043 0.73999 0.46453 0.0
C1222 C 0.25025 0.77159 0.45586 0.0
C1223 C 0.33961 0.85952 0.43059 0.0
C1224 C 0.30833 0.82964 0.4393 0.0
H1225 H 0.17764 0.73636 0.49061 0.0
H1226 H 0.22741 0.78879 0.47681 0.0
H1227 H 0.21226 0.73419 0.44148 0.0
H1228 H 0.34147 0.90007 0.40435 0.0
H1229 H 0.29009 0.85081 0.41834 0.0
C1230 C 0.48588 0.36789 0.59382 0.0
C1231 C 0.49994 0.36964 0.58269 0.0
C1232 C 0.48714 0.33859 0.60154 0.0
C1233 C 0.49446 0.23679 0.60398 0.0
H1234 H 0.52568 0.27581 0.63478 0.0
C1235 C 0.52246 0.13312 0.63753 0.0
C1236 C 0.50654 0.13191 0.64843 0.0
C1237 C 0.52215 0.16192 0.62945 0.0
C1238 C 0.51639 0.26412 0.62626 0.0
H1239 H 0.52576 0.34124 0.57086 0.0
H1240 H 0.52872 0.2901 0.58444 0.0
H1241 H 0.52511 0.32578 0.62074 0.0
H1242 H 0.47784 0.16011 0.65942 0.0
H1243 H 0.47726 0.21059 0.64533 0.0
H1244 H 0.48596 0.1751 0.60954 0.0
C1245 C 0.51628 0.31133 0.58717 0.0
C1246 C 0.51606 0.29287 0.61816 0.0
C1247 C 0.51484 0.34077 0.57939 0.0
C1248 C 0.49055 0.16045 0.65111 0.0
C1249 C 0.49038 0.18947 0.64303 0.0
C1250 C 0.49491 0.20803 0.61209 0.0
C1251 C 0.50276 0.31011 0.5984 0.0
C1252 C 0.50477 0.27961 0.6069 0.0
C1253 C 0.50603 0.1905 0.63205 0.0
C1254 C 0.50568 0.2212 0.62337 0.0
H1255 H 0.4736 0.38922 0.59663 0.0
H1256 H 0.47538 0.33807 0.60997 0.0
H1257 H 0.48503 0.22507 0.59546 0.0
H1258 H 0.53496 0.11149 0.63519 0.0
H1259 H 0.53503 0.16208 0.62118 0.0
C1260 C 0.41104 0.51509 0.80297 0.0
C1261 C 0.39678 0.49482 0.81346 0.0
C1262 C 0.38133 0.51498 0.7951 0.0
C1263 C 0.26666 0.4948 0.79199 0.0
H1264 H 0.29035 0.49064 0.76035 0.0
C1265 C 0.17668 0.47139 0.74553 0.0
C1266 C 0.15387 0.49414 0.74771 0.0
C1267 C 0.2063 0.47116 0.75345 0.0
C1268 C 0.28276 0.49132 0.76914 0.0
H1269 H 0.33994 0.45867 0.82395 0.0
H1270 H 0.28772 0.45722 0.81013 0.0
H1271 H 0.33989 0.48894 0.77432 0.0
H1272 H 0.14524 0.53555 0.75974 0.0
H1273 H 0.19781 0.53676 0.77326 0.0
H1274 H 0.20858 0.49534 0.78682 0.0
C1275 C 0.32207 0.47415 0.80801 0.0
C1276 C 0.31176 0.49106 0.77721 0.0
C1277 C 0.352 0.47472 0.81596 0.0
C1278 C 0.16217 0.51755 0.75782 0.0
C1279 C 0.19207 0.51779 0.76566 0.0
C1280 C 0.23745 0.49465 0.78392 0.0
C1281 C 0.33623 0.49409 0.79741 0.0
C1282 C 0.30444 0.49317 0.78878 0.0
C1283 C 0.21425 0.49411 0.7637 0.0
C1284 C 0.24514 0.49327 0.77234 0.0
H1285 H 0.44537 0.53102 0.8008 0.0
H1286 H 0.39396 0.53163 0.7872 0.0
H1287 H 0.2598 0.49688 0.80076 0.0
H1288 H 0.17087 0.45284 0.73784 0.0
H1289 H 0.22213 0.45207 0.75161 0.0
C1290 C 0.67732 0.15268 0.92502 0.0
C1291 C 0.69347 0.14334 0.9152 0.0
C1292 C 0.70576 0.18287 0.9329 0.0
C1293 C 0.81695 0.23141 0.94404 0.0
H1294 H 0.79512 0.32204 0.95575 0.0
C1295 C 0.90719 0.33857 0.98312 0.0
C1296 C 0.92563 0.38381 0.98152 0.0
C1297 C 0.8785 0.30904 0.97511 0.0
C1298 C 0.80164 0.2969 0.95257 0.0
H1299 H 0.75233 0.15867 0.90594 0.0
H1300 H 0.80228 0.2106 0.91992 0.0
H1301 H 0.74678 0.27177 0.94134 0.0
H1302 H 0.9274 0.43345 0.97044 0.0
H1303 H 0.87616 0.38202 0.95671 0.0
H1304 H 0.8714 0.25611 0.95543 0.0
C1305 C 0.76744 0.19468 0.92145 0.0
C1306 C 0.77387 0.26802 0.94434 0.0
C1307 C 0.73885 0.16509 0.91342 0.0
C1308 C 0.91365 0.39879 0.97193 0.0
C1309 C 0.88428 0.36933 0.96406 0.0
C1310 C 0.84423 0.25976 0.95244 0.0
C1311 C 0.7512 0.20392 0.93129 0.0
C1312 C 0.78127 0.23503 0.93993 0.0
C1313 C 0.86681 0.3241 0.96546 0.0
C1314 C 0.83703 0.293 0.95677 0.0
H1315 H 0.64255 0.13639 0.92666 0.0
H1316 H 0.69219 0.18902 0.94041 0.0
H1317 H 0.82333 0.20615 0.94087 0.0
H1318 H 0.91576 0.32596 0.99041 0.0
H1319 H 0.86531 0.27439 0.97647 0.0
C1320 C 0.60456 0.90203 0.1489 0.0
C1321 C 0.58126 0.92458 0.14713 0.0
C1322 C 0.60335 0.87205 0.14089 0.0
C1323 C 0.53671 0.79901 0.11817 0.0
H1324 H 0.64488 0.80927 0.10683 0.0
C1325 C 0.54628 0.66667 0.09076 0.0
C1326 C 0.57238 0.68128 0.08107 0.0
C1327 C 0.54621 0.69646 0.09859 0.0
C1328 C 0.61442 0.80609 0.1099 0.0
H1329 H 0.53761 0.93257 0.13574 0.0
H1330 H 0.53424 0.87922 0.12199 0.0
H1331 H 0.64699 0.85992 0.12135 0.0
H1332 H 0.61853 0.73874 0.07194 0.0
H1333 H 0.61941 0.79088 0.08581 0.0
H1334 H 0.5041 0.74473 0.10689 0.0
C1335 C 0.55388 0.88507 0.12948 0.0
C1336 C 0.61562 0.83483 0.11827 0.0
C1337 C 0.55586 0.91566 0.13735 0.0
C1338 C 0.59808 0.72644 0.07932 0.0
C1339 C 0.59875 0.75628 0.08728 0.0
C1340 C 0.53548 0.76973 0.10998 0.0
C1341 C 0.57796 0.86324 0.13108 0.0
C1342 C 0.57677 0.83178 0.12246 0.0
C1343 C 0.57295 0.74161 0.09704 0.0
C1344 C 0.57432 0.77306 0.10569 0.0
H1345 H 0.62437 0.90811 0.15636 0.0
H1346 H 0.62201 0.8555 0.1424 0.0
H1347 H 0.50622 0.79574 0.12125 0.0
H1348 H 0.52624 0.63208 0.09236 0.0
H1349 H 0.52613 0.68411 0.10603 0.0
C1350 C 0.73767 0.58157 0.3154 0.0
C1351 C 0.69401 0.56697 0.31236 0.0
C1352 C 0.76774 0.5826 0.30744 0.0
C1353 C 0.78589 0.58397 0.27653 0.0
H1354 H 0.8709 0.54895 0.28485 0.0
C1355 C 0.89916 0.56571 0.24355 0.0
C1356 C 0.94205 0.5783 0.24695 0.0
C1357 C 0.86831 0.56401 0.25138 0.0
C1358 C 0.84779 0.5594 0.28238 0.0
H1359 H 0.64767 0.54187 0.29862 0.0
H1360 H 0.69966 0.54334 0.28484 0.0
H1361 H 0.81955 0.54738 0.29884 0.0
H1362 H 0.98645 0.60021 0.26114 0.0
H1363 H 0.93351 0.59805 0.2746 0.0
H1364 H 0.81432 0.59629 0.26009 0.0
C1365 C 0.71104 0.55446 0.29329 0.0
C1366 C 0.81823 0.55847 0.29044 0.0
C1367 C 0.68107 0.55326 0.30124 0.0
C1368 C 0.95352 0.58975 0.25826 0.0
C1369 C 0.92295 0.58827 0.26603 0.0
C1370 C 0.81558 0.58506 0.26847 0.0
C1371 C 0.75489 0.56929 0.29624 0.0
C1372 C 0.78683 0.57075 0.28765 0.0
C1373 C 0.87972 0.57504 0.26277 0.0
C1374 C 0.84711 0.5729 0.27127 0.0
H1375 H 0.74868 0.59258 0.32389 0.0
H1376 H 0.80129 0.59463 0.31001 0.0
H1377 H 0.76262 0.59425 0.27408 0.0
H1378 H 0.88938 0.55684 0.23489 0.0
H1379 H 0.83532 0.55337 0.24853 0.0
C1380 C 0.83185 0.48211 0.46281 0.0
C1381 C 0.87348 0.48857 0.46007 0.0
C1382 C 0.79998 0.4706 0.4545 0.0
C1383 C 0.77954 0.4531 0.42352 0.0
H1384 H 0.67401 0.35125 0.43353 0.0
C1385 C 0.68064 0.30109 0.39701 0.0
C1386 C 0.63753 0.27142 0.40017 0.0
C1387 C 0.70345 0.34156 0.40234 0.0
C1388 C 0.70248 0.38033 0.43054 0.0
H1389 H 0.91537 0.49072 0.44645 0.0
H1390 H 0.85949 0.46922 0.432 0.0
H1391 H 0.72698 0.39775 0.44719 0.0
H1392 H 0.58262 0.26394 0.41021 0.0
H1393 H 0.62173 0.33504 0.41907 0.0
H1394 H 0.75569 0.43356 0.40674 0.0
C1395 C 0.8515 0.47394 0.44049 0.0
C1396 C 0.73314 0.40717 0.43844 0.0
C1397 C 0.88351 0.48594 0.44878 0.0
C1398 C 0.61589 0.2856 0.40761 0.0
C1399 C 0.63851 0.32633 0.41281 0.0
C1400 C 0.74872 0.42608 0.41557 0.0
C1401 C 0.80891 0.46468 0.44331 0.0
C1402 C 0.77287 0.44282 0.43503 0.0
C1403 C 0.68336 0.3534 0.41083 0.0
C1404 C 0.71067 0.38831 0.41898 0.0
H1405 H 0.82362 0.48487 0.47143 0.0
H1406 H 0.76779 0.46463 0.45693 0.0
H1407 H 0.80945 0.48087 0.42063 0.0
H1408 H 0.69784 0.2918 0.39102 0.0
H1409 H 0.73787 0.36163 0.40051 0.0
C1410 C 0.42117 0.85885 0.61817 0.0
C1411 C 0.40615 0.84814 0.62925 0.0
C1412 C 0.40195 0.8282 0.60958 0.0
C1413 C 0.3483 0.7102 0.6068 0.0
H1414 H 0.35546 0.73799 0.57511 0.0
C1415 C 0.36637 0.59833 0.5763 0.0
C1416 C 0.40466 0.62143 0.56992 0.0
C1417 C 0.34577 0.61993 0.581 0.0
C1418 C 0.35279 0.72952 0.58392 0.0
H1419 H 0.35667 0.79882 0.6399 0.0
H1420 H 0.32258 0.7453 0.62486 0.0
H1421 H 0.35728 0.7901 0.58901 0.0
H1422 H 0.44746 0.6837 0.56211 0.0
H1423 H 0.41302 0.72182 0.57073 0.0
H1424 H 0.34671 0.65123 0.6019 0.0
C1425 C 0.34993 0.77694 0.62284 0.0
C1426 C 0.35392 0.75938 0.59188 0.0
C1427 C 0.36947 0.80747 0.63145 0.0
C1428 C 0.41885 0.66531 0.56728 0.0
C1429 C 0.39856 0.68703 0.57209 0.0
C1430 C 0.34712 0.68047 0.59887 0.0
C1431 C 0.36709 0.78631 0.61189 0.0
C1432 C 0.35397 0.75095 0.60343 0.0
C1433 C 0.36337 0.66514 0.57954 0.0
C1434 C 0.35165 0.69072 0.58737 0.0
H1435 H 0.44945 0.88999 0.61625 0.0
H1436 H 0.41646 0.83644 0.6013 0.0
H1437 H 0.34866 0.70262 0.61559 0.0
H1438 H 0.35425 0.56443 0.57846 0.0
H1439 H 0.31805 0.60191 0.58648 0.0
C1440 C 0.61004 0.43656 0.77967 0.0
C1441 C 0.58213 0.40925 0.78807 0.0
C1442 C 0.61959 0.41891 0.77031 0.0
C1443 C 0.63094 0.37738 0.74963 0.0
H1444 H 0.65861 0.28653 0.75722 0.0
C1445 C 0.76353 0.36852 0.72504 0.0
C1446 C 0.79517 0.36847 0.73224 0.0
C1447 C 0.72094 0.35394 0.72888 0.0
C1448 C 0.65099 0.31185 0.75491 0.0
H1449 H 0.5399 0.34204 0.79294 0.0
H1450 H 0.5558 0.31088 0.7764 0.0
H1451 H 0.61468 0.3028 0.76998 0.0
H1452 H 0.80612 0.34923 0.74868 0.0
H1453 H 0.73334 0.32546 0.75548 0.0
H1454 H 0.67132 0.39001 0.73526 0.0
C1455 C 0.57126 0.34602 0.77718 0.0
C1456 C 0.62513 0.32081 0.76218 0.0
C1457 C 0.56213 0.3638 0.78665 0.0
C1458 C 0.78242 0.34953 0.74291 0.0
C1459 C 0.74024 0.33563 0.7468 0.0
C1460 C 0.65763 0.36914 0.7425 0.0
C1461 C 0.60102 0.3734 0.76902 0.0
C1462 C 0.61711 0.35557 0.75996 0.0
C1463 C 0.70957 0.33992 0.74006 0.0
C1464 C 0.67034 0.33816 0.74543 0.0
H1465 H 0.6262 0.47171 0.78061 0.0
H1466 H 0.64343 0.44123 0.7644 0.0
H1467 H 0.62392 0.40319 0.74742 0.0
H1468 H 0.7724 0.38223 0.71669 0.0
H1469 H 0.69786 0.35641 0.72331 0.0
C1470 C 0.49848 0.87061 0.9478 0.0
C1471 C 0.50558 0.85963 0.93695 0.0
C1472 C 0.48617 0.84032 0.95652 0.0
C1473 C 0.42547 0.72242 0.95958 0.0
H1474 H 0.44389 0.75017 0.99133 0.0
C1475 C 0.29958 0.60612 0.9896 0.0
C1476 C 0.28287 0.62732 0.99639 0.0
C1477 C 0.34125 0.62944 0.98494 0.0
C1478 C 0.43858 0.74177 0.9825 0.0
H1479 H 0.50951 0.81014 0.92694 0.0
H1480 H 0.4884 0.75729 0.94218 0.0
H1481 H 0.49218 0.80341 0.97754 0.0
H1482 H 0.29974 0.68783 1.00509 0.0
H1483 H 0.37095 0.72906 0.99644 0.0
H1484 H 0.37045 0.66242 0.9643 0.0
C1485 C 0.49128 0.78887 0.9439 0.0
C1486 C 0.46623 0.77227 0.97461 0.0
C1487 C 0.50322 0.81902 0.93517 0.0
C1488 C 0.3109 0.6709 0.99954 0.0
C1489 C 0.35224 0.69444 0.99471 0.0
C1490 C 0.39787 0.69216 0.96742 0.0
C1491 C 0.481 0.79855 0.95457 0.0
C1492 C 0.4588 0.76355 0.96304 0.0
C1493 C 0.36672 0.67461 0.98678 0.0
C1494 C 0.40286 0.70211 0.97896 0.0
H1495 H 0.50004 0.9017 0.9494 0.0
H1496 H 0.47801 0.84872 0.96458 0.0
H1497 H 0.41834 0.71471 0.95076 0.0
H1498 H 0.27933 0.5725 0.98704 0.0
H1499 H 0.35202 0.61279 0.97917 0.0
C1500 C 0.67494 0.20475 0.11642 0.0
C1501 C 0.68836 0.21501 0.12765 0.0
C1502 C 0.69475 0.23606 0.10802 0.0
C1503 C 0.74671 0.35413 0.10572 0.0
H1504 H 0.74788 0.32935 0.07402 0.0
C1505 C 0.73532 0.46848 0.07495 0.0
C1506 C 0.69926 0.44597 0.06776 0.0
C1507 C 0.75511 0.44673 0.08 0.0
C1508 C 0.74811 0.33697 0.08285 0.0
H1509 H 0.73567 0.26438 0.13876 0.0
H1510 H 0.7707 0.31903 0.12408 0.0
H1511 H 0.74293 0.27615 0.08797 0.0
H1512 H 0.66052 0.38506 0.05884 0.0
H1513 H 0.69314 0.34652 0.06809 0.0
H1514 H 0.74886 0.41322 0.10077 0.0
C1515 C 0.74415 0.2872 0.12179 0.0
C1516 C 0.74523 0.30648 0.09083 0.0
C1517 C 0.72406 0.25602 0.1302 0.0
C1518 C 0.68717 0.40291 0.06466 0.0
C1519 C 0.70648 0.38096 0.06984 0.0
C1520 C 0.74952 0.38443 0.09778 0.0
C1521 C 0.7286 0.27817 0.11068 0.0
C1522 C 0.74246 0.31392 0.10234 0.0
C1523 C 0.73875 0.40188 0.07812 0.0
C1524 C 0.74816 0.37537 0.08623 0.0
H1525 H 0.64745 0.17337 0.11423 0.0
H1526 H 0.68152 0.22808 0.0996 0.0
H1527 H 0.74418 0.3609 0.11448 0.0
H1528 H 0.74594 0.50177 0.0775 0.0
H1529 H 0.78084 0.46418 0.08608 0.0
C1530 C 0.47795 0.61045 0.27768 0.0
C1531 C 0.50738 0.63951 0.2856 0.0
C1532 C 0.4679 0.62607 0.26802 0.0
C1533 C 0.45406 0.66284 0.24681 0.0
H1534 H 0.43042 0.75733 0.2533 0.0
C1535 C 0.3189 0.66993 0.22283 0.0
C1536 C 0.28905 0.67277 0.23017 0.0
C1537 C 0.3618 0.68389 0.22631 0.0
C1538 C 0.43691 0.73097 0.2513 0.0
H1539 H 0.55188 0.70756 0.28928 0.0
H1540 H 0.53521 0.73509 0.27219 0.0
H1541 H 0.47623 0.74333 0.26595 0.0
H1542 H 0.2816 0.69592 0.24645 0.0
H1543 H 0.35504 0.7187 0.25264 0.0
H1544 H 0.41077 0.64719 0.23292 0.0
C1545 C 0.51893 0.70021 0.27359 0.0
C1546 C 0.46385 0.72329 0.25849 0.0
C1547 C 0.52854 0.6845 0.28336 0.0
C1548 C 0.30391 0.69348 0.24059 0.0
C1549 C 0.34643 0.70682 0.24412 0.0
C1550 C 0.42635 0.66988 0.23976 0.0
C1551 C 0.48746 0.67122 0.26595 0.0
C1552 C 0.47045 0.68735 0.25672 0.0
C1553 C 0.37533 0.70015 0.23726 0.0
C1554 C 0.41516 0.70228 0.24234 0.0
H1555 H 0.4609 0.57563 0.27924 0.0
H1556 H 0.44281 0.60262 0.26252 0.0
H1557 H 0.45987 0.63594 0.24493 0.0
H1558 H 0.30839 0.6548 0.21465 0.0
H1559 H 0.38347 0.67941 0.22066 0.0
loop_
_geom_bond_atom_site_label_1
_geom_bond_atom_site_label_2
_geom_bond_distance
_geom_bond_site_symmetry_2
_ccdc_geom_bond_type
C0 Eu1 2.835 . S
C0 C2 1.500 . S
C0 O20 1.257 . S
C0 O21 1.260 . S
Eu1 C0 2.835 . S
Eu1 O20 2.473 . S
Eu1 O21 2.480 . S
Eu1 O22 2.430 1_565 S
Eu1 O23 2.670 1_565 S
Eu1 O24 2.394 . S
Eu1 O29 2.355 . S
Eu1 O31 2.374 1_565 S
C2 C0 1.500 . S
C2 C3 1.377 . S
C2 C7 1.377 . S
C3 C2 1.377 . S
C3 C4 1.395 . S
C3 H32 0.931 . S
C4 C3 1.395 . S
C4 C5 1.383 . S
C4 H33 0.931 . S
C5 C4 1.383 . S
C5 C6 1.394 . S
C6 C5 1.394 . S
C6 C7 1.378 . S
C6 H34 0.931 . S
C7 C2 1.377 . S
C7 C6 1.378 . S
C7 H35 0.931 . S
C8 O22 1.259 . S
C8 O23 1.270 . S
C9 O24 1.251 . S
C9 O25 1.251 . S
C10 Eu11 2.835 . S
C10 C12 1.500 . S
C10 O26 1.257 . S
C10 O27 1.260 . S
Eu11 C10 2.835 . S
Eu11 O23 2.355 . S
Eu11 O25 2.374 1_545 S
Eu11 O26 2.473 . S
Eu11 O27 2.480 . S
Eu11 O28 2.430 1_545 S
Eu11 O29 2.670 1_545 S
Eu11 O30 2.394 . S
C12 C10 1.500 . S
C12 C13 1.377 . S
C12 C17 1.377 . S
C13 C12 1.377 . S
C13 C14 1.395 . S
C13 H36 0.931 . S
C14 C13 1.395 . S
C14 C15 1.383 . S
C14 H37 0.931 . S
C15 C14 1.383 . S
C15 C16 1.394 . S
C16 C15 1.394 . S
C16 C17 1.378 . S
C16 H38 0.931 . S
C17 C12 1.377 . S
C17 C16 1.378 . S
C17 H39 0.931 . S
C18 O28 1.259 . S
C18 O29 1.270 . S
C19 O30 1.251 . S
C19 O31 1.251 . S
O20 C0 1.257 . S
O20 Eu1 2.473 . S
O21 C0 1.260 . S
O21 Eu1 2.480 . S
O22 Eu1 2.430 1_545 S
O22 C8 1.259 . S
O23 Eu1 2.670 1_545 S
O23 C8 1.270 . S
O23 Eu11 2.355 . S
O24 Eu1 2.394 . S
O24 C9 1.251 . S
O25 C9 1.251 . S
O25 Eu11 2.374 1_565 S
O26 C10 1.257 . S
O26 Eu11 2.473 . S
O27 C10 1.260 . S
O27 Eu11 2.480 . S
O28 Eu11 2.430 1_565 S
O28 C18 1.259 . S
O29 Eu1 2.355 . S
O29 Eu11 2.670 1_565 S
O29 C18 1.270 . S
O30 Eu11 2.394 . S
O30 C19 1.251 . S
O31 Eu1 2.374 1_545 S
O31 C19 1.251 . S
H32 C3 0.931 . S
H33 C4 0.931 . S
H34 C6 0.931 . S
H35 C7 0.931 . S
H36 C13 0.931 . S
H37 C14 0.931 . S
H38 C16 0.931 . S
H39 C17 0.931 . S
C40 Eu41 2.835 . S
C40 C42 1.500 . S
C40 O60 1.257 . S
C40 O61 1.260 . S
Eu41 C40 2.835 . S
Eu41 O60 2.473 . S
Eu41 O61 2.480 . S
Eu41 O62 2.430 . S
Eu41 O63 2.670 . S
Eu41 O64 2.394 . S
Eu41 O69 2.355 . S
Eu41 O71 2.374 . S
C42 C40 1.500 . S
C42 C43 1.377 . S
C42 C47 1.377 . S
C43 C42 1.377 . S
C43 C44 1.395 . S
C43 H72 0.931 . S
C44 C43 1.395 . S
C44 C45 1.383 . S
C44 H73 0.931 . S
C45 C44 1.383 . S
C45 C46 1.394 . S
C46 C45 1.394 . S
C46 C47 1.378 . S
C46 H74 0.931 . S
C47 C42 1.377 . S
C47 C46 1.378 . S
C47 H75 0.931 . S
C48 O62 1.259 . S
C48 O63 1.270 . S
C49 O64 1.251 . S
C49 O65 1.251 . S
C50 Eu51 2.835 . S
C50 C52 1.500 . S
C50 O66 1.257 . S
C50 O67 1.260 . S
Eu51 C50 2.835 . S
Eu51 O63 2.355 . S
Eu51 O65 2.374 . S
Eu51 O66 2.473 . S
Eu51 O67 2.480 . S
Eu51 O68 2.430 . S
Eu51 O69 2.670 . S
Eu51 O70 2.394 . S
C52 C50 1.500 . S
C52 C53 1.377 . S
C52 C57 1.377 . S
C53 C52 1.377 . S
C53 C54 1.395 . S
C53 H76 0.931 . S
C54 C53 1.395 . S
C54 C55 1.383 . S
C54 H77 0.931 . S
C55 C54 1.383 . S
C55 C56 1.394 . S
C56 C55 1.394 . S
C56 C57 1.378 . S
C56 H78 0.931 . S
C57 C52 1.377 . S
C57 C56 1.378 . S
C57 H79 0.931 . S
C58 O68 1.259 . S
C58 O69 1.270 . S
C59 O70 1.251 . S
C59 O71 1.251 . S
O60 C40 1.257 . S
O60 Eu41 2.473 . S
O61 C40 1.260 . S
O61 Eu41 2.480 . S
O62 Eu41 2.430 . S
O62 C48 1.259 . S
O63 Eu41 2.670 . S
O63 C48 1.270 . S
O63 Eu51 2.355 . S
O64 Eu41 2.394 . S
O64 C49 1.251 . S
O65 C49 1.251 . S
O65 Eu51 2.374 . S
O66 C50 1.257 . S
O66 Eu51 2.473 . S
O67 C50 1.260 . S
O67 Eu51 2.480 . S
O68 Eu51 2.430 . S
O68 C58 1.259 . S
O69 Eu41 2.355 . S
O69 Eu51 2.670 . S
O69 C58 1.270 . S
O70 Eu51 2.394 . S
O70 C59 1.251 . S
O71 Eu41 2.374 . S
O71 C59 1.251 . S
H72 C43 0.931 . S
H73 C44 0.931 . S
H74 C46 0.931 . S
H75 C47 0.931 . S
H76 C53 0.931 . S
H77 C54 0.931 . S
H78 C56 0.931 . S
H79 C57 0.931 . S
C80 Eu81 2.835 . S
C80 C82 1.500 . S
C80 O100 1.257 . S
C80 O101 1.260 . S
Eu81 C80 2.835 . S
Eu81 O100 2.473 . S
Eu81 O101 2.480 . S
Eu81 O102 2.430 1_455 S
Eu81 O103 2.670 1_455 S
Eu81 O104 2.394 . S
Eu81 O109 2.355 . S
Eu81 O111 2.374 1_455 S
C82 C80 1.500 . S
C82 C83 1.377 . S
C82 C87 1.377 . S
C83 C82 1.377 . S
C83 C84 1.395 . S
C83 H112 0.931 . S
C84 C83 1.395 . S
C84 C85 1.383 . S
C84 H113 0.931 . S
C85 C84 1.383 . S
C85 C86 1.394 . S
C86 C85 1.394 . S
C86 C87 1.378 . S
C86 H114 0.931 . S
C87 C82 1.377 . S
C87 C86 1.378 . S
C87 H115 0.931 . S
C88 O102 1.259 . S
C88 O103 1.270 . S
C89 O104 1.251 . S
C89 O105 1.251 . S
C90 Eu91 2.835 . S
C90 C92 1.500 . S
C90 O106 1.257 . S
C90 O107 1.260 . S
Eu91 C90 2.835 . S
Eu91 O103 2.355 . S
Eu91 O105 2.374 1_655 S
Eu91 O106 2.473 . S
Eu91 O107 2.480 . S
Eu91 O108 2.430 1_655 S
Eu91 O109 2.670 1_655 S
Eu91 O110 2.394 . S
C92 C90 1.500 . S
C92 C93 1.377 . S
C92 C97 1.377 . S
C93 C92 1.377 . S
C93 C94 1.395 . S
C93 H116 0.931 . S
C94 C93 1.395 . S
C94 C95 1.383 . S
C94 H117 0.931 . S
C95 C94 1.383 . S
C95 C96 1.394 . S
C96 C95 1.394 . S
C96 C97 1.378 . S
C96 H118 0.931 . S
C97 C92 1.377 . S
C97 C96 1.378 . S
C97 H119 0.931 . S
C98 O108 1.259 . S
C98 O109 1.270 . S
C99 O110 1.251 . S
C99 O111 1.251 . S
O100 C80 1.257 . S
O100 Eu81 2.473 . S
O101 C80 1.260 . S
O101 Eu81 2.480 . S
O102 Eu81 2.430 1_655 S
O102 C88 1.259 . S
O103 Eu81 2.670 1_655 S
O103 C88 1.270 . S
O103 Eu91 2.355 . S
O104 Eu81 2.394 . S
O104 C89 1.251 . S
O105 C89 1.251 . S
O105 Eu91 2.374 1_455 S
O106 C90 1.257 . S
O106 Eu91 2.473 . S
O107 C90 1.260 . S
O107 Eu91 2.480 . S
O108 Eu91 2.430 1_455 S
O108 C98 1.259 . S
O109 Eu81 2.355 . S
O109 Eu91 2.670 1_455 S
O109 C98 1.270 . S
O110 Eu91 2.394 . S
O110 C99 1.251 . S
O111 Eu81 2.374 1_655 S
O111 C99 1.251 . S
H112 C83 0.931 . S
H113 C84 0.931 . S
H114 C86 0.931 . S
H115 C87 0.931 . S
H116 C93 0.931 . S
H117 C94 0.931 . S
H118 C96 0.931 . S
H119 C97 0.931 . S
C120 Eu121 2.835 . S
C120 C122 1.500 . S
C120 O140 1.257 . S
C120 O141 1.260 . S
Eu121 C120 2.835 . S
Eu121 O140 2.473 . S
Eu121 O141 2.480 . S
Eu121 O142 2.430 1_545 S
Eu121 O143 2.670 1_545 S
Eu121 O144 2.394 . S
Eu121 O149 2.355 . S
Eu121 O151 2.374 1_545 S
C122 C120 1.500 . S
C122 C123 1.377 . S
C122 C127 1.377 . S
C123 C122 1.377 . S
C123 C124 1.395 . S
C123 H152 0.931 . S
C124 C123 1.395 . S
C124 C125 1.383 . S
C124 H153 0.931 . S
C125 C124 1.383 . S
C125 C126 1.394 . S
C126 C125 1.394 . S
C126 C127 1.378 . S
C126 H154 0.931 . S
C127 C122 1.377 . S
C127 C126 1.378 . S
C127 H155 0.931 . S
C128 O142 1.259 . S
C128 O143 1.270 . S
C129 O144 1.251 . S
C129 O145 1.251 . S
C130 Eu131 2.835 . S
C130 C132 1.500 . S
C130 O146 1.257 . S
C130 O147 1.260 . S
Eu131 C130 2.835 . S
Eu131 O143 2.355 . S
Eu131 O145 2.374 1_565 S
Eu131 O146 2.473 . S
Eu131 O147 2.480 . S
Eu131 O148 2.430 1_565 S
Eu131 O149 2.670 1_565 S
Eu131 O150 2.394 . S
C132 C130 1.500 . S
C132 C133 1.377 . S
C132 C137 1.377 . S
C133 C132 1.377 . S
C133 C134 1.395 . S
C133 H156 0.931 . S
C134 C133 1.395 . S
C134 C135 1.383 . S
C134 H157 0.931 . S
C135 C134 1.383 . S
C135 C136 1.394 . S
C136 C135 1.394 . S
C136 C137 1.378 . S
C136 H158 0.931 . S
C137 C132 1.377 . S
C137 C136 1.378 . S
C137 H159 0.931 . S
C138 O148 1.259 . S
C138 O149 1.270 . S
C139 O150 1.251 . S
C139 O151 1.251 . S
O140 C120 1.257 . S
O140 Eu121 2.473 . S
O141 C120 1.260 . S
O141 Eu121 2.480 . S
O142 Eu121 2.430 1_565 S
O142 C128 1.259 . S
O143 Eu121 2.670 1_565 S
O143 C128 1.270 . S
O143 Eu131 2.355 . S
O144 Eu121 2.394 . S
O144 C129 1.251 . S
O145 C129 1.251 . S
O145 Eu131 2.374 1_545 S
O146 C130 1.257 . S
O146 Eu131 2.473 . S
O147 C130 1.260 . S
O147 Eu131 2.480 . S
O148 Eu131 2.430 1_545 S
O148 C138 1.259 . S
O149 Eu121 2.355 . S
O149 Eu131 2.670 1_545 S
O149 C138 1.270 . S
O150 Eu131 2.394 . S
O150 C139 1.251 . S
O151 Eu121 2.374 1_565 S
O151 C139 1.251 . S
H152 C123 0.931 . S
H153 C124 0.931 . S
H154 C126 0.931 . S
H155 C127 0.931 . S
H156 C133 0.931 . S
H157 C134 0.931 . S
H158 C136 0.931 . S
H159 C137 0.931 . S
C160 Eu161 2.835 . S
C160 C162 1.505 . S
C160 O180 1.257 . S
C160 O181 1.260 . S
Eu161 C160 2.835 . S
Eu161 O180 2.473 . S
Eu161 O181 2.480 . S
Eu161 O182 2.430 . S
Eu161 O183 2.670 . S
Eu161 O184 2.394 . S
Eu161 O189 2.355 . S
Eu161 O191 2.374 . S
C162 C160 1.505 . S
C162 C163 1.371 1_554 S
C162 C167 1.379 . S
C163 C162 1.371 1_556 S
C163 C164 1.395 . S
C163 H192 0.931 . S
C164 C163 1.395 . S
C164 C165 1.383 . S
C164 H193 0.931 . S
C165 C164 1.383 . S
C165 C166 1.394 . S
C166 C165 1.394 . S
C166 C167 1.378 1_556 S
C166 H194 0.931 . S
C167 C162 1.379 . S
C167 C166 1.378 1_554 S
C167 H195 0.931 . S
C168 O182 1.259 . S
C168 O183 1.270 . S
C169 O184 1.251 . S
C169 O185 1.251 . S
C170 Eu171 2.835 . S
C170 C172 1.500 . S
C170 O186 1.257 . S
C170 O187 1.260 . S
Eu171 C170 2.835 . S
Eu171 O183 2.355 . S
Eu171 O185 2.374 . S
Eu171 O186 2.473 . S
Eu171 O187 2.480 . S
Eu171 O188 2.430 . S
Eu171 O189 2.670 . S
Eu171 O190 2.394 . S
C172 C170 1.500 . S
C172 C173 1.377 . S
C172 C177 1.377 . S
C173 C172 1.377 . S
C173 C174 1.395 . S
C173 H196 0.931 . S
C174 C173 1.395 . S
C174 C175 1.383 . S
C174 H197 0.931 . S
C175 C174 1.383 . S
C175 C176 1.394 . S
C176 C175 1.394 . S
C176 C177 1.378 . S
C176 H198 0.931 . S
C177 C172 1.377 . S
C177 C176 1.378 . S
C177 H199 0.931 . S
C178 O188 1.259 . S
C178 O189 1.270 . S
C179 O190 1.251 . S
C179 O191 1.251 . S
O180 C160 1.257 . S
O180 Eu161 2.473 . S
O181 C160 1.260 . S
O181 Eu161 2.480 . S
O182 Eu161 2.430 . S
O182 C168 1.259 . S
O183 Eu161 2.670 . S
O183 C168 1.270 . S
O183 Eu171 2.355 . S
O184 Eu161 2.394 . S
O184 C169 1.251 . S
O185 C169 1.251 . S
O185 Eu171 2.374 . S
O186 C170 1.257 . S
O186 Eu171 2.473 . S
O187 C170 1.260 . S
O187 Eu171 2.480 . S
O188 Eu171 2.430 . S
O188 C178 1.259 . S
O189 Eu161 2.355 . S
O189 Eu171 2.670 . S
O189 C178 1.270 . S
O190 Eu171 2.394 . S
O190 C179 1.251 . S
O191 Eu161 2.374 . S
O191 C179 1.251 . S
H192 C163 0.931 . S
H193 C164 0.931 . S
H194 C166 0.931 . S
H195 C167 0.931 . S
H196 C173 0.931 . S
H197 C174 0.931 . S
H198 C176 0.931 . S
H199 C177 0.931 . S
C200 Eu201 2.835 . S
C200 C202 1.500 . S
C200 O220 1.257 . S
C200 O221 1.260 . S
Eu201 C200 2.835 . S
Eu201 O220 2.473 . S
Eu201 O221 2.480 . S
Eu201 O222 2.430 1_655 S
Eu201 O223 2.670 1_655 S
Eu201 O224 2.394 . S
Eu201 O229 2.355 . S
Eu201 O231 2.374 1_655 S
C202 C200 1.500 . S
C202 C203 1.377 . S
C202 C207 1.377 . S
C203 C202 1.377 . S
C203 C204 1.395 . S
C203 H232 0.931 . S
C204 C203 1.395 . S
C204 C205 1.383 . S
C204 H233 0.931 . S
C205 C204 1.383 . S
C205 C206 1.394 . S
C206 C205 1.394 . S
C206 C207 1.378 . S
C206 H234 0.931 . S
C207 C202 1.377 . S
C207 C206 1.378 . S
C207 H235 0.931 . S
C208 O222 1.259 . S
C208 O223 1.270 . S
C209 O224 1.251 . S
C209 O225 1.251 . S
C210 Eu211 2.835 . S
C210 C212 1.500 . S
C210 O226 1.257 . S
C210 O227 1.260 . S
Eu211 C210 2.835 . S
Eu211 O223 2.355 . S
Eu211 O225 2.374 1_455 S
Eu211 O226 2.473 . S
Eu211 O227 2.480 . S
Eu211 O228 2.430 1_455 S
Eu211 O229 2.670 1_455 S
Eu211 O230 2.394 . S
C212 C210 1.500 . S
C212 C213 1.377 . S
C212 C217 1.377 . S
C213 C212 1.377 . S
C213 C214 1.395 . S
C213 H236 0.931 . S
C214 C213 1.395 . S
C214 C215 1.383 . S
C214 H237 0.931 . S
C215 C214 1.383 . S
C215 C216 1.394 . S
C216 C215 1.394 . S
C216 C217 1.378 . S
C216 H238 0.931 . S
C217 C212 1.377 . S
C217 C216 1.378 . S
C217 H239 0.931 . S
C218 O228 1.259 . S
C218 O229 1.270 . S
C219 O230 1.251 . S
C219 O231 1.251 . S
O220 C200 1.257 . S
O220 Eu201 2.473 . S
O221 C200 1.260 . S
O221 Eu201 2.480 . S
O222 Eu201 2.430 1_455 S
O222 C208 1.259 . S
O223 Eu201 2.670 1_455 S
O223 C208 1.270 . S
O223 Eu211 2.355 . S
O224 Eu201 2.394 . S
O224 C209 1.251 . S
O225 C209 1.251 . S
O225 Eu211 2.374 1_655 S
O226 C210 1.257 . S
O226 Eu211 2.473 . S
O227 C210 1.260 . S
O227 Eu211 2.480 . S
O228 Eu211 2.430 1_655 S
O228 C218 1.259 . S
O229 Eu201 2.355 . S
O229 Eu211 2.670 1_655 S
O229 C218 1.270 . S
O230 Eu211 2.394 . S
O230 C219 1.251 . S
O231 Eu201 2.374 1_455 S
O231 C219 1.251 . S
H232 C203 0.931 . S
H233 C204 0.931 . S
H234 C206 0.931 . S
H235 C207 0.931 . S
H236 C213 0.931 . S
H237 C214 0.931 . S
H238 C216 0.931 . S
H239 C217 0.931 . S
C240 Eu241 2.835 . S
C240 C242 1.500 . S
C240 O260 1.257 . S
C240 O261 1.260 . S
Eu241 C240 2.835 . S
Eu241 O260 2.473 . S
Eu241 O261 2.480 . S
Eu241 O262 2.430 1_455 S
Eu241 O263 2.670 1_455 S
Eu241 O264 2.394 . S
Eu241 O269 2.355 . S
Eu241 O271 2.374 1_455 S
C242 C240 1.500 . S
C242 C243 1.377 . S
C242 C247 1.377 . S
C243 C242 1.377 . S
C243 C244 1.395 . S
C243 H272 0.931 . S
C244 C243 1.395 . S
C244 C245 1.383 . S
C244 H273 0.931 . S
C245 C244 1.383 . S
C245 C246 1.394 . S
C246 C245 1.394 . S
C246 C247 1.378 . S
C246 H274 0.931 . S
C247 C242 1.377 . S
C247 C246 1.378 . S
C247 H275 0.931 . S
C248 O262 1.259 . S
C248 O263 1.270 . S
C249 O264 1.251 . S
C249 O265 1.251 . S
C250 Eu251 2.835 . S
C250 C252 1.500 . S
C250 O266 1.257 . S
C250 O267 1.260 . S
Eu251 C250 2.835 . S
Eu251 O263 2.355 . S
Eu251 O265 2.374 1_655 S
Eu251 O266 2.473 . S
Eu251 O267 2.480 . S
Eu251 O268 2.430 1_655 S
Eu251 O269 2.670 1_655 S
Eu251 O270 2.394 . S
C252 C250 1.500 . S
C252 C253 1.377 . S
C252 C257 1.377 . S
C253 C252 1.377 . S
C253 C254 1.395 . S
C253 H276 0.931 . S
C254 C253 1.395 . S
C254 C255 1.383 . S
C254 H277 0.931 . S
C255 C254 1.383 . S
C255 C256 1.394 . S
C256 C255 1.394 . S
C256 C257 1.378 . S
C256 H278 0.931 . S
C257 C252 1.377 . S
C257 C256 1.378 . S
C257 H279 0.931 . S
C258 O268 1.259 . S
C258 O269 1.270 . S
C259 O270 1.251 . S
C259 O271 1.251 . S
O260 C240 1.257 . S
O260 Eu241 2.473 . S
O261 C240 1.260 . S
O261 Eu241 2.480 . S
O262 Eu241 2.430 1_655 S
O262 C248 1.259 . S
O263 Eu241 2.670 1_655 S
O263 C248 1.270 . S
O263 Eu251 2.355 . S
O264 Eu241 2.394 . S
O264 C249 1.251 . S
O265 C249 1.251 . S
O265 Eu251 2.374 1_455 S
O266 C250 1.257 . S
O266 Eu251 2.473 . S
O267 C250 1.260 . S
O267 Eu251 2.480 . S
O268 Eu251 2.430 1_455 S
O268 C258 1.259 . S
O269 Eu241 2.355 . S
O269 Eu251 2.670 1_455 S
O269 C258 1.270 . S
O270 Eu251 2.394 . S
O270 C259 1.251 . S
O271 Eu241 2.374 1_655 S
O271 C259 1.251 . S
H272 C243 0.931 . S
H273 C244 0.931 . S
H274 C246 0.931 . S
H275 C247 0.931 . S
H276 C253 0.931 . S
H277 C254 0.931 . S
H278 C256 0.931 . S
H279 C257 0.931 . S
C280 Eu281 2.835 . S
C280 C282 1.500 . S
C280 O300 1.257 . S
C280 O301 1.260 . S
Eu281 C280 2.835 . S
Eu281 O300 2.473 . S
Eu281 O301 2.480 . S
Eu281 O302 2.430 1_545 S
Eu281 O303 2.670 1_545 S
Eu281 O304 2.394 . S
Eu281 O309 2.355 . S
Eu281 O311 2.374 1_545 S
C282 C280 1.500 . S
C282 C283 1.377 . S
C282 C287 1.377 . S
C283 C282 1.377 . S
C283 C284 1.395 . S
C283 H312 0.931 . S
C284 C283 1.395 . S
C284 C285 1.383 . S
C284 H313 0.931 . S
C285 C284 1.383 . S
C285 C286 1.394 . S
C286 C285 1.394 . S
C286 C287 1.378 . S
C286 H314 0.931 . S
C287 C282 1.377 . S
C287 C286 1.378 . S
C287 H315 0.931 . S
C288 O302 1.259 . S
C288 O303 1.270 . S
C289 O304 1.251 . S
C289 O305 1.251 . S
C290 Eu291 2.835 . S
C290 C292 1.500 . S
C290 O306 1.257 . S
C290 O307 1.260 . S
Eu291 C290 2.835 . S
Eu291 O303 2.355 . S
Eu291 O305 2.374 1_565 S
Eu291 O306 2.473 . S
Eu291 O307 2.480 . S
Eu291 O308 2.430 1_565 S
Eu291 O309 2.670 1_565 S
Eu291 O310 2.394 . S
C292 C290 1.500 . S
C292 C293 1.377 . S
C292 C297 1.377 . S
C293 C292 1.377 . S
C293 C294 1.395 . S
C293 H316 0.931 . S
C294 C293 1.395 . S
C294 C295 1.383 . S
C294 H317 0.931 . S
C295 C294 1.383 . S
C295 C296 1.394 . S
C296 C295 1.394 . S
C296 C297 1.378 . S
C296 H318 0.931 . S
C297 C292 1.377 . S
C297 C296 1.378 . S
C297 H319 0.931 . S
C298 O308 1.259 . S
C298 O309 1.270 . S
C299 O310 1.251 . S
C299 O311 1.251 . S
O300 C280 1.257 . S
O300 Eu281 2.473 . S
O301 C280 1.260 . S
O301 Eu281 2.480 . S
O302 Eu281 2.430 1_565 S
O302 C288 1.259 . S
O303 Eu281 2.670 1_565 S
O303 C288 1.270 . S
O303 Eu291 2.355 . S
O304 Eu281 2.394 . S
O304 C289 1.251 . S
O305 C289 1.251 . S
O305 Eu291 2.374 1_545 S
O306 C290 1.257 . S
O306 Eu291 2.473 . S
O307 C290 1.260 . S
O307 Eu291 2.480 . S
O308 Eu291 2.430 1_545 S
O308 C298 1.259 . S
O309 Eu281 2.355 . S
O309 Eu291 2.670 1_545 S
O309 C298 1.270 . S
O310 Eu291 2.394 . S
O310 C299 1.251 . S
O311 Eu281 2.374 1_565 S
O311 C299 1.251 . S
H312 C283 0.931 . S
H313 C284 0.931 . S
H314 C286 0.931 . S
H315 C287 0.931 . S
H316 C293 0.931 . S
H317 C294 0.931 . S
H318 C296 0.931 . S
H319 C297 0.931 . S
C320 Eu321 2.835 . S
C320 C322 1.500 . S
C320 O340 1.257 . S
C320 O341 1.260 . S
Eu321 C320 2.835 . S
Eu321 O340 2.473 . S
Eu321 O341 2.480 . S
Eu321 O342 2.430 . S
Eu321 O343 2.670 . S
Eu321 O344 2.394 . S
Eu321 O349 2.355 . S
Eu321 O351 2.374 . S
C322 C320 1.500 . S
C322 C323 1.377 . S
C322 C327 1.377 . S
C323 C322 1.377 . S
C323 C324 1.395 . S
C323 H352 0.931 . S
C324 C323 1.395 . S
C324 C325 1.383 . S
C324 H353 0.931 . S
C325 C324 1.383 . S
C325 C326 1.394 . S
C326 C325 1.394 . S
C326 C327 1.378 . S
C326 H354 0.931 . S
C327 C322 1.377 . S
C327 C326 1.378 . S
C327 H355 0.931 . S
C328 O342 1.259 . S
C328 O343 1.270 . S
C329 O344 1.251 . S
C329 O345 1.251 . S
C330 Eu331 2.835 . S
C330 C332 1.500 . S
C330 O346 1.257 . S
C330 O347 1.260 . S
Eu331 C330 2.835 . S
Eu331 O343 2.355 . S
Eu331 O345 2.374 . S
Eu331 O346 2.473 . S
Eu331 O347 2.480 . S
Eu331 O348 2.430 . S
Eu331 O349 2.670 . S
Eu331 O350 2.394 . S
C332 C330 1.500 . S
C332 C333 1.377 . S
C332 C337 1.377 . S
C333 C332 1.377 . S
C333 C334 1.395 . S
C333 H356 0.931 . S
C334 C333 1.395 . S
C334 C335 1.383 . S
C334 H357 0.931 . S
C335 C334 1.383 . S
C335 C336 1.394 . S
C336 C335 1.394 . S
C336 C337 1.378 . S
C336 H358 0.931 . S
C337 C332 1.377 . S
C337 C336 1.378 . S
C337 H359 0.931 . S
C338 O348 1.259 . S
C338 O349 1.270 . S
C339 O350 1.251 . S
C339 O351 1.251 . S
O340 C320 1.257 . S
O340 Eu321 2.473 . S
O341 C320 1.260 . S
O341 Eu321 2.480 . S
O342 Eu321 2.430 . S
O342 C328 1.259 . S
O343 Eu321 2.670 . S
O343 C328 1.270 . S
O343 Eu331 2.355 . S
O344 Eu321 2.394 . S
O344 C329 1.251 . S
O345 C329 1.251 . S
O345 Eu331 2.374 . S
O346 C330 1.257 . S
O346 Eu331 2.473 . S
O347 C330 1.260 . S
O347 Eu331 2.480 . S
O348 Eu331 2.430 . S
O348 C338 1.259 . S
O349 Eu321 2.355 . S
O349 Eu331 2.670 . S
O349 C338 1.270 . S
O350 Eu331 2.394 . S
O350 C339 1.251 . S
O351 Eu321 2.374 . S
O351 C339 1.251 . S
H352 C323 0.931 . S
H353 C324 0.931 . S
H354 C326 0.931 . S
H355 C327 0.931 . S
H356 C333 0.931 . S
H357 C334 0.931 . S
H358 C336 0.931 . S
H359 C337 0.931 . S
C360 Eu361 2.835 . S
C360 C362 1.500 . S
C360 O380 1.257 . S
C360 O381 1.260 . S
Eu361 C360 2.835 . S
Eu361 O380 2.473 . S
Eu361 O381 2.480 . S
Eu361 O382 2.430 1_655 S
Eu361 O383 2.670 1_655 S
Eu361 O384 2.394 . S
Eu361 O389 2.355 . S
Eu361 O391 2.374 1_655 S
C362 C360 1.500 . S
C362 C363 1.377 1_556 S
C362 C367 1.377 . S
C363 C362 1.377 1_554 S
C363 C364 1.395 . S
C363 H392 0.931 . S
C364 C363 1.395 . S
C364 C365 1.383 . S
C364 H393 0.931 . S
C365 C364 1.383 . S
C365 C366 1.394 . S
C366 C365 1.394 . S
C366 C367 1.378 1_554 S
C366 H394 0.931 . S
C367 C362 1.377 . S
C367 C366 1.378 1_556 S
C367 H395 0.931 . S
C368 O382 1.259 . S
C368 O383 1.270 . S
C369 O384 1.251 . S
C369 O385 1.251 . S
C370 Eu371 2.835 . S
C370 C372 1.500 . S
C370 O386 1.257 . S
C370 O387 1.260 . S
Eu371 C370 2.835 . S
Eu371 O383 2.355 . S
Eu371 O385 2.374 1_455 S
Eu371 O386 2.473 . S
Eu371 O387 2.480 . S
Eu371 O388 2.430 1_455 S
Eu371 O389 2.670 1_455 S
Eu371 O390 2.394 . S
C372 C370 1.500 . S
C372 C373 1.377 . S
C372 C377 1.377 . S
C373 C372 1.377 . S
C373 C374 1.395 . S
C373 H396 0.931 . S
C374 C373 1.395 . S
C374 C375 1.383 . S
C374 H397 0.931 . S
C375 C374 1.383 . S
C375 C376 1.394 . S
C376 C375 1.394 . S
C376 C377 1.378 . S
C376 H398 0.931 . S
C377 C372 1.377 . S
C377 C376 1.378 . S
C377 H399 0.931 . S
C378 O388 1.259 . S
C378 O389 1.270 . S
C379 O390 1.251 . S
C379 O391 1.251 . S
O380 C360 1.257 . S
O380 Eu361 2.473 . S
O381 C360 1.260 . S
O381 Eu361 2.480 . S
O382 Eu361 2.430 1_455 S
O382 C368 1.259 . S
O383 Eu361 2.670 1_455 S
O383 C368 1.270 . S
O383 Eu371 2.355 . S
O384 Eu361 2.394 . S
O384 C369 1.251 . S
O385 C369 1.251 . S
O385 Eu371 2.374 1_655 S
O386 C370 1.257 . S
O386 Eu371 2.473 . S
O387 C370 1.260 . S
O387 Eu371 2.480 . S
O388 Eu371 2.430 1_655 S
O388 C378 1.259 . S
O389 Eu361 2.355 . S
O389 Eu371 2.670 1_655 S
O389 C378 1.270 . S
O390 Eu371 2.394 . S
O390 C379 1.251 . S
O391 Eu361 2.374 1_455 S
O391 C379 1.251 . S
H392 C363 0.931 . S
H393 C364 0.931 . S
H394 C366 0.931 . S
H395 C367 0.931 . S
H396 C373 0.931 . S
H397 C374 0.931 . S
H398 C376 0.931 . S
H399 C377 0.931 . S
C400 Eu401 2.835 . S
C400 C402 1.500 . S
C400 O420 1.257 . S
C400 O421 1.260 . S
Eu401 C400 2.835 . S
Eu401 O420 2.473 . S
Eu401 O421 2.480 . S
Eu401 O422 2.430 1_565 S
Eu401 O423 2.670 1_565 S
Eu401 O424 2.394 . S
Eu401 O429 2.355 . S
Eu401 O431 2.374 1_565 S
C402 C400 1.500 . S
C402 C403 1.377 . S
C402 C407 1.377 . S
C403 C402 1.377 . S
C403 C404 1.395 . S
C403 H432 0.931 . S
C404 C403 1.395 . S
C404 C405 1.383 . S
C404 H433 0.931 . S
C405 C404 1.383 . S
C405 C406 1.394 . S
C406 C405 1.394 . S
C406 C407 1.378 . S
C406 H434 0.931 . S
C407 C402 1.377 . S
C407 C406 1.378 . S
C407 H435 0.931 . S
C408 O422 1.259 . S
C408 O423 1.270 . S
C409 O424 1.251 . S
C409 O425 1.251 . S
C410 Eu411 2.835 . S
C410 C412 1.500 . S
C410 O426 1.257 . S
C410 O427 1.260 . S
Eu411 C410 2.835 . S
Eu411 O423 2.355 . S
Eu411 O425 2.374 1_545 S
Eu411 O426 2.473 . S
Eu411 O427 2.480 . S
Eu411 O428 2.430 1_545 S
Eu411 O429 2.670 1_545 S
Eu411 O430 2.394 . S
C412 C410 1.500 . S
C412 C413 1.377 . S
C412 C417 1.377 . S
C413 C412 1.377 . S
C413 C414 1.395 . S
C413 H436 0.931 . S
C414 C413 1.395 . S
C414 C415 1.383 . S
C414 H437 0.931 . S
C415 C414 1.383 . S
C415 C416 1.394 . S
C416 C415 1.394 . S
C416 C417 1.378 . S
C416 H438 0.931 . S
C417 C412 1.377 . S
C417 C416 1.378 . S
C417 H439 0.931 . S
C418 O428 1.259 . S
C418 O429 1.270 . S
C419 O430 1.251 . S
C419 O431 1.251 . S
O420 C400 1.257 . S
O420 Eu401 2.473 . S
O421 C400 1.260 . S
O421 Eu401 2.480 . S
O422 Eu401 2.430 1_545 S
O422 C408 1.259 . S
O423 Eu401 2.670 1_545 S
O423 C408 1.270 . S
O423 Eu411 2.355 . S
O424 Eu401 2.394 . S
O424 C409 1.251 . S
O425 C409 1.251 . S
O425 Eu411 2.374 1_565 S
O426 C410 1.257 . S
O426 Eu411 2.473 . S
O427 C410 1.260 . S
O427 Eu411 2.480 . S
O428 Eu411 2.430 1_565 S
O428 C418 1.259 . S
O429 Eu401 2.355 . S
O429 Eu411 2.670 1_565 S
O429 C418 1.270 . S
O430 Eu411 2.394 . S
O430 C419 1.251 . S
O431 Eu401 2.374 1_545 S
O431 C419 1.251 . S
H432 C403 0.931 . S
H433 C404 0.931 . S
H434 C406 0.931 . S
H435 C407 0.931 . S
H436 C413 0.931 . S
H437 C414 0.931 . S
H438 C416 0.931 . S
H439 C417 0.931 . S
C440 Eu441 2.835 . S
C440 C442 1.500 . S
C440 O460 1.257 . S
C440 O461 1.260 . S
Eu441 C440 2.835 . S
Eu441 O460 2.473 . S
Eu441 O461 2.480 . S
Eu441 O462 2.430 . S
Eu441 O463 2.670 . S
Eu441 O464 2.394 . S
Eu441 O469 2.355 . S
Eu441 O471 2.374 . S
C442 C440 1.500 . S
C442 C443 1.377 . S
C442 C447 1.377 . S
C443 C442 1.377 . S
C443 C444 1.395 . S
C443 H472 0.931 . S
C444 C443 1.395 . S
C444 C445 1.383 . S
C444 H473 0.931 . S
C445 C444 1.383 . S
C445 C446 1.394 . S
C446 C445 1.394 . S
C446 C447 1.378 . S
C446 H474 0.931 . S
C447 C442 1.377 . S
C447 C446 1.378 . S
C447 H475 0.931 . S
C448 O462 1.259 . S
C448 O463 1.270 . S
C449 O464 1.251 . S
C449 O465 1.251 . S
C450 Eu451 2.835 . S
C450 C452 1.500 . S
C450 O466 1.257 . S
C450 O467 1.260 . S
Eu451 C450 2.835 . S
Eu451 O463 2.355 . S
Eu451 O465 2.374 . S
Eu451 O466 2.473 . S
Eu451 O467 2.480 . S
Eu451 O468 2.430 . S
Eu451 O469 2.670 . S
Eu451 O470 2.394 . S
C452 C450 1.500 . S
C452 C453 1.377 . S
C452 C457 1.377 . S
C453 C452 1.377 . S
C453 C454 1.395 . S
C453 H476 0.931 . S
C454 C453 1.395 . S
C454 C455 1.383 . S
C454 H477 0.931 . S
C455 C454 1.383 . S
C455 C456 1.394 . S
C456 C455 1.394 . S
C456 C457 1.378 . S
C456 H478 0.931 . S
C457 C452 1.377 . S
C457 C456 1.378 . S
C457 H479 0.931 . S
C458 O468 1.259 . S
C458 O469 1.270 . S
C459 O470 1.251 . S
C459 O471 1.251 . S
O460 C440 1.257 . S
O460 Eu441 2.473 . S
O461 C440 1.260 . S
O461 Eu441 2.480 . S
O462 Eu441 2.430 . S
O462 C448 1.259 . S
O463 Eu441 2.670 . S
O463 C448 1.270 . S
O463 Eu451 2.355 . S
O464 Eu441 2.394 . S
O464 C449 1.251 . S
O465 C449 1.251 . S
O465 Eu451 2.374 . S
O466 C450 1.257 . S
O466 Eu451 2.473 . S
O467 C450 1.260 . S
O467 Eu451 2.480 . S
O468 Eu451 2.430 . S
O468 C458 1.259 . S
O469 Eu441 2.355 . S
O469 Eu451 2.670 . S
O469 C458 1.270 . S
O470 Eu451 2.394 . S
O470 C459 1.251 . S
O471 Eu441 2.374 . S
O471 C459 1.251 . S
H472 C443 0.931 . S
H473 C444 0.931 . S
H474 C446 0.931 . S
H475 C447 0.931 . S
H476 C453 0.931 . S
H477 C454 0.931 . S
H478 C456 0.931 . S
H479 C457 0.931 . S
C480 C481 1.349 . S
C480 C482 1.327 . S
C480 H505 0.950 . S
C481 C480 1.349 . S
C481 C497 1.349 . S
C482 C480 1.327 . S
C482 C501 1.429 . S
C482 H506 0.950 . S
C483 C500 1.574 . S
C483 C502 1.368 . S
C483 H507 0.949 . S
H484 C488 0.949 . S
C485 C486 1.349 . S
C485 C487 1.327 . S
C485 H508 0.950 . S
C486 C485 1.349 . S
C486 C498 1.349 . S
C487 C485 1.327 . S
C487 C503 1.429 . S
C487 H509 0.950 . S
C488 H484 0.949 . S
C488 C496 1.574 . S
C488 C504 1.368 . S
H489 C497 0.950 . S
H490 C495 0.950 . S
H491 C496 0.949 . S
H492 C498 0.950 . S
H493 C499 0.950 . S
H494 C500 0.949 . S
C495 H490 0.950 . S
C495 C497 1.327 . S
C495 C501 1.429 . S
C496 C488 1.574 . S
C496 H491 0.949 . S
C496 C502 1.368 . S
C497 C481 1.349 . S
C497 H489 0.950 . S
C497 C495 1.327 . S
C498 C486 1.349 . S
C498 H492 0.950 . S
C498 C499 1.327 . S
C499 H493 0.950 . S
C499 C498 1.327 . S
C499 C503 1.429 . S
C500 C483 1.574 . S
C500 H494 0.949 . S
C500 C504 1.368 . S
C501 C482 1.429 . S
C501 C495 1.429 . S
C501 C502 1.523 . S
C502 C483 1.368 . S
C502 C496 1.368 . S
C502 C501 1.523 . S
C503 C487 1.429 . S
C503 C499 1.429 . S
C503 C504 1.523 . S
C504 C488 1.368 . S
C504 C500 1.368 . S
C504 C503 1.523 . S
H505 C480 0.950 . S
H506 C482 0.950 . S
H507 C483 0.949 . S
H508 C485 0.950 . S
H509 C487 0.950 . S
C510 C511 1.349 . S
C510 C512 1.327 . S
C510 H535 0.950 . S
C511 C510 1.349 . S
C511 C527 1.349 . S
C512 C510 1.327 . S
C512 C531 1.429 . S
C512 H536 0.950 . S
C513 C530 1.574 . S
C513 C532 1.368 . S
C513 H537 0.949 . S
H514 C518 0.949 . S
C515 C516 1.349 . S
C515 C517 1.327 . S
C515 H538 0.950 . S
C516 C515 1.349 . S
C516 C528 1.349 . S
C517 C515 1.327 . S
C517 C533 1.429 . S
C517 H539 0.950 . S
C518 H514 0.949 . S
C518 C526 1.574 . S
C518 C534 1.368 . S
H519 C527 0.950 . S
H520 C525 0.950 . S
H521 C526 0.949 . S
H522 C528 0.950 . S
H523 C529 0.950 . S
H524 C530 0.949 . S
C525 H520 0.950 . S
C525 C527 1.327 . S
C525 C531 1.429 . S
C526 C518 1.574 . S
C526 H521 0.949 . S
C526 C532 1.368 . S
C527 C511 1.349 . S
C527 H519 0.950 . S
C527 C525 1.327 . S
C528 C516 1.349 . S
C528 H522 0.950 . S
C528 C529 1.327 . S
C529 H523 0.950 . S
C529 C528 1.327 . S
C529 C533 1.429 . S
C530 C513 1.574 . S
C530 H524 0.949 . S
C530 C534 1.368 . S
C531 C512 1.429 . S
C531 C525 1.429 . S
C531 C532 1.523 . S
C532 C513 1.368 . S
C532 C526 1.368 . S
C532 C531 1.523 . S
C533 C517 1.429 . S
C533 C529 1.429 . S
C533 C534 1.523 . S
C534 C518 1.368 . S
C534 C530 1.368 . S
C534 C533 1.523 . S
H535 C510 0.950 . S
H536 C512 0.950 . S
H537 C513 0.949 . S
H538 C515 0.950 . S
H539 C517 0.950 . S
C540 C541 1.349 . S
C540 C542 1.327 . S
C540 H565 0.950 . S
C541 C540 1.349 . S
C541 C557 1.349 . S
C542 C540 1.327 . S
C542 C561 1.429 . S
C542 H566 0.950 . S
C543 C560 1.574 . S
C543 C562 1.368 . S
C543 H567 0.949 . S
H544 C548 0.949 . S
C545 C546 1.349 . S
C545 C547 1.327 . S
C545 H568 0.950 . S
C546 C545 1.349 . S
C546 C558 1.349 . S
C547 C545 1.327 . S
C547 C563 1.429 . S
C547 H569 0.950 . S
C548 H544 0.949 . S
C548 C556 1.574 . S
C548 C564 1.368 . S
H549 C557 0.950 . S
H550 C555 0.950 . S
H551 C556 0.949 . S
H552 C558 0.950 . S
H553 C559 0.950 . S
H554 C560 0.949 . S
C555 H550 0.950 . S
C555 C557 1.327 . S
C555 C561 1.429 . S
C556 C548 1.574 . S
C556 H551 0.949 . S
C556 C562 1.368 . S
C557 C541 1.349 . S
C557 H549 0.950 . S
C557 C555 1.327 . S
C558 C546 1.349 . S
C558 H552 0.950 . S
C558 C559 1.327 . S
C559 H553 0.950 . S
C559 C558 1.327 . S
C559 C563 1.429 . S
C560 C543 1.574 . S
C560 H554 0.949 . S
C560 C564 1.368 . S
C561 C542 1.429 . S
C561 C555 1.429 . S
C561 C562 1.523 . S
C562 C543 1.368 . S
C562 C556 1.368 . S
C562 C561 1.523 . S
C563 C547 1.429 . S
C563 C559 1.429 . S
C563 C564 1.523 . S
C564 C548 1.368 . S
C564 C560 1.368 . S
C564 C563 1.523 . S
H565 C540 0.950 . S
H566 C542 0.950 . S
H567 C543 0.949 . S
H568 C545 0.950 . S
H569 C547 0.950 . S
C570 C571 1.349 . S
C570 C572 1.327 . S
C570 H595 0.950 . S
C571 C570 1.349 . S
C571 C587 1.349 . S
C572 C570 1.327 . S
C572 C591 1.429 . S
C572 H596 0.950 . S
C573 C590 1.574 . S
C573 C592 1.368 . S
C573 H597 0.949 . S
H574 C578 0.949 . S
C575 C576 1.349 . S
C575 C577 1.327 . S
C575 H598 0.950 . S
C576 C575 1.349 . S
C576 C588 1.349 . S
C577 C575 1.327 . S
C577 C593 1.429 . S
C577 H599 0.950 . S
C578 H574 0.949 . S
C578 C586 1.574 . S
C578 C594 1.368 . S
H579 C587 0.950 . S
H580 C585 0.950 . S
H581 C586 0.949 . S
H582 C588 0.950 . S
H583 C589 0.950 . S
H584 C590 0.949 . S
C585 H580 0.950 . S
C585 C587 1.327 . S
C585 C591 1.429 . S
C586 C578 1.574 . S
C586 H581 0.949 . S
C586 C592 1.368 . S
C587 C571 1.349 . S
C587 H579 0.950 . S
C587 C585 1.327 . S
C588 C576 1.349 . S
C588 H582 0.950 . S
C588 C589 1.327 . S
C589 H583 0.950 . S
C589 C588 1.327 . S
C589 C593 1.429 . S
C590 C573 1.574 . S
C590 H584 0.949 . S
C590 C594 1.368 . S
C591 C572 1.429 . S
C591 C585 1.429 . S
C591 C592 1.523 . S
C592 C573 1.368 . S
C592 C586 1.368 . S
C592 C591 1.523 . S
C593 C577 1.429 . S
C593 C589 1.429 . S
C593 C594 1.523 . S
C594 C578 1.368 . S
C594 C590 1.368 . S
C594 C593 1.523 . S
H595 C570 0.950 . S
H596 C572 0.950 . S
H597 C573 0.949 . S
H598 C575 0.950 . S
H599 C577 0.950 . S
C600 C601 1.349 . S
C600 C602 1.327 . S
C600 H625 0.950 . S
C601 C600 1.349 . S
C601 C617 1.349 . S
C602 C600 1.327 . S
C602 C621 1.429 . S
C602 H626 0.950 . S
C603 C620 1.574 . S
C603 C622 1.368 . S
C603 H627 0.949 . S
H604 C608 0.949 . S
C605 C606 1.349 . S
C605 C607 1.327 . S
C605 H628 0.950 . S
C606 C605 1.349 . S
C606 C618 1.349 . S
C607 C605 1.327 . S
C607 C623 1.429 . S
C607 H629 0.950 . S
C608 H604 0.949 . S
C608 C616 1.574 . S
C608 C624 1.368 . S
H609 C617 0.950 . S
H610 C615 0.950 . S
H611 C616 0.949 . S
H612 C618 0.950 . S
H613 C619 0.950 . S
H614 C620 0.949 . S
C615 H610 0.950 . S
C615 C617 1.327 . S
C615 C621 1.429 . S
C616 C608 1.574 . S
C616 H611 0.949 . S
C616 C622 1.368 . S
C617 C601 1.349 . S
C617 H609 0.950 . S
C617 C615 1.327 . S
C618 C606 1.349 . S
C618 H612 0.950 . S
C618 C619 1.327 . S
C619 H613 0.950 . S
C619 C618 1.327 . S
C619 C623 1.429 . S
C620 C603 1.574 . S
C620 H614 0.949 . S
C620 C624 1.368 . S
C621 C602 1.429 . S
C621 C615 1.429 . S
C621 C622 1.523 . S
C622 C603 1.368 . S
C622 C616 1.368 . S
C622 C621 1.523 . S
C623 C607 1.429 . S
C623 C619 1.429 . S
C623 C624 1.523 . S
C624 C608 1.368 . S
C624 C620 1.368 . S
C624 C623 1.523 . S
H625 C600 0.950 . S
H626 C602 0.950 . S
H627 C603 0.949 . S
H628 C605 0.950 . S
H629 C607 0.950 . S
C630 C631 1.349 . S
C630 C632 1.327 . S
C630 H655 0.950 . S
C631 C630 1.349 . S
C631 C647 1.349 . S
C632 C630 1.327 . S
C632 C651 1.429 . S
C632 H656 0.950 . S
C633 C650 1.574 . S
C633 C652 1.368 . S
C633 H657 0.949 . S
H634 C638 0.949 . S
C635 C636 1.349 . S
C635 C637 1.327 . S
C635 H658 0.950 . S
C636 C635 1.349 . S
C636 C648 1.349 . S
C637 C635 1.327 . S
C637 C653 1.429 . S
C637 H659 0.950 . S
C638 H634 0.949 . S
C638 C646 1.574 . S
C638 C654 1.368 . S
H639 C647 0.950 . S
H640 C645 0.950 . S
H641 C646 0.949 . S
H642 C648 0.950 . S
H643 C649 0.950 . S
H644 C650 0.949 . S
C645 H640 0.950 . S
C645 C647 1.327 . S
C645 C651 1.429 . S
C646 C638 1.574 . S
C646 H641 0.949 . S
C646 C652 1.368 . S
C647 C631 1.349 . S
C647 H639 0.950 . S
C647 C645 1.327 . S
C648 C636 1.349 . S
C648 H642 0.950 . S
C648 C649 1.327 . S
C649 H643 0.950 . S
C649 C648 1.327 . S
C649 C653 1.429 . S
C650 C633 1.574 . S
C650 H644 0.949 . S
C650 C654 1.368 . S
C651 C632 1.429 . S
C651 C645 1.429 . S
C651 C652 1.523 . S
C652 C633 1.368 . S
C652 C646 1.368 . S
C652 C651 1.523 . S
C653 C637 1.429 . S
C653 C649 1.429 . S
C653 C654 1.523 . S
C654 C638 1.368 . S
C654 C650 1.368 . S
C654 C653 1.523 . S
H655 C630 0.950 . S
H656 C632 0.950 . S
H657 C633 0.949 . S
H658 C635 0.950 . S
H659 C637 0.950 . S
C660 C661 1.349 . S
C660 C662 1.327 . S
C660 H685 0.950 . S
C661 C660 1.349 . S
C661 C677 1.349 . S
C662 C660 1.327 . S
C662 C681 1.429 . S
C662 H686 0.950 . S
C663 C680 1.574 . S
C663 C682 1.368 . S
C663 H687 0.949 . S
H664 C668 0.949 . S
C665 C666 1.349 . S
C665 C667 1.327 . S
C665 H688 0.950 . S
C666 C665 1.349 . S
C666 C678 1.349 . S
C667 C665 1.327 . S
C667 C683 1.429 . S
C667 H689 0.950 . S
C668 H664 0.949 . S
C668 C676 1.574 . S
C668 C684 1.368 . S
H669 C677 0.950 . S
H670 C675 0.950 . S
H671 C676 0.949 . S
H672 C678 0.950 . S
H673 C679 0.950 . S
H674 C680 0.949 . S
C675 H670 0.950 . S
C675 C677 1.327 . S
C675 C681 1.429 . S
C676 C668 1.574 . S
C676 H671 0.949 . S
C676 C682 1.368 . S
C677 C661 1.349 . S
C677 H669 0.950 . S
C677 C675 1.327 . S
C678 C666 1.349 . S
C678 H672 0.950 . S
C678 C679 1.327 . S
C679 H673 0.950 . S
C679 C678 1.327 . S
C679 C683 1.429 . S
C680 C663 1.574 . S
C680 H674 0.949 . S
C680 C684 1.368 . S
C681 C662 1.429 . S
C681 C675 1.429 . S
C681 C682 1.523 . S
C682 C663 1.368 . S
C682 C676 1.368 . S
C682 C681 1.523 . S
C683 C667 1.429 . S
C683 C679 1.429 . S
C683 C684 1.523 . S
C684 C668 1.368 . S
C684 C680 1.368 . S
C684 C683 1.523 . S
H685 C660 0.950 . S
H686 C662 0.950 . S
H687 C663 0.949 . S
H688 C665 0.950 . S
H689 C667 0.950 . S
C690 C691 1.349 . S
C690 C692 1.327 . S
C690 H715 0.950 . S
C691 C690 1.349 . S
C691 C707 1.349 . S
C692 C690 1.327 . S
C692 C711 1.429 . S
C692 H716 0.950 . S
C693 C710 1.574 . S
C693 C712 1.368 . S
C693 H717 0.949 . S
H694 C698 0.949 . S
C695 C696 1.349 . S
C695 C697 1.327 . S
C695 H718 0.950 . S
C696 C695 1.349 . S
C696 C708 1.349 . S
C697 C695 1.327 . S
C697 C713 1.429 . S
C697 H719 0.950 . S
C698 H694 0.949 . S
C698 C706 1.574 . S
C698 C714 1.368 . S
H699 C707 0.950 . S
H700 C705 0.950 . S
H701 C706 0.949 . S
H702 C708 0.950 . S
H703 C709 0.950 . S
H704 C710 0.949 . S
C705 H700 0.950 . S
C705 C707 1.327 . S
C705 C711 1.429 . S
C706 C698 1.574 . S
C706 H701 0.949 . S
C706 C712 1.368 . S
C707 C691 1.349 . S
C707 H699 0.950 . S
C707 C705 1.327 . S
C708 C696 1.349 . S
C708 H702 0.950 . S
C708 C709 1.327 . S
C709 H703 0.950 . S
C709 C708 1.327 . S
C709 C713 1.429 . S
C710 C693 1.574 . S
C710 H704 0.949 . S
C710 C714 1.368 . S
C711 C692 1.429 . S
C711 C705 1.429 . S
C711 C712 1.523 . S
C712 C693 1.368 . S
C712 C706 1.368 . S
C712 C711 1.523 . S
C713 C697 1.429 . S
C713 C709 1.429 . S
C713 C714 1.523 . S
C714 C698 1.368 . S
C714 C710 1.368 . S
C714 C713 1.523 . S
H715 C690 0.950 . S
H716 C692 0.950 . S
H717 C693 0.949 . S
H718 C695 0.950 . S
H719 C697 0.950 . S
C720 C721 1.349 . S
C720 C722 1.327 . S
C720 H745 0.950 . S
C721 C720 1.349 . S
C721 C737 1.349 . S
C722 C720 1.327 . S
C722 C741 1.429 . S
C722 H746 0.950 . S
C723 C740 1.574 . S
C723 C742 1.368 . S
C723 H747 0.949 . S
H724 C728 0.949 . S
C725 C726 1.349 . S
C725 C727 1.327 . S
C725 H748 0.950 . S
C726 C725 1.349 . S
C726 C738 1.349 . S
C727 C725 1.327 . S
C727 C743 1.429 . S
C727 H749 0.950 . S
C728 H724 0.949 . S
C728 C736 1.574 . S
C728 C744 1.368 . S
H729 C737 0.950 . S
H730 C735 0.950 . S
H731 C736 0.949 . S
H732 C738 0.950 . S
H733 C739 0.950 . S
H734 C740 0.949 . S
C735 H730 0.950 . S
C735 C737 1.327 . S
C735 C741 1.429 . S
C736 C728 1.574 . S
C736 H731 0.949 . S
C736 C742 1.368 . S
C737 C721 1.349 . S
C737 H729 0.950 . S
C737 C735 1.327 . S
C738 C726 1.349 . S
C738 H732 0.950 . S
C738 C739 1.327 . S
C739 H733 0.950 . S
C739 C738 1.327 . S
C739 C743 1.429 . S
C740 C723 1.574 . S
C740 H734 0.949 . S
C740 C744 1.368 . S
C741 C722 1.429 . S
C741 C735 1.429 . S
C741 C742 1.523 . S
C742 C723 1.368 . S
C742 C736 1.368 . S
C742 C741 1.523 . S
C743 C727 1.429 . S
C743 C739 1.429 . S
C743 C744 1.523 . S
C744 C728 1.368 . S
C744 C740 1.368 . S
C744 C743 1.523 . S
H745 C720 0.950 . S
H746 C722 0.950 . S
H747 C723 0.949 . S
H748 C725 0.950 . S
H749 C727 0.950 . S
C750 C751 1.349 . S
C750 C752 1.327 . S
C750 H775 0.950 . S
C751 C750 1.349 . S
C751 C767 1.349 . S
C752 C750 1.327 . S
C752 C771 1.429 . S
C752 H776 0.950 . S
C753 C770 1.574 . S
C753 C772 1.368 . S
C753 H777 0.949 . S
H754 C758 0.949 . S
C755 C756 1.349 . S
C755 C757 1.327 . S
C755 H778 0.950 . S
C756 C755 1.349 . S
C756 C768 1.349 . S
C757 C755 1.327 . S
C757 C773 1.429 . S
C757 H779 0.950 . S
C758 H754 0.949 . S
C758 C766 1.574 . S
C758 C774 1.368 . S
H759 C767 0.950 . S
H760 C765 0.950 . S
H761 C766 0.949 . S
H762 C768 0.950 . S
H763 C769 0.950 . S
H764 C770 0.949 . S
C765 H760 0.950 . S
C765 C767 1.327 . S
C765 C771 1.429 . S
C766 C758 1.574 . S
C766 H761 0.949 . S
C766 C772 1.368 . S
C767 C751 1.349 . S
C767 H759 0.950 . S
C767 C765 1.327 . S
C768 C756 1.349 . S
C768 H762 0.950 . S
C768 C769 1.327 . S
C769 H763 0.950 . S
C769 C768 1.327 . S
C769 C773 1.429 . S
C770 C753 1.574 . S
C770 H764 0.949 . S
C770 C774 1.368 . S
C771 C752 1.429 . S
C771 C765 1.429 . S
C771 C772 1.523 . S
C772 C753 1.368 . S
C772 C766 1.368 . S
C772 C771 1.523 . S
C773 C757 1.429 . S
C773 C769 1.429 . S
C773 C774 1.523 . S
C774 C758 1.368 . S
C774 C770 1.368 . S
C774 C773 1.523 . S
H775 C750 0.950 . S
H776 C752 0.950 . S
H777 C753 0.949 . S
H778 C755 0.950 . S
H779 C757 0.950 . S
C780 C781 1.349 . S
C780 C782 1.327 . S
C780 H805 0.950 . S
C781 C780 1.349 . S
C781 C797 1.349 . S
C782 C780 1.327 . S
C782 C801 1.429 . S
C782 H806 0.950 . S
C783 C800 1.574 . S
C783 C802 1.368 . S
C783 H807 0.949 . S
H784 C788 0.949 . S
C785 C786 1.349 . S
C785 C787 1.327 . S
C785 H808 0.950 . S
C786 C785 1.349 . S
C786 C798 1.349 . S
C787 C785 1.327 . S
C787 C803 1.429 . S
C787 H809 0.950 . S
C788 H784 0.949 . S
C788 C796 1.574 . S
C788 C804 1.368 . S
H789 C797 0.950 . S
H790 C795 0.950 . S
H791 C796 0.949 . S
H792 C798 0.950 . S
H793 C799 0.950 . S
H794 C800 0.949 . S
C795 H790 0.950 . S
C795 C797 1.327 . S
C795 C801 1.429 . S
C796 C788 1.574 . S
C796 H791 0.949 . S
C796 C802 1.368 . S
C797 C781 1.349 . S
C797 H789 0.950 . S
C797 C795 1.327 . S
C798 C786 1.349 . S
C798 H792 0.950 . S
C798 C799 1.327 . S
C799 H793 0.950 . S
C799 C798 1.327 . S
C799 C803 1.429 . S
C800 C783 1.574 . S
C800 H794 0.949 . S
C800 C804 1.368 . S
C801 C782 1.429 . S
C801 C795 1.429 . S
C801 C802 1.523 . S
C802 C783 1.368 . S
C802 C796 1.368 . S
C802 C801 1.523 . S
C803 C787 1.429 . S
C803 C799 1.429 . S
C803 C804 1.523 . S
C804 C788 1.368 . S
C804 C800 1.368 . S
C804 C803 1.523 . S
H805 C780 0.950 . S
H806 C782 0.950 . S
H807 C783 0.949 . S
H808 C785 0.950 . S
H809 C787 0.950 . S
C810 C811 1.349 . S
C810 C812 1.327 . S
C810 H835 0.950 . S
C811 C810 1.349 . S
C811 C827 1.349 . S
C812 C810 1.327 . S
C812 C831 1.429 . S
C812 H836 0.950 . S
C813 C830 1.574 . S
C813 C832 1.368 . S
C813 H837 0.949 . S
H814 C818 0.949 . S
C815 C816 1.349 . S
C815 C817 1.327 . S
C815 H838 0.950 . S
C816 C815 1.349 . S
C816 C828 1.349 . S
C817 C815 1.327 . S
C817 C833 1.429 . S
C817 H839 0.950 . S
C818 H814 0.949 . S
C818 C826 1.574 . S
C818 C834 1.368 . S
H819 C827 0.950 . S
H820 C825 0.950 . S
H821 C826 0.949 . S
H822 C828 0.950 . S
H823 C829 0.950 . S
H824 C830 0.949 . S
C825 H820 0.950 . S
C825 C827 1.327 . S
C825 C831 1.429 . S
C826 C818 1.574 . S
C826 H821 0.949 . S
C826 C832 1.368 . S
C827 C811 1.349 . S
C827 H819 0.950 . S
C827 C825 1.327 . S
C828 C816 1.349 . S
C828 H822 0.950 . S
C828 C829 1.327 . S
C829 H823 0.950 . S
C829 C828 1.327 . S
C829 C833 1.429 . S
C830 C813 1.574 . S
C830 H824 0.949 . S
C830 C834 1.368 . S
C831 C812 1.429 . S
C831 C825 1.429 . S
C831 C832 1.523 . S
C832 C813 1.368 . S
C832 C826 1.368 . S
C832 C831 1.523 . S
C833 C817 1.429 . S
C833 C829 1.429 . S
C833 C834 1.523 . S
C834 C818 1.368 . S
C834 C830 1.368 . S
C834 C833 1.523 . S
H835 C810 0.950 . S
H836 C812 0.950 . S
H837 C813 0.949 . S
H838 C815 0.950 . S
H839 C817 0.950 . S
C840 C841 1.349 . S
C840 C842 1.327 . S
C840 H865 0.950 . S
C841 C840 1.349 . S
C841 C857 1.349 . S
C842 C840 1.327 . S
C842 C861 1.429 . S
C842 H866 0.950 . S
C843 C860 1.574 . S
C843 C862 1.368 . S
C843 H867 0.949 . S
H844 C848 0.949 . S
C845 C846 1.349 . S
C845 C847 1.327 . S
C845 H868 0.950 . S
C846 C845 1.349 . S
C846 C858 1.349 . S
C847 C845 1.327 . S
C847 C863 1.429 . S
C847 H869 0.950 . S
C848 H844 0.949 . S
C848 C856 1.574 . S
C848 C864 1.368 . S
H849 C857 0.950 . S
H850 C855 0.950 . S
H851 C856 0.949 . S
H852 C858 0.950 . S
H853 C859 0.950 . S
H854 C860 0.949 . S
C855 H850 0.950 . S
C855 C857 1.327 . S
C855 C861 1.429 . S
C856 C848 1.574 . S
C856 H851 0.949 . S
C856 C862 1.368 . S
C857 C841 1.349 . S
C857 H849 0.950 . S
C857 C855 1.327 . S
C858 C846 1.349 . S
C858 H852 0.950 . S
C858 C859 1.327 . S
C859 H853 0.950 . S
C859 C858 1.327 . S
C859 C863 1.429 . S
C860 C843 1.574 . S
C860 H854 0.949 . S
C860 C864 1.368 . S
C861 C842 1.429 . S
C861 C855 1.429 . S
C861 C862 1.523 . S
C862 C843 1.368 . S
C862 C856 1.368 . S
C862 C861 1.523 . S
C863 C847 1.429 . S
C863 C859 1.429 . S
C863 C864 1.523 . S
C864 C848 1.368 . S
C864 C860 1.368 . S
C864 C863 1.523 . S
H865 C840 0.950 . S
H866 C842 0.950 . S
H867 C843 0.949 . S
H868 C845 0.950 . S
H869 C847 0.950 . S
C870 C871 1.349 . S
C870 C872 1.327 . S
C870 H895 0.950 . S
C871 C870 1.349 . S
C871 C887 1.349 . S
C872 C870 1.327 . S
C872 C891 1.429 . S
C872 H896 0.950 . S
C873 C890 1.574 . S
C873 C892 1.368 . S
C873 H897 0.949 . S
H874 C878 0.949 . S
C875 C876 1.349 . S
C875 C877 1.327 . S
C875 H898 0.950 . S
C876 C875 1.349 . S
C876 C888 1.349 . S
C877 C875 1.327 . S
C877 C893 1.429 . S
C877 H899 0.950 . S
C878 H874 0.949 . S
C878 C886 1.574 . S
C878 C894 1.368 . S
H879 C887 0.950 . S
H880 C885 0.950 . S
H881 C886 0.949 . S
H882 C888 0.950 . S
H883 C889 0.950 . S
H884 C890 0.949 . S
C885 H880 0.950 . S
C885 C887 1.327 . S
C885 C891 1.429 . S
C886 C878 1.574 . S
C886 H881 0.949 . S
C886 C892 1.368 . S
C887 C871 1.349 . S
C887 H879 0.950 . S
C887 C885 1.327 . S
C888 C876 1.349 . S
C888 H882 0.950 . S
C888 C889 1.327 . S
C889 H883 0.950 . S
C889 C888 1.327 . S
C889 C893 1.429 . S
C890 C873 1.574 . S
C890 H884 0.949 . S
C890 C894 1.368 . S
C891 C872 1.429 . S
C891 C885 1.429 . S
C891 C892 1.523 . S
C892 C873 1.368 . S
C892 C886 1.368 . S
C892 C891 1.523 . S
C893 C877 1.429 . S
C893 C889 1.429 . S
C893 C894 1.523 . S
C894 C878 1.368 . S
C894 C890 1.368 . S
C894 C893 1.523 . S
H895 C870 0.950 . S
H896 C872 0.950 . S
H897 C873 0.949 . S
H898 C875 0.950 . S
H899 C877 0.950 . S
C900 C901 1.349 . S
C900 C902 1.327 . S
C900 H925 0.950 . S
C901 C900 1.349 . S
C901 C917 1.349 . S
C902 C900 1.327 . S
C902 C921 1.429 . S
C902 H926 0.950 . S
C903 C920 1.574 . S
C903 C922 1.368 . S
C903 H927 0.949 . S
H904 C908 0.949 . S
C905 C906 1.349 . S
C905 C907 1.327 . S
C905 H928 0.950 . S
C906 C905 1.349 . S
C906 C918 1.349 . S
C907 C905 1.327 . S
C907 C923 1.429 . S
C907 H929 0.950 . S
C908 H904 0.949 . S
C908 C916 1.574 . S
C908 C924 1.368 . S
H909 C917 0.950 . S
H910 C915 0.950 . S
H911 C916 0.949 . S
H912 C918 0.950 . S
H913 C919 0.950 . S
H914 C920 0.949 . S
C915 H910 0.950 . S
C915 C917 1.327 . S
C915 C921 1.429 . S
C916 C908 1.574 . S
C916 H911 0.949 . S
C916 C922 1.368 . S
C917 C901 1.349 . S
C917 H909 0.950 . S
C917 C915 1.327 . S
C918 C906 1.349 . S
C918 H912 0.950 . S
C918 C919 1.327 . S
C919 H913 0.950 . S
C919 C918 1.327 . S
C919 C923 1.429 . S
C920 C903 1.574 . S
C920 H914 0.949 . S
C920 C924 1.368 . S
C921 C902 1.429 . S
C921 C915 1.429 . S
C921 C922 1.523 . S
C922 C903 1.368 . S
C922 C916 1.368 . S
C922 C921 1.523 . S
C923 C907 1.429 . S
C923 C919 1.429 . S
C923 C924 1.523 . S
C924 C908 1.368 . S
C924 C920 1.368 . S
C924 C923 1.523 . S
H925 C900 0.950 . S
H926 C902 0.950 . S
H927 C903 0.949 . S
H928 C905 0.950 . S
H929 C907 0.950 . S
C930 C931 1.349 . S
C930 C932 1.327 . S
C930 H955 0.950 . S
C931 C930 1.349 . S
C931 C947 1.349 . S
C932 C930 1.327 . S
C932 C951 1.429 . S
C932 H956 0.950 . S
C933 C950 1.574 . S
C933 C952 1.368 . S
C933 H957 0.949 . S
H934 C938 0.949 . S
C935 C936 1.349 . S
C935 C937 1.327 . S
C935 H958 0.950 . S
C936 C935 1.349 . S
C936 C948 1.349 . S
C937 C935 1.327 . S
C937 C953 1.429 . S
C937 H959 0.950 . S
C938 H934 0.949 . S
C938 C946 1.574 . S
C938 C954 1.368 . S
H939 C947 0.950 . S
H940 C945 0.950 . S
H941 C946 0.949 . S
H942 C948 0.950 . S
H943 C949 0.950 . S
H944 C950 0.949 . S
C945 H940 0.950 . S
C945 C947 1.327 . S
C945 C951 1.429 . S
C946 C938 1.574 . S
C946 H941 0.949 . S
C946 C952 1.368 . S
C947 C931 1.349 . S
C947 H939 0.950 . S
C947 C945 1.327 . S
C948 C936 1.349 . S
C948 H942 0.950 . S
C948 C949 1.327 . S
C949 H943 0.950 . S
C949 C948 1.327 . S
C949 C953 1.429 . S
C950 C933 1.574 . S
C950 H944 0.949 . S
C950 C954 1.368 . S
C951 C932 1.429 . S
C951 C945 1.429 . S
C951 C952 1.523 . S
C952 C933 1.368 . S
C952 C946 1.368 . S
C952 C951 1.523 . S
C953 C937 1.429 . S
C953 C949 1.429 . S
C953 C954 1.523 . S
C954 C938 1.368 . S
C954 C950 1.368 . S
C954 C953 1.523 . S
H955 C930 0.950 . S
H956 C932 0.950 . S
H957 C933 0.949 . S
H958 C935 0.950 . S
H959 C937 0.950 . S
C960 C961 1.349 . S
C960 C962 1.327 . S
C960 H985 0.940 1_556 S
C961 C960 1.349 . S
C961 C977 1.349 . S
C962 C960 1.327 . S
C962 C981 1.429 . S
C962 H986 0.950 1_556 S
C963 C980 1.574 . S
C963 C982 1.368 . S
C963 H987 0.949 . S
H964 C968 0.949 . S
C965 C966 1.364 . S
C965 C967 1.322 1_554 S
C965 H988 0.939 1_554 S
C966 C965 1.364 . S
C966 C978 1.349 . S
C967 C965 1.322 1_556 S
C967 C983 1.429 1_556 S
C967 H989 0.950 . S
C968 H964 0.949 . S
C968 C976 1.574 . S
C968 C984 1.423 . S
H969 C977 0.950 . S
H970 C975 0.950 . S
H971 C976 0.949 . S
H972 C978 0.950 . S
H973 C979 0.950 . S
H974 C980 0.949 . S
C975 H970 0.950 . S
C975 C977 1.327 . S
C975 C981 1.429 . S
C976 C968 1.574 . S
C976 H971 0.949 . S
C976 C982 1.368 1_554 S
C977 C961 1.349 . S
C977 H969 0.950 . S
C977 C975 1.327 . S
C978 C966 1.349 . S
C978 H972 0.950 . S
C978 C979 1.327 . S
C979 H973 0.950 . S
C979 C978 1.327 . S
C979 C983 1.429 . S
C980 C963 1.574 . S
C980 H974 0.949 . S
C980 C984 1.299 1_556 S
C981 C962 1.429 . S
C981 C975 1.429 . S
C981 C982 1.523 . S
C982 C963 1.368 . S
C982 C976 1.368 1_556 S
C982 C981 1.523 . S
C983 C967 1.429 1_554 S
C983 C979 1.429 . S
C983 C984 1.545 . S
C984 C968 1.423 . S
C984 C980 1.299 1_554 S
C984 C983 1.545 . S
H985 C960 0.940 1_554 S
H986 C962 0.950 1_554 S
H987 C963 0.949 . S
H988 C965 0.939 1_556 S
H989 C967 0.950 . S
C990 C991 1.349 . S
C990 C992 1.327 . S
C990 H1015 0.950 . S
C991 C990 1.349 . S
C991 C1007 1.349 . S
C992 C990 1.327 . S
C992 C1011 1.429 . S
C992 H1016 0.950 . S
C993 C1010 1.574 . S
C993 C1012 1.368 . S
C993 H1017 0.949 . S
H994 C998 0.949 . S
C995 C996 1.349 . S
C995 C997 1.327 . S
C995 H1018 0.950 . S
C996 C995 1.349 . S
C996 C1008 1.349 . S
C997 C995 1.327 . S
C997 C1013 1.429 . S
C997 H1019 0.950 . S
C998 H994 0.949 . S
C998 C1006 1.574 . S
C998 C1014 1.368 . S
H999 C1007 0.950 . S
H1000 C1005 0.950 . S
H1001 C1006 0.949 . S
H1002 C1008 0.950 . S
H1003 C1009 0.950 . S
H1004 C1010 0.949 . S
C1005 H1000 0.950 . S
C1005 C1007 1.327 . S
C1005 C1011 1.429 . S
C1006 C998 1.574 . S
C1006 H1001 0.949 . S
C1006 C1012 1.368 . S
C1007 C991 1.349 . S
C1007 H999 0.950 . S
C1007 C1005 1.327 . S
C1008 C996 1.349 . S
C1008 H1002 0.950 . S
C1008 C1009 1.327 . S
C1009 H1003 0.950 . S
C1009 C1008 1.327 . S
C1009 C1013 1.429 . S
C1010 C993 1.574 . S
C1010 H1004 0.949 . S
C1010 C1014 1.368 . S
C1011 C992 1.429 . S
C1011 C1005 1.429 . S
C1011 C1012 1.523 . S
C1012 C993 1.368 . S
C1012 C1006 1.368 . S
C1012 C1011 1.523 . S
C1013 C997 1.429 . S
C1013 C1009 1.429 . S
C1013 C1014 1.523 . S
C1014 C998 1.368 . S
C1014 C1010 1.368 . S
C1014 C1013 1.523 . S
H1015 C990 0.950 . S
H1016 C992 0.950 . S
H1017 C993 0.949 . S
H1018 C995 0.950 . S
H1019 C997 0.950 . S
C1020 C1021 1.349 . S
C1020 C1022 1.327 . S
C1020 H1045 0.950 . S
C1021 C1020 1.349 . S
C1021 C1037 1.349 . S
C1022 C1020 1.327 . S
C1022 C1041 1.429 . S
C1022 H1046 0.950 . S
C1023 C1040 1.574 . S
C1023 C1042 1.368 . S
C1023 H1047 0.949 . S
H1024 C1028 0.949 . S
C1025 C1026 1.349 . S
C1025 C1027 1.327 . S
C1025 H1048 0.950 . S
C1026 C1025 1.349 . S
C1026 C1038 1.349 . S
C1027 C1025 1.327 . S
C1027 C1043 1.429 . S
C1027 H1049 0.950 . S
C1028 H1024 0.949 . S
C1028 C1036 1.574 . S
C1028 C1044 1.368 . S
H1029 C1037 0.950 . S
H1030 C1035 0.950 . S
H1031 C1036 0.949 . S
H1032 C1038 0.950 . S
H1033 C1039 0.950 . S
H1034 C1040 0.949 . S
C1035 H1030 0.950 . S
C1035 C1037 1.327 . S
C1035 C1041 1.429 . S
C1036 C1028 1.574 . S
C1036 H1031 0.949 . S
C1036 C1042 1.368 . S
C1037 C1021 1.349 . S
C1037 H1029 0.950 . S
C1037 C1035 1.327 . S
C1038 C1026 1.349 . S
C1038 H1032 0.950 . S
C1038 C1039 1.327 . S
C1039 H1033 0.950 . S
C1039 C1038 1.327 . S
C1039 C1043 1.429 . S
C1040 C1023 1.574 . S
C1040 H1034 0.949 . S
C1040 C1044 1.368 . S
C1041 C1022 1.429 . S
C1041 C1035 1.429 . S
C1041 C1042 1.523 . S
C1042 C1023 1.368 . S
C1042 C1036 1.368 . S
C1042 C1041 1.523 . S
C1043 C1027 1.429 . S
C1043 C1039 1.429 . S
C1043 C1044 1.523 . S
C1044 C1028 1.368 . S
C1044 C1040 1.368 . S
C1044 C1043 1.523 . S
H1045 C1020 0.950 . S
H1046 C1022 0.950 . S
H1047 C1023 0.949 . S
H1048 C1025 0.950 . S
H1049 C1027 0.950 . S
C1050 C1051 1.349 . S
C1050 C1052 1.327 . S
C1050 H1075 0.950 . S
C1051 C1050 1.349 . S
C1051 C1067 1.349 . S
C1052 C1050 1.327 . S
C1052 C1071 1.429 . S
C1052 H1076 0.950 . S
C1053 C1070 1.574 . S
C1053 C1072 1.368 . S
C1053 H1077 0.949 . S
H1054 C1058 0.949 . S
C1055 C1056 1.349 . S
C1055 C1057 1.327 . S
C1055 H1078 0.950 . S
C1056 C1055 1.349 . S
C1056 C1068 1.349 . S
C1057 C1055 1.327 . S
C1057 C1073 1.429 . S
C1057 H1079 0.950 . S
C1058 H1054 0.949 . S
C1058 C1066 1.574 . S
C1058 C1074 1.368 . S
H1059 C1067 0.950 . S
H1060 C1065 0.950 . S
H1061 C1066 0.949 . S
H1062 C1068 0.950 . S
H1063 C1069 0.950 . S
H1064 C1070 0.949 . S
C1065 H1060 0.950 . S
C1065 C1067 1.327 . S
C1065 C1071 1.429 . S
C1066 C1058 1.574 . S
C1066 H1061 0.949 . S
C1066 C1072 1.368 . S
C1067 C1051 1.349 . S
C1067 H1059 0.950 . S
C1067 C1065 1.327 . S
C1068 C1056 1.349 . S
C1068 H1062 0.950 . S
C1068 C1069 1.327 . S
C1069 H1063 0.950 . S
C1069 C1068 1.327 . S
C1069 C1073 1.429 . S
C1070 C1053 1.574 . S
C1070 H1064 0.949 . S
C1070 C1074 1.368 . S
C1071 C1052 1.429 . S
C1071 C1065 1.429 . S
C1071 C1072 1.523 . S
C1072 C1053 1.368 . S
C1072 C1066 1.368 . S
C1072 C1071 1.523 . S
C1073 C1057 1.429 . S
C1073 C1069 1.429 . S
C1073 C1074 1.523 . S
C1074 C1058 1.368 . S
C1074 C1070 1.368 . S
C1074 C1073 1.523 . S
H1075 C1050 0.950 . S
H1076 C1052 0.950 . S
H1077 C1053 0.949 . S
H1078 C1055 0.950 . S
H1079 C1057 0.950 . S
C1080 C1081 1.349 . S
C1080 C1082 1.327 . S
C1080 H1105 0.950 . S
C1081 C1080 1.349 . S
C1081 C1097 1.349 . S
C1082 C1080 1.327 . S
C1082 C1101 1.429 . S
C1082 H1106 0.950 . S
C1083 C1100 1.574 . S
C1083 C1102 1.368 . S
C1083 H1107 0.949 . S
H1084 C1088 0.949 . S
C1085 C1086 1.349 . S
C1085 C1087 1.327 . S
C1085 H1108 0.950 . S
C1086 C1085 1.349 . S
C1086 C1098 1.349 . S
C1087 C1085 1.327 . S
C1087 C1103 1.429 . S
C1087 H1109 0.950 . S
C1088 H1084 0.949 . S
C1088 C1096 1.574 . S
C1088 C1104 1.368 . S
H1089 C1097 0.950 . S
H1090 C1095 0.950 . S
H1091 C1096 0.949 . S
H1092 C1098 0.950 . S
H1093 C1099 0.950 . S
H1094 C1100 0.949 . S
C1095 H1090 0.950 . S
C1095 C1097 1.327 . S
C1095 C1101 1.429 . S
C1096 C1088 1.574 . S
C1096 H1091 0.949 . S
C1096 C1102 1.368 . S
C1097 C1081 1.349 . S
C1097 H1089 0.950 . S
C1097 C1095 1.327 . S
C1098 C1086 1.349 . S
C1098 H1092 0.950 . S
C1098 C1099 1.327 . S
C1099 H1093 0.950 . S
C1099 C1098 1.327 . S
C1099 C1103 1.429 . S
C1100 C1083 1.574 . S
C1100 H1094 0.949 . S
C1100 C1104 1.368 . S
C1101 C1082 1.429 . S
C1101 C1095 1.429 . S
C1101 C1102 1.523 . S
C1102 C1083 1.368 . S
C1102 C1096 1.368 . S
C1102 C1101 1.523 . S
C1103 C1087 1.429 . S
C1103 C1099 1.429 . S
C1103 C1104 1.523 . S
C1104 C1088 1.368 . S
C1104 C1100 1.368 . S
C1104 C1103 1.523 . S
H1105 C1080 0.950 . S
H1106 C1082 0.950 . S
H1107 C1083 0.949 . S
H1108 C1085 0.950 . S
H1109 C1087 0.950 . S
C1110 C1111 1.349 . S
C1110 C1112 1.327 . S
C1110 H1135 0.950 . S
C1111 C1110 1.349 . S
C1111 C1127 1.349 . S
C1112 C1110 1.327 . S
C1112 C1131 1.429 . S
C1112 H1136 0.978 . S
C1113 C1130 1.574 . S
C1113 C1132 1.368 . S
C1113 H1137 0.949 . S
H1114 C1118 0.949 . S
C1115 C1116 1.349 . S
C1115 C1117 1.327 . S
C1115 H1138 0.950 . S
C1116 C1115 1.349 . S
C1116 C1128 1.349 . S
C1117 C1115 1.327 . S
C1117 C1133 1.429 . S
C1117 H1139 0.950 1_556 S
C1118 H1114 0.949 . S
C1118 C1126 1.574 . S
C1118 C1134 1.368 . S
H1119 C1127 0.950 . S
H1120 C1125 0.950 . S
H1121 C1126 0.949 . S
H1122 C1128 0.950 . S
H1123 C1129 0.950 . S
H1124 C1130 0.949 . S
C1125 H1120 0.950 . S
C1125 C1127 1.327 . S
C1125 C1131 1.429 . S
C1126 C1118 1.574 . S
C1126 H1121 0.949 . S
C1126 C1132 1.368 1_556 S
C1127 C1111 1.349 . S
C1127 H1119 0.950 . S
C1127 C1125 1.327 . S
C1128 C1116 1.349 . S
C1128 H1122 0.950 . S
C1128 C1129 1.327 . S
C1129 H1123 0.950 . S
C1129 C1128 1.327 . S
C1129 C1133 1.429 . S
C1130 C1113 1.574 . S
C1130 H1124 0.949 . S
C1130 C1134 1.368 1_554 S
C1131 C1112 1.429 . S
C1131 C1125 1.429 . S
C1131 C1132 1.523 . S
C1132 C1113 1.368 . S
C1132 C1126 1.368 1_554 S
C1132 C1131 1.523 . S
C1133 C1117 1.429 . S
C1133 C1129 1.429 . S
C1133 C1134 1.523 . S
C1134 C1118 1.368 . S
C1134 C1130 1.368 1_556 S
C1134 C1133 1.523 . S
H1135 C1110 0.950 . S
H1136 C1112 0.978 . S
H1137 C1113 0.949 . S
H1138 C1115 0.950 . S
H1139 C1117 0.950 1_554 S
C1140 C1141 1.349 . S
C1140 C1142 1.327 . S
C1140 H1165 0.950 . S
C1141 C1140 1.349 . S
C1141 C1157 1.349 . S
C1142 C1140 1.327 . S
C1142 C1161 1.429 . S
C1142 H1166 0.950 . S
C1143 C1160 1.574 . S
C1143 C1162 1.368 . S
C1143 H1167 0.949 . S
H1144 C1148 0.949 . S
C1145 C1146 1.349 . S
C1145 C1147 1.327 . S
C1145 H1168 0.950 . S
C1146 C1145 1.349 . S
C1146 C1158 1.349 . S
C1147 C1145 1.327 . S
C1147 C1163 1.429 . S
C1147 H1169 0.950 . S
C1148 H1144 0.949 . S
C1148 C1156 1.574 . S
C1148 C1164 1.368 . S
H1149 C1157 0.950 . S
H1150 C1155 0.950 . S
H1151 C1156 0.949 . S
H1152 C1158 0.950 . S
H1153 C1159 0.950 . S
H1154 C1160 0.949 . S
C1155 H1150 0.950 . S
C1155 C1157 1.327 . S
C1155 C1161 1.429 . S
C1156 C1148 1.574 . S
C1156 H1151 0.949 . S
C1156 C1162 1.368 . S
C1157 C1141 1.349 . S
C1157 H1149 0.950 . S
C1157 C1155 1.327 . S
C1158 C1146 1.349 . S
C1158 H1152 0.950 . S
C1158 C1159 1.327 . S
C1159 H1153 0.950 . S
C1159 C1158 1.327 . S
C1159 C1163 1.429 . S
C1160 C1143 1.574 . S
C1160 H1154 0.949 . S
C1160 C1164 1.368 . S
C1161 C1142 1.429 . S
C1161 C1155 1.429 . S
C1161 C1162 1.523 . S
C1162 C1143 1.368 . S
C1162 C1156 1.368 . S
C1162 C1161 1.523 . S
C1163 C1147 1.429 . S
C1163 C1159 1.429 . S
C1163 C1164 1.523 . S
C1164 C1148 1.368 . S
C1164 C1160 1.368 . S
C1164 C1163 1.523 . S
H1165 C1140 0.950 . S
H1166 C1142 0.950 . S
H1167 C1143 0.949 . S
H1168 C1145 0.950 . S
H1169 C1147 0.950 . S
C1170 C1171 1.349 . S
C1170 C1172 1.327 . S
C1170 H1195 0.950 . S
C1171 C1170 1.349 . S
C1171 C1187 1.349 . S
C1172 C1170 1.327 . S
C1172 C1191 1.429 . S
C1172 H1196 0.950 . S
C1173 C1190 1.574 . S
C1173 C1192 1.368 . S
C1173 H1197 0.949 . S
H1174 C1178 0.949 . S
C1175 C1176 1.349 . S
C1175 C1177 1.327 . S
C1175 H1198 0.950 . S
C1176 C1175 1.349 . S
C1176 C1188 1.349 . S
C1177 C1175 1.327 . S
C1177 C1193 1.429 . S
C1177 H1199 0.950 . S
C1178 H1174 0.949 . S
C1178 C1186 1.574 . S
C1178 C1194 1.368 . S
H1179 C1187 0.950 . S
H1180 C1185 0.950 . S
H1181 C1186 0.949 . S
H1182 C1188 0.950 . S
H1183 C1189 0.950 . S
H1184 C1190 0.949 . S
C1185 H1180 0.950 . S
C1185 C1187 1.327 . S
C1185 C1191 1.429 . S
C1186 C1178 1.574 . S
C1186 H1181 0.949 . S
C1186 C1192 1.368 . S
C1187 C1171 1.349 . S
C1187 H1179 0.950 . S
C1187 C1185 1.327 . S
C1188 C1176 1.349 . S
C1188 H1182 0.950 . S
C1188 C1189 1.327 . S
C1189 H1183 0.950 . S
C1189 C1188 1.327 . S
C1189 C1193 1.429 . S
C1190 C1173 1.574 . S
C1190 H1184 0.949 . S
C1190 C1194 1.368 . S
C1191 C1172 1.429 . S
C1191 C1185 1.429 . S
C1191 C1192 1.523 . S
C1192 C1173 1.368 . S
C1192 C1186 1.368 . S
C1192 C1191 1.523 . S
C1193 C1177 1.429 . S
C1193 C1189 1.429 . S
C1193 C1194 1.523 . S
C1194 C1178 1.368 . S
C1194 C1190 1.368 . S
C1194 C1193 1.523 . S
H1195 C1170 0.950 . S
H1196 C1172 0.950 . S
H1197 C1173 0.949 . S
H1198 C1175 0.950 . S
H1199 C1177 0.950 . S
C1200 C1201 1.349 . S
C1200 C1202 1.327 . S
C1200 H1225 0.950 . S
C1201 C1200 1.349 . S
C1201 C1217 1.349 . S
C1202 C1200 1.327 . S
C1202 C1221 1.429 . S
C1202 H1226 0.950 . S
C1203 C1220 1.574 . S
C1203 C1222 1.368 . S
C1203 H1227 0.949 . S
H1204 C1208 0.949 . S
C1205 C1206 1.349 . S
C1205 C1207 1.327 . S
C1205 H1228 0.950 . S
C1206 C1205 1.349 . S
C1206 C1218 1.349 . S
C1207 C1205 1.327 . S
C1207 C1223 1.429 . S
C1207 H1229 0.950 . S
C1208 H1204 0.949 . S
C1208 C1216 1.574 . S
C1208 C1224 1.368 . S
H1209 C1217 0.950 . S
H1210 C1215 0.950 . S
H1211 C1216 0.949 . S
H1212 C1218 0.950 . S
H1213 C1219 0.950 . S
H1214 C1220 0.949 . S
C1215 H1210 0.950 . S
C1215 C1217 1.327 . S
C1215 C1221 1.429 . S
C1216 C1208 1.574 . S
C1216 H1211 0.949 . S
C1216 C1222 1.368 . S
C1217 C1201 1.349 . S
C1217 H1209 0.950 . S
C1217 C1215 1.327 . S
C1218 C1206 1.349 . S
C1218 H1212 0.950 . S
C1218 C1219 1.327 . S
C1219 H1213 0.950 . S
C1219 C1218 1.327 . S
C1219 C1223 1.429 . S
C1220 C1203 1.574 . S
C1220 H1214 0.949 . S
C1220 C1224 1.368 . S
C1221 C1202 1.429 . S
C1221 C1215 1.429 . S
C1221 C1222 1.523 . S
C1222 C1203 1.368 . S
C1222 C1216 1.368 . S
C1222 C1221 1.523 . S
C1223 C1207 1.429 . S
C1223 C1219 1.429 . S
C1223 C1224 1.523 . S
C1224 C1208 1.368 . S
C1224 C1220 1.368 . S
C1224 C1223 1.523 . S
H1225 C1200 0.950 . S
H1226 C1202 0.950 . S
H1227 C1203 0.949 . S
H1228 C1205 0.950 . S
H1229 C1207 0.950 . S
C1230 C1231 1.349 . S
C1230 C1232 1.327 . S
C1230 H1255 0.950 . S
C1231 C1230 1.349 . S
C1231 C1247 1.349 . S
C1232 C1230 1.327 . S
C1232 C1251 1.429 . S
C1232 H1256 0.950 . S
C1233 C1250 1.574 . S
C1233 C1252 1.368 . S
C1233 H1257 0.949 . S
H1234 C1238 0.949 . S
C1235 C1236 1.349 . S
C1235 C1237 1.327 . S
C1235 H1258 0.950 . S
C1236 C1235 1.349 . S
C1236 C1248 1.349 . S
C1237 C1235 1.327 . S
C1237 C1253 1.429 . S
C1237 H1259 0.950 . S
C1238 H1234 0.949 . S
C1238 C1246 1.574 . S
C1238 C1254 1.368 . S
H1239 C1247 0.950 . S
H1240 C1245 0.950 . S
H1241 C1246 0.949 . S
H1242 C1248 0.950 . S
H1243 C1249 0.950 . S
H1244 C1250 0.949 . S
C1245 H1240 0.950 . S
C1245 C1247 1.327 . S
C1245 C1251 1.429 . S
C1246 C1238 1.574 . S
C1246 H1241 0.949 . S
C1246 C1252 1.368 . S
C1247 C1231 1.349 . S
C1247 H1239 0.950 . S
C1247 C1245 1.327 . S
C1248 C1236 1.349 . S
C1248 H1242 0.950 . S
C1248 C1249 1.327 . S
C1249 H1243 0.950 . S
C1249 C1248 1.327 . S
C1249 C1253 1.429 . S
C1250 C1233 1.574 . S
C1250 H1244 0.949 . S
C1250 C1254 1.368 . S
C1251 C1232 1.429 . S
C1251 C1245 1.429 . S
C1251 C1252 1.523 . S
C1252 C1233 1.368 . S
C1252 C1246 1.368 . S
C1252 C1251 1.523 . S
C1253 C1237 1.429 . S
C1253 C1249 1.429 . S
C1253 C1254 1.523 . S
C1254 C1238 1.368 . S
C1254 C1250 1.368 . S
C1254 C1253 1.523 . S
H1255 C1230 0.950 . S
H1256 C1232 0.950 . S
H1257 C1233 0.949 . S
H1258 C1235 0.950 . S
H1259 C1237 0.950 . S
C1260 C1261 1.349 . S
C1260 C1262 1.327 . S
C1260 H1285 0.950 . S
C1261 C1260 1.349 . S
C1261 C1277 1.349 . S
C1262 C1260 1.327 . S
C1262 C1281 1.429 . S
C1262 H1286 0.950 . S
C1263 C1280 1.574 . S
C1263 C1282 1.368 . S
C1263 H1287 0.949 . S
H1264 C1268 0.949 . S
C1265 C1266 1.349 . S
C1265 C1267 1.327 . S
C1265 H1288 0.950 . S
C1266 C1265 1.349 . S
C1266 C1278 1.349 . S
C1267 C1265 1.327 . S
C1267 C1283 1.429 . S
C1267 H1289 0.950 . S
C1268 H1264 0.949 . S
C1268 C1276 1.574 . S
C1268 C1284 1.368 . S
H1269 C1277 0.950 . S
H1270 C1275 0.950 . S
H1271 C1276 0.949 . S
H1272 C1278 0.950 . S
H1273 C1279 0.950 . S
H1274 C1280 0.949 . S
C1275 H1270 0.950 . S
C1275 C1277 1.327 . S
C1275 C1281 1.429 . S
C1276 C1268 1.574 . S
C1276 H1271 0.949 . S
C1276 C1282 1.368 . S
C1277 C1261 1.349 . S
C1277 H1269 0.950 . S
C1277 C1275 1.327 . S
C1278 C1266 1.349 . S
C1278 H1272 0.950 . S
C1278 C1279 1.327 . S
C1279 H1273 0.950 . S
C1279 C1278 1.327 . S
C1279 C1283 1.429 . S
C1280 C1263 1.574 . S
C1280 H1274 0.949 . S
C1280 C1284 1.368 . S
C1281 C1262 1.429 . S
C1281 C1275 1.429 . S
C1281 C1282 1.523 . S
C1282 C1263 1.368 . S
C1282 C1276 1.368 . S
C1282 C1281 1.523 . S
C1283 C1267 1.429 . S
C1283 C1279 1.429 . S
C1283 C1284 1.523 . S
C1284 C1268 1.368 . S
C1284 C1280 1.368 . S
C1284 C1283 1.523 . S
H1285 C1260 0.950 . S
H1286 C1262 0.950 . S
H1287 C1263 0.949 . S
H1288 C1265 0.950 . S
H1289 C1267 0.950 . S
C1290 C1291 1.349 . S
C1290 C1292 1.327 . S
C1290 H1315 0.950 . S
C1291 C1290 1.349 . S
C1291 C1307 1.349 . S
C1292 C1290 1.327 . S
C1292 C1311 1.429 . S
C1292 H1316 0.950 . S
C1293 C1310 1.574 . S
C1293 C1312 1.368 . S
C1293 H1317 0.949 . S
H1294 C1298 0.949 . S
C1295 C1296 1.349 . S
C1295 C1297 1.327 . S
C1295 H1318 0.950 . S
C1296 C1295 1.349 . S
C1296 C1308 1.349 . S
C1297 C1295 1.327 . S
C1297 C1313 1.429 . S
C1297 H1319 0.950 . S
C1298 H1294 0.949 . S
C1298 C1306 1.574 . S
C1298 C1314 1.368 . S
H1299 C1307 0.950 . S
H1300 C1305 0.950 . S
H1301 C1306 0.949 . S
H1302 C1308 0.950 . S
H1303 C1309 0.950 . S
H1304 C1310 0.949 . S
C1305 H1300 0.950 . S
C1305 C1307 1.327 . S
C1305 C1311 1.429 . S
C1306 C1298 1.574 . S
C1306 H1301 0.949 . S
C1306 C1312 1.368 . S
C1307 C1291 1.349 . S
C1307 H1299 0.950 . S
C1307 C1305 1.327 . S
C1308 C1296 1.349 . S
C1308 H1302 0.950 . S
C1308 C1309 1.327 . S
C1309 H1303 0.950 . S
C1309 C1308 1.327 . S
C1309 C1313 1.429 . S
C1310 C1293 1.574 . S
C1310 H1304 0.949 . S
C1310 C1314 1.368 . S
C1311 C1292 1.429 . S
C1311 C1305 1.429 . S
C1311 C1312 1.523 . S
C1312 C1293 1.368 . S
C1312 C1306 1.368 . S
C1312 C1311 1.523 . S
C1313 C1297 1.429 . S
C1313 C1309 1.429 . S
C1313 C1314 1.523 . S
C1314 C1298 1.368 . S
C1314 C1310 1.368 . S
C1314 C1313 1.523 . S
H1315 C1290 0.950 . S
H1316 C1292 0.950 . S
H1317 C1293 0.949 . S
H1318 C1295 0.950 . S
H1319 C1297 0.950 . S
C1320 C1321 1.349 . S
C1320 C1322 1.327 . S
C1320 H1345 0.950 . S
C1321 C1320 1.349 . S
C1321 C1337 1.349 . S
C1322 C1320 1.327 . S
C1322 C1341 1.429 . S
C1322 H1346 0.950 . S
C1323 C1340 1.574 . S
C1323 C1342 1.368 . S
C1323 H1347 0.949 . S
H1324 C1328 0.949 . S
C1325 C1326 1.349 . S
C1325 C1327 1.327 . S
C1325 H1348 0.950 . S
C1326 C1325 1.349 . S
C1326 C1338 1.349 . S
C1327 C1325 1.327 . S
C1327 C1343 1.429 . S
C1327 H1349 0.950 . S
C1328 H1324 0.949 . S
C1328 C1336 1.574 . S
C1328 C1344 1.368 . S
H1329 C1337 0.950 . S
H1330 C1335 0.950 . S
H1331 C1336 0.949 . S
H1332 C1338 0.950 . S
H1333 C1339 0.950 . S
H1334 C1340 0.949 . S
C1335 H1330 0.950 . S
C1335 C1337 1.327 . S
C1335 C1341 1.429 . S
C1336 C1328 1.574 . S
C1336 H1331 0.949 . S
C1336 C1342 1.368 . S
C1337 C1321 1.349 . S
C1337 H1329 0.950 . S
C1337 C1335 1.327 . S
C1338 C1326 1.349 . S
C1338 H1332 0.950 . S
C1338 C1339 1.327 . S
C1339 H1333 0.950 . S
C1339 C1338 1.327 . S
C1339 C1343 1.429 . S
C1340 C1323 1.574 . S
C1340 H1334 0.949 . S
C1340 C1344 1.368 . S
C1341 C1322 1.429 . S
C1341 C1335 1.429 . S
C1341 C1342 1.523 . S
C1342 C1323 1.368 . S
C1342 C1336 1.368 . S
C1342 C1341 1.523 . S
C1343 C1327 1.429 . S
C1343 C1339 1.429 . S
C1343 C1344 1.523 . S
C1344 C1328 1.368 . S
C1344 C1340 1.368 . S
C1344 C1343 1.523 . S
H1345 C1320 0.950 . S
H1346 C1322 0.950 . S
H1347 C1323 0.949 . S
H1348 C1325 0.950 . S
H1349 C1327 0.950 . S
C1350 C1351 1.349 . S
C1350 C1352 1.327 . S
C1350 H1375 0.950 . S
C1351 C1350 1.349 . S
C1351 C1367 1.349 . S
C1352 C1350 1.327 . S
C1352 C1371 1.429 . S
C1352 H1376 0.950 . S
C1353 C1370 1.574 . S
C1353 C1372 1.368 . S
C1353 H1377 0.949 . S
H1354 C1358 0.949 . S
C1355 C1356 1.349 . S
C1355 C1357 1.327 . S
C1355 H1378 0.950 . S
C1356 C1355 1.349 . S
C1356 C1368 1.349 . S
C1357 C1355 1.327 . S
C1357 C1373 1.429 . S
C1357 H1379 0.950 . S
C1358 H1354 0.949 . S
C1358 C1366 1.574 . S
C1358 C1374 1.368 . S
H1359 C1367 0.950 . S
H1360 C1365 0.950 . S
H1361 C1366 0.949 . S
H1362 C1368 0.950 . S
H1363 C1369 0.950 . S
H1364 C1370 0.949 . S
C1365 H1360 0.950 . S
C1365 C1367 1.327 . S
C1365 C1371 1.429 . S
C1366 C1358 1.574 . S
C1366 H1361 0.949 . S
C1366 C1372 1.368 . S
C1367 C1351 1.349 . S
C1367 H1359 0.950 . S
C1367 C1365 1.327 . S
C1368 C1356 1.349 . S
C1368 H1362 0.950 . S
C1368 C1369 1.327 . S
C1369 H1363 0.950 . S
C1369 C1368 1.327 . S
C1369 C1373 1.429 . S
C1370 C1353 1.574 . S
C1370 H1364 0.949 . S
C1370 C1374 1.368 . S
C1371 C1352 1.429 . S
C1371 C1365 1.429 . S
C1371 C1372 1.523 . S
C1372 C1353 1.368 . S
C1372 C1366 1.368 . S
C1372 C1371 1.523 . S
C1373 C1357 1.429 . S
C1373 C1369 1.429 . S
C1373 C1374 1.523 . S
C1374 C1358 1.368 . S
C1374 C1370 1.368 . S
C1374 C1373 1.523 . S
H1375 C1350 0.950 . S
H1376 C1352 0.950 . S
H1377 C1353 0.949 . S
H1378 C1355 0.950 . S
H1379 C1357 0.950 . S
C1380 C1381 1.349 . S
C1380 C1382 1.327 . S
C1380 H1405 0.950 . S
C1381 C1380 1.349 . S
C1381 C1397 1.349 . S
C1382 C1380 1.327 . S
C1382 C1401 1.429 . S
C1382 H1406 0.950 . S
C1383 C1400 1.574 . S
C1383 C1402 1.368 . S
C1383 H1407 0.949 . S
H1384 C1388 0.949 . S
C1385 C1386 1.349 . S
C1385 C1387 1.327 . S
C1385 H1408 0.950 . S
C1386 C1385 1.349 . S
C1386 C1398 1.349 . S
C1387 C1385 1.327 . S
C1387 C1403 1.429 . S
C1387 H1409 0.950 . S
C1388 H1384 0.949 . S
C1388 C1396 1.574 . S
C1388 C1404 1.368 . S
H1389 C1397 0.950 . S
H1390 C1395 0.950 . S
H1391 C1396 0.949 . S
H1392 C1398 0.950 . S
H1393 C1399 0.950 . S
H1394 C1400 0.949 . S
C1395 H1390 0.950 . S
C1395 C1397 1.327 . S
C1395 C1401 1.429 . S
C1396 C1388 1.574 . S
C1396 H1391 0.949 . S
C1396 C1402 1.368 . S
C1397 C1381 1.349 . S
C1397 H1389 0.950 . S
C1397 C1395 1.327 . S
C1398 C1386 1.349 . S
C1398 H1392 0.950 . S
C1398 C1399 1.327 . S
C1399 H1393 0.950 . S
C1399 C1398 1.327 . S
C1399 C1403 1.429 . S
C1400 C1383 1.574 . S
C1400 H1394 0.949 . S
C1400 C1404 1.368 . S
C1401 C1382 1.429 . S
C1401 C1395 1.429 . S
C1401 C1402 1.523 . S
C1402 C1383 1.368 . S
C1402 C1396 1.368 . S
C1402 C1401 1.523 . S
C1403 C1387 1.429 . S
C1403 C1399 1.429 . S
C1403 C1404 1.523 . S
C1404 C1388 1.368 . S
C1404 C1400 1.368 . S
C1404 C1403 1.523 . S
H1405 C1380 0.950 . S
H1406 C1382 0.950 . S
H1407 C1383 0.949 . S
H1408 C1385 0.950 . S
H1409 C1387 0.950 . S
C1410 C1411 1.349 . S
C1410 C1412 1.327 . S
C1410 H1435 0.950 . S
C1411 C1410 1.349 . S
C1411 C1427 1.349 . S
C1412 C1410 1.327 . S
C1412 C1431 1.429 . S
C1412 H1436 0.950 . S
C1413 C1430 1.574 . S
C1413 C1432 1.368 . S
C1413 H1437 0.949 . S
H1414 C1418 0.949 . S
C1415 C1416 1.349 . S
C1415 C1417 1.327 . S
C1415 H1438 0.950 . S
C1416 C1415 1.349 . S
C1416 C1428 1.349 . S
C1417 C1415 1.327 . S
C1417 C1433 1.429 . S
C1417 H1439 0.950 . S
C1418 H1414 0.949 . S
C1418 C1426 1.574 . S
C1418 C1434 1.368 . S
H1419 C1427 0.950 . S
H1420 C1425 0.950 . S
H1421 C1426 0.949 . S
H1422 C1428 0.950 . S
H1423 C1429 0.950 . S
H1424 C1430 0.949 . S
C1425 H1420 0.950 . S
C1425 C1427 1.327 . S
C1425 C1431 1.429 . S
C1426 C1418 1.574 . S
C1426 H1421 0.949 . S
C1426 C1432 1.368 . S
C1427 C1411 1.349 . S
C1427 H1419 0.950 . S
C1427 C1425 1.327 . S
C1428 C1416 1.349 . S
C1428 H1422 0.950 . S
C1428 C1429 1.327 . S
C1429 H1423 0.950 . S
C1429 C1428 1.327 . S
C1429 C1433 1.429 . S
C1430 C1413 1.574 . S
C1430 H1424 0.949 . S
C1430 C1434 1.368 . S
C1431 C1412 1.429 . S
C1431 C1425 1.429 . S
C1431 C1432 1.523 . S
C1432 C1413 1.368 . S
C1432 C1426 1.368 . S
C1432 C1431 1.523 . S
C1433 C1417 1.429 . S
C1433 C1429 1.429 . S
C1433 C1434 1.523 . S
C1434 C1418 1.368 . S
C1434 C1430 1.368 . S
C1434 C1433 1.523 . S
H1435 C1410 0.950 . S
H1436 C1412 0.950 . S
H1437 C1413 0.949 . S
H1438 C1415 0.950 . S
H1439 C1417 0.950 . S
C1440 C1441 1.349 . S
C1440 C1442 1.327 . S
C1440 H1465 0.950 . S
C1441 C1440 1.349 . S
C1441 C1457 1.349 . S
C1442 C1440 1.327 . S
C1442 C1461 1.429 . S
C1442 H1466 0.950 . S
C1443 C1460 1.574 . S
C1443 C1462 1.368 . S
C1443 H1467 0.949 . S
H1444 C1448 0.949 . S
C1445 C1446 1.349 . S
C1445 C1447 1.327 . S
C1445 H1468 0.950 . S
C1446 C1445 1.349 . S
C1446 C1458 1.349 . S
C1447 C1445 1.327 . S
C1447 C1463 1.429 . S
C1447 H1469 0.950 . S
C1448 H1444 0.949 . S
C1448 C1456 1.574 . S
C1448 C1464 1.368 . S
H1449 C1457 0.950 . S
H1450 C1455 0.950 . S
H1451 C1456 0.949 . S
H1452 C1458 0.950 . S
H1453 C1459 0.950 . S
H1454 C1460 0.949 . S
C1455 H1450 0.950 . S
C1455 C1457 1.327 . S
C1455 C1461 1.429 . S
C1456 C1448 1.574 . S
C1456 H1451 0.949 . S
C1456 C1462 1.368 . S
C1457 C1441 1.349 . S
C1457 H1449 0.950 . S
C1457 C1455 1.327 . S
C1458 C1446 1.349 . S
C1458 H1452 0.950 . S
C1458 C1459 1.327 . S
C1459 H1453 0.950 . S
C1459 C1458 1.327 . S
C1459 C1463 1.429 . S
C1460 C1443 1.574 . S
C1460 H1454 0.949 . S
C1460 C1464 1.368 . S
C1461 C1442 1.429 . S
C1461 C1455 1.429 . S
C1461 C1462 1.523 . S
C1462 C1443 1.368 . S
C1462 C1456 1.368 . S
C1462 C1461 1.523 . S
C1463 C1447 1.429 . S
C1463 C1459 1.429 . S
C1463 C1464 1.523 . S
C1464 C1448 1.368 . S
C1464 C1460 1.368 . S
C1464 C1463 1.523 . S
H1465 C1440 0.950 . S
H1466 C1442 0.950 . S
H1467 C1443 0.949 . S
H1468 C1445 0.950 . S
H1469 C1447 0.950 . S
C1470 C1471 1.349 . S
C1470 C1472 1.327 . S
C1470 H1495 0.950 . S
C1471 C1470 1.349 . S
C1471 C1487 1.349 . S
C1472 C1470 1.327 . S
C1472 C1491 1.429 . S
C1472 H1496 0.950 . S
C1473 C1490 1.574 . S
C1473 C1492 1.368 . S
C1473 H1497 0.949 . S
H1474 C1478 0.949 . S
C1475 C1476 1.349 . S
C1475 C1477 1.327 . S
C1475 H1498 0.950 . S
C1476 C1475 1.349 . S
C1476 C1488 1.349 . S
C1477 C1475 1.327 . S
C1477 C1493 1.429 . S
C1477 H1499 0.950 . S
C1478 H1474 0.949 . S
C1478 C1486 1.574 . S
C1478 C1494 1.368 . S
H1479 C1487 0.950 . S
H1480 C1485 0.950 . S
H1481 C1486 0.949 . S
H1482 C1488 0.950 . S
H1483 C1489 0.950 . S
H1484 C1490 0.949 . S
C1485 H1480 0.950 . S
C1485 C1487 1.327 . S
C1485 C1491 1.429 . S
C1486 C1478 1.574 . S
C1486 H1481 0.949 . S
C1486 C1492 1.368 . S
C1487 C1471 1.349 . S
C1487 H1479 0.950 . S
C1487 C1485 1.327 . S
C1488 C1476 1.349 . S
C1488 H1482 0.950 . S
C1488 C1489 1.327 . S
C1489 H1483 0.950 . S
C1489 C1488 1.327 . S
C1489 C1493 1.429 . S
C1490 C1473 1.574 . S
C1490 H1484 0.949 . S
C1490 C1494 1.368 . S
C1491 C1472 1.429 . S
C1491 C1485 1.429 . S
C1491 C1492 1.523 . S
C1492 C1473 1.368 . S
C1492 C1486 1.368 . S
C1492 C1491 1.523 . S
C1493 C1477 1.429 . S
C1493 C1489 1.429 . S
C1493 C1494 1.523 . S
C1494 C1478 1.368 . S
C1494 C1490 1.368 . S
C1494 C1493 1.523 . S
H1495 C1470 0.950 . S
H1496 C1472 0.950 . S
H1497 C1473 0.949 . S
H1498 C1475 0.950 . S
H1499 C1477 0.950 . S
C1500 C1501 1.349 . S
C1500 C1502 1.327 . S
C1500 H1525 0.950 . S
C1501 C1500 1.349 . S
C1501 C1517 1.349 . S
C1502 C1500 1.327 . S
C1502 C1521 1.429 . S
C1502 H1526 0.950 . S
C1503 C1520 1.574 . S
C1503 C1522 1.368 . S
C1503 H1527 0.949 . S
H1504 C1508 0.949 . S
C1505 C1506 1.349 . S
C1505 C1507 1.327 . S
C1505 H1528 0.950 . S
C1506 C1505 1.349 . S
C1506 C1518 1.349 . S
C1507 C1505 1.327 . S
C1507 C1523 1.429 . S
C1507 H1529 0.950 . S
C1508 H1504 0.949 . S
C1508 C1516 1.574 . S
C1508 C1524 1.368 . S
H1509 C1517 0.950 . S
H1510 C1515 0.950 . S
H1511 C1516 0.949 . S
H1512 C1518 0.950 . S
H1513 C1519 0.950 . S
H1514 C1520 0.949 . S
C1515 H1510 0.950 . S
C1515 C1517 1.327 . S
C1515 C1521 1.429 . S
C1516 C1508 1.574 . S
C1516 H1511 0.949 . S
C1516 C1522 1.368 . S
C1517 C1501 1.349 . S
C1517 H1509 0.950 . S
C1517 C1515 1.327 . S
C1518 C1506 1.349 . S
C1518 H1512 0.950 . S
C1518 C1519 1.327 . S
C1519 H1513 0.950 . S
C1519 C1518 1.327 . S
C1519 C1523 1.429 . S
C1520 C1503 1.574 . S
C1520 H1514 0.949 . S
C1520 C1524 1.368 . S
C1521 C1502 1.429 . S
C1521 C1515 1.429 . S
C1521 C1522 1.523 . S
C1522 C1503 1.368 . S
C1522 C1516 1.368 . S
C1522 C1521 1.523 . S
C1523 C1507 1.429 . S
C1523 C1519 1.429 . S
C1523 C1524 1.523 . S
C1524 C1508 1.368 . S
C1524 C1520 1.368 . S
C1524 C1523 1.523 . S
H1525 C1500 0.950 . S
H1526 C1502 0.950 . S
H1527 C1503 0.949 . S
H1528 C1505 0.950 . S
H1529 C1507 0.950 . S
C1530 C1531 1.349 . S
C1530 C1532 1.327 . S
C1530 H1555 0.950 . S
C1531 C1530 1.349 . S
C1531 C1547 1.349 . S
C1532 C1530 1.327 . S
C1532 C1551 1.429 . S
C1532 H1556 0.950 . S
C1533 C1550 1.574 . S
C1533 C1552 1.368 . S
C1533 H1557 0.949 . S
H1534 C1538 0.949 . S
C1535 C1536 1.349 . S
C1535 C1537 1.327 . S
C1535 H1558 0.950 . S
C1536 C1535 1.349 . S
C1536 C1548 1.349 . S
C1537 C1535 1.327 . S
C1537 C1553 1.429 . S
C1537 H1559 0.950 . S
C1538 H1534 0.949 . S
C1538 C1546 1.574 . S
C1538 C1554 1.368 . S
H1539 C1547 0.950 . S
H1540 C1545 0.950 . S
H1541 C1546 0.949 . S
H1542 C1548 0.950 . S
H1543 C1549 0.950 . S
H1544 C1550 0.949 . S
C1545 H1540 0.950 . S
C1545 C1547 1.327 . S
C1545 C1551 1.429 . S
C1546 C1538 1.574 . S
C1546 H1541 0.949 . S
C1546 C1552 1.368 . S
C1547 C1531 1.349 . S
C1547 H1539 0.950 . S
C1547 C1545 1.327 . S
C1548 C1536 1.349 . S
C1548 H1542 0.950 . S
C1548 C1549 1.327 . S
C1549 H1543 0.950 . S
C1549 C1548 1.327 . S
C1549 C1553 1.429 . S
C1550 C1533 1.574 . S
C1550 H1544 0.949 . S
C1550 C1554 1.368 . S
C1551 C1532 1.429 . S
C1551 C1545 1.429 . S
C1551 C1552 1.523 . S
C1552 C1533 1.368 . S
C1552 C1546 1.368 . S
C1552 C1551 1.523 . S
C1553 C1537 1.429 . S
C1553 C1549 1.429 . S
C1553 C1554 1.523 . S
C1554 C1538 1.368 . S
C1554 C1550 1.368 . S
C1554 C1553 1.523 . S
H1555 C1530 0.950 . S
H1556 C1532 0.950 . S
H1557 C1533 0.949 . S
H1558 C1535 0.950 . S
H1559 C1537 0.950 . S
C481 C219 1.925 . S
C486 C5 1.953 . S
C511 C45 1.979 . S
C516 C19 1.943 . S
C541 C85 2.078 . S
C546 C59 2.057 . S
C571 C99 1.925 . S
C576 C125 1.953 . S
C601 C139 1.945 . S
C606 C165 1.977 . S
C631 C205 2.078 . S
C636 C179 2.057 . S
C661 C299 1.925 . S
C666 C245 1.953 . S
C691 C285 2.078 . S
C696 C339 2.057 . S
C721 C379 1.946 . S
C726 C325 1.977 . S
C751 C419 1.925 . S
C756 C365 1.953 . S
C781 C459 2.055 . S
C786 C405 2.080 . S
C811 C259 1.946 . S
C816 C445 1.977 . S
C841 C448 2.966 . S
C846 C9 3.098 . S
C871 C49 2.461 . S
C876 C248 2.353 . S
C901 C288 2.645 . S
C906 C89 2.771 . S
C931 C328 2.966 . S
C936 C129 3.097 . S
C961 C368 2.356 . S
C966 C169 2.458 . S
C991 C209 2.774 . S
C996 C408 2.643 . S
C1021 C249 3.094 . S
C1026 C48 2.968 . S
C1051 C289 2.773 . S
C1056 C88 2.643 . S
C1081 C128 2.356 . S
C1086 C329 2.458 . S
C1111 C168 2.966 . S
C1116 C369 3.098 . S
C1141 C409 2.773 . S
C1146 C208 2.642 . S
C1171 C449 2.461 . S
C1176 C8 2.353 . S
C1201 C258 2.385 . S
C1206 C18 2.388 . S
C1231 C58 1.472 . S
C1236 C298 1.478 . S
C1261 C338 1.472 . S
C1266 C98 1.477 . S
C1291 C138 2.386 . S
C1296 C378 2.389 . S
C1321 C418 1.474 . S
C1326 C178 1.475 . S
C1351 C458 1.472 . S
C1356 C218 1.478 . S
C1381 C255 0.934 . S
C1386 C15 0.938 . S
C1411 C295 0.519 . S
C1416 C55 0.541 . S
C1441 C335 0.538 . S
C1446 C95 0.521 . S
C1471 C135 0.935 . S
C1476 C375 0.938 . S
C1501 C415 0.519 . S
C1506 C175 0.541 . S
C1531 C455 0.538 . S
C1536 C215 0.521 . S
