# Generated by pormake.
# Topology upd, (4)-cn, num edge types: 1
# Building blocks:
#     Node 0, Type 0, BuildingBlock: ESEHIV_clean_sbu_0, # of connection points: 4
#     Node 1, Type 0, BuildingBlock: ESEHIV_clean_sbu_0, # of connection points: 4
#     Node 2, Type 0, BuildingBlock: ESEHIV_clean_sbu_0, # of connection points: 4
#     Node 3, Type 0, BuildingBlock: ESEHIV_clean_sbu_0, # of connection points: 4
#     Node 4, Type 0, BuildingBlock: ESEHIV_clean_sbu_0, # of connection points: 4
#     Node 5, Type 0, BuildingBlock: ESEHIV_clean_sbu_0, # of connection points: 4
#     Node 6, Type 0, BuildingBlock: ESEHIV_clean_sbu_0, # of connection points: 4
#     Node 7, Type 0, BuildingBlock: ESEHIV_clean_sbu_0, # of connection points: 4
#     Node 8, Type 0, BuildingBlock: ESEHIV_clean_sbu_0, # of connection points: 4
#     Node 9, Type 0, BuildingBlock: ESEHIV_clean_sbu_0, # of connection points: 4
#     Node 10, Type 0, BuildingBlock: ESEHIV_clean_sbu_0, # of connection points: 4
#     Node 11, Type 0, BuildingBlock: ESEHIV_clean_sbu_0, # of connection points: 4
#     Node 12, Type 0, BuildingBlock: ESEHIV_clean_sbu_0, # of connection points: 4
#     Node 13, Type 0, BuildingBlock: ESEHIV_clean_sbu_0, # of connection points: 4
#     Node 14, Type 0, BuildingBlock: ESEHIV_clean_sbu_0, # of connection points: 4
#     Node 15, Type 0, BuildingBlock: ESEHIV_clean_sbu_0, # of connection points: 4
#     Node 16, Type 0, BuildingBlock: ESEHIV_clean_sbu_0, # of connection points: 4
#     Node 17, Type 0, BuildingBlock: ESEHIV_clean_sbu_0, # of connection points: 4
#     Node 18, Type 0, BuildingBlock: ESEHIV_clean_sbu_0, # of connection points: 4
#     Node 19, Type 0, BuildingBlock: ESEHIV_clean_sbu_0, # of connection points: 4
#     Node 20, Type 0, BuildingBlock: ESEHIV_clean_sbu_0, # of connection points: 4
#     Node 21, Type 0, BuildingBlock: ESEHIV_clean_sbu_0, # of connection points: 4
#     Node 22, Type 0, BuildingBlock: ESEHIV_clean_sbu_0, # of connection points: 4
#     Node 23, Type 0, BuildingBlock: ESEHIV_clean_sbu_0, # of connection points: 4
#     Node 24, Type 0, BuildingBlock: ESEHIV_clean_sbu_0, # of connection points: 4
#     Node 25, Type 0, BuildingBlock: ESEHIV_clean_sbu_0, # of connection points: 4
#     Node 26, Type 0, BuildingBlock: ESEHIV_clean_sbu_0, # of connection points: 4
#     Node 27, Type 0, BuildingBlock: ESEHIV_clean_sbu_0, # of connection points: 4
#     Node 28, Type 0, BuildingBlock: ESEHIV_clean_sbu_0, # of connection points: 4
#     Node 29, Type 0, BuildingBlock: ESEHIV_clean_sbu_0, # of connection points: 4
#     Node 30, Type 0, BuildingBlock: ESEHIV_clean_sbu_0, # of connection points: 4
#     Node 31, Type 0, BuildingBlock: ESEHIV_clean_sbu_0, # of connection points: 4
#     Edge 32, Type (0, 0), BuildingBlock: UVAHIK_clean_linker_0, # of connection points: 2
#     Edge 33, Type (0, 0), BuildingBlock: UVAHIK_clean_linker_0, # of connection points: 2
#     Edge 34, Type (0, 0), BuildingBlock: UVAHIK_clean_linker_0, # of connection points: 2
#     Edge 35, Type (0, 0), BuildingBlock: UVAHIK_clean_linker_0, # of connection points: 2
#     Edge 36, Type (0, 0), BuildingBlock: UVAHIK_clean_linker_0, # of connection points: 2
#     Edge 37, Type (0, 0), BuildingBlock: UVAHIK_clean_linker_0, # of connection points: 2
#     Edge 38, Type (0, 0), BuildingBlock: UVAHIK_clean_linker_0, # of connection points: 2
#     Edge 39, Type (0, 0), BuildingBlock: UVAHIK_clean_linker_0, # of connection points: 2
#     Edge 40, Type (0, 0), BuildingBlock: UVAHIK_clean_linker_0, # of connection points: 2
#     Edge 41, Type (0, 0), BuildingBlock: UVAHIK_clean_linker_0, # of connection points: 2
#     Edge 42, Type (0, 0), BuildingBlock: UVAHIK_clean_linker_0, # of connection points: 2
#     Edge 43, Type (0, 0), BuildingBlock: UVAHIK_clean_linker_0, # of connection points: 2
#     Edge 44, Type (0, 0), BuildingBlock: UVAHIK_clean_linker_0, # of connection points: 2
#     Edge 45, Type (0, 0), BuildingBlock: UVAHIK_clean_linker_0, # of connection points: 2
#     Edge 46, Type (0, 0), BuildingBlock: UVAHIK_clean_linker_0, # of connection points: 2
#     Edge 47, Type (0, 0), BuildingBlock: UVAHIK_clean_linker_0, # of connection points: 2
#     Edge 48, Type (0, 0), BuildingBlock: UVAHIK_clean_linker_0, # of connection points: 2
#     Edge 49, Type (0, 0), BuildingBlock: UVAHIK_clean_linker_0, # of connection points: 2
#     Edge 50, Type (0, 0), BuildingBlock: UVAHIK_clean_linker_0, # of connection points: 2
#     Edge 51, Type (0, 0), BuildingBlock: UVAHIK_clean_linker_0, # of connection points: 2
#     Edge 52, Type (0, 0), BuildingBlock: UVAHIK_clean_linker_0, # of connection points: 2
#     Edge 53, Type (0, 0), BuildingBlock: UVAHIK_clean_linker_0, # of connection points: 2
#     Edge 54, Type (0, 0), BuildingBlock: UVAHIK_clean_linker_0, # of connection points: 2
#     Edge 55, Type (0, 0), BuildingBlock: UVAHIK_clean_linker_0, # of connection points: 2
#     Edge 56, Type (0, 0), BuildingBlock: UVAHIK_clean_linker_0, # of connection points: 2
#     Edge 57, Type (0, 0), BuildingBlock: UVAHIK_clean_linker_0, # of connection points: 2
#     Edge 58, Type (0, 0), BuildingBlock: UVAHIK_clean_linker_0, # of connection points: 2
#     Edge 59, Type (0, 0), BuildingBlock: UVAHIK_clean_linker_0, # of connection points: 2
#     Edge 60, Type (0, 0), BuildingBlock: UVAHIK_clean_linker_0, # of connection points: 2
#     Edge 61, Type (0, 0), BuildingBlock: UVAHIK_clean_linker_0, # of connection points: 2
#     Edge 62, Type (0, 0), BuildingBlock: UVAHIK_clean_linker_0, # of connection points: 2
#     Edge 63, Type (0, 0), BuildingBlock: UVAHIK_clean_linker_0, # of connection points: 2
#     Edge 64, Type (0, 0), BuildingBlock: UVAHIK_clean_linker_0, # of connection points: 2
#     Edge 65, Type (0, 0), BuildingBlock: UVAHIK_clean_linker_0, # of connection points: 2
#     Edge 66, Type (0, 0), BuildingBlock: UVAHIK_clean_linker_0, # of connection points: 2
#     Edge 67, Type (0, 0), BuildingBlock: UVAHIK_clean_linker_0, # of connection points: 2
#     Edge 68, Type (0, 0), BuildingBlock: UVAHIK_clean_linker_0, # of connection points: 2
#     Edge 69, Type (0, 0), BuildingBlock: UVAHIK_clean_linker_0, # of connection points: 2
#     Edge 70, Type (0, 0), BuildingBlock: UVAHIK_clean_linker_0, # of connection points: 2
#     Edge 71, Type (0, 0), BuildingBlock: UVAHIK_clean_linker_0, # of connection points: 2
#     Edge 72, Type (0, 0), BuildingBlock: UVAHIK_clean_linker_0, # of connection points: 2
#     Edge 73, Type (0, 0), BuildingBlock: UVAHIK_clean_linker_0, # of connection points: 2
#     Edge 74, Type (0, 0), BuildingBlock: UVAHIK_clean_linker_0, # of connection points: 2
#     Edge 75, Type (0, 0), BuildingBlock: UVAHIK_clean_linker_0, # of connection points: 2
#     Edge 76, Type (0, 0), BuildingBlock: UVAHIK_clean_linker_0, # of connection points: 2
#     Edge 77, Type (0, 0), BuildingBlock: UVAHIK_clean_linker_0, # of connection points: 2
#     Edge 78, Type (0, 0), BuildingBlock: UVAHIK_clean_linker_0, # of connection points: 2
#     Edge 79, Type (0, 0), BuildingBlock: UVAHIK_clean_linker_0, # of connection points: 2
#     Edge 80, Type (0, 0), BuildingBlock: UVAHIK_clean_linker_0, # of connection points: 2
#     Edge 81, Type (0, 0), BuildingBlock: UVAHIK_clean_linker_0, # of connection points: 2
#     Edge 82, Type (0, 0), BuildingBlock: UVAHIK_clean_linker_0, # of connection points: 2
#     Edge 83, Type (0, 0), BuildingBlock: UVAHIK_clean_linker_0, # of connection points: 2
#     Edge 84, Type (0, 0), BuildingBlock: UVAHIK_clean_linker_0, # of connection points: 2
#     Edge 85, Type (0, 0), BuildingBlock: UVAHIK_clean_linker_0, # of connection points: 2
#     Edge 86, Type (0, 0), BuildingBlock: UVAHIK_clean_linker_0, # of connection points: 2
#     Edge 87, Type (0, 0), BuildingBlock: UVAHIK_clean_linker_0, # of connection points: 2
#     Edge 88, Type (0, 0), BuildingBlock: UVAHIK_clean_linker_0, # of connection points: 2
#     Edge 89, Type (0, 0), BuildingBlock: UVAHIK_clean_linker_0, # of connection points: 2
#     Edge 90, Type (0, 0), BuildingBlock: UVAHIK_clean_linker_0, # of connection points: 2
#     Edge 91, Type (0, 0), BuildingBlock: UVAHIK_clean_linker_0, # of connection points: 2
#     Edge 92, Type (0, 0), BuildingBlock: UVAHIK_clean_linker_0, # of connection points: 2
#     Edge 93, Type (0, 0), BuildingBlock: UVAHIK_clean_linker_0, # of connection points: 2
#     Edge 94, Type (0, 0), BuildingBlock: UVAHIK_clean_linker_0, # of connection points: 2
#     Edge 95, Type (0, 0), BuildingBlock: UVAHIK_clean_linker_0, # of connection points: 2
# Relax obj value: 0.044
# Max RMSD: 0.062
# Mean RMSD: 0.062
data_MOF--net-upd--node1-ESEHIV_clean_sbu_0--edge1-UVAHIK_clean_linker_0
_symmetry_space_group_name_H-M    P1
_symmetry_Int_Tables_number       1
_symmetry_cell_setting            triclinic
loop_
_symmetry_equiv_pos_as_xyz
'x, y, z'
_cell_length_a     51.228316
_cell_length_b     51.205252
_cell_length_c     115.21057
_cell_angle_alpha  90.038258
_cell_angle_beta   89.999496
_cell_angle_gamma 89.906602
loop_
_atom_site_label
_atom_site_type_symbol
_atom_site_fract_x
_atom_site_fract_y
_atom_site_fract_z
_atom_type_partial_charge
Cu0 Cu 0.12672 0.12775 0.31682 0.0
N1 N 0.16087 0.13282 0.31157 0.0
N2 N 0.19294 0.15122 0.30125 0.0
C3 C 0.16693 0.14931 0.3029 0.0
C4 C 0.2037 0.13519 0.30924 0.0
C5 C 0.18385 0.12381 0.31559 0.0
O6 O 0.10841 0.11108 0.30379 0.0
C7 C 0.12973 0.1738 0.32886 0.0
O8 O 0.15228 0.16281 0.33122 0.0
H9 H 0.15242 0.16051 0.29821 0.0
H10 H 0.18609 0.11057 0.32282 0.0
N11 N 0.12466 0.10656 0.32997 0.0
N12 N 0.10666 0.09089 0.34626 0.0
C13 C 0.10573 0.10946 0.33794 0.0
C14 C 0.13829 0.08537 0.33326 0.0
C15 C 0.12727 0.07568 0.34334 0.0
C16 C 0.09482 0.09033 0.30479 0.0
O17 O 0.08868 0.08195 0.3152 0.0
H18 H 0.09085 0.12437 0.33726 0.0
H19 H 0.15452 0.07707 0.32852 0.0
O20 O 0.11395 0.16194 0.32207 0.0
H21 H 0.22441 0.13206 0.3105 0.0
H22 H 0.1338 0.05855 0.348 0.0
Cu23 Cu 0.11528 0.85246 0.56388 0.0
N24 N 0.09458 0.85987 0.55093 0.0
N25 N 0.07115 0.88361 0.53838 0.0
C26 C 0.08253 0.88283 0.54895 0.0
C27 C 0.07608 0.86003 0.53357 0.0
C28 C 0.09067 0.84549 0.54132 0.0
O29 O 0.15166 0.85834 0.55945 0.0
C30 C 0.10896 0.874 0.58693 0.0
O31 O 0.13112 0.86258 0.58962 0.0
H32 H 0.08272 0.89888 0.55506 0.0
H33 H 0.09863 0.82618 0.53988 0.0
N34 N 0.1116 0.81759 0.56844 0.0
N35 N 0.11559 0.78175 0.57947 0.0
C36 C 0.12473 0.80596 0.57716 0.0
C37 C 0.09361 0.80011 0.56501 0.0
C38 C 0.09606 0.77799 0.57176 0.0
C39 C 0.15827 0.87787 0.55327 0.0
O40 O 0.14101 0.89637 0.55134 0.0
H41 H 0.13986 0.81565 0.58206 0.0
H42 H 0.07907 0.80357 0.55839 0.0
O43 O 0.10114 0.8737 0.57645 0.0
H44 H 0.07056 0.85412 0.52489 0.0
H45 H 0.08392 0.76077 0.57119 0.0
Cu46 Cu 0.39003 0.86096 0.81955 0.0
N47 N 0.37925 0.8317 0.81111 0.0
N48 N 0.35562 0.80508 0.79984 0.0
C49 C 0.35807 0.82947 0.80423 0.0
C50 C 0.37623 0.79162 0.80407 0.0
C51 C 0.39073 0.80807 0.811 0.0
O52 O 0.38777 0.89149 0.80941 0.0
C53 C 0.3551 0.84666 0.83773 0.0
O54 O 0.34692 0.82848 0.83057 0.0
H55 H 0.34436 0.84524 0.80278 0.0
H56 H 0.40829 0.80312 0.81573 0.0
N57 N 0.42397 0.8553 0.82494 0.0
N58 N 0.45508 0.84715 0.8381 0.0
C59 C 0.42925 0.84755 0.83585 0.0
C60 C 0.44731 0.85968 0.81997 0.0
C61 C 0.46659 0.85476 0.8281 0.0
C62 C 0.40179 0.91194 0.81025 0.0
O63 O 0.4184 0.914 0.81889 0.0
H64 H 0.41428 0.84338 0.84218 0.0
H65 H 0.45007 0.86673 0.81121 0.0
O66 O 0.37015 0.86449 0.83393 0.0
H67 H 0.38064 0.77135 0.80228 0.0
H68 H 0.48738 0.85706 0.8268 0.0
Cu69 Cu 0.39381 0.13057 0.07146 0.0
N70 N 0.41156 0.09996 0.06715 0.0
N71 N 0.43543 0.07145 0.05688 0.0
C72 C 0.42171 0.09407 0.05666 0.0
C73 C 0.43357 0.0628 0.06792 0.0
C74 C 0.41901 0.08041 0.07421 0.0
O75 O 0.36746 0.13922 0.05975 0.0
C76 C 0.44262 0.1537 0.0768 0.0
O77 O 0.45294 0.13216 0.07265 0.0
H78 H 0.42004 0.10676 0.04919 0.0
H79 H 0.41503 0.07945 0.08341 0.0
N80 N 0.37822 0.12633 0.08602 0.0
N81 N 0.37408 0.13556 0.10493 0.0
C82 C 0.37998 0.14478 0.0943 0.0
C83 C 0.37009 0.10465 0.09155 0.0
C84 C 0.36767 0.11027 0.10326 0.0
C85 C 0.35217 0.12101 0.05649 0.0
O86 O 0.35475 0.09785 0.06127 0.0
H87 H 0.38757 0.16409 0.09268 0.0
H88 H 0.36796 0.08568 0.08754 0.0
O89 O 0.41869 0.15861 0.07466 0.0
H90 H 0.4424 0.04518 0.0713 0.0
H91 H 0.36279 0.09653 0.11005 0.0
Cu92 Cu 0.13303 0.85164 0.20478 0.0
N93 N 0.16556 0.84708 0.21197 0.0
N94 N 0.19573 0.82956 0.22371 0.0
C95 C 0.17127 0.82762 0.21942 0.0
C96 C 0.2057 0.85137 0.21884 0.0
C97 C 0.18703 0.86216 0.21164 0.0
O98 O 0.1133 0.87597 0.21458 0.0
C99 C 0.13354 0.80113 0.19739 0.0
O100 O 0.15762 0.8086 0.19535 0.0
H101 H 0.15744 0.8126 0.2218 0.0
H102 H 0.18888 0.87996 0.20667 0.0
N103 N 0.13513 0.86445 0.18959 0.0
N104 N 0.12295 0.86775 0.17096 0.0
C105 C 0.11579 0.861 0.18183 0.0
C106 C 0.1554 0.87383 0.18346 0.0
C107 C 0.14787 0.87609 0.17197 0.0
C108 C 0.12071 0.89976 0.2143 0.0
O109 O 0.13918 0.9063 0.20695 0.0
H110 H 0.09706 0.85276 0.18414 0.0
H111 H 0.17464 0.87753 0.18692 0.0
O112 O 0.11788 0.81707 0.20233 0.0
H113 H 0.22511 0.85897 0.22032 0.0
H114 H 0.16026 0.8821 0.16486 0.0
Cu115 Cu 0.40581 0.88543 0.45452 0.0
N116 N 0.41278 0.9193 0.45978 0.0
N117 N 0.43247 0.94976 0.47057 0.0
C118 C 0.42909 0.924 0.46867 0.0
C119 C 0.41734 0.96182 0.4626 0.0
C120 C 0.40527 0.94293 0.4559 0.0
O121 O 0.38137 0.87074 0.46588 0.0
C122 C 0.45628 0.88266 0.4475 0.0
O123 O 0.44894 0.90573 0.44375 0.0
H124 H 0.43849 0.90862 0.47358 0.0
H125 H 0.39244 0.94625 0.4486 0.0
N126 N 0.39215 0.88398 0.43942 0.0
N127 N 0.38804 0.86962 0.42111 0.0
C128 C 0.39983 0.8662 0.43148 0.0
C129 C 0.37476 0.89929 0.43389 0.0
C130 C 0.37211 0.89041 0.42261 0.0
C131 C 0.36052 0.88413 0.46717 0.0
O132 O 0.35678 0.90415 0.46025 0.0
H133 H 0.41378 0.85088 0.43336 0.0
H134 H 0.36487 0.91586 0.4377 0.0
O135 O 0.43995 0.86859 0.45306 0.0
H136 H 0.41572 0.98274 0.46144 0.0
H137 H 0.35978 0.89895 0.41599 0.0
Cu138 Cu 0.39386 0.14461 0.70322 0.0
N139 N 0.36081 0.15754 0.70699 0.0
N140 N 0.32973 0.17784 0.71723 0.0
C141 C 0.35349 0.16635 0.71751 0.0
C142 C 0.32168 0.1757 0.70611 0.0
C143 C 0.34092 0.16325 0.69981 0.0
O144 O 0.40378 0.11918 0.71509 0.0
C145 C 0.41073 0.19733 0.70059 0.0
O146 O 0.38832 0.20394 0.70527 0.0
H147 H 0.36593 0.16527 0.72508 0.0
H148 H 0.34096 0.15986 0.69054 0.0
N149 N 0.39373 0.12953 0.68843 0.0
N150 N 0.40615 0.12614 0.66983 0.0
C151 C 0.41248 0.13457 0.68057 0.0
C152 C 0.37487 0.11695 0.68253 0.0
C153 C 0.38255 0.11472 0.67105 0.0
C154 C 0.38852 0.09979 0.71653 0.0
O155 O 0.36817 0.09759 0.70967 0.0
H156 H 0.43005 0.14519 0.68268 0.0
H157 H 0.35624 0.11124 0.68613 0.0
O158 O 0.41827 0.17363 0.70126 0.0
H159 H 0.30384 0.18385 0.7026 0.0
H160 H 0.37095 0.10674 0.66405 0.0
Cu161 Cu 0.1184 0.13377 0.95016 0.0
N162 N 0.10335 0.10186 0.95435 0.0
N163 N 0.0819 0.07221 0.96491 0.0
C164 C 0.09375 0.09577 0.96488 0.0
C165 C 0.08443 0.06308 0.95396 0.0
C166 C 0.09757 0.08144 0.94747 0.0
O167 O 0.14381 0.14349 0.96213 0.0
C168 C 0.06702 0.15294 0.94581 0.0
O169 O 0.05902 0.1308 0.9503 0.0
H170 H 0.09492 0.10874 0.97228 0.0
H171 H 0.10166 0.08041 0.93827 0.0
N172 N 0.13458 0.13116 0.93567 0.0
N173 N 0.13939 0.1416 0.91691 0.0
C174 C 0.13127 0.14954 0.92749 0.0
C175 C 0.1459 0.11086 0.93021 0.0
C176 C 0.14898 0.11729 0.91861 0.0
C177 C 0.15988 0.12572 0.96518 0.0
O178 O 0.15894 0.10308 0.95982 0.0
H179 H 0.12191 0.16805 0.92924 0.0
H180 H 0.15002 0.09215 0.93416 0.0
O181 O 0.09086 0.15953 0.94709 0.0
H182 H 0.07632 0.04498 0.95073 0.0
H183 H 0.15616 0.10443 0.91187 0.0
Cu184 Cu 0.88954 0.86038 0.70673 0.0
N185 N 0.85454 0.85282 0.70989 0.0
N186 N 0.82061 0.83681 0.71987 0.0
C187 C 0.84568 0.84492 0.72031 0.0
C188 C 0.8133 0.8404 0.7087 0.0
C189 C 0.83427 0.85026 0.70257 0.0
O190 O 0.90221 0.88234 0.7195 0.0
C191 C 0.89816 0.80499 0.70528 0.0
O192 O 0.87861 0.80235 0.71254 0.0
H193 H 0.85818 0.84323 0.72784 0.0
H194 H 0.83507 0.85409 0.69334 0.0
N195 N 0.89406 0.87851 0.69275 0.0
N196 N 0.91416 0.89019 0.6763 0.0
C197 C 0.9149 0.87486 0.68581 0.0
C198 C 0.87943 0.8968 0.68743 0.0
C199 C 0.89191 0.90419 0.67729 0.0
C200 C 0.88917 0.90341 0.72081 0.0
O201 O 0.86967 0.90792 0.71368 0.0
H202 H 0.93058 0.86141 0.68782 0.0
H203 H 0.86101 0.9042 0.69064 0.0
O204 O 0.90795 0.82757 0.70366 0.0
H205 H 0.79446 0.83545 0.70508 0.0
H206 H 0.88497 0.91842 0.67106 0.0
Cu207 Cu 0.91533 0.13879 0.45542 0.0
N208 N 0.94056 0.12958 0.46646 0.0
N209 N 0.96322 0.10569 0.47926 0.0
C210 C 0.94058 0.1083 0.47335 0.0
C211 C 0.97775 0.12653 0.47617 0.0
C212 C 0.96376 0.14117 0.46827 0.0
O213 O 0.88103 0.14 0.46271 0.0
C214 C 0.93081 0.0948 0.44128 0.0
O215 O 0.93885 0.08354 0.45086 0.0
H216 H 0.92473 0.09441 0.47363 0.0
H217 H 0.97048 0.15842 0.46376 0.0
N218 N 0.92242 0.17192 0.44944 0.0
N219 N 0.92793 0.20322 0.43612 0.0
C220 C 0.92459 0.17745 0.43806 0.0
C221 C 0.92451 0.19497 0.45496 0.0
C222 C 0.92787 0.21437 0.44675 0.0
C223 C 0.86845 0.12 0.46609 0.0
O224 O 0.87797 0.09665 0.46394 0.0
H225 H 0.92266 0.16292 0.4313 0.0
H226 H 0.92315 0.19754 0.46426 0.0
O227 O 0.91789 0.11603 0.44188 0.0
H228 H 0.99763 0.13016 0.4789 0.0
H229 H 0.92987 0.23505 0.44848 0.0
Cu230 Cu 0.60197 0.17028 0.21259 0.0
N231 N 0.60327 0.20116 0.22118 0.0
N232 N 0.61871 0.23197 0.23307 0.0
C233 C 0.61877 0.2063 0.23036 0.0
C234 C 0.60227 0.24329 0.22542 0.0
C235 C 0.59275 0.22423 0.21811 0.0
O236 O 0.60835 0.14083 0.22303 0.0
C237 C 0.64513 0.18998 0.19957 0.0
O238 O 0.65281 0.2005 0.20939 0.0
H239 H 0.63142 0.19191 0.23434 0.0
H240 H 0.58025 0.22717 0.21066 0.0
N241 N 0.56935 0.16791 0.20544 0.0
N242 N 0.53949 0.1711 0.19131 0.0
C243 C 0.56446 0.17564 0.19449 0.0
C244 C 0.54671 0.15816 0.20943 0.0
C245 C 0.52824 0.16004 0.20071 0.0
C246 C 0.6036 0.11699 0.22068 0.0
O247 O 0.59505 0.11083 0.21028 0.0
H248 H 0.57924 0.18382 0.18886 0.0
H249 H 0.54393 0.15004 0.21801 0.0
O250 O 0.62636 0.17369 0.19968 0.0
H251 H 0.59821 0.26401 0.22487 0.0
H252 H 0.50812 0.15375 0.20128 0.0
Cu253 Cu 0.62141 0.88512 0.9532 0.0
N254 N 0.60715 0.91786 0.95684 0.0
N255 N 0.58587 0.94928 0.96652 0.0
C256 C 0.59707 0.92539 0.96713 0.0
C257 C 0.58934 0.95712 0.95543 0.0
C258 C 0.60241 0.93773 0.9495 0.0
O259 O 0.64655 0.87501 0.96524 0.0
C260 C 0.56962 0.86695 0.94918 0.0
O261 O 0.56208 0.88959 0.95335 0.0
H262 H 0.5968 0.91296 0.97472 0.0
H263 H 0.60728 0.93775 0.94037 0.0
N264 N 0.63764 0.88621 0.93867 0.0
N265 N 0.64259 0.87513 0.91996 0.0
C266 C 0.6332 0.86809 0.93046 0.0
C267 C 0.6509 0.90538 0.93331 0.0
C268 C 0.65405 0.89857 0.92176 0.0
C269 C 0.66203 0.8926 0.96899 0.0
O270 O 0.66074 0.91606 0.96441 0.0
H271 H 0.6224 0.85042 0.93214 0.0
H272 H 0.65652 0.92363 0.93732 0.0
O273 O 0.59333 0.85991 0.95052 0.0
H274 H 0.58257 0.97539 0.95179 0.0
H275 H 0.6628 0.91064 0.91512 0.0
Cu276 Cu 0.88637 0.15681 0.81487 0.0
N277 N 0.87911 0.18277 0.80398 0.0
N278 N 0.85542 0.20827 0.79223 0.0
C279 C 0.85558 0.1869 0.7991 0.0
C280 C 0.87993 0.21792 0.79282 0.0
C281 C 0.8945 0.20212 0.80008 0.0
O282 O 0.88386 0.12332 0.80679 0.0
C283 C 0.86186 0.15246 0.83714 0.0
O284 O 0.87805 0.13305 0.83914 0.0
H285 H 0.83867 0.17494 0.80092 0.0
H286 H 0.9147 0.20484 0.80253 0.0
N287 N 0.91955 0.16189 0.82142 0.0
N288 N 0.9504 0.16946 0.83482 0.0
C289 C 0.92468 0.17054 0.83225 0.0
C290 C 0.94291 0.15562 0.81687 0.0
C291 C 0.96194 0.16019 0.82511 0.0
C292 C 0.89663 0.10265 0.80921 0.0
O293 O 0.91152 0.1022 0.81849 0.0
H294 H 0.9097 0.17653 0.83829 0.0
H295 H 0.94578 0.1475 0.80829 0.0
O296 O 0.86073 0.1622 0.82701 0.0
H297 H 0.88683 0.23519 0.78838 0.0
H298 H 0.98261 0.1565 0.82405 0.0
Cu299 Cu 0.63043 0.13101 0.5689 0.0
N300 N 0.62262 0.09629 0.56515 0.0
N301 N 0.60175 0.06434 0.55575 0.0
C302 C 0.60529 0.09031 0.55682 0.0
C303 C 0.61779 0.05344 0.5637 0.0
C304 C 0.6306 0.07327 0.56955 0.0
O305 O 0.65221 0.14357 0.55613 0.0
C306 C 0.58169 0.13488 0.57791 0.0
O307 O 0.59002 0.11253 0.58209 0.0
H308 H 0.59545 0.10493 0.55164 0.0
H309 H 0.6444 0.071 0.57657 0.0
N310 N 0.64773 0.13577 0.58305 0.0
N311 N 0.65793 0.15626 0.59964 0.0
C312 C 0.64368 0.15688 0.58979 0.0
C313 C 0.66533 0.12112 0.58879 0.0
C314 C 0.67169 0.13374 0.59903 0.0
C315 C 0.67231 0.12933 0.55441 0.0
O316 O 0.67702 0.11021 0.56172 0.0
H317 H 0.63062 0.17258 0.58736 0.0
H318 H 0.673 0.10264 0.58579 0.0
O319 O 0.59665 0.14801 0.57125 0.0
H320 H 0.61968 0.03272 0.56536 0.0
H321 H 0.68512 0.12666 0.60556 0.0
Cu322 Cu 0.63607 0.87371 0.32273 0.0
N323 N 0.66759 0.86055 0.31685 0.0
N324 N 0.69518 0.83906 0.3052 0.0
C325 C 0.67036 0.84722 0.30684 0.0
C326 C 0.70855 0.8478 0.31452 0.0
C327 C 0.69147 0.86095 0.3217 0.0
O328 O 0.62331 0.9001 0.31174 0.0
C329 C 0.62182 0.82288 0.32935 0.0
O330 O 0.6468 0.81854 0.32769 0.0
H331 H 0.65434 0.84332 0.30096 0.0
H332 H 0.69608 0.86953 0.33002 0.0
N333 N 0.6403 0.88849 0.33747 0.0
N334 N 0.63183 0.89288 0.35647 0.0
C335 C 0.62363 0.88332 0.34618 0.0
C336 C 0.65969 0.90246 0.34231 0.0
C337 C 0.6545 0.90521 0.35404 0.0
C338 C 0.63988 0.91737 0.30867 0.0
O339 O 0.66322 0.91672 0.31339 0.0
H340 H 0.60591 0.87231 0.34492 0.0
H341 H 0.67677 0.9094 0.33775 0.0
O342 O 0.61219 0.84466 0.32602 0.0
H343 H 0.72901 0.84417 0.31624 0.0
H344 H 0.66701 0.91469 0.36033 0.0
Cu345 Cu 0.90319 0.88806 0.07115 0.0
N346 N 0.91455 0.92129 0.06676 0.0
N347 N 0.9325 0.95262 0.05587 0.0
C348 C 0.92194 0.92845 0.05601 0.0
C349 C 0.93111 0.96114 0.06695 0.0
C350 C 0.92008 0.94175 0.07365 0.0
O351 O 0.87653 0.87655 0.06003 0.0
C352 C 0.9569 0.87266 0.07177 0.0
O353 O 0.9615 0.89363 0.06556 0.0
H354 H 0.92065 0.91561 0.04858 0.0
H355 H 0.91748 0.94205 0.08296 0.0
N356 N 0.88947 0.88911 0.08617 0.0
N357 N 0.88644 0.87862 0.10497 0.0
C358 C 0.89681 0.87242 0.09457 0.0
C359 C 0.87368 0.90656 0.09139 0.0
C360 C 0.87164 0.90003 0.103 0.0
C361 C 0.85823 0.89286 0.058 0.0
O362 O 0.85836 0.91515 0.06365 0.0
H363 H 0.90975 0.85608 0.09307 0.0
H364 H 0.86499 0.9233 0.08716 0.0
O365 O 0.93341 0.86494 0.07302 0.0
H366 H 0.9389 0.97942 0.07014 0.0
H367 H 0.86085 0.91073 0.10954 0.0
Cu368 Cu 0.63446 0.64768 0.82077 0.0
N369 N 0.669 0.65667 0.81718 0.0
N370 N 0.70084 0.67668 0.8073 0.0
C371 C 0.67534 0.67012 0.80755 0.0
C372 C 0.711 0.66684 0.8172 0.0
C373 C 0.6913 0.65445 0.82328 0.0
O374 O 0.62278 0.6248 0.80817 0.0
C375 C 0.62775 0.69481 0.83056 0.0
O376 O 0.64818 0.68528 0.83599 0.0
H377 H 0.66113 0.67601 0.80111 0.0
H378 H 0.69297 0.64533 0.8317 0.0
N379 N 0.63015 0.6305 0.83504 0.0
N380 N 0.61067 0.61981 0.85183 0.0
C381 C 0.60881 0.63328 0.84177 0.0
C382 C 0.64619 0.61454 0.84097 0.0
C383 C 0.63425 0.60791 0.85132 0.0
C384 C 0.63794 0.60535 0.80651 0.0
O385 O 0.65787 0.60232 0.81357 0.0
H386 H 0.59224 0.64508 0.83925 0.0
H387 H 0.66529 0.60837 0.83806 0.0
O388 O 0.61664 0.68108 0.82275 0.0
H389 H 0.73112 0.66875 0.81994 0.0
H390 H 0.64263 0.59571 0.85801 0.0
Cu391 Cu 0.62326 0.39276 0.074 0.0
N392 N 0.61985 0.42882 0.07135 0.0
N393 N 0.60526 0.46598 0.06349 0.0
C394 C 0.60725 0.43983 0.06231 0.0
C395 C 0.61714 0.47171 0.07362 0.0
C396 C 0.6263 0.44876 0.07842 0.0
O397 O 0.64051 0.3769 0.06057 0.0
C398 C 0.5751 0.39301 0.08456 0.0
O399 O 0.58525 0.41464 0.08866 0.0
H400 H 0.59868 0.42874 0.05528 0.0
H401 H 0.63596 0.44663 0.08671 0.0
N402 N 0.6435 0.38533 0.08707 0.0
N403 N 0.65755 0.36327 0.10265 0.0
C404 C 0.63888 0.36544 0.09442 0.0
C405 C 0.66589 0.39626 0.09073 0.0
C406 C 0.67455 0.38277 0.10038 0.0
C407 C 0.65906 0.38983 0.05594 0.0
O408 O 0.66526 0.41273 0.06026 0.0
H409 H 0.62213 0.35272 0.09365 0.0
H410 H 0.67553 0.41247 0.08652 0.0
O411 O 0.58843 0.37922 0.07748 0.0
H412 H 0.61872 0.49104 0.07736 0.0
H413 H 0.69239 0.38657 0.10511 0.0
Cu414 Cu 0.86169 0.3836 0.32497 0.0
N415 N 0.82697 0.37403 0.32221 0.0
N416 N 0.7916 0.35703 0.31375 0.0
C417 C 0.81628 0.36564 0.31218 0.0
C418 C 0.78654 0.36036 0.32514 0.0
C419 C 0.80834 0.37087 0.33032 0.0
O420 O 0.87394 0.40682 0.31266 0.0
C421 C 0.87378 0.33051 0.32978 0.0
O422 O 0.84892 0.32635 0.32776 0.0
H423 H 0.82686 0.3645 0.30406 0.0
H424 H 0.81084 0.37475 0.33948 0.0
N425 N 0.86409 0.39995 0.33943 0.0
N426 N 0.87672 0.40326 0.358 0.0
C427 C 0.88188 0.39301 0.34744 0.0
C428 C 0.84715 0.41566 0.345 0.0
C429 C 0.85493 0.4178 0.35645 0.0
C430 C 0.86126 0.42782 0.31074 0.0
O431 O 0.84073 0.43297 0.3172 0.0
H432 H 0.89774 0.37978 0.34556 0.0
H433 H 0.82953 0.42362 0.34121 0.0
O434 O 0.88355 0.35263 0.32716 0.0
H435 H 0.76858 0.355 0.32947 0.0
H436 H 0.84442 0.42809 0.3632 0.0
Cu437 Cu 0.89544 0.63035 0.57151 0.0
N438 N 0.91088 0.59851 0.56727 0.0
N439 N 0.93272 0.56891 0.5567 0.0
C440 C 0.92127 0.59275 0.55683 0.0
C441 C 0.929 0.55929 0.5675 0.0
C442 C 0.91564 0.57757 0.57398 0.0
O443 O 0.86854 0.6386 0.55998 0.0
C444 C 0.94625 0.65096 0.57504 0.0
O445 O 0.95466 0.62848 0.57104 0.0
H446 H 0.92141 0.60638 0.54966 0.0
H447 H 0.91042 0.57594 0.58304 0.0
N448 N 0.88098 0.62864 0.58644 0.0
N449 N 0.87658 0.64066 0.60511 0.0
C450 C 0.88463 0.6476 0.59437 0.0
C451 C 0.86962 0.60894 0.59224 0.0
C452 C 0.86686 0.61627 0.60374 0.0
C453 C 0.85216 0.62055 0.55772 0.0
O454 O 0.85379 0.59858 0.56358 0.0
H455 H 0.89391 0.66584 0.59223 0.0
H456 H 0.86483 0.59014 0.58853 0.0
O457 O 0.92233 0.65708 0.57354 0.0
H458 H 0.93568 0.5405 0.5706 0.0
H459 H 0.85928 0.60399 0.61058 0.0
Cu460 Cu 0.60023 0.36123 0.70848 0.0
N461 N 0.6086 0.33538 0.71943 0.0
N462 N 0.63175 0.31093 0.73189 0.0
C463 C 0.63059 0.3335 0.72582 0.0
C464 C 0.6093 0.29835 0.72933 0.0
C465 C 0.59516 0.31341 0.72165 0.0
O466 O 0.60615 0.3957 0.71522 0.0
C467 C 0.63948 0.341 0.69298 0.0
O468 O 0.65352 0.33669 0.70232 0.0
H469 H 0.64609 0.34775 0.72551 0.0
H470 H 0.57675 0.3083 0.71767 0.0
N471 N 0.56471 0.35989 0.70488 0.0
N472 N 0.52792 0.36388 0.69453 0.0
C473 C 0.5543 0.36467 0.69435 0.0
C474 C 0.54431 0.35596 0.712 0.0
C475 C 0.52159 0.35829 0.70564 0.0
C476 C 0.62796 0.40543 0.71823 0.0
O477 O 0.64961 0.39279 0.71578 0.0
H478 H 0.56597 0.36876 0.68675 0.0
H479 H 0.54586 0.35219 0.72121 0.0
O480 O 0.61805 0.3535 0.69388 0.0
H481 H 0.60361 0.27937 0.73258 0.0
H482 H 0.50196 0.35675 0.70903 0.0
Cu483 Cu 0.8883 0.37621 0.9524 0.0
N484 N 0.89595 0.41074 0.95649 0.0
N485 N 0.91439 0.44295 0.96668 0.0
C486 C 0.90919 0.41717 0.96615 0.0
C487 C 0.90392 0.45322 0.95694 0.0
C488 C 0.89242 0.43327 0.95067 0.0
O489 O 0.86623 0.36204 0.96479 0.0
C490 C 0.93561 0.37201 0.94208 0.0
O491 O 0.92629 0.39381 0.93775 0.0
H492 H 0.91584 0.40292 0.97243 0.0
H493 H 0.88292 0.43492 0.94232 0.0
N494 N 0.86992 0.37288 0.93847 0.0
N495 N 0.85569 0.35232 0.92257 0.0
C496 C 0.87324 0.35244 0.93128 0.0
C497 C 0.84958 0.38641 0.93411 0.0
C498 C 0.84064 0.37362 0.9243 0.0
C499 C 0.84619 0.37622 0.96677 0.0
O500 O 0.84324 0.39763 0.96064 0.0
H501 H 0.88749 0.33716 0.93276 0.0
H502 H 0.84127 0.40379 0.93796 0.0
O503 O 0.92191 0.35931 0.94941 0.0
H504 H 0.90475 0.47359 0.95446 0.0
H505 H 0.82415 0.37928 0.91899 0.0
Cu506 Cu 0.87192 0.64801 0.20184 0.0
N507 N 0.83791 0.65394 0.20716 0.0
N508 N 0.80663 0.67263 0.21791 0.0
C509 C 0.83253 0.66887 0.21647 0.0
C510 C 0.79526 0.6591 0.2092 0.0
C511 C 0.81462 0.64764 0.20256 0.0
O512 O 0.88811 0.62463 0.2132 0.0
C513 C 0.87427 0.69953 0.19522 0.0
O514 O 0.84993 0.69387 0.19272 0.0
H515 H 0.84756 0.67732 0.22188 0.0
H516 H 0.81188 0.63646 0.1947 0.0
N517 N 0.87337 0.63371 0.18686 0.0
N518 N 0.88774 0.62872 0.1686 0.0
C519 C 0.89096 0.6412 0.17884 0.0
C520 C 0.85834 0.61581 0.18154 0.0
C521 C 0.86716 0.61268 0.17029 0.0
C522 C 0.87761 0.60216 0.21421 0.0
O523 O 0.85843 0.59604 0.20716 0.0
H524 H 0.90554 0.656 0.18047 0.0
H525 H 0.84208 0.60577 0.1855 0.0
O526 O 0.8885 0.68215 0.20004 0.0
H527 H 0.77453 0.65845 0.20742 0.0
H528 H 0.85912 0.59941 0.16392 0.0
Cu529 Cu 0.60215 0.64393 0.46033 0.0
N530 N 0.57639 0.63953 0.47173 0.0
N531 N 0.55187 0.6209 0.48554 0.0
C532 C 0.57423 0.61962 0.47932 0.0
C533 C 0.53986 0.64292 0.48187 0.0
C534 C 0.555 0.65431 0.47337 0.0
O535 O 0.63645 0.64252 0.46777 0.0
C536 C 0.58051 0.6006 0.44761 0.0
O537 O 0.57043 0.5929 0.45749 0.0
H538 H 0.58801 0.60366 0.47971 0.0
H539 H 0.55034 0.67172 0.46847 0.0
N540 N 0.59806 0.67655 0.45327 0.0
N541 N 0.59212 0.70602 0.43914 0.0
C542 C 0.59337 0.6804 0.44189 0.0
C543 C 0.59979 0.70055 0.45796 0.0
C544 C 0.59618 0.71878 0.44926 0.0
C545 C 0.6465 0.62171 0.47186 0.0
O546 O 0.63449 0.59937 0.47019 0.0
H547 H 0.59161 0.66464 0.43569 0.0
H548 H 0.60361 0.70448 0.46702 0.0
O549 O 0.59684 0.61934 0.44756 0.0
H550 H 0.52117 0.65009 0.48488 0.0
H551 H 0.59648 0.73978 0.45033 0.0
Cu552 Cu 0.37573 0.35796 0.20504 0.0
N553 N 0.34247 0.35122 0.21113 0.0
N554 N 0.31189 0.33208 0.22207 0.0
C555 C 0.33771 0.33517 0.22014 0.0
C556 C 0.29997 0.34701 0.21398 0.0
C557 C 0.31886 0.35878 0.20725 0.0
O558 O 0.39269 0.38273 0.21563 0.0
C559 C 0.37871 0.30686 0.19809 0.0
O560 O 0.3541 0.31237 0.19605 0.0
H561 H 0.35299 0.325 0.2248 0.0
H562 H 0.31555 0.37134 0.19987 0.0
N563 N 0.37452 0.37183 0.19001 0.0
N564 N 0.3859 0.37659 0.17136 0.0
C565 C 0.39036 0.36375 0.18139 0.0
C566 C 0.35943 0.39057 0.18528 0.0
C567 C 0.36646 0.3936 0.17378 0.0
C568 C 0.37976 0.40366 0.21748 0.0
O569 O 0.35767 0.40693 0.21189 0.0
H570 H 0.4053 0.34903 0.18255 0.0
H571 H 0.34444 0.40136 0.18983 0.0
O572 O 0.39309 0.32422 0.20282 0.0
H573 H 0.27909 0.34908 0.2129 0.0
H574 H 0.35782 0.40715 0.16768 0.0
Cu575 Cu 0.41272 0.66262 0.96522 0.0
N576 N 0.44175 0.65967 0.97502 0.0
N577 N 0.47137 0.6427 0.98713 0.0
C578 C 0.4462 0.64229 0.98361 0.0
C579 C 0.48307 0.66116 0.98062 0.0
C580 C 0.46476 0.67164 0.97321 0.0
O581 O 0.38032 0.65436 0.97344 0.0
C582 C 0.43737 0.62545 0.95011 0.0
O583 O 0.44758 0.61558 0.95959 0.0
H584 H 0.43192 0.62831 0.98662 0.0
H585 H 0.46828 0.6859 0.96647 0.0
N586 N 0.40969 0.69718 0.96026 0.0
N587 N 0.40331 0.73101 0.9483 0.0
C588 C 0.40619 0.70486 0.94919 0.0
C589 C 0.40908 0.71919 0.96663 0.0
C590 C 0.40509 0.74012 0.95927 0.0
C591 C 0.37363 0.63237 0.97764 0.0
O592 O 0.38871 0.61194 0.97595 0.0
H593 H 0.40497 0.69137 0.94198 0.0
H594 H 0.41104 0.71989 0.97598 0.0
O595 O 0.41984 0.64305 0.95097 0.0
H596 H 0.50363 0.66598 0.9809 0.0
H597 H 0.40362 0.76042 0.96182 0.0
Cu598 Cu 0.11609 0.65037 0.70676 0.0
N599 N 0.12765 0.67964 0.71499 0.0
N600 N 0.15156 0.70609 0.72622 0.0
C601 C 0.1486 0.68158 0.72202 0.0
C602 C 0.1315 0.71991 0.7217 0.0
C603 C 0.11684 0.70357 0.7148 0.0
O604 O 0.11491 0.62055 0.7173 0.0
C605 C 0.15335 0.66124 0.68899 0.0
O606 O 0.16269 0.67881 0.69617 0.0
H607 H 0.16176 0.66549 0.72373 0.0
H608 H 0.0996 0.7088 0.7099 0.0
N609 N 0.08278 0.65713 0.70096 0.0
N610 N 0.05246 0.66603 0.68753 0.0
C611 C 0.07811 0.66625 0.6902 0.0
C612 C 0.05926 0.6511 0.70538 0.0
C613 C 0.04047 0.65657 0.6971 0.0
C614 C 0.12487 0.59813 0.71543 0.0
O615 O 0.13704 0.59372 0.70558 0.0
H616 H 0.09346 0.67157 0.68422 0.0
H617 H 0.05611 0.64236 0.7138 0.0
O618 O 0.13648 0.64497 0.69265 0.0
H619 H 0.12753 0.74036 0.72329 0.0
H620 H 0.01972 0.65318 0.69797 0.0
Cu621 Cu 0.10979 0.38352 0.45186 0.0
N622 N 0.10333 0.4184 0.4559 0.0
N623 N 0.08653 0.45132 0.46627 0.0
C624 C 0.09135 0.42543 0.46581 0.0
C625 C 0.09596 0.46103 0.45621 0.0
C626 C 0.10642 0.44065 0.44983 0.0
O627 O 0.13388 0.37027 0.4637 0.0
C628 C 0.05974 0.37971 0.44469 0.0
O629 O 0.06775 0.4012 0.43964 0.0
H630 H 0.0852 0.41152 0.47233 0.0
H631 H 0.1148 0.44186 0.44124 0.0
N632 N 0.1237 0.37952 0.43688 0.0
N633 N 0.12834 0.36307 0.41894 0.0
C634 C 0.11598 0.36106 0.42927 0.0
C635 C 0.14165 0.39378 0.4312 0.0
C636 C 0.14461 0.38364 0.42016 0.0
C637 C 0.15425 0.38422 0.46514 0.0
O638 O 0.15796 0.40403 0.45809 0.0
H639 H 0.10157 0.34635 0.43132 0.0
H640 H 0.15163 0.41056 0.43476 0.0
O641 O 0.07555 0.36698 0.45111 0.0
H642 H 0.09503 0.48129 0.45358 0.0
H643 H 0.15736 0.39122 0.41348 0.0
Cu644 Cu 0.38513 0.63357 0.32153 0.0
N645 N 0.35131 0.63835 0.31572 0.0
N646 N 0.31923 0.65628 0.30519 0.0
C647 C 0.3442 0.65834 0.30882 0.0
C648 C 0.31033 0.63389 0.30996 0.0
C649 C 0.3302 0.62285 0.31643 0.0
O650 O 0.40338 0.61209 0.30996 0.0
C651 C 0.38372 0.68186 0.33143 0.0
O652 O 0.36071 0.67225 0.33407 0.0
H653 H 0.35747 0.6737 0.30624 0.0
H654 H 0.32944 0.60455 0.3211 0.0
N655 N 0.38629 0.61634 0.33582 0.0
N656 N 0.4044 0.60224 0.35235 0.0
C657 C 0.40863 0.61238 0.3417 0.0
C658 C 0.36708 0.60845 0.34295 0.0
C659 C 0.37822 0.59956 0.35315 0.0
C660 C 0.39711 0.58795 0.31011 0.0
O661 O 0.38088 0.57992 0.31817 0.0
H662 H 0.42759 0.61747 0.33826 0.0
H663 H 0.34645 0.61 0.3411 0.0
O664 O 0.39916 0.66817 0.32518 0.0
H665 H 0.29093 0.62596 0.30883 0.0
H666 H 0.36775 0.59282 0.36073 0.0
Cu667 Cu 0.11178 0.61343 0.07085 0.0
N668 N 0.09857 0.58085 0.0664 0.0
N669 N 0.07817 0.55058 0.0557 0.0
C670 C 0.08952 0.57441 0.0558 0.0
C671 C 0.0809 0.54151 0.06666 0.0
C672 C 0.09339 0.56021 0.07322 0.0
O673 O 0.13869 0.62391 0.05964 0.0
C674 C 0.0589 0.63243 0.07097 0.0
O675 O 0.05355 0.61387 0.06349 0.0
H676 H 0.08965 0.58784 0.04855 0.0
H677 H 0.09743 0.55925 0.08242 0.0
N678 N 0.12619 0.61156 0.08575 0.0
N679 N 0.13111 0.62226 0.10448 0.0
C680 C 0.12116 0.62928 0.09409 0.0
C681 C 0.14014 0.59264 0.09097 0.0
C682 C 0.1433 0.59924 0.10253 0.0
C683 C 0.15628 0.6069 0.05748 0.0
O684 O 0.15518 0.58442 0.06295 0.0
H685 H 0.11011 0.64693 0.09254 0.0
H686 H 0.14672 0.57489 0.08679 0.0
O687 O 0.08269 0.63776 0.07319 0.0
H688 H 0.07373 0.52301 0.06986 0.0
H689 H 0.15297 0.5875 0.10905 0.0
Cu690 Cu 0.13667 0.35835 0.81903 0.0
N691 N 0.17087 0.34825 0.81563 0.0
N692 N 0.20371 0.33067 0.80548 0.0
C693 C 0.17992 0.34206 0.80501 0.0
C694 C 0.21011 0.33041 0.81686 0.0
C695 C 0.18977 0.34118 0.82309 0.0
O696 O 0.12546 0.38379 0.80739 0.0
C697 C 0.12284 0.30432 0.81744 0.0
O698 O 0.14233 0.30174 0.81014 0.0
H699 H 0.16844 0.34433 0.79719 0.0
H700 H 0.18815 0.3422 0.83244 0.0
N701 N 0.13486 0.37239 0.83399 0.0
N702 N 0.12136 0.37609 0.85244 0.0
C703 C 0.11641 0.366 0.84182 0.0
C704 C 0.15218 0.38716 0.8398 0.0
C705 C 0.14385 0.38959 0.85116 0.0
C706 C 0.13985 0.40387 0.8061 0.0
O707 O 0.16034 0.40648 0.81286 0.0
H708 H 0.0999 0.35371 0.83975 0.0
H709 H 0.17011 0.39472 0.83617 0.0
O710 O 0.11508 0.32714 0.82019 0.0
H711 H 0.22735 0.32134 0.8205 0.0
H712 H 0.15416 0.39967 0.85802 0.0
Cu713 Cu 0.39011 0.36945 0.5694 0.0
N714 N 0.41678 0.38029 0.55946 0.0
N715 N 0.44336 0.40565 0.54899 0.0
C716 C 0.42234 0.40485 0.55608 0.0
C717 C 0.45131 0.38061 0.54793 0.0
C718 C 0.43487 0.36504 0.55438 0.0
O719 O 0.35721 0.36735 0.56084 0.0
C720 C 0.37559 0.38655 0.59153 0.0
O721 O 0.35741 0.36867 0.5903 0.0
H722 H 0.41147 0.42183 0.55892 0.0
H723 H 0.43602 0.34405 0.55532 0.0
N724 N 0.39864 0.33677 0.57558 0.0
N725 N 0.41016 0.30735 0.58904 0.0
C726 C 0.40963 0.33285 0.58606 0.0
C727 C 0.39237 0.3129 0.57163 0.0
C728 C 0.39946 0.2947 0.5799 0.0
C729 C 0.348 0.38705 0.55547 0.0
O730 O 0.36007 0.40957 0.55641 0.0
H731 H 0.41576 0.34863 0.59167 0.0
H732 H 0.38239 0.30911 0.56353 0.0
O733 O 0.38928 0.39262 0.58272 0.0
H734 H 0.46761 0.37396 0.54272 0.0
H735 H 0.39627 0.27386 0.57932 0.0
C736 C 0.1447 0.34402 0.4005 0.0
C737 C 0.12471 0.34677 0.40878 0.0
C738 C 0.1414 0.3279 0.39078 0.0
C739 C 0.10222 0.272 0.37993 0.0
H740 H 0.13352 0.29091 0.35048 0.0
C741 C 0.09856 0.20264 0.33996 0.0
C742 C 0.12317 0.19848 0.3349 0.0
C743 C 0.09477 0.22339 0.3478 0.0
C744 C 0.12464 0.28532 0.35864 0.0
H745 H 0.08517 0.33509 0.41305 0.0
H746 H 0.07942 0.30705 0.39614 0.0
H747 H 0.13492 0.32161 0.36665 0.0
H748 H 0.16257 0.21341 0.33354 0.0
H749 H 0.15592 0.24959 0.34688 0.0
H750 H 0.09239 0.23548 0.37193 0.0
C751 C 0.09787 0.31703 0.39726 0.0
C752 C 0.12556 0.30289 0.36795 0.0
C753 C 0.10119 0.33313 0.40699 0.0
C754 C 0.14335 0.21624 0.33727 0.0
C755 C 0.1395 0.23706 0.34491 0.0
C756 C 0.10124 0.25443 0.37059 0.0
C757 C 0.11797 0.31409 0.38903 0.0
C758 C 0.11489 0.29627 0.37881 0.0
C759 C 0.11542 0.24052 0.35055 0.0
C760 C 0.11297 0.26062 0.3599 0.0
H761 H 0.16318 0.35389 0.40163 0.0
H762 H 0.15752 0.32581 0.38477 0.0
H763 H 0.09398 0.26606 0.38816 0.0
H764 H 0.08279 0.18901 0.33842 0.0
H765 H 0.07592 0.22562 0.35195 0.0
C766 C 0.09863 0.88282 0.60793 0.0
C767 C 0.0908 0.88273 0.59624 0.0
C768 C 0.08046 0.88738 0.61681 0.0
C769 C 0.01168 0.90954 0.62253 0.0
H770 H 0.01954 0.86638 0.64992 0.0
C771 C 0.94754 0.86857 0.66413 0.0
C772 C 0.93337 0.89111 0.66713 0.0
C773 C 0.96691 0.86945 0.65559 0.0
C774 C 0.01682 0.87842 0.64229 0.0
H775 H 0.05775 0.88846 0.58473 0.0
H776 H 0.02615 0.89569 0.6001 0.0
H777 H 0.0528 0.86524 0.63496 0.0
H778 H 0.92837 0.93225 0.66345 0.0
H779 H 0.96262 0.93405 0.64868 0.0
H780 H 0.975 0.92169 0.62964 0.0
C781 C 0.04637 0.89274 0.60249 0.0
C782 C 0.03625 0.87813 0.63376 0.0
C783 C 0.06457 0.88845 0.59363 0.0
C784 C 0.93881 0.91452 0.66125 0.0
C785 C 0.95844 0.9155 0.65277 0.0
C786 C 0.9921 0.90965 0.63104 0.0
C787 C 0.0539 0.89171 0.61423 0.0
C788 C 0.03391 0.89351 0.62369 0.0
C789 C 0.97292 0.89299 0.64987 0.0
C790 C 0.99424 0.89386 0.64099 0.0
H791 H 0.11869 0.87865 0.61027 0.0
H792 H 0.08721 0.88705 0.62571 0.0
H793 H 0.00927 0.92197 0.61501 0.0
H794 H 0.94348 0.85011 0.66833 0.0
H795 H 0.97702 0.85153 0.65341 0.0
C796 C 0.40672 0.73622 0.92701 0.0
C797 C 0.39824 0.74569 0.93783 0.0
C798 C 0.40072 0.74962 0.91678 0.0
C799 C 0.37848 0.81355 0.90514 0.0
H800 H 0.3595 0.77134 0.87851 0.0
C801 C 0.33712 0.82191 0.85466 0.0
C802 C 0.35331 0.84187 0.85042 0.0
C803 C 0.33974 0.81294 0.86606 0.0
C804 C 0.36436 0.78353 0.88588 0.0
H805 H 0.37709 0.77699 0.94634 0.0
H806 H 0.36643 0.80031 0.92847 0.0
H807 H 0.37032 0.75023 0.89673 0.0
H808 H 0.38354 0.86951 0.8552 0.0
H809 H 0.38858 0.85345 0.87495 0.0
H810 H 0.37208 0.84691 0.89425 0.0
C811 C 0.37802 0.78265 0.92792 0.0
C812 C 0.37102 0.77135 0.89631 0.0
C813 C 0.38412 0.76927 0.93818 0.0
C814 C 0.37077 0.85404 0.85814 0.0
C815 C 0.37364 0.84484 0.86952 0.0
C816 C 0.37175 0.82579 0.89467 0.0
C817 C 0.38596 0.77281 0.91707 0.0
C818 C 0.37837 0.78614 0.90606 0.0
C819 C 0.35882 0.82351 0.87349 0.0
C820 C 0.36467 0.81092 0.88488 0.0
H821 H 0.41809 0.71845 0.92643 0.0
H822 H 0.40771 0.74176 0.90862 0.0
H823 H 0.38421 0.82556 0.91244 0.0
H824 H 0.32325 0.81229 0.84899 0.0
H825 H 0.32744 0.79701 0.86891 0.0
C826 C 0.47997 0.15748 0.09071 0.0
C827 C 0.45552 0.16657 0.08686 0.0
C828 C 0.48946 0.16437 0.10166 0.0
C829 C 0.4646 0.18234 0.13043 0.0
H830 H 0.53811 0.18907 0.13776 0.0
C831 C 0.53869 0.19477 0.17255 0.0
C832 C 0.52804 0.17585 0.18003 0.0
C833 C 0.52888 0.19817 0.16132 0.0
C834 C 0.51745 0.18759 0.1359 0.0
H835 H 0.42334 0.19249 0.09108 0.0
H836 H 0.43975 0.20421 0.11029 0.0
H837 H 0.52411 0.18901 0.11756 0.0
H838 H 0.49812 0.14614 0.18154 0.0
H839 H 0.48107 0.15197 0.16197 0.0
H840 H 0.45795 0.18065 0.14878 0.0
C841 C 0.45129 0.19127 0.10489 0.0
C842 C 0.50945 0.18731 0.12429 0.0
C843 C 0.44192 0.18459 0.09385 0.0
C844 C 0.5067 0.16103 0.17609 0.0
C845 C 0.49688 0.16442 0.16484 0.0
C846 C 0.47259 0.18257 0.14205 0.0
C847 C 0.47478 0.18054 0.10908 0.0
C848 C 0.48298 0.1842 0.12139 0.0
C849 C 0.50812 0.18274 0.15724 0.0
C850 C 0.49919 0.18475 0.14494 0.0
H851 H 0.49113 0.14372 0.08556 0.0
H852 H 0.50758 0.15566 0.10459 0.0
H853 H 0.44412 0.17963 0.1285 0.0
H854 H 0.55473 0.20697 0.17534 0.0
H855 H 0.53769 0.21282 0.1558 0.0
C856 C 0.10379 0.77612 0.18427 0.0
C857 C 0.12489 0.77646 0.19205 0.0
C858 C 0.10101 0.75542 0.17636 0.0
C859 C 0.14396 0.70859 0.16139 0.0
H860 H 0.07987 0.68075 0.14856 0.0
C861 C 0.14617 0.63258 0.12444 0.0
C862 C 0.12817 0.63609 0.11536 0.0
C863 C 0.14384 0.64684 0.13477 0.0
C864 C 0.09795 0.68847 0.152 0.0
H865 H 0.15818 0.75473 0.19841 0.0
H866 H 0.15271 0.7182 0.18507 0.0
H867 H 0.07804 0.7102 0.16528 0.0
H868 H 0.09275 0.65658 0.11038 0.0
H869 H 0.0892 0.68188 0.12814 0.0
H870 H 0.16391 0.68765 0.14802 0.0
C871 C 0.13875 0.7341 0.18475 0.0
C872 C 0.09688 0.70531 0.1616 0.0
C873 C 0.14169 0.75483 0.19251 0.0
C874 C 0.10735 0.6537 0.11704 0.0
C875 C 0.10505 0.66798 0.12734 0.0
C876 C 0.14503 0.69189 0.15181 0.0
C877 C 0.11923 0.73475 0.17618 0.0
C878 C 0.1199 0.71564 0.1664 0.0
C879 C 0.12344 0.665 0.1363 0.0
C880 C 0.12207 0.68168 0.14693 0.0
H881 H 0.09091 0.79285 0.18359 0.0
H882 H 0.08579 0.75661 0.16986 0.0
H883 H 0.16208 0.71666 0.16463 0.0
H884 H 0.16243 0.61924 0.12348 0.0
H885 H 0.15815 0.64371 0.14154 0.0
C886 C 0.48327 0.85363 0.43507 0.0
C887 C 0.48188 0.87311 0.44361 0.0
C888 C 0.50531 0.85177 0.42789 0.0
C889 C 0.55419 0.89701 0.41619 0.0
H890 H 0.57974 0.83581 0.4 0.0
C891 C 0.62578 0.90468 0.37728 0.0
C892 C 0.61951 0.88893 0.36766 0.0
C893 C 0.61326 0.90097 0.38799 0.0
C894 C 0.57273 0.85309 0.40443 0.0
H895 H 0.50293 0.90429 0.4521 0.0
H896 H 0.54185 0.90026 0.44004 0.0
H897 H 0.55102 0.83051 0.41677 0.0
H898 H 0.59544 0.85627 0.3621 0.0
H899 H 0.57293 0.85105 0.38034 0.0
H900 H 0.57508 0.91959 0.40364 0.0
C901 C 0.52583 0.88686 0.4386 0.0
C902 C 0.55632 0.85005 0.41406 0.0
C903 C 0.50375 0.88889 0.44565 0.0
C904 C 0.60068 0.86919 0.36913 0.0
C905 C 0.58806 0.8657 0.37974 0.0
C906 C 0.57055 0.90003 0.40657 0.0
C907 C 0.52626 0.86935 0.4292 0.0
C908 C 0.54643 0.87201 0.41993 0.0
C909 C 0.59417 0.88145 0.38932 0.0
C910 C 0.57955 0.87813 0.40041 0.0
H911 H 0.46636 0.84169 0.43315 0.0
H912 H 0.50487 0.83812 0.42071 0.0
H913 H 0.54659 0.91443 0.42032 0.0
H914 H 0.64003 0.92014 0.37653 0.0
H915 H 0.61848 0.91344 0.39522 0.0
C916 C 0.40923 0.23787 0.68845 0.0
C917 C 0.422 0.21449 0.69147 0.0
C918 C 0.41494 0.25052 0.678 0.0
C919 C 0.43381 0.2771 0.65585 0.0
H920 H 0.43586 0.22737 0.63045 0.0
C921 C 0.43368 0.3107 0.60784 0.0
C922 C 0.41734 0.29668 0.60023 0.0
C923 C 0.439 0.30135 0.61901 0.0
C924 C 0.43527 0.24157 0.63742 0.0
H925 H 0.45311 0.18795 0.68651 0.0
H926 H 0.46329 0.21026 0.66834 0.0
H927 H 0.43749 0.21185 0.65038 0.0
H928 H 0.39407 0.2615 0.59856 0.0
H929 H 0.40331 0.24529 0.61792 0.0
H930 H 0.42992 0.30672 0.64288 0.0
C931 C 0.44827 0.21832 0.67392 0.0
C932 C 0.43671 0.23266 0.64887 0.0
C933 C 0.44255 0.20564 0.68438 0.0
C934 C 0.40703 0.27271 0.60404 0.0
C935 C 0.41238 0.26336 0.61519 0.0
C936 C 0.43228 0.28603 0.64438 0.0
C937 C 0.43365 0.24018 0.67035 0.0
C938 C 0.43559 0.25024 0.65824 0.0
C939 C 0.42822 0.27767 0.62288 0.0
C940 C 0.43246 0.26835 0.63502 0.0
H941 H 0.39346 0.24546 0.69374 0.0
H942 H 0.40332 0.26733 0.67557 0.0
H943 H 0.43301 0.29121 0.66285 0.0
H944 H 0.44234 0.32901 0.6052 0.0
H945 H 0.45158 0.31274 0.62462 0.0
C946 C 0.06146 0.18489 0.92935 0.0
C947 C 0.05103 0.16524 0.9365 0.0
C948 C 0.0491 0.19171 0.91891 0.0
C949 C 0.98797 0.18311 0.90154 0.0
H950 H 0.0354 0.18468 0.87533 0.0
C951 C 0.98595 0.16214 0.84911 0.0
C952 C 0.96237 0.17441 0.846 0.0
C953 C 0.99662 0.1655 0.86019 0.0
C954 C 0.02183 0.18423 0.88254 0.0
H955 H 0.01797 0.13928 0.93878 0.0
H956 H 0.99664 0.15105 0.92072 0.0
H957 H 0.0528 0.18332 0.89498 0.0
H958 H 0.93216 0.20078 0.85214 0.0
H959 H 0.95079 0.20669 0.87142 0.0
H960 H 0.95696 0.18258 0.88909 0.0
C961 C 0.01441 0.16118 0.92308 0.0
C962 C 0.03185 0.18389 0.89384 0.0
C963 C 0.02675 0.15435 0.93348 0.0
C964 C 0.9501 0.19066 0.85424 0.0
C965 C 0.9608 0.19405 0.86533 0.0
C966 C 0.97793 0.18339 0.89023 0.0
C967 C 0.02593 0.17918 0.91543 0.0
C968 C 0.01508 0.18286 0.9035 0.0
C969 C 0.98408 0.18129 0.86851 0.0
C970 C 0.99473 0.18345 0.88056 0.0
H971 H 0.07993 0.19397 0.93146 0.0
H972 H 0.05822 0.20611 0.91336 0.0
H973 H 0.97444 0.18256 0.90877 0.0
H974 H 0.99581 0.14919 0.84312 0.0
H975 H 0.01432 0.15498 0.86235 0.0
C976 C 0.89418 0.679 0.61591 0.0
C977 C 0.88011 0.65533 0.61582 0.0
C978 C 0.89828 0.69282 0.62621 0.0
C979 C 0.87296 0.70103 0.65609 0.0
H980 H 0.93919 0.73586 0.66109 0.0
C981 C 0.89168 0.75919 0.69809 0.0
C982 C 0.9034 0.78382 0.69674 0.0
C983 C 0.89177 0.74105 0.68899 0.0
C984 C 0.92051 0.72643 0.65982 0.0
H985 H 0.85907 0.62823 0.6269 0.0
H986 H 0.86655 0.65217 0.64482 0.0
H987 H 0.93264 0.70975 0.64366 0.0
H988 H 0.92579 0.808 0.68492 0.0
H989 H 0.92571 0.77662 0.66907 0.0
H990 H 0.86045 0.71842 0.67203 0.0
C991 C 0.87426 0.66005 0.6368 0.0
C992 C 0.91677 0.71134 0.64982 0.0
C993 C 0.87011 0.64616 0.62646 0.0
C994 C 0.91666 0.7892 0.68632 0.0
C995 C 0.91662 0.77111 0.67719 0.0
C996 C 0.87663 0.71625 0.66606 0.0
C997 C 0.8885 0.68353 0.63682 0.0
C998 C 0.89288 0.69858 0.64776 0.0
C999 C 0.90346 0.7471 0.67827 0.0
C1000 C 0.90038 0.72936 0.66803 0.0
H1001 H 0.90229 0.68714 0.60807 0.0
H1002 H 0.90894 0.71105 0.62581 0.0
H1003 H 0.85416 0.69189 0.65474 0.0
H1004 H 0.88142 0.7543 0.70601 0.0
H1005 H 0.88201 0.72253 0.69026 0.0
C1006 C 0.08662 0.06361 0.36178 0.0
C1007 C 0.0882 0.08739 0.35566 0.0
C1008 C 0.06786 0.06008 0.3705 0.0
C1009 C 1.0038 0.08385 0.38005 0.0
H1010 H 0.02413 0.06111 0.41082 0.0
C1011 C 0.94028 0.1032 0.42028 0.0
C1012 C 0.94228 0.08674 0.43 0.0
C1013 C 0.95557 0.09876 0.41043 0.0
C1014 C 0.01788 0.0669 0.40222 0.0
H1015 H 0.0716 0.12645 0.35449 0.0
H1016 H 0.03875 0.11988 0.3693 0.0
H1017 H 0.05645 0.06193 0.39529 0.0
H1018 H 0.96029 0.05135 0.43656 0.0
H1019 H 0.98624 0.04303 0.41921 0.0
H1020 H 0.9653 0.08883 0.38686 0.0
C1021 C 0.05185 0.10391 0.36723 0.0
C1022 C 0.03651 0.06748 0.39334 0.0
C1023 C 0.07077 0.1076 0.35868 0.0
C1024 C 0.95843 0.06457 0.42927 0.0
C1025 C 0.97355 0.05995 0.41935 0.0
C1026 C 0.9851 0.08294 0.38887 0.0
C1027 C 0.05006 0.08009 0.37318 0.0
C1028 C 0.02979 0.07659 0.38225 0.0
C1029 C 0.97303 0.07752 0.40996 0.0
C1030 C 0.99201 0.0751 0.40017 0.0
H1031 H 0.09949 0.0475 0.35974 0.0
H1032 H 0.0669 0.04151 0.37498 0.0
H1033 H 0.99802 0.09059 0.37151 0.0
H1034 H 0.92804 0.12045 0.42049 0.0
H1035 H 0.9547 0.11291 0.40346 0.0
C1036 C 0.6736 0.3483 0.12188 0.0
C1037 C 0.65925 0.34367 0.11167 0.0
C1038 C 0.67473 0.32948 0.13069 0.0
C1039 C 0.6388 0.27238 0.14202 0.0
H1040 H 0.70244 0.25925 0.15929 0.0
C1041 C 0.64141 0.1944 0.17791 0.0
C1042 C 0.65325 0.20197 0.1884 0.0
C1043 C 0.64502 0.20911 0.1678 0.0
C1044 C 0.68446 0.26278 0.1546 0.0
H1045 H 0.63563 0.31496 0.10264 0.0
H1046 H 0.63748 0.2824 0.11795 0.0
H1047 H 0.70271 0.29053 0.14329 0.0
H1048 H 0.67959 0.23005 0.19624 0.0
H1049 H 0.68569 0.25571 0.1787 0.0
H1050 H 0.62036 0.24515 0.15342 0.0
C1051 C 0.6475 0.30078 0.11924 0.0
C1052 C 0.68461 0.28076 0.14543 0.0
C1053 C 0.6464 0.31955 0.11045 0.0
C1054 C 0.67014 0.22361 0.18833 0.0
C1055 C 0.67371 0.23834 0.17823 0.0
C1056 C 0.63863 0.25449 0.15119 0.0
C1057 C 0.66152 0.30555 0.12952 0.0
C1058 C 0.66173 0.28589 0.13907 0.0
C1059 C 0.66054 0.23178 0.16792 0.0
C1060 C 0.6614 0.24954 0.15765 0.0
H1061 H 0.68353 0.3667 0.12319 0.0
H1062 H 0.68545 0.33395 0.13854 0.0
H1063 H 0.62071 0.27614 0.13745 0.0
H1064 H 0.62836 0.17779 0.17761 0.0
H1065 H 0.63503 0.20312 0.15996 0.0
C1066 C 0.52941 0.86561 0.93683 0.0
C1067 C 0.55346 0.8544 0.94001 0.0
C1068 C 0.51712 0.85851 0.92646 0.0
C1069 C 0.49087 0.83616 0.90497 0.0
H1070 H 0.53899 0.83283 0.87905 0.0
C1071 C 0.45432 0.82685 0.85762 0.0
C1072 C 0.46706 0.84232 0.84926 0.0
C1073 C 0.46468 0.82395 0.86878 0.0
C1074 C 0.52527 0.83376 0.88618 0.0
H1075 H 0.58191 0.82478 0.93535 0.0
H1076 H 0.56032 0.81222 0.9173 0.0
H1077 H 0.55589 0.83464 0.89878 0.0
H1078 H 0.50101 0.86648 0.84613 0.0
H1079 H 0.519 0.86164 0.86556 0.0
H1080 H 0.46025 0.83671 0.89233 0.0
C1081 C 0.55135 0.82706 0.92269 0.0
C1082 C 0.53496 0.83437 0.89753 0.0
C1083 C 0.56364 0.83415 0.9331 0.0
C1084 C 0.49083 0.85418 0.85227 0.0
C1085 C 0.50116 0.85136 0.86345 0.0
C1086 C 0.48117 0.83562 0.8936 0.0
C1087 C 0.52848 0.83992 0.91902 0.0
C1088 C 0.51792 0.83601 0.90707 0.0
C1089 C 0.48806 0.83647 0.87191 0.0
C1090 C 0.49827 0.83487 0.88404 0.0
H1091 H 0.52083 0.88114 0.94196 0.0
H1092 H 0.49957 0.86888 0.92394 0.0
H1093 H 0.47715 0.83721 0.91211 0.0
H1094 H 0.4362 0.81704 0.85556 0.0
H1095 H 0.45428 0.81193 0.87497 0.0
C1096 C 0.87475 0.31947 0.90944 0.0
C1097 C 0.85268 0.33212 0.91398 0.0
C1098 C 0.87207 0.29859 0.90173 0.0
C1099 C 0.86276 0.24589 0.89099 0.0
H1100 H 0.80701 0.24405 0.86829 0.0
C1101 C 0.85663 0.16095 0.85851 0.0
C1102 C 0.85142 0.16811 0.84697 0.0
C1103 C 0.85201 0.17856 0.8676 0.0
C1104 C 0.82281 0.24426 0.87453 0.0
H1105 H 0.81046 0.33295 0.914 0.0
H1106 H 0.80556 0.29594 0.90077 0.0
H1107 H 0.8099 0.28059 0.8817 0.0
H1108 H 0.83537 0.19873 0.83605 0.0
H1109 H 0.82815 0.22942 0.85168 0.0
H1110 H 0.87672 0.21055 0.88337 0.0
C1111 C 0.82505 0.3025 0.90292 0.0
C1112 C 0.82427 0.26513 0.88236 0.0
C1113 C 0.82779 0.32371 0.91051 0.0
C1114 C 0.83972 0.19251 0.84482 0.0
C1115 C 0.83542 0.21019 0.85386 0.0
C1116 C 0.86153 0.22525 0.88307 0.0
C1117 C 0.84718 0.28946 0.8985 0.0
C1118 C 0.84454 0.26648 0.89058 0.0
C1119 C 0.84234 0.20384 0.86534 0.0
C1120 C 0.84176 0.2243 0.8746 0.0
H1121 H 0.89416 0.3258 0.91186 0.0
H1122 H 0.88961 0.28969 0.89828 0.0
H1123 H 0.87829 0.24579 0.89737 0.0
H1124 H 0.86546 0.14225 0.86049 0.0
H1125 H 0.85692 0.17265 0.87635 0.0
C1126 C 0.41688 0.11576 0.64927 0.0
C1127 C 0.42035 0.13132 0.65922 0.0
C1128 C 0.43108 0.12084 0.6391 0.0
C1129 C 0.49146 0.15434 0.6292 0.0
H1130 H 0.46253 0.14292 0.59853 0.0
C1131 C 0.5562 0.16747 0.58928 0.0
C1132 C 0.55674 0.14487 0.5824 0.0
C1133 C 0.53562 0.17156 0.59711 0.0
C1134 C 0.47083 0.14634 0.60704 0.0
H1135 H 0.44082 0.16513 0.66595 0.0
H1136 H 0.46546 0.17372 0.6485 0.0
H1137 H 0.43481 0.1374 0.61564 0.0
H1138 H 0.53554 0.11007 0.57751 0.0
H1139 H 0.49948 0.11742 0.59087 0.0
H1140 H 0.52752 0.16277 0.62069 0.0
C1141 C 0.45215 0.15732 0.64854 0.0
C1142 C 0.45501 0.14296 0.61686 0.0
C1143 C 0.438 0.1523 0.65864 0.0
C1144 C 0.5353 0.12785 0.58262 0.0
C1145 C 0.51467 0.13205 0.59031 0.0
C1146 C 0.50716 0.15787 0.61942 0.0
C1147 C 0.44906 0.14162 0.63864 0.0
C1148 C 0.46525 0.14651 0.62808 0.0
C1149 C 0.51528 0.15318 0.59809 0.0
C1150 C 0.49721 0.15349 0.60822 0.0
H1151 H 0.4036 0.09936 0.64941 0.0
H1152 H 0.42843 0.10806 0.63171 0.0
H1153 H 0.50026 0.15682 0.63768 0.0
H1154 H 0.57278 0.18057 0.58943 0.0
H1155 H 0.53649 0.18819 0.60291 0.0
C1156 C 0.58621 0.81533 0.3441 0.0
C1157 C 0.60793 0.80607 0.33786 0.0
C1158 C 0.5778 0.80239 0.35417 0.0
C1159 C 0.58053 0.78506 0.37943 0.0
H1160 H 0.58898 0.71072 0.38446 0.0
C1161 C 0.59842 0.74199 0.425 0.0
C1162 C 0.58849 0.71714 0.42771 0.0
C1163 C 0.59606 0.75217 0.41377 0.0
C1164 C 0.58613 0.73149 0.38322 0.0
H1165 H 0.63608 0.77449 0.33666 0.0
H1166 H 0.62167 0.75224 0.35405 0.0
H1167 H 0.59082 0.72811 0.36481 0.0
H1168 H 0.56728 0.68402 0.42073 0.0
H1169 H 0.56303 0.7018 0.40121 0.0
H1170 H 0.5756 0.78839 0.39782 0.0
C1171 C 0.61102 0.76943 0.3513 0.0
C1172 C 0.58747 0.74153 0.37193 0.0
C1173 C 0.61941 0.78233 0.3413 0.0
C1174 C 0.5756 0.70301 0.41893 0.0
C1175 C 0.57316 0.71323 0.40771 0.0
C1176 C 0.57902 0.77502 0.3907 0.0
C1177 C 0.59079 0.77982 0.35815 0.0
C1178 C 0.58535 0.76856 0.36989 0.0
C1179 C 0.58359 0.73785 0.40493 0.0
C1180 C 0.58246 0.74818 0.3928 0.0
H1181 H 0.57678 0.83346 0.34167 0.0
H1182 H 0.56179 0.81069 0.35908 0.0
H1183 H 0.57905 0.80594 0.37826 0.0
H1184 H 0.60874 0.7533 0.43147 0.0
H1185 H 0.60475 0.77099 0.41196 0.0
C1186 C 0.11347 0.87935 0.15046 0.0
C1187 C 0.10784 0.86457 0.16044 0.0
C1188 C 0.09861 0.8764 0.14033 0.0
C1189 C 0.03391 0.85436 0.1302 0.0
H1190 H 0.06639 0.85475 0.09981 0.0
C1191 C 0.9714 0.84544 0.0888 0.0
C1192 C 0.9774 0.86331 0.07992 0.0
C1193 C 0.98881 0.84131 0.09801 0.0
C1194 C 0.05696 0.85476 0.10822 0.0
H1195 H 0.08253 0.83429 0.16731 0.0
H1196 H 0.05658 0.82948 0.14978 0.0
H1197 H 0.09357 0.85699 0.11718 0.0
H1198 H 0.00743 0.88921 0.07334 0.0
H1199 H 0.03749 0.8822 0.0893 0.0
H1200 H 0.99729 0.85288 0.12132 0.0
C1201 C 0.07225 0.84366 0.14985 0.0
C1202 C 0.07257 0.85608 0.11819 0.0
C1203 C 0.08714 0.84652 0.15994 0.0
C1204 C 1.00205 0.87537 0.08003 0.0
C1205 C 0.01942 0.87127 0.08921 0.0
C1206 C 0.01829 0.8532 0.12025 0.0
C1207 C 0.07769 0.85864 0.13992 0.0
C1208 C 0.06123 0.85615 0.1293 0.0
C1209 C 0.01269 0.85488 0.09854 0.0
C1210 C 0.02956 0.85366 0.10911 0.0
H1211 H 0.12906 0.89358 0.15052 0.0
H1212 H 0.10314 0.88848 0.13289 0.0
H1213 H 0.02449 0.8547 0.13862 0.0
H1214 H 0.95273 0.83558 0.08897 0.0
H1215 H 0.98319 0.82807 0.10489 0.0
C1216 C 0.63377 0.74244 0.83178 0.0
C1217 C 0.61832 0.72056 0.83427 0.0
C1218 C 0.63237 0.76475 0.83875 0.0
C1219 C 0.5974 0.79577 0.86372 0.0
H1220 H 0.66743 0.81552 0.87302 0.0
C1221 C 0.61876 0.84264 0.90801 0.0
C1222 C 0.63849 0.86163 0.90905 0.0
C1223 C 0.61477 0.82933 0.89759 0.0
C1224 C 0.64771 0.8107 0.87041 0.0
H1225 H 0.58844 0.70509 0.84556 0.0
H1226 H 0.58572 0.74404 0.85775 0.0
H1227 H 0.66131 0.78661 0.85651 0.0
H1228 H 0.66932 0.88149 0.89966 0.0
H1229 H 0.66189 0.85863 0.88134 0.0
H1230 H 0.58396 0.81923 0.8779 0.0
C1231 C 0.59859 0.74435 0.85029 0.0
C1232 C 0.64416 0.79411 0.86089 0.0
C1233 C 0.59994 0.72207 0.84326 0.0
C1234 C 0.65388 0.86714 0.89923 0.0
C1235 C 0.64975 0.85386 0.88874 0.0
C1236 C 0.60097 0.81238 0.87324 0.0
C1237 C 0.61578 0.76542 0.84848 0.0
C1238 C 0.61899 0.78598 0.85755 0.0
C1239 C 0.63013 0.83474 0.8878 0.0
C1240 C 0.6262 0.81958 0.87687 0.0
H1241 H 0.64853 0.74144 0.82505 0.0
H1242 H 0.64553 0.78079 0.83698 0.0
H1243 H 0.57774 0.79019 0.86132 0.0
H1244 H 0.60616 0.83795 0.91521 0.0
H1245 H 0.59989 0.81435 0.89731 0.0
C1246 C 0.54491 0.35878 0.09252 0.0
C1247 C 0.54951 0.3847 0.08913 0.0
C1248 C 0.52298 0.35266 0.0993 0.0
C1249 C 0.45961 0.37913 0.11021 0.0
H1250 H 0.47767 0.34321 0.1387 0.0
C1251 C 0.40232 0.3942 0.15272 0.0
C1252 C 0.39988 0.37333 0.16056 0.0
C1253 C 0.41733 0.39153 0.14264 0.0
C1254 C 0.47203 0.35283 0.13072 0.0
H1255 H 0.53414 0.42411 0.08941 0.0
H1256 H 0.49591 0.4135 0.10095 0.0
H1257 H 0.50895 0.34456 0.1228 0.0
H1258 H 0.41025 0.33281 0.16359 0.0
H1259 H 0.43632 0.32814 0.14601 0.0
H1260 H 0.42299 0.38809 0.11825 0.0
C1261 C 0.50901 0.39782 0.09848 0.0
C1262 C 0.48999 0.35354 0.12157 0.0
C1263 C 0.53099 0.40395 0.09189 0.0
C1264 C 0.41214 0.34946 0.15787 0.0
C1265 C 0.42709 0.34677 0.14777 0.0
C1266 C 0.44161 0.37836 0.11933 0.0
C1267 C 0.50516 0.37231 0.10261 0.0
C1268 C 0.4843 0.36736 0.11134 0.0
C1269 C 0.43019 0.36788 0.1401 0.0
C1270 C 0.44788 0.36585 0.12984 0.0
H1271 H 0.55908 0.34365 0.0906 0.0
H1272 H 0.52044 0.33279 0.10231 0.0
H1273 H 0.45448 0.38964 0.10237 0.0
H1274 H 0.3934 0.41291 0.15456 0.0
H1275 H 0.41959 0.40836 0.13704 0.0
C1276 C 0.93863 0.20246 0.41516 0.0
C1277 C 0.92917 0.21595 0.42494 0.0
C1278 C 0.93804 0.21398 0.40416 0.0
C1279 C 0.91758 0.23502 0.3813 0.0
H1280 H 0.92618 0.3095 0.37694 0.0
C1281 C 0.87539 0.29014 0.34198 0.0
C1282 C 0.88773 0.31292 0.33797 0.0
C1283 C 0.8852 0.27656 0.35156 0.0
C1284 C 0.92415 0.28861 0.37793 0.0
H1285 H 0.91217 0.25242 0.4308 0.0
H1286 H 0.9108 0.27242 0.41163 0.0
H1287 H 0.93509 0.29024 0.39585 0.0
H1288 H 0.92145 0.33796 0.34033 0.0
H1289 H 0.93878 0.31402 0.35695 0.0
H1290 H 0.90687 0.23334 0.36336 0.0
C1291 C 0.91911 0.25306 0.41246 0.0
C1292 C 0.92886 0.2776 0.38885 0.0
C1293 C 0.91984 0.24157 0.42349 0.0
C1294 C 0.91129 0.32062 0.34323 0.0
C1295 C 0.92111 0.30701 0.35284 0.0
C1296 C 0.91301 0.24601 0.37037 0.0
C1297 C 0.92785 0.23927 0.40261 0.0
C1298 C 0.92514 0.25072 0.39075 0.0
C1299 C 0.90771 0.2853 0.35737 0.0
C1300 C 0.91571 0.27305 0.36858 0.0
H1301 H 0.94642 0.18289 0.416 0.0
H1302 H 0.94547 0.20295 0.39684 0.0
H1303 H 0.91428 0.21429 0.38241 0.0
H1304 H 0.85726 0.28355 0.33814 0.0
H1305 H 0.87419 0.26007 0.3548 0.0
C1306 C 0.05378 0.68837 0.66846 0.0
C1307 C 0.04112 0.67154 0.6763 0.0
C1308 C 0.04403 0.69208 0.65724 0.0
C1309 C 0.98504 0.68161 0.6388 0.0
H1310 H 0.03505 0.68263 0.61355 0.0
C1311 C 0.98568 0.65339 0.58782 0.0
C1312 C 0.96146 0.66389 0.58442 0.0
C1313 C 0.997 0.66041 0.59841 0.0
C1314 C 0.02082 0.68248 0.6205 0.0
H1315 H 0.00798 0.64572 0.67843 0.0
H1316 H 0.99112 0.65196 0.6589 0.0
H1317 H 0.05054 0.68203 0.63354 0.0
H1318 H 0.93182 0.69247 0.5889 0.0
H1319 H 0.9516 0.70469 0.60742 0.0
H1320 H 0.95537 0.68072 0.62575 0.0
C1321 C 0.00836 0.66271 0.66147 0.0
C1322 C 0.02969 0.68238 0.63199 0.0
C1323 C 0.01806 0.65908 0.67271 0.0
C1324 C 0.95017 0.68353 0.59135 0.0
C1325 C 0.96144 0.69045 0.602 0.0
C1326 C 0.97618 0.68172 0.62732 0.0
C1327 C 0.02138 0.67902 0.65352 0.0
C1328 C 0.01192 0.68146 0.64131 0.0
C1329 C 0.98444 0.67817 0.60587 0.0
C1330 C 0.99395 0.68166 0.61801 0.0
H1331 H 0.07135 0.69862 0.67098 0.0
H1332 H 0.05433 0.70515 0.65145 0.0
H1333 H 0.9708 0.68117 0.64574 0.0
H1334 H 0.99513 0.63839 0.58268 0.0
H1335 H 0.01471 0.65052 0.60108 0.0
C1336 C 0.67953 0.17805 0.61637 0.0
C1337 C 0.65813 0.17569 0.60878 0.0
C1338 C 0.6798 0.19731 0.62503 0.0
C1339 C 0.64953 0.26064 0.63308 0.0
H1340 H 0.67245 0.24324 0.66418 0.0
C1341 C 0.62773 0.32629 0.67283 0.0
C1342 C 0.64578 0.32696 0.68203 0.0
C1343 C 0.63166 0.30971 0.66332 0.0
C1344 C 0.66641 0.24864 0.6555 0.0
H1345 H 0.61983 0.19148 0.60471 0.0
H1346 H 0.62047 0.22496 0.61965 0.0
H1347 H 0.67457 0.21033 0.64893 0.0
H1348 H 0.68292 0.31177 0.68806 0.0
H1349 H 0.69007 0.28337 0.67137 0.0
H1350 H 0.64124 0.2989 0.63963 0.0
C1351 C 0.63727 0.21224 0.61877 0.0
C1352 C 0.66758 0.22968 0.64675 0.0
C1353 C 0.63693 0.19296 0.61017 0.0
C1354 C 0.66853 0.31166 0.68118 0.0
C1355 C 0.67251 0.29516 0.67164 0.0
C1356 C 0.64847 0.27963 0.64181 0.0
C1357 C 0.65873 0.21476 0.62628 0.0
C1358 C 0.65885 0.23534 0.63546 0.0
C1359 C 0.65381 0.29344 0.66272 0.0
C1360 C 0.65662 0.27383 0.65319 0.0
H1361 H 0.6963 0.16533 0.61551 0.0
H1362 H 0.69674 0.19883 0.63061 0.0
H1363 H 0.64307 0.2658 0.62442 0.0
H1364 H 0.60992 0.3377 0.6732 0.0
H1365 H 0.6167 0.30882 0.6567 0.0
C1366 C 0.10867 0.38967 0.87235 0.0
C1367 C 0.10634 0.37227 0.86296 0.0
C1368 C 0.09361 0.38639 0.88238 0.0
C1369 C 0.05127 0.33876 0.89822 0.0
H1370 H 0.02245 0.40173 0.91182 0.0
C1371 C 0.96149 0.3425 0.92933 0.0
C1372 C 0.96081 0.36272 0.93756 0.0
C1373 C 0.98285 0.34007 0.92176 0.0
C1374 C 0.03068 0.38391 0.9083 0.0
H1375 H 0.08681 0.337 0.8571 0.0
H1376 H 0.06003 0.3319 0.87434 0.0
H1377 H 0.05213 0.40507 0.89551 0.0
H1378 H 0.98228 0.39504 0.94492 0.0
H1379 H 0.01994 0.39018 0.93214 0.0
H1380 H 0.0289 0.31766 0.91089 0.0
C1381 C 0.07373 0.34796 0.87402 0.0
C1382 C 0.04778 0.38584 0.8989 0.0
C1383 C 0.08888 0.35116 0.86401 0.0
C1384 C 0.9826 0.37903 0.93876 0.0
C1385 C 1.00395 0.37649 0.9313 0.0
C1386 C 0.03398 0.33683 0.90763 0.0
C1387 C 0.07567 0.36569 0.88331 0.0
C1388 C 0.05827 0.36333 0.89368 0.0
C1389 C 1.00375 0.35789 0.92231 0.0
C1390 C 0.02343 0.35941 0.91278 0.0
H1391 H 0.12179 0.40617 0.8719 0.0
H1392 H 0.09601 0.40022 0.88942 0.0
H1393 H 0.05918 0.32098 0.89453 0.0
H1394 H 0.94456 0.33018 0.92803 0.0
H1395 H 0.98197 0.3256 0.91491 0.0
C1396 C 0.91422 0.85101 0.1176 0.0
C1397 C 0.89108 0.86536 0.11585 0.0
C1398 C 0.91814 0.83683 0.12782 0.0
C1399 C 0.89418 0.82845 0.15804 0.0
H1400 H 0.91808 0.75712 0.15404 0.0
C1401 C 0.86839 0.74562 0.18928 0.0
C1402 C 0.88505 0.724 0.19046 0.0
C1403 C 0.87509 0.76643 0.18208 0.0
C1404 C 0.91201 0.77715 0.15541 0.0
H1405 H 0.8543 0.87659 0.12368 0.0
H1406 H 0.86104 0.85177 0.14152 0.0
H1407 H 0.91777 0.78664 0.13751 0.0
H1408 H 0.92265 0.70791 0.18568 0.0
H1409 H 0.93465 0.74459 0.17307 0.0
H1410 H 0.88768 0.81867 0.17588 0.0
C1411 C 0.8763 0.8517 0.13501 0.0
C1412 C 0.91172 0.7941 0.14589 0.0
C1413 C 0.87237 0.8659 0.12477 0.0
C1414 C 0.90956 0.72448 0.18501 0.0
C1415 C 0.91623 0.74531 0.17768 0.0
C1416 C 0.89455 0.81152 0.16757 0.0
C1417 C 0.89906 0.83667 0.13659 0.0
C1418 C 0.90216 0.81975 0.14702 0.0
C1419 C 0.8986 0.76606 0.17579 0.0
C1420 C 0.90277 0.78542 0.16631 0.0
H1421 H 0.92938 0.85066 0.11106 0.0
H1422 H 0.9361 0.82588 0.12883 0.0
H1423 H 0.88719 0.84823 0.15926 0.0
H1424 H 0.84933 0.74569 0.19337 0.0
H1425 H 0.8609 0.78186 0.18079 0.0
C1426 C 0.57337 0.60554 0.42614 0.0
C1427 C 0.56801 0.59231 0.43657 0.0
C1428 C 0.55766 0.60171 0.41634 0.0
C1429 C 0.49028 0.58258 0.40922 0.0
H1430 H 0.51467 0.58705 0.37744 0.0
C1431 C 0.41897 0.57943 0.37022 0.0
C1432 C 0.42368 0.5975 0.36128 0.0
C1433 C 0.4375 0.57533 0.37898 0.0
C1434 C 0.50752 0.58592 0.38627 0.0
H1435 H 0.54329 0.56299 0.44453 0.0
H1436 H 0.51632 0.55594 0.4274 0.0
H1437 H 0.54628 0.58499 0.39327 0.0
H1438 H 0.45164 0.62566 0.3547 0.0
H1439 H 0.48371 0.61855 0.36988 0.0
H1440 H 0.45157 0.58409 0.40227 0.0
C1441 C 0.5322 0.56983 0.42689 0.0
C1442 C 0.52566 0.58471 0.39534 0.0
C1443 C 0.54784 0.57371 0.43669 0.0
C1444 C 0.44746 0.61121 0.36128 0.0
C1445 C 0.46595 0.60712 0.37002 0.0
C1446 C 0.47217 0.5838 0.40015 0.0
C1447 C 0.53633 0.58445 0.41672 0.0
C1448 C 0.51727 0.58336 0.40695 0.0
C1449 C 0.4612 0.58921 0.37901 0.0
C1450 C 0.48054 0.58586 0.38857 0.0
H1451 H 0.58876 0.61998 0.42571 0.0
H1452 H 0.56139 0.6134 0.40869 0.0
H1453 H 0.48306 0.58204 0.41805 0.0
H1454 H 0.40103 0.56831 0.37042 0.0
H1455 H 0.43332 0.56116 0.3857 0.0
C1456 C 0.38728 0.13588 0.12566 0.0
C1457 C 0.3784 0.14918 0.11574 0.0
C1458 C 0.39363 0.14965 0.1358 0.0
C1459 C 0.40861 0.21711 0.14629 0.0
H1460 H 0.38852 0.18953 0.17629 0.0
C1461 C 0.41287 0.28289 0.18663 0.0
C1462 C 0.38932 0.28273 0.19287 0.0
C1463 C 0.41858 0.26262 0.1788 0.0
C1464 C 0.39436 0.19753 0.16799 0.0
H1465 H 0.36857 0.18723 0.1088 0.0
H1466 H 0.37888 0.21111 0.12645 0.0
H1467 H 0.38296 0.1628 0.15899 0.0
H1468 H 0.35452 0.26039 0.19665 0.0
H1469 H 0.36427 0.22538 0.1832 0.0
H1470 H 0.41832 0.25247 0.15514 0.0
C1471 C 0.38173 0.19016 0.12637 0.0
C1472 C 0.39139 0.18206 0.15805 0.0
C1473 C 0.37559 0.17645 0.11626 0.0
C1474 C 0.37286 0.26095 0.19196 0.0
C1475 C 0.37856 0.24076 0.18424 0.0
C1476 C 0.41136 0.23266 0.1562 0.0
C1477 C 0.39109 0.17703 0.13626 0.0
C1478 C 0.39759 0.192 0.14701 0.0
C1479 C 0.40089 0.24184 0.17715 0.0
C1480 C 0.40337 0.22344 0.16714 0.0
H1481 H 0.39011 0.11494 0.12547 0.0
H1482 H 0.40106 0.13888 0.14318 0.0
H1483 H 0.41441 0.22514 0.13799 0.0
H1484 H 0.42577 0.2996 0.18707 0.0
H1485 H 0.43617 0.26391 0.17363 0.0
C1486 C 0.46994 0.60143 0.93773 0.0
C1487 C 0.45021 0.62046 0.93872 0.0
C1488 C 0.48511 0.59956 0.92764 0.0
C1489 C 0.50845 0.64051 0.90356 0.0
H1490 H 0.53189 0.57504 0.89022 0.0
C1491 C 0.57191 0.63798 0.86206 0.0
C1492 C 0.59173 0.61897 0.8612 0.0
C1493 C 0.55361 0.63724 0.87108 0.0
C1494 C 0.52582 0.59352 0.89391 0.0
H1495 H 0.43027 0.6517 0.92958 0.0
H1496 H 0.45665 0.64836 0.912 0.0
H1497 H 0.50114 0.57473 0.90641 0.0
H1498 H 0.60737 0.58408 0.86935 0.0
H1499 H 0.57611 0.58331 0.88523 0.0
H1500 H 0.5335 0.65939 0.89133 0.0
C1501 C 0.46055 0.63504 0.91909 0.0
C1502 C 0.50807 0.59332 0.90318 0.0
C1503 C 0.44524 0.63677 0.92914 0.0
C1504 C 0.59265 0.59922 0.8697 0.0
C1505 C 0.57441 0.59857 0.87877 0.0
C1506 C 0.52632 0.64073 0.89437 0.0
C1507 C 0.48108 0.61681 0.91831 0.0
C1508 C 0.49916 0.61683 0.90813 0.0
C1509 C 0.55461 0.6176 0.87961 0.0
C1510 C 0.53532 0.61724 0.88939 0.0
H1511 H 0.47435 0.58855 0.94492 0.0
H1512 H 0.5008 0.58538 0.92737 0.0
H1513 H 0.50243 0.65898 0.9073 0.0
H1514 H 0.57054 0.65373 0.85585 0.0
H1515 H 0.53852 0.65205 0.87129 0.0
C1516 C 0.13776 0.65569 0.66849 0.0
C1517 C 0.15648 0.66537 0.67632 0.0
C1518 C 0.13692 0.66471 0.65703 0.0
C1519 C 0.15725 0.72272 0.64005 0.0
H1520 H 0.12951 0.68336 0.61409 0.0
C1521 C 0.14747 0.7683 0.59455 0.0
C1522 C 0.12318 0.76501 0.58902 0.0
C1523 C 0.15395 0.75372 0.60439 0.0
C1524 C 0.13722 0.6946 0.62127 0.0
H1525 H 0.19054 0.69015 0.67791 0.0
H1526 H 0.18993 0.70485 0.65782 0.0
H1527 H 0.13786 0.66132 0.63253 0.0
H1528 H 0.08704 0.74292 0.58949 0.0
H1529 H 0.09854 0.71733 0.60655 0.0
H1530 H 0.15656 0.75595 0.62882 0.0
C1531 C 0.17512 0.69119 0.66064 0.0
C1532 C 0.14197 0.682 0.63186 0.0
C1533 C 0.17569 0.68251 0.67215 0.0
C1534 C 0.106 0.74593 0.59338 0.0
C1535 C 0.11258 0.73121 0.6032 0.0
C1536 C 0.15275 0.7352 0.62946 0.0
C1537 C 0.15507 0.68329 0.65305 0.0
C1538 C 0.15183 0.69595 0.64145 0.0
C1539 C 0.13644 0.73527 0.60894 0.0
C1540 C 0.14246 0.72139 0.61997 0.0
H1541 H 0.12261 0.64249 0.6714 0.0
H1542 H 0.12107 0.65823 0.65153 0.0
H1543 H 0.1642 0.73437 0.64726 0.0
H1544 H 0.16149 0.78232 0.59134 0.0
H1545 H 0.17268 0.757 0.6085 0.0
C1546 C 0.01211 0.38578 0.44453 0.0
C1547 C 0.03366 0.37022 0.4416 0.0
C1548 C 0.98918 0.38455 0.438 0.0
C1549 C 0.95585 0.35118 0.41326 0.0
H1550 H 0.93889 0.4223 0.40439 0.0
C1551 C 0.90772 0.37635 0.36952 0.0
C1552 C 0.8902 0.39755 0.36877 0.0
C1553 C 0.92109 0.37101 0.37981 0.0
C1554 C 0.94287 0.4023 0.40689 0.0
H1555 H 0.04783 0.33999 0.4301 0.0
H1556 H 0.00781 0.33774 0.4186 0.0
H1557 H 0.96814 0.41453 0.42056 0.0
H1558 H 0.87294 0.42938 0.3786 0.0
H1559 H 0.89564 0.41947 0.39663 0.0
H1560 H 0.93099 0.33909 0.3993 0.0
C1561 C 0.00827 0.35056 0.42608 0.0
C1562 C 0.95968 0.3978 0.41622 0.0
C1563 C 0.03117 0.35166 0.43271 0.0
C1564 C 0.8861 0.41286 0.37876 0.0
C1565 C 0.89933 0.4073 0.38912 0.0
C1566 C 0.93889 0.3557 0.40393 0.0
C1567 C 0.98761 0.36809 0.42824 0.0
C1568 C 0.9668 0.37222 0.41939 0.0
C1569 C 0.91713 0.38638 0.38975 0.0
C1570 C 0.93266 0.38136 0.40046 0.0
H1571 H 0.01382 0.40057 0.45122 0.0
H1572 H 0.97344 0.39792 0.44005 0.0
H1573 H 0.96074 0.33125 0.41553 0.0
H1574 H 0.91133 0.36369 0.3622 0.0
H1575 H 0.9351 0.35517 0.37986 0.0
C1576 C 0.41597 0.71015 0.34205 0.0
C1577 C 0.39136 0.70685 0.33689 0.0
C1578 C 0.42043 0.73115 0.34967 0.0
C1579 C 0.39241 0.79446 0.36015 0.0
H1580 H 0.42126 0.77382 0.38987 0.0
C1581 C 0.37211 0.85242 0.40225 0.0
C1582 C 0.39183 0.85421 0.4107 0.0
C1583 C 0.37546 0.83676 0.39239 0.0
C1584 C 0.41355 0.78014 0.38158 0.0
H1585 H 0.35278 0.72366 0.335 0.0
H1586 H 0.36057 0.76022 0.34798 0.0
H1587 H 0.42254 0.74339 0.3736 0.0
H1588 H 0.43107 0.84157 0.41507 0.0
H1589 H 0.43689 0.81434 0.39792 0.0
H1590 H 0.38285 0.83096 0.36819 0.0
C1591 C 0.37651 0.74684 0.34626 0.0
C1592 C 0.41436 0.76266 0.37222 0.0
C1593 C 0.37199 0.72581 0.33882 0.0
C1594 C 0.41522 0.84029 0.4089 0.0
C1595 C 0.41859 0.82466 0.39903 0.0
C1596 C 0.39163 0.81194 0.3695 0.0
C1597 C 0.40045 0.74935 0.3521 0.0
C1598 C 0.40326 0.76936 0.36145 0.0
C1599 C 0.39868 0.8225 0.39067 0.0
C1600 C 0.40167 0.80482 0.38042 0.0
H1601 H 0.43112 0.69562 0.34084 0.0
H1602 H 0.43918 0.73265 0.35395 0.0
H1603 H 0.38402 0.80043 0.35194 0.0
H1604 H 0.35376 0.8626 0.40339 0.0
H1605 H 0.35951 0.8353 0.38626 0.0
C1606 C 0.01215 0.63315 0.07742 0.0
C1607 C 0.03813 0.64113 0.07914 0.0
C1608 C 0.99363 0.63586 0.08627 0.0
C1609 C 0.98119 0.66576 0.1154 0.0
H1610 H 0.93844 0.60409 0.11973 0.0
C1611 C 0.92828 0.64294 0.15861 0.0
C1612 C 0.90303 0.63213 0.15812 0.0
C1613 C 0.94309 0.64629 0.14852 0.0
C1614 C 0.94992 0.62164 0.11857 0.0
H1615 H 0.06433 0.66024 0.09124 0.0
H1616 H 0.0323 0.66451 0.10671 0.0
H1617 H 0.9666 0.6073 0.1028 0.0
H1618 H 0.8736 0.61682 0.14642 0.0
H1619 H 0.89952 0.62244 0.12886 0.0
H1620 H 0.96486 0.67974 0.13137 0.0
C1621 C 0.0261 0.65625 0.0985 0.0
C1622 C 0.96607 0.62355 0.10882 0.0
C1623 C 0.04459 0.65371 0.08961 0.0
C1624 C 0.89305 0.62482 0.14721 0.0
C1625 C 0.90792 0.6281 0.13711 0.0
C1626 C 0.96507 0.66381 0.12518 0.0
C1627 C 1.00061 0.6465 0.0971 0.0
C1628 C 0.9821 0.64554 0.10712 0.0
C1629 C 0.93316 0.63885 0.13764 0.0
C1630 C 0.94938 0.64161 0.12695 0.0
H1631 H 0.00637 0.62361 0.06943 0.0
H1632 H 0.97402 0.62879 0.08475 0.0
H1633 H 0.99296 0.68314 0.11432 0.0
H1634 H 0.93692 0.64843 0.16682 0.0
H1635 H 0.96261 0.6542 0.14929 0.0
C1636 C 0.13055 0.25879 0.82466 0.0
C1637 C 0.11607 0.28215 0.82517 0.0
C1638 C 0.1292 0.24059 0.83369 0.0
C1639 C 0.1157 0.24038 0.86502 0.0
H1640 H 0.12551 0.16549 0.86236 0.0
C1641 C 0.11588 0.17459 0.90519 0.0
C1642 C 0.13519 0.1551 0.90604 0.0
C1643 C 0.11189 0.18817 0.89487 0.0
C1644 C 0.12299 0.18641 0.86322 0.0
H1645 H 0.08673 0.3033 0.835 0.0
H1646 H 0.08387 0.27129 0.85056 0.0
H1647 H 0.11899 0.19175 0.84484 0.0
H1648 H 0.16508 0.13433 0.89641 0.0
H1649 H 0.15796 0.15811 0.87822 0.0
H1650 H 0.11997 0.23526 0.88331 0.0
C1651 C 0.09694 0.26743 0.84337 0.0
C1652 C 0.11917 0.20145 0.8532 0.0
C1653 C 0.09838 0.28569 0.83437 0.0
C1654 C 0.15 0.14913 0.89609 0.0
C1655 C 0.14588 0.16272 0.88566 0.0
C1656 C 0.11946 0.22541 0.87499 0.0
C1657 C 0.11321 0.24525 0.8434 0.0
C1658 C 0.11551 0.22865 0.85398 0.0
C1659 C 0.12694 0.18262 0.885 0.0
C1660 C 0.12317 0.19825 0.87424 0.0
H1661 H 0.14433 0.25534 0.8177 0.0
H1662 H 0.14202 0.22377 0.83341 0.0
H1663 H 0.11368 0.26133 0.86597 0.0
H1664 H 0.10353 0.17936 0.91247 0.0
H1665 H 0.09685 0.20305 0.89462 0.0
C1666 C 0.40959 0.40566 0.60472 0.0
C1667 C 0.38569 0.39254 0.60333 0.0
C1668 C 0.42218 0.40606 0.6155 0.0
C1669 C 0.426 0.36665 0.64222 0.0
H1670 H 0.46992 0.42313 0.65312 0.0
C1671 C 0.48467 0.35902 0.68505 0.0
C1672 C 0.5103 0.36886 0.68496 0.0
C1673 C 0.46769 0.36376 0.67575 0.0
C1674 C 0.45792 0.40707 0.65014 0.0
H1675 H 0.35532 0.37136 0.61244 0.0
H1676 H 0.37696 0.37259 0.63126 0.0
H1677 H 0.44265 0.42951 0.63598 0.0
H1678 H 0.53782 0.39194 0.67498 0.0
H1679 H 0.50858 0.39961 0.65873 0.0
H1680 H 0.44154 0.34407 0.65624 0.0
C1681 C 0.38633 0.38198 0.62395 0.0
C1682 C 0.44223 0.41076 0.64032 0.0
C1683 C 0.37378 0.38152 0.61317 0.0
C1684 C 0.5184 0.38372 0.67534 0.0
C1685 C 0.50145 0.38846 0.66606 0.0
C1686 C 0.44169 0.36295 0.65202 0.0
C1687 C 0.41112 0.39346 0.62517 0.0
C1688 C 0.42627 0.39049 0.63616 0.0
C1689 C 0.47587 0.37851 0.66612 0.0
C1690 C 0.4581 0.383 0.65604 0.0
H1691 H 0.4194 0.41432 0.59734 0.0
H1692 H 0.44129 0.41498 0.61608 0.0
H1693 H 0.41428 0.35049 0.63916 0.0
H1694 H 0.47776 0.34733 0.69223 0.0
H1695 H 0.44807 0.35597 0.67616 0.0
C1696 C 0.27474 0.30463 0.22844 0.0
C1697 C 0.29983 0.31483 0.23041 0.0
C1698 C 0.26351 0.28713 0.2363 0.0
C1699 C 0.28048 0.2405 0.25965 0.0
H1700 H 0.20676 0.24534 0.26694 0.0
C1701 C 0.23124 0.17783 0.29548 0.0
C1702 C 0.20607 0.16823 0.29314 0.0
C1703 C 0.24321 0.19551 0.28789 0.0
C1704 C 0.22732 0.24351 0.26491 0.0
H1705 H 0.3324 0.31506 0.24244 0.0
H1706 H 0.31281 0.2846 0.25614 0.0
H1707 H 0.22632 0.27694 0.25378 0.0
H1708 H 0.17431 0.16888 0.2807 0.0
H1709 H 0.19512 0.19952 0.26751 0.0
H1710 H 0.28143 0.207 0.27079 0.0
C1711 C 0.30201 0.28979 0.24839 0.0
C1712 C 0.23854 0.26166 0.25735 0.0
C1713 C 0.31324 0.30729 0.24053 0.0
C1714 C 0.19346 0.17627 0.2829 0.0
C1715 C 0.2054 0.19389 0.27533 0.0
C1716 C 0.26925 0.22232 0.26722 0.0
C1717 C 0.27705 0.27938 0.24635 0.0
C1718 C 0.26524 0.26033 0.25459 0.0
C1719 C 0.2303 0.20398 0.27779 0.0
C1720 C 0.24248 0.22352 0.26989 0.0
H1721 H 0.26398 0.30963 0.22067 0.0
H1722 H 0.24441 0.27921 0.23435 0.0
H1723 H 0.30103 0.23867 0.25759 0.0
H1724 H 0.24141 0.17228 0.30333 0.0
H1725 H 0.2623 0.20307 0.2901 0.0
C1726 C 0.03948 0.90207 0.52433 0.0
C1727 C 0.05846 0.90571 0.53299 0.0
C1728 C 0.02764 0.92354 0.51893 0.0
C1729 C 0.01661 0.99513 0.52225 0.0
H1730 H 1.00357 0.99216 0.48913 0.0
C1731 C 0.99072 0.08642 0.49475 0.0
C1732 C 0.9716 0.08354 0.48609 0.0
C1733 C 0.99993 0.0647 0.5009 0.0
C1734 C 0.00679 0.99321 0.49841 0.0
H1735 H 0.08011 0.93494 0.54261 0.0
H1736 H 0.05975 0.97223 0.53318 0.0
H1737 H 0.02217 0.95437 0.49896 0.0
H1738 H 0.94718 0.05539 0.47714 0.0
H1739 H 0.96301 0.01767 0.48793 0.0
H1740 H 1.00158 0.0342 0.52162 0.0
C1741 C 0.05351 0.95281 0.53072 0.0
C1742 C 0.01743 0.97149 0.50406 0.0
C1743 C 0.06524 0.93136 0.53614 0.0
C1744 C 0.96166 0.05844 0.48384 0.0
C1745 C 0.97098 0.03672 0.48993 0.0
C1746 C 0.00608 0.0169 0.51658 0.0
C1747 C 0.03459 0.94922 0.52202 0.0
C1748 C 0.02257 0.97216 0.51606 0.0
C1749 C 0.99038 0.03954 0.49847 0.0
C1750 C 1.00109 0.01623 0.50458 0.0
H1751 H 0.03358 0.8826 0.52179 0.0
H1752 H 0.01285 0.91999 0.51241 0.0
H1753 H 0.01987 0.99625 0.53152 0.0
H1754 H 0.99864 0.10548 0.49675 0.0
H1755 H 0.01502 0.06754 0.50736 0.0
C1756 C 0.18617 0.69882 0.74097 0.0
C1757 C 0.17211 0.7158 0.73367 0.0
C1758 C 0.20599 0.70834 0.74819 0.0
C1759 C 0.2302 0.76927 0.76185 0.0
H1760 H 0.29457 0.73016 0.76536 0.0
C1761 C 0.32054 0.81205 0.78531 0.0
C1762 C 0.33501 0.79517 0.79248 0.0
C1763 C 0.30065 0.80237 0.77817 0.0
C1764 C 0.27661 0.7412 0.76459 0.0
H1765 H 0.16851 0.75615 0.72813 0.0
H1766 H 0.20286 0.77265 0.74069 0.0
H1767 H 0.25998 0.71313 0.75296 0.0
H1768 H 0.33932 0.75484 0.79792 0.0
H1769 H 0.30473 0.73803 0.78554 0.0
H1770 H 0.24679 0.79733 0.77349 0.0
C1771 C 0.19827 0.75203 0.74099 0.0
C1772 C 0.25675 0.73141 0.75748 0.0
C1773 C 0.1785 0.74252 0.73377 0.0
C1774 C 0.32897 0.76838 0.79237 0.0
C1775 C 0.30908 0.75871 0.78525 0.0
C1776 C 0.25004 0.77904 0.76898 0.0
C1777 C 0.21225 0.73509 0.74831 0.0
C1778 C 0.2333 0.74534 0.756 0.0
C1779 C 0.29467 0.77555 0.77804 0.0
C1780 C 0.27352 0.76516 0.77044 0.0
H1781 H 0.18161 0.67821 0.74125 0.0
H1782 H 0.21612 0.69478 0.75383 0.0
H1783 H 0.21224 0.78032 0.76106 0.0
H1784 H 0.32485 0.83272 0.78505 0.0
H1785 H 0.29022 0.81587 0.77262 0.0
C1786 C 0.47157 0.04309 0.05008 0.0
C1787 C 0.45052 0.05987 0.04759 0.0
C1788 C 0.48629 0.0319 0.04115 0.0
C1789 C 0.48423 0.01571 1.00985 0.0
H1790 H 0.55919 0.00896 0.01354 0.0
C1791 C 0.55137 0.98037 0.97262 0.0
C1792 C 0.57133 0.9626 0.9755 0.0
C1793 C 0.53684 0.9928 0.9813 0.0
C1794 C 0.53825 0.01045 1.01242 0.0
H1795 H 0.42848 0.07782 0.03364 0.0
H1796 H 0.45449 0.05866 0.01805 0.0
H1797 H 0.53347 0.02985 0.02874 0.0
H1798 H 0.59183 0.94436 0.98982 0.0
H1799 H 0.56629 0.96581 1.00497 0.0
H1800 H 0.48907 0.99631 0.99352 0.0
C1801 C 0.4594 0.05395 0.02695 0.0
C1802 C 0.52347 0.02244 0.02114 0.0
C1803 C 0.44464 0.06518 0.0359 0.0
C1804 C 0.57649 0.95774 0.98729 0.0
C1805 C 0.56201 0.97025 0.99597 0.0
C1806 C 0.49903 1.00377 1.00112 0.0
C1807 C 0.48045 0.03718 0.02947 0.0
C1808 C 0.49624 0.0251 0.02 0.0
C1809 C 0.54192 0.98786 0.99308 0.0
C1810 C 0.52621 1.00089 1.00231 0.0
H1811 H 0.47699 0.03876 0.05894 0.0
H1812 H 0.50212 0.01883 0.04344 0.0
H1813 H 0.46328 0.01706 1.00875 0.0
H1814 H 0.54662 0.9844 0.96365 0.0
H1815 H 0.5217 0.00644 0.97876 0.0
C1816 C 0.31316 0.70016 0.29656 0.0
C1817 C 0.3056 0.67384 0.29745 0.0
C1818 C 0.30071 0.717 0.28877 0.0
C1819 C 0.26115 0.71696 0.26191 0.0
H1820 H 0.24648 0.78872 0.27053 0.0
C1821 C 0.20012 0.78594 0.23281 0.0
C1822 C 0.20822 0.8121 0.23186 0.0
C1823 C 0.21185 0.76909 0.24082 0.0
C1824 C 0.25071 0.76883 0.26793 0.0
H1825 H 0.27873 0.64474 0.29083 0.0
H1826 H 0.25671 0.67421 0.27737 0.0
H1827 H 0.26655 0.75937 0.2846 0.0
H1828 H 0.23514 0.84093 0.23867 0.0
H1829 H 0.2559 0.81144 0.2525 0.0
H1830 H 0.24536 0.72643 0.24523 0.0
C1831 C 0.27253 0.68175 0.28263 0.0
C1832 C 0.26221 0.75197 0.27601 0.0
C1833 C 0.28496 0.6649 0.29045 0.0
C1834 C 0.22852 0.8209 0.23909 0.0
C1835 C 0.24023 0.80404 0.24713 0.0
C1836 C 0.24966 0.73382 0.25383 0.0
C1837 C 0.28034 0.70799 0.28164 0.0
C1838 C 0.26762 0.72582 0.27311 0.0
C1839 C 0.23201 0.77793 0.24811 0.0
C1840 C 0.24431 0.75999 0.25672 0.0
H1841 H 0.32871 0.70785 0.30192 0.0
H1842 H 0.30741 0.73701 0.28819 0.0
H1843 H 0.26543 0.69709 0.2593 0.0
H1844 H 0.18482 0.77834 0.2273 0.0
H1845 H 0.20485 0.74919 0.24141 0.0
C1846 C 0.44438 0.98643 0.48359 0.0
C1847 C 0.44961 0.9615 0.47904 0.0
C1848 C 0.46073 0.99734 0.49204 0.0
C1849 C 0.52732 0.99212 0.50445 0.0
H1850 H 0.49675 0.02844 0.53068 0.0
C1851 C 0.58928 0.02627 0.54366 0.0
C1852 C 0.58401 0.0515 0.54787 0.0
C1853 C 0.57261 0.01455 0.53555 0.0
C1854 C 0.50562 0.01855 0.52336 0.0
H1855 H 0.47669 0.92889 0.47955 0.0
H1856 H 0.50477 0.9476 0.49437 0.0
H1857 H 0.46845 0.01029 0.51569 0.0
H1858 H 0.55646 0.08369 0.54721 0.0
H1859 H 0.52782 0.06356 0.533 0.0
H1860 H 0.56448 1.00044 0.51209 0.0
C1861 C 0.48812 0.95882 0.4914 0.0
C1862 C 0.48939 0.0082 0.51475 0.0
C1863 C 0.47179 0.94793 0.483 0.0
C1864 C 0.56138 0.06443 0.54401 0.0
C1865 C 0.54473 0.05273 0.53595 0.0
C1866 C 0.54355 1.00247 0.51305 0.0
C1867 C 0.48276 0.9836 0.49608 0.0
C1868 C 0.50003 0.99489 0.50518 0.0
C1869 C 0.55023 0.02774 0.53154 0.0
C1870 C 0.53291 0.01588 0.5226 0.0
H1871 H 0.42742 0.99734 0.48077 0.0
H1872 H 0.4562 0.01661 0.49537 0.0
H1873 H 0.5362 0.98229 0.49711 0.0
H1874 H 0.60658 0.01584 0.54643 0.0
H1875 H 0.57725 0.99514 0.53242 0.0
C1876 C 0.20297 0.30684 0.78678 0.0
C1877 C 0.21706 0.31717 0.79621 0.0
C1878 C 0.21553 0.29212 0.77823 0.0
C1879 C 0.28006 0.27758 0.76545 0.0
H1880 H 0.24584 0.21444 0.7548 0.0
C1881 C 0.33181 0.20313 0.73556 0.0
C1882 C 0.3171 0.19223 0.72645 0.0
C1883 C 0.31977 0.2181 0.74419 0.0
C1884 C 0.25554 0.23215 0.75757 0.0
H1885 H 0.25559 0.32068 0.8038 0.0
H1886 H 0.27755 0.29473 0.78889 0.0
H1887 H 0.2248 0.24167 0.76942 0.0
H1888 H 0.27801 0.18818 0.71949 0.0
H1889 H 0.25706 0.21467 0.73441 0.0
H1890 H 0.31077 0.26811 0.75356 0.0
C1891 C 0.25675 0.29816 0.78812 0.0
C1892 C 0.24347 0.24777 0.76596 0.0
C1893 C 0.24415 0.31285 0.79671 0.0
C1894 C 0.28998 0.19644 0.7263 0.0
C1895 C 0.27792 0.21143 0.73493 0.0
C1896 C 0.29212 0.26197 0.75703 0.0
C1897 C 0.24251 0.28735 0.77885 0.0
C1898 C 0.25554 0.27072 0.76998 0.0
C1899 C 0.2927 0.22259 0.74394 0.0
C1900 C 0.27999 0.23908 0.75298 0.0
H1901 H 0.18206 0.3094 0.78615 0.0
H1902 H 0.20404 0.28438 0.77113 0.0
H1903 H 0.28974 0.29529 0.76825 0.0
H1904 H 0.35276 0.20063 0.73593 0.0
H1905 H 0.3317 0.22611 0.75108 0.0
C1906 C 0.05629 0.07577 0.98309 0.0
C1907 C 0.06752 0.06033 0.9743 0.0
C1908 C 0.04155 0.06434 0.99195 0.0
C1909 C 0.02947 1.00138 1.00672 0.0
H1910 H 0.96519 0.03476 0.01661 0.0
C1911 C 0.95698 0.95009 0.03736 0.0
C1912 C 0.94586 0.96509 0.04633 0.0
C1913 C 0.97128 0.96197 0.0285 0.0
C1914 C 0.98322 0.02533 0.01404 0.0
H1915 H 0.0724 0.02063 0.96811 0.0
H1916 H 0.0464 1.00073 0.98344 0.0
H1917 H 0.99162 0.05491 1.00146 0.0
H1918 H 0.94054 1.00453 0.05277 0.0
H1919 H 0.96581 0.02527 0.03737 0.0
H1920 H 0.0211 0.97181 0.01928 0.0
C1921 C 0.04916 0.02169 0.98353 0.0
C1922 C 0.99839 0.03689 1.00535 0.0
C1923 C 0.06385 0.03313 0.97467 0.0
C1924 C 0.94902 0.99236 0.04607 0.0
C1925 C 0.96331 1.00427 0.03718 0.0
C1926 C 0.01431 0.98983 0.01539 0.0
C1927 C 0.03771 0.03717 0.99225 0.0
C1928 C 0.02168 0.02503 1.00157 0.0
C1929 C 0.97485 0.98918 0.02835 0.0
C1930 C 0.99096 1.00162 0.01914 0.0
H1931 H 0.05841 0.09678 0.98304 0.0
H1932 H 0.03326 0.0768 0.99859 0.0
H1933 H 0.0475 0.99193 1.00415 0.0
H1934 H 0.95528 0.92904 0.03732 0.0
H1935 H 0.97959 0.94979 0.02175 0.0
C1936 C 0.78585 0.80628 0.72634 0.0
C1937 C 0.80647 0.82343 0.72898 0.0
C1938 C 0.77379 0.7916 0.73507 0.0
C1939 C 0.78626 0.76452 0.76419 0.0
H1940 H 0.71143 0.75353 0.76477 0.0
C1941 C 0.73489 0.70856 0.80155 0.0
C1942 C 0.71364 0.6925 0.79863 0.0
C1943 C 0.74623 0.72498 0.79324 0.0
C1944 C 0.73241 0.75609 0.76467 0.0
H1945 H 0.82947 0.83942 0.74312 0.0
H1946 H 0.80867 0.81365 0.75827 0.0
H1947 H 0.73045 0.78185 0.75004 0.0
H1948 H 0.68838 0.68041 0.78453 0.0
H1949 H 0.70828 0.70862 0.77004 0.0
H1950 H 0.78833 0.73847 0.77869 0.0
C1951 C 0.80215 0.81127 0.74939 0.0
C1952 C 0.74329 0.77242 0.75622 0.0
C1953 C 0.81409 0.82606 0.74067 0.0
C1954 C 0.7044 0.69286 0.78713 0.0
C1955 C 0.71579 0.70914 0.77882 0.0
C1956 C 0.77539 0.74807 0.7726 0.0
C1957 C 0.78208 0.7936 0.74668 0.0
C1958 C 0.77036 0.77679 0.75585 0.0
C1959 C 0.7367 0.72565 0.78177 0.0
C1960 C 0.74832 0.74353 0.77293 0.0
H1961 H 0.77954 0.80342 0.71747 0.0
H1962 H 0.75853 0.77802 0.73267 0.0
H1963 H 0.80723 0.76715 0.76405 0.0
H1964 H 0.7423 0.70901 0.81034 0.0
H1965 H 0.76209 0.73761 0.79588 0.0
C1966 C 0.64634 0.26947 0.23859 0.0
C1967 C 0.63562 0.24495 0.24123 0.0
C1968 C 0.66363 0.28163 0.24626 0.0
C1969 C 0.70634 0.26781 0.27183 0.0
H1970 H 0.70693 0.34333 0.27447 0.0
C1971 C 0.75895 0.32354 0.30868 0.0
C1972 C 0.77498 0.34448 0.30535 0.0
C1973 C 0.74271 0.31129 0.30061 0.0
C1974 C 0.70711 0.32223 0.27374 0.0
H1975 H 0.63415 0.21417 0.25404 0.0
H1976 H 0.66349 0.23572 0.26771 0.0
H1977 H 0.6763 0.32233 0.26124 0.0
H1978 H 0.78654 0.36911 0.291 0.0
H1979 H 0.75757 0.34798 0.27684 0.0
H1980 H 0.73659 0.2679 0.28469 0.0
C1981 C 0.65928 0.24531 0.25955 0.0
C1982 C 0.68962 0.31013 0.26612 0.0
C1983 C 0.6423 0.23298 0.25177 0.0
C1984 C 0.77443 0.35295 0.29376 0.0
C1985 C 0.7578 0.34099 0.28571 0.0
C1986 C 0.72351 0.27991 0.27958 0.0
C1987 C 0.67037 0.26976 0.25687 0.0
C1988 C 0.68897 0.28272 0.26504 0.0
C1989 C 0.74184 0.31998 0.28906 0.0
C1990 C 0.72408 0.30723 0.28061 0.0
H1991 H 0.64191 0.27895 0.23042 0.0
H1992 H 0.67211 0.30012 0.24373 0.0
H1993 H 0.70694 0.24674 0.27109 0.0
H1994 H 0.7592 0.31641 0.31753 0.0
H1995 H 0.73052 0.29524 0.30344 0.0
C1996 C 0.81273 0.20282 0.78244 0.0
C1997 C 0.83331 0.21904 0.78605 0.0
C1998 C 0.79094 0.21325 0.77676 0.0
C1999 C 0.7679 0.27175 0.76059 0.0
H2000 H 0.69947 0.24358 0.76757 0.0
C2001 C 0.67257 0.31846 0.74305 0.0
C2002 C 0.65352 0.30126 0.73868 0.0
C2003 C 0.69428 0.30897 0.74913 0.0
C2004 C 0.71845 0.25153 0.76544 0.0
H2005 H 0.84695 0.25907 0.78653 0.0
H2006 H 0.8089 0.27732 0.77672 0.0
H2007 H 0.73777 0.22614 0.77744 0.0
H2008 H 0.64272 0.26036 0.7374 0.0
H2009 H 0.68025 0.24399 0.74806 0.0
H2010 H 0.74846 0.29725 0.74863 0.0
C2011 C 0.80978 0.25642 0.7781 0.0
C2012 C 0.74047 0.24148 0.77109 0.0
C2013 C 0.83164 0.24595 0.78374 0.0
C2014 C 0.65663 0.27433 0.74075 0.0
C2015 C 0.67826 0.26487 0.74687 0.0
C2016 C 0.74585 0.28188 0.75498 0.0
C2017 C 0.78906 0.24022 0.77457 0.0
C2018 C 0.76554 0.25133 0.76869 0.0
C2019 C 0.69746 0.28204 0.75107 0.0
C2020 C 0.72086 0.2718 0.75729 0.0
H2021 H 0.81355 0.18196 0.7839 0.0
H2022 H 0.77568 0.20005 0.77397 0.0
H2023 H 0.78688 0.2796 0.75838 0.0
H2024 H 0.67073 0.33932 0.74184 0.0
H2025 H 0.70849 0.32277 0.7524 0.0
C2026 C 0.73142 0.82462 0.29252 0.0
C2027 C 0.70508 0.82308 0.29585 0.0
C2028 C 0.7412 0.80872 0.28365 0.0
C2029 C 0.72897 0.74683 0.26829 0.0
H2030 H 0.77643 0.77551 0.24542 0.0
C2031 C 0.76776 0.68593 0.22939 0.0
C2032 C 0.79415 0.68939 0.22637 0.0
C2033 C 0.75577 0.70238 0.23753 0.0
C2034 C 0.76342 0.76709 0.25181 0.0
H2035 H 0.6684 0.80339 0.2925 0.0
H2036 H 0.68542 0.77574 0.27697 0.0
H2037 H 0.7578 0.80396 0.26023 0.0
H2038 H 0.82835 0.71339 0.22952 0.0
H2039 H 0.80783 0.74125 0.24386 0.0
H2040 H 0.73492 0.70986 0.26 0.0
C2041 C 0.69853 0.78924 0.28125 0.0
C2042 C 0.75272 0.78344 0.26029 0.0
C2043 C 0.68871 0.80529 0.29007 0.0
C2044 C 0.80816 0.70974 0.23171 0.0
C2045 C 0.79623 0.72608 0.23984 0.0
C2046 C 0.73979 0.73042 0.25984 0.0
C2047 C 0.7249 0.79075 0.27795 0.0
C2048 C 0.73552 0.77348 0.26868 0.0
C2049 C 0.76986 0.7227 0.24285 0.0
C2050 C 0.75735 0.7403 0.25154 0.0
H2051 H 0.74449 0.83825 0.29673 0.0
H2052 H 0.76166 0.8102 0.2814 0.0
H2053 H 0.71599 0.7385 0.27472 0.0
H2054 H 0.75639 0.6704 0.22553 0.0
H2055 H 0.73536 0.69933 0.23956 0.0
C2056 C 0.57574 0.50361 0.06054 0.0
C2057 C 0.59161 0.48374 0.05593 0.0
C2058 C 0.56203 0.52053 0.05319 0.0
C2059 C 0.56444 0.55256 0.02565 0.0
H2060 H 0.48881 0.55513 0.02608 0.0
C2061 C 0.50817 0.61354 0.99183 0.0
C2062 C 0.48408 0.62466 0.99487 0.0
C2063 C 0.52072 0.59603 0.99928 0.0
C2064 C 0.50993 0.55515 0.02596 0.0
H2065 H 0.60591 0.46616 0.04007 0.0
H2066 H 0.58268 0.49651 0.02715 0.0
H2067 H 0.51194 0.52586 0.03928 0.0
H2068 H 0.45419 0.6264 1.00806 0.0
H2069 H 0.47662 0.59696 0.02148 0.0
H2070 H 0.56296 0.58256 1.01283 0.0
C2071 C 0.58055 0.49861 0.03646 0.0
C2072 C 0.52313 0.53816 0.03348 0.0
C2073 C 0.59373 0.48127 0.04382 0.0
C2074 C 0.47272 0.61794 1.00553 0.0
C2075 C 0.48558 0.60089 1.01316 0.0
C2076 C 0.55134 0.57 0.01833 0.0
C2077 C 0.56446 0.51827 0.04109 0.0
C2078 C 0.55046 0.53657 0.0333 0.0
C2079 C 0.50984 0.58963 1.01015 0.0
C2080 C 0.52382 0.57142 0.01826 0.0
H2081 H 0.57363 0.50574 0.06985 0.0
H2082 H 0.54978 0.53559 0.05694 0.0
H2083 H 0.58558 0.55185 0.02546 0.0
H2084 H 0.51709 0.61806 0.98355 0.0
H2085 H 0.53886 0.58733 0.9964 0.0
C2086 C 0.07313 0.45584 0.48677 0.0
C2087 C 0.07236 0.46492 0.47527 0.0
C2088 C 0.05814 0.46782 0.4954 0.0
C2089 C 0.02067 0.52813 0.50239 0.0
H2090 H 0.98827 0.48327 0.52534 0.0
C2091 C 0.94447 0.56582 0.53581 0.0
C2092 C 0.94748 0.55714 0.54733 0.0
C2093 C 0.95932 0.55489 0.52682 0.0
C2094 C 0.99734 0.4961 0.51905 0.0
H2095 H 0.05545 0.49398 0.46386 0.0
H2096 H 0.02899 0.51478 0.47889 0.0
H2097 H 0.01509 0.4641 0.5101 0.0
H2098 H 0.96891 0.53006 0.55829 0.0
H2099 H 0.99433 0.51092 0.54266 0.0
H2100 H 1.00258 0.56012 0.51135 0.0
C2101 C 0.04151 0.4986 0.48129 0.0
C2102 C 0.01282 0.48512 0.51032 0.0
C2103 C 0.05668 0.48669 0.47265 0.0
C2104 C 0.9656 0.53705 0.54956 0.0
C2105 C 0.98029 0.52605 0.54057 0.0
C2106 C 1.00504 0.53911 0.5111 0.0
C2107 C 0.04181 0.48913 0.49276 0.0
C2108 C 0.02489 0.50098 0.50192 0.0
C2109 C 0.97742 0.53487 0.5291 0.0
C2110 C 0.99335 0.52323 0.51959 0.0
H2111 H 0.08537 0.43943 0.48911 0.0
H2112 H 0.05942 0.46036 0.50418 0.0
H2113 H 0.02987 0.541 0.49617 0.0
H2114 H 0.93051 0.58092 0.53367 0.0
H2115 H 0.95639 0.5619 0.51804 0.0
C2116 C 0.04418 0.51991 0.04867 0.0
C2117 C 0.06309 0.53913 0.04637 0.0
C2118 C 0.02832 0.51017 0.0398 0.0
C2119 C 0.02215 0.50543 1.00771 0.0
H2120 H 0.94955 0.49178 0.01504 0.0
C2121 C 0.94558 0.47733 0.97271 0.0
C2122 C 0.92953 0.45599 0.9755 0.0
C2123 C 0.96158 0.48871 0.98117 0.0
C2124 C 0.96981 0.49535 1.01287 0.0
H2125 H 0.08061 0.5623 0.03266 0.0
H2126 H 0.05249 0.54589 0.0173 0.0
H2127 H 0.97851 0.50867 0.03003 0.0
H2128 H 0.917 0.4305 0.98942 0.0
H2129 H 0.94479 0.45033 1.00416 0.0
H2130 H 0.01321 0.49223 0.9905 0.0
C2131 C 0.05008 0.53817 0.02598 0.0
C2132 C 0.98648 0.50494 0.02148 0.0
C2133 C 0.06607 0.54783 0.03485 0.0
C2134 C 0.92933 0.44674 0.98698 0.0
C2135 C 0.94509 0.45825 0.99544 0.0
C2136 C 1.00539 0.49599 0.99907 0.0
C2137 C 0.03077 0.51943 0.02837 0.0
C2138 C 0.01295 0.50985 0.01906 0.0
C2139 C 0.9616 0.4792 0.99262 0.0
C2140 C 0.9791 0.4906 1.00159 0.0
H2141 H 0.04104 0.51273 0.05738 0.0
H2142 H 0.01403 0.49537 0.04195 0.0
H2143 H 0.04245 0.50869 1.00555 0.0
H2144 H 0.9463 0.48475 0.96392 0.0
H2145 H 0.97394 0.50497 0.97875 0.0
C2146 C 0.55825 0.58222 0.49824 0.0
C2147 C 0.54166 0.60118 0.49332 0.0
C2148 C 0.54814 0.56195 0.50501 0.0
C2149 C 0.49073 0.54176 0.52221 0.0
H2150 H 0.51498 0.47162 0.51545 0.0
C2151 C 0.43928 0.45001 0.54061 0.0
C2152 C 0.45477 0.42832 0.54356 0.0
C2153 C 0.45024 0.47162 0.535 0.0
C2154 C 0.50824 0.49108 0.51761 0.0
H2155 H 0.50119 0.61364 0.49203 0.0
H2156 H 0.48377 0.57863 0.50397 0.0
H2157 H 0.53369 0.50853 0.50509 0.0
H2158 H 0.4941 0.41275 0.54325 0.0
H2159 H 0.51334 0.4505 0.5337 0.0
H2160 H 0.4654 0.52439 0.5348 0.0
C2161 C 0.50466 0.57955 0.50257 0.0
C2162 C 0.51897 0.51227 0.51163 0.0
C2163 C 0.51473 0.59971 0.49572 0.0
C2164 C 0.48155 0.42894 0.54093 0.0
C2165 C 0.49256 0.45062 0.53542 0.0
C2166 C 0.48012 0.52058 0.52827 0.0
C2167 C 0.52119 0.56021 0.50716 0.0
C2168 C 0.51027 0.53784 0.51382 0.0
C2169 C 0.47703 0.47219 0.53228 0.0
C2170 C 0.48865 0.49491 0.52601 0.0
H2171 H 0.57911 0.58289 0.49682 0.0
H2172 H 0.56145 0.5476 0.50858 0.0
H2173 H 0.48381 0.56126 0.52419 0.0
H2174 H 0.41853 0.45001 0.54238 0.0
H2175 H 0.43754 0.48763 0.53257 0.0
C2176 C 0.10101 0.07882 0.28366 0.0
C2177 C 0.09002 0.07314 0.29456 0.0
C2178 C 0.09966 0.06065 0.27455 0.0
C2179 C 0.09261 0.98951 0.26963 0.0
H2180 H 0.08545 0.00964 0.23737 0.0
C2181 C 0.09598 0.9127 0.23246 0.0
C2182 C 0.11105 0.91962 0.22273 0.0
C2183 C 0.08952 0.93146 0.24091 0.0
C2184 C 0.08765 1.00365 0.24633 0.0
H2185 H 0.06782 0.0443 0.30418 0.0
H2186 H 0.06524 0.01294 0.28832 0.0
H2187 H 0.08145 0.04266 0.25254 0.0
H2188 H 0.13031 0.95199 0.21412 0.0
H2189 H 0.11935 0.98425 0.22874 0.0
H2190 H 0.09941 0.95064 0.26343 0.0
C2191 C 0.07534 0.03121 0.28686 0.0
C2192 C 0.08535 0.02264 0.25504 0.0
C2193 C 0.07665 0.04935 0.29594 0.0
C2194 C 0.1187 0.94586 0.22148 0.0
C2195 C 0.11222 0.96451 0.22987 0.0
C2196 C 0.09498 0.97053 0.26091 0.0
C2197 C 0.08732 0.03633 0.27611 0.0
C2198 C 0.0881 0.01591 0.26681 0.0
C2199 C 0.09786 0.95758 0.23979 0.0
C2200 C 0.0929 0.97737 0.24912 0.0
H2201 H 0.11155 0.09687 0.28228 0.0
H2202 H 0.10927 0.06525 0.26644 0.0
H2203 H 0.09522 0.98359 0.27857 0.0
H2204 H 0.08979 0.89269 0.2337 0.0
H2205 H 0.07816 0.92544 0.24836 0.0
C2206 C 0.18971 0.89905 0.53952 0.0
C2207 C 0.18347 0.87797 0.54682 0.0
C2208 C 0.21173 0.89818 0.53236 0.0
C2209 C 0.25721 0.85164 0.5181 0.0
H2210 H 0.29427 0.91538 0.51062 0.0
C2211 C 0.34469 0.85923 0.48492 0.0
C2212 C 0.34185 0.8798 0.4769 0.0
C2213 C 0.32748 0.85696 0.49441 0.0
C2214 C 0.28413 0.89739 0.51262 0.0
H2215 H 0.19619 0.83964 0.55251 0.0
H2216 H 0.23497 0.8383 0.54012 0.0
H2217 H 0.26135 0.91578 0.52585 0.0
H2218 H 0.31822 0.91369 0.47254 0.0
H2219 H 0.28891 0.90983 0.48892 0.0
H2220 H 0.28018 0.83342 0.50472 0.0
C2221 C 0.22252 0.8554 0.53982 0.0
C2222 C 0.26513 0.89762 0.52133 0.0
C2223 C 0.20039 0.85627 0.54702 0.0
C2224 C 0.32123 0.89764 0.47851 0.0
C2225 C 0.30441 0.89556 0.48798 0.0
C2226 C 0.27646 0.85137 0.50941 0.0
C2227 C 0.22832 0.87623 0.53228 0.0
C2228 C 0.25083 0.87496 0.52399 0.0
C2229 C 0.30744 0.87545 0.49613 0.0
C2230 C 0.28961 0.87444 0.50636 0.0
H2231 H 0.17713 0.91605 0.53907 0.0
H2232 H 0.21519 0.91446 0.52657 0.0
H2233 H 0.24655 0.83383 0.51984 0.0
H2234 H 0.36034 0.84516 0.48395 0.0
H2235 H 0.33025 0.8412 0.50055 0.0
C2236 C 0.37568 0.05887 0.72692 0.0
C2237 C 0.3922 0.08071 0.72615 0.0
C2238 C 0.37757 0.04151 0.73624 0.0
C2239 C 0.42092 0.01924 0.76009 0.0
H2240 H 0.35618 0.99221 0.77269 0.0
C2241 C 0.41741 0.95415 0.80144 0.0
C2242 C 0.40039 0.9326 0.80118 0.0
C2243 C 0.41677 0.97304 0.79264 0.0
C2244 C 0.37447 0.99934 0.76922 0.0
H2245 H 0.4241 0.10107 0.73453 0.0
H2246 H 0.42732 0.07074 0.75092 0.0
H2247 H 0.35493 0.02341 0.75678 0.0
H2248 H 0.3692 0.91425 0.79141 0.0
H2249 H 0.36812 0.94705 0.77611 0.0
H2250 H 0.44041 0.99505 0.77258 0.0
C2251 C 0.41299 0.06698 0.74422 0.0
C2252 C 0.37377 0.01727 0.76006 0.0
C2253 C 0.41111 0.08443 0.73484 0.0
C2254 C 0.38254 0.9306 0.79194 0.0
C2255 C 0.38184 0.94952 0.78317 0.0
C2256 C 0.42162 1.00129 0.76928 0.0
C2257 C 0.39598 0.04546 0.74512 0.0
C2258 C 0.39698 0.02726 0.75526 0.0
C2259 C 0.399 0.97096 0.78337 0.0
C2260 C 0.39839 0.99089 0.77389 0.0
H2261 H 0.36101 0.05519 0.72036 0.0
H2262 H 0.36454 0.02488 0.73645 0.0
H2263 H 0.43919 0.0263 0.75656 0.0
H2264 H 0.43143 0.95635 0.80841 0.0
H2265 H 0.43007 0.98942 0.79315 0.0
C2266 C 0.31763 0.10369 0.04321 0.0
C2267 C 0.33185 0.12517 0.04742 0.0
C2268 C 0.29825 0.10694 0.03481 0.0
C2269 C 0.27339 0.15226 1.01211 0.0
H2270 H 0.21308 0.10676 0.01389 0.0
C2271 C 0.18484 0.15406 0.97943 0.0
C2272 C 0.17853 0.12926 0.97497 0.0
C2273 C 0.20274 0.15657 0.98864 0.0
C2274 C 0.22979 0.11962 1.01327 0.0
H2275 H 0.3368 0.16706 0.04595 0.0
H2276 H 0.30244 0.17287 0.03133 0.0
H2277 H 0.24546 0.10592 0.02933 0.0
H2278 H 0.18598 0.08771 0.9768 0.0
H2279 H 0.21644 0.09209 0.99282 0.0
H2280 H 0.25727 0.16592 0.99596 0.0
C2281 C 0.3066 0.15338 0.03448 0.0
C2282 C 0.24851 0.11905 0.02209 0.0
C2283 C 0.32623 0.15008 0.0429 0.0
C2284 C 0.19035 0.10714 0.97997 0.0
C2285 C 0.20775 0.10961 0.98922 0.0
C2286 C 0.25441 0.15301 1.0033 0.0
C2287 C 0.29218 0.13183 0.03038 0.0
C2288 C 0.27098 0.1348 0.02151 0.0
C2289 C 0.21418 0.13429 0.9937 0.0
C2290 C 0.23275 0.13619 1.00364 0.0
H2291 H 0.32153 0.08415 0.04636 0.0
H2292 H 0.28818 0.08973 0.03169 0.0
H2293 H 0.29042 0.16461 1.01131 0.0
H2294 H 0.17614 0.17148 0.97576 0.0
H2295 H 0.2073 0.17585 0.99193 0.0
C2296 C 0.88337 0.08207 0.7903 0.0
C2297 C 0.89666 0.08024 0.80096 0.0
C2298 C 0.88502 0.06197 0.7821 0.0
C2299 C 0.90097 0.99197 0.77808 0.0
H2300 H 0.90905 0.01273 0.74593 0.0
C2301 C 0.91029 0.91689 0.73983 0.0
C2302 C 0.89473 0.92279 0.73011 0.0
C2303 C 0.91352 0.93533 0.74879 0.0
C2304 C 0.90666 0.00654 0.75485 0.0
H2305 H 0.92156 0.0553 0.81141 0.0
H2306 H 0.92431 0.02013 0.79708 0.0
H2307 H 0.90782 0.04592 0.76104 0.0
H2308 H 0.87088 0.95293 0.72213 0.0
H2309 H 0.87645 0.98455 0.73753 0.0
H2310 H 0.89935 0.9525 0.77178 0.0
C2311 C 0.9126 0.03718 0.7951 0.0
C2312 C 0.90589 0.02562 0.76353 0.0
C2313 C 0.91107 0.0574 0.80331 0.0
C2314 C 0.883 0.9476 0.72947 0.0
C2315 C 0.88636 0.96592 0.7383 0.0
C2316 C 0.90166 0.97279 0.76935 0.0
C2317 C 0.89993 0.0394 0.78431 0.0
C2318 C 0.9025 0.01867 0.77524 0.0
C2319 C 0.90153 0.9601 0.74812 0.0
C2320 C 0.90395 0.9799 0.7576 0.0
H2321 H 0.87202 0.09928 0.78818 0.0
H2322 H 0.8746 0.06416 0.77398 0.0
H2323 H 0.89829 0.98592 0.78701 0.0
H2324 H 0.91951 0.89792 0.74061 0.0
H2325 H 0.92544 0.93025 0.75622 0.0
C2326 C 0.69016 0.15479 0.53728 0.0
C2327 C 0.68901 0.13179 0.54393 0.0
C2328 C 0.70672 0.15625 0.52755 0.0
C2329 C 0.73999 0.11469 0.506 0.0
H2330 H 0.79256 0.16883 0.50404 0.0
C2331 C 0.83287 0.10135 0.47855 0.0
C2332 C 0.84446 0.12311 0.47323 0.0
C2333 C 0.81142 0.10439 0.48595 0.0
C2334 C 0.77771 0.15381 0.50429 0.0
H2335 H 0.70389 0.09218 0.5454 0.0
H2336 H 0.73199 0.09464 0.52851 0.0
H2337 H 0.7588 0.17136 0.51901 0.0
H2338 H 0.84202 0.16519 0.4713 0.0
H2339 H 0.80425 0.17044 0.484 0.0
H2340 H 0.75871 0.09695 0.4914 0.0
C2341 C 0.72035 0.11158 0.53079 0.0
C2342 C 0.75838 0.1553 0.51289 0.0
C2343 C 0.70434 0.11028 0.54054 0.0
C2344 C 0.83365 0.14798 0.47529 0.0
C2345 C 0.81206 0.15102 0.48265 0.0
C2346 C 0.75908 0.11332 0.49735 0.0
C2347 C 0.72184 0.13452 0.52418 0.0
C2348 C 0.73976 0.13537 0.51402 0.0
C2349 C 0.80079 0.12929 0.48818 0.0
C2350 C 0.77869 0.13245 0.49656 0.0
H2351 H 0.67861 0.17168 0.53969 0.0
H2352 H 0.70752 0.17421 0.5226 0.0
H2353 H 0.72565 0.09921 0.50657 0.0
H2354 H 0.84074 0.08192 0.47724 0.0
H2355 H 0.80367 0.08721 0.49018 0.0
C2356 C 0.60418 0.06985 0.227 0.0
C2357 C 0.60651 0.0965 0.22978 0.0
C2358 C 0.60642 0.05063 0.23562 0.0
C2359 C 0.63119 0.04045 0.26579 0.0
H2360 H 0.59096 0.97652 0.26392 0.0
C2361 C 0.65446 0.95317 0.29543 0.0
C2362 C 0.63406 0.93751 0.29969 0.0
C2363 C 0.64983 0.97231 0.28704 0.0
C2364 C 0.60215 0.99436 0.26467 0.0
H2365 H 0.61268 0.12375 0.24393 0.0
H2366 H 0.61595 0.0905 0.25894 0.0
H2367 H 0.58494 0.0104 0.24928 0.0
H2368 H 0.59263 0.92974 0.29832 0.0
H2369 H 0.5843 0.96374 0.28378 0.0
H2370 H 0.64781 0.02491 0.28133 0.0
C2371 C 0.61303 0.08425 0.25005 0.0
C2372 C 0.59898 0.01371 0.25615 0.0
C2373 C 0.61102 0.10343 0.24142 0.0
C2374 C 0.60879 0.94145 0.29524 0.0
C2375 C 0.60407 0.96087 0.28685 0.0
C2376 C 0.63421 0.02124 0.27432 0.0
C2377 C 0.61085 0.05752 0.2473 0.0
C2378 C 0.61362 0.037 0.25652 0.0
C2379 C 0.62456 0.9767 0.28268 0.0
C2380 C 0.62 0.99774 0.27384 0.0
H2381 H 0.60076 0.06377 0.21812 0.0
H2382 H 0.60505 0.03033 0.23307 0.0
H2383 H 0.64309 0.05785 0.26638 0.0
H2384 H 0.67427 0.95058 0.29851 0.0
H2385 H 0.66628 0.98349 0.28388 0.0
C2386 C 0.68959 0.86241 0.9814 0.0
C2387 C 0.68064 0.88768 0.97865 0.0
C2388 C 0.70794 0.85864 0.99034 0.0
C2389 C 0.73172 0.88862 0.01726 0.0
H2390 H 0.79822 0.85473 1.01151 0.0
C2391 C 0.81918 0.90778 0.04682 0.0
C2392 C 0.83734 0.88791 0.04926 0.0
C2393 C 0.79942 0.90407 0.03865 0.0
C2394 C 0.77958 0.86382 0.01336 0.0
H2395 H 0.68359 0.92862 0.98331 0.0
H2396 H 0.71474 0.92196 0.99897 0.0
H2397 H 0.76431 0.85432 0.99647 0.0
H2398 H 0.84884 0.84836 0.0449 0.0
H2399 H 0.81381 0.84164 0.03064 0.0
H2400 H 0.74654 0.89819 0.03405 0.0
C2401 C 0.70788 0.9051 0.99418 0.0
C2402 C 0.76018 0.86361 1.00472 0.0
C2403 C 0.69009 0.90891 0.98515 0.0
C2404 C 0.83517 0.86408 0.04324 0.0
C2405 C 0.81515 0.86029 0.03503 0.0
C2406 C 0.75086 0.88857 0.0259 0.0
C2407 C 0.71712 0.87999 0.99687 0.0
C2408 C 0.73633 0.87669 1.00647 0.0
C2409 C 0.79689 0.88025 0.03268 0.0
C2410 C 0.77542 0.87694 0.02396 0.0
H2411 H 0.68276 0.84568 0.97652 0.0
H2412 H 0.71471 0.83906 0.99225 0.0
H2413 H 0.71337 0.89849 0.01893 0.0
H2414 H 0.82027 0.92652 0.05116 0.0
H2415 H 0.7863 0.9202 0.03691 0.0
C2416 C 0.60562 0.44362 0.72781 0.0
C2417 C 0.62852 0.42908 0.72573 0.0
C2418 C 0.60551 0.46423 0.73583 0.0
C2419 C 0.63958 0.48555 0.76216 0.0
H2420 H 0.60665 0.5528 0.75696 0.0
C2421 C 0.65544 0.56966 0.79401 0.0
C2422 C 0.6348 0.58677 0.79668 0.0
C2423 C 0.65326 0.55149 0.78506 0.0
C2424 C 0.6156 0.534 0.75862 0.0
H2425 H 0.66947 0.42551 0.73023 0.0
H2426 H 0.66922 0.46126 0.74424 0.0
H2427 H 0.60595 0.5196 0.74162 0.0
H2428 H 0.59566 0.59843 0.79177 0.0
H2429 H 0.59151 0.56598 0.77614 0.0
H2430 H 0.64883 0.49937 0.77914 0.0
C2431 C 0.6513 0.45661 0.7397 0.0
C2432 C 0.6153 0.51502 0.74981 0.0
C2433 C 0.65148 0.43622 0.7316 0.0
C2434 C 0.6119 0.58548 0.78996 0.0
C2435 C 0.6096 0.56697 0.78097 0.0
C2436 C 0.63965 0.50431 0.77097 0.0
C2437 C 0.62822 0.47058 0.74207 0.0
C2438 C 0.62767 0.49073 0.75142 0.0
C2439 C 0.63021 0.5495 0.7785 0.0
C2440 C 0.62811 0.52901 0.76928 0.0
H2441 H 0.58757 0.43871 0.72343 0.0
H2442 H 0.5874 0.47453 0.73748 0.0
H2443 H 0.64871 0.46682 0.7638 0.0
H2444 H 0.67358 0.57029 0.79884 0.0
H2445 H 0.66987 0.53903 0.78324 0.0
C2446 C 0.80403 0.386 0.97659 0.0
C2447 C 0.82599 0.36965 0.97558 0.0
C2448 C 0.78464 0.381 0.98474 0.0
C2449 C 0.77149 0.34895 1.0126 0.0
H2450 H 0.7004 0.36756 1.00436 0.0
C2451 C 0.68287 0.35416 0.04519 0.0
C2452 C 0.67379 0.38005 0.0458 0.0
C2453 C 0.69996 0.3465 0.03626 0.0
C2454 C 0.72008 0.36195 1.00676 0.0
H2455 H 0.84468 0.33498 0.98248 0.0
H2456 H 0.81033 0.32608 0.99692 0.0
H2457 H 0.73366 0.3648 0.98928 0.0
H2458 H 0.67451 0.41787 0.03741 0.0
H2459 H 0.70317 0.40424 0.0216 0.0
H2460 H 0.75761 0.34669 0.0302 0.0
C2461 C 0.80838 0.3429 0.99129 0.0
C2462 C 0.73921 0.36054 0.99815 0.0
C2463 C 0.82799 0.34794 0.98301 0.0
C2464 C 0.68116 0.39777 0.03711 0.0
C2465 C 0.69753 0.38998 0.02807 0.0
C2466 C 0.75215 0.35003 0.02124 0.0
C2467 C 0.78636 0.35937 0.99218 0.0
C2468 C 0.76542 0.35522 1.00101 0.0
C2469 C 0.70749 0.36445 0.02765 0.0
C2470 C 0.72651 0.35753 0.01843 0.0
H2471 H 0.80172 0.40301 0.97109 0.0
H2472 H 0.76843 0.39455 0.98534 0.0
H2473 H 0.79144 0.34485 0.01513 0.0
H2474 H 0.67771 0.34024 0.05188 0.0
H2475 H 0.70744 0.3267 0.03611 0.0
C2476 C 0.85453 0.46933 0.29961 0.0
C2477 C 0.86877 0.44613 0.30128 0.0
C2478 C 0.86072 0.48645 0.29058 0.0
C2479 C 0.89289 0.48871 0.26189 0.0
H2480 H 0.88415 0.56344 0.26585 0.0
C2481 C 0.87491 0.55812 0.22345 0.0
C2482 C 0.88444 0.58386 0.22377 0.0
C2483 C 0.87818 0.54136 0.2329 0.0
C2484 C 0.8871 0.54268 0.2646 0.0
H2485 H 0.90109 0.423 0.29477 0.0
H2486 H 0.91204 0.45303 0.27898 0.0
H2487 H 0.88045 0.53463 0.28259 0.0
H2488 H 0.90582 0.61182 0.2342 0.0
H2489 H 0.91171 0.58236 0.25078 0.0
H2490 H 0.89945 0.49676 0.24389 0.0
C2491 C 0.89586 0.45783 0.28464 0.0
C2492 C 0.88463 0.52608 0.2742 0.0
C2493 C 0.88966 0.44065 0.29373 0.0
C2494 C 0.89827 0.59211 0.23366 0.0
C2495 C 0.90144 0.57528 0.2432 0.0
C2496 C 0.89536 0.50531 0.25229 0.0
C2497 C 0.88138 0.48094 0.28291 0.0
C2498 C 0.88689 0.4988 0.27294 0.0
C2499 C 0.89105 0.54979 0.243 0.0
C2500 C 0.8919 0.53249 0.25346 0.0
H2501 H 0.83828 0.47424 0.30522 0.0
H2502 H 0.84881 0.50375 0.28943 0.0
H2503 H 0.89466 0.46785 0.26055 0.0
H2504 H 0.8642 0.55104 0.21598 0.0
H2505 H 0.8696 0.52207 0.23244 0.0
C2506 C 0.6829 0.64678 0.48154 0.0
C2507 C 0.6702 0.62292 0.47935 0.0
C2508 C 0.70417 0.64803 0.4892 0.0
C2509 C 0.75354 0.60616 0.50421 0.0
H2510 H 0.75865 0.66449 0.52557 0.0
C2511 C 0.81707 0.60129 0.54528 0.0
C2512 C 0.83229 0.62309 0.54835 0.0
C2513 C 0.79873 0.60278 0.53633 0.0
C2514 C 0.75771 0.64824 0.51957 0.0
H2515 H 0.67024 0.58161 0.48349 0.0
H2516 H 0.70684 0.58381 0.49688 0.0
H2517 H 0.72424 0.66406 0.51088 0.0
H2518 H 0.83979 0.66376 0.54439 0.0
H2519 H 0.80735 0.66646 0.52873 0.0
H2520 H 0.78659 0.59006 0.51307 0.0
C2521 C 0.70076 0.60157 0.49255 0.0
C2522 C 0.73798 0.64797 0.51111 0.0
C2523 C 0.67958 0.60031 0.48489 0.0
C2524 C 0.82842 0.64661 0.54227 0.0
C2525 C 0.80978 0.64817 0.53332 0.0
C2526 C 0.77311 0.60636 0.51268 0.0
C2527 C 0.7133 0.62546 0.49489 0.0
C2528 C 0.73536 0.62673 0.50341 0.0
C2529 C 0.79487 0.62616 0.53018 0.0
C2530 C 0.77524 0.62719 0.5206 0.0
H2531 H 0.67625 0.6646 0.47742 0.0
H2532 H 0.71349 0.66672 0.49063 0.0
H2533 H 0.75263 0.58976 0.49829 0.0
H2534 H 0.81939 0.58283 0.54975 0.0
H2535 H 0.78733 0.58558 0.5343 0.0
C2536 C 0.41338 0.57741 0.28984 0.0
C2537 C 0.40495 0.56919 0.30088 0.0
C2538 C 0.41602 0.55925 0.28073 0.0
C2539 C 0.38593 0.49822 0.27161 0.0
H2540 H 0.44138 0.49152 0.24886 0.0
C2541 C 0.37042 0.44414 0.22884 0.0
C2542 C 0.38759 0.42339 0.22632 0.0
C2543 C 0.37603 0.46202 0.23762 0.0
C2544 C 0.42587 0.49314 0.25521 0.0
H2545 H 0.39486 0.53522 0.31119 0.0
H2546 H 0.3994 0.50401 0.29545 0.0
H2547 H 0.4458 0.52299 0.26498 0.0
H2548 H 0.42481 0.40598 0.23086 0.0
H2549 H 0.43484 0.43787 0.24627 0.0
H2550 H 0.36569 0.46905 0.26184 0.0
C2551 C 0.40356 0.52439 0.29374 0.0
C2552 C 0.4283 0.51124 0.26435 0.0
C2553 C 0.401 0.54235 0.30278 0.0
C2554 C 0.41113 0.42164 0.23259 0.0
C2555 C 0.41692 0.43992 0.24136 0.0
C2556 C 0.38335 0.48059 0.26244 0.0
C2557 C 0.41021 0.53267 0.28252 0.0
C2558 C 0.40833 0.51387 0.27267 0.0
C2559 C 0.3991 0.45997 0.2441 0.0
C2560 C 0.4032 0.47786 0.25412 0.0
H2561 H 0.41655 0.59794 0.28809 0.0
H2562 H 0.42118 0.5662 0.27215 0.0
H2563 H 0.37009 0.49994 0.27779 0.0
H2564 H 0.35217 0.44633 0.22419 0.0
H2565 H 0.36205 0.47738 0.23945 0.0
C2566 C 0.34388 0.60696 0.99088 0.0
C2567 C 0.3499 0.63037 0.98509 0.0
C2568 C 0.32248 0.60553 0.99844 0.0
C2569 C 0.26005 0.63812 1.0065 0.0
H2570 H 0.26966 0.60053 0.03537 0.0
C2571 C 0.18091 0.63547 0.04319 0.0
C2572 C 0.17773 0.61148 0.04896 0.0
C2573 C 0.2016 0.6391 0.03531 0.0
C2574 C 0.26646 0.61088 0.0273 0.0
H2575 H 0.33755 0.67053 0.98259 0.0
H2576 H 0.30028 0.668 0.99575 0.0
H2577 H 0.30564 0.60371 0.02168 0.0
H2578 H 0.19371 0.57238 0.05074 0.0
H2579 H 0.22904 0.57853 0.03708 0.0
H2580 H 0.2207 0.64509 1.01213 0.0
C2581 C 0.31206 0.65068 0.99441 0.0
C2582 C 0.28717 0.61268 0.01942 0.0
C2583 C 0.33355 0.65215 0.98688 0.0
C2584 C 0.19555 0.59124 0.04657 0.0
C2585 C 0.21606 0.59482 0.03875 0.0
C2586 C 0.23922 0.63623 0.01439 0.0
C2587 C 0.3064 0.62744 1.0004 0.0
C2588 C 0.28424 0.6261 1.00886 0.0
C2589 C 0.21959 0.61883 0.03305 0.0
C2590 C 0.24204 0.62231 0.02485 0.0
H2591 H 0.35594 0.58976 0.98971 0.0
H2592 H 0.31851 0.58717 1.00275 0.0
H2593 H 0.257 0.64848 0.99842 0.0
H2594 H 0.16755 0.65148 0.04481 0.0
H2595 H 0.20375 0.65792 0.03114 0.0
C2596 C 0.11521 0.42022 0.78849 0.0
C2597 C 0.13478 0.42368 0.79692 0.0
C2598 C 0.11163 0.43876 0.77964 0.0
C2599 C 0.12652 0.50782 0.77207 0.0
H2600 H 0.1157 0.48523 0.74032 0.0
C2601 C 0.11027 0.58216 0.73503 0.0
C2602 C 0.12324 0.57742 0.72447 0.0
C2603 C 0.10939 0.56303 0.7437 0.0
C2604 C 0.11883 0.49188 0.74913 0.0
H2605 H 0.16574 0.44956 0.80265 0.0
H2606 H 0.1596 0.48147 0.78734 0.0
H2607 H 0.11835 0.45279 0.75583 0.0
H2608 H 0.14511 0.54848 0.71473 0.0
H2609 H 0.14385 0.51524 0.72989 0.0
H2610 H 0.1278 0.54677 0.7654 0.0
C2611 C 0.14678 0.46468 0.78758 0.0
C2612 C 0.12002 0.47327 0.75805 0.0
C2613 C 0.15041 0.44621 0.79635 0.0
C2614 C 0.13495 0.55285 0.72274 0.0
C2615 C 0.13407 0.53368 0.73142 0.0
C2616 C 0.12528 0.52638 0.76318 0.0
C2617 C 0.12741 0.46124 0.77908 0.0
C2618 C 0.12422 0.48099 0.76963 0.0
C2619 C 0.12147 0.53859 0.74206 0.0
C2620 C 0.12166 0.51869 0.75156 0.0
H2621 H 0.10285 0.40308 0.78866 0.0
H2622 H 0.09638 0.43557 0.77328 0.0
H2623 H 0.12944 0.51454 0.78089 0.0
H2624 H 0.10089 0.60078 0.73666 0.0
H2625 H 0.09916 0.5674 0.75169 0.0
C2626 C 0.17125 0.35872 0.48249 0.0
C2627 C 0.17237 0.38062 0.47512 0.0
C2628 C 0.18816 0.35669 0.49209 0.0
C2629 C 0.22582 0.39788 0.51213 0.0
H2630 H 0.27109 0.33826 0.5172 0.0
C2631 C 0.31689 0.40595 0.54092 0.0
C2632 C 0.3251 0.38448 0.54759 0.0
C2633 C 0.29626 0.4036 0.53304 0.0
C2634 C 0.25828 0.3549 0.51607 0.0
H2635 H 0.19239 0.41738 0.4721 0.0
H2636 H 0.22113 0.41395 0.48872 0.0
H2637 H 0.23827 0.33684 0.50174 0.0
H2638 H 0.31767 0.34363 0.55125 0.0
H2639 H 0.28123 0.33962 0.53762 0.0
H2640 H 0.24548 0.41608 0.52633 0.0
C2641 C 0.2073 0.39836 0.48714 0.0
C2642 C 0.23949 0.35405 0.50718 0.0
C2643 C 0.19084 0.40021 0.47753 0.0
C2644 C 0.31187 0.36059 0.54626 0.0
C2645 C 0.29107 0.35825 0.53838 0.0
C2646 C 0.24431 0.39864 0.52104 0.0
C2647 C 0.20609 0.37675 0.49459 0.0
C2648 C 0.22355 0.37583 0.50493 0.0
C2649 C 0.28301 0.37973 0.53163 0.0
C2650 C 0.26135 0.37748 0.52295 0.0
H2651 H 0.15728 0.34329 0.48087 0.0
H2652 H 0.18684 0.33977 0.4977 0.0
H2653 H 0.21351 0.41481 0.51073 0.0
H2654 H 0.32668 0.42461 0.54162 0.0
H2655 H 0.29112 0.42047 0.52786 0.0
loop_
_geom_bond_atom_site_label_1
_geom_bond_atom_site_label_2
_geom_bond_distance
_geom_bond_site_symmetry_2
_ccdc_geom_bond_type
Cu0 N1 1.999 . S
Cu0 O6 1.974 . S
Cu0 N11 1.985 . S
Cu0 O20 1.959 . S
N1 Cu0 1.999 . S
N1 C3 1.263 . S
N1 C5 1.389 . S
N2 C3 1.358 . S
N2 C4 1.400 . S
C3 N1 1.263 . S
C3 N2 1.358 . S
C3 H9 0.930 . S
C4 N2 1.400 . S
C4 C5 1.351 . S
C4 H21 0.930 . S
C5 N1 1.389 . S
C5 C4 1.351 . S
C5 H10 0.930 . S
O6 Cu0 1.974 . S
O6 C16 1.282 . S
C7 O8 1.261 . S
C7 O20 1.251 . S
O8 C7 1.261 . S
H9 C3 0.930 . S
H10 C5 0.930 . S
N11 Cu0 1.985 . S
N11 C13 1.335 . S
N11 C14 1.390 . S
N12 C13 1.345 . S
N12 C15 1.336 . S
C13 N11 1.335 . S
C13 N12 1.345 . S
C13 H18 0.930 . S
C14 N11 1.390 . S
C14 C15 1.346 . S
C14 H19 0.930 . S
C15 N12 1.336 . S
C15 C14 1.346 . S
C15 H22 0.929 . S
C16 O6 1.282 . S
C16 O17 1.216 . S
O17 C16 1.216 . S
H18 C13 0.930 . S
H19 C14 0.930 . S
O20 Cu0 1.959 . S
O20 C7 1.251 . S
H21 C4 0.930 . S
H22 C15 0.929 . S
Cu23 N24 1.999 . S
Cu23 O29 1.974 . S
Cu23 N34 1.985 . S
Cu23 O43 1.959 . S
N24 Cu23 1.999 . S
N24 C26 1.263 . S
N24 C28 1.389 . S
N25 C26 1.358 . S
N25 C27 1.400 . S
C26 N24 1.263 . S
C26 N25 1.358 . S
C26 H32 0.930 . S
C27 N25 1.400 . S
C27 C28 1.351 . S
C27 H44 0.930 . S
C28 N24 1.389 . S
C28 C27 1.351 . S
C28 H33 0.930 . S
O29 Cu23 1.974 . S
O29 C39 1.282 . S
C30 O31 1.261 . S
C30 O43 1.251 . S
O31 C30 1.261 . S
H32 C26 0.930 . S
H33 C28 0.930 . S
N34 Cu23 1.985 . S
N34 C36 1.335 . S
N34 C37 1.390 . S
N35 C36 1.345 . S
N35 C38 1.336 . S
C36 N34 1.335 . S
C36 N35 1.345 . S
C36 H41 0.930 . S
C37 N34 1.390 . S
C37 C38 1.346 . S
C37 H42 0.930 . S
C38 N35 1.336 . S
C38 C37 1.346 . S
C38 H45 0.929 . S
C39 O29 1.282 . S
C39 O40 1.216 . S
O40 C39 1.216 . S
H41 C36 0.930 . S
H42 C37 0.930 . S
O43 Cu23 1.959 . S
O43 C30 1.251 . S
H44 C27 0.930 . S
H45 C38 0.929 . S
Cu46 N47 1.999 . S
Cu46 O52 1.974 . S
Cu46 N57 1.985 . S
Cu46 O66 1.959 . S
N47 Cu46 1.999 . S
N47 C49 1.263 . S
N47 C51 1.389 . S
N48 C49 1.358 . S
N48 C50 1.400 . S
C49 N47 1.263 . S
C49 N48 1.358 . S
C49 H55 0.930 . S
C50 N48 1.400 . S
C50 C51 1.351 . S
C50 H67 0.930 . S
C51 N47 1.389 . S
C51 C50 1.351 . S
C51 H56 0.930 . S
O52 Cu46 1.974 . S
O52 C62 1.282 . S
C53 O54 1.261 . S
C53 O66 1.251 . S
O54 C53 1.261 . S
H55 C49 0.930 . S
H56 C51 0.930 . S
N57 Cu46 1.985 . S
N57 C59 1.335 . S
N57 C60 1.390 . S
N58 C59 1.345 . S
N58 C61 1.336 . S
C59 N57 1.335 . S
C59 N58 1.345 . S
C59 H64 0.930 . S
C60 N57 1.390 . S
C60 C61 1.346 . S
C60 H65 0.930 . S
C61 N58 1.336 . S
C61 C60 1.346 . S
C61 H68 0.929 . S
C62 O52 1.282 . S
C62 O63 1.216 . S
O63 C62 1.216 . S
H64 C59 0.930 . S
H65 C60 0.930 . S
O66 Cu46 1.959 . S
O66 C53 1.251 . S
H67 C50 0.930 . S
H68 C61 0.929 . S
Cu69 N70 1.999 . S
Cu69 O75 1.974 . S
Cu69 N80 1.985 . S
Cu69 O89 1.959 . S
N70 Cu69 1.999 . S
N70 C72 1.263 . S
N70 C74 1.389 . S
N71 C72 1.358 . S
N71 C73 1.400 . S
C72 N70 1.263 . S
C72 N71 1.358 . S
C72 H78 0.930 . S
C73 N71 1.400 . S
C73 C74 1.351 . S
C73 H90 0.930 . S
C74 N70 1.389 . S
C74 C73 1.351 . S
C74 H79 0.930 . S
O75 Cu69 1.974 . S
O75 C85 1.282 . S
C76 O77 1.261 . S
C76 O89 1.251 . S
O77 C76 1.261 . S
H78 C72 0.930 . S
H79 C74 0.930 . S
N80 Cu69 1.985 . S
N80 C82 1.335 . S
N80 C83 1.390 . S
N81 C82 1.345 . S
N81 C84 1.336 . S
C82 N80 1.335 . S
C82 N81 1.345 . S
C82 H87 0.930 . S
C83 N80 1.390 . S
C83 C84 1.346 . S
C83 H88 0.930 . S
C84 N81 1.336 . S
C84 C83 1.346 . S
C84 H91 0.929 . S
C85 O75 1.282 . S
C85 O86 1.216 . S
O86 C85 1.216 . S
H87 C82 0.930 . S
H88 C83 0.930 . S
O89 Cu69 1.959 . S
O89 C76 1.251 . S
H90 C73 0.930 . S
H91 C84 0.929 . S
Cu92 N93 1.999 . S
Cu92 O98 1.974 . S
Cu92 N103 1.985 . S
Cu92 O112 1.959 . S
N93 Cu92 1.999 . S
N93 C95 1.263 . S
N93 C97 1.389 . S
N94 C95 1.358 . S
N94 C96 1.400 . S
C95 N93 1.263 . S
C95 N94 1.358 . S
C95 H101 0.930 . S
C96 N94 1.400 . S
C96 C97 1.351 . S
C96 H113 0.930 . S
C97 N93 1.389 . S
C97 C96 1.351 . S
C97 H102 0.930 . S
O98 Cu92 1.974 . S
O98 C108 1.282 . S
C99 O100 1.261 . S
C99 O112 1.251 . S
O100 C99 1.261 . S
H101 C95 0.930 . S
H102 C97 0.930 . S
N103 Cu92 1.985 . S
N103 C105 1.335 . S
N103 C106 1.390 . S
N104 C105 1.345 . S
N104 C107 1.336 . S
C105 N103 1.335 . S
C105 N104 1.345 . S
C105 H110 0.930 . S
C106 N103 1.390 . S
C106 C107 1.346 . S
C106 H111 0.930 . S
C107 N104 1.336 . S
C107 C106 1.346 . S
C107 H114 0.929 . S
C108 O98 1.282 . S
C108 O109 1.216 . S
O109 C108 1.216 . S
H110 C105 0.930 . S
H111 C106 0.930 . S
O112 Cu92 1.959 . S
O112 C99 1.251 . S
H113 C96 0.930 . S
H114 C107 0.929 . S
Cu115 N116 1.999 . S
Cu115 O121 1.974 . S
Cu115 N126 1.985 . S
Cu115 O135 1.959 . S
N116 Cu115 1.999 . S
N116 C118 1.263 . S
N116 C120 1.389 . S
N117 C118 1.358 . S
N117 C119 1.400 . S
C118 N116 1.263 . S
C118 N117 1.358 . S
C118 H124 0.930 . S
C119 N117 1.400 . S
C119 C120 1.351 . S
C119 H136 0.930 . S
C120 N116 1.389 . S
C120 C119 1.351 . S
C120 H125 0.930 . S
O121 Cu115 1.974 . S
O121 C131 1.282 . S
C122 O123 1.261 . S
C122 O135 1.251 . S
O123 C122 1.261 . S
H124 C118 0.930 . S
H125 C120 0.930 . S
N126 Cu115 1.985 . S
N126 C128 1.335 . S
N126 C129 1.390 . S
N127 C128 1.345 . S
N127 C130 1.336 . S
C128 N126 1.335 . S
C128 N127 1.345 . S
C128 H133 0.930 . S
C129 N126 1.390 . S
C129 C130 1.346 . S
C129 H134 0.930 . S
C130 N127 1.336 . S
C130 C129 1.346 . S
C130 H137 0.929 . S
C131 O121 1.282 . S
C131 O132 1.216 . S
O132 C131 1.216 . S
H133 C128 0.930 . S
H134 C129 0.930 . S
O135 Cu115 1.959 . S
O135 C122 1.251 . S
H136 C119 0.930 . S
H137 C130 0.929 . S
Cu138 N139 1.999 . S
Cu138 O144 1.974 . S
Cu138 N149 1.985 . S
Cu138 O158 1.959 . S
N139 Cu138 1.999 . S
N139 C141 1.263 . S
N139 C143 1.389 . S
N140 C141 1.358 . S
N140 C142 1.400 . S
C141 N139 1.263 . S
C141 N140 1.358 . S
C141 H147 0.930 . S
C142 N140 1.400 . S
C142 C143 1.351 . S
C142 H159 0.930 . S
C143 N139 1.389 . S
C143 C142 1.351 . S
C143 H148 0.930 . S
O144 Cu138 1.974 . S
O144 C154 1.282 . S
C145 O146 1.261 . S
C145 O158 1.251 . S
O146 C145 1.261 . S
H147 C141 0.930 . S
H148 C143 0.930 . S
N149 Cu138 1.985 . S
N149 C151 1.335 . S
N149 C152 1.390 . S
N150 C151 1.345 . S
N150 C153 1.336 . S
C151 N149 1.335 . S
C151 N150 1.345 . S
C151 H156 0.930 . S
C152 N149 1.390 . S
C152 C153 1.346 . S
C152 H157 0.930 . S
C153 N150 1.336 . S
C153 C152 1.346 . S
C153 H160 0.929 . S
C154 O144 1.282 . S
C154 O155 1.216 . S
O155 C154 1.216 . S
H156 C151 0.930 . S
H157 C152 0.930 . S
O158 Cu138 1.959 . S
O158 C145 1.251 . S
H159 C142 0.930 . S
H160 C153 0.929 . S
Cu161 N162 1.999 . S
Cu161 O167 1.974 . S
Cu161 N172 1.985 . S
Cu161 O181 1.959 . S
N162 Cu161 1.999 . S
N162 C164 1.263 . S
N162 C166 1.389 . S
N163 C164 1.358 . S
N163 C165 1.400 . S
C164 N162 1.263 . S
C164 N163 1.358 . S
C164 H170 0.930 . S
C165 N163 1.400 . S
C165 C166 1.351 . S
C165 H182 0.930 . S
C166 N162 1.389 . S
C166 C165 1.351 . S
C166 H171 0.930 . S
O167 Cu161 1.974 . S
O167 C177 1.282 . S
C168 O169 1.261 . S
C168 O181 1.251 . S
O169 C168 1.261 . S
H170 C164 0.930 . S
H171 C166 0.930 . S
N172 Cu161 1.985 . S
N172 C174 1.335 . S
N172 C175 1.390 . S
N173 C174 1.345 . S
N173 C176 1.336 . S
C174 N172 1.335 . S
C174 N173 1.345 . S
C174 H179 0.930 . S
C175 N172 1.390 . S
C175 C176 1.346 . S
C175 H180 0.930 . S
C176 N173 1.336 . S
C176 C175 1.346 . S
C176 H183 0.929 . S
C177 O167 1.282 . S
C177 O178 1.216 . S
O178 C177 1.216 . S
H179 C174 0.930 . S
H180 C175 0.930 . S
O181 Cu161 1.959 . S
O181 C168 1.251 . S
H182 C165 0.930 . S
H183 C176 0.929 . S
Cu184 N185 1.999 . S
Cu184 O190 1.974 . S
Cu184 N195 1.985 . S
Cu184 O204 1.959 . S
N185 Cu184 1.999 . S
N185 C187 1.263 . S
N185 C189 1.389 . S
N186 C187 1.358 . S
N186 C188 1.400 . S
C187 N185 1.263 . S
C187 N186 1.358 . S
C187 H193 0.930 . S
C188 N186 1.400 . S
C188 C189 1.351 . S
C188 H205 0.930 . S
C189 N185 1.389 . S
C189 C188 1.351 . S
C189 H194 0.930 . S
O190 Cu184 1.974 . S
O190 C200 1.282 . S
C191 O192 1.261 . S
C191 O204 1.251 . S
O192 C191 1.261 . S
H193 C187 0.930 . S
H194 C189 0.930 . S
N195 Cu184 1.985 . S
N195 C197 1.335 . S
N195 C198 1.390 . S
N196 C197 1.345 . S
N196 C199 1.336 . S
C197 N195 1.335 . S
C197 N196 1.345 . S
C197 H202 0.930 . S
C198 N195 1.390 . S
C198 C199 1.346 . S
C198 H203 0.930 . S
C199 N196 1.336 . S
C199 C198 1.346 . S
C199 H206 0.929 . S
C200 O190 1.282 . S
C200 O201 1.216 . S
O201 C200 1.216 . S
H202 C197 0.930 . S
H203 C198 0.930 . S
O204 Cu184 1.959 . S
O204 C191 1.251 . S
H205 C188 0.930 . S
H206 C199 0.929 . S
Cu207 N208 1.999 . S
Cu207 O213 1.974 . S
Cu207 N218 1.985 . S
Cu207 O227 1.959 . S
N208 Cu207 1.999 . S
N208 C210 1.263 . S
N208 C212 1.389 . S
N209 C210 1.358 . S
N209 C211 1.400 . S
C210 N208 1.263 . S
C210 N209 1.358 . S
C210 H216 0.930 . S
C211 N209 1.400 . S
C211 C212 1.351 . S
C211 H228 0.930 . S
C212 N208 1.389 . S
C212 C211 1.351 . S
C212 H217 0.930 . S
O213 Cu207 1.974 . S
O213 C223 1.282 . S
C214 O215 1.261 . S
C214 O227 1.251 . S
O215 C214 1.261 . S
H216 C210 0.930 . S
H217 C212 0.930 . S
N218 Cu207 1.985 . S
N218 C220 1.335 . S
N218 C221 1.390 . S
N219 C220 1.345 . S
N219 C222 1.336 . S
C220 N218 1.335 . S
C220 N219 1.345 . S
C220 H225 0.930 . S
C221 N218 1.390 . S
C221 C222 1.346 . S
C221 H226 0.930 . S
C222 N219 1.336 . S
C222 C221 1.346 . S
C222 H229 0.929 . S
C223 O213 1.282 . S
C223 O224 1.216 . S
O224 C223 1.216 . S
H225 C220 0.930 . S
H226 C221 0.930 . S
O227 Cu207 1.959 . S
O227 C214 1.251 . S
H228 C211 0.930 . S
H229 C222 0.929 . S
Cu230 N231 1.999 . S
Cu230 O236 1.974 . S
Cu230 N241 1.985 . S
Cu230 O250 1.959 . S
N231 Cu230 1.999 . S
N231 C233 1.263 . S
N231 C235 1.389 . S
N232 C233 1.358 . S
N232 C234 1.400 . S
C233 N231 1.263 . S
C233 N232 1.358 . S
C233 H239 0.930 . S
C234 N232 1.400 . S
C234 C235 1.351 . S
C234 H251 0.930 . S
C235 N231 1.389 . S
C235 C234 1.351 . S
C235 H240 0.930 . S
O236 Cu230 1.974 . S
O236 C246 1.282 . S
C237 O238 1.261 . S
C237 O250 1.251 . S
O238 C237 1.261 . S
H239 C233 0.930 . S
H240 C235 0.930 . S
N241 Cu230 1.985 . S
N241 C243 1.335 . S
N241 C244 1.390 . S
N242 C243 1.345 . S
N242 C245 1.336 . S
C243 N241 1.335 . S
C243 N242 1.345 . S
C243 H248 0.930 . S
C244 N241 1.390 . S
C244 C245 1.346 . S
C244 H249 0.930 . S
C245 N242 1.336 . S
C245 C244 1.346 . S
C245 H252 0.929 . S
C246 O236 1.282 . S
C246 O247 1.216 . S
O247 C246 1.216 . S
H248 C243 0.930 . S
H249 C244 0.930 . S
O250 Cu230 1.959 . S
O250 C237 1.251 . S
H251 C234 0.930 . S
H252 C245 0.929 . S
Cu253 N254 1.999 . S
Cu253 O259 1.974 . S
Cu253 N264 1.985 . S
Cu253 O273 1.959 . S
N254 Cu253 1.999 . S
N254 C256 1.263 . S
N254 C258 1.389 . S
N255 C256 1.358 . S
N255 C257 1.400 . S
C256 N254 1.263 . S
C256 N255 1.358 . S
C256 H262 0.930 . S
C257 N255 1.400 . S
C257 C258 1.351 . S
C257 H274 0.930 . S
C258 N254 1.389 . S
C258 C257 1.351 . S
C258 H263 0.930 . S
O259 Cu253 1.974 . S
O259 C269 1.282 . S
C260 O261 1.261 . S
C260 O273 1.251 . S
O261 C260 1.261 . S
H262 C256 0.930 . S
H263 C258 0.930 . S
N264 Cu253 1.985 . S
N264 C266 1.335 . S
N264 C267 1.390 . S
N265 C266 1.345 . S
N265 C268 1.336 . S
C266 N264 1.335 . S
C266 N265 1.345 . S
C266 H271 0.930 . S
C267 N264 1.390 . S
C267 C268 1.346 . S
C267 H272 0.930 . S
C268 N265 1.336 . S
C268 C267 1.346 . S
C268 H275 0.929 . S
C269 O259 1.282 . S
C269 O270 1.216 . S
O270 C269 1.216 . S
H271 C266 0.930 . S
H272 C267 0.930 . S
O273 Cu253 1.959 . S
O273 C260 1.251 . S
H274 C257 0.930 . S
H275 C268 0.929 . S
Cu276 N277 1.999 . S
Cu276 O282 1.974 . S
Cu276 N287 1.985 . S
Cu276 O296 1.959 . S
N277 Cu276 1.999 . S
N277 C279 1.263 . S
N277 C281 1.389 . S
N278 C279 1.358 . S
N278 C280 1.400 . S
C279 N277 1.263 . S
C279 N278 1.358 . S
C279 H285 0.930 . S
C280 N278 1.400 . S
C280 C281 1.351 . S
C280 H297 0.930 . S
C281 N277 1.389 . S
C281 C280 1.351 . S
C281 H286 0.930 . S
O282 Cu276 1.974 . S
O282 C292 1.282 . S
C283 O284 1.261 . S
C283 O296 1.251 . S
O284 C283 1.261 . S
H285 C279 0.930 . S
H286 C281 0.930 . S
N287 Cu276 1.985 . S
N287 C289 1.335 . S
N287 C290 1.390 . S
N288 C289 1.345 . S
N288 C291 1.336 . S
C289 N287 1.335 . S
C289 N288 1.345 . S
C289 H294 0.930 . S
C290 N287 1.390 . S
C290 C291 1.346 . S
C290 H295 0.930 . S
C291 N288 1.336 . S
C291 C290 1.346 . S
C291 H298 0.929 . S
C292 O282 1.282 . S
C292 O293 1.216 . S
O293 C292 1.216 . S
H294 C289 0.930 . S
H295 C290 0.930 . S
O296 Cu276 1.959 . S
O296 C283 1.251 . S
H297 C280 0.930 . S
H298 C291 0.929 . S
Cu299 N300 1.999 . S
Cu299 O305 1.974 . S
Cu299 N310 1.985 . S
Cu299 O319 1.959 . S
N300 Cu299 1.999 . S
N300 C302 1.263 . S
N300 C304 1.389 . S
N301 C302 1.358 . S
N301 C303 1.400 . S
C302 N300 1.263 . S
C302 N301 1.358 . S
C302 H308 0.930 . S
C303 N301 1.400 . S
C303 C304 1.351 . S
C303 H320 0.930 . S
C304 N300 1.389 . S
C304 C303 1.351 . S
C304 H309 0.930 . S
O305 Cu299 1.974 . S
O305 C315 1.282 . S
C306 O307 1.261 . S
C306 O319 1.251 . S
O307 C306 1.261 . S
H308 C302 0.930 . S
H309 C304 0.930 . S
N310 Cu299 1.985 . S
N310 C312 1.335 . S
N310 C313 1.390 . S
N311 C312 1.345 . S
N311 C314 1.336 . S
C312 N310 1.335 . S
C312 N311 1.345 . S
C312 H317 0.930 . S
C313 N310 1.390 . S
C313 C314 1.346 . S
C313 H318 0.930 . S
C314 N311 1.336 . S
C314 C313 1.346 . S
C314 H321 0.929 . S
C315 O305 1.282 . S
C315 O316 1.216 . S
O316 C315 1.216 . S
H317 C312 0.930 . S
H318 C313 0.930 . S
O319 Cu299 1.959 . S
O319 C306 1.251 . S
H320 C303 0.930 . S
H321 C314 0.929 . S
Cu322 N323 1.999 . S
Cu322 O328 1.974 . S
Cu322 N333 1.985 . S
Cu322 O342 1.959 . S
N323 Cu322 1.999 . S
N323 C325 1.263 . S
N323 C327 1.389 . S
N324 C325 1.358 . S
N324 C326 1.400 . S
C325 N323 1.263 . S
C325 N324 1.358 . S
C325 H331 0.930 . S
C326 N324 1.400 . S
C326 C327 1.351 . S
C326 H343 0.930 . S
C327 N323 1.389 . S
C327 C326 1.351 . S
C327 H332 0.930 . S
O328 Cu322 1.974 . S
O328 C338 1.282 . S
C329 O330 1.261 . S
C329 O342 1.251 . S
O330 C329 1.261 . S
H331 C325 0.930 . S
H332 C327 0.930 . S
N333 Cu322 1.985 . S
N333 C335 1.335 . S
N333 C336 1.390 . S
N334 C335 1.345 . S
N334 C337 1.336 . S
C335 N333 1.335 . S
C335 N334 1.345 . S
C335 H340 0.930 . S
C336 N333 1.390 . S
C336 C337 1.346 . S
C336 H341 0.930 . S
C337 N334 1.336 . S
C337 C336 1.346 . S
C337 H344 0.929 . S
C338 O328 1.282 . S
C338 O339 1.216 . S
O339 C338 1.216 . S
H340 C335 0.930 . S
H341 C336 0.930 . S
O342 Cu322 1.959 . S
O342 C329 1.251 . S
H343 C326 0.930 . S
H344 C337 0.929 . S
Cu345 N346 1.999 . S
Cu345 O351 1.974 . S
Cu345 N356 1.985 . S
Cu345 O365 1.959 . S
N346 Cu345 1.999 . S
N346 C348 1.263 . S
N346 C350 1.389 . S
N347 C348 1.358 . S
N347 C349 1.400 . S
C348 N346 1.263 . S
C348 N347 1.358 . S
C348 H354 0.930 . S
C349 N347 1.400 . S
C349 C350 1.351 . S
C349 H366 0.930 . S
C350 N346 1.389 . S
C350 C349 1.351 . S
C350 H355 0.930 . S
O351 Cu345 1.974 . S
O351 C361 1.282 . S
C352 O353 1.261 . S
C352 O365 1.251 . S
O353 C352 1.261 . S
H354 C348 0.930 . S
H355 C350 0.930 . S
N356 Cu345 1.985 . S
N356 C358 1.335 . S
N356 C359 1.390 . S
N357 C358 1.345 . S
N357 C360 1.336 . S
C358 N356 1.335 . S
C358 N357 1.345 . S
C358 H363 0.930 . S
C359 N356 1.390 . S
C359 C360 1.346 . S
C359 H364 0.930 . S
C360 N357 1.336 . S
C360 C359 1.346 . S
C360 H367 0.929 . S
C361 O351 1.282 . S
C361 O362 1.216 . S
O362 C361 1.216 . S
H363 C358 0.930 . S
H364 C359 0.930 . S
O365 Cu345 1.959 . S
O365 C352 1.251 . S
H366 C349 0.930 . S
H367 C360 0.929 . S
Cu368 N369 1.999 . S
Cu368 O374 1.974 . S
Cu368 N379 1.985 . S
Cu368 O388 1.959 . S
N369 Cu368 1.999 . S
N369 C371 1.263 . S
N369 C373 1.389 . S
N370 C371 1.358 . S
N370 C372 1.400 . S
C371 N369 1.263 . S
C371 N370 1.358 . S
C371 H377 0.930 . S
C372 N370 1.400 . S
C372 C373 1.351 . S
C372 H389 0.930 . S
C373 N369 1.389 . S
C373 C372 1.351 . S
C373 H378 0.930 . S
O374 Cu368 1.974 . S
O374 C384 1.282 . S
C375 O376 1.261 . S
C375 O388 1.251 . S
O376 C375 1.261 . S
H377 C371 0.930 . S
H378 C373 0.930 . S
N379 Cu368 1.985 . S
N379 C381 1.335 . S
N379 C382 1.390 . S
N380 C381 1.345 . S
N380 C383 1.336 . S
C381 N379 1.335 . S
C381 N380 1.345 . S
C381 H386 0.930 . S
C382 N379 1.390 . S
C382 C383 1.346 . S
C382 H387 0.930 . S
C383 N380 1.336 . S
C383 C382 1.346 . S
C383 H390 0.929 . S
C384 O374 1.282 . S
C384 O385 1.216 . S
O385 C384 1.216 . S
H386 C381 0.930 . S
H387 C382 0.930 . S
O388 Cu368 1.959 . S
O388 C375 1.251 . S
H389 C372 0.930 . S
H390 C383 0.929 . S
Cu391 N392 1.999 . S
Cu391 O397 1.974 . S
Cu391 N402 1.985 . S
Cu391 O411 1.959 . S
N392 Cu391 1.999 . S
N392 C394 1.263 . S
N392 C396 1.389 . S
N393 C394 1.358 . S
N393 C395 1.400 . S
C394 N392 1.263 . S
C394 N393 1.358 . S
C394 H400 0.930 . S
C395 N393 1.400 . S
C395 C396 1.351 . S
C395 H412 0.930 . S
C396 N392 1.389 . S
C396 C395 1.351 . S
C396 H401 0.930 . S
O397 Cu391 1.974 . S
O397 C407 1.282 . S
C398 O399 1.261 . S
C398 O411 1.251 . S
O399 C398 1.261 . S
H400 C394 0.930 . S
H401 C396 0.930 . S
N402 Cu391 1.985 . S
N402 C404 1.335 . S
N402 C405 1.390 . S
N403 C404 1.345 . S
N403 C406 1.336 . S
C404 N402 1.335 . S
C404 N403 1.345 . S
C404 H409 0.930 . S
C405 N402 1.390 . S
C405 C406 1.346 . S
C405 H410 0.930 . S
C406 N403 1.336 . S
C406 C405 1.346 . S
C406 H413 0.929 . S
C407 O397 1.282 . S
C407 O408 1.216 . S
O408 C407 1.216 . S
H409 C404 0.930 . S
H410 C405 0.930 . S
O411 Cu391 1.959 . S
O411 C398 1.251 . S
H412 C395 0.930 . S
H413 C406 0.929 . S
Cu414 N415 1.999 . S
Cu414 O420 1.974 . S
Cu414 N425 1.985 . S
Cu414 O434 1.959 . S
N415 Cu414 1.999 . S
N415 C417 1.263 . S
N415 C419 1.389 . S
N416 C417 1.358 . S
N416 C418 1.400 . S
C417 N415 1.263 . S
C417 N416 1.358 . S
C417 H423 0.930 . S
C418 N416 1.400 . S
C418 C419 1.351 . S
C418 H435 0.930 . S
C419 N415 1.389 . S
C419 C418 1.351 . S
C419 H424 0.930 . S
O420 Cu414 1.974 . S
O420 C430 1.282 . S
C421 O422 1.261 . S
C421 O434 1.251 . S
O422 C421 1.261 . S
H423 C417 0.930 . S
H424 C419 0.930 . S
N425 Cu414 1.985 . S
N425 C427 1.335 . S
N425 C428 1.390 . S
N426 C427 1.345 . S
N426 C429 1.336 . S
C427 N425 1.335 . S
C427 N426 1.345 . S
C427 H432 0.930 . S
C428 N425 1.390 . S
C428 C429 1.346 . S
C428 H433 0.930 . S
C429 N426 1.336 . S
C429 C428 1.346 . S
C429 H436 0.929 . S
C430 O420 1.282 . S
C430 O431 1.216 . S
O431 C430 1.216 . S
H432 C427 0.930 . S
H433 C428 0.930 . S
O434 Cu414 1.959 . S
O434 C421 1.251 . S
H435 C418 0.930 . S
H436 C429 0.929 . S
Cu437 N438 1.999 . S
Cu437 O443 1.974 . S
Cu437 N448 1.985 . S
Cu437 O457 1.959 . S
N438 Cu437 1.999 . S
N438 C440 1.263 . S
N438 C442 1.389 . S
N439 C440 1.358 . S
N439 C441 1.400 . S
C440 N438 1.263 . S
C440 N439 1.358 . S
C440 H446 0.930 . S
C441 N439 1.400 . S
C441 C442 1.351 . S
C441 H458 0.930 . S
C442 N438 1.389 . S
C442 C441 1.351 . S
C442 H447 0.930 . S
O443 Cu437 1.974 . S
O443 C453 1.282 . S
C444 O445 1.261 . S
C444 O457 1.251 . S
O445 C444 1.261 . S
H446 C440 0.930 . S
H447 C442 0.930 . S
N448 Cu437 1.985 . S
N448 C450 1.335 . S
N448 C451 1.390 . S
N449 C450 1.345 . S
N449 C452 1.336 . S
C450 N448 1.335 . S
C450 N449 1.345 . S
C450 H455 0.930 . S
C451 N448 1.390 . S
C451 C452 1.346 . S
C451 H456 0.930 . S
C452 N449 1.336 . S
C452 C451 1.346 . S
C452 H459 0.929 . S
C453 O443 1.282 . S
C453 O454 1.216 . S
O454 C453 1.216 . S
H455 C450 0.930 . S
H456 C451 0.930 . S
O457 Cu437 1.959 . S
O457 C444 1.251 . S
H458 C441 0.930 . S
H459 C452 0.929 . S
Cu460 N461 1.999 . S
Cu460 O466 1.974 . S
Cu460 N471 1.985 . S
Cu460 O480 1.959 . S
N461 Cu460 1.999 . S
N461 C463 1.263 . S
N461 C465 1.389 . S
N462 C463 1.358 . S
N462 C464 1.400 . S
C463 N461 1.263 . S
C463 N462 1.358 . S
C463 H469 0.930 . S
C464 N462 1.400 . S
C464 C465 1.351 . S
C464 H481 0.930 . S
C465 N461 1.389 . S
C465 C464 1.351 . S
C465 H470 0.930 . S
O466 Cu460 1.974 . S
O466 C476 1.282 . S
C467 O468 1.261 . S
C467 O480 1.251 . S
O468 C467 1.261 . S
H469 C463 0.930 . S
H470 C465 0.930 . S
N471 Cu460 1.985 . S
N471 C473 1.335 . S
N471 C474 1.390 . S
N472 C473 1.345 . S
N472 C475 1.336 . S
C473 N471 1.335 . S
C473 N472 1.345 . S
C473 H478 0.930 . S
C474 N471 1.390 . S
C474 C475 1.346 . S
C474 H479 0.930 . S
C475 N472 1.336 . S
C475 C474 1.346 . S
C475 H482 0.929 . S
C476 O466 1.282 . S
C476 O477 1.216 . S
O477 C476 1.216 . S
H478 C473 0.930 . S
H479 C474 0.930 . S
O480 Cu460 1.959 . S
O480 C467 1.251 . S
H481 C464 0.930 . S
H482 C475 0.929 . S
Cu483 N484 1.999 . S
Cu483 O489 1.974 . S
Cu483 N494 1.985 . S
Cu483 O503 1.959 . S
N484 Cu483 1.999 . S
N484 C486 1.263 . S
N484 C488 1.389 . S
N485 C486 1.358 . S
N485 C487 1.400 . S
C486 N484 1.263 . S
C486 N485 1.358 . S
C486 H492 0.930 . S
C487 N485 1.400 . S
C487 C488 1.351 . S
C487 H504 0.930 . S
C488 N484 1.389 . S
C488 C487 1.351 . S
C488 H493 0.930 . S
O489 Cu483 1.974 . S
O489 C499 1.282 . S
C490 O491 1.261 . S
C490 O503 1.251 . S
O491 C490 1.261 . S
H492 C486 0.930 . S
H493 C488 0.930 . S
N494 Cu483 1.985 . S
N494 C496 1.335 . S
N494 C497 1.390 . S
N495 C496 1.345 . S
N495 C498 1.336 . S
C496 N494 1.335 . S
C496 N495 1.345 . S
C496 H501 0.930 . S
C497 N494 1.390 . S
C497 C498 1.346 . S
C497 H502 0.930 . S
C498 N495 1.336 . S
C498 C497 1.346 . S
C498 H505 0.929 . S
C499 O489 1.282 . S
C499 O500 1.216 . S
O500 C499 1.216 . S
H501 C496 0.930 . S
H502 C497 0.930 . S
O503 Cu483 1.959 . S
O503 C490 1.251 . S
H504 C487 0.930 . S
H505 C498 0.929 . S
Cu506 N507 1.999 . S
Cu506 O512 1.974 . S
Cu506 N517 1.985 . S
Cu506 O526 1.959 . S
N507 Cu506 1.999 . S
N507 C509 1.263 . S
N507 C511 1.389 . S
N508 C509 1.358 . S
N508 C510 1.400 . S
C509 N507 1.263 . S
C509 N508 1.358 . S
C509 H515 0.930 . S
C510 N508 1.400 . S
C510 C511 1.351 . S
C510 H527 0.930 . S
C511 N507 1.389 . S
C511 C510 1.351 . S
C511 H516 0.930 . S
O512 Cu506 1.974 . S
O512 C522 1.282 . S
C513 O514 1.261 . S
C513 O526 1.251 . S
O514 C513 1.261 . S
H515 C509 0.930 . S
H516 C511 0.930 . S
N517 Cu506 1.985 . S
N517 C519 1.335 . S
N517 C520 1.390 . S
N518 C519 1.345 . S
N518 C521 1.336 . S
C519 N517 1.335 . S
C519 N518 1.345 . S
C519 H524 0.930 . S
C520 N517 1.390 . S
C520 C521 1.346 . S
C520 H525 0.930 . S
C521 N518 1.336 . S
C521 C520 1.346 . S
C521 H528 0.929 . S
C522 O512 1.282 . S
C522 O523 1.216 . S
O523 C522 1.216 . S
H524 C519 0.930 . S
H525 C520 0.930 . S
O526 Cu506 1.959 . S
O526 C513 1.251 . S
H527 C510 0.930 . S
H528 C521 0.929 . S
Cu529 N530 1.999 . S
Cu529 O535 1.974 . S
Cu529 N540 1.985 . S
Cu529 O549 1.959 . S
N530 Cu529 1.999 . S
N530 C532 1.263 . S
N530 C534 1.389 . S
N531 C532 1.358 . S
N531 C533 1.400 . S
C532 N530 1.263 . S
C532 N531 1.358 . S
C532 H538 0.930 . S
C533 N531 1.400 . S
C533 C534 1.351 . S
C533 H550 0.930 . S
C534 N530 1.389 . S
C534 C533 1.351 . S
C534 H539 0.930 . S
O535 Cu529 1.974 . S
O535 C545 1.282 . S
C536 O537 1.261 . S
C536 O549 1.251 . S
O537 C536 1.261 . S
H538 C532 0.930 . S
H539 C534 0.930 . S
N540 Cu529 1.985 . S
N540 C542 1.335 . S
N540 C543 1.390 . S
N541 C542 1.345 . S
N541 C544 1.336 . S
C542 N540 1.335 . S
C542 N541 1.345 . S
C542 H547 0.930 . S
C543 N540 1.390 . S
C543 C544 1.346 . S
C543 H548 0.930 . S
C544 N541 1.336 . S
C544 C543 1.346 . S
C544 H551 0.929 . S
C545 O535 1.282 . S
C545 O546 1.216 . S
O546 C545 1.216 . S
H547 C542 0.930 . S
H548 C543 0.930 . S
O549 Cu529 1.959 . S
O549 C536 1.251 . S
H550 C533 0.930 . S
H551 C544 0.929 . S
Cu552 N553 1.999 . S
Cu552 O558 1.974 . S
Cu552 N563 1.985 . S
Cu552 O572 1.959 . S
N553 Cu552 1.999 . S
N553 C555 1.263 . S
N553 C557 1.389 . S
N554 C555 1.358 . S
N554 C556 1.400 . S
C555 N553 1.263 . S
C555 N554 1.358 . S
C555 H561 0.930 . S
C556 N554 1.400 . S
C556 C557 1.351 . S
C556 H573 0.930 . S
C557 N553 1.389 . S
C557 C556 1.351 . S
C557 H562 0.930 . S
O558 Cu552 1.974 . S
O558 C568 1.282 . S
C559 O560 1.261 . S
C559 O572 1.251 . S
O560 C559 1.261 . S
H561 C555 0.930 . S
H562 C557 0.930 . S
N563 Cu552 1.985 . S
N563 C565 1.335 . S
N563 C566 1.390 . S
N564 C565 1.345 . S
N564 C567 1.336 . S
C565 N563 1.335 . S
C565 N564 1.345 . S
C565 H570 0.930 . S
C566 N563 1.390 . S
C566 C567 1.346 . S
C566 H571 0.930 . S
C567 N564 1.336 . S
C567 C566 1.346 . S
C567 H574 0.929 . S
C568 O558 1.282 . S
C568 O569 1.216 . S
O569 C568 1.216 . S
H570 C565 0.930 . S
H571 C566 0.930 . S
O572 Cu552 1.959 . S
O572 C559 1.251 . S
H573 C556 0.930 . S
H574 C567 0.929 . S
Cu575 N576 1.999 . S
Cu575 O581 1.974 . S
Cu575 N586 1.985 . S
Cu575 O595 1.959 . S
N576 Cu575 1.999 . S
N576 C578 1.263 . S
N576 C580 1.389 . S
N577 C578 1.358 . S
N577 C579 1.400 . S
C578 N576 1.263 . S
C578 N577 1.358 . S
C578 H584 0.930 . S
C579 N577 1.400 . S
C579 C580 1.351 . S
C579 H596 0.930 . S
C580 N576 1.389 . S
C580 C579 1.351 . S
C580 H585 0.930 . S
O581 Cu575 1.974 . S
O581 C591 1.282 . S
C582 O583 1.261 . S
C582 O595 1.251 . S
O583 C582 1.261 . S
H584 C578 0.930 . S
H585 C580 0.930 . S
N586 Cu575 1.985 . S
N586 C588 1.335 . S
N586 C589 1.390 . S
N587 C588 1.345 . S
N587 C590 1.336 . S
C588 N586 1.335 . S
C588 N587 1.345 . S
C588 H593 0.930 . S
C589 N586 1.390 . S
C589 C590 1.346 . S
C589 H594 0.930 . S
C590 N587 1.336 . S
C590 C589 1.346 . S
C590 H597 0.929 . S
C591 O581 1.282 . S
C591 O592 1.216 . S
O592 C591 1.216 . S
H593 C588 0.930 . S
H594 C589 0.930 . S
O595 Cu575 1.959 . S
O595 C582 1.251 . S
H596 C579 0.930 . S
H597 C590 0.929 . S
Cu598 N599 1.999 . S
Cu598 O604 1.974 . S
Cu598 N609 1.985 . S
Cu598 O618 1.959 . S
N599 Cu598 1.999 . S
N599 C601 1.263 . S
N599 C603 1.389 . S
N600 C601 1.358 . S
N600 C602 1.400 . S
C601 N599 1.263 . S
C601 N600 1.358 . S
C601 H607 0.930 . S
C602 N600 1.400 . S
C602 C603 1.351 . S
C602 H619 0.930 . S
C603 N599 1.389 . S
C603 C602 1.351 . S
C603 H608 0.930 . S
O604 Cu598 1.974 . S
O604 C614 1.282 . S
C605 O606 1.261 . S
C605 O618 1.251 . S
O606 C605 1.261 . S
H607 C601 0.930 . S
H608 C603 0.930 . S
N609 Cu598 1.985 . S
N609 C611 1.335 . S
N609 C612 1.390 . S
N610 C611 1.345 . S
N610 C613 1.336 . S
C611 N609 1.335 . S
C611 N610 1.345 . S
C611 H616 0.930 . S
C612 N609 1.390 . S
C612 C613 1.346 . S
C612 H617 0.930 . S
C613 N610 1.336 . S
C613 C612 1.346 . S
C613 H620 0.929 . S
C614 O604 1.282 . S
C614 O615 1.216 . S
O615 C614 1.216 . S
H616 C611 0.930 . S
H617 C612 0.930 . S
O618 Cu598 1.959 . S
O618 C605 1.251 . S
H619 C602 0.930 . S
H620 C613 0.929 . S
Cu621 N622 1.999 . S
Cu621 O627 1.974 . S
Cu621 N632 1.985 . S
Cu621 O641 1.959 . S
N622 Cu621 1.999 . S
N622 C624 1.263 . S
N622 C626 1.389 . S
N623 C624 1.358 . S
N623 C625 1.400 . S
C624 N622 1.263 . S
C624 N623 1.358 . S
C624 H630 0.930 . S
C625 N623 1.400 . S
C625 C626 1.351 . S
C625 H642 0.930 . S
C626 N622 1.389 . S
C626 C625 1.351 . S
C626 H631 0.930 . S
O627 Cu621 1.974 . S
O627 C637 1.282 . S
C628 O629 1.261 . S
C628 O641 1.251 . S
O629 C628 1.261 . S
H630 C624 0.930 . S
H631 C626 0.930 . S
N632 Cu621 1.985 . S
N632 C634 1.335 . S
N632 C635 1.390 . S
N633 C634 1.345 . S
N633 C636 1.336 . S
C634 N632 1.335 . S
C634 N633 1.345 . S
C634 H639 0.930 . S
C635 N632 1.390 . S
C635 C636 1.346 . S
C635 H640 0.930 . S
C636 N633 1.336 . S
C636 C635 1.346 . S
C636 H643 0.929 . S
C637 O627 1.282 . S
C637 O638 1.216 . S
O638 C637 1.216 . S
H639 C634 0.930 . S
H640 C635 0.930 . S
O641 Cu621 1.959 . S
O641 C628 1.251 . S
H642 C625 0.930 . S
H643 C636 0.929 . S
Cu644 N645 1.999 . S
Cu644 O650 1.974 . S
Cu644 N655 1.985 . S
Cu644 O664 1.959 . S
N645 Cu644 1.999 . S
N645 C647 1.263 . S
N645 C649 1.389 . S
N646 C647 1.358 . S
N646 C648 1.400 . S
C647 N645 1.263 . S
C647 N646 1.358 . S
C647 H653 0.930 . S
C648 N646 1.400 . S
C648 C649 1.351 . S
C648 H665 0.930 . S
C649 N645 1.389 . S
C649 C648 1.351 . S
C649 H654 0.930 . S
O650 Cu644 1.974 . S
O650 C660 1.282 . S
C651 O652 1.261 . S
C651 O664 1.251 . S
O652 C651 1.261 . S
H653 C647 0.930 . S
H654 C649 0.930 . S
N655 Cu644 1.985 . S
N655 C657 1.335 . S
N655 C658 1.390 . S
N656 C657 1.345 . S
N656 C659 1.336 . S
C657 N655 1.335 . S
C657 N656 1.345 . S
C657 H662 0.930 . S
C658 N655 1.390 . S
C658 C659 1.346 . S
C658 H663 0.930 . S
C659 N656 1.336 . S
C659 C658 1.346 . S
C659 H666 0.929 . S
C660 O650 1.282 . S
C660 O661 1.216 . S
O661 C660 1.216 . S
H662 C657 0.930 . S
H663 C658 0.930 . S
O664 Cu644 1.959 . S
O664 C651 1.251 . S
H665 C648 0.930 . S
H666 C659 0.929 . S
Cu667 N668 1.999 . S
Cu667 O673 1.974 . S
Cu667 N678 1.985 . S
Cu667 O687 1.959 . S
N668 Cu667 1.999 . S
N668 C670 1.263 . S
N668 C672 1.389 . S
N669 C670 1.358 . S
N669 C671 1.400 . S
C670 N668 1.263 . S
C670 N669 1.358 . S
C670 H676 0.930 . S
C671 N669 1.400 . S
C671 C672 1.351 . S
C671 H688 0.930 . S
C672 N668 1.389 . S
C672 C671 1.351 . S
C672 H677 0.930 . S
O673 Cu667 1.974 . S
O673 C683 1.282 . S
C674 O675 1.261 . S
C674 O687 1.251 . S
O675 C674 1.261 . S
H676 C670 0.930 . S
H677 C672 0.930 . S
N678 Cu667 1.985 . S
N678 C680 1.335 . S
N678 C681 1.390 . S
N679 C680 1.345 . S
N679 C682 1.336 . S
C680 N678 1.335 . S
C680 N679 1.345 . S
C680 H685 0.930 . S
C681 N678 1.390 . S
C681 C682 1.346 . S
C681 H686 0.930 . S
C682 N679 1.336 . S
C682 C681 1.346 . S
C682 H689 0.929 . S
C683 O673 1.282 . S
C683 O684 1.216 . S
O684 C683 1.216 . S
H685 C680 0.930 . S
H686 C681 0.930 . S
O687 Cu667 1.959 . S
O687 C674 1.251 . S
H688 C671 0.930 . S
H689 C682 0.929 . S
Cu690 N691 1.999 . S
Cu690 O696 1.974 . S
Cu690 N701 1.985 . S
Cu690 O710 1.959 . S
N691 Cu690 1.999 . S
N691 C693 1.263 . S
N691 C695 1.389 . S
N692 C693 1.358 . S
N692 C694 1.400 . S
C693 N691 1.263 . S
C693 N692 1.358 . S
C693 H699 0.930 . S
C694 N692 1.400 . S
C694 C695 1.351 . S
C694 H711 0.930 . S
C695 N691 1.389 . S
C695 C694 1.351 . S
C695 H700 0.930 . S
O696 Cu690 1.974 . S
O696 C706 1.282 . S
C697 O698 1.261 . S
C697 O710 1.251 . S
O698 C697 1.261 . S
H699 C693 0.930 . S
H700 C695 0.930 . S
N701 Cu690 1.985 . S
N701 C703 1.335 . S
N701 C704 1.390 . S
N702 C703 1.345 . S
N702 C705 1.336 . S
C703 N701 1.335 . S
C703 N702 1.345 . S
C703 H708 0.930 . S
C704 N701 1.390 . S
C704 C705 1.346 . S
C704 H709 0.930 . S
C705 N702 1.336 . S
C705 C704 1.346 . S
C705 H712 0.929 . S
C706 O696 1.282 . S
C706 O707 1.216 . S
O707 C706 1.216 . S
H708 C703 0.930 . S
H709 C704 0.930 . S
O710 Cu690 1.959 . S
O710 C697 1.251 . S
H711 C694 0.930 . S
H712 C705 0.929 . S
Cu713 N714 1.999 . S
Cu713 O719 1.974 . S
Cu713 N724 1.985 . S
Cu713 O733 1.959 . S
N714 Cu713 1.999 . S
N714 C716 1.263 . S
N714 C718 1.389 . S
N715 C716 1.358 . S
N715 C717 1.400 . S
C716 N714 1.263 . S
C716 N715 1.358 . S
C716 H722 0.930 . S
C717 N715 1.400 . S
C717 C718 1.351 . S
C717 H734 0.930 . S
C718 N714 1.389 . S
C718 C717 1.351 . S
C718 H723 0.930 . S
O719 Cu713 1.974 . S
O719 C729 1.282 . S
C720 O721 1.261 . S
C720 O733 1.251 . S
O721 C720 1.261 . S
H722 C716 0.930 . S
H723 C718 0.930 . S
N724 Cu713 1.985 . S
N724 C726 1.335 . S
N724 C727 1.390 . S
N725 C726 1.345 . S
N725 C728 1.336 . S
C726 N724 1.335 . S
C726 N725 1.345 . S
C726 H731 0.930 . S
C727 N724 1.390 . S
C727 C728 1.346 . S
C727 H732 0.930 . S
C728 N725 1.336 . S
C728 C727 1.346 . S
C728 H735 0.929 . S
C729 O719 1.282 . S
C729 O730 1.216 . S
O730 C729 1.216 . S
H731 C726 0.930 . S
H732 C727 0.930 . S
O733 Cu713 1.959 . S
O733 C720 1.251 . S
H734 C717 0.930 . S
H735 C728 0.929 . S
C736 C737 1.349 . S
C736 C738 1.327 . S
C736 H761 0.950 . S
C737 C736 1.349 . S
C737 C753 1.349 . S
C738 C736 1.327 . S
C738 C757 1.429 . S
C738 H762 0.950 . S
C739 C756 1.574 . S
C739 C758 1.368 . S
C739 H763 0.949 . S
H740 C744 0.949 . S
C741 C742 1.349 . S
C741 C743 1.327 . S
C741 H764 0.950 . S
C742 C741 1.349 . S
C742 C754 1.349 . S
C743 C741 1.327 . S
C743 C759 1.429 . S
C743 H765 0.950 . S
C744 H740 0.949 . S
C744 C752 1.574 . S
C744 C760 1.368 . S
H745 C753 0.950 . S
H746 C751 0.950 . S
H747 C752 0.949 . S
H748 C754 0.950 . S
H749 C755 0.950 . S
H750 C756 0.949 . S
C751 H746 0.950 . S
C751 C753 1.327 . S
C751 C757 1.429 . S
C752 C744 1.574 . S
C752 H747 0.949 . S
C752 C758 1.368 . S
C753 C737 1.349 . S
C753 H745 0.950 . S
C753 C751 1.327 . S
C754 C742 1.349 . S
C754 H748 0.950 . S
C754 C755 1.327 . S
C755 H749 0.950 . S
C755 C754 1.327 . S
C755 C759 1.429 . S
C756 C739 1.574 . S
C756 H750 0.949 . S
C756 C760 1.368 . S
C757 C738 1.429 . S
C757 C751 1.429 . S
C757 C758 1.523 . S
C758 C739 1.368 . S
C758 C752 1.368 . S
C758 C757 1.523 . S
C759 C743 1.429 . S
C759 C755 1.429 . S
C759 C760 1.523 . S
C760 C744 1.368 . S
C760 C756 1.368 . S
C760 C759 1.523 . S
H761 C736 0.950 . S
H762 C738 0.950 . S
H763 C739 0.949 . S
H764 C741 0.950 . S
H765 C743 0.950 . S
C766 C767 1.349 . S
C766 C768 1.327 . S
C766 H791 0.950 . S
C767 C766 1.349 . S
C767 C783 1.349 . S
C768 C766 1.327 . S
C768 C787 1.429 . S
C768 H792 0.950 . S
C769 C786 1.574 . S
C769 C788 1.368 1_655 S
C769 H793 0.949 . S
H770 C774 0.949 . S
C771 C772 1.349 . S
C771 C773 1.327 . S
C771 H794 0.950 . S
C772 C771 1.349 . S
C772 C784 1.349 . S
C773 C771 1.327 . S
C773 C789 1.429 . S
C773 H795 0.950 . S
C774 H770 0.949 . S
C774 C782 1.574 1_655 S
C774 C790 1.368 . S
H775 C783 0.950 . S
H776 C781 0.950 . S
H777 C782 0.949 . S
H778 C784 0.950 . S
H779 C785 0.950 . S
H780 C786 0.949 . S
C781 H776 0.950 . S
C781 C783 1.327 . S
C781 C787 1.429 . S
C782 C774 1.574 1_455 S
C782 H777 0.949 . S
C782 C788 1.368 . S
C783 C767 1.349 . S
C783 H775 0.950 . S
C783 C781 1.327 . S
C784 C772 1.349 . S
C784 H778 0.950 . S
C784 C785 1.327 . S
C785 H779 0.950 . S
C785 C784 1.327 . S
C785 C789 1.429 . S
C786 C769 1.574 . S
C786 H780 0.949 . S
C786 C790 1.368 . S
C787 C768 1.429 . S
C787 C781 1.429 . S
C787 C788 1.523 . S
C788 C769 1.368 1_455 S
C788 C782 1.368 . S
C788 C787 1.523 . S
C789 C773 1.429 . S
C789 C785 1.429 . S
C789 C790 1.523 . S
C790 C774 1.368 . S
C790 C786 1.368 . S
C790 C789 1.523 . S
H791 C766 0.950 . S
H792 C768 0.950 . S
H793 C769 0.949 . S
H794 C771 0.950 . S
H795 C773 0.950 . S
C796 C797 1.349 . S
C796 C798 1.327 . S
C796 H821 0.950 . S
C797 C796 1.349 . S
C797 C813 1.349 . S
C798 C796 1.327 . S
C798 C817 1.429 . S
C798 H822 0.950 . S
C799 C816 1.574 . S
C799 C818 1.368 . S
C799 H823 0.949 . S
H800 C804 0.949 . S
C801 C802 1.349 . S
C801 C803 1.327 . S
C801 H824 0.950 . S
C802 C801 1.349 . S
C802 C814 1.349 . S
C803 C801 1.327 . S
C803 C819 1.429 . S
C803 H825 0.950 . S
C804 H800 0.949 . S
C804 C812 1.574 . S
C804 C820 1.368 . S
H805 C813 0.950 . S
H806 C811 0.950 . S
H807 C812 0.949 . S
H808 C814 0.950 . S
H809 C815 0.950 . S
H810 C816 0.949 . S
C811 H806 0.950 . S
C811 C813 1.327 . S
C811 C817 1.429 . S
C812 C804 1.574 . S
C812 H807 0.949 . S
C812 C818 1.368 . S
C813 C797 1.349 . S
C813 H805 0.950 . S
C813 C811 1.327 . S
C814 C802 1.349 . S
C814 H808 0.950 . S
C814 C815 1.327 . S
C815 H809 0.950 . S
C815 C814 1.327 . S
C815 C819 1.429 . S
C816 C799 1.574 . S
C816 H810 0.949 . S
C816 C820 1.368 . S
C817 C798 1.429 . S
C817 C811 1.429 . S
C817 C818 1.523 . S
C818 C799 1.368 . S
C818 C812 1.368 . S
C818 C817 1.523 . S
C819 C803 1.429 . S
C819 C815 1.429 . S
C819 C820 1.523 . S
C820 C804 1.368 . S
C820 C816 1.368 . S
C820 C819 1.523 . S
H821 C796 0.950 . S
H822 C798 0.950 . S
H823 C799 0.949 . S
H824 C801 0.950 . S
H825 C803 0.950 . S
C826 C827 1.349 . S
C826 C828 1.327 . S
C826 H851 0.950 . S
C827 C826 1.349 . S
C827 C843 1.349 . S
C828 C826 1.327 . S
C828 C847 1.429 . S
C828 H852 0.950 . S
C829 C846 1.574 . S
C829 C848 1.368 . S
C829 H853 0.949 . S
H830 C834 0.949 . S
C831 C832 1.349 . S
C831 C833 1.327 . S
C831 H854 0.950 . S
C832 C831 1.349 . S
C832 C844 1.349 . S
C833 C831 1.327 . S
C833 C849 1.429 . S
C833 H855 0.950 . S
C834 H830 0.949 . S
C834 C842 1.574 . S
C834 C850 1.368 . S
H835 C843 0.950 . S
H836 C841 0.950 . S
H837 C842 0.949 . S
H838 C844 0.950 . S
H839 C845 0.950 . S
H840 C846 0.949 . S
C841 H836 0.950 . S
C841 C843 1.327 . S
C841 C847 1.429 . S
C842 C834 1.574 . S
C842 H837 0.949 . S
C842 C848 1.368 . S
C843 C827 1.349 . S
C843 H835 0.950 . S
C843 C841 1.327 . S
C844 C832 1.349 . S
C844 H838 0.950 . S
C844 C845 1.327 . S
C845 H839 0.950 . S
C845 C844 1.327 . S
C845 C849 1.429 . S
C846 C829 1.574 . S
C846 H840 0.949 . S
C846 C850 1.368 . S
C847 C828 1.429 . S
C847 C841 1.429 . S
C847 C848 1.523 . S
C848 C829 1.368 . S
C848 C842 1.368 . S
C848 C847 1.523 . S
C849 C833 1.429 . S
C849 C845 1.429 . S
C849 C850 1.523 . S
C850 C834 1.368 . S
C850 C846 1.368 . S
C850 C849 1.523 . S
H851 C826 0.950 . S
H852 C828 0.950 . S
H853 C829 0.949 . S
H854 C831 0.950 . S
H855 C833 0.950 . S
C856 C857 1.349 . S
C856 C858 1.327 . S
C856 H881 0.950 . S
C857 C856 1.349 . S
C857 C873 1.349 . S
C858 C856 1.327 . S
C858 C877 1.429 . S
C858 H882 0.950 . S
C859 C876 1.574 . S
C859 C878 1.368 . S
C859 H883 0.949 . S
H860 C864 0.949 . S
C861 C862 1.349 . S
C861 C863 1.327 . S
C861 H884 0.950 . S
C862 C861 1.349 . S
C862 C874 1.349 . S
C863 C861 1.327 . S
C863 C879 1.429 . S
C863 H885 0.950 . S
C864 H860 0.949 . S
C864 C872 1.574 . S
C864 C880 1.368 . S
H865 C873 0.950 . S
H866 C871 0.950 . S
H867 C872 0.949 . S
H868 C874 0.950 . S
H869 C875 0.950 . S
H870 C876 0.949 . S
C871 H866 0.950 . S
C871 C873 1.327 . S
C871 C877 1.429 . S
C872 C864 1.574 . S
C872 H867 0.949 . S
C872 C878 1.368 . S
C873 C857 1.349 . S
C873 H865 0.950 . S
C873 C871 1.327 . S
C874 C862 1.349 . S
C874 H868 0.950 . S
C874 C875 1.327 . S
C875 H869 0.950 . S
C875 C874 1.327 . S
C875 C879 1.429 . S
C876 C859 1.574 . S
C876 H870 0.949 . S
C876 C880 1.368 . S
C877 C858 1.429 . S
C877 C871 1.429 . S
C877 C878 1.523 . S
C878 C859 1.368 . S
C878 C872 1.368 . S
C878 C877 1.523 . S
C879 C863 1.429 . S
C879 C875 1.429 . S
C879 C880 1.523 . S
C880 C864 1.368 . S
C880 C876 1.368 . S
C880 C879 1.523 . S
H881 C856 0.950 . S
H882 C858 0.950 . S
H883 C859 0.949 . S
H884 C861 0.950 . S
H885 C863 0.950 . S
C886 C887 1.349 . S
C886 C888 1.327 . S
C886 H911 0.950 . S
C887 C886 1.349 . S
C887 C903 1.349 . S
C888 C886 1.327 . S
C888 C907 1.429 . S
C888 H912 0.950 . S
C889 C906 1.574 . S
C889 C908 1.368 . S
C889 H913 0.949 . S
H890 C894 0.949 . S
C891 C892 1.349 . S
C891 C893 1.327 . S
C891 H914 0.950 . S
C892 C891 1.349 . S
C892 C904 1.349 . S
C893 C891 1.327 . S
C893 C909 1.429 . S
C893 H915 0.950 . S
C894 H890 0.949 . S
C894 C902 1.574 . S
C894 C910 1.368 . S
H895 C903 0.950 . S
H896 C901 0.950 . S
H897 C902 0.949 . S
H898 C904 0.950 . S
H899 C905 0.950 . S
H900 C906 0.949 . S
C901 H896 0.950 . S
C901 C903 1.327 . S
C901 C907 1.429 . S
C902 C894 1.574 . S
C902 H897 0.949 . S
C902 C908 1.368 . S
C903 C887 1.349 . S
C903 H895 0.950 . S
C903 C901 1.327 . S
C904 C892 1.349 . S
C904 H898 0.950 . S
C904 C905 1.327 . S
C905 H899 0.950 . S
C905 C904 1.327 . S
C905 C909 1.429 . S
C906 C889 1.574 . S
C906 H900 0.949 . S
C906 C910 1.368 . S
C907 C888 1.429 . S
C907 C901 1.429 . S
C907 C908 1.523 . S
C908 C889 1.368 . S
C908 C902 1.368 . S
C908 C907 1.523 . S
C909 C893 1.429 . S
C909 C905 1.429 . S
C909 C910 1.523 . S
C910 C894 1.368 . S
C910 C906 1.368 . S
C910 C909 1.523 . S
H911 C886 0.950 . S
H912 C888 0.950 . S
H913 C889 0.949 . S
H914 C891 0.950 . S
H915 C893 0.950 . S
C916 C917 1.349 . S
C916 C918 1.327 . S
C916 H941 0.950 . S
C917 C916 1.349 . S
C917 C933 1.349 . S
C918 C916 1.327 . S
C918 C937 1.429 . S
C918 H942 0.950 . S
C919 C936 1.574 . S
C919 C938 1.368 . S
C919 H943 0.949 . S
H920 C924 0.949 . S
C921 C922 1.349 . S
C921 C923 1.327 . S
C921 H944 0.950 . S
C922 C921 1.349 . S
C922 C934 1.349 . S
C923 C921 1.327 . S
C923 C939 1.429 . S
C923 H945 0.950 . S
C924 H920 0.949 . S
C924 C932 1.574 . S
C924 C940 1.368 . S
H925 C933 0.950 . S
H926 C931 0.950 . S
H927 C932 0.949 . S
H928 C934 0.950 . S
H929 C935 0.950 . S
H930 C936 0.949 . S
C931 H926 0.950 . S
C931 C933 1.327 . S
C931 C937 1.429 . S
C932 C924 1.574 . S
C932 H927 0.949 . S
C932 C938 1.368 . S
C933 C917 1.349 . S
C933 H925 0.950 . S
C933 C931 1.327 . S
C934 C922 1.349 . S
C934 H928 0.950 . S
C934 C935 1.327 . S
C935 H929 0.950 . S
C935 C934 1.327 . S
C935 C939 1.429 . S
C936 C919 1.574 . S
C936 H930 0.949 . S
C936 C940 1.368 . S
C937 C918 1.429 . S
C937 C931 1.429 . S
C937 C938 1.523 . S
C938 C919 1.368 . S
C938 C932 1.368 . S
C938 C937 1.523 . S
C939 C923 1.429 . S
C939 C935 1.429 . S
C939 C940 1.523 . S
C940 C924 1.368 . S
C940 C936 1.368 . S
C940 C939 1.523 . S
H941 C916 0.950 . S
H942 C918 0.950 . S
H943 C919 0.949 . S
H944 C921 0.950 . S
H945 C923 0.950 . S
C946 C947 1.349 . S
C946 C948 1.327 . S
C946 H971 0.950 . S
C947 C946 1.349 . S
C947 C963 1.349 . S
C948 C946 1.327 . S
C948 C967 1.429 . S
C948 H972 0.950 . S
C949 C966 1.574 . S
C949 C968 1.368 1_655 S
C949 H973 0.949 . S
H950 C954 0.949 . S
C951 C952 1.349 . S
C951 C953 1.327 . S
C951 H974 0.950 . S
C952 C951 1.349 . S
C952 C964 1.349 . S
C953 C951 1.327 . S
C953 C969 1.429 . S
C953 H975 0.950 . S
C954 H950 0.949 . S
C954 C962 1.574 1_655 S
C954 C970 1.368 . S
H955 C963 0.950 . S
H956 C961 0.950 . S
H957 C962 0.949 . S
H958 C964 0.950 . S
H959 C965 0.950 . S
H960 C966 0.949 . S
C961 H956 0.950 . S
C961 C963 1.327 . S
C961 C967 1.429 . S
C962 C954 1.574 1_455 S
C962 H957 0.949 . S
C962 C968 1.368 . S
C963 C947 1.349 . S
C963 H955 0.950 . S
C963 C961 1.327 . S
C964 C952 1.349 . S
C964 H958 0.950 . S
C964 C965 1.327 . S
C965 H959 0.950 . S
C965 C964 1.327 . S
C965 C969 1.429 . S
C966 C949 1.574 . S
C966 H960 0.949 . S
C966 C970 1.368 . S
C967 C948 1.429 . S
C967 C961 1.429 . S
C967 C968 1.523 . S
C968 C949 1.368 1_455 S
C968 C962 1.368 . S
C968 C967 1.523 . S
C969 C953 1.429 . S
C969 C965 1.429 . S
C969 C970 1.523 . S
C970 C954 1.368 . S
C970 C966 1.368 . S
C970 C969 1.523 . S
H971 C946 0.950 . S
H972 C948 0.950 . S
H973 C949 0.949 . S
H974 C951 0.950 . S
H975 C953 0.950 . S
C976 C977 1.349 . S
C976 C978 1.327 . S
C976 H1001 0.950 . S
C977 C976 1.349 . S
C977 C993 1.349 . S
C978 C976 1.327 . S
C978 C997 1.429 . S
C978 H1002 0.950 . S
C979 C996 1.574 . S
C979 C998 1.368 . S
C979 H1003 0.949 . S
H980 C984 0.949 . S
C981 C982 1.349 . S
C981 C983 1.327 . S
C981 H1004 0.950 . S
C982 C981 1.349 . S
C982 C994 1.349 . S
C983 C981 1.327 . S
C983 C999 1.429 . S
C983 H1005 0.950 . S
C984 H980 0.949 . S
C984 C992 1.574 . S
C984 C1000 1.368 . S
H985 C993 0.950 . S
H986 C991 0.950 . S
H987 C992 0.949 . S
H988 C994 0.950 . S
H989 C995 0.950 . S
H990 C996 0.949 . S
C991 H986 0.950 . S
C991 C993 1.327 . S
C991 C997 1.429 . S
C992 C984 1.574 . S
C992 H987 0.949 . S
C992 C998 1.368 . S
C993 C977 1.349 . S
C993 H985 0.950 . S
C993 C991 1.327 . S
C994 C982 1.349 . S
C994 H988 0.950 . S
C994 C995 1.327 . S
C995 H989 0.950 . S
C995 C994 1.327 . S
C995 C999 1.429 . S
C996 C979 1.574 . S
C996 H990 0.949 . S
C996 C1000 1.368 . S
C997 C978 1.429 . S
C997 C991 1.429 . S
C997 C998 1.523 . S
C998 C979 1.368 . S
C998 C992 1.368 . S
C998 C997 1.523 . S
C999 C983 1.429 . S
C999 C995 1.429 . S
C999 C1000 1.523 . S
C1000 C984 1.368 . S
C1000 C996 1.368 . S
C1000 C999 1.523 . S
H1001 C976 0.950 . S
H1002 C978 0.950 . S
H1003 C979 0.949 . S
H1004 C981 0.950 . S
H1005 C983 0.950 . S
C1006 C1007 1.349 . S
C1006 C1008 1.327 . S
C1006 H1031 0.950 . S
C1007 C1006 1.349 . S
C1007 C1023 1.349 . S
C1008 C1006 1.327 . S
C1008 C1027 1.429 . S
C1008 H1032 0.950 . S
C1009 C1026 1.574 1_455 S
C1009 C1028 1.368 . S
C1009 H1033 0.949 . S
H1010 C1014 0.949 . S
C1011 C1012 1.349 . S
C1011 C1013 1.327 . S
C1011 H1034 0.950 . S
C1012 C1011 1.349 . S
C1012 C1024 1.349 . S
C1013 C1011 1.327 . S
C1013 C1029 1.429 . S
C1013 H1035 0.950 . S
C1014 H1010 0.949 . S
C1014 C1022 1.574 . S
C1014 C1030 1.368 1_455 S
H1015 C1023 0.950 . S
H1016 C1021 0.950 . S
H1017 C1022 0.949 . S
H1018 C1024 0.950 . S
H1019 C1025 0.950 . S
H1020 C1026 0.949 . S
C1021 H1016 0.950 . S
C1021 C1023 1.327 . S
C1021 C1027 1.429 . S
C1022 C1014 1.574 . S
C1022 H1017 0.949 . S
C1022 C1028 1.368 . S
C1023 C1007 1.349 . S
C1023 H1015 0.950 . S
C1023 C1021 1.327 . S
C1024 C1012 1.349 . S
C1024 H1018 0.950 . S
C1024 C1025 1.327 . S
C1025 H1019 0.950 . S
C1025 C1024 1.327 . S
C1025 C1029 1.429 . S
C1026 C1009 1.574 1_655 S
C1026 H1020 0.949 . S
C1026 C1030 1.368 . S
C1027 C1008 1.429 . S
C1027 C1021 1.429 . S
C1027 C1028 1.523 . S
C1028 C1009 1.368 . S
C1028 C1022 1.368 . S
C1028 C1027 1.523 . S
C1029 C1013 1.429 . S
C1029 C1025 1.429 . S
C1029 C1030 1.523 . S
C1030 C1014 1.368 1_655 S
C1030 C1026 1.368 . S
C1030 C1029 1.523 . S
H1031 C1006 0.950 . S
H1032 C1008 0.950 . S
H1033 C1009 0.949 . S
H1034 C1011 0.950 . S
H1035 C1013 0.950 . S
C1036 C1037 1.349 . S
C1036 C1038 1.327 . S
C1036 H1061 0.950 . S
C1037 C1036 1.349 . S
C1037 C1053 1.349 . S
C1038 C1036 1.327 . S
C1038 C1057 1.429 . S
C1038 H1062 0.950 . S
C1039 C1056 1.574 . S
C1039 C1058 1.368 . S
C1039 H1063 0.949 . S
H1040 C1044 0.949 . S
C1041 C1042 1.349 . S
C1041 C1043 1.327 . S
C1041 H1064 0.950 . S
C1042 C1041 1.349 . S
C1042 C1054 1.349 . S
C1043 C1041 1.327 . S
C1043 C1059 1.429 . S
C1043 H1065 0.950 . S
C1044 H1040 0.949 . S
C1044 C1052 1.574 . S
C1044 C1060 1.368 . S
H1045 C1053 0.950 . S
H1046 C1051 0.950 . S
H1047 C1052 0.949 . S
H1048 C1054 0.950 . S
H1049 C1055 0.950 . S
H1050 C1056 0.949 . S
C1051 H1046 0.950 . S
C1051 C1053 1.327 . S
C1051 C1057 1.429 . S
C1052 C1044 1.574 . S
C1052 H1047 0.949 . S
C1052 C1058 1.368 . S
C1053 C1037 1.349 . S
C1053 H1045 0.950 . S
C1053 C1051 1.327 . S
C1054 C1042 1.349 . S
C1054 H1048 0.950 . S
C1054 C1055 1.327 . S
C1055 H1049 0.950 . S
C1055 C1054 1.327 . S
C1055 C1059 1.429 . S
C1056 C1039 1.574 . S
C1056 H1050 0.949 . S
C1056 C1060 1.368 . S
C1057 C1038 1.429 . S
C1057 C1051 1.429 . S
C1057 C1058 1.523 . S
C1058 C1039 1.368 . S
C1058 C1052 1.368 . S
C1058 C1057 1.523 . S
C1059 C1043 1.429 . S
C1059 C1055 1.429 . S
C1059 C1060 1.523 . S
C1060 C1044 1.368 . S
C1060 C1056 1.368 . S
C1060 C1059 1.523 . S
H1061 C1036 0.950 . S
H1062 C1038 0.950 . S
H1063 C1039 0.949 . S
H1064 C1041 0.950 . S
H1065 C1043 0.950 . S
C1066 C1067 1.349 . S
C1066 C1068 1.327 . S
C1066 H1091 0.950 . S
C1067 C1066 1.349 . S
C1067 C1083 1.349 . S
C1068 C1066 1.327 . S
C1068 C1087 1.429 . S
C1068 H1092 0.950 . S
C1069 C1086 1.574 . S
C1069 C1088 1.368 . S
C1069 H1093 0.949 . S
H1070 C1074 0.949 . S
C1071 C1072 1.349 . S
C1071 C1073 1.327 . S
C1071 H1094 0.950 . S
C1072 C1071 1.349 . S
C1072 C1084 1.349 . S
C1073 C1071 1.327 . S
C1073 C1089 1.429 . S
C1073 H1095 0.950 . S
C1074 H1070 0.949 . S
C1074 C1082 1.574 . S
C1074 C1090 1.368 . S
H1075 C1083 0.950 . S
H1076 C1081 0.950 . S
H1077 C1082 0.949 . S
H1078 C1084 0.950 . S
H1079 C1085 0.950 . S
H1080 C1086 0.949 . S
C1081 H1076 0.950 . S
C1081 C1083 1.327 . S
C1081 C1087 1.429 . S
C1082 C1074 1.574 . S
C1082 H1077 0.949 . S
C1082 C1088 1.368 . S
C1083 C1067 1.349 . S
C1083 H1075 0.950 . S
C1083 C1081 1.327 . S
C1084 C1072 1.349 . S
C1084 H1078 0.950 . S
C1084 C1085 1.327 . S
C1085 H1079 0.950 . S
C1085 C1084 1.327 . S
C1085 C1089 1.429 . S
C1086 C1069 1.574 . S
C1086 H1080 0.949 . S
C1086 C1090 1.368 . S
C1087 C1068 1.429 . S
C1087 C1081 1.429 . S
C1087 C1088 1.523 . S
C1088 C1069 1.368 . S
C1088 C1082 1.368 . S
C1088 C1087 1.523 . S
C1089 C1073 1.429 . S
C1089 C1085 1.429 . S
C1089 C1090 1.523 . S
C1090 C1074 1.368 . S
C1090 C1086 1.368 . S
C1090 C1089 1.523 . S
H1091 C1066 0.950 . S
H1092 C1068 0.950 . S
H1093 C1069 0.949 . S
H1094 C1071 0.950 . S
H1095 C1073 0.950 . S
C1096 C1097 1.349 . S
C1096 C1098 1.327 . S
C1096 H1121 0.950 . S
C1097 C1096 1.349 . S
C1097 C1113 1.349 . S
C1098 C1096 1.327 . S
C1098 C1117 1.429 . S
C1098 H1122 0.950 . S
C1099 C1116 1.574 . S
C1099 C1118 1.368 . S
C1099 H1123 0.949 . S
H1100 C1104 0.949 . S
C1101 C1102 1.349 . S
C1101 C1103 1.327 . S
C1101 H1124 0.950 . S
C1102 C1101 1.349 . S
C1102 C1114 1.349 . S
C1103 C1101 1.327 . S
C1103 C1119 1.429 . S
C1103 H1125 0.950 . S
C1104 H1100 0.949 . S
C1104 C1112 1.574 . S
C1104 C1120 1.368 . S
H1105 C1113 0.950 . S
H1106 C1111 0.950 . S
H1107 C1112 0.949 . S
H1108 C1114 0.950 . S
H1109 C1115 0.950 . S
H1110 C1116 0.949 . S
C1111 H1106 0.950 . S
C1111 C1113 1.327 . S
C1111 C1117 1.429 . S
C1112 C1104 1.574 . S
C1112 H1107 0.949 . S
C1112 C1118 1.368 . S
C1113 C1097 1.349 . S
C1113 H1105 0.950 . S
C1113 C1111 1.327 . S
C1114 C1102 1.349 . S
C1114 H1108 0.950 . S
C1114 C1115 1.327 . S
C1115 H1109 0.950 . S
C1115 C1114 1.327 . S
C1115 C1119 1.429 . S
C1116 C1099 1.574 . S
C1116 H1110 0.949 . S
C1116 C1120 1.368 . S
C1117 C1098 1.429 . S
C1117 C1111 1.429 . S
C1117 C1118 1.523 . S
C1118 C1099 1.368 . S
C1118 C1112 1.368 . S
C1118 C1117 1.523 . S
C1119 C1103 1.429 . S
C1119 C1115 1.429 . S
C1119 C1120 1.523 . S
C1120 C1104 1.368 . S
C1120 C1116 1.368 . S
C1120 C1119 1.523 . S
H1121 C1096 0.950 . S
H1122 C1098 0.950 . S
H1123 C1099 0.949 . S
H1124 C1101 0.950 . S
H1125 C1103 0.950 . S
C1126 C1127 1.349 . S
C1126 C1128 1.327 . S
C1126 H1151 0.950 . S
C1127 C1126 1.349 . S
C1127 C1143 1.349 . S
C1128 C1126 1.327 . S
C1128 C1147 1.429 . S
C1128 H1152 0.950 . S
C1129 C1146 1.574 . S
C1129 C1148 1.368 . S
C1129 H1153 0.949 . S
H1130 C1134 0.949 . S
C1131 C1132 1.349 . S
C1131 C1133 1.327 . S
C1131 H1154 0.950 . S
C1132 C1131 1.349 . S
C1132 C1144 1.349 . S
C1133 C1131 1.327 . S
C1133 C1149 1.429 . S
C1133 H1155 0.950 . S
C1134 H1130 0.949 . S
C1134 C1142 1.574 . S
C1134 C1150 1.368 . S
H1135 C1143 0.950 . S
H1136 C1141 0.950 . S
H1137 C1142 0.949 . S
H1138 C1144 0.950 . S
H1139 C1145 0.950 . S
H1140 C1146 0.949 . S
C1141 H1136 0.950 . S
C1141 C1143 1.327 . S
C1141 C1147 1.429 . S
C1142 C1134 1.574 . S
C1142 H1137 0.949 . S
C1142 C1148 1.368 . S
C1143 C1127 1.349 . S
C1143 H1135 0.950 . S
C1143 C1141 1.327 . S
C1144 C1132 1.349 . S
C1144 H1138 0.950 . S
C1144 C1145 1.327 . S
C1145 H1139 0.950 . S
C1145 C1144 1.327 . S
C1145 C1149 1.429 . S
C1146 C1129 1.574 . S
C1146 H1140 0.949 . S
C1146 C1150 1.368 . S
C1147 C1128 1.429 . S
C1147 C1141 1.429 . S
C1147 C1148 1.523 . S
C1148 C1129 1.368 . S
C1148 C1142 1.368 . S
C1148 C1147 1.523 . S
C1149 C1133 1.429 . S
C1149 C1145 1.429 . S
C1149 C1150 1.523 . S
C1150 C1134 1.368 . S
C1150 C1146 1.368 . S
C1150 C1149 1.523 . S
H1151 C1126 0.950 . S
H1152 C1128 0.950 . S
H1153 C1129 0.949 . S
H1154 C1131 0.950 . S
H1155 C1133 0.950 . S
C1156 C1157 1.349 . S
C1156 C1158 1.327 . S
C1156 H1181 0.950 . S
C1157 C1156 1.349 . S
C1157 C1173 1.349 . S
C1158 C1156 1.327 . S
C1158 C1177 1.429 . S
C1158 H1182 0.950 . S
C1159 C1176 1.574 . S
C1159 C1178 1.368 . S
C1159 H1183 0.949 . S
H1160 C1164 0.949 . S
C1161 C1162 1.349 . S
C1161 C1163 1.327 . S
C1161 H1184 0.950 . S
C1162 C1161 1.349 . S
C1162 C1174 1.349 . S
C1163 C1161 1.327 . S
C1163 C1179 1.429 . S
C1163 H1185 0.950 . S
C1164 H1160 0.949 . S
C1164 C1172 1.574 . S
C1164 C1180 1.368 . S
H1165 C1173 0.950 . S
H1166 C1171 0.950 . S
H1167 C1172 0.949 . S
H1168 C1174 0.950 . S
H1169 C1175 0.950 . S
H1170 C1176 0.949 . S
C1171 H1166 0.950 . S
C1171 C1173 1.327 . S
C1171 C1177 1.429 . S
C1172 C1164 1.574 . S
C1172 H1167 0.949 . S
C1172 C1178 1.368 . S
C1173 C1157 1.349 . S
C1173 H1165 0.950 . S
C1173 C1171 1.327 . S
C1174 C1162 1.349 . S
C1174 H1168 0.950 . S
C1174 C1175 1.327 . S
C1175 H1169 0.950 . S
C1175 C1174 1.327 . S
C1175 C1179 1.429 . S
C1176 C1159 1.574 . S
C1176 H1170 0.949 . S
C1176 C1180 1.368 . S
C1177 C1158 1.429 . S
C1177 C1171 1.429 . S
C1177 C1178 1.523 . S
C1178 C1159 1.368 . S
C1178 C1172 1.368 . S
C1178 C1177 1.523 . S
C1179 C1163 1.429 . S
C1179 C1175 1.429 . S
C1179 C1180 1.523 . S
C1180 C1164 1.368 . S
C1180 C1176 1.368 . S
C1180 C1179 1.523 . S
H1181 C1156 0.950 . S
H1182 C1158 0.950 . S
H1183 C1159 0.949 . S
H1184 C1161 0.950 . S
H1185 C1163 0.950 . S
C1186 C1187 1.349 . S
C1186 C1188 1.327 . S
C1186 H1211 0.950 . S
C1187 C1186 1.349 . S
C1187 C1203 1.349 . S
C1188 C1186 1.327 . S
C1188 C1207 1.429 . S
C1188 H1212 0.950 . S
C1189 C1206 1.574 1_455 S
C1189 C1208 1.368 . S
C1189 H1213 0.949 . S
H1190 C1194 0.949 . S
C1191 C1192 1.349 . S
C1191 C1193 1.327 . S
C1191 H1214 0.950 . S
C1192 C1191 1.349 . S
C1192 C1204 1.349 . S
C1193 C1191 1.327 . S
C1193 C1209 1.429 . S
C1193 H1215 0.950 . S
C1194 H1190 0.949 . S
C1194 C1202 1.574 . S
C1194 C1210 1.368 1_455 S
H1195 C1203 0.950 . S
H1196 C1201 0.950 . S
H1197 C1202 0.949 . S
H1198 C1204 0.950 . S
H1199 C1205 0.950 . S
H1200 C1206 0.949 . S
C1201 H1196 0.950 . S
C1201 C1203 1.327 . S
C1201 C1207 1.429 . S
C1202 C1194 1.574 . S
C1202 H1197 0.949 . S
C1202 C1208 1.368 . S
C1203 C1187 1.349 . S
C1203 H1195 0.950 . S
C1203 C1201 1.327 . S
C1204 C1192 1.349 . S
C1204 H1198 0.950 . S
C1204 C1205 1.327 . S
C1205 H1199 0.950 . S
C1205 C1204 1.327 . S
C1205 C1209 1.429 . S
C1206 C1189 1.574 1_655 S
C1206 H1200 0.949 . S
C1206 C1210 1.368 . S
C1207 C1188 1.429 . S
C1207 C1201 1.429 . S
C1207 C1208 1.523 . S
C1208 C1189 1.368 . S
C1208 C1202 1.368 . S
C1208 C1207 1.523 . S
C1209 C1193 1.429 . S
C1209 C1205 1.429 . S
C1209 C1210 1.523 . S
C1210 C1194 1.368 1_655 S
C1210 C1206 1.368 . S
C1210 C1209 1.523 . S
H1211 C1186 0.950 . S
H1212 C1188 0.950 . S
H1213 C1189 0.949 . S
H1214 C1191 0.950 . S
H1215 C1193 0.950 . S
C1216 C1217 1.349 . S
C1216 C1218 1.327 . S
C1216 H1241 0.950 . S
C1217 C1216 1.349 . S
C1217 C1233 1.349 . S
C1218 C1216 1.327 . S
C1218 C1237 1.429 . S
C1218 H1242 0.950 . S
C1219 C1236 1.574 . S
C1219 C1238 1.368 . S
C1219 H1243 0.949 . S
H1220 C1224 0.949 . S
C1221 C1222 1.349 . S
C1221 C1223 1.327 . S
C1221 H1244 0.950 . S
C1222 C1221 1.349 . S
C1222 C1234 1.349 . S
C1223 C1221 1.327 . S
C1223 C1239 1.429 . S
C1223 H1245 0.950 . S
C1224 H1220 0.949 . S
C1224 C1232 1.574 . S
C1224 C1240 1.368 . S
H1225 C1233 0.950 . S
H1226 C1231 0.950 . S
H1227 C1232 0.949 . S
H1228 C1234 0.950 . S
H1229 C1235 0.950 . S
H1230 C1236 0.949 . S
C1231 H1226 0.950 . S
C1231 C1233 1.327 . S
C1231 C1237 1.429 . S
C1232 C1224 1.574 . S
C1232 H1227 0.949 . S
C1232 C1238 1.368 . S
C1233 C1217 1.349 . S
C1233 H1225 0.950 . S
C1233 C1231 1.327 . S
C1234 C1222 1.349 . S
C1234 H1228 0.950 . S
C1234 C1235 1.327 . S
C1235 H1229 0.950 . S
C1235 C1234 1.327 . S
C1235 C1239 1.429 . S
C1236 C1219 1.574 . S
C1236 H1230 0.949 . S
C1236 C1240 1.368 . S
C1237 C1218 1.429 . S
C1237 C1231 1.429 . S
C1237 C1238 1.523 . S
C1238 C1219 1.368 . S
C1238 C1232 1.368 . S
C1238 C1237 1.523 . S
C1239 C1223 1.429 . S
C1239 C1235 1.429 . S
C1239 C1240 1.523 . S
C1240 C1224 1.368 . S
C1240 C1236 1.368 . S
C1240 C1239 1.523 . S
H1241 C1216 0.950 . S
H1242 C1218 0.950 . S
H1243 C1219 0.949 . S
H1244 C1221 0.950 . S
H1245 C1223 0.950 . S
C1246 C1247 1.349 . S
C1246 C1248 1.327 . S
C1246 H1271 0.950 . S
C1247 C1246 1.349 . S
C1247 C1263 1.349 . S
C1248 C1246 1.327 . S
C1248 C1267 1.429 . S
C1248 H1272 0.950 . S
C1249 C1266 1.574 . S
C1249 C1268 1.368 . S
C1249 H1273 0.949 . S
H1250 C1254 0.949 . S
C1251 C1252 1.349 . S
C1251 C1253 1.327 . S
C1251 H1274 0.950 . S
C1252 C1251 1.349 . S
C1252 C1264 1.349 . S
C1253 C1251 1.327 . S
C1253 C1269 1.429 . S
C1253 H1275 0.950 . S
C1254 H1250 0.949 . S
C1254 C1262 1.574 . S
C1254 C1270 1.368 . S
H1255 C1263 0.950 . S
H1256 C1261 0.950 . S
H1257 C1262 0.949 . S
H1258 C1264 0.950 . S
H1259 C1265 0.950 . S
H1260 C1266 0.949 . S
C1261 H1256 0.950 . S
C1261 C1263 1.327 . S
C1261 C1267 1.429 . S
C1262 C1254 1.574 . S
C1262 H1257 0.949 . S
C1262 C1268 1.368 . S
C1263 C1247 1.349 . S
C1263 H1255 0.950 . S
C1263 C1261 1.327 . S
C1264 C1252 1.349 . S
C1264 H1258 0.950 . S
C1264 C1265 1.327 . S
C1265 H1259 0.950 . S
C1265 C1264 1.327 . S
C1265 C1269 1.429 . S
C1266 C1249 1.574 . S
C1266 H1260 0.949 . S
C1266 C1270 1.368 . S
C1267 C1248 1.429 . S
C1267 C1261 1.429 . S
C1267 C1268 1.523 . S
C1268 C1249 1.368 . S
C1268 C1262 1.368 . S
C1268 C1267 1.523 . S
C1269 C1253 1.429 . S
C1269 C1265 1.429 . S
C1269 C1270 1.523 . S
C1270 C1254 1.368 . S
C1270 C1266 1.368 . S
C1270 C1269 1.523 . S
H1271 C1246 0.950 . S
H1272 C1248 0.950 . S
H1273 C1249 0.949 . S
H1274 C1251 0.950 . S
H1275 C1253 0.950 . S
C1276 C1277 1.349 . S
C1276 C1278 1.327 . S
C1276 H1301 0.950 . S
C1277 C1276 1.349 . S
C1277 C1293 1.349 . S
C1278 C1276 1.327 . S
C1278 C1297 1.429 . S
C1278 H1302 0.950 . S
C1279 C1296 1.574 . S
C1279 C1298 1.368 . S
C1279 H1303 0.949 . S
H1280 C1284 0.949 . S
C1281 C1282 1.349 . S
C1281 C1283 1.327 . S
C1281 H1304 0.950 . S
C1282 C1281 1.349 . S
C1282 C1294 1.349 . S
C1283 C1281 1.327 . S
C1283 C1299 1.429 . S
C1283 H1305 0.950 . S
C1284 H1280 0.949 . S
C1284 C1292 1.574 . S
C1284 C1300 1.368 . S
H1285 C1293 0.950 . S
H1286 C1291 0.950 . S
H1287 C1292 0.949 . S
H1288 C1294 0.950 . S
H1289 C1295 0.950 . S
H1290 C1296 0.949 . S
C1291 H1286 0.950 . S
C1291 C1293 1.327 . S
C1291 C1297 1.429 . S
C1292 C1284 1.574 . S
C1292 H1287 0.949 . S
C1292 C1298 1.368 . S
C1293 C1277 1.349 . S
C1293 H1285 0.950 . S
C1293 C1291 1.327 . S
C1294 C1282 1.349 . S
C1294 H1288 0.950 . S
C1294 C1295 1.327 . S
C1295 H1289 0.950 . S
C1295 C1294 1.327 . S
C1295 C1299 1.429 . S
C1296 C1279 1.574 . S
C1296 H1290 0.949 . S
C1296 C1300 1.368 . S
C1297 C1278 1.429 . S
C1297 C1291 1.429 . S
C1297 C1298 1.523 . S
C1298 C1279 1.368 . S
C1298 C1292 1.368 . S
C1298 C1297 1.523 . S
C1299 C1283 1.429 . S
C1299 C1295 1.429 . S
C1299 C1300 1.523 . S
C1300 C1284 1.368 . S
C1300 C1296 1.368 . S
C1300 C1299 1.523 . S
H1301 C1276 0.950 . S
H1302 C1278 0.950 . S
H1303 C1279 0.949 . S
H1304 C1281 0.950 . S
H1305 C1283 0.950 . S
C1306 C1307 1.349 . S
C1306 C1308 1.327 . S
C1306 H1331 0.950 . S
C1307 C1306 1.349 . S
C1307 C1323 1.349 . S
C1308 C1306 1.327 . S
C1308 C1327 1.429 . S
C1308 H1332 0.950 . S
C1309 C1326 1.574 1_455 S
C1309 C1328 1.368 . S
C1309 H1333 0.949 . S
H1310 C1314 0.949 . S
C1311 C1312 1.349 . S
C1311 C1313 1.327 . S
C1311 H1334 0.950 . S
C1312 C1311 1.349 . S
C1312 C1324 1.349 . S
C1313 C1311 1.327 . S
C1313 C1329 1.429 . S
C1313 H1335 0.950 . S
C1314 H1310 0.949 . S
C1314 C1322 1.574 . S
C1314 C1330 1.368 1_455 S
H1315 C1323 0.950 . S
H1316 C1321 0.950 . S
H1317 C1322 0.949 . S
H1318 C1324 0.950 . S
H1319 C1325 0.950 . S
H1320 C1326 0.949 . S
C1321 H1316 0.950 . S
C1321 C1323 1.327 . S
C1321 C1327 1.429 . S
C1322 C1314 1.574 . S
C1322 H1317 0.949 . S
C1322 C1328 1.368 . S
C1323 C1307 1.349 . S
C1323 H1315 0.950 . S
C1323 C1321 1.327 . S
C1324 C1312 1.349 . S
C1324 H1318 0.950 . S
C1324 C1325 1.327 . S
C1325 H1319 0.950 . S
C1325 C1324 1.327 . S
C1325 C1329 1.429 . S
C1326 C1309 1.574 1_655 S
C1326 H1320 0.949 . S
C1326 C1330 1.368 . S
C1327 C1308 1.429 . S
C1327 C1321 1.429 . S
C1327 C1328 1.523 . S
C1328 C1309 1.368 . S
C1328 C1322 1.368 . S
C1328 C1327 1.523 . S
C1329 C1313 1.429 . S
C1329 C1325 1.429 . S
C1329 C1330 1.523 . S
C1330 C1314 1.368 1_655 S
C1330 C1326 1.368 . S
C1330 C1329 1.523 . S
H1331 C1306 0.950 . S
H1332 C1308 0.950 . S
H1333 C1309 0.949 . S
H1334 C1311 0.950 . S
H1335 C1313 0.950 . S
C1336 C1337 1.349 . S
C1336 C1338 1.327 . S
C1336 H1361 0.950 . S
C1337 C1336 1.349 . S
C1337 C1353 1.349 . S
C1338 C1336 1.327 . S
C1338 C1357 1.429 . S
C1338 H1362 0.950 . S
C1339 C1356 1.574 . S
C1339 C1358 1.368 . S
C1339 H1363 0.949 . S
H1340 C1344 0.949 . S
C1341 C1342 1.349 . S
C1341 C1343 1.327 . S
C1341 H1364 0.950 . S
C1342 C1341 1.349 . S
C1342 C1354 1.349 . S
C1343 C1341 1.327 . S
C1343 C1359 1.429 . S
C1343 H1365 0.950 . S
C1344 H1340 0.949 . S
C1344 C1352 1.574 . S
C1344 C1360 1.368 . S
H1345 C1353 0.950 . S
H1346 C1351 0.950 . S
H1347 C1352 0.949 . S
H1348 C1354 0.950 . S
H1349 C1355 0.950 . S
H1350 C1356 0.949 . S
C1351 H1346 0.950 . S
C1351 C1353 1.327 . S
C1351 C1357 1.429 . S
C1352 C1344 1.574 . S
C1352 H1347 0.949 . S
C1352 C1358 1.368 . S
C1353 C1337 1.349 . S
C1353 H1345 0.950 . S
C1353 C1351 1.327 . S
C1354 C1342 1.349 . S
C1354 H1348 0.950 . S
C1354 C1355 1.327 . S
C1355 H1349 0.950 . S
C1355 C1354 1.327 . S
C1355 C1359 1.429 . S
C1356 C1339 1.574 . S
C1356 H1350 0.949 . S
C1356 C1360 1.368 . S
C1357 C1338 1.429 . S
C1357 C1351 1.429 . S
C1357 C1358 1.523 . S
C1358 C1339 1.368 . S
C1358 C1352 1.368 . S
C1358 C1357 1.523 . S
C1359 C1343 1.429 . S
C1359 C1355 1.429 . S
C1359 C1360 1.523 . S
C1360 C1344 1.368 . S
C1360 C1356 1.368 . S
C1360 C1359 1.523 . S
H1361 C1336 0.950 . S
H1362 C1338 0.950 . S
H1363 C1339 0.949 . S
H1364 C1341 0.950 . S
H1365 C1343 0.950 . S
C1366 C1367 1.349 . S
C1366 C1368 1.327 . S
C1366 H1391 0.950 . S
C1367 C1366 1.349 . S
C1367 C1383 1.349 . S
C1368 C1366 1.327 . S
C1368 C1387 1.429 . S
C1368 H1392 0.950 . S
C1369 C1386 1.574 . S
C1369 C1388 1.368 . S
C1369 H1393 0.949 . S
H1370 C1374 0.949 . S
C1371 C1372 1.349 . S
C1371 C1373 1.327 . S
C1371 H1394 0.950 . S
C1372 C1371 1.349 . S
C1372 C1384 1.349 . S
C1373 C1371 1.327 . S
C1373 C1389 1.429 . S
C1373 H1395 0.950 . S
C1374 H1370 0.949 . S
C1374 C1382 1.574 1_655 S
C1374 C1390 1.368 . S
H1375 C1383 0.950 . S
H1376 C1381 0.950 . S
H1377 C1382 0.949 . S
H1378 C1384 0.950 . S
H1379 C1385 0.950 . S
H1380 C1386 0.949 . S
C1381 H1376 0.950 . S
C1381 C1383 1.327 . S
C1381 C1387 1.429 . S
C1382 C1374 1.574 1_455 S
C1382 H1377 0.949 . S
C1382 C1388 1.368 . S
C1383 C1367 1.349 . S
C1383 H1375 0.950 . S
C1383 C1381 1.327 . S
C1384 C1372 1.349 . S
C1384 H1378 0.950 . S
C1384 C1385 1.327 . S
C1385 H1379 0.950 . S
C1385 C1384 1.327 . S
C1385 C1389 1.429 . S
C1386 C1369 1.574 . S
C1386 H1380 0.949 . S
C1386 C1390 1.368 1_455 S
C1387 C1368 1.429 . S
C1387 C1381 1.429 . S
C1387 C1388 1.523 . S
C1388 C1369 1.368 . S
C1388 C1382 1.368 . S
C1388 C1387 1.523 . S
C1389 C1373 1.429 . S
C1389 C1385 1.429 . S
C1389 C1390 1.523 . S
C1390 C1374 1.368 . S
C1390 C1386 1.368 1_655 S
C1390 C1389 1.523 . S
H1391 C1366 0.950 . S
H1392 C1368 0.950 . S
H1393 C1369 0.949 . S
H1394 C1371 0.950 . S
H1395 C1373 0.950 . S
C1396 C1397 1.349 . S
C1396 C1398 1.327 . S
C1396 H1421 0.950 . S
C1397 C1396 1.349 . S
C1397 C1413 1.349 . S
C1398 C1396 1.327 . S
C1398 C1417 1.429 . S
C1398 H1422 0.950 . S
C1399 C1416 1.574 . S
C1399 C1418 1.368 . S
C1399 H1423 0.949 . S
H1400 C1404 0.949 . S
C1401 C1402 1.349 . S
C1401 C1403 1.327 . S
C1401 H1424 0.950 . S
C1402 C1401 1.349 . S
C1402 C1414 1.349 . S
C1403 C1401 1.327 . S
C1403 C1419 1.429 . S
C1403 H1425 0.950 . S
C1404 H1400 0.949 . S
C1404 C1412 1.574 . S
C1404 C1420 1.368 . S
H1405 C1413 0.950 . S
H1406 C1411 0.950 . S
H1407 C1412 0.949 . S
H1408 C1414 0.950 . S
H1409 C1415 0.950 . S
H1410 C1416 0.949 . S
C1411 H1406 0.950 . S
C1411 C1413 1.327 . S
C1411 C1417 1.429 . S
C1412 C1404 1.574 . S
C1412 H1407 0.949 . S
C1412 C1418 1.368 . S
C1413 C1397 1.349 . S
C1413 H1405 0.950 . S
C1413 C1411 1.327 . S
C1414 C1402 1.349 . S
C1414 H1408 0.950 . S
C1414 C1415 1.327 . S
C1415 H1409 0.950 . S
C1415 C1414 1.327 . S
C1415 C1419 1.429 . S
C1416 C1399 1.574 . S
C1416 H1410 0.949 . S
C1416 C1420 1.368 . S
C1417 C1398 1.429 . S
C1417 C1411 1.429 . S
C1417 C1418 1.523 . S
C1418 C1399 1.368 . S
C1418 C1412 1.368 . S
C1418 C1417 1.523 . S
C1419 C1403 1.429 . S
C1419 C1415 1.429 . S
C1419 C1420 1.523 . S
C1420 C1404 1.368 . S
C1420 C1416 1.368 . S
C1420 C1419 1.523 . S
H1421 C1396 0.950 . S
H1422 C1398 0.950 . S
H1423 C1399 0.949 . S
H1424 C1401 0.950 . S
H1425 C1403 0.950 . S
C1426 C1427 1.349 . S
C1426 C1428 1.327 . S
C1426 H1451 0.950 . S
C1427 C1426 1.349 . S
C1427 C1443 1.349 . S
C1428 C1426 1.327 . S
C1428 C1447 1.429 . S
C1428 H1452 0.950 . S
C1429 C1446 1.574 . S
C1429 C1448 1.368 . S
C1429 H1453 0.949 . S
H1430 C1434 0.949 . S
C1431 C1432 1.349 . S
C1431 C1433 1.327 . S
C1431 H1454 0.950 . S
C1432 C1431 1.349 . S
C1432 C1444 1.349 . S
C1433 C1431 1.327 . S
C1433 C1449 1.429 . S
C1433 H1455 0.950 . S
C1434 H1430 0.949 . S
C1434 C1442 1.574 . S
C1434 C1450 1.368 . S
H1435 C1443 0.950 . S
H1436 C1441 0.950 . S
H1437 C1442 0.949 . S
H1438 C1444 0.950 . S
H1439 C1445 0.950 . S
H1440 C1446 0.949 . S
C1441 H1436 0.950 . S
C1441 C1443 1.327 . S
C1441 C1447 1.429 . S
C1442 C1434 1.574 . S
C1442 H1437 0.949 . S
C1442 C1448 1.368 . S
C1443 C1427 1.349 . S
C1443 H1435 0.950 . S
C1443 C1441 1.327 . S
C1444 C1432 1.349 . S
C1444 H1438 0.950 . S
C1444 C1445 1.327 . S
C1445 H1439 0.950 . S
C1445 C1444 1.327 . S
C1445 C1449 1.429 . S
C1446 C1429 1.574 . S
C1446 H1440 0.949 . S
C1446 C1450 1.368 . S
C1447 C1428 1.429 . S
C1447 C1441 1.429 . S
C1447 C1448 1.523 . S
C1448 C1429 1.368 . S
C1448 C1442 1.368 . S
C1448 C1447 1.523 . S
C1449 C1433 1.429 . S
C1449 C1445 1.429 . S
C1449 C1450 1.523 . S
C1450 C1434 1.368 . S
C1450 C1446 1.368 . S
C1450 C1449 1.523 . S
H1451 C1426 0.950 . S
H1452 C1428 0.950 . S
H1453 C1429 0.949 . S
H1454 C1431 0.950 . S
H1455 C1433 0.950 . S
C1456 C1457 1.349 . S
C1456 C1458 1.327 . S
C1456 H1481 0.950 . S
C1457 C1456 1.349 . S
C1457 C1473 1.349 . S
C1458 C1456 1.327 . S
C1458 C1477 1.429 . S
C1458 H1482 0.950 . S
C1459 C1476 1.574 . S
C1459 C1478 1.368 . S
C1459 H1483 0.949 . S
H1460 C1464 0.949 . S
C1461 C1462 1.349 . S
C1461 C1463 1.327 . S
C1461 H1484 0.950 . S
C1462 C1461 1.349 . S
C1462 C1474 1.349 . S
C1463 C1461 1.327 . S
C1463 C1479 1.429 . S
C1463 H1485 0.950 . S
C1464 H1460 0.949 . S
C1464 C1472 1.574 . S
C1464 C1480 1.368 . S
H1465 C1473 0.950 . S
H1466 C1471 0.950 . S
H1467 C1472 0.949 . S
H1468 C1474 0.950 . S
H1469 C1475 0.950 . S
H1470 C1476 0.949 . S
C1471 H1466 0.950 . S
C1471 C1473 1.327 . S
C1471 C1477 1.429 . S
C1472 C1464 1.574 . S
C1472 H1467 0.949 . S
C1472 C1478 1.368 . S
C1473 C1457 1.349 . S
C1473 H1465 0.950 . S
C1473 C1471 1.327 . S
C1474 C1462 1.349 . S
C1474 H1468 0.950 . S
C1474 C1475 1.327 . S
C1475 H1469 0.950 . S
C1475 C1474 1.327 . S
C1475 C1479 1.429 . S
C1476 C1459 1.574 . S
C1476 H1470 0.949 . S
C1476 C1480 1.368 . S
C1477 C1458 1.429 . S
C1477 C1471 1.429 . S
C1477 C1478 1.523 . S
C1478 C1459 1.368 . S
C1478 C1472 1.368 . S
C1478 C1477 1.523 . S
C1479 C1463 1.429 . S
C1479 C1475 1.429 . S
C1479 C1480 1.523 . S
C1480 C1464 1.368 . S
C1480 C1476 1.368 . S
C1480 C1479 1.523 . S
H1481 C1456 0.950 . S
H1482 C1458 0.950 . S
H1483 C1459 0.949 . S
H1484 C1461 0.950 . S
H1485 C1463 0.950 . S
C1486 C1487 1.349 . S
C1486 C1488 1.327 . S
C1486 H1511 0.950 . S
C1487 C1486 1.349 . S
C1487 C1503 1.349 . S
C1488 C1486 1.327 . S
C1488 C1507 1.429 . S
C1488 H1512 0.950 . S
C1489 C1506 1.574 . S
C1489 C1508 1.368 . S
C1489 H1513 0.949 . S
H1490 C1494 0.949 . S
C1491 C1492 1.349 . S
C1491 C1493 1.327 . S
C1491 H1514 0.950 . S
C1492 C1491 1.349 . S
C1492 C1504 1.349 . S
C1493 C1491 1.327 . S
C1493 C1509 1.429 . S
C1493 H1515 0.950 . S
C1494 H1490 0.949 . S
C1494 C1502 1.574 . S
C1494 C1510 1.368 . S
H1495 C1503 0.950 . S
H1496 C1501 0.950 . S
H1497 C1502 0.949 . S
H1498 C1504 0.950 . S
H1499 C1505 0.950 . S
H1500 C1506 0.949 . S
C1501 H1496 0.950 . S
C1501 C1503 1.327 . S
C1501 C1507 1.429 . S
C1502 C1494 1.574 . S
C1502 H1497 0.949 . S
C1502 C1508 1.368 . S
C1503 C1487 1.349 . S
C1503 H1495 0.950 . S
C1503 C1501 1.327 . S
C1504 C1492 1.349 . S
C1504 H1498 0.950 . S
C1504 C1505 1.327 . S
C1505 H1499 0.950 . S
C1505 C1504 1.327 . S
C1505 C1509 1.429 . S
C1506 C1489 1.574 . S
C1506 H1500 0.949 . S
C1506 C1510 1.368 . S
C1507 C1488 1.429 . S
C1507 C1501 1.429 . S
C1507 C1508 1.523 . S
C1508 C1489 1.368 . S
C1508 C1502 1.368 . S
C1508 C1507 1.523 . S
C1509 C1493 1.429 . S
C1509 C1505 1.429 . S
C1509 C1510 1.523 . S
C1510 C1494 1.368 . S
C1510 C1506 1.368 . S
C1510 C1509 1.523 . S
H1511 C1486 0.950 . S
H1512 C1488 0.950 . S
H1513 C1489 0.949 . S
H1514 C1491 0.950 . S
H1515 C1493 0.950 . S
C1516 C1517 1.349 . S
C1516 C1518 1.327 . S
C1516 H1541 0.950 . S
C1517 C1516 1.349 . S
C1517 C1533 1.349 . S
C1518 C1516 1.327 . S
C1518 C1537 1.429 . S
C1518 H1542 0.950 . S
C1519 C1536 1.574 . S
C1519 C1538 1.368 . S
C1519 H1543 0.949 . S
H1520 C1524 0.949 . S
C1521 C1522 1.349 . S
C1521 C1523 1.327 . S
C1521 H1544 0.950 . S
C1522 C1521 1.349 . S
C1522 C1534 1.349 . S
C1523 C1521 1.327 . S
C1523 C1539 1.429 . S
C1523 H1545 0.950 . S
C1524 H1520 0.949 . S
C1524 C1532 1.574 . S
C1524 C1540 1.368 . S
H1525 C1533 0.950 . S
H1526 C1531 0.950 . S
H1527 C1532 0.949 . S
H1528 C1534 0.950 . S
H1529 C1535 0.950 . S
H1530 C1536 0.949 . S
C1531 H1526 0.950 . S
C1531 C1533 1.327 . S
C1531 C1537 1.429 . S
C1532 C1524 1.574 . S
C1532 H1527 0.949 . S
C1532 C1538 1.368 . S
C1533 C1517 1.349 . S
C1533 H1525 0.950 . S
C1533 C1531 1.327 . S
C1534 C1522 1.349 . S
C1534 H1528 0.950 . S
C1534 C1535 1.327 . S
C1535 H1529 0.950 . S
C1535 C1534 1.327 . S
C1535 C1539 1.429 . S
C1536 C1519 1.574 . S
C1536 H1530 0.949 . S
C1536 C1540 1.368 . S
C1537 C1518 1.429 . S
C1537 C1531 1.429 . S
C1537 C1538 1.523 . S
C1538 C1519 1.368 . S
C1538 C1532 1.368 . S
C1538 C1537 1.523 . S
C1539 C1523 1.429 . S
C1539 C1535 1.429 . S
C1539 C1540 1.523 . S
C1540 C1524 1.368 . S
C1540 C1536 1.368 . S
C1540 C1539 1.523 . S
H1541 C1516 0.950 . S
H1542 C1518 0.950 . S
H1543 C1519 0.949 . S
H1544 C1521 0.950 . S
H1545 C1523 0.950 . S
C1546 C1547 1.349 . S
C1546 C1548 1.327 . S
C1546 H1571 0.950 . S
C1547 C1546 1.349 . S
C1547 C1563 1.349 . S
C1548 C1546 1.327 . S
C1548 C1567 1.429 . S
C1548 H1572 0.950 . S
C1549 C1566 1.574 . S
C1549 C1568 1.368 1_655 S
C1549 H1573 0.949 . S
H1550 C1554 0.949 . S
C1551 C1552 1.349 . S
C1551 C1553 1.327 . S
C1551 H1574 0.950 . S
C1552 C1551 1.349 . S
C1552 C1564 1.349 . S
C1553 C1551 1.327 . S
C1553 C1569 1.429 . S
C1553 H1575 0.950 . S
C1554 H1550 0.949 . S
C1554 C1562 1.574 1_655 S
C1554 C1570 1.368 . S
H1555 C1563 0.950 . S
H1556 C1561 0.950 . S
H1557 C1562 0.949 . S
H1558 C1564 0.950 . S
H1559 C1565 0.950 . S
H1560 C1566 0.949 . S
C1561 H1556 0.950 . S
C1561 C1563 1.327 . S
C1561 C1567 1.429 . S
C1562 C1554 1.574 1_455 S
C1562 H1557 0.949 . S
C1562 C1568 1.368 . S
C1563 C1547 1.349 . S
C1563 H1555 0.950 . S
C1563 C1561 1.327 . S
C1564 C1552 1.349 . S
C1564 H1558 0.950 . S
C1564 C1565 1.327 . S
C1565 H1559 0.950 . S
C1565 C1564 1.327 . S
C1565 C1569 1.429 . S
C1566 C1549 1.574 . S
C1566 H1560 0.949 . S
C1566 C1570 1.368 . S
C1567 C1548 1.429 . S
C1567 C1561 1.429 . S
C1567 C1568 1.523 . S
C1568 C1549 1.368 1_455 S
C1568 C1562 1.368 . S
C1568 C1567 1.523 . S
C1569 C1553 1.429 . S
C1569 C1565 1.429 . S
C1569 C1570 1.523 . S
C1570 C1554 1.368 . S
C1570 C1566 1.368 . S
C1570 C1569 1.523 . S
H1571 C1546 0.950 . S
H1572 C1548 0.950 . S
H1573 C1549 0.949 . S
H1574 C1551 0.950 . S
H1575 C1553 0.950 . S
C1576 C1577 1.349 . S
C1576 C1578 1.327 . S
C1576 H1601 0.950 . S
C1577 C1576 1.349 . S
C1577 C1593 1.349 . S
C1578 C1576 1.327 . S
C1578 C1597 1.429 . S
C1578 H1602 0.950 . S
C1579 C1596 1.574 . S
C1579 C1598 1.368 . S
C1579 H1603 0.949 . S
H1580 C1584 0.949 . S
C1581 C1582 1.349 . S
C1581 C1583 1.327 . S
C1581 H1604 0.950 . S
C1582 C1581 1.349 . S
C1582 C1594 1.349 . S
C1583 C1581 1.327 . S
C1583 C1599 1.429 . S
C1583 H1605 0.950 . S
C1584 H1580 0.949 . S
C1584 C1592 1.574 . S
C1584 C1600 1.368 . S
H1585 C1593 0.950 . S
H1586 C1591 0.950 . S
H1587 C1592 0.949 . S
H1588 C1594 0.950 . S
H1589 C1595 0.950 . S
H1590 C1596 0.949 . S
C1591 H1586 0.950 . S
C1591 C1593 1.327 . S
C1591 C1597 1.429 . S
C1592 C1584 1.574 . S
C1592 H1587 0.949 . S
C1592 C1598 1.368 . S
C1593 C1577 1.349 . S
C1593 H1585 0.950 . S
C1593 C1591 1.327 . S
C1594 C1582 1.349 . S
C1594 H1588 0.950 . S
C1594 C1595 1.327 . S
C1595 H1589 0.950 . S
C1595 C1594 1.327 . S
C1595 C1599 1.429 . S
C1596 C1579 1.574 . S
C1596 H1590 0.949 . S
C1596 C1600 1.368 . S
C1597 C1578 1.429 . S
C1597 C1591 1.429 . S
C1597 C1598 1.523 . S
C1598 C1579 1.368 . S
C1598 C1592 1.368 . S
C1598 C1597 1.523 . S
C1599 C1583 1.429 . S
C1599 C1595 1.429 . S
C1599 C1600 1.523 . S
C1600 C1584 1.368 . S
C1600 C1596 1.368 . S
C1600 C1599 1.523 . S
H1601 C1576 0.950 . S
H1602 C1578 0.950 . S
H1603 C1579 0.949 . S
H1604 C1581 0.950 . S
H1605 C1583 0.950 . S
C1606 C1607 1.349 . S
C1606 C1608 1.327 . S
C1606 H1631 0.950 . S
C1607 C1606 1.349 . S
C1607 C1623 1.349 . S
C1608 C1606 1.327 . S
C1608 C1627 1.429 . S
C1608 H1632 0.950 . S
C1609 C1626 1.574 . S
C1609 C1628 1.368 1_655 S
C1609 H1633 0.949 . S
H1610 C1614 0.949 . S
C1611 C1612 1.349 . S
C1611 C1613 1.327 . S
C1611 H1634 0.950 . S
C1612 C1611 1.349 . S
C1612 C1624 1.349 . S
C1613 C1611 1.327 . S
C1613 C1629 1.429 . S
C1613 H1635 0.950 . S
C1614 H1610 0.949 . S
C1614 C1622 1.574 1_655 S
C1614 C1630 1.368 . S
H1615 C1623 0.950 . S
H1616 C1621 0.950 . S
H1617 C1622 0.949 . S
H1618 C1624 0.950 . S
H1619 C1625 0.950 . S
H1620 C1626 0.949 . S
C1621 H1616 0.950 . S
C1621 C1623 1.327 . S
C1621 C1627 1.429 . S
C1622 C1614 1.574 1_455 S
C1622 H1617 0.949 . S
C1622 C1628 1.368 . S
C1623 C1607 1.349 . S
C1623 H1615 0.950 . S
C1623 C1621 1.327 . S
C1624 C1612 1.349 . S
C1624 H1618 0.950 . S
C1624 C1625 1.327 . S
C1625 H1619 0.950 . S
C1625 C1624 1.327 . S
C1625 C1629 1.429 . S
C1626 C1609 1.574 . S
C1626 H1620 0.949 . S
C1626 C1630 1.368 . S
C1627 C1608 1.429 . S
C1627 C1621 1.429 . S
C1627 C1628 1.523 . S
C1628 C1609 1.368 1_455 S
C1628 C1622 1.368 . S
C1628 C1627 1.523 . S
C1629 C1613 1.429 . S
C1629 C1625 1.429 . S
C1629 C1630 1.523 . S
C1630 C1614 1.368 . S
C1630 C1626 1.368 . S
C1630 C1629 1.523 . S
H1631 C1606 0.950 . S
H1632 C1608 0.950 . S
H1633 C1609 0.949 . S
H1634 C1611 0.950 . S
H1635 C1613 0.950 . S
C1636 C1637 1.349 . S
C1636 C1638 1.327 . S
C1636 H1661 0.950 . S
C1637 C1636 1.349 . S
C1637 C1653 1.349 . S
C1638 C1636 1.327 . S
C1638 C1657 1.429 . S
C1638 H1662 0.950 . S
C1639 C1656 1.574 . S
C1639 C1658 1.368 . S
C1639 H1663 0.949 . S
H1640 C1644 0.949 . S
C1641 C1642 1.349 . S
C1641 C1643 1.327 . S
C1641 H1664 0.950 . S
C1642 C1641 1.349 . S
C1642 C1654 1.349 . S
C1643 C1641 1.327 . S
C1643 C1659 1.429 . S
C1643 H1665 0.950 . S
C1644 H1640 0.949 . S
C1644 C1652 1.574 . S
C1644 C1660 1.368 . S
H1645 C1653 0.950 . S
H1646 C1651 0.950 . S
H1647 C1652 0.949 . S
H1648 C1654 0.950 . S
H1649 C1655 0.950 . S
H1650 C1656 0.949 . S
C1651 H1646 0.950 . S
C1651 C1653 1.327 . S
C1651 C1657 1.429 . S
C1652 C1644 1.574 . S
C1652 H1647 0.949 . S
C1652 C1658 1.368 . S
C1653 C1637 1.349 . S
C1653 H1645 0.950 . S
C1653 C1651 1.327 . S
C1654 C1642 1.349 . S
C1654 H1648 0.950 . S
C1654 C1655 1.327 . S
C1655 H1649 0.950 . S
C1655 C1654 1.327 . S
C1655 C1659 1.429 . S
C1656 C1639 1.574 . S
C1656 H1650 0.949 . S
C1656 C1660 1.368 . S
C1657 C1638 1.429 . S
C1657 C1651 1.429 . S
C1657 C1658 1.523 . S
C1658 C1639 1.368 . S
C1658 C1652 1.368 . S
C1658 C1657 1.523 . S
C1659 C1643 1.429 . S
C1659 C1655 1.429 . S
C1659 C1660 1.523 . S
C1660 C1644 1.368 . S
C1660 C1656 1.368 . S
C1660 C1659 1.523 . S
H1661 C1636 0.950 . S
H1662 C1638 0.950 . S
H1663 C1639 0.949 . S
H1664 C1641 0.950 . S
H1665 C1643 0.950 . S
C1666 C1667 1.349 . S
C1666 C1668 1.327 . S
C1666 H1691 0.950 . S
C1667 C1666 1.349 . S
C1667 C1683 1.349 . S
C1668 C1666 1.327 . S
C1668 C1687 1.429 . S
C1668 H1692 0.950 . S
C1669 C1686 1.574 . S
C1669 C1688 1.368 . S
C1669 H1693 0.949 . S
H1670 C1674 0.949 . S
C1671 C1672 1.349 . S
C1671 C1673 1.327 . S
C1671 H1694 0.950 . S
C1672 C1671 1.349 . S
C1672 C1684 1.349 . S
C1673 C1671 1.327 . S
C1673 C1689 1.429 . S
C1673 H1695 0.950 . S
C1674 H1670 0.949 . S
C1674 C1682 1.574 . S
C1674 C1690 1.368 . S
H1675 C1683 0.950 . S
H1676 C1681 0.950 . S
H1677 C1682 0.949 . S
H1678 C1684 0.950 . S
H1679 C1685 0.950 . S
H1680 C1686 0.949 . S
C1681 H1676 0.950 . S
C1681 C1683 1.327 . S
C1681 C1687 1.429 . S
C1682 C1674 1.574 . S
C1682 H1677 0.949 . S
C1682 C1688 1.368 . S
C1683 C1667 1.349 . S
C1683 H1675 0.950 . S
C1683 C1681 1.327 . S
C1684 C1672 1.349 . S
C1684 H1678 0.950 . S
C1684 C1685 1.327 . S
C1685 H1679 0.950 . S
C1685 C1684 1.327 . S
C1685 C1689 1.429 . S
C1686 C1669 1.574 . S
C1686 H1680 0.949 . S
C1686 C1690 1.368 . S
C1687 C1668 1.429 . S
C1687 C1681 1.429 . S
C1687 C1688 1.523 . S
C1688 C1669 1.368 . S
C1688 C1682 1.368 . S
C1688 C1687 1.523 . S
C1689 C1673 1.429 . S
C1689 C1685 1.429 . S
C1689 C1690 1.523 . S
C1690 C1674 1.368 . S
C1690 C1686 1.368 . S
C1690 C1689 1.523 . S
H1691 C1666 0.950 . S
H1692 C1668 0.950 . S
H1693 C1669 0.949 . S
H1694 C1671 0.950 . S
H1695 C1673 0.950 . S
C1696 C1697 1.349 . S
C1696 C1698 1.327 . S
C1696 H1721 0.950 . S
C1697 C1696 1.349 . S
C1697 C1713 1.349 . S
C1698 C1696 1.327 . S
C1698 C1717 1.429 . S
C1698 H1722 0.950 . S
C1699 C1716 1.574 . S
C1699 C1718 1.368 . S
C1699 H1723 0.949 . S
H1700 C1704 0.949 . S
C1701 C1702 1.349 . S
C1701 C1703 1.327 . S
C1701 H1724 0.950 . S
C1702 C1701 1.349 . S
C1702 C1714 1.349 . S
C1703 C1701 1.327 . S
C1703 C1719 1.429 . S
C1703 H1725 0.950 . S
C1704 H1700 0.949 . S
C1704 C1712 1.574 . S
C1704 C1720 1.368 . S
H1705 C1713 0.950 . S
H1706 C1711 0.950 . S
H1707 C1712 0.949 . S
H1708 C1714 0.950 . S
H1709 C1715 0.950 . S
H1710 C1716 0.949 . S
C1711 H1706 0.950 . S
C1711 C1713 1.327 . S
C1711 C1717 1.429 . S
C1712 C1704 1.574 . S
C1712 H1707 0.949 . S
C1712 C1718 1.368 . S
C1713 C1697 1.349 . S
C1713 H1705 0.950 . S
C1713 C1711 1.327 . S
C1714 C1702 1.349 . S
C1714 H1708 0.950 . S
C1714 C1715 1.327 . S
C1715 H1709 0.950 . S
C1715 C1714 1.327 . S
C1715 C1719 1.429 . S
C1716 C1699 1.574 . S
C1716 H1710 0.949 . S
C1716 C1720 1.368 . S
C1717 C1698 1.429 . S
C1717 C1711 1.429 . S
C1717 C1718 1.523 . S
C1718 C1699 1.368 . S
C1718 C1712 1.368 . S
C1718 C1717 1.523 . S
C1719 C1703 1.429 . S
C1719 C1715 1.429 . S
C1719 C1720 1.523 . S
C1720 C1704 1.368 . S
C1720 C1716 1.368 . S
C1720 C1719 1.523 . S
H1721 C1696 0.950 . S
H1722 C1698 0.950 . S
H1723 C1699 0.949 . S
H1724 C1701 0.950 . S
H1725 C1703 0.950 . S
C1726 C1727 1.349 . S
C1726 C1728 1.327 . S
C1726 H1751 0.950 . S
C1727 C1726 1.349 . S
C1727 C1743 1.349 . S
C1728 C1726 1.327 . S
C1728 C1747 1.429 . S
C1728 H1752 0.950 . S
C1729 C1746 1.574 . S
C1729 C1748 1.368 1_545 S
C1729 H1753 0.949 . S
H1730 C1734 0.949 . S
C1731 C1732 1.349 . S
C1731 C1733 1.327 . S
C1731 H1754 0.950 . S
C1732 C1731 1.349 . S
C1732 C1744 1.349 . S
C1733 C1731 1.327 . S
C1733 C1749 1.429 . S
C1733 H1755 0.950 . S
C1734 H1730 0.949 . S
C1734 C1742 1.574 . S
C1734 C1750 1.368 1_565 S
H1735 C1743 0.950 . S
H1736 C1741 0.950 1_545 S
H1737 C1742 0.949 . S
H1738 C1744 0.950 . S
H1739 C1745 0.950 1_565 S
H1740 C1746 0.949 . S
C1741 H1736 0.950 1_565 S
C1741 C1743 1.327 . S
C1741 C1747 1.429 . S
C1742 C1734 1.574 . S
C1742 H1737 0.949 . S
C1742 C1748 1.368 1_655 S
C1743 C1727 1.349 . S
C1743 H1735 0.950 . S
C1743 C1741 1.327 . S
C1744 C1732 1.349 . S
C1744 H1738 0.950 . S
C1744 C1745 1.327 . S
C1745 H1739 0.950 1_545 S
C1745 C1744 1.327 . S
C1745 C1749 1.429 . S
C1746 C1729 1.574 . S
C1746 H1740 0.949 . S
C1746 C1750 1.368 1_455 S
C1747 C1728 1.429 . S
C1747 C1741 1.429 . S
C1747 C1748 1.523 . S
C1748 C1729 1.368 1_565 S
C1748 C1742 1.368 1_455 S
C1748 C1747 1.523 . S
C1749 C1733 1.429 . S
C1749 C1745 1.429 . S
C1749 C1750 1.523 . S
C1750 C1734 1.368 1_545 S
C1750 C1746 1.368 1_655 S
C1750 C1749 1.523 . S
H1751 C1726 0.950 . S
H1752 C1728 0.950 . S
H1753 C1729 0.949 . S
H1754 C1731 0.950 . S
H1755 C1733 0.950 . S
C1756 C1757 1.349 . S
C1756 C1758 1.327 . S
C1756 H1781 0.950 . S
C1757 C1756 1.349 . S
C1757 C1773 1.349 . S
C1758 C1756 1.327 . S
C1758 C1777 1.429 . S
C1758 H1782 0.950 . S
C1759 C1776 1.574 . S
C1759 C1778 1.368 . S
C1759 H1783 0.949 . S
H1760 C1764 0.949 . S
C1761 C1762 1.349 . S
C1761 C1763 1.327 . S
C1761 H1784 0.950 . S
C1762 C1761 1.349 . S
C1762 C1774 1.349 . S
C1763 C1761 1.327 . S
C1763 C1779 1.429 . S
C1763 H1785 0.950 . S
C1764 H1760 0.949 . S
C1764 C1772 1.574 . S
C1764 C1780 1.368 . S
H1765 C1773 0.950 . S
H1766 C1771 0.950 . S
H1767 C1772 0.949 . S
H1768 C1774 0.950 . S
H1769 C1775 0.950 . S
H1770 C1776 0.949 . S
C1771 H1766 0.950 . S
C1771 C1773 1.327 . S
C1771 C1777 1.429 . S
C1772 C1764 1.574 . S
C1772 H1767 0.949 . S
C1772 C1778 1.368 . S
C1773 C1757 1.349 . S
C1773 H1765 0.950 . S
C1773 C1771 1.327 . S
C1774 C1762 1.349 . S
C1774 H1768 0.950 . S
C1774 C1775 1.327 . S
C1775 H1769 0.950 . S
C1775 C1774 1.327 . S
C1775 C1779 1.429 . S
C1776 C1759 1.574 . S
C1776 H1770 0.949 . S
C1776 C1780 1.368 . S
C1777 C1758 1.429 . S
C1777 C1771 1.429 . S
C1777 C1778 1.523 . S
C1778 C1759 1.368 . S
C1778 C1772 1.368 . S
C1778 C1777 1.523 . S
C1779 C1763 1.429 . S
C1779 C1775 1.429 . S
C1779 C1780 1.523 . S
C1780 C1764 1.368 . S
C1780 C1776 1.368 . S
C1780 C1779 1.523 . S
H1781 C1756 0.950 . S
H1782 C1758 0.950 . S
H1783 C1759 0.949 . S
H1784 C1761 0.950 . S
H1785 C1763 0.950 . S
C1786 C1787 1.349 . S
C1786 C1788 1.327 . S
C1786 H1811 0.950 . S
C1787 C1786 1.349 . S
C1787 C1803 1.349 . S
C1788 C1786 1.327 . S
C1788 C1807 1.429 . S
C1788 H1812 0.950 1_545 S
C1789 C1806 1.574 . S
C1789 C1808 1.368 1_556 S
C1789 H1813 0.949 . S
H1790 C1794 0.949 . S
C1791 C1792 1.349 . S
C1791 C1793 1.327 . S
C1791 H1814 0.950 . S
C1792 C1791 1.349 . S
C1792 C1804 1.349 . S
C1793 C1791 1.327 . S
C1793 C1809 1.429 . S
C1793 H1815 0.950 1_565 S
C1794 H1790 0.949 . S
C1794 C1802 1.574 . S
C1794 C1810 1.368 1_554 S
H1795 C1803 0.950 . S
H1796 C1801 0.950 . S
H1797 C1802 0.949 . S
H1798 C1804 0.950 . S
H1799 C1805 0.950 . S
H1800 C1806 0.949 . S
C1801 H1796 0.950 . S
C1801 C1803 1.327 . S
C1801 C1807 1.429 . S
C1802 C1794 1.574 . S
C1802 H1797 0.949 . S
C1802 C1808 1.368 1_565 S
C1803 C1787 1.349 . S
C1803 H1795 0.950 . S
C1803 C1801 1.327 . S
C1804 C1792 1.349 . S
C1804 H1798 0.950 . S
C1804 C1805 1.327 . S
C1805 H1799 0.950 . S
C1805 C1804 1.327 . S
C1805 C1809 1.429 . S
C1806 C1789 1.574 . S
C1806 H1800 0.949 . S
C1806 C1810 1.368 1_545 S
C1807 C1788 1.429 . S
C1807 C1801 1.429 . S
C1807 C1808 1.523 . S
C1808 C1789 1.368 1_554 S
C1808 C1802 1.368 1_545 S
C1808 C1807 1.523 . S
C1809 C1793 1.429 . S
C1809 C1805 1.429 . S
C1809 C1810 1.523 . S
C1810 C1794 1.368 1_556 S
C1810 C1806 1.368 1_565 S
C1810 C1809 1.523 . S
H1811 C1786 0.950 . S
H1812 C1788 0.950 1_565 S
H1813 C1789 0.949 . S
H1814 C1791 0.950 . S
H1815 C1793 0.950 1_545 S
C1816 C1817 1.349 . S
C1816 C1818 1.327 . S
C1816 H1841 0.950 . S
C1817 C1816 1.349 . S
C1817 C1833 1.349 . S
C1818 C1816 1.327 . S
C1818 C1837 1.429 . S
C1818 H1842 0.950 . S
C1819 C1836 1.574 . S
C1819 C1838 1.368 . S
C1819 H1843 0.949 . S
H1820 C1824 0.949 . S
C1821 C1822 1.349 . S
C1821 C1823 1.327 . S
C1821 H1844 0.950 . S
C1822 C1821 1.349 . S
C1822 C1834 1.349 . S
C1823 C1821 1.327 . S
C1823 C1839 1.429 . S
C1823 H1845 0.950 . S
C1824 H1820 0.949 . S
C1824 C1832 1.574 . S
C1824 C1840 1.368 . S
H1825 C1833 0.950 . S
H1826 C1831 0.950 . S
H1827 C1832 0.949 . S
H1828 C1834 0.950 . S
H1829 C1835 0.950 . S
H1830 C1836 0.949 . S
C1831 H1826 0.950 . S
C1831 C1833 1.327 . S
C1831 C1837 1.429 . S
C1832 C1824 1.574 . S
C1832 H1827 0.949 . S
C1832 C1838 1.368 . S
C1833 C1817 1.349 . S
C1833 H1825 0.950 . S
C1833 C1831 1.327 . S
C1834 C1822 1.349 . S
C1834 H1828 0.950 . S
C1834 C1835 1.327 . S
C1835 H1829 0.950 . S
C1835 C1834 1.327 . S
C1835 C1839 1.429 . S
C1836 C1819 1.574 . S
C1836 H1830 0.949 . S
C1836 C1840 1.368 . S
C1837 C1818 1.429 . S
C1837 C1831 1.429 . S
C1837 C1838 1.523 . S
C1838 C1819 1.368 . S
C1838 C1832 1.368 . S
C1838 C1837 1.523 . S
C1839 C1823 1.429 . S
C1839 C1835 1.429 . S
C1839 C1840 1.523 . S
C1840 C1824 1.368 . S
C1840 C1836 1.368 . S
C1840 C1839 1.523 . S
H1841 C1816 0.950 . S
H1842 C1818 0.950 . S
H1843 C1819 0.949 . S
H1844 C1821 0.950 . S
H1845 C1823 0.950 . S
C1846 C1847 1.349 . S
C1846 C1848 1.327 1_565 S
C1846 H1871 0.950 1_565 S
C1847 C1846 1.349 . S
C1847 C1863 1.349 . S
C1848 C1846 1.327 1_545 S
C1848 C1867 1.429 1_545 S
C1848 H1872 0.950 . S
C1849 C1866 1.574 . S
C1849 C1868 1.368 . S
C1849 H1873 0.949 . S
H1850 C1854 0.949 . S
C1851 C1852 1.349 . S
C1851 C1853 1.327 1_545 S
C1851 H1874 0.950 1_545 S
C1852 C1851 1.349 . S
C1852 C1864 1.349 . S
C1853 C1851 1.327 1_565 S
C1853 C1869 1.429 1_565 S
C1853 H1875 0.950 . S
C1854 H1850 0.949 . S
C1854 C1862 1.574 . S
C1854 C1870 1.368 . S
H1855 C1863 0.950 . S
H1856 C1861 0.950 . S
H1857 C1862 0.949 . S
H1858 C1864 0.950 . S
H1859 C1865 0.950 . S
H1860 C1866 0.949 . S
C1861 H1856 0.950 . S
C1861 C1863 1.327 . S
C1861 C1867 1.429 . S
C1862 C1854 1.574 . S
C1862 H1857 0.949 . S
C1862 C1868 1.368 1_545 S
C1863 C1847 1.349 . S
C1863 H1855 0.950 . S
C1863 C1861 1.327 . S
C1864 C1852 1.349 . S
C1864 H1858 0.950 . S
C1864 C1865 1.327 . S
C1865 H1859 0.950 . S
C1865 C1864 1.327 . S
C1865 C1869 1.429 . S
C1866 C1849 1.574 . S
C1866 H1860 0.949 . S
C1866 C1870 1.368 1_565 S
C1867 C1848 1.429 1_565 S
C1867 C1861 1.429 . S
C1867 C1868 1.523 . S
C1868 C1849 1.368 . S
C1868 C1862 1.368 1_565 S
C1868 C1867 1.523 . S
C1869 C1853 1.429 1_545 S
C1869 C1865 1.429 . S
C1869 C1870 1.523 . S
C1870 C1854 1.368 . S
C1870 C1866 1.368 1_545 S
C1870 C1869 1.523 . S
H1871 C1846 0.950 1_545 S
H1872 C1848 0.950 . S
H1873 C1849 0.949 . S
H1874 C1851 0.950 1_565 S
H1875 C1853 0.950 . S
C1876 C1877 1.349 . S
C1876 C1878 1.327 . S
C1876 H1901 0.950 . S
C1877 C1876 1.349 . S
C1877 C1893 1.349 . S
C1878 C1876 1.327 . S
C1878 C1897 1.429 . S
C1878 H1902 0.950 . S
C1879 C1896 1.574 . S
C1879 C1898 1.368 . S
C1879 H1903 0.949 . S
H1880 C1884 0.949 . S
C1881 C1882 1.349 . S
C1881 C1883 1.327 . S
C1881 H1904 0.950 . S
C1882 C1881 1.349 . S
C1882 C1894 1.349 . S
C1883 C1881 1.327 . S
C1883 C1899 1.429 . S
C1883 H1905 0.950 . S
C1884 H1880 0.949 . S
C1884 C1892 1.574 . S
C1884 C1900 1.368 . S
H1885 C1893 0.950 . S
H1886 C1891 0.950 . S
H1887 C1892 0.949 . S
H1888 C1894 0.950 . S
H1889 C1895 0.950 . S
H1890 C1896 0.949 . S
C1891 H1886 0.950 . S
C1891 C1893 1.327 . S
C1891 C1897 1.429 . S
C1892 C1884 1.574 . S
C1892 H1887 0.949 . S
C1892 C1898 1.368 . S
C1893 C1877 1.349 . S
C1893 H1885 0.950 . S
C1893 C1891 1.327 . S
C1894 C1882 1.349 . S
C1894 H1888 0.950 . S
C1894 C1895 1.327 . S
C1895 H1889 0.950 . S
C1895 C1894 1.327 . S
C1895 C1899 1.429 . S
C1896 C1879 1.574 . S
C1896 H1890 0.949 . S
C1896 C1900 1.368 . S
C1897 C1878 1.429 . S
C1897 C1891 1.429 . S
C1897 C1898 1.523 . S
C1898 C1879 1.368 . S
C1898 C1892 1.368 . S
C1898 C1897 1.523 . S
C1899 C1883 1.429 . S
C1899 C1895 1.429 . S
C1899 C1900 1.523 . S
C1900 C1884 1.368 . S
C1900 C1896 1.368 . S
C1900 C1899 1.523 . S
H1901 C1876 0.950 . S
H1902 C1878 0.950 . S
H1903 C1879 0.949 . S
H1904 C1881 0.950 . S
H1905 C1883 0.950 . S
C1906 C1907 1.349 . S
C1906 C1908 1.327 . S
C1906 H1931 0.950 . S
C1907 C1906 1.349 . S
C1907 C1923 1.349 . S
C1908 C1906 1.327 . S
C1908 C1927 1.429 . S
C1908 H1932 0.950 . S
C1909 C1926 1.574 1_556 S
C1909 C1928 1.368 1_565 S
C1909 H1933 0.949 . S
H1910 C1914 0.949 . S
C1911 C1912 1.349 . S
C1911 C1913 1.327 . S
C1911 H1934 0.950 . S
C1912 C1911 1.349 . S
C1912 C1924 1.349 . S
C1913 C1911 1.327 . S
C1913 C1929 1.429 . S
C1913 H1935 0.950 . S
C1914 H1910 0.949 . S
C1914 C1922 1.574 1_554 S
C1914 C1930 1.368 1_545 S
H1915 C1923 0.950 1_565 S
H1916 C1921 0.976 . S
H1917 C1922 0.949 . S
H1918 C1924 0.950 1_545 S
H1919 C1925 0.976 . S
H1920 C1926 0.949 . S
C1921 H1916 0.976 . S
C1921 C1923 1.319 1_565 S
C1921 C1927 1.412 1_565 S
C1922 C1914 1.574 1_556 S
C1922 H1917 0.949 . S
C1922 C1928 1.368 1_655 S
C1923 C1907 1.349 . S
C1923 H1915 0.950 1_545 S
C1923 C1921 1.319 1_545 S
C1924 C1912 1.349 . S
C1924 H1918 0.950 1_565 S
C1924 C1925 1.319 1_565 S
C1925 H1919 0.976 . S
C1925 C1924 1.319 1_545 S
C1925 C1929 1.412 1_545 S
C1926 C1909 1.574 1_554 S
C1926 H1920 0.949 . S
C1926 C1930 1.368 1_455 S
C1927 C1908 1.429 . S
C1927 C1921 1.412 1_545 S
C1927 C1928 1.523 . S
C1928 C1909 1.368 1_545 S
C1928 C1922 1.368 1_455 S
C1928 C1927 1.523 . S
C1929 C1913 1.429 . S
C1929 C1925 1.412 1_565 S
C1929 C1930 1.523 . S
C1930 C1914 1.368 1_565 S
C1930 C1926 1.368 1_655 S
C1930 C1929 1.523 . S
H1931 C1906 0.950 . S
H1932 C1908 0.950 . S
H1933 C1909 0.949 . S
H1934 C1911 0.950 . S
H1935 C1913 0.950 . S
C1936 C1937 1.349 . S
C1936 C1938 1.327 . S
C1936 H1961 0.950 . S
C1937 C1936 1.349 . S
C1937 C1953 1.349 . S
C1938 C1936 1.327 . S
C1938 C1957 1.429 . S
C1938 H1962 0.950 . S
C1939 C1956 1.574 . S
C1939 C1958 1.368 . S
C1939 H1963 0.949 . S
H1940 C1944 0.949 . S
C1941 C1942 1.349 . S
C1941 C1943 1.327 . S
C1941 H1964 0.950 . S
C1942 C1941 1.349 . S
C1942 C1954 1.349 . S
C1943 C1941 1.327 . S
C1943 C1959 1.429 . S
C1943 H1965 0.950 . S
C1944 H1940 0.949 . S
C1944 C1952 1.574 . S
C1944 C1960 1.368 . S
H1945 C1953 0.950 . S
H1946 C1951 0.950 . S
H1947 C1952 0.949 . S
H1948 C1954 0.950 . S
H1949 C1955 0.950 . S
H1950 C1956 0.949 . S
C1951 H1946 0.950 . S
C1951 C1953 1.327 . S
C1951 C1957 1.429 . S
C1952 C1944 1.574 . S
C1952 H1947 0.949 . S
C1952 C1958 1.368 . S
C1953 C1937 1.349 . S
C1953 H1945 0.950 . S
C1953 C1951 1.327 . S
C1954 C1942 1.349 . S
C1954 H1948 0.950 . S
C1954 C1955 1.327 . S
C1955 H1949 0.950 . S
C1955 C1954 1.327 . S
C1955 C1959 1.429 . S
C1956 C1939 1.574 . S
C1956 H1950 0.949 . S
C1956 C1960 1.368 . S
C1957 C1938 1.429 . S
C1957 C1951 1.429 . S
C1957 C1958 1.523 . S
C1958 C1939 1.368 . S
C1958 C1952 1.368 . S
C1958 C1957 1.523 . S
C1959 C1943 1.429 . S
C1959 C1955 1.429 . S
C1959 C1960 1.523 . S
C1960 C1944 1.368 . S
C1960 C1956 1.368 . S
C1960 C1959 1.523 . S
H1961 C1936 0.950 . S
H1962 C1938 0.950 . S
H1963 C1939 0.949 . S
H1964 C1941 0.950 . S
H1965 C1943 0.950 . S
C1966 C1967 1.349 . S
C1966 C1968 1.327 . S
C1966 H1991 0.950 . S
C1967 C1966 1.349 . S
C1967 C1983 1.349 . S
C1968 C1966 1.327 . S
C1968 C1987 1.429 . S
C1968 H1992 0.950 . S
C1969 C1986 1.574 . S
C1969 C1988 1.368 . S
C1969 H1993 0.949 . S
H1970 C1974 0.949 . S
C1971 C1972 1.349 . S
C1971 C1973 1.327 . S
C1971 H1994 0.950 . S
C1972 C1971 1.349 . S
C1972 C1984 1.349 . S
C1973 C1971 1.327 . S
C1973 C1989 1.429 . S
C1973 H1995 0.950 . S
C1974 H1970 0.949 . S
C1974 C1982 1.574 . S
C1974 C1990 1.368 . S
H1975 C1983 0.950 . S
H1976 C1981 0.950 . S
H1977 C1982 0.949 . S
H1978 C1984 0.950 . S
H1979 C1985 0.950 . S
H1980 C1986 0.949 . S
C1981 H1976 0.950 . S
C1981 C1983 1.327 . S
C1981 C1987 1.429 . S
C1982 C1974 1.574 . S
C1982 H1977 0.949 . S
C1982 C1988 1.368 . S
C1983 C1967 1.349 . S
C1983 H1975 0.950 . S
C1983 C1981 1.327 . S
C1984 C1972 1.349 . S
C1984 H1978 0.950 . S
C1984 C1985 1.327 . S
C1985 H1979 0.950 . S
C1985 C1984 1.327 . S
C1985 C1989 1.429 . S
C1986 C1969 1.574 . S
C1986 H1980 0.949 . S
C1986 C1990 1.368 . S
C1987 C1968 1.429 . S
C1987 C1981 1.429 . S
C1987 C1988 1.523 . S
C1988 C1969 1.368 . S
C1988 C1982 1.368 . S
C1988 C1987 1.523 . S
C1989 C1973 1.429 . S
C1989 C1985 1.429 . S
C1989 C1990 1.523 . S
C1990 C1974 1.368 . S
C1990 C1986 1.368 . S
C1990 C1989 1.523 . S
H1991 C1966 0.950 . S
H1992 C1968 0.950 . S
H1993 C1969 0.949 . S
H1994 C1971 0.950 . S
H1995 C1973 0.950 . S
C1996 C1997 1.349 . S
C1996 C1998 1.327 . S
C1996 H2021 0.950 . S
C1997 C1996 1.349 . S
C1997 C2013 1.349 . S
C1998 C1996 1.327 . S
C1998 C2017 1.429 . S
C1998 H2022 0.950 . S
C1999 C2016 1.574 . S
C1999 C2018 1.368 . S
C1999 H2023 0.949 . S
H2000 C2004 0.949 . S
C2001 C2002 1.349 . S
C2001 C2003 1.327 . S
C2001 H2024 0.950 . S
C2002 C2001 1.349 . S
C2002 C2014 1.349 . S
C2003 C2001 1.327 . S
C2003 C2019 1.429 . S
C2003 H2025 0.950 . S
C2004 H2000 0.949 . S
C2004 C2012 1.574 . S
C2004 C2020 1.368 . S
H2005 C2013 0.950 . S
H2006 C2011 0.950 . S
H2007 C2012 0.949 . S
H2008 C2014 0.950 . S
H2009 C2015 0.950 . S
H2010 C2016 0.949 . S
C2011 H2006 0.950 . S
C2011 C2013 1.327 . S
C2011 C2017 1.429 . S
C2012 C2004 1.574 . S
C2012 H2007 0.949 . S
C2012 C2018 1.368 . S
C2013 C1997 1.349 . S
C2013 H2005 0.950 . S
C2013 C2011 1.327 . S
C2014 C2002 1.349 . S
C2014 H2008 0.950 . S
C2014 C2015 1.327 . S
C2015 H2009 0.950 . S
C2015 C2014 1.327 . S
C2015 C2019 1.429 . S
C2016 C1999 1.574 . S
C2016 H2010 0.949 . S
C2016 C2020 1.368 . S
C2017 C1998 1.429 . S
C2017 C2011 1.429 . S
C2017 C2018 1.523 . S
C2018 C1999 1.368 . S
C2018 C2012 1.368 . S
C2018 C2017 1.523 . S
C2019 C2003 1.429 . S
C2019 C2015 1.429 . S
C2019 C2020 1.523 . S
C2020 C2004 1.368 . S
C2020 C2016 1.368 . S
C2020 C2019 1.523 . S
H2021 C1996 0.950 . S
H2022 C1998 0.950 . S
H2023 C1999 0.949 . S
H2024 C2001 0.950 . S
H2025 C2003 0.950 . S
C2026 C2027 1.349 . S
C2026 C2028 1.327 . S
C2026 H2051 0.950 . S
C2027 C2026 1.349 . S
C2027 C2043 1.349 . S
C2028 C2026 1.327 . S
C2028 C2047 1.429 . S
C2028 H2052 0.950 . S
C2029 C2046 1.574 . S
C2029 C2048 1.368 . S
C2029 H2053 0.949 . S
H2030 C2034 0.949 . S
C2031 C2032 1.349 . S
C2031 C2033 1.327 . S
C2031 H2054 0.950 . S
C2032 C2031 1.349 . S
C2032 C2044 1.349 . S
C2033 C2031 1.327 . S
C2033 C2049 1.429 . S
C2033 H2055 0.950 . S
C2034 H2030 0.949 . S
C2034 C2042 1.574 . S
C2034 C2050 1.368 . S
H2035 C2043 0.950 . S
H2036 C2041 0.950 . S
H2037 C2042 0.949 . S
H2038 C2044 0.950 . S
H2039 C2045 0.950 . S
H2040 C2046 0.949 . S
C2041 H2036 0.950 . S
C2041 C2043 1.327 . S
C2041 C2047 1.429 . S
C2042 C2034 1.574 . S
C2042 H2037 0.949 . S
C2042 C2048 1.368 . S
C2043 C2027 1.349 . S
C2043 H2035 0.950 . S
C2043 C2041 1.327 . S
C2044 C2032 1.349 . S
C2044 H2038 0.950 . S
C2044 C2045 1.327 . S
C2045 H2039 0.950 . S
C2045 C2044 1.327 . S
C2045 C2049 1.429 . S
C2046 C2029 1.574 . S
C2046 H2040 0.949 . S
C2046 C2050 1.368 . S
C2047 C2028 1.429 . S
C2047 C2041 1.429 . S
C2047 C2048 1.523 . S
C2048 C2029 1.368 . S
C2048 C2042 1.368 . S
C2048 C2047 1.523 . S
C2049 C2033 1.429 . S
C2049 C2045 1.429 . S
C2049 C2050 1.523 . S
C2050 C2034 1.368 . S
C2050 C2046 1.368 . S
C2050 C2049 1.523 . S
H2051 C2026 0.950 . S
H2052 C2028 0.950 . S
H2053 C2029 0.949 . S
H2054 C2031 0.950 . S
H2055 C2033 0.950 . S
C2056 C2057 1.349 . S
C2056 C2058 1.327 . S
C2056 H2081 0.950 . S
C2057 C2056 1.349 . S
C2057 C2073 1.349 . S
C2058 C2056 1.327 . S
C2058 C2077 1.429 . S
C2058 H2082 0.950 . S
C2059 C2076 1.574 . S
C2059 C2078 1.368 1_556 S
C2059 H2083 0.949 . S
H2060 C2064 0.949 . S
C2061 C2062 1.349 . S
C2061 C2063 1.327 . S
C2061 H2084 0.950 . S
C2062 C2061 1.349 . S
C2062 C2074 1.349 . S
C2063 C2061 1.327 . S
C2063 C2079 1.429 . S
C2063 H2085 0.950 . S
C2064 H2060 0.949 . S
C2064 C2072 1.574 . S
C2064 C2080 1.368 1_554 S
H2065 C2073 0.950 . S
H2066 C2071 0.950 . S
H2067 C2072 0.949 . S
H2068 C2074 0.950 . S
H2069 C2075 0.950 . S
H2070 C2076 0.949 . S
C2071 H2066 0.950 . S
C2071 C2073 1.327 . S
C2071 C2077 1.429 . S
C2072 C2064 1.574 . S
C2072 H2067 0.949 . S
C2072 C2078 1.368 . S
C2073 C2057 1.349 . S
C2073 H2065 0.950 . S
C2073 C2071 1.327 . S
C2074 C2062 1.349 . S
C2074 H2068 0.950 . S
C2074 C2075 1.327 . S
C2075 H2069 0.950 . S
C2075 C2074 1.327 . S
C2075 C2079 1.429 . S
C2076 C2059 1.574 . S
C2076 H2070 0.949 . S
C2076 C2080 1.368 . S
C2077 C2058 1.429 . S
C2077 C2071 1.429 . S
C2077 C2078 1.523 . S
C2078 C2059 1.368 1_554 S
C2078 C2072 1.368 . S
C2078 C2077 1.523 . S
C2079 C2063 1.429 . S
C2079 C2075 1.429 . S
C2079 C2080 1.523 . S
C2080 C2064 1.368 1_556 S
C2080 C2076 1.368 . S
C2080 C2079 1.523 . S
H2081 C2056 0.950 . S
H2082 C2058 0.950 . S
H2083 C2059 0.949 . S
H2084 C2061 0.950 . S
H2085 C2063 0.950 . S
C2086 C2087 1.349 . S
C2086 C2088 1.327 . S
C2086 H2111 0.950 . S
C2087 C2086 1.349 . S
C2087 C2103 1.349 . S
C2088 C2086 1.327 . S
C2088 C2107 1.429 . S
C2088 H2112 0.950 . S
C2089 C2106 1.574 1_455 S
C2089 C2108 1.368 . S
C2089 H2113 0.949 . S
H2090 C2094 0.949 . S
C2091 C2092 1.349 . S
C2091 C2093 1.327 . S
C2091 H2114 0.950 . S
C2092 C2091 1.349 . S
C2092 C2104 1.349 . S
C2093 C2091 1.327 . S
C2093 C2109 1.429 . S
C2093 H2115 0.950 . S
C2094 H2090 0.949 . S
C2094 C2102 1.574 1_655 S
C2094 C2110 1.368 . S
H2095 C2103 0.950 . S
H2096 C2101 0.950 . S
H2097 C2102 0.949 . S
H2098 C2104 0.950 . S
H2099 C2105 0.950 . S
H2100 C2106 0.949 . S
C2101 H2096 0.950 . S
C2101 C2103 1.327 . S
C2101 C2107 1.429 . S
C2102 C2094 1.574 1_455 S
C2102 H2097 0.949 . S
C2102 C2108 1.368 . S
C2103 C2087 1.349 . S
C2103 H2095 0.950 . S
C2103 C2101 1.327 . S
C2104 C2092 1.349 . S
C2104 H2098 0.950 . S
C2104 C2105 1.327 . S
C2105 H2099 0.950 . S
C2105 C2104 1.327 . S
C2105 C2109 1.429 . S
C2106 C2089 1.574 1_655 S
C2106 H2100 0.949 . S
C2106 C2110 1.368 . S
C2107 C2088 1.429 . S
C2107 C2101 1.429 . S
C2107 C2108 1.523 . S
C2108 C2089 1.368 . S
C2108 C2102 1.368 . S
C2108 C2107 1.523 . S
C2109 C2093 1.429 . S
C2109 C2105 1.429 . S
C2109 C2110 1.523 . S
C2110 C2094 1.368 . S
C2110 C2106 1.368 . S
C2110 C2109 1.523 . S
H2111 C2086 0.950 . S
H2112 C2088 0.950 . S
H2113 C2089 0.949 . S
H2114 C2091 0.950 . S
H2115 C2093 0.950 . S
C2116 C2117 1.349 . S
C2116 C2118 1.327 . S
C2116 H2141 0.950 . S
C2117 C2116 1.349 . S
C2117 C2133 1.349 . S
C2118 C2116 1.327 . S
C2118 C2137 1.429 . S
C2118 H2142 0.950 . S
C2119 C2136 1.574 1_455 S
C2119 C2138 1.368 1_556 S
C2119 H2143 0.949 . S
H2120 C2124 0.949 . S
C2121 C2122 1.349 . S
C2121 C2123 1.327 . S
C2121 H2144 0.950 . S
C2122 C2121 1.349 . S
C2122 C2134 1.349 . S
C2123 C2121 1.327 . S
C2123 C2139 1.429 . S
C2123 H2145 0.950 . S
C2124 H2120 0.949 . S
C2124 C2132 1.574 1_655 S
C2124 C2140 1.368 1_554 S
H2125 C2133 0.950 . S
H2126 C2131 0.950 . S
H2127 C2132 0.949 . S
H2128 C2134 0.950 . S
H2129 C2135 0.950 . S
H2130 C2136 0.949 . S
C2131 H2126 0.950 . S
C2131 C2133 1.327 . S
C2131 C2137 1.429 . S
C2132 C2124 1.574 1_455 S
C2132 H2127 0.949 . S
C2132 C2138 1.368 . S
C2133 C2117 1.349 . S
C2133 H2125 0.950 . S
C2133 C2131 1.327 . S
C2134 C2122 1.349 . S
C2134 H2128 0.950 . S
C2134 C2135 1.327 . S
C2135 H2129 0.950 . S
C2135 C2134 1.327 . S
C2135 C2139 1.429 . S
C2136 C2119 1.574 1_655 S
C2136 H2130 0.949 . S
C2136 C2140 1.368 . S
C2137 C2118 1.429 . S
C2137 C2131 1.429 . S
C2137 C2138 1.523 . S
C2138 C2119 1.368 1_554 S
C2138 C2132 1.368 . S
C2138 C2137 1.523 . S
C2139 C2123 1.429 . S
C2139 C2135 1.429 . S
C2139 C2140 1.523 . S
C2140 C2124 1.368 1_556 S
C2140 C2136 1.368 . S
C2140 C2139 1.523 . S
H2141 C2116 0.950 . S
H2142 C2118 0.950 . S
H2143 C2119 0.949 . S
H2144 C2121 0.950 . S
H2145 C2123 0.950 . S
C2146 C2147 1.349 . S
C2146 C2148 1.327 . S
C2146 H2171 0.950 . S
C2147 C2146 1.349 . S
C2147 C2163 1.349 . S
C2148 C2146 1.327 . S
C2148 C2167 1.429 . S
C2148 H2172 0.950 . S
C2149 C2166 1.574 . S
C2149 C2168 1.368 . S
C2149 H2173 0.949 . S
H2150 C2154 0.949 . S
C2151 C2152 1.349 . S
C2151 C2153 1.327 . S
C2151 H2174 0.950 . S
C2152 C2151 1.349 . S
C2152 C2164 1.349 . S
C2153 C2151 1.327 . S
C2153 C2169 1.429 . S
C2153 H2175 0.950 . S
C2154 H2150 0.949 . S
C2154 C2162 1.574 . S
C2154 C2170 1.368 . S
H2155 C2163 0.950 . S
H2156 C2161 0.950 . S
H2157 C2162 0.949 . S
H2158 C2164 0.950 . S
H2159 C2165 0.950 . S
H2160 C2166 0.949 . S
C2161 H2156 0.950 . S
C2161 C2163 1.327 . S
C2161 C2167 1.429 . S
C2162 C2154 1.574 . S
C2162 H2157 0.949 . S
C2162 C2168 1.368 . S
C2163 C2147 1.349 . S
C2163 H2155 0.950 . S
C2163 C2161 1.327 . S
C2164 C2152 1.349 . S
C2164 H2158 0.950 . S
C2164 C2165 1.327 . S
C2165 H2159 0.950 . S
C2165 C2164 1.327 . S
C2165 C2169 1.429 . S
C2166 C2149 1.574 . S
C2166 H2160 0.949 . S
C2166 C2170 1.368 . S
C2167 C2148 1.429 . S
C2167 C2161 1.429 . S
C2167 C2168 1.523 . S
C2168 C2149 1.368 . S
C2168 C2162 1.368 . S
C2168 C2167 1.523 . S
C2169 C2153 1.429 . S
C2169 C2165 1.429 . S
C2169 C2170 1.523 . S
C2170 C2154 1.368 . S
C2170 C2166 1.368 . S
C2170 C2169 1.523 . S
H2171 C2146 0.950 . S
H2172 C2148 0.950 . S
H2173 C2149 0.949 . S
H2174 C2151 0.950 . S
H2175 C2153 0.950 . S
C2176 C2177 1.349 . S
C2176 C2178 1.327 . S
C2176 H2201 0.950 . S
C2177 C2176 1.349 . S
C2177 C2193 1.349 . S
C2178 C2176 1.327 . S
C2178 C2197 1.429 . S
C2178 H2202 0.950 . S
C2179 C2196 1.574 . S
C2179 C2198 1.368 1_565 S
C2179 H2203 0.949 . S
H2180 C2184 0.949 . S
C2181 C2182 1.349 . S
C2181 C2183 1.327 . S
C2181 H2204 0.950 . S
C2182 C2181 1.349 . S
C2182 C2194 1.349 . S
C2183 C2181 1.327 . S
C2183 C2199 1.429 . S
C2183 H2205 0.950 . S
C2184 H2180 0.949 . S
C2184 C2192 1.574 . S
C2184 C2200 1.368 1_545 S
H2185 C2193 0.950 . S
H2186 C2191 0.950 . S
H2187 C2192 0.949 . S
H2188 C2194 0.950 . S
H2189 C2195 0.950 . S
H2190 C2196 0.949 . S
C2191 H2186 0.950 . S
C2191 C2193 1.327 . S
C2191 C2197 1.429 . S
C2192 C2184 1.574 . S
C2192 H2187 0.949 . S
C2192 C2198 1.368 . S
C2193 C2177 1.349 . S
C2193 H2185 0.950 . S
C2193 C2191 1.327 . S
C2194 C2182 1.349 . S
C2194 H2188 0.950 . S
C2194 C2195 1.327 . S
C2195 H2189 0.950 . S
C2195 C2194 1.327 . S
C2195 C2199 1.429 . S
C2196 C2179 1.574 . S
C2196 H2190 0.949 . S
C2196 C2200 1.368 . S
C2197 C2178 1.429 . S
C2197 C2191 1.429 . S
C2197 C2198 1.523 . S
C2198 C2179 1.368 1_545 S
C2198 C2192 1.368 . S
C2198 C2197 1.523 . S
C2199 C2183 1.429 . S
C2199 C2195 1.429 . S
C2199 C2200 1.523 . S
C2200 C2184 1.368 1_565 S
C2200 C2196 1.368 . S
C2200 C2199 1.523 . S
H2201 C2176 0.950 . S
H2202 C2178 0.950 . S
H2203 C2179 0.949 . S
H2204 C2181 0.950 . S
H2205 C2183 0.950 . S
C2206 C2207 1.349 . S
C2206 C2208 1.327 . S
C2206 H2231 0.950 . S
C2207 C2206 1.349 . S
C2207 C2223 1.349 . S
C2208 C2206 1.327 . S
C2208 C2227 1.429 . S
C2208 H2232 0.950 . S
C2209 C2226 1.574 . S
C2209 C2228 1.368 . S
C2209 H2233 0.949 . S
H2210 C2214 0.949 . S
C2211 C2212 1.349 . S
C2211 C2213 1.327 . S
C2211 H2234 0.950 . S
C2212 C2211 1.349 . S
C2212 C2224 1.349 . S
C2213 C2211 1.327 . S
C2213 C2229 1.429 . S
C2213 H2235 0.950 . S
C2214 H2210 0.949 . S
C2214 C2222 1.574 . S
C2214 C2230 1.368 . S
H2215 C2223 0.950 . S
H2216 C2221 0.950 . S
H2217 C2222 0.949 . S
H2218 C2224 0.950 . S
H2219 C2225 0.950 . S
H2220 C2226 0.949 . S
C2221 H2216 0.950 . S
C2221 C2223 1.327 . S
C2221 C2227 1.429 . S
C2222 C2214 1.574 . S
C2222 H2217 0.949 . S
C2222 C2228 1.368 . S
C2223 C2207 1.349 . S
C2223 H2215 0.950 . S
C2223 C2221 1.327 . S
C2224 C2212 1.349 . S
C2224 H2218 0.950 . S
C2224 C2225 1.327 . S
C2225 H2219 0.950 . S
C2225 C2224 1.327 . S
C2225 C2229 1.429 . S
C2226 C2209 1.574 . S
C2226 H2220 0.949 . S
C2226 C2230 1.368 . S
C2227 C2208 1.429 . S
C2227 C2221 1.429 . S
C2227 C2228 1.523 . S
C2228 C2209 1.368 . S
C2228 C2222 1.368 . S
C2228 C2227 1.523 . S
C2229 C2213 1.429 . S
C2229 C2225 1.429 . S
C2229 C2230 1.523 . S
C2230 C2214 1.368 . S
C2230 C2226 1.368 . S
C2230 C2229 1.523 . S
H2231 C2206 0.950 . S
H2232 C2208 0.950 . S
H2233 C2209 0.949 . S
H2234 C2211 0.950 . S
H2235 C2213 0.950 . S
C2236 C2237 1.349 . S
C2236 C2238 1.327 . S
C2236 H2261 0.950 . S
C2237 C2236 1.349 . S
C2237 C2253 1.349 . S
C2238 C2236 1.327 . S
C2238 C2257 1.429 . S
C2238 H2262 0.950 . S
C2239 C2256 1.574 . S
C2239 C2258 1.368 . S
C2239 H2263 0.949 . S
H2240 C2244 0.949 . S
C2241 C2242 1.349 . S
C2241 C2243 1.327 . S
C2241 H2264 0.950 . S
C2242 C2241 1.349 . S
C2242 C2254 1.349 . S
C2243 C2241 1.327 . S
C2243 C2259 1.429 . S
C2243 H2265 0.950 . S
C2244 H2240 0.949 . S
C2244 C2252 1.574 . S
C2244 C2260 1.368 . S
H2245 C2253 0.950 . S
H2246 C2251 0.950 . S
H2247 C2252 0.949 . S
H2248 C2254 0.950 . S
H2249 C2255 0.950 . S
H2250 C2256 0.949 . S
C2251 H2246 0.950 . S
C2251 C2253 1.327 . S
C2251 C2257 1.429 . S
C2252 C2244 1.574 . S
C2252 H2247 0.949 . S
C2252 C2258 1.368 1_565 S
C2253 C2237 1.349 . S
C2253 H2245 0.950 . S
C2253 C2251 1.327 . S
C2254 C2242 1.349 . S
C2254 H2248 0.950 . S
C2254 C2255 1.327 . S
C2255 H2249 0.950 . S
C2255 C2254 1.327 . S
C2255 C2259 1.429 . S
C2256 C2239 1.574 . S
C2256 H2250 0.949 . S
C2256 C2260 1.368 1_545 S
C2257 C2238 1.429 . S
C2257 C2251 1.429 . S
C2257 C2258 1.523 . S
C2258 C2239 1.368 . S
C2258 C2252 1.368 1_545 S
C2258 C2257 1.523 . S
C2259 C2243 1.429 . S
C2259 C2255 1.429 . S
C2259 C2260 1.523 . S
C2260 C2244 1.368 . S
C2260 C2256 1.368 1_565 S
C2260 C2259 1.523 . S
H2261 C2236 0.950 . S
H2262 C2238 0.950 . S
H2263 C2239 0.949 . S
H2264 C2241 0.950 . S
H2265 C2243 0.950 . S
C2266 C2267 1.349 . S
C2266 C2268 1.327 . S
C2266 H2291 0.950 . S
C2267 C2266 1.349 . S
C2267 C2283 1.349 . S
C2268 C2266 1.327 . S
C2268 C2287 1.429 . S
C2268 H2292 0.950 . S
C2269 C2286 1.574 1_554 S
C2269 C2288 1.368 . S
C2269 H2293 0.949 . S
H2270 C2274 0.949 . S
C2271 C2272 1.349 . S
C2271 C2273 1.327 . S
C2271 H2294 0.950 . S
C2272 C2271 1.349 . S
C2272 C2284 1.349 . S
C2273 C2271 1.327 . S
C2273 C2289 1.429 . S
C2273 H2295 0.950 . S
C2274 H2270 0.949 . S
C2274 C2282 1.574 1_556 S
C2274 C2290 1.368 . S
H2275 C2283 0.950 . S
H2276 C2281 0.950 . S
H2277 C2282 0.949 . S
H2278 C2284 0.950 . S
H2279 C2285 0.950 . S
H2280 C2286 0.949 . S
C2281 H2276 0.950 . S
C2281 C2283 1.327 . S
C2281 C2287 1.429 . S
C2282 C2274 1.574 1_554 S
C2282 H2277 0.949 . S
C2282 C2288 1.368 . S
C2283 C2267 1.349 . S
C2283 H2275 0.950 . S
C2283 C2281 1.327 . S
C2284 C2272 1.349 . S
C2284 H2278 0.950 . S
C2284 C2285 1.327 . S
C2285 H2279 0.950 . S
C2285 C2284 1.327 . S
C2285 C2289 1.429 . S
C2286 C2269 1.574 1_556 S
C2286 H2280 0.949 . S
C2286 C2290 1.368 . S
C2287 C2268 1.429 . S
C2287 C2281 1.429 . S
C2287 C2288 1.523 . S
C2288 C2269 1.368 . S
C2288 C2282 1.368 . S
C2288 C2287 1.523 . S
C2289 C2273 1.429 . S
C2289 C2285 1.429 . S
C2289 C2290 1.523 . S
C2290 C2274 1.368 . S
C2290 C2286 1.368 . S
C2290 C2289 1.523 . S
H2291 C2266 0.950 . S
H2292 C2268 0.950 . S
H2293 C2269 0.949 . S
H2294 C2271 0.950 . S
H2295 C2273 0.950 . S
C2296 C2297 1.349 . S
C2296 C2298 1.327 . S
C2296 H2321 0.950 . S
C2297 C2296 1.349 . S
C2297 C2313 1.349 . S
C2298 C2296 1.327 . S
C2298 C2317 1.429 . S
C2298 H2322 0.950 . S
C2299 C2316 1.574 . S
C2299 C2318 1.368 1_565 S
C2299 H2323 0.949 . S
H2300 C2304 0.949 . S
C2301 C2302 1.349 . S
C2301 C2303 1.327 . S
C2301 H2324 0.950 . S
C2302 C2301 1.349 . S
C2302 C2314 1.349 . S
C2303 C2301 1.327 . S
C2303 C2319 1.429 . S
C2303 H2325 0.950 . S
C2304 H2300 0.949 . S
C2304 C2312 1.574 . S
C2304 C2320 1.368 1_545 S
H2305 C2313 0.950 . S
H2306 C2311 0.950 . S
H2307 C2312 0.949 . S
H2308 C2314 0.950 . S
H2309 C2315 0.950 . S
H2310 C2316 0.949 . S
C2311 H2306 0.950 . S
C2311 C2313 1.327 . S
C2311 C2317 1.429 . S
C2312 C2304 1.574 . S
C2312 H2307 0.949 . S
C2312 C2318 1.368 . S
C2313 C2297 1.349 . S
C2313 H2305 0.950 . S
C2313 C2311 1.327 . S
C2314 C2302 1.349 . S
C2314 H2308 0.950 . S
C2314 C2315 1.327 . S
C2315 H2309 0.950 . S
C2315 C2314 1.327 . S
C2315 C2319 1.429 . S
C2316 C2299 1.574 . S
C2316 H2310 0.949 . S
C2316 C2320 1.368 . S
C2317 C2298 1.429 . S
C2317 C2311 1.429 . S
C2317 C2318 1.523 . S
C2318 C2299 1.368 1_545 S
C2318 C2312 1.368 . S
C2318 C2317 1.523 . S
C2319 C2303 1.429 . S
C2319 C2315 1.429 . S
C2319 C2320 1.523 . S
C2320 C2304 1.368 1_565 S
C2320 C2316 1.368 . S
C2320 C2319 1.523 . S
H2321 C2296 0.950 . S
H2322 C2298 0.950 . S
H2323 C2299 0.949 . S
H2324 C2301 0.950 . S
H2325 C2303 0.950 . S
C2326 C2327 1.349 . S
C2326 C2328 1.327 . S
C2326 H2351 0.950 . S
C2327 C2326 1.349 . S
C2327 C2343 1.349 . S
C2328 C2326 1.327 . S
C2328 C2347 1.429 . S
C2328 H2352 0.950 . S
C2329 C2346 1.574 . S
C2329 C2348 1.368 . S
C2329 H2353 0.949 . S
H2330 C2334 0.949 . S
C2331 C2332 1.349 . S
C2331 C2333 1.327 . S
C2331 H2354 0.950 . S
C2332 C2331 1.349 . S
C2332 C2344 1.349 . S
C2333 C2331 1.327 . S
C2333 C2349 1.429 . S
C2333 H2355 0.950 . S
C2334 H2330 0.949 . S
C2334 C2342 1.574 . S
C2334 C2350 1.368 . S
H2335 C2343 0.950 . S
H2336 C2341 0.950 . S
H2337 C2342 0.949 . S
H2338 C2344 0.950 . S
H2339 C2345 0.950 . S
H2340 C2346 0.949 . S
C2341 H2336 0.950 . S
C2341 C2343 1.327 . S
C2341 C2347 1.429 . S
C2342 C2334 1.574 . S
C2342 H2337 0.949 . S
C2342 C2348 1.368 . S
C2343 C2327 1.349 . S
C2343 H2335 0.950 . S
C2343 C2341 1.327 . S
C2344 C2332 1.349 . S
C2344 H2338 0.950 . S
C2344 C2345 1.327 . S
C2345 H2339 0.950 . S
C2345 C2344 1.327 . S
C2345 C2349 1.429 . S
C2346 C2329 1.574 . S
C2346 H2340 0.949 . S
C2346 C2350 1.368 . S
C2347 C2328 1.429 . S
C2347 C2341 1.429 . S
C2347 C2348 1.523 . S
C2348 C2329 1.368 . S
C2348 C2342 1.368 . S
C2348 C2347 1.523 . S
C2349 C2333 1.429 . S
C2349 C2345 1.429 . S
C2349 C2350 1.523 . S
C2350 C2334 1.368 . S
C2350 C2346 1.368 . S
C2350 C2349 1.523 . S
H2351 C2326 0.950 . S
H2352 C2328 0.950 . S
H2353 C2329 0.949 . S
H2354 C2331 0.950 . S
H2355 C2333 0.950 . S
C2356 C2357 1.349 . S
C2356 C2358 1.327 . S
C2356 H2381 0.950 . S
C2357 C2356 1.349 . S
C2357 C2373 1.349 . S
C2358 C2356 1.327 . S
C2358 C2377 1.429 . S
C2358 H2382 0.950 . S
C2359 C2376 1.574 . S
C2359 C2378 1.368 . S
C2359 H2383 0.949 . S
H2360 C2364 0.949 . S
C2361 C2362 1.349 . S
C2361 C2363 1.327 . S
C2361 H2384 0.950 . S
C2362 C2361 1.349 . S
C2362 C2374 1.349 . S
C2363 C2361 1.327 . S
C2363 C2379 1.429 . S
C2363 H2385 0.950 . S
C2364 H2360 0.949 . S
C2364 C2372 1.574 . S
C2364 C2380 1.368 . S
H2365 C2373 0.950 . S
H2366 C2371 0.950 . S
H2367 C2372 0.949 . S
H2368 C2374 0.950 . S
H2369 C2375 0.950 . S
H2370 C2376 0.949 . S
C2371 H2366 0.950 . S
C2371 C2373 1.327 . S
C2371 C2377 1.429 . S
C2372 C2364 1.574 . S
C2372 H2367 0.949 . S
C2372 C2378 1.368 1_565 S
C2373 C2357 1.349 . S
C2373 H2365 0.950 . S
C2373 C2371 1.327 . S
C2374 C2362 1.349 . S
C2374 H2368 0.950 . S
C2374 C2375 1.327 . S
C2375 H2369 0.950 . S
C2375 C2374 1.327 . S
C2375 C2379 1.429 . S
C2376 C2359 1.574 . S
C2376 H2370 0.949 . S
C2376 C2380 1.368 1_545 S
C2377 C2358 1.429 . S
C2377 C2371 1.429 . S
C2377 C2378 1.523 . S
C2378 C2359 1.368 . S
C2378 C2372 1.368 1_545 S
C2378 C2377 1.523 . S
C2379 C2363 1.429 . S
C2379 C2375 1.429 . S
C2379 C2380 1.523 . S
C2380 C2364 1.368 . S
C2380 C2376 1.368 1_565 S
C2380 C2379 1.523 . S
H2381 C2356 0.950 . S
H2382 C2358 0.950 . S
H2383 C2359 0.949 . S
H2384 C2361 0.950 . S
H2385 C2363 0.950 . S
C2386 C2387 1.349 . S
C2386 C2388 1.327 . S
C2386 H2411 0.950 . S
C2387 C2386 1.349 . S
C2387 C2403 1.349 . S
C2388 C2386 1.327 . S
C2388 C2407 1.429 . S
C2388 H2412 0.950 . S
C2389 C2406 1.574 1_556 S
C2389 C2408 1.368 . S
C2389 H2413 0.949 . S
H2390 C2394 0.949 . S
C2391 C2392 1.349 . S
C2391 C2393 1.327 . S
C2391 H2414 0.950 . S
C2392 C2391 1.349 . S
C2392 C2404 1.349 . S
C2393 C2391 1.327 . S
C2393 C2409 1.429 . S
C2393 H2415 0.950 . S
C2394 H2390 0.949 . S
C2394 C2402 1.574 1_554 S
C2394 C2410 1.368 . S
H2395 C2403 0.950 . S
H2396 C2401 0.950 . S
H2397 C2402 0.949 . S
H2398 C2404 0.950 . S
H2399 C2405 0.950 . S
H2400 C2406 0.949 . S
C2401 H2396 0.950 . S
C2401 C2403 1.327 . S
C2401 C2407 1.429 . S
C2402 C2394 1.574 1_556 S
C2402 H2397 0.949 . S
C2402 C2408 1.368 . S
C2403 C2387 1.349 . S
C2403 H2395 0.950 . S
C2403 C2401 1.327 . S
C2404 C2392 1.349 . S
C2404 H2398 0.950 . S
C2404 C2405 1.327 . S
C2405 H2399 0.950 . S
C2405 C2404 1.327 . S
C2405 C2409 1.429 . S
C2406 C2389 1.574 1_554 S
C2406 H2400 0.949 . S
C2406 C2410 1.368 . S
C2407 C2388 1.429 . S
C2407 C2401 1.429 . S
C2407 C2408 1.523 . S
C2408 C2389 1.368 . S
C2408 C2402 1.368 . S
C2408 C2407 1.523 . S
C2409 C2393 1.429 . S
C2409 C2405 1.429 . S
C2409 C2410 1.523 . S
C2410 C2394 1.368 . S
C2410 C2406 1.368 . S
C2410 C2409 1.523 . S
H2411 C2386 0.950 . S
H2412 C2388 0.950 . S
H2413 C2389 0.949 . S
H2414 C2391 0.950 . S
H2415 C2393 0.950 . S
C2416 C2417 1.349 . S
C2416 C2418 1.327 . S
C2416 H2441 0.950 . S
C2417 C2416 1.349 . S
C2417 C2433 1.349 . S
C2418 C2416 1.327 . S
C2418 C2437 1.429 . S
C2418 H2442 0.950 . S
C2419 C2436 1.574 . S
C2419 C2438 1.368 . S
C2419 H2443 0.949 . S
H2420 C2424 0.949 . S
C2421 C2422 1.349 . S
C2421 C2423 1.327 . S
C2421 H2444 0.950 . S
C2422 C2421 1.349 . S
C2422 C2434 1.349 . S
C2423 C2421 1.327 . S
C2423 C2439 1.429 . S
C2423 H2445 0.950 . S
C2424 H2420 0.949 . S
C2424 C2432 1.574 . S
C2424 C2440 1.368 . S
H2425 C2433 0.950 . S
H2426 C2431 0.950 . S
H2427 C2432 0.949 . S
H2428 C2434 0.950 . S
H2429 C2435 0.950 . S
H2430 C2436 0.949 . S
C2431 H2426 0.950 . S
C2431 C2433 1.327 . S
C2431 C2437 1.429 . S
C2432 C2424 1.574 . S
C2432 H2427 0.949 . S
C2432 C2438 1.368 . S
C2433 C2417 1.349 . S
C2433 H2425 0.950 . S
C2433 C2431 1.327 . S
C2434 C2422 1.349 . S
C2434 H2428 0.950 . S
C2434 C2435 1.327 . S
C2435 H2429 0.950 . S
C2435 C2434 1.327 . S
C2435 C2439 1.429 . S
C2436 C2419 1.574 . S
C2436 H2430 0.949 . S
C2436 C2440 1.368 . S
C2437 C2418 1.429 . S
C2437 C2431 1.429 . S
C2437 C2438 1.523 . S
C2438 C2419 1.368 . S
C2438 C2432 1.368 . S
C2438 C2437 1.523 . S
C2439 C2423 1.429 . S
C2439 C2435 1.429 . S
C2439 C2440 1.523 . S
C2440 C2424 1.368 . S
C2440 C2436 1.368 . S
C2440 C2439 1.523 . S
H2441 C2416 0.950 . S
H2442 C2418 0.950 . S
H2443 C2419 0.949 . S
H2444 C2421 0.950 . S
H2445 C2423 0.950 . S
C2446 C2447 1.349 . S
C2446 C2448 1.327 . S
C2446 H2471 0.950 . S
C2447 C2446 1.349 . S
C2447 C2463 1.349 . S
C2448 C2446 1.327 . S
C2448 C2467 1.429 . S
C2448 H2472 0.950 . S
C2449 C2466 1.574 1_556 S
C2449 C2468 1.368 . S
C2449 H2473 0.949 . S
H2450 C2454 0.949 . S
C2451 C2452 1.349 . S
C2451 C2453 1.327 . S
C2451 H2474 0.950 . S
C2452 C2451 1.349 . S
C2452 C2464 1.349 . S
C2453 C2451 1.327 . S
C2453 C2469 1.429 . S
C2453 H2475 0.950 . S
C2454 H2450 0.949 . S
C2454 C2462 1.574 1_554 S
C2454 C2470 1.368 . S
H2455 C2463 0.950 . S
H2456 C2461 0.950 . S
H2457 C2462 0.949 . S
H2458 C2464 0.950 . S
H2459 C2465 0.950 . S
H2460 C2466 0.949 . S
C2461 H2456 0.950 . S
C2461 C2463 1.327 . S
C2461 C2467 1.429 . S
C2462 C2454 1.574 1_556 S
C2462 H2457 0.949 . S
C2462 C2468 1.368 . S
C2463 C2447 1.349 . S
C2463 H2455 0.950 . S
C2463 C2461 1.327 . S
C2464 C2452 1.349 . S
C2464 H2458 0.950 . S
C2464 C2465 1.327 . S
C2465 H2459 0.950 . S
C2465 C2464 1.327 . S
C2465 C2469 1.429 . S
C2466 C2449 1.574 1_554 S
C2466 H2460 0.949 . S
C2466 C2470 1.368 . S
C2467 C2448 1.429 . S
C2467 C2461 1.429 . S
C2467 C2468 1.523 . S
C2468 C2449 1.368 . S
C2468 C2462 1.368 . S
C2468 C2467 1.523 . S
C2469 C2453 1.429 . S
C2469 C2465 1.429 . S
C2469 C2470 1.523 . S
C2470 C2454 1.368 . S
C2470 C2466 1.368 . S
C2470 C2469 1.523 . S
H2471 C2446 0.950 . S
H2472 C2448 0.950 . S
H2473 C2449 0.949 . S
H2474 C2451 0.950 . S
H2475 C2453 0.950 . S
C2476 C2477 1.349 . S
C2476 C2478 1.327 . S
C2476 H2501 0.950 . S
C2477 C2476 1.349 . S
C2477 C2493 1.349 . S
C2478 C2476 1.327 . S
C2478 C2497 1.429 . S
C2478 H2502 0.950 . S
C2479 C2496 1.574 . S
C2479 C2498 1.368 . S
C2479 H2503 0.949 . S
H2480 C2484 0.949 . S
C2481 C2482 1.349 . S
C2481 C2483 1.327 . S
C2481 H2504 0.950 . S
C2482 C2481 1.349 . S
C2482 C2494 1.349 . S
C2483 C2481 1.327 . S
C2483 C2499 1.429 . S
C2483 H2505 0.950 . S
C2484 H2480 0.949 . S
C2484 C2492 1.574 . S
C2484 C2500 1.368 . S
H2485 C2493 0.950 . S
H2486 C2491 0.950 . S
H2487 C2492 0.949 . S
H2488 C2494 0.950 . S
H2489 C2495 0.950 . S
H2490 C2496 0.949 . S
C2491 H2486 0.950 . S
C2491 C2493 1.327 . S
C2491 C2497 1.429 . S
C2492 C2484 1.574 . S
C2492 H2487 0.949 . S
C2492 C2498 1.368 . S
C2493 C2477 1.349 . S
C2493 H2485 0.950 . S
C2493 C2491 1.327 . S
C2494 C2482 1.349 . S
C2494 H2488 0.950 . S
C2494 C2495 1.327 . S
C2495 H2489 0.950 . S
C2495 C2494 1.327 . S
C2495 C2499 1.429 . S
C2496 C2479 1.574 . S
C2496 H2490 0.949 . S
C2496 C2500 1.368 . S
C2497 C2478 1.429 . S
C2497 C2491 1.429 . S
C2497 C2498 1.523 . S
C2498 C2479 1.368 . S
C2498 C2492 1.368 . S
C2498 C2497 1.523 . S
C2499 C2483 1.429 . S
C2499 C2495 1.429 . S
C2499 C2500 1.523 . S
C2500 C2484 1.368 . S
C2500 C2496 1.368 . S
C2500 C2499 1.523 . S
H2501 C2476 0.950 . S
H2502 C2478 0.950 . S
H2503 C2479 0.949 . S
H2504 C2481 0.950 . S
H2505 C2483 0.950 . S
C2506 C2507 1.349 . S
C2506 C2508 1.327 . S
C2506 H2531 0.950 . S
C2507 C2506 1.349 . S
C2507 C2523 1.349 . S
C2508 C2506 1.327 . S
C2508 C2527 1.429 . S
C2508 H2532 0.950 . S
C2509 C2526 1.574 . S
C2509 C2528 1.368 . S
C2509 H2533 0.949 . S
H2510 C2514 0.949 . S
C2511 C2512 1.349 . S
C2511 C2513 1.327 . S
C2511 H2534 0.950 . S
C2512 C2511 1.349 . S
C2512 C2524 1.349 . S
C2513 C2511 1.327 . S
C2513 C2529 1.429 . S
C2513 H2535 0.950 . S
C2514 H2510 0.949 . S
C2514 C2522 1.574 . S
C2514 C2530 1.368 . S
H2515 C2523 0.950 . S
H2516 C2521 0.950 . S
H2517 C2522 0.949 . S
H2518 C2524 0.950 . S
H2519 C2525 0.950 . S
H2520 C2526 0.949 . S
C2521 H2516 0.950 . S
C2521 C2523 1.327 . S
C2521 C2527 1.429 . S
C2522 C2514 1.574 . S
C2522 H2517 0.949 . S
C2522 C2528 1.368 . S
C2523 C2507 1.349 . S
C2523 H2515 0.950 . S
C2523 C2521 1.327 . S
C2524 C2512 1.349 . S
C2524 H2518 0.950 . S
C2524 C2525 1.327 . S
C2525 H2519 0.950 . S
C2525 C2524 1.327 . S
C2525 C2529 1.429 . S
C2526 C2509 1.574 . S
C2526 H2520 0.949 . S
C2526 C2530 1.368 . S
C2527 C2508 1.429 . S
C2527 C2521 1.429 . S
C2527 C2528 1.523 . S
C2528 C2509 1.368 . S
C2528 C2522 1.368 . S
C2528 C2527 1.523 . S
C2529 C2513 1.429 . S
C2529 C2525 1.429 . S
C2529 C2530 1.523 . S
C2530 C2514 1.368 . S
C2530 C2526 1.368 . S
C2530 C2529 1.523 . S
H2531 C2506 0.950 . S
H2532 C2508 0.950 . S
H2533 C2509 0.949 . S
H2534 C2511 0.950 . S
H2535 C2513 0.950 . S
C2536 C2537 1.349 . S
C2536 C2538 1.327 . S
C2536 H2561 0.950 . S
C2537 C2536 1.349 . S
C2537 C2553 1.349 . S
C2538 C2536 1.327 . S
C2538 C2557 1.429 . S
C2538 H2562 0.950 . S
C2539 C2556 1.574 . S
C2539 C2558 1.368 . S
C2539 H2563 0.949 . S
H2540 C2544 0.949 . S
C2541 C2542 1.349 . S
C2541 C2543 1.327 . S
C2541 H2564 0.950 . S
C2542 C2541 1.349 . S
C2542 C2554 1.349 . S
C2543 C2541 1.327 . S
C2543 C2559 1.429 . S
C2543 H2565 0.950 . S
C2544 H2540 0.949 . S
C2544 C2552 1.574 . S
C2544 C2560 1.368 . S
H2545 C2553 0.950 . S
H2546 C2551 0.950 . S
H2547 C2552 0.949 . S
H2548 C2554 0.950 . S
H2549 C2555 0.950 . S
H2550 C2556 0.949 . S
C2551 H2546 0.950 . S
C2551 C2553 1.327 . S
C2551 C2557 1.429 . S
C2552 C2544 1.574 . S
C2552 H2547 0.949 . S
C2552 C2558 1.368 . S
C2553 C2537 1.349 . S
C2553 H2545 0.950 . S
C2553 C2551 1.327 . S
C2554 C2542 1.349 . S
C2554 H2548 0.950 . S
C2554 C2555 1.327 . S
C2555 H2549 0.950 . S
C2555 C2554 1.327 . S
C2555 C2559 1.429 . S
C2556 C2539 1.574 . S
C2556 H2550 0.949 . S
C2556 C2560 1.368 . S
C2557 C2538 1.429 . S
C2557 C2551 1.429 . S
C2557 C2558 1.523 . S
C2558 C2539 1.368 . S
C2558 C2552 1.368 . S
C2558 C2557 1.523 . S
C2559 C2543 1.429 . S
C2559 C2555 1.429 . S
C2559 C2560 1.523 . S
C2560 C2544 1.368 . S
C2560 C2556 1.368 . S
C2560 C2559 1.523 . S
H2561 C2536 0.950 . S
H2562 C2538 0.950 . S
H2563 C2539 0.949 . S
H2564 C2541 0.950 . S
H2565 C2543 0.950 . S
C2566 C2567 1.349 . S
C2566 C2568 1.327 . S
C2566 H2591 0.950 . S
C2567 C2566 1.349 . S
C2567 C2583 1.349 . S
C2568 C2566 1.327 . S
C2568 C2587 1.429 . S
C2568 H2592 0.950 . S
C2569 C2586 1.574 1_556 S
C2569 C2588 1.368 . S
C2569 H2593 0.949 . S
H2570 C2574 0.949 . S
C2571 C2572 1.349 . S
C2571 C2573 1.327 . S
C2571 H2594 0.950 . S
C2572 C2571 1.349 . S
C2572 C2584 1.349 . S
C2573 C2571 1.327 . S
C2573 C2589 1.429 . S
C2573 H2595 0.950 . S
C2574 H2570 0.949 . S
C2574 C2582 1.574 1_554 S
C2574 C2590 1.368 . S
H2575 C2583 0.950 . S
H2576 C2581 0.950 . S
H2577 C2582 0.949 . S
H2578 C2584 0.950 . S
H2579 C2585 0.950 . S
H2580 C2586 0.949 . S
C2581 H2576 0.950 . S
C2581 C2583 1.327 . S
C2581 C2587 1.429 . S
C2582 C2574 1.574 1_556 S
C2582 H2577 0.949 . S
C2582 C2588 1.368 . S
C2583 C2567 1.349 . S
C2583 H2575 0.950 . S
C2583 C2581 1.327 . S
C2584 C2572 1.349 . S
C2584 H2578 0.950 . S
C2584 C2585 1.327 . S
C2585 H2579 0.950 . S
C2585 C2584 1.327 . S
C2585 C2589 1.429 . S
C2586 C2569 1.574 1_554 S
C2586 H2580 0.949 . S
C2586 C2590 1.368 . S
C2587 C2568 1.429 . S
C2587 C2581 1.429 . S
C2587 C2588 1.523 . S
C2588 C2569 1.368 . S
C2588 C2582 1.368 . S
C2588 C2587 1.523 . S
C2589 C2573 1.429 . S
C2589 C2585 1.429 . S
C2589 C2590 1.523 . S
C2590 C2574 1.368 . S
C2590 C2586 1.368 . S
C2590 C2589 1.523 . S
H2591 C2566 0.950 . S
H2592 C2568 0.950 . S
H2593 C2569 0.949 . S
H2594 C2571 0.950 . S
H2595 C2573 0.950 . S
C2596 C2597 1.349 . S
C2596 C2598 1.327 . S
C2596 H2621 0.950 . S
C2597 C2596 1.349 . S
C2597 C2613 1.349 . S
C2598 C2596 1.327 . S
C2598 C2617 1.429 . S
C2598 H2622 0.950 . S
C2599 C2616 1.574 . S
C2599 C2618 1.368 . S
C2599 H2623 0.949 . S
H2600 C2604 0.949 . S
C2601 C2602 1.349 . S
C2601 C2603 1.327 . S
C2601 H2624 0.950 . S
C2602 C2601 1.349 . S
C2602 C2614 1.349 . S
C2603 C2601 1.327 . S
C2603 C2619 1.429 . S
C2603 H2625 0.950 . S
C2604 H2600 0.949 . S
C2604 C2612 1.574 . S
C2604 C2620 1.368 . S
H2605 C2613 0.950 . S
H2606 C2611 0.950 . S
H2607 C2612 0.949 . S
H2608 C2614 0.950 . S
H2609 C2615 0.950 . S
H2610 C2616 0.949 . S
C2611 H2606 0.950 . S
C2611 C2613 1.327 . S
C2611 C2617 1.429 . S
C2612 C2604 1.574 . S
C2612 H2607 0.949 . S
C2612 C2618 1.368 . S
C2613 C2597 1.349 . S
C2613 H2605 0.950 . S
C2613 C2611 1.327 . S
C2614 C2602 1.349 . S
C2614 H2608 0.950 . S
C2614 C2615 1.327 . S
C2615 H2609 0.950 . S
C2615 C2614 1.327 . S
C2615 C2619 1.429 . S
C2616 C2599 1.574 . S
C2616 H2610 0.949 . S
C2616 C2620 1.368 . S
C2617 C2598 1.429 . S
C2617 C2611 1.429 . S
C2617 C2618 1.523 . S
C2618 C2599 1.368 . S
C2618 C2612 1.368 . S
C2618 C2617 1.523 . S
C2619 C2603 1.429 . S
C2619 C2615 1.429 . S
C2619 C2620 1.523 . S
C2620 C2604 1.368 . S
C2620 C2616 1.368 . S
C2620 C2619 1.523 . S
H2621 C2596 0.950 . S
H2622 C2598 0.950 . S
H2623 C2599 0.949 . S
H2624 C2601 0.950 . S
H2625 C2603 0.950 . S
C2626 C2627 1.349 . S
C2626 C2628 1.327 . S
C2626 H2651 0.950 . S
C2627 C2626 1.349 . S
C2627 C2643 1.349 . S
C2628 C2626 1.327 . S
C2628 C2647 1.429 . S
C2628 H2652 0.950 . S
C2629 C2646 1.574 . S
C2629 C2648 1.368 . S
C2629 H2653 0.949 . S
H2630 C2634 0.949 . S
C2631 C2632 1.349 . S
C2631 C2633 1.327 . S
C2631 H2654 0.950 . S
C2632 C2631 1.349 . S
C2632 C2644 1.349 . S
C2633 C2631 1.327 . S
C2633 C2649 1.429 . S
C2633 H2655 0.950 . S
C2634 H2630 0.949 . S
C2634 C2642 1.574 . S
C2634 C2650 1.368 . S
H2635 C2643 0.950 . S
H2636 C2641 0.950 . S
H2637 C2642 0.949 . S
H2638 C2644 0.950 . S
H2639 C2645 0.950 . S
H2640 C2646 0.949 . S
C2641 H2636 0.950 . S
C2641 C2643 1.327 . S
C2641 C2647 1.429 . S
C2642 C2634 1.574 . S
C2642 H2637 0.949 . S
C2642 C2648 1.368 . S
C2643 C2627 1.349 . S
C2643 H2635 0.950 . S
C2643 C2641 1.327 . S
C2644 C2632 1.349 . S
C2644 H2638 0.950 . S
C2644 C2645 1.327 . S
C2645 H2639 0.950 . S
C2645 C2644 1.327 . S
C2645 C2649 1.429 . S
C2646 C2629 1.574 . S
C2646 H2640 0.949 . S
C2646 C2650 1.368 . S
C2647 C2628 1.429 . S
C2647 C2641 1.429 . S
C2647 C2648 1.523 . S
C2648 C2629 1.368 . S
C2648 C2642 1.368 . S
C2648 C2647 1.523 . S
C2649 C2633 1.429 . S
C2649 C2645 1.429 . S
C2649 C2650 1.523 . S
C2650 C2634 1.368 . S
C2650 C2646 1.368 . S
C2650 C2649 1.523 . S
H2651 C2626 0.950 . S
H2652 C2628 0.950 . S
H2653 C2629 0.949 . S
H2654 C2631 0.950 . S
H2655 C2633 0.950 . S
C737 N633 1.409 . S
C742 C7 1.418 . S
C767 C30 1.418 . S
C772 N196 1.409 . S
C797 N587 1.409 . S
C802 C53 1.418 . S
C827 C76 1.418 . S
C832 N242 1.409 . S
C857 C99 1.418 . S
C862 N679 1.409 . S
C887 C122 1.418 . S
C892 N334 1.409 . S
C917 C145 1.418 . S
C922 N725 1.409 . S
C947 C168 1.418 . S
C952 N288 1.409 . S
C977 N449 1.409 . S
C982 C191 1.418 . S
C1007 N12 1.409 . S
C1012 C214 1.418 . S
C1037 N403 1.409 . S
C1042 C237 1.418 . S
C1067 C260 1.418 . S
C1072 N58 1.409 . S
C1097 N495 1.409 . S
C1102 C283 1.418 . S
C1127 N150 1.409 . S
C1132 C306 1.418 . S
C1157 C329 1.418 . S
C1162 N541 1.409 . S
C1187 N104 1.409 . S
C1192 C352 1.418 . S
C1217 C375 1.418 . S
C1222 N265 1.409 . S
C1247 C398 1.418 . S
C1252 N564 1.409 . S
C1277 N219 1.409 . S
C1282 C421 1.418 . S
C1307 N610 1.409 . S
C1312 C444 1.418 . S
C1337 N311 1.409 . S
C1342 C467 1.418 . S
C1367 N702 1.409 . S
C1372 C490 1.418 . S
C1397 N357 1.409 . S
C1402 C513 1.418 . S
C1427 C536 1.418 . S
C1432 N656 1.409 . S
C1457 N81 1.409 . S
C1462 C559 1.418 . S
C1487 C582 1.418 . S
C1492 N380 1.409 . S
C1517 C605 1.418 . S
C1522 N35 1.409 . S
C1547 C628 1.418 . S
C1552 N426 1.409 . S
C1577 C651 1.418 . S
C1582 N127 1.409 . S
C1607 C674 1.418 . S
C1612 N518 1.409 . S
C1637 C697 1.418 . S
C1642 N173 1.409 . S
C1667 C720 1.418 . S
C1672 N472 1.409 . S
C1697 N554 1.400 . S
C1702 N2 1.400 . S
C1727 N25 1.400 . S
C1732 N209 1.400 . S
C1757 N600 1.400 . S
C1762 N48 1.400 . S
C1787 N71 1.400 . S
C1792 N255 1.400 . S
C1817 N646 1.400 . S
C1822 N94 1.400 . S
C1847 N117 1.400 . S
C1852 N301 1.400 . S
C1877 N692 1.400 . S
C1882 N140 1.400 . S
C1907 N163 1.400 . S
C1912 N347 1.400 . S
C1937 N186 1.400 . S
C1942 N370 1.400 . S
C1967 N232 1.400 . S
C1972 N416 1.400 . S
C1997 N278 1.400 . S
C2002 N462 1.400 . S
C2027 N324 1.400 . S
C2032 N508 1.400 . S
C2057 N393 1.400 . S
C2062 N577 1.400 . S
C2087 N623 1.400 . S
C2092 N439 1.400 . S
C2117 N669 1.400 . S
C2122 N485 1.400 . S
C2147 N531 1.400 . S
C2152 N715 1.400 . S
C2177 C16 2.236 . S
C2182 C108 2.236 . S
C2207 C39 2.236 . S
C2212 C131 2.236 . S
C2237 C154 2.236 . S
C2242 C62 2.236 . S
C2267 C85 2.236 . S
C2272 C177 2.236 . S
C2297 C292 2.236 . S
C2302 C200 2.236 . S
C2327 C315 2.236 . S
C2332 C223 2.236 . S
C2357 C246 2.236 . S
C2362 C338 2.236 . S
C2387 C269 2.236 . S
C2392 C361 2.236 . S
C2417 C476 2.236 . S
C2422 C384 2.236 . S
C2447 C499 2.236 . S
C2452 C407 2.236 . S
C2477 C430 2.236 . S
C2482 C522 2.236 . S
C2507 C545 2.236 . S
C2512 C453 2.236 . S
C2537 C660 2.236 . S
C2542 C568 2.236 . S
C2567 C591 2.236 . S
C2572 C683 2.236 . S
C2597 C706 2.236 . S
C2602 C614 2.236 . S
C2627 C637 2.236 . S
C2632 C729 2.236 . S
