# Generated by pormake.
# Topology wjr, (5)-cn, num edge types: 1
# Building blocks:
#     Node 0, Type 0, BuildingBlock: XOMCOT_clean_sbu_1, # of connection points: 5
#     Node 1, Type 0, BuildingBlock: XOMCOT_clean_sbu_1, # of connection points: 5
#     Node 2, Type 0, BuildingBlock: XOMCOT_clean_sbu_1, # of connection points: 5
#     Node 3, Type 0, BuildingBlock: XOMCOT_clean_sbu_1, # of connection points: 5
#     Node 4, Type 0, BuildingBlock: XOMCOT_clean_sbu_1, # of connection points: 5
#     Node 5, Type 0, BuildingBlock: XOMCOT_clean_sbu_1, # of connection points: 5
#     Node 6, Type 0, BuildingBlock: XOMCOT_clean_sbu_1, # of connection points: 5
#     Node 7, Type 0, BuildingBlock: XOMCOT_clean_sbu_1, # of connection points: 5
#     Node 8, Type 0, BuildingBlock: XOMCOT_clean_sbu_1, # of connection points: 5
#     Node 9, Type 0, BuildingBlock: XOMCOT_clean_sbu_1, # of connection points: 5
#     Node 10, Type 0, BuildingBlock: XOMCOT_clean_sbu_1, # of connection points: 5
#     Node 11, Type 0, BuildingBlock: XOMCOT_clean_sbu_1, # of connection points: 5
#     Node 12, Type 0, BuildingBlock: XOMCOT_clean_sbu_1, # of connection points: 5
#     Node 13, Type 0, BuildingBlock: XOMCOT_clean_sbu_1, # of connection points: 5
#     Node 14, Type 0, BuildingBlock: XOMCOT_clean_sbu_1, # of connection points: 5
#     Node 15, Type 0, BuildingBlock: XOMCOT_clean_sbu_1, # of connection points: 5
#     Node 16, Type 0, BuildingBlock: XOMCOT_clean_sbu_1, # of connection points: 5
#     Node 17, Type 0, BuildingBlock: XOMCOT_clean_sbu_1, # of connection points: 5
#     Node 18, Type 0, BuildingBlock: XOMCOT_clean_sbu_1, # of connection points: 5
#     Node 19, Type 0, BuildingBlock: XOMCOT_clean_sbu_1, # of connection points: 5
#     Node 20, Type 0, BuildingBlock: XOMCOT_clean_sbu_1, # of connection points: 5
#     Node 21, Type 0, BuildingBlock: XOMCOT_clean_sbu_1, # of connection points: 5
#     Node 22, Type 0, BuildingBlock: XOMCOT_clean_sbu_1, # of connection points: 5
#     Node 23, Type 0, BuildingBlock: XOMCOT_clean_sbu_1, # of connection points: 5
#     Edge 24, Type (0, 0), BuildingBlock: AJUNOK_clean_linker_0, # of connection points: 2
#     Edge 25, Type (0, 0), BuildingBlock: AJUNOK_clean_linker_0, # of connection points: 2
#     Edge 26, Type (0, 0), BuildingBlock: AJUNOK_clean_linker_0, # of connection points: 2
#     Edge 27, Type (0, 0), BuildingBlock: AJUNOK_clean_linker_0, # of connection points: 2
#     Edge 28, Type (0, 0), BuildingBlock: AJUNOK_clean_linker_0, # of connection points: 2
#     Edge 29, Type (0, 0), BuildingBlock: AJUNOK_clean_linker_0, # of connection points: 2
#     Edge 30, Type (0, 0), BuildingBlock: AJUNOK_clean_linker_0, # of connection points: 2
#     Edge 31, Type (0, 0), BuildingBlock: AJUNOK_clean_linker_0, # of connection points: 2
#     Edge 32, Type (0, 0), BuildingBlock: AJUNOK_clean_linker_0, # of connection points: 2
#     Edge 33, Type (0, 0), BuildingBlock: AJUNOK_clean_linker_0, # of connection points: 2
#     Edge 34, Type (0, 0), BuildingBlock: AJUNOK_clean_linker_0, # of connection points: 2
#     Edge 35, Type (0, 0), BuildingBlock: AJUNOK_clean_linker_0, # of connection points: 2
#     Edge 36, Type (0, 0), BuildingBlock: AJUNOK_clean_linker_0, # of connection points: 2
#     Edge 37, Type (0, 0), BuildingBlock: AJUNOK_clean_linker_0, # of connection points: 2
#     Edge 38, Type (0, 0), BuildingBlock: AJUNOK_clean_linker_0, # of connection points: 2
#     Edge 39, Type (0, 0), BuildingBlock: AJUNOK_clean_linker_0, # of connection points: 2
#     Edge 40, Type (0, 0), BuildingBlock: AJUNOK_clean_linker_0, # of connection points: 2
#     Edge 41, Type (0, 0), BuildingBlock: AJUNOK_clean_linker_0, # of connection points: 2
#     Edge 42, Type (0, 0), BuildingBlock: AJUNOK_clean_linker_0, # of connection points: 2
#     Edge 43, Type (0, 0), BuildingBlock: AJUNOK_clean_linker_0, # of connection points: 2
#     Edge 44, Type (0, 0), BuildingBlock: AJUNOK_clean_linker_0, # of connection points: 2
#     Edge 45, Type (0, 0), BuildingBlock: AJUNOK_clean_linker_0, # of connection points: 2
#     Edge 46, Type (0, 0), BuildingBlock: AJUNOK_clean_linker_0, # of connection points: 2
#     Edge 47, Type (0, 0), BuildingBlock: AJUNOK_clean_linker_0, # of connection points: 2
#     Edge 48, Type (0, 0), BuildingBlock: AJUNOK_clean_linker_0, # of connection points: 2
#     Edge 49, Type (0, 0), BuildingBlock: AJUNOK_clean_linker_0, # of connection points: 2
#     Edge 50, Type (0, 0), BuildingBlock: AJUNOK_clean_linker_0, # of connection points: 2
#     Edge 51, Type (0, 0), BuildingBlock: AJUNOK_clean_linker_0, # of connection points: 2
#     Edge 52, Type (0, 0), BuildingBlock: AJUNOK_clean_linker_0, # of connection points: 2
#     Edge 53, Type (0, 0), BuildingBlock: AJUNOK_clean_linker_0, # of connection points: 2
#     Edge 54, Type (0, 0), BuildingBlock: AJUNOK_clean_linker_0, # of connection points: 2
#     Edge 55, Type (0, 0), BuildingBlock: AJUNOK_clean_linker_0, # of connection points: 2
#     Edge 56, Type (0, 0), BuildingBlock: AJUNOK_clean_linker_0, # of connection points: 2
#     Edge 57, Type (0, 0), BuildingBlock: AJUNOK_clean_linker_0, # of connection points: 2
#     Edge 58, Type (0, 0), BuildingBlock: AJUNOK_clean_linker_0, # of connection points: 2
#     Edge 59, Type (0, 0), BuildingBlock: AJUNOK_clean_linker_0, # of connection points: 2
#     Edge 60, Type (0, 0), BuildingBlock: AJUNOK_clean_linker_0, # of connection points: 2
#     Edge 61, Type (0, 0), BuildingBlock: AJUNOK_clean_linker_0, # of connection points: 2
#     Edge 62, Type (0, 0), BuildingBlock: AJUNOK_clean_linker_0, # of connection points: 2
#     Edge 63, Type (0, 0), BuildingBlock: AJUNOK_clean_linker_0, # of connection points: 2
#     Edge 64, Type (0, 0), BuildingBlock: AJUNOK_clean_linker_0, # of connection points: 2
#     Edge 65, Type (0, 0), BuildingBlock: AJUNOK_clean_linker_0, # of connection points: 2
#     Edge 66, Type (0, 0), BuildingBlock: AJUNOK_clean_linker_0, # of connection points: 2
#     Edge 67, Type (0, 0), BuildingBlock: AJUNOK_clean_linker_0, # of connection points: 2
#     Edge 68, Type (0, 0), BuildingBlock: AJUNOK_clean_linker_0, # of connection points: 2
#     Edge 69, Type (0, 0), BuildingBlock: AJUNOK_clean_linker_0, # of connection points: 2
#     Edge 70, Type (0, 0), BuildingBlock: AJUNOK_clean_linker_0, # of connection points: 2
#     Edge 71, Type (0, 0), BuildingBlock: AJUNOK_clean_linker_0, # of connection points: 2
#     Edge 72, Type (0, 0), BuildingBlock: AJUNOK_clean_linker_0, # of connection points: 2
#     Edge 73, Type (0, 0), BuildingBlock: AJUNOK_clean_linker_0, # of connection points: 2
#     Edge 74, Type (0, 0), BuildingBlock: AJUNOK_clean_linker_0, # of connection points: 2
#     Edge 75, Type (0, 0), BuildingBlock: AJUNOK_clean_linker_0, # of connection points: 2
#     Edge 76, Type (0, 0), BuildingBlock: AJUNOK_clean_linker_0, # of connection points: 2
#     Edge 77, Type (0, 0), BuildingBlock: AJUNOK_clean_linker_0, # of connection points: 2
#     Edge 78, Type (0, 0), BuildingBlock: AJUNOK_clean_linker_0, # of connection points: 2
#     Edge 79, Type (0, 0), BuildingBlock: AJUNOK_clean_linker_0, # of connection points: 2
#     Edge 80, Type (0, 0), BuildingBlock: AJUNOK_clean_linker_0, # of connection points: 2
#     Edge 81, Type (0, 0), BuildingBlock: AJUNOK_clean_linker_0, # of connection points: 2
#     Edge 82, Type (0, 0), BuildingBlock: AJUNOK_clean_linker_0, # of connection points: 2
#     Edge 83, Type (0, 0), BuildingBlock: AJUNOK_clean_linker_0, # of connection points: 2
# Relax obj value: 0.623
# Max RMSD: 0.258
# Mean RMSD: 0.258
data_MOF--net-wjr--node1-XOMCOT_clean_sbu_1--edge1-AJUNOK_clean_linker_0
_symmetry_space_group_name_H-M    P1
_symmetry_Int_Tables_number       1
_symmetry_cell_setting            triclinic
loop_
_symmetry_equiv_pos_as_xyz
'x, y, z'
_cell_length_a     49.320552
_cell_length_b     49.289588
_cell_length_c     35.908102
_cell_angle_alpha  89.867398
_cell_angle_beta   89.863742
_cell_angle_gamma 119.9864
loop_
_atom_site_label
_atom_site_type_symbol
_atom_site_fract_x
_atom_site_fract_y
_atom_site_fract_z
_atom_type_partial_charge
C0 C 0.46597 0.1841 0.1529 0.0
C1 C 0.46519 0.20582 0.17627 0.0
N2 N 0.48795 0.21436 0.20175 0.0
N3 N 0.48961 0.17926 0.16274 0.0
C4 C 0.50247 0.19799 0.19301 0.0
H5 H 0.44938 0.17152 0.13101 0.0
Co6 Co 0.49586 0.14744 0.14117 0.0
C7 C 0.53422 0.14426 0.20499 0.0
O8 O 0.51456 0.11527 0.21491 0.0
N9 N 0.50172 0.11508 0.11911 0.0
C10 C 0.50695 0.08704 0.07368 0.0
C11 C 0.50397 0.11268 0.0819 0.0
C12 C 0.50203 0.08938 0.13271 0.0
N13 N 0.50584 0.07232 0.10567 0.0
O14 O 0.52809 0.17742 0.10762 0.0
H15 H 0.50215 0.12786 0.0616 0.0
H16 H 0.49806 0.08222 0.16149 0.0
O17 O 0.5284 0.15687 0.17748 0.0
C18 C 0.5214 0.19002 0.08074 0.0
O19 O 0.49388 0.18809 0.08094 0.0
N20 N 0.46327 0.11771 0.17112 0.0
C21 C 0.41526 0.06697 0.20841 0.0
C22 C 0.43684 0.09355 0.22819 0.0
C23 C 0.46043 0.11914 0.20881 0.0
C24 C 0.44 0.09394 0.15134 0.0
C25 C 0.41587 0.06813 0.16945 0.0
H26 H 0.47745 0.13916 0.22433 0.0
H27 H 0.44102 0.09428 0.12124 0.0
H28 H 0.52126 0.1988 0.20933 0.0
H29 H 0.44814 0.21354 0.17582 0.0
H30 H 0.50807 0.07886 0.04607 0.0
H31 H 0.43669 0.0938 0.25836 0.0
H32 H 0.39883 0.04854 0.15318 0.0
C33 C 0.2871 0.45517 0.1802 0.0
C34 C 0.26083 0.45076 0.19888 0.0
N35 N 0.26653 0.4783 0.21337 0.0
N36 N 0.30992 0.48539 0.18286 0.0
C37 C 0.29593 0.49915 0.20148 0.0
H38 H 0.29054 0.43672 0.16914 0.0
Co39 Co 0.35279 0.49608 0.17728 0.0
C40 C 0.36787 0.5503 0.23564 0.0
O41 O 0.34282 0.54333 0.25553 0.0
N42 N 0.39591 0.50581 0.17309 0.0
C43 C 0.44419 0.52025 0.19308 0.0
C44 C 0.4156 0.5166 0.20251 0.0
C45 C 0.41331 0.50195 0.14616 0.0
N46 N 0.443 0.51111 0.15768 0.0
O47 O 0.35868 0.5225 0.13524 0.0
H48 H 0.40936 0.52065 0.22996 0.0
H49 H 0.4043 0.49217 0.119 0.0
O50 O 0.36706 0.53143 0.2108 0.0
C51 C 0.34448 0.50735 0.10617 0.0
O52 O 0.32527 0.47703 0.10905 0.0
N53 N 0.34705 0.46887 0.2157 0.0
C54 C 0.34966 0.42856 0.26697 0.0
C55 C 0.34295 0.45168 0.27873 0.0
C56 C 0.34159 0.47174 0.25232 0.0
C57 C 0.3494 0.44406 0.20352 0.0
C58 C 0.35092 0.42359 0.22876 0.0
H59 H 0.33749 0.49014 0.26149 0.0
H60 H 0.35236 0.44157 0.1741 0.0
H61 H 0.30744 0.52364 0.20784 0.0
H62 H 0.24008 0.42834 0.20418 0.0
H63 H 0.46412 0.52795 0.21137 0.0
H64 H 0.34103 0.45557 0.30805 0.0
H65 H 0.35604 0.40596 0.21851 0.0
C66 C 0.85732 0.30715 0.14431 0.0
C67 C 0.8356 0.28129 0.16407 0.0
N68 N 0.82051 0.29042 0.18781 0.0
N69 N 0.85611 0.33257 0.15559 0.0
C70 C 0.83281 0.32142 0.18142 0.0
H71 H 0.87451 0.30783 0.12498 0.0
Co72 Co 0.88724 0.37411 0.14507 0.0
C73 C 0.88018 0.41077 0.2033 0.0
O74 O 0.91041 0.42372 0.20932 0.0
N75 N 0.91866 0.41725 0.13395 0.0
C76 C 0.93569 0.46725 0.11831 0.0
C77 C 0.90987 0.43833 0.12437 0.0
C78 C 0.95054 0.43445 0.13277 0.0
N79 N 0.96135 0.46484 0.12344 0.0
O80 O 0.86344 0.37504 0.10372 0.0
H81 H 0.88586 0.43312 0.12238 0.0
H82 H 0.96597 0.4256 0.13937 0.0
O83 O 0.86706 0.38994 0.17815 0.0
C84 C 0.87723 0.37354 0.07447 0.0
O85 O 0.90233 0.3709 0.07791 0.0
N86 N 0.91111 0.37082 0.18337 0.0
C87 C 0.95106 0.36768 0.23542 0.0
C88 C 0.92046 0.35981 0.24553 0.0
C89 C 0.90107 0.36224 0.21924 0.0
C90 C 0.93775 0.37167 0.17169 0.0
C91 C 0.95893 0.37189 0.19737 0.0
H92 H 0.87831 0.35783 0.2281 0.0
H93 H 0.94323 0.37363 0.14229 0.0
H94 H 0.82697 0.3361 0.19798 0.0
H95 H 0.83229 0.2579 0.16244 0.0
H96 H 0.93559 0.48846 0.11068 0.0
H97 H 0.91182 0.35303 0.27368 0.0
H98 H 0.98164 0.37676 0.18738 0.0
C99 C 0.544 0.84611 0.14601 0.0
C100 C 0.54571 0.8229 0.1656 0.0
N101 N 0.51972 0.80747 0.18653 0.0
N102 N 0.51748 0.84632 0.15517 0.0
C103 C 0.50255 0.8212 0.17854 0.0
H104 H 0.56139 0.86191 0.12642 0.0
Co105 Co 0.50574 0.87604 0.13672 0.0
C106 C 0.47071 0.85785 0.20888 0.0
O107 O 0.49609 0.86182 0.2257 0.0
N108 N 0.49364 0.9049 0.11785 0.0
C109 C 0.46136 0.92273 0.10342 0.0
C110 C 0.46383 0.89643 0.10918 0.0
C111 C 0.50915 0.93679 0.11543 0.0
N112 N 0.48983 0.94818 0.10756 0.0
O113 O 0.48002 0.84602 0.09972 0.0
H114 H 0.44457 0.87256 0.10932 0.0
H115 H 0.53368 0.95157 0.12188 0.0
O116 O 0.47104 0.86128 0.17338 0.0
C117 C 0.49823 0.85389 0.07146 0.0
O118 O 0.52701 0.87731 0.07482 0.0
N119 N 0.53392 0.90759 0.16878 0.0
C120 C 0.57791 0.96777 0.19081 0.0
C121 C 0.54751 0.95315 0.20544 0.0
C122 C 0.52556 0.92358 0.19299 0.0
C123 C 0.5642 0.92067 0.15681 0.0
C124 C 0.58672 0.95075 0.1677 0.0
H125 H 0.50141 0.91594 0.19905 0.0
H126 H 0.57023 0.90969 0.13499 0.0
H127 H 0.47939 0.81269 0.18984 0.0
H128 H 0.56522 0.81864 0.1657 0.0
H129 H 0.43998 0.92317 0.09812 0.0
H130 H 0.53995 0.96565 0.22361 0.0
H131 H 0.60994 0.96154 0.15553 0.0
C132 C 0.70966 0.56499 0.14905 0.0
C133 C 0.73453 0.56818 0.16955 0.0
N134 N 0.72612 0.54092 0.18704 0.0
N135 N 0.68468 0.53601 0.15387 0.0
C136 C 0.69641 0.52139 0.17535 0.0
H137 H 0.71012 0.58336 0.13227 0.0
Co138 Co 0.64239 0.5225 0.1364 0.0
C139 C 0.62924 0.48592 0.20638 0.0
O140 O 0.64928 0.51093 0.22495 0.0
N141 N 0.60015 0.50872 0.11941 0.0
C142 C 0.55106 0.47608 0.10122 0.0
C143 C 0.58079 0.48034 0.10465 0.0
C144 C 0.58118 0.52131 0.12419 0.0
N145 N 0.55091 0.50173 0.11395 0.0
O146 O 0.64705 0.49678 0.0998 0.0
H147 H 0.58732 0.46289 0.09856 0.0
H148 H 0.589 0.54372 0.1371 0.0
O149 O 0.62494 0.48809 0.17172 0.0
C150 C 0.66384 0.51456 0.07337 0.0
O151 O 0.67393 0.54471 0.07572 0.0
N152 N 0.63915 0.55006 0.16908 0.0
C153 C 0.63605 0.59748 0.2062 0.0
C154 C 0.61785 0.56644 0.21821 0.0
C155 C 0.61924 0.54283 0.19872 0.0
C156 C 0.65528 0.58001 0.15589 0.0
C157 C 0.65483 0.60436 0.17467 0.0
H158 H 0.60269 0.51887 0.2059 0.0
H159 H 0.66705 0.58476 0.12933 0.0
H160 H 0.68335 0.4969 0.18283 0.0
H161 H 0.75669 0.58964 0.17271 0.0
H162 H 0.53086 0.455 0.09121 0.0
H163 H 0.60157 0.56041 0.24125 0.0
H164 H 0.66747 0.62794 0.16345 0.0
C165 C 0.18367 0.72371 0.16123 0.0
C166 C 0.20676 0.74899 0.18012 0.0
N167 N 0.22458 0.73967 0.19803 0.0
N168 N 0.18602 0.69793 0.16797 0.0
C169 C 0.21242 0.70921 0.18893 0.0
H170 H 0.1661 0.72443 0.14416 0.0
Co171 Co 0.15796 0.6555 0.15177 0.0
C172 C 0.17711 0.64438 0.22607 0.0
O173 O 0.17238 0.66624 0.24024 0.0
N174 N 0.13135 0.6139 0.13549 0.0
C175 C 0.11492 0.56344 0.12628 0.0
C176 C 0.14039 0.59227 0.13356 0.0
C177 C 0.10021 0.59763 0.12815 0.0
N178 N 0.0894 0.5666 0.1227 0.0
O179 O 0.18882 0.65894 0.1167 0.0
H180 H 0.16382 0.59683 0.13928 0.0
H181 H 0.08554 0.60817 0.12848 0.0
O182 O 0.17333 0.63871 0.19107 0.0
C183 C 0.18381 0.67119 0.08812 0.0
O184 O 0.16314 0.68049 0.09075 0.0
N185 N 0.12512 0.65194 0.1823 0.0
C186 C 0.06743 0.6394 0.21129 0.0
C187 C 0.08225 0.62343 0.22463 0.0
C188 C 0.1103 0.62905 0.20867 0.0
C189 C 0.11105 0.6679 0.16935 0.0
C190 C 0.08245 0.66237 0.18385 0.0
H191 H 0.11837 0.61302 0.21545 0.0
H192 H 0.12031 0.68272 0.14517 0.0
H193 H 0.22233 0.69528 0.19862 0.0
H194 H 0.20912 0.77198 0.18234 0.0
H195 H 0.11515 0.54164 0.1264 0.0
H196 H 0.07133 0.60531 0.24569 0.0
H197 H 0.07118 0.6744 0.17187 0.0
C198 C 0.84385 0.5683 0.34411 0.0
C199 C 0.82119 0.57123 0.32535 0.0
N200 N 0.80001 0.543 0.31195 0.0
N201 N 0.83773 0.53844 0.34189 0.0
C202 C 0.80979 0.52328 0.32408 0.0
H203 H 0.86548 0.58754 0.3545 0.0
Co204 Co 0.87043 0.52875 0.34682 0.0
C205 C 0.83551 0.48218 0.28003 0.0
O206 O 0.82037 0.4937 0.26195 0.0
N207 N 0.90416 0.51962 0.34977 0.0
C208 C 0.94119 0.51173 0.32525 0.0
C209 C 0.91603 0.51519 0.31791 0.0
C210 C 0.92333 0.5188 0.37662 0.0
N211 N 0.9462 0.51379 0.36222 0.0
O212 O 0.84786 0.49804 0.38518 0.0
H213 H 0.9076 0.51548 0.29026 0.0
H214 H 0.92067 0.52213 0.40586 0.0
O215 O 0.85206 0.49641 0.30849 0.0
C216 C 0.84249 0.50831 0.41529 0.0
O217 O 0.84914 0.53762 0.41651 0.0
N218 N 0.89427 0.56043 0.3127 0.0
C219 C 0.94436 0.60143 0.2694 0.0
C220 C 0.91571 0.58073 0.25265 0.0
C221 C 0.89051 0.56039 0.27511 0.0
C222 C 0.92013 0.58389 0.32937 0.0
C223 C 0.94573 0.60478 0.30809 0.0
H224 H 0.86934 0.54316 0.26205 0.0
H225 H 0.92216 0.58409 0.35938 0.0
H226 H 0.79792 0.49867 0.31752 0.0
H227 H 0.82216 0.59309 0.3184 0.0
H228 H 0.95553 0.50915 0.3043 0.0
H229 H 0.91391 0.57797 0.22267 0.0
H230 H 0.96752 0.6206 0.32187 0.0
C231 C 0.29865 0.84289 0.37077 0.0
C232 C 0.27708 0.81892 0.34889 0.0
N233 N 0.29255 0.81018 0.32536 0.0
N234 N 0.32777 0.84919 0.36152 0.0
C235 C 0.32317 0.82846 0.33393 0.0
H236 H 0.29356 0.85642 0.39034 0.0
Co237 Co 0.36508 0.88488 0.37835 0.0
C238 C 0.40142 0.89136 0.30882 0.0
O239 O 0.40486 0.91894 0.3009 0.0
N240 N 0.40262 0.92025 0.39626 0.0
C241 C 0.43348 0.95989 0.43362 0.0
C242 C 0.40439 0.9336 0.4296 0.0
C243 C 0.43169 0.93812 0.38153 0.0
N244 N 0.45085 0.96288 0.40319 0.0
O245 O 0.37291 0.85963 0.41298 0.0
H246 H 0.38505 0.92558 0.44899 0.0
H247 H 0.43905 0.93335 0.35539 0.0
O248 O 0.38842 0.87739 0.33931 0.0
C249 C 0.35512 0.8501 0.4416 0.0
O250 O 0.33023 0.85324 0.44203 0.0
N251 N 0.35631 0.91096 0.34685 0.0
C252 C 0.35509 0.95544 0.30003 0.0
C253 C 0.34283 0.92444 0.28811 0.0
C254 C 0.34393 0.90259 0.31186 0.0
C255 C 0.36191 0.93902 0.36094 0.0
C256 C 0.36254 0.96203 0.33774 0.0
H257 H 0.33775 0.88012 0.30046 0.0
H258 H 0.36763 0.94458 0.38984 0.0
H259 H 0.34185 0.82835 0.31823 0.0
H260 H 0.25214 0.81032 0.34822 0.0
H261 H 0.4403 0.97636 0.45632 0.0
H262 H 0.33497 0.91775 0.25973 0.0
H263 H 0.3709 0.9853 0.34879 0.0
C264 C 0.46945 0.30468 0.36991 0.0
C265 C 0.46672 0.2789 0.3513 0.0
N266 N 0.49013 0.28887 0.32632 0.0
N267 N 0.49392 0.33127 0.35609 0.0
C268 C 0.50681 0.32026 0.3309 0.0
H269 H 0.45419 0.30374 0.39209 0.0
Co270 Co 0.50694 0.37421 0.3702 0.0
C271 C 0.53501 0.38571 0.29438 0.0
O272 O 0.50821 0.36523 0.27937 0.0
N273 N 0.52113 0.41735 0.38377 0.0
C274 C 0.55568 0.46855 0.3874 0.0
C275 C 0.55188 0.43899 0.38506 0.0
C276 C 0.50665 0.43479 0.38672 0.0
N277 N 0.52729 0.46615 0.38818 0.0
O278 O 0.53677 0.37328 0.40324 0.0
H279 H 0.57063 0.43375 0.38229 0.0
H280 H 0.48155 0.42493 0.3851 0.0
O281 O 0.53689 0.39009 0.32956 0.0
C282 C 0.52207 0.36554 0.43417 0.0
O283 O 0.49359 0.36131 0.43552 0.0
N284 N 0.4753 0.37418 0.3419 0.0
C285 C 0.42626 0.38349 0.32261 0.0
C286 C 0.45544 0.40089 0.30519 0.0
C287 C 0.47994 0.39633 0.31577 0.0
C288 C 0.44653 0.35626 0.35779 0.0
C289 C 0.4214 0.36013 0.34804 0.0
H290 H 0.50314 0.4131 0.30617 0.0
H291 H 0.4437 0.34137 0.38115 0.0
H292 H 0.52844 0.33455 0.31614 0.0
H293 H 0.44821 0.25486 0.35486 0.0
H294 H 0.57779 0.49035 0.38741 0.0
H295 H 0.45989 0.41958 0.28582 0.0
H296 H 0.39926 0.34695 0.36259 0.0
C297 C 0.17831 0.48127 0.39689 0.0
C298 C 0.19847 0.47661 0.37461 0.0
N299 N 0.20099 0.49026 0.34117 0.0
N300 N 0.16788 0.49776 0.37779 0.0
C301 C 0.18229 0.50303 0.344 0.0
H302 H 0.17093 0.47233 0.42484 0.0
Co303 Co 0.13668 0.5069 0.39373 0.0
C304 C 0.13739 0.54912 0.33573 0.0
O305 O 0.10667 0.53378 0.33523 0.0
N306 N 0.10482 0.51705 0.40916 0.0
C307 C 0.08501 0.54718 0.42681 0.0
C308 C 0.11165 0.54491 0.42411 0.0
C309 C 0.0733 0.50279 0.40334 0.0
N310 N 0.06065 0.52067 0.41361 0.0
O311 O 0.1647 0.5347 0.43119 0.0
H312 H 0.13502 0.56367 0.43022 0.0
H313 H 0.05997 0.48058 0.38948 0.0
O314 O 0.15226 0.54074 0.3575 0.0
C315 C 0.15544 0.52057 0.46243 0.0
O316 O 0.13065 0.49242 0.46315 0.0
N317 N 0.10907 0.47651 0.3611 0.0
C318 C 0.06117 0.42563 0.32526 0.0
C319 C 0.0837 0.45114 0.30456 0.0
C320 C 0.10804 0.47636 0.32311 0.0
C321 C 0.08984 0.45009 0.38086 0.0
C322 C 0.06523 0.42444 0.36357 0.0
H323 H 0.1252 0.49584 0.30689 0.0
H324 H 0.0924 0.44988 0.41074 0.0
H325 H 0.17795 0.51466 0.32119 0.0
H326 H 0.20992 0.46356 0.38228 0.0
H327 H 0.08436 0.56797 0.4349 0.0
H328 H 0.0814 0.45243 0.2747 0.0
H329 H 0.0484 0.40482 0.38021 0.0
C330 C 0.71742 0.19203 0.36065 0.0
C331 C 0.74511 0.21342 0.34344 0.0
N332 N 0.73841 0.2198 0.30926 0.0
N333 N 0.6933 0.18505 0.33756 0.0
C334 C 0.70697 0.20256 0.30666 0.0
H335 H 0.71526 0.1812 0.38753 0.0
Co336 Co 0.65127 0.15287 0.34248 0.0
C337 C 0.63802 0.2018 0.30325 0.0
O338 O 0.66271 0.22978 0.30668 0.0
N339 N 0.6083 0.11987 0.34534 0.0
C340 C 0.56006 0.08936 0.32358 0.0
C341 C 0.58821 0.11567 0.31747 0.0
C342 C 0.59137 0.09455 0.36793 0.0
N343 N 0.56177 0.07557 0.35512 0.0
O344 O 0.64739 0.16985 0.38872 0.0
H345 H 0.59399 0.12973 0.29256 0.0
H346 H 0.60094 0.08918 0.39202 0.0
O347 O 0.63769 0.17771 0.3165 0.0
C348 C 0.65025 0.15497 0.41599 0.0
O349 O 0.65608 0.13221 0.40922 0.0
N350 N 0.6555 0.13492 0.29954 0.0
C351 C 0.64915 0.09241 0.2454 0.0
C352 C 0.64878 0.11983 0.23557 0.0
C353 C 0.65135 0.14067 0.26342 0.0
C354 C 0.66017 0.11084 0.30864 0.0
C355 C 0.65685 0.08907 0.28205 0.0
H356 H 0.64805 0.16007 0.25618 0.0
H357 H 0.66371 0.10706 0.33749 0.0
H358 H 0.69439 0.20142 0.2816 0.0
H359 H 0.76837 0.22292 0.35491 0.0
H360 H 0.53999 0.08059 0.30536 0.0
H361 H 0.64406 0.12387 0.20728 0.0
H362 H 0.65736 0.06834 0.29105 0.0
C363 C 0.54675 0.73005 0.35883 0.0
C364 C 0.54434 0.75175 0.33698 0.0
N365 N 0.52062 0.73641 0.31293 0.0
N366 N 0.52438 0.70089 0.34924 0.0
C367 C 0.50857 0.70563 0.32124 0.0
H368 H 0.56503 0.73512 0.37883 0.0
Co369 Co 0.52382 0.66391 0.36672 0.0
C370 C 0.48967 0.62499 0.29998 0.0
O371 O 0.51307 0.62278 0.2859 0.0
N372 N 0.52291 0.62641 0.38506 0.0
C373 C 0.52326 0.59377 0.42819 0.0
C374 C 0.52575 0.6225 0.42178 0.0
C375 C 0.51953 0.59956 0.36959 0.0
N376 N 0.51924 0.57913 0.39539 0.0
O377 O 0.4907 0.6556 0.40142 0.0
H378 H 0.52971 0.63975 0.4428 0.0
H379 H 0.51738 0.59484 0.34014 0.0
O380 O 0.49263 0.63957 0.33032 0.0
C381 C 0.49534 0.67347 0.42918 0.0
O382 O 0.5211 0.70084 0.42997 0.0
N383 N 0.55746 0.67285 0.33474 0.0
C384 C 0.60329 0.67571 0.28791 0.0
C385 C 0.58261 0.68526 0.27512 0.0
C386 C 0.55956 0.68333 0.299 0.0
C387 C 0.58129 0.66977 0.34931 0.0
C388 C 0.60415 0.67026 0.32608 0.0
H389 H 0.54162 0.687 0.28727 0.0
H390 H 0.5813 0.66445 0.37851 0.0
H391 H 0.49029 0.68694 0.30513 0.0
H392 H 0.56037 0.77678 0.33677 0.0
H393 H 0.52517 0.58469 0.45494 0.0
H394 H 0.58169 0.6902 0.24587 0.0
H395 H 0.62003 0.66315 0.33726 0.0
C396 C 0.57418 0.84846 0.84524 0.0
C397 C 0.57732 0.82562 0.82705 0.0
N398 N 0.5489 0.80327 0.81528 0.0
N399 N 0.54392 0.84106 0.84475 0.0
C400 C 0.52895 0.81257 0.82815 0.0
H401 H 0.59323 0.87066 0.85465 0.0
Co402 Co 0.531 0.87129 0.85123 0.0
C403 C 0.48427 0.83392 0.78578 0.0
O404 O 0.49731 0.82137 0.76546 0.0
N405 N 0.51819 0.90205 0.8558 0.0
C406 C 0.50328 0.93503 0.8345 0.0
C407 C 0.5075 0.91048 0.82585 0.0
C408 C 0.52077 0.92279 0.88256 0.0
N409 N 0.51164 0.9432 0.87013 0.0
O410 O 0.50222 0.84673 0.89057 0.0
H411 H 0.50486 0.90093 0.7982 0.0
H412 H 0.53001 0.92343 0.91004 0.0
O413 O 0.49833 0.85052 0.8142 0.0
C414 C 0.51581 0.84554 0.92024 0.0
O415 O 0.54642 0.85835 0.9199 0.0
N416 N 0.56086 0.89718 0.81627 0.0
C417 C 0.60695 0.94475 0.77284 0.0
C418 C 0.58573 0.91575 0.75695 0.0
C419 C 0.5627 0.89213 0.77928 0.0
C420 C 0.58293 0.92411 0.8326 0.0
C421 C 0.6059 0.94836 0.8114 0.0
H422 H 0.54649 0.8702 0.76675 0.0
H423 H 0.58182 0.92724 0.86226 0.0
H424 H 0.50413 0.8 0.82297 0.0
H425 H 0.59928 0.82676 0.82035 0.0
H426 H 0.49645 0.9473 0.815 0.0
H427 H 0.58648 0.9116 0.72746 0.0
H428 H 0.62176 0.97024 0.82495 0.0
C429 C 0.7329 0.55453 0.84652 0.0
C430 C 0.75897 0.56056 0.82608 0.0
N431 N 0.75177 0.5357 0.80429 0.0
N432 N 0.70863 0.52607 0.83776 0.0
C433 C 0.72187 0.51451 0.81375 0.0
H434 H 0.73183 0.57062 0.866 0.0
Co435 Co 0.66589 0.51092 0.85476 0.0
C436 C 0.65297 0.46973 0.78864 0.0
O437 O 0.66982 0.49417 0.76713 0.0
N438 N 0.6239 0.49622 0.872 0.0
C439 C 0.57372 0.46292 0.8854 0.0
C440 C 0.60255 0.46587 0.8784 0.0
C441 C 0.60738 0.51143 0.87641 0.0
N442 N 0.57663 0.49154 0.88392 0.0
O443 O 0.67199 0.48956 0.89554 0.0
H444 H 0.60747 0.44685 0.87727 0.0
H445 H 0.61729 0.53636 0.87217 0.0
O446 O 0.65046 0.47368 0.82344 0.0
C447 C 0.68298 0.50898 0.92228 0.0
O448 O 0.69045 0.53815 0.91583 0.0
N449 N 0.6593 0.53373 0.81782 0.0
C450 C 0.63722 0.56992 0.78519 0.0
C451 C 0.6238 0.53818 0.7764 0.0
C452 C 0.63413 0.5202 0.79447 0.0
C453 C 0.67433 0.56523 0.824 0.0
C454 C 0.66373 0.5839 0.80778 0.0
H455 H 0.61942 0.49514 0.7928 0.0
H456 H 0.692 0.57546 0.84516 0.0
H457 H 0.71007 0.49115 0.80262 0.0
H458 H 0.78137 0.58196 0.82697 0.0
H459 H 0.5521 0.44129 0.89074 0.0
H460 H 0.60334 0.52666 0.75874 0.0
H461 H 0.67432 0.60831 0.8156 0.0
C462 C 0.18412 0.72333 0.86228 0.0
C463 C 0.2082 0.74552 0.84085 0.0
N464 N 0.21823 0.73083 0.81792 0.0
N465 N 0.17895 0.69455 0.85334 0.0
C466 C 0.20044 0.69999 0.82622 0.0
H467 H 0.16974 0.7278 0.88121 0.0
Co468 Co 0.14366 0.65698 0.87086 0.0
C469 C 0.14283 0.61704 0.80736 0.0
O470 O 0.11776 0.61517 0.79224 0.0
N471 N 0.10811 0.61898 0.88934 0.0
C472 C 0.06928 0.58766 0.92804 0.0
C473 C 0.09524 0.61697 0.92322 0.0
C474 C 0.08959 0.59 0.87451 0.0
N475 N 0.0656 0.57068 0.89723 0.0
O476 O 0.16897 0.65315 0.90919 0.0
H477 H 0.10391 0.63592 0.94307 0.0
H478 H 0.09297 0.58281 0.84748 0.0
O479 O 0.154 0.63226 0.83752 0.0
C480 C 0.17399 0.67181 0.93619 0.0
O481 O 0.16205 0.69034 0.93465 0.0
N482 N 0.11833 0.66263 0.83561 0.0
C483 C 0.07528 0.66232 0.7858 0.0
C484 C 0.10624 0.6733 0.77457 0.0
C485 C 0.12752 0.67339 0.80001 0.0
C486 C 0.09017 0.65782 0.84835 0.0
C487 C 0.06784 0.65655 0.82371 0.0
H488 H 0.15011 0.67879 0.78955 0.0
H489 H 0.08405 0.65311 0.87743 0.0
H490 H 0.20136 0.6817 0.81067 0.0
H491 H 0.21608 0.77034 0.84008 0.0
H492 H 0.05459 0.57935 0.95264 0.0
H493 H 0.11308 0.67868 0.74559 0.0
H494 H 0.04434 0.64844 0.83391 0.0
C495 C 0.48506 0.17354 0.86987 0.0
C496 C 0.48153 0.19496 0.84868 0.0
N497 N 0.5005 0.20254 0.81889 0.0
N498 N 0.50565 0.1668 0.85332 0.0
C499 C 0.5157 0.18631 0.82317 0.0
H500 H 0.47299 0.16331 0.89577 0.0
Co501 Co 0.51676 0.13704 0.87283 0.0
C502 C 0.54419 0.1446 0.79665 0.0
O503 O 0.51742 0.1379 0.78122 0.0
N504 N 0.52884 0.1085 0.89263 0.0
C505 C 0.5607 0.08969 0.90427 0.0
C506 C 0.55903 0.11609 0.89622 0.0
C507 C 0.51254 0.07725 0.90007 0.0
N508 N 0.53143 0.06494 0.90642 0.0
O509 O 0.54727 0.16961 0.90406 0.0
H510 H 0.57881 0.13904 0.89042 0.0
H511 H 0.48732 0.06334 0.89815 0.0
O512 O 0.54705 0.14609 0.83216 0.0
C513 C 0.53299 0.16444 0.93525 0.0
O514 O 0.50438 0.14053 0.93797 0.0
N515 N 0.48404 0.10392 0.84635 0.0
C516 C 0.43157 0.04972 0.82166 0.0
C517 C 0.46166 0.05582 0.81217 0.0
C518 C 0.48766 0.08295 0.82509 0.0
C519 C 0.45473 0.09784 0.8561 0.0
C520 C 0.4281 0.0712 0.84332 0.0
H521 H 0.51063 0.08603 0.81993 0.0
H522 H 0.45173 0.11256 0.87575 0.0
H523 H 0.53466 0.18997 0.80509 0.0
H524 H 0.46566 0.20366 0.85424 0.0
H525 H 0.58205 0.08859 0.90477 0.0
H526 H 0.46502 0.03926 0.79585 0.0
H527 H 0.4051 0.06667 0.8518 0.0
C528 C 0.31616 0.47382 0.89127 0.0
C529 C 0.29079 0.4706 0.87133 0.0
N530 N 0.30146 0.4895 0.84122 0.0
N531 N 0.34285 0.49469 0.87395 0.0
C532 C 0.333 0.50404 0.84372 0.0
H533 H 0.31519 0.46067 0.91588 0.0
Co534 Co 0.38369 0.50345 0.88678 0.0
C535 C 0.42394 0.54733 0.82971 0.0
O536 O 0.44092 0.53363 0.83088 0.0
N537 N 0.42609 0.51297 0.89998 0.0
C538 C 0.47668 0.54321 0.91459 0.0
C539 C 0.4479 0.54133 0.9129 0.0
C540 C 0.4427 0.49781 0.89512 0.0
N541 N 0.47373 0.51592 0.9029 0.0
O542 O 0.38421 0.5294 0.92668 0.0
H543 H 0.44366 0.56043 0.91862 0.0
H544 H 0.43265 0.47417 0.88537 0.0
O545 O 0.40095 0.5387 0.85215 0.0
C546 C 0.37813 0.51374 0.95681 0.0
O547 O 0.37385 0.48523 0.95558 0.0
N548 N 0.38047 0.47543 0.84991 0.0
C549 C 0.38116 0.43256 0.80125 0.0
C550 C 0.37764 0.45722 0.78765 0.0
C551 C 0.37749 0.47862 0.81257 0.0
C552 C 0.37699 0.44808 0.86353 0.0
C553 C 0.37852 0.42667 0.83966 0.0
H554 H 0.37604 0.49811 0.80139 0.0
H555 H 0.37606 0.44437 0.89333 0.0
H556 H 0.34849 0.5205 0.82304 0.0
H557 H 0.2664 0.45427 0.87738 0.0
H558 H 0.49845 0.56385 0.92208 0.0
H559 H 0.3773 0.46123 0.75801 0.0
H560 H 0.38013 0.40726 0.85136 0.0
C561 C 0.83307 0.29913 0.86826 0.0
C562 C 0.80794 0.27687 0.84854 0.0
N563 N 0.81322 0.28371 0.81196 0.0
N564 N 0.85423 0.32065 0.84461 0.0
C565 C 0.84129 0.31062 0.81045 0.0
H566 H 0.83561 0.2991 0.89806 0.0
Co567 Co 0.8937 0.35531 0.85749 0.0
C568 C 0.90559 0.39958 0.79436 0.0
O569 O 0.93528 0.40778 0.7912 0.0
N570 N 0.93387 0.39058 0.87112 0.0
C571 C 0.98289 0.41741 0.89248 0.0
C572 C 0.95747 0.38817 0.88686 0.0
C573 C 0.94539 0.42218 0.86958 0.0
N574 N 0.97549 0.43896 0.88155 0.0
O575 O 0.87425 0.36954 0.8923 0.0
H576 H 0.95649 0.36662 0.89486 0.0
H577 H 0.93218 0.43275 0.85933 0.0
O578 O 0.88821 0.37948 0.81871 0.0
C579 C 0.87467 0.35804 0.9239 0.0
O580 O 0.88718 0.34002 0.92648 0.0
N581 N 0.91313 0.33938 0.82644 0.0
C582 C 0.9579 0.32736 0.79728 0.0
C583 C 0.94187 0.33739 0.77386 0.0
C584 C 0.91888 0.34279 0.78903 0.0
C585 C 0.92353 0.32329 0.84722 0.0
C586 C 0.94691 0.31794 0.83358 0.0
H587 H 0.90742 0.35141 0.77102 0.0
H588 H 0.91636 0.31795 0.87604 0.0
H589 H 0.85255 0.32242 0.78479 0.0
H590 H 0.78726 0.25732 0.86057 0.0
H591 H 1.00506 0.42248 0.90444 0.0
H592 H 0.94917 0.34403 0.74522 0.0
H593 H 0.95827 0.30941 0.85219 0.0
C594 C 0.18877 0.45721 0.6729 0.0
C595 C 0.21314 0.45791 0.6926 0.0
N596 N 0.22403 0.48183 0.71687 0.0
N597 N 0.18429 0.48077 0.6843 0.0
C598 C 0.2067 0.4957 0.71062 0.0
H599 H 0.17351 0.43897 0.65388 0.0
Co600 Co 0.14769 0.48374 0.67505 0.0
C601 C 0.16022 0.51818 0.75079 0.0
O602 O 0.15383 0.49544 0.77436 0.0
N603 N 0.11089 0.48772 0.6687 0.0
C604 C 0.0704 0.49164 0.68983 0.0
C605 C 0.09436 0.48675 0.69931 0.0
C606 C 0.09544 0.4926 0.64031 0.0
N607 N 0.07087 0.49553 0.65278 0.0
O608 O 0.17035 0.51829 0.64098 0.0
H609 H 0.0991 0.48227 0.72732 0.0
H610 H 0.10209 0.49413 0.61135 0.0
O611 O 0.15808 0.51321 0.71577 0.0
C612 C 0.17471 0.5082 0.61011 0.0
O613 O 0.16633 0.47843 0.60786 0.0
N614 N 0.12394 0.44699 0.70347 0.0
C615 C 0.0793 0.39096 0.73632 0.0
C616 C 0.10821 0.41001 0.75383 0.0
C617 C 0.1307 0.43769 0.73631 0.0
C618 C 0.09826 0.42626 0.68383 0.0
C619 C 0.0752 0.39881 0.70009 0.0
H620 H 0.15329 0.45131 0.74909 0.0
H621 H 0.09471 0.43184 0.65578 0.0
H622 H 0.20931 0.51531 0.72669 0.0
H623 H 0.22044 0.44055 0.69144 0.0
H624 H 0.05334 0.49168 0.70884 0.0
H625 H 0.11298 0.40409 0.78117 0.0
H626 H 0.05354 0.38519 0.68506 0.0
C627 C 0.72793 0.19227 0.63052 0.0
C628 C 0.7498 0.21624 0.65216 0.0
N629 N 0.73799 0.21306 0.6867 0.0
N630 N 0.70209 0.17401 0.65105 0.0
C631 C 0.70894 0.18758 0.68519 0.0
H632 H 0.73147 0.18783 0.60202 0.0
Co633 Co 0.66745 0.13578 0.63498 0.0
C634 C 0.62107 0.12094 0.69643 0.0
O635 O 0.6148 0.09172 0.69796 0.0
N636 N 0.63242 0.09703 0.61742 0.0
C637 C 0.60469 0.04975 0.59154 0.0
C638 C 0.63416 0.07476 0.59741 0.0
C639 C 0.60104 0.08563 0.62049 0.0
N640 N 0.58354 0.05636 0.60625 0.0
O641 O 0.65628 0.15745 0.59953 0.0
H642 H 0.65542 0.07608 0.5875 0.0
H643 H 0.59102 0.09842 0.63333 0.0
O644 O 0.64095 0.14009 0.67282 0.0
C645 C 0.66891 0.15794 0.56838 0.0
O646 O 0.68693 0.14542 0.56631 0.0
N647 N 0.68019 0.11393 0.66731 0.0
C648 C 0.68087 0.06451 0.70213 0.0
C649 C 0.67738 0.08638 0.72332 0.0
C650 C 0.67789 0.11174 0.70525 0.0
C651 C 0.69167 0.09778 0.64867 0.0
C652 C 0.69093 0.07179 0.66517 0.0
H653 H 0.67301 0.12718 0.72141 0.0
H654 H 0.69826 0.10303 0.61973 0.0
H655 H 0.69329 0.17869 0.70885 0.0
H656 H 0.77328 0.23361 0.64372 0.0
H657 H 0.59969 0.02781 0.57905 0.0
H658 H 0.67062 0.08197 0.7524 0.0
H659 H 0.69503 0.05596 0.64836 0.0
C660 C 0.52988 0.70074 0.63705 0.0
C661 C 0.5374 0.72725 0.65756 0.0
N662 N 0.52601 0.71851 0.69243 0.0
N663 N 0.51378 0.67521 0.65872 0.0
C664 C 0.51185 0.68687 0.69228 0.0
H665 H 0.53674 0.70017 0.60856 0.0
Co666 Co 0.50199 0.63355 0.64616 0.0
C667 C 0.44455 0.61786 0.69516 0.0
O668 O 0.43684 0.63912 0.68706 0.0
N669 N 0.48961 0.59048 0.63491 0.0
C670 C 0.45776 0.53934 0.6254 0.0
C671 C 0.45964 0.56802 0.6291 0.0
C672 C 0.50558 0.57447 0.63395 0.0
N673 N 0.48673 0.54319 0.62815 0.0
O674 O 0.47675 0.63455 0.6062 0.0
H675 H 0.44 0.57204 0.629 0.0
H676 H 0.53057 0.58533 0.63772 0.0
O677 O 0.46784 0.61828 0.67946 0.0
C678 C 0.48594 0.63136 0.57418 0.0
O679 O 0.50994 0.62678 0.5718 0.0
N680 N 0.52815 0.63398 0.68292 0.0
C681 C 0.57029 0.6288 0.72855 0.0
C682 C 0.54299 0.62656 0.74361 0.0
C683 C 0.52166 0.62834 0.72002 0.0
C684 C 0.55664 0.64114 0.66908 0.0
C685 C 0.57792 0.63794 0.69124 0.0
H686 H 0.49989 0.62446 0.73174 0.0
H687 H 0.56165 0.64674 0.63982 0.0
H688 H 0.50173 0.67257 0.71682 0.0
H689 H 0.55086 0.7512 0.64774 0.0
H690 H 0.43627 0.51719 0.62266 0.0
H691 H 0.53716 0.62137 0.77283 0.0
H692 H 0.59891 0.64027 0.6785 0.0
C693 C 0.85098 0.53892 0.62766 0.0
C694 C 0.8305 0.54515 0.64684 0.0
N695 N 0.82137 0.52764 0.67813 0.0
N696 N 0.85558 0.51791 0.64666 0.0
C697 C 0.83562 0.51027 0.67625 0.0
H698 H 0.86269 0.5499 0.60182 0.0
Co699 Co 0.88609 0.50682 0.63023 0.0
C700 C 0.87001 0.47153 0.70231 0.0
O701 O 0.87604 0.49671 0.72126 0.0
N702 N 0.91588 0.49521 0.61305 0.0
C703 C 0.9345 0.4636 0.59867 0.0
C704 C 0.90794 0.46549 0.60461 0.0
C705 C 0.9477 0.51114 0.61085 0.0
N706 N 0.95974 0.49229 0.6029 0.0
O707 O 0.85686 0.48011 0.59317 0.0
H708 H 0.88429 0.44585 0.60532 0.0
H709 H 0.96194 0.53576 0.6174 0.0
O710 O 0.87163 0.47252 0.66669 0.0
C711 C 0.86683 0.49422 0.56201 0.0
O712 O 0.89276 0.52151 0.56142 0.0
N713 N 0.91613 0.53576 0.66318 0.0
C714 C 0.96679 0.58355 0.70023 0.0
C715 C 0.95919 0.55236 0.70514 0.0
C716 C 0.93405 0.52885 0.68595 0.0
C717 C 0.92354 0.56616 0.65802 0.0
C718 C 0.94852 0.59046 0.6768 0.0
H719 H 0.93021 0.50532 0.68774 0.0
H720 H 0.91131 0.57203 0.63762 0.0
H721 H 0.83091 0.49218 0.69619 0.0
H722 H 0.82315 0.56154 0.6383 0.0
H723 H 0.9351 0.44212 0.59496 0.0
H724 H 0.97335 0.54634 0.72254 0.0
H725 H 0.95451 0.61447 0.67148 0.0
C726 C 0.30379 0.84241 0.65289 0.0
C727 C 0.27911 0.81713 0.67056 0.0
N728 N 0.29065 0.80294 0.69228 0.0
N729 N 0.3309 0.84433 0.66342 0.0
C730 C 0.32189 0.81911 0.68609 0.0
H731 H 0.30228 0.86023 0.6369 0.0
Co732 Co 0.37103 0.88084 0.66095 0.0
C733 C 0.39039 0.86122 0.73333 0.0
O734 O 0.38129 0.87498 0.75748 0.0
N735 N 0.41257 0.91762 0.66069 0.0
C736 C 0.45502 0.95637 0.68747 0.0
C737 C 0.42647 0.93061 0.69341 0.0
C738 C 0.43397 0.9368 0.63478 0.0
N739 N 0.46007 0.96079 0.65062 0.0
O740 O 0.38298 0.86184 0.62269 0.0
H741 H 0.41608 0.92276 0.72051 0.0
H742 H 0.4302 0.93377 0.60508 0.0
O743 O 0.38673 0.86333 0.69843 0.0
C744 C 0.37915 0.87183 0.59152 0.0
O745 O 0.36974 0.89249 0.59148 0.0
N746 N 0.35728 0.90067 0.69469 0.0
C747 C 0.35057 0.94053 0.74284 0.0
C748 C 0.33663 0.90853 0.75142 0.0
C749 C 0.33977 0.88866 0.72627 0.0
C750 C 0.36397 0.92958 0.68249 0.0
C751 C 0.36159 0.95031 0.7065 0.0
H752 H 0.33027 0.86441 0.73366 0.0
H753 H 0.37404 0.9377 0.65512 0.0
H754 H 0.33801 0.81408 0.7006 0.0
H755 H 0.25497 0.81173 0.67054 0.0
H756 H 0.47097 0.97085 0.70904 0.0
H757 H 0.32601 0.89957 0.77841 0.0
H758 H 0.37153 0.97452 0.69789 0.0
C759 C 0.46621 0.28912 0.66173 0.0
C760 C 0.46453 0.2638 0.68025 0.0
N761 N 0.49252 0.27277 0.69555 0.0
N762 N 0.49493 0.31464 0.66608 0.0
C763 C 0.51076 0.30304 0.6853 0.0
H764 H 0.44709 0.28871 0.64677 0.0
Co765 Co 0.50711 0.35726 0.65136 0.0
C766 C 0.5479 0.36906 0.71765 0.0
O767 O 0.52383 0.34957 0.73822 0.0
N768 N 0.51911 0.3993 0.63676 0.0
C769 C 0.54961 0.45076 0.62759 0.0
C770 C 0.54889 0.42258 0.63156 0.0
C771 C 0.50202 0.4141 0.63476 0.0
N772 N 0.52013 0.44555 0.62969 0.0
O773 O 0.53133 0.35519 0.6107 0.0
H774 H 0.56909 0.41948 0.63204 0.0
H775 H 0.47698 0.40235 0.63927 0.0
O776 O 0.54382 0.37365 0.68353 0.0
C777 C 0.51608 0.33778 0.58348 0.0
O778 O 0.48567 0.31959 0.58698 0.0
N779 N 0.48215 0.36009 0.68876 0.0
C780 C 0.44276 0.3753 0.72713 0.0
C781 C 0.47468 0.39049 0.73522 0.0
C782 C 0.49414 0.38347 0.71467 0.0
C783 C 0.45077 0.34421 0.68176 0.0
C784 C 0.43046 0.35113 0.70111 0.0
H785 H 0.51895 0.39935 0.71697 0.0
H786 H 0.4418 0.32886 0.65815 0.0
H787 H 0.53517 0.3164 0.69265 0.0
H788 H 0.44379 0.24109 0.68408 0.0
H789 H 0.57036 0.47351 0.62407 0.0
H790 H 0.48496 0.40983 0.75466 0.0
H791 H 0.40599 0.3398 0.69338 0.0
C792 C 0.48111 0.01818 0.1308 0.0
C793 C 0.50438 0.04226 0.10888 0.0
C794 C 0.47695 0.98773 0.13075 0.0
C795 C 0.49635 0.98026 0.10944 0.0
H796 H 0.46528 0.0227 0.14691 0.0
H797 H 0.45819 0.96966 0.14721 0.0
S798 S 0.56254 0.03548 0.04977 0.0
N799 N 0.54822 0.0569 0.06673 0.0
N800 N 0.54084 0.99997 0.06749 0.0
C801 C 0.52061 1.00444 0.08872 0.0
C802 C 0.52446 0.0353 0.08816 0.0
C803 C 0.49309 0.47797 0.12441 0.0
C804 C 0.52321 0.50488 0.12041 0.0
C805 C 0.46634 0.48012 0.13369 0.0
C806 C 0.46831 0.50923 0.13949 0.0
H807 H 0.49016 0.4548 0.12204 0.0
H808 H 0.44428 0.4588 0.13842 0.0
S809 S 0.53977 0.58699 0.12928 0.0
N810 N 0.55189 0.56197 0.11997 0.0
N811 N 0.50204 0.56551 0.13879 0.0
C812 C 0.49772 0.53626 0.13438 0.0
C813 C 0.52495 0.53424 0.12452 0.0
C814 C 0.03251 0.5451 0.13429 0.0
C815 C 0.05706 0.54138 0.11986 0.0
C816 C 1.00142 0.5202 0.13478 0.0
C817 C 0.99344 0.49027 0.12154 0.0
H818 H 0.03733 0.56721 0.14607 0.0
H819 H 0.98347 0.52422 0.14631 0.0
S820 S 0.04728 0.46912 0.07472 0.0
N821 N 0.06993 0.50605 0.08691 0.0
N822 N 1.01181 0.4592 0.08959 0.0
C823 C 0.01732 0.48642 0.10563 0.0
C824 C 0.04896 0.51193 0.10436 0.0
C825 C 0.01403 0.49893 0.37265 0.0
C826 C 0.02972 0.51585 0.40459 0.0
C827 C 0.986 0.49692 0.36074 0.0
C828 C 0.97224 0.5123 0.3795 0.0
H829 H 0.02411 0.48813 0.3556 0.0
H830 H 0.97549 0.4837 0.3357 0.0
S831 S 1.00176 0.55658 0.46769 0.0
N832 N 0.02734 0.54535 0.45755 0.0
N833 N 0.97559 0.54301 0.43397 0.0
C834 C 0.98679 0.52806 0.41265 0.0
C835 C 0.0153 0.52966 0.42526 0.0
C836 C 0.48875 0.9963 0.35459 0.0
C837 C 0.48107 0.98943 0.39256 0.0
C838 C 0.51596 0.02339 0.34305 0.0
C839 C 0.53688 0.04555 0.36869 0.0
H840 H 0.47308 0.98135 0.33317 0.0
H841 H 0.52016 0.02735 0.31341 0.0
S842 S 0.53056 0.03727 0.47152 0.0
N843 N 0.49919 1.00559 0.45614 0.0
N844 N 0.54954 0.05744 0.43408 0.0
C845 C 0.53064 0.0384 0.4068 0.0
C846 C 0.50292 0.01031 0.41877 0.0
C847 C 0.5399 0.51847 0.36332 0.0
C848 C 0.52163 0.49248 0.3868 0.0
C849 C 0.53772 0.546 0.3646 0.0
C850 C 0.51768 0.54908 0.39005 0.0
H851 H 0.55654 0.51773 0.34423 0.0
H852 H 0.55293 0.56559 0.34684 0.0
S853 S 0.46339 0.48746 0.45595 0.0
N854 N 0.48143 0.47122 0.43461 0.0
N855 N 0.47785 0.5229 0.43778 0.0
C856 C 0.49855 0.52291 0.41278 0.0
C857 C 0.50033 0.49467 0.41092 0.0
C858 C 0.49744 0.01083 0.88341 0.0
C859 C 0.52318 0.03217 0.90473 0.0
C860 C 0.49257 0.98092 0.87505 0.0
C861 C 0.51332 0.9708 0.88707 0.0
H862 H 0.48195 0.01786 0.87099 0.0
H863 H 0.47315 0.96609 0.85718 0.0
S864 S 0.58112 0.01535 0.94959 0.0
N865 N 0.56691 0.03903 0.94288 0.0
N866 N 0.55857 0.98339 0.92547 0.0
C867 C 0.53772 0.99084 0.91095 0.0
C868 C 0.54249 0.02134 0.92001 0.0
C869 C 0.52734 0.52568 0.91815 0.0
C870 C 0.49926 0.50925 0.89755 0.0
C871 C 0.55281 0.52054 0.91289 0.0
C872 C 0.55129 0.49837 0.8872 0.0
H873 H 0.52964 0.54251 0.93899 0.0
H874 H 0.57359 0.53343 0.92972 0.0
S875 S 0.48534 0.45116 0.82327 0.0
N876 N 0.47332 0.47152 0.84772 0.0
N877 N 0.52045 0.46114 0.83932 0.0
C878 C 0.52377 0.48203 0.86607 0.0
C879 C 0.49799 0.48757 0.87089 0.0
C880 C 0.02815 0.48517 0.87096 0.0
C881 C 0.99666 0.47261 0.8822 0.0
C882 C 0.0502 0.51727 0.87475 0.0
C883 C 0.04193 0.53819 0.89078 0.0
H884 H 0.03588 0.46986 0.85949 0.0
H885 H 0.07418 0.5256 0.86629 0.0
S886 S 0.96233 0.51766 0.92324 0.0
N887 N 0.95818 0.48403 0.90862 0.0
N888 N 0.9995 0.54415 0.91628 0.0
C889 C 1.01036 0.52609 0.90139 0.0
C890 C 0.98778 0.49343 0.8969 0.0
C891 C 1.00957 0.51838 0.63798 0.0
C892 C 0.99153 0.49863 0.60882 0.0
C893 C 0.03714 0.5193 0.64987 0.0
C894 C 0.04804 0.50058 0.63324 0.0
H895 H 1.00124 0.53156 0.65357 0.0
H896 H 0.04911 0.53344 0.67391 0.0
S897 S 0.01284 0.44946 0.55125 0.0
N898 N 0.98928 0.46353 0.55984 0.0
N899 N 0.04076 0.46487 0.5829 0.0
C900 C 0.0319 0.48296 0.60191 0.0
C901 C 1.00371 0.482 0.58967 0.0
C902 C 0.53516 0.03813 0.6437 0.0
C903 C 0.55035 0.03453 0.61248 0.0
C904 C 0.50489 0.01492 0.6541 0.0
C905 C 0.48825 0.98655 0.6343 0.0
H906 H 0.54721 0.05832 0.66159 0.0
H907 H 0.4949 0.01886 0.67894 0.0
S908 S 0.5146 0.96772 0.54623 0.0
N909 N 0.54398 1.00235 0.55809 0.0
N910 N 0.48778 0.958 0.57908 0.0
C911 C 0.50202 0.98353 0.6014 0.0
C912 C 0.53287 1.00756 0.5903 0.0
C913 C 0.52869 0.4978 0.64901 0.0
C914 C 0.51094 0.46939 0.62961 0.0
C915 C 0.52087 0.52174 0.64825 0.0
C916 C 0.4951 0.5186 0.62769 0.0
H917 H 0.54863 0.50139 0.66534 0.0
H918 H 0.5349 0.54268 0.66441 0.0
S919 S 0.44309 0.44998 0.56885 0.0
N920 N 0.46749 0.44021 0.58781 0.0
N921 N 0.4533 0.48512 0.58507 0.0
C922 C 0.47759 0.49045 0.60751 0.0
C923 C 0.48534 0.46594 0.60882 0.0
C924 C 0.49659 0.28229 0.25903 0.0
C925 C 0.49291 0.27104 0.29589 0.0
C926 C 0.49593 0.26403 0.22853 0.0
C927 C 0.49254 0.23416 0.23362 0.0
H928 H 0.49863 0.30486 0.25362 0.0
H929 H 0.49752 0.27307 0.20061 0.0
S930 S 0.48387 0.19455 0.32435 0.0
N931 N 0.48663 0.22834 0.33564 0.0
N932 N 0.48649 0.19458 0.27844 0.0
C933 C 0.49007 0.22311 0.27033 0.0
C934 C 0.48994 0.24138 0.30139 0.0
C935 C 0.23485 0.45787 0.27121 0.0
C936 C 0.24941 0.4819 0.24431 0.0
C937 C 0.21926 0.46087 0.30237 0.0
C938 C 0.21719 0.488 0.30835 0.0
H939 H 0.23603 0.43661 0.26871 0.0
H940 H 0.2085 0.44152 0.32188 0.0
S941 S 0.25121 0.55805 0.2466 0.0
N942 N 0.26056 0.53392 0.22588 0.0
N943 N 0.23143 0.5397 0.28453 0.0
C944 C 0.23147 0.51227 0.28165 0.0
C945 C 0.2476 0.50925 0.24982 0.0
C946 C 0.77292 0.27398 0.22628 0.0
C947 C 0.80018 0.27261 0.21844 0.0
C948 C 0.75294 0.25678 0.25603 0.0
C949 C 0.75987 0.2382 0.27969 0.0
H950 H 0.76682 0.2881 0.20891 0.0
H951 H 0.73198 0.25817 0.26075 0.0
S952 S 0.82909 0.22765 0.27181 0.0
N953 N 0.83347 0.25178 0.23737 0.0
N954 N 0.79617 0.21967 0.29305 0.0
C955 C 0.78735 0.23707 0.27243 0.0
C956 C 0.80741 0.25419 0.24188 0.0
C957 C 0.50976 0.7934 0.25345 0.0
C958 C 0.51518 0.78635 0.21713 0.0
C959 C 0.51022 0.77611 0.28453 0.0
C960 C 0.51513 0.75047 0.28047 0.0
H961 H 0.50685 0.8135 0.25803 0.0
H962 H 0.5076 0.78333 0.31213 0.0
S963 S 0.52845 0.72112 0.19125 0.0
N964 N 0.52457 0.75133 0.1789 0.0
N965 N 0.52424 0.7182 0.23701 0.0
C966 C 0.51908 0.74228 0.24417 0.0
C967 C 0.51943 0.76037 0.21262 0.0
C968 C 0.77703 0.55525 0.2162 0.0
C969 C 0.7441 0.53665 0.21632 0.0
C970 C 0.79501 0.55634 0.24702 0.0
C971 C 0.78103 0.53866 0.2794 0.0
H972 H 0.78908 0.5699 0.1924 0.0
H973 H 0.82014 0.57173 0.2459 0.0
S974 S 0.69651 0.48369 0.29372 0.0
N975 N 0.69862 0.49825 0.25162 0.0
N976 N 0.73287 0.50014 0.30905 0.0
C977 C 0.74853 0.51849 0.27939 0.0
C978 C 0.72997 0.51748 0.248 0.0
C979 C 0.25321 0.76057 0.29651 0.0
C980 C 0.27911 0.79094 0.29279 0.0
C981 C 0.23671 0.74314 0.26514 0.0
C982 C 0.24498 0.75577 0.22895 0.0
H983 H 0.24517 0.75065 0.324 0.0
H984 H 0.2163 0.7203 0.26936 0.0
S985 S 0.31124 0.83395 0.20402 0.0
N986 N 0.31296 0.8324 0.24987 0.0
N987 N 0.28114 0.80009 0.19115 0.0
C988 C 0.27119 0.78581 0.22478 0.0
C989 C 0.28849 0.80326 0.25664 0.0
C990 C 0.56536 0.78775 0.75743 0.0
C991 C 0.54296 0.7807 0.78587 0.0
C992 C 0.55961 0.76745 0.72727 0.0
C993 C 0.53123 0.73895 0.72402 0.0
H994 H 0.58739 0.80958 0.75786 0.0
H995 H 0.57772 0.77412 0.70637 0.0
S996 S 0.4646 0.70923 0.79054 0.0
N997 N 0.49119 0.74284 0.80869 0.0
N998 N 0.48019 0.7049 0.75185 0.0
C999 C 0.50862 0.73142 0.75228 0.0
C1000 C 0.51447 0.75223 0.78306 0.0
C1001 C 0.78409 0.50332 0.73147 0.0
C1002 C 0.8036 0.52979 0.70937 0.0
C1003 C 0.76742 0.50535 0.76243 0.0
C1004 C 0.76984 0.53402 0.77307 0.0
H1005 H 0.78144 0.48075 0.72458 0.0
H1006 H 0.7527 0.48431 0.77834 0.0
S1007 S 0.8179 0.61045 0.72479 0.0
N1008 N 0.82475 0.58579 0.70125 0.0
N1009 N 0.7929 0.58937 0.75789 0.0
C1010 C 0.78925 0.56062 0.75113 0.0
C1011 C 0.80618 0.55856 0.71975 0.0
C1012 C 0.2433 0.75707 0.71897 0.0
C1013 C 0.27431 0.78188 0.72318 0.0
C1014 C 0.22564 0.73886 0.74972 0.0
C1015 C 0.23816 0.74518 0.78592 0.0
H1016 H 0.23239 0.75228 0.69182 0.0
H1017 H 0.20153 0.7208 0.74553 0.0
S1018 S 0.31784 0.8068 0.81261 0.0
N1019 N 0.31674 0.81082 0.76708 0.0
N1020 N 0.28317 0.77723 0.82432 0.0
C1021 C 0.26916 0.76927 0.79046 0.0
C1022 C 0.28735 0.78742 0.75927 0.0
C1023 C 0.50301 0.25036 0.79263 0.0
C1024 C 0.50172 0.22145 0.78728 0.0
C1025 C 0.50164 0.26781 0.76227 0.0
C1026 C 0.49821 0.25665 0.72552 0.0
H1027 H 0.50472 0.25932 0.82054 0.0
H1028 H 0.50199 0.28958 0.76765 0.0
S1029 S 0.49325 0.18233 0.69639 0.0
N1030 N 0.49714 0.18273 0.74212 0.0
N1031 N 0.49356 0.21509 0.68548 0.0
C1032 C 0.49708 0.22798 0.71975 0.0
C1033 C 0.49916 0.21053 0.7505 0.0
C1034 C 0.27269 0.48613 0.7428 0.0
C1035 C 0.24462 0.48661 0.74805 0.0
C1036 C 0.29178 0.48829 0.77317 0.0
C1037 C 0.28311 0.49018 0.81012 0.0
H1038 H 0.27976 0.48379 0.71498 0.0
H1039 H 0.31291 0.48735 0.76784 0.0
S1040 S 0.21204 0.49235 0.83911 0.0
N1041 N 0.20947 0.48956 0.79329 0.0
N1042 N 0.2449 0.49307 0.85003 0.0
C1043 C 0.25529 0.49096 0.81569 0.0
C1044 C 0.23619 0.48935 0.78479 0.0
C1045 C 0.77449 0.26334 0.71727 0.0
C1046 C 0.75513 0.23056 0.71912 0.0
C1047 C 0.79314 0.28053 0.74766 0.0
C1048 C 0.79352 0.26562 0.78106 0.0
H1049 H 0.77518 0.27574 0.69204 0.0
H1050 H 0.80729 0.30573 0.74498 0.0
S1051 S 0.74945 0.17961 0.79831 0.0
N1052 N 0.73876 0.18366 0.75609 0.0
N1053 N 0.77421 0.21543 0.81264 0.0
C1054 C 0.77455 0.23267 0.78289 0.0
C1055 C 0.7553 0.21531 0.75212 0.0
C1056 C 0.37756 0.0353 0.25939 0.0
C1057 C 0.3955 0.03691 0.2281 0.0
C1058 C 0.36251 1.00799 0.28124 0.0
C1059 C 0.36525 0.98155 0.2728 0.0
H1060 H 0.3759 0.05556 0.26759 0.0
H1061 H 0.34961 1.00801 0.30569 0.0
S1062 S 0.41002 0.97435 0.19387 0.0
N1063 N 0.41474 0.00975 0.18938 0.0
N1064 N 0.38749 0.95903 0.23079 0.0
C1065 C 0.38239 0.9827 0.24084 0.0
C1066 C 0.3973 0.01025 0.21846 0.0
C1067 C 0.35395 0.38296 0.28886 0.0
C1068 C 0.36264 0.41472 0.29272 0.0
C1069 C 0.37371 0.37208 0.30117 0.0
C1070 C 0.40252 0.39273 0.3176 0.0
H1071 H 0.3332 0.36721 0.27328 0.0
H1072 H 0.3676 0.34814 0.29524 0.0
S1073 S 0.4331 0.47613 0.34106 0.0
N1074 N 0.39988 0.46539 0.31914 0.0
N1075 N 0.43649 0.4445 0.34303 0.0
C1076 C 0.40973 0.42345 0.32554 0.0
C1077 C 0.38977 0.43456 0.31304 0.0
C1078 C 0.029 0.38626 0.2771 0.0
C1079 C 0.03084 0.40417 0.30822 0.0
C1080 C 1.00164 0.37152 0.25579 0.0
C1081 C 0.97578 0.37546 0.26395 0.0
H1082 H 0.04924 0.38476 0.26833 0.0
H1083 H 1.00153 0.35844 0.23157 0.0
S1084 S 0.96881 0.41796 0.34574 0.0
N1085 N 1.00402 0.42216 0.34925 0.0
N1086 N 0.95355 0.39696 0.30792 0.0
C1087 C 0.97691 0.39174 0.29677 0.0
C1088 C 1.00432 0.40565 0.3191 0.0
C1089 C 0.6295 0.01299 0.20953 0.0
C1090 C 0.59889 1.00162 0.19658 0.0
C1091 C 0.6475 0.04405 0.22139 0.0
C1092 C 0.63524 0.06448 0.22107 0.0
H1093 H 0.63881 0.99734 0.21276 0.0
H1094 H 0.67024 0.05143 0.23347 0.0
S1095 S 0.5585 0.04716 0.18202 0.0
N1096 N 0.55933 0.01432 0.17712 0.0
N1097 N 0.59205 0.07199 0.20171 0.0
C1098 C 0.60582 0.05408 0.20453 0.0
C1099 C 0.58784 0.02272 0.19185 0.0
C1100 C 0.59456 0.63963 0.23614 0.0
C1101 C 0.61577 0.66199 0.26135 0.0
C1102 C 0.60206 0.6197 0.21723 0.0
C1103 C 0.63101 0.62159 0.22268 0.0
H1104 H 0.57106 0.63582 0.23298 0.0
H1105 H 0.58459 0.60173 0.19949 0.0
S1106 S 0.69619 0.67833 0.28142 0.0
N1107 N 0.66805 0.68681 0.2879 0.0
N1108 N 0.68222 0.64893 0.25162 0.0
C1109 C 0.65334 0.64507 0.24554 0.0
C1110 C 0.64565 0.6654 0.26513 0.0
C1111 C 0.99706 0.64344 0.2474 0.0
C1112 C 0.97385 0.61169 0.24909 0.0
C1113 C 0.02719 0.65242 0.23411 0.0
C1114 C 0.0351 0.62983 0.22313 0.0
H1115 H 0.99211 0.66125 0.25738 0.0
H1116 H 0.04471 0.67707 0.23374 0.0
S1117 S 0.98233 0.54356 0.22325 0.0
N1118 N 0.96052 0.55773 0.23904 0.0
N1119 N 0.01684 0.57437 0.21407 0.0
C1120 C 1.01175 0.59803 0.22416 0.0
C1121 C 0.98119 0.58903 0.23718 0.0
C1122 C 0.65888 0.99322 0.76183 0.0
C1123 C 0.62815 0.97234 0.74965 0.0
C1124 C 0.67704 0.02267 0.745 0.0
C1125 C 0.66529 0.03176 0.71493 0.0
H1126 H 0.66838 0.98736 0.78569 0.0
H1127 H 0.69979 0.03885 0.75646 0.0
S1128 S 0.58702 0.98609 0.67172 0.0
N1129 N 0.58722 0.96317 0.70519 0.0
N1130 N 0.6219 0.0179 0.67282 0.0
C1131 C 0.63544 0.01061 0.70115 0.0
C1132 C 0.61674 0.98095 0.71859 0.0
C1133 C 0.63681 0.61655 0.75858 0.0
C1134 C 0.6207 0.58683 0.7753 0.0
C1135 C 0.62057 0.63124 0.74575 0.0
C1136 C 0.58777 0.61651 0.74909 0.0
H1137 H 0.66186 0.62792 0.75405 0.0
H1138 H 0.63361 0.65369 0.7318 0.0
S1139 S 0.53552 0.54004 0.7951 0.0
N1140 N 0.571 0.54499 0.79919 0.0
N1141 N 0.54011 0.57117 0.77242 0.0
C1142 C 0.57172 0.58747 0.76771 0.0
C1143 C 0.5883 0.57296 0.78144 0.0
C1144 C 0.05042 0.62864 0.73114 0.0
C1145 C 0.04992 0.64915 0.75799 0.0
C1146 C 0.0237 0.60874 0.71104 0.0
C1147 C 0.99554 0.60862 0.717 0.0
H1148 H 0.07084 0.62607 0.72759 0.0
H1149 H 0.02465 0.59219 0.692 0.0
S1150 S 0.98312 0.66123 0.77931 0.0
N1151 N 0.02008 0.67108 0.78583 0.0
N1152 N 0.96931 0.63296 0.74801 0.0
C1153 C 0.99524 0.63073 0.74127 0.0
C1154 C 0.02259 0.65115 0.76186 0.0
C1155 C 0.38312 0.02053 0.78403 0.0
C1156 C 0.40414 0.02019 0.81001 0.0
C1157 C 0.36192 0.99304 0.76551 0.0
C1158 C 0.3614 0.96461 0.77236 0.0
H1159 H 0.38484 0.0425 0.77579 0.0
H1160 H 0.348 0.99464 0.74322 0.0
S1161 S 0.40717 0.951 0.84453 0.0
N1162 N 0.41942 0.98882 0.84692 0.0
N1163 N 0.3802 0.93717 0.81178 0.0
C1164 C 0.3797 0.96353 0.80176 0.0
C1165 C 0.40114 0.99145 0.82053 0.0
C1166 C 0.38182 0.38448 0.78038 0.0
C1167 C 0.3931 0.41685 0.77679 0.0
C1168 C 0.39707 0.37051 0.76268 0.0
C1169 C 0.42398 0.38863 0.74112 0.0
H1170 H 0.36187 0.37016 0.79813 0.0
H1171 H 0.3887 0.34584 0.76728 0.0
S1172 S 0.46134 0.47348 0.71998 0.0
N1173 N 0.43208 0.46618 0.74833 0.0
N1174 N 0.45951 0.43946 0.71374 0.0
C1175 C 0.43424 0.42046 0.73526 0.0
C1176 C 0.41908 0.43473 0.75346 0.0
C1177 C 0.0452 0.37466 0.79255 0.0
C1178 C 0.05162 0.36684 0.75724 0.0
C1179 C 0.0149 0.35897 0.80736 0.0
C1180 C 0.98999 0.33512 0.78727 0.0
H1181 H 0.06277 0.3951 0.80717 0.0
H1182 H 1.01039 0.36775 0.83292 0.0
S1183 S 0.996 0.29995 0.699 0.0
N1184 N 0.032 0.32869 0.70693 0.0
N1185 N 0.97449 0.30043 0.73406 0.0
C1186 C 0.99668 0.32454 0.75426 0.0
C1187 C 0.02773 0.34002 0.73953 0.0
C1188 C 0.55615 0.16123 0.26825 0.0
C1189 C 0.56066 0.16393 0.2295 0.0
C1190 C 0.58136 0.17728 0.29248 0.0
C1191 C 0.61194 0.19599 0.27874 0.0
H1192 H 0.53316 0.14577 0.27992 0.0
H1193 H 0.5773 0.17294 0.32214 0.0
S1194 S 0.63558 0.21289 0.17967 0.0
N1195 N 0.59729 0.18907 0.17839 0.0
N1196 N 0.64511 0.21828 0.22422 0.0
C1197 C 0.61646 0.20066 0.24016 0.0
C1198 C 0.59064 0.18471 0.2154 0.0
C1199 C 0.43181 0.59871 0.30355 0.0
C1200 C 0.45897 0.60932 0.28174 0.0
C1201 C 0.40216 0.58137 0.2878 0.0
C1202 C 0.39866 0.57423 0.24962 0.0
H1203 H 0.43342 0.60258 0.33336 0.0
H1204 H 0.38199 0.5721 0.30614 0.0
S1205 S 0.46231 0.60234 0.17926 0.0
N1206 N 0.48062 0.61526 0.21935 0.0
N1207 N 0.42455 0.58334 0.18939 0.0
C1208 C 0.42556 0.58698 0.22696 0.0
C1209 C 0.45584 0.60426 0.24314 0.0
C1210 C 0.85858 0.44731 0.28085 0.0
C1211 C 0.83995 0.45745 0.26263 0.0
C1212 C 0.87014 0.43053 0.26185 0.0
C1213 C 0.86244 0.42215 0.22446 0.0
H1214 H 0.86589 0.45393 0.30938 0.0
H1215 H 0.88623 0.42513 0.27612 0.0
S1216 S 0.80902 0.43664 0.16633 0.0
N1217 N 0.81052 0.45363 0.20646 0.0
N1218 N 0.8315 0.42088 0.17132 0.0
C1219 C 0.84102 0.42886 0.20711 0.0
C1220 C 0.82979 0.4467 0.22615 0.0
C1221 C 0.42941 0.86199 0.29554 0.0
C1222 C 0.41376 0.8773 0.2825 0.0
C1223 C 0.44569 0.8532 0.27082 0.0
C1224 C 0.44646 0.85901 0.23223 0.0
H1225 H 0.43076 0.85857 0.32515 0.0
H1226 H 0.45921 0.84336 0.28232 0.0
S1227 S 0.40329 0.89256 0.18398 0.0
N1228 N 0.39596 0.89383 0.22861 0.0
N1229 N 0.42584 0.87668 0.18204 0.0
C1230 C 0.42815 0.87144 0.21871 0.0
C1231 C 0.41206 0.88087 0.24393 0.0
C1232 C 0.6109 0.45653 0.26592 0.0
C1233 C 0.60815 0.45701 0.22703 0.0
C1234 C 0.58813 0.43209 0.28727 0.0
C1235 C 0.56156 0.40727 0.2706 0.0
H1236 H 0.62995 0.47593 0.28037 0.0
H1237 H 0.59069 0.43367 0.31725 0.0
S1238 S 0.54635 0.3944 0.16914 0.0
N1239 N 0.57923 0.42826 0.17211 0.0
N1240 N 0.53608 0.38224 0.21246 0.0
C1241 C 0.55987 0.40599 0.23149 0.0
C1242 C 0.58325 0.43091 0.20963 0.0
C1243 C 0.15704 0.58856 0.24219 0.0
C1244 C 0.17565 0.62033 0.25173 0.0
C1245 C 0.14602 0.56526 0.26962 0.0
C1246 C 0.15419 0.57291 0.3071 0.0
H1247 H 0.14844 0.58182 0.21407 0.0
H1248 H 0.12977 0.54129 0.26174 0.0
S1249 S 0.20708 0.65165 0.34537 0.0
N1250 N 0.20502 0.65774 0.30045 0.0
N1251 N 0.18519 0.61343 0.35185 0.0
C1252 C 0.17543 0.60401 0.31645 0.0
C1253 C 0.18605 0.6279 0.28869 0.0
C1254 C 0.43946 0.84252 0.79731 0.0
C1255 C 0.45608 0.83414 0.77245 0.0
C1256 C 0.41674 0.84926 0.78459 0.0
C1257 C 0.40979 0.84797 0.74644 0.0
H1258 H 0.44504 0.84534 0.82673 0.0
H1259 H 0.40572 0.85701 0.80476 0.0
S1260 S 0.44294 0.82204 0.67063 0.0
N1261 N 0.4613 0.82103 0.70852 0.0
N1262 N 0.41838 0.83357 0.68447 0.0
C1263 C 0.42429 0.83698 0.72164 0.0
C1264 C 0.44748 0.83005 0.73469 0.0
C1265 C 0.57937 0.39254 0.77467 0.0
C1266 C 0.57812 0.38981 0.73567 0.0
C1267 C 0.6053 0.41696 0.79217 0.0
C1268 C 0.63076 0.43959 0.77126 0.0
H1269 H 0.55939 0.37707 0.79178 0.0
H1270 H 0.60423 0.41924 0.82199 0.0
S1271 S 0.64259 0.43741 0.66941 0.0
N1272 N 0.60721 0.40753 0.67743 0.0
N1273 N 0.65598 0.45381 0.71033 0.0
C1274 C 0.63142 0.43483 0.73272 0.0
C1275 C 0.60501 0.40985 0.7149 0.0
C1276 C 0.15432 0.56491 0.74079 0.0
C1277 C 0.16265 0.54752 0.76454 0.0
C1278 C 0.14989 0.58885 0.75467 0.0
C1279 C 0.15416 0.59667 0.7926 0.0
H1280 H 0.14918 0.55876 0.71169 0.0
H1281 H 0.1417 0.6004 0.73581 0.0
S1282 S 0.18074 0.56168 0.86525 0.0
N1283 N 0.17852 0.54217 0.82697 0.0
N1284 N 0.17051 0.58763 0.85302 0.0
C1285 C 0.16507 0.58136 0.81608 0.0
C1286 C 0.1692 0.55662 0.80203 0.0
C1287 C 0.5824 0.12671 0.78463 0.0
C1288 C 0.56835 0.14404 0.77306 0.0
C1289 C 0.60027 0.12013 0.75978 0.0
C1290 C 0.60535 0.13136 0.72291 0.0
H1291 H 0.57797 0.11653 0.81231 0.0
H1292 H 0.60959 0.10553 0.76922 0.0
S1293 S 0.57601 0.1802 0.68016 0.0
N1294 N 0.56203 0.17375 0.72312 0.0
N1295 N 0.5967 0.16233 0.67676 0.0
C1296 C 0.59304 0.1503 0.7117 0.0
C1297 C 0.5742 0.15637 0.73672 0.0
C1298 C 0.43301 0.55499 0.76214 0.0
C1299 C 0.42504 0.56417 0.79542 0.0
C1300 C 0.43584 0.57074 0.729 0.0
C1301 C 0.43166 0.59693 0.72776 0.0
H1302 H 0.43758 0.53564 0.76162 0.0
H1303 H 0.44329 0.56337 0.70454 0.0
S1304 S 0.40535 0.62706 0.80619 0.0
N1305 N 0.40848 0.59798 0.82457 0.0
N1306 N 0.41526 0.62897 0.76183 0.0
C1307 C 0.42126 0.60495 0.7602 0.0
C1308 C 0.41772 0.58829 0.7942 0.0
C1309 C 0.89327 0.43731 0.7093 0.0
C1310 C 0.87246 0.44685 0.72247 0.0
C1311 C 0.90329 0.42123 0.73252 0.0
C1312 C 0.89221 0.41346 0.76929 0.0
H1313 H 0.90372 0.44434 0.68189 0.0
H1314 H 0.92049 0.4156 0.72196 0.0
S1315 S 0.83469 0.42996 0.81547 0.0
N1316 N 0.83941 0.44549 0.77348 0.0
N1317 N 0.85726 0.41405 0.81678 0.0
C1318 C 0.86964 0.42079 0.78185 0.0
C1319 C 0.86 0.43781 0.75849 0.0
C1320 C 0.52862 0.20885 0.015 0.0
C1321 C 0.53815 0.19638 0.04423 0.0
C1322 C 0.5322 0.20296 0.97763 0.0
C1323 C 0.5457 0.18469 0.96813 0.0
H1324 H 0.51508 0.22015 0.02094 0.0
H1325 H 0.52082 0.20939 0.95641 0.0
S1326 S 0.58291 0.15471 0.03307 0.0
N1327 N 0.56881 0.17171 0.06039 0.0
N1328 N 0.57426 0.15963 0.99007 0.0
C1329 C 0.55966 0.17635 0.99656 0.0
C1330 C 0.55641 0.18267 0.03473 0.0
C1331 C 0.33138 0.5095 0.04015 0.0
C1332 C 0.35413 0.52067 0.06836 0.0
C1333 C 0.33986 0.51136 1.00258 0.0
C1334 C 0.37136 0.52432 0.99201 0.0
H1335 H 0.30673 0.49667 0.04739 0.0
H1336 H 0.32152 0.49977 0.98208 0.0
S1337 S 0.44008 0.56052 0.05446 0.0
N1338 N 0.4097 0.54868 0.08272 0.0
N1339 N 0.42554 0.55131 0.01195 0.0
C1340 C 0.39447 0.53827 0.01946 0.0
C1341 C 0.38587 0.53679 0.05778 0.0
C1342 C 0.88664 0.39949 0.01334 0.0
C1343 C 0.86644 0.37456 0.03679 0.0
C1344 C 0.88579 0.39569 0.97457 0.0
C1345 C 0.86507 0.36667 0.95849 0.0
H1346 H 0.90538 0.42083 0.02522 0.0
H1347 H 0.90398 0.41414 0.95777 0.0
S1348 S 0.80428 0.29604 1.00746 0.0
N1349 N 0.82239 0.32169 0.041 0.0
N1350 N 0.82116 0.31422 0.96816 0.0
C1351 C 0.84249 0.34289 0.98131 0.0
C1352 C 0.84308 0.34693 0.02064 0.0
C1353 C 0.47718 0.85137 0.00806 0.0
C1354 C 0.48898 0.83889 0.03462 0.0
C1355 C 0.48222 0.8498 0.96963 0.0
C1356 C 0.49963 0.83611 0.9568 0.0
H1357 H 0.46712 0.8654 0.01713 0.0
H1358 H 0.47559 0.86243 0.9504 0.0
S1359 S 0.53095 0.7958 0.01479 0.0
N1360 N 0.51496 0.80887 0.04509 0.0
N1361 N 0.52469 0.80612 0.9733 0.0
C1362 C 0.50851 0.82073 0.98288 0.0
C1363 C 0.50312 0.82207 0.02173 0.0
C1364 C 0.70066 0.52096 0.02305 0.0
C1365 C 0.67074 0.50289 0.03892 0.0
C1366 C 0.7057 0.5192 0.98502 0.0
C1367 C 0.68101 0.49932 0.96152 0.0
H1368 H 0.7196 0.53882 0.0394 0.0
H1369 H 0.72826 0.53595 0.97327 0.0
S1370 S 0.59963 0.44312 0.99067 0.0
N1371 N 0.61719 0.46122 0.02952 0.0
N1372 N 0.62672 0.4578 0.95772 0.0
C1373 C 0.65198 0.47825 0.97785 0.0
C1374 C 0.6468 0.48009 0.01678 0.0
C1375 C 0.17535 0.64174 0.99154 0.0
C1376 C 0.18819 0.67017 0.9717 0.0
C1377 C 0.17861 0.64159 0.03052 0.0
C1378 C 0.19487 0.66984 0.05045 0.0
H1379 H 0.15969 0.61991 0.97772 0.0
H1380 H 0.16508 0.61967 0.04543 0.0
S1381 S 0.23818 0.74965 0.0102 0.0
N1382 N 0.2221 0.72659 0.97392 0.0
N1383 N 0.228 0.72621 0.04685 0.0
C1384 C 0.21109 0.69785 0.03022 0.0
C1385 C 0.20776 0.69804 0.99082 0.0
C1386 C 0.85707 0.47914 0.46017 0.0
C1387 C 0.83783 0.49174 0.45124 0.0
C1388 C 0.8631 0.47537 0.49752 0.0
C1389 C 0.84939 0.48321 0.52692 0.0
H1390 H 0.87044 0.47574 0.43857 0.0
H1391 H 0.88105 0.46942 0.50339 0.0
S1392 S 0.7925 0.51095 0.51802 0.0
N1393 N 0.80156 0.50755 0.4746 0.0
N1394 N 0.81235 0.49962 0.54459 0.0
C1395 C 0.82709 0.4919 0.51821 0.0
C1396 C 0.82139 0.49633 0.48033 0.0
C1397 C 0.39607 0.87017 0.49063 0.0
C1398 C 0.36672 0.84635 0.47812 0.0
C1399 C 0.4021 0.87601 0.5289 0.0
C1400 C 0.37941 0.85754 0.55569 0.0
H1401 H 0.41293 0.88677 0.47098 0.0
H1402 H 0.42328 0.89695 0.5374 0.0
S1403 S 0.30169 0.78855 0.53734 0.0
N1404 N 0.31675 0.80149 0.49552 0.0
N1405 N 0.32865 0.81182 0.5673 0.0
C1406 C 0.35183 0.83123 0.54356 0.0
C1407 C 0.34538 0.82571 0.50472 0.0
C1408 C 0.54908 0.3826 0.49467 0.0
C1409 C 0.53416 0.35875 0.46812 0.0
C1410 C 0.54704 0.37543 0.53288 0.0
C1411 C 0.52945 0.34421 0.54544 0.0
H1412 H 0.55924 0.40691 0.48631 0.0
H1413 H 0.55602 0.39453 0.55263 0.0
S1414 S 0.49133 0.27338 0.48631 0.0
N1415 N 0.50575 0.30289 0.45643 0.0
N1416 N 0.50142 0.28932 0.52806 0.0
C1417 C 0.51776 0.32021 0.51882 0.0
C1418 C 0.52022 0.32752 0.4801 0.0
C1419 C 0.19301 0.5227 0.50882 0.0
C1420 C 0.17235 0.53293 0.49765 0.0
C1421 C 0.19759 0.51921 0.54668 0.0
C1422 C 0.18175 0.52595 0.57464 0.0
H1423 H 0.20265 0.51369 0.48833 0.0
H1424 H 0.21082 0.50783 0.55396 0.0
S1425 S 0.13055 0.56 0.55961 0.0
N1426 N 0.13975 0.55433 0.51718 0.0
N1427 N 0.14944 0.54909 0.58845 0.0
C1428 C 0.16471 0.54052 0.56384 0.0
C1429 C 0.15959 0.54352 0.52519 0.0
C1430 C 0.62625 0.14186 0.47873 0.0
C1431 C 0.64977 0.16372 0.45496 0.0
C1432 C 0.63071 0.14299 0.51741 0.0
C1433 C 0.65911 0.16563 0.53322 0.0
H1434 H 0.60551 0.12214 0.4671 0.0
H1435 H 0.61338 0.124 0.53442 0.0
S1436 S 0.72645 0.22991 0.48332 0.0
N1437 N 0.70082 0.21051 0.4502 0.0
N1438 N 0.70973 0.21198 0.5228 0.0
C1439 C 0.6816 0.18912 0.51007 0.0
C1440 C 0.6768 0.18833 0.47083 0.0
C1441 C 0.46746 0.61757 0.50941 0.0
C1442 C 0.4745 0.63808 0.53959 0.0
C1443 C 0.46915 0.62805 0.47271 0.0
C1444 C 0.47948 0.6598 0.46514 0.0
H1445 H 0.46346 0.59411 0.51401 0.0
H1446 H 0.46611 0.61208 0.45034 0.0
S1447 S 0.49319 0.72066 0.53496 0.0
N1448 N 0.48553 0.68947 0.56004 0.0
N1449 N 0.49034 0.7098 0.49098 0.0
C1450 C 0.48241 0.67931 0.49525 0.0
C1451 C 0.47969 0.66831 0.53263 0.0
loop_
_geom_bond_atom_site_label_1
_geom_bond_atom_site_label_2
_geom_bond_distance
_geom_bond_site_symmetry_2
_ccdc_geom_bond_type
C0 C1 1.351 . S
C0 N3 1.368 . S
C0 H5 0.931 . S
C1 C0 1.351 . S
C1 N2 1.373 . S
C1 H29 0.930 . S
N2 C1 1.373 . S
N2 C4 1.340 . S
N3 C0 1.368 . S
N3 C4 1.321 . S
N3 Co6 2.135 . S
C4 N2 1.340 . S
C4 N3 1.321 . S
C4 H28 0.930 . S
H5 C0 0.931 . S
Co6 N3 2.135 . S
Co6 N9 2.121 . S
Co6 O14 2.055 . S
Co6 O17 2.039 . S
Co6 N20 2.140 . S
C7 O8 1.227 . S
C7 O17 1.265 . S
O8 C7 1.227 . S
N9 Co6 2.121 . S
N9 C11 1.375 . S
N9 C12 1.313 . S
C10 C11 1.338 . S
C10 N13 1.377 . S
C10 H30 0.930 . S
C11 N9 1.375 . S
C11 C10 1.338 . S
C11 H15 0.931 . S
C12 N9 1.313 . S
C12 N13 1.344 . S
C12 H16 0.930 . S
N13 C10 1.377 . S
N13 C12 1.344 . S
O14 Co6 2.055 . S
O14 C18 1.253 . S
H15 C11 0.931 . S
H16 C12 0.930 . S
O17 Co6 2.039 . S
O17 C7 1.265 . S
C18 O14 1.253 . S
C18 O19 1.227 . S
O19 C18 1.227 . S
N20 Co6 2.140 . S
N20 C23 1.346 . S
N20 C24 1.345 . S
C21 C22 1.387 . S
C21 C25 1.391 . S
C22 C21 1.387 . S
C22 C23 1.369 . S
C22 H31 0.929 . S
C23 N20 1.346 . S
C23 C22 1.369 . S
C23 H26 0.928 . S
C24 N20 1.345 . S
C24 C25 1.371 . S
C24 H27 0.931 . S
C25 C21 1.391 . S
C25 C24 1.371 . S
C25 H32 0.930 . S
H26 C23 0.928 . S
H27 C24 0.931 . S
H28 C4 0.930 . S
H29 C1 0.930 . S
H30 C10 0.930 . S
H31 C22 0.929 . S
H32 C25 0.930 . S
C33 C34 1.351 . S
C33 N36 1.368 . S
C33 H38 0.931 . S
C34 C33 1.351 . S
C34 N35 1.373 . S
C34 H62 0.930 . S
N35 C34 1.373 . S
N35 C37 1.340 . S
N36 C33 1.368 . S
N36 C37 1.321 . S
N36 Co39 2.135 . S
C37 N35 1.340 . S
C37 N36 1.321 . S
C37 H61 0.930 . S
H38 C33 0.931 . S
Co39 N36 2.135 . S
Co39 N42 2.121 . S
Co39 O47 2.055 . S
Co39 O50 2.039 . S
Co39 N53 2.140 . S
C40 O41 1.227 . S
C40 O50 1.265 . S
O41 C40 1.227 . S
N42 Co39 2.121 . S
N42 C44 1.375 . S
N42 C45 1.313 . S
C43 C44 1.338 . S
C43 N46 1.377 . S
C43 H63 0.930 . S
C44 N42 1.375 . S
C44 C43 1.338 . S
C44 H48 0.931 . S
C45 N42 1.313 . S
C45 N46 1.344 . S
C45 H49 0.930 . S
N46 C43 1.377 . S
N46 C45 1.344 . S
O47 Co39 2.055 . S
O47 C51 1.253 . S
H48 C44 0.931 . S
H49 C45 0.930 . S
O50 Co39 2.039 . S
O50 C40 1.265 . S
C51 O47 1.253 . S
C51 O52 1.227 . S
O52 C51 1.227 . S
N53 Co39 2.140 . S
N53 C56 1.346 . S
N53 C57 1.345 . S
C54 C55 1.387 . S
C54 C58 1.391 . S
C55 C54 1.387 . S
C55 C56 1.369 . S
C55 H64 0.929 . S
C56 N53 1.346 . S
C56 C55 1.369 . S
C56 H59 0.928 . S
C57 N53 1.345 . S
C57 C58 1.371 . S
C57 H60 0.931 . S
C58 C54 1.391 . S
C58 C57 1.371 . S
C58 H65 0.930 . S
H59 C56 0.928 . S
H60 C57 0.931 . S
H61 C37 0.930 . S
H62 C34 0.930 . S
H63 C43 0.930 . S
H64 C55 0.929 . S
H65 C58 0.930 . S
C66 C67 1.351 . S
C66 N69 1.368 . S
C66 H71 0.931 . S
C67 C66 1.351 . S
C67 N68 1.373 . S
C67 H95 0.930 . S
N68 C67 1.373 . S
N68 C70 1.340 . S
N69 C66 1.368 . S
N69 C70 1.321 . S
N69 Co72 2.135 . S
C70 N68 1.340 . S
C70 N69 1.321 . S
C70 H94 0.930 . S
H71 C66 0.931 . S
Co72 N69 2.135 . S
Co72 N75 2.121 . S
Co72 O80 2.055 . S
Co72 O83 2.039 . S
Co72 N86 2.140 . S
C73 O74 1.227 . S
C73 O83 1.265 . S
O74 C73 1.227 . S
N75 Co72 2.121 . S
N75 C77 1.375 . S
N75 C78 1.313 . S
C76 C77 1.338 . S
C76 N79 1.377 . S
C76 H96 0.930 . S
C77 N75 1.375 . S
C77 C76 1.338 . S
C77 H81 0.931 . S
C78 N75 1.313 . S
C78 N79 1.344 . S
C78 H82 0.930 . S
N79 C76 1.377 . S
N79 C78 1.344 . S
O80 Co72 2.055 . S
O80 C84 1.253 . S
H81 C77 0.931 . S
H82 C78 0.930 . S
O83 Co72 2.039 . S
O83 C73 1.265 . S
C84 O80 1.253 . S
C84 O85 1.227 . S
O85 C84 1.227 . S
N86 Co72 2.140 . S
N86 C89 1.346 . S
N86 C90 1.345 . S
C87 C88 1.387 . S
C87 C91 1.391 . S
C88 C87 1.387 . S
C88 C89 1.369 . S
C88 H97 0.929 . S
C89 N86 1.346 . S
C89 C88 1.369 . S
C89 H92 0.928 . S
C90 N86 1.345 . S
C90 C91 1.371 . S
C90 H93 0.931 . S
C91 C87 1.391 . S
C91 C90 1.371 . S
C91 H98 0.930 . S
H92 C89 0.928 . S
H93 C90 0.931 . S
H94 C70 0.930 . S
H95 C67 0.930 . S
H96 C76 0.930 . S
H97 C88 0.929 . S
H98 C91 0.930 . S
C99 C100 1.351 . S
C99 N102 1.368 . S
C99 H104 0.931 . S
C100 C99 1.351 . S
C100 N101 1.373 . S
C100 H128 0.930 . S
N101 C100 1.373 . S
N101 C103 1.340 . S
N102 C99 1.368 . S
N102 C103 1.321 . S
N102 Co105 2.135 . S
C103 N101 1.340 . S
C103 N102 1.321 . S
C103 H127 0.930 . S
H104 C99 0.931 . S
Co105 N102 2.135 . S
Co105 N108 2.121 . S
Co105 O113 2.055 . S
Co105 O116 2.039 . S
Co105 N119 2.140 . S
C106 O107 1.227 . S
C106 O116 1.265 . S
O107 C106 1.227 . S
N108 Co105 2.121 . S
N108 C110 1.375 . S
N108 C111 1.313 . S
C109 C110 1.338 . S
C109 N112 1.377 . S
C109 H129 0.930 . S
C110 N108 1.375 . S
C110 C109 1.338 . S
C110 H114 0.931 . S
C111 N108 1.313 . S
C111 N112 1.344 . S
C111 H115 0.930 . S
N112 C109 1.377 . S
N112 C111 1.344 . S
O113 Co105 2.055 . S
O113 C117 1.253 . S
H114 C110 0.931 . S
H115 C111 0.930 . S
O116 Co105 2.039 . S
O116 C106 1.265 . S
C117 O113 1.253 . S
C117 O118 1.227 . S
O118 C117 1.227 . S
N119 Co105 2.140 . S
N119 C122 1.346 . S
N119 C123 1.345 . S
C120 C121 1.387 . S
C120 C124 1.391 . S
C121 C120 1.387 . S
C121 C122 1.369 . S
C121 H130 0.929 . S
C122 N119 1.346 . S
C122 C121 1.369 . S
C122 H125 0.928 . S
C123 N119 1.345 . S
C123 C124 1.371 . S
C123 H126 0.931 . S
C124 C120 1.391 . S
C124 C123 1.371 . S
C124 H131 0.930 . S
H125 C122 0.928 . S
H126 C123 0.931 . S
H127 C103 0.930 . S
H128 C100 0.930 . S
H129 C109 0.930 . S
H130 C121 0.929 . S
H131 C124 0.930 . S
C132 C133 1.351 . S
C132 N135 1.368 . S
C132 H137 0.931 . S
C133 C132 1.351 . S
C133 N134 1.373 . S
C133 H161 0.930 . S
N134 C133 1.373 . S
N134 C136 1.340 . S
N135 C132 1.368 . S
N135 C136 1.321 . S
N135 Co138 2.135 . S
C136 N134 1.340 . S
C136 N135 1.321 . S
C136 H160 0.930 . S
H137 C132 0.931 . S
Co138 N135 2.135 . S
Co138 N141 2.121 . S
Co138 O146 2.055 . S
Co138 O149 2.039 . S
Co138 N152 2.140 . S
C139 O140 1.227 . S
C139 O149 1.265 . S
O140 C139 1.227 . S
N141 Co138 2.121 . S
N141 C143 1.375 . S
N141 C144 1.313 . S
C142 C143 1.338 . S
C142 N145 1.377 . S
C142 H162 0.930 . S
C143 N141 1.375 . S
C143 C142 1.338 . S
C143 H147 0.931 . S
C144 N141 1.313 . S
C144 N145 1.344 . S
C144 H148 0.930 . S
N145 C142 1.377 . S
N145 C144 1.344 . S
O146 Co138 2.055 . S
O146 C150 1.253 . S
H147 C143 0.931 . S
H148 C144 0.930 . S
O149 Co138 2.039 . S
O149 C139 1.265 . S
C150 O146 1.253 . S
C150 O151 1.227 . S
O151 C150 1.227 . S
N152 Co138 2.140 . S
N152 C155 1.346 . S
N152 C156 1.345 . S
C153 C154 1.387 . S
C153 C157 1.391 . S
C154 C153 1.387 . S
C154 C155 1.369 . S
C154 H163 0.929 . S
C155 N152 1.346 . S
C155 C154 1.369 . S
C155 H158 0.928 . S
C156 N152 1.345 . S
C156 C157 1.371 . S
C156 H159 0.931 . S
C157 C153 1.391 . S
C157 C156 1.371 . S
C157 H164 0.930 . S
H158 C155 0.928 . S
H159 C156 0.931 . S
H160 C136 0.930 . S
H161 C133 0.930 . S
H162 C142 0.930 . S
H163 C154 0.929 . S
H164 C157 0.930 . S
C165 C166 1.351 . S
C165 N168 1.368 . S
C165 H170 0.931 . S
C166 C165 1.351 . S
C166 N167 1.373 . S
C166 H194 0.930 . S
N167 C166 1.373 . S
N167 C169 1.340 . S
N168 C165 1.368 . S
N168 C169 1.321 . S
N168 Co171 2.135 . S
C169 N167 1.340 . S
C169 N168 1.321 . S
C169 H193 0.930 . S
H170 C165 0.931 . S
Co171 N168 2.135 . S
Co171 N174 2.121 . S
Co171 O179 2.055 . S
Co171 O182 2.039 . S
Co171 N185 2.140 . S
C172 O173 1.227 . S
C172 O182 1.265 . S
O173 C172 1.227 . S
N174 Co171 2.121 . S
N174 C176 1.375 . S
N174 C177 1.313 . S
C175 C176 1.338 . S
C175 N178 1.377 . S
C175 H195 0.930 . S
C176 N174 1.375 . S
C176 C175 1.338 . S
C176 H180 0.931 . S
C177 N174 1.313 . S
C177 N178 1.344 . S
C177 H181 0.930 . S
N178 C175 1.377 . S
N178 C177 1.344 . S
O179 Co171 2.055 . S
O179 C183 1.253 . S
H180 C176 0.931 . S
H181 C177 0.930 . S
O182 Co171 2.039 . S
O182 C172 1.265 . S
C183 O179 1.253 . S
C183 O184 1.227 . S
O184 C183 1.227 . S
N185 Co171 2.140 . S
N185 C188 1.346 . S
N185 C189 1.345 . S
C186 C187 1.387 . S
C186 C190 1.391 . S
C187 C186 1.387 . S
C187 C188 1.369 . S
C187 H196 0.929 . S
C188 N185 1.346 . S
C188 C187 1.369 . S
C188 H191 0.928 . S
C189 N185 1.345 . S
C189 C190 1.371 . S
C189 H192 0.931 . S
C190 C186 1.391 . S
C190 C189 1.371 . S
C190 H197 0.930 . S
H191 C188 0.928 . S
H192 C189 0.931 . S
H193 C169 0.930 . S
H194 C166 0.930 . S
H195 C175 0.930 . S
H196 C187 0.929 . S
H197 C190 0.930 . S
C198 C199 1.351 . S
C198 N201 1.368 . S
C198 H203 0.931 . S
C199 C198 1.351 . S
C199 N200 1.373 . S
C199 H227 0.930 . S
N200 C199 1.373 . S
N200 C202 1.340 . S
N201 C198 1.368 . S
N201 C202 1.321 . S
N201 Co204 2.135 . S
C202 N200 1.340 . S
C202 N201 1.321 . S
C202 H226 0.930 . S
H203 C198 0.931 . S
Co204 N201 2.135 . S
Co204 N207 2.121 . S
Co204 O212 2.055 . S
Co204 O215 2.039 . S
Co204 N218 2.140 . S
C205 O206 1.227 . S
C205 O215 1.265 . S
O206 C205 1.227 . S
N207 Co204 2.121 . S
N207 C209 1.375 . S
N207 C210 1.313 . S
C208 C209 1.338 . S
C208 N211 1.377 . S
C208 H228 0.930 . S
C209 N207 1.375 . S
C209 C208 1.338 . S
C209 H213 0.931 . S
C210 N207 1.313 . S
C210 N211 1.344 . S
C210 H214 0.930 . S
N211 C208 1.377 . S
N211 C210 1.344 . S
O212 Co204 2.055 . S
O212 C216 1.253 . S
H213 C209 0.931 . S
H214 C210 0.930 . S
O215 Co204 2.039 . S
O215 C205 1.265 . S
C216 O212 1.253 . S
C216 O217 1.227 . S
O217 C216 1.227 . S
N218 Co204 2.140 . S
N218 C221 1.346 . S
N218 C222 1.345 . S
C219 C220 1.387 . S
C219 C223 1.391 . S
C220 C219 1.387 . S
C220 C221 1.369 . S
C220 H229 0.929 . S
C221 N218 1.346 . S
C221 C220 1.369 . S
C221 H224 0.928 . S
C222 N218 1.345 . S
C222 C223 1.371 . S
C222 H225 0.931 . S
C223 C219 1.391 . S
C223 C222 1.371 . S
C223 H230 0.930 . S
H224 C221 0.928 . S
H225 C222 0.931 . S
H226 C202 0.930 . S
H227 C199 0.930 . S
H228 C208 0.930 . S
H229 C220 0.929 . S
H230 C223 0.930 . S
C231 C232 1.351 . S
C231 N234 1.368 . S
C231 H236 0.931 . S
C232 C231 1.351 . S
C232 N233 1.373 . S
C232 H260 0.930 . S
N233 C232 1.373 . S
N233 C235 1.340 . S
N234 C231 1.368 . S
N234 C235 1.321 . S
N234 Co237 2.135 . S
C235 N233 1.340 . S
C235 N234 1.321 . S
C235 H259 0.930 . S
H236 C231 0.931 . S
Co237 N234 2.135 . S
Co237 N240 2.121 . S
Co237 O245 2.055 . S
Co237 O248 2.039 . S
Co237 N251 2.140 . S
C238 O239 1.227 . S
C238 O248 1.265 . S
O239 C238 1.227 . S
N240 Co237 2.121 . S
N240 C242 1.375 . S
N240 C243 1.313 . S
C241 C242 1.338 . S
C241 N244 1.377 . S
C241 H261 0.930 . S
C242 N240 1.375 . S
C242 C241 1.338 . S
C242 H246 0.931 . S
C243 N240 1.313 . S
C243 N244 1.344 . S
C243 H247 0.930 . S
N244 C241 1.377 . S
N244 C243 1.344 . S
O245 Co237 2.055 . S
O245 C249 1.253 . S
H246 C242 0.931 . S
H247 C243 0.930 . S
O248 Co237 2.039 . S
O248 C238 1.265 . S
C249 O245 1.253 . S
C249 O250 1.227 . S
O250 C249 1.227 . S
N251 Co237 2.140 . S
N251 C254 1.346 . S
N251 C255 1.345 . S
C252 C253 1.387 . S
C252 C256 1.391 . S
C253 C252 1.387 . S
C253 C254 1.369 . S
C253 H262 0.929 . S
C254 N251 1.346 . S
C254 C253 1.369 . S
C254 H257 0.928 . S
C255 N251 1.345 . S
C255 C256 1.371 . S
C255 H258 0.931 . S
C256 C252 1.391 . S
C256 C255 1.371 . S
C256 H263 0.930 . S
H257 C254 0.928 . S
H258 C255 0.931 . S
H259 C235 0.930 . S
H260 C232 0.930 . S
H261 C241 0.930 . S
H262 C253 0.929 . S
H263 C256 0.930 . S
C264 C265 1.351 . S
C264 N267 1.368 . S
C264 H269 0.931 . S
C265 C264 1.351 . S
C265 N266 1.373 . S
C265 H293 0.930 . S
N266 C265 1.373 . S
N266 C268 1.340 . S
N267 C264 1.368 . S
N267 C268 1.321 . S
N267 Co270 2.135 . S
C268 N266 1.340 . S
C268 N267 1.321 . S
C268 H292 0.930 . S
H269 C264 0.931 . S
Co270 N267 2.135 . S
Co270 N273 2.121 . S
Co270 O278 2.055 . S
Co270 O281 2.039 . S
Co270 N284 2.140 . S
C271 O272 1.227 . S
C271 O281 1.265 . S
O272 C271 1.227 . S
N273 Co270 2.121 . S
N273 C275 1.375 . S
N273 C276 1.313 . S
C274 C275 1.338 . S
C274 N277 1.377 . S
C274 H294 0.930 . S
C275 N273 1.375 . S
C275 C274 1.338 . S
C275 H279 0.931 . S
C276 N273 1.313 . S
C276 N277 1.344 . S
C276 H280 0.930 . S
N277 C274 1.377 . S
N277 C276 1.344 . S
O278 Co270 2.055 . S
O278 C282 1.253 . S
H279 C275 0.931 . S
H280 C276 0.930 . S
O281 Co270 2.039 . S
O281 C271 1.265 . S
C282 O278 1.253 . S
C282 O283 1.227 . S
O283 C282 1.227 . S
N284 Co270 2.140 . S
N284 C287 1.346 . S
N284 C288 1.345 . S
C285 C286 1.387 . S
C285 C289 1.391 . S
C286 C285 1.387 . S
C286 C287 1.369 . S
C286 H295 0.929 . S
C287 N284 1.346 . S
C287 C286 1.369 . S
C287 H290 0.928 . S
C288 N284 1.345 . S
C288 C289 1.371 . S
C288 H291 0.931 . S
C289 C285 1.391 . S
C289 C288 1.371 . S
C289 H296 0.930 . S
H290 C287 0.928 . S
H291 C288 0.931 . S
H292 C268 0.930 . S
H293 C265 0.930 . S
H294 C274 0.930 . S
H295 C286 0.929 . S
H296 C289 0.930 . S
C297 C298 1.351 . S
C297 N300 1.368 . S
C297 H302 0.931 . S
C298 C297 1.351 . S
C298 N299 1.373 . S
C298 H326 0.930 . S
N299 C298 1.373 . S
N299 C301 1.340 . S
N300 C297 1.368 . S
N300 C301 1.321 . S
N300 Co303 2.135 . S
C301 N299 1.340 . S
C301 N300 1.321 . S
C301 H325 0.930 . S
H302 C297 0.931 . S
Co303 N300 2.135 . S
Co303 N306 2.121 . S
Co303 O311 2.055 . S
Co303 O314 2.039 . S
Co303 N317 2.140 . S
C304 O305 1.227 . S
C304 O314 1.265 . S
O305 C304 1.227 . S
N306 Co303 2.121 . S
N306 C308 1.375 . S
N306 C309 1.313 . S
C307 C308 1.338 . S
C307 N310 1.377 . S
C307 H327 0.930 . S
C308 N306 1.375 . S
C308 C307 1.338 . S
C308 H312 0.931 . S
C309 N306 1.313 . S
C309 N310 1.344 . S
C309 H313 0.930 . S
N310 C307 1.377 . S
N310 C309 1.344 . S
O311 Co303 2.055 . S
O311 C315 1.253 . S
H312 C308 0.931 . S
H313 C309 0.930 . S
O314 Co303 2.039 . S
O314 C304 1.265 . S
C315 O311 1.253 . S
C315 O316 1.227 . S
O316 C315 1.227 . S
N317 Co303 2.140 . S
N317 C320 1.346 . S
N317 C321 1.345 . S
C318 C319 1.387 . S
C318 C322 1.391 . S
C319 C318 1.387 . S
C319 C320 1.369 . S
C319 H328 0.929 . S
C320 N317 1.346 . S
C320 C319 1.369 . S
C320 H323 0.928 . S
C321 N317 1.345 . S
C321 C322 1.371 . S
C321 H324 0.931 . S
C322 C318 1.391 . S
C322 C321 1.371 . S
C322 H329 0.930 . S
H323 C320 0.928 . S
H324 C321 0.931 . S
H325 C301 0.930 . S
H326 C298 0.930 . S
H327 C307 0.930 . S
H328 C319 0.929 . S
H329 C322 0.930 . S
C330 C331 1.351 . S
C330 N333 1.368 . S
C330 H335 0.931 . S
C331 C330 1.351 . S
C331 N332 1.373 . S
C331 H359 0.930 . S
N332 C331 1.373 . S
N332 C334 1.340 . S
N333 C330 1.368 . S
N333 C334 1.321 . S
N333 Co336 2.135 . S
C334 N332 1.340 . S
C334 N333 1.321 . S
C334 H358 0.930 . S
H335 C330 0.931 . S
Co336 N333 2.135 . S
Co336 N339 2.121 . S
Co336 O344 2.055 . S
Co336 O347 2.039 . S
Co336 N350 2.140 . S
C337 O338 1.227 . S
C337 O347 1.265 . S
O338 C337 1.227 . S
N339 Co336 2.121 . S
N339 C341 1.375 . S
N339 C342 1.313 . S
C340 C341 1.338 . S
C340 N343 1.377 . S
C340 H360 0.930 . S
C341 N339 1.375 . S
C341 C340 1.338 . S
C341 H345 0.931 . S
C342 N339 1.313 . S
C342 N343 1.344 . S
C342 H346 0.930 . S
N343 C340 1.377 . S
N343 C342 1.344 . S
O344 Co336 2.055 . S
O344 C348 1.253 . S
H345 C341 0.931 . S
H346 C342 0.930 . S
O347 Co336 2.039 . S
O347 C337 1.265 . S
C348 O344 1.253 . S
C348 O349 1.227 . S
O349 C348 1.227 . S
N350 Co336 2.140 . S
N350 C353 1.346 . S
N350 C354 1.345 . S
C351 C352 1.387 . S
C351 C355 1.391 . S
C352 C351 1.387 . S
C352 C353 1.369 . S
C352 H361 0.929 . S
C353 N350 1.346 . S
C353 C352 1.369 . S
C353 H356 0.928 . S
C354 N350 1.345 . S
C354 C355 1.371 . S
C354 H357 0.931 . S
C355 C351 1.391 . S
C355 C354 1.371 . S
C355 H362 0.930 . S
H356 C353 0.928 . S
H357 C354 0.931 . S
H358 C334 0.930 . S
H359 C331 0.930 . S
H360 C340 0.930 . S
H361 C352 0.929 . S
H362 C355 0.930 . S
C363 C364 1.351 . S
C363 N366 1.368 . S
C363 H368 0.931 . S
C364 C363 1.351 . S
C364 N365 1.373 . S
C364 H392 0.930 . S
N365 C364 1.373 . S
N365 C367 1.340 . S
N366 C363 1.368 . S
N366 C367 1.321 . S
N366 Co369 2.135 . S
C367 N365 1.340 . S
C367 N366 1.321 . S
C367 H391 0.930 . S
H368 C363 0.931 . S
Co369 N366 2.135 . S
Co369 N372 2.121 . S
Co369 O377 2.055 . S
Co369 O380 2.039 . S
Co369 N383 2.140 . S
C370 O371 1.227 . S
C370 O380 1.265 . S
O371 C370 1.227 . S
N372 Co369 2.121 . S
N372 C374 1.375 . S
N372 C375 1.313 . S
C373 C374 1.338 . S
C373 N376 1.377 . S
C373 H393 0.930 . S
C374 N372 1.375 . S
C374 C373 1.338 . S
C374 H378 0.931 . S
C375 N372 1.313 . S
C375 N376 1.344 . S
C375 H379 0.930 . S
N376 C373 1.377 . S
N376 C375 1.344 . S
O377 Co369 2.055 . S
O377 C381 1.253 . S
H378 C374 0.931 . S
H379 C375 0.930 . S
O380 Co369 2.039 . S
O380 C370 1.265 . S
C381 O377 1.253 . S
C381 O382 1.227 . S
O382 C381 1.227 . S
N383 Co369 2.140 . S
N383 C386 1.346 . S
N383 C387 1.345 . S
C384 C385 1.387 . S
C384 C388 1.391 . S
C385 C384 1.387 . S
C385 C386 1.369 . S
C385 H394 0.929 . S
C386 N383 1.346 . S
C386 C385 1.369 . S
C386 H389 0.928 . S
C387 N383 1.345 . S
C387 C388 1.371 . S
C387 H390 0.931 . S
C388 C384 1.391 . S
C388 C387 1.371 . S
C388 H395 0.930 . S
H389 C386 0.928 . S
H390 C387 0.931 . S
H391 C367 0.930 . S
H392 C364 0.930 . S
H393 C373 0.930 . S
H394 C385 0.929 . S
H395 C388 0.930 . S
C396 C397 1.351 . S
C396 N399 1.368 . S
C396 H401 0.931 . S
C397 C396 1.351 . S
C397 N398 1.373 . S
C397 H425 0.930 . S
N398 C397 1.373 . S
N398 C400 1.340 . S
N399 C396 1.368 . S
N399 C400 1.321 . S
N399 Co402 2.135 . S
C400 N398 1.340 . S
C400 N399 1.321 . S
C400 H424 0.930 . S
H401 C396 0.931 . S
Co402 N399 2.135 . S
Co402 N405 2.121 . S
Co402 O410 2.055 . S
Co402 O413 2.039 . S
Co402 N416 2.140 . S
C403 O404 1.227 . S
C403 O413 1.265 . S
O404 C403 1.227 . S
N405 Co402 2.121 . S
N405 C407 1.375 . S
N405 C408 1.313 . S
C406 C407 1.338 . S
C406 N409 1.377 . S
C406 H426 0.930 . S
C407 N405 1.375 . S
C407 C406 1.338 . S
C407 H411 0.931 . S
C408 N405 1.313 . S
C408 N409 1.344 . S
C408 H412 0.930 . S
N409 C406 1.377 . S
N409 C408 1.344 . S
O410 Co402 2.055 . S
O410 C414 1.253 . S
H411 C407 0.931 . S
H412 C408 0.930 . S
O413 Co402 2.039 . S
O413 C403 1.265 . S
C414 O410 1.253 . S
C414 O415 1.227 . S
O415 C414 1.227 . S
N416 Co402 2.140 . S
N416 C419 1.346 . S
N416 C420 1.345 . S
C417 C418 1.387 . S
C417 C421 1.391 . S
C418 C417 1.387 . S
C418 C419 1.369 . S
C418 H427 0.929 . S
C419 N416 1.346 . S
C419 C418 1.369 . S
C419 H422 0.928 . S
C420 N416 1.345 . S
C420 C421 1.371 . S
C420 H423 0.931 . S
C421 C417 1.391 . S
C421 C420 1.371 . S
C421 H428 0.930 . S
H422 C419 0.928 . S
H423 C420 0.931 . S
H424 C400 0.930 . S
H425 C397 0.930 . S
H426 C406 0.930 . S
H427 C418 0.929 . S
H428 C421 0.930 . S
C429 C430 1.351 . S
C429 N432 1.368 . S
C429 H434 0.931 . S
C430 C429 1.351 . S
C430 N431 1.373 . S
C430 H458 0.930 . S
N431 C430 1.373 . S
N431 C433 1.340 . S
N432 C429 1.368 . S
N432 C433 1.321 . S
N432 Co435 2.135 . S
C433 N431 1.340 . S
C433 N432 1.321 . S
C433 H457 0.930 . S
H434 C429 0.931 . S
Co435 N432 2.135 . S
Co435 N438 2.121 . S
Co435 O443 2.055 . S
Co435 O446 2.039 . S
Co435 N449 2.140 . S
C436 O437 1.227 . S
C436 O446 1.265 . S
O437 C436 1.227 . S
N438 Co435 2.121 . S
N438 C440 1.375 . S
N438 C441 1.313 . S
C439 C440 1.338 . S
C439 N442 1.377 . S
C439 H459 0.930 . S
C440 N438 1.375 . S
C440 C439 1.338 . S
C440 H444 0.931 . S
C441 N438 1.313 . S
C441 N442 1.344 . S
C441 H445 0.930 . S
N442 C439 1.377 . S
N442 C441 1.344 . S
O443 Co435 2.055 . S
O443 C447 1.253 . S
H444 C440 0.931 . S
H445 C441 0.930 . S
O446 Co435 2.039 . S
O446 C436 1.265 . S
C447 O443 1.253 . S
C447 O448 1.227 . S
O448 C447 1.227 . S
N449 Co435 2.140 . S
N449 C452 1.346 . S
N449 C453 1.345 . S
C450 C451 1.387 . S
C450 C454 1.391 . S
C451 C450 1.387 . S
C451 C452 1.369 . S
C451 H460 0.929 . S
C452 N449 1.346 . S
C452 C451 1.369 . S
C452 H455 0.928 . S
C453 N449 1.345 . S
C453 C454 1.371 . S
C453 H456 0.931 . S
C454 C450 1.391 . S
C454 C453 1.371 . S
C454 H461 0.930 . S
H455 C452 0.928 . S
H456 C453 0.931 . S
H457 C433 0.930 . S
H458 C430 0.930 . S
H459 C439 0.930 . S
H460 C451 0.929 . S
H461 C454 0.930 . S
C462 C463 1.351 . S
C462 N465 1.368 . S
C462 H467 0.931 . S
C463 C462 1.351 . S
C463 N464 1.373 . S
C463 H491 0.930 . S
N464 C463 1.373 . S
N464 C466 1.340 . S
N465 C462 1.368 . S
N465 C466 1.321 . S
N465 Co468 2.135 . S
C466 N464 1.340 . S
C466 N465 1.321 . S
C466 H490 0.930 . S
H467 C462 0.931 . S
Co468 N465 2.135 . S
Co468 N471 2.121 . S
Co468 O476 2.055 . S
Co468 O479 2.039 . S
Co468 N482 2.140 . S
C469 O470 1.227 . S
C469 O479 1.265 . S
O470 C469 1.227 . S
N471 Co468 2.121 . S
N471 C473 1.375 . S
N471 C474 1.313 . S
C472 C473 1.338 . S
C472 N475 1.377 . S
C472 H492 0.930 . S
C473 N471 1.375 . S
C473 C472 1.338 . S
C473 H477 0.931 . S
C474 N471 1.313 . S
C474 N475 1.344 . S
C474 H478 0.930 . S
N475 C472 1.377 . S
N475 C474 1.344 . S
O476 Co468 2.055 . S
O476 C480 1.253 . S
H477 C473 0.931 . S
H478 C474 0.930 . S
O479 Co468 2.039 . S
O479 C469 1.265 . S
C480 O476 1.253 . S
C480 O481 1.227 . S
O481 C480 1.227 . S
N482 Co468 2.140 . S
N482 C485 1.346 . S
N482 C486 1.345 . S
C483 C484 1.387 . S
C483 C487 1.391 . S
C484 C483 1.387 . S
C484 C485 1.369 . S
C484 H493 0.929 . S
C485 N482 1.346 . S
C485 C484 1.369 . S
C485 H488 0.928 . S
C486 N482 1.345 . S
C486 C487 1.371 . S
C486 H489 0.931 . S
C487 C483 1.391 . S
C487 C486 1.371 . S
C487 H494 0.930 . S
H488 C485 0.928 . S
H489 C486 0.931 . S
H490 C466 0.930 . S
H491 C463 0.930 . S
H492 C472 0.930 . S
H493 C484 0.929 . S
H494 C487 0.930 . S
C495 C496 1.351 . S
C495 N498 1.368 . S
C495 H500 0.931 . S
C496 C495 1.351 . S
C496 N497 1.373 . S
C496 H524 0.930 . S
N497 C496 1.373 . S
N497 C499 1.340 . S
N498 C495 1.368 . S
N498 C499 1.321 . S
N498 Co501 2.135 . S
C499 N497 1.340 . S
C499 N498 1.321 . S
C499 H523 0.930 . S
H500 C495 0.931 . S
Co501 N498 2.135 . S
Co501 N504 2.121 . S
Co501 O509 2.055 . S
Co501 O512 2.039 . S
Co501 N515 2.140 . S
C502 O503 1.227 . S
C502 O512 1.265 . S
O503 C502 1.227 . S
N504 Co501 2.121 . S
N504 C506 1.375 . S
N504 C507 1.313 . S
C505 C506 1.338 . S
C505 N508 1.377 . S
C505 H525 0.930 . S
C506 N504 1.375 . S
C506 C505 1.338 . S
C506 H510 0.931 . S
C507 N504 1.313 . S
C507 N508 1.344 . S
C507 H511 0.930 . S
N508 C505 1.377 . S
N508 C507 1.344 . S
O509 Co501 2.055 . S
O509 C513 1.253 . S
H510 C506 0.931 . S
H511 C507 0.930 . S
O512 Co501 2.039 . S
O512 C502 1.265 . S
C513 O509 1.253 . S
C513 O514 1.227 . S
O514 C513 1.227 . S
N515 Co501 2.140 . S
N515 C518 1.346 . S
N515 C519 1.345 . S
C516 C517 1.387 . S
C516 C520 1.391 . S
C517 C516 1.387 . S
C517 C518 1.369 . S
C517 H526 0.929 . S
C518 N515 1.346 . S
C518 C517 1.369 . S
C518 H521 0.928 . S
C519 N515 1.345 . S
C519 C520 1.371 . S
C519 H522 0.931 . S
C520 C516 1.391 . S
C520 C519 1.371 . S
C520 H527 0.930 . S
H521 C518 0.928 . S
H522 C519 0.931 . S
H523 C499 0.930 . S
H524 C496 0.930 . S
H525 C505 0.930 . S
H526 C517 0.929 . S
H527 C520 0.930 . S
C528 C529 1.351 . S
C528 N531 1.368 . S
C528 H533 0.931 . S
C529 C528 1.351 . S
C529 N530 1.373 . S
C529 H557 0.930 . S
N530 C529 1.373 . S
N530 C532 1.340 . S
N531 C528 1.368 . S
N531 C532 1.321 . S
N531 Co534 2.135 . S
C532 N530 1.340 . S
C532 N531 1.321 . S
C532 H556 0.930 . S
H533 C528 0.931 . S
Co534 N531 2.135 . S
Co534 N537 2.121 . S
Co534 O542 2.055 . S
Co534 O545 2.039 . S
Co534 N548 2.140 . S
C535 O536 1.227 . S
C535 O545 1.265 . S
O536 C535 1.227 . S
N537 Co534 2.121 . S
N537 C539 1.375 . S
N537 C540 1.313 . S
C538 C539 1.338 . S
C538 N541 1.377 . S
C538 H558 0.930 . S
C539 N537 1.375 . S
C539 C538 1.338 . S
C539 H543 0.931 . S
C540 N537 1.313 . S
C540 N541 1.344 . S
C540 H544 0.930 . S
N541 C538 1.377 . S
N541 C540 1.344 . S
O542 Co534 2.055 . S
O542 C546 1.253 . S
H543 C539 0.931 . S
H544 C540 0.930 . S
O545 Co534 2.039 . S
O545 C535 1.265 . S
C546 O542 1.253 . S
C546 O547 1.227 . S
O547 C546 1.227 . S
N548 Co534 2.140 . S
N548 C551 1.346 . S
N548 C552 1.345 . S
C549 C550 1.387 . S
C549 C553 1.391 . S
C550 C549 1.387 . S
C550 C551 1.369 . S
C550 H559 0.929 . S
C551 N548 1.346 . S
C551 C550 1.369 . S
C551 H554 0.928 . S
C552 N548 1.345 . S
C552 C553 1.371 . S
C552 H555 0.931 . S
C553 C549 1.391 . S
C553 C552 1.371 . S
C553 H560 0.930 . S
H554 C551 0.928 . S
H555 C552 0.931 . S
H556 C532 0.930 . S
H557 C529 0.930 . S
H558 C538 0.930 . S
H559 C550 0.929 . S
H560 C553 0.930 . S
C561 C562 1.351 . S
C561 N564 1.368 . S
C561 H566 0.931 . S
C562 C561 1.351 . S
C562 N563 1.373 . S
C562 H590 0.930 . S
N563 C562 1.373 . S
N563 C565 1.340 . S
N564 C561 1.368 . S
N564 C565 1.321 . S
N564 Co567 2.135 . S
C565 N563 1.340 . S
C565 N564 1.321 . S
C565 H589 0.930 . S
H566 C561 0.931 . S
Co567 N564 2.135 . S
Co567 N570 2.121 . S
Co567 O575 2.055 . S
Co567 O578 2.039 . S
Co567 N581 2.140 . S
C568 O569 1.227 . S
C568 O578 1.265 . S
O569 C568 1.227 . S
N570 Co567 2.121 . S
N570 C572 1.375 . S
N570 C573 1.313 . S
C571 C572 1.338 . S
C571 N574 1.377 . S
C571 H591 0.930 . S
C572 N570 1.375 . S
C572 C571 1.338 . S
C572 H576 0.931 . S
C573 N570 1.313 . S
C573 N574 1.344 . S
C573 H577 0.930 . S
N574 C571 1.377 . S
N574 C573 1.344 . S
O575 Co567 2.055 . S
O575 C579 1.253 . S
H576 C572 0.931 . S
H577 C573 0.930 . S
O578 Co567 2.039 . S
O578 C568 1.265 . S
C579 O575 1.253 . S
C579 O580 1.227 . S
O580 C579 1.227 . S
N581 Co567 2.140 . S
N581 C584 1.346 . S
N581 C585 1.345 . S
C582 C583 1.387 . S
C582 C586 1.391 . S
C583 C582 1.387 . S
C583 C584 1.369 . S
C583 H592 0.929 . S
C584 N581 1.346 . S
C584 C583 1.369 . S
C584 H587 0.928 . S
C585 N581 1.345 . S
C585 C586 1.371 . S
C585 H588 0.931 . S
C586 C582 1.391 . S
C586 C585 1.371 . S
C586 H593 0.930 . S
H587 C584 0.928 . S
H588 C585 0.931 . S
H589 C565 0.930 . S
H590 C562 0.930 . S
H591 C571 0.930 . S
H592 C583 0.929 . S
H593 C586 0.930 . S
C594 C595 1.351 . S
C594 N597 1.368 . S
C594 H599 0.931 . S
C595 C594 1.351 . S
C595 N596 1.373 . S
C595 H623 0.930 . S
N596 C595 1.373 . S
N596 C598 1.340 . S
N597 C594 1.368 . S
N597 C598 1.321 . S
N597 Co600 2.135 . S
C598 N596 1.340 . S
C598 N597 1.321 . S
C598 H622 0.930 . S
H599 C594 0.931 . S
Co600 N597 2.135 . S
Co600 N603 2.121 . S
Co600 O608 2.055 . S
Co600 O611 2.039 . S
Co600 N614 2.140 . S
C601 O602 1.227 . S
C601 O611 1.265 . S
O602 C601 1.227 . S
N603 Co600 2.121 . S
N603 C605 1.375 . S
N603 C606 1.313 . S
C604 C605 1.338 . S
C604 N607 1.377 . S
C604 H624 0.930 . S
C605 N603 1.375 . S
C605 C604 1.338 . S
C605 H609 0.931 . S
C606 N603 1.313 . S
C606 N607 1.344 . S
C606 H610 0.930 . S
N607 C604 1.377 . S
N607 C606 1.344 . S
O608 Co600 2.055 . S
O608 C612 1.253 . S
H609 C605 0.931 . S
H610 C606 0.930 . S
O611 Co600 2.039 . S
O611 C601 1.265 . S
C612 O608 1.253 . S
C612 O613 1.227 . S
O613 C612 1.227 . S
N614 Co600 2.140 . S
N614 C617 1.346 . S
N614 C618 1.345 . S
C615 C616 1.387 . S
C615 C619 1.391 . S
C616 C615 1.387 . S
C616 C617 1.369 . S
C616 H625 0.929 . S
C617 N614 1.346 . S
C617 C616 1.369 . S
C617 H620 0.928 . S
C618 N614 1.345 . S
C618 C619 1.371 . S
C618 H621 0.931 . S
C619 C615 1.391 . S
C619 C618 1.371 . S
C619 H626 0.930 . S
H620 C617 0.928 . S
H621 C618 0.931 . S
H622 C598 0.930 . S
H623 C595 0.930 . S
H624 C604 0.930 . S
H625 C616 0.929 . S
H626 C619 0.930 . S
C627 C628 1.351 . S
C627 N630 1.368 . S
C627 H632 0.931 . S
C628 C627 1.351 . S
C628 N629 1.373 . S
C628 H656 0.930 . S
N629 C628 1.373 . S
N629 C631 1.340 . S
N630 C627 1.368 . S
N630 C631 1.321 . S
N630 Co633 2.135 . S
C631 N629 1.340 . S
C631 N630 1.321 . S
C631 H655 0.930 . S
H632 C627 0.931 . S
Co633 N630 2.135 . S
Co633 N636 2.121 . S
Co633 O641 2.055 . S
Co633 O644 2.039 . S
Co633 N647 2.140 . S
C634 O635 1.227 . S
C634 O644 1.265 . S
O635 C634 1.227 . S
N636 Co633 2.121 . S
N636 C638 1.375 . S
N636 C639 1.313 . S
C637 C638 1.338 . S
C637 N640 1.377 . S
C637 H657 0.930 . S
C638 N636 1.375 . S
C638 C637 1.338 . S
C638 H642 0.931 . S
C639 N636 1.313 . S
C639 N640 1.344 . S
C639 H643 0.930 . S
N640 C637 1.377 . S
N640 C639 1.344 . S
O641 Co633 2.055 . S
O641 C645 1.253 . S
H642 C638 0.931 . S
H643 C639 0.930 . S
O644 Co633 2.039 . S
O644 C634 1.265 . S
C645 O641 1.253 . S
C645 O646 1.227 . S
O646 C645 1.227 . S
N647 Co633 2.140 . S
N647 C650 1.346 . S
N647 C651 1.345 . S
C648 C649 1.387 . S
C648 C652 1.391 . S
C649 C648 1.387 . S
C649 C650 1.369 . S
C649 H658 0.929 . S
C650 N647 1.346 . S
C650 C649 1.369 . S
C650 H653 0.928 . S
C651 N647 1.345 . S
C651 C652 1.371 . S
C651 H654 0.931 . S
C652 C648 1.391 . S
C652 C651 1.371 . S
C652 H659 0.930 . S
H653 C650 0.928 . S
H654 C651 0.931 . S
H655 C631 0.930 . S
H656 C628 0.930 . S
H657 C637 0.930 . S
H658 C649 0.929 . S
H659 C652 0.930 . S
C660 C661 1.351 . S
C660 N663 1.368 . S
C660 H665 0.931 . S
C661 C660 1.351 . S
C661 N662 1.373 . S
C661 H689 0.930 . S
N662 C661 1.373 . S
N662 C664 1.340 . S
N663 C660 1.368 . S
N663 C664 1.321 . S
N663 Co666 2.135 . S
C664 N662 1.340 . S
C664 N663 1.321 . S
C664 H688 0.930 . S
H665 C660 0.931 . S
Co666 N663 2.135 . S
Co666 N669 2.121 . S
Co666 O674 2.055 . S
Co666 O677 2.039 . S
Co666 N680 2.140 . S
C667 O668 1.227 . S
C667 O677 1.265 . S
O668 C667 1.227 . S
N669 Co666 2.121 . S
N669 C671 1.375 . S
N669 C672 1.313 . S
C670 C671 1.338 . S
C670 N673 1.377 . S
C670 H690 0.930 . S
C671 N669 1.375 . S
C671 C670 1.338 . S
C671 H675 0.931 . S
C672 N669 1.313 . S
C672 N673 1.344 . S
C672 H676 0.930 . S
N673 C670 1.377 . S
N673 C672 1.344 . S
O674 Co666 2.055 . S
O674 C678 1.253 . S
H675 C671 0.931 . S
H676 C672 0.930 . S
O677 Co666 2.039 . S
O677 C667 1.265 . S
C678 O674 1.253 . S
C678 O679 1.227 . S
O679 C678 1.227 . S
N680 Co666 2.140 . S
N680 C683 1.346 . S
N680 C684 1.345 . S
C681 C682 1.387 . S
C681 C685 1.391 . S
C682 C681 1.387 . S
C682 C683 1.369 . S
C682 H691 0.929 . S
C683 N680 1.346 . S
C683 C682 1.369 . S
C683 H686 0.928 . S
C684 N680 1.345 . S
C684 C685 1.371 . S
C684 H687 0.931 . S
C685 C681 1.391 . S
C685 C684 1.371 . S
C685 H692 0.930 . S
H686 C683 0.928 . S
H687 C684 0.931 . S
H688 C664 0.930 . S
H689 C661 0.930 . S
H690 C670 0.930 . S
H691 C682 0.929 . S
H692 C685 0.930 . S
C693 C694 1.351 . S
C693 N696 1.368 . S
C693 H698 0.931 . S
C694 C693 1.351 . S
C694 N695 1.373 . S
C694 H722 0.930 . S
N695 C694 1.373 . S
N695 C697 1.340 . S
N696 C693 1.368 . S
N696 C697 1.321 . S
N696 Co699 2.135 . S
C697 N695 1.340 . S
C697 N696 1.321 . S
C697 H721 0.930 . S
H698 C693 0.931 . S
Co699 N696 2.135 . S
Co699 N702 2.121 . S
Co699 O707 2.055 . S
Co699 O710 2.039 . S
Co699 N713 2.140 . S
C700 O701 1.227 . S
C700 O710 1.265 . S
O701 C700 1.227 . S
N702 Co699 2.121 . S
N702 C704 1.375 . S
N702 C705 1.313 . S
C703 C704 1.338 . S
C703 N706 1.377 . S
C703 H723 0.930 . S
C704 N702 1.375 . S
C704 C703 1.338 . S
C704 H708 0.931 . S
C705 N702 1.313 . S
C705 N706 1.344 . S
C705 H709 0.930 . S
N706 C703 1.377 . S
N706 C705 1.344 . S
O707 Co699 2.055 . S
O707 C711 1.253 . S
H708 C704 0.931 . S
H709 C705 0.930 . S
O710 Co699 2.039 . S
O710 C700 1.265 . S
C711 O707 1.253 . S
C711 O712 1.227 . S
O712 C711 1.227 . S
N713 Co699 2.140 . S
N713 C716 1.346 . S
N713 C717 1.345 . S
C714 C715 1.387 . S
C714 C718 1.391 . S
C715 C714 1.387 . S
C715 C716 1.369 . S
C715 H724 0.929 . S
C716 N713 1.346 . S
C716 C715 1.369 . S
C716 H719 0.928 . S
C717 N713 1.345 . S
C717 C718 1.371 . S
C717 H720 0.931 . S
C718 C714 1.391 . S
C718 C717 1.371 . S
C718 H725 0.930 . S
H719 C716 0.928 . S
H720 C717 0.931 . S
H721 C697 0.930 . S
H722 C694 0.930 . S
H723 C703 0.930 . S
H724 C715 0.929 . S
H725 C718 0.930 . S
C726 C727 1.351 . S
C726 N729 1.368 . S
C726 H731 0.931 . S
C727 C726 1.351 . S
C727 N728 1.373 . S
C727 H755 0.930 . S
N728 C727 1.373 . S
N728 C730 1.340 . S
N729 C726 1.368 . S
N729 C730 1.321 . S
N729 Co732 2.135 . S
C730 N728 1.340 . S
C730 N729 1.321 . S
C730 H754 0.930 . S
H731 C726 0.931 . S
Co732 N729 2.135 . S
Co732 N735 2.121 . S
Co732 O740 2.055 . S
Co732 O743 2.039 . S
Co732 N746 2.140 . S
C733 O734 1.227 . S
C733 O743 1.265 . S
O734 C733 1.227 . S
N735 Co732 2.121 . S
N735 C737 1.375 . S
N735 C738 1.313 . S
C736 C737 1.338 . S
C736 N739 1.377 . S
C736 H756 0.930 . S
C737 N735 1.375 . S
C737 C736 1.338 . S
C737 H741 0.931 . S
C738 N735 1.313 . S
C738 N739 1.344 . S
C738 H742 0.930 . S
N739 C736 1.377 . S
N739 C738 1.344 . S
O740 Co732 2.055 . S
O740 C744 1.253 . S
H741 C737 0.931 . S
H742 C738 0.930 . S
O743 Co732 2.039 . S
O743 C733 1.265 . S
C744 O740 1.253 . S
C744 O745 1.227 . S
O745 C744 1.227 . S
N746 Co732 2.140 . S
N746 C749 1.346 . S
N746 C750 1.345 . S
C747 C748 1.387 . S
C747 C751 1.391 . S
C748 C747 1.387 . S
C748 C749 1.369 . S
C748 H757 0.929 . S
C749 N746 1.346 . S
C749 C748 1.369 . S
C749 H752 0.928 . S
C750 N746 1.345 . S
C750 C751 1.371 . S
C750 H753 0.931 . S
C751 C747 1.391 . S
C751 C750 1.371 . S
C751 H758 0.930 . S
H752 C749 0.928 . S
H753 C750 0.931 . S
H754 C730 0.930 . S
H755 C727 0.930 . S
H756 C736 0.930 . S
H757 C748 0.929 . S
H758 C751 0.930 . S
C759 C760 1.351 . S
C759 N762 1.368 . S
C759 H764 0.931 . S
C760 C759 1.351 . S
C760 N761 1.373 . S
C760 H788 0.930 . S
N761 C760 1.373 . S
N761 C763 1.340 . S
N762 C759 1.368 . S
N762 C763 1.321 . S
N762 Co765 2.135 . S
C763 N761 1.340 . S
C763 N762 1.321 . S
C763 H787 0.930 . S
H764 C759 0.931 . S
Co765 N762 2.135 . S
Co765 N768 2.121 . S
Co765 O773 2.055 . S
Co765 O776 2.039 . S
Co765 N779 2.140 . S
C766 O767 1.227 . S
C766 O776 1.265 . S
O767 C766 1.227 . S
N768 Co765 2.121 . S
N768 C770 1.375 . S
N768 C771 1.313 . S
C769 C770 1.338 . S
C769 N772 1.377 . S
C769 H789 0.930 . S
C770 N768 1.375 . S
C770 C769 1.338 . S
C770 H774 0.931 . S
C771 N768 1.313 . S
C771 N772 1.344 . S
C771 H775 0.930 . S
N772 C769 1.377 . S
N772 C771 1.344 . S
O773 Co765 2.055 . S
O773 C777 1.253 . S
H774 C770 0.931 . S
H775 C771 0.930 . S
O776 Co765 2.039 . S
O776 C766 1.265 . S
C777 O773 1.253 . S
C777 O778 1.227 . S
O778 C777 1.227 . S
N779 Co765 2.140 . S
N779 C782 1.346 . S
N779 C783 1.345 . S
C780 C781 1.387 . S
C780 C784 1.391 . S
C781 C780 1.387 . S
C781 C782 1.369 . S
C781 H790 0.929 . S
C782 N779 1.346 . S
C782 C781 1.369 . S
C782 H785 0.928 . S
C783 N779 1.345 . S
C783 C784 1.371 . S
C783 H786 0.931 . S
C784 C780 1.391 . S
C784 C783 1.371 . S
C784 H791 0.930 . S
H785 C782 0.928 . S
H786 C783 0.931 . S
H787 C763 0.930 . S
H788 C760 0.930 . S
H789 C769 0.930 . S
H790 C781 0.929 . S
H791 C784 0.930 . S
C792 C793 1.369 . S
C792 C794 1.419 1_545 S
C792 H796 0.930 . S
C793 C792 1.369 . S
C793 C802 1.442 . S
C794 C792 1.419 1_565 S
C794 C795 1.363 . S
C794 H797 0.929 . S
C795 C794 1.363 . S
C795 C801 1.428 . S
H796 C792 0.930 . S
H797 C794 0.929 . S
S798 N799 1.613 . S
S798 N800 1.610 . S
N799 S798 1.613 . S
N799 C802 1.361 1_565 S
N800 S798 1.610 . S
N800 C801 1.351 . S
C801 C795 1.428 . S
C801 N800 1.351 . S
C801 C802 1.407 1_565 S
C802 C793 1.442 . S
C802 N799 1.361 1_545 S
C802 C801 1.407 1_545 S
C803 C804 1.369 . S
C803 C805 1.419 . S
C803 H807 0.930 . S
C804 C803 1.369 . S
C804 C813 1.429 . S
C805 C803 1.419 . S
C805 C806 1.363 . S
C805 H808 0.929 . S
C806 C805 1.363 . S
C806 C812 1.428 . S
H807 C803 0.930 . S
H808 C805 0.929 . S
S809 N810 1.613 . S
S809 N811 1.610 . S
N810 S809 1.613 . S
N810 C813 1.350 . S
N811 S809 1.610 . S
N811 C812 1.351 . S
C812 C806 1.428 . S
C812 N811 1.351 . S
C812 C813 1.434 . S
C813 C804 1.429 . S
C813 N810 1.350 . S
C813 C812 1.434 . S
C814 C815 1.369 . S
C814 C816 1.419 1_455 S
C814 H818 0.930 . S
C815 C814 1.369 . S
C815 C824 1.429 . S
C816 C814 1.419 1_655 S
C816 C817 1.363 . S
C816 H819 0.929 . S
C817 C816 1.363 . S
C817 C823 1.428 . S
H818 C814 0.930 . S
H819 C816 0.929 . S
S820 N821 1.613 . S
S820 N822 1.610 . S
N821 S820 1.613 . S
N821 C824 1.350 . S
N822 S820 1.610 . S
N822 C823 1.351 1_455 S
C823 C817 1.428 . S
C823 N822 1.351 1_655 S
C823 C824 1.434 1_655 S
C824 C815 1.429 . S
C824 N821 1.350 . S
C824 C823 1.434 1_455 S
C825 C826 1.369 . S
C825 C827 1.419 1_455 S
C825 H829 0.930 . S
C826 C825 1.369 . S
C826 C835 1.429 . S
C827 C825 1.419 1_655 S
C827 C828 1.363 . S
C827 H830 0.929 . S
C828 C827 1.363 . S
C828 C834 1.428 . S
H829 C825 0.930 . S
H830 C827 0.929 . S
S831 N832 1.613 . S
S831 N833 1.610 1_455 S
N832 S831 1.613 . S
N832 C835 1.350 . S
N833 S831 1.610 1_655 S
N833 C834 1.351 . S
C834 C828 1.428 . S
C834 N833 1.351 . S
C834 C835 1.434 1_655 S
C835 C826 1.429 . S
C835 N832 1.350 . S
C835 C834 1.434 1_455 S
C836 C837 1.369 . S
C836 C838 1.419 1_565 S
C836 H840 0.930 . S
C837 C836 1.369 . S
C837 C846 1.429 . S
C838 C836 1.419 1_545 S
C838 C839 1.363 . S
C838 H841 0.929 . S
C839 C838 1.363 . S
C839 C845 1.428 . S
H840 C836 0.930 . S
H841 C838 0.929 . S
S842 N843 1.618 . S
S842 N844 1.610 . S
N843 S842 1.618 . S
N843 C846 1.347 1_545 S
N844 S842 1.610 . S
N844 C845 1.351 . S
C845 C839 1.428 . S
C845 N844 1.351 . S
C845 C846 1.434 1_545 S
C846 C837 1.429 . S
C846 N843 1.347 1_565 S
C846 C845 1.434 1_565 S
C847 C848 1.369 . S
C847 C849 1.419 . S
C847 H851 0.930 . S
C848 C847 1.369 . S
C848 C857 1.429 . S
C849 C847 1.419 . S
C849 C850 1.363 . S
C849 H852 0.929 . S
C850 C849 1.363 . S
C850 C856 1.428 . S
H851 C847 0.930 . S
H852 C849 0.929 . S
S853 N854 1.613 . S
S853 N855 1.610 . S
N854 S853 1.613 . S
N854 C857 1.350 . S
N855 S853 1.610 . S
N855 C856 1.351 . S
C856 C850 1.428 . S
C856 N855 1.351 . S
C856 C857 1.434 . S
C857 C848 1.429 . S
C857 N854 1.350 . S
C857 C856 1.434 . S
C858 C859 1.369 . S
C858 C860 1.419 1_545 S
C858 H862 0.930 . S
C859 C858 1.369 . S
C859 C868 1.429 . S
C860 C858 1.419 1_565 S
C860 C861 1.363 . S
C860 H863 0.929 . S
C861 C860 1.363 . S
C861 C867 1.441 . S
H862 C858 0.930 . S
H863 C860 0.929 . S
S864 N865 1.613 . S
S864 N866 1.610 . S
N865 S864 1.613 . S
N865 C868 1.350 . S
N866 S864 1.610 . S
N866 C867 1.361 1_545 S
C867 C861 1.441 . S
C867 N866 1.361 1_565 S
C867 C868 1.409 1_565 S
C868 C859 1.429 . S
C868 N865 1.350 . S
C868 C867 1.409 1_545 S
C869 C870 1.369 . S
C869 C871 1.419 . S
C869 H873 0.930 . S
C870 C869 1.369 . S
C870 C879 1.429 . S
C871 C869 1.419 . S
C871 C872 1.363 . S
C871 H874 0.929 . S
C872 C871 1.363 . S
C872 C878 1.428 . S
H873 C869 0.930 . S
H874 C871 0.929 . S
S875 N876 1.613 . S
S875 N877 1.610 . S
N876 S875 1.613 . S
N876 C879 1.350 . S
N877 S875 1.610 . S
N877 C878 1.351 . S
C878 C872 1.428 . S
C878 N877 1.351 . S
C878 C879 1.434 . S
C879 C870 1.429 . S
C879 N876 1.350 . S
C879 C878 1.434 . S
C880 C881 1.369 . S
C880 C882 1.419 1_655 S
C880 H884 0.930 . S
C881 C880 1.369 . S
C881 C890 1.429 . S
C882 C880 1.419 1_455 S
C882 C883 1.363 . S
C882 H885 0.929 . S
C883 C882 1.363 . S
C883 C889 1.466 . S
H884 C880 0.930 . S
H885 C882 0.929 . S
S886 N887 1.613 . S
S886 N888 1.610 . S
N887 S886 1.613 . S
N887 C890 1.350 . S
N888 S886 1.610 . S
N888 C889 1.329 1_655 S
C889 C883 1.466 . S
C889 N888 1.329 1_455 S
C889 C890 1.415 1_455 S
C890 C881 1.429 . S
C890 N887 1.350 . S
C890 C889 1.415 1_655 S
C891 C892 1.369 . S
C891 C893 1.419 1_655 S
C891 H895 0.930 . S
C892 C891 1.369 . S
C892 C901 1.429 . S
C893 C891 1.419 1_455 S
C893 C894 1.363 . S
C893 H896 0.929 . S
C894 C893 1.363 . S
C894 C900 1.428 . S
H895 C891 0.930 . S
H896 C893 0.929 . S
S897 N898 1.613 . S
S897 N899 1.610 1_655 S
N898 S897 1.613 . S
N898 C901 1.350 . S
N899 S897 1.610 1_455 S
N899 C900 1.351 . S
C900 C894 1.428 . S
C900 N899 1.351 . S
C900 C901 1.434 1_455 S
C901 C892 1.429 . S
C901 N898 1.350 . S
C901 C900 1.434 1_655 S
C902 C903 1.369 . S
C902 C904 1.419 1_545 S
C902 H906 0.930 . S
C903 C902 1.369 . S
C903 C912 1.429 . S
C904 C902 1.419 1_565 S
C904 C905 1.363 . S
C904 H907 0.929 . S
C905 C904 1.363 . S
C905 C911 1.428 . S
H906 C902 0.930 . S
H907 C904 0.929 . S
S908 N909 1.613 1_565 S
S908 N910 1.610 . S
N909 S908 1.613 1_545 S
N909 C912 1.350 . S
N910 S908 1.610 . S
N910 C911 1.351 . S
C911 C905 1.428 . S
C911 N910 1.351 . S
C911 C912 1.434 1_565 S
C912 C903 1.429 . S
C912 N909 1.350 . S
C912 C911 1.434 1_545 S
C913 C914 1.369 . S
C913 C915 1.419 . S
C913 H917 0.930 . S
C914 C913 1.369 . S
C914 C923 1.429 . S
C915 C913 1.419 . S
C915 C916 1.363 . S
C915 H918 0.929 . S
C916 C915 1.363 . S
C916 C922 1.428 . S
H917 C913 0.930 . S
H918 C915 0.929 . S
S919 N920 1.613 . S
S919 N921 1.610 . S
N920 S919 1.613 . S
N920 C923 1.350 . S
N921 S919 1.610 . S
N921 C922 1.351 . S
C922 C916 1.428 . S
C922 N921 1.351 . S
C922 C923 1.434 . S
C923 C914 1.429 . S
C923 N920 1.350 . S
C923 C922 1.434 . S
C924 C925 1.369 . S
C924 C926 1.419 . S
C924 H928 0.930 . S
C925 C924 1.369 . S
C925 C934 1.429 . S
C926 C924 1.419 . S
C926 C927 1.363 . S
C926 H929 0.929 . S
C927 C926 1.363 . S
C927 C933 1.428 . S
H928 C924 0.930 . S
H929 C926 0.929 . S
S930 N931 1.613 . S
S930 N932 1.610 . S
N931 S930 1.613 . S
N931 C934 1.350 . S
N932 S930 1.610 . S
N932 C933 1.351 . S
C933 C927 1.428 . S
C933 N932 1.351 . S
C933 C934 1.434 . S
C934 C925 1.429 . S
C934 N931 1.350 . S
C934 C933 1.434 . S
C935 C936 1.369 . S
C935 C937 1.419 . S
C935 H939 0.930 . S
C936 C935 1.369 . S
C936 C945 1.429 . S
C937 C935 1.419 . S
C937 C938 1.363 . S
C937 H940 0.929 . S
C938 C937 1.363 . S
C938 C944 1.428 . S
H939 C935 0.930 . S
H940 C937 0.929 . S
S941 N942 1.613 . S
S941 N943 1.610 . S
N942 S941 1.613 . S
N942 C945 1.350 . S
N943 S941 1.610 . S
N943 C944 1.351 . S
C944 C938 1.428 . S
C944 N943 1.351 . S
C944 C945 1.434 . S
C945 C936 1.429 . S
C945 N942 1.350 . S
C945 C944 1.434 . S
C946 C947 1.369 . S
C946 C948 1.419 . S
C946 H950 0.930 . S
C947 C946 1.369 . S
C947 C956 1.429 . S
C948 C946 1.419 . S
C948 C949 1.363 . S
C948 H951 0.929 . S
C949 C948 1.363 . S
C949 C955 1.428 . S
H950 C946 0.930 . S
H951 C948 0.929 . S
S952 N953 1.613 . S
S952 N954 1.610 . S
N953 S952 1.613 . S
N953 C956 1.350 . S
N954 S952 1.610 . S
N954 C955 1.351 . S
C955 C949 1.428 . S
C955 N954 1.351 . S
C955 C956 1.434 . S
C956 C947 1.429 . S
C956 N953 1.350 . S
C956 C955 1.434 . S
C957 C958 1.369 . S
C957 C959 1.419 . S
C957 H961 0.930 . S
C958 C957 1.369 . S
C958 C967 1.429 . S
C959 C957 1.419 . S
C959 C960 1.363 . S
C959 H962 0.929 . S
C960 C959 1.363 . S
C960 C966 1.428 . S
H961 C957 0.930 . S
H962 C959 0.929 . S
S963 N964 1.613 . S
S963 N965 1.610 . S
N964 S963 1.613 . S
N964 C967 1.350 . S
N965 S963 1.610 . S
N965 C966 1.351 . S
C966 C960 1.428 . S
C966 N965 1.351 . S
C966 C967 1.434 . S
C967 C958 1.429 . S
C967 N964 1.350 . S
C967 C966 1.434 . S
C968 C969 1.369 . S
C968 C970 1.419 . S
C968 H972 0.930 . S
C969 C968 1.369 . S
C969 C978 1.429 . S
C970 C968 1.419 . S
C970 C971 1.363 . S
C970 H973 0.929 . S
C971 C970 1.363 . S
C971 C977 1.428 . S
H972 C968 0.930 . S
H973 C970 0.929 . S
S974 N975 1.613 . S
S974 N976 1.610 . S
N975 S974 1.613 . S
N975 C978 1.350 . S
N976 S974 1.610 . S
N976 C977 1.351 . S
C977 C971 1.428 . S
C977 N976 1.351 . S
C977 C978 1.434 . S
C978 C969 1.429 . S
C978 N975 1.350 . S
C978 C977 1.434 . S
C979 C980 1.369 . S
C979 C981 1.419 . S
C979 H983 0.930 . S
C980 C979 1.369 . S
C980 C989 1.429 . S
C981 C979 1.419 . S
C981 C982 1.363 . S
C981 H984 0.929 . S
C982 C981 1.363 . S
C982 C988 1.428 . S
H983 C979 0.930 . S
H984 C981 0.929 . S
S985 N986 1.613 . S
S985 N987 1.610 . S
N986 S985 1.613 . S
N986 C989 1.350 . S
N987 S985 1.610 . S
N987 C988 1.351 . S
C988 C982 1.428 . S
C988 N987 1.351 . S
C988 C989 1.434 . S
C989 C980 1.429 . S
C989 N986 1.350 . S
C989 C988 1.434 . S
C990 C991 1.369 . S
C990 C992 1.419 . S
C990 H994 0.930 . S
C991 C990 1.369 . S
C991 C1000 1.429 . S
C992 C990 1.419 . S
C992 C993 1.363 . S
C992 H995 0.929 . S
C993 C992 1.363 . S
C993 C999 1.428 . S
H994 C990 0.930 . S
H995 C992 0.929 . S
S996 N997 1.613 . S
S996 N998 1.610 . S
N997 S996 1.613 . S
N997 C1000 1.350 . S
N998 S996 1.610 . S
N998 C999 1.351 . S
C999 C993 1.428 . S
C999 N998 1.351 . S
C999 C1000 1.434 . S
C1000 C991 1.429 . S
C1000 N997 1.350 . S
C1000 C999 1.434 . S
C1001 C1002 1.369 . S
C1001 C1003 1.419 . S
C1001 H1005 0.930 . S
C1002 C1001 1.369 . S
C1002 C1011 1.429 . S
C1003 C1001 1.419 . S
C1003 C1004 1.363 . S
C1003 H1006 0.929 . S
C1004 C1003 1.363 . S
C1004 C1010 1.428 . S
H1005 C1001 0.930 . S
H1006 C1003 0.929 . S
S1007 N1008 1.613 . S
S1007 N1009 1.610 . S
N1008 S1007 1.613 . S
N1008 C1011 1.350 . S
N1009 S1007 1.610 . S
N1009 C1010 1.351 . S
C1010 C1004 1.428 . S
C1010 N1009 1.351 . S
C1010 C1011 1.434 . S
C1011 C1002 1.429 . S
C1011 N1008 1.350 . S
C1011 C1010 1.434 . S
C1012 C1013 1.369 . S
C1012 C1014 1.419 . S
C1012 H1016 0.930 . S
C1013 C1012 1.369 . S
C1013 C1022 1.429 . S
C1014 C1012 1.419 . S
C1014 C1015 1.363 . S
C1014 H1017 0.929 . S
C1015 C1014 1.363 . S
C1015 C1021 1.428 . S
H1016 C1012 0.930 . S
H1017 C1014 0.929 . S
S1018 N1019 1.613 . S
S1018 N1020 1.610 . S
N1019 S1018 1.613 . S
N1019 C1022 1.350 . S
N1020 S1018 1.610 . S
N1020 C1021 1.351 . S
C1021 C1015 1.428 . S
C1021 N1020 1.351 . S
C1021 C1022 1.434 . S
C1022 C1013 1.429 . S
C1022 N1019 1.350 . S
C1022 C1021 1.434 . S
C1023 C1024 1.369 . S
C1023 C1025 1.419 . S
C1023 H1027 0.930 . S
C1024 C1023 1.369 . S
C1024 C1033 1.429 . S
C1025 C1023 1.419 . S
C1025 C1026 1.363 . S
C1025 H1028 0.929 . S
C1026 C1025 1.363 . S
C1026 C1032 1.428 . S
H1027 C1023 0.930 . S
H1028 C1025 0.929 . S
S1029 N1030 1.613 . S
S1029 N1031 1.610 . S
N1030 S1029 1.613 . S
N1030 C1033 1.350 . S
N1031 S1029 1.610 . S
N1031 C1032 1.351 . S
C1032 C1026 1.428 . S
C1032 N1031 1.351 . S
C1032 C1033 1.434 . S
C1033 C1024 1.429 . S
C1033 N1030 1.350 . S
C1033 C1032 1.434 . S
C1034 C1035 1.369 . S
C1034 C1036 1.419 . S
C1034 H1038 0.930 . S
C1035 C1034 1.369 . S
C1035 C1044 1.429 . S
C1036 C1034 1.419 . S
C1036 C1037 1.363 . S
C1036 H1039 0.929 . S
C1037 C1036 1.363 . S
C1037 C1043 1.428 . S
H1038 C1034 0.930 . S
H1039 C1036 0.929 . S
S1040 N1041 1.613 . S
S1040 N1042 1.610 . S
N1041 S1040 1.613 . S
N1041 C1044 1.350 . S
N1042 S1040 1.610 . S
N1042 C1043 1.351 . S
C1043 C1037 1.428 . S
C1043 N1042 1.351 . S
C1043 C1044 1.434 . S
C1044 C1035 1.429 . S
C1044 N1041 1.350 . S
C1044 C1043 1.434 . S
C1045 C1046 1.369 . S
C1045 C1047 1.419 . S
C1045 H1049 0.930 . S
C1046 C1045 1.369 . S
C1046 C1055 1.429 . S
C1047 C1045 1.419 . S
C1047 C1048 1.363 . S
C1047 H1050 0.929 . S
C1048 C1047 1.363 . S
C1048 C1054 1.428 . S
H1049 C1045 0.930 . S
H1050 C1047 0.929 . S
S1051 N1052 1.613 . S
S1051 N1053 1.610 . S
N1052 S1051 1.613 . S
N1052 C1055 1.350 . S
N1053 S1051 1.610 . S
N1053 C1054 1.351 . S
C1054 C1048 1.428 . S
C1054 N1053 1.351 . S
C1054 C1055 1.434 . S
C1055 C1046 1.429 . S
C1055 N1052 1.350 . S
C1055 C1054 1.434 . S
C1056 C1057 1.369 . S
C1056 C1058 1.419 1_545 S
C1056 H1060 0.930 . S
C1057 C1056 1.369 . S
C1057 C1066 1.429 . S
C1058 C1056 1.419 1_565 S
C1058 C1059 1.363 . S
C1058 H1061 0.929 . S
C1059 C1058 1.363 . S
C1059 C1065 1.428 . S
H1060 C1056 0.930 . S
H1061 C1058 0.929 . S
S1062 N1063 1.613 . S
S1062 N1064 1.610 . S
N1063 S1062 1.613 . S
N1063 C1066 1.350 1_565 S
N1064 S1062 1.610 . S
N1064 C1065 1.351 . S
C1065 C1059 1.428 . S
C1065 N1064 1.351 . S
C1065 C1066 1.434 1_565 S
C1066 C1057 1.429 . S
C1066 N1063 1.350 1_545 S
C1066 C1065 1.434 1_545 S
C1067 C1068 1.369 . S
C1067 C1069 1.419 . S
C1067 H1071 0.930 . S
C1068 C1067 1.369 . S
C1068 C1077 1.429 . S
C1069 C1067 1.419 . S
C1069 C1070 1.363 . S
C1069 H1072 0.929 . S
C1070 C1069 1.363 . S
C1070 C1076 1.428 . S
H1071 C1067 0.930 . S
H1072 C1069 0.929 . S
S1073 N1074 1.613 . S
S1073 N1075 1.610 . S
N1074 S1073 1.613 . S
N1074 C1077 1.350 . S
N1075 S1073 1.610 . S
N1075 C1076 1.351 . S
C1076 C1070 1.428 . S
C1076 N1075 1.351 . S
C1076 C1077 1.434 . S
C1077 C1068 1.429 . S
C1077 N1074 1.350 . S
C1077 C1076 1.434 . S
C1078 C1079 1.369 . S
C1078 C1080 1.421 1_455 S
C1078 H1082 0.930 . S
C1079 C1078 1.369 . S
C1079 C1088 1.429 1_455 S
C1080 C1078 1.421 1_655 S
C1080 C1081 1.361 . S
C1080 H1083 0.929 1_655 S
C1081 C1080 1.361 . S
C1081 C1087 1.428 . S
H1082 C1078 0.930 . S
H1083 C1080 0.929 1_455 S
S1084 N1085 1.613 . S
S1084 N1086 1.610 . S
N1085 S1084 1.613 . S
N1085 C1088 1.350 . S
N1086 S1084 1.610 . S
N1086 C1087 1.351 . S
C1087 C1081 1.428 . S
C1087 N1086 1.351 . S
C1087 C1088 1.434 . S
C1088 C1079 1.429 1_655 S
C1088 N1085 1.350 . S
C1088 C1087 1.434 . S
C1089 C1090 1.369 . S
C1089 C1091 1.419 1_565 S
C1089 H1093 0.930 . S
C1090 C1089 1.369 . S
C1090 C1099 1.429 . S
C1091 C1089 1.419 1_545 S
C1091 C1092 1.363 . S
C1091 H1094 0.929 . S
C1092 C1091 1.363 . S
C1092 C1098 1.428 . S
H1093 C1089 0.930 . S
H1094 C1091 0.929 . S
S1095 N1096 1.613 1_545 S
S1095 N1097 1.610 . S
N1096 S1095 1.613 1_565 S
N1096 C1099 1.350 . S
N1097 S1095 1.610 . S
N1097 C1098 1.351 . S
C1098 C1092 1.428 . S
C1098 N1097 1.351 . S
C1098 C1099 1.434 1_545 S
C1099 C1090 1.429 . S
C1099 N1096 1.350 . S
C1099 C1098 1.434 1_565 S
C1100 C1101 1.369 . S
C1100 C1102 1.419 . S
C1100 H1104 0.930 . S
C1101 C1100 1.369 . S
C1101 C1110 1.429 . S
C1102 C1100 1.419 . S
C1102 C1103 1.363 . S
C1102 H1105 0.929 . S
C1103 C1102 1.363 . S
C1103 C1109 1.428 . S
H1104 C1100 0.930 . S
H1105 C1102 0.929 . S
S1106 N1107 1.613 . S
S1106 N1108 1.610 . S
N1107 S1106 1.613 . S
N1107 C1110 1.350 . S
N1108 S1106 1.610 . S
N1108 C1109 1.351 . S
C1109 C1103 1.428 . S
C1109 N1108 1.351 . S
C1109 C1110 1.434 . S
C1110 C1101 1.429 . S
C1110 N1107 1.350 . S
C1110 C1109 1.434 . S
C1111 C1112 1.369 . S
C1111 C1113 1.419 1_655 S
C1111 H1115 0.930 . S
C1112 C1111 1.369 . S
C1112 C1121 1.429 . S
C1113 C1111 1.419 1_455 S
C1113 C1114 1.363 . S
C1113 H1116 0.929 . S
C1114 C1113 1.363 . S
C1114 C1120 1.449 . S
H1115 C1111 0.930 . S
H1116 C1113 0.929 . S
S1117 N1118 1.613 . S
S1117 N1119 1.610 . S
N1118 S1117 1.613 . S
N1118 C1121 1.350 . S
N1119 S1117 1.610 . S
N1119 C1120 1.359 1_655 S
C1120 C1114 1.449 . S
C1120 N1119 1.359 1_455 S
C1120 C1121 1.405 1_455 S
C1121 C1112 1.429 . S
C1121 N1118 1.350 . S
C1121 C1120 1.405 1_655 S
C1122 C1123 1.369 . S
C1122 C1124 1.419 1_565 S
C1122 H1126 0.930 . S
C1123 C1122 1.369 . S
C1123 C1132 1.429 . S
C1124 C1122 1.419 1_545 S
C1124 C1125 1.363 . S
C1124 H1127 0.929 . S
C1125 C1124 1.363 . S
C1125 C1131 1.428 . S
H1126 C1122 0.930 . S
H1127 C1124 0.929 . S
S1128 N1129 1.613 . S
S1128 N1130 1.593 1_565 S
N1129 S1128 1.613 . S
N1129 C1132 1.350 . S
N1130 S1128 1.593 1_545 S
N1130 C1131 1.344 . S
C1131 C1125 1.428 . S
C1131 N1130 1.344 . S
C1131 C1132 1.434 1_545 S
C1132 C1123 1.429 . S
C1132 N1129 1.350 . S
C1132 C1131 1.434 1_565 S
C1133 C1134 1.369 . S
C1133 C1135 1.419 . S
C1133 H1137 0.930 . S
C1134 C1133 1.369 . S
C1134 C1143 1.429 . S
C1135 C1133 1.419 . S
C1135 C1136 1.363 . S
C1135 H1138 0.929 . S
C1136 C1135 1.363 . S
C1136 C1142 1.428 . S
H1137 C1133 0.930 . S
H1138 C1135 0.929 . S
S1139 N1140 1.613 . S
S1139 N1141 1.610 . S
N1140 S1139 1.613 . S
N1140 C1143 1.350 . S
N1141 S1139 1.610 . S
N1141 C1142 1.351 . S
C1142 C1136 1.428 . S
C1142 N1141 1.351 . S
C1142 C1143 1.434 . S
C1143 C1134 1.429 . S
C1143 N1140 1.350 . S
C1143 C1142 1.434 . S
C1144 C1145 1.369 . S
C1144 C1146 1.419 1_455 S
C1144 H1148 0.930 . S
C1145 C1144 1.369 . S
C1145 C1154 1.429 . S
C1146 C1144 1.419 1_655 S
C1146 C1147 1.363 . S
C1146 H1149 0.929 . S
C1147 C1146 1.363 . S
C1147 C1153 1.428 . S
H1148 C1144 0.930 . S
H1149 C1146 0.929 . S
S1150 N1151 1.613 1_655 S
S1150 N1152 1.610 . S
N1151 S1150 1.613 1_455 S
N1151 C1154 1.350 . S
N1152 S1150 1.610 . S
N1152 C1153 1.351 . S
C1153 C1147 1.428 . S
C1153 N1152 1.351 . S
C1153 C1154 1.434 1_655 S
C1154 C1145 1.429 . S
C1154 N1151 1.350 . S
C1154 C1153 1.434 1_455 S
C1155 C1156 1.369 . S
C1155 C1157 1.400 1_545 S
C1155 H1159 0.930 . S
C1156 C1155 1.369 . S
C1156 C1165 1.415 1_545 S
C1157 C1155 1.400 1_565 S
C1157 C1158 1.386 . S
C1157 H1160 0.924 1_565 S
C1158 C1157 1.386 . S
C1158 C1164 1.428 . S
H1159 C1155 0.930 . S
H1160 C1157 0.924 1_545 S
S1161 N1162 1.613 . S
S1161 N1163 1.610 . S
N1162 S1161 1.613 . S
N1162 C1165 1.354 . S
N1163 S1161 1.610 . S
N1163 C1164 1.351 . S
C1164 C1158 1.428 . S
C1164 N1163 1.351 . S
C1164 C1165 1.445 . S
C1165 C1156 1.415 1_565 S
C1165 N1162 1.354 . S
C1165 C1164 1.445 . S
C1166 C1167 1.369 . S
C1166 C1168 1.419 . S
C1166 H1170 0.930 . S
C1167 C1166 1.369 . S
C1167 C1176 1.429 . S
C1168 C1166 1.419 . S
C1168 C1169 1.363 . S
C1168 H1171 0.929 . S
C1169 C1168 1.363 . S
C1169 C1175 1.428 . S
H1170 C1166 0.930 . S
H1171 C1168 0.929 . S
S1172 N1173 1.613 . S
S1172 N1174 1.610 . S
N1173 S1172 1.613 . S
N1173 C1176 1.350 . S
N1174 S1172 1.610 . S
N1174 C1175 1.351 . S
C1175 C1169 1.428 . S
C1175 N1174 1.351 . S
C1175 C1176 1.434 . S
C1176 C1167 1.429 . S
C1176 N1173 1.350 . S
C1176 C1175 1.434 . S
C1177 C1178 1.369 . S
C1177 C1179 1.419 1_455 S
C1177 H1181 0.930 . S
C1178 C1177 1.369 . S
C1178 C1187 1.429 . S
C1179 C1177 1.419 1_655 S
C1179 C1180 1.363 . S
C1179 H1182 0.929 . S
C1180 C1179 1.363 . S
C1180 C1186 1.428 . S
H1181 C1177 0.930 . S
H1182 C1179 0.929 . S
S1183 N1184 1.613 1_655 S
S1183 N1185 1.610 . S
N1184 S1183 1.613 1_455 S
N1184 C1187 1.350 . S
N1185 S1183 1.610 . S
N1185 C1186 1.351 . S
C1186 C1180 1.428 . S
C1186 N1185 1.351 . S
C1186 C1187 1.434 1_655 S
C1187 C1178 1.429 . S
C1187 N1184 1.350 . S
C1187 C1186 1.434 1_455 S
C1188 C1189 1.369 . S
C1188 C1190 1.419 . S
C1188 H1192 0.930 . S
C1189 C1188 1.369 . S
C1189 C1198 1.429 . S
C1190 C1188 1.419 . S
C1190 C1191 1.363 . S
C1190 H1193 0.929 . S
C1191 C1190 1.363 . S
C1191 C1197 1.428 . S
H1192 C1188 0.930 . S
H1193 C1190 0.929 . S
S1194 N1195 1.613 . S
S1194 N1196 1.610 . S
N1195 S1194 1.613 . S
N1195 C1198 1.350 . S
N1196 S1194 1.610 . S
N1196 C1197 1.351 . S
C1197 C1191 1.428 . S
C1197 N1196 1.351 . S
C1197 C1198 1.434 . S
C1198 C1189 1.429 . S
C1198 N1195 1.350 . S
C1198 C1197 1.434 . S
C1199 C1200 1.369 . S
C1199 C1201 1.419 . S
C1199 H1203 0.930 . S
C1200 C1199 1.369 . S
C1200 C1209 1.429 . S
C1201 C1199 1.419 . S
C1201 C1202 1.363 . S
C1201 H1204 0.929 . S
C1202 C1201 1.363 . S
C1202 C1208 1.428 . S
H1203 C1199 0.930 . S
H1204 C1201 0.929 . S
S1205 N1206 1.613 . S
S1205 N1207 1.610 . S
N1206 S1205 1.613 . S
N1206 C1209 1.350 . S
N1207 S1205 1.610 . S
N1207 C1208 1.351 . S
C1208 C1202 1.428 . S
C1208 N1207 1.351 . S
C1208 C1209 1.434 . S
C1209 C1200 1.429 . S
C1209 N1206 1.350 . S
C1209 C1208 1.434 . S
C1210 C1211 1.369 . S
C1210 C1212 1.419 . S
C1210 H1214 0.930 . S
C1211 C1210 1.369 . S
C1211 C1220 1.429 . S
C1212 C1210 1.419 . S
C1212 C1213 1.363 . S
C1212 H1215 0.929 . S
C1213 C1212 1.363 . S
C1213 C1219 1.428 . S
H1214 C1210 0.930 . S
H1215 C1212 0.929 . S
S1216 N1217 1.613 . S
S1216 N1218 1.610 . S
N1217 S1216 1.613 . S
N1217 C1220 1.350 . S
N1218 S1216 1.610 . S
N1218 C1219 1.351 . S
C1219 C1213 1.428 . S
C1219 N1218 1.351 . S
C1219 C1220 1.434 . S
C1220 C1211 1.429 . S
C1220 N1217 1.350 . S
C1220 C1219 1.434 . S
C1221 C1222 1.369 . S
C1221 C1223 1.419 . S
C1221 H1225 0.930 . S
C1222 C1221 1.369 . S
C1222 C1231 1.429 . S
C1223 C1221 1.419 . S
C1223 C1224 1.363 . S
C1223 H1226 0.929 . S
C1224 C1223 1.363 . S
C1224 C1230 1.428 . S
H1225 C1221 0.930 . S
H1226 C1223 0.929 . S
S1227 N1228 1.613 . S
S1227 N1229 1.610 . S
N1228 S1227 1.613 . S
N1228 C1231 1.350 . S
N1229 S1227 1.610 . S
N1229 C1230 1.351 . S
C1230 C1224 1.428 . S
C1230 N1229 1.351 . S
C1230 C1231 1.434 . S
C1231 C1222 1.429 . S
C1231 N1228 1.350 . S
C1231 C1230 1.434 . S
C1232 C1233 1.369 . S
C1232 C1234 1.419 . S
C1232 H1236 0.930 . S
C1233 C1232 1.369 . S
C1233 C1242 1.429 . S
C1234 C1232 1.419 . S
C1234 C1235 1.363 . S
C1234 H1237 0.929 . S
C1235 C1234 1.363 . S
C1235 C1241 1.428 . S
H1236 C1232 0.930 . S
H1237 C1234 0.929 . S
S1238 N1239 1.613 . S
S1238 N1240 1.610 . S
N1239 S1238 1.613 . S
N1239 C1242 1.350 . S
N1240 S1238 1.610 . S
N1240 C1241 1.351 . S
C1241 C1235 1.428 . S
C1241 N1240 1.351 . S
C1241 C1242 1.434 . S
C1242 C1233 1.429 . S
C1242 N1239 1.350 . S
C1242 C1241 1.434 . S
C1243 C1244 1.369 . S
C1243 C1245 1.419 . S
C1243 H1247 0.930 . S
C1244 C1243 1.369 . S
C1244 C1253 1.429 . S
C1245 C1243 1.419 . S
C1245 C1246 1.363 . S
C1245 H1248 0.929 . S
C1246 C1245 1.363 . S
C1246 C1252 1.428 . S
H1247 C1243 0.930 . S
H1248 C1245 0.929 . S
S1249 N1250 1.613 . S
S1249 N1251 1.610 . S
N1250 S1249 1.613 . S
N1250 C1253 1.350 . S
N1251 S1249 1.610 . S
N1251 C1252 1.351 . S
C1252 C1246 1.428 . S
C1252 N1251 1.351 . S
C1252 C1253 1.434 . S
C1253 C1244 1.429 . S
C1253 N1250 1.350 . S
C1253 C1252 1.434 . S
C1254 C1255 1.369 . S
C1254 C1256 1.419 . S
C1254 H1258 0.930 . S
C1255 C1254 1.369 . S
C1255 C1264 1.429 . S
C1256 C1254 1.419 . S
C1256 C1257 1.363 . S
C1256 H1259 0.929 . S
C1257 C1256 1.363 . S
C1257 C1263 1.428 . S
H1258 C1254 0.930 . S
H1259 C1256 0.929 . S
S1260 N1261 1.613 . S
S1260 N1262 1.610 . S
N1261 S1260 1.613 . S
N1261 C1264 1.350 . S
N1262 S1260 1.610 . S
N1262 C1263 1.351 . S
C1263 C1257 1.428 . S
C1263 N1262 1.351 . S
C1263 C1264 1.434 . S
C1264 C1255 1.429 . S
C1264 N1261 1.350 . S
C1264 C1263 1.434 . S
C1265 C1266 1.369 . S
C1265 C1267 1.419 . S
C1265 H1269 0.930 . S
C1266 C1265 1.369 . S
C1266 C1275 1.429 . S
C1267 C1265 1.419 . S
C1267 C1268 1.363 . S
C1267 H1270 0.929 . S
C1268 C1267 1.363 . S
C1268 C1274 1.428 . S
H1269 C1265 0.930 . S
H1270 C1267 0.929 . S
S1271 N1272 1.613 . S
S1271 N1273 1.610 . S
N1272 S1271 1.613 . S
N1272 C1275 1.350 . S
N1273 S1271 1.610 . S
N1273 C1274 1.351 . S
C1274 C1268 1.428 . S
C1274 N1273 1.351 . S
C1274 C1275 1.434 . S
C1275 C1266 1.429 . S
C1275 N1272 1.350 . S
C1275 C1274 1.434 . S
C1276 C1277 1.369 . S
C1276 C1278 1.419 . S
C1276 H1280 0.930 . S
C1277 C1276 1.369 . S
C1277 C1286 1.429 . S
C1278 C1276 1.419 . S
C1278 C1279 1.363 . S
C1278 H1281 0.929 . S
C1279 C1278 1.363 . S
C1279 C1285 1.428 . S
H1280 C1276 0.930 . S
H1281 C1278 0.929 . S
S1282 N1283 1.613 . S
S1282 N1284 1.610 . S
N1283 S1282 1.613 . S
N1283 C1286 1.350 . S
N1284 S1282 1.610 . S
N1284 C1285 1.351 . S
C1285 C1279 1.428 . S
C1285 N1284 1.351 . S
C1285 C1286 1.434 . S
C1286 C1277 1.429 . S
C1286 N1283 1.350 . S
C1286 C1285 1.434 . S
C1287 C1288 1.369 . S
C1287 C1289 1.419 . S
C1287 H1291 0.930 . S
C1288 C1287 1.369 . S
C1288 C1297 1.429 . S
C1289 C1287 1.419 . S
C1289 C1290 1.363 . S
C1289 H1292 0.929 . S
C1290 C1289 1.363 . S
C1290 C1296 1.428 . S
H1291 C1287 0.930 . S
H1292 C1289 0.929 . S
S1293 N1294 1.613 . S
S1293 N1295 1.610 . S
N1294 S1293 1.613 . S
N1294 C1297 1.350 . S
N1295 S1293 1.610 . S
N1295 C1296 1.351 . S
C1296 C1290 1.428 . S
C1296 N1295 1.351 . S
C1296 C1297 1.434 . S
C1297 C1288 1.429 . S
C1297 N1294 1.350 . S
C1297 C1296 1.434 . S
C1298 C1299 1.369 . S
C1298 C1300 1.419 . S
C1298 H1302 0.930 . S
C1299 C1298 1.369 . S
C1299 C1308 1.429 . S
C1300 C1298 1.419 . S
C1300 C1301 1.363 . S
C1300 H1303 0.929 . S
C1301 C1300 1.363 . S
C1301 C1307 1.428 . S
H1302 C1298 0.930 . S
H1303 C1300 0.929 . S
S1304 N1305 1.613 . S
S1304 N1306 1.610 . S
N1305 S1304 1.613 . S
N1305 C1308 1.350 . S
N1306 S1304 1.610 . S
N1306 C1307 1.351 . S
C1307 C1301 1.428 . S
C1307 N1306 1.351 . S
C1307 C1308 1.434 . S
C1308 C1299 1.429 . S
C1308 N1305 1.350 . S
C1308 C1307 1.434 . S
C1309 C1310 1.369 . S
C1309 C1311 1.419 . S
C1309 H1313 0.930 . S
C1310 C1309 1.369 . S
C1310 C1319 1.429 . S
C1311 C1309 1.419 . S
C1311 C1312 1.363 . S
C1311 H1314 0.929 . S
C1312 C1311 1.363 . S
C1312 C1318 1.428 . S
H1313 C1309 0.930 . S
H1314 C1311 0.929 . S
S1315 N1316 1.613 . S
S1315 N1317 1.610 . S
N1316 S1315 1.613 . S
N1316 C1319 1.350 . S
N1317 S1315 1.610 . S
N1317 C1318 1.351 . S
C1318 C1312 1.428 . S
C1318 N1317 1.351 . S
C1318 C1319 1.434 . S
C1319 C1310 1.429 . S
C1319 N1316 1.350 . S
C1319 C1318 1.434 . S
C1320 C1321 1.369 . S
C1320 C1322 1.419 1_554 S
C1320 H1324 0.930 . S
C1321 C1320 1.369 . S
C1321 C1330 1.429 . S
C1322 C1320 1.419 1_556 S
C1322 C1323 1.363 . S
C1322 H1325 0.929 . S
C1323 C1322 1.363 . S
C1323 C1329 1.428 . S
H1324 C1320 0.930 . S
H1325 C1322 0.929 . S
S1326 N1327 1.615 1_556 S
S1326 N1328 1.608 . S
N1327 S1326 1.615 1_554 S
N1327 C1330 1.350 . S
N1328 S1326 1.608 . S
N1328 C1329 1.351 . S
C1329 C1323 1.428 . S
C1329 N1328 1.351 . S
C1329 C1330 1.434 1_556 S
C1330 C1321 1.429 . S
C1330 N1327 1.350 . S
C1330 C1329 1.434 1_554 S
C1331 C1332 1.369 . S
C1331 C1333 1.419 1_554 S
C1331 H1335 0.930 . S
C1332 C1331 1.369 . S
C1332 C1341 1.429 . S
C1333 C1331 1.419 1_556 S
C1333 C1334 1.363 . S
C1333 H1336 0.929 . S
C1334 C1333 1.363 . S
C1334 C1340 1.428 . S
H1335 C1331 0.930 . S
H1336 C1333 0.929 . S
S1337 N1338 1.615 1_556 S
S1337 N1339 1.608 . S
N1338 S1337 1.615 1_554 S
N1338 C1341 1.350 . S
N1339 S1337 1.608 . S
N1339 C1340 1.351 . S
C1340 C1334 1.428 . S
C1340 N1339 1.351 . S
C1340 C1341 1.434 1_556 S
C1341 C1332 1.429 . S
C1341 N1338 1.350 . S
C1341 C1340 1.434 1_554 S
C1342 C1343 1.369 . S
C1342 C1344 1.419 1_554 S
C1342 H1346 0.930 . S
C1343 C1342 1.369 . S
C1343 C1352 1.429 . S
C1344 C1342 1.419 1_556 S
C1344 C1345 1.363 . S
C1344 H1347 0.929 . S
C1345 C1344 1.363 . S
C1345 C1351 1.428 . S
H1346 C1342 0.930 . S
H1347 C1344 0.929 . S
S1348 N1349 1.615 1_556 S
S1348 N1350 1.608 . S
N1349 S1348 1.615 1_554 S
N1349 C1352 1.350 . S
N1350 S1348 1.608 . S
N1350 C1351 1.351 . S
C1351 C1345 1.428 . S
C1351 N1350 1.351 . S
C1351 C1352 1.434 1_556 S
C1352 C1343 1.429 . S
C1352 N1349 1.350 . S
C1352 C1351 1.434 1_554 S
C1353 C1354 1.369 . S
C1353 C1355 1.419 1_554 S
C1353 H1357 0.930 . S
C1354 C1353 1.369 . S
C1354 C1363 1.429 . S
C1355 C1353 1.419 1_556 S
C1355 C1356 1.363 . S
C1355 H1358 0.929 . S
C1356 C1355 1.363 . S
C1356 C1362 1.428 . S
H1357 C1353 0.930 . S
H1358 C1355 0.929 . S
S1359 N1360 1.615 1_556 S
S1359 N1361 1.608 . S
N1360 S1359 1.615 1_554 S
N1360 C1363 1.350 . S
N1361 S1359 1.608 . S
N1361 C1362 1.351 . S
C1362 C1356 1.428 . S
C1362 N1361 1.351 . S
C1362 C1363 1.434 1_556 S
C1363 C1354 1.429 . S
C1363 N1360 1.350 . S
C1363 C1362 1.434 1_554 S
C1364 C1365 1.369 . S
C1364 C1366 1.419 1_554 S
C1364 H1368 0.930 . S
C1365 C1364 1.369 . S
C1365 C1374 1.429 . S
C1366 C1364 1.419 1_556 S
C1366 C1367 1.363 . S
C1366 H1369 0.929 . S
C1367 C1366 1.363 . S
C1367 C1373 1.428 . S
H1368 C1364 0.930 . S
H1369 C1366 0.929 . S
S1370 N1371 1.615 1_556 S
S1370 N1372 1.608 . S
N1371 S1370 1.615 1_554 S
N1371 C1374 1.350 . S
N1372 S1370 1.608 . S
N1372 C1373 1.351 . S
C1373 C1367 1.428 . S
C1373 N1372 1.351 . S
C1373 C1374 1.434 1_556 S
C1374 C1365 1.429 . S
C1374 N1371 1.350 . S
C1374 C1373 1.434 1_554 S
C1375 C1376 1.369 . S
C1375 C1377 1.419 1_556 S
C1375 H1379 0.930 . S
C1376 C1375 1.369 . S
C1376 C1385 1.429 . S
C1377 C1375 1.419 1_554 S
C1377 C1378 1.363 . S
C1377 H1380 0.929 . S
C1378 C1377 1.363 . S
C1378 C1384 1.428 . S
H1379 C1375 0.930 . S
H1380 C1377 0.929 . S
S1381 N1382 1.615 1_554 S
S1381 N1383 1.608 . S
N1382 S1381 1.615 1_556 S
N1382 C1385 1.350 . S
N1383 S1381 1.608 . S
N1383 C1384 1.351 . S
C1384 C1378 1.428 . S
C1384 N1383 1.351 . S
C1384 C1385 1.434 1_554 S
C1385 C1376 1.429 . S
C1385 N1382 1.350 . S
C1385 C1384 1.434 1_556 S
C1386 C1387 1.369 . S
C1386 C1388 1.419 . S
C1386 H1390 0.930 . S
C1387 C1386 1.369 . S
C1387 C1396 1.429 . S
C1388 C1386 1.419 . S
C1388 C1389 1.363 . S
C1388 H1391 0.929 . S
C1389 C1388 1.363 . S
C1389 C1395 1.428 . S
H1390 C1386 0.930 . S
H1391 C1388 0.929 . S
S1392 N1393 1.613 . S
S1392 N1394 1.610 . S
N1393 S1392 1.613 . S
N1393 C1396 1.350 . S
N1394 S1392 1.610 . S
N1394 C1395 1.351 . S
C1395 C1389 1.428 . S
C1395 N1394 1.351 . S
C1395 C1396 1.434 . S
C1396 C1387 1.429 . S
C1396 N1393 1.350 . S
C1396 C1395 1.434 . S
C1397 C1398 1.369 . S
C1397 C1399 1.419 . S
C1397 H1401 0.930 . S
C1398 C1397 1.369 . S
C1398 C1407 1.429 . S
C1399 C1397 1.419 . S
C1399 C1400 1.363 . S
C1399 H1402 0.929 . S
C1400 C1399 1.363 . S
C1400 C1406 1.428 . S
H1401 C1397 0.930 . S
H1402 C1399 0.929 . S
S1403 N1404 1.613 . S
S1403 N1405 1.610 . S
N1404 S1403 1.613 . S
N1404 C1407 1.350 . S
N1405 S1403 1.610 . S
N1405 C1406 1.351 . S
C1406 C1400 1.428 . S
C1406 N1405 1.351 . S
C1406 C1407 1.434 . S
C1407 C1398 1.429 . S
C1407 N1404 1.350 . S
C1407 C1406 1.434 . S
C1408 C1409 1.369 . S
C1408 C1410 1.419 . S
C1408 H1412 0.930 . S
C1409 C1408 1.369 . S
C1409 C1418 1.429 . S
C1410 C1408 1.419 . S
C1410 C1411 1.363 . S
C1410 H1413 0.929 . S
C1411 C1410 1.363 . S
C1411 C1417 1.428 . S
H1412 C1408 0.930 . S
H1413 C1410 0.929 . S
S1414 N1415 1.613 . S
S1414 N1416 1.610 . S
N1415 S1414 1.613 . S
N1415 C1418 1.350 . S
N1416 S1414 1.610 . S
N1416 C1417 1.351 . S
C1417 C1411 1.428 . S
C1417 N1416 1.351 . S
C1417 C1418 1.434 . S
C1418 C1409 1.429 . S
C1418 N1415 1.350 . S
C1418 C1417 1.434 . S
C1419 C1420 1.369 . S
C1419 C1421 1.419 . S
C1419 H1423 0.930 . S
C1420 C1419 1.369 . S
C1420 C1429 1.429 . S
C1421 C1419 1.419 . S
C1421 C1422 1.363 . S
C1421 H1424 0.929 . S
C1422 C1421 1.363 . S
C1422 C1428 1.428 . S
H1423 C1419 0.930 . S
H1424 C1421 0.929 . S
S1425 N1426 1.613 . S
S1425 N1427 1.610 . S
N1426 S1425 1.613 . S
N1426 C1429 1.350 . S
N1427 S1425 1.610 . S
N1427 C1428 1.351 . S
C1428 C1422 1.428 . S
C1428 N1427 1.351 . S
C1428 C1429 1.434 . S
C1429 C1420 1.429 . S
C1429 N1426 1.350 . S
C1429 C1428 1.434 . S
C1430 C1431 1.369 . S
C1430 C1432 1.419 . S
C1430 H1434 0.930 . S
C1431 C1430 1.369 . S
C1431 C1440 1.429 . S
C1432 C1430 1.419 . S
C1432 C1433 1.363 . S
C1432 H1435 0.929 . S
C1433 C1432 1.363 . S
C1433 C1439 1.428 . S
H1434 C1430 0.930 . S
H1435 C1432 0.929 . S
S1436 N1437 1.613 . S
S1436 N1438 1.610 . S
N1437 S1436 1.613 . S
N1437 C1440 1.350 . S
N1438 S1436 1.610 . S
N1438 C1439 1.351 . S
C1439 C1433 1.428 . S
C1439 N1438 1.351 . S
C1439 C1440 1.434 . S
C1440 C1431 1.429 . S
C1440 N1437 1.350 . S
C1440 C1439 1.434 . S
C1441 C1442 1.369 . S
C1441 C1443 1.419 . S
C1441 H1445 0.930 . S
C1442 C1441 1.369 . S
C1442 C1451 1.429 . S
C1443 C1441 1.419 . S
C1443 C1444 1.363 . S
C1443 H1446 0.929 . S
C1444 C1443 1.363 . S
C1444 C1450 1.428 . S
H1445 C1441 0.930 . S
H1446 C1443 0.929 . S
S1447 N1448 1.613 . S
S1447 N1449 1.610 . S
N1448 S1447 1.613 . S
N1448 C1451 1.350 . S
N1449 S1447 1.610 . S
N1449 C1450 1.351 . S
C1450 C1444 1.428 . S
C1450 N1449 1.351 . S
C1450 C1451 1.434 . S
C1451 C1442 1.429 . S
C1451 N1448 1.350 . S
C1451 C1450 1.434 . S
C793 N13 1.042 . S
C795 N112 1.043 . S
C804 N145 1.043 . S
C806 N46 1.044 . S
C815 N178 1.051 . S
C817 N79 1.050 . S
C826 N310 1.053 . S
C828 N211 1.051 . S
C837 N244 1.040 . S
C839 N343 1.042 . S
C848 N277 1.055 . S
C850 N376 1.053 . S
C859 N508 1.042 . S
C861 N409 1.044 . S
C870 N541 1.039 . S
C872 N442 1.040 . S
C881 N574 1.044 . S
C883 N475 1.046 . S
C892 N706 1.052 . S
C894 N607 1.051 . S
C903 N640 1.055 . S
C905 N739 1.052 . S
C914 N772 1.047 . S
C916 N673 1.046 . S
C925 N266 1.827 . S
C927 N2 1.826 . S
C936 N35 1.826 . S
C938 N299 1.826 . S
C947 N68 1.826 . S
C949 N332 1.826 . S
C958 N101 1.827 . S
C960 N365 1.826 . S
C969 N134 1.826 . S
C971 N200 1.827 . S
C980 N233 1.825 . S
C982 N167 1.827 . S
C991 N398 1.826 . S
C993 N662 1.827 . S
C1002 N695 1.826 . S
C1004 N431 1.826 . S
C1013 N728 1.826 . S
C1015 N464 1.827 . S
C1024 N497 1.826 . S
C1026 N761 1.827 . S
C1035 N596 1.826 . S
C1037 N530 1.827 . S
C1046 N629 1.825 . S
C1048 N563 1.826 . S
C1057 C21 0.985 . S
C1059 C252 0.986 . S
C1068 C54 0.983 . S
C1070 C285 0.983 . S
C1079 C318 0.988 . S
C1081 C87 0.989 . S
C1090 C120 0.983 . S
C1092 C351 0.985 . S
C1101 C384 0.993 . S
C1103 C153 0.991 . S
C1112 C219 0.982 . S
C1114 C186 0.982 . S
C1123 C417 0.986 . S
C1125 C648 0.984 . S
C1134 C450 0.985 . S
C1136 C681 0.987 . S
C1145 C483 0.990 . S
C1147 C714 0.991 . S
C1156 C516 0.981 . S
C1158 C747 0.984 . S
C1167 C549 0.980 . S
C1169 C780 0.981 . S
C1178 C615 0.990 . S
C1180 C582 0.991 . S
C1189 C7 1.340 . S
C1191 C337 1.336 . S
C1200 C370 1.338 . S
C1202 C40 1.342 . S
C1211 C205 1.341 . S
C1213 C73 1.342 . S
C1222 C238 1.343 . S
C1224 C106 1.341 . S
C1233 C139 1.343 . S
C1235 C271 1.339 . S
C1244 C172 1.341 . S
C1246 C304 1.342 . S
C1255 C403 1.334 . S
C1257 C733 1.340 . S
C1266 C766 1.342 . S
C1268 C436 1.342 . S
C1277 C601 1.338 . S
C1279 C469 1.342 . S
C1288 C502 1.334 . S
C1290 C634 1.337 . S
C1299 C535 1.343 . S
C1301 C667 1.340 . S
C1310 C700 1.334 . S
C1312 C568 1.336 . S
C1321 C18 1.244 . S
C1323 C513 1.244 . S
C1332 C51 1.243 . S
C1334 C546 1.243 . S
C1343 C84 1.247 . S
C1345 C579 1.246 . S
C1354 C117 1.247 . S
C1356 C414 1.247 . S
C1365 C150 1.243 . S
C1367 C447 1.243 . S
C1376 C480 1.247 . S
C1378 C183 1.247 . S
C1387 C216 1.247 . S
C1389 C711 1.246 . S
C1398 C249 1.247 . S
C1400 C744 1.246 . S
C1409 C282 1.247 . S
C1411 C777 1.247 . S
C1420 C315 1.244 . S
C1422 C612 1.244 . S
C1431 C348 1.247 . S
C1433 C645 1.246 . S
C1442 C678 1.247 . S
C1444 C381 1.246 . S
