# Generated by pormake.
# Topology ecv, (8)-cn, num edge types: 1
# Building blocks:
#     Node 0, Type 0, BuildingBlock: VETTIZ_charged_sbu_0, # of connection points: 8
#     Node 1, Type 0, BuildingBlock: VETTIZ_charged_sbu_0, # of connection points: 8
#     Node 2, Type 0, BuildingBlock: VETTIZ_charged_sbu_0, # of connection points: 8
#     Node 3, Type 0, BuildingBlock: VETTIZ_charged_sbu_0, # of connection points: 8
#     Node 4, Type 0, BuildingBlock: VETTIZ_charged_sbu_0, # of connection points: 8
#     Node 5, Type 0, BuildingBlock: VETTIZ_charged_sbu_0, # of connection points: 8
#     Node 6, Type 0, BuildingBlock: VETTIZ_charged_sbu_0, # of connection points: 8
#     Node 7, Type 0, BuildingBlock: VETTIZ_charged_sbu_0, # of connection points: 8
#     Node 8, Type 0, BuildingBlock: VETTIZ_charged_sbu_0, # of connection points: 8
#     Node 9, Type 0, BuildingBlock: VETTIZ_charged_sbu_0, # of connection points: 8
#     Node 10, Type 0, BuildingBlock: VETTIZ_charged_sbu_0, # of connection points: 8
#     Node 11, Type 0, BuildingBlock: VETTIZ_charged_sbu_0, # of connection points: 8
#     Node 12, Type 0, BuildingBlock: VETTIZ_charged_sbu_0, # of connection points: 8
#     Node 13, Type 0, BuildingBlock: VETTIZ_charged_sbu_0, # of connection points: 8
#     Node 14, Type 0, BuildingBlock: VETTIZ_charged_sbu_0, # of connection points: 8
#     Node 15, Type 0, BuildingBlock: VETTIZ_charged_sbu_0, # of connection points: 8
#     Edge 16, Type (0, 0), BuildingBlock: CIFDUS_clean_linker_0, # of connection points: 2
#     Edge 17, Type (0, 0), BuildingBlock: CIFDUS_clean_linker_0, # of connection points: 2
#     Edge 18, Type (0, 0), BuildingBlock: CIFDUS_clean_linker_0, # of connection points: 2
#     Edge 19, Type (0, 0), BuildingBlock: CIFDUS_clean_linker_0, # of connection points: 2
#     Edge 20, Type (0, 0), BuildingBlock: CIFDUS_clean_linker_0, # of connection points: 2
#     Edge 21, Type (0, 0), BuildingBlock: CIFDUS_clean_linker_0, # of connection points: 2
#     Edge 22, Type (0, 0), BuildingBlock: CIFDUS_clean_linker_0, # of connection points: 2
#     Edge 23, Type (0, 0), BuildingBlock: CIFDUS_clean_linker_0, # of connection points: 2
#     Edge 24, Type (0, 0), BuildingBlock: CIFDUS_clean_linker_0, # of connection points: 2
#     Edge 25, Type (0, 0), BuildingBlock: CIFDUS_clean_linker_0, # of connection points: 2
#     Edge 26, Type (0, 0), BuildingBlock: CIFDUS_clean_linker_0, # of connection points: 2
#     Edge 27, Type (0, 0), BuildingBlock: CIFDUS_clean_linker_0, # of connection points: 2
#     Edge 28, Type (0, 0), BuildingBlock: CIFDUS_clean_linker_0, # of connection points: 2
#     Edge 29, Type (0, 0), BuildingBlock: CIFDUS_clean_linker_0, # of connection points: 2
#     Edge 30, Type (0, 0), BuildingBlock: CIFDUS_clean_linker_0, # of connection points: 2
#     Edge 31, Type (0, 0), BuildingBlock: CIFDUS_clean_linker_0, # of connection points: 2
#     Edge 32, Type (0, 0), BuildingBlock: CIFDUS_clean_linker_0, # of connection points: 2
#     Edge 33, Type (0, 0), BuildingBlock: CIFDUS_clean_linker_0, # of connection points: 2
#     Edge 34, Type (0, 0), BuildingBlock: CIFDUS_clean_linker_0, # of connection points: 2
#     Edge 35, Type (0, 0), BuildingBlock: CIFDUS_clean_linker_0, # of connection points: 2
#     Edge 36, Type (0, 0), BuildingBlock: CIFDUS_clean_linker_0, # of connection points: 2
#     Edge 37, Type (0, 0), BuildingBlock: CIFDUS_clean_linker_0, # of connection points: 2
#     Edge 38, Type (0, 0), BuildingBlock: CIFDUS_clean_linker_0, # of connection points: 2
#     Edge 39, Type (0, 0), BuildingBlock: CIFDUS_clean_linker_0, # of connection points: 2
#     Edge 40, Type (0, 0), BuildingBlock: CIFDUS_clean_linker_0, # of connection points: 2
#     Edge 41, Type (0, 0), BuildingBlock: CIFDUS_clean_linker_0, # of connection points: 2
#     Edge 42, Type (0, 0), BuildingBlock: CIFDUS_clean_linker_0, # of connection points: 2
#     Edge 43, Type (0, 0), BuildingBlock: CIFDUS_clean_linker_0, # of connection points: 2
#     Edge 44, Type (0, 0), BuildingBlock: CIFDUS_clean_linker_0, # of connection points: 2
#     Edge 45, Type (0, 0), BuildingBlock: CIFDUS_clean_linker_0, # of connection points: 2
#     Edge 46, Type (0, 0), BuildingBlock: CIFDUS_clean_linker_0, # of connection points: 2
#     Edge 47, Type (0, 0), BuildingBlock: CIFDUS_clean_linker_0, # of connection points: 2
#     Edge 48, Type (0, 0), BuildingBlock: CIFDUS_clean_linker_0, # of connection points: 2
#     Edge 49, Type (0, 0), BuildingBlock: CIFDUS_clean_linker_0, # of connection points: 2
#     Edge 50, Type (0, 0), BuildingBlock: CIFDUS_clean_linker_0, # of connection points: 2
#     Edge 51, Type (0, 0), BuildingBlock: CIFDUS_clean_linker_0, # of connection points: 2
#     Edge 52, Type (0, 0), BuildingBlock: CIFDUS_clean_linker_0, # of connection points: 2
#     Edge 53, Type (0, 0), BuildingBlock: CIFDUS_clean_linker_0, # of connection points: 2
#     Edge 54, Type (0, 0), BuildingBlock: CIFDUS_clean_linker_0, # of connection points: 2
#     Edge 55, Type (0, 0), BuildingBlock: CIFDUS_clean_linker_0, # of connection points: 2
#     Edge 56, Type (0, 0), BuildingBlock: CIFDUS_clean_linker_0, # of connection points: 2
#     Edge 57, Type (0, 0), BuildingBlock: CIFDUS_clean_linker_0, # of connection points: 2
#     Edge 58, Type (0, 0), BuildingBlock: CIFDUS_clean_linker_0, # of connection points: 2
#     Edge 59, Type (0, 0), BuildingBlock: CIFDUS_clean_linker_0, # of connection points: 2
#     Edge 60, Type (0, 0), BuildingBlock: CIFDUS_clean_linker_0, # of connection points: 2
#     Edge 61, Type (0, 0), BuildingBlock: CIFDUS_clean_linker_0, # of connection points: 2
#     Edge 62, Type (0, 0), BuildingBlock: CIFDUS_clean_linker_0, # of connection points: 2
#     Edge 63, Type (0, 0), BuildingBlock: CIFDUS_clean_linker_0, # of connection points: 2
#     Edge 64, Type (0, 0), BuildingBlock: CIFDUS_clean_linker_0, # of connection points: 2
#     Edge 65, Type (0, 0), BuildingBlock: CIFDUS_clean_linker_0, # of connection points: 2
#     Edge 66, Type (0, 0), BuildingBlock: CIFDUS_clean_linker_0, # of connection points: 2
#     Edge 67, Type (0, 0), BuildingBlock: CIFDUS_clean_linker_0, # of connection points: 2
#     Edge 68, Type (0, 0), BuildingBlock: CIFDUS_clean_linker_0, # of connection points: 2
#     Edge 69, Type (0, 0), BuildingBlock: CIFDUS_clean_linker_0, # of connection points: 2
#     Edge 70, Type (0, 0), BuildingBlock: CIFDUS_clean_linker_0, # of connection points: 2
#     Edge 71, Type (0, 0), BuildingBlock: CIFDUS_clean_linker_0, # of connection points: 2
#     Edge 72, Type (0, 0), BuildingBlock: CIFDUS_clean_linker_0, # of connection points: 2
#     Edge 73, Type (0, 0), BuildingBlock: CIFDUS_clean_linker_0, # of connection points: 2
#     Edge 74, Type (0, 0), BuildingBlock: CIFDUS_clean_linker_0, # of connection points: 2
#     Edge 75, Type (0, 0), BuildingBlock: CIFDUS_clean_linker_0, # of connection points: 2
#     Edge 76, Type (0, 0), BuildingBlock: CIFDUS_clean_linker_0, # of connection points: 2
#     Edge 77, Type (0, 0), BuildingBlock: CIFDUS_clean_linker_0, # of connection points: 2
#     Edge 78, Type (0, 0), BuildingBlock: CIFDUS_clean_linker_0, # of connection points: 2
#     Edge 79, Type (0, 0), BuildingBlock: CIFDUS_clean_linker_0, # of connection points: 2
# Relax obj value: 0.130
# Max RMSD: 0.230
# Mean RMSD: 0.230
data_MOF--net-ecv--node1-VETTIZ_charged_sbu_0--edge1-CIFDUS_clean_linker_0
_symmetry_space_group_name_H-M    P1
_symmetry_Int_Tables_number       1
_symmetry_cell_setting            triclinic
loop_
_symmetry_equiv_pos_as_xyz
'x, y, z'
_cell_length_a     18.986999
_cell_length_b     22.659361
_cell_length_c     95.77758
_cell_angle_alpha  89.899078
_cell_angle_beta   90.058842
_cell_angle_gamma 90.516249
loop_
_atom_site_label
_atom_site_type_symbol
_atom_site_fract_x
_atom_site_fract_y
_atom_site_fract_z
_atom_type_partial_charge
Fe0 Fe 0.15885 0.19765 0.45068 0.0
O1 O 0.1813 0.13778 0.46506 0.0
Fe2 Fe 0.14303 0.05191 0.46007 0.0
Fe3 Fe 0.14797 0.14172 0.48494 0.0
O4 O 0.17787 0.13381 0.46372 0.0
O5 O 0.11667 0.05429 0.48025 0.0
O6 O 0.11915 0.0581 0.48137 0.0
Fe7 Fe 0.14515 0.99509 0.49429 0.0
C8 C 0.22803 0.2584 0.47601 0.0
O9 O 0.08018 0.23448 0.46226 0.0
O10 O 0.05175 0.1671 0.47841 0.0
O11 O 0.08491 0.93976 0.48205 0.0
O12 O 0.10255 0.96492 0.459 0.0
O13 O 0.04422 0.08127 0.45415 0.0
O14 O 0.08277 0.15074 0.43954 0.0
O15 O 0.1026 0.12841 0.50566 0.0
O16 O 0.06433 0.03103 0.50445 0.0
C17 C 0.03565 0.1139 0.44343 0.0
O18 O 0.23108 0.96728 0.48371 0.0
O19 O 0.24161 0.02241 0.46447 0.0
O20 O 0.22857 0.24635 0.46275 0.0
O21 O 0.18906 0.23062 0.48536 0.0
C22 C 0.03621 0.20964 0.47046 0.0
C23 C 0.06636 0.08222 0.51031 0.0
C24 C 0.2471 0.09485 0.50415 0.0
O25 O 0.24465 0.11783 0.49212 0.0
O26 O 0.209 0.04952 0.50672 0.0
C27 C 0.07758 0.93076 0.46881 0.0
O28 O 0.17897 0.05937 0.4396 0.0
O29 O 0.23057 0.15198 0.43901 0.0
C30 C 0.26565 0.986 0.47325 0.0
C31 C 0.22467 0.09747 0.43493 0.0
Fe32 Fe 0.07588 0.30461 0.87061 0.0
O33 O 0.08271 0.23989 0.85735 0.0
Fe34 Fe 0.12601 0.15867 0.86441 0.0
Fe35 Fe 0.12445 0.24615 0.83814 0.0
O36 O 0.0809 0.23462 0.85859 0.0
O37 O 0.1711 0.16683 0.84571 0.0
O38 O 0.16981 0.17108 0.84429 0.0
Fe39 Fe 0.17196 0.10418 0.83144 0.0
C40 C 0.0133 0.34534 0.84268 0.0
O41 O 0.15241 0.35445 0.86044 0.0
O42 O 0.20778 0.29387 0.84558 0.0
O43 O 0.23815 0.06706 0.84601 0.0
O44 O 0.1866 0.08133 0.86759 0.0
O45 O 0.20889 0.20233 0.87406 0.0
O46 O 0.15227 0.27588 0.88452 0.0
O47 O 0.17869 0.23488 0.81764 0.0
O48 O 0.24765 0.15915 0.82368 0.0
C49 C 0.20415 0.2407 0.88371 0.0
O50 O 0.09287 0.05485 0.83991 0.0
O51 O 0.04244 0.11098 0.85618 0.0
O52 O 0.00563 0.33532 0.85593 0.0
O53 O 0.06405 0.32423 0.8349 0.0
C54 C 0.20549 0.34039 0.853 0.0
C55 C 0.22523 0.19393 0.8143 0.0
C56 C 0.04783 0.1813 0.81879 0.0
O57 O 0.03959 0.20056 0.83095 0.0
O58 O 0.0966 0.14304 0.81713 0.0
C59 C 0.23555 0.06009 0.85945 0.0
O60 O 0.06659 0.16114 0.88299 0.0
O61 O 0.00652 0.24932 0.8811 0.0
C62 C 0.04278 0.06631 0.84816 0.0
C63 C 0.01425 0.19604 0.88593 0.0
Fe64 Fe 0.85437 0.92575 0.61375 0.0
O65 O 0.81668 0.8446 0.61008 0.0
Fe66 Fe 0.89091 0.97729 0.58022 0.0
Fe67 Fe 0.82615 0.78032 0.62387 0.0
O68 O 0.89577 0.91735 0.59478 0.0
O69 O 0.89838 0.9127 0.59388 0.0
O70 O 0.81701 0.84014 0.60884 0.0
Fe71 Fe 0.86248 0.83127 0.58991 0.0
C72 C 0.95444 0.85818 0.63196 0.0
O73 O 0.80544 0.92467 0.63325 0.0
O74 O 0.75686 0.83157 0.63507 0.0
O75 O 0.77587 0.86376 0.58 0.0
O76 O 0.82627 0.92947 0.56635 0.0
O77 O 0.80709 0.0189 0.58895 0.0
O78 O 0.76381 0.96266 0.60614 0.0
O79 O 0.75564 0.73784 0.61085 0.0
O80 O 0.80986 0.74756 0.58914 0.0
C81 C 0.76174 1.00832 0.59842 0.0
O82 O 0.92013 0.83803 0.57031 0.0
O83 O 0.97134 0.93039 0.57243 0.0
O84 O 0.94553 0.89268 0.62169 0.0
O85 O 0.90743 0.82034 0.63547 0.0
C86 C 0.76221 0.88649 0.63873 0.0
C87 C 0.7629 0.72449 0.59768 0.0
C88 C 0.94671 0.74516 0.60464 0.0
O89 O 0.89825 0.73234 0.61324 0.0
O90 O 0.95032 0.7951 0.5987 0.0
C91 C 0.78415 0.88571 0.5679 0.0
O92 O 0.95168 0.02493 0.59402 0.0
O93 O 0.90112 1.00956 0.61557 0.0
C94 C 0.96395 0.88029 0.56626 0.0
C95 C 0.94378 0.03677 0.60712 0.0
Fe96 Fe 0.87736 0.92024 0.23759 0.0
O97 O 0.854 0.85601 0.22484 0.0
Fe98 Fe 0.87248 0.86275 0.20325 0.0
Fe99 Fe 0.88926 0.77486 0.22828 0.0
O100 O 0.85108 0.85944 0.22373 0.0
O101 O 0.91642 0.7842 0.20685 0.0
O102 O 0.91917 0.78017 0.20818 0.0
Fe103 Fe 0.89831 0.71631 0.19471 0.0
C104 C 0.98836 0.82591 0.24673 0.0
O105 O 0.80146 0.8794 0.24861 0.0
O106 O 0.8479 0.78552 0.24945 0.0
O107 O 0.81401 0.75511 0.18439 0.0
O108 O 0.77604 0.82571 0.19842 0.0
O109 O 0.82233 0.9459 0.2024 0.0
O110 O 0.80902 0.97061 0.22556 0.0
O111 O 0.79358 0.74427 0.22231 0.0
O112 O 0.83065 0.67504 0.2078 0.0
C113 C 0.79545 0.97781 0.21238 0.0
O114 O 0.95886 0.76487 0.18139 0.0
O115 O 0.90382 0.8553 0.18241 0.0
O116 O 0.94868 0.86935 0.2498 0.0
O117 O 0.98494 0.805 0.23455 0.0
C118 C 0.81031 0.82917 0.25464 0.0
C119 C 0.78237 0.6999 0.21467 0.0
C120 C 0.97817 0.66406 0.21946 0.0
O121 O 0.93676 0.68894 0.22867 0.0
O122 O 0.9767 0.67548 0.20615 0.0
C123 C 0.76769 0.79293 0.18775 0.0
O124 O 0.96812 0.9016 0.2064 0.0
O125 O 0.95832 0.95362 0.22616 0.0
C126 C 0.94639 0.81754 0.17669 0.0
C127 C 0.99061 0.93938 0.21507 0.0
Fe128 Fe 0.12123 0.74245 0.96322 0.0
O129 O 0.07215 0.7225 0.98131 0.0
Fe130 Fe 0.19353 0.60732 0.95447 0.0
Fe131 Fe 0.05348 0.77995 0.9963 0.0
O132 O 0.17771 0.67141 0.96759 0.0
O133 O 0.18047 0.66943 0.96874 0.0
O134 O 0.07405 0.71921 0.98265 0.0
Fe135 Fe 0.13877 0.65401 0.98758 0.0
C136 C 0.18376 0.83746 0.98096 0.0
O137 O 0.05481 0.81529 0.96129 0.0
O138 O 0.98565 0.8116 0.98125 0.0
O139 O 0.06557 0.59652 0.9794 0.0
O140 O 0.12575 0.54682 0.96347 0.0
O141 O 0.11295 0.63196 0.9409 0.0
O142 O 0.04647 0.69504 0.95268 0.0
O143 O 0.99544 0.70947 1.00591 0.0
O144 O 0.08578 0.64191 1.00617 0.0
C145 C 0.05592 0.66068 0.94244 0.0
O146 O 0.21142 0.58699 0.99022 0.0
O147 O 0.26736 0.58113 0.96881 0.0
O148 O 0.19432 0.7928 0.97329 0.0
O149 O 0.12775 0.84257 0.98845 0.0
C150 C 1.00074 0.83066 0.96877 0.0
C151 C 0.02576 0.66113 1.01056 0.0
C152 C 0.18946 0.74218 1.00816 0.0
O153 O 0.12517 0.75163 1.01018 0.0
O154 O 0.20994 0.71297 0.99747 0.0
C155 C 0.07212 0.55295 0.97125 0.0
O156 O 0.25418 0.66977 0.94489 0.0
O157 O 0.18401 0.75266 0.94462 0.0
C158 C 0.26275 0.57164 0.98213 0.0
C159 C 0.23875 0.72213 0.94051 0.0
Fe160 Fe 0.1371 0.59646 0.35997 0.0
O161 O 0.09859 0.60278 0.34051 0.0
Fe162 Fe 0.14666 0.44487 0.36496 0.0
Fe163 Fe 0.11786 0.66968 0.32787 0.0
O164 O 0.16456 0.51605 0.35377 0.0
O165 O 0.16364 0.51289 0.35252 0.0
O166 O 0.09541 0.59821 0.33916 0.0
Fe167 Fe 0.1308 0.52022 0.33254 0.0
C168 C 0.06331 0.71606 0.35622 0.0
O169 O 0.23428 0.63006 0.35405 0.0
O170 O 0.20335 0.7 0.33881 0.0
O171 O 0.18483 0.43788 0.32913 0.0
O172 O 0.21826 0.40787 0.3514 0.0
O173 O 0.21994 0.48252 0.37802 0.0
O174 O 0.18345 0.57876 0.37964 0.0
O175 O 0.18406 0.6247 0.3131 0.0
O176 O 0.22358 0.56023 0.32763 0.0
C177 C 0.22121 0.53408 0.38376 0.0
O178 O 0.03649 0.47915 0.33701 0.0
O179 O 0.07069 0.4102 0.35232 0.0
O180 O 0.10067 0.68138 0.36403 0.0
O181 O 0.05841 0.71346 0.34271 0.0
C182 C 0.24579 0.67862 0.34769 0.0
C183 C 0.22402 0.58073 0.31539 0.0
C184 C 0.04897 0.5927 0.30848 0.0
O185 O 0.0357 0.63343 0.31736 0.0
O186 O 0.0863 0.54535 0.31187 0.0
C187 C 0.22398 0.40708 0.33788 0.0
O188 O 0.06829 0.48346 0.37781 0.0
O189 O 0.03988 0.56661 0.36686 0.0
C190 C 0.02761 0.43048 0.34341 0.0
C191 C 0.02732 0.52768 0.37616 0.0
Fe192 Fe 0.89463 0.54396 0.12426 0.0
O193 O 0.91923 0.4791 0.11182 0.0
Fe194 Fe 0.8922 0.47945 0.0901 0.0
Fe195 Fe 0.89278 0.39635 0.11654 0.0
O196 O 0.92102 0.48256 0.11047 0.0
O197 O 0.86068 0.39799 0.09527 0.0
O198 O 0.86063 0.39382 0.0966 0.0
Fe199 Fe 0.88633 0.3312 0.08327 0.0
C200 C 0.97258 0.45419 0.14153 0.0
O201 O 0.8216 0.49453 0.13662 0.0
O202 O 0.79289 0.41994 0.12286 0.0
O203 O 0.80438 0.36584 0.07263 0.0
O204 O 0.85127 0.45802 0.06886 0.0
O205 O 0.79524 0.51026 0.09466 0.0
O206 O 0.81251 0.57325 0.11242 0.0
O207 O 0.85793 0.30887 0.11908 0.0
O208 O 0.82576 0.28059 0.09685 0.0
C209 C 0.77476 0.55058 0.10279 0.0
O210 O 0.9526 0.38253 0.06989 0.0
O211 O 0.98903 0.44832 0.08482 0.0
O212 O 0.97165 0.50754 0.13662 0.0
O213 O 0.93416 0.41055 0.13675 0.0
C214 C 0.78059 0.45119 0.13359 0.0
C215 C 0.82414 0.27501 0.11033 0.0
C216 C 0.01223 0.32907 0.10321 0.0
O217 O 0.99222 0.37035 0.11118 0.0
O218 O 0.97264 0.30482 0.09415 0.0
C219 C 0.81597 0.41029 0.06458 0.0
O220 O 0.93786 0.56737 0.0884 0.0
O221 O 0.96117 0.59399 0.11141 0.0
C222 C 0.99221 0.42694 0.07266 0.0
C223 C 0.96894 0.60066 0.09798 0.0
Fe224 Fe 0.86834 0.47345 0.73776 0.0
O225 O 0.88083 0.38624 0.73659 0.0
Fe226 Fe 0.85572 0.51098 0.70221 0.0
Fe227 Fe 0.84406 0.33525 0.75184 0.0
O228 O 0.82837 0.46132 0.71837 0.0
O229 O 0.82711 0.45584 0.71702 0.0
O230 O 0.87791 0.38103 0.7355 0.0
Fe231 Fe 0.84478 0.3693 0.71563 0.0
C232 C 0.94821 0.41544 0.76405 0.0
O233 O 0.77099 0.46295 0.74643 0.0
O234 O 0.79753 0.40494 0.76357 0.0
O235 O 0.80325 0.36946 0.69496 0.0
O236 O 0.7783 0.46731 0.69142 0.0
O237 O 0.79316 0.56707 0.71269 0.0
O238 O 0.83565 0.56376 0.73539 0.0
O239 O 0.75082 0.31175 0.74309 0.0
O240 O 0.74245 0.34952 0.72159 0.0
C241 C 0.79503 0.58564 0.72547 0.0
O242 O 0.94757 0.38366 0.70825 0.0
O243 O 0.92638 0.45499 0.69285 0.0
O244 O 0.92032 0.46375 0.75847 0.0
O245 O 0.93364 0.36275 0.76006 0.0
C246 C 0.76893 0.45255 0.75938 0.0
C247 C 0.717 0.32095 0.73192 0.0
C248 C 0.89767 0.25267 0.72793 0.0
O249 O 0.8906 0.26803 0.74085 0.0
O250 O 0.87087 0.28027 0.71728 0.0
C251 C 0.7711 0.41201 0.68836 0.0
O252 O 0.9361 0.55113 0.71267 0.0
O253 O 0.96722 0.4907 0.72979 0.0
C254 C 0.96537 0.41426 0.69758 0.0
C255 C 0.97939 0.53518 0.722 0.0
Fe256 Fe 0.62972 0.29897 0.94847 0.0
O257 O 0.65254 0.23838 0.96235 0.0
Fe258 Fe 0.6088 0.15276 0.95979 0.0
Fe259 Fe 0.63633 0.24993 0.98284 0.0
O260 O 0.6506 0.2339 0.96122 0.0
O261 O 0.59129 0.16449 0.98028 0.0
O262 O 0.59676 0.16826 0.98148 0.0
Fe263 Fe 0.62214 0.10773 0.99495 0.0
C264 C 0.72227 0.35456 0.97086 0.0
O265 O 0.56621 0.34517 0.96213 0.0
O266 O 0.53874 0.28054 0.97893 0.0
O267 O 0.54189 0.05951 0.98584 0.0
O268 O 0.55815 0.06849 0.96199 0.0
O269 O 0.50988 0.18415 0.95394 0.0
O270 O 0.54201 0.25907 0.94011 0.0
O271 O 0.61324 0.24841 1.00484 0.0
O272 O 0.55955 0.15792 1.00727 0.0
C273 C 0.49756 0.21991 0.94387 0.0
O274 O 0.69032 0.06277 0.98251 0.0
O275 O 0.70689 0.11944 0.96373 0.0
O276 O 0.71354 0.34037 0.95787 0.0
O277 O 0.68347 0.33459 0.9811 0.0
C278 C 0.52634 0.32662 0.97195 0.0
C279 C 0.58076 0.20784 1.01225 0.0
C280 C 0.74582 0.19992 0.99922 0.0
O281 O 0.73504 0.22144 0.98723 0.0
O282 O 0.70697 0.15712 1.00343 0.0
C283 C 0.52623 0.0464 0.97302 0.0
O284 O 0.64035 0.15191 0.93868 0.0
O285 O 0.68605 0.24619 0.93505 0.0
C286 C 0.72577 0.07874 0.97194 0.0
C287 C 0.67884 0.19062 0.93191 0.0
Fe288 Fe 0.61828 0.16099 0.37162 0.0
O289 O 0.60937 0.09198 0.35919 0.0
Fe290 Fe 0.64642 1.01026 0.36663 0.0
Fe291 Fe 0.65339 0.08929 0.3402 0.0
O292 O 0.60904 0.08846 0.3604 0.0
O293 O 0.68626 1.00661 0.34731 0.0
O294 O 0.68817 1.01048 0.34631 0.0
Fe295 Fe 0.67305 0.9404 0.33425 0.0
C296 C 0.55077 0.19858 0.34435 0.0
O297 O 0.69258 0.20263 0.35928 0.0
O298 O 0.74227 0.12949 0.34752 0.0
O299 O 0.72987 0.89613 0.3493 0.0
O300 O 0.69205 0.9284 0.37085 0.0
O301 O 0.73931 0.04872 0.37368 0.0
O302 O 0.69754 0.12834 0.38445 0.0
O303 O 0.71273 0.06831 0.32091 0.0
O304 O 0.75806 0.97646 0.32503 0.0
C305 C 0.74461 0.08908 0.3829 0.0
O306 O 0.5849 0.90809 0.34372 0.0
O307 O 0.55277 0.96939 0.3608 0.0
O308 O 0.54522 0.19428 0.35782 0.0
O309 O 0.59954 0.17248 0.33693 0.0
C310 C 0.74304 0.18183 0.35214 0.0
C311 C 0.75349 0.02353 0.31765 0.0
C312 C 0.57053 0.03022 0.3204 0.0
O313 O 0.56469 0.05079 0.33254 0.0
O314 O 0.61198 0.98647 0.31893 0.0
C315 C 0.72831 0.89409 0.3628 0.0
O316 O 0.59988 0.02314 0.38602 0.0
O317 O 0.55012 0.11566 0.38438 0.0
C318 C 0.54208 0.92455 0.35304 0.0
C319 C 0.55731 0.0641 0.39005 0.0
Fe320 Fe 0.36216 1.01386 0.12826 0.0
O321 O 0.35635 0.96523 0.11135 0.0
Fe322 Fe 0.39758 0.99357 0.09264 0.0
Fe323 Fe 0.39084 0.88242 0.11027 0.0
O324 O 0.35406 0.96846 0.11058 0.0
O325 O 0.44328 0.91508 0.09272 0.0
O326 O 0.4457 0.91092 0.09371 0.0
Fe327 Fe 0.44817 0.87038 0.07552 0.0
C328 C 0.4748 0.92208 0.1354 0.0
O329 O 0.28243 0.95709 0.13365 0.0
O330 O 0.32656 0.86541 0.12753 0.0
O331 O 0.38657 0.92742 0.065 0.0
O332 O 0.31194 0.96004 0.08066 0.0
O333 O 0.34781 0.07406 0.09482 0.0
O334 O 0.30309 0.07393 0.11719 0.0
O335 O 0.3053 0.85732 0.09795 0.0
O336 O 0.36047 0.81432 0.0801 0.0
C337 C 0.30991 0.09597 0.10476 0.0
O338 O 0.52462 0.93683 0.07041 0.0
O339 O 0.45157 1.01459 0.07499 0.0
O340 O 0.42629 0.957 0.13906 0.0
O341 O 0.47659 0.89999 0.12318 0.0
C342 C 0.27995 0.89964 0.13331 0.0
C343 C 0.30672 0.81863 0.08824 0.0
C344 C 0.48287 0.78306 0.09857 0.0
O345 O 0.43411 0.80003 0.10714 0.0
O346 O 0.5038 0.8109 0.08737 0.0
C347 C 0.3246 0.94023 0.06836 0.0
O348 O 0.48432 0.02489 0.10266 0.0
O349 O 0.45141 0.06387 0.12284 0.0
C350 C 0.50828 0.99314 0.0697 0.0
C351 C 0.49725 0.05591 0.11332 0.0
Fe352 Fe 0.35379 0.98316 0.73455 0.0
O353 O 0.38899 0.8999 0.73416 0.0
Fe354 Fe 0.33359 1.01072 0.69855 0.0
Fe355 Fe 0.36996 0.84446 0.7497 0.0
O356 O 0.32 0.96158 0.71526 0.0
O357 O 0.31873 0.95606 0.71427 0.0
O358 O 0.38751 0.89423 0.73323 0.0
Fe359 Fe 0.3537 0.87316 0.71418 0.0
C360 C 0.43584 0.94759 0.76219 0.0
O361 O 0.26012 0.95641 0.74285 0.0
O362 O 0.29871 0.90042 0.75983 0.0
O363 O 0.3085 0.86129 0.69414 0.0
O364 O 0.26481 0.9532 0.68883 0.0
O365 O 0.26024 0.05961 0.70873 0.0
O366 O 0.30336 0.06552 0.73135 0.0
O367 O 0.28936 0.79609 0.74104 0.0
O368 O 0.25877 0.84405 0.72174 0.0
C369 C 0.25883 0.07969 0.72141 0.0
O370 O 0.44852 0.89986 0.70605 0.0
O371 O 0.41402 0.96308 0.68964 0.0
O372 O 0.39722 0.98778 0.75578 0.0
O373 O 0.44722 0.89593 0.75731 0.0
C374 C 0.25907 0.94202 0.75562 0.0
C375 C 0.2478 0.80434 0.73086 0.0
C376 C 0.44014 0.77046 0.72696 0.0
O377 O 0.43682 0.78965 0.7396 0.0
O378 O 0.40082 0.78931 0.71669 0.0
C379 C 0.26748 0.89651 0.68711 0.0
O380 O 0.40747 0.06387 0.70792 0.0
O381 O 0.44748 0.01696 0.7269 0.0
C382 C 0.45953 0.92844 0.69484 0.0
C383 C 0.45309 0.05665 0.71748 0.0
Fe384 Fe 0.61502 0.67046 0.44431 0.0
O385 O 0.61054 0.62375 0.46185 0.0
Fe386 Fe 0.64823 0.53891 0.46171 0.0
Fe387 Fe 0.65002 0.64863 0.48034 0.0
O388 O 0.61169 0.62071 0.46105 0.0
O389 O 0.70217 0.56752 0.4787 0.0
O390 O 0.70182 0.57261 0.4798 0.0
Fe391 Fe 0.70333 0.52389 0.49669 0.0
C392 C 0.74291 0.72226 0.46005 0.0
O393 O 0.55116 0.72634 0.4557 0.0
O394 O 0.59385 0.72534 0.47834 0.0
O395 O 0.62137 0.46531 0.4906 0.0
O396 O 0.56298 0.51109 0.47362 0.0
O397 O 0.583 0.52124 0.44385 0.0
O398 O 0.53873 0.61303 0.43816 0.0
O399 O 0.56311 0.60584 0.49137 0.0
O400 O 0.63719 0.57714 0.50707 0.0
C401 C 0.5371 0.55594 0.43776 0.0
O402 O 0.76383 0.46884 0.48466 0.0
O403 O 0.69498 0.45788 0.46465 0.0
O404 O 0.69702 0.72355 0.45041 0.0
O405 O 0.73619 0.68997 0.47091 0.0
C406 C 0.55564 0.74675 0.46836 0.0
C407 C 0.5748 0.58013 0.50317 0.0
C408 C 0.75173 0.64686 0.50587 0.0
O409 O 0.70009 0.67005 0.49894 0.0
O410 O 0.77225 0.59189 0.50413 0.0
C411 C 0.56616 0.47114 0.483 0.0
O412 O 0.73446 0.55999 0.44928 0.0
O413 O 0.68653 0.61755 0.43318 0.0
C414 C 0.74503 0.44231 0.47312 0.0
C415 C 0.73536 0.5827 0.4371 0.0
Fe416 Fe 0.63931 0.74523 0.866 0.0
O417 O 0.59151 0.74902 0.84736 0.0
Fe418 Fe 0.64487 0.59515 0.87253 0.0
Fe419 Fe 0.60846 0.80909 0.83291 0.0
O420 O 0.66077 0.66291 0.85997 0.0
O421 O 0.65697 0.65843 0.85875 0.0
O422 O 0.58841 0.74503 0.84632 0.0
Fe423 Fe 0.60387 0.66173 0.84057 0.0
C424 C 0.56915 0.86667 0.86177 0.0
O425 O 0.73459 0.77618 0.85836 0.0
O426 O 0.70531 0.8321 0.84007 0.0
O427 O 0.63764 0.57257 0.83732 0.0
O428 O 0.69918 0.54968 0.85752 0.0
O429 O 0.72976 0.63227 0.88258 0.0
O430 O 0.69564 0.72907 0.88482 0.0
O431 O 0.65375 0.75098 0.81721 0.0
O432 O 0.6957 0.68452 0.83096 0.0
C433 C 0.7358 0.68438 0.88804 0.0
O434 O 0.51159 0.63461 0.84993 0.0
O435 O 0.5559 0.56263 0.8631 0.0
O436 O 0.60537 0.83161 0.86977 0.0
O437 O 0.56576 0.86341 0.84824 0.0
C438 C 0.7489 0.81579 0.84931 0.0
C439 C 0.68948 0.7034 0.81868 0.0
C440 C 0.50687 0.73557 0.81906 0.0
O441 O 0.51364 0.78219 0.8264 0.0
O442 O 0.54106 0.68618 0.82181 0.0
C443 C 0.68491 0.54268 0.84436 0.0
O444 O 0.58325 0.64143 0.88671 0.0
O445 O 0.54484 0.71864 0.87478 0.0
C446 C 0.50526 0.58587 0.85643 0.0
C447 C 0.54056 0.68415 0.8852 0.0
Fe448 Fe 0.3289 0.48561 0.62198 0.0
O449 O 0.31716 0.41239 0.61135 0.0
Fe450 Fe 0.33157 0.41044 0.58955 0.0
Fe451 Fe 0.36259 0.33645 0.61646 0.0
O452 O 0.3171 0.41572 0.61028 0.0
O453 O 0.39254 0.34208 0.59493 0.0
O454 O 0.39735 0.33924 0.59671 0.0
Fe455 Fe 0.38583 0.26958 0.58446 0.0
C456 C 0.45974 0.41785 0.63217 0.0
O457 O 0.26515 0.43994 0.63594 0.0
O458 O 0.31377 0.34614 0.63656 0.0
O459 O 0.28914 0.29514 0.57737 0.0
O460 O 0.30268 0.38203 0.56859 0.0
O461 O 0.27168 0.48517 0.58674 0.0
O462 O 0.25074 0.51833 0.60917 0.0
O463 O 0.27275 0.2915 0.61055 0.0
O464 O 0.32753 0.22173 0.59875 0.0
C465 C 0.24191 0.51922 0.59575 0.0
O466 O 0.44209 0.32151 0.56902 0.0
O467 O 0.37678 0.40609 0.56935 0.0
O468 O 0.41165 0.45575 0.634 0.0
O469 O 0.45389 0.37673 0.62327 0.0
C470 C 0.27162 0.38735 0.64135 0.0
C471 C 0.2762 0.23875 0.6062 0.0
C472 C 0.46629 0.2348 0.60997 0.0
O473 O 0.41982 0.25688 0.61859 0.0
O474 O 0.46882 0.24372 0.59649 0.0
C475 C 0.28233 0.32773 0.56694 0.0
O476 O 0.42012 0.46438 0.59007 0.0
O477 O 0.40237 0.52358 0.60861 0.0
C478 C 0.42814 0.37441 0.56428 0.0
C479 C 0.43696 0.50832 0.59776 0.0
Fe480 Fe 0.42461 0.38296 0.25371 0.0
O481 O 0.4292 0.34582 0.23553 0.0
Fe482 Fe 0.39577 0.39084 0.21722 0.0
Fe483 Fe 0.3673 0.27607 0.23268 0.0
O484 O 0.43426 0.35014 0.23438 0.0
O485 O 0.35194 0.31293 0.21308 0.0
O486 O 0.34641 0.31092 0.21391 0.0
Fe487 Fe 0.36242 0.27134 0.19545 0.0
C488 C 0.45585 0.25315 0.25889 0.0
O489 O 0.34818 0.32864 0.26045 0.0
O490 O 0.27862 0.32157 0.24303 0.0
O491 O 0.29391 0.33529 0.18941 0.0
O492 O 0.34222 0.42116 0.19888 0.0
O493 O 0.30729 0.41524 0.22776 0.0
O494 O 0.35208 0.4507 0.24755 0.0
O495 O 0.30589 0.20625 0.22724 0.0
O496 O 0.28818 0.21117 0.20345 0.0
C497 C 0.30604 0.45254 0.23763 0.0
O498 O 0.44085 0.32774 0.18743 0.0
O499 O 0.48701 0.37333 0.20579 0.0
O500 O 0.48253 0.3069 0.25983 0.0
O501 O 0.40195 0.24023 0.25118 0.0
C502 C 0.28773 0.33599 0.25599 0.0
C503 C 0.27827 0.18782 0.21572 0.0
C504 C 0.47377 0.20787 0.21354 0.0
O505 O 0.45335 0.23256 0.22473 0.0
O506 O 0.44062 0.21357 0.20204 0.0
C507 C 0.29649 0.39227 0.19105 0.0
O508 O 0.44763 0.46598 0.22442 0.0
O509 O 0.49887 0.43714 0.24548 0.0
C510 C 0.48987 0.35895 0.1929 0.0
C511 C 0.49459 0.46964 0.23434 0.0
H512 H 0.3512 0.25634 0.49126 0.0
H513 H 0.21591 0.37233 0.46805 0.0
H514 H 0.30681 0.44951 0.46847 0.0
H515 H 0.42957 0.4809 0.47338 0.0
H516 H 0.56398 0.36595 0.49724 0.0
H517 H 0.46891 0.29288 0.49888 0.0
C518 C 0.34016 0.29943 0.48691 0.0
C519 C 0.2753 0.30888 0.48003 0.0
C520 C 0.39356 0.34377 0.48703 0.0
C521 C 0.26425 0.3642 0.47374 0.0
C522 C 0.31675 0.40824 0.47382 0.0
C523 C 0.43808 0.44009 0.47904 0.0
C524 C 0.50498 0.42904 0.48496 0.0
C525 C 0.38248 0.39803 0.48009 0.0
C526 C 0.51382 0.37595 0.49243 0.0
C527 C 0.45919 0.33386 0.49339 0.0
H528 H 0.96926 0.92501 0.45008 0.0
H529 H 0.08225 0.82239 0.48054 0.0
H530 H 0.98975 0.74696 0.48025 0.0
H531 H 0.87014 0.7157 0.47346 0.0
H532 H 0.75634 0.81853 0.44306 0.0
H533 H 0.85487 0.88772 0.44127 0.0
C534 C 0.97465 0.88511 0.45626 0.0
C535 C 0.0326 0.87919 0.46527 0.0
C536 C 0.92002 0.84244 0.45635 0.0
C537 C 0.03818 0.82781 0.47346 0.0
C538 C 0.98494 0.7849 0.47342 0.0
C539 C 0.86706 0.75303 0.46639 0.0
C540 C 0.80535 0.76203 0.45856 0.0
C541 C 0.92436 0.79276 0.4653 0.0
C542 C 0.80291 0.81037 0.44929 0.0
C543 C 0.85939 0.85015 0.44823 0.0
H544 H 0.26535 0.95456 0.87291 0.0
H545 H 0.35802 0.11765 0.85836 0.0
H546 H 0.47521 0.07523 0.85963 0.0
H547 H 0.54811 0.98569 0.86026 0.0
H548 H 0.45951 0.82452 0.87656 0.0
H549 H 0.34521 0.87184 0.87952 0.0
C550 C 0.31148 0.98144 0.87065 0.0
C551 C 0.30291 0.03908 0.86545 0.0
C552 C 0.3797 0.95666 0.87147 0.0
C553 C 0.36331 0.07316 0.86239 0.0
C554 C 0.43047 0.04877 0.86299 0.0
C555 C 0.50462 0.96186 0.86506 0.0
C556 C 0.51233 0.90176 0.86824 0.0
C557 C 0.43903 0.98968 0.86684 0.0
C558 C 0.45514 0.8711 0.87425 0.0
C559 C 0.38935 0.898 0.87576 0.0
H560 H 0.87388 0.32334 0.84175 0.0
H561 H 0.0293 0.45526 0.83106 0.0
H562 H 0.9357 0.52803 0.82748 0.0
H563 H 0.81183 0.55773 0.8319 0.0
H564 H 0.65828 0.42535 0.8433 0.0
H565 H 0.74791 0.34877 0.84166 0.0
C566 C 0.88696 0.36756 0.83817 0.0
C567 C 0.95837 0.38389 0.83659 0.0
C568 C 0.83289 0.4091 0.83632 0.0
C569 C 0.97481 0.44144 0.83214 0.0
C570 C 0.9212 0.48313 0.83023 0.0
C571 C 0.79743 0.51167 0.83332 0.0
C572 C 0.72808 0.49704 0.83748 0.0
C573 C 0.85025 0.46807 0.83284 0.0
C574 C 0.71063 0.4375 0.83975 0.0
C575 C 0.76231 0.39385 0.83905 0.0
H576 H 0.48241 0.59653 0.57989 0.0
H577 H 0.5503 0.47891 0.6125 0.0
H578 H 0.66293 0.53094 0.61414 0.0
H579 H 0.73562 0.61738 0.60847 0.0
H580 H 0.67219 0.73544 0.57563 0.0
H581 H 0.56581 0.67528 0.57151 0.0
C582 C 0.52272 0.58177 0.58709 0.0
C583 C 0.50802 0.53461 0.59626 0.0
C584 C 0.58816 0.61203 0.5879 0.0
C585 C 0.56036 0.51567 0.60554 0.0
C586 C 0.6248 0.54531 0.60645 0.0
C587 C 0.69947 0.62884 0.60013 0.0
C588 C 0.71148 0.68056 0.59236 0.0
C589 C 0.6384 0.59461 0.598 0.0
C590 C 0.66436 0.69531 0.58162 0.0
C591 C 0.60309 0.66131 0.5794 0.0
H592 H 0.07927 0.01829 0.61128 0.0
H593 H 0.92052 0.15197 0.61399 0.0
H594 H 0.01245 0.22875 0.61597 0.0
H595 H 0.13804 0.25756 0.61286 0.0
H596 H 0.29372 0.12104 0.60853 0.0
H597 H 0.20333 0.04544 0.61152 0.0
C598 C 0.06504 0.06404 0.61292 0.0
C599 C 0.99401 0.07987 0.61274 0.0
C600 C 0.11774 0.10738 0.61345 0.0
C601 C 0.97533 0.13916 0.6144 0.0
C602 C 0.02783 0.1829 0.61533 0.0
C603 C 0.15207 0.21127 0.61285 0.0
C604 C 0.22205 0.19481 0.61016 0.0
C605 C 0.09927 0.16765 0.61424 0.0
C606 C 0.23988 0.13475 0.61024 0.0
C607 C 0.18834 0.09145 0.61201 0.0
H608 H 0.74401 0.06174 0.22974 0.0
H609 H 0.72165 0.99648 0.18766 0.0
H610 H 0.62179 0.06298 0.18392 0.0
H611 H 0.53517 0.1359 0.19334 0.0
H612 H 0.56068 0.19591 0.23591 0.0
H613 H 0.66359 0.13488 0.23862 0.0
C614 C 0.71795 0.06188 0.21966 0.0
C615 C 0.74084 0.02339 0.20904 0.0
C616 C 0.65989 0.09914 0.21769 0.0
C617 C 0.70592 0.02542 0.19606 0.0
C618 C 0.64824 0.06327 0.19395 0.0
C619 C 0.56342 0.13583 0.20318 0.0
C620 C 0.53887 0.17076 0.21441 0.0
C621 C 0.62376 0.09972 0.2048 0.0
C622 C 0.57698 0.16973 0.22705 0.0
C623 C 0.63644 0.1347 0.22865 0.0
H624 H 0.0833 0.66432 0.23988 0.0
H625 H 0.98787 0.55668 0.20781 0.0
H626 H 0.07899 0.48276 0.21081 0.0
H627 H 0.18885 0.4506 0.22127 0.0
H628 H 0.28968 0.55562 0.25317 0.0
H629 H 0.19384 0.62789 0.2516 0.0
C630 C 0.08149 0.62393 0.23385 0.0
C631 C 0.0277 0.61597 0.22371 0.0
C632 C 0.13581 0.58134 0.23545 0.0
C633 C 0.02782 0.56395 0.21573 0.0
C634 C 0.08034 0.52166 0.21739 0.0
C635 C 0.19044 0.48919 0.22796 0.0
C636 C 0.24739 0.49721 0.23733 0.0
C637 C 0.13529 0.53033 0.22699 0.0
C638 C 0.24715 0.54786 0.24584 0.0
C639 C 0.19204 0.58928 0.24494 0.0
H640 H 0.41552 0.03609 0.99067 0.0
H641 H 0.49495 0.96681 0.95188 0.0
H642 H 0.39474 0.89736 0.95086 0.0
H643 H 0.28771 0.85396 0.96159 0.0
H644 H 0.20707 0.92647 0.99999 0.0
H645 H 0.30518 0.99735 1.00055 0.0
C646 C 0.41133 1.00575 0.98196 0.0
C647 C 0.46383 1.00612 0.97145 0.0
C648 C 0.3534 0.9666 0.98142 0.0
C649 C 0.45594 0.96744 0.96011 0.0
C650 C 0.39866 0.92764 0.95958 0.0
C651 C 0.29122 0.88537 0.9701 0.0
C652 C 0.23996 0.8842 0.98087 0.0
C653 C 0.34755 0.92642 0.97026 0.0
C654 C 0.24525 0.92611 0.9916 0.0
C655 C 0.30163 0.96654 0.99194 0.0
H656 H 0.83964 0.36556 0.95544 0.0
H657 H 0.74374 0.42973 0.99322 0.0
H658 H 0.84558 0.49553 0.99711 0.0
H659 H 0.95967 0.53771 0.98891 0.0
H660 H 0.05281 0.47003 0.95108 0.0
H661 H 0.95364 0.40271 0.94807 0.0
C662 C 0.84046 0.39417 0.96451 0.0
C663 C 0.78353 0.39351 0.97391 0.0
C664 C 0.89869 0.4313 0.96663 0.0
C665 C 0.78672 0.42964 0.9858 0.0
C666 C 0.84481 0.46734 0.98798 0.0
C667 C 0.95836 0.50803 0.98005 0.0
C668 C 0.0137 0.50927 0.9702 0.0
C669 C 0.9008 0.46901 0.97835 0.0
C670 C 0.01136 0.47009 0.95885 0.0
C671 C 0.95445 0.43165 0.95707 0.0
H672 H 0.5332 0.31799 0.34209 0.0
H673 H 0.43465 0.15189 0.33192 0.0
H674 H 0.32371 0.20219 0.32674 0.0
H675 H 0.24941 0.29257 0.3289 0.0
H676 H 0.35091 0.45801 0.33871 0.0
H677 H 0.46491 0.40991 0.33979 0.0
C678 C 0.48821 0.29313 0.33821 0.0
C679 C 0.49267 0.23121 0.33726 0.0
C680 C 0.42431 0.32257 0.33522 0.0
C681 C 0.43317 0.19961 0.33252 0.0
C682 C 0.36932 0.22843 0.32969 0.0
C683 C 0.29695 0.31846 0.33057 0.0
C684 C 0.29131 0.37964 0.33319 0.0
C685 C 0.36333 0.28983 0.33147 0.0
C686 C 0.35361 0.41165 0.33602 0.0
C687 C 0.41903 0.38382 0.33692 0.0
H688 H 0.86154 0.9235 0.36775 0.0
H689 H 0.71404 0.77851 0.37007 0.0
H690 H 0.81154 0.70846 0.37128 0.0
H691 H 0.93624 0.68887 0.36626 0.0
H692 H 0.08135 0.83373 0.36049 0.0
H693 H 0.98824 0.90408 0.36619 0.0
C694 C 0.85121 0.87668 0.3692 0.0
C695 C 0.78137 0.85578 0.36906 0.0
C696 C 0.90732 0.83691 0.36893 0.0
C697 C 0.76765 0.79522 0.37047 0.0
C698 C 0.82336 0.75531 0.37095 0.0
C699 C 0.94767 0.73575 0.36681 0.0
C700 C 0.01497 0.75658 0.36314 0.0
C701 C 0.8931 0.77556 0.3694 0.0
C702 C 0.02974 0.81721 0.36344 0.0
C703 C 0.97647 0.85721 0.3666 0.0
H704 H 0.54804 0.14527 0.1307 0.0
H705 H 0.60828 0.03075 0.09673 0.0
H706 H 0.71834 0.08353 0.09415 0.0
H707 H 0.79225 0.16873 0.09935 0.0
H708 H 0.73886 0.28388 0.13335 0.0
H709 H 0.63327 0.22405 0.13828 0.0
C710 C 0.58573 0.13138 0.12291 0.0
C711 C 0.56825 0.08478 0.11373 0.0
C712 C 0.65061 0.16219 0.12141 0.0
C713 C 0.61867 0.06712 0.10379 0.0
C714 C 0.68231 0.0972 0.10228 0.0
C715 C 0.75841 0.17994 0.10806 0.0
C716 C 0.77283 0.23102 0.11584 0.0
C717 C 0.69793 0.14576 0.11072 0.0
C718 C 0.72885 0.24471 0.12718 0.0
C719 C 0.66805 0.21076 0.12991 0.0
H720 H 0.09149 0.60043 0.0821 0.0
H721 H 0.96162 0.71405 0.10681 0.0
H722 H 0.05219 0.79128 0.10593 0.0
H723 H 0.17281 0.82471 0.09966 0.0
H724 H 0.30159 0.71322 0.07391 0.0
H725 H 0.20766 0.6386 0.07338 0.0
C726 C 0.08135 0.64299 0.08662 0.0
C727 C 0.01777 0.65131 0.09407 0.0
C728 C 0.13468 0.68783 0.08611 0.0
C729 C 0.00866 0.70622 0.10072 0.0
C730 C 0.06105 0.75051 0.10033 0.0
C731 C 0.18035 0.78442 0.09379 0.0
C732 C 0.24553 0.77521 0.08692 0.0
C733 C 0.12508 0.74153 0.09332 0.0
C734 C 0.25286 0.7223 0.07933 0.0
C735 C 0.19874 0.67924 0.07902 0.0
H736 H 0.52567 0.71897 0.74622 0.0
H737 H 0.49332 0.73444 0.70166 0.0
H738 H 0.60668 0.68702 0.69763 0.0
H739 H 0.71424 0.64401 0.70666 0.0
H740 H 0.74471 0.62348 0.75107 0.0
H741 H 0.63362 0.67433 0.75529 0.0
C742 C 0.54269 0.71169 0.73556 0.0
C743 C 0.50069 0.73095 0.72421 0.0
C744 C 0.60826 0.68533 0.73334 0.0
C745 C 0.52401 0.7202 0.71057 0.0
C746 C 0.58927 0.69373 0.70828 0.0
C747 C 0.69733 0.6505 0.71735 0.0
C748 C 0.73814 0.62861 0.72861 0.0
C749 C 0.63202 0.67698 0.71959 0.0
C750 C 0.71502 0.63924 0.74226 0.0
C751 C 0.65086 0.6677 0.74463 0.0
H752 H 0.01041 0.2337 0.74433 0.0
H753 H 0.91588 0.17978 0.70527 0.0
H754 H 0.02078 0.12155 0.69994 0.0
H755 H 0.13932 0.08976 0.70607 0.0
H756 H 0.23807 0.15221 0.74391 0.0
H757 H 0.12997 0.20409 0.75016 0.0
C758 C 0.01166 0.20821 0.73476 0.0
C759 C 0.95454 0.21003 0.7253 0.0
C760 C 0.07291 0.17731 0.73154 0.0
C761 C 0.95855 0.17833 0.71277 0.0
C762 C 0.01868 0.14558 0.7097 0.0
C763 C 0.13793 0.11507 0.71566 0.0
C764 C 0.19675 0.11624 0.72473 0.0
C765 C 0.07642 0.14562 0.71892 0.0
C766 C 0.19314 0.14928 0.73704 0.0
C767 C 0.13152 0.17915 0.74052 0.0
H768 H 0.35035 0.93459 0.49199 0.0
H769 H 0.3324 0.97623 0.44813 0.0
H770 H 0.42878 0.90928 0.44286 0.0
H771 H 0.50298 0.82722 0.45038 0.0
H772 H 0.51521 0.78253 0.49421 0.0
H773 H 0.43558 0.8625 0.49983 0.0
C774 C 0.36833 0.92963 0.4813 0.0
C775 C 0.3335 0.95862 0.47042 0.0
C776 C 0.42149 0.88977 0.47833 0.0
C777 C 0.35827 0.95364 0.45666 0.0
C778 C 0.41277 0.91499 0.45363 0.0
C779 C 0.48837 0.83518 0.46116 0.0
C780 C 0.51311 0.79821 0.47182 0.0
C781 C 0.44212 0.88072 0.46431 0.0
C782 C 0.49586 0.80999 0.4858 0.0
C783 C 0.45046 0.85566 0.48903 0.0
H784 H 0.96263 0.26553 0.4507 0.0
H785 H 0.95582 0.21027 0.49385 0.0
H786 H 0.85365 0.27224 0.4979 0.0
H787 H 0.78306 0.35569 0.49026 0.0
H788 H 0.79147 0.41334 0.44737 0.0
H789 H 0.87636 0.3361 0.44197 0.0
C790 C 0.93786 0.26661 0.46091 0.0
C791 C 0.96732 0.23577 0.47209 0.0
C792 C 0.88047 0.30293 0.4632 0.0
C793 C 0.93413 0.23498 0.48517 0.0
C794 C 0.87615 0.27042 0.48752 0.0
C795 C 0.80291 0.35043 0.47972 0.0
C796 C 0.78399 0.39034 0.4693 0.0
C797 C 0.85157 0.30682 0.4768 0.0
C798 C 0.80717 0.38299 0.45553 0.0
C799 C 0.85548 0.33919 0.45247 0.0
H800 H 0.20771 0.46021 0.8536 0.0
H801 H 0.34153 0.30734 0.85251 0.0
H802 H 0.44599 0.37076 0.85329 0.0
H803 H 0.49878 0.46848 0.85467 0.0
H804 H 0.36821 0.62322 0.85458 0.0
H805 H 0.26214 0.56018 0.85363 0.0
C806 C 0.25989 0.44111 0.85354 0.0
C807 C 0.26744 0.37947 0.85307 0.0
C808 C 0.31972 0.47793 0.8537 0.0
C809 C 0.33487 0.35478 0.85279 0.0
C810 C 0.39442 0.39091 0.85327 0.0
C811 C 0.44704 0.48849 0.85447 0.0
C812 C 0.44079 0.55013 0.8549 0.0
C813 C 0.38734 0.45235 0.85378 0.0
C814 C 0.37386 0.5757 0.8543 0.0
C815 C 0.31351 0.53973 0.85381 0.0
H816 H 0.79778 0.89659 0.83091 0.0
H817 H 0.8451 0.81817 0.87094 0.0
H818 H 0.93809 0.89225 0.87469 0.0
H819 H 1.00267 0.98248 0.86682 0.0
H820 H 0.95087 0.05983 0.82703 0.0
H821 H 0.86051 0.9841 0.82317 0.0
C822 C 0.82859 0.89509 0.84045 0.0
C823 C 0.81412 0.85182 0.85064 0.0
C824 C 0.87966 0.93879 0.84274 0.0
C825 C 0.85535 0.85061 0.86285 0.0
C826 C 0.90788 0.89346 0.86509 0.0
C827 C 0.97022 0.98313 0.85749 0.0
C828 C 0.98136 0.02712 0.84735 0.0
C829 C 0.91944 0.93854 0.85523 0.0
C830 C 0.94138 0.02696 0.83506 0.0
C831 C 0.89058 0.98337 0.8328 0.0
H832 H 0.60362 0.24566 0.60705 0.0
H833 H 0.44295 0.12927 0.62316 0.0
H834 H 0.52505 0.04598 0.62231 0.0
H835 H 0.63567 1.0043 0.61256 0.0
H836 H 0.78771 0.12364 0.59387 0.0
H837 H 0.7158 0.20724 0.59985 0.0
C838 C 0.58768 0.20236 0.61086 0.0
C839 C 0.51822 0.19299 0.61513 0.0
C840 C 0.63278 0.15475 0.60928 0.0
C841 C 0.49699 0.13717 0.62 0.0
C842 C 0.54338 0.08949 0.61921 0.0
C843 C 0.6527 0.04865 0.60983 0.0
C844 C 0.71559 0.05743 0.60233 0.0
C845 C 0.61012 0.09724 0.61309 0.0
C846 C 0.73815 0.11525 0.59915 0.0
C847 C 0.69763 0.16339 0.60273 0.0
H848 H 0.10321 0.50874 0.59553 0.0
H849 H 0.27395 0.62793 0.5859 0.0
H850 H 0.19288 0.71166 0.58585 0.0
H851 H 0.07798 0.75143 0.59321 0.0
H852 H 0.91114 0.6298 0.60463 0.0
H853 H 0.9855 0.54653 0.59925 0.0
C854 C 0.12162 0.55284 0.59285 0.0
C855 C 0.19316 0.56306 0.59066 0.0
C856 C 0.07579 0.60036 0.59358 0.0
C857 C 0.21813 0.61986 0.58743 0.0
C858 C 0.17215 0.66756 0.58761 0.0
C859 C 0.05799 0.70667 0.59431 0.0
C860 C 0.99054 0.69657 0.59978 0.0
C861 C 0.10158 0.65861 0.59144 0.0
C862 C 0.96414 0.63854 0.60093 0.0
C863 C 0.00623 0.59083 0.59774 0.0
H864 H 0.49094 0.58138 0.22534 0.0
H865 H 0.62882 0.43964 0.23746 0.0
H866 H 0.73167 0.4996 0.23178 0.0
H867 H 0.78116 0.59079 0.22336 0.0
H868 H 0.64743 0.73652 0.2125 0.0
H869 H 0.54216 0.67635 0.21774 0.0
C870 C 0.54375 0.56439 0.22676 0.0
C871 C 0.55379 0.50741 0.2318 0.0
C872 C 0.60217 0.59918 0.22369 0.0
C873 C 0.6213 0.48438 0.23375 0.0
C874 C 0.67964 0.51814 0.23044 0.0
C875 C 0.72871 0.60889 0.22207 0.0
C876 C 0.72008 0.66642 0.21745 0.0
C877 C 0.67041 0.57526 0.22538 0.0
C878 C 0.65334 0.69136 0.21603 0.0
C879 C 0.59396 0.65732 0.219 0.0
H880 H 0.20837 0.12766 0.19507 0.0
H881 H 0.24985 0.12719 0.23957 0.0
H882 H 0.17396 0.04254 0.24259 0.0
H883 H 0.08598 0.97606 0.2334 0.0
H884 H 0.0371 0.97605 0.18946 0.0
H885 H 0.12779 0.05192 0.18533 0.0
C886 C 0.2009 0.10891 0.2054 0.0
C887 C 0.2335 0.13489 0.21706 0.0
C888 C 0.15646 0.05981 0.20718 0.0
C889 C 0.22445 0.1092 0.23037 0.0
C890 C 0.18133 0.06034 0.23216 0.0
C891 C 0.09616 0.99208 0.22289 0.0
C892 C 0.05479 0.97213 0.21181 0.0
C893 C 0.14579 0.03646 0.22074 0.0
C894 C 0.06876 0.99155 0.19815 0.0
C895 C 0.11981 0.03524 0.19583 0.0
H896 H 0.25292 0.45798 0.98863 0.0
H897 H 0.3964 0.60594 0.98676 0.0
H898 H 0.49623 0.53935 0.98451 0.0
H899 H 0.53724 0.44139 0.97777 0.0
H900 H 0.39327 0.29333 0.97835 0.0
H901 H 0.29783 0.35743 0.98616 0.0
C902 C 0.30654 0.47505 0.98847 0.0
C903 C 0.31845 0.53589 0.98784 0.0
C904 C 0.36254 0.43677 0.98626 0.0
C905 C 0.38721 0.55872 0.98739 0.0
C906 C 0.4438 0.52084 0.98581 0.0
C907 C 0.48485 0.42353 0.97966 0.0
C908 C 0.47048 0.36402 0.97705 0.0
C909 C 0.43123 0.46024 0.98426 0.0
C910 C 0.40395 0.33986 0.98001 0.0
C911 C 0.34993 0.37619 0.98456 0.0
H912 H 0.9991 0.93669 0.98017 0.0
H913 H 0.90681 0.8333 0.94712 0.0
H914 H 0.81737 0.90945 0.94329 0.0
H915 H 0.75463 0.99685 0.95242 0.0
H916 H 0.84377 0.09415 0.98688 0.0
H917 H 0.94657 0.02997 0.98702 0.0
C918 C 0.96036 0.93189 0.97188 0.0
C919 C 0.95844 0.88011 0.96396 0.0
C920 C 0.90861 0.97458 0.97013 0.0
C921 C 0.90872 0.87336 0.95325 0.0
C922 C 0.85753 0.91658 0.95117 0.0
C923 C 0.79787 1.00469 0.95962 0.0
C924 C 0.79272 0.04954 0.96963 0.0
C925 C 0.85528 0.96614 0.95997 0.0
C926 C 0.84767 0.05962 0.9791 0.0
C927 C 0.90594 0.02287 0.97922 0.0
H928 H 0.24823 0.79541 0.3523 0.0
H929 H 0.38203 0.64281 0.35094 0.0
H930 H 0.48639 0.70664 0.35364 0.0
H931 H 0.53886 0.80636 0.35407 0.0
H932 H 0.40515 0.95877 0.35643 0.0
H933 H 0.30041 0.89433 0.35586 0.0
C934 C 0.30036 0.77622 0.35273 0.0
C935 C 0.30811 0.71482 0.35117 0.0
C936 C 0.35948 0.81305 0.35442 0.0
C937 C 0.37527 0.69 0.35205 0.0
C938 C 0.43466 0.72647 0.35353 0.0
C939 C 0.48664 0.82531 0.35462 0.0
C940 C 0.47916 0.88705 0.35505 0.0
C941 C 0.42733 0.78808 0.35437 0.0
C942 C 0.41177 0.91136 0.35605 0.0
C943 C 0.35216 0.87456 0.35564 0.0
H944 H 0.02526 0.31486 0.33896 0.0
H945 H 0.89069 0.46596 0.34299 0.0
H946 H 0.78753 0.40055 0.34537 0.0
H947 H 0.73979 0.3005 0.34935 0.0
H948 H 0.87667 0.15011 0.34578 0.0
H949 H 0.97579 0.21538 0.34025 0.0
C950 C 0.97293 0.33327 0.34002 0.0
C951 C 0.96477 0.39453 0.34091 0.0
C952 C 0.91515 0.29569 0.34178 0.0
C953 C 0.89742 0.41865 0.34218 0.0
C954 C 0.83893 0.38133 0.34373 0.0
C955 C 0.79138 0.28216 0.34735 0.0
C956 C 0.80169 0.22093 0.34825 0.0
C957 C 0.8478 0.31984 0.3441 0.0
C958 C 0.868 0.19727 0.34527 0.0
C959 C 0.92447 0.23444 0.34208 0.0
H960 H 0.53234 0.70374 0.08048 0.0
H961 H 0.51183 0.74053 0.12446 0.0
H962 H 0.59446 0.66182 0.12997 0.0
H963 H 0.68766 0.59654 0.1218 0.0
H964 H 0.70932 0.56141 0.07774 0.0
H965 H 0.60907 0.62458 0.07267 0.0
C966 C 0.54534 0.69374 0.09127 0.0
C967 C 0.51914 0.72876 0.10204 0.0
C968 C 0.59281 0.64914 0.09429 0.0
C969 C 0.53341 0.71462 0.11602 0.0
C970 C 0.58045 0.66983 0.11916 0.0
C971 C 0.66942 0.6021 0.11113 0.0
C972 C 0.70639 0.57656 0.1001 0.0
C973 C 0.61302 0.63903 0.10831 0.0
C974 C 0.68171 0.58179 0.08634 0.0
C975 C 0.62485 0.618 0.08344 0.0
H976 H 0.2635 0.17729 0.12309 0.0
H977 H 0.26466 0.13323 0.07923 0.0
H978 H 0.17997 0.21114 0.07455 0.0
H979 H 0.09253 0.27969 0.0835 0.0
H980 H 0.0875 0.32137 0.12743 0.0
H981 H 0.18855 0.25726 0.1315 0.0
C982 C 0.24572 0.1852 0.11249 0.0
C983 C 0.26851 0.1487 0.10158 0.0
C984 C 0.19651 0.22936 0.10992 0.0
C985 C 0.24703 0.16039 0.08783 0.0
C986 C 0.19854 0.20474 0.08515 0.0
C987 C 0.1145 0.27548 0.09392 0.0
C988 C 0.08208 0.30361 0.10522 0.0
C989 C 0.17092 0.23768 0.0962 0.0
C990 C 0.11161 0.29948 0.11862 0.0
C991 C 0.16883 0.26254 0.12095 0.0
H992 H 0.48192 0.12832 0.73926 0.0
H993 H 0.5436 0.08905 0.69705 0.0
H994 H 0.62349 0.1746 0.69688 0.0
H995 H 0.6781 0.25894 0.70906 0.0
H996 H 0.6159 0.29839 0.75128 0.0
H997 H 0.53165 0.21615 0.75096 0.0
C998 C 0.5141 0.13802 0.73017 0.0
C999 C 0.50896 0.10178 0.71834 0.0
C1000 C 0.5579 0.18838 0.72999 0.0
C1001 C 0.54842 0.1158 0.70638 0.0
C1002 C 0.59325 0.16503 0.70622 0.0
C1003 C 0.64432 0.25073 0.718 0.0
C1004 C 0.65244 0.28509 0.73011 0.0
C1005 C 0.59813 0.20187 0.71795 0.0
C1006 C 0.60975 0.27296 0.74178 0.0
C1007 C 0.56247 0.22538 0.74168 0.0
H1008 H 0.0052 0.63931 0.70932 0.0
H1009 H 0.0842 0.52543 0.74189 0.0
H1010 H 0.17264 0.60071 0.74803 0.0
H1011 H 0.22567 0.69926 0.74416 0.0
H1012 H 0.14074 0.81255 0.71203 0.0
H1013 H 0.05463 0.73675 0.70592 0.0
C1014 C 0.04177 0.63032 0.71775 0.0
C1015 C 0.03808 0.57651 0.72512 0.0
C1016 C 0.09049 0.67402 0.72143 0.0
C1017 C 0.0861 0.56626 0.736 0.0
C1018 C 0.13623 0.60945 0.73957 0.0
C1019 C 0.1877 0.70773 0.73595 0.0
C1020 C 0.18984 0.76158 0.72853 0.0
C1021 C 0.13834 0.66373 0.73243 0.0
C1022 C 0.14052 0.77156 0.71787 0.0
C1023 C 0.09143 0.72814 0.71432 0.0
H1024 H 0.36163 0.10885 0.43955 0.0
H1025 H 0.21027 0.03381 0.41096 0.0
H1026 H 0.30593 1.00367 0.39532 0.0
H1027 H 0.43062 1.01348 0.38847 0.0
H1028 H 0.57994 0.09196 0.41694 0.0
H1029 H 0.48732 0.10412 0.43443 0.0
C1030 C 0.34999 0.08568 0.42989 0.0
C1031 C 0.28004 0.07517 0.42598 0.0
C1032 C 0.40469 0.06844 0.42119 0.0
C1033 C 0.26441 0.04323 0.41385 0.0
C1034 C 0.31881 0.02592 0.40501 0.0
C1035 C 0.44282 0.03097 0.39874 0.0
C1036 C 0.5109 0.05163 0.40166 0.0
C1037 C 0.38892 0.04008 0.40839 0.0
C1038 C 0.52739 0.07528 0.41476 0.0
C1039 C 0.47449 0.08294 0.4246 0.0
H1040 H 0.74462 0.10923 0.41093 0.0
H1041 H 0.88234 0.06842 0.37659 0.0
H1042 H 0.9843 0.07197 0.39232 0.0
H1043 H 0.03484 0.08957 0.41579 0.0
H1044 H 0.89668 0.12136 0.45055 0.0
H1045 H 0.7943 0.11811 0.43483 0.0
C1046 C 0.79705 0.10118 0.40691 0.0
C1047 C 0.80609 0.08943 0.39256 0.0
C1048 C 0.85519 0.10146 0.41613 0.0
C1049 C 0.87406 0.0778 0.38756 0.0
C1050 C 0.93233 0.07988 0.39655 0.0
C1051 C 0.98212 0.09521 0.41991 0.0
C1052 C 0.97311 0.10576 0.43429 0.0
C1053 C 0.92362 0.09199 0.41084 0.0
C1054 C 0.90473 0.11268 0.43955 0.0
C1055 C 0.84635 0.11119 0.43054 0.0
H1056 H 0.43114 0.30645 0.92962 0.0
H1057 H 0.42222 0.11901 0.93723 0.0
H1058 H 0.33324 0.10791 0.91874 0.0
H1059 H 0.26195 0.15167 0.89939 0.0
H1060 H 0.26884 0.34001 0.89298 0.0
H1061 H 0.35547 0.35045 0.91175 0.0
C1062 C 0.40905 0.26315 0.92739 0.0
C1063 C 0.43354 0.21363 0.93487 0.0
C1064 C 0.35847 0.25719 0.9167 0.0
C1065 C 0.40391 0.158 0.93183 0.0
C1066 C 0.35362 0.15159 0.9211 0.0
C1067 C 0.28301 0.19484 0.90206 0.0
C1068 C 0.25985 0.24502 0.89463 0.0
C1069 C 0.33145 0.20076 0.91326 0.0
C1070 C 0.28621 0.3008 0.89844 0.0
C1071 C 0.33552 0.30679 0.90922 0.0
H1072 H 0.8008 0.13112 0.93375 0.0
H1073 H 0.6589 0.2127 0.90455 0.0
H1074 H 0.75111 0.21437 0.88676 0.0
H1075 H 0.87643 0.2095 0.88115 0.0
H1076 H 0.02181 0.13253 0.9104 0.0
H1077 H 0.92416 0.11157 0.92658 0.0
C1078 C 0.78954 0.14674 0.92327 0.0
C1079 C 0.72317 0.17099 0.9203 0.0
C1080 C 0.84397 0.14994 0.91331 0.0
C1081 C 0.70928 0.19285 0.9069 0.0
C1082 C 0.76228 0.19459 0.89682 0.0
C1083 C 0.88654 0.18733 0.891 0.0
C1084 C 0.95611 0.17372 0.89478 0.0
C1085 C 0.83056 0.17603 0.90017 0.0
C1086 C 0.96863 0.14383 0.90737 0.0
C1087 C 0.91286 0.13207 0.9166 0.0
H1088 H 0.51991 0.99694 0.67466 0.0
H1089 H 0.54587 0.83368 0.69727 0.0
H1090 H 0.64443 0.80742 0.6823 0.0
H1091 H 0.71714 0.82726 0.66159 0.0
H1092 H 0.69597 0.99245 0.63963 0.0
H1093 H 0.60203 0.02193 0.65559 0.0
C1094 C 0.54749 0.95583 0.67636 0.0
C1095 C 0.52456 0.91666 0.68686 0.0
C1096 C 0.60484 0.94137 0.66781 0.0
C1097 C 0.56184 0.8642 0.68915 0.0
C1098 C 0.6182 0.84911 0.68058 0.0
C1099 C 0.69237 0.86996 0.66042 0.0
C1100 C 0.71269 0.90743 0.64943 0.0
C1101 C 0.63912 0.88676 0.6697 0.0
C1102 C 0.68115 0.963 0.64808 0.0
C1103 C 0.62724 0.97969 0.65714 0.0
H1104 H 0.00856 0.78934 0.65353 0.0
H1105 H 0.04939 0.9473 0.62937 0.0
H1106 H 0.15294 0.96847 0.64318 0.0
H1107 H 0.22777 0.94775 0.66309 0.0
H1108 H 0.19283 0.79128 0.6878 0.0
H1109 H 0.09274 0.76351 0.67277 0.0
C1110 C 0.04039 0.82812 0.65125 0.0
C1111 C 0.02009 0.86675 0.64038 0.0
C1112 C 0.10136 0.84044 0.65935 0.0
C1113 C 0.06284 0.91655 0.63758 0.0
C1114 C 0.1225 0.92896 0.64552 0.0
C1115 C 0.19895 0.90703 0.66509 0.0
C1116 C 0.21731 0.872 0.67664 0.0
C1117 C 0.14161 0.89188 0.65654 0.0
C1118 C 0.1799 0.81904 0.67897 0.0
C1119 C 0.12223 0.80348 0.67043 0.0
H1120 H 0.67588 0.88578 0.1876 0.0
H1121 H 0.73108 0.72956 0.16449 0.0
H1122 H 0.6485 0.7563 0.14605 0.0
H1123 H 0.5627 0.82602 0.13594 0.0
H1124 H 0.50659 0.98105 0.15939 0.0
H1125 H 0.58751 0.95319 0.17794 0.0
C1126 C 0.66932 0.85711 0.17864 0.0
C1127 C 0.71011 0.80565 0.17754 0.0
C1128 C 0.62204 0.87304 0.16792 0.0
C1129 C 0.7007 0.76944 0.16571 0.0
C1130 C 0.6536 0.78486 0.15507 0.0
C1131 C 0.56835 0.85376 0.14508 0.0
C1132 C 0.52823 0.90559 0.14616 0.0
C1133 C 0.6146 0.83702 0.15594 0.0
C1134 C 0.53637 0.94082 0.15819 0.0
C1135 C 0.58274 0.92492 0.16887 0.0
H1136 H 0.04154 0.75353 0.16237 0.0
H1137 H 0.9503 0.92752 0.16484 0.0
H1138 H 0.04405 0.96668 0.1501 0.0
H1139 H 0.1596 0.9545 0.13997 0.0
H1140 H 0.25672 0.78261 0.13919 0.0
H1141 H 0.15193 0.73943 0.15007 0.0
C1142 C 0.04136 0.79992 0.15956 0.0
C1143 C 0.99037 0.83799 0.16506 0.0
C1144 C 0.09696 0.82262 0.15171 0.0
C1145 C 0.98971 0.89749 0.16094 0.0
C1146 C 0.04352 0.92001 0.15261 0.0
C1147 C 0.15834 0.90755 0.14221 0.0
C1148 C 0.21671 0.87206 0.13925 0.0
C1149 C 0.09902 0.88349 0.14858 0.0
C1150 C 0.21295 0.81102 0.1417 0.0
C1151 C 0.15308 0.78634 0.14783 0.0
H1152 H 0.4062 0.73052 0.88432 0.0
H1153 H 0.56837 0.67238 0.91266 0.0
H1154 H 0.49336 0.6945 0.93252 0.0
H1155 H 0.37873 0.71966 0.94186 0.0
H1156 H 0.20928 0.76651 0.91422 0.0
H1157 H 0.29054 0.76321 0.8942 0.0
C1158 C 0.42516 0.72342 0.89486 0.0
C1159 C 0.49279 0.69922 0.89697 0.0
C1160 C 0.38067 0.73523 0.90638 0.0
C1161 C 0.51634 0.68985 0.9107 0.0
C1162 C 0.47366 0.70304 0.92209 0.0
C1163 C 0.36001 0.73106 0.93149 0.0
C1164 C 0.28814 0.74374 0.92957 0.0
C1165 C 0.40543 0.72455 0.92006 0.0
C1166 C 0.26451 0.75781 0.91606 0.0
C1167 C 0.31078 0.75453 0.90458 0.0
H1168 H 0.94854 0.73764 0.93771 0.0
H1169 H 0.03795 0.57529 0.92262 0.0
H1170 H 0.94777 0.56971 0.90446 0.0
H1171 H 0.84451 0.61027 0.89294 0.0
H1172 H 0.75459 0.7735 0.9074 0.0
H1173 H 0.84493 0.77977 0.92569 0.0
C1174 C 0.94809 0.70085 0.9305 0.0
C1175 C 0.99995 0.65671 0.9316 0.0
C1176 C 0.89643 0.69831 0.91994 0.0
C1177 C 0.99896 0.60982 0.92203 0.0
C1178 C 0.94736 0.60663 0.91164 0.0
C1179 C 0.84413 0.64736 0.90008 0.0
C1180 C 0.79204 0.69118 0.89881 0.0
C1181 C 0.89599 0.65059 0.9105 0.0
C1182 C 0.79376 0.73916 0.90809 0.0
C1183 C 0.84531 0.74259 0.91859 0.0
H1184 H 0.3326 0.46445 0.39072 0.0
H1185 H 0.22017 0.61977 0.40387 0.0
H1186 H 0.30258 0.63271 0.42324 0.0
H1187 H 0.40979 0.60458 0.43528 0.0
H1188 H 0.53041 0.45566 0.42119 0.0
H1189 H 0.43907 0.43359 0.40364 0.0
C1190 C 0.32561 0.50094 0.39788 0.0
C1191 C 0.27015 0.5414 0.39576 0.0
C1192 C 0.37405 0.50869 0.40887 0.0
C1193 C 0.26246 0.58844 0.40513 0.0
C1194 C 0.30938 0.59563 0.41625 0.0
C1195 C 0.41613 0.56682 0.42845 0.0
C1196 C 0.47743 0.53219 0.42941 0.0
C1197 C 0.36578 0.55662 0.41805 0.0
C1198 C 0.48382 0.48282 0.42071 0.0
C1199 C 0.43204 0.47083 0.41057 0.0
H1200 H 0.75301 0.61186 0.40908 0.0
H1201 H 0.85243 0.51585 0.44256 0.0
H1202 H 0.94763 0.48738 0.42693 0.0
H1203 H 0.00622 0.49113 0.40364 0.0
H1204 H 0.90627 0.58688 0.37025 0.0
H1205 H 0.80949 0.61319 0.38574 0.0
C1206 C 0.79544 0.58479 0.41302 0.0
C1207 C 0.79449 0.5665 0.42718 0.0
C1208 C 0.8509 0.56815 0.40387 0.0
C1209 C 0.85065 0.53102 0.43184 0.0
C1210 C 0.90563 0.5145 0.42284 0.0
C1211 C 0.96288 0.51712 0.39968 0.0
C1212 C 0.96463 0.53712 0.38565 0.0
C1213 C 0.90669 0.53277 0.4088 0.0
C1214 C 0.90763 0.57134 0.38094 0.0
C1215 C 0.85181 0.58648 0.38984 0.0
H1216 H 0.51443 0.33722 0.16491 0.0
H1217 H 0.60159 0.43262 0.19992 0.0
H1218 H 0.69596 0.47146 0.18499 0.0
H1219 H 0.75599 0.47824 0.16171 0.0
H1220 H 0.66729 0.38147 0.12704 0.0
H1221 H 0.57298 0.34424 0.14195 0.0
C1222 C 0.55403 0.36635 0.16937 0.0
C1223 C 0.54995 0.38128 0.18374 0.0
C1224 C 0.60866 0.38892 0.16065 0.0
C1225 C 0.60255 0.41956 0.18905 0.0
C1226 C 0.65685 0.44215 0.18043 0.0
C1227 C 0.71566 0.44954 0.15735 0.0
C1228 C 0.71977 0.43319 0.14305 0.0
C1229 C 0.66069 0.42732 0.16616 0.0
C1230 C 0.66662 0.39522 0.13786 0.0
C1231 C 0.6122 0.37361 0.14645 0.0
H1232 H 0.16352 0.35498 0.18951 0.0
H1233 H 0.29924 0.4982 0.17646 0.0
H1234 H 0.20605 0.53392 0.16071 0.0
H1235 H 0.0921 0.51561 0.14858 0.0
H1236 H 0.9638 0.36566 0.16072 0.0
H1237 H 0.04887 0.34061 0.17881 0.0
C1238 C 0.17261 0.39449 0.18331 0.0
C1239 C 0.23847 0.42347 0.18394 0.0
C1240 C 0.12061 0.41268 0.17396 0.0
C1241 C 0.249 0.47522 0.17614 0.0
C1242 C 0.19601 0.49508 0.16704 0.0
C1243 C 0.08233 0.47789 0.15531 0.0
C1244 C 0.02176 0.44219 0.15321 0.0
C1245 C 0.13256 0.46283 0.16552 0.0
C1246 C 0.01015 0.39338 0.16198 0.0
C1247 C 0.05866 0.37918 0.17236 0.0
H1248 H 0.53552 0.32978 0.64488 0.0
H1249 H 0.52834 0.51845 0.6389 0.0
H1250 H 0.62848 0.53146 0.65454 0.0
H1251 H 0.71151 0.49135 0.67096 0.0
H1252 H 0.71587 0.30416 0.67941 0.0
H1253 H 0.62396 0.2883 0.66164 0.0
C1254 C 0.55668 0.37354 0.64692 0.0
C1255 C 0.52462 0.42322 0.64073 0.0
C1256 C 0.61324 0.38096 0.65641 0.0
C1257 C 0.55184 0.4797 0.64357 0.0
C1258 C 0.6091 0.48714 0.65251 0.0
C1259 C 0.69299 0.44671 0.66901 0.0
C1260 C 0.72072 0.39905 0.67671 0.0
C1261 C 0.63915 0.43834 0.65919 0.0
C1262 C 0.69586 0.34177 0.67371 0.0
C1263 C 0.64297 0.33277 0.66357 0.0
H1264 H 0.23742 0.46277 0.66209 0.0
H1265 H 0.19807 0.28514 0.648 0.0
H1266 H 0.10408 0.27388 0.6655 0.0
H1267 H 0.02268 0.32009 0.68303 0.0
H1268 H 0.06468 0.49876 0.69624 0.0
H1269 H 0.16779 0.50372 0.68116 0.0
C1270 C 0.20923 0.42108 0.663 0.0
C1271 C 0.22489 0.37498 0.65365 0.0
C1272 C 0.15502 0.41526 0.67298 0.0
C1273 C 0.18782 0.32125 0.65509 0.0
C1274 C 0.13348 0.31503 0.66505 0.0
C1275 C 0.05581 0.3593 0.6829 0.0
C1276 C 0.0361 0.40895 0.69091 0.0
C1277 C 0.11515 0.36237 0.67384 0.0
C1278 C 0.07882 0.45987 0.69034 0.0
C1279 C 0.13766 0.46291 0.68161 0.0
H1280 H 0.28571 0.20985 0.56312 0.0
H1281 H 0.27574 0.3723 0.53956 0.0
H1282 H 0.27211 0.31436 0.51775 0.0
H1283 H 0.26484 0.21619 0.50582 0.0
H1284 H 0.27673 0.05701 0.53039 0.0
H1285 H 0.28832 0.11578 0.55153 0.0
C1286 C 0.28285 0.23356 0.55329 0.0
C1287 C 0.28011 0.29608 0.55315 0.0
C1288 C 0.28178 0.20026 0.54098 0.0
C1289 C 0.27727 0.32461 0.54012 0.0
C1290 C 0.27544 0.29131 0.52764 0.0
C1291 C 0.27149 0.19435 0.5157 0.0
C1292 C 0.26954 0.13178 0.51636 0.0
C1293 C 0.277 0.22891 0.52798 0.0
C1294 C 0.27785 0.10467 0.52945 0.0
C1295 C 0.28399 0.13837 0.54159 0.0
H1296 H 0.89319 0.9184 0.54361 0.0
H1297 H 0.09852 0.8644 0.55724 0.0
H1298 H 0.15175 0.94842 0.54497 0.0
H1299 H 0.13817 0.04291 0.53247 0.0
H1300 H 0.93217 0.09797 0.51941 0.0
H1301 H 0.87922 1.01365 0.53159 0.0
C1302 C 0.94982 0.92375 0.54354 0.0
C1303 C 0.99119 0.88608 0.55194 0.0
C1304 C 0.97891 0.97609 0.53789 0.0
C1305 C 0.06485 0.8926 0.55104 0.0
C1306 C 0.09508 0.94245 0.54459 0.0
C1307 C 0.08132 0.03827 0.5329 0.0
C1308 C 0.03952 0.07618 0.52463 0.0
C1309 C 0.05216 0.98613 0.53866 0.0
C1310 C 0.96594 0.06968 0.52556 0.0
C1311 C 0.93588 0.01971 0.53197 0.0
H1312 H 0.27091 0.06443 0.75565 0.0
H1313 H 0.19883 0.91739 0.78052 0.0
H1314 H 0.17863 0.98375 0.80008 0.0
H1315 H 0.1933 0.07833 0.8106 0.0
H1316 H 0.25974 0.23104 0.78691 0.0
H1317 H 0.27325 0.16701 0.76631 0.0
C1318 C 0.24788 0.04737 0.76509 0.0
C1319 C 0.23474 0.98556 0.76636 0.0
C1320 C 0.23694 0.08644 0.77648 0.0
C1321 C 0.20844 0.96422 0.77908 0.0
C1322 C 0.19733 1.00228 0.79031 0.0
C1323 C 0.2074 0.09952 0.80088 0.0
C1324 C 0.22277 0.16118 0.80049 0.0
C1325 C 0.21273 0.06294 0.78917 0.0
C1326 C 0.24524 0.18484 0.78766 0.0
C1327 C 0.25281 0.14777 0.77582 0.0
H1328 H 0.95927 0.27909 0.81831 0.0
H1329 H 0.09513 0.1793 0.79152 0.0
H1330 H 0.10512 0.26292 0.77559 0.0
H1331 H 0.07126 0.36234 0.76852 0.0
H1332 H 0.90153 0.44692 0.79011 0.0
H1333 H 0.91072 0.37471 0.80898 0.0
C1334 C 0.99135 0.27567 0.80902 0.0
C1335 C 0.03253 0.2242 0.80696 0.0
C1336 C 0.99226 0.32301 0.7992 0.0
C1337 C 0.06856 0.21957 0.79419 0.0
C1338 C 0.07377 0.26762 0.78497 0.0
C1339 C 0.03923 0.36734 0.77782 0.0
C1340 C 0.98573 0.41089 0.77769 0.0
C1341 C 0.03725 0.32021 0.78754 0.0
C1342 C 0.94401 0.41532 0.78979 0.0
C1343 C 0.94779 0.37232 0.80046 0.0
H1344 H 0.74582 0.76634 0.50833 0.0
H1345 H 0.80617 0.61095 0.53137 0.0
H1346 H 0.81667 0.67055 0.55269 0.0
H1347 H 0.80336 0.76606 0.56486 0.0
H1348 H 0.7423 0.92061 0.54185 0.0
H1349 H 0.73568 0.86172 0.52042 0.0
C1350 C 0.7623 0.74528 0.51796 0.0
C1351 C 0.77543 0.68366 0.5181 0.0
C1352 C 0.76607 0.77954 0.53025 0.0
C1353 C 0.79686 0.65796 0.53076 0.0
C1354 C 0.8017 0.69205 0.54303 0.0
C1355 C 0.78662 0.78674 0.55533 0.0
C1356 C 0.77097 0.8478 0.55525 0.0
C1357 C 0.78483 0.7526 0.54296 0.0
C1358 C 0.75296 0.87378 0.54241 0.0
C1359 C 0.74999 0.84011 0.53011 0.0
H1360 H 0.89866 0.86378 0.27521 0.0
H1361 H 0.68217 0.81849 0.26675 0.0
H1362 H 0.64349 0.89596 0.28262 0.0
H1363 H 0.67099 0.98373 0.29661 0.0
H1364 H 0.88652 0.02412 0.30708 0.0
H1365 H 0.92626 0.94742 0.29096 0.0
C1366 C 0.84299 0.86893 0.27733 0.0
C1367 C 0.79345 0.83522 0.26959 0.0
C1368 C 0.82117 0.91667 0.28572 0.0
C1369 C 0.72165 0.84276 0.27263 0.0
C1370 C 0.69946 0.88894 0.28126 0.0
C1371 C 0.72677 0.97672 0.29526 0.0
C1372 C 0.77544 1.01044 0.30316 0.0
C1373 C 0.74875 0.92791 0.2873 0.0
C1374 C 0.84762 1.00055 0.3009 0.0
C1375 C 0.87027 0.95487 0.29212 0.0
H1376 H 0.10832 0.6953 0.30015 0.0
H1377 H 0.97918 0.55237 0.28455 0.0
H1378 H 0.95134 0.61237 0.26377 0.0
H1379 H 0.95115 0.71048 0.25217 0.0
H1380 H 0.07894 0.85264 0.2682 0.0
H1381 H 0.11756 0.7884 0.28737 0.0
C1382 C 0.07615 0.67576 0.292 0.0
C1383 C 0.04718 0.6181 0.29393 0.0
C1384 C 0.05834 0.71142 0.28049 0.0
C1385 C 1.00362 0.59543 0.28334 0.0
C1386 C 0.98682 0.63039 0.27157 0.0
C1387 C 0.99011 0.72677 0.25934 0.0
C1388 C 0.01413 0.78619 0.25825 0.0
C1389 C 0.01222 0.6891 0.27028 0.0
C1390 C 0.06021 0.80737 0.26857 0.0
C1391 C 0.08245 0.77039 0.2795 0.0
H1392 H 0.33686 0.94502 0.0406 0.0
H1393 H 0.19803 0.88237 0.07306 0.0
H1394 H 0.15562 0.80347 0.05752 0.0
H1395 H 0.16759 0.74755 1.03566 0.0
H1396 H 0.30798 0.80959 1.00333 0.0
H1397 H 0.34709 0.89051 1.0186 0.0
C1398 C 0.29558 0.9151 0.04414 0.0
C1399 C 0.27205 0.9183 0.05816 0.0
C1400 C 0.2763 0.86754 1.03559 0.0
C1401 C 0.21773 0.88033 0.06248 0.0
C1402 C 0.19507 0.83437 0.0537 0.0
C1403 C 0.20835 0.77791 1.03209 0.0
C1404 C 0.23541 0.77239 1.01837 0.0
C1405 C 0.22667 0.82607 0.04054 0.0
C1406 C 0.28758 0.81205 1.01387 0.0
C1407 C 0.30813 0.85926 1.02245 0.0
H1408 H 0.0856 0.64652 1.03572 0.0
H1409 H 0.90937 0.58865 1.01081 0.0
H1410 H 0.89088 0.50431 1.0266 0.0
H1411 H 0.93139 0.44355 0.04658 0.0
H1412 H 0.10166 0.50545 0.07241 0.0
H1413 H 0.12069 0.5889 0.05643 0.0
C1414 C 0.04123 0.6168 1.03408 0.0
C1415 C 0.99722 0.62535 1.02234 0.0
C1416 C 0.03234 0.56762 0.04301 0.0
C1417 C 0.94209 0.58477 1.02003 0.0
C1418 C 0.93271 0.53568 1.0289 0.0
C1419 C 0.97128 0.47581 0.04899 0.0
C1420 C 0.013 0.46894 0.06114 0.0
C1421 C 0.97847 0.52603 0.04027 0.0
C1422 C 0.06771 0.50997 0.06339 0.0
C1423 C 0.07801 0.55812 0.05434 0.0
H1424 H 0.16558 0.56081 0.28814 0.0
H1425 H 0.32704 0.50174 0.31647 0.0
H1426 H 0.34392 0.41403 0.30246 0.0
H1427 H 0.31275 0.35288 0.28318 0.0
H1428 H 0.16764 0.41177 0.25158 0.0
H1429 H 0.13761 0.49697 0.2667 0.0
C1430 C 0.20448 0.52898 0.29124 0.0
C1431 C 0.24318 0.53753 0.30393 0.0
C1432 C 0.21479 0.47755 0.2828 0.0
C1433 C 0.29509 0.49607 0.30721 0.0
C1434 C 0.30446 0.44549 0.29919 0.0
C1435 C 0.27509 0.38449 0.27919 0.0
C1436 C 0.24633 0.3769 0.26556 0.0
C1437 C 0.26396 0.43538 0.28717 0.0
C1438 C 0.19355 0.41682 0.26157 0.0
C1439 C 0.17722 0.46619 0.27021 0.0
H1440 H 0.72649 0.31874 1.00451 0.0
H1441 H 0.8373 0.16635 1.01963 0.0
H1442 H 0.87838 0.22334 0.0398 0.0
H1443 H 0.87246 0.31152 0.05425 0.0
H1444 H 0.74962 0.46096 0.04121 0.0
H1445 H 0.72501 0.41088 1.01883 0.0
C1446 C 0.76133 0.29836 1.01193 0.0
C1447 C 0.77996 0.23807 1.01023 0.0
C1448 C 0.78211 0.33104 1.02391 0.0
C1449 C 0.82294 0.21238 1.02045 0.0
C1450 C 0.8461 0.24506 1.03204 0.0
C1451 C 0.84132 0.33416 0.04643 0.0
C1452 C 0.81319 0.3906 0.04954 0.0
C1453 C 0.82463 0.30381 1.03402 0.0
C1454 C 0.77282 0.41835 0.03919 0.0
C1455 C 0.75818 0.38914 1.02643 0.0
H1456 H 0.78567 0.68931 0.79659 0.0
H1457 H 0.60268 0.60618 0.81489 0.0
H1458 H 0.61092 0.52493 0.79926 0.0
H1459 H 0.67091 0.47152 0.78028 0.0
H1460 H 0.8527 0.55245 0.76118 0.0
H1461 H 0.84487 0.63619 0.77686 0.0
C1462 C 0.74669 0.65413 0.797 0.0
C1463 C 0.69218 0.65694 0.8071 0.0
C1464 C 0.75221 0.60465 0.78774 0.0
C1465 C 0.64421 0.60878 0.80739 0.0
C1466 C 0.64919 0.56051 0.79834 0.0
C1467 C 0.70885 0.50742 0.77952 0.0
C1468 C 0.76257 0.50424 0.76939 0.0
C1469 C 0.70316 0.55731 0.7885 0.0
C1470 C 0.81095 0.55198 0.76878 0.0
C1471 C 0.80629 0.6009 0.7778 0.0
H1472 H 0.67932 0.14885 1.02706 0.0
H1473 H 0.49405 0.25528 1.0319 0.0
H1474 H 0.46336 0.1994 0.05295 0.0
H1475 H 0.47139 0.10684 0.06519 0.0
H1476 H 0.63695 0.98296 0.05575 0.0
H1477 H 0.69185 0.05769 0.04045 0.0
C1478 C 0.63303 0.16112 1.0328 0.0
C1479 C 0.58798 0.2056 1.02758 0.0
C1480 C 0.61027 0.12304 0.04346 0.0
C1481 C 0.52982 0.22174 1.03563 0.0
C1482 C 0.51124 0.18844 0.04741 0.0
C1483 C 0.51978 0.09511 0.05992 0.0
C1484 C 0.5489 0.03781 0.06141 0.0
C1485 C 0.54807 0.13644 0.05064 0.0
C1486 C 0.61251 0.0257 0.05463 0.0
C1487 C 0.64386 0.06862 0.04595 0.0
H1488 H 0.48862 0.02193 0.29626 0.0
H1489 H 0.63639 0.13874 0.31657 0.0
H1490 H 0.61563 0.21436 0.30039 0.0
H1491 H 0.55192 0.25386 0.28047 0.0
H1492 H 0.41087 0.13801 0.25788 0.0
H1493 H 0.43359 0.05849 0.27418 0.0
C1494 C 0.5167 0.06364 0.29708 0.0
C1495 C 0.56225 0.07351 0.30847 0.0
C1496 C 0.50578 0.10893 0.28699 0.0
C1497 C 0.59826 0.12831 0.30888 0.0
C1498 C 0.58727 0.17288 0.29923 0.0
C1499 C 0.52673 0.21117 0.27899 0.0
C1500 C 0.47885 0.20335 0.26806 0.0
C1501 C 0.54026 0.16445 0.28835 0.0
C1502 C 0.4474 0.14672 0.26634 0.0
C1503 C 0.46023 0.1005 0.2757 0.0
H1504 H 0.58198 0.78495 0.79807 0.0
H1505 H 0.37038 0.73753 0.80996 0.0
H1506 H 0.3258 0.82303 0.79704 0.0
H1507 H 0.34883 0.91627 0.78397 0.0
H1508 H 0.56221 0.96772 0.77478 0.0
H1509 H 0.60526 0.88173 0.78745 0.0
C1510 C 0.52582 0.79188 0.79759 0.0
C1511 C 0.48005 0.75342 0.80509 0.0
C1512 C 0.50157 0.84538 0.79177 0.0
C1513 C 0.4073 0.76449 0.80408 0.0
C1514 C 0.382 0.81515 0.79719 0.0
C1515 C 0.40494 0.90979 0.78505 0.0
C1516 C 0.45188 0.94644 0.7773 0.0
C1517 C 0.42897 0.8572 0.79149 0.0
C1518 C 0.52421 0.9397 0.7801 0.0
C1519 C 0.54895 0.88864 0.78679 0.0
H1520 H 0.36931 0.45418 0.5462 0.0
H1521 H 0.55489 0.34778 0.55204 0.0
H1522 H 0.6109 0.39838 0.53228 0.0
H1523 H 0.61321 0.48012 0.51615 0.0
H1524 H 0.42988 0.58794 0.50929 0.0
H1525 H 0.36613 0.5287 0.52701 0.0
C1526 C 0.42186 0.44134 0.5431 0.0
C1527 C 0.45848 0.39743 0.55087 0.0
C1528 C 0.45383 0.47105 0.53173 0.0
C1529 C 0.52568 0.38108 0.54641 0.0
C1530 C 0.5577 0.41035 0.53515 0.0
C1531 C 0.55835 0.49024 0.51801 0.0
C1532 C 0.52652 0.53898 0.51111 0.0
C1533 C 0.52303 0.45643 0.52809 0.0
C1534 C 0.4558 0.55082 0.51415 0.0
C1535 C 0.41976 0.51712 0.5244 0.0
loop_
_geom_bond_atom_site_label_1
_geom_bond_atom_site_label_2
_geom_bond_distance
_geom_bond_site_symmetry_2
_ccdc_geom_bond_type
Fe0 O1 1.886 . S
Fe0 O4 1.715 . S
Fe0 O9 2.077 . S
Fe0 O14 1.935 . S
Fe0 O20 2.077 . S
Fe0 O29 1.935 . S
O1 Fe0 1.886 . S
O1 Fe3 1.715 . S
Fe2 O4 1.886 . S
Fe2 O5 1.715 . S
Fe2 O12 1.947 . S
Fe2 O13 2.077 . S
Fe2 O19 1.935 . S
Fe2 O28 2.077 . S
Fe3 O1 1.715 . S
Fe3 O6 1.886 . S
Fe3 O10 1.935 . S
Fe3 O15 2.077 . S
Fe3 O21 1.935 . S
Fe3 O25 2.077 . S
O4 Fe0 1.715 . S
O4 Fe2 1.886 . S
O5 Fe2 1.715 . S
O5 Fe7 1.886 . S
O6 Fe3 1.886 . S
O6 Fe7 1.715 . S
Fe7 O5 1.886 . S
Fe7 O6 1.715 . S
Fe7 O11 2.077 1_545 S
Fe7 O16 1.935 . S
Fe7 O18 2.077 1_545 S
Fe7 O26 1.935 . S
C8 O20 1.381 . S
C8 O21 1.421 . S
O9 Fe0 2.077 . S
O9 C22 1.381 . S
O10 Fe3 1.935 . S
O10 C22 1.421 . S
O11 Fe7 2.077 1_565 S
O11 C27 1.381 . S
O12 Fe2 1.947 . S
O12 C27 1.411 1_545 S
O13 Fe2 2.077 . S
O13 C17 1.381 . S
O14 Fe0 1.935 . S
O14 C17 1.421 . S
O15 Fe3 2.077 . S
O15 C23 1.381 . S
O16 Fe7 1.935 . S
O16 C23 1.421 . S
C17 O13 1.381 . S
C17 O14 1.421 . S
O18 Fe7 2.077 1_565 S
O18 C30 1.381 . S
O19 Fe2 1.935 . S
O19 C30 1.421 1_545 S
O20 Fe0 2.077 . S
O20 C8 1.381 . S
O21 Fe3 1.935 . S
O21 C8 1.421 . S
C22 O9 1.381 . S
C22 O10 1.421 . S
C23 O15 1.381 . S
C23 O16 1.421 . S
C24 O25 1.381 . S
C24 O26 1.421 . S
O25 Fe3 2.077 . S
O25 C24 1.381 . S
O26 Fe7 1.935 . S
O26 C24 1.421 . S
C27 O11 1.381 . S
C27 O12 1.411 1_565 S
O28 Fe2 2.077 . S
O28 C31 1.381 . S
O29 Fe0 1.935 . S
O29 C31 1.421 . S
C30 O18 1.381 . S
C30 O19 1.421 1_565 S
C31 O28 1.381 . S
C31 O29 1.421 . S
Fe32 O33 1.886 . S
Fe32 O36 1.715 . S
Fe32 O41 2.077 . S
Fe32 O46 1.935 . S
Fe32 O52 2.077 . S
Fe32 O61 1.935 . S
O33 Fe32 1.886 . S
O33 Fe35 1.715 . S
Fe34 O36 1.886 . S
Fe34 O37 1.715 . S
Fe34 O44 1.947 . S
Fe34 O45 2.077 . S
Fe34 O51 1.935 . S
Fe34 O60 2.077 . S
Fe35 O33 1.715 . S
Fe35 O38 1.886 . S
Fe35 O42 1.935 . S
Fe35 O47 2.077 . S
Fe35 O53 1.935 . S
Fe35 O57 2.077 . S
O36 Fe32 1.715 . S
O36 Fe34 1.886 . S
O37 Fe34 1.715 . S
O37 Fe39 1.886 . S
O38 Fe35 1.886 . S
O38 Fe39 1.715 . S
Fe39 O37 1.886 . S
Fe39 O38 1.715 . S
Fe39 O43 2.077 1_545 S
Fe39 O48 1.935 . S
Fe39 O50 2.077 1_545 S
Fe39 O58 1.935 . S
C40 O52 1.381 . S
C40 O53 1.421 . S
O41 Fe32 2.077 . S
O41 C54 1.381 . S
O42 Fe35 1.935 . S
O42 C54 1.421 . S
O43 Fe39 2.077 1_565 S
O43 C59 1.381 . S
O44 Fe34 1.947 . S
O44 C59 1.411 1_545 S
O45 Fe34 2.077 . S
O45 C49 1.381 . S
O46 Fe32 1.935 . S
O46 C49 1.421 . S
O47 Fe35 2.077 . S
O47 C55 1.381 . S
O48 Fe39 1.935 . S
O48 C55 1.421 . S
C49 O45 1.381 . S
C49 O46 1.421 . S
O50 Fe39 2.077 1_565 S
O50 C62 1.381 . S
O51 Fe34 1.935 . S
O51 C62 1.421 1_545 S
O52 Fe32 2.077 . S
O52 C40 1.381 . S
O53 Fe35 1.935 . S
O53 C40 1.421 . S
C54 O41 1.381 . S
C54 O42 1.421 . S
C55 O47 1.381 . S
C55 O48 1.421 . S
C56 O57 1.381 . S
C56 O58 1.421 . S
O57 Fe35 2.077 . S
O57 C56 1.381 . S
O58 Fe39 1.935 . S
O58 C56 1.421 . S
C59 O43 1.381 . S
C59 O44 1.411 1_565 S
O60 Fe34 2.077 . S
O60 C63 1.381 . S
O61 Fe32 1.935 . S
O61 C63 1.421 . S
C62 O50 1.381 . S
C62 O51 1.421 1_565 S
C63 O60 1.381 . S
C63 O61 1.421 . S
Fe64 O65 1.886 . S
Fe64 O68 1.715 . S
Fe64 O73 2.077 . S
Fe64 O78 1.935 . S
Fe64 O84 2.077 . S
Fe64 O93 1.947 . S
O65 Fe64 1.886 . S
O65 Fe67 1.715 . S
Fe66 O68 1.886 . S
Fe66 O69 1.715 . S
Fe66 O76 1.935 . S
Fe66 O77 2.077 1_565 S
Fe66 O83 1.935 . S
Fe66 O92 2.077 1_565 S
Fe67 O65 1.715 . S
Fe67 O70 1.886 . S
Fe67 O74 1.935 . S
Fe67 O79 2.077 . S
Fe67 O85 1.935 . S
Fe67 O89 2.077 . S
O68 Fe64 1.715 . S
O68 Fe66 1.886 . S
O69 Fe66 1.715 . S
O69 Fe71 1.886 . S
O70 Fe67 1.886 . S
O70 Fe71 1.715 . S
Fe71 O69 1.886 . S
Fe71 O70 1.715 . S
Fe71 O75 2.077 . S
Fe71 O80 1.935 . S
Fe71 O82 2.077 . S
Fe71 O90 1.935 . S
C72 O84 1.381 . S
C72 O85 1.421 . S
O73 Fe64 2.077 . S
O73 C86 1.381 . S
O74 Fe67 1.935 . S
O74 C86 1.421 . S
O75 Fe71 2.077 . S
O75 C91 1.381 . S
O76 Fe66 1.935 . S
O76 C91 1.421 . S
O77 Fe66 2.077 1_545 S
O77 C81 1.381 . S
O78 Fe64 1.935 . S
O78 C81 1.421 1_565 S
O79 Fe67 2.077 . S
O79 C87 1.381 . S
O80 Fe71 1.935 . S
O80 C87 1.421 . S
C81 O77 1.381 . S
C81 O78 1.421 1_545 S
O82 Fe71 2.077 . S
O82 C94 1.381 . S
O83 Fe66 1.935 . S
O83 C94 1.421 . S
O84 Fe64 2.077 . S
O84 C72 1.381 . S
O85 Fe67 1.935 . S
O85 C72 1.421 . S
C86 O73 1.381 . S
C86 O74 1.421 . S
C87 O79 1.381 . S
C87 O80 1.421 . S
C88 O89 1.381 . S
C88 O90 1.421 . S
O89 Fe67 2.077 . S
O89 C88 1.381 . S
O90 Fe71 1.935 . S
O90 C88 1.421 . S
C91 O75 1.381 . S
C91 O76 1.421 . S
O92 Fe66 2.077 1_545 S
O92 C95 1.381 . S
O93 Fe64 1.947 . S
O93 C95 1.411 1_565 S
C94 O82 1.381 . S
C94 O83 1.421 . S
C95 O92 1.381 . S
C95 O93 1.411 1_545 S
Fe96 O97 1.886 . S
Fe96 O100 1.715 . S
Fe96 O105 2.077 . S
Fe96 O110 1.947 . S
Fe96 O116 2.077 . S
Fe96 O125 1.935 . S
O97 Fe96 1.886 . S
O97 Fe99 1.715 . S
Fe98 O100 1.886 . S
Fe98 O101 1.715 . S
Fe98 O108 1.935 . S
Fe98 O109 2.077 1_565 S
Fe98 O115 1.935 . S
Fe98 O124 2.077 1_565 S
Fe99 O97 1.715 . S
Fe99 O102 1.886 . S
Fe99 O106 1.935 . S
Fe99 O111 2.077 . S
Fe99 O117 1.935 . S
Fe99 O121 2.077 . S
O100 Fe96 1.715 . S
O100 Fe98 1.886 . S
O101 Fe98 1.715 . S
O101 Fe103 1.886 . S
O102 Fe99 1.886 . S
O102 Fe103 1.715 . S
Fe103 O101 1.886 . S
Fe103 O102 1.715 . S
Fe103 O107 2.077 . S
Fe103 O112 1.935 . S
Fe103 O114 2.077 . S
Fe103 O122 1.935 . S
C104 O116 1.381 . S
C104 O117 1.421 . S
O105 Fe96 2.077 . S
O105 C118 1.381 . S
O106 Fe99 1.935 . S
O106 C118 1.421 . S
O107 Fe103 2.077 . S
O107 C123 1.381 . S
O108 Fe98 1.935 . S
O108 C123 1.421 . S
O109 Fe98 2.077 1_545 S
O109 C113 1.381 . S
O110 Fe96 1.947 . S
O110 C113 1.411 1_565 S
O111 Fe99 2.077 . S
O111 C119 1.381 . S
O112 Fe103 1.935 . S
O112 C119 1.421 . S
C113 O109 1.381 . S
C113 O110 1.411 1_545 S
O114 Fe103 2.077 . S
O114 C126 1.381 . S
O115 Fe98 1.935 . S
O115 C126 1.421 . S
O116 Fe96 2.077 . S
O116 C104 1.381 . S
O117 Fe99 1.935 . S
O117 C104 1.421 . S
C118 O105 1.381 . S
C118 O106 1.421 . S
C119 O111 1.381 . S
C119 O112 1.421 . S
C120 O121 1.381 . S
C120 O122 1.421 . S
O121 Fe99 2.077 . S
O121 C120 1.381 . S
O122 Fe103 1.935 . S
O122 C120 1.421 . S
C123 O107 1.381 . S
C123 O108 1.421 . S
O124 Fe98 2.077 1_545 S
O124 C127 1.381 . S
O125 Fe96 1.935 . S
O125 C127 1.421 1_565 S
C126 O114 1.381 . S
C126 O115 1.421 . S
C127 O124 1.381 . S
C127 O125 1.421 1_545 S
Fe128 O129 1.886 . S
Fe128 O132 1.715 . S
Fe128 O137 2.077 . S
Fe128 O142 1.935 . S
Fe128 O148 2.077 . S
Fe128 O157 1.935 . S
O129 Fe128 1.886 . S
O129 Fe131 1.715 . S
Fe130 O132 1.886 . S
Fe130 O133 1.715 . S
Fe130 O140 1.935 . S
Fe130 O141 2.077 . S
Fe130 O147 1.935 . S
Fe130 O156 2.077 . S
Fe131 O129 1.715 . S
Fe131 O134 1.886 . S
Fe131 O138 1.935 . S
Fe131 O143 2.077 . S
Fe131 O149 1.935 . S
Fe131 O153 2.077 . S
O132 Fe128 1.715 . S
O132 Fe130 1.886 . S
O133 Fe130 1.715 . S
O133 Fe135 1.886 . S
O134 Fe131 1.886 . S
O134 Fe135 1.715 . S
Fe135 O133 1.886 . S
Fe135 O134 1.715 . S
Fe135 O139 2.077 . S
Fe135 O144 1.935 . S
Fe135 O146 2.077 . S
Fe135 O154 1.935 . S
C136 O148 1.381 . S
C136 O149 1.421 . S
O137 Fe128 2.077 . S
O137 C150 1.381 . S
O138 Fe131 1.935 . S
O138 C150 1.421 . S
O139 Fe135 2.077 . S
O139 C155 1.381 . S
O140 Fe130 1.935 . S
O140 C155 1.421 . S
O141 Fe130 2.077 . S
O141 C145 1.381 . S
O142 Fe128 1.935 . S
O142 C145 1.421 . S
O143 Fe131 2.077 . S
O143 C151 1.381 . S
O144 Fe135 1.935 . S
O144 C151 1.421 . S
C145 O141 1.381 . S
C145 O142 1.421 . S
O146 Fe135 2.077 . S
O146 C158 1.381 . S
O147 Fe130 1.935 . S
O147 C158 1.421 . S
O148 Fe128 2.077 . S
O148 C136 1.381 . S
O149 Fe131 1.935 . S
O149 C136 1.421 . S
C150 O137 1.381 . S
C150 O138 1.421 . S
C151 O143 1.381 . S
C151 O144 1.421 . S
C152 O153 1.381 . S
C152 O154 1.421 . S
O153 Fe131 2.077 . S
O153 C152 1.381 . S
O154 Fe135 1.935 . S
O154 C152 1.421 . S
C155 O139 1.381 . S
C155 O140 1.421 . S
O156 Fe130 2.077 . S
O156 C159 1.381 . S
O157 Fe128 1.935 . S
O157 C159 1.421 . S
C158 O146 1.381 . S
C158 O147 1.421 . S
C159 O156 1.381 . S
C159 O157 1.421 . S
Fe160 O161 1.886 . S
Fe160 O164 1.715 . S
Fe160 O169 2.077 . S
Fe160 O174 1.935 . S
Fe160 O180 2.077 . S
Fe160 O189 1.935 . S
O161 Fe160 1.886 . S
O161 Fe163 1.715 . S
Fe162 O164 1.886 . S
Fe162 O165 1.715 . S
Fe162 O172 1.935 . S
Fe162 O173 2.077 . S
Fe162 O179 1.935 . S
Fe162 O188 2.077 . S
Fe163 O161 1.715 . S
Fe163 O166 1.886 . S
Fe163 O170 1.935 . S
Fe163 O175 2.077 . S
Fe163 O181 1.935 . S
Fe163 O185 2.077 . S
O164 Fe160 1.715 . S
O164 Fe162 1.886 . S
O165 Fe162 1.715 . S
O165 Fe167 1.886 . S
O166 Fe163 1.886 . S
O166 Fe167 1.715 . S
Fe167 O165 1.886 . S
Fe167 O166 1.715 . S
Fe167 O171 2.077 . S
Fe167 O176 1.935 . S
Fe167 O178 2.077 . S
Fe167 O186 1.935 . S
C168 O180 1.381 . S
C168 O181 1.421 . S
O169 Fe160 2.077 . S
O169 C182 1.381 . S
O170 Fe163 1.935 . S
O170 C182 1.421 . S
O171 Fe167 2.077 . S
O171 C187 1.381 . S
O172 Fe162 1.935 . S
O172 C187 1.421 . S
O173 Fe162 2.077 . S
O173 C177 1.381 . S
O174 Fe160 1.935 . S
O174 C177 1.421 . S
O175 Fe163 2.077 . S
O175 C183 1.381 . S
O176 Fe167 1.935 . S
O176 C183 1.421 . S
C177 O173 1.381 . S
C177 O174 1.421 . S
O178 Fe167 2.077 . S
O178 C190 1.381 . S
O179 Fe162 1.935 . S
O179 C190 1.421 . S
O180 Fe160 2.077 . S
O180 C168 1.381 . S
O181 Fe163 1.935 . S
O181 C168 1.421 . S
C182 O169 1.381 . S
C182 O170 1.421 . S
C183 O175 1.381 . S
C183 O176 1.421 . S
C184 O185 1.381 . S
C184 O186 1.421 . S
O185 Fe163 2.077 . S
O185 C184 1.381 . S
O186 Fe167 1.935 . S
O186 C184 1.421 . S
C187 O171 1.381 . S
C187 O172 1.421 . S
O188 Fe162 2.077 . S
O188 C191 1.381 . S
O189 Fe160 1.935 . S
O189 C191 1.421 . S
C190 O178 1.381 . S
C190 O179 1.421 . S
C191 O188 1.381 . S
C191 O189 1.421 . S
Fe192 O193 1.886 . S
Fe192 O196 1.715 . S
Fe192 O201 2.077 . S
Fe192 O206 1.935 . S
Fe192 O212 2.077 . S
Fe192 O221 1.935 . S
O193 Fe192 1.886 . S
O193 Fe195 1.715 . S
Fe194 O196 1.886 . S
Fe194 O197 1.715 . S
Fe194 O204 1.935 . S
Fe194 O205 2.077 . S
Fe194 O211 1.935 . S
Fe194 O220 2.077 . S
Fe195 O193 1.715 . S
Fe195 O198 1.886 . S
Fe195 O202 1.935 . S
Fe195 O207 2.077 . S
Fe195 O213 1.935 . S
Fe195 O217 2.077 . S
O196 Fe192 1.715 . S
O196 Fe194 1.886 . S
O197 Fe194 1.715 . S
O197 Fe199 1.886 . S
O198 Fe195 1.886 . S
O198 Fe199 1.715 . S
Fe199 O197 1.886 . S
Fe199 O198 1.715 . S
Fe199 O203 2.077 . S
Fe199 O208 1.935 . S
Fe199 O210 2.077 . S
Fe199 O218 1.935 . S
C200 O212 1.381 . S
C200 O213 1.421 . S
O201 Fe192 2.077 . S
O201 C214 1.381 . S
O202 Fe195 1.935 . S
O202 C214 1.421 . S
O203 Fe199 2.077 . S
O203 C219 1.381 . S
O204 Fe194 1.935 . S
O204 C219 1.421 . S
O205 Fe194 2.077 . S
O205 C209 1.381 . S
O206 Fe192 1.935 . S
O206 C209 1.421 . S
O207 Fe195 2.077 . S
O207 C215 1.381 . S
O208 Fe199 1.935 . S
O208 C215 1.421 . S
C209 O205 1.381 . S
C209 O206 1.421 . S
O210 Fe199 2.077 . S
O210 C222 1.381 . S
O211 Fe194 1.935 . S
O211 C222 1.421 . S
O212 Fe192 2.077 . S
O212 C200 1.381 . S
O213 Fe195 1.935 . S
O213 C200 1.421 . S
C214 O201 1.381 . S
C214 O202 1.421 . S
C215 O207 1.381 . S
C215 O208 1.421 . S
C216 O217 1.381 . S
C216 O218 1.421 . S
O217 Fe195 2.077 . S
O217 C216 1.381 . S
O218 Fe199 1.935 . S
O218 C216 1.421 . S
C219 O203 1.381 . S
C219 O204 1.421 . S
O220 Fe194 2.077 . S
O220 C223 1.381 . S
O221 Fe192 1.935 . S
O221 C223 1.421 . S
C222 O210 1.381 . S
C222 O211 1.421 . S
C223 O220 1.381 . S
C223 O221 1.421 . S
Fe224 O225 1.886 . S
Fe224 O228 1.715 . S
Fe224 O233 2.077 . S
Fe224 O238 1.935 . S
Fe224 O244 2.077 . S
Fe224 O253 1.935 . S
O225 Fe224 1.886 . S
O225 Fe227 1.715 . S
Fe226 O228 1.886 . S
Fe226 O229 1.715 . S
Fe226 O236 1.935 . S
Fe226 O237 2.077 . S
Fe226 O243 1.935 . S
Fe226 O252 2.077 . S
Fe227 O225 1.715 . S
Fe227 O230 1.886 . S
Fe227 O234 1.935 . S
Fe227 O239 2.077 . S
Fe227 O245 1.935 . S
Fe227 O249 2.077 . S
O228 Fe224 1.715 . S
O228 Fe226 1.886 . S
O229 Fe226 1.715 . S
O229 Fe231 1.886 . S
O230 Fe227 1.886 . S
O230 Fe231 1.715 . S
Fe231 O229 1.886 . S
Fe231 O230 1.715 . S
Fe231 O235 2.077 . S
Fe231 O240 1.935 . S
Fe231 O242 2.077 . S
Fe231 O250 1.935 . S
C232 O244 1.381 . S
C232 O245 1.421 . S
O233 Fe224 2.077 . S
O233 C246 1.381 . S
O234 Fe227 1.935 . S
O234 C246 1.421 . S
O235 Fe231 2.077 . S
O235 C251 1.381 . S
O236 Fe226 1.935 . S
O236 C251 1.421 . S
O237 Fe226 2.077 . S
O237 C241 1.381 . S
O238 Fe224 1.935 . S
O238 C241 1.421 . S
O239 Fe227 2.077 . S
O239 C247 1.381 . S
O240 Fe231 1.935 . S
O240 C247 1.421 . S
C241 O237 1.381 . S
C241 O238 1.421 . S
O242 Fe231 2.077 . S
O242 C254 1.381 . S
O243 Fe226 1.935 . S
O243 C254 1.421 . S
O244 Fe224 2.077 . S
O244 C232 1.381 . S
O245 Fe227 1.935 . S
O245 C232 1.421 . S
C246 O233 1.381 . S
C246 O234 1.421 . S
C247 O239 1.381 . S
C247 O240 1.421 . S
C248 O249 1.381 . S
C248 O250 1.421 . S
O249 Fe227 2.077 . S
O249 C248 1.381 . S
O250 Fe231 1.935 . S
O250 C248 1.421 . S
C251 O235 1.381 . S
C251 O236 1.421 . S
O252 Fe226 2.077 . S
O252 C255 1.381 . S
O253 Fe224 1.935 . S
O253 C255 1.421 . S
C254 O242 1.381 . S
C254 O243 1.421 . S
C255 O252 1.381 . S
C255 O253 1.421 . S
Fe256 O257 1.886 . S
Fe256 O260 1.715 . S
Fe256 O265 2.077 . S
Fe256 O270 1.935 . S
Fe256 O276 2.077 . S
Fe256 O285 1.935 . S
O257 Fe256 1.886 . S
O257 Fe259 1.715 . S
Fe258 O260 1.886 . S
Fe258 O261 1.715 . S
Fe258 O268 1.947 . S
Fe258 O269 2.077 . S
Fe258 O275 1.935 . S
Fe258 O284 2.077 . S
Fe259 O257 1.715 . S
Fe259 O262 1.886 . S
Fe259 O266 1.935 . S
Fe259 O271 2.077 . S
Fe259 O277 1.935 . S
Fe259 O281 2.077 . S
O260 Fe256 1.715 . S
O260 Fe258 1.886 . S
O261 Fe258 1.715 . S
O261 Fe263 1.886 . S
O262 Fe259 1.886 . S
O262 Fe263 1.715 . S
Fe263 O261 1.886 . S
Fe263 O262 1.715 . S
Fe263 O267 2.077 1_545 S
Fe263 O272 1.935 . S
Fe263 O274 2.077 1_545 S
Fe263 O282 1.935 . S
C264 O276 1.381 . S
C264 O277 1.421 . S
O265 Fe256 2.077 . S
O265 C278 1.381 . S
O266 Fe259 1.935 . S
O266 C278 1.421 . S
O267 Fe263 2.077 1_565 S
O267 C283 1.381 . S
O268 Fe258 1.947 . S
O268 C283 1.411 1_545 S
O269 Fe258 2.077 . S
O269 C273 1.381 . S
O270 Fe256 1.935 . S
O270 C273 1.421 . S
O271 Fe259 2.077 . S
O271 C279 1.381 . S
O272 Fe263 1.935 . S
O272 C279 1.421 . S
C273 O269 1.381 . S
C273 O270 1.421 . S
O274 Fe263 2.077 1_565 S
O274 C286 1.381 . S
O275 Fe258 1.935 . S
O275 C286 1.421 1_545 S
O276 Fe256 2.077 . S
O276 C264 1.381 . S
O277 Fe259 1.935 . S
O277 C264 1.421 . S
C278 O265 1.381 . S
C278 O266 1.421 . S
C279 O271 1.381 . S
C279 O272 1.421 . S
C280 O281 1.381 . S
C280 O282 1.421 . S
O281 Fe259 2.077 . S
O281 C280 1.381 . S
O282 Fe263 1.935 . S
O282 C280 1.421 . S
C283 O267 1.381 . S
C283 O268 1.411 1_565 S
O284 Fe258 2.077 . S
O284 C287 1.381 . S
O285 Fe256 1.935 . S
O285 C287 1.421 . S
C286 O274 1.381 . S
C286 O275 1.421 1_565 S
C287 O284 1.381 . S
C287 O285 1.421 . S
Fe288 O289 1.886 . S
Fe288 O292 1.715 . S
Fe288 O297 2.077 . S
Fe288 O302 1.935 . S
Fe288 O308 2.077 . S
Fe288 O317 1.935 . S
O289 Fe288 1.886 . S
O289 Fe291 1.715 . S
Fe290 O292 1.886 . S
Fe290 O293 1.715 . S
Fe290 O300 1.947 . S
Fe290 O301 2.077 . S
Fe290 O307 1.935 . S
Fe290 O316 2.077 . S
Fe291 O289 1.715 . S
Fe291 O294 1.886 . S
Fe291 O298 1.935 . S
Fe291 O303 2.077 . S
Fe291 O309 1.935 . S
Fe291 O313 2.077 . S
O292 Fe288 1.715 . S
O292 Fe290 1.886 . S
O293 Fe290 1.715 . S
O293 Fe295 1.886 . S
O294 Fe291 1.886 . S
O294 Fe295 1.715 . S
Fe295 O293 1.886 . S
Fe295 O294 1.715 . S
Fe295 O299 2.077 1_545 S
Fe295 O304 1.935 . S
Fe295 O306 2.077 1_545 S
Fe295 O314 1.935 . S
C296 O308 1.381 . S
C296 O309 1.421 . S
O297 Fe288 2.077 . S
O297 C310 1.381 . S
O298 Fe291 1.935 . S
O298 C310 1.421 . S
O299 Fe295 2.077 1_565 S
O299 C315 1.381 . S
O300 Fe290 1.947 . S
O300 C315 1.411 1_545 S
O301 Fe290 2.077 . S
O301 C305 1.381 . S
O302 Fe288 1.935 . S
O302 C305 1.421 . S
O303 Fe291 2.077 . S
O303 C311 1.381 . S
O304 Fe295 1.935 . S
O304 C311 1.421 . S
C305 O301 1.381 . S
C305 O302 1.421 . S
O306 Fe295 2.077 1_565 S
O306 C318 1.381 . S
O307 Fe290 1.935 . S
O307 C318 1.421 1_545 S
O308 Fe288 2.077 . S
O308 C296 1.381 . S
O309 Fe291 1.935 . S
O309 C296 1.421 . S
C310 O297 1.381 . S
C310 O298 1.421 . S
C311 O303 1.381 . S
C311 O304 1.421 . S
C312 O313 1.381 . S
C312 O314 1.421 . S
O313 Fe291 2.077 . S
O313 C312 1.381 . S
O314 Fe295 1.935 . S
O314 C312 1.421 . S
C315 O299 1.381 . S
C315 O300 1.411 1_565 S
O316 Fe290 2.077 . S
O316 C319 1.381 . S
O317 Fe288 1.935 . S
O317 C319 1.421 . S
C318 O306 1.381 . S
C318 O307 1.421 1_565 S
C319 O316 1.381 . S
C319 O317 1.421 . S
Fe320 O321 1.886 . S
Fe320 O324 1.715 . S
Fe320 O329 2.077 . S
Fe320 O334 1.935 . S
Fe320 O340 2.077 . S
Fe320 O349 1.947 . S
O321 Fe320 1.886 . S
O321 Fe323 1.715 . S
Fe322 O324 1.886 . S
Fe322 O325 1.715 . S
Fe322 O332 1.935 . S
Fe322 O333 2.077 1_565 S
Fe322 O339 1.935 . S
Fe322 O348 2.077 1_565 S
Fe323 O321 1.715 . S
Fe323 O326 1.886 . S
Fe323 O330 1.935 . S
Fe323 O335 2.077 . S
Fe323 O341 1.935 . S
Fe323 O345 2.077 . S
O324 Fe320 1.715 . S
O324 Fe322 1.886 . S
O325 Fe322 1.715 . S
O325 Fe327 1.886 . S
O326 Fe323 1.886 . S
O326 Fe327 1.715 . S
Fe327 O325 1.886 . S
Fe327 O326 1.715 . S
Fe327 O331 2.077 . S
Fe327 O336 1.935 . S
Fe327 O338 2.077 . S
Fe327 O346 1.935 . S
C328 O340 1.381 . S
C328 O341 1.421 . S
O329 Fe320 2.077 . S
O329 C342 1.381 . S
O330 Fe323 1.935 . S
O330 C342 1.421 . S
O331 Fe327 2.077 . S
O331 C347 1.381 . S
O332 Fe322 1.935 . S
O332 C347 1.421 . S
O333 Fe322 2.077 1_545 S
O333 C337 1.381 . S
O334 Fe320 1.935 . S
O334 C337 1.421 1_565 S
O335 Fe323 2.077 . S
O335 C343 1.381 . S
O336 Fe327 1.935 . S
O336 C343 1.421 . S
C337 O333 1.381 . S
C337 O334 1.421 1_545 S
O338 Fe327 2.077 . S
O338 C350 1.381 . S
O339 Fe322 1.935 . S
O339 C350 1.421 . S
O340 Fe320 2.077 . S
O340 C328 1.381 . S
O341 Fe323 1.935 . S
O341 C328 1.421 . S
C342 O329 1.381 . S
C342 O330 1.421 . S
C343 O335 1.381 . S
C343 O336 1.421 . S
C344 O345 1.381 . S
C344 O346 1.421 . S
O345 Fe323 2.077 . S
O345 C344 1.381 . S
O346 Fe327 1.935 . S
O346 C344 1.421 . S
C347 O331 1.381 . S
C347 O332 1.421 . S
O348 Fe322 2.077 1_545 S
O348 C351 1.381 . S
O349 Fe320 1.947 . S
O349 C351 1.411 1_565 S
C350 O338 1.381 . S
C350 O339 1.421 . S
C351 O348 1.381 . S
C351 O349 1.411 1_545 S
Fe352 O353 1.886 . S
Fe352 O356 1.715 . S
Fe352 O361 2.077 . S
Fe352 O366 1.947 . S
Fe352 O372 2.077 . S
Fe352 O381 1.935 . S
O353 Fe352 1.886 . S
O353 Fe355 1.715 . S
Fe354 O356 1.886 . S
Fe354 O357 1.715 . S
Fe354 O364 1.935 . S
Fe354 O365 2.077 1_565 S
Fe354 O371 1.935 . S
Fe354 O380 2.077 1_565 S
Fe355 O353 1.715 . S
Fe355 O358 1.886 . S
Fe355 O362 1.935 . S
Fe355 O367 2.077 . S
Fe355 O373 1.935 . S
Fe355 O377 2.077 . S
O356 Fe352 1.715 . S
O356 Fe354 1.886 . S
O357 Fe354 1.715 . S
O357 Fe359 1.886 . S
O358 Fe355 1.886 . S
O358 Fe359 1.715 . S
Fe359 O357 1.886 . S
Fe359 O358 1.715 . S
Fe359 O363 2.077 . S
Fe359 O368 1.935 . S
Fe359 O370 2.077 . S
Fe359 O378 1.935 . S
C360 O372 1.381 . S
C360 O373 1.421 . S
O361 Fe352 2.077 . S
O361 C374 1.381 . S
O362 Fe355 1.935 . S
O362 C374 1.421 . S
O363 Fe359 2.077 . S
O363 C379 1.381 . S
O364 Fe354 1.935 . S
O364 C379 1.421 . S
O365 Fe354 2.077 1_545 S
O365 C369 1.381 . S
O366 Fe352 1.947 . S
O366 C369 1.411 1_565 S
O367 Fe355 2.077 . S
O367 C375 1.381 . S
O368 Fe359 1.935 . S
O368 C375 1.421 . S
C369 O365 1.381 . S
C369 O366 1.411 1_545 S
O370 Fe359 2.077 . S
O370 C382 1.381 . S
O371 Fe354 1.935 . S
O371 C382 1.421 . S
O372 Fe352 2.077 . S
O372 C360 1.381 . S
O373 Fe355 1.935 . S
O373 C360 1.421 . S
C374 O361 1.381 . S
C374 O362 1.421 . S
C375 O367 1.381 . S
C375 O368 1.421 . S
C376 O377 1.381 . S
C376 O378 1.421 . S
O377 Fe355 2.077 . S
O377 C376 1.381 . S
O378 Fe359 1.935 . S
O378 C376 1.421 . S
C379 O363 1.381 . S
C379 O364 1.421 . S
O380 Fe354 2.077 1_545 S
O380 C383 1.381 . S
O381 Fe352 1.935 . S
O381 C383 1.421 1_565 S
C382 O370 1.381 . S
C382 O371 1.421 . S
C383 O380 1.381 . S
C383 O381 1.421 1_545 S
Fe384 O385 1.886 . S
Fe384 O388 1.715 . S
Fe384 O393 2.077 . S
Fe384 O398 1.935 . S
Fe384 O404 2.077 . S
Fe384 O413 1.935 . S
O385 Fe384 1.886 . S
O385 Fe387 1.715 . S
Fe386 O388 1.886 . S
Fe386 O389 1.715 . S
Fe386 O396 1.935 . S
Fe386 O397 2.077 . S
Fe386 O403 1.935 . S
Fe386 O412 2.077 . S
Fe387 O385 1.715 . S
Fe387 O390 1.886 . S
Fe387 O394 1.935 . S
Fe387 O399 2.077 . S
Fe387 O405 1.935 . S
Fe387 O409 2.077 . S
O388 Fe384 1.715 . S
O388 Fe386 1.886 . S
O389 Fe386 1.715 . S
O389 Fe391 1.886 . S
O390 Fe387 1.886 . S
O390 Fe391 1.715 . S
Fe391 O389 1.886 . S
Fe391 O390 1.715 . S
Fe391 O395 2.077 . S
Fe391 O400 1.935 . S
Fe391 O402 2.077 . S
Fe391 O410 1.935 . S
C392 O404 1.381 . S
C392 O405 1.421 . S
O393 Fe384 2.077 . S
O393 C406 1.381 . S
O394 Fe387 1.935 . S
O394 C406 1.421 . S
O395 Fe391 2.077 . S
O395 C411 1.381 . S
O396 Fe386 1.935 . S
O396 C411 1.421 . S
O397 Fe386 2.077 . S
O397 C401 1.381 . S
O398 Fe384 1.935 . S
O398 C401 1.421 . S
O399 Fe387 2.077 . S
O399 C407 1.381 . S
O400 Fe391 1.935 . S
O400 C407 1.421 . S
C401 O397 1.381 . S
C401 O398 1.421 . S
O402 Fe391 2.077 . S
O402 C414 1.381 . S
O403 Fe386 1.935 . S
O403 C414 1.421 . S
O404 Fe384 2.077 . S
O404 C392 1.381 . S
O405 Fe387 1.935 . S
O405 C392 1.421 . S
C406 O393 1.381 . S
C406 O394 1.421 . S
C407 O399 1.381 . S
C407 O400 1.421 . S
C408 O409 1.381 . S
C408 O410 1.421 . S
O409 Fe387 2.077 . S
O409 C408 1.381 . S
O410 Fe391 1.935 . S
O410 C408 1.421 . S
C411 O395 1.381 . S
C411 O396 1.421 . S
O412 Fe386 2.077 . S
O412 C415 1.381 . S
O413 Fe384 1.935 . S
O413 C415 1.421 . S
C414 O402 1.381 . S
C414 O403 1.421 . S
C415 O412 1.381 . S
C415 O413 1.421 . S
Fe416 O417 1.886 . S
Fe416 O420 1.715 . S
Fe416 O425 2.077 . S
Fe416 O430 1.935 . S
Fe416 O436 2.077 . S
Fe416 O445 1.935 . S
O417 Fe416 1.886 . S
O417 Fe419 1.715 . S
Fe418 O420 1.886 . S
Fe418 O421 1.715 . S
Fe418 O428 1.935 . S
Fe418 O429 2.077 . S
Fe418 O435 1.935 . S
Fe418 O444 2.077 . S
Fe419 O417 1.715 . S
Fe419 O422 1.886 . S
Fe419 O426 1.935 . S
Fe419 O431 2.077 . S
Fe419 O437 1.935 . S
Fe419 O441 2.077 . S
O420 Fe416 1.715 . S
O420 Fe418 1.886 . S
O421 Fe418 1.715 . S
O421 Fe423 1.886 . S
O422 Fe419 1.886 . S
O422 Fe423 1.715 . S
Fe423 O421 1.886 . S
Fe423 O422 1.715 . S
Fe423 O427 2.077 . S
Fe423 O432 1.935 . S
Fe423 O434 2.077 . S
Fe423 O442 1.935 . S
C424 O436 1.381 . S
C424 O437 1.421 . S
O425 Fe416 2.077 . S
O425 C438 1.381 . S
O426 Fe419 1.935 . S
O426 C438 1.421 . S
O427 Fe423 2.077 . S
O427 C443 1.381 . S
O428 Fe418 1.935 . S
O428 C443 1.421 . S
O429 Fe418 2.077 . S
O429 C433 1.381 . S
O430 Fe416 1.935 . S
O430 C433 1.421 . S
O431 Fe419 2.077 . S
O431 C439 1.381 . S
O432 Fe423 1.935 . S
O432 C439 1.421 . S
C433 O429 1.381 . S
C433 O430 1.421 . S
O434 Fe423 2.077 . S
O434 C446 1.381 . S
O435 Fe418 1.935 . S
O435 C446 1.421 . S
O436 Fe416 2.077 . S
O436 C424 1.381 . S
O437 Fe419 1.935 . S
O437 C424 1.421 . S
C438 O425 1.381 . S
C438 O426 1.421 . S
C439 O431 1.381 . S
C439 O432 1.421 . S
C440 O441 1.381 . S
C440 O442 1.421 . S
O441 Fe419 2.077 . S
O441 C440 1.381 . S
O442 Fe423 1.935 . S
O442 C440 1.421 . S
C443 O427 1.381 . S
C443 O428 1.421 . S
O444 Fe418 2.077 . S
O444 C447 1.381 . S
O445 Fe416 1.935 . S
O445 C447 1.421 . S
C446 O434 1.381 . S
C446 O435 1.421 . S
C447 O444 1.381 . S
C447 O445 1.421 . S
Fe448 O449 1.886 . S
Fe448 O452 1.715 . S
Fe448 O457 2.077 . S
Fe448 O462 1.935 . S
Fe448 O468 2.077 . S
Fe448 O477 1.935 . S
O449 Fe448 1.886 . S
O449 Fe451 1.715 . S
Fe450 O452 1.886 . S
Fe450 O453 1.715 . S
Fe450 O460 1.935 . S
Fe450 O461 2.077 . S
Fe450 O467 1.935 . S
Fe450 O476 2.077 . S
Fe451 O449 1.715 . S
Fe451 O454 1.886 . S
Fe451 O458 1.935 . S
Fe451 O463 2.077 . S
Fe451 O469 1.935 . S
Fe451 O473 2.077 . S
O452 Fe448 1.715 . S
O452 Fe450 1.886 . S
O453 Fe450 1.715 . S
O453 Fe455 1.886 . S
O454 Fe451 1.886 . S
O454 Fe455 1.715 . S
Fe455 O453 1.886 . S
Fe455 O454 1.715 . S
Fe455 O459 2.077 . S
Fe455 O464 1.935 . S
Fe455 O466 2.077 . S
Fe455 O474 1.935 . S
C456 O468 1.381 . S
C456 O469 1.421 . S
O457 Fe448 2.077 . S
O457 C470 1.381 . S
O458 Fe451 1.935 . S
O458 C470 1.421 . S
O459 Fe455 2.077 . S
O459 C475 1.381 . S
O460 Fe450 1.935 . S
O460 C475 1.421 . S
O461 Fe450 2.077 . S
O461 C465 1.381 . S
O462 Fe448 1.935 . S
O462 C465 1.421 . S
O463 Fe451 2.077 . S
O463 C471 1.381 . S
O464 Fe455 1.935 . S
O464 C471 1.421 . S
C465 O461 1.381 . S
C465 O462 1.421 . S
O466 Fe455 2.077 . S
O466 C478 1.381 . S
O467 Fe450 1.935 . S
O467 C478 1.421 . S
O468 Fe448 2.077 . S
O468 C456 1.381 . S
O469 Fe451 1.935 . S
O469 C456 1.421 . S
C470 O457 1.381 . S
C470 O458 1.421 . S
C471 O463 1.381 . S
C471 O464 1.421 . S
C472 O473 1.381 . S
C472 O474 1.421 . S
O473 Fe451 2.077 . S
O473 C472 1.381 . S
O474 Fe455 1.935 . S
O474 C472 1.421 . S
C475 O459 1.381 . S
C475 O460 1.421 . S
O476 Fe450 2.077 . S
O476 C479 1.381 . S
O477 Fe448 1.935 . S
O477 C479 1.421 . S
C478 O466 1.381 . S
C478 O467 1.421 . S
C479 O476 1.381 . S
C479 O477 1.421 . S
Fe480 O481 1.886 . S
Fe480 O484 1.715 . S
Fe480 O489 2.077 . S
Fe480 O494 1.935 . S
Fe480 O500 2.077 . S
Fe480 O509 1.935 . S
O481 Fe480 1.886 . S
O481 Fe483 1.715 . S
Fe482 O484 1.886 . S
Fe482 O485 1.715 . S
Fe482 O492 1.935 . S
Fe482 O493 2.077 . S
Fe482 O499 1.935 . S
Fe482 O508 2.077 . S
Fe483 O481 1.715 . S
Fe483 O486 1.886 . S
Fe483 O490 1.935 . S
Fe483 O495 2.077 . S
Fe483 O501 1.935 . S
Fe483 O505 2.077 . S
O484 Fe480 1.715 . S
O484 Fe482 1.886 . S
O485 Fe482 1.715 . S
O485 Fe487 1.886 . S
O486 Fe483 1.886 . S
O486 Fe487 1.715 . S
Fe487 O485 1.886 . S
Fe487 O486 1.715 . S
Fe487 O491 2.077 . S
Fe487 O496 1.935 . S
Fe487 O498 2.077 . S
Fe487 O506 1.935 . S
C488 O500 1.381 . S
C488 O501 1.421 . S
O489 Fe480 2.077 . S
O489 C502 1.381 . S
O490 Fe483 1.935 . S
O490 C502 1.421 . S
O491 Fe487 2.077 . S
O491 C507 1.381 . S
O492 Fe482 1.935 . S
O492 C507 1.421 . S
O493 Fe482 2.077 . S
O493 C497 1.381 . S
O494 Fe480 1.935 . S
O494 C497 1.421 . S
O495 Fe483 2.077 . S
O495 C503 1.381 . S
O496 Fe487 1.935 . S
O496 C503 1.421 . S
C497 O493 1.381 . S
C497 O494 1.421 . S
O498 Fe487 2.077 . S
O498 C510 1.381 . S
O499 Fe482 1.935 . S
O499 C510 1.421 . S
O500 Fe480 2.077 . S
O500 C488 1.381 . S
O501 Fe483 1.935 . S
O501 C488 1.421 . S
C502 O489 1.381 . S
C502 O490 1.421 . S
C503 O495 1.381 . S
C503 O496 1.421 . S
C504 O505 1.381 . S
C504 O506 1.421 . S
O505 Fe483 2.077 . S
O505 C504 1.381 . S
O506 Fe487 1.935 . S
O506 C504 1.421 . S
C507 O491 1.381 . S
C507 O492 1.421 . S
O508 Fe482 2.077 . S
O508 C511 1.381 . S
O509 Fe480 1.935 . S
O509 C511 1.421 . S
C510 O498 1.381 . S
C510 O499 1.421 . S
C511 O508 1.381 . S
C511 O509 1.421 . S
H512 C518 0.930 . S
H513 C521 0.930 . S
H514 C522 0.930 . S
H515 C523 0.930 . S
H516 C526 0.930 . S
H517 C527 0.930 . S
C518 H512 0.930 . S
C518 C519 1.355 . S
C518 C520 1.415 . S
C519 C518 1.355 . S
C519 C521 1.419 . S
C520 C518 1.415 . S
C520 C525 1.425 . S
C520 C527 1.409 . S
C521 H513 0.930 . S
C521 C519 1.419 . S
C521 C522 1.362 . S
C522 H514 0.930 . S
C522 C521 1.362 . S
C522 C525 1.409 . S
C523 H515 0.930 . S
C523 C524 1.355 . S
C523 C525 1.415 . S
C524 C523 1.355 . S
C524 C526 1.419 . S
C525 C520 1.425 . S
C525 C522 1.409 . S
C525 C523 1.415 . S
C526 H516 0.930 . S
C526 C524 1.419 . S
C526 C527 1.362 . S
C527 H517 0.930 . S
C527 C520 1.409 . S
C527 C526 1.362 . S
H528 C534 0.930 . S
H529 C537 0.930 . S
H530 C538 0.930 . S
H531 C539 0.930 . S
H532 C542 0.930 . S
H533 C543 0.930 . S
C534 H528 0.930 . S
C534 C535 1.355 . S
C534 C536 1.415 . S
C535 C534 1.355 . S
C535 C537 1.419 1_655 S
C536 C534 1.415 . S
C536 C541 1.425 . S
C536 C543 1.409 . S
C537 H529 0.930 . S
C537 C535 1.419 1_455 S
C537 C538 1.362 1_455 S
C538 H530 0.930 . S
C538 C537 1.362 1_655 S
C538 C541 1.409 . S
C539 H531 0.930 . S
C539 C540 1.355 . S
C539 C541 1.415 . S
C540 C539 1.355 . S
C540 C542 1.419 . S
C541 C536 1.425 . S
C541 C538 1.409 . S
C541 C539 1.415 . S
C542 H532 0.930 . S
C542 C540 1.419 . S
C542 C543 1.362 . S
C543 H533 0.930 . S
C543 C536 1.409 . S
C543 C542 1.362 . S
H544 C550 0.930 . S
H545 C553 0.930 1_545 S
H546 C554 0.930 . S
H547 C555 0.930 . S
H548 C558 0.930 . S
H549 C559 0.930 . S
C550 H544 0.930 . S
C550 C551 1.355 . S
C550 C552 1.415 . S
C551 C550 1.355 . S
C551 C553 1.419 . S
C552 C550 1.415 . S
C552 C557 1.425 . S
C552 C559 1.409 . S
C553 H545 0.930 1_565 S
C553 C551 1.419 . S
C553 C554 1.362 . S
C554 H546 0.930 . S
C554 C553 1.362 . S
C554 C557 1.409 . S
C555 H547 0.930 . S
C555 C556 1.355 . S
C555 C557 1.415 . S
C556 C555 1.355 . S
C556 C558 1.419 . S
C557 C552 1.425 . S
C557 C554 1.409 . S
C557 C555 1.415 . S
C558 H548 0.930 . S
C558 C556 1.419 . S
C558 C559 1.362 . S
C559 H549 0.930 . S
C559 C552 1.409 . S
C559 C558 1.362 . S
H560 C566 0.930 . S
H561 C569 0.930 . S
H562 C570 0.930 . S
H563 C571 0.930 . S
H564 C574 0.930 . S
H565 C575 0.930 . S
C566 H560 0.930 . S
C566 C567 1.355 . S
C566 C568 1.415 . S
C567 C566 1.355 . S
C567 C569 1.419 1_655 S
C568 C566 1.415 . S
C568 C573 1.425 . S
C568 C575 1.409 . S
C569 H561 0.930 . S
C569 C567 1.419 1_455 S
C569 C570 1.362 1_455 S
C570 H562 0.930 . S
C570 C569 1.362 1_655 S
C570 C573 1.409 . S
C571 H563 0.930 . S
C571 C572 1.355 . S
C571 C573 1.415 . S
C572 C571 1.355 . S
C572 C574 1.419 . S
C573 C568 1.425 . S
C573 C570 1.409 . S
C573 C571 1.415 . S
C574 H564 0.930 . S
C574 C572 1.419 . S
C574 C575 1.362 . S
C575 H565 0.930 . S
C575 C568 1.409 . S
C575 C574 1.362 . S
H576 C582 0.930 . S
H577 C585 0.930 . S
H578 C586 0.930 . S
H579 C587 0.930 . S
H580 C590 0.930 . S
H581 C591 0.930 . S
C582 H576 0.930 . S
C582 C583 1.355 . S
C582 C584 1.415 . S
C583 C582 1.355 . S
C583 C585 1.419 . S
C584 C582 1.415 . S
C584 C589 1.425 . S
C584 C591 1.409 . S
C585 H577 0.930 . S
C585 C583 1.419 . S
C585 C586 1.362 . S
C586 H578 0.930 . S
C586 C585 1.362 . S
C586 C589 1.409 . S
C587 H579 0.930 . S
C587 C588 1.355 . S
C587 C589 1.415 . S
C588 C587 1.355 . S
C588 C590 1.419 . S
C589 C584 1.425 . S
C589 C586 1.409 . S
C589 C587 1.415 . S
C590 H580 0.930 . S
C590 C588 1.419 . S
C590 C591 1.362 . S
C591 H581 0.930 . S
C591 C584 1.409 . S
C591 C590 1.362 . S
H592 C598 0.930 . S
H593 C601 0.930 . S
H594 C602 0.930 . S
H595 C603 0.930 . S
H596 C606 0.930 . S
H597 C607 0.930 . S
C598 H592 0.930 . S
C598 C599 1.355 . S
C598 C600 1.415 . S
C599 C598 1.355 . S
C599 C601 1.419 1_455 S
C600 C598 1.415 . S
C600 C605 1.425 . S
C600 C607 1.409 . S
C601 H593 0.930 . S
C601 C599 1.419 1_655 S
C601 C602 1.362 1_655 S
C602 H594 0.930 . S
C602 C601 1.362 1_455 S
C602 C605 1.409 . S
C603 H595 0.930 . S
C603 C604 1.355 . S
C603 C605 1.415 . S
C604 C603 1.355 . S
C604 C606 1.419 . S
C605 C600 1.425 . S
C605 C602 1.409 . S
C605 C603 1.415 . S
C606 H596 0.930 . S
C606 C604 1.419 . S
C606 C607 1.362 . S
C607 H597 0.930 . S
C607 C600 1.409 . S
C607 C606 1.362 . S
H608 C614 0.930 . S
H609 C617 0.930 . S
H610 C618 0.930 . S
H611 C619 0.930 . S
H612 C622 0.930 . S
H613 C623 0.930 . S
C614 H608 0.930 . S
C614 C615 1.355 . S
C614 C616 1.415 . S
C615 C614 1.355 . S
C615 C617 1.419 . S
C616 C614 1.415 . S
C616 C621 1.425 . S
C616 C623 1.409 . S
C617 H609 0.930 . S
C617 C615 1.419 . S
C617 C618 1.362 . S
C618 H610 0.930 . S
C618 C617 1.362 . S
C618 C621 1.409 . S
C619 H611 0.930 . S
C619 C620 1.355 . S
C619 C621 1.415 . S
C620 C619 1.355 . S
C620 C622 1.419 . S
C621 C616 1.425 . S
C621 C618 1.409 . S
C621 C619 1.415 . S
C622 H612 0.930 . S
C622 C620 1.419 . S
C622 C623 1.362 . S
C623 H613 0.930 . S
C623 C616 1.409 . S
C623 C622 1.362 . S
H624 C630 0.930 . S
H625 C633 0.930 1_655 S
H626 C634 0.930 . S
H627 C635 0.930 . S
H628 C638 0.930 . S
H629 C639 0.930 . S
C630 H624 0.930 . S
C630 C631 1.355 . S
C630 C632 1.415 . S
C631 C630 1.355 . S
C631 C633 1.419 . S
C632 C630 1.415 . S
C632 C637 1.425 . S
C632 C639 1.409 . S
C633 H625 0.930 1_455 S
C633 C631 1.419 . S
C633 C634 1.362 . S
C634 H626 0.930 . S
C634 C633 1.362 . S
C634 C637 1.409 . S
C635 H627 0.930 . S
C635 C636 1.355 . S
C635 C637 1.415 . S
C636 C635 1.355 . S
C636 C638 1.419 . S
C637 C632 1.425 . S
C637 C634 1.409 . S
C637 C635 1.415 . S
C638 H628 0.930 . S
C638 C636 1.419 . S
C638 C639 1.362 . S
C639 H629 0.930 . S
C639 C632 1.409 . S
C639 C638 1.362 . S
H640 C646 0.930 . S
H641 C649 0.930 . S
H642 C650 0.930 . S
H643 C651 0.930 . S
H644 C654 0.930 . S
H645 C655 0.930 . S
C646 H640 0.930 . S
C646 C647 1.355 . S
C646 C648 1.415 . S
C647 C646 1.355 . S
C647 C649 1.419 . S
C648 C646 1.415 . S
C648 C653 1.425 . S
C648 C655 1.409 . S
C649 H641 0.930 . S
C649 C647 1.419 . S
C649 C650 1.362 . S
C650 H642 0.930 . S
C650 C649 1.362 . S
C650 C653 1.409 . S
C651 H643 0.930 . S
C651 C652 1.355 . S
C651 C653 1.415 . S
C652 C651 1.355 . S
C652 C654 1.419 . S
C653 C648 1.425 . S
C653 C650 1.409 . S
C653 C651 1.415 . S
C654 H644 0.930 . S
C654 C652 1.419 . S
C654 C655 1.362 . S
C655 H645 0.930 . S
C655 C648 1.409 . S
C655 C654 1.362 . S
H656 C662 0.930 . S
H657 C665 0.930 . S
H658 C666 0.930 . S
H659 C667 0.930 1_455 S
H660 C670 0.930 . S
H661 C671 0.930 . S
C662 H656 0.930 . S
C662 C663 1.355 . S
C662 C664 1.415 . S
C663 C662 1.355 . S
C663 C665 1.419 . S
C664 C662 1.415 . S
C664 C669 1.425 . S
C664 C671 1.409 . S
C665 H657 0.930 . S
C665 C663 1.419 . S
C665 C666 1.362 . S
C666 H658 0.930 . S
C666 C665 1.362 . S
C666 C669 1.409 . S
C667 H659 0.930 1_655 S
C667 C668 1.355 . S
C667 C669 1.415 . S
C668 C667 1.355 . S
C668 C670 1.419 . S
C669 C664 1.425 . S
C669 C666 1.409 . S
C669 C667 1.415 . S
C670 H660 0.930 . S
C670 C668 1.419 . S
C670 C671 1.362 . S
C671 H661 0.930 . S
C671 C664 1.409 . S
C671 C670 1.362 . S
H672 C678 0.930 . S
H673 C681 0.930 . S
H674 C682 0.930 . S
H675 C683 0.930 . S
H676 C686 0.930 . S
H677 C687 0.930 . S
C678 H672 0.930 . S
C678 C679 1.355 . S
C678 C680 1.415 . S
C679 C678 1.355 . S
C679 C681 1.419 . S
C680 C678 1.415 . S
C680 C685 1.425 . S
C680 C687 1.409 . S
C681 H673 0.930 . S
C681 C679 1.419 . S
C681 C682 1.362 . S
C682 H674 0.930 . S
C682 C681 1.362 . S
C682 C685 1.409 . S
C683 H675 0.930 . S
C683 C684 1.355 . S
C683 C685 1.415 . S
C684 C683 1.355 . S
C684 C686 1.419 . S
C685 C680 1.425 . S
C685 C682 1.409 . S
C685 C683 1.415 . S
C686 H676 0.930 . S
C686 C684 1.419 . S
C686 C687 1.362 . S
C687 H677 0.930 . S
C687 C680 1.409 . S
C687 C686 1.362 . S
H688 C694 0.930 . S
H689 C697 0.930 . S
H690 C698 0.930 . S
H691 C699 0.930 . S
H692 C702 0.930 . S
H693 C703 0.930 . S
C694 H688 0.930 . S
C694 C695 1.355 . S
C694 C696 1.415 . S
C695 C694 1.355 . S
C695 C697 1.419 . S
C696 C694 1.415 . S
C696 C701 1.425 . S
C696 C703 1.409 . S
C697 H689 0.930 . S
C697 C695 1.419 . S
C697 C698 1.362 . S
C698 H690 0.930 . S
C698 C697 1.362 . S
C698 C701 1.409 . S
C699 H691 0.930 . S
C699 C700 1.355 . S
C699 C701 1.415 . S
C700 C699 1.355 . S
C700 C702 1.419 1_655 S
C701 C696 1.425 . S
C701 C698 1.409 . S
C701 C699 1.415 . S
C702 H692 0.930 . S
C702 C700 1.419 1_455 S
C702 C703 1.362 1_455 S
C703 H693 0.930 . S
C703 C696 1.409 . S
C703 C702 1.362 1_655 S
H704 C710 0.930 . S
H705 C713 0.930 1_565 S
H706 C714 0.930 . S
H707 C715 0.930 . S
H708 C718 0.930 . S
H709 C719 0.930 . S
C710 H704 0.930 . S
C710 C711 1.355 . S
C710 C712 1.415 . S
C711 C710 1.355 . S
C711 C713 1.419 . S
C712 C710 1.415 . S
C712 C717 1.425 . S
C712 C719 1.409 . S
C713 H705 0.930 1_545 S
C713 C711 1.419 . S
C713 C714 1.362 . S
C714 H706 0.930 . S
C714 C713 1.362 . S
C714 C717 1.409 . S
C715 H707 0.930 . S
C715 C716 1.355 . S
C715 C717 1.415 . S
C716 C715 1.355 . S
C716 C718 1.419 . S
C717 C712 1.425 . S
C717 C714 1.409 . S
C717 C715 1.415 . S
C718 H708 0.930 . S
C718 C716 1.419 . S
C718 C719 1.362 . S
C719 H709 0.930 . S
C719 C712 1.409 . S
C719 C718 1.362 . S
H720 C726 0.930 . S
H721 C729 0.932 . S
H722 C730 0.930 . S
H723 C731 0.930 . S
H724 C734 0.930 . S
H725 C735 0.930 . S
C726 H720 0.930 . S
C726 C727 1.355 . S
C726 C728 1.415 . S
C727 C726 1.355 . S
C727 C729 1.419 1_455 S
C728 C726 1.415 . S
C728 C733 1.425 . S
C728 C735 1.409 . S
C729 H721 0.932 . S
C729 C727 1.419 1_655 S
C729 C730 1.361 1_655 S
C730 H722 0.930 . S
C730 C729 1.361 1_455 S
C730 C733 1.409 . S
C731 H723 0.930 . S
C731 C732 1.355 . S
C731 C733 1.415 . S
C732 C731 1.355 . S
C732 C734 1.419 . S
C733 C728 1.425 . S
C733 C730 1.409 . S
C733 C731 1.415 . S
C734 H724 0.930 . S
C734 C732 1.419 . S
C734 C735 1.362 . S
C735 H725 0.930 . S
C735 C728 1.409 . S
C735 C734 1.362 . S
H736 C742 0.930 . S
H737 C745 0.930 . S
H738 C746 0.930 . S
H739 C747 0.930 . S
H740 C750 0.930 . S
H741 C751 0.930 . S
C742 H736 0.930 . S
C742 C743 1.355 . S
C742 C744 1.415 . S
C743 C742 1.355 . S
C743 C745 1.419 . S
C744 C742 1.415 . S
C744 C749 1.425 . S
C744 C751 1.409 . S
C745 H737 0.930 . S
C745 C743 1.419 . S
C745 C746 1.362 . S
C746 H738 0.930 . S
C746 C745 1.362 . S
C746 C749 1.409 . S
C747 H739 0.930 . S
C747 C748 1.355 . S
C747 C749 1.415 . S
C748 C747 1.355 . S
C748 C750 1.419 . S
C749 C744 1.425 . S
C749 C746 1.409 . S
C749 C747 1.415 . S
C750 H740 0.930 . S
C750 C748 1.419 . S
C750 C751 1.362 . S
C751 H741 0.930 . S
C751 C744 1.409 . S
C751 C750 1.362 . S
H752 C758 0.930 . S
H753 C761 0.930 . S
H754 C762 0.930 . S
H755 C763 0.930 . S
H756 C766 0.930 . S
H757 C767 0.930 . S
C758 H752 0.930 . S
C758 C759 1.355 . S
C758 C760 1.415 . S
C759 C758 1.355 . S
C759 C761 1.419 1_455 S
C760 C758 1.415 . S
C760 C765 1.425 . S
C760 C767 1.409 . S
C761 H753 0.930 . S
C761 C759 1.419 1_655 S
C761 C762 1.362 1_655 S
C762 H754 0.930 . S
C762 C761 1.362 1_455 S
C762 C765 1.409 . S
C763 H755 0.930 . S
C763 C764 1.355 . S
C763 C765 1.415 . S
C764 C763 1.355 . S
C764 C766 1.419 . S
C765 C760 1.425 . S
C765 C762 1.409 . S
C765 C763 1.415 . S
C766 H756 0.930 . S
C766 C764 1.419 . S
C766 C767 1.362 . S
C767 H757 0.930 . S
C767 C760 1.409 . S
C767 C766 1.362 . S
H768 C774 0.930 . S
H769 C777 0.930 . S
H770 C778 0.930 . S
H771 C779 0.930 . S
H772 C782 0.930 . S
H773 C783 0.930 . S
C774 H768 0.930 . S
C774 C775 1.355 . S
C774 C776 1.415 . S
C775 C774 1.355 . S
C775 C777 1.419 . S
C776 C774 1.415 . S
C776 C781 1.425 . S
C776 C783 1.409 . S
C777 H769 0.930 . S
C777 C775 1.419 . S
C777 C778 1.362 . S
C778 H770 0.930 . S
C778 C777 1.362 . S
C778 C781 1.409 . S
C779 H771 0.930 . S
C779 C780 1.355 . S
C779 C781 1.415 . S
C780 C779 1.355 . S
C780 C782 1.419 . S
C781 C776 1.425 . S
C781 C778 1.409 . S
C781 C779 1.415 . S
C782 H772 0.930 . S
C782 C780 1.419 . S
C782 C783 1.362 . S
C783 H773 0.930 . S
C783 C776 1.409 . S
C783 C782 1.362 . S
H784 C790 0.930 . S
H785 C793 0.930 1_455 S
H786 C794 0.930 . S
H787 C795 0.930 . S
H788 C798 0.930 . S
H789 C799 0.930 . S
C790 H784 0.930 . S
C790 C791 1.355 . S
C790 C792 1.415 . S
C791 C790 1.355 . S
C791 C793 1.419 . S
C792 C790 1.415 . S
C792 C797 1.425 . S
C792 C799 1.409 . S
C793 H785 0.930 1_655 S
C793 C791 1.419 . S
C793 C794 1.362 . S
C794 H786 0.930 . S
C794 C793 1.362 . S
C794 C797 1.409 . S
C795 H787 0.930 . S
C795 C796 1.355 . S
C795 C797 1.415 . S
C796 C795 1.355 . S
C796 C798 1.419 . S
C797 C792 1.425 . S
C797 C794 1.409 . S
C797 C795 1.415 . S
C798 H788 0.930 . S
C798 C796 1.419 . S
C798 C799 1.362 . S
C799 H789 0.930 . S
C799 C792 1.409 . S
C799 C798 1.362 . S
H800 C806 0.930 . S
H801 C809 0.930 . S
H802 C810 0.930 . S
H803 C811 0.930 . S
H804 C814 0.930 . S
H805 C815 0.930 . S
C806 H800 0.930 . S
C806 C807 1.355 . S
C806 C808 1.415 . S
C807 C806 1.355 . S
C807 C809 1.419 . S
C808 C806 1.415 . S
C808 C813 1.425 . S
C808 C815 1.409 . S
C809 H801 0.930 . S
C809 C807 1.419 . S
C809 C810 1.362 . S
C810 H802 0.930 . S
C810 C809 1.362 . S
C810 C813 1.409 . S
C811 H803 0.930 . S
C811 C812 1.355 . S
C811 C813 1.415 . S
C812 C811 1.355 . S
C812 C814 1.419 . S
C813 C808 1.425 . S
C813 C810 1.409 . S
C813 C811 1.415 . S
C814 H804 0.930 . S
C814 C812 1.419 . S
C814 C815 1.362 . S
C815 H805 0.930 . S
C815 C808 1.409 . S
C815 C814 1.362 . S
H816 C822 0.930 . S
H817 C825 0.930 . S
H818 C826 0.930 . S
H819 C827 0.930 . S
H820 C830 0.930 . S
H821 C831 0.930 . S
C822 H816 0.930 . S
C822 C823 1.355 . S
C822 C824 1.415 . S
C823 C822 1.355 . S
C823 C825 1.419 . S
C824 C822 1.415 . S
C824 C829 1.425 . S
C824 C831 1.409 . S
C825 H817 0.930 . S
C825 C823 1.419 . S
C825 C826 1.362 . S
C826 H818 0.930 . S
C826 C825 1.362 . S
C826 C829 1.409 . S
C827 H819 0.930 . S
C827 C828 1.355 . S
C827 C829 1.415 . S
C828 C827 1.355 . S
C828 C830 1.419 1_655 S
C829 C824 1.425 . S
C829 C826 1.409 . S
C829 C827 1.415 . S
C830 H820 0.930 . S
C830 C828 1.419 1_455 S
C830 C831 1.362 1_455 S
C831 H821 0.930 . S
C831 C824 1.409 . S
C831 C830 1.362 1_655 S
H832 C838 0.930 . S
H833 C841 0.930 . S
H834 C842 0.930 . S
H835 C843 0.930 . S
H836 C846 0.930 . S
H837 C847 0.930 . S
C838 H832 0.930 . S
C838 C839 1.355 . S
C838 C840 1.415 . S
C839 C838 1.355 . S
C839 C841 1.419 . S
C840 C838 1.415 . S
C840 C845 1.425 . S
C840 C847 1.409 . S
C841 H833 0.930 . S
C841 C839 1.419 . S
C841 C842 1.362 . S
C842 H834 0.930 . S
C842 C841 1.362 . S
C842 C845 1.409 . S
C843 H835 0.930 . S
C843 C844 1.355 . S
C843 C845 1.415 . S
C844 C843 1.355 . S
C844 C846 1.419 . S
C845 C840 1.425 . S
C845 C842 1.409 . S
C845 C843 1.415 . S
C846 H836 0.930 . S
C846 C844 1.419 . S
C846 C847 1.362 . S
C847 H837 0.930 . S
C847 C840 1.409 . S
C847 C846 1.362 . S
H848 C854 0.930 . S
H849 C857 0.930 . S
H850 C858 0.930 . S
H851 C859 0.930 . S
H852 C862 0.930 . S
H853 C863 0.930 . S
C854 H848 0.930 . S
C854 C855 1.355 . S
C854 C856 1.415 . S
C855 C854 1.355 . S
C855 C857 1.419 . S
C856 C854 1.415 . S
C856 C861 1.425 . S
C856 C863 1.409 . S
C857 H849 0.930 . S
C857 C855 1.419 . S
C857 C858 1.362 . S
C858 H850 0.930 . S
C858 C857 1.362 . S
C858 C861 1.409 . S
C859 H851 0.930 . S
C859 C860 1.355 . S
C859 C861 1.415 . S
C860 C859 1.355 . S
C860 C862 1.419 1_455 S
C861 C856 1.425 . S
C861 C858 1.409 . S
C861 C859 1.415 . S
C862 H852 0.930 . S
C862 C860 1.419 1_655 S
C862 C863 1.362 1_655 S
C863 H853 0.930 . S
C863 C856 1.409 . S
C863 C862 1.362 1_455 S
H864 C870 0.930 . S
H865 C873 0.930 . S
H866 C874 0.930 . S
H867 C875 0.930 . S
H868 C878 0.930 . S
H869 C879 0.930 . S
C870 H864 0.930 . S
C870 C871 1.355 . S
C870 C872 1.415 . S
C871 C870 1.355 . S
C871 C873 1.419 . S
C872 C870 1.415 . S
C872 C877 1.425 . S
C872 C879 1.409 . S
C873 H865 0.930 . S
C873 C871 1.419 . S
C873 C874 1.362 . S
C874 H866 0.930 . S
C874 C873 1.362 . S
C874 C877 1.409 . S
C875 H867 0.930 . S
C875 C876 1.355 . S
C875 C877 1.415 . S
C876 C875 1.355 . S
C876 C878 1.419 . S
C877 C872 1.425 . S
C877 C874 1.409 . S
C877 C875 1.415 . S
C878 H868 0.930 . S
C878 C876 1.419 . S
C878 C879 1.362 . S
C879 H869 0.930 . S
C879 C872 1.409 . S
C879 C878 1.362 . S
H880 C886 0.930 . S
H881 C889 0.930 . S
H882 C890 0.930 . S
H883 C891 0.930 . S
H884 C894 0.944 . S
H885 C895 0.930 . S
C886 H880 0.930 . S
C886 C887 1.355 . S
C886 C888 1.415 . S
C887 C886 1.355 . S
C887 C889 1.419 . S
C888 C886 1.415 . S
C888 C893 1.425 . S
C888 C895 1.409 . S
C889 H881 0.930 . S
C889 C887 1.419 . S
C889 C890 1.362 . S
C890 H882 0.930 . S
C890 C889 1.362 . S
C890 C893 1.409 . S
C891 H883 0.930 . S
C891 C892 1.355 . S
C891 C893 1.415 . S
C892 C891 1.355 . S
C892 C894 1.412 1_455 S
C893 C888 1.425 . S
C893 C890 1.409 . S
C893 C891 1.415 . S
C894 H884 0.944 . S
C894 C892 1.412 1_655 S
C894 C895 1.356 1_655 S
C895 H885 0.930 . S
C895 C888 1.409 . S
C895 C894 1.356 1_455 S
H896 C902 0.930 . S
H897 C905 0.930 . S
H898 C906 0.930 . S
H899 C907 0.930 . S
H900 C910 0.930 . S
H901 C911 0.930 . S
C902 H896 0.930 . S
C902 C903 1.355 . S
C902 C904 1.415 . S
C903 C902 1.355 . S
C903 C905 1.419 . S
C904 C902 1.415 . S
C904 C909 1.425 . S
C904 C911 1.409 . S
C905 H897 0.930 . S
C905 C903 1.419 . S
C905 C906 1.362 . S
C906 H898 0.930 . S
C906 C905 1.362 . S
C906 C909 1.409 . S
C907 H899 0.930 . S
C907 C908 1.355 . S
C907 C909 1.415 . S
C908 C907 1.355 . S
C908 C910 1.419 . S
C909 C904 1.425 . S
C909 C906 1.409 . S
C909 C907 1.415 . S
C910 H900 0.930 . S
C910 C908 1.419 . S
C910 C911 1.362 . S
C911 H901 0.930 . S
C911 C904 1.409 . S
C911 C910 1.362 . S
H912 C918 0.930 1_455 S
H913 C921 0.930 . S
H914 C922 0.930 . S
H915 C923 0.930 . S
H916 C926 0.930 1_545 S
H917 C927 0.930 . S
C918 H912 0.930 1_655 S
C918 C919 1.355 . S
C918 C920 1.415 . S
C919 C918 1.355 . S
C919 C921 1.419 . S
C920 C918 1.415 . S
C920 C925 1.425 . S
C920 C927 1.409 . S
C921 H913 0.930 . S
C921 C919 1.419 . S
C921 C922 1.362 . S
C922 H914 0.930 . S
C922 C921 1.362 . S
C922 C925 1.409 . S
C923 H915 0.930 . S
C923 C924 1.355 . S
C923 C925 1.415 . S
C924 C923 1.355 . S
C924 C926 1.419 . S
C925 C920 1.425 . S
C925 C922 1.409 . S
C925 C923 1.415 . S
C926 H916 0.930 1_565 S
C926 C924 1.419 . S
C926 C927 1.362 . S
C927 H917 0.930 . S
C927 C920 1.409 . S
C927 C926 1.362 . S
H928 C934 0.930 . S
H929 C937 0.930 . S
H930 C938 0.930 . S
H931 C939 0.930 . S
H932 C942 0.930 1_545 S
H933 C943 0.930 . S
C934 H928 0.930 . S
C934 C935 1.355 . S
C934 C936 1.415 . S
C935 C934 1.355 . S
C935 C937 1.419 . S
C936 C934 1.415 . S
C936 C941 1.425 . S
C936 C943 1.409 . S
C937 H929 0.930 . S
C937 C935 1.419 . S
C937 C938 1.362 . S
C938 H930 0.930 . S
C938 C937 1.362 . S
C938 C941 1.409 . S
C939 H931 0.930 . S
C939 C940 1.355 . S
C939 C941 1.415 . S
C940 C939 1.355 . S
C940 C942 1.419 . S
C941 C936 1.425 . S
C941 C938 1.409 . S
C941 C939 1.415 . S
C942 H932 0.930 1_565 S
C942 C940 1.419 . S
C942 C943 1.362 . S
C943 H933 0.930 . S
C943 C936 1.409 . S
C943 C942 1.362 . S
H944 C950 0.930 . S
H945 C953 0.930 1_455 S
H946 C954 0.930 . S
H947 C955 0.930 . S
H948 C958 0.930 . S
H949 C959 0.930 . S
C950 H944 0.930 . S
C950 C951 1.355 . S
C950 C952 1.415 . S
C951 C950 1.355 . S
C951 C953 1.419 . S
C952 C950 1.415 . S
C952 C957 1.425 . S
C952 C959 1.409 . S
C953 H945 0.930 1_655 S
C953 C951 1.419 . S
C953 C954 1.362 . S
C954 H946 0.930 . S
C954 C953 1.362 . S
C954 C957 1.409 . S
C955 H947 0.930 . S
C955 C956 1.355 . S
C955 C957 1.415 . S
C956 C955 1.355 . S
C956 C958 1.419 . S
C957 C952 1.425 . S
C957 C954 1.409 . S
C957 C955 1.415 . S
C958 H948 0.930 . S
C958 C956 1.419 . S
C958 C959 1.362 . S
C959 H949 0.930 . S
C959 C952 1.409 . S
C959 C958 1.362 . S
H960 C966 0.930 . S
H961 C969 0.930 . S
H962 C970 0.930 . S
H963 C971 0.930 . S
H964 C974 0.930 . S
H965 C975 0.930 . S
C966 H960 0.930 . S
C966 C967 1.355 . S
C966 C968 1.415 . S
C967 C966 1.355 . S
C967 C969 1.419 . S
C968 C966 1.415 . S
C968 C973 1.425 . S
C968 C975 1.409 . S
C969 H961 0.930 . S
C969 C967 1.419 . S
C969 C970 1.362 . S
C970 H962 0.930 . S
C970 C969 1.362 . S
C970 C973 1.409 . S
C971 H963 0.930 . S
C971 C972 1.355 . S
C971 C973 1.415 . S
C972 C971 1.355 . S
C972 C974 1.419 . S
C973 C968 1.425 . S
C973 C970 1.409 . S
C973 C971 1.415 . S
C974 H964 0.930 . S
C974 C972 1.419 . S
C974 C975 1.362 . S
C975 H965 0.930 . S
C975 C968 1.409 . S
C975 C974 1.362 . S
H976 C982 0.930 . S
H977 C985 0.930 1_565 S
H978 C986 0.930 . S
H979 C987 0.930 1_655 S
H980 C990 0.930 . S
H981 C991 0.930 . S
C982 H976 0.930 . S
C982 C983 1.355 . S
C982 C984 1.415 . S
C983 C982 1.355 . S
C983 C985 1.419 . S
C984 C982 1.415 . S
C984 C989 1.425 . S
C984 C991 1.409 . S
C985 H977 0.930 1_545 S
C985 C983 1.419 . S
C985 C986 1.362 . S
C986 H978 0.930 . S
C986 C985 1.362 . S
C986 C989 1.409 . S
C987 H979 0.930 1_455 S
C987 C988 1.355 . S
C987 C989 1.415 . S
C988 C987 1.355 . S
C988 C990 1.419 . S
C989 C984 1.425 . S
C989 C986 1.409 . S
C989 C987 1.415 . S
C990 H980 0.930 . S
C990 C988 1.419 . S
C990 C991 1.362 . S
C991 H981 0.930 . S
C991 C984 1.409 . S
C991 C990 1.362 . S
H992 C998 0.930 . S
H993 C1001 0.930 . S
H994 C1002 0.930 . S
H995 C1003 0.930 . S
H996 C1006 0.930 . S
H997 C1007 0.930 . S
C998 H992 0.930 . S
C998 C999 1.355 . S
C998 C1000 1.415 . S
C999 C998 1.355 . S
C999 C1001 1.419 . S
C1000 C998 1.415 . S
C1000 C1005 1.425 . S
C1000 C1007 1.409 . S
C1001 H993 0.930 . S
C1001 C999 1.419 . S
C1001 C1002 1.362 . S
C1002 H994 0.930 . S
C1002 C1001 1.362 . S
C1002 C1005 1.409 . S
C1003 H995 0.930 . S
C1003 C1004 1.355 . S
C1003 C1005 1.415 . S
C1004 C1003 1.355 . S
C1004 C1006 1.419 . S
C1005 C1000 1.425 . S
C1005 C1002 1.409 . S
C1005 C1003 1.415 . S
C1006 H996 0.930 . S
C1006 C1004 1.419 . S
C1006 C1007 1.362 . S
C1007 H997 0.930 . S
C1007 C1000 1.409 . S
C1007 C1006 1.362 . S
H1008 C1014 0.930 . S
H1009 C1017 0.930 1_655 S
H1010 C1018 0.930 . S
H1011 C1019 0.930 . S
H1012 C1022 0.930 . S
H1013 C1023 0.930 . S
C1014 H1008 0.930 . S
C1014 C1015 1.355 . S
C1014 C1016 1.415 . S
C1015 C1014 1.355 . S
C1015 C1017 1.419 . S
C1016 C1014 1.415 . S
C1016 C1021 1.425 . S
C1016 C1023 1.409 . S
C1017 H1009 0.930 1_455 S
C1017 C1015 1.419 . S
C1017 C1018 1.362 . S
C1018 H1010 0.930 . S
C1018 C1017 1.362 . S
C1018 C1021 1.409 . S
C1019 H1011 0.930 . S
C1019 C1020 1.355 . S
C1019 C1021 1.415 . S
C1020 C1019 1.355 . S
C1020 C1022 1.419 . S
C1021 C1016 1.425 . S
C1021 C1018 1.409 . S
C1021 C1019 1.415 . S
C1022 H1012 0.930 . S
C1022 C1020 1.419 . S
C1022 C1023 1.362 . S
C1023 H1013 0.930 . S
C1023 C1016 1.409 . S
C1023 C1022 1.362 . S
H1024 C1030 0.930 . S
H1025 C1033 0.930 . S
H1026 C1034 0.930 . S
H1027 C1035 0.930 . S
H1028 C1038 0.930 . S
H1029 C1039 0.930 . S
C1030 H1024 0.930 . S
C1030 C1031 1.355 . S
C1030 C1032 1.415 . S
C1031 C1030 1.355 . S
C1031 C1033 1.419 . S
C1032 C1030 1.415 . S
C1032 C1037 1.425 . S
C1032 C1039 1.409 . S
C1033 H1025 0.930 . S
C1033 C1031 1.419 . S
C1033 C1034 1.362 . S
C1034 H1026 0.930 . S
C1034 C1033 1.362 . S
C1034 C1037 1.409 . S
C1035 H1027 0.930 . S
C1035 C1036 1.355 . S
C1035 C1037 1.415 . S
C1036 C1035 1.355 . S
C1036 C1038 1.419 . S
C1037 C1032 1.425 . S
C1037 C1034 1.409 . S
C1037 C1035 1.415 . S
C1038 H1028 0.930 . S
C1038 C1036 1.419 . S
C1038 C1039 1.362 . S
C1039 H1029 0.930 . S
C1039 C1032 1.409 . S
C1039 C1038 1.362 . S
H1040 C1046 0.930 . S
H1041 C1049 0.930 . S
H1042 C1050 0.930 . S
H1043 C1051 0.930 . S
H1044 C1054 0.930 . S
H1045 C1055 0.930 . S
C1046 H1040 0.930 . S
C1046 C1047 1.355 . S
C1046 C1048 1.415 . S
C1047 C1046 1.355 . S
C1047 C1049 1.419 . S
C1048 C1046 1.415 . S
C1048 C1053 1.425 . S
C1048 C1055 1.409 . S
C1049 H1041 0.930 . S
C1049 C1047 1.419 . S
C1049 C1050 1.362 . S
C1050 H1042 0.930 . S
C1050 C1049 1.362 . S
C1050 C1053 1.409 . S
C1051 H1043 0.930 . S
C1051 C1052 1.355 . S
C1051 C1053 1.415 . S
C1052 C1051 1.355 . S
C1052 C1054 1.419 . S
C1053 C1048 1.425 . S
C1053 C1050 1.409 . S
C1053 C1051 1.415 . S
C1054 H1044 0.930 . S
C1054 C1052 1.419 . S
C1054 C1055 1.362 . S
C1055 H1045 0.930 . S
C1055 C1048 1.409 . S
C1055 C1054 1.362 . S
H1056 C1062 0.930 . S
H1057 C1065 0.930 . S
H1058 C1066 0.930 . S
H1059 C1067 0.930 . S
H1060 C1070 0.930 . S
H1061 C1071 0.930 . S
C1062 H1056 0.930 . S
C1062 C1063 1.355 . S
C1062 C1064 1.415 . S
C1063 C1062 1.355 . S
C1063 C1065 1.419 . S
C1064 C1062 1.415 . S
C1064 C1069 1.425 . S
C1064 C1071 1.409 . S
C1065 H1057 0.930 . S
C1065 C1063 1.419 . S
C1065 C1066 1.362 . S
C1066 H1058 0.930 . S
C1066 C1065 1.362 . S
C1066 C1069 1.409 . S
C1067 H1059 0.930 . S
C1067 C1068 1.355 . S
C1067 C1069 1.415 . S
C1068 C1067 1.355 . S
C1068 C1070 1.419 . S
C1069 C1064 1.425 . S
C1069 C1066 1.409 . S
C1069 C1067 1.415 . S
C1070 H1060 0.930 . S
C1070 C1068 1.419 . S
C1070 C1071 1.362 . S
C1071 H1061 0.930 . S
C1071 C1064 1.409 . S
C1071 C1070 1.362 . S
H1072 C1078 0.930 . S
H1073 C1081 0.930 . S
H1074 C1082 0.930 . S
H1075 C1083 0.930 . S
H1076 C1086 0.937 . S
H1077 C1087 0.930 . S
C1078 H1072 0.930 . S
C1078 C1079 1.355 . S
C1078 C1080 1.415 . S
C1079 C1078 1.355 . S
C1079 C1081 1.419 . S
C1080 C1078 1.415 . S
C1080 C1085 1.425 . S
C1080 C1087 1.409 . S
C1081 H1073 0.930 . S
C1081 C1079 1.419 . S
C1081 C1082 1.362 . S
C1082 H1074 0.930 . S
C1082 C1081 1.362 . S
C1082 C1085 1.409 . S
C1083 H1075 0.930 . S
C1083 C1084 1.355 . S
C1083 C1085 1.415 . S
C1084 C1083 1.355 . S
C1084 C1086 1.416 1_655 S
C1085 C1080 1.425 . S
C1085 C1082 1.409 . S
C1085 C1083 1.415 . S
C1086 H1076 0.937 . S
C1086 C1084 1.416 1_455 S
C1086 C1087 1.359 1_455 S
C1087 H1077 0.930 . S
C1087 C1080 1.409 . S
C1087 C1086 1.359 1_655 S
H1088 C1094 0.930 . S
H1089 C1097 0.930 . S
H1090 C1098 0.930 . S
H1091 C1099 0.930 . S
H1092 C1102 0.930 . S
H1093 C1103 0.930 . S
C1094 H1088 0.930 . S
C1094 C1095 1.355 . S
C1094 C1096 1.415 . S
C1095 C1094 1.355 . S
C1095 C1097 1.419 . S
C1096 C1094 1.415 . S
C1096 C1101 1.425 . S
C1096 C1103 1.409 . S
C1097 H1089 0.930 . S
C1097 C1095 1.419 . S
C1097 C1098 1.362 . S
C1098 H1090 0.930 . S
C1098 C1097 1.362 . S
C1098 C1101 1.409 . S
C1099 H1091 0.930 . S
C1099 C1100 1.355 . S
C1099 C1101 1.415 . S
C1100 C1099 1.355 . S
C1100 C1102 1.419 . S
C1101 C1096 1.425 . S
C1101 C1098 1.409 . S
C1101 C1099 1.415 . S
C1102 H1092 0.930 . S
C1102 C1100 1.419 . S
C1102 C1103 1.362 . S
C1103 H1093 0.930 . S
C1103 C1096 1.409 . S
C1103 C1102 1.362 . S
H1104 C1110 0.930 . S
H1105 C1113 0.930 . S
H1106 C1114 0.930 . S
H1107 C1115 0.930 . S
H1108 C1118 0.930 . S
H1109 C1119 0.930 . S
C1110 H1104 0.930 . S
C1110 C1111 1.355 . S
C1110 C1112 1.415 . S
C1111 C1110 1.355 . S
C1111 C1113 1.419 . S
C1112 C1110 1.415 . S
C1112 C1117 1.425 . S
C1112 C1119 1.409 . S
C1113 H1105 0.930 . S
C1113 C1111 1.419 . S
C1113 C1114 1.362 . S
C1114 H1106 0.930 . S
C1114 C1113 1.362 . S
C1114 C1117 1.409 . S
C1115 H1107 0.930 . S
C1115 C1116 1.355 . S
C1115 C1117 1.415 . S
C1116 C1115 1.355 . S
C1116 C1118 1.419 . S
C1117 C1112 1.425 . S
C1117 C1114 1.409 . S
C1117 C1115 1.415 . S
C1118 H1108 0.930 . S
C1118 C1116 1.419 . S
C1118 C1119 1.362 . S
C1119 H1109 0.930 . S
C1119 C1112 1.409 . S
C1119 C1118 1.362 . S
H1120 C1126 0.930 . S
H1121 C1129 0.930 . S
H1122 C1130 0.930 . S
H1123 C1131 0.930 . S
H1124 C1134 0.930 . S
H1125 C1135 0.930 . S
C1126 H1120 0.930 . S
C1126 C1127 1.355 . S
C1126 C1128 1.415 . S
C1127 C1126 1.355 . S
C1127 C1129 1.419 . S
C1128 C1126 1.415 . S
C1128 C1133 1.425 . S
C1128 C1135 1.409 . S
C1129 H1121 0.930 . S
C1129 C1127 1.419 . S
C1129 C1130 1.362 . S
C1130 H1122 0.930 . S
C1130 C1129 1.362 . S
C1130 C1133 1.409 . S
C1131 H1123 0.930 . S
C1131 C1132 1.355 . S
C1131 C1133 1.415 . S
C1132 C1131 1.355 . S
C1132 C1134 1.419 . S
C1133 C1128 1.425 . S
C1133 C1130 1.409 . S
C1133 C1131 1.415 . S
C1134 H1124 0.930 . S
C1134 C1132 1.419 . S
C1134 C1135 1.362 . S
C1135 H1125 0.930 . S
C1135 C1128 1.409 . S
C1135 C1134 1.362 . S
H1136 C1142 0.930 . S
H1137 C1145 0.930 . S
H1138 C1146 0.930 . S
H1139 C1147 0.930 . S
H1140 C1150 0.930 . S
H1141 C1151 0.930 . S
C1142 H1136 0.930 . S
C1142 C1143 1.355 . S
C1142 C1144 1.415 . S
C1143 C1142 1.355 . S
C1143 C1145 1.419 . S
C1144 C1142 1.415 . S
C1144 C1149 1.425 . S
C1144 C1151 1.409 . S
C1145 H1137 0.930 . S
C1145 C1143 1.419 . S
C1145 C1146 1.362 . S
C1146 H1138 0.930 . S
C1146 C1145 1.362 . S
C1146 C1149 1.409 . S
C1147 H1139 0.930 . S
C1147 C1148 1.355 . S
C1147 C1149 1.415 . S
C1148 C1147 1.355 . S
C1148 C1150 1.419 . S
C1149 C1144 1.425 . S
C1149 C1146 1.409 . S
C1149 C1147 1.415 . S
C1150 H1140 0.930 . S
C1150 C1148 1.419 . S
C1150 C1151 1.362 . S
C1151 H1141 0.930 . S
C1151 C1144 1.409 . S
C1151 C1150 1.362 . S
H1152 C1158 0.930 . S
H1153 C1161 0.930 . S
H1154 C1162 0.930 . S
H1155 C1163 0.930 . S
H1156 C1166 0.930 . S
H1157 C1167 0.930 . S
C1158 H1152 0.930 . S
C1158 C1159 1.355 . S
C1158 C1160 1.415 . S
C1159 C1158 1.355 . S
C1159 C1161 1.419 . S
C1160 C1158 1.415 . S
C1160 C1165 1.425 . S
C1160 C1167 1.409 . S
C1161 H1153 0.930 . S
C1161 C1159 1.419 . S
C1161 C1162 1.362 . S
C1162 H1154 0.930 . S
C1162 C1161 1.362 . S
C1162 C1165 1.409 . S
C1163 H1155 0.930 . S
C1163 C1164 1.355 . S
C1163 C1165 1.415 . S
C1164 C1163 1.355 . S
C1164 C1166 1.419 . S
C1165 C1160 1.425 . S
C1165 C1162 1.409 . S
C1165 C1163 1.415 . S
C1166 H1156 0.930 . S
C1166 C1164 1.419 . S
C1166 C1167 1.362 . S
C1167 H1157 0.930 . S
C1167 C1160 1.409 . S
C1167 C1166 1.362 . S
H1168 C1174 0.930 . S
H1169 C1177 0.930 1_455 S
H1170 C1178 0.930 . S
H1171 C1179 0.930 . S
H1172 C1182 0.930 . S
H1173 C1183 0.930 . S
C1174 H1168 0.930 . S
C1174 C1175 1.355 . S
C1174 C1176 1.415 . S
C1175 C1174 1.355 . S
C1175 C1177 1.419 . S
C1176 C1174 1.415 . S
C1176 C1181 1.425 . S
C1176 C1183 1.409 . S
C1177 H1169 0.930 1_655 S
C1177 C1175 1.419 . S
C1177 C1178 1.362 . S
C1178 H1170 0.930 . S
C1178 C1177 1.362 . S
C1178 C1181 1.409 . S
C1179 H1171 0.930 . S
C1179 C1180 1.355 . S
C1179 C1181 1.415 . S
C1180 C1179 1.355 . S
C1180 C1182 1.419 . S
C1181 C1176 1.425 . S
C1181 C1178 1.409 . S
C1181 C1179 1.415 . S
C1182 H1172 0.930 . S
C1182 C1180 1.419 . S
C1182 C1183 1.362 . S
C1183 H1173 0.930 . S
C1183 C1176 1.409 . S
C1183 C1182 1.362 . S
H1184 C1190 0.930 . S
H1185 C1193 0.930 . S
H1186 C1194 0.930 . S
H1187 C1195 0.930 . S
H1188 C1198 0.930 . S
H1189 C1199 0.930 . S
C1190 H1184 0.930 . S
C1190 C1191 1.355 . S
C1190 C1192 1.415 . S
C1191 C1190 1.355 . S
C1191 C1193 1.419 . S
C1192 C1190 1.415 . S
C1192 C1197 1.425 . S
C1192 C1199 1.409 . S
C1193 H1185 0.930 . S
C1193 C1191 1.419 . S
C1193 C1194 1.362 . S
C1194 H1186 0.930 . S
C1194 C1193 1.362 . S
C1194 C1197 1.409 . S
C1195 H1187 0.930 . S
C1195 C1196 1.355 . S
C1195 C1197 1.415 . S
C1196 C1195 1.355 . S
C1196 C1198 1.419 . S
C1197 C1192 1.425 . S
C1197 C1194 1.409 . S
C1197 C1195 1.415 . S
C1198 H1188 0.930 . S
C1198 C1196 1.419 . S
C1198 C1199 1.362 . S
C1199 H1189 0.930 . S
C1199 C1192 1.409 . S
C1199 C1198 1.362 . S
H1200 C1206 0.930 . S
H1201 C1209 0.930 . S
H1202 C1210 0.930 . S
H1203 C1211 0.930 1_455 S
H1204 C1214 0.930 . S
H1205 C1215 0.930 . S
C1206 H1200 0.930 . S
C1206 C1207 1.355 . S
C1206 C1208 1.415 . S
C1207 C1206 1.355 . S
C1207 C1209 1.419 . S
C1208 C1206 1.415 . S
C1208 C1213 1.425 . S
C1208 C1215 1.409 . S
C1209 H1201 0.930 . S
C1209 C1207 1.419 . S
C1209 C1210 1.362 . S
C1210 H1202 0.930 . S
C1210 C1209 1.362 . S
C1210 C1213 1.409 . S
C1211 H1203 0.930 1_655 S
C1211 C1212 1.355 . S
C1211 C1213 1.415 . S
C1212 C1211 1.355 . S
C1212 C1214 1.419 . S
C1213 C1208 1.425 . S
C1213 C1210 1.409 . S
C1213 C1211 1.415 . S
C1214 H1204 0.930 . S
C1214 C1212 1.419 . S
C1214 C1215 1.362 . S
C1215 H1205 0.930 . S
C1215 C1208 1.409 . S
C1215 C1214 1.362 . S
H1216 C1222 0.930 . S
H1217 C1225 0.930 . S
H1218 C1226 0.930 . S
H1219 C1227 0.930 . S
H1220 C1230 0.930 . S
H1221 C1231 0.930 . S
C1222 H1216 0.930 . S
C1222 C1223 1.355 . S
C1222 C1224 1.415 . S
C1223 C1222 1.355 . S
C1223 C1225 1.419 . S
C1224 C1222 1.415 . S
C1224 C1229 1.425 . S
C1224 C1231 1.409 . S
C1225 H1217 0.930 . S
C1225 C1223 1.419 . S
C1225 C1226 1.362 . S
C1226 H1218 0.930 . S
C1226 C1225 1.362 . S
C1226 C1229 1.409 . S
C1227 H1219 0.930 . S
C1227 C1228 1.355 . S
C1227 C1229 1.415 . S
C1228 C1227 1.355 . S
C1228 C1230 1.419 . S
C1229 C1224 1.425 . S
C1229 C1226 1.409 . S
C1229 C1227 1.415 . S
C1230 H1220 0.930 . S
C1230 C1228 1.419 . S
C1230 C1231 1.362 . S
C1231 H1221 0.930 . S
C1231 C1224 1.409 . S
C1231 C1230 1.362 . S
H1232 C1238 0.930 . S
H1233 C1241 0.930 . S
H1234 C1242 0.930 . S
H1235 C1243 0.930 1_655 S
H1236 C1246 0.930 . S
H1237 C1247 0.930 . S
C1238 H1232 0.930 . S
C1238 C1239 1.355 . S
C1238 C1240 1.415 . S
C1239 C1238 1.355 . S
C1239 C1241 1.419 . S
C1240 C1238 1.415 . S
C1240 C1245 1.425 . S
C1240 C1247 1.409 . S
C1241 H1233 0.930 . S
C1241 C1239 1.419 . S
C1241 C1242 1.362 . S
C1242 H1234 0.930 . S
C1242 C1241 1.362 . S
C1242 C1245 1.409 . S
C1243 H1235 0.930 1_455 S
C1243 C1244 1.355 . S
C1243 C1245 1.415 . S
C1244 C1243 1.355 . S
C1244 C1246 1.419 . S
C1245 C1240 1.425 . S
C1245 C1242 1.409 . S
C1245 C1243 1.415 . S
C1246 H1236 0.930 . S
C1246 C1244 1.419 . S
C1246 C1247 1.362 . S
C1247 H1237 0.930 . S
C1247 C1240 1.409 . S
C1247 C1246 1.362 . S
H1248 C1254 0.930 . S
H1249 C1257 0.930 . S
H1250 C1258 0.930 . S
H1251 C1259 0.930 . S
H1252 C1262 0.930 . S
H1253 C1263 0.930 . S
C1254 H1248 0.930 . S
C1254 C1255 1.355 . S
C1254 C1256 1.415 . S
C1255 C1254 1.355 . S
C1255 C1257 1.419 . S
C1256 C1254 1.415 . S
C1256 C1261 1.425 . S
C1256 C1263 1.409 . S
C1257 H1249 0.930 . S
C1257 C1255 1.419 . S
C1257 C1258 1.362 . S
C1258 H1250 0.930 . S
C1258 C1257 1.362 . S
C1258 C1261 1.409 . S
C1259 H1251 0.930 . S
C1259 C1260 1.355 . S
C1259 C1261 1.415 . S
C1260 C1259 1.355 . S
C1260 C1262 1.419 . S
C1261 C1256 1.425 . S
C1261 C1258 1.409 . S
C1261 C1259 1.415 . S
C1262 H1252 0.930 . S
C1262 C1260 1.419 . S
C1262 C1263 1.362 . S
C1263 H1253 0.930 . S
C1263 C1256 1.409 . S
C1263 C1262 1.362 . S
H1264 C1270 0.930 . S
H1265 C1273 0.930 . S
H1266 C1274 0.930 . S
H1267 C1275 0.930 . S
H1268 C1278 0.930 . S
H1269 C1279 0.930 . S
C1270 H1264 0.930 . S
C1270 C1271 1.355 . S
C1270 C1272 1.415 . S
C1271 C1270 1.355 . S
C1271 C1273 1.419 . S
C1272 C1270 1.415 . S
C1272 C1277 1.425 . S
C1272 C1279 1.409 . S
C1273 H1265 0.930 . S
C1273 C1271 1.419 . S
C1273 C1274 1.362 . S
C1274 H1266 0.930 . S
C1274 C1273 1.362 . S
C1274 C1277 1.409 . S
C1275 H1267 0.930 . S
C1275 C1276 1.355 . S
C1275 C1277 1.415 . S
C1276 C1275 1.355 . S
C1276 C1278 1.419 . S
C1277 C1272 1.425 . S
C1277 C1274 1.409 . S
C1277 C1275 1.415 . S
C1278 H1268 0.930 . S
C1278 C1276 1.419 . S
C1278 C1279 1.362 . S
C1279 H1269 0.930 . S
C1279 C1272 1.409 . S
C1279 C1278 1.362 . S
H1280 C1286 0.930 . S
H1281 C1289 0.930 . S
H1282 C1290 0.930 . S
H1283 C1291 0.930 . S
H1284 C1294 0.930 . S
H1285 C1295 0.930 . S
C1286 H1280 0.930 . S
C1286 C1287 1.355 . S
C1286 C1288 1.415 . S
C1287 C1286 1.355 . S
C1287 C1289 1.419 . S
C1288 C1286 1.415 . S
C1288 C1293 1.425 . S
C1288 C1295 1.409 . S
C1289 H1281 0.930 . S
C1289 C1287 1.419 . S
C1289 C1290 1.362 . S
C1290 H1282 0.930 . S
C1290 C1289 1.362 . S
C1290 C1293 1.409 . S
C1291 H1283 0.930 . S
C1291 C1292 1.355 . S
C1291 C1293 1.415 . S
C1292 C1291 1.355 . S
C1292 C1294 1.419 . S
C1293 C1288 1.425 . S
C1293 C1290 1.409 . S
C1293 C1291 1.415 . S
C1294 H1284 0.930 . S
C1294 C1292 1.419 . S
C1294 C1295 1.362 . S
C1295 H1285 0.930 . S
C1295 C1288 1.409 . S
C1295 C1294 1.362 . S
H1296 C1302 0.930 . S
H1297 C1305 0.930 . S
H1298 C1306 0.930 1_545 S
H1299 C1307 0.930 . S
H1300 C1310 0.930 . S
H1301 C1311 0.930 1_565 S
C1302 H1296 0.930 . S
C1302 C1303 1.355 1_655 S
C1302 C1304 1.415 . S
C1303 C1302 1.355 1_455 S
C1303 C1305 1.419 . S
C1304 C1302 1.415 . S
C1304 C1309 1.425 1_665 S
C1304 C1311 1.409 1_565 S
C1305 H1297 0.930 . S
C1305 C1303 1.419 . S
C1305 C1306 1.362 . S
C1306 H1298 0.930 1_565 S
C1306 C1305 1.362 . S
C1306 C1309 1.409 1_565 S
C1307 H1299 0.930 . S
C1307 C1308 1.355 1_455 S
C1307 C1309 1.415 . S
C1308 C1307 1.355 1_655 S
C1308 C1310 1.419 . S
C1309 C1304 1.425 1_445 S
C1309 C1306 1.409 1_545 S
C1309 C1307 1.415 . S
C1310 H1300 0.930 . S
C1310 C1308 1.419 . S
C1310 C1311 1.362 . S
C1311 H1301 0.930 1_545 S
C1311 C1304 1.409 1_545 S
C1311 C1310 1.362 . S
H1312 C1318 0.930 . S
H1313 C1321 0.930 . S
H1314 C1322 0.930 1_545 S
H1315 C1323 0.930 . S
H1316 C1326 0.930 . S
H1317 C1327 0.930 1_565 S
C1318 H1312 0.930 . S
C1318 C1319 1.355 . S
C1318 C1320 1.415 . S
C1319 C1318 1.355 . S
C1319 C1321 1.419 . S
C1320 C1318 1.415 . S
C1320 C1325 1.425 1_565 S
C1320 C1327 1.409 1_565 S
C1321 H1313 0.930 . S
C1321 C1319 1.419 . S
C1321 C1322 1.362 . S
C1322 H1314 0.930 1_565 S
C1322 C1321 1.362 . S
C1322 C1325 1.409 1_565 S
C1323 H1315 0.930 . S
C1323 C1324 1.355 . S
C1323 C1325 1.415 . S
C1324 C1323 1.355 . S
C1324 C1326 1.419 . S
C1325 C1320 1.425 1_545 S
C1325 C1322 1.409 1_545 S
C1325 C1323 1.415 . S
C1326 H1316 0.930 . S
C1326 C1324 1.419 . S
C1326 C1327 1.362 . S
C1327 H1317 0.930 1_545 S
C1327 C1320 1.409 1_545 S
C1327 C1326 1.362 . S
H1328 C1334 0.930 . S
H1329 C1337 0.930 . S
H1330 C1338 0.930 . S
H1331 C1339 0.930 . S
H1332 C1342 0.930 . S
H1333 C1343 0.930 . S
C1334 H1328 0.930 . S
C1334 C1335 1.346 1_655 S
C1334 C1336 1.415 . S
C1335 C1334 1.346 1_455 S
C1335 C1337 1.431 . S
C1336 C1334 1.415 . S
C1336 C1341 1.425 1_655 S
C1336 C1343 1.409 . S
C1337 H1329 0.930 . S
C1337 C1335 1.431 . S
C1337 C1338 1.362 . S
C1338 H1330 0.930 . S
C1338 C1337 1.362 . S
C1338 C1341 1.409 . S
C1339 H1331 0.930 . S
C1339 C1340 1.346 1_455 S
C1339 C1341 1.415 . S
C1340 C1339 1.346 1_655 S
C1340 C1342 1.431 . S
C1341 C1336 1.425 1_455 S
C1341 C1338 1.409 . S
C1341 C1339 1.415 . S
C1342 H1332 0.930 . S
C1342 C1340 1.431 . S
C1342 C1343 1.362 . S
C1343 H1333 0.930 . S
C1343 C1336 1.409 . S
C1343 C1342 1.362 . S
H1344 C1350 0.930 . S
H1345 C1353 0.930 . S
H1346 C1354 0.930 . S
H1347 C1355 0.930 . S
H1348 C1358 0.930 . S
H1349 C1359 0.930 . S
C1350 H1344 0.930 . S
C1350 C1351 1.355 . S
C1350 C1352 1.415 . S
C1351 C1350 1.355 . S
C1351 C1353 1.419 . S
C1352 C1350 1.415 . S
C1352 C1357 1.425 . S
C1352 C1359 1.409 . S
C1353 H1345 0.930 . S
C1353 C1351 1.419 . S
C1353 C1354 1.362 . S
C1354 H1346 0.930 . S
C1354 C1353 1.362 . S
C1354 C1357 1.409 . S
C1355 H1347 0.930 . S
C1355 C1356 1.355 . S
C1355 C1357 1.415 . S
C1356 C1355 1.355 . S
C1356 C1358 1.419 . S
C1357 C1352 1.425 . S
C1357 C1354 1.409 . S
C1357 C1355 1.415 . S
C1358 H1348 0.930 . S
C1358 C1356 1.419 . S
C1358 C1359 1.362 . S
C1359 H1349 0.930 . S
C1359 C1352 1.409 . S
C1359 C1358 1.362 . S
H1360 C1366 0.930 . S
H1361 C1369 0.930 . S
H1362 C1370 0.930 . S
H1363 C1371 0.930 . S
H1364 C1374 0.930 . S
H1365 C1375 0.930 . S
C1366 H1360 0.930 . S
C1366 C1367 1.355 . S
C1366 C1368 1.415 . S
C1367 C1366 1.355 . S
C1367 C1369 1.419 . S
C1368 C1366 1.415 . S
C1368 C1373 1.425 1_565 S
C1368 C1375 1.409 . S
C1369 H1361 0.930 . S
C1369 C1367 1.419 . S
C1369 C1370 1.362 1_565 S
C1370 H1362 0.930 . S
C1370 C1369 1.362 1_545 S
C1370 C1373 1.409 . S
C1371 H1363 0.930 . S
C1371 C1372 1.355 . S
C1371 C1373 1.415 . S
C1372 C1371 1.355 . S
C1372 C1374 1.419 . S
C1373 C1368 1.425 1_545 S
C1373 C1370 1.409 . S
C1373 C1371 1.415 . S
C1374 H1364 0.930 . S
C1374 C1372 1.419 . S
C1374 C1375 1.362 1_545 S
C1375 H1365 0.930 . S
C1375 C1368 1.409 . S
C1375 C1374 1.362 1_565 S
H1376 C1382 0.930 . S
H1377 C1385 0.930 . S
H1378 C1386 0.930 . S
H1379 C1387 0.930 . S
H1380 C1390 0.930 . S
H1381 C1391 0.930 . S
C1382 H1376 0.930 . S
C1382 C1383 1.355 1_455 S
C1382 C1384 1.415 . S
C1383 C1382 1.355 1_655 S
C1383 C1385 1.419 . S
C1384 C1382 1.415 . S
C1384 C1389 1.425 1_455 S
C1384 C1391 1.409 . S
C1385 H1377 0.930 . S
C1385 C1383 1.419 . S
C1385 C1386 1.362 . S
C1386 H1378 0.930 . S
C1386 C1385 1.362 . S
C1386 C1389 1.409 . S
C1387 H1379 0.930 . S
C1387 C1388 1.355 1_655 S
C1387 C1389 1.415 . S
C1388 C1387 1.355 1_455 S
C1388 C1390 1.419 . S
C1389 C1384 1.425 1_655 S
C1389 C1386 1.409 . S
C1389 C1387 1.415 . S
C1390 H1380 0.930 . S
C1390 C1388 1.419 . S
C1390 C1391 1.362 . S
C1391 H1381 0.930 . S
C1391 C1384 1.409 . S
C1391 C1390 1.362 . S
H1392 C1398 0.930 . S
H1393 C1401 0.930 . S
H1394 C1402 0.930 . S
H1395 C1403 0.930 . S
H1396 C1406 0.930 . S
H1397 C1407 0.930 . S
C1398 H1392 0.930 . S
C1398 C1399 1.355 . S
C1398 C1400 1.415 1_554 S
C1399 C1398 1.355 . S
C1399 C1401 1.419 . S
C1400 C1398 1.415 1_556 S
C1400 C1405 1.425 1_556 S
C1400 C1407 1.409 . S
C1401 H1393 0.930 . S
C1401 C1399 1.419 . S
C1401 C1402 1.362 . S
C1402 H1394 0.930 . S
C1402 C1401 1.362 . S
C1402 C1405 1.409 . S
C1403 H1395 0.930 . S
C1403 C1404 1.355 . S
C1403 C1405 1.415 1_556 S
C1404 C1403 1.355 . S
C1404 C1406 1.419 . S
C1405 C1400 1.425 1_554 S
C1405 C1402 1.409 . S
C1405 C1403 1.415 1_554 S
C1406 H1396 0.930 . S
C1406 C1404 1.419 . S
C1406 C1407 1.362 . S
C1407 H1397 0.930 . S
C1407 C1400 1.409 . S
C1407 C1406 1.362 . S
H1408 C1414 0.930 . S
H1409 C1417 0.930 . S
H1410 C1418 0.930 . S
H1411 C1419 0.930 . S
H1412 C1422 0.930 . S
H1413 C1423 0.930 . S
C1414 H1408 0.930 . S
C1414 C1415 1.355 . S
C1414 C1416 1.415 1_556 S
C1415 C1414 1.355 . S
C1415 C1417 1.419 1_655 S
C1416 C1414 1.415 1_554 S
C1416 C1421 1.425 1_654 S
C1416 C1423 1.409 . S
C1417 H1409 0.930 . S
C1417 C1415 1.419 1_455 S
C1417 C1418 1.362 . S
C1418 H1410 0.930 . S
C1418 C1417 1.362 . S
C1418 C1421 1.409 . S
C1419 H1411 0.930 . S
C1419 C1420 1.355 . S
C1419 C1421 1.415 1_554 S
C1420 C1419 1.355 . S
C1420 C1422 1.419 1_455 S
C1421 C1416 1.425 1_456 S
C1421 C1418 1.409 . S
C1421 C1419 1.415 1_556 S
C1422 H1412 0.930 . S
C1422 C1420 1.419 1_655 S
C1422 C1423 1.362 . S
C1423 H1413 0.930 . S
C1423 C1416 1.409 . S
C1423 C1422 1.362 . S
H1424 C1430 0.930 . S
H1425 C1433 0.930 . S
H1426 C1434 0.930 . S
H1427 C1435 0.930 . S
H1428 C1438 0.930 . S
H1429 C1439 0.930 . S
C1430 H1424 0.930 . S
C1430 C1431 1.355 . S
C1430 C1432 1.415 . S
C1431 C1430 1.355 . S
C1431 C1433 1.419 . S
C1432 C1430 1.415 . S
C1432 C1437 1.425 . S
C1432 C1439 1.409 . S
C1433 H1425 0.930 . S
C1433 C1431 1.419 . S
C1433 C1434 1.362 . S
C1434 H1426 0.930 . S
C1434 C1433 1.362 . S
C1434 C1437 1.409 . S
C1435 H1427 0.930 . S
C1435 C1436 1.355 . S
C1435 C1437 1.415 . S
C1436 C1435 1.355 . S
C1436 C1438 1.419 . S
C1437 C1432 1.425 . S
C1437 C1434 1.409 . S
C1437 C1435 1.415 . S
C1438 H1428 0.930 . S
C1438 C1436 1.419 . S
C1438 C1439 1.362 . S
C1439 H1429 0.930 . S
C1439 C1432 1.409 . S
C1439 C1438 1.362 . S
H1440 C1446 0.930 . S
H1441 C1449 0.930 . S
H1442 C1450 0.930 1_554 S
H1443 C1451 0.930 . S
H1444 C1454 0.930 . S
H1445 C1455 0.930 1_556 S
C1446 H1440 0.930 . S
C1446 C1447 1.355 . S
C1446 C1448 1.415 . S
C1447 C1446 1.355 . S
C1447 C1449 1.419 . S
C1448 C1446 1.415 . S
C1448 C1453 1.425 1_556 S
C1448 C1455 1.409 1_556 S
C1449 H1441 0.930 . S
C1449 C1447 1.419 . S
C1449 C1450 1.362 . S
C1450 H1442 0.930 1_556 S
C1450 C1449 1.362 . S
C1450 C1453 1.409 1_556 S
C1451 H1443 0.930 . S
C1451 C1452 1.355 . S
C1451 C1453 1.415 . S
C1452 C1451 1.355 . S
C1452 C1454 1.419 . S
C1453 C1448 1.425 1_554 S
C1453 C1450 1.409 1_554 S
C1453 C1451 1.415 . S
C1454 H1444 0.930 . S
C1454 C1452 1.419 . S
C1454 C1455 1.362 . S
C1455 H1445 0.930 1_554 S
C1455 C1448 1.409 1_554 S
C1455 C1454 1.362 . S
H1456 C1462 0.930 . S
H1457 C1465 0.930 . S
H1458 C1466 0.930 . S
H1459 C1467 0.930 . S
H1460 C1470 0.930 . S
H1461 C1471 0.930 . S
C1462 H1456 0.930 . S
C1462 C1463 1.355 . S
C1462 C1464 1.415 . S
C1463 C1462 1.355 . S
C1463 C1465 1.419 . S
C1464 C1462 1.415 . S
C1464 C1469 1.425 . S
C1464 C1471 1.409 . S
C1465 H1457 0.930 . S
C1465 C1463 1.419 . S
C1465 C1466 1.362 . S
C1466 H1458 0.930 . S
C1466 C1465 1.362 . S
C1466 C1469 1.409 . S
C1467 H1459 0.930 . S
C1467 C1468 1.355 . S
C1467 C1469 1.415 . S
C1468 C1467 1.355 . S
C1468 C1470 1.419 . S
C1469 C1464 1.425 . S
C1469 C1466 1.409 . S
C1469 C1467 1.415 . S
C1470 H1460 0.930 . S
C1470 C1468 1.419 . S
C1470 C1471 1.362 . S
C1471 H1461 0.930 . S
C1471 C1464 1.409 . S
C1471 C1470 1.362 . S
H1472 C1478 0.930 . S
H1473 C1481 0.930 . S
H1474 C1482 0.930 . S
H1475 C1483 0.930 . S
H1476 C1486 0.930 . S
H1477 C1487 0.930 . S
C1478 H1472 0.930 . S
C1478 C1479 1.355 . S
C1478 C1480 1.415 1_556 S
C1479 C1478 1.355 . S
C1479 C1481 1.419 . S
C1480 C1478 1.415 1_554 S
C1480 C1485 1.425 1_544 S
C1480 C1487 1.409 . S
C1481 H1473 0.930 . S
C1481 C1479 1.419 . S
C1481 C1482 1.362 1_545 S
C1482 H1474 0.930 . S
C1482 C1481 1.362 1_565 S
C1482 C1485 1.409 . S
C1483 H1475 0.930 . S
C1483 C1484 1.355 . S
C1483 C1485 1.415 1_554 S
C1484 C1483 1.355 . S
C1484 C1486 1.419 . S
C1485 C1480 1.425 1_566 S
C1485 C1482 1.409 . S
C1485 C1483 1.415 1_556 S
C1486 H1476 0.930 . S
C1486 C1484 1.419 . S
C1486 C1487 1.362 1_565 S
C1487 H1477 0.930 . S
C1487 C1480 1.409 . S
C1487 C1486 1.362 1_545 S
H1488 C1494 0.930 . S
H1489 C1497 0.930 . S
H1490 C1498 0.930 . S
H1491 C1499 0.930 . S
H1492 C1502 0.930 . S
H1493 C1503 0.930 . S
C1494 H1488 0.930 . S
C1494 C1495 1.355 . S
C1494 C1496 1.415 . S
C1495 C1494 1.355 . S
C1495 C1497 1.419 . S
C1496 C1494 1.415 . S
C1496 C1501 1.425 . S
C1496 C1503 1.409 . S
C1497 H1489 0.930 . S
C1497 C1495 1.419 . S
C1497 C1498 1.362 . S
C1498 H1490 0.930 . S
C1498 C1497 1.362 . S
C1498 C1501 1.409 . S
C1499 H1491 0.930 . S
C1499 C1500 1.355 . S
C1499 C1501 1.415 . S
C1500 C1499 1.355 . S
C1500 C1502 1.419 . S
C1501 C1496 1.425 . S
C1501 C1498 1.409 . S
C1501 C1499 1.415 . S
C1502 H1492 0.930 . S
C1502 C1500 1.419 . S
C1502 C1503 1.362 . S
C1503 H1493 0.930 . S
C1503 C1496 1.409 . S
C1503 C1502 1.362 . S
H1504 C1510 0.930 . S
H1505 C1513 0.930 . S
H1506 C1514 0.930 . S
H1507 C1515 0.930 . S
H1508 C1518 0.930 . S
H1509 C1519 0.930 . S
C1510 H1504 0.930 . S
C1510 C1511 1.355 . S
C1510 C1512 1.415 . S
C1511 C1510 1.355 . S
C1511 C1513 1.419 . S
C1512 C1510 1.415 . S
C1512 C1517 1.425 . S
C1512 C1519 1.409 . S
C1513 H1505 0.930 . S
C1513 C1511 1.419 . S
C1513 C1514 1.362 . S
C1514 H1506 0.930 . S
C1514 C1513 1.362 . S
C1514 C1517 1.409 . S
C1515 H1507 0.930 . S
C1515 C1516 1.355 . S
C1515 C1517 1.415 . S
C1516 C1515 1.355 . S
C1516 C1518 1.419 . S
C1517 C1512 1.425 . S
C1517 C1514 1.409 . S
C1517 C1515 1.415 . S
C1518 H1508 0.930 . S
C1518 C1516 1.419 . S
C1518 C1519 1.362 . S
C1519 H1509 0.930 . S
C1519 C1512 1.409 . S
C1519 C1518 1.362 . S
H1520 C1526 0.930 . S
H1521 C1529 0.930 . S
H1522 C1530 0.930 . S
H1523 C1531 0.930 . S
H1524 C1534 0.930 . S
H1525 C1535 0.930 . S
C1526 H1520 0.930 . S
C1526 C1527 1.355 . S
C1526 C1528 1.415 . S
C1527 C1526 1.355 . S
C1527 C1529 1.419 . S
C1528 C1526 1.415 . S
C1528 C1533 1.425 . S
C1528 C1535 1.409 . S
C1529 H1521 0.930 . S
C1529 C1527 1.419 . S
C1529 C1530 1.362 . S
C1530 H1522 0.930 . S
C1530 C1529 1.362 . S
C1530 C1533 1.409 . S
C1531 H1523 0.930 . S
C1531 C1532 1.355 . S
C1531 C1533 1.415 . S
C1532 C1531 1.355 . S
C1532 C1534 1.419 . S
C1533 C1528 1.425 . S
C1533 C1530 1.409 . S
C1533 C1531 1.415 . S
C1534 H1524 0.930 . S
C1534 C1532 1.419 . S
C1534 C1535 1.362 . S
C1535 H1525 0.930 . S
C1535 C1528 1.409 . S
C1535 C1534 1.362 . S
C519 C8 1.393 . S
C524 C411 1.393 . S
C535 C27 1.401 1_655 S
C540 C392 1.401 . S
C551 C59 1.406 . S
C556 C424 1.406 . S
C567 C40 1.393 1_655 S
C572 C443 1.393 . S
C583 C479 1.402 . S
C588 C87 1.402 . S
C599 C95 1.393 1_455 S
C604 C471 1.393 . S
C615 C113 1.397 . S
C620 C504 1.397 . S
C631 C120 1.398 1_455 S
C636 C497 1.398 . S
C647 C283 1.401 . S
C652 C136 1.401 . S
C663 C264 1.408 . S
C668 C155 1.408 1_655 S
C679 C296 1.409 . S
C684 C187 1.409 . S
C695 C315 1.398 . S
C700 C168 1.398 1_655 S
C711 C351 1.410 . S
C716 C215 1.410 . S
C727 C223 1.392 1_455 S
C732 C343 1.392 . S
C743 C376 1.397 . S
C748 C241 1.397 . S
C759 C248 1.392 1_455 S
C764 C369 1.392 . S
C775 C30 1.172 . S
C780 C406 1.172 . S
C791 C22 1.162 1_655 S
C796 C414 1.162 . S
C807 C54 1.172 . S
C812 C446 1.172 . S
C823 C438 1.165 . S
C828 C62 1.165 1_655 S
C839 C472 1.165 . S
C844 C81 1.165 . S
C855 C465 1.168 . S
C860 C88 1.168 1_455 S
C871 C511 1.245 . S
C876 C119 1.245 . S
C887 C503 1.163 . S
C892 C127 1.163 1_455 S
C903 C158 1.244 . S
C908 C278 1.244 . S
C919 C150 1.235 1_655 S
C924 C286 1.235 . S
C935 C182 1.228 . S
C940 C318 1.228 . S
C951 C190 1.180 1_655 S
C956 C310 1.180 . S
C967 C344 1.243 . S
C972 C209 1.243 . S
C983 C337 1.237 . S
C988 C216 1.237 1_455 S
C999 C383 1.168 . S
C1004 C247 1.168 . S
C1015 C255 1.180 1_455 S
C1020 C375 1.180 . S
C1031 C31 1.581 . S
C1036 C319 1.581 . S
C1047 C305 1.595 . S
C1052 C17 1.616 1_655 S
C1063 C273 1.592 . S
C1068 C49 1.576 . S
C1079 C287 1.584 . S
C1084 C63 1.585 1_655 S
C1095 C382 1.580 . S
C1100 C86 1.581 . S
C1111 C72 1.614 1_455 S
C1116 C379 1.625 . S
C1127 C123 1.580 . S
C1132 C328 1.577 . S
C1143 C126 1.608 1_455 S
C1148 C342 1.621 . S
C1159 C447 1.582 . S
C1164 C159 1.581 . S
C1175 C145 1.574 1_655 S
C1180 C433 1.581 . S
C1191 C177 1.595 . S
C1196 C401 1.578 . S
C1207 C415 1.630 . S
C1212 C191 1.630 1_655 S
C1223 C510 1.627 . S
C1228 C214 1.629 . S
C1239 C507 1.627 . S
C1244 C200 1.617 1_455 S
C1255 C456 1.602 . S
C1260 C251 1.597 . S
C1271 C470 1.604 . S
C1276 C254 1.590 1_455 S
C1287 C475 1.792 . S
C1292 C24 1.792 . S
C1303 C94 1.792 1_455 S
C1308 C23 1.792 1_655 S
C1319 C374 1.863 . S
C1324 C55 1.791 . S
C1335 C56 1.765 . S
C1340 C232 1.685 . S
C1351 C408 1.765 . S
C1356 C91 1.765 . S
C1367 C118 1.859 . S
C1372 C311 1.784 . S
C1383 C184 1.864 1_655 S
C1388 C104 1.793 1_455 S
C1399 C347 1.830 . S
C1404 C152 1.830 . S
C1415 C151 1.696 1_655 S
C1420 C222 1.696 1_455 S
C1431 C183 1.707 . S
C1436 C502 1.792 . S
C1447 C280 1.863 . S
C1452 C219 1.863 . S
C1463 C439 1.684 . S
C1468 C246 1.767 . S
C1479 C279 1.703 . S
C1484 C350 1.703 . S
C1495 C312 1.761 . S
C1500 C488 1.682 . S
C1511 C440 1.851 . S
C1516 C360 1.774 . S
C1527 C478 1.753 . S
C1532 C407 1.753 . S
