# Generated by pormake.
# Topology wgn, (5)-cn, num edge types: 1
# Building blocks:
#     Node 0, Type 0, BuildingBlock: XOMCOT_clean_sbu_1, # of connection points: 5
#     Node 1, Type 0, BuildingBlock: XOMCOT_clean_sbu_1, # of connection points: 5
#     Node 2, Type 0, BuildingBlock: XOMCOT_clean_sbu_1, # of connection points: 5
#     Node 3, Type 0, BuildingBlock: XOMCOT_clean_sbu_1, # of connection points: 5
#     Node 4, Type 0, BuildingBlock: XOMCOT_clean_sbu_1, # of connection points: 5
#     Node 5, Type 0, BuildingBlock: XOMCOT_clean_sbu_1, # of connection points: 5
#     Node 6, Type 0, BuildingBlock: XOMCOT_clean_sbu_1, # of connection points: 5
#     Node 7, Type 0, BuildingBlock: XOMCOT_clean_sbu_1, # of connection points: 5
#     Node 8, Type 0, BuildingBlock: XOMCOT_clean_sbu_1, # of connection points: 5
#     Node 9, Type 0, BuildingBlock: XOMCOT_clean_sbu_1, # of connection points: 5
#     Node 10, Type 0, BuildingBlock: XOMCOT_clean_sbu_1, # of connection points: 5
#     Node 11, Type 0, BuildingBlock: XOMCOT_clean_sbu_1, # of connection points: 5
#     Node 12, Type 0, BuildingBlock: XOMCOT_clean_sbu_1, # of connection points: 5
#     Node 13, Type 0, BuildingBlock: XOMCOT_clean_sbu_1, # of connection points: 5
#     Node 14, Type 0, BuildingBlock: XOMCOT_clean_sbu_1, # of connection points: 5
#     Node 15, Type 0, BuildingBlock: XOMCOT_clean_sbu_1, # of connection points: 5
#     Node 16, Type 0, BuildingBlock: XOMCOT_clean_sbu_1, # of connection points: 5
#     Node 17, Type 0, BuildingBlock: XOMCOT_clean_sbu_1, # of connection points: 5
#     Node 18, Type 0, BuildingBlock: XOMCOT_clean_sbu_1, # of connection points: 5
#     Node 19, Type 0, BuildingBlock: XOMCOT_clean_sbu_1, # of connection points: 5
#     Node 20, Type 0, BuildingBlock: XOMCOT_clean_sbu_1, # of connection points: 5
#     Node 21, Type 0, BuildingBlock: XOMCOT_clean_sbu_1, # of connection points: 5
#     Node 22, Type 0, BuildingBlock: XOMCOT_clean_sbu_1, # of connection points: 5
#     Node 23, Type 0, BuildingBlock: XOMCOT_clean_sbu_1, # of connection points: 5
#     Node 24, Type 0, BuildingBlock: XOMCOT_clean_sbu_1, # of connection points: 5
#     Node 25, Type 0, BuildingBlock: XOMCOT_clean_sbu_1, # of connection points: 5
#     Node 26, Type 0, BuildingBlock: XOMCOT_clean_sbu_1, # of connection points: 5
#     Node 27, Type 0, BuildingBlock: XOMCOT_clean_sbu_1, # of connection points: 5
#     Node 28, Type 0, BuildingBlock: XOMCOT_clean_sbu_1, # of connection points: 5
#     Node 29, Type 0, BuildingBlock: XOMCOT_clean_sbu_1, # of connection points: 5
#     Node 30, Type 0, BuildingBlock: XOMCOT_clean_sbu_1, # of connection points: 5
#     Node 31, Type 0, BuildingBlock: XOMCOT_clean_sbu_1, # of connection points: 5
#     Edge 32, Type (0, 0), BuildingBlock: OJICUG_clean_linker_0, # of connection points: 2
#     Edge 33, Type (0, 0), BuildingBlock: OJICUG_clean_linker_0, # of connection points: 2
#     Edge 34, Type (0, 0), BuildingBlock: OJICUG_clean_linker_0, # of connection points: 2
#     Edge 35, Type (0, 0), BuildingBlock: OJICUG_clean_linker_0, # of connection points: 2
#     Edge 36, Type (0, 0), BuildingBlock: OJICUG_clean_linker_0, # of connection points: 2
#     Edge 37, Type (0, 0), BuildingBlock: OJICUG_clean_linker_0, # of connection points: 2
#     Edge 38, Type (0, 0), BuildingBlock: OJICUG_clean_linker_0, # of connection points: 2
#     Edge 39, Type (0, 0), BuildingBlock: OJICUG_clean_linker_0, # of connection points: 2
#     Edge 40, Type (0, 0), BuildingBlock: OJICUG_clean_linker_0, # of connection points: 2
#     Edge 41, Type (0, 0), BuildingBlock: OJICUG_clean_linker_0, # of connection points: 2
#     Edge 42, Type (0, 0), BuildingBlock: OJICUG_clean_linker_0, # of connection points: 2
#     Edge 43, Type (0, 0), BuildingBlock: OJICUG_clean_linker_0, # of connection points: 2
#     Edge 44, Type (0, 0), BuildingBlock: OJICUG_clean_linker_0, # of connection points: 2
#     Edge 45, Type (0, 0), BuildingBlock: OJICUG_clean_linker_0, # of connection points: 2
#     Edge 46, Type (0, 0), BuildingBlock: OJICUG_clean_linker_0, # of connection points: 2
#     Edge 47, Type (0, 0), BuildingBlock: OJICUG_clean_linker_0, # of connection points: 2
#     Edge 48, Type (0, 0), BuildingBlock: OJICUG_clean_linker_0, # of connection points: 2
#     Edge 49, Type (0, 0), BuildingBlock: OJICUG_clean_linker_0, # of connection points: 2
#     Edge 50, Type (0, 0), BuildingBlock: OJICUG_clean_linker_0, # of connection points: 2
#     Edge 51, Type (0, 0), BuildingBlock: OJICUG_clean_linker_0, # of connection points: 2
#     Edge 52, Type (0, 0), BuildingBlock: OJICUG_clean_linker_0, # of connection points: 2
#     Edge 53, Type (0, 0), BuildingBlock: OJICUG_clean_linker_0, # of connection points: 2
#     Edge 54, Type (0, 0), BuildingBlock: OJICUG_clean_linker_0, # of connection points: 2
#     Edge 55, Type (0, 0), BuildingBlock: OJICUG_clean_linker_0, # of connection points: 2
#     Edge 56, Type (0, 0), BuildingBlock: OJICUG_clean_linker_0, # of connection points: 2
#     Edge 57, Type (0, 0), BuildingBlock: OJICUG_clean_linker_0, # of connection points: 2
#     Edge 58, Type (0, 0), BuildingBlock: OJICUG_clean_linker_0, # of connection points: 2
#     Edge 59, Type (0, 0), BuildingBlock: OJICUG_clean_linker_0, # of connection points: 2
#     Edge 60, Type (0, 0), BuildingBlock: OJICUG_clean_linker_0, # of connection points: 2
#     Edge 61, Type (0, 0), BuildingBlock: OJICUG_clean_linker_0, # of connection points: 2
#     Edge 62, Type (0, 0), BuildingBlock: OJICUG_clean_linker_0, # of connection points: 2
#     Edge 63, Type (0, 0), BuildingBlock: OJICUG_clean_linker_0, # of connection points: 2
#     Edge 64, Type (0, 0), BuildingBlock: OJICUG_clean_linker_0, # of connection points: 2
#     Edge 65, Type (0, 0), BuildingBlock: OJICUG_clean_linker_0, # of connection points: 2
#     Edge 66, Type (0, 0), BuildingBlock: OJICUG_clean_linker_0, # of connection points: 2
#     Edge 67, Type (0, 0), BuildingBlock: OJICUG_clean_linker_0, # of connection points: 2
#     Edge 68, Type (0, 0), BuildingBlock: OJICUG_clean_linker_0, # of connection points: 2
#     Edge 69, Type (0, 0), BuildingBlock: OJICUG_clean_linker_0, # of connection points: 2
#     Edge 70, Type (0, 0), BuildingBlock: OJICUG_clean_linker_0, # of connection points: 2
#     Edge 71, Type (0, 0), BuildingBlock: OJICUG_clean_linker_0, # of connection points: 2
#     Edge 72, Type (0, 0), BuildingBlock: OJICUG_clean_linker_0, # of connection points: 2
#     Edge 73, Type (0, 0), BuildingBlock: OJICUG_clean_linker_0, # of connection points: 2
#     Edge 74, Type (0, 0), BuildingBlock: OJICUG_clean_linker_0, # of connection points: 2
#     Edge 75, Type (0, 0), BuildingBlock: OJICUG_clean_linker_0, # of connection points: 2
#     Edge 76, Type (0, 0), BuildingBlock: OJICUG_clean_linker_0, # of connection points: 2
#     Edge 77, Type (0, 0), BuildingBlock: OJICUG_clean_linker_0, # of connection points: 2
#     Edge 78, Type (0, 0), BuildingBlock: OJICUG_clean_linker_0, # of connection points: 2
#     Edge 79, Type (0, 0), BuildingBlock: OJICUG_clean_linker_0, # of connection points: 2
#     Edge 80, Type (0, 0), BuildingBlock: OJICUG_clean_linker_0, # of connection points: 2
#     Edge 81, Type (0, 0), BuildingBlock: OJICUG_clean_linker_0, # of connection points: 2
#     Edge 82, Type (0, 0), BuildingBlock: OJICUG_clean_linker_0, # of connection points: 2
#     Edge 83, Type (0, 0), BuildingBlock: OJICUG_clean_linker_0, # of connection points: 2
#     Edge 84, Type (0, 0), BuildingBlock: OJICUG_clean_linker_0, # of connection points: 2
#     Edge 85, Type (0, 0), BuildingBlock: OJICUG_clean_linker_0, # of connection points: 2
#     Edge 86, Type (0, 0), BuildingBlock: OJICUG_clean_linker_0, # of connection points: 2
#     Edge 87, Type (0, 0), BuildingBlock: OJICUG_clean_linker_0, # of connection points: 2
#     Edge 88, Type (0, 0), BuildingBlock: OJICUG_clean_linker_0, # of connection points: 2
#     Edge 89, Type (0, 0), BuildingBlock: OJICUG_clean_linker_0, # of connection points: 2
#     Edge 90, Type (0, 0), BuildingBlock: OJICUG_clean_linker_0, # of connection points: 2
#     Edge 91, Type (0, 0), BuildingBlock: OJICUG_clean_linker_0, # of connection points: 2
#     Edge 92, Type (0, 0), BuildingBlock: OJICUG_clean_linker_0, # of connection points: 2
#     Edge 93, Type (0, 0), BuildingBlock: OJICUG_clean_linker_0, # of connection points: 2
#     Edge 94, Type (0, 0), BuildingBlock: OJICUG_clean_linker_0, # of connection points: 2
#     Edge 95, Type (0, 0), BuildingBlock: OJICUG_clean_linker_0, # of connection points: 2
#     Edge 96, Type (0, 0), BuildingBlock: OJICUG_clean_linker_0, # of connection points: 2
#     Edge 97, Type (0, 0), BuildingBlock: OJICUG_clean_linker_0, # of connection points: 2
#     Edge 98, Type (0, 0), BuildingBlock: OJICUG_clean_linker_0, # of connection points: 2
#     Edge 99, Type (0, 0), BuildingBlock: OJICUG_clean_linker_0, # of connection points: 2
#     Edge 100, Type (0, 0), BuildingBlock: OJICUG_clean_linker_0, # of connection points: 2
#     Edge 101, Type (0, 0), BuildingBlock: OJICUG_clean_linker_0, # of connection points: 2
#     Edge 102, Type (0, 0), BuildingBlock: OJICUG_clean_linker_0, # of connection points: 2
#     Edge 103, Type (0, 0), BuildingBlock: OJICUG_clean_linker_0, # of connection points: 2
#     Edge 104, Type (0, 0), BuildingBlock: OJICUG_clean_linker_0, # of connection points: 2
#     Edge 105, Type (0, 0), BuildingBlock: OJICUG_clean_linker_0, # of connection points: 2
#     Edge 106, Type (0, 0), BuildingBlock: OJICUG_clean_linker_0, # of connection points: 2
#     Edge 107, Type (0, 0), BuildingBlock: OJICUG_clean_linker_0, # of connection points: 2
#     Edge 108, Type (0, 0), BuildingBlock: OJICUG_clean_linker_0, # of connection points: 2
#     Edge 109, Type (0, 0), BuildingBlock: OJICUG_clean_linker_0, # of connection points: 2
#     Edge 110, Type (0, 0), BuildingBlock: OJICUG_clean_linker_0, # of connection points: 2
#     Edge 111, Type (0, 0), BuildingBlock: OJICUG_clean_linker_0, # of connection points: 2
# Relax obj value: 0.308
# Max RMSD: 0.188
# Mean RMSD: 0.188
data_MOF--net-wgn--node1-XOMCOT_clean_sbu_1--edge1-OJICUG_clean_linker_0
_symmetry_space_group_name_H-M    P1
_symmetry_Int_Tables_number       1
_symmetry_cell_setting            triclinic
loop_
_symmetry_equiv_pos_as_xyz
'x, y, z'
_cell_length_a     22.93483
_cell_length_b     22.960047
_cell_length_c     101.66502
_cell_angle_alpha  90.044474
_cell_angle_beta   90.032186
_cell_angle_gamma 90.015623
loop_
_atom_site_label
_atom_site_type_symbol
_atom_site_fract_x
_atom_site_fract_y
_atom_site_fract_z
_atom_type_partial_charge
C0 C 0.17451 0.11999 0.32048 0.0
C1 C 0.17765 0.13894 0.3076 0.0
N2 N 0.20152 0.19248 0.30749 0.0
N3 N 0.19802 0.16025 0.32863 0.0
C4 C 0.2111 0.20494 0.32032 0.0
H5 H 0.15549 0.07927 0.32362 0.0
Co6 Co 0.20448 0.15599 0.34764 0.0
C7 C 0.21871 0.28408 0.35579 0.0
O8 O 0.24597 0.26985 0.36667 0.0
N9 N 0.20699 0.15152 0.3664 0.0
C10 C 0.17161 0.13045 0.3863 0.0
C11 C 0.15811 0.13935 0.37323 0.0
C12 C 0.24974 0.15058 0.37572 0.0
N13 N 0.22955 0.13695 0.38787 0.0
O14 O 0.20609 0.06768 0.34727 0.0
H15 H 0.11545 0.1345 0.36882 0.0
H16 H 0.29507 0.15963 0.37378 0.0
O17 O 0.19898 0.24356 0.34826 0.0
C18 C 0.23213 0.02831 0.34041 0.0
O19 O 0.26645 0.04438 0.33072 0.0
N20 N 0.28792 0.15948 0.34663 0.0
C21 C 0.40834 0.17123 0.34558 0.0
C22 C 0.37239 0.21394 0.34038 0.0
C23 C 0.31301 0.20756 0.34111 0.0
C24 C 0.32321 0.11653 0.35165 0.0
C25 C 0.38398 0.12192 0.35138 0.0
H26 H 0.28858 0.24362 0.33759 0.0
H27 H 0.30493 0.07948 0.35669 0.0
H28 H 0.22433 0.24759 0.32345 0.0
H29 H 0.16374 0.11483 0.299 0.0
H30 H 0.14142 0.11699 0.39389 0.0
H31 H 0.39019 0.25353 0.33616 0.0
H32 H 0.41128 0.08878 0.35579 0.0
C33 C 0.13628 0.97228 0.5699 0.0
C34 C 0.11481 0.974 0.55721 0.0
N35 N 0.05991 0.99507 0.55747 0.0
N36 N 0.09559 0.99265 0.5783 0.0
C37 C 0.04896 0.00461 0.57041 0.0
H38 H 0.17966 0.95878 0.57274 0.0
Co39 Co 0.10473 0.00491 0.59694 0.0
C40 C 0.97651 1.00234 0.6071 0.0
O41 O 0.99027 0.01572 0.61927 0.0
N42 N 0.11444 0.011 0.61552 0.0
C43 C 0.11793 0.97515 0.63587 0.0
C44 C 0.10211 0.96436 0.62306 0.0
C45 C 0.14018 0.04911 0.62402 0.0
N46 N 0.14199 0.02858 0.63657 0.0
O47 O 0.19183 0.01384 0.59521 0.0
H48 H 0.08355 0.92425 0.61935 0.0
H49 H 0.15761 0.09085 0.6211 0.0
O50 O 0.01712 0.99514 0.59852 0.0
C51 C 0.22695 0.05738 0.59641 0.0
O52 O 0.20604 0.10958 0.59873 0.0
N53 N 0.09248 0.08652 0.59477 0.0
C54 C 0.00488 0.15068 0.5836 0.0
C55 C 0.05601 0.13976 0.57642 0.0
C56 C 0.10144 0.10983 0.58256 0.0
C57 C 0.05281 0.11242 0.60282 0.0
C58 C 0.00746 0.14409 0.59734 0.0
H59 H 0.13744 0.09503 0.57656 0.0
H60 H 0.04974 0.10119 0.61306 0.0
H61 H 0.00847 0.02255 0.57405 0.0
H62 H 0.13899 0.96289 0.54843 0.0
H63 H 0.11414 0.94477 0.64396 0.0
H64 H 0.0591 0.1482 0.56599 0.0
H65 H 0.9728 0.1589 0.60375 0.0
C66 C 0.3292 0.86709 0.82414 0.0
C67 C 0.33236 0.84789 0.81125 0.0
N68 N 0.29504 0.80307 0.80971 0.0
N69 N 0.28885 0.83593 0.83077 0.0
C70 C 0.27086 0.79584 0.82174 0.0
H71 H 0.35494 0.90181 0.82839 0.0
Co72 Co 0.26959 0.84326 0.84919 0.0
C73 C 0.24587 0.71724 0.85753 0.0
O74 O 0.2062 0.73411 0.86604 0.0
N75 N 0.25426 0.84961 0.86755 0.0
C76 C 0.27679 0.84195 0.88881 0.0
C77 C 0.29245 0.82687 0.87621 0.0
C78 C 0.21582 0.87937 0.87526 0.0
N79 N 0.22845 0.8753 0.88833 0.0
O80 O 0.2728 0.93092 0.84847 0.0
H81 H 0.33069 0.80214 0.87345 0.0
H82 H 0.18013 0.90474 0.87144 0.0
O83 O 0.27225 0.75572 0.85053 0.0
C84 C 0.26244 0.97188 0.84016 0.0
O85 O 0.24608 0.95827 0.82816 0.0
N86 N 0.18724 0.84421 0.84481 0.0
C87 C 0.08242 0.85201 0.83079 0.0
C88 C 0.11098 0.79869 0.8324 0.0
C89 C 0.16212 0.79565 0.8395 0.0
C90 C 0.15528 0.89477 0.84497 0.0
C91 C 0.10363 0.9001 0.83774 0.0
H92 H 0.18207 0.75375 0.83978 0.0
H93 H 0.16942 0.93242 0.85038 0.0
H94 H 0.24318 0.75944 0.82394 0.0
H95 H 0.35993 0.86589 0.80364 0.0
H96 H 0.30108 0.83115 0.8976 0.0
H97 H 0.094 0.7586 0.82827 0.0
H98 H 0.08071 0.94133 0.83762 0.0
C99 C 0.33544 0.06797 0.06816 0.0
C100 C 0.35636 0.07146 0.05547 0.0
N101 N 0.41484 0.07535 0.05588 0.0
N102 N 0.38017 0.06755 0.07684 0.0
C103 C 0.42742 0.07738 0.06893 0.0
H104 H 0.28998 0.06428 0.07061 0.0
Co105 Co 0.37842 0.04912 0.0958 0.0
C106 C 0.50547 0.02542 0.1017 0.0
O107 O 0.48798 0.97989 0.10846 0.0
N108 N 0.37578 0.0366 0.11473 0.0
C109 C 0.39771 0.04686 0.13607 0.0
C110 C 0.41357 0.06055 0.12339 0.0
C111 C 0.33478 0.01187 0.12274 0.0
N112 N 0.34795 0.01571 0.13577 0.0
O113 O 0.29099 0.03853 0.09561 0.0
H114 H 0.45017 0.08777 0.12076 0.0
H115 H 0.29452 0.99339 0.11916 0.0
O116 O 0.46692 0.05963 0.09657 0.0
C117 C 0.25482 1.00284 0.09021 0.0
O118 O 0.27398 0.96462 0.08161 0.0
N119 N 0.39085 0.96767 0.09217 0.0
C120 C 0.4371 0.85611 0.09018 0.0
C121 C 0.4559 0.90008 0.08186 0.0
C122 C 0.43268 0.95475 0.08305 0.0
C123 C 0.36659 0.92295 0.09922 0.0
C124 C 0.39007 0.86676 0.0986 0.0
H125 H 0.45626 0.987 0.07789 0.0
H126 H 0.33045 0.93003 0.10567 0.0
H127 H 0.47157 0.08038 0.07261 0.0
H128 H 0.33045 0.0673 0.04661 0.0
H129 H 0.42146 0.05941 0.14481 0.0
H130 H 0.49315 0.89457 0.07541 0.0
H131 H 0.37318 0.83285 0.10494 0.0
C132 C 0.18945 0.91934 0.24826 0.0
C133 C 0.187 0.89938 0.26103 0.0
N134 N 0.18654 0.84081 0.26088 0.0
N135 N 0.19269 0.87403 0.23977 0.0
C136 C 0.18598 0.82706 0.2479 0.0
H137 H 0.18973 0.96468 0.2456 0.0
Co138 Co 0.20851 0.8754 0.22071 0.0
C139 C 0.23543 0.74852 0.21497 0.0
O140 O 0.27803 0.76624 0.2073 0.0
N141 N 0.21864 0.8776 0.2017 0.0
C142 C 0.20861 0.85433 0.18042 0.0
C143 C 0.19579 0.8386 0.19317 0.0
C144 C 0.24129 0.9192 0.19356 0.0
N145 N 0.23789 0.90519 0.18057 0.0
O146 O 0.21492 0.96306 0.22069 0.0
H147 H 0.1703 0.80099 0.19595 0.0
H148 H 0.2579 0.96047 0.19701 0.0
O149 O 0.20185 0.78685 0.22036 0.0
C150 C 0.24972 1.00049 0.22593 0.0
O151 O 0.28973 0.98259 0.23425 0.0
N152 N 0.29095 0.86661 0.22378 0.0
C153 C 0.4065 0.83174 0.22644 0.0
C154 C 0.36345 0.80792 0.23435 0.0
C155 C 0.30677 0.82544 0.23281 0.0
C156 C 0.33386 0.89407 0.21673 0.0
C157 C 0.39207 0.8764 0.21771 0.0
H158 H 0.27605 0.7995 0.23793 0.0
H159 H 0.32417 0.92928 0.21021 0.0
H160 H 0.1849 0.78272 0.24442 0.0
H161 H 0.18863 0.92636 0.26976 0.0
H162 H 0.19699 0.82963 0.17175 0.0
H163 H 0.37238 0.77189 0.24095 0.0
H164 H 0.42499 0.89639 0.21155 0.0
C165 C 0.37138 0.98617 0.49932 0.0
C166 C 0.39154 0.99023 0.51212 0.0
N167 N 0.4316 0.03313 0.51276 0.0
N168 N 0.3969 0.02745 0.49184 0.0
C169 C 0.43462 0.05397 0.50031 0.0
H170 H 0.34067 0.95428 0.49566 0.0
Co171 Co 0.38935 0.03657 0.47315 0.0
C172 C 0.51771 0.05136 0.46418 0.0
O173 O 0.50343 0.07717 0.45312 0.0
N174 N 0.38285 0.04292 0.45465 0.0
C175 C 0.38928 0.01431 0.43376 0.0
C176 C 0.40532 1.00232 0.44652 0.0
C177 C 0.35166 0.07838 0.44656 0.0
N178 N 0.35522 0.06209 0.43375 0.0
O179 O 0.3021 0.03071 0.47377 0.0
H180 H 0.43091 0.96543 0.44975 0.0
H181 H 0.32568 0.1146 0.44993 0.0
O182 O 0.47725 0.03578 0.47221 0.0
C183 C 0.25989 0.03928 0.48186 0.0
O184 O 0.27151 0.05556 0.49396 0.0
N185 N 0.38515 0.1204 0.47531 0.0
C186 C 0.37586 0.22654 0.48841 0.0
C187 C 0.4305 0.20296 0.48529 0.0
C188 C 0.43415 0.1508 0.47859 0.0
C189 C 0.3326 0.14912 0.47584 0.0
C190 C 0.32661 0.20152 0.48273 0.0
H191 H 0.47709 0.13365 0.47745 0.0
H192 H 0.29414 0.13209 0.47121 0.0
H193 H 0.4658 0.08641 0.49741 0.0
H194 H 0.37914 0.96209 0.52018 0.0
H195 H 0.39984 0.98826 0.42521 0.0
H196 H 0.47077 0.22378 0.48826 0.0
H197 H 0.28419 0.22182 0.48367 0.0
C198 C 0.33453 0.10799 0.7493 0.0
C199 C 0.33096 0.12588 0.76226 0.0
N200 N 0.29267 0.17032 0.76309 0.0
N201 N 0.29766 0.13965 0.74183 0.0
C202 C 0.27433 0.1783 0.75054 0.0
H203 H 0.36253 0.0739 0.74555 0.0
Co204 Co 0.28838 0.13435 0.72305 0.0
C205 C 0.28625 0.26218 0.71396 0.0
O206 O 0.26953 0.24914 0.70197 0.0
N207 N 0.28179 0.12939 0.70447 0.0
C208 C 0.31422 0.12595 0.68382 0.0
C209 C 0.32923 0.13526 0.69677 0.0
C210 C 0.23828 0.11567 0.69589 0.0
N211 N 0.25687 0.11341 0.68319 0.0
O212 O 0.28829 0.04681 0.72351 0.0
H213 H 0.37249 0.14479 0.70043 0.0
H214 H 0.19388 0.10706 0.69881 0.0
O215 O 0.2953 0.22115 0.72231 0.0
C216 C 0.27346 0.00547 0.73134 0.0
O217 O 0.25005 0.01841 0.74277 0.0
N218 N 0.2045 0.13791 0.72508 0.0
C219 C 0.08911 0.14207 0.73383 0.0
C220 C 0.12278 0.19248 0.73301 0.0
C221 C 0.17921 0.18969 0.72849 0.0
C222 C 0.16962 0.08939 0.72426 0.0
C223 C 0.11192 0.09027 0.72878 0.0
H224 H 0.20199 0.23018 0.72865 0.0
H225 H 0.18514 0.04961 0.71992 0.0
H226 H 0.24659 0.21386 0.74774 0.0
H227 H 0.35497 0.10728 0.77039 0.0
H228 H 0.34397 0.12626 0.67556 0.0
H229 H 0.10561 0.23476 0.73577 0.0
H230 H 0.08558 0.05117 0.72827 0.0
C231 C 0.13482 0.08781 0.9986 0.0
C232 C 0.11498 0.08759 1.01145 0.0
N233 N 0.06368 0.05904 1.01188 0.0
N234 N 0.09762 0.05773 0.99084 0.0
C235 C 0.05337 0.04391 0.99921 0.0
H236 H 0.17451 0.10832 0.99522 0.0
Co237 Co 0.10491 0.04065 0.97227 0.0
C238 C 0.97955 0.02367 0.9632 0.0
O239 O 0.99625 0.98442 0.95458 0.0
N240 N 0.11166 0.02715 0.95382 0.0
C241 C 0.11339 0.05418 0.93277 0.0
C242 C 0.10136 0.07139 0.94545 0.0
C243 C 0.13018 0.98307 0.94586 0.0
N244 N 0.13181 0.9984 0.93292 0.0
O245 O 0.19273 0.03884 0.97328 0.0
H246 H 0.08729 0.11432 0.94847 0.0
H247 H 0.14268 0.94066 0.9494 0.0
O248 O 0.01795 0.0483 0.97055 0.0
C249 C 0.2334 0.02264 0.9812 0.0
O250 O 0.21935 1.00007 0.99264 0.0
N251 N 0.10014 0.95817 0.97608 0.0
C252 C 0.09678 0.84526 0.9866 0.0
C253 C 0.04735 0.88077 0.98653 0.0
C254 C 0.04986 0.93594 0.98125 0.0
C255 C 0.1476 0.9221 0.97506 0.0
C256 C 0.14736 0.86621 0.98051 0.0
H257 H 0.01016 0.95987 0.98172 0.0
H258 H 0.18635 0.93545 0.96992 0.0
H259 H 0.01266 0.02539 0.99609 0.0
H260 H 0.13735 0.10636 1.01981 0.0
H261 H 0.11071 0.08181 0.92419 0.0
H262 H 0.00555 0.86588 0.99016 0.0
H263 H 0.18618 0.83961 0.97976 0.0
C264 C 0.80486 0.90143 0.7479 0.0
C265 C 0.80411 0.88074 0.76066 0.0
N266 N 0.78263 0.82602 0.76064 0.0
N267 N 0.78354 0.86038 0.73971 0.0
C268 C 0.77191 0.81447 0.74778 0.0
H269 H 0.81845 0.94448 0.74487 0.0
Co270 Co 0.76993 0.86774 0.7211 0.0
C271 C 0.77469 0.73771 0.71163 0.0
O272 O 0.76177 0.74911 0.69932 0.0
N273 N 0.76207 0.87649 0.70254 0.0
C274 C 0.79294 0.88096 0.68178 0.0
C275 C 0.80614 0.86287 0.69434 0.0
C276 C 0.72336 0.90535 0.69472 0.0
N277 N 0.74071 0.90785 0.68194 0.0
O278 O 0.76038 0.9548 0.72246 0.0
H279 H 0.8463 0.84225 0.69741 0.0
H280 H 0.68357 0.92472 0.69838 0.0
O281 O 0.78059 0.77999 0.71986 0.0
C282 C 0.71682 0.99017 0.72275 0.0
O283 O 0.66338 0.96983 0.72269 0.0
N284 N 0.68843 0.85362 0.72351 0.0
C285 C 0.62187 0.76534 0.73397 0.0
C286 C 0.63403 0.81511 0.74153 0.0
C287 C 0.66512 0.86074 0.73578 0.0
C288 C 0.66291 0.81456 0.71521 0.0
C289 C 0.62978 0.76937 0.72029 0.0
H290 H 0.67997 0.8957 0.74209 0.0
H291 H 0.67515 0.81171 0.70502 0.0
H292 H 0.75283 0.77427 0.74433 0.0
H293 H 0.81622 0.9053 0.76933 0.0
H294 H 0.82103 0.87664 0.67329 0.0
H295 H 0.6252 0.81717 0.75196 0.0
H296 H 0.61467 0.7359 0.71361 0.0
C297 C 0.86412 0.10371 0.49767 0.0
C298 C 0.88091 0.0988 0.51069 0.0
N299 N 0.92542 0.06055 0.51153 0.0
N300 N 0.8966 0.06793 0.49012 0.0
C301 C 0.93429 0.04341 0.4989 0.0
H302 H 0.83044 0.13222 0.49393 0.0
Co303 Co 0.89242 0.06336 0.47116 0.0
C304 C 0.02096 0.0683 0.4625 0.0
O305 O 0.00956 0.05876 0.45002 0.0
N306 N 0.88809 0.06103 0.45236 0.0
C307 C 0.87098 0.09469 0.43212 0.0
C308 C 0.87942 0.10952 0.44515 0.0
C309 C 0.88517 0.01714 0.44334 0.0
N310 N 0.87403 0.03631 0.43097 0.0
O311 O 0.80482 0.06017 0.47153 0.0
H312 H 0.87705 0.15298 0.44923 0.0
H313 H 0.89072 0.97167 0.44566 0.0
O314 O 0.97881 0.07282 0.47073 0.0
C315 C 0.76477 0.04061 0.47919 0.0
O316 O 0.77971 0.01329 0.49003 0.0
N317 N 0.89906 0.97981 0.47177 0.0
C318 C 0.91409 0.85977 0.47199 0.0
C319 C 0.96015 0.89648 0.47499 0.0
C320 C 0.95198 0.95566 0.47478 0.0
C321 C 0.85347 0.94357 0.46854 0.0
C322 C 0.86007 0.88298 0.46862 0.0
H323 H 0.98976 0.9805 0.47724 0.0
H324 H 0.81268 0.96051 0.46499 0.0
H325 H 0.96964 0.01553 0.49614 0.0
H326 H 0.86177 0.12237 0.51882 0.0
H327 H 0.86032 0.12451 0.42423 0.0
H328 H 1.00283 0.87932 0.4775 0.0
H329 H 0.824 0.85494 0.46593 0.0
C330 C 0.74912 0.09939 0.25265 0.0
C331 C 0.75886 0.12114 0.26511 0.0
N332 N 0.77301 0.17811 0.26423 0.0
N333 N 0.75761 0.14184 0.2437 0.0
C334 C 0.77051 0.18966 0.25113 0.0
H335 H 0.73827 0.05476 0.2503 0.0
Co336 Co 0.75575 0.13325 0.22484 0.0
C337 C 0.74403 0.26134 0.21503 0.0
O338 O 0.75059 0.24786 0.20257 0.0
N339 N 0.74816 0.12329 0.20638 0.0
C340 C 0.70364 0.12029 0.18692 0.0
C341 C 0.69854 0.13631 0.19992 0.0
C342 C 0.78163 0.09626 0.19718 0.0
N343 N 0.75622 0.09532 0.18512 0.0
O344 O 0.76789 0.04632 0.22604 0.0
H345 H 0.66077 0.15618 0.20444 0.0
H346 H 0.82433 0.07858 0.19926 0.0
O347 O 0.74252 0.2206 0.22373 0.0
C348 C 0.81125 0.01125 0.22455 0.0
O349 O 0.86343 0.03231 0.22224 0.0
N350 N 0.8379 0.14887 0.22367 0.0
C351 C 0.90246 0.24484 0.23078 0.0
C352 C 0.89991 0.19605 0.23917 0.0
C353 C 0.86989 0.14644 0.23499 0.0
C354 C 0.85598 0.18639 0.21412 0.0
C355 C 0.88793 0.23538 0.21751 0.0
H356 H 0.8629 0.11172 0.24199 0.0
H357 H 0.83848 0.18523 0.20433 0.0
H358 H 0.78047 0.23167 0.24691 0.0
H359 H 0.75739 0.09582 0.27406 0.0
H360 H 0.67042 0.12556 0.17945 0.0
H361 H 0.91629 0.19658 0.24912 0.0
H362 H 0.89678 0.26672 0.20986 0.0
C363 C 0.63976 0.98348 1.0 0.0
C364 C 0.61895 0.99044 1.01266 0.0
N365 N 0.56378 0.01106 1.01217 0.0
N366 N 0.59849 1.00001 0.99133 0.0
C367 C 0.55233 0.01492 0.99909 0.0
H368 H 0.68321 0.96954 0.99734 0.0
Co369 Co 0.60552 0.00806 0.97247 0.0
C370 C 0.47572 0.00373 0.96331 0.0
O371 O 0.48706 0.01118 0.95077 0.0
N372 N 0.6127 0.01124 0.9538 0.0
C373 C 0.61585 0.974 0.93356 0.0
C374 C 0.60175 0.96349 0.94649 0.0
C375 C 0.6355 0.04987 0.94502 0.0
N376 N 0.63715 0.02854 0.93253 0.0
O377 O 0.69299 0.01384 0.97342 0.0
H378 H 0.58544 0.9229 0.95044 0.0
H379 H 0.6509 0.09268 0.94774 0.0
O380 O 0.51795 1.00029 0.97159 0.0
C381 C 0.72971 0.05539 0.97148 0.0
O382 O 0.71087 0.10822 0.96901 0.0
N383 N 0.59596 0.09035 0.97399 0.0
C384 C 0.5121 0.15572 0.9862 0.0
C385 C 0.56583 0.14646 0.99251 0.0
C386 C 0.60915 0.11569 0.9858 0.0
C387 C 0.55335 0.1148 0.96649 0.0
C388 C 0.50989 0.14713 0.97251 0.0
H389 H 0.6469 0.10149 0.99131 0.0
H390 H 0.54607 0.10111 0.95649 0.0
H391 H 0.51225 0.03212 0.99514 0.0
H392 H 0.64395 0.98274 1.02151 0.0
H393 H 0.61266 0.94273 0.92562 0.0
H394 H 0.57255 0.15634 1.00279 0.0
H395 H 0.47288 0.16053 0.96664 0.0
C396 C 0.82458 0.11857 0.81956 0.0
C397 C 0.82364 0.13745 0.80664 0.0
N398 N 0.78931 0.18493 0.80586 0.0
N399 N 0.7896 0.15259 0.827 0.0
C400 C 0.77126 0.19406 0.81836 0.0
H401 H 0.8492 0.0819 0.82326 0.0
Co402 Co 0.77517 0.14633 0.84568 0.0
C403 C 0.75596 0.27216 0.85433 0.0
O404 O 0.71873 0.25532 0.86338 0.0
N405 N 0.76463 0.14115 0.86419 0.0
C406 C 0.79396 0.14808 0.88503 0.0
C407 C 0.80842 0.1584 0.87212 0.0
C408 C 0.72381 0.1197 0.87264 0.0
N409 N 0.74059 0.12355 0.88546 0.0
O410 O 0.77603 0.05831 0.84504 0.0
H411 H 0.84909 0.17661 0.86865 0.0
H412 H 0.68274 0.10134 0.86954 0.0
O413 O 0.78008 0.23371 0.84691 0.0
C414 C 0.76117 0.01745 0.83702 0.0
O415 O 0.7399 0.03129 0.82543 0.0
N416 N 0.69197 0.14745 0.84243 0.0
C417 C 0.58277 0.14178 0.83016 0.0
C418 C 0.61364 0.1942 0.83099 0.0
C419 C 0.66692 0.19621 0.83723 0.0
C420 C 0.65862 0.098 0.84337 0.0
C421 C 0.60473 0.09363 0.83698 0.0
H422 H 0.68803 0.23756 0.83707 0.0
H423 H 0.67326 0.06069 0.84885 0.0
H424 H 0.74764 0.23251 0.82114 0.0
H425 H 0.84613 0.11727 0.79847 0.0
H426 H 0.82183 0.15624 0.89342 0.0
H427 H 0.59675 0.23454 0.82699 0.0
H428 H 0.58063 0.05314 0.83746 0.0
C429 C 0.65253 0.07678 0.57023 0.0
C430 C 0.63304 0.08349 0.5575 0.0
N431 N 0.57476 0.08991 0.55768 0.0
N432 N 0.60695 0.07694 0.57867 0.0
C433 C 0.56092 0.09018 0.57066 0.0
H434 H 0.6975 0.07036 0.57284 0.0
Co435 Co 0.60587 0.05581 0.59736 0.0
C436 C 0.47881 0.03209 0.60241 0.0
O437 O 0.49562 0.98656 0.60926 0.0
N438 N 0.60578 0.04122 0.61619 0.0
C439 C 0.5813 0.0503 0.63742 0.0
C440 C 0.56763 0.06564 0.6247 0.0
C441 C 0.64497 0.01471 0.62435 0.0
N442 N 0.63003 0.01767 0.63728 0.0
O443 O 0.69306 0.04454 0.59766 0.0
H444 H 0.53224 0.09418 0.62193 0.0
H445 H 0.68533 0.99563 0.62098 0.0
O446 O 0.51772 0.06668 0.59759 0.0
C447 C 0.72922 0.00828 0.59249 0.0
O448 O 0.7102 0.96956 0.58398 0.0
N449 N 0.59236 0.97479 0.59306 0.0
C450 C 0.53482 0.86829 0.59209 0.0
C451 C 0.5224 0.91131 0.58293 0.0
C452 C 0.55191 0.96334 0.58348 0.0
C453 C 0.61201 0.92935 0.60056 0.0
C454 C 0.58293 0.87579 0.60043 0.0
H455 H 0.53362 0.99593 0.57743 0.0
H456 H 0.6482 0.93432 0.60711 0.0
H457 H 0.51653 0.09366 0.57414 0.0
H458 H 0.65959 0.07949 0.54875 0.0
H459 H 0.55688 0.06266 0.64608 0.0
H460 H 0.4857 0.908 0.57626 0.0
H461 H 0.59631 0.8418 0.60717 0.0
C462 C 0.74271 0.89681 0.31874 0.0
C463 C 0.74722 0.87443 0.30617 0.0
N464 N 0.76503 0.8184 0.30685 0.0
N465 N 0.75824 0.85576 0.32753 0.0
C466 C 0.76945 0.80793 0.31997 0.0
H467 H 0.73169 0.94128 0.3212 0.0
Co468 Co 0.77055 0.86624 0.34619 0.0
C469 C 0.76823 0.73806 0.35665 0.0
O470 O 0.78446 0.75159 0.36865 0.0
N471 N 0.77753 0.87732 0.36473 0.0
C472 C 0.74497 0.88092 0.38538 0.0
C473 C 0.73317 0.86264 0.37277 0.0
C474 C 0.81503 0.907 0.37272 0.0
N475 N 0.79646 0.9091 0.38541 0.0
O476 O 0.77845 0.95291 0.34423 0.0
H477 H 0.69383 0.84087 0.36955 0.0
H478 H 0.85479 0.92724 0.36933 0.0
O479 O 0.76061 0.7787 0.3481 0.0
C480 C 0.82121 0.98918 0.34485 0.0
O481 O 0.87461 0.96992 0.34644 0.0
N482 N 0.85251 0.85468 0.34396 0.0
C483 C 0.91077 0.76405 0.33258 0.0
C484 C 0.90217 0.8155 0.32539 0.0
C485 C 0.87524 0.86248 0.33165 0.0
C486 C 0.87815 0.81475 0.35196 0.0
C487 C 0.90653 0.76748 0.34636 0.0
H488 H 0.86129 0.89878 0.32566 0.0
H489 H 0.86831 0.8131 0.3623 0.0
H490 H 0.78454 0.76721 0.32405 0.0
H491 H 0.74042 0.89905 0.29724 0.0
H492 H 0.71648 0.87603 0.39379 0.0
H493 H 0.90932 0.81771 0.31489 0.0
H494 H 0.92019 0.73216 0.35271 0.0
C495 C 0.84621 0.97588 0.06922 0.0
C496 C 0.86719 0.98043 0.05655 0.0
N497 N 0.92277 0.99955 0.057 0.0
N498 N 0.88793 0.99247 0.0778 0.0
C499 C 0.93455 0.00539 0.07001 0.0
H500 H 0.80282 0.96207 0.07196 0.0
Co501 Co 0.88035 0.99556 0.09658 0.0
C502 C 0.0094 0.98837 0.10601 0.0
O503 O 0.99712 0.99806 0.11843 0.0
N504 N 0.87158 0.99213 0.11512 0.0
C505 C 0.87143 0.95051 0.1349 0.0
C506 C 0.88631 0.94386 0.12188 0.0
C507 C 0.84477 0.02642 0.12421 0.0
N508 N 0.84555 1.00276 0.13645 0.0
O509 O 0.79326 0.00712 0.09533 0.0
H510 H 0.90654 0.90589 0.11753 0.0
H511 H 0.82601 0.06839 0.12193 0.0
O512 O 0.96779 0.98359 0.09758 0.0
C513 C 0.75847 0.05083 0.0966 0.0
O514 O 0.77989 0.10286 0.0989 0.0
N515 N 0.89548 0.07773 0.09668 0.0
C516 C 0.98738 0.14725 0.08909 0.0
C517 C 0.93898 0.1399 0.0807 0.0
C518 C 0.89141 0.1073 0.08508 0.0
C519 C 0.93222 0.09915 0.10606 0.0
C520 C 0.97894 0.13386 0.10244 0.0
H521 H 0.85715 0.09709 0.07813 0.0
H522 H 0.93222 0.08307 0.11597 0.0
H523 H 0.97602 0.02033 0.0738 0.0
H524 H 0.84262 0.97183 0.04767 0.0
H525 H 0.87809 0.9185 0.14256 0.0
H526 H 0.93849 0.15462 0.07063 0.0
H527 H 0.00963 0.14589 0.11003 0.0
C528 C 0.69761 0.61381 0.81916 0.0
C529 C 0.69899 0.63415 0.80637 0.0
N530 N 0.72444 0.68718 0.80624 0.0
N531 N 0.72242 0.65336 0.82721 0.0
C532 C 0.73705 0.69804 0.81905 0.0
H533 H 0.681 0.57199 0.82231 0.0
Co534 Co 0.73659 0.64607 0.84577 0.0
C535 C 0.73654 0.77583 0.85507 0.0
O536 O 0.74633 0.76417 0.86752 0.0
N537 N 0.7454 0.63798 0.86433 0.0
C538 C 0.71456 0.63342 0.88508 0.0
C539 C 0.70067 0.65005 0.87246 0.0
C540 C 0.78547 0.61183 0.87227 0.0
N541 N 0.76814 0.60925 0.88505 0.0
O542 O 0.74195 0.55865 0.84457 0.0
H543 H 0.65964 0.6686 0.8693 0.0
H544 H 0.82635 0.59455 0.86873 0.0
O545 O 0.73013 0.73378 0.84683 0.0
C546 C 0.78416 0.52184 0.84539 0.0
O547 O 0.83798 0.54053 0.84655 0.0
N548 N 0.8181 0.65626 0.84298 0.0
C549 C 0.8959 0.73351 0.83191 0.0
C550 C 0.87816 0.68414 0.82482 0.0
C551 C 0.8411 0.64402 0.83087 0.0
C552 C 0.84599 0.69538 0.85086 0.0
C553 C 0.88494 0.73472 0.84549 0.0
H554 H 0.82304 0.60931 0.82493 0.0
H555 H 0.8325 0.70278 0.86085 0.0
H556 H 0.75931 0.73672 0.82241 0.0
H557 H 0.68421 0.61042 0.7978 0.0
H558 H 0.68604 0.6368 0.89352 0.0
H559 H 0.88835 0.67869 0.81451 0.0
H560 H 0.90287 0.76815 0.85183 0.0
C561 C 0.67883 0.44559 0.07003 0.0
C562 C 0.65896 0.44418 0.05723 0.0
N563 N 0.60033 0.44315 0.05735 0.0
N564 N 0.6334 0.44769 0.0785 0.0
C565 C 0.58652 0.44107 0.07031 0.0
H566 H 0.72421 0.44606 0.07271 0.0
Co567 Co 0.63454 0.4627 0.09762 0.0
C568 C 0.50677 0.48639 0.10329 0.0
O569 O 0.52331 0.52892 0.11112 0.0
N570 N 0.63666 0.47219 0.11667 0.0
C571 C 0.61331 0.46107 0.13791 0.0
C572 C 0.59801 0.44831 0.12512 0.0
C573 C 0.6777 0.49551 0.1249 0.0
N574 N 0.66359 0.49143 0.13788 0.0
O575 O 0.72206 0.47108 0.0976 0.0
H576 H 0.56093 0.42217 0.12226 0.0
H577 H 0.71865 0.51316 0.12152 0.0
O578 O 0.54607 0.45394 0.09791 0.0
C579 C 0.75853 0.50676 0.09233 0.0
O580 O 0.73939 0.54671 0.08415 0.0
N581 N 0.62392 0.54492 0.09476 0.0
C582 C 0.58701 0.65972 0.09219 0.0
C583 C 0.56379 0.61635 0.08427 0.0
C584 C 0.58226 0.5601 0.08577 0.0
C585 C 0.65066 0.58817 0.10186 0.0
C586 C 0.63195 0.64603 0.10093 0.0
H587 H 0.55657 0.52912 0.08068 0.0
H588 H 0.68612 0.57901 0.10837 0.0
H589 H 0.54213 0.43906 0.07375 0.0
H590 H 0.68601 0.44699 0.04854 0.0
H591 H 0.58871 0.44866 0.14653 0.0
H592 H 0.52743 0.62458 0.0777 0.0
H593 H 0.65137 0.67921 0.10712 0.0
C594 C 0.81996 0.41165 0.31918 0.0
C595 C 0.8242 0.39089 0.30648 0.0
N596 N 0.83391 0.33319 0.30692 0.0
N597 N 0.82526 0.36735 0.32787 0.0
C598 C 0.83863 0.32113 0.31994 0.0
H599 H 0.81115 0.45634 0.32161 0.0
Co600 Co 0.80785 0.36629 0.34679 0.0
C601 C 0.78793 0.23892 0.35208 0.0
O602 O 0.74284 0.25425 0.35927 0.0
N603 N 0.79635 0.36592 0.36573 0.0
C604 C 0.80842 0.3402 0.3868 0.0
C605 C 0.8232 0.32828 0.37396 0.0
C606 C 0.76904 0.40334 0.37417 0.0
N607 N 0.77367 0.38744 0.38702 0.0
O608 O 0.79618 0.45328 0.34718 0.0
H609 H 0.85274 0.2942 0.37091 0.0
H610 H 0.74819 0.44316 0.37105 0.0
O611 O 0.82042 0.27879 0.34697 0.0
C612 C 0.7594 0.49038 0.34259 0.0
O613 O 0.71763 0.47253 0.3347 0.0
N614 N 0.7262 0.3515 0.3432 0.0
C615 C 0.61849 0.29538 0.34255 0.0
C616 C 0.66162 0.28114 0.33354 0.0
C617 C 0.71418 0.30988 0.33392 0.0
C618 C 0.68121 0.37191 0.35075 0.0
C619 C 0.6271 0.34364 0.35078 0.0
H620 H 0.74673 0.29049 0.32799 0.0
H621 H 0.68674 0.40855 0.35714 0.0
H622 H 0.84519 0.27743 0.32361 0.0
H623 H 0.81593 0.41581 0.29764 0.0
H624 H 0.82251 0.3155 0.39527 0.0
H625 H 0.65757 0.24399 0.32702 0.0
H626 H 0.59329 0.35812 0.35746 0.0
C627 C 0.879 0.5433 0.56807 0.0
C628 C 0.90004 0.53773 0.55539 0.0
N629 N 0.94316 0.49785 0.55536 0.0
N630 N 0.90699 0.50578 0.5761 0.0
C631 C 0.94709 0.48033 0.56805 0.0
H632 H 0.84606 0.57389 0.57127 0.0
Co633 Co 0.89943 0.50063 0.59489 0.0
C634 C 0.02624 0.48117 0.60403 0.0
O635 O 0.01025 0.4577 0.61524 0.0
N636 N 0.89339 0.49909 0.61342 0.0
C637 C 0.89538 0.53734 0.63355 0.0
C638 C 0.91002 0.54565 0.62056 0.0
C639 C 0.8684 0.46287 0.62236 0.0
N640 N 0.86878 0.48525 0.63474 0.0
O641 O 0.81168 0.50847 0.59415 0.0
H642 H 0.92996 0.58426 0.61645 0.0
H643 H 0.84943 0.42132 0.61991 0.0
O644 O 0.98695 0.49831 0.59588 0.0
C645 C 0.77026 0.49414 0.58622 0.0
O646 O 0.78341 0.47037 0.57484 0.0
N647 N 0.89265 0.41683 0.5937 0.0
C648 C 0.87411 0.31039 0.5813 0.0
C649 C 0.93066 0.33247 0.58301 0.0
C650 C 0.93901 0.38481 0.58945 0.0
C651 C 0.83951 0.38956 0.59466 0.0
C652 C 0.82867 0.33713 0.58811 0.0
H653 H 0.98287 0.40057 0.58983 0.0
H654 H 0.80394 0.40868 0.60004 0.0
H655 H 0.98063 0.4513 0.57142 0.0
H656 H 0.8861 0.563 0.54697 0.0
H657 H 0.90157 0.56867 0.64138 0.0
H658 H 0.96872 0.31015 0.57923 0.0
H659 H 0.78538 0.31825 0.58825 0.0
C660 C 0.69004 0.39098 0.74756 0.0
C661 C 0.69215 0.36899 0.76019 0.0
N662 N 0.72521 0.32038 0.7602 0.0
N663 N 0.72291 0.35771 0.73955 0.0
C664 C 0.74175 0.31373 0.74749 0.0
H665 H 0.66586 0.42896 0.74442 0.0
Co666 Co 0.73132 0.3665 0.7209 0.0
C667 C 0.72546 0.23817 0.71128 0.0
O668 O 0.73867 0.25033 0.69904 0.0
N669 N 0.73366 0.37554 0.70239 0.0
C670 C 0.70038 0.37643 0.68183 0.0
C671 C 0.68798 0.36185 0.69465 0.0
C672 C 0.77214 0.40162 0.69409 0.0
N673 N 0.75376 0.40104 0.68139 0.0
O674 O 0.744 0.45333 0.72194 0.0
H675 H 0.648 0.3423 0.69817 0.0
H676 H 0.8133 0.41969 0.69733 0.0
O677 O 0.71896 0.27945 0.71972 0.0
C678 C 0.75922 0.49487 0.72972 0.0
O679 O 0.77158 0.48332 0.74205 0.0
N680 N 0.81353 0.35201 0.72194 0.0
C681 C 0.89853 0.27402 0.72996 0.0
C682 C 0.88299 0.32129 0.73804 0.0
C683 C 0.84246 0.36188 0.73347 0.0
C684 C 0.83826 0.31534 0.71297 0.0
C685 C 0.88096 0.27619 0.71676 0.0
H686 H 0.82736 0.39432 0.7403 0.0
H687 H 0.82146 0.31073 0.70319 0.0
H688 H 0.76702 0.27714 0.74395 0.0
H689 H 0.67129 0.388 0.76872 0.0
H690 H 0.67154 0.37014 0.67353 0.0
H691 H 0.89761 0.32518 0.7481 0.0
H692 H 0.89694 0.24586 0.70946 0.0
C693 C 0.88264 0.42597 0.99574 0.0
C694 C 0.90359 0.4286 1.00848 0.0
N695 N 0.95435 0.45843 1.00853 0.0
N696 N 0.91959 0.45426 0.98767 0.0
C697 C 0.96322 0.4726 0.99575 0.0
H698 H 0.8424 0.4056 0.99263 0.0
Co699 Co 0.9118 0.46671 0.96915 0.0
C700 C 0.04305 0.46954 0.96049 0.0
O701 O 0.03402 0.47853 0.9479 0.0
N702 N 0.90375 0.47445 0.95054 0.0
C703 C 0.90326 0.4455 0.92961 0.0
C704 C 0.91909 0.43122 0.94227 0.0
C705 C 0.87667 0.5139 0.94261 0.0
N706 N 0.87652 0.4978 0.92974 0.0
O707 O 0.82408 0.4689 0.97041 0.0
H708 H 0.9397 0.39109 0.94534 0.0
H709 H 0.85763 0.55383 0.94622 0.0
O710 O 0.99935 0.46304 0.96825 0.0
C711 C 0.78536 0.50932 0.96955 0.0
O712 O 0.80159 0.56361 0.96788 0.0
N713 N 0.91932 0.54843 0.97168 0.0
C714 C 0.98497 0.63955 0.98163 0.0
C715 C 0.93837 0.61674 0.98895 0.0
C716 C 0.9041 0.57276 0.98347 0.0
C717 C 0.95668 0.57765 0.9636 0.0
C718 C 0.98933 0.62374 0.96834 0.0
H719 H 0.87127 0.55252 0.98958 0.0
H720 H 0.96726 0.56174 0.95395 0.0
H721 H 0.9998 0.49806 0.99234 0.0
H722 H 0.88193 0.41115 1.01707 0.0
H723 H 0.90938 0.41819 0.92104 0.0
H724 H 0.93063 0.62909 0.99906 0.0
H725 H 0.02035 0.64395 0.96175 0.0
C726 C 0.82237 0.58883 0.2509 0.0
C727 C 0.82515 0.60962 0.26362 0.0
N728 N 0.82741 0.66811 0.26326 0.0
N729 N 0.82059 0.63364 0.24226 0.0
C730 C 0.82907 0.6809 0.25023 0.0
H731 H 0.82049 0.54335 0.24838 0.0
Co732 Co 0.80337 0.63185 0.22325 0.0
C733 C 0.78237 0.75966 0.21742 0.0
O734 O 0.73684 0.7436 0.21044 0.0
N735 N 0.7918 0.62919 0.20425 0.0
C736 C 0.80315 0.65115 0.18295 0.0
C737 C 0.81635 0.66684 0.19568 0.0
C738 C 0.76709 0.58846 0.19614 0.0
N739 N 0.77164 0.60163 0.18312 0.0
O740 O 0.79181 0.54455 0.22348 0.0
H741 H 0.84373 0.70321 0.1984 0.0
H742 H 0.74815 0.54836 0.19965 0.0
O743 O 0.81533 0.72009 0.22254 0.0
C744 C 0.75653 0.50879 0.22913 0.0
O745 O 0.71904 0.52852 0.23782 0.0
N746 N 0.72175 0.64517 0.22657 0.0
C747 C 0.60924 0.6897 0.22831 0.0
C748 C 0.65304 0.71041 0.23647 0.0
C749 C 0.70818 0.68789 0.23544 0.0
C750 C 0.67743 0.61967 0.2196 0.0
C751 C 0.62078 0.64219 0.22009 0.0
H752 H 0.74018 0.71211 0.24057 0.0
H753 H 0.68512 0.58296 0.21335 0.0
H754 H 0.83172 0.72509 0.24661 0.0
H755 H 0.82199 0.58352 0.27245 0.0
H756 H 0.81636 0.67484 0.17426 0.0
H757 H 0.64666 0.74807 0.24275 0.0
H758 H 0.58706 0.62391 0.21387 0.0
C759 C 0.65229 0.54848 0.49901 0.0
C760 C 0.6305 0.54631 0.51165 0.0
N761 N 0.57523 0.52616 0.51126 0.0
N762 N 0.6115 0.52924 0.49049 0.0
C763 C 0.56444 0.51772 0.49827 0.0
H764 H 0.69608 0.56111 0.4963 0.0
Co765 Co 0.62145 0.51606 0.4719 0.0
C766 C 0.49352 0.51897 0.46143 0.0
O767 O 0.50738 0.50456 0.44934 0.0
N768 N 0.63215 0.50874 0.45337 0.0
C769 C 0.63838 0.54303 0.4329 0.0
C770 C 0.62061 0.55469 0.44555 0.0
C771 C 0.65913 0.47008 0.4452 0.0
N772 N 0.66286 0.48972 0.4326 0.0
O773 O 0.70818 0.50751 0.47388 0.0
H774 H 0.60153 0.59504 0.44896 0.0
H775 H 0.67627 0.42866 0.44842 0.0
O776 O 0.53401 0.52606 0.47006 0.0
C777 C 0.74379 0.46431 0.473 0.0
O778 O 0.72365 0.4116 0.47092 0.0
N779 N 0.60922 0.43448 0.47429 0.0
C780 C 0.52074 0.373 0.48575 0.0
C781 C 0.57221 0.38312 0.49286 0.0
C782 C 0.61806 0.41184 0.48658 0.0
C783 C 0.56912 0.40852 0.46635 0.0
C784 C 0.5231 0.37833 0.47199 0.0
H785 H 0.65424 0.4267 0.49253 0.0
H786 H 0.56618 0.41914 0.45607 0.0
H787 H 0.52387 0.50046 0.49449 0.0
H788 H 0.65482 0.55624 0.5205 0.0
H789 H 0.63562 0.57277 0.42467 0.0
H790 H 0.575 0.3756 0.50334 0.0
H791 H 0.48761 0.36419 0.46572 0.0
C792 C 0.29583 0.40455 0.24976 0.0
C793 C 0.29253 0.38446 0.26253 0.0
N794 N 0.26224 0.33415 0.26261 0.0
N795 N 0.266 0.36864 0.24166 0.0
C796 C 0.24864 0.32483 0.24981 0.0
H797 H 0.3192 0.44298 0.24661 0.0
Co798 Co 0.25851 0.37534 0.22281 0.0
C799 C 0.23765 0.25002 0.21386 0.0
O800 O 0.20567 0.26769 0.20391 0.0
N801 N 0.25551 0.38065 0.20422 0.0
C802 C 0.29475 0.37737 0.18418 0.0
C803 C 0.30421 0.36812 0.19737 0.0
C804 C 0.21666 0.39756 0.19484 0.0
N805 N 0.23963 0.3962 0.18253 0.0
O806 O 0.26159 0.46357 0.22359 0.0
H807 H 0.34472 0.35409 0.2018 0.0
H808 H 0.17232 0.41034 0.19681 0.0
O809 O 0.26012 0.288 0.22165 0.0
C810 C 0.23999 0.50335 0.23111 0.0
O811 O 0.21013 0.48788 0.24157 0.0
N812 N 0.1748 0.37739 0.22434 0.0
C813 C 0.06188 0.39072 0.23413 0.0
C814 C 0.0915 0.33759 0.23522 0.0
C815 C 0.14681 0.33161 0.23008 0.0
C816 C 0.14329 0.42669 0.22155 0.0
C817 C 0.08716 0.43478 0.22659 0.0
H818 H 0.16672 0.28989 0.23125 0.0
H819 H 0.16163 0.46147 0.21577 0.0
H820 H 0.2293 0.28482 0.24646 0.0
H821 H 0.31122 0.40561 0.27106 0.0
H822 H 0.32688 0.37266 0.17646 0.0
H823 H 0.07187 0.29985 0.23983 0.0
H824 H 0.0639 0.47488 0.2246 0.0
C825 C 0.38828 0.54593 1.00001 0.0
C826 C 0.40946 0.54209 1.01273 0.0
N827 N 0.45515 0.50513 1.01288 0.0
N828 N 0.41875 0.51009 0.99204 0.0
C829 C 0.46061 0.48805 1.00017 0.0
H830 H 0.35305 0.57379 0.99679 0.0
Co831 Co 0.40997 0.49916 0.97327 0.0
C832 C 0.53449 0.47245 0.96426 0.0
O833 O 0.51603 0.43638 0.95512 0.0
N834 N 0.403 0.49138 0.95479 0.0
C835 C 0.40762 0.52168 0.93401 0.0
C836 C 0.42192 0.53431 0.94684 0.0
C837 C 0.37696 0.45292 0.94647 0.0
N838 N 0.37898 0.47041 0.93371 0.0
O839 O 0.32245 0.50729 0.97401 0.0
H840 H 0.44354 0.57337 0.95026 0.0
H841 H 0.35637 0.41312 0.9496 0.0
O842 O 0.49726 0.49744 0.97183 0.0
C843 C 0.27956 0.49612 0.98176 0.0
O844 O 0.29031 0.47508 0.99353 0.0
N845 N 0.40328 0.41598 0.97594 0.0
C846 C 0.38431 0.31378 0.99015 0.0
C847 C 0.44078 0.336 0.98833 0.0
C848 C 0.44931 0.3859 0.98101 0.0
C849 C 0.35011 0.38854 0.97543 0.0
C850 C 0.33912 0.33843 0.98283 0.0
H851 H 0.49311 0.40158 0.98049 0.0
H852 H 0.31459 0.40582 0.96974 0.0
H853 H 0.49608 0.46138 0.99685 0.0
H854 H 0.39313 0.56607 1.02112 0.0
H855 H 0.41571 0.54955 0.92563 0.0
H856 H 0.47887 0.31548 0.99257 0.0
H857 H 0.29587 0.31949 0.98287 0.0
C858 C 0.20646 0.61056 0.74791 0.0
C859 C 0.20452 0.62951 0.76081 0.0
N860 N 0.24465 0.67182 0.76245 0.0
N861 N 0.24867 0.63932 0.74133 0.0
C862 C 0.26967 0.67754 0.75045 0.0
H863 H 0.17824 0.57806 0.74356 0.0
Co864 Co 0.26438 0.63283 0.72279 0.0
C865 C 0.28212 0.76117 0.71451 0.0
O866 O 0.31338 0.74753 0.70413 0.0
N867 N 0.27647 0.62713 0.70427 0.0
C868 C 0.25278 0.63677 0.68309 0.0
C869 C 0.23841 0.65161 0.6958 0.0
C870 C 0.31283 0.59582 0.69634 0.0
N871 N 0.29958 0.60138 0.68336 0.0
O872 O 0.2601 0.54567 0.7233 0.0
H873 H 0.20145 0.67778 0.69875 0.0
H874 H 0.34746 0.5683 0.6999 0.0
O875 O 0.26243 0.72036 0.72193 0.0
C876 C 0.27041 0.50458 0.73156 0.0
O877 O 0.28824 0.51778 0.74348 0.0
N878 N 0.34749 0.63086 0.72629 0.0
C879 C 0.45748 0.62429 0.73813 0.0
C880 C 0.42815 0.67742 0.73695 0.0
C881 C 0.37443 0.67988 0.73089 0.0
C882 C 0.3792 0.58009 0.72583 0.0
C883 C 0.43383 0.57558 0.73189 0.0
H884 H 0.35439 0.7218 0.73082 0.0
H885 H 0.36314 0.5419 0.72092 0.0
H886 H 0.30009 0.71178 0.7483 0.0
H887 H 0.1754 0.61334 0.76833 0.0
H888 H 0.22885 0.64911 0.67435 0.0
H889 H 0.44666 0.71777 0.74059 0.0
H890 H 0.45728 0.53465 0.73165 0.0
C891 C 0.16981 0.45726 0.49912 0.0
C892 C 0.15007 0.45118 0.51184 0.0
N893 N 0.09237 0.44074 0.51156 0.0
N894 N 0.12483 0.45244 0.49058 0.0
C895 C 0.07931 0.43741 0.49856 0.0
H896 H 0.21422 0.46703 0.49659 0.0
Co897 Co 0.12208 0.47174 0.47185 0.0
C898 C 0.9948 0.49383 0.46709 0.0
O899 O 0.01074 0.53882 0.45996 0.0
N900 N 0.11995 0.48429 0.453 0.0
C901 C 0.0922 0.47111 0.4321 0.0
C902 C 0.08183 0.45659 0.445 0.0
C903 C 0.15612 0.5119 0.44436 0.0
N904 N 0.1389 0.50652 0.43162 0.0
O905 O 0.2092 0.48332 0.47113 0.0
H906 H 0.04854 0.4266 0.44827 0.0
H907 H 0.19608 0.53341 0.44721 0.0
O908 O 0.03425 0.4602 0.472 0.0
C909 C 0.24583 0.52067 0.47572 0.0
O910 O 0.22747 0.56173 0.48371 0.0
N911 N 0.10802 0.55314 0.47588 0.0
C912 C 0.04755 0.65814 0.47653 0.0
C913 C 0.03769 0.61607 0.48607 0.0
C914 C 0.06863 0.56478 0.48567 0.0
C915 C 0.12554 0.59823 0.46801 0.0
C916 C 0.09488 0.65093 0.46796 0.0
H917 H 0.0524 0.53256 0.49213 0.0
H918 H 0.1612 0.59355 0.46133 0.0
H919 H 0.03537 0.43099 0.495 0.0
H920 H 0.1757 0.45875 0.52062 0.0
H921 H 0.06682 0.45657 0.42375 0.0
H922 H 1.00189 0.61934 0.49297 0.0
H923 H 0.10642 0.68438 0.46092 0.0
C924 C 0.29066 0.63299 0.31862 0.0
C925 C 0.28598 0.65352 0.30588 0.0
N926 N 0.24587 0.69643 0.30558 0.0
N927 N 0.25241 0.66106 0.32646 0.0
C928 C 0.22743 0.70078 0.31822 0.0
H929 H 0.32103 0.60018 0.32198 0.0
Co930 Co 0.24557 0.6531 0.34531 0.0
C931 C 0.22393 0.77993 0.35435 0.0
O932 O 0.1975 0.76376 0.36521 0.0
N933 N 0.24225 0.64662 0.36393 0.0
C934 C 0.27712 0.65235 0.38437 0.0
C935 C 0.28571 0.66801 0.37144 0.0
C936 C 0.20788 0.61733 0.37261 0.0
N937 N 0.2282 0.62005 0.38516 0.0
O938 O 0.25403 0.56558 0.34453 0.0
H939 H 0.32247 0.69227 0.36765 0.0
H940 H 0.16917 0.59366 0.36989 0.0
O941 O 0.24287 0.74075 0.34637 0.0
C942 C 0.2405 0.52409 0.33657 0.0
O943 O 0.21737 0.537 0.32511 0.0
N944 N 0.16186 0.64575 0.3437 0.0
C945 C 0.0573 0.62657 0.33048 0.0
C946 C 0.07897 0.6832 0.33234 0.0
C947 C 0.13025 0.69185 0.3392 0.0
C948 C 0.13469 0.59252 0.34445 0.0
C949 C 0.08324 0.5814 0.33751 0.0
H950 H 0.14582 0.73571 0.33966 0.0
H951 H 0.15336 0.55688 0.34985 0.0
H952 H 0.19793 0.73423 0.32142 0.0
H953 H 0.3119 0.63917 0.2976 0.0
H954 H 0.30619 0.66207 0.39247 0.0
H955 H 0.05729 0.72115 0.32837 0.0
H956 H 0.06454 0.53807 0.33751 0.0
C957 C 0.16695 0.54817 0.06665 0.0
C958 C 0.14706 0.54617 0.05382 0.0
N959 N 0.09462 0.51983 0.05369 0.0
N960 N 0.12847 0.52151 0.07472 0.0
C961 C 0.08367 0.50755 0.06647 0.0
H962 H 0.20713 0.56836 0.06983 0.0
Co963 Co 0.13453 0.51218 0.09359 0.0
C964 C 0.00969 0.49316 0.10263 0.0
O965 O 0.02824 0.45893 0.11209 0.0
N966 N 0.13968 0.50753 0.11219 0.0
C967 C 0.13724 0.54552 0.13236 0.0
C968 C 0.12886 0.55618 0.11919 0.0
C969 C 0.15482 0.4675 0.12146 0.0
N970 N 0.15381 0.48966 0.13384 0.0
O971 O 0.22272 0.51219 0.09297 0.0
H972 H 0.11647 0.59744 0.11489 0.0
H973 H 0.16581 0.42284 0.11936 0.0
O974 O 0.04705 0.51665 0.09482 0.0
C975 C 0.26298 0.48937 0.08579 0.0
O976 O 0.24825 0.45909 0.07533 0.0
N977 N 0.13318 0.42865 0.09163 0.0
C978 C 0.1374 0.31277 0.08315 0.0
C979 C 0.08764 0.3469 0.08122 0.0
C980 C 0.08612 0.40353 0.08569 0.0
C981 C 0.18026 0.39425 0.09465 0.0
C982 C 0.18361 0.33644 0.09036 0.0
H983 H 0.04618 0.42624 0.0841 0.0
H984 H 0.21628 0.41095 0.10031 0.0
H985 H 0.04204 0.49141 0.06971 0.0
H986 H 0.1699 0.56248 0.04527 0.0
H987 H 0.13336 0.57723 0.1402 0.0
H988 H 0.04853 0.32958 0.07669 0.0
H989 H 0.22149 0.31044 0.0928 0.0
C990 C 0.19252 0.37317 0.82204 0.0
C991 C 0.19514 0.35284 0.80924 0.0
N992 N 0.22377 0.30149 0.80913 0.0
N993 N 0.21959 0.33517 0.83009 0.0
C994 C 0.237 0.29145 0.82192 0.0
H995 H 0.17331 0.41384 0.8252 0.0
Co996 Co 0.23236 0.34255 0.84866 0.0
C997 C 0.23119 0.21305 0.85794 0.0
O998 O 0.23719 0.22488 0.87051 0.0
N999 N 0.24012 0.35032 0.8672 0.0
C1000 C 0.20831 0.35499 0.88788 0.0
C1001 C 0.19406 0.34073 0.87513 0.0
C1002 C 0.28147 0.37261 0.8754 0.0
N1003 N 0.26358 0.375 0.88813 0.0
O1004 O 0.23645 0.43018 0.84756 0.0
H1005 H 0.15213 0.32514 0.87175 0.0
H1006 H 0.3239 0.38683 0.8721 0.0
O1007 O 0.22695 0.25496 0.84962 0.0
C1008 C 0.27789 0.46743 0.84914 0.0
O1009 O 0.33134 0.44919 0.85119 0.0
N1010 N 0.31403 0.33373 0.8461 0.0
C1011 C 0.39393 0.26001 0.83457 0.0
C1012 C 0.37606 0.31064 0.82795 0.0
C1013 C 0.33783 0.34888 0.83425 0.0
C1014 C 0.34173 0.29333 0.85366 0.0
C1015 C 0.38204 0.25603 0.84808 0.0
H1016 H 0.31932 0.38419 0.82858 0.0
H1017 H 0.32706 0.28322 0.86345 0.0
H1018 H 0.26138 0.25402 0.82526 0.0
H1019 H 0.17896 0.37538 0.80064 0.0
H1020 H 0.1792 0.35256 0.89623 0.0
H1021 H 0.38668 0.31842 0.81775 0.0
H1022 H 0.40001 0.22182 0.85417 0.0
C1023 C 0.36746 0.42696 0.56971 0.0
C1024 C 0.38528 0.43215 0.55678 0.0
N1025 N 0.43689 0.46013 0.5565 0.0
N1026 N 0.40623 0.45319 0.5778 0.0
C1027 C 0.44923 0.4703 0.56935 0.0
H1028 H 0.32844 0.40483 0.57295 0.0
Co1029 Co 0.40149 0.45745 0.5969 0.0
C1030 C 0.52977 0.47081 0.60526 0.0
O1031 O 0.51582 0.49457 0.61657 0.0
N1032 N 0.39653 0.45827 0.61576 0.0
C1033 C 0.37429 0.4216 0.63548 0.0
C1034 C 0.38425 0.40898 0.62239 0.0
C1035 C 0.39462 0.5004 0.62523 0.0
N1036 N 0.38019 0.47944 0.63728 0.0
O1037 O 0.31325 0.45762 0.59644 0.0
H1038 H 0.37988 0.36661 0.61784 0.0
H1039 H 0.40327 0.54589 0.62344 0.0
O1040 O 0.48907 0.45328 0.5975 0.0
C1041 C 0.27394 0.48288 0.58942 0.0
O1042 O 0.29013 0.5167 0.57965 0.0
N1043 N 0.40322 0.5407 0.5964 0.0
C1044 C 0.41021 0.66119 0.59565 0.0
C1045 C 0.45534 0.62724 0.59077 0.0
C1046 C 0.45129 0.5677 0.59135 0.0
C1047 C 0.35855 0.57405 0.60135 0.0
C1048 C 0.36137 0.63482 0.60116 0.0
H1049 H 0.48874 0.54473 0.58802 0.0
H1050 H 0.32186 0.55428 0.60625 0.0
H1051 H 0.49075 0.4869 0.57244 0.0
H1052 H 0.36162 0.41646 0.54828 0.0
H1053 H 0.36044 0.39083 0.6429 0.0
H1054 H 0.49473 0.64681 0.58685 0.0
H1055 H 0.3266 0.66062 0.6054 0.0
C1056 C 0.49585 0.20624 0.357 0.0
C1057 C 0.47049 0.18363 0.34555 0.0
H1058 H 0.56296 0.26051 0.36502 0.0
C1059 C 0.49655 0.1936 0.33332 0.0
H1060 H 0.4752 0.19995 0.36648 0.0
C1061 C 0.54386 0.23082 0.33237 0.0
C1062 C 0.56746 0.25682 0.3437 0.0
H1063 H 0.47634 0.1777 0.32437 0.0
H1064 H 0.56017 0.24118 0.32265 0.0
C1065 C 0.54446 0.2425 0.3561 0.0
C1066 C 0.85403 0.20717 0.5826 0.0
C1067 C 0.86666 0.25433 0.57438 0.0
H1068 H 0.89157 0.13344 0.59208 0.0
C1069 C 0.90518 0.24435 0.56386 0.0
H1070 H 0.81981 0.21022 0.58991 0.0
C1071 C 0.95018 0.20434 0.56582 0.0
C1072 C 0.94984 0.17024 0.57731 0.0
H1073 H 0.91138 0.27771 0.55646 0.0
H1074 H 0.98796 0.20709 0.5595 0.0
C1075 C 0.89664 0.16457 0.58417 0.0
C1076 C 0.96817 0.77255 0.81559 0.0
C1077 C 0.92796 0.78248 0.82575 0.0
H1078 H 0.05088 0.79678 0.8078 0.0
C1079 C 0.9276 0.83763 0.83186 0.0
H1080 H 0.9682 0.7325 0.80998 0.0
C1081 C 0.97718 0.87244 0.8312 0.0
C1082 C 0.02529 0.85226 0.82404 0.0
H1083 H 0.89361 0.8496 0.83875 0.0
H1084 H 0.98132 0.90798 0.83814 0.0
C1085 C 0.01564 0.80996 0.81425 0.0
C1086 C 0.4972 0.78093 0.07935 0.0
C1087 C 0.47291 0.80343 0.09095 0.0
H1088 H 0.55802 0.72219 0.07082 0.0
C1089 C 0.49155 0.78213 0.10319 0.0
H1090 H 0.48354 0.79652 0.06977 0.0
C1091 C 0.5333 0.73806 0.10376 0.0
C1092 C 0.55727 0.71591 0.0921 0.0
H1093 H 0.47455 0.80001 0.11228 0.0
H1094 H 0.54493 0.71969 0.11322 0.0
C1095 C 0.54035 0.73912 0.07994 0.0
C1096 C 0.53257 0.7408 0.21538 0.0
C1097 C 0.55511 0.72336 0.2276 0.0
H1098 H 0.4676 0.79131 0.20541 0.0
C1099 C 0.53171 0.74649 0.23923 0.0
H1100 H 0.55104 0.7246 0.20628 0.0
C1101 C 0.48745 0.78721 0.23868 0.0
C1102 C 0.46343 0.80324 0.22654 0.0
H1103 H 0.54836 0.73374 0.24878 0.0
H1104 H 0.46983 0.80404 0.24782 0.0
C1105 C 0.48655 0.7804 0.21486 0.0
C1106 C 0.4118 0.36826 0.48566 0.0
C1107 C 0.46495 0.35727 0.4922 0.0
H1108 H 0.32947 0.33152 0.48058 0.0
C1109 C 0.46353 0.32277 0.50363 0.0
H1110 H 0.40908 0.39968 0.47776 0.0
C1111 C 0.41491 0.28747 0.50587 0.0
C1112 C 0.37378 0.28213 0.49566 0.0
H1113 H 0.5019 0.31606 0.50962 0.0
H1114 H 0.41886 0.25324 0.51315 0.0
C1115 C 0.36493 0.33071 0.48763 0.0
C1116 C 0.01544 0.18968 0.74777 0.0
C1117 C 0.02789 0.14874 0.73788 0.0
H1118 H 0.96802 0.26592 0.75247 0.0
C1119 C 0.98444 0.1348 0.72877 0.0
H1120 H 0.04729 0.19887 0.75538 0.0
C1121 C 0.93665 0.1717 0.72744 0.0
C1122 C 0.93391 0.22391 0.73479 0.0
H1123 H 0.99136 0.10128 0.72143 0.0
H1124 H 0.90568 0.16217 0.7197 0.0
C1125 C 0.96997 0.22893 0.74593 0.0
C1126 C 0.11327 0.73966 0.98272 0.0
C1127 C 0.08997 0.78376 0.99068 0.0
H1128 H 0.09964 0.65582 0.9744 0.0
C1129 C 0.04542 0.76914 0.99961 0.0
H1130 H 0.14972 0.74769 0.97622 0.0
C1131 C 0.01274 0.71889 0.99755 0.0
C1132 C 0.02804 0.68073 0.98732 0.0
H1133 H 0.02954 0.80081 1.00665 0.0
H1134 H 0.97265 0.71403 1.00302 0.0
C1135 C 0.08307 0.68753 0.98134 0.0
C1136 C 0.56191 0.61461 0.73457 0.0
C1137 C 0.51707 0.62498 0.74359 0.0
H1138 H 0.63393 0.65281 0.72457 0.0
C1139 C 0.52774 0.66487 0.75382 0.0
H1140 H 0.55788 0.58062 0.72723 0.0
C1141 C 0.56694 0.71018 0.75153 0.0
C1142 C 0.59977 0.71027 0.73984 0.0
H1143 H 0.49589 0.6704 0.76159 0.0
H1144 H 0.5651 0.74758 0.75797 0.0
C1145 C 0.60389 0.65763 0.73271 0.0
C1146 C 0.98818 0.72505 0.46251 0.0
C1147 C 0.00514 0.70585 0.47507 0.0
H1148 H 0.94117 0.78957 0.4516 0.0
C1149 C 0.97843 0.73 0.48625 0.0
H1150 H 0.00651 0.70582 0.45371 0.0
C1151 C 0.93839 0.77481 0.48496 0.0
C1152 C 0.92628 0.79781 0.47253 0.0
H1153 H 0.99061 0.71652 0.49608 0.0
H1154 H 0.92241 0.79621 0.49376 0.0
C1155 C 0.94912 0.77119 0.46125 0.0
C1156 C 0.9199 0.35207 0.22677 0.0
C1157 C 0.92206 0.30363 0.23534 0.0
H1158 H 0.9655 0.42766 0.22032 0.0
C1159 C 0.94872 0.3121 0.2477 0.0
H1160 H 0.89317 0.35254 0.21803 0.0
C1161 C 0.98594 0.35949 0.24951 0.0
C1162 C 1.0006 0.39323 0.23847 0.0
H1163 H 0.94684 0.28005 0.25544 0.0
H1164 H 0.01393 0.35966 0.2581 0.0
C1165 C 0.95942 0.39748 0.22839 0.0
C1166 C 0.4624 0.20869 1.0049 0.0
C1167 C 0.45896 0.17487 0.99336 0.0
H1168 H 0.42592 0.28157 1.0149 0.0
C1169 C 0.4037 0.16867 0.98739 0.0
H1170 H 0.50182 0.21145 1.01069 0.0
C1171 C 0.36138 0.21097 0.98966 0.0
C1172 C 0.3768 0.25866 0.99751 0.0
H1173 H 0.39617 0.13726 0.97962 0.0
H1174 H 0.32482 0.21349 0.98294 0.0
C1175 C 0.41772 0.24836 1.00755 0.0
C1176 C 0.51066 0.18617 0.81509 0.0
C1177 C 0.52331 0.14302 0.8245 0.0
H1178 H 0.46185 0.26352 0.81182 0.0
C1179 C 0.47746 0.12211 0.83226 0.0
H1180 H 0.54367 0.19968 0.8081 0.0
C1181 C 0.42797 0.15645 0.83377 0.0
C1182 C 0.4263 0.21222 0.82797 0.0
H1183 H 0.48348 0.08579 0.83891 0.0
H1184 H 0.39567 0.14306 0.84093 0.0
C1185 C 0.46363 0.22326 0.81731 0.0
C1186 C 0.47968 0.79714 0.60589 0.0
C1187 C 0.49423 0.81904 0.59341 0.0
H1188 H 0.4368 0.7289 0.61649 0.0
C1189 C 0.46685 0.79594 0.58219 0.0
H1190 H 0.49845 0.81554 0.61474 0.0
C1191 C 0.42868 0.74952 0.58332 0.0
C1192 C 0.41961 0.72365 0.5956 0.0
H1193 H 0.47716 0.8115 0.57241 0.0
H1194 H 0.41222 0.72914 0.57444 0.0
C1195 C 0.44266 0.74929 0.60697 0.0
C1196 C 0.99392 0.65678 0.31253 0.0
C1197 C 1.00206 0.61862 0.3232 0.0
H1198 H 0.96249 0.74196 0.30811 0.0
C1199 C 0.95395 0.60913 0.33137 0.0
H1200 H 0.02725 0.66013 0.30502 0.0
C1201 C 0.91528 0.6552 0.33315 0.0
C1202 C 0.92468 0.70756 0.3262 0.0
H1203 H 0.95468 0.57479 0.33867 0.0
H1204 H 0.88478 0.65297 0.34124 0.0
C1205 C 0.95741 0.70474 0.31451 0.0
C1206 C 0.0515 0.19541 0.07186 0.0
C1207 C 0.04482 0.17013 0.0844 0.0
H1208 H 0.09696 0.25932 0.06065 0.0
C1209 C 0.09362 0.17142 0.09291 0.0
H1210 H 0.01899 0.19145 0.06425 0.0
C1211 C 0.13772 0.212 0.09086 0.0
C1212 C 0.13321 0.25004 0.08018 0.0
H1213 H 0.09549 0.14616 0.10185 0.0
H1214 H 0.16822 0.22028 0.09878 0.0
C1215 C 0.09778 0.23337 0.06955 0.0
C1216 C 0.18741 0.22146 0.28404 0.0
C1217 C 0.21611 0.22848 0.29618 0.0
H1218 H 0.17832 0.24957 0.26407 0.0
C1219 C 0.26056 0.27073 0.297 0.0
H1220 H 0.15264 0.18993 0.283 0.0
C1221 C 0.27584 0.30479 0.28607 0.0
C1222 C 0.24713 0.298 0.2739 0.0
H1223 H 0.28455 0.27691 0.30606 0.0
H1224 H 0.31079 0.33601 0.28718 0.0
C1225 C 0.20248 0.25579 0.2731 0.0
C1226 C 0.99955 0.99762 0.52278 0.0
C1227 C 0.95801 0.04299 0.52328 0.0
H1228 H 0.06325 0.94662 0.53304 0.0
C1229 C 0.94936 0.07064 0.53556 0.0
H1230 H 0.00749 0.97392 0.51378 0.0
C1231 C 0.98145 0.05414 0.54678 0.0
C1232 C 0.02377 0.00975 0.54613 0.0
H1233 H 0.91832 0.10575 0.53658 0.0
H1234 H 0.974 0.07731 0.55588 0.0
C1235 C 0.03188 0.98157 0.53396 0.0
C1236 C 0.21704 0.70802 0.78479 0.0
C1237 C 0.25736 0.70512 0.77435 0.0
H1238 H 0.19665 0.74146 0.80393 0.0
C1239 C 0.31061 0.73525 0.77585 0.0
H1240 H 0.17526 0.6864 0.78406 0.0
C1241 C 0.32299 0.76713 0.78736 0.0
C1242 C 0.28269 0.76981 0.7978 0.0
H1243 H 0.34341 0.73365 0.76822 0.0
H1244 H 0.36463 0.78901 0.78812 0.0
C1245 C 0.22946 0.73976 0.79629 0.0
C1246 C 0.43818 0.07574 1.03186 0.0
C1247 C 0.45459 0.06398 0.04496 0.0
H1248 H 0.45864 0.069 1.01139 0.0
C1249 C 0.50831 0.03564 0.04702 0.0
H1250 H 0.39743 0.09768 1.0298 0.0
C1251 C 0.5437 0.0186 0.03638 0.0
C1252 C 0.52701 0.02938 1.02322 0.0
H1253 H 0.52234 0.02459 0.05686 0.0
H1254 H 0.58376 0.9959 0.03859 0.0
C1255 C 0.47367 0.05889 1.0212 0.0
C1256 C 0.22281 0.74706 0.2704 0.0
C1257 C 0.19682 0.80226 0.27207 0.0
H1258 H 0.2582 0.67059 0.27947 0.0
C1259 C 0.18556 0.82084 0.28505 0.0
H1260 H 0.233 0.73097 0.26066 0.0
C1261 C 0.20094 0.78628 0.29594 0.0
C1262 C 0.22825 0.73169 0.29429 0.0
H1263 H 0.16532 0.86264 0.28686 0.0
H1264 H 0.19247 0.80335 0.30567 0.0
C1265 C 0.23821 0.71248 0.28129 0.0
C1266 C 0.44676 0.03958 0.53705 0.0
C1267 C 0.4661 0.0509 0.52414 0.0
H1268 H 0.46511 0.04327 0.55772 0.0
C1269 C 0.52022 0.07932 0.52263 0.0
H1270 H 0.40518 0.0186 0.53872 0.0
C1271 C 0.55446 0.09425 0.5336 0.0
C1272 C 0.53586 0.0815 0.54649 0.0
H1273 H 0.53726 0.08869 0.51294 0.0
H1274 H 0.59621 0.11497 0.53196 0.0
C1275 C 0.48096 0.05469 0.54803 0.0
C1276 C 0.20837 0.27054 0.78589 0.0
C1277 C 0.24049 0.26725 0.79767 0.0
H1278 H 0.1983 0.24226 0.76598 0.0
C1279 C 0.29001 0.2309 0.79788 0.0
H1280 H 0.16958 0.29725 0.78534 0.0
C1281 C 0.30713 0.19945 0.78663 0.0
C1282 C 0.27514 0.20293 0.77479 0.0
H1283 H 0.31648 0.22759 0.80666 0.0
H1284 H 0.34604 0.17303 0.78725 0.0
C1285 C 0.22518 0.23883 0.77468 0.0
C1286 C 1.00345 0.05673 0.0467 0.0
C1287 C 0.95978 0.0137 0.04583 0.0
H1288 H 0.06949 0.10592 0.03671 0.0
C1289 C 0.95153 0.98584 1.03364 0.0
H1290 H 0.01083 0.07957 0.05587 0.0
C1291 C 0.98533 1.00066 1.02265 0.0
C1292 C 0.02845 0.0444 1.02337 0.0
H1293 H 0.91917 0.95185 1.0326 0.0
H1294 H 0.97783 0.97691 1.01362 0.0
C1295 C 0.03713 0.07199 0.03564 0.0
C1296 C 0.78227 0.76601 0.79537 0.0
C1297 C 0.73901 0.7224 0.79475 0.0
H1298 H 0.83061 0.83191 0.78517 0.0
C1299 C 0.71108 0.71322 0.78255 0.0
H1300 H 0.80578 0.77414 0.80441 0.0
C1301 C 0.72578 0.74638 0.7714 0.0
C1302 C 0.76879 0.79016 0.77205 0.0
H1303 H 0.67712 0.68081 0.78159 0.0
H1304 H 0.70241 0.73826 0.76234 0.0
C1305 C 0.79679 0.7993 0.78423 0.0
C1306 C 0.83336 0.30824 0.28299 0.0
C1307 C 0.82356 0.29228 0.2962 0.0
H1308 H 0.82615 0.28527 0.26262 0.0
C1309 C 0.79787 0.23762 0.29861 0.0
H1310 H 0.85314 0.34982 0.28071 0.0
C1311 C 0.78145 0.20075 0.28822 0.0
C1312 C 0.79044 0.21677 0.27497 0.0
H1313 H 0.78825 0.22397 0.30856 0.0
H1314 H 0.76047 0.16007 0.29069 0.0
C1315 C 0.81734 0.27107 0.27256 0.0
C1316 C 0.70638 0.28515 0.78298 0.0
C1317 C 0.74077 0.28462 0.77151 0.0
H1318 H 0.6938 0.25388 0.80259 0.0
C1319 C 0.79142 0.24976 0.77151 0.0
H1320 H 0.66659 0.31037 0.78338 0.0
C1321 C 0.8074 0.21715 0.78268 0.0
C1322 C 0.77327 0.21839 0.79422 0.0
H1323 H 0.81955 0.24852 0.76297 0.0
H1324 H 0.84708 0.19174 0.78233 0.0
C1325 C 0.72225 0.25263 0.79411 0.0
C1326 C 0.76994 0.79654 0.28272 0.0
C1327 C 0.7818 0.78059 0.29587 0.0
H1328 H 0.77496 0.77452 0.26227 0.0
C1329 C 0.81153 0.72747 0.29793 0.0
H1330 H 0.74678 0.83628 0.28049 0.0
C1331 C 0.82802 0.69167 0.28729 0.0
C1332 C 0.81564 0.70764 0.27419 0.0
H1333 H 0.8223 0.71307 0.30774 0.0
H1334 H 0.85039 0.65119 0.28936 0.0
C1335 C 0.78664 0.76092 0.27212 0.0
C1336 C 0.47159 0.49622 0.03717 0.0
C1337 C 0.49093 0.48769 1.02413 0.0
H1338 H 0.49008 0.48898 0.05778 0.0
C1339 C 0.5459 0.46113 1.02237 0.0
H1340 H 0.42948 0.51559 0.03908 0.0
C1341 C 0.58052 0.44486 1.03319 0.0
C1342 C 0.56173 0.4545 0.04621 0.0
H1343 H 0.5632 0.45365 1.01263 0.0
H1344 H 0.6225 0.42512 1.03129 0.0
C1345 C 0.5063 0.47996 0.048 0.0
C1346 C 0.99593 0.47183 0.52052 0.0
C1347 C 0.05232 0.44899 0.52252 0.0
H1348 H 0.91743 0.50487 0.52921 0.0
C1349 C 0.07092 0.44034 0.53558 0.0
H1350 H 0.97994 0.48007 0.51069 0.0
C1351 C 0.03517 0.45548 0.54628 0.0
C1352 C 0.97944 0.47995 0.54429 0.0
H1353 H 0.1138 0.42275 0.53757 0.0
H1354 H 0.05224 0.44943 0.5561 0.0
C1355 C 0.96017 0.48706 0.53122 0.0
C1356 C 0.98449 0.44387 1.03189 0.0
C1357 C 0.9899 0.47413 1.01989 0.0
H1358 H 0.01323 0.4339 0.0518 0.0
C1359 C 0.0304 0.52036 1.01932 0.0
H1360 H 0.95473 0.40755 1.03278 0.0
C1361 C 0.06429 0.53557 1.03034 0.0
C1362 C 0.05868 0.5053 0.04233 0.0
H1363 H 0.03559 0.54556 1.01041 0.0
H1364 H 0.09446 0.5716 1.02949 0.0
C1365 C 0.0182 0.45919 0.0429 0.0
C1366 C 0.49364 0.46938 0.52142 0.0
C1367 C 0.53871 0.51089 0.5225 0.0
H1368 H 0.42731 0.41974 0.53116 0.0
C1369 C 0.54893 0.53558 0.53499 0.0
H1370 H 0.48437 0.44889 0.51208 0.0
C1371 C 0.51589 0.519 0.54601 0.0
C1372 C 0.47137 0.47681 0.54502 0.0
H1373 H 0.58236 0.56832 0.53629 0.0
H1374 H 0.52511 0.54009 0.55529 0.0
C1375 C 0.46069 0.45249 0.53248 0.0
C1376 C 0.25294 0.922 0.3356 0.0
C1377 C 0.22809 0.9647 0.34388 0.0
H1378 H 0.27113 0.83134 0.33225 0.0
C1379 C 0.20167 0.94573 0.35562 0.0
H1380 H 0.27367 0.93452 0.32646 0.0
C1381 C 0.20067 0.88618 0.359 0.0
C1382 C 0.22582 0.84353 0.35074 0.0
H1383 H 0.18231 0.97698 0.3623 0.0
H1384 H 0.18008 0.87363 0.36815 0.0
C1385 C 0.25166 0.86249 0.33894 0.0
C1386 C 0.31718 0.99526 0.59912 0.0
C1387 C 0.29181 0.04966 0.59651 0.0
H1388 H 0.39541 0.94745 0.60307 0.0
C1389 C 0.32921 0.0982 0.59503 0.0
H1390 H 0.29008 0.95702 0.60035 0.0
C1391 C 0.39005 0.09275 0.59647 0.0
C1392 C 0.41502 0.03881 0.5997 0.0
H1393 H 0.31133 0.14087 0.59296 0.0
H1394 H 0.41724 0.13107 0.59549 0.0
C1395 C 0.37776 0.99002 0.60078 0.0
C1396 C 0.25471 0.10693 0.86225 0.0
C1397 C 0.2384 0.15121 0.85335 0.0
H1398 H 0.27559 0.01662 0.86519 0.0
C1399 C 0.23162 0.13582 0.84003 0.0
H1400 H 0.26072 0.11673 0.87258 0.0
C1401 C 0.24086 0.07826 0.83576 0.0
C1402 C 0.25695 0.03398 0.84467 0.0
H1403 H 0.2186 0.16808 0.83287 0.0
H1404 H 0.23464 0.0684 0.82544 0.0
C1405 C 0.2638 0.04931 0.85799 0.0
C1406 C 0.09073 0.97081 0.08947 0.0
C1407 C 0.07187 0.99262 0.10168 0.0
H1408 H 0.16276 0.95647 0.07635 0.0
C1409 C 0.11349 0.02044 0.10978 0.0
H1410 H 0.06011 0.9496 0.08292 0.0
C1411 C 0.17209 0.02578 0.10588 0.0
C1412 C 0.1914 1.00229 0.09388 0.0
H1413 H 0.10071 0.03877 0.11916 0.0
H1414 H 0.20253 0.04718 0.11244 0.0
C1415 C 0.14973 0.97493 0.08571 0.0
C1416 C 0.20977 0.14497 0.20935 0.0
C1417 C 0.24123 0.18606 0.21688 0.0
H1418 H 0.1871 0.05502 0.20627 0.0
C1419 C 0.27466 0.16527 0.22749 0.0
H1420 H 0.18328 0.15902 0.20112 0.0
C1421 C 0.27694 0.10542 0.2304 0.0
C1422 C 0.24542 0.06434 0.22289 0.0
H1423 H 0.29924 0.19525 0.23357 0.0
H1424 H 0.30347 0.0914 0.23862 0.0
C1425 C 0.21165 0.0851 0.21233 0.0
C1426 C 0.09529 0.06579 0.48093 0.0
C1427 C 0.08249 0.06271 0.46739 0.0
H1428 H 0.16017 0.05997 0.49606 0.0
C1429 C 0.12869 0.0504 0.45867 0.0
H1430 H 0.06113 0.07477 0.48799 0.0
C1431 C 0.18578 0.04142 0.46333 0.0
C1432 C 0.19851 0.04449 0.47687 0.0
H1433 H 0.1208 0.04732 0.44819 0.0
H1434 H 0.22007 0.03271 0.45627 0.0
C1435 C 0.15231 0.05685 0.48558 0.0
C1436 C 0.29762 0.92737 0.71453 0.0
C1437 C 0.27575 0.94298 0.72698 0.0
H1438 H 0.31644 0.8587 0.70084 0.0
C1439 C 0.25471 0.89806 0.73517 0.0
H1440 H 0.31395 0.96046 0.70789 0.0
C1441 C 0.25569 0.8395 0.73108 0.0
C1442 C 0.27797 0.82384 0.71867 0.0
H1443 H 0.23733 0.90804 0.74481 0.0
H1444 H 0.23955 0.80641 0.73773 0.0
C1445 C 0.29884 0.86877 0.71046 0.0
C1446 C 0.36933 0.02729 0.95938 0.0
C1447 C 0.4137 0.00805 0.96796 0.0
H1448 H 0.27865 0.04767 0.95672 0.0
C1449 C 0.39811 0.99517 0.98103 0.0
H1450 H 0.37935 0.03812 0.94926 0.0
C1451 C 0.34013 1.00114 0.98534 0.0
C1452 C 0.29574 0.02009 0.97673 0.0
H1453 H 0.43051 0.97972 0.98792 0.0
H1454 H 0.33006 0.99025 0.99545 0.0
C1455 C 0.31136 0.0333 0.96369 0.0
C1456 C 0.76765 0.13727 0.70988 0.0
C1457 C 0.72668 0.17582 0.71548 0.0
H1458 H 0.79817 0.049 0.70812 0.0
C1459 C 0.68639 0.15339 0.72455 0.0
H1460 H 0.79982 0.15328 0.70296 0.0
C1461 C 0.68476 0.09329 0.72729 0.0
C1462 C 0.72473 0.05449 0.7214 0.0
H1463 H 0.65447 0.18184 0.72907 0.0
H1464 H 0.65131 0.07688 0.73383 0.0
C1465 C 0.76721 0.07755 0.71293 0.0
C1466 C 0.6575 0.02406 0.48398 0.0
C1467 C 0.70151 0.04388 0.47537 0.0
H1468 H 0.56589 0.01071 0.48734 0.0
C1469 C 0.68421 0.06567 0.46303 0.0
H1470 H 0.66879 0.00699 0.49358 0.0
C1471 C 0.62497 0.06748 0.45943 0.0
C1472 C 0.58094 0.04769 0.46803 0.0
H1473 H 0.71651 0.08114 0.4561 0.0
H1474 H 0.61375 0.08464 0.44983 0.0
C1475 C 0.59821 0.02601 0.48039 0.0
C1476 C 0.74215 0.86161 0.21907 0.0
C1477 C 0.7902 0.82343 0.22022 0.0
H1478 H 0.71044 0.94967 0.2198 0.0
C1479 C 0.8444 0.84744 0.22372 0.0
H1480 H 0.69941 0.84486 0.21656 0.0
C1481 C 0.85077 0.90811 0.22543 0.0
C1482 C 0.80287 0.94637 0.224 0.0
H1483 H 0.88224 0.81961 0.22475 0.0
H1484 H 0.89361 0.92517 0.22773 0.0
C1485 C 0.74825 0.92195 0.22104 0.0
C1486 C 0.81594 0.99242 0.96537 0.0
C1487 C 0.79388 0.0445 0.97064 0.0
H1488 H 0.89124 0.94561 0.95861 0.0
C1489 C 0.83376 0.0891 0.97385 0.0
H1490 H 0.78655 0.95749 0.96264 0.0
C1491 C 0.89396 0.08205 0.97174 0.0
C1492 C 0.91583 0.03088 0.96598 0.0
H1493 H 0.81826 0.12991 0.9779 0.0
H1494 H 0.92323 0.11734 0.97429 0.0
C1495 C 0.87599 0.98598 0.96292 0.0
C1496 C 0.76954 0.93958 0.85464 0.0
C1497 C 0.75721 0.95526 0.84156 0.0
H1498 H 0.77235 0.87181 0.86913 0.0
C1499 C 0.73739 0.91116 0.83296 0.0
H1500 H 0.78442 0.97207 0.86161 0.0
C1501 C 0.72986 0.85347 0.83731 0.0
C1502 C 0.74203 0.83777 0.85041 0.0
H1503 H 0.72698 0.92126 0.82282 0.0
H1504 H 0.71389 0.82135 0.83041 0.0
C1505 C 0.76207 0.88185 0.85899 0.0
C1506 C 0.89392 0.9804 0.59115 0.0
C1507 C 0.91342 0.00407 0.60313 0.0
H1508 H 0.82105 0.96278 0.57846 0.0
C1509 C 0.8718 0.03117 0.61134 0.0
H1510 H 0.92445 0.95956 0.58452 0.0
C1511 C 0.81262 0.03416 0.60775 0.0
C1512 C 0.79286 0.00916 0.59594 0.0
H1513 H 0.88496 0.05067 0.62058 0.0
H1514 H 0.78214 0.055 0.61438 0.0
C1515 C 0.83446 0.98236 0.58768 0.0
C1516 C 0.74954 0.13647 0.35089 0.0
C1517 C 0.79643 0.17563 0.34921 0.0
H1518 H 0.71994 0.04773 0.35059 0.0
C1519 C 0.85033 0.15314 0.34509 0.0
H1520 H 0.70703 0.1522 0.35388 0.0
C1521 C 0.85776 0.09279 0.34331 0.0
C1522 C 0.81119 0.05351 0.34533 0.0
H1523 H 0.88718 0.1819 0.34362 0.0
H1524 H 0.90042 0.07679 0.34052 0.0
C1525 C 0.75668 0.0764 0.34889 0.0
C1526 C 0.65606 0.09191 0.09509 0.0
C1527 C 0.6934 0.04338 0.09666 0.0
H1528 H 0.56791 0.12468 0.09518 0.0
C1529 C 0.66773 0.98899 0.09918 0.0
H1530 H 0.67409 0.13459 0.09309 0.0
C1531 C 0.60698 0.98369 0.10061 0.0
C1532 C 0.56969 0.03238 0.09935 0.0
H1533 H 0.69471 0.95071 0.10048 0.0
H1534 H 0.58919 0.94109 0.1028 0.0
C1535 C 0.59503 0.08638 0.09627 0.0
C1536 C 0.72363 0.43558 0.85269 0.0
C1537 C 0.77361 0.4577 0.84646 0.0
H1538 H 0.67951 0.36033 0.8603 0.0
C1539 C 0.81693 0.41789 0.84243 0.0
H1540 H 0.68977 0.46489 0.85606 0.0
C1541 C 0.81079 0.35776 0.84468 0.0
C1542 C 0.76189 0.33582 0.85137 0.0
H1543 H 0.85613 0.43339 0.83763 0.0
H1544 H 0.84514 0.32861 0.8415 0.0
C1545 C 0.71816 0.37558 0.85524 0.0
C1546 C 0.84497 0.46768 0.10515 0.0
C1547 C 0.82277 0.50277 0.09499 0.0
H1548 H 0.9204 0.4377 0.11561 0.0
C1549 C 0.86282 0.53537 0.08744 0.0
H1550 H 0.81572 0.44225 0.11123 0.0
C1551 C 0.92313 0.53268 0.08991 0.0
C1552 C 0.94534 0.49771 0.10009 0.0
H1553 H 0.84764 0.56295 0.07951 0.0
H1554 H 0.95234 0.558 0.0838 0.0
C1555 C 0.90525 0.46535 0.10769 0.0
C1556 C 0.79229 0.63225 0.36091 0.0
C1557 C 0.76603 0.67485 0.35282 0.0
H1558 H 0.81206 0.5417 0.36396 0.0
C1559 C 0.73919 0.65606 0.34112 0.0
H1560 H 0.81404 0.64476 0.36994 0.0
C1561 C 0.73744 0.59646 0.33779 0.0
C1562 C 0.76361 0.55397 0.34591 0.0
H1563 H 0.71876 0.68728 0.3346 0.0
H1564 H 0.71561 0.58367 0.32879 0.0
C1565 C 0.79162 0.57291 0.35744 0.0
C1566 C 0.69289 0.50738 0.60386 0.0
C1567 C 0.70836 0.49039 0.59102 0.0
H1568 H 0.62549 0.51413 0.61842 0.0
C1569 C 0.66461 0.46534 0.58304 0.0
H1570 H 0.72521 0.52611 0.61038 0.0
C1571 C 0.60744 0.45753 0.58773 0.0
C1572 C 0.59178 0.47492 0.60052 0.0
H1573 H 0.67458 0.451 0.57315 0.0
H1574 H 0.57547 0.43796 0.58126 0.0
C1575 C 0.63553 0.49993 0.60852 0.0
C1576 C 0.78209 0.6017 0.73354 0.0
C1577 C 0.76403 0.55679 0.72495 0.0
H1578 H 0.80122 0.69252 0.73617 0.0
C1579 C 0.75132 0.57205 0.71185 0.0
H1580 H 0.79266 0.59207 0.74369 0.0
C1581 C 0.7559 0.63023 0.70756 0.0
C1582 C 0.77346 0.67525 0.71619 0.0
H1583 H 0.7375 0.53907 0.70489 0.0
H1584 H 0.74491 0.63993 0.69744 0.0
C1585 C 0.78688 0.6598 0.72924 0.0
C1586 C 0.63875 0.43734 0.96207 0.0
C1587 C 0.59869 0.47975 0.96648 0.0
H1588 H 0.72879 0.41228 0.95991 0.0
C1589 C 0.62089 0.52961 0.97276 0.0
H1590 H 0.62333 0.39811 0.95728 0.0
C1591 C 0.68135 0.53808 0.97406 0.0
C1592 C 0.72144 0.49621 0.96946 0.0
H1593 H 0.59157 0.56309 0.97631 0.0
H1594 H 0.69682 0.578 0.97855 0.0
C1595 C 0.69929 0.44513 0.96368 0.0
C1596 C 0.77672 0.42477 0.21363 0.0
C1597 C 0.75634 0.44502 0.22584 0.0
H1598 H 0.78761 0.35215 0.20061 0.0
C1599 C 0.73258 0.40382 0.23465 0.0
H1600 H 0.79531 0.45484 0.20659 0.0
C1601 C 0.72907 0.34428 0.23132 0.0
C1602 C 0.74776 0.32439 0.21894 0.0
H1603 H 0.71661 0.41762 0.24418 0.0
H1604 H 0.71071 0.31404 0.23837 0.0
C1605 C 0.7718 0.36564 0.21018 0.0
C1606 C 0.84663 0.4254 0.47463 0.0
C1607 C 0.80843 0.47312 0.47296 0.0
H1608 H 0.93524 0.39422 0.47434 0.0
C1609 C 0.83277 0.52786 0.47021 0.0
H1610 H 0.8295 0.38252 0.47682 0.0
C1611 C 0.89321 0.53417 0.46858 0.0
C1612 C 0.93127 0.48616 0.46984 0.0
H1613 H 0.80499 0.56551 0.46883 0.0
H1614 H 0.91011 0.57692 0.46617 0.0
C1615 C 0.90733 0.43194 0.47323 0.0
C1616 C 0.20105 0.60619 0.23308 0.0
C1617 C 0.23873 0.566 0.22687 0.0
H1618 H 0.1685 0.69379 0.234 0.0
C1619 C 0.27287 0.58609 0.21634 0.0
H1620 H 0.17329 0.59244 0.24111 0.0
C1621 C 0.27047 0.64473 0.21236 0.0
C1622 C 0.23328 0.68514 0.21865 0.0
H1623 H 0.30195 0.55663 0.21122 0.0
H1624 H 0.29841 0.65846 0.20435 0.0
C1625 C 0.19802 0.66465 0.22896 0.0
C1626 C 0.11618 0.46345 0.97921 0.0
C1627 C 0.1037 0.47588 0.96594 0.0
H1628 H 0.18006 0.46106 0.9946 0.0
C1629 C 0.14964 0.49685 0.95802 0.0
H1630 H 0.08266 0.44642 0.98561 0.0
C1631 C 0.20607 0.50499 0.96317 0.0
C1632 C 0.21847 0.49257 0.97644 0.0
H1633 H 0.14207 0.50725 0.94777 0.0
H1634 H 0.24018 0.52037 0.95667 0.0
C1635 C 0.17247 0.47186 0.98438 0.0
C1636 C 0.26494 0.42751 0.71375 0.0
C1637 C 0.27312 0.44244 0.72705 0.0
H1638 H 0.26334 0.35987 0.69919 0.0
C1639 C 0.2871 0.39748 0.73596 0.0
H1640 H 0.25474 0.46076 0.70655 0.0
C1641 C 0.29254 0.33945 0.73171 0.0
C1642 C 0.28416 0.32446 0.71842 0.0
H1643 H 0.29405 0.40706 0.74627 0.0
H1644 H 0.30287 0.30626 0.73891 0.0
C1645 C 0.27034 0.36945 0.7095 0.0
C1646 C 0.38815 0.49227 0.45717 0.0
C1647 C 0.43028 0.51918 0.4653 0.0
H1648 H 0.29791 0.47037 0.45413 0.0
C1649 C 0.41111 0.54465 0.47711 0.0
H1650 H 0.40104 0.47147 0.44806 0.0
C1651 C 0.35154 0.5446 0.4805 0.0
C1652 C 0.30946 0.51792 0.47233 0.0
H1653 H 0.442 0.56543 0.48367 0.0
H1654 H 0.33843 0.5655 0.48958 0.0
C1655 C 0.32882 0.49114 0.46069 0.0
C1656 C 0.25681 0.44652 0.35399 0.0
C1657 C 0.23657 0.46238 0.34142 0.0
H1658 H 0.26679 0.37889 0.36836 0.0
C1659 C 0.20834 0.41927 0.33383 0.0
H1660 H 0.27805 0.47838 0.36023 0.0
C1661 C 0.20077 0.36228 0.3386 0.0
C1662 C 0.22183 0.3461 0.35108 0.0
H1663 H 0.19124 0.42964 0.32418 0.0
H1664 H 0.17854 0.33088 0.33244 0.0
C1665 C 0.2498 0.38929 0.35871 0.0
C1666 C 0.34419 0.52289 0.10095 0.0
C1667 C 0.32527 0.48828 0.09037 0.0
H1668 H 0.41523 0.5492 0.11329 0.0
C1669 C 0.36625 0.45051 0.08447 0.0
H1670 H 0.3141 0.55209 0.10585 0.0
C1671 C 0.42436 0.44788 0.08892 0.0
C1672 C 0.44369 0.48364 0.09928 0.0
H1673 H 0.35339 0.42242 0.07641 0.0
H1674 H 0.45415 0.41825 0.08411 0.0
C1675 C 0.40244 0.52087 0.10527 0.0
C1676 C 0.21469 0.55353 0.8554 0.0
C1677 C 0.26659 0.53156 0.84998 0.0
H1678 H 0.16801 0.62871 0.86228 0.0
C1679 C 0.31083 0.57159 0.84663 0.0
H1680 H 0.18001 0.52408 0.85824 0.0
C1681 C 0.30372 0.63173 0.84875 0.0
C1682 C 0.2528 0.65353 0.85466 0.0
H1683 H 0.3515 0.55625 0.84246 0.0
H1684 H 0.33886 0.661 0.84611 0.0
C1685 C 0.20817 0.61358 0.85784 0.0
C1686 C 0.16764 0.50354 0.58457 0.0
C1687 C 0.21043 0.47999 0.59302 0.0
H1688 H 0.07702 0.52237 0.58128 0.0
C1689 C 0.19177 0.45654 0.6051 0.0
H1690 H 0.17999 0.52198 0.57518 0.0
C1691 C 0.13239 0.45731 0.60866 0.0
C1692 C 0.08966 0.48125 0.60024 0.0
H1693 H 0.22316 0.43835 0.61191 0.0
H1694 H 0.12005 0.43907 0.61808 0.0
C1695 C 0.1083 0.50397 0.58809 0.0
C1696 C 0.23846 0.12857 0.41225 0.0
C1697 C 0.26321 0.12348 0.3996 0.0
H1698 H 0.2483 0.11369 0.43302 0.0
C1699 C 0.32024 0.10131 0.39859 0.0
H1700 H 0.19487 0.14581 0.41343 0.0
C1701 C 0.35069 0.08277 0.40981 0.0
C1702 C 0.32541 0.08636 0.42241 0.0
H1703 H 0.3407 0.09613 0.38907 0.0
H1704 H 0.394 0.06482 0.4086 0.0
C1705 C 0.26929 0.11062 0.42351 0.0
C1706 C 0.24324 0.11368 0.65882 0.0
C1707 C 0.22457 0.09637 0.67147 0.0
H1708 H 0.23185 0.1063 0.63789 0.0
C1709 C 0.17563 0.05963 0.67232 0.0
H1710 H 0.28016 0.1426 0.65771 0.0
C1711 C 0.14779 0.03904 0.66091 0.0
C1712 C 0.16769 0.05468 0.64826 0.0
H1713 H 0.15989 0.04507 0.68179 0.0
H1714 H 0.11087 0.01011 0.66202 0.0
C1715 C 0.21512 0.09333 0.6474 0.0
C1716 C 0.1644 0.953 0.89775 0.0
C1717 C 0.20044 0.90398 0.89948 0.0
H1718 H 0.11369 0.02026 0.90674 0.0
C1719 C 0.21061 0.88487 0.91249 0.0
H1720 H 0.15529 0.96951 0.88801 0.0
C1721 C 0.18739 0.91478 0.92336 0.0
C1722 C 0.15277 0.96485 0.92167 0.0
H1723 H 0.23703 0.84678 0.91436 0.0
H1724 H 0.19791 0.89914 0.93311 0.0
C1725 C 0.14091 0.98276 0.90863 0.0
C1726 C 0.27407 0.94747 0.14534 0.0
C1727 C 0.31696 0.99082 0.14702 0.0
H1728 H 0.21493 0.88756 0.15434 0.0
C1729 C 0.33071 0.00746 0.16004 0.0
H1730 H 0.26192 0.93288 0.1356 0.0
C1731 C 0.30412 0.98058 0.17093 0.0
C1732 C 0.26237 0.93614 0.16927 0.0
H1733 H 0.3626 0.04107 0.16195 0.0
H1734 H 0.3176 0.99399 0.18067 0.0
C1735 C 0.24723 0.92078 0.15624 0.0
C1736 C 0.64676 0.00921 0.66155 0.0
C1737 C 0.65884 0.99088 0.64856 0.0
H1738 H 0.66288 0.99783 0.68222 0.0
C1739 C 0.69809 0.94431 0.6469 0.0
H1740 H 0.61748 0.04519 0.66339 0.0
C1741 C 0.72424 0.91714 0.65779 0.0
C1742 C 0.71211 0.9354 0.67076 0.0
H1743 H 0.70803 0.92791 0.63718 0.0
H1744 H 0.75351 0.88105 0.65601 0.0
C1745 C 0.67281 0.98184 0.67246 0.0
C1746 C 0.85057 0.9926 0.39536 0.0
C1747 C 0.82207 0.93862 0.39668 0.0
H1748 H 0.88927 0.06606 0.4052 0.0
C1749 C 0.81479 0.91584 0.40944 0.0
H1750 H 0.85658 0.01163 0.38572 0.0
C1751 C 0.83376 0.94669 0.42058 0.0
C1752 C 0.86001 1.00184 0.41935 0.0
H1753 H 0.79343 0.87425 0.41082 0.0
H1754 H 0.82568 0.92822 0.4302 0.0
C1755 C 0.86884 0.024 0.40656 0.0
C1756 C 0.84556 0.00797 0.16092 0.0
C1757 C 0.82377 0.02721 0.14869 0.0
H1758 H 0.84135 0.01374 0.18193 0.0
C1759 C 0.78009 0.0702 0.14873 0.0
H1760 H 0.87981 0.97566 0.16137 0.0
C1761 C 0.75832 0.09254 0.16061 0.0
C1762 C 0.77962 0.07275 0.17284 0.0
H1763 H 0.76195 0.08606 0.13958 0.0
H1764 H 0.72493 0.12574 0.16017 0.0
C1765 C 0.82389 0.03038 0.17279 0.0
C1766 C 0.64393 0.035 0.90805 0.0
C1767 C 0.66007 0.05559 0.92064 0.0
H1768 H 0.65635 0.03979 0.88716 0.0
C1769 C 0.70062 0.1015 0.92128 0.0
H1770 H 0.61212 1.00051 0.90703 0.0
C1771 C 0.72558 0.1246 0.90978 0.0
C1772 C 0.71093 0.10265 0.89722 0.0
H1773 H 0.71444 0.11872 0.93069 0.0
H1774 H 0.75687 0.15956 0.91079 0.0
C1775 C 0.6689 0.0581 0.89655 0.0
C1776 C 0.84176 0.5411 0.8946 0.0
C1777 C 0.79782 0.58323 0.89629 0.0
H1778 H 0.90147 0.48188 0.90369 0.0
C1779 C 0.78206 0.59825 0.90928 0.0
H1780 H 0.85521 0.52797 0.88484 0.0
C1781 C 0.80819 0.57112 0.92018 0.0
C1782 C 0.85116 0.52801 0.91849 0.0
H1783 H 0.74924 0.63108 0.9111 0.0
H1784 H 0.79365 0.5833 0.92991 0.0
C1785 C 0.86796 0.514 0.9055 0.0
C1786 C 0.70437 0.52734 0.17327 0.0
C1787 C 0.74727 0.57079 0.17176 0.0
H1788 H 0.64548 0.4677 0.16406 0.0
C1789 C 0.76404 0.58513 0.15878 0.0
H1790 H 0.68967 0.51467 0.18296 0.0
C1791 C 0.7378 0.5585 0.14778 0.0
C1792 C 0.69386 0.51612 0.14928 0.0
H1793 H 0.79728 0.61749 0.15697 0.0
H1794 H 0.75133 0.57241 0.1381 0.0
C1795 C 0.67833 0.50047 0.16227 0.0
C1796 C 0.7643 0.39929 0.41145 0.0
C1797 C 0.74628 0.41379 0.39855 0.0
H1798 H 0.75231 0.41143 0.43225 0.0
C1799 C 0.69943 0.45301 0.39724 0.0
H1800 H 0.80037 0.36988 0.41307 0.0
C1801 C 0.67196 0.47701 0.40834 0.0
C1802 C 0.69006 0.46256 0.4212 0.0
H1803 H 0.68314 0.46478 0.38761 0.0
H1804 H 0.63587 0.50659 0.40683 0.0
C1805 C 0.73651 0.42307 0.42257 0.0
C1806 C 0.83026 0.46147 0.67053 0.0
C1807 C 0.78426 0.42106 0.66969 0.0
H1808 H 0.89362 0.51261 0.66026 0.0
C1809 C 0.76833 0.40054 0.65711 0.0
H1810 H 0.84392 0.47854 0.67996 0.0
C1811 C 0.79651 0.42062 0.64574 0.0
C1812 C 0.84177 0.46184 0.64654 0.0
H1813 H 0.73399 0.36867 0.65596 0.0
H1814 H 0.78178 0.40456 0.6363 0.0
C1815 C 0.85854 0.48151 0.65915 0.0
C1816 C 0.21268 0.4168 0.14617 0.0
C1817 C 0.17122 0.46193 0.14607 0.0
H1818 H 0.26633 0.36018 0.15775 0.0
C1819 C 0.14961 0.48196 0.15824 0.0
H1820 H 0.23057 0.40034 0.13705 0.0
C1821 C 0.17035 0.45907 0.17016 0.0
C1822 C 0.21361 0.41566 0.17027 0.0
H1823 H 0.11707 0.51604 0.15858 0.0
H1824 H 0.15396 0.47698 0.17928 0.0
C1825 C 0.23366 0.39414 0.15809 0.0
C1826 C 0.27737 0.38115 0.91242 0.0
C1827 C 0.29496 0.39661 0.89959 0.0
H1828 H 0.28937 0.3922 0.93317 0.0
C1829 C 0.34271 0.43466 0.89827 0.0
H1830 H 0.24157 0.35126 0.91395 0.0
C1831 C 0.37089 0.45762 0.9094 0.0
C1832 C 0.35225 0.44339 0.92223 0.0
H1833 H 0.3577 0.44793 0.88865 0.0
H1834 H 0.40723 0.48688 0.9079 0.0
C1835 C 0.30546 0.40418 0.92355 0.0
C1836 C 0.34907 0.51603 0.67299 0.0
C1837 C 0.32547 0.57246 0.67204 0.0
H1838 H 0.3851 0.44238 0.66278 0.0
C1839 C 0.32411 0.59897 0.65953 0.0
H1840 H 0.35058 0.49403 0.6824 0.0
C1841 C 0.34397 0.56947 0.64828 0.0
C1842 C 0.36542 0.51215 0.64911 0.0
H1843 H 0.30686 0.64255 0.65841 0.0
H1844 H 0.34039 0.59098 0.63885 0.0
C1845 C 0.36843 0.4862 0.66168 0.0
C1846 C 0.17164 0.54048 0.3959 0.0
C1847 C 0.20553 0.59139 0.39685 0.0
H1848 H 0.12563 0.4729 0.40598 0.0
C1849 C 0.21828 0.61293 0.40954 0.0
H1850 H 0.16174 0.52175 0.38639 0.0
C1851 C 0.19747 0.58476 0.42088 0.0
C1852 C 0.16324 0.53401 0.41993 0.0
H1853 H 0.24368 0.65229 0.41073 0.0
H1854 H 0.20725 0.60362 0.43038 0.0
C1855 C 0.15098 0.51222 0.40723 0.0
loop_
_geom_bond_atom_site_label_1
_geom_bond_atom_site_label_2
_geom_bond_distance
_geom_bond_site_symmetry_2
_ccdc_geom_bond_type
C0 C1 1.351 . S
C0 N3 1.368 . S
C0 H5 0.931 . S
C1 C0 1.351 . S
C1 N2 1.373 . S
C1 H29 0.930 . S
N2 C1 1.373 . S
N2 C4 1.340 . S
N3 C0 1.368 . S
N3 C4 1.321 . S
N3 Co6 2.135 . S
C4 N2 1.340 . S
C4 N3 1.321 . S
C4 H28 0.930 . S
H5 C0 0.931 . S
Co6 N3 2.135 . S
Co6 N9 2.121 . S
Co6 O14 2.055 . S
Co6 O17 2.039 . S
Co6 N20 2.140 . S
C7 O8 1.227 . S
C7 O17 1.265 . S
O8 C7 1.227 . S
N9 Co6 2.121 . S
N9 C11 1.375 . S
N9 C12 1.313 . S
C10 C11 1.338 . S
C10 N13 1.377 . S
C10 H30 0.930 . S
C11 N9 1.375 . S
C11 C10 1.338 . S
C11 H15 0.931 . S
C12 N9 1.313 . S
C12 N13 1.344 . S
C12 H16 0.930 . S
N13 C10 1.377 . S
N13 C12 1.344 . S
O14 Co6 2.055 . S
O14 C18 1.253 . S
H15 C11 0.931 . S
H16 C12 0.930 . S
O17 Co6 2.039 . S
O17 C7 1.265 . S
C18 O14 1.253 . S
C18 O19 1.227 . S
O19 C18 1.227 . S
N20 Co6 2.140 . S
N20 C23 1.346 . S
N20 C24 1.345 . S
C21 C22 1.387 . S
C21 C25 1.391 . S
C22 C21 1.387 . S
C22 C23 1.369 . S
C22 H31 0.929 . S
C23 N20 1.346 . S
C23 C22 1.369 . S
C23 H26 0.928 . S
C24 N20 1.345 . S
C24 C25 1.371 . S
C24 H27 0.931 . S
C25 C21 1.391 . S
C25 C24 1.371 . S
C25 H32 0.930 . S
H26 C23 0.928 . S
H27 C24 0.931 . S
H28 C4 0.930 . S
H29 C1 0.930 . S
H30 C10 0.930 . S
H31 C22 0.929 . S
H32 C25 0.930 . S
C33 C34 1.351 . S
C33 N36 1.368 1_545 S
C33 H38 0.931 . S
C34 C33 1.351 . S
C34 N35 1.373 1_545 S
C34 H62 0.930 . S
N35 C34 1.373 1_565 S
N35 C37 1.340 . S
N36 C33 1.368 1_565 S
N36 C37 1.321 . S
N36 Co39 2.135 1_565 S
C37 N35 1.340 . S
C37 N36 1.321 . S
C37 H61 0.940 . S
H38 C33 0.931 . S
Co39 N36 2.135 1_545 S
Co39 N42 2.121 . S
Co39 O47 2.055 1_545 S
Co39 O50 2.039 1_545 S
Co39 N53 2.140 . S
C40 O41 1.227 1_565 S
C40 O50 1.265 1_655 S
O41 C40 1.227 1_545 S
N42 Co39 2.121 . S
N42 C44 1.375 . S
N42 C45 1.313 . S
C43 C44 1.338 . S
C43 N46 1.377 . S
C43 H63 0.930 . S
C44 N42 1.375 . S
C44 C43 1.338 . S
C44 H48 0.931 1_455 S
C45 N42 1.313 . S
C45 N46 1.344 . S
C45 H49 0.930 . S
N46 C43 1.377 . S
N46 C45 1.344 . S
O47 Co39 2.055 1_565 S
O47 C51 1.253 . S
H48 C44 0.931 1_655 S
H49 C45 0.930 . S
O50 Co39 2.039 1_565 S
O50 C40 1.265 1_455 S
C51 O47 1.253 . S
C51 O52 1.227 1_565 S
O52 C51 1.227 1_545 S
N53 Co39 2.140 . S
N53 C56 1.346 . S
N53 C57 1.345 . S
C54 C55 1.387 . S
C54 C58 1.391 . S
C55 C54 1.387 . S
C55 C56 1.369 . S
C55 H64 0.929 1_455 S
C56 N53 1.346 . S
C56 C55 1.369 . S
C56 H59 0.928 . S
C57 N53 1.345 . S
C57 C58 1.371 . S
C57 H60 0.931 . S
C58 C54 1.391 . S
C58 C57 1.371 . S
C58 H65 0.930 . S
H59 C56 0.928 . S
H60 C57 0.931 . S
H61 C37 0.940 . S
H62 C34 0.930 . S
H63 C43 0.930 . S
H64 C55 0.929 1_655 S
H65 C58 0.930 . S
C66 C67 1.351 . S
C66 N69 1.368 . S
C66 H71 0.931 . S
C67 C66 1.351 . S
C67 N68 1.373 . S
C67 H95 0.930 . S
N68 C67 1.373 . S
N68 C70 1.340 . S
N69 C66 1.368 . S
N69 C70 1.321 . S
N69 Co72 2.135 . S
C70 N68 1.340 . S
C70 N69 1.321 . S
C70 H94 0.930 . S
H71 C66 0.931 . S
Co72 N69 2.135 . S
Co72 N75 2.121 . S
Co72 O80 2.055 . S
Co72 O83 2.039 . S
Co72 N86 2.140 . S
C73 O74 1.227 . S
C73 O83 1.265 . S
O74 C73 1.227 . S
N75 Co72 2.121 . S
N75 C77 1.375 . S
N75 C78 1.313 . S
C76 C77 1.338 . S
C76 N79 1.377 . S
C76 H96 0.930 . S
C77 N75 1.375 . S
C77 C76 1.338 . S
C77 H81 0.931 . S
C78 N75 1.313 . S
C78 N79 1.344 . S
C78 H82 0.930 . S
N79 C76 1.377 . S
N79 C78 1.344 . S
O80 Co72 2.055 . S
O80 C84 1.253 . S
H81 C77 0.931 . S
H82 C78 0.930 . S
O83 Co72 2.039 . S
O83 C73 1.265 . S
C84 O80 1.253 . S
C84 O85 1.227 . S
O85 C84 1.227 . S
N86 Co72 2.140 . S
N86 C89 1.346 . S
N86 C90 1.345 . S
C87 C88 1.387 . S
C87 C91 1.391 . S
C88 C87 1.387 . S
C88 C89 1.369 . S
C88 H97 0.929 . S
C89 N86 1.346 . S
C89 C88 1.369 . S
C89 H92 0.928 . S
C90 N86 1.345 . S
C90 C91 1.371 . S
C90 H93 0.931 . S
C91 C87 1.391 . S
C91 C90 1.371 . S
C91 H98 0.930 . S
H92 C89 0.928 . S
H93 C90 0.931 . S
H94 C70 0.930 . S
H95 C67 0.930 . S
H96 C76 0.930 . S
H97 C88 0.929 . S
H98 C91 0.930 . S
C99 C100 1.351 . S
C99 N102 1.368 1_565 S
C99 H104 0.931 . S
C100 C99 1.351 . S
C100 N101 1.373 1_565 S
C100 H128 0.930 . S
N101 C100 1.373 1_545 S
N101 C103 1.340 . S
N102 C99 1.368 1_545 S
N102 C103 1.321 . S
N102 Co105 2.135 1_545 S
C103 N101 1.340 . S
C103 N102 1.321 . S
C103 H127 0.930 . S
H104 C99 0.931 . S
Co105 N102 2.135 1_565 S
Co105 N108 2.121 . S
Co105 O113 2.055 1_565 S
Co105 O116 2.039 1_565 S
Co105 N119 2.140 . S
C106 O107 1.227 1_545 S
C106 O116 1.265 . S
O107 C106 1.227 1_565 S
N108 Co105 2.121 . S
N108 C110 1.375 . S
N108 C111 1.313 . S
C109 C110 1.338 . S
C109 N112 1.377 . S
C109 H129 0.930 . S
C110 N108 1.375 . S
C110 C109 1.338 . S
C110 H114 0.931 . S
C111 N108 1.313 . S
C111 N112 1.344 . S
C111 H115 0.930 . S
N112 C109 1.377 . S
N112 C111 1.344 . S
O113 Co105 2.055 1_545 S
O113 C117 1.253 . S
H114 C110 0.931 . S
H115 C111 0.930 . S
O116 Co105 2.039 1_545 S
O116 C106 1.265 . S
C117 O113 1.253 . S
C117 O118 1.227 1_545 S
O118 C117 1.227 1_565 S
N119 Co105 2.140 . S
N119 C122 1.346 . S
N119 C123 1.345 . S
C120 C121 1.387 . S
C120 C124 1.391 . S
C121 C120 1.387 . S
C121 C122 1.369 . S
C121 H130 0.929 . S
C122 N119 1.346 . S
C122 C121 1.369 . S
C122 H125 0.928 . S
C123 N119 1.345 . S
C123 C124 1.371 . S
C123 H126 0.931 . S
C124 C120 1.391 . S
C124 C123 1.371 . S
C124 H131 0.930 . S
H125 C122 0.928 . S
H126 C123 0.931 . S
H127 C103 0.930 . S
H128 C100 0.930 . S
H129 C109 0.930 . S
H130 C121 0.929 . S
H131 C124 0.930 . S
C132 C133 1.351 . S
C132 N135 1.368 . S
C132 H137 0.931 . S
C133 C132 1.351 . S
C133 N134 1.373 . S
C133 H161 0.930 . S
N134 C133 1.373 . S
N134 C136 1.340 . S
N135 C132 1.368 . S
N135 C136 1.321 . S
N135 Co138 2.135 . S
C136 N134 1.340 . S
C136 N135 1.321 . S
C136 H160 0.930 . S
H137 C132 0.931 . S
Co138 N135 2.135 . S
Co138 N141 2.121 . S
Co138 O146 2.055 . S
Co138 O149 2.039 . S
Co138 N152 2.140 . S
C139 O140 1.227 . S
C139 O149 1.265 . S
O140 C139 1.227 . S
N141 Co138 2.121 . S
N141 C143 1.375 . S
N141 C144 1.313 . S
C142 C143 1.338 . S
C142 N145 1.377 . S
C142 H162 0.930 . S
C143 N141 1.375 . S
C143 C142 1.338 . S
C143 H147 0.931 . S
C144 N141 1.313 . S
C144 N145 1.344 . S
C144 H148 0.930 . S
N145 C142 1.377 . S
N145 C144 1.344 . S
O146 Co138 2.055 . S
O146 C150 1.253 . S
H147 C143 0.931 . S
H148 C144 0.930 . S
O149 Co138 2.039 . S
O149 C139 1.265 . S
C150 O146 1.253 . S
C150 O151 1.227 . S
O151 C150 1.227 . S
N152 Co138 2.140 . S
N152 C155 1.346 . S
N152 C156 1.345 . S
C153 C154 1.387 . S
C153 C157 1.391 . S
C154 C153 1.387 . S
C154 C155 1.369 . S
C154 H163 0.929 . S
C155 N152 1.346 . S
C155 C154 1.369 . S
C155 H158 0.928 . S
C156 N152 1.345 . S
C156 C157 1.371 . S
C156 H159 0.931 . S
C157 C153 1.391 . S
C157 C156 1.371 . S
C157 H164 0.930 . S
H158 C155 0.928 . S
H159 C156 0.931 . S
H160 C136 0.930 . S
H161 C133 0.930 . S
H162 C142 0.930 . S
H163 C154 0.929 . S
H164 C157 0.930 . S
C165 C166 1.351 . S
C165 N168 1.368 1_545 S
C165 H170 0.931 . S
C166 C165 1.351 . S
C166 N167 1.373 1_545 S
C166 H194 0.930 . S
N167 C166 1.373 1_565 S
N167 C169 1.340 . S
N168 C165 1.368 1_565 S
N168 C169 1.321 . S
N168 Co171 2.135 1_565 S
C169 N167 1.340 . S
C169 N168 1.321 . S
C169 H193 0.930 . S
H170 C165 0.931 . S
Co171 N168 2.135 1_545 S
Co171 N174 2.121 . S
Co171 O179 2.055 1_545 S
Co171 O182 2.039 1_545 S
Co171 N185 2.140 . S
C172 O173 1.227 1_565 S
C172 O182 1.265 . S
O173 C172 1.227 1_545 S
N174 Co171 2.121 . S
N174 C176 1.375 . S
N174 C177 1.313 . S
C175 C176 1.338 . S
C175 N178 1.377 . S
C175 H195 0.930 . S
C176 N174 1.375 . S
C176 C175 1.338 . S
C176 H180 0.931 . S
C177 N174 1.313 . S
C177 N178 1.344 . S
C177 H181 0.930 . S
N178 C175 1.377 . S
N178 C177 1.344 . S
O179 Co171 2.055 1_565 S
O179 C183 1.253 . S
H180 C176 0.931 . S
H181 C177 0.930 . S
O182 Co171 2.039 1_565 S
O182 C172 1.265 . S
C183 O179 1.253 . S
C183 O184 1.227 1_565 S
O184 C183 1.227 1_545 S
N185 Co171 2.140 . S
N185 C188 1.346 . S
N185 C189 1.345 . S
C186 C187 1.387 . S
C186 C190 1.391 . S
C187 C186 1.387 . S
C187 C188 1.369 . S
C187 H196 0.929 . S
C188 N185 1.346 . S
C188 C187 1.369 . S
C188 H191 0.928 . S
C189 N185 1.345 . S
C189 C190 1.371 . S
C189 H192 0.931 . S
C190 C186 1.391 . S
C190 C189 1.371 . S
C190 H197 0.930 . S
H191 C188 0.928 . S
H192 C189 0.931 . S
H193 C169 0.930 . S
H194 C166 0.930 . S
H195 C175 0.930 . S
H196 C187 0.929 . S
H197 C190 0.930 . S
C198 C199 1.351 . S
C198 N201 1.368 . S
C198 H203 0.931 . S
C199 C198 1.351 . S
C199 N200 1.373 . S
C199 H227 0.930 . S
N200 C199 1.373 . S
N200 C202 1.340 . S
N201 C198 1.368 . S
N201 C202 1.321 . S
N201 Co204 2.135 . S
C202 N200 1.340 . S
C202 N201 1.321 . S
C202 H226 0.930 . S
H203 C198 0.931 . S
Co204 N201 2.135 . S
Co204 N207 2.121 . S
Co204 O212 2.055 . S
Co204 O215 2.039 . S
Co204 N218 2.140 . S
C205 O206 1.227 . S
C205 O215 1.265 . S
O206 C205 1.227 . S
N207 Co204 2.121 . S
N207 C209 1.375 . S
N207 C210 1.313 . S
C208 C209 1.338 . S
C208 N211 1.377 . S
C208 H228 0.930 . S
C209 N207 1.375 . S
C209 C208 1.338 . S
C209 H213 0.931 . S
C210 N207 1.313 . S
C210 N211 1.344 . S
C210 H214 0.930 . S
N211 C208 1.377 . S
N211 C210 1.344 . S
O212 Co204 2.055 . S
O212 C216 1.253 . S
H213 C209 0.931 . S
H214 C210 0.930 . S
O215 Co204 2.039 . S
O215 C205 1.265 . S
C216 O212 1.253 . S
C216 O217 1.227 . S
O217 C216 1.227 . S
N218 Co204 2.140 . S
N218 C221 1.346 . S
N218 C222 1.345 . S
C219 C220 1.387 . S
C219 C223 1.391 . S
C220 C219 1.387 . S
C220 C221 1.369 . S
C220 H229 0.929 . S
C221 N218 1.346 . S
C221 C220 1.369 . S
C221 H224 0.928 . S
C222 N218 1.345 . S
C222 C223 1.371 . S
C222 H225 0.931 . S
C223 C219 1.391 . S
C223 C222 1.371 . S
C223 H230 0.930 . S
H224 C221 0.928 . S
H225 C222 0.931 . S
H226 C202 0.930 . S
H227 C199 0.930 . S
H228 C208 0.930 . S
H229 C220 0.929 . S
H230 C223 0.930 . S
C231 C232 1.351 . S
C231 N234 1.368 1_565 S
C231 H236 0.931 . S
C232 C231 1.351 . S
C232 N233 1.373 1_565 S
C232 H260 0.930 . S
N233 C232 1.373 1_545 S
N233 C235 1.340 . S
N234 C231 1.368 1_545 S
N234 C235 1.321 . S
N234 Co237 2.135 1_545 S
C235 N233 1.340 . S
C235 N234 1.321 . S
C235 H259 0.940 . S
H236 C231 0.931 . S
Co237 N234 2.135 1_565 S
Co237 N240 2.121 . S
Co237 O245 2.055 1_565 S
Co237 O248 2.039 1_565 S
Co237 N251 2.140 . S
C238 O239 1.227 1_545 S
C238 O248 1.265 1_655 S
O239 C238 1.227 1_565 S
N240 Co237 2.121 . S
N240 C242 1.375 . S
N240 C243 1.313 . S
C241 C242 1.338 . S
C241 N244 1.377 . S
C241 H261 0.930 . S
C242 N240 1.375 . S
C242 C241 1.338 . S
C242 H246 0.931 1_455 S
C243 N240 1.313 . S
C243 N244 1.344 . S
C243 H247 0.930 . S
N244 C241 1.377 . S
N244 C243 1.344 . S
O245 Co237 2.055 1_545 S
O245 C249 1.253 . S
H246 C242 0.931 1_655 S
H247 C243 0.930 . S
O248 Co237 2.039 1_545 S
O248 C238 1.265 1_455 S
C249 O245 1.253 . S
C249 O250 1.227 1_545 S
O250 C249 1.227 1_565 S
N251 Co237 2.140 . S
N251 C254 1.346 . S
N251 C255 1.345 . S
C252 C253 1.387 . S
C252 C256 1.391 . S
C253 C252 1.387 . S
C253 C254 1.369 . S
C253 H262 0.929 1_455 S
C254 N251 1.346 . S
C254 C253 1.369 . S
C254 H257 0.928 . S
C255 N251 1.345 . S
C255 C256 1.371 . S
C255 H258 0.931 . S
C256 C252 1.391 . S
C256 C255 1.371 . S
C256 H263 0.930 . S
H257 C254 0.928 . S
H258 C255 0.931 . S
H259 C235 0.940 . S
H260 C232 0.930 . S
H261 C241 0.930 . S
H262 C253 0.929 1_655 S
H263 C256 0.930 . S
C264 C265 1.351 . S
C264 N267 1.368 . S
C264 H269 0.931 . S
C265 C264 1.351 . S
C265 N266 1.373 . S
C265 H293 0.930 . S
N266 C265 1.373 . S
N266 C268 1.340 . S
N267 C264 1.368 . S
N267 C268 1.321 . S
N267 Co270 2.135 . S
C268 N266 1.340 . S
C268 N267 1.321 . S
C268 H292 0.930 . S
H269 C264 0.931 . S
Co270 N267 2.135 . S
Co270 N273 2.121 . S
Co270 O278 2.055 . S
Co270 O281 2.039 . S
Co270 N284 2.140 . S
C271 O272 1.227 . S
C271 O281 1.265 . S
O272 C271 1.227 . S
N273 Co270 2.121 . S
N273 C275 1.375 . S
N273 C276 1.313 . S
C274 C275 1.338 . S
C274 N277 1.377 . S
C274 H294 0.930 . S
C275 N273 1.375 . S
C275 C274 1.338 . S
C275 H279 0.931 . S
C276 N273 1.313 . S
C276 N277 1.344 . S
C276 H280 0.930 . S
N277 C274 1.377 . S
N277 C276 1.344 . S
O278 Co270 2.055 . S
O278 C282 1.253 . S
H279 C275 0.931 . S
H280 C276 0.930 . S
O281 Co270 2.039 . S
O281 C271 1.265 . S
C282 O278 1.253 . S
C282 O283 1.227 . S
O283 C282 1.227 . S
N284 Co270 2.140 . S
N284 C287 1.346 . S
N284 C288 1.345 . S
C285 C286 1.387 . S
C285 C289 1.391 . S
C286 C285 1.387 . S
C286 C287 1.369 . S
C286 H295 0.929 . S
C287 N284 1.346 . S
C287 C286 1.369 . S
C287 H290 0.928 . S
C288 N284 1.345 . S
C288 C289 1.371 . S
C288 H291 0.931 . S
C289 C285 1.391 . S
C289 C288 1.371 . S
C289 H296 0.930 . S
H290 C287 0.928 . S
H291 C288 0.931 . S
H292 C268 0.930 . S
H293 C265 0.930 . S
H294 C274 0.930 . S
H295 C286 0.929 . S
H296 C289 0.930 . S
C297 C298 1.351 . S
C297 N300 1.368 1_565 S
C297 H302 0.931 . S
C298 C297 1.351 . S
C298 N299 1.373 1_565 S
C298 H326 0.930 . S
N299 C298 1.373 1_545 S
N299 C301 1.340 . S
N300 C297 1.368 1_545 S
N300 C301 1.321 . S
N300 Co303 2.135 1_545 S
C301 N299 1.340 . S
C301 N300 1.321 . S
C301 H325 0.940 . S
H302 C297 0.931 . S
Co303 N300 2.135 1_565 S
Co303 N306 2.121 . S
Co303 O311 2.055 1_565 S
Co303 O314 2.039 1_565 S
Co303 N317 2.140 . S
C304 O305 1.227 1_545 S
C304 O314 1.265 1_455 S
O305 C304 1.227 1_565 S
N306 Co303 2.121 . S
N306 C308 1.375 . S
N306 C309 1.313 . S
C307 C308 1.338 . S
C307 N310 1.377 . S
C307 H327 0.930 . S
C308 N306 1.375 . S
C308 C307 1.338 . S
C308 H312 0.931 1_655 S
C309 N306 1.313 . S
C309 N310 1.344 . S
C309 H313 0.930 . S
N310 C307 1.377 . S
N310 C309 1.344 . S
O311 Co303 2.055 1_545 S
O311 C315 1.253 . S
H312 C308 0.931 1_455 S
H313 C309 0.930 . S
O314 Co303 2.039 1_545 S
O314 C304 1.265 1_655 S
C315 O311 1.253 . S
C315 O316 1.227 1_545 S
O316 C315 1.227 1_565 S
N317 Co303 2.140 . S
N317 C320 1.346 . S
N317 C321 1.345 . S
C318 C319 1.387 . S
C318 C322 1.391 . S
C319 C318 1.387 . S
C319 C320 1.369 . S
C319 H328 0.929 1_655 S
C320 N317 1.346 . S
C320 C319 1.369 . S
C320 H323 0.928 . S
C321 N317 1.345 . S
C321 C322 1.371 . S
C321 H324 0.931 . S
C322 C318 1.391 . S
C322 C321 1.371 . S
C322 H329 0.930 . S
H323 C320 0.928 . S
H324 C321 0.931 . S
H325 C301 0.940 . S
H326 C298 0.930 . S
H327 C307 0.930 . S
H328 C319 0.929 1_455 S
H329 C322 0.930 . S
C330 C331 1.351 . S
C330 N333 1.368 . S
C330 H335 0.931 . S
C331 C330 1.351 . S
C331 N332 1.373 . S
C331 H359 0.930 . S
N332 C331 1.373 . S
N332 C334 1.340 . S
N333 C330 1.368 . S
N333 C334 1.321 . S
N333 Co336 2.135 . S
C334 N332 1.340 . S
C334 N333 1.321 . S
C334 H358 0.930 . S
H335 C330 0.931 . S
Co336 N333 2.135 . S
Co336 N339 2.121 . S
Co336 O344 2.055 . S
Co336 O347 2.039 . S
Co336 N350 2.140 . S
C337 O338 1.227 . S
C337 O347 1.265 . S
O338 C337 1.227 . S
N339 Co336 2.121 . S
N339 C341 1.375 . S
N339 C342 1.313 . S
C340 C341 1.338 . S
C340 N343 1.377 . S
C340 H360 0.930 . S
C341 N339 1.375 . S
C341 C340 1.338 . S
C341 H345 0.931 . S
C342 N339 1.313 . S
C342 N343 1.344 . S
C342 H346 0.930 . S
N343 C340 1.377 . S
N343 C342 1.344 . S
O344 Co336 2.055 . S
O344 C348 1.253 . S
H345 C341 0.931 . S
H346 C342 0.930 . S
O347 Co336 2.039 . S
O347 C337 1.265 . S
C348 O344 1.253 . S
C348 O349 1.227 . S
O349 C348 1.227 . S
N350 Co336 2.140 . S
N350 C353 1.346 . S
N350 C354 1.345 . S
C351 C352 1.387 . S
C351 C355 1.391 . S
C352 C351 1.387 . S
C352 C353 1.369 . S
C352 H361 0.929 . S
C353 N350 1.346 . S
C353 C352 1.369 . S
C353 H356 0.928 . S
C354 N350 1.345 . S
C354 C355 1.371 . S
C354 H357 0.931 . S
C355 C351 1.391 . S
C355 C354 1.371 . S
C355 H362 0.930 . S
H356 C353 0.928 . S
H357 C354 0.931 . S
H358 C334 0.930 . S
H359 C331 0.930 . S
H360 C340 0.930 . S
H361 C352 0.929 . S
H362 C355 0.930 . S
C363 C364 1.351 . S
C363 N366 1.368 1_545 S
C363 H368 0.931 . S
C364 C363 1.351 . S
C364 N365 1.373 1_545 S
C364 H392 0.930 . S
N365 C364 1.373 1_565 S
N365 C367 1.340 . S
N366 C363 1.368 1_565 S
N366 C367 1.321 . S
N366 Co369 2.135 1_565 S
C367 N365 1.340 . S
C367 N366 1.321 . S
C367 H391 0.930 . S
H368 C363 0.931 . S
Co369 N366 2.135 1_545 S
Co369 N372 2.121 . S
Co369 O377 2.055 1_545 S
Co369 O380 2.039 1_545 S
Co369 N383 2.140 . S
C370 O371 1.227 1_565 S
C370 O380 1.265 . S
O371 C370 1.227 1_545 S
N372 Co369 2.121 . S
N372 C374 1.375 . S
N372 C375 1.313 . S
C373 C374 1.338 . S
C373 N376 1.377 . S
C373 H393 0.930 . S
C374 N372 1.375 . S
C374 C373 1.338 . S
C374 H378 0.931 . S
C375 N372 1.313 . S
C375 N376 1.344 . S
C375 H379 0.930 . S
N376 C373 1.377 . S
N376 C375 1.344 . S
O377 Co369 2.055 1_565 S
O377 C381 1.253 . S
H378 C374 0.931 . S
H379 C375 0.930 . S
O380 Co369 2.039 1_565 S
O380 C370 1.265 . S
C381 O377 1.253 . S
C381 O382 1.227 1_565 S
O382 C381 1.227 1_545 S
N383 Co369 2.140 . S
N383 C386 1.346 . S
N383 C387 1.345 . S
C384 C385 1.387 . S
C384 C388 1.391 . S
C385 C384 1.387 . S
C385 C386 1.369 . S
C385 H394 0.929 . S
C386 N383 1.346 . S
C386 C385 1.369 . S
C386 H389 0.928 . S
C387 N383 1.345 . S
C387 C388 1.371 . S
C387 H390 0.931 . S
C388 C384 1.391 . S
C388 C387 1.371 . S
C388 H395 0.930 . S
H389 C386 0.928 . S
H390 C387 0.931 . S
H391 C367 0.930 . S
H392 C364 0.930 . S
H393 C373 0.930 . S
H394 C385 0.929 . S
H395 C388 0.930 . S
C396 C397 1.351 . S
C396 N399 1.368 . S
C396 H401 0.931 . S
C397 C396 1.351 . S
C397 N398 1.373 . S
C397 H425 0.930 . S
N398 C397 1.373 . S
N398 C400 1.340 . S
N399 C396 1.368 . S
N399 C400 1.321 . S
N399 Co402 2.135 . S
C400 N398 1.340 . S
C400 N399 1.321 . S
C400 H424 0.930 . S
H401 C396 0.931 . S
Co402 N399 2.135 . S
Co402 N405 2.121 . S
Co402 O410 2.055 . S
Co402 O413 2.039 . S
Co402 N416 2.140 . S
C403 O404 1.227 . S
C403 O413 1.265 . S
O404 C403 1.227 . S
N405 Co402 2.121 . S
N405 C407 1.375 . S
N405 C408 1.313 . S
C406 C407 1.338 . S
C406 N409 1.377 . S
C406 H426 0.930 . S
C407 N405 1.375 . S
C407 C406 1.338 . S
C407 H411 0.931 . S
C408 N405 1.313 . S
C408 N409 1.344 . S
C408 H412 0.930 . S
N409 C406 1.377 . S
N409 C408 1.344 . S
O410 Co402 2.055 . S
O410 C414 1.253 . S
H411 C407 0.931 . S
H412 C408 0.930 . S
O413 Co402 2.039 . S
O413 C403 1.265 . S
C414 O410 1.253 . S
C414 O415 1.227 . S
O415 C414 1.227 . S
N416 Co402 2.140 . S
N416 C419 1.346 . S
N416 C420 1.345 . S
C417 C418 1.387 . S
C417 C421 1.391 . S
C418 C417 1.387 . S
C418 C419 1.369 . S
C418 H427 0.929 . S
C419 N416 1.346 . S
C419 C418 1.369 . S
C419 H422 0.928 . S
C420 N416 1.345 . S
C420 C421 1.371 . S
C420 H423 0.931 . S
C421 C417 1.391 . S
C421 C420 1.371 . S
C421 H428 0.930 . S
H422 C419 0.928 . S
H423 C420 0.931 . S
H424 C400 0.930 . S
H425 C397 0.930 . S
H426 C406 0.930 . S
H427 C418 0.929 . S
H428 C421 0.930 . S
C429 C430 1.351 . S
C429 N432 1.368 1_565 S
C429 H434 0.931 . S
C430 C429 1.351 . S
C430 N431 1.373 1_565 S
C430 H458 0.930 . S
N431 C430 1.373 1_545 S
N431 C433 1.340 . S
N432 C429 1.368 1_545 S
N432 C433 1.321 . S
N432 Co435 2.135 1_545 S
C433 N431 1.340 . S
C433 N432 1.321 . S
C433 H457 0.930 . S
H434 C429 0.931 . S
Co435 N432 2.135 1_565 S
Co435 N438 2.121 . S
Co435 O443 2.055 1_565 S
Co435 O446 2.039 1_565 S
Co435 N449 2.140 . S
C436 O437 1.227 1_545 S
C436 O446 1.265 . S
O437 C436 1.227 1_565 S
N438 Co435 2.121 . S
N438 C440 1.375 . S
N438 C441 1.313 . S
C439 C440 1.338 . S
C439 N442 1.377 . S
C439 H459 0.930 . S
C440 N438 1.375 . S
C440 C439 1.338 . S
C440 H444 0.931 . S
C441 N438 1.313 . S
C441 N442 1.344 . S
C441 H445 0.930 . S
N442 C439 1.377 . S
N442 C441 1.344 . S
O443 Co435 2.055 1_545 S
O443 C447 1.253 . S
H444 C440 0.931 . S
H445 C441 0.930 . S
O446 Co435 2.039 1_545 S
O446 C436 1.265 . S
C447 O443 1.253 . S
C447 O448 1.227 1_545 S
O448 C447 1.227 1_565 S
N449 Co435 2.140 . S
N449 C452 1.346 . S
N449 C453 1.345 . S
C450 C451 1.387 . S
C450 C454 1.391 . S
C451 C450 1.387 . S
C451 C452 1.369 . S
C451 H460 0.929 . S
C452 N449 1.346 . S
C452 C451 1.369 . S
C452 H455 0.928 . S
C453 N449 1.345 . S
C453 C454 1.371 . S
C453 H456 0.931 . S
C454 C450 1.391 . S
C454 C453 1.371 . S
C454 H461 0.930 . S
H455 C452 0.928 . S
H456 C453 0.931 . S
H457 C433 0.930 . S
H458 C430 0.930 . S
H459 C439 0.930 . S
H460 C451 0.929 . S
H461 C454 0.930 . S
C462 C463 1.351 . S
C462 N465 1.368 . S
C462 H467 0.931 . S
C463 C462 1.351 . S
C463 N464 1.373 . S
C463 H491 0.930 . S
N464 C463 1.373 . S
N464 C466 1.340 . S
N465 C462 1.368 . S
N465 C466 1.321 . S
N465 Co468 2.135 . S
C466 N464 1.340 . S
C466 N465 1.321 . S
C466 H490 0.930 . S
H467 C462 0.931 . S
Co468 N465 2.135 . S
Co468 N471 2.121 . S
Co468 O476 2.055 . S
Co468 O479 2.039 . S
Co468 N482 2.140 . S
C469 O470 1.227 . S
C469 O479 1.265 . S
O470 C469 1.227 . S
N471 Co468 2.121 . S
N471 C473 1.375 . S
N471 C474 1.313 . S
C472 C473 1.338 . S
C472 N475 1.377 . S
C472 H492 0.930 . S
C473 N471 1.375 . S
C473 C472 1.338 . S
C473 H477 0.931 . S
C474 N471 1.313 . S
C474 N475 1.344 . S
C474 H478 0.930 . S
N475 C472 1.377 . S
N475 C474 1.344 . S
O476 Co468 2.055 . S
O476 C480 1.253 . S
H477 C473 0.931 . S
H478 C474 0.930 . S
O479 Co468 2.039 . S
O479 C469 1.265 . S
C480 O476 1.253 . S
C480 O481 1.227 . S
O481 C480 1.227 . S
N482 Co468 2.140 . S
N482 C485 1.346 . S
N482 C486 1.345 . S
C483 C484 1.387 . S
C483 C487 1.391 . S
C484 C483 1.387 . S
C484 C485 1.369 . S
C484 H493 0.929 . S
C485 N482 1.346 . S
C485 C484 1.369 . S
C485 H488 0.928 . S
C486 N482 1.345 . S
C486 C487 1.371 . S
C486 H489 0.931 . S
C487 C483 1.391 . S
C487 C486 1.371 . S
C487 H494 0.930 . S
H488 C485 0.928 . S
H489 C486 0.931 . S
H490 C466 0.930 . S
H491 C463 0.930 . S
H492 C472 0.930 . S
H493 C484 0.929 . S
H494 C487 0.930 . S
C495 C496 1.351 . S
C495 N498 1.368 1_545 S
C495 H500 0.931 . S
C496 C495 1.351 . S
C496 N497 1.373 1_545 S
C496 H524 0.930 . S
N497 C496 1.373 1_565 S
N497 C499 1.340 . S
N498 C495 1.368 1_565 S
N498 C499 1.321 . S
N498 Co501 2.135 1_565 S
C499 N497 1.340 . S
C499 N498 1.321 . S
C499 H523 0.940 . S
H500 C495 0.931 . S
Co501 N498 2.135 1_545 S
Co501 N504 2.121 . S
Co501 O509 2.055 1_545 S
Co501 O512 2.039 1_545 S
Co501 N515 2.140 . S
C502 O503 1.227 1_565 S
C502 O512 1.265 1_455 S
O503 C502 1.227 1_545 S
N504 Co501 2.121 . S
N504 C506 1.375 . S
N504 C507 1.313 . S
C505 C506 1.338 . S
C505 N508 1.377 . S
C505 H525 0.930 . S
C506 N504 1.375 . S
C506 C505 1.338 . S
C506 H510 0.931 1_655 S
C507 N504 1.313 . S
C507 N508 1.344 . S
C507 H511 0.930 . S
N508 C505 1.377 . S
N508 C507 1.344 . S
O509 Co501 2.055 1_565 S
O509 C513 1.253 . S
H510 C506 0.931 1_455 S
H511 C507 0.930 . S
O512 Co501 2.039 1_565 S
O512 C502 1.265 1_655 S
C513 O509 1.253 . S
C513 O514 1.227 1_565 S
O514 C513 1.227 1_545 S
N515 Co501 2.140 . S
N515 C518 1.346 . S
N515 C519 1.345 . S
C516 C517 1.387 . S
C516 C520 1.391 . S
C517 C516 1.387 . S
C517 C518 1.369 . S
C517 H526 0.929 1_655 S
C518 N515 1.346 . S
C518 C517 1.369 . S
C518 H521 0.928 . S
C519 N515 1.345 . S
C519 C520 1.371 . S
C519 H522 0.931 . S
C520 C516 1.391 . S
C520 C519 1.371 . S
C520 H527 0.930 . S
H521 C518 0.928 . S
H522 C519 0.931 . S
H523 C499 0.940 . S
H524 C496 0.930 . S
H525 C505 0.930 . S
H526 C517 0.929 1_455 S
H527 C520 0.930 . S
C528 C529 1.351 . S
C528 N531 1.368 . S
C528 H533 0.931 . S
C529 C528 1.351 . S
C529 N530 1.373 . S
C529 H557 0.930 . S
N530 C529 1.373 . S
N530 C532 1.340 . S
N531 C528 1.368 . S
N531 C532 1.321 . S
N531 Co534 2.135 . S
C532 N530 1.340 . S
C532 N531 1.321 . S
C532 H556 0.930 . S
H533 C528 0.931 . S
Co534 N531 2.135 . S
Co534 N537 2.121 . S
Co534 O542 2.055 . S
Co534 O545 2.039 . S
Co534 N548 2.140 . S
C535 O536 1.227 . S
C535 O545 1.265 . S
O536 C535 1.227 . S
N537 Co534 2.121 . S
N537 C539 1.375 . S
N537 C540 1.313 . S
C538 C539 1.338 . S
C538 N541 1.377 . S
C538 H558 0.930 . S
C539 N537 1.375 . S
C539 C538 1.338 . S
C539 H543 0.931 . S
C540 N537 1.313 . S
C540 N541 1.344 . S
C540 H544 0.930 . S
N541 C538 1.377 . S
N541 C540 1.344 . S
O542 Co534 2.055 . S
O542 C546 1.253 . S
H543 C539 0.931 . S
H544 C540 0.930 . S
O545 Co534 2.039 . S
O545 C535 1.265 . S
C546 O542 1.253 . S
C546 O547 1.227 . S
O547 C546 1.227 . S
N548 Co534 2.140 . S
N548 C551 1.346 . S
N548 C552 1.345 . S
C549 C550 1.387 . S
C549 C553 1.391 . S
C550 C549 1.387 . S
C550 C551 1.369 . S
C550 H559 0.929 . S
C551 N548 1.346 . S
C551 C550 1.369 . S
C551 H554 0.928 . S
C552 N548 1.345 . S
C552 C553 1.371 . S
C552 H555 0.931 . S
C553 C549 1.391 . S
C553 C552 1.371 . S
C553 H560 0.930 . S
H554 C551 0.928 . S
H555 C552 0.931 . S
H556 C532 0.930 . S
H557 C529 0.930 . S
H558 C538 0.930 . S
H559 C550 0.929 . S
H560 C553 0.930 . S
C561 C562 1.351 . S
C561 N564 1.368 . S
C561 H566 0.931 . S
C562 C561 1.351 . S
C562 N563 1.373 . S
C562 H590 0.930 . S
N563 C562 1.373 . S
N563 C565 1.340 . S
N564 C561 1.368 . S
N564 C565 1.321 . S
N564 Co567 2.135 . S
C565 N563 1.340 . S
C565 N564 1.321 . S
C565 H589 0.930 . S
H566 C561 0.931 . S
Co567 N564 2.135 . S
Co567 N570 2.121 . S
Co567 O575 2.055 . S
Co567 O578 2.039 . S
Co567 N581 2.140 . S
C568 O569 1.227 . S
C568 O578 1.265 . S
O569 C568 1.227 . S
N570 Co567 2.121 . S
N570 C572 1.375 . S
N570 C573 1.313 . S
C571 C572 1.338 . S
C571 N574 1.377 . S
C571 H591 0.930 . S
C572 N570 1.375 . S
C572 C571 1.338 . S
C572 H576 0.931 . S
C573 N570 1.313 . S
C573 N574 1.344 . S
C573 H577 0.930 . S
N574 C571 1.377 . S
N574 C573 1.344 . S
O575 Co567 2.055 . S
O575 C579 1.253 . S
H576 C572 0.931 . S
H577 C573 0.930 . S
O578 Co567 2.039 . S
O578 C568 1.265 . S
C579 O575 1.253 . S
C579 O580 1.227 . S
O580 C579 1.227 . S
N581 Co567 2.140 . S
N581 C584 1.346 . S
N581 C585 1.345 . S
C582 C583 1.387 . S
C582 C586 1.391 . S
C583 C582 1.387 . S
C583 C584 1.369 . S
C583 H592 0.929 . S
C584 N581 1.346 . S
C584 C583 1.369 . S
C584 H587 0.928 . S
C585 N581 1.345 . S
C585 C586 1.371 . S
C585 H588 0.931 . S
C586 C582 1.391 . S
C586 C585 1.371 . S
C586 H593 0.930 . S
H587 C584 0.928 . S
H588 C585 0.931 . S
H589 C565 0.930 . S
H590 C562 0.930 . S
H591 C571 0.930 . S
H592 C583 0.929 . S
H593 C586 0.930 . S
C594 C595 1.351 . S
C594 N597 1.368 . S
C594 H599 0.931 . S
C595 C594 1.351 . S
C595 N596 1.373 . S
C595 H623 0.930 . S
N596 C595 1.373 . S
N596 C598 1.340 . S
N597 C594 1.368 . S
N597 C598 1.321 . S
N597 Co600 2.135 . S
C598 N596 1.340 . S
C598 N597 1.321 . S
C598 H622 0.930 . S
H599 C594 0.931 . S
Co600 N597 2.135 . S
Co600 N603 2.121 . S
Co600 O608 2.055 . S
Co600 O611 2.039 . S
Co600 N614 2.140 . S
C601 O602 1.227 . S
C601 O611 1.265 . S
O602 C601 1.227 . S
N603 Co600 2.121 . S
N603 C605 1.375 . S
N603 C606 1.313 . S
C604 C605 1.338 . S
C604 N607 1.377 . S
C604 H624 0.930 . S
C605 N603 1.375 . S
C605 C604 1.338 . S
C605 H609 0.931 . S
C606 N603 1.313 . S
C606 N607 1.344 . S
C606 H610 0.930 . S
N607 C604 1.377 . S
N607 C606 1.344 . S
O608 Co600 2.055 . S
O608 C612 1.253 . S
H609 C605 0.931 . S
H610 C606 0.930 . S
O611 Co600 2.039 . S
O611 C601 1.265 . S
C612 O608 1.253 . S
C612 O613 1.227 . S
O613 C612 1.227 . S
N614 Co600 2.140 . S
N614 C617 1.346 . S
N614 C618 1.345 . S
C615 C616 1.387 . S
C615 C619 1.391 . S
C616 C615 1.387 . S
C616 C617 1.369 . S
C616 H625 0.929 . S
C617 N614 1.346 . S
C617 C616 1.369 . S
C617 H620 0.928 . S
C618 N614 1.345 . S
C618 C619 1.371 . S
C618 H621 0.931 . S
C619 C615 1.391 . S
C619 C618 1.371 . S
C619 H626 0.930 . S
H620 C617 0.928 . S
H621 C618 0.931 . S
H622 C598 0.930 . S
H623 C595 0.930 . S
H624 C604 0.930 . S
H625 C616 0.929 . S
H626 C619 0.930 . S
C627 C628 1.351 . S
C627 N630 1.368 . S
C627 H632 0.931 . S
C628 C627 1.351 . S
C628 N629 1.373 . S
C628 H656 0.930 . S
N629 C628 1.373 . S
N629 C631 1.340 . S
N630 C627 1.368 . S
N630 C631 1.321 . S
N630 Co633 2.135 . S
C631 N629 1.340 . S
C631 N630 1.321 . S
C631 H655 0.940 . S
H632 C627 0.931 . S
Co633 N630 2.135 . S
Co633 N636 2.121 . S
Co633 O641 2.055 . S
Co633 O644 2.039 . S
Co633 N647 2.140 . S
C634 O635 1.227 . S
C634 O644 1.265 1_455 S
O635 C634 1.227 . S
N636 Co633 2.121 . S
N636 C638 1.375 . S
N636 C639 1.313 . S
C637 C638 1.338 . S
C637 N640 1.377 . S
C637 H657 0.930 . S
C638 N636 1.375 . S
C638 C637 1.338 . S
C638 H642 0.931 1_655 S
C639 N636 1.313 . S
C639 N640 1.344 . S
C639 H643 0.930 . S
N640 C637 1.377 . S
N640 C639 1.344 . S
O641 Co633 2.055 . S
O641 C645 1.253 . S
H642 C638 0.931 1_455 S
H643 C639 0.930 . S
O644 Co633 2.039 . S
O644 C634 1.265 1_655 S
C645 O641 1.253 . S
C645 O646 1.227 . S
O646 C645 1.227 . S
N647 Co633 2.140 . S
N647 C650 1.346 . S
N647 C651 1.345 . S
C648 C649 1.387 . S
C648 C652 1.391 . S
C649 C648 1.387 . S
C649 C650 1.369 . S
C649 H658 0.929 1_655 S
C650 N647 1.346 . S
C650 C649 1.369 . S
C650 H653 0.928 . S
C651 N647 1.345 . S
C651 C652 1.371 . S
C651 H654 0.931 . S
C652 C648 1.391 . S
C652 C651 1.371 . S
C652 H659 0.930 . S
H653 C650 0.928 . S
H654 C651 0.931 . S
H655 C631 0.940 . S
H656 C628 0.930 . S
H657 C637 0.930 . S
H658 C649 0.929 1_455 S
H659 C652 0.930 . S
C660 C661 1.351 . S
C660 N663 1.368 . S
C660 H665 0.931 . S
C661 C660 1.351 . S
C661 N662 1.373 . S
C661 H689 0.930 . S
N662 C661 1.373 . S
N662 C664 1.340 . S
N663 C660 1.368 . S
N663 C664 1.321 . S
N663 Co666 2.135 . S
C664 N662 1.340 . S
C664 N663 1.321 . S
C664 H688 0.930 . S
H665 C660 0.931 . S
Co666 N663 2.135 . S
Co666 N669 2.121 . S
Co666 O674 2.055 . S
Co666 O677 2.039 . S
Co666 N680 2.140 . S
C667 O668 1.227 . S
C667 O677 1.265 . S
O668 C667 1.227 . S
N669 Co666 2.121 . S
N669 C671 1.375 . S
N669 C672 1.313 . S
C670 C671 1.338 . S
C670 N673 1.377 . S
C670 H690 0.930 . S
C671 N669 1.375 . S
C671 C670 1.338 . S
C671 H675 0.931 . S
C672 N669 1.313 . S
C672 N673 1.344 . S
C672 H676 0.930 . S
N673 C670 1.377 . S
N673 C672 1.344 . S
O674 Co666 2.055 . S
O674 C678 1.253 . S
H675 C671 0.931 . S
H676 C672 0.930 . S
O677 Co666 2.039 . S
O677 C667 1.265 . S
C678 O674 1.253 . S
C678 O679 1.227 . S
O679 C678 1.227 . S
N680 Co666 2.140 . S
N680 C683 1.346 . S
N680 C684 1.345 . S
C681 C682 1.387 . S
C681 C685 1.391 . S
C682 C681 1.387 . S
C682 C683 1.369 . S
C682 H691 0.929 . S
C683 N680 1.346 . S
C683 C682 1.369 . S
C683 H686 0.928 . S
C684 N680 1.345 . S
C684 C685 1.371 . S
C684 H687 0.931 . S
C685 C681 1.391 . S
C685 C684 1.371 . S
C685 H692 0.930 . S
H686 C683 0.928 . S
H687 C684 0.931 . S
H688 C664 0.930 . S
H689 C661 0.930 . S
H690 C670 0.930 . S
H691 C682 0.929 . S
H692 C685 0.930 . S
C693 C694 1.351 . S
C693 N696 1.368 . S
C693 H698 0.931 . S
C694 C693 1.351 . S
C694 N695 1.373 . S
C694 H722 0.930 . S
N695 C694 1.373 . S
N695 C697 1.340 . S
N696 C693 1.368 . S
N696 C697 1.321 . S
N696 Co699 2.135 . S
C697 N695 1.340 . S
C697 N696 1.321 . S
C697 H721 0.940 . S
H698 C693 0.931 . S
Co699 N696 2.135 . S
Co699 N702 2.121 . S
Co699 O707 2.055 . S
Co699 O710 2.039 . S
Co699 N713 2.140 . S
C700 O701 1.227 . S
C700 O710 1.265 1_455 S
O701 C700 1.227 . S
N702 Co699 2.121 . S
N702 C704 1.375 . S
N702 C705 1.313 . S
C703 C704 1.338 . S
C703 N706 1.377 . S
C703 H723 0.930 . S
C704 N702 1.375 . S
C704 C703 1.338 . S
C704 H708 0.931 1_655 S
C705 N702 1.313 . S
C705 N706 1.344 . S
C705 H709 0.930 . S
N706 C703 1.377 . S
N706 C705 1.344 . S
O707 Co699 2.055 . S
O707 C711 1.253 . S
H708 C704 0.931 1_455 S
H709 C705 0.930 . S
O710 Co699 2.039 . S
O710 C700 1.265 1_655 S
C711 O707 1.253 . S
C711 O712 1.227 . S
O712 C711 1.227 . S
N713 Co699 2.140 . S
N713 C716 1.346 . S
N713 C717 1.345 . S
C714 C715 1.387 . S
C714 C718 1.391 . S
C715 C714 1.387 . S
C715 C716 1.369 . S
C715 H724 0.929 1_655 S
C716 N713 1.346 . S
C716 C715 1.369 . S
C716 H719 0.928 . S
C717 N713 1.345 . S
C717 C718 1.371 . S
C717 H720 0.931 . S
C718 C714 1.391 . S
C718 C717 1.371 . S
C718 H725 0.930 . S
H719 C716 0.928 . S
H720 C717 0.931 . S
H721 C697 0.940 . S
H722 C694 0.930 . S
H723 C703 0.930 . S
H724 C715 0.929 1_455 S
H725 C718 0.930 . S
C726 C727 1.351 . S
C726 N729 1.368 . S
C726 H731 0.931 . S
C727 C726 1.351 . S
C727 N728 1.373 . S
C727 H755 0.930 . S
N728 C727 1.373 . S
N728 C730 1.340 . S
N729 C726 1.368 . S
N729 C730 1.321 . S
N729 Co732 2.135 . S
C730 N728 1.340 . S
C730 N729 1.321 . S
C730 H754 0.930 . S
H731 C726 0.931 . S
Co732 N729 2.135 . S
Co732 N735 2.121 . S
Co732 O740 2.055 . S
Co732 O743 2.039 . S
Co732 N746 2.140 . S
C733 O734 1.227 . S
C733 O743 1.265 . S
O734 C733 1.227 . S
N735 Co732 2.121 . S
N735 C737 1.375 . S
N735 C738 1.313 . S
C736 C737 1.338 . S
C736 N739 1.377 . S
C736 H756 0.930 . S
C737 N735 1.375 . S
C737 C736 1.338 . S
C737 H741 0.931 . S
C738 N735 1.313 . S
C738 N739 1.344 . S
C738 H742 0.930 . S
N739 C736 1.377 . S
N739 C738 1.344 . S
O740 Co732 2.055 . S
O740 C744 1.253 . S
H741 C737 0.931 . S
H742 C738 0.930 . S
O743 Co732 2.039 . S
O743 C733 1.265 . S
C744 O740 1.253 . S
C744 O745 1.227 . S
O745 C744 1.227 . S
N746 Co732 2.140 . S
N746 C749 1.346 . S
N746 C750 1.345 . S
C747 C748 1.387 . S
C747 C751 1.391 . S
C748 C747 1.387 . S
C748 C749 1.369 . S
C748 H757 0.929 . S
C749 N746 1.346 . S
C749 C748 1.369 . S
C749 H752 0.928 . S
C750 N746 1.345 . S
C750 C751 1.371 . S
C750 H753 0.931 . S
C751 C747 1.391 . S
C751 C750 1.371 . S
C751 H758 0.930 . S
H752 C749 0.928 . S
H753 C750 0.931 . S
H754 C730 0.930 . S
H755 C727 0.930 . S
H756 C736 0.930 . S
H757 C748 0.929 . S
H758 C751 0.930 . S
C759 C760 1.351 . S
C759 N762 1.368 . S
C759 H764 0.931 . S
C760 C759 1.351 . S
C760 N761 1.373 . S
C760 H788 0.930 . S
N761 C760 1.373 . S
N761 C763 1.340 . S
N762 C759 1.368 . S
N762 C763 1.321 . S
N762 Co765 2.135 . S
C763 N761 1.340 . S
C763 N762 1.321 . S
C763 H787 0.930 . S
H764 C759 0.931 . S
Co765 N762 2.135 . S
Co765 N768 2.121 . S
Co765 O773 2.055 . S
Co765 O776 2.039 . S
Co765 N779 2.140 . S
C766 O767 1.227 . S
C766 O776 1.265 . S
O767 C766 1.227 . S
N768 Co765 2.121 . S
N768 C770 1.375 . S
N768 C771 1.313 . S
C769 C770 1.338 . S
C769 N772 1.377 . S
C769 H789 0.930 . S
C770 N768 1.375 . S
C770 C769 1.338 . S
C770 H774 0.931 . S
C771 N768 1.313 . S
C771 N772 1.344 . S
C771 H775 0.930 . S
N772 C769 1.377 . S
N772 C771 1.344 . S
O773 Co765 2.055 . S
O773 C777 1.253 . S
H774 C770 0.931 . S
H775 C771 0.930 . S
O776 Co765 2.039 . S
O776 C766 1.265 . S
C777 O773 1.253 . S
C777 O778 1.227 . S
O778 C777 1.227 . S
N779 Co765 2.140 . S
N779 C782 1.346 . S
N779 C783 1.345 . S
C780 C781 1.387 . S
C780 C784 1.391 . S
C781 C780 1.387 . S
C781 C782 1.369 . S
C781 H790 0.929 . S
C782 N779 1.346 . S
C782 C781 1.369 . S
C782 H785 0.928 . S
C783 N779 1.345 . S
C783 C784 1.371 . S
C783 H786 0.931 . S
C784 C780 1.391 . S
C784 C783 1.371 . S
C784 H791 0.930 . S
H785 C782 0.928 . S
H786 C783 0.931 . S
H787 C763 0.930 . S
H788 C760 0.930 . S
H789 C769 0.930 . S
H790 C781 0.929 . S
H791 C784 0.930 . S
C792 C793 1.351 . S
C792 N795 1.368 . S
C792 H797 0.931 . S
C793 C792 1.351 . S
C793 N794 1.373 . S
C793 H821 0.930 . S
N794 C793 1.373 . S
N794 C796 1.340 . S
N795 C792 1.368 . S
N795 C796 1.321 . S
N795 Co798 2.135 . S
C796 N794 1.340 . S
C796 N795 1.321 . S
C796 H820 0.930 . S
H797 C792 0.931 . S
Co798 N795 2.135 . S
Co798 N801 2.121 . S
Co798 O806 2.055 . S
Co798 O809 2.039 . S
Co798 N812 2.140 . S
C799 O800 1.227 . S
C799 O809 1.265 . S
O800 C799 1.227 . S
N801 Co798 2.121 . S
N801 C803 1.375 . S
N801 C804 1.313 . S
C802 C803 1.338 . S
C802 N805 1.377 . S
C802 H822 0.930 . S
C803 N801 1.375 . S
C803 C802 1.338 . S
C803 H807 0.931 . S
C804 N801 1.313 . S
C804 N805 1.344 . S
C804 H808 0.930 . S
N805 C802 1.377 . S
N805 C804 1.344 . S
O806 Co798 2.055 . S
O806 C810 1.253 . S
H807 C803 0.931 . S
H808 C804 0.930 . S
O809 Co798 2.039 . S
O809 C799 1.265 . S
C810 O806 1.253 . S
C810 O811 1.227 . S
O811 C810 1.227 . S
N812 Co798 2.140 . S
N812 C815 1.346 . S
N812 C816 1.345 . S
C813 C814 1.387 . S
C813 C817 1.391 . S
C814 C813 1.387 . S
C814 C815 1.369 . S
C814 H823 0.929 . S
C815 N812 1.346 . S
C815 C814 1.369 . S
C815 H818 0.928 . S
C816 N812 1.345 . S
C816 C817 1.371 . S
C816 H819 0.931 . S
C817 C813 1.391 . S
C817 C816 1.371 . S
C817 H824 0.930 . S
H818 C815 0.928 . S
H819 C816 0.931 . S
H820 C796 0.930 . S
H821 C793 0.930 . S
H822 C802 0.930 . S
H823 C814 0.929 . S
H824 C817 0.930 . S
C825 C826 1.351 . S
C825 N828 1.368 . S
C825 H830 0.931 . S
C826 C825 1.351 . S
C826 N827 1.373 . S
C826 H854 0.930 . S
N827 C826 1.373 . S
N827 C829 1.340 . S
N828 C825 1.368 . S
N828 C829 1.321 . S
N828 Co831 2.135 . S
C829 N827 1.340 . S
C829 N828 1.321 . S
C829 H853 0.930 . S
H830 C825 0.931 . S
Co831 N828 2.135 . S
Co831 N834 2.121 . S
Co831 O839 2.055 . S
Co831 O842 2.039 . S
Co831 N845 2.140 . S
C832 O833 1.227 . S
C832 O842 1.265 . S
O833 C832 1.227 . S
N834 Co831 2.121 . S
N834 C836 1.375 . S
N834 C837 1.313 . S
C835 C836 1.338 . S
C835 N838 1.377 . S
C835 H855 0.930 . S
C836 N834 1.375 . S
C836 C835 1.338 . S
C836 H840 0.931 . S
C837 N834 1.313 . S
C837 N838 1.344 . S
C837 H841 0.930 . S
N838 C835 1.377 . S
N838 C837 1.344 . S
O839 Co831 2.055 . S
O839 C843 1.253 . S
H840 C836 0.931 . S
H841 C837 0.930 . S
O842 Co831 2.039 . S
O842 C832 1.265 . S
C843 O839 1.253 . S
C843 O844 1.227 . S
O844 C843 1.227 . S
N845 Co831 2.140 . S
N845 C848 1.346 . S
N845 C849 1.345 . S
C846 C847 1.387 . S
C846 C850 1.391 . S
C847 C846 1.387 . S
C847 C848 1.369 . S
C847 H856 0.929 . S
C848 N845 1.346 . S
C848 C847 1.369 . S
C848 H851 0.928 . S
C849 N845 1.345 . S
C849 C850 1.371 . S
C849 H852 0.931 . S
C850 C846 1.391 . S
C850 C849 1.371 . S
C850 H857 0.930 . S
H851 C848 0.928 . S
H852 C849 0.931 . S
H853 C829 0.930 . S
H854 C826 0.930 . S
H855 C835 0.930 . S
H856 C847 0.929 . S
H857 C850 0.930 . S
C858 C859 1.351 . S
C858 N861 1.368 . S
C858 H863 0.931 . S
C859 C858 1.351 . S
C859 N860 1.373 . S
C859 H887 0.930 . S
N860 C859 1.373 . S
N860 C862 1.340 . S
N861 C858 1.368 . S
N861 C862 1.321 . S
N861 Co864 2.135 . S
C862 N860 1.340 . S
C862 N861 1.321 . S
C862 H886 0.930 . S
H863 C858 0.931 . S
Co864 N861 2.135 . S
Co864 N867 2.121 . S
Co864 O872 2.055 . S
Co864 O875 2.039 . S
Co864 N878 2.140 . S
C865 O866 1.227 . S
C865 O875 1.265 . S
O866 C865 1.227 . S
N867 Co864 2.121 . S
N867 C869 1.375 . S
N867 C870 1.313 . S
C868 C869 1.338 . S
C868 N871 1.377 . S
C868 H888 0.930 . S
C869 N867 1.375 . S
C869 C868 1.338 . S
C869 H873 0.931 . S
C870 N867 1.313 . S
C870 N871 1.344 . S
C870 H874 0.930 . S
N871 C868 1.377 . S
N871 C870 1.344 . S
O872 Co864 2.055 . S
O872 C876 1.253 . S
H873 C869 0.931 . S
H874 C870 0.930 . S
O875 Co864 2.039 . S
O875 C865 1.265 . S
C876 O872 1.253 . S
C876 O877 1.227 . S
O877 C876 1.227 . S
N878 Co864 2.140 . S
N878 C881 1.346 . S
N878 C882 1.345 . S
C879 C880 1.387 . S
C879 C883 1.391 . S
C880 C879 1.387 . S
C880 C881 1.369 . S
C880 H889 0.929 . S
C881 N878 1.346 . S
C881 C880 1.369 . S
C881 H884 0.928 . S
C882 N878 1.345 . S
C882 C883 1.371 . S
C882 H885 0.931 . S
C883 C879 1.391 . S
C883 C882 1.371 . S
C883 H890 0.930 . S
H884 C881 0.928 . S
H885 C882 0.931 . S
H886 C862 0.930 . S
H887 C859 0.930 . S
H888 C868 0.930 . S
H889 C880 0.929 . S
H890 C883 0.930 . S
C891 C892 1.351 . S
C891 N894 1.368 . S
C891 H896 0.931 . S
C892 C891 1.351 . S
C892 N893 1.373 . S
C892 H920 0.930 . S
N893 C892 1.373 . S
N893 C895 1.340 . S
N894 C891 1.368 . S
N894 C895 1.321 . S
N894 Co897 2.135 . S
C895 N893 1.340 . S
C895 N894 1.321 . S
C895 H919 0.940 . S
H896 C891 0.931 . S
Co897 N894 2.135 . S
Co897 N900 2.121 . S
Co897 O905 2.055 . S
Co897 O908 2.039 . S
Co897 N911 2.140 . S
C898 O899 1.227 . S
C898 O908 1.265 1_655 S
O899 C898 1.227 . S
N900 Co897 2.121 . S
N900 C902 1.375 . S
N900 C903 1.313 . S
C901 C902 1.338 . S
C901 N904 1.377 . S
C901 H921 0.930 . S
C902 N900 1.375 . S
C902 C901 1.338 . S
C902 H906 0.931 1_455 S
C903 N900 1.313 . S
C903 N904 1.344 . S
C903 H907 0.930 . S
N904 C901 1.377 . S
N904 C903 1.344 . S
O905 Co897 2.055 . S
O905 C909 1.253 . S
H906 C902 0.931 1_655 S
H907 C903 0.930 . S
O908 Co897 2.039 . S
O908 C898 1.265 1_455 S
C909 O905 1.253 . S
C909 O910 1.227 . S
O910 C909 1.227 . S
N911 Co897 2.140 . S
N911 C914 1.346 . S
N911 C915 1.345 . S
C912 C913 1.387 . S
C912 C916 1.391 . S
C913 C912 1.387 . S
C913 C914 1.369 . S
C913 H922 0.929 1_455 S
C914 N911 1.346 . S
C914 C913 1.369 . S
C914 H917 0.928 . S
C915 N911 1.345 . S
C915 C916 1.371 . S
C915 H918 0.931 . S
C916 C912 1.391 . S
C916 C915 1.371 . S
C916 H923 0.930 . S
H917 C914 0.928 . S
H918 C915 0.931 . S
H919 C895 0.940 . S
H920 C892 0.930 . S
H921 C901 0.930 . S
H922 C913 0.929 1_655 S
H923 C916 0.930 . S
C924 C925 1.351 . S
C924 N927 1.368 . S
C924 H929 0.931 . S
C925 C924 1.351 . S
C925 N926 1.373 . S
C925 H953 0.930 . S
N926 C925 1.373 . S
N926 C928 1.340 . S
N927 C924 1.368 . S
N927 C928 1.321 . S
N927 Co930 2.135 . S
C928 N926 1.340 . S
C928 N927 1.321 . S
C928 H952 0.930 . S
H929 C924 0.931 . S
Co930 N927 2.135 . S
Co930 N933 2.121 . S
Co930 O938 2.055 . S
Co930 O941 2.039 . S
Co930 N944 2.140 . S
C931 O932 1.227 . S
C931 O941 1.265 . S
O932 C931 1.227 . S
N933 Co930 2.121 . S
N933 C935 1.375 . S
N933 C936 1.313 . S
C934 C935 1.338 . S
C934 N937 1.377 . S
C934 H954 0.930 . S
C935 N933 1.375 . S
C935 C934 1.338 . S
C935 H939 0.931 . S
C936 N933 1.313 . S
C936 N937 1.344 . S
C936 H940 0.930 . S
N937 C934 1.377 . S
N937 C936 1.344 . S
O938 Co930 2.055 . S
O938 C942 1.253 . S
H939 C935 0.931 . S
H940 C936 0.930 . S
O941 Co930 2.039 . S
O941 C931 1.265 . S
C942 O938 1.253 . S
C942 O943 1.227 . S
O943 C942 1.227 . S
N944 Co930 2.140 . S
N944 C947 1.346 . S
N944 C948 1.345 . S
C945 C946 1.387 . S
C945 C949 1.391 . S
C946 C945 1.387 . S
C946 C947 1.369 . S
C946 H955 0.929 . S
C947 N944 1.346 . S
C947 C946 1.369 . S
C947 H950 0.928 . S
C948 N944 1.345 . S
C948 C949 1.371 . S
C948 H951 0.931 . S
C949 C945 1.391 . S
C949 C948 1.371 . S
C949 H956 0.930 . S
H950 C947 0.928 . S
H951 C948 0.931 . S
H952 C928 0.930 . S
H953 C925 0.930 . S
H954 C934 0.930 . S
H955 C946 0.929 . S
H956 C949 0.930 . S
C957 C958 1.351 . S
C957 N960 1.368 . S
C957 H962 0.931 . S
C958 C957 1.351 . S
C958 N959 1.373 . S
C958 H986 0.930 . S
N959 C958 1.373 . S
N959 C961 1.340 . S
N960 C957 1.368 . S
N960 C961 1.321 . S
N960 Co963 2.135 . S
C961 N959 1.340 . S
C961 N960 1.321 . S
C961 H985 0.940 . S
H962 C957 0.931 . S
Co963 N960 2.135 . S
Co963 N966 2.121 . S
Co963 O971 2.055 . S
Co963 O974 2.039 . S
Co963 N977 2.140 . S
C964 O965 1.227 . S
C964 O974 1.265 1_655 S
O965 C964 1.227 . S
N966 Co963 2.121 . S
N966 C968 1.375 . S
N966 C969 1.313 . S
C967 C968 1.338 . S
C967 N970 1.377 . S
C967 H987 0.930 . S
C968 N966 1.375 . S
C968 C967 1.338 . S
C968 H972 0.931 1_455 S
C969 N966 1.313 . S
C969 N970 1.344 . S
C969 H973 0.930 . S
N970 C967 1.377 . S
N970 C969 1.344 . S
O971 Co963 2.055 . S
O971 C975 1.253 . S
H972 C968 0.931 1_655 S
H973 C969 0.930 . S
O974 Co963 2.039 . S
O974 C964 1.265 1_455 S
C975 O971 1.253 . S
C975 O976 1.227 . S
O976 C975 1.227 . S
N977 Co963 2.140 . S
N977 C980 1.346 . S
N977 C981 1.345 . S
C978 C979 1.387 . S
C978 C982 1.391 . S
C979 C978 1.387 . S
C979 C980 1.369 . S
C979 H988 0.929 1_455 S
C980 N977 1.346 . S
C980 C979 1.369 . S
C980 H983 0.928 . S
C981 N977 1.345 . S
C981 C982 1.371 . S
C981 H984 0.931 . S
C982 C978 1.391 . S
C982 C981 1.371 . S
C982 H989 0.930 . S
H983 C980 0.928 . S
H984 C981 0.931 . S
H985 C961 0.940 . S
H986 C958 0.930 . S
H987 C967 0.930 . S
H988 C979 0.929 1_655 S
H989 C982 0.930 . S
C990 C991 1.351 . S
C990 N993 1.368 . S
C990 H995 0.931 . S
C991 C990 1.351 . S
C991 N992 1.373 . S
C991 H1019 0.930 . S
N992 C991 1.373 . S
N992 C994 1.340 . S
N993 C990 1.368 . S
N993 C994 1.321 . S
N993 Co996 2.135 . S
C994 N992 1.340 . S
C994 N993 1.321 . S
C994 H1018 0.930 . S
H995 C990 0.931 . S
Co996 N993 2.135 . S
Co996 N999 2.121 . S
Co996 O1004 2.055 . S
Co996 O1007 2.039 . S
Co996 N1010 2.140 . S
C997 O998 1.227 . S
C997 O1007 1.265 . S
O998 C997 1.227 . S
N999 Co996 2.121 . S
N999 C1001 1.375 . S
N999 C1002 1.313 . S
C1000 C1001 1.338 . S
C1000 N1003 1.377 . S
C1000 H1020 0.930 . S
C1001 N999 1.375 . S
C1001 C1000 1.338 . S
C1001 H1005 0.931 . S
C1002 N999 1.313 . S
C1002 N1003 1.344 . S
C1002 H1006 0.930 . S
N1003 C1000 1.377 . S
N1003 C1002 1.344 . S
O1004 Co996 2.055 . S
O1004 C1008 1.253 . S
H1005 C1001 0.931 . S
H1006 C1002 0.930 . S
O1007 Co996 2.039 . S
O1007 C997 1.265 . S
C1008 O1004 1.253 . S
C1008 O1009 1.227 . S
O1009 C1008 1.227 . S
N1010 Co996 2.140 . S
N1010 C1013 1.346 . S
N1010 C1014 1.345 . S
C1011 C1012 1.387 . S
C1011 C1015 1.391 . S
C1012 C1011 1.387 . S
C1012 C1013 1.369 . S
C1012 H1021 0.929 . S
C1013 N1010 1.346 . S
C1013 C1012 1.369 . S
C1013 H1016 0.928 . S
C1014 N1010 1.345 . S
C1014 C1015 1.371 . S
C1014 H1017 0.931 . S
C1015 C1011 1.391 . S
C1015 C1014 1.371 . S
C1015 H1022 0.930 . S
H1016 C1013 0.928 . S
H1017 C1014 0.931 . S
H1018 C994 0.930 . S
H1019 C991 0.930 . S
H1020 C1000 0.930 . S
H1021 C1012 0.929 . S
H1022 C1015 0.930 . S
C1023 C1024 1.351 . S
C1023 N1026 1.368 . S
C1023 H1028 0.931 . S
C1024 C1023 1.351 . S
C1024 N1025 1.373 . S
C1024 H1052 0.930 . S
N1025 C1024 1.373 . S
N1025 C1027 1.340 . S
N1026 C1023 1.368 . S
N1026 C1027 1.321 . S
N1026 Co1029 2.135 . S
C1027 N1025 1.340 . S
C1027 N1026 1.321 . S
C1027 H1051 0.930 . S
H1028 C1023 0.931 . S
Co1029 N1026 2.135 . S
Co1029 N1032 2.121 . S
Co1029 O1037 2.055 . S
Co1029 O1040 2.039 . S
Co1029 N1043 2.140 . S
C1030 O1031 1.227 . S
C1030 O1040 1.265 . S
O1031 C1030 1.227 . S
N1032 Co1029 2.121 . S
N1032 C1034 1.375 . S
N1032 C1035 1.313 . S
C1033 C1034 1.338 . S
C1033 N1036 1.377 . S
C1033 H1053 0.930 . S
C1034 N1032 1.375 . S
C1034 C1033 1.338 . S
C1034 H1038 0.931 . S
C1035 N1032 1.313 . S
C1035 N1036 1.344 . S
C1035 H1039 0.930 . S
N1036 C1033 1.377 . S
N1036 C1035 1.344 . S
O1037 Co1029 2.055 . S
O1037 C1041 1.253 . S
H1038 C1034 0.931 . S
H1039 C1035 0.930 . S
O1040 Co1029 2.039 . S
O1040 C1030 1.265 . S
C1041 O1037 1.253 . S
C1041 O1042 1.227 . S
O1042 C1041 1.227 . S
N1043 Co1029 2.140 . S
N1043 C1046 1.346 . S
N1043 C1047 1.345 . S
C1044 C1045 1.387 . S
C1044 C1048 1.391 . S
C1045 C1044 1.387 . S
C1045 C1046 1.369 . S
C1045 H1054 0.929 . S
C1046 N1043 1.346 . S
C1046 C1045 1.369 . S
C1046 H1049 0.928 . S
C1047 N1043 1.345 . S
C1047 C1048 1.371 . S
C1047 H1050 0.931 . S
C1048 C1044 1.391 . S
C1048 C1047 1.371 . S
C1048 H1055 0.930 . S
H1049 C1046 0.928 . S
H1050 C1047 0.931 . S
H1051 C1027 0.930 . S
H1052 C1024 0.930 . S
H1053 C1033 0.930 . S
H1054 C1045 0.929 . S
H1055 C1048 0.930 . S
C1056 C1057 1.387 . S
C1056 H1060 0.950 . S
C1056 C1065 1.390 . S
C1057 C1056 1.387 . S
C1057 C1059 1.387 . S
H1058 C1065 0.950 . S
C1059 C1057 1.387 . S
C1059 C1061 1.390 . S
C1059 H1063 0.950 . S
H1060 C1056 0.950 . S
C1061 C1059 1.390 . S
C1061 C1062 1.387 . S
C1061 H1064 0.950 . S
C1062 C1061 1.387 . S
C1062 C1065 1.387 . S
H1063 C1059 0.950 . S
H1064 C1061 0.950 . S
C1065 C1056 1.390 . S
C1065 H1058 0.950 . S
C1065 C1062 1.387 . S
C1066 C1067 1.387 . S
C1066 H1070 0.950 . S
C1066 C1075 1.390 1_655 S
C1067 C1066 1.387 . S
C1067 C1069 1.387 . S
H1068 C1075 0.950 . S
C1069 C1067 1.387 . S
C1069 C1071 1.390 1_655 S
C1069 H1073 0.950 . S
H1070 C1066 0.950 . S
C1071 C1069 1.390 1_455 S
C1071 C1072 1.387 . S
C1071 H1074 0.950 . S
C1072 C1071 1.387 . S
C1072 C1075 1.387 . S
H1073 C1069 0.950 . S
H1074 C1071 0.950 . S
C1075 C1066 1.390 1_455 S
C1075 H1068 0.950 . S
C1075 C1072 1.387 . S
C1076 C1077 1.387 . S
C1076 H1080 0.950 . S
C1076 C1085 1.390 1_655 S
C1077 C1076 1.387 . S
C1077 C1079 1.387 . S
H1078 C1085 0.950 . S
C1079 C1077 1.387 . S
C1079 C1081 1.390 1_655 S
C1079 H1083 0.950 . S
H1080 C1076 0.950 . S
C1081 C1079 1.390 1_455 S
C1081 C1082 1.387 . S
C1081 H1084 0.950 . S
C1082 C1081 1.387 . S
C1082 C1085 1.387 . S
H1083 C1079 0.950 . S
H1084 C1081 0.950 . S
C1085 C1076 1.390 1_455 S
C1085 H1078 0.950 . S
C1085 C1082 1.387 . S
C1086 C1087 1.387 . S
C1086 H1090 0.950 . S
C1086 C1095 1.390 . S
C1087 C1086 1.387 . S
C1087 C1089 1.387 . S
H1088 C1095 0.950 . S
C1089 C1087 1.387 . S
C1089 C1091 1.390 . S
C1089 H1093 0.950 . S
H1090 C1086 0.950 . S
C1091 C1089 1.390 . S
C1091 C1092 1.387 . S
C1091 H1094 0.950 . S
C1092 C1091 1.387 . S
C1092 C1095 1.387 . S
H1093 C1089 0.950 . S
H1094 C1091 0.950 . S
C1095 C1086 1.390 . S
C1095 H1088 0.950 . S
C1095 C1092 1.387 . S
C1096 C1097 1.387 . S
C1096 H1100 0.950 . S
C1096 C1105 1.390 . S
C1097 C1096 1.387 . S
C1097 C1099 1.387 . S
H1098 C1105 0.950 . S
C1099 C1097 1.387 . S
C1099 C1101 1.390 . S
C1099 H1103 0.950 . S
H1100 C1096 0.950 . S
C1101 C1099 1.390 . S
C1101 C1102 1.387 . S
C1101 H1104 0.950 . S
C1102 C1101 1.387 . S
C1102 C1105 1.387 . S
H1103 C1099 0.950 . S
H1104 C1101 0.950 . S
C1105 C1096 1.390 . S
C1105 H1098 0.950 . S
C1105 C1102 1.387 . S
C1106 C1107 1.387 . S
C1106 H1110 0.950 . S
C1106 C1115 1.390 . S
C1107 C1106 1.387 . S
C1107 C1109 1.387 . S
H1108 C1115 0.950 . S
C1109 C1107 1.387 . S
C1109 C1111 1.390 . S
C1109 H1113 0.950 . S
H1110 C1106 0.950 . S
C1111 C1109 1.390 . S
C1111 C1112 1.387 . S
C1111 H1114 0.950 . S
C1112 C1111 1.387 . S
C1112 C1115 1.387 . S
H1113 C1109 0.950 . S
H1114 C1111 0.950 . S
C1115 C1106 1.390 . S
C1115 H1108 0.950 . S
C1115 C1112 1.387 . S
C1116 C1117 1.387 . S
C1116 H1120 0.950 . S
C1116 C1125 1.390 1_455 S
C1117 C1116 1.387 . S
C1117 C1119 1.387 . S
H1118 C1125 0.950 . S
C1119 C1117 1.387 . S
C1119 C1121 1.390 1_455 S
C1119 H1123 0.950 . S
H1120 C1116 0.950 . S
C1121 C1119 1.390 1_655 S
C1121 C1122 1.387 . S
C1121 H1124 0.950 . S
C1122 C1121 1.387 . S
C1122 C1125 1.387 . S
H1123 C1119 0.950 . S
H1124 C1121 0.950 . S
C1125 C1116 1.390 1_655 S
C1125 H1118 0.950 . S
C1125 C1122 1.387 . S
C1126 C1127 1.387 . S
C1126 H1130 0.950 . S
C1126 C1135 1.390 1_455 S
C1127 C1126 1.387 . S
C1127 C1129 1.387 . S
H1128 C1135 0.950 . S
C1129 C1127 1.387 . S
C1129 C1131 1.390 1_455 S
C1129 H1133 0.950 . S
H1130 C1126 0.950 . S
C1131 C1129 1.390 1_655 S
C1131 C1132 1.387 . S
C1131 H1134 0.950 . S
C1132 C1131 1.387 . S
C1132 C1135 1.387 . S
H1133 C1129 0.950 . S
H1134 C1131 0.950 . S
C1135 C1126 1.390 1_655 S
C1135 H1128 0.950 . S
C1135 C1132 1.387 . S
C1136 C1137 1.387 . S
C1136 H1140 0.950 . S
C1136 C1145 1.390 . S
C1137 C1136 1.387 . S
C1137 C1139 1.387 . S
H1138 C1145 0.950 . S
C1139 C1137 1.387 . S
C1139 C1141 1.390 . S
C1139 H1143 0.950 . S
H1140 C1136 0.950 . S
C1141 C1139 1.390 . S
C1141 C1142 1.387 . S
C1141 H1144 0.950 . S
C1142 C1141 1.387 . S
C1142 C1145 1.387 . S
H1143 C1139 0.950 . S
H1144 C1141 0.950 . S
C1145 C1136 1.390 . S
C1145 H1138 0.950 . S
C1145 C1142 1.387 . S
C1146 C1147 1.387 . S
C1146 H1150 0.950 . S
C1146 C1155 1.390 1_455 S
C1147 C1146 1.387 . S
C1147 C1149 1.387 . S
H1148 C1155 0.950 . S
C1149 C1147 1.387 . S
C1149 C1151 1.390 1_455 S
C1149 H1153 0.950 . S
H1150 C1146 0.950 . S
C1151 C1149 1.390 1_655 S
C1151 C1152 1.387 . S
C1151 H1154 0.950 . S
C1152 C1151 1.387 . S
C1152 C1155 1.387 . S
H1153 C1149 0.950 . S
H1154 C1151 0.950 . S
C1155 C1146 1.390 1_655 S
C1155 H1148 0.950 . S
C1155 C1152 1.387 . S
C1156 C1157 1.387 . S
C1156 H1160 0.950 . S
C1156 C1165 1.390 1_655 S
C1157 C1156 1.387 . S
C1157 C1159 1.387 . S
H1158 C1165 0.950 . S
C1159 C1157 1.387 . S
C1159 C1161 1.390 1_655 S
C1159 H1163 0.950 . S
H1160 C1156 0.950 . S
C1161 C1159 1.390 1_455 S
C1161 C1162 1.387 . S
C1161 H1164 0.950 . S
C1162 C1161 1.387 . S
C1162 C1165 1.387 . S
H1163 C1159 0.950 . S
H1164 C1161 0.950 . S
C1165 C1156 1.390 1_455 S
C1165 H1158 0.950 . S
C1165 C1162 1.387 . S
C1166 C1167 1.387 . S
C1166 H1170 0.950 . S
C1166 C1175 1.390 . S
C1167 C1166 1.387 . S
C1167 C1169 1.387 . S
H1168 C1175 0.950 . S
C1169 C1167 1.387 . S
C1169 C1171 1.390 . S
C1169 H1173 0.950 . S
H1170 C1166 0.950 . S
C1171 C1169 1.390 . S
C1171 C1172 1.387 . S
C1171 H1174 0.950 . S
C1172 C1171 1.387 . S
C1172 C1175 1.387 . S
H1173 C1169 0.950 . S
H1174 C1171 0.950 . S
C1175 C1166 1.390 . S
C1175 H1168 0.950 . S
C1175 C1172 1.387 . S
C1176 C1177 1.387 . S
C1176 H1180 0.950 . S
C1176 C1185 1.390 . S
C1177 C1176 1.387 . S
C1177 C1179 1.387 . S
H1178 C1185 0.950 . S
C1179 C1177 1.387 . S
C1179 C1181 1.390 . S
C1179 H1183 0.950 . S
H1180 C1176 0.950 . S
C1181 C1179 1.390 . S
C1181 C1182 1.387 . S
C1181 H1184 0.950 . S
C1182 C1181 1.387 . S
C1182 C1185 1.387 . S
H1183 C1179 0.950 . S
H1184 C1181 0.950 . S
C1185 C1176 1.390 . S
C1185 H1178 0.950 . S
C1185 C1182 1.387 . S
C1186 C1187 1.387 . S
C1186 H1190 0.950 . S
C1186 C1195 1.390 . S
C1187 C1186 1.387 . S
C1187 C1189 1.387 . S
H1188 C1195 0.950 . S
C1189 C1187 1.387 . S
C1189 C1191 1.390 . S
C1189 H1193 0.950 . S
H1190 C1186 0.950 . S
C1191 C1189 1.390 . S
C1191 C1192 1.387 . S
C1191 H1194 0.950 . S
C1192 C1191 1.387 . S
C1192 C1195 1.387 . S
H1193 C1189 0.950 . S
H1194 C1191 0.950 . S
C1195 C1186 1.390 . S
C1195 H1188 0.950 . S
C1195 C1192 1.387 . S
C1196 C1197 1.387 . S
C1196 H1200 0.950 . S
C1196 C1205 1.390 1_455 S
C1197 C1196 1.387 . S
C1197 C1199 1.387 . S
H1198 C1205 0.950 . S
C1199 C1197 1.387 . S
C1199 C1201 1.390 1_455 S
C1199 H1203 0.950 . S
H1200 C1196 0.950 . S
C1201 C1199 1.390 1_655 S
C1201 C1202 1.387 . S
C1201 H1204 0.950 . S
C1202 C1201 1.387 . S
C1202 C1205 1.387 . S
H1203 C1199 0.950 . S
H1204 C1201 0.950 . S
C1205 C1196 1.390 1_655 S
C1205 H1198 0.950 . S
C1205 C1202 1.387 . S
C1206 C1207 1.387 . S
C1206 H1210 0.950 . S
C1206 C1215 1.390 1_655 S
C1207 C1206 1.387 . S
C1207 C1209 1.387 . S
H1208 C1215 0.950 . S
C1209 C1207 1.387 . S
C1209 C1211 1.390 1_655 S
C1209 H1213 0.950 . S
H1210 C1206 0.950 . S
C1211 C1209 1.390 1_455 S
C1211 C1212 1.387 . S
C1211 H1214 0.950 . S
C1212 C1211 1.387 . S
C1212 C1215 1.387 . S
H1213 C1209 0.950 . S
H1214 C1211 0.950 . S
C1215 C1206 1.390 1_455 S
C1215 H1208 0.950 . S
C1215 C1212 1.387 . S
C1216 C1217 1.387 . S
C1216 H1220 0.950 . S
C1216 C1225 1.390 . S
C1217 C1216 1.387 . S
C1217 C1219 1.387 . S
H1218 C1225 0.950 . S
C1219 C1217 1.387 . S
C1219 C1221 1.390 . S
C1219 H1223 0.950 . S
H1220 C1216 0.950 . S
C1221 C1219 1.390 . S
C1221 C1222 1.387 . S
C1221 H1224 0.950 . S
C1222 C1221 1.387 . S
C1222 C1225 1.387 . S
H1223 C1219 0.950 . S
H1224 C1221 0.950 . S
C1225 C1216 1.390 . S
C1225 H1218 0.950 . S
C1225 C1222 1.387 . S
C1226 C1227 1.387 1_565 S
C1226 H1230 0.950 . S
C1226 C1235 1.390 1_655 S
C1227 C1226 1.387 1_545 S
C1227 C1229 1.387 . S
H1228 C1235 0.950 . S
C1229 C1227 1.387 . S
C1229 C1231 1.390 1_655 S
C1229 H1233 0.950 . S
H1230 C1226 0.950 . S
C1231 C1229 1.390 1_455 S
C1231 C1232 1.387 1_545 S
C1231 H1234 0.950 . S
C1232 C1231 1.387 1_565 S
C1232 C1235 1.387 . S
H1233 C1229 0.950 . S
H1234 C1231 0.950 . S
C1235 C1226 1.390 1_455 S
C1235 H1228 0.950 . S
C1235 C1232 1.387 . S
C1236 C1237 1.387 . S
C1236 H1240 0.950 . S
C1236 C1245 1.390 . S
C1237 C1236 1.387 . S
C1237 C1239 1.387 . S
H1238 C1245 0.950 . S
C1239 C1237 1.387 . S
C1239 C1241 1.390 . S
C1239 H1243 0.950 . S
H1240 C1236 0.950 . S
C1241 C1239 1.390 . S
C1241 C1242 1.387 . S
C1241 H1244 0.950 . S
C1242 C1241 1.387 . S
C1242 C1245 1.387 . S
H1243 C1239 0.950 . S
H1244 C1241 0.950 . S
C1245 C1236 1.390 . S
C1245 H1238 0.950 . S
C1245 C1242 1.387 . S
C1246 C1247 1.387 1_565 S
C1246 H1250 0.950 . S
C1246 C1255 1.390 1_554 S
C1247 C1246 1.387 1_545 S
C1247 C1249 1.387 . S
H1248 C1255 0.950 . S
C1249 C1247 1.387 . S
C1249 C1251 1.390 1_554 S
C1249 H1253 0.950 . S
H1250 C1246 0.950 . S
C1251 C1249 1.390 1_556 S
C1251 C1252 1.387 1_545 S
C1251 H1254 0.950 . S
C1252 C1251 1.387 1_565 S
C1252 C1255 1.387 . S
H1253 C1249 0.950 . S
H1254 C1251 0.950 . S
C1255 C1246 1.390 1_556 S
C1255 H1248 0.950 . S
C1255 C1252 1.387 . S
C1256 C1257 1.387 . S
C1256 H1260 0.950 . S
C1256 C1265 1.390 . S
C1257 C1256 1.387 . S
C1257 C1259 1.387 . S
H1258 C1265 0.950 . S
C1259 C1257 1.387 . S
C1259 C1261 1.390 . S
C1259 H1263 0.950 . S
H1260 C1256 0.950 . S
C1261 C1259 1.390 . S
C1261 C1262 1.387 . S
C1261 H1264 0.950 . S
C1262 C1261 1.387 . S
C1262 C1265 1.387 . S
H1263 C1259 0.950 . S
H1264 C1261 0.950 . S
C1265 C1256 1.390 . S
C1265 H1258 0.950 . S
C1265 C1262 1.387 . S
C1266 C1267 1.387 . S
C1266 H1270 0.950 . S
C1266 C1275 1.390 . S
C1267 C1266 1.387 . S
C1267 C1269 1.387 1_565 S
H1268 C1275 0.950 . S
C1269 C1267 1.387 1_545 S
C1269 C1271 1.390 . S
C1269 H1273 0.950 . S
H1270 C1266 0.950 . S
C1271 C1269 1.390 . S
C1271 C1272 1.387 . S
C1271 H1274 0.950 . S
C1272 C1271 1.387 . S
C1272 C1275 1.387 1_545 S
H1273 C1269 0.950 . S
H1274 C1271 0.950 . S
C1275 C1266 1.390 . S
C1275 H1268 0.950 . S
C1275 C1272 1.387 1_565 S
C1276 C1277 1.387 . S
C1276 H1280 0.950 . S
C1276 C1285 1.390 . S
C1277 C1276 1.387 . S
C1277 C1279 1.387 . S
H1278 C1285 0.950 . S
C1279 C1277 1.387 . S
C1279 C1281 1.390 . S
C1279 H1283 0.950 . S
H1280 C1276 0.950 . S
C1281 C1279 1.390 . S
C1281 C1282 1.387 . S
C1281 H1284 0.950 . S
C1282 C1281 1.387 . S
C1282 C1285 1.387 . S
H1283 C1279 0.950 . S
H1284 C1281 0.950 . S
C1285 C1276 1.390 . S
C1285 H1278 0.950 . S
C1285 C1282 1.387 . S
C1286 C1287 1.387 1_455 S
C1286 H1290 0.950 . S
C1286 C1295 1.390 1_554 S
C1287 C1286 1.387 1_655 S
C1287 C1289 1.387 1_565 S
H1288 C1295 0.950 . S
C1289 C1287 1.387 1_545 S
C1289 C1291 1.390 1_554 S
C1289 H1293 0.950 . S
H1290 C1286 0.950 . S
C1291 C1289 1.390 1_556 S
C1291 C1292 1.387 1_655 S
C1291 H1294 0.950 . S
C1292 C1291 1.387 1_455 S
C1292 C1295 1.387 1_545 S
H1293 C1289 0.950 . S
H1294 C1291 0.950 . S
C1295 C1286 1.390 1_556 S
C1295 H1288 0.950 . S
C1295 C1292 1.387 1_565 S
C1296 C1297 1.387 . S
C1296 H1300 0.950 . S
C1296 C1305 1.390 . S
C1297 C1296 1.387 . S
C1297 C1299 1.387 . S
H1298 C1305 0.950 . S
C1299 C1297 1.387 . S
C1299 C1301 1.390 . S
C1299 H1303 0.950 . S
H1300 C1296 0.950 . S
C1301 C1299 1.390 . S
C1301 C1302 1.387 . S
C1301 H1304 0.950 . S
C1302 C1301 1.387 . S
C1302 C1305 1.387 . S
H1303 C1299 0.950 . S
H1304 C1301 0.950 . S
C1305 C1296 1.390 . S
C1305 H1298 0.950 . S
C1305 C1302 1.387 . S
C1306 C1307 1.387 . S
C1306 H1310 0.950 . S
C1306 C1315 1.390 . S
C1307 C1306 1.387 . S
C1307 C1309 1.387 . S
H1308 C1315 0.950 . S
C1309 C1307 1.387 . S
C1309 C1311 1.390 . S
C1309 H1313 0.950 . S
H1310 C1306 0.950 . S
C1311 C1309 1.390 . S
C1311 C1312 1.387 . S
C1311 H1314 0.950 . S
C1312 C1311 1.387 . S
C1312 C1315 1.387 . S
H1313 C1309 0.950 . S
H1314 C1311 0.950 . S
C1315 C1306 1.390 . S
C1315 H1308 0.950 . S
C1315 C1312 1.387 . S
C1316 C1317 1.387 . S
C1316 H1320 0.950 . S
C1316 C1325 1.390 . S
C1317 C1316 1.387 . S
C1317 C1319 1.387 . S
H1318 C1325 0.950 . S
C1319 C1317 1.387 . S
C1319 C1321 1.390 . S
C1319 H1323 0.950 . S
H1320 C1316 0.950 . S
C1321 C1319 1.390 . S
C1321 C1322 1.387 . S
C1321 H1324 0.950 . S
C1322 C1321 1.387 . S
C1322 C1325 1.387 . S
H1323 C1319 0.950 . S
H1324 C1321 0.950 . S
C1325 C1316 1.390 . S
C1325 H1318 0.950 . S
C1325 C1322 1.387 . S
C1326 C1327 1.387 . S
C1326 H1330 0.950 . S
C1326 C1335 1.390 . S
C1327 C1326 1.387 . S
C1327 C1329 1.387 . S
H1328 C1335 0.950 . S
C1329 C1327 1.387 . S
C1329 C1331 1.390 . S
C1329 H1333 0.950 . S
H1330 C1326 0.950 . S
C1331 C1329 1.390 . S
C1331 C1332 1.387 . S
C1331 H1334 0.950 . S
C1332 C1331 1.387 . S
C1332 C1335 1.387 . S
H1333 C1329 0.950 . S
H1334 C1331 0.950 . S
C1335 C1326 1.390 . S
C1335 H1328 0.950 . S
C1335 C1332 1.387 . S
C1336 C1337 1.387 . S
C1336 H1340 0.950 . S
C1336 C1345 1.390 1_556 S
C1337 C1336 1.387 . S
C1337 C1339 1.387 . S
H1338 C1345 0.950 . S
C1339 C1337 1.387 . S
C1339 C1341 1.390 1_556 S
C1339 H1343 0.950 . S
H1340 C1336 0.950 . S
C1341 C1339 1.390 1_554 S
C1341 C1342 1.387 . S
C1341 H1344 0.950 . S
C1342 C1341 1.387 . S
C1342 C1345 1.387 . S
H1343 C1339 0.950 . S
H1344 C1341 0.950 . S
C1345 C1336 1.390 1_554 S
C1345 H1338 0.950 . S
C1345 C1342 1.387 . S
C1346 C1347 1.387 1_655 S
C1346 H1350 0.950 . S
C1346 C1355 1.390 . S
C1347 C1346 1.387 1_455 S
C1347 C1349 1.387 . S
H1348 C1355 0.950 . S
C1349 C1347 1.387 . S
C1349 C1351 1.390 . S
C1349 H1353 0.950 . S
H1350 C1346 0.950 . S
C1351 C1349 1.390 . S
C1351 C1352 1.387 1_455 S
C1351 H1354 0.950 . S
C1352 C1351 1.387 1_655 S
C1352 C1355 1.387 . S
H1353 C1349 0.950 . S
H1354 C1351 0.950 . S
C1355 C1346 1.390 . S
C1355 H1348 0.950 . S
C1355 C1352 1.387 . S
C1356 C1357 1.387 . S
C1356 H1360 0.950 . S
C1356 C1365 1.390 1_656 S
C1357 C1356 1.387 . S
C1357 C1359 1.387 . S
H1358 C1365 0.950 . S
C1359 C1357 1.387 . S
C1359 C1361 1.390 1_656 S
C1359 H1363 0.950 . S
H1360 C1356 0.950 . S
C1361 C1359 1.390 1_454 S
C1361 C1362 1.387 . S
C1361 H1364 0.950 . S
C1362 C1361 1.387 . S
C1362 C1365 1.387 . S
H1363 C1359 0.950 . S
H1364 C1361 0.950 . S
C1365 C1356 1.390 1_454 S
C1365 H1358 0.950 . S
C1365 C1362 1.387 . S
C1366 C1367 1.387 . S
C1366 H1370 0.950 . S
C1366 C1375 1.390 . S
C1367 C1366 1.387 . S
C1367 C1369 1.387 . S
H1368 C1375 0.950 . S
C1369 C1367 1.387 . S
C1369 C1371 1.390 . S
C1369 H1373 0.950 . S
H1370 C1366 0.950 . S
C1371 C1369 1.390 . S
C1371 C1372 1.387 . S
C1371 H1374 0.950 . S
C1372 C1371 1.387 . S
C1372 C1375 1.387 . S
H1373 C1369 0.950 . S
H1374 C1371 0.950 . S
C1375 C1366 1.390 . S
C1375 H1368 0.950 . S
C1375 C1372 1.387 . S
C1376 C1377 1.387 . S
C1376 H1380 0.950 . S
C1376 C1385 1.390 . S
C1377 C1376 1.387 . S
C1377 C1379 1.387 . S
H1378 C1385 0.950 . S
C1379 C1377 1.387 . S
C1379 C1381 1.390 . S
C1379 H1383 0.950 . S
H1380 C1376 0.950 . S
C1381 C1379 1.390 . S
C1381 C1382 1.387 . S
C1381 H1384 0.950 . S
C1382 C1381 1.387 . S
C1382 C1385 1.387 . S
H1383 C1379 0.950 . S
H1384 C1381 0.950 . S
C1385 C1376 1.390 . S
C1385 H1378 0.950 . S
C1385 C1382 1.387 . S
C1386 C1387 1.387 . S
C1386 H1390 0.950 . S
C1386 C1395 1.390 1_565 S
C1387 C1386 1.387 . S
C1387 C1389 1.387 1_565 S
H1388 C1395 0.950 . S
C1389 C1387 1.387 1_545 S
C1389 C1391 1.390 . S
C1389 H1393 0.950 . S
H1390 C1386 0.950 . S
C1391 C1389 1.390 . S
C1391 C1392 1.387 . S
C1391 H1394 0.950 . S
C1392 C1391 1.387 . S
C1392 C1395 1.387 . S
H1393 C1389 0.950 . S
H1394 C1391 0.950 . S
C1395 C1386 1.390 1_545 S
C1395 H1388 0.950 . S
C1395 C1392 1.387 . S
C1396 C1397 1.387 . S
C1396 H1400 0.950 . S
C1396 C1405 1.390 . S
C1397 C1396 1.387 . S
C1397 C1399 1.387 . S
H1398 C1405 0.950 . S
C1399 C1397 1.387 . S
C1399 C1401 1.390 . S
C1399 H1403 0.950 . S
H1400 C1396 0.950 . S
C1401 C1399 1.390 . S
C1401 C1402 1.387 . S
C1401 H1404 0.950 . S
C1402 C1401 1.387 . S
C1402 C1405 1.387 . S
H1403 C1399 0.950 . S
H1404 C1401 0.950 . S
C1405 C1396 1.390 . S
C1405 H1398 0.950 . S
C1405 C1402 1.387 . S
C1406 C1407 1.387 . S
C1406 H1410 0.950 . S
C1406 C1415 1.390 . S
C1407 C1406 1.387 . S
C1407 C1409 1.387 1_565 S
H1408 C1415 0.950 . S
C1409 C1407 1.387 1_545 S
C1409 C1411 1.390 . S
C1409 H1413 0.950 . S
H1410 C1406 0.950 . S
C1411 C1409 1.390 . S
C1411 C1412 1.387 . S
C1411 H1414 0.950 . S
C1412 C1411 1.387 . S
C1412 C1415 1.387 1_545 S
H1413 C1409 0.950 . S
H1414 C1411 0.950 . S
C1415 C1406 1.390 . S
C1415 H1408 0.950 . S
C1415 C1412 1.387 1_565 S
C1416 C1417 1.387 . S
C1416 H1420 0.950 . S
C1416 C1425 1.390 . S
C1417 C1416 1.387 . S
C1417 C1419 1.387 . S
H1418 C1425 0.950 . S
C1419 C1417 1.387 . S
C1419 C1421 1.390 . S
C1419 H1423 0.950 . S
H1420 C1416 0.950 . S
C1421 C1419 1.390 . S
C1421 C1422 1.387 . S
C1421 H1424 0.950 . S
C1422 C1421 1.387 . S
C1422 C1425 1.387 . S
H1423 C1419 0.950 . S
H1424 C1421 0.950 . S
C1425 C1416 1.390 . S
C1425 H1418 0.950 . S
C1425 C1422 1.387 . S
C1426 C1427 1.387 . S
C1426 H1430 0.950 . S
C1426 C1435 1.390 . S
C1427 C1426 1.387 . S
C1427 C1429 1.387 . S
H1428 C1435 0.950 . S
C1429 C1427 1.387 . S
C1429 C1431 1.390 1_545 S
C1429 H1433 0.950 . S
H1430 C1426 0.950 . S
C1431 C1429 1.390 1_565 S
C1431 C1432 1.387 . S
C1431 H1434 0.950 . S
C1432 C1431 1.387 . S
C1432 C1435 1.387 1_565 S
H1433 C1429 0.950 . S
H1434 C1431 0.950 . S
C1435 C1426 1.390 . S
C1435 H1428 0.950 . S
C1435 C1432 1.387 1_545 S
C1436 C1437 1.387 . S
C1436 H1440 0.950 . S
C1436 C1445 1.390 . S
C1437 C1436 1.387 . S
C1437 C1439 1.387 . S
H1438 C1445 0.950 . S
C1439 C1437 1.387 . S
C1439 C1441 1.390 . S
C1439 H1443 0.950 . S
H1440 C1436 0.950 . S
C1441 C1439 1.390 . S
C1441 C1442 1.387 . S
C1441 H1444 0.950 . S
C1442 C1441 1.387 . S
C1442 C1445 1.387 . S
H1443 C1439 0.950 . S
H1444 C1441 0.950 . S
C1445 C1436 1.390 . S
C1445 H1438 0.950 . S
C1445 C1442 1.387 . S
C1446 C1447 1.387 . S
C1446 H1450 0.950 . S
C1446 C1455 1.390 1_565 S
C1447 C1446 1.387 . S
C1447 C1449 1.387 . S
H1448 C1455 0.950 . S
C1449 C1447 1.387 . S
C1449 C1451 1.390 . S
C1449 H1453 0.950 . S
H1450 C1446 0.950 . S
C1451 C1449 1.390 . S
C1451 C1452 1.387 1_565 S
C1451 H1454 0.950 . S
C1452 C1451 1.387 1_545 S
C1452 C1455 1.387 . S
H1453 C1449 0.950 . S
H1454 C1451 0.950 . S
C1455 C1446 1.390 1_545 S
C1455 H1448 0.950 . S
C1455 C1452 1.387 . S
C1456 C1457 1.387 . S
C1456 H1460 0.950 . S
C1456 C1465 1.390 . S
C1457 C1456 1.387 . S
C1457 C1459 1.387 . S
H1458 C1465 0.950 . S
C1459 C1457 1.387 . S
C1459 C1461 1.390 . S
C1459 H1463 0.950 . S
H1460 C1456 0.950 . S
C1461 C1459 1.390 . S
C1461 C1462 1.387 . S
C1461 H1464 0.950 . S
C1462 C1461 1.387 . S
C1462 C1465 1.387 . S
H1463 C1459 0.950 . S
H1464 C1461 0.950 . S
C1465 C1456 1.390 . S
C1465 H1458 0.950 . S
C1465 C1462 1.387 . S
C1466 C1467 1.387 1_565 S
C1466 H1470 0.950 . S
C1466 C1475 1.390 . S
C1467 C1466 1.387 1_545 S
C1467 C1469 1.387 . S
H1468 C1475 0.950 . S
C1469 C1467 1.387 . S
C1469 C1471 1.390 1_545 S
C1469 H1473 0.950 . S
H1470 C1466 0.950 . S
C1471 C1469 1.390 1_565 S
C1471 C1472 1.387 . S
C1471 H1474 0.950 . S
C1472 C1471 1.387 . S
C1472 C1475 1.387 . S
H1473 C1469 0.950 . S
H1474 C1471 0.950 . S
C1475 C1466 1.390 . S
C1475 H1468 0.950 . S
C1475 C1472 1.387 . S
C1476 C1477 1.387 . S
C1476 H1480 0.950 . S
C1476 C1485 1.390 . S
C1477 C1476 1.387 . S
C1477 C1479 1.387 . S
H1478 C1485 0.950 . S
C1479 C1477 1.387 . S
C1479 C1481 1.390 . S
C1479 H1483 0.950 . S
H1480 C1476 0.950 . S
C1481 C1479 1.390 . S
C1481 C1482 1.387 . S
C1481 H1484 0.950 . S
C1482 C1481 1.387 . S
C1482 C1485 1.387 . S
H1483 C1479 0.950 . S
H1484 C1481 0.950 . S
C1485 C1476 1.390 . S
C1485 H1478 0.950 . S
C1485 C1482 1.387 . S
C1486 C1487 1.387 . S
C1486 H1490 0.950 . S
C1486 C1495 1.390 1_565 S
C1487 C1486 1.387 . S
C1487 C1489 1.387 1_565 S
H1488 C1495 0.950 . S
C1489 C1487 1.387 1_545 S
C1489 C1491 1.390 . S
C1489 H1493 0.950 . S
H1490 C1486 0.950 . S
C1491 C1489 1.390 . S
C1491 C1492 1.387 . S
C1491 H1494 0.950 . S
C1492 C1491 1.387 . S
C1492 C1495 1.387 . S
H1493 C1489 0.950 . S
H1494 C1491 0.950 . S
C1495 C1486 1.390 1_545 S
C1495 H1488 0.950 . S
C1495 C1492 1.387 . S
C1496 C1497 1.387 . S
C1496 H1500 0.950 . S
C1496 C1505 1.390 . S
C1497 C1496 1.387 . S
C1497 C1499 1.387 . S
H1498 C1505 0.950 . S
C1499 C1497 1.387 . S
C1499 C1501 1.390 . S
C1499 H1503 0.950 . S
H1500 C1496 0.950 . S
C1501 C1499 1.390 . S
C1501 C1502 1.387 . S
C1501 H1504 0.950 . S
C1502 C1501 1.387 . S
C1502 C1505 1.387 . S
H1503 C1499 0.950 . S
H1504 C1501 0.950 . S
C1505 C1496 1.390 . S
C1505 H1498 0.950 . S
C1505 C1502 1.387 . S
C1506 C1507 1.387 . S
C1506 H1510 0.950 . S
C1506 C1515 1.390 . S
C1507 C1506 1.387 . S
C1507 C1509 1.387 . S
H1508 C1515 0.950 . S
C1509 C1507 1.387 . S
C1509 C1511 1.390 1_565 S
C1509 H1513 0.950 1_565 S
H1510 C1506 0.950 . S
C1511 C1509 1.390 1_545 S
C1511 C1512 1.387 . S
C1511 H1514 0.950 . S
C1512 C1511 1.387 . S
C1512 C1515 1.387 1_545 S
H1513 C1509 0.950 1_545 S
H1514 C1511 0.950 . S
C1515 C1506 1.390 . S
C1515 H1508 0.950 . S
C1515 C1512 1.387 1_565 S
C1516 C1517 1.387 . S
C1516 H1520 0.950 . S
C1516 C1525 1.390 . S
C1517 C1516 1.387 . S
C1517 C1519 1.387 . S
H1518 C1525 0.950 . S
C1519 C1517 1.387 . S
C1519 C1521 1.390 . S
C1519 H1523 0.950 . S
H1520 C1516 0.950 . S
C1521 C1519 1.390 . S
C1521 C1522 1.387 . S
C1521 H1524 0.950 . S
C1522 C1521 1.387 . S
C1522 C1525 1.387 . S
H1523 C1519 0.950 . S
H1524 C1521 0.950 . S
C1525 C1516 1.390 . S
C1525 H1518 0.950 . S
C1525 C1522 1.387 . S
C1526 C1527 1.387 1_545 S
C1526 H1530 0.950 . S
C1526 C1535 1.390 . S
C1527 C1526 1.387 1_565 S
C1527 C1529 1.387 . S
H1528 C1535 0.950 . S
C1529 C1527 1.387 . S
C1529 C1531 1.390 1_565 S
C1529 H1533 0.950 . S
H1530 C1526 0.950 . S
C1531 C1529 1.390 1_545 S
C1531 C1532 1.387 . S
C1531 H1534 0.950 . S
C1532 C1531 1.387 . S
C1532 C1535 1.387 . S
H1533 C1529 0.950 . S
H1534 C1531 0.950 . S
C1535 C1526 1.390 . S
C1535 H1528 0.950 . S
C1535 C1532 1.387 . S
C1536 C1537 1.387 . S
C1536 H1540 0.950 . S
C1536 C1545 1.390 . S
C1537 C1536 1.387 . S
C1537 C1539 1.387 . S
H1538 C1545 0.950 . S
C1539 C1537 1.387 . S
C1539 C1541 1.390 . S
C1539 H1543 0.950 . S
H1540 C1536 0.950 . S
C1541 C1539 1.390 . S
C1541 C1542 1.387 . S
C1541 H1544 0.950 . S
C1542 C1541 1.387 . S
C1542 C1545 1.387 . S
H1543 C1539 0.950 . S
H1544 C1541 0.950 . S
C1545 C1536 1.390 . S
C1545 H1538 0.950 . S
C1545 C1542 1.387 . S
C1546 C1547 1.387 . S
C1546 H1550 0.950 . S
C1546 C1555 1.390 . S
C1547 C1546 1.387 . S
C1547 C1549 1.387 . S
H1548 C1555 0.950 . S
C1549 C1547 1.387 . S
C1549 C1551 1.390 . S
C1549 H1553 0.950 . S
H1550 C1546 0.950 . S
C1551 C1549 1.390 . S
C1551 C1552 1.387 . S
C1551 H1554 0.950 . S
C1552 C1551 1.387 . S
C1552 C1555 1.387 . S
H1553 C1549 0.950 . S
H1554 C1551 0.950 . S
C1555 C1546 1.390 . S
C1555 H1548 0.950 . S
C1555 C1552 1.387 . S
C1556 C1557 1.387 . S
C1556 H1560 0.950 . S
C1556 C1565 1.390 . S
C1557 C1556 1.387 . S
C1557 C1559 1.387 . S
H1558 C1565 0.950 . S
C1559 C1557 1.387 . S
C1559 C1561 1.390 . S
C1559 H1563 0.950 . S
H1560 C1556 0.950 . S
C1561 C1559 1.390 . S
C1561 C1562 1.387 . S
C1561 H1564 0.950 . S
C1562 C1561 1.387 . S
C1562 C1565 1.387 . S
H1563 C1559 0.950 . S
H1564 C1561 0.950 . S
C1565 C1556 1.390 . S
C1565 H1558 0.950 . S
C1565 C1562 1.387 . S
C1566 C1567 1.387 . S
C1566 H1570 0.950 . S
C1566 C1575 1.390 . S
C1567 C1566 1.387 . S
C1567 C1569 1.387 . S
H1568 C1575 0.950 . S
C1569 C1567 1.387 . S
C1569 C1571 1.390 . S
C1569 H1573 0.950 . S
H1570 C1566 0.950 . S
C1571 C1569 1.390 . S
C1571 C1572 1.387 . S
C1571 H1574 0.950 . S
C1572 C1571 1.387 . S
C1572 C1575 1.387 . S
H1573 C1569 0.950 . S
H1574 C1571 0.950 . S
C1575 C1566 1.390 . S
C1575 H1568 0.950 . S
C1575 C1572 1.387 . S
C1576 C1577 1.387 . S
C1576 H1580 0.950 . S
C1576 C1585 1.390 . S
C1577 C1576 1.387 . S
C1577 C1579 1.387 . S
H1578 C1585 0.950 . S
C1579 C1577 1.387 . S
C1579 C1581 1.390 . S
C1579 H1583 0.950 . S
H1580 C1576 0.950 . S
C1581 C1579 1.390 . S
C1581 C1582 1.387 . S
C1581 H1584 0.950 . S
C1582 C1581 1.387 . S
C1582 C1585 1.387 . S
H1583 C1579 0.950 . S
H1584 C1581 0.950 . S
C1585 C1576 1.390 . S
C1585 H1578 0.950 . S
C1585 C1582 1.387 . S
C1586 C1587 1.387 . S
C1586 H1590 0.950 . S
C1586 C1595 1.390 . S
C1587 C1586 1.387 . S
C1587 C1589 1.387 . S
H1588 C1595 0.950 . S
C1589 C1587 1.387 . S
C1589 C1591 1.390 . S
C1589 H1593 0.950 . S
H1590 C1586 0.950 . S
C1591 C1589 1.390 . S
C1591 C1592 1.387 . S
C1591 H1594 0.950 . S
C1592 C1591 1.387 . S
C1592 C1595 1.387 . S
H1593 C1589 0.950 . S
H1594 C1591 0.950 . S
C1595 C1586 1.390 . S
C1595 H1588 0.950 . S
C1595 C1592 1.387 . S
C1596 C1597 1.387 . S
C1596 H1600 0.950 . S
C1596 C1605 1.390 . S
C1597 C1596 1.387 . S
C1597 C1599 1.387 . S
H1598 C1605 0.950 . S
C1599 C1597 1.387 . S
C1599 C1601 1.390 . S
C1599 H1603 0.950 . S
H1600 C1596 0.950 . S
C1601 C1599 1.390 . S
C1601 C1602 1.387 . S
C1601 H1604 0.950 . S
C1602 C1601 1.387 . S
C1602 C1605 1.387 . S
H1603 C1599 0.950 . S
H1604 C1601 0.950 . S
C1605 C1596 1.390 . S
C1605 H1598 0.950 . S
C1605 C1602 1.387 . S
C1606 C1607 1.387 . S
C1606 H1610 0.950 . S
C1606 C1615 1.390 . S
C1607 C1606 1.387 . S
C1607 C1609 1.387 . S
H1608 C1615 0.950 . S
C1609 C1607 1.387 . S
C1609 C1611 1.390 . S
C1609 H1613 0.950 . S
H1610 C1606 0.950 . S
C1611 C1609 1.390 . S
C1611 C1612 1.387 . S
C1611 H1614 0.950 . S
C1612 C1611 1.387 . S
C1612 C1615 1.387 . S
H1613 C1609 0.950 . S
H1614 C1611 0.950 . S
C1615 C1606 1.390 . S
C1615 H1608 0.950 . S
C1615 C1612 1.387 . S
C1616 C1617 1.387 . S
C1616 H1620 0.950 . S
C1616 C1625 1.390 . S
C1617 C1616 1.387 . S
C1617 C1619 1.387 . S
H1618 C1625 0.950 . S
C1619 C1617 1.387 . S
C1619 C1621 1.390 . S
C1619 H1623 0.950 . S
H1620 C1616 0.950 . S
C1621 C1619 1.390 . S
C1621 C1622 1.387 . S
C1621 H1624 0.950 . S
C1622 C1621 1.387 . S
C1622 C1625 1.387 . S
H1623 C1619 0.950 . S
H1624 C1621 0.950 . S
C1625 C1616 1.390 . S
C1625 H1618 0.950 . S
C1625 C1622 1.387 . S
C1626 C1627 1.387 . S
C1626 H1630 0.950 . S
C1626 C1635 1.390 . S
C1627 C1626 1.387 . S
C1627 C1629 1.387 . S
H1628 C1635 0.950 . S
C1629 C1627 1.387 . S
C1629 C1631 1.390 . S
C1629 H1633 0.950 . S
H1630 C1626 0.950 . S
C1631 C1629 1.390 . S
C1631 C1632 1.387 . S
C1631 H1634 0.950 . S
C1632 C1631 1.387 . S
C1632 C1635 1.387 . S
H1633 C1629 0.950 . S
H1634 C1631 0.950 . S
C1635 C1626 1.390 . S
C1635 H1628 0.950 . S
C1635 C1632 1.387 . S
C1636 C1637 1.387 . S
C1636 H1640 0.950 . S
C1636 C1645 1.390 . S
C1637 C1636 1.387 . S
C1637 C1639 1.387 . S
H1638 C1645 0.950 . S
C1639 C1637 1.387 . S
C1639 C1641 1.390 . S
C1639 H1643 0.950 . S
H1640 C1636 0.950 . S
C1641 C1639 1.390 . S
C1641 C1642 1.387 . S
C1641 H1644 0.950 . S
C1642 C1641 1.387 . S
C1642 C1645 1.387 . S
H1643 C1639 0.950 . S
H1644 C1641 0.950 . S
C1645 C1636 1.390 . S
C1645 H1638 0.950 . S
C1645 C1642 1.387 . S
C1646 C1647 1.387 . S
C1646 H1650 0.950 . S
C1646 C1655 1.390 . S
C1647 C1646 1.387 . S
C1647 C1649 1.387 . S
H1648 C1655 0.950 . S
C1649 C1647 1.387 . S
C1649 C1651 1.390 . S
C1649 H1653 0.950 . S
H1650 C1646 0.950 . S
C1651 C1649 1.390 . S
C1651 C1652 1.387 . S
C1651 H1654 0.950 . S
C1652 C1651 1.387 . S
C1652 C1655 1.387 . S
H1653 C1649 0.950 . S
H1654 C1651 0.950 . S
C1655 C1646 1.390 . S
C1655 H1648 0.950 . S
C1655 C1652 1.387 . S
C1656 C1657 1.387 . S
C1656 H1660 0.950 . S
C1656 C1665 1.390 . S
C1657 C1656 1.387 . S
C1657 C1659 1.387 . S
H1658 C1665 0.950 . S
C1659 C1657 1.387 . S
C1659 C1661 1.390 . S
C1659 H1663 0.950 . S
H1660 C1656 0.950 . S
C1661 C1659 1.390 . S
C1661 C1662 1.387 . S
C1661 H1664 0.950 . S
C1662 C1661 1.387 . S
C1662 C1665 1.387 . S
H1663 C1659 0.950 . S
H1664 C1661 0.950 . S
C1665 C1656 1.390 . S
C1665 H1658 0.950 . S
C1665 C1662 1.387 . S
C1666 C1667 1.387 . S
C1666 H1670 0.950 . S
C1666 C1675 1.390 . S
C1667 C1666 1.387 . S
C1667 C1669 1.387 . S
H1668 C1675 0.950 . S
C1669 C1667 1.387 . S
C1669 C1671 1.390 . S
C1669 H1673 0.950 . S
H1670 C1666 0.950 . S
C1671 C1669 1.390 . S
C1671 C1672 1.387 . S
C1671 H1674 0.950 . S
C1672 C1671 1.387 . S
C1672 C1675 1.387 . S
H1673 C1669 0.950 . S
H1674 C1671 0.950 . S
C1675 C1666 1.390 . S
C1675 H1668 0.950 . S
C1675 C1672 1.387 . S
C1676 C1677 1.387 . S
C1676 H1680 0.950 . S
C1676 C1685 1.390 . S
C1677 C1676 1.387 . S
C1677 C1679 1.387 . S
H1678 C1685 0.950 . S
C1679 C1677 1.387 . S
C1679 C1681 1.390 . S
C1679 H1683 0.950 . S
H1680 C1676 0.950 . S
C1681 C1679 1.390 . S
C1681 C1682 1.387 . S
C1681 H1684 0.950 . S
C1682 C1681 1.387 . S
C1682 C1685 1.387 . S
H1683 C1679 0.950 . S
H1684 C1681 0.950 . S
C1685 C1676 1.390 . S
C1685 H1678 0.950 . S
C1685 C1682 1.387 . S
C1686 C1687 1.387 . S
C1686 H1690 0.950 . S
C1686 C1695 1.390 . S
C1687 C1686 1.387 . S
C1687 C1689 1.387 . S
H1688 C1695 0.950 . S
C1689 C1687 1.387 . S
C1689 C1691 1.390 . S
C1689 H1693 0.950 . S
H1690 C1686 0.950 . S
C1691 C1689 1.390 . S
C1691 C1692 1.387 . S
C1691 H1694 0.950 . S
C1692 C1691 1.387 . S
C1692 C1695 1.387 . S
H1693 C1689 0.950 . S
H1694 C1691 0.950 . S
C1695 C1686 1.390 . S
C1695 H1688 0.950 . S
C1695 C1692 1.387 . S
C1696 C1697 1.387 . S
C1696 H1700 0.950 . S
C1696 C1705 1.390 . S
C1697 C1696 1.387 . S
C1697 C1699 1.387 . S
H1698 C1705 0.950 . S
C1699 C1697 1.387 . S
C1699 C1701 1.390 . S
C1699 H1703 0.950 . S
H1700 C1696 0.950 . S
C1701 C1699 1.390 . S
C1701 C1702 1.387 . S
C1701 H1704 0.950 1_545 S
C1702 C1701 1.387 . S
C1702 C1705 1.387 . S
H1703 C1699 0.950 . S
H1704 C1701 0.950 1_565 S
C1705 C1696 1.390 . S
C1705 H1698 0.950 . S
C1705 C1702 1.387 . S
C1706 C1707 1.387 . S
C1706 H1710 0.950 . S
C1706 C1715 1.390 . S
C1707 C1706 1.387 . S
C1707 C1709 1.387 . S
H1708 C1715 0.950 . S
C1709 C1707 1.387 . S
C1709 C1711 1.390 . S
C1709 H1713 0.950 . S
H1710 C1706 0.950 . S
C1711 C1709 1.390 . S
C1711 C1712 1.387 . S
C1711 H1714 0.945 1_545 S
C1712 C1711 1.387 . S
C1712 C1715 1.387 . S
H1713 C1709 0.950 . S
H1714 C1711 0.945 1_565 S
C1715 C1706 1.390 . S
C1715 H1708 0.950 . S
C1715 C1712 1.387 . S
C1716 C1717 1.387 . S
C1716 H1720 0.950 . S
C1716 C1725 1.390 . S
C1717 C1716 1.387 . S
C1717 C1719 1.387 . S
H1718 C1725 0.950 1_545 S
C1719 C1717 1.387 . S
C1719 C1721 1.390 . S
C1719 H1723 0.950 . S
H1720 C1716 0.950 . S
C1721 C1719 1.390 . S
C1721 C1722 1.387 . S
C1721 H1724 0.950 . S
C1722 C1721 1.387 . S
C1722 C1725 1.387 . S
H1723 C1719 0.950 . S
H1724 C1721 0.950 . S
C1725 C1716 1.390 . S
C1725 H1718 0.950 1_565 S
C1725 C1722 1.387 . S
C1726 C1727 1.387 . S
C1726 H1730 0.950 . S
C1726 C1735 1.390 . S
C1727 C1726 1.387 . S
C1727 C1729 1.387 . S
H1728 C1735 0.950 . S
C1729 C1727 1.387 . S
C1729 C1731 1.390 . S
C1729 H1733 0.950 1_565 S
H1730 C1726 0.950 . S
C1731 C1729 1.390 . S
C1731 C1732 1.387 . S
C1731 H1734 0.950 . S
C1732 C1731 1.387 . S
C1732 C1735 1.387 . S
H1733 C1729 0.950 1_545 S
H1734 C1731 0.950 . S
C1735 C1726 1.390 . S
C1735 H1728 0.950 . S
C1735 C1732 1.387 . S
C1736 C1737 1.387 . S
C1736 H1740 0.950 1_565 S
C1736 C1745 1.390 . S
C1737 C1736 1.387 . S
C1737 C1739 1.387 . S
H1738 C1745 0.950 . S
C1739 C1737 1.387 . S
C1739 C1741 1.390 . S
C1739 H1743 0.950 . S
H1740 C1736 0.950 1_545 S
C1741 C1739 1.390 . S
C1741 C1742 1.387 . S
C1741 H1744 0.950 . S
C1742 C1741 1.387 . S
C1742 C1745 1.387 . S
H1743 C1739 0.950 . S
H1744 C1741 0.950 . S
C1745 C1736 1.390 . S
C1745 H1738 0.950 . S
C1745 C1742 1.387 . S
C1746 C1747 1.387 . S
C1746 H1750 0.950 . S
C1746 C1755 1.390 . S
C1747 C1746 1.387 . S
C1747 C1749 1.387 . S
H1748 C1755 0.950 1_545 S
C1749 C1747 1.387 . S
C1749 C1751 1.390 . S
C1749 H1753 0.950 . S
H1750 C1746 0.950 . S
C1751 C1749 1.390 . S
C1751 C1752 1.387 . S
C1751 H1754 0.950 . S
C1752 C1751 1.387 . S
C1752 C1755 1.387 . S
H1753 C1749 0.950 . S
H1754 C1751 0.950 . S
C1755 C1746 1.390 . S
C1755 H1748 0.950 1_565 S
C1755 C1752 1.387 . S
C1756 C1757 1.387 . S
C1756 H1760 0.950 1_545 S
C1756 C1765 1.390 . S
C1757 C1756 1.387 . S
C1757 C1759 1.387 . S
H1758 C1765 0.950 . S
C1759 C1757 1.387 . S
C1759 C1761 1.390 . S
C1759 H1763 0.950 . S
H1760 C1756 0.950 1_565 S
C1761 C1759 1.390 . S
C1761 C1762 1.387 . S
C1761 H1764 0.950 . S
C1762 C1761 1.387 . S
C1762 C1765 1.387 . S
H1763 C1759 0.950 . S
H1764 C1761 0.950 . S
C1765 C1756 1.390 . S
C1765 H1758 0.950 . S
C1765 C1762 1.387 . S
C1766 C1767 1.387 . S
C1766 H1770 0.950 1_545 S
C1766 C1775 1.390 . S
C1767 C1766 1.387 . S
C1767 C1769 1.387 . S
H1768 C1775 0.950 . S
C1769 C1767 1.387 . S
C1769 C1771 1.390 . S
C1769 H1773 0.950 . S
H1770 C1766 0.950 1_565 S
C1771 C1769 1.390 . S
C1771 C1772 1.387 . S
C1771 H1774 0.950 . S
C1772 C1771 1.387 . S
C1772 C1775 1.387 . S
H1773 C1769 0.950 . S
H1774 C1771 0.950 . S
C1775 C1766 1.390 . S
C1775 H1768 0.950 . S
C1775 C1772 1.387 . S
C1776 C1777 1.387 . S
C1776 H1780 0.950 . S
C1776 C1785 1.390 . S
C1777 C1776 1.387 . S
C1777 C1779 1.387 . S
H1778 C1785 0.950 . S
C1779 C1777 1.387 . S
C1779 C1781 1.390 . S
C1779 H1783 0.950 . S
H1780 C1776 0.950 . S
C1781 C1779 1.390 . S
C1781 C1782 1.387 . S
C1781 H1784 0.950 . S
C1782 C1781 1.387 . S
C1782 C1785 1.387 . S
H1783 C1779 0.950 . S
H1784 C1781 0.950 . S
C1785 C1776 1.390 . S
C1785 H1778 0.950 . S
C1785 C1782 1.387 . S
C1786 C1787 1.387 . S
C1786 H1790 0.950 . S
C1786 C1795 1.390 . S
C1787 C1786 1.387 . S
C1787 C1789 1.387 . S
H1788 C1795 0.950 . S
C1789 C1787 1.387 . S
C1789 C1791 1.390 . S
C1789 H1793 0.950 . S
H1790 C1786 0.950 . S
C1791 C1789 1.390 . S
C1791 C1792 1.387 . S
C1791 H1794 0.950 . S
C1792 C1791 1.387 . S
C1792 C1795 1.387 . S
H1793 C1789 0.950 . S
H1794 C1791 0.950 . S
C1795 C1786 1.390 . S
C1795 H1788 0.950 . S
C1795 C1792 1.387 . S
C1796 C1797 1.387 . S
C1796 H1800 0.950 . S
C1796 C1805 1.390 . S
C1797 C1796 1.387 . S
C1797 C1799 1.387 . S
H1798 C1805 0.950 . S
C1799 C1797 1.387 . S
C1799 C1801 1.390 . S
C1799 H1803 0.950 . S
H1800 C1796 0.950 . S
C1801 C1799 1.390 . S
C1801 C1802 1.387 . S
C1801 H1804 0.950 . S
C1802 C1801 1.387 . S
C1802 C1805 1.387 . S
H1803 C1799 0.950 . S
H1804 C1801 0.950 . S
C1805 C1796 1.390 . S
C1805 H1798 0.950 . S
C1805 C1802 1.387 . S
C1806 C1807 1.387 . S
C1806 H1810 0.950 . S
C1806 C1815 1.390 . S
C1807 C1806 1.387 . S
C1807 C1809 1.387 . S
H1808 C1815 0.950 . S
C1809 C1807 1.387 . S
C1809 C1811 1.390 . S
C1809 H1813 0.950 . S
H1810 C1806 0.950 . S
C1811 C1809 1.390 . S
C1811 C1812 1.387 . S
C1811 H1814 0.950 . S
C1812 C1811 1.387 . S
C1812 C1815 1.387 . S
H1813 C1809 0.950 . S
H1814 C1811 0.950 . S
C1815 C1806 1.390 . S
C1815 H1808 0.950 . S
C1815 C1812 1.387 . S
C1816 C1817 1.387 . S
C1816 H1820 0.950 . S
C1816 C1825 1.390 . S
C1817 C1816 1.387 . S
C1817 C1819 1.387 . S
H1818 C1825 0.950 . S
C1819 C1817 1.387 . S
C1819 C1821 1.390 . S
C1819 H1823 0.950 . S
H1820 C1816 0.950 . S
C1821 C1819 1.390 . S
C1821 C1822 1.387 . S
C1821 H1824 0.950 . S
C1822 C1821 1.387 . S
C1822 C1825 1.387 . S
H1823 C1819 0.950 . S
H1824 C1821 0.950 . S
C1825 C1816 1.390 . S
C1825 H1818 0.950 . S
C1825 C1822 1.387 . S
C1826 C1827 1.387 . S
C1826 H1830 0.950 . S
C1826 C1835 1.390 . S
C1827 C1826 1.387 . S
C1827 C1829 1.387 . S
H1828 C1835 0.950 . S
C1829 C1827 1.387 . S
C1829 C1831 1.390 . S
C1829 H1833 0.950 . S
H1830 C1826 0.950 . S
C1831 C1829 1.390 . S
C1831 C1832 1.387 . S
C1831 H1834 0.950 . S
C1832 C1831 1.387 . S
C1832 C1835 1.387 . S
H1833 C1829 0.950 . S
H1834 C1831 0.950 . S
C1835 C1826 1.390 . S
C1835 H1828 0.950 . S
C1835 C1832 1.387 . S
C1836 C1837 1.387 . S
C1836 H1840 0.950 . S
C1836 C1845 1.390 . S
C1837 C1836 1.387 . S
C1837 C1839 1.387 . S
H1838 C1845 0.950 . S
C1839 C1837 1.387 . S
C1839 C1841 1.390 . S
C1839 H1843 0.950 . S
H1840 C1836 0.950 . S
C1841 C1839 1.390 . S
C1841 C1842 1.387 . S
C1841 H1844 0.950 . S
C1842 C1841 1.387 . S
C1842 C1845 1.387 . S
H1843 C1839 0.950 . S
H1844 C1841 0.950 . S
C1845 C1836 1.390 . S
C1845 H1838 0.950 . S
C1845 C1842 1.387 . S
C1846 C1847 1.387 . S
C1846 H1850 0.950 . S
C1846 C1855 1.390 . S
C1847 C1846 1.387 . S
C1847 C1849 1.387 . S
H1848 C1855 0.950 . S
C1849 C1847 1.387 . S
C1849 C1851 1.390 . S
C1849 H1853 0.950 . S
H1850 C1846 0.950 . S
C1851 C1849 1.390 . S
C1851 C1852 1.387 . S
C1851 H1854 0.950 . S
C1852 C1851 1.387 . S
C1852 C1855 1.387 . S
H1853 C1849 0.950 . S
H1854 C1851 0.950 . S
C1855 C1846 1.390 . S
C1855 H1848 0.950 . S
C1855 C1852 1.387 . S
C1057 C21 0.782 . S
C1062 C615 0.782 . S
C1067 C648 0.782 . S
C1072 C54 0.782 . S
C1077 C549 0.792 . S
C1082 C87 0.792 . S
C1087 C120 0.793 . S
C1092 C582 0.793 . S
C1097 C747 0.782 . S
C1102 C153 0.782 . S
C1107 C780 0.782 . S
C1112 C186 0.782 . S
C1117 C219 0.792 . S
C1122 C681 0.792 . S
C1127 C252 0.782 . S
C1132 C714 0.782 . S
C1137 C879 0.792 . S
C1142 C285 0.792 . S
C1147 C912 0.793 . S
C1152 C318 0.793 . S
C1157 C351 0.792 . S
C1162 C813 0.792 . S
C1167 C384 0.782 . S
C1172 C846 0.782 . S
C1177 C417 0.782 . S
C1182 C1011 0.782 . S
C1187 C450 0.793 . S
C1192 C1044 0.793 . S
C1197 C945 0.782 . S
C1202 C483 0.782 . S
C1207 C516 0.782 . S
C1212 C978 0.782 . S
C1217 N2 1.575 . S
C1222 N794 1.575 . S
C1227 N299 1.575 . S
C1232 N35 1.575 . S
C1237 N860 1.577 . S
C1242 N68 1.577 . S
C1247 N101 1.577 . S
C1252 N365 1.577 . S
C1257 N134 1.577 . S
C1262 N926 1.577 . S
C1267 N167 1.575 . S
C1272 N431 1.575 . S
C1277 N992 1.575 . S
C1282 N200 1.575 . S
C1287 N497 1.576 . S
C1292 N233 1.576 . S
C1297 N530 1.575 . S
C1302 N266 1.575 . S
C1307 N596 1.575 . S
C1312 N332 1.575 . S
C1317 N662 1.575 . S
C1322 N398 1.575 . S
C1327 N464 1.576 . S
C1332 N728 1.576 . S
C1337 N827 1.576 . S
C1342 N563 1.576 . S
C1347 N893 1.574 . S
C1352 N629 1.574 . S
C1357 N695 1.576 . S
C1362 N959 1.576 . S
C1367 N761 1.576 . S
C1372 N1025 1.576 . S
C1377 C18 1.909 1_565 S
C1382 C931 1.778 . S
C1387 C51 1.906 . S
C1392 C436 1.774 . S
C1397 C997 1.774 . S
C1402 C84 1.906 1_545 S
C1407 C502 1.778 . S
C1412 C117 1.908 . S
C1417 C799 1.774 . S
C1422 C150 1.906 1_545 S
C1427 C304 1.778 . S
C1432 C183 1.909 . S
C1437 C216 1.906 1_565 S
C1442 C865 1.774 . S
C1447 C370 1.774 . S
C1452 C249 1.906 . S
C1457 C667 1.778 . S
C1462 C282 1.909 1_545 S
C1467 C315 1.906 . S
C1472 C172 1.774 . S
C1477 C733 1.778 . S
C1482 C348 1.909 1_565 S
C1487 C381 1.909 . S
C1492 C238 1.778 . S
C1497 C414 1.909 1_565 S
C1502 C535 1.778 . S
C1507 C40 1.774 . S
C1512 C447 1.906 . S
C1517 C601 1.778 . S
C1522 C480 1.909 1_545 S
C1527 C513 1.906 . S
C1532 C106 1.774 . S
C1537 C546 1.906 . S
C1542 C403 1.774 . S
C1547 C579 1.906 . S
C1552 C964 1.774 . S
C1557 C469 1.777 . S
C1562 C612 1.908 . S
C1567 C645 1.906 . S
C1572 C1030 1.774 . S
C1577 C678 1.909 . S
C1582 C271 1.778 . S
C1587 C832 1.774 . S
C1592 C711 1.906 . S
C1597 C744 1.906 . S
C1602 C337 1.774 . S
C1607 C777 1.909 . S
C1612 C898 1.778 . S
C1617 C810 1.906 . S
C1622 C139 1.774 . S
C1627 C700 1.774 . S
C1632 C843 1.906 . S
C1637 C876 1.909 . S
C1642 C205 1.778 . S
C1647 C766 1.778 . S
C1652 C909 1.909 . S
C1657 C942 1.909 . S
C1662 C7 1.778 . S
C1667 C975 1.909 . S
C1672 C568 1.778 . S
C1677 C1008 1.909 . S
C1682 C73 1.778 . S
C1687 C1041 1.906 . S
C1692 C634 1.774 . S
C1697 N13 1.770 . S
C1702 N178 1.772 . S
C1707 N211 1.770 . S
C1712 N46 1.772 . S
C1717 N79 1.772 . S
C1722 N244 1.770 . S
C1727 N112 1.771 . S
C1732 N145 1.771 . S
C1737 N442 1.771 . S
C1742 N277 1.770 . S
C1747 N475 1.770 . S
C1752 N310 1.771 . S
C1757 N508 1.772 . S
C1762 N343 1.770 . S
C1767 N376 1.772 . S
C1772 N409 1.770 . S
C1777 N541 1.771 . S
C1782 N706 1.770 . S
C1787 N739 1.772 . S
C1792 N574 1.770 . S
C1797 N607 1.771 . S
C1802 N772 1.771 . S
C1807 N673 1.772 . S
C1812 N640 1.770 . S
C1817 N970 1.771 . S
C1822 N805 1.772 . S
C1827 N1003 1.772 . S
C1832 N838 1.771 . S
C1837 N871 1.770 . S
C1842 N1036 1.771 . S
C1847 N937 1.770 . S
C1852 N904 1.771 . S
