# Generated by pormake.
# Topology sqp, (5)-cn, num edge types: 1
# Building blocks:
#     Node 0, Type 0, BuildingBlock: XOMCOT_clean_sbu_0, # of connection points: 5
#     Node 1, Type 0, BuildingBlock: XOMCOT_clean_sbu_0, # of connection points: 5
#     Node 2, Type 0, BuildingBlock: XOMCOT_clean_sbu_0, # of connection points: 5
#     Node 3, Type 0, BuildingBlock: XOMCOT_clean_sbu_0, # of connection points: 5
#     Edge 4, Type (0, 0), BuildingBlock: TEMPAE_clean_linker_10, # of connection points: 2
#     Edge 5, Type (0, 0), BuildingBlock: TEMPAE_clean_linker_10, # of connection points: 2
#     Edge 6, Type (0, 0), BuildingBlock: TEMPAE_clean_linker_10, # of connection points: 2
#     Edge 7, Type (0, 0), BuildingBlock: TEMPAE_clean_linker_10, # of connection points: 2
#     Edge 8, Type (0, 0), BuildingBlock: TEMPAE_clean_linker_10, # of connection points: 2
#     Edge 9, Type (0, 0), BuildingBlock: TEMPAE_clean_linker_10, # of connection points: 2
#     Edge 10, Type (0, 0), BuildingBlock: TEMPAE_clean_linker_10, # of connection points: 2
#     Edge 11, Type (0, 0), BuildingBlock: TEMPAE_clean_linker_10, # of connection points: 2
#     Edge 12, Type (0, 0), BuildingBlock: TEMPAE_clean_linker_10, # of connection points: 2
#     Edge 13, Type (0, 0), BuildingBlock: TEMPAE_clean_linker_10, # of connection points: 2
# Relax obj value: 0.120
# Max RMSD: 0.201
# Mean RMSD: 0.201
data_MOF--net-sqp--node1-XOMCOT_clean_sbu_0--edge1-TEMPAE_clean_linker_10
_symmetry_space_group_name_H-M    P1
_symmetry_Int_Tables_number       1
_symmetry_cell_setting            triclinic
loop_
_symmetry_equiv_pos_as_xyz
'x, y, z'
_cell_length_a     24.381168
_cell_length_b     19.514655
_cell_length_c     47.976542
_cell_angle_alpha  89.773036
_cell_angle_beta   88.821293
_cell_angle_gamma 89.990948
loop_
_atom_site_label
_atom_site_type_symbol
_atom_site_fract_x
_atom_site_fract_y
_atom_site_fract_z
_atom_type_partial_charge
Co0 Co 0.02141 1.00956 0.30271 0.0
C1 C 0.93175 0.10994 0.28852 0.0
C2 C 1.00243 0.15624 0.30657 0.0
C3 C 0.96442 0.20648 0.30189 0.0
N4 N 0.98231 0.0956 0.29822 0.0
N5 N 0.91992 0.17777 0.29043 0.0
H6 H 0.9043 0.07199 0.28022 0.0
H7 H 0.04183 0.1633 0.31611 0.0
C8 C 0.1423 0.04654 0.29216 0.0
O9 O 0.15923 0.99023 0.3043 0.0
N10 N 0.06064 0.92385 0.30718 0.0
C11 C 0.06357 0.88428 0.33017 0.0
C12 C 0.09615 0.82831 0.32413 0.0
C13 C 0.08926 0.88989 0.28719 0.0
N14 N 0.11281 0.83228 0.29714 0.0
C15 C 0.9799 0.03756 0.3567 0.0
C16 C 0.0773 0.0463 0.38476 0.0
C17 C 0.02762 0.04907 0.39998 0.0
C18 C 0.97856 0.04626 0.38546 0.0
C19 C 0.07681 0.03749 0.3558 0.0
N20 N 0.02839 0.03134 0.34217 0.0
H21 H 0.9414 0.03488 0.34603 0.0
H22 H 0.11538 0.03354 0.34497 0.0
H23 H 0.04411 0.89556 0.35008 0.0
H24 H 0.09434 0.90866 0.26604 0.0
O25 O 0.95442 0.95837 0.30623 0.0
O26 O 0.99827 0.97878 0.26613 0.0
O27 O 0.09104 0.06057 0.29089 0.0
C28 C 0.95776 0.9487 0.27953 0.0
H29 H 0.96894 0.25997 0.30723 0.0
H30 H 0.10823 0.78918 0.33882 0.0
H31 H 0.1162 0.04831 0.39523 0.0
H32 H 0.93924 0.0499 0.39629 0.0
Co33 Co 0.02813 0.99872 0.70756 0.0
C34 C 0.11576 0.10226 0.72031 0.0
C35 C 0.04324 0.14647 0.70317 0.0
C36 C 0.08066 0.19781 0.7071 0.0
N37 N 0.06492 0.08644 0.71146 0.0
N38 N 0.12634 0.1703 0.71794 0.0
H39 H 0.14445 0.06513 0.72824 0.0
H40 H 1.00326 0.15235 0.69409 0.0
C41 C 0.90629 0.03103 0.71831 0.0
O42 O 0.89052 0.97324 0.70713 0.0
N43 N 0.9913 0.91123 0.70373 0.0
C44 C 0.98838 0.87152 0.6809 0.0
C45 C 0.95619 0.81527 0.68726 0.0
C46 C 0.96326 0.87697 0.72395 0.0
N47 N 0.93976 0.81926 0.71426 0.0
C48 C 0.06865 0.02746 0.65331 0.0
C49 C 0.97057 0.03383 0.62568 0.0
C50 C 0.01994 0.03926 0.61029 0.0
C51 C 0.06931 0.03729 0.62458 0.0
C52 C 0.97174 0.02387 0.65459 0.0
N53 N 0.02052 0.01934 0.66801 0.0
H54 H 0.10735 0.02585 0.66384 0.0
H55 H 0.93346 0.01788 0.66561 0.0
H56 H 1.00714 0.8832 0.66082 0.0
H57 H 0.95783 0.8961 0.74496 0.0
O58 O 0.09684 0.95092 0.70459 0.0
O59 O 0.05179 0.96979 0.74437 0.0
O60 O 0.95719 0.04727 0.71885 0.0
C61 C 0.09389 0.94234 0.73141 0.0
H62 H 0.07496 0.25113 0.70163 0.0
H63 H 0.94376 0.77627 0.67271 0.0
H64 H 0.93147 0.03494 0.61537 0.0
H65 H 0.10835 0.04282 0.61361 0.0
Co66 Co 0.51386 0.50359 0.80621 0.0
C67 C 0.42098 0.60326 0.80245 0.0
C68 C 0.49881 0.64974 0.79268 0.0
C69 C 0.45895 0.69908 0.79107 0.0
N70 N 0.47531 0.58942 0.79991 0.0
N71 N 0.41007 0.67002 0.79719 0.0
H72 H 0.39004 0.56575 0.80815 0.0
H73 H 0.54203 0.65832 0.78881 0.0
C74 C 0.63303 0.54255 0.80279 0.0
O75 O 0.6409 0.50519 0.82522 0.0
N76 N 0.55305 0.41774 0.81166 0.0
C77 C 0.54677 0.3696 0.83174 0.0
C78 C 0.58309 0.31697 0.82652 0.0
C79 C 0.59166 0.39207 0.79397 0.0
N80 N 0.61163 0.33138 0.80285 0.0
C81 C 0.4932 0.49804 0.86489 0.0
C82 C 0.55736 0.60761 0.88017 0.0
C83 C 0.52952 0.56978 0.90096 0.0
C84 C 0.49626 0.51537 0.89287 0.0
C85 C 0.55325 0.58816 0.85217 0.0
N86 N 0.52376 0.53144 0.84491 0.0
H87 H 0.46511 0.45798 0.85947 0.0
H88 H 0.57327 0.6196 0.8365 0.0
H89 H 0.5174 0.3706 0.84877 0.0
H90 H 0.60561 0.41831 0.77523 0.0
O91 O 0.44552 0.45571 0.81139 0.0
O92 O 0.48852 0.46822 0.77068 0.0
O93 O 0.58491 0.5478 0.79282 0.0
C94 C 0.44717 0.44265 0.78493 0.0
H95 H 0.46533 0.75208 0.78508 0.0
H96 H 0.58729 0.27099 0.83897 0.0
H97 H 0.58226 0.65142 0.88548 0.0
H98 H 0.47183 0.48688 0.90806 0.0
Co99 Co 0.53354 0.51574 0.20172 0.0
C100 C 0.62464 0.61605 0.21197 0.0
C101 C 0.5454 0.6634 0.21071 0.0
C102 C 0.58366 0.71331 0.21496 0.0
N103 N 0.57068 0.60212 0.20871 0.0
N104 N 0.63364 0.68391 0.21603 0.0
H105 H 0.65647 0.5775 0.21181 0.0
H106 H 0.50189 0.67226 0.20915 0.0
C107 C 0.41325 0.54975 0.20719 0.0
O108 O 0.40402 0.51105 0.18543 0.0
N109 N 0.49517 0.43005 0.19546 0.0
C110 C 0.49217 0.39122 0.17236 0.0
C111 C 0.4556 0.33861 0.17744 0.0
C112 C 0.46152 0.39934 0.2144 0.0
N113 N 0.43589 0.34405 0.20385 0.0
C114 C 0.55951 0.51856 0.14357 0.0
C115 C 0.48823 0.62058 0.12756 0.0
C116 C 0.52414 0.59206 0.10763 0.0
C117 C 0.56001 0.54051 0.11597 0.0
C118 C 0.48961 0.59768 0.15529 0.0
N119 N 0.52399 0.54567 0.163 0.0
H120 H 0.58796 0.47874 0.149 0.0
H121 H 0.46381 0.62358 0.1703 0.0
H122 H 0.51344 0.40052 0.15282 0.0
H123 H 0.45484 0.41886 0.23526 0.0
O124 O 0.60244 0.46887 0.19656 0.0
O125 O 0.55884 0.47837 0.23713 0.0
O126 O 0.46225 0.55804 0.21563 0.0
C127 C 0.60033 0.45363 0.22285 0.0
H128 H 0.57485 0.76742 0.21684 0.0
H129 H 0.44301 0.30101 0.16235 0.0
H130 H 0.46035 0.66133 0.12191 0.0
H131 H 0.58806 0.51653 0.10116 0.0
C132 C 0.99041 1.00837 0.44599 0.0
C133 C 0.02634 0.05143 0.43089 0.0
C134 C 0.98845 1.009 0.47519 0.0
C135 C 0.02319 0.05396 0.4897 0.0
C136 C 0.05931 0.09801 0.47461 0.0
C137 C 0.06066 0.09599 0.44533 0.0
C138 C 0.94986 0.96063 0.49051 0.0
C139 C 0.09675 0.14685 0.48942 0.0
C140 C 0.98534 0.08899 0.56561 0.0
C141 C 0.02063 0.04411 0.57942 0.0
C142 C 0.98644 0.09386 0.53637 0.0
C143 C 0.0233 0.05235 0.52068 0.0
C144 C 0.05894 1.00697 0.53455 0.0
C145 C 0.05722 1.00349 0.56373 0.0
C146 C 0.94802 0.14306 0.52226 0.0
C147 C 0.09833 0.96122 0.51857 0.0
H148 H 0.96441 0.97306 0.43493 0.0
H149 H 0.08814 0.12972 0.43371 0.0
H150 H 0.97368 0.92468 0.50354 0.0
H151 H 0.92215 0.98978 0.50475 0.0
H152 H 0.92446 0.93027 0.4761 0.0
H153 H 0.12086 0.17956 0.47465 0.0
H154 H 0.07237 0.18042 0.50359 0.0
H155 H 0.12567 0.1176 0.50248 0.0
H156 H 0.95736 0.12085 0.5777 0.0
H157 H 0.08401 0.96798 0.57431 0.0
H158 H 0.91973 0.11436 0.50876 0.0
H159 H 0.97172 0.17885 0.50862 0.0
H160 H 0.92323 0.17343 0.53747 0.0
H161 H 0.07515 0.92612 0.505 0.0
H162 H 0.12422 0.92997 0.53255 0.0
H163 H 0.12557 0.99256 0.50479 0.0
C164 C 0.57395 0.62621 0.06379 0.0
C165 C 0.5241 0.61335 0.07796 0.0
C166 C 0.57632 0.63229 0.03467 0.0
C167 C 0.52769 0.62475 0.01939 0.0
C168 C 0.47663 0.61748 0.03377 0.0
C169 C 0.47542 0.61208 0.06298 0.0
C170 C 0.63148 0.64099 0.02022 0.0
C171 C 0.42384 0.60934 0.01823 0.0
C172 C 0.52823 0.65352 0.94073 0.0
C173 C 0.53378 0.58613 0.93101 0.0
C174 C 0.52695 0.66749 0.96951 0.0
C175 C 0.53134 0.61272 0.98881 0.0
C176 C 0.53869 0.54497 0.97898 0.0
C177 C 0.54 0.53263 0.95027 0.0
C178 C 0.51951 0.74037 0.97925 0.0
C179 C 0.54407 0.48505 0.99881 0.0
H180 H 0.61156 0.6282 0.07544 0.0
H181 H 0.43687 0.60203 0.07391 0.0
H182 H 0.64437 0.59148 0.01085 0.0
H183 H 0.6291 0.6791 1.00307 0.0
H184 H 0.66356 0.65749 0.03488 0.0
H185 H 0.38722 0.61436 0.03224 0.0
H186 H 0.42114 0.64797 1.0013 0.0
H187 H 0.42295 0.55794 0.00843 0.0
H188 H 0.52308 0.69496 0.92591 0.0
H189 H 0.54524 0.48061 0.94281 0.0
H190 H 0.55184 0.75401 0.99419 0.0
H191 H 0.47944 0.74549 0.99043 0.0
H192 H 0.52084 0.7776 0.96168 0.0
H193 H 0.57934 0.4932 0.01266 0.0
H194 H 0.5501 0.43566 0.98772 0.0
H195 H 0.50667 0.48093 0.01228 0.0
C196 C 0.16942 0.14289 0.25995 0.0
C197 C 0.18366 0.09473 0.28033 0.0
C198 C 0.20934 0.1858 0.24748 0.0
C199 C 0.26454 0.18127 0.25601 0.0
C200 C 0.27873 0.13418 0.27719 0.0
C201 C 0.23827 0.0911 0.28888 0.0
C202 C 0.19276 0.23466 0.22468 0.0
C203 C 0.33684 0.12872 0.28729 0.0
C204 C 0.38059 0.23768 0.20697 0.0
C205 C 0.39309 0.30317 0.21708 0.0
C206 C 0.33822 0.19816 0.2191 0.0
C207 C 0.30797 0.22408 0.24225 0.0
C208 C 0.32035 0.28989 0.25268 0.0
C209 C 0.36238 0.32877 0.23988 0.0
C210 C 0.32599 0.1284 0.20719 0.0
C211 C 0.28941 0.31908 0.27751 0.0
H212 H 0.12733 0.14578 0.25318 0.0
H213 H 0.24952 0.05448 0.30483 0.0
H214 H 0.20458 0.28779 0.23005 0.0
H215 H 0.2148 0.22137 0.20497 0.0
H216 H 0.14793 0.23336 0.221 0.0
H217 H 0.34054 0.09206 0.30493 0.0
H218 H 0.36442 0.11163 0.27 0.0
H219 H 0.35156 0.17968 0.29408 0.0
H220 H 0.40419 0.21681 0.18965 0.0
H221 H 0.3706 0.37963 0.24764 0.0
H222 H 0.28211 0.12515 0.20163 0.0
H223 H 0.33346 0.0882 0.22307 0.0
H224 H 0.35154 0.11696 0.18834 0.0
H225 H 0.24497 0.32184 0.27314 0.0
H226 H 0.30393 0.37114 0.28306 0.0
H227 H 0.29413 0.28487 0.29584 0.0
C228 C 0.82016 0.17973 0.28064 0.0
C229 C 0.87079 0.21366 0.28221 0.0
C230 C 0.77237 0.21516 0.27294 0.0
C231 C 0.77522 0.28619 0.26674 0.0
C232 C 0.82603 0.3207 0.26856 0.0
C233 C 0.87299 0.28408 0.27605 0.0
C234 C 0.71902 0.17643 0.27102 0.0
C235 C 0.83116 0.39625 0.26196 0.0
C236 C 0.67736 0.37103 0.21683 0.0
C237 C 0.64253 0.40817 0.23488 0.0
C238 C 0.71892 0.32879 0.22705 0.0
C239 C 0.72657 0.32391 0.25614 0.0
C240 C 0.69072 0.35991 0.2746 0.0
C241 C 0.6488 0.40139 0.26374 0.0
C242 C 0.75576 0.29101 0.20659 0.0
C243 C 0.69785 0.35641 0.30573 0.0
H244 H 0.81773 0.12565 0.28561 0.0
H245 H 0.91183 0.3108 0.27657 0.0
H246 H 0.6869 0.2014 0.28417 0.0
H247 H 0.70468 0.17763 0.24922 0.0
H248 H 0.72302 0.1221 0.27769 0.0
H249 H 0.87277 0.41645 0.26616 0.0
H250 H 0.82229 0.40536 0.23966 0.0
H251 H 0.80071 0.42591 0.27447 0.0
H252 H 0.67238 0.37517 0.19449 0.0
H253 H 0.62188 0.42972 0.27778 0.0
H254 H 0.75761 0.23582 0.21212 0.0
H255 H 0.7981 0.31155 0.20755 0.0
H256 H 0.74164 0.29586 0.1848 0.0
H257 H 0.69963 0.30225 0.31276 0.0
H258 H 0.66411 0.38275 0.31733 0.0
H259 H 0.73731 0.38076 0.31119 0.0
C260 C 0.73567 0.68909 0.21466 0.0
C261 C 0.68469 0.71878 0.22157 0.0
C262 C 0.78515 0.72275 0.22067 0.0
C263 C 0.7836 0.78779 0.2337 0.0
C264 C 0.73243 0.81861 0.2401 0.0
C265 C 0.68393 0.78362 0.23424 0.0
C266 C 0.83901 0.68802 0.21379 0.0
C267 C 0.72873 0.88781 0.25409 0.0
C268 C 0.89249 0.85154 0.28209 0.0
C269 C 0.9182 0.90288 0.26602 0.0
C270 C 0.85136 0.81031 0.27106 0.0
C271 C 0.83465 0.82142 0.24334 0.0
C272 C 0.86225 0.87108 0.22653 0.0
C273 C 0.90422 0.911 0.23804 0.0
C274 C 0.82371 0.75742 0.28965 0.0
C275 C 0.84529 0.88478 0.19697 0.0
H276 H 0.73704 0.63952 0.20463 0.0
H277 H 0.64532 0.80691 0.24035 0.0
H278 H 0.86621 0.72311 0.20162 0.0
H279 H 0.86033 0.67521 0.23334 0.0
H280 H 0.83344 0.64014 0.20172 0.0
H281 H 0.68596 0.9073 0.2555 0.0
H282 H 0.74487 0.8841 0.2755 0.0
H283 H 0.75424 0.92589 0.2425 0.0
H284 H 0.90396 0.84423 0.30362 0.0
H285 H 0.92424 0.95052 0.22558 0.0
H286 H 0.82082 0.70761 0.27872 0.0
H287 H 0.78129 0.77426 0.2949 0.0
H288 H 0.84589 0.74943 0.3094 0.0
H289 H 0.84085 0.83601 0.18543 0.0
H290 H 0.8752 0.91802 0.18554 0.0
H291 H 0.80471 0.91056 0.19719 0.0
C292 C 0.18549 0.81485 0.26108 0.0
C293 C 0.15261 0.7889 0.28306 0.0
C294 C 0.2266 0.77468 0.24831 0.0
C295 C 0.23543 0.70686 0.2578 0.0
C296 C 0.20195 0.6799 0.27967 0.0
C297 C 0.16092 0.72114 0.29197 0.0
C298 C 0.26135 0.80536 0.22501 0.0
C299 C 0.21008 0.60783 0.29039 0.0
C300 C 0.31427 0.58478 0.20997 0.0
C301 C 0.36739 0.58832 0.22061 0.0
C302 C 0.27086 0.62266 0.22196 0.0
C303 C 0.28066 0.66485 0.24528 0.0
C304 C 0.33399 0.66794 0.25636 0.0
C305 C 0.37669 0.62981 0.24388 0.0
C306 C 0.21465 0.61822 0.20945 0.0
C307 C 0.34609 0.71203 0.28129 0.0
H308 H 0.18026 0.86735 0.25429 0.0
H309 H 0.13539 0.70028 0.30868 0.0
H310 H 0.30481 0.8077 0.23135 0.0
H311 H 0.25974 0.7725 0.20623 0.0
H312 H 0.24784 0.85786 0.21931 0.0
H313 H 0.17985 0.59397 0.30711 0.0
H314 H 0.20646 0.57064 0.27309 0.0
H315 H 0.25198 0.6024 0.29873 0.0
H316 H 0.30658 0.55291 0.19202 0.0
H317 H 0.41751 0.63283 0.25232 0.0
H318 H 0.20173 0.66963 0.20212 0.0
H319 H 0.18414 0.60127 0.22551 0.0
H320 H 0.21355 0.58214 0.19162 0.0
H321 H 0.33742 0.76653 0.2764 0.0
H322 H 0.38944 0.70763 0.28777 0.0
H323 H 0.31895 0.69724 0.29917 0.0
C324 C 0.31203 0.66989 0.78508 0.0
C325 C 0.35761 0.70382 0.79579 0.0
C326 C 0.26393 0.70615 0.77877 0.0
C327 C 0.26151 0.77782 0.78342 0.0
C328 C 0.30578 0.81099 0.79639 0.0
C329 C 0.35324 0.77359 0.80238 0.0
C330 C 0.21755 0.66873 0.7651 0.0
C331 C 0.30493 0.88712 0.80192 0.0
C332 C 0.18495 0.88522 0.73101 0.0
C333 C 0.13659 0.90225 0.74571 0.0
C334 C 0.22543 0.84459 0.74309 0.0
C335 C 0.2175 0.81981 0.77064 0.0
C336 C 0.16886 0.83695 0.78575 0.0
C337 C 0.12892 0.87832 0.77312 0.0
C338 C 0.27687 0.82829 0.72626 0.0
C339 C 0.15896 0.81124 0.81512 0.0
H340 H 0.31523 0.61601 0.77993 0.0
H341 H 0.38802 0.79963 0.81122 0.0
H342 H 0.17745 0.68439 0.77438 0.0
H343 H 0.21715 0.68219 0.74261 0.0
H344 H 0.22178 0.61222 0.76704 0.0
H345 H 0.33872 0.90312 0.81565 0.0
H346 H 0.30933 0.9153 0.78186 0.0
H347 H 0.26527 0.90265 0.81171 0.0
H348 H 0.19132 0.90373 0.70985 0.0
H349 H 0.09143 0.89096 0.78449 0.0
H350 H 0.28171 0.77199 0.72427 0.0
H351 H 0.31338 0.8479 0.73711 0.0
H352 H 0.27641 0.85109 0.70501 0.0
H353 H 0.15972 0.7544 0.81545 0.0
H354 H 0.11901 0.82891 0.82403 0.0
H355 H 0.19224 0.82906 0.82875 0.0
C356 C 0.17314 0.27749 0.73107 0.0
C357 C 0.17556 0.20703 0.72524 0.0
C358 C 0.22009 0.31439 0.73826 0.0
C359 C 0.27103 0.28012 0.74005 0.0
C360 C 0.27418 0.20924 0.7339 0.0
C361 C 0.22645 0.17356 0.72653 0.0
C362 C 0.21474 0.38982 0.74479 0.0
C363 C 0.32771 0.1708 0.73574 0.0
C364 C 0.39814 0.39378 0.74374 0.0
C365 C 0.40444 0.39878 0.77263 0.0
C366 C 0.35576 0.35373 0.73264 0.0
C367 C 0.31945 0.31751 0.75089 0.0
C368 C 0.32695 0.32085 0.78001 0.0
C369 C 0.36903 0.36158 0.79047 0.0
C370 C 0.3488 0.35175 0.70148 0.0
C371 C 0.28957 0.28276 0.80025 0.0
H372 H 0.13414 0.3039 0.73066 0.0
H373 H 0.22912 0.1195 0.72171 0.0
H374 H 0.22306 0.39853 0.76715 0.0
H375 H 0.24545 0.41977 0.73247 0.0
H376 H 0.17322 0.41002 0.74033 0.0
H377 H 0.32414 0.11694 0.72858 0.0
H378 H 0.35999 0.19691 0.723 0.0
H379 H 0.34155 0.17047 0.75763 0.0
H380 H 0.42548 0.42225 0.72987 0.0
H381 H 0.37398 0.36443 0.81284 0.0
H382 H 0.30937 0.37634 0.69606 0.0
H383 H 0.34708 0.29793 0.69419 0.0
H384 H 0.3826 0.37862 0.69004 0.0
H385 H 0.24726 0.30334 0.79901 0.0
H386 H 0.30312 0.28716 0.82214 0.0
H387 H 0.28785 0.22768 0.79471 0.0
C388 C 0.87837 0.14392 0.7393 0.0
C389 C 0.86407 0.07846 0.72985 0.0
C390 C 0.83848 0.1884 0.75066 0.0
C391 C 0.78308 0.16675 0.75274 0.0
C392 C 0.76839 0.10099 0.74305 0.0
C393 C 0.80897 0.05777 0.73171 0.0
C394 C 0.85567 0.25826 0.76067 0.0
C395 C 0.70984 0.07583 0.74501 0.0
C396 C 0.68673 0.24695 0.80663 0.0
C397 C 0.65536 0.29134 0.79026 0.0
C398 C 0.729 0.20711 0.79476 0.0
C399 C 0.74048 0.21179 0.76578 0.0
C400 C 0.70968 0.25726 0.74917 0.0
C401 C 0.66746 0.29638 0.76159 0.0
C402 C 0.76096 0.15935 0.81322 0.0
C403 C 0.7207 0.26369 0.71819 0.0
H404 H 0.92077 0.16047 0.73788 0.0
H405 H 0.79742 1.00727 0.72457 0.0
H406 H 0.83167 0.29866 0.75008 0.0
H407 H 0.84682 0.26284 0.78337 0.0
H408 H 0.90004 0.26821 0.75678 0.0
H409 H 0.70498 0.02389 0.73599 0.0
H410 H 0.69583 0.07427 0.76715 0.0
H411 H 0.68246 0.11175 0.73394 0.0
H412 H 0.67857 0.24365 0.82885 0.0
H413 H 0.64326 0.32994 0.7487 0.0
H414 H 0.80542 0.17102 0.81141 0.0
H415 H 0.75536 0.10563 0.80633 0.0
H416 H 0.74797 0.16311 0.83549 0.0
H417 H 0.76453 0.27612 0.71406 0.0
H418 H 0.69502 0.30387 0.70845 0.0
H419 H 0.71235 0.21405 0.70791 0.0
C420 C 0.67174 0.6214 0.7659 0.0
C421 C 0.67956 0.581 0.78976 0.0
C422 C 0.71521 0.65894 0.75367 0.0
C423 C 0.76786 0.65621 0.76558 0.0
C424 C 0.77613 0.6152 0.78954 0.0
C425 C 0.73196 0.57808 0.80131 0.0
C426 C 0.70469 0.70193 0.72809 0.0
C427 C 0.83157 0.61107 0.8029 0.0
C428 C 0.89057 0.70894 0.71997 0.0
C429 C 0.89902 0.77692 0.72831 0.0
C430 C 0.8485 0.6688 0.73211 0.0
C431 C 0.81401 0.69717 0.75319 0.0
C432 C 0.82291 0.7653 0.76208 0.0
C433 C 0.86514 0.8043 0.74953 0.0
C434 C 0.8404 0.59634 0.72207 0.0
C435 C 0.78706 0.79757 0.78447 0.0
H436 H 0.63151 0.62396 0.75676 0.0
H437 H 0.73853 0.54704 0.81972 0.0
H438 H 0.71363 0.75654 0.73246 0.0
H439 H 0.7325 0.68587 0.71072 0.0
H440 H 0.66164 0.69777 0.72113 0.0
H441 H 0.83148 0.57606 0.82122 0.0
H442 H 0.86282 0.59289 0.78751 0.0
H443 H 0.84442 0.66278 0.80974 0.0
H444 H 0.91679 0.68712 0.70382 0.0
H445 H 0.87045 0.85704 0.75582 0.0
H446 H 0.79896 0.59098 0.7132 0.0
H447 H 0.84279 0.55996 0.73983 0.0
H448 H 0.87141 0.58136 0.70593 0.0
H449 H 0.744 0.79981 0.77749 0.0
H450 H 0.8005 0.85029 0.78969 0.0
H451 H 0.78746 0.76579 0.80369 0.0
loop_
_geom_bond_atom_site_label_1
_geom_bond_atom_site_label_2
_geom_bond_distance
_geom_bond_site_symmetry_2
_ccdc_geom_bond_type
Co0 N4 2.148 1_465 S
Co0 N10 2.128 . S
Co0 N20 2.194 1_565 S
Co0 O25 2.351 1_455 S
Co0 O26 2.155 1_455 S
Co0 O27 2.096 1_565 S
C1 N4 1.301 . S
C1 N5 1.328 . S
C1 H6 0.930 . S
C2 C3 1.333 . S
C2 N4 1.317 . S
C2 H7 0.930 . S
C3 C2 1.333 . S
C3 N5 1.350 . S
C3 H29 0.931 . S
N4 Co0 2.148 1_645 S
N4 C1 1.301 . S
N4 C2 1.317 . S
N5 C1 1.328 . S
N5 C3 1.350 . S
H6 C1 0.930 . S
H7 C2 0.930 . S
C8 O9 1.224 . S
C8 O27 1.247 . S
O9 C8 1.224 . S
N10 Co0 2.128 . S
N10 C11 1.355 . S
N10 C13 1.311 . S
C11 N10 1.355 . S
C11 C12 1.363 . S
C11 H23 0.929 . S
C12 C11 1.363 . S
C12 N14 1.375 . S
C12 H30 0.931 . S
C13 N10 1.311 . S
C13 N14 1.347 . S
C13 H24 0.929 . S
N14 C12 1.375 . S
N14 C13 1.347 . S
C15 C18 1.365 . S
C15 N20 1.328 1_665 S
C15 H21 0.929 . S
C16 C17 1.362 . S
C16 C19 1.378 . S
C16 H31 0.929 . S
C17 C16 1.362 . S
C17 C18 1.366 1_445 S
C18 C15 1.365 . S
C18 C17 1.366 1_665 S
C18 H32 0.930 . S
C19 C16 1.378 . S
C19 N20 1.315 . S
C19 H22 0.930 . S
N20 Co0 2.194 1_545 S
N20 C15 1.328 1_445 S
N20 C19 1.315 . S
H21 C15 0.929 . S
H22 C19 0.930 . S
H23 C11 0.929 . S
H24 C13 0.929 . S
O25 Co0 2.351 1_655 S
O25 C28 1.244 . S
O26 Co0 2.155 1_655 S
O26 C28 1.240 . S
O27 Co0 2.096 1_545 S
O27 C8 1.247 . S
C28 O25 1.244 . S
C28 O26 1.240 . S
H29 C3 0.931 . S
H30 C12 0.931 . S
H31 C16 0.929 . S
H32 C18 0.930 . S
Co33 N37 2.148 1_565 S
Co33 N43 2.128 1_455 S
Co33 N53 2.194 1_565 S
Co33 O58 2.351 . S
Co33 O59 2.155 . S
Co33 O60 2.096 1_465 S
C34 N37 1.301 . S
C34 N38 1.328 . S
C34 H39 0.930 . S
C35 C36 1.333 . S
C35 N37 1.317 . S
C35 H40 0.930 . S
C36 C35 1.333 . S
C36 N38 1.350 . S
C36 H62 0.931 . S
N37 Co33 2.148 1_545 S
N37 C34 1.301 . S
N37 C35 1.317 . S
N38 C34 1.328 . S
N38 C36 1.350 . S
H39 C34 0.930 . S
H40 C35 0.930 . S
C41 O42 1.224 . S
C41 O60 1.247 . S
O42 C41 1.224 . S
N43 Co33 2.128 1_655 S
N43 C44 1.355 . S
N43 C46 1.311 . S
C44 N43 1.355 . S
C44 C45 1.363 . S
C44 H56 0.929 . S
C45 C44 1.363 . S
C45 N47 1.375 . S
C45 H63 0.931 . S
C46 N43 1.311 . S
C46 N47 1.347 . S
C46 H57 0.929 . S
N47 C45 1.375 . S
N47 C46 1.347 . S
C48 C51 1.365 . S
C48 N53 1.328 1_565 S
C48 H54 0.929 . S
C49 C50 1.362 1_655 S
C49 C52 1.378 . S
C49 H64 0.929 . S
C50 C49 1.362 1_455 S
C50 C51 1.366 1_545 S
C51 C48 1.365 . S
C51 C50 1.366 1_565 S
C51 H65 0.930 . S
C52 C49 1.378 . S
C52 N53 1.315 1_655 S
C52 H55 0.930 . S
N53 Co33 2.194 1_545 S
N53 C48 1.328 1_545 S
N53 C52 1.315 1_455 S
H54 C48 0.929 . S
H55 C52 0.930 . S
H56 C44 0.929 . S
H57 C46 0.929 . S
O58 Co33 2.351 . S
O58 C61 1.244 . S
O59 Co33 2.155 . S
O59 C61 1.240 . S
O60 Co33 2.096 1_645 S
O60 C41 1.247 . S
C61 O58 1.244 . S
C61 O59 1.240 . S
H62 C36 0.931 . S
H63 C45 0.931 . S
H64 C49 0.929 . S
H65 C51 0.930 . S
Co66 N70 2.148 . S
Co66 N76 2.128 . S
Co66 N86 2.194 . S
Co66 O91 2.351 . S
Co66 O92 2.155 . S
Co66 O93 2.096 . S
C67 N70 1.301 . S
C67 N71 1.328 . S
C67 H72 0.930 . S
C68 C69 1.333 . S
C68 N70 1.317 . S
C68 H73 0.930 . S
C69 C68 1.333 . S
C69 N71 1.350 . S
C69 H95 0.931 . S
N70 Co66 2.148 . S
N70 C67 1.301 . S
N70 C68 1.317 . S
N71 C67 1.328 . S
N71 C69 1.350 . S
H72 C67 0.930 . S
H73 C68 0.930 . S
C74 O75 1.224 . S
C74 O93 1.247 . S
O75 C74 1.224 . S
N76 Co66 2.128 . S
N76 C77 1.355 . S
N76 C79 1.311 . S
C77 N76 1.355 . S
C77 C78 1.363 . S
C77 H89 0.929 . S
C78 C77 1.363 . S
C78 N80 1.375 . S
C78 H96 0.931 . S
C79 N76 1.311 . S
C79 N80 1.347 . S
C79 H90 0.929 . S
N80 C78 1.375 . S
N80 C79 1.347 . S
C81 C84 1.365 . S
C81 N86 1.328 . S
C81 H87 0.929 . S
C82 C83 1.362 . S
C82 C85 1.378 . S
C82 H97 0.929 . S
C83 C82 1.362 . S
C83 C84 1.366 . S
C84 C81 1.365 . S
C84 C83 1.366 . S
C84 H98 0.930 . S
C85 C82 1.378 . S
C85 N86 1.315 . S
C85 H88 0.930 . S
N86 Co66 2.194 . S
N86 C81 1.328 . S
N86 C85 1.315 . S
H87 C81 0.929 . S
H88 C85 0.930 . S
H89 C77 0.929 . S
H90 C79 0.929 . S
O91 Co66 2.351 . S
O91 C94 1.244 . S
O92 Co66 2.155 . S
O92 C94 1.240 . S
O93 Co66 2.096 . S
O93 C74 1.247 . S
C94 O91 1.244 . S
C94 O92 1.240 . S
H95 C69 0.931 . S
H96 C78 0.931 . S
H97 C82 0.929 . S
H98 C84 0.930 . S
Co99 N103 2.148 . S
Co99 N109 2.128 . S
Co99 N119 2.194 . S
Co99 O124 2.351 . S
Co99 O125 2.155 . S
Co99 O126 2.096 . S
C100 N103 1.301 . S
C100 N104 1.328 . S
C100 H105 0.930 . S
C101 C102 1.333 . S
C101 N103 1.317 . S
C101 H106 0.930 . S
C102 C101 1.333 . S
C102 N104 1.350 . S
C102 H128 0.931 . S
N103 Co99 2.148 . S
N103 C100 1.301 . S
N103 C101 1.317 . S
N104 C100 1.328 . S
N104 C102 1.350 . S
H105 C100 0.930 . S
H106 C101 0.930 . S
C107 O108 1.224 . S
C107 O126 1.247 . S
O108 C107 1.224 . S
N109 Co99 2.128 . S
N109 C110 1.355 . S
N109 C112 1.311 . S
C110 N109 1.355 . S
C110 C111 1.363 . S
C110 H122 0.929 . S
C111 C110 1.363 . S
C111 N113 1.375 . S
C111 H129 0.931 . S
C112 N109 1.311 . S
C112 N113 1.347 . S
C112 H123 0.929 . S
N113 C111 1.375 . S
N113 C112 1.347 . S
C114 C117 1.365 . S
C114 N119 1.328 . S
C114 H120 0.929 . S
C115 C116 1.362 . S
C115 C118 1.378 . S
C115 H130 0.929 . S
C116 C115 1.362 . S
C116 C117 1.366 . S
C117 C114 1.365 . S
C117 C116 1.366 . S
C117 H131 0.930 . S
C118 C115 1.378 . S
C118 N119 1.315 . S
C118 H121 0.930 . S
N119 Co99 2.194 . S
N119 C114 1.328 . S
N119 C118 1.315 . S
H120 C114 0.929 . S
H121 C118 0.930 . S
H122 C110 0.929 . S
H123 C112 0.929 . S
O124 Co99 2.351 . S
O124 C127 1.244 . S
O125 Co99 2.155 . S
O125 C127 1.240 . S
O126 Co99 2.096 . S
O126 C107 1.247 . S
C127 O124 1.244 . S
C127 O125 1.240 . S
H128 C102 0.931 . S
H129 C111 0.931 . S
H130 C115 0.929 . S
H131 C117 0.930 . S
C132 C133 1.389 1_665 S
C132 C134 1.394 . S
C132 H148 0.931 . S
C133 C132 1.389 1_445 S
C133 C137 1.377 . S
C134 C132 1.394 . S
C134 C135 1.369 1_655 S
C134 C138 1.531 . S
C135 C134 1.369 1_455 S
C135 C136 1.410 1_565 S
C135 C143 1.503 . S
C136 C135 1.410 1_545 S
C136 C137 1.392 . S
C136 C139 1.511 . S
C137 C133 1.377 . S
C137 C136 1.392 . S
C137 H149 0.929 . S
C138 C134 1.531 . S
C138 H150 0.960 . S
C138 H151 0.962 . S
C138 H152 0.960 . S
C139 C136 1.511 . S
C139 H153 0.961 . S
C139 H154 0.961 . S
C139 H155 0.961 . S
C140 C141 1.370 1_655 S
C140 C142 1.363 . S
C140 H156 0.931 . S
C141 C140 1.370 1_455 S
C141 C145 1.408 1_545 S
C142 C140 1.363 . S
C142 C143 1.370 1_645 S
C142 C146 1.524 . S
C143 C135 1.503 . S
C143 C142 1.370 1_465 S
C143 C144 1.403 . S
C144 C143 1.403 . S
C144 C145 1.404 . S
C144 C147 1.539 . S
C145 C141 1.408 1_565 S
C145 C144 1.404 . S
C145 H157 0.930 . S
C146 C142 1.524 . S
C146 H158 0.956 . S
C146 H159 0.961 . S
C146 H160 0.961 . S
C147 C144 1.539 . S
C147 H161 0.958 . S
C147 H162 0.961 . S
C147 H163 0.960 . S
H148 C132 0.931 . S
H149 C137 0.929 . S
H150 C138 0.960 . S
H151 C138 0.962 . S
H152 C138 0.960 . S
H153 C139 0.961 . S
H154 C139 0.961 . S
H155 C139 0.961 . S
H156 C140 0.931 . S
H157 C145 0.930 . S
H158 C146 0.956 . S
H159 C146 0.961 . S
H160 C146 0.961 . S
H161 C147 0.958 . S
H162 C147 0.961 . S
H163 C147 0.960 . S
C164 C165 1.391 . S
C164 C166 1.394 . S
C164 H180 0.931 . S
C165 C164 1.391 . S
C165 C169 1.376 . S
C166 C164 1.394 . S
C166 C167 1.369 . S
C166 C170 1.531 . S
C167 C166 1.369 . S
C167 C168 1.410 . S
C167 C175 1.503 1_554 S
C168 C167 1.410 . S
C168 C169 1.392 . S
C168 C171 1.511 . S
C169 C165 1.376 . S
C169 C168 1.392 . S
C169 H181 0.929 . S
C170 C166 1.531 . S
C170 H182 0.960 1_554 S
C170 H183 0.962 . S
C170 H184 0.960 . S
C171 C168 1.511 . S
C171 H185 0.961 . S
C171 H186 0.961 1_554 S
C171 H187 0.961 . S
C172 C173 1.370 . S
C172 C174 1.363 . S
C172 H188 0.931 . S
C173 C172 1.370 . S
C173 C177 1.408 . S
C174 C172 1.363 . S
C174 C175 1.370 . S
C174 C178 1.524 . S
C175 C167 1.503 1_556 S
C175 C174 1.370 . S
C175 C176 1.403 . S
C176 C175 1.403 . S
C176 C177 1.404 . S
C176 C179 1.539 . S
C177 C173 1.408 . S
C177 C176 1.404 . S
C177 H189 0.930 . S
C178 C174 1.524 . S
C178 H190 0.977 . S
C178 H191 0.961 1_556 S
C178 H192 0.961 . S
C179 C176 1.539 . S
C179 H193 0.958 . S
C179 H194 0.961 . S
C179 H195 0.982 . S
H180 C164 0.931 . S
H181 C169 0.929 . S
H182 C170 0.960 1_556 S
H183 C170 0.962 . S
H184 C170 0.960 . S
H185 C171 0.961 . S
H186 C171 0.961 1_556 S
H187 C171 0.961 . S
H188 C172 0.931 . S
H189 C177 0.930 . S
H190 C178 0.977 . S
H191 C178 0.961 1_554 S
H192 C178 0.961 . S
H193 C179 0.958 . S
H194 C179 0.961 . S
H195 C179 0.982 . S
C196 C197 1.391 . S
C196 C198 1.394 . S
C196 H212 0.931 . S
C197 C196 1.391 . S
C197 C201 1.376 . S
C198 C196 1.394 . S
C198 C199 1.369 . S
C198 C202 1.531 . S
C199 C198 1.369 . S
C199 C200 1.410 . S
C199 C207 1.503 . S
C200 C199 1.410 . S
C200 C201 1.392 . S
C200 C203 1.511 . S
C201 C197 1.376 . S
C201 C200 1.392 . S
C201 H213 0.929 . S
C202 C198 1.531 . S
C202 H214 0.960 . S
C202 H215 0.962 . S
C202 H216 0.960 . S
C203 C200 1.511 . S
C203 H217 0.961 . S
C203 H218 0.961 . S
C203 H219 0.961 . S
C204 C205 1.370 . S
C204 C206 1.363 . S
C204 H220 0.931 . S
C205 C204 1.370 . S
C205 C209 1.408 . S
C206 C204 1.363 . S
C206 C207 1.370 . S
C206 C210 1.524 . S
C207 C199 1.503 . S
C207 C206 1.370 . S
C207 C208 1.403 . S
C208 C207 1.403 . S
C208 C209 1.404 . S
C208 C211 1.539 . S
C209 C205 1.408 . S
C209 C208 1.404 . S
C209 H221 0.930 . S
C210 C206 1.524 . S
C210 H222 0.956 . S
C210 H223 0.961 . S
C210 H224 0.961 . S
C211 C208 1.539 . S
C211 H225 0.958 . S
C211 H226 0.961 . S
C211 H227 0.960 . S
H212 C196 0.931 . S
H213 C201 0.929 . S
H214 C202 0.960 . S
H215 C202 0.962 . S
H216 C202 0.960 . S
H217 C203 0.961 . S
H218 C203 0.961 . S
H219 C203 0.961 . S
H220 C204 0.931 . S
H221 C209 0.930 . S
H222 C210 0.956 . S
H223 C210 0.961 . S
H224 C210 0.961 . S
H225 C211 0.958 . S
H226 C211 0.961 . S
H227 C211 0.960 . S
C228 C229 1.391 . S
C228 C230 1.394 . S
C228 H244 0.931 . S
C229 C228 1.391 . S
C229 C233 1.376 . S
C230 C228 1.394 . S
C230 C231 1.369 . S
C230 C234 1.531 . S
C231 C230 1.369 . S
C231 C232 1.410 . S
C231 C239 1.503 . S
C232 C231 1.410 . S
C232 C233 1.392 . S
C232 C235 1.511 . S
C233 C229 1.376 . S
C233 C232 1.392 . S
C233 H245 0.929 . S
C234 C230 1.531 . S
C234 H246 0.960 . S
C234 H247 0.962 . S
C234 H248 0.960 . S
C235 C232 1.511 . S
C235 H249 0.961 . S
C235 H250 0.961 . S
C235 H251 0.961 . S
C236 C237 1.370 . S
C236 C238 1.363 . S
C236 H252 0.931 . S
C237 C236 1.370 . S
C237 C241 1.408 . S
C238 C236 1.363 . S
C238 C239 1.370 . S
C238 C242 1.524 . S
C239 C231 1.503 . S
C239 C238 1.370 . S
C239 C240 1.403 . S
C240 C239 1.403 . S
C240 C241 1.404 . S
C240 C243 1.539 . S
C241 C237 1.408 . S
C241 C240 1.404 . S
C241 H253 0.930 . S
C242 C238 1.524 . S
C242 H254 0.956 . S
C242 H255 0.961 . S
C242 H256 0.961 . S
C243 C240 1.539 . S
C243 H257 0.958 . S
C243 H258 0.961 . S
C243 H259 0.960 . S
H244 C228 0.931 . S
H245 C233 0.929 . S
H246 C234 0.960 . S
H247 C234 0.962 . S
H248 C234 0.960 . S
H249 C235 0.961 . S
H250 C235 0.961 . S
H251 C235 0.961 . S
H252 C236 0.931 . S
H253 C241 0.930 . S
H254 C242 0.956 . S
H255 C242 0.961 . S
H256 C242 0.961 . S
H257 C243 0.958 . S
H258 C243 0.961 . S
H259 C243 0.960 . S
C260 C261 1.391 . S
C260 C262 1.394 . S
C260 H276 0.931 . S
C261 C260 1.391 . S
C261 C265 1.376 . S
C262 C260 1.394 . S
C262 C263 1.369 . S
C262 C266 1.531 . S
C263 C262 1.369 . S
C263 C264 1.410 . S
C263 C271 1.503 . S
C264 C263 1.410 . S
C264 C265 1.392 . S
C264 C267 1.511 . S
C265 C261 1.376 . S
C265 C264 1.392 . S
C265 H277 0.929 . S
C266 C262 1.531 . S
C266 H278 0.960 . S
C266 H279 0.962 . S
C266 H280 0.960 . S
C267 C264 1.511 . S
C267 H281 0.961 . S
C267 H282 0.961 . S
C267 H283 0.961 . S
C268 C269 1.370 . S
C268 C270 1.363 . S
C268 H284 0.931 . S
C269 C268 1.370 . S
C269 C273 1.408 . S
C270 C268 1.363 . S
C270 C271 1.370 . S
C270 C274 1.524 . S
C271 C263 1.503 . S
C271 C270 1.370 . S
C271 C272 1.403 . S
C272 C271 1.403 . S
C272 C273 1.404 . S
C272 C275 1.539 . S
C273 C269 1.408 . S
C273 C272 1.404 . S
C273 H285 0.930 . S
C274 C270 1.524 . S
C274 H286 0.956 . S
C274 H287 0.961 . S
C274 H288 0.961 . S
C275 C272 1.539 . S
C275 H289 0.958 . S
C275 H290 0.961 . S
C275 H291 0.960 . S
H276 C260 0.931 . S
H277 C265 0.929 . S
H278 C266 0.960 . S
H279 C266 0.962 . S
H280 C266 0.960 . S
H281 C267 0.961 . S
H282 C267 0.961 . S
H283 C267 0.961 . S
H284 C268 0.931 . S
H285 C273 0.930 . S
H286 C274 0.956 . S
H287 C274 0.961 . S
H288 C274 0.961 . S
H289 C275 0.958 . S
H290 C275 0.961 . S
H291 C275 0.960 . S
C292 C293 1.391 . S
C292 C294 1.394 . S
C292 H308 0.931 . S
C293 C292 1.391 . S
C293 C297 1.376 . S
C294 C292 1.394 . S
C294 C295 1.369 . S
C294 C298 1.531 . S
C295 C294 1.369 . S
C295 C296 1.410 . S
C295 C303 1.503 . S
C296 C295 1.410 . S
C296 C297 1.392 . S
C296 C299 1.511 . S
C297 C293 1.376 . S
C297 C296 1.392 . S
C297 H309 0.929 . S
C298 C294 1.531 . S
C298 H310 0.960 . S
C298 H311 0.962 . S
C298 H312 0.960 . S
C299 C296 1.511 . S
C299 H313 0.961 . S
C299 H314 0.961 . S
C299 H315 0.961 . S
C300 C301 1.370 . S
C300 C302 1.363 . S
C300 H316 0.931 . S
C301 C300 1.370 . S
C301 C305 1.408 . S
C302 C300 1.363 . S
C302 C303 1.370 . S
C302 C306 1.524 . S
C303 C295 1.503 . S
C303 C302 1.370 . S
C303 C304 1.403 . S
C304 C303 1.403 . S
C304 C305 1.404 . S
C304 C307 1.539 . S
C305 C301 1.408 . S
C305 C304 1.404 . S
C305 H317 0.930 . S
C306 C302 1.524 . S
C306 H318 0.956 . S
C306 H319 0.961 . S
C306 H320 0.961 . S
C307 C304 1.539 . S
C307 H321 0.958 . S
C307 H322 0.961 . S
C307 H323 0.960 . S
H308 C292 0.931 . S
H309 C297 0.929 . S
H310 C298 0.960 . S
H311 C298 0.962 . S
H312 C298 0.960 . S
H313 C299 0.961 . S
H314 C299 0.961 . S
H315 C299 0.961 . S
H316 C300 0.931 . S
H317 C305 0.930 . S
H318 C306 0.956 . S
H319 C306 0.961 . S
H320 C306 0.961 . S
H321 C307 0.958 . S
H322 C307 0.961 . S
H323 C307 0.960 . S
C324 C325 1.391 . S
C324 C326 1.394 . S
C324 H340 0.931 . S
C325 C324 1.391 . S
C325 C329 1.376 . S
C326 C324 1.394 . S
C326 C327 1.369 . S
C326 C330 1.531 . S
C327 C326 1.369 . S
C327 C328 1.410 . S
C327 C335 1.503 . S
C328 C327 1.410 . S
C328 C329 1.392 . S
C328 C331 1.511 . S
C329 C325 1.376 . S
C329 C328 1.392 . S
C329 H341 0.929 . S
C330 C326 1.531 . S
C330 H342 0.960 . S
C330 H343 0.962 . S
C330 H344 0.960 . S
C331 C328 1.511 . S
C331 H345 0.961 . S
C331 H346 0.961 . S
C331 H347 0.961 . S
C332 C333 1.370 . S
C332 C334 1.363 . S
C332 H348 0.931 . S
C333 C332 1.370 . S
C333 C337 1.408 . S
C334 C332 1.363 . S
C334 C335 1.370 . S
C334 C338 1.524 . S
C335 C327 1.503 . S
C335 C334 1.370 . S
C335 C336 1.403 . S
C336 C335 1.403 . S
C336 C337 1.404 . S
C336 C339 1.539 . S
C337 C333 1.408 . S
C337 C336 1.404 . S
C337 H349 0.930 . S
C338 C334 1.524 . S
C338 H350 0.956 . S
C338 H351 0.961 . S
C338 H352 0.961 . S
C339 C336 1.539 . S
C339 H353 0.958 . S
C339 H354 0.961 . S
C339 H355 0.960 . S
H340 C324 0.931 . S
H341 C329 0.929 . S
H342 C330 0.960 . S
H343 C330 0.962 . S
H344 C330 0.960 . S
H345 C331 0.961 . S
H346 C331 0.961 . S
H347 C331 0.961 . S
H348 C332 0.931 . S
H349 C337 0.930 . S
H350 C338 0.956 . S
H351 C338 0.961 . S
H352 C338 0.961 . S
H353 C339 0.958 . S
H354 C339 0.961 . S
H355 C339 0.960 . S
C356 C357 1.391 . S
C356 C358 1.394 . S
C356 H372 0.931 . S
C357 C356 1.391 . S
C357 C361 1.376 . S
C358 C356 1.394 . S
C358 C359 1.369 . S
C358 C362 1.531 . S
C359 C358 1.369 . S
C359 C360 1.410 . S
C359 C367 1.503 . S
C360 C359 1.410 . S
C360 C361 1.392 . S
C360 C363 1.511 . S
C361 C357 1.376 . S
C361 C360 1.392 . S
C361 H373 0.929 . S
C362 C358 1.531 . S
C362 H374 0.960 . S
C362 H375 0.962 . S
C362 H376 0.960 . S
C363 C360 1.511 . S
C363 H377 0.961 . S
C363 H378 0.961 . S
C363 H379 0.961 . S
C364 C365 1.370 . S
C364 C366 1.363 . S
C364 H380 0.931 . S
C365 C364 1.370 . S
C365 C369 1.408 . S
C366 C364 1.363 . S
C366 C367 1.370 . S
C366 C370 1.524 . S
C367 C359 1.503 . S
C367 C366 1.370 . S
C367 C368 1.403 . S
C368 C367 1.403 . S
C368 C369 1.404 . S
C368 C371 1.539 . S
C369 C365 1.408 . S
C369 C368 1.404 . S
C369 H381 0.930 . S
C370 C366 1.524 . S
C370 H382 0.956 . S
C370 H383 0.961 . S
C370 H384 0.961 . S
C371 C368 1.539 . S
C371 H385 0.958 . S
C371 H386 0.961 . S
C371 H387 0.960 . S
H372 C356 0.931 . S
H373 C361 0.929 . S
H374 C362 0.960 . S
H375 C362 0.962 . S
H376 C362 0.960 . S
H377 C363 0.961 . S
H378 C363 0.961 . S
H379 C363 0.961 . S
H380 C364 0.931 . S
H381 C369 0.930 . S
H382 C370 0.956 . S
H383 C370 0.961 . S
H384 C370 0.961 . S
H385 C371 0.958 . S
H386 C371 0.961 . S
H387 C371 0.960 . S
C388 C389 1.391 . S
C388 C390 1.394 . S
C388 H404 0.931 . S
C389 C388 1.391 . S
C389 C393 1.376 . S
C390 C388 1.394 . S
C390 C391 1.369 . S
C390 C394 1.531 . S
C391 C390 1.369 . S
C391 C392 1.410 . S
C391 C399 1.503 . S
C392 C391 1.410 . S
C392 C393 1.392 . S
C392 C395 1.511 . S
C393 C389 1.376 . S
C393 C392 1.392 . S
C393 H405 0.929 . S
C394 C390 1.531 . S
C394 H406 0.960 . S
C394 H407 0.962 . S
C394 H408 0.960 . S
C395 C392 1.511 . S
C395 H409 0.961 . S
C395 H410 0.961 . S
C395 H411 0.961 . S
C396 C397 1.370 . S
C396 C398 1.363 . S
C396 H412 0.931 . S
C397 C396 1.370 . S
C397 C401 1.408 . S
C398 C396 1.363 . S
C398 C399 1.370 . S
C398 C402 1.524 . S
C399 C391 1.503 . S
C399 C398 1.370 . S
C399 C400 1.403 . S
C400 C399 1.403 . S
C400 C401 1.404 . S
C400 C403 1.539 . S
C401 C397 1.408 . S
C401 C400 1.404 . S
C401 H413 0.930 . S
C402 C398 1.524 . S
C402 H414 0.956 . S
C402 H415 0.961 . S
C402 H416 0.961 . S
C403 C400 1.539 . S
C403 H417 0.958 . S
C403 H418 0.961 . S
C403 H419 0.960 . S
H404 C388 0.931 . S
H405 C393 0.929 . S
H406 C394 0.960 . S
H407 C394 0.962 . S
H408 C394 0.960 . S
H409 C395 0.961 . S
H410 C395 0.961 . S
H411 C395 0.961 . S
H412 C396 0.931 . S
H413 C401 0.930 . S
H414 C402 0.956 . S
H415 C402 0.961 . S
H416 C402 0.961 . S
H417 C403 0.958 . S
H418 C403 0.961 . S
H419 C403 0.960 . S
C420 C421 1.391 . S
C420 C422 1.394 . S
C420 H436 0.931 . S
C421 C420 1.391 . S
C421 C425 1.376 . S
C422 C420 1.394 . S
C422 C423 1.369 . S
C422 C426 1.531 . S
C423 C422 1.369 . S
C423 C424 1.410 . S
C423 C431 1.503 . S
C424 C423 1.410 . S
C424 C425 1.392 . S
C424 C427 1.511 . S
C425 C421 1.376 . S
C425 C424 1.392 . S
C425 H437 0.929 . S
C426 C422 1.531 . S
C426 H438 0.960 . S
C426 H439 0.962 . S
C426 H440 0.960 . S
C427 C424 1.511 . S
C427 H441 0.961 . S
C427 H442 0.961 . S
C427 H443 0.961 . S
C428 C429 1.370 . S
C428 C430 1.363 . S
C428 H444 0.931 . S
C429 C428 1.370 . S
C429 C433 1.408 . S
C430 C428 1.363 . S
C430 C431 1.370 . S
C430 C434 1.524 . S
C431 C423 1.503 . S
C431 C430 1.370 . S
C431 C432 1.403 . S
C432 C431 1.403 . S
C432 C433 1.404 . S
C432 C435 1.539 . S
C433 C429 1.408 . S
C433 C432 1.404 . S
C433 H445 0.930 . S
C434 C430 1.524 . S
C434 H446 0.956 . S
C434 H447 0.961 . S
C434 H448 0.961 . S
C435 C432 1.539 . S
C435 H449 0.958 . S
C435 H450 0.961 . S
C435 H451 0.960 . S
H436 C420 0.931 . S
H437 C425 0.929 . S
H438 C426 0.960 . S
H439 C426 0.962 . S
H440 C426 0.960 . S
H441 C427 0.961 . S
H442 C427 0.961 . S
H443 C427 0.961 . S
H444 C428 0.931 . S
H445 C433 0.930 . S
H446 C434 0.956 . S
H447 C434 0.961 . S
H448 C434 0.961 . S
H449 C435 0.958 . S
H450 C435 0.961 . S
H451 C435 0.960 . S
C133 C17 1.489 . S
C141 C50 1.486 . S
C165 C116 1.487 . S
C173 C83 1.487 . S
C197 C8 1.509 . S
C205 N113 1.502 . S
C229 N5 1.377 . S
C237 C127 1.458 . S
C261 N104 1.379 . S
C269 C28 1.460 . S
C293 N14 1.491 . S
C301 C107 1.524 . S
C325 N71 1.416 . S
C333 C61 1.461 . S
C357 N38 1.365 . S
C365 C94 1.454 . S
C389 C41 1.504 . S
C397 N80 1.489 . S
C421 C74 1.503 . S
C429 N47 1.495 . S
