# Generated by pormake.
# Topology qtz-e, (6)-cn, num edge types: 1
# Building blocks:
#     Node 0, Type 0, BuildingBlock: PAMTUU_clean_sbu_0, # of connection points: 6
#     Node 1, Type 0, BuildingBlock: PAMTUU_clean_sbu_0, # of connection points: 6
#     Node 2, Type 0, BuildingBlock: PAMTUU_clean_sbu_0, # of connection points: 6
#     Node 3, Type 0, BuildingBlock: PAMTUU_clean_sbu_0, # of connection points: 6
#     Node 4, Type 0, BuildingBlock: PAMTUU_clean_sbu_0, # of connection points: 6
#     Node 5, Type 0, BuildingBlock: PAMTUU_clean_sbu_0, # of connection points: 6
#     Edge 6, Type (0, 0), BuildingBlock: UVAHIK_clean_linker_0, # of connection points: 2
#     Edge 7, Type (0, 0), BuildingBlock: UVAHIK_clean_linker_0, # of connection points: 2
#     Edge 8, Type (0, 0), BuildingBlock: UVAHIK_clean_linker_0, # of connection points: 2
#     Edge 9, Type (0, 0), BuildingBlock: UVAHIK_clean_linker_0, # of connection points: 2
#     Edge 10, Type (0, 0), BuildingBlock: UVAHIK_clean_linker_0, # of connection points: 2
#     Edge 11, Type (0, 0), BuildingBlock: UVAHIK_clean_linker_0, # of connection points: 2
#     Edge 12, Type (0, 0), BuildingBlock: UVAHIK_clean_linker_0, # of connection points: 2
#     Edge 13, Type (0, 0), BuildingBlock: UVAHIK_clean_linker_0, # of connection points: 2
#     Edge 14, Type (0, 0), BuildingBlock: UVAHIK_clean_linker_0, # of connection points: 2
#     Edge 15, Type (0, 0), BuildingBlock: UVAHIK_clean_linker_0, # of connection points: 2
#     Edge 16, Type (0, 0), BuildingBlock: UVAHIK_clean_linker_0, # of connection points: 2
#     Edge 17, Type (0, 0), BuildingBlock: UVAHIK_clean_linker_0, # of connection points: 2
#     Edge 18, Type (0, 0), BuildingBlock: UVAHIK_clean_linker_0, # of connection points: 2
#     Edge 19, Type (0, 0), BuildingBlock: UVAHIK_clean_linker_0, # of connection points: 2
#     Edge 20, Type (0, 0), BuildingBlock: UVAHIK_clean_linker_0, # of connection points: 2
#     Edge 21, Type (0, 0), BuildingBlock: UVAHIK_clean_linker_0, # of connection points: 2
#     Edge 22, Type (0, 0), BuildingBlock: UVAHIK_clean_linker_0, # of connection points: 2
#     Edge 23, Type (0, 0), BuildingBlock: UVAHIK_clean_linker_0, # of connection points: 2
# Relax obj value: 0.168
# Max RMSD: 0.200
# Mean RMSD: 0.200
data_MOF--net-qtz-e--node1-PAMTUU_clean_sbu_0--edge1-UVAHIK_clean_linker_0
_symmetry_space_group_name_H-M    P1
_symmetry_Int_Tables_number       1
_symmetry_cell_setting            triclinic
loop_
_symmetry_equiv_pos_as_xyz
'x, y, z'
_cell_length_a     34.315722
_cell_length_b     34.216973
_cell_length_c     61.849113
_cell_angle_alpha  89.992392
_cell_angle_beta   89.896215
_cell_angle_gamma 119.93371
loop_
_atom_site_label
_atom_site_type_symbol
_atom_site_fract_x
_atom_site_fract_y
_atom_site_fract_z
_atom_type_partial_charge
Tb0 Tb 0.21763 0.35721 0.08219 0.0
Tb1 Tb 0.25703 0.45435 0.05564 0.0
C2 C 0.31728 0.43378 0.0854 0.0
C3 C 0.15595 0.26962 0.12318 0.0
C4 C 0.1062 0.24345 0.16209 0.0
C5 C 0.12201 0.21639 0.15278 0.0
C6 C 0.14681 0.22948 0.13352 0.0
C7 C 0.13954 0.29628 0.13214 0.0
C8 C 0.11494 0.28337 0.15142 0.0
C9 C 0.18467 0.28498 0.10381 0.0
O10 O 0.22296 0.40619 0.10617 0.0
O11 O 0.22733 0.46379 0.08481 0.0
O12 O 0.19189 0.40504 0.04334 0.0
O13 O 0.16285 0.36984 0.07515 0.0
O14 O 0.31208 0.51427 0.04459 0.0
O15 O 0.24425 0.49926 0.0378 0.0
O16 O 0.2764 0.41383 0.03647 0.0
O17 O 0.22626 0.34219 0.04882 0.0
O18 O 0.29076 0.39026 0.08247 0.0
O19 O 0.30457 0.46294 0.08048 0.0
C20 C 0.22183 0.44385 0.10369 0.0
O21 O 0.16631 0.28988 0.08632 0.0
O22 O 0.22483 0.31923 0.10686 0.0
C23 C 0.15771 0.38493 0.05652 0.0
C24 C 0.29957 0.53822 0.01102 0.0
C25 C 0.32987 0.56702 0.96852 0.0
C26 C 0.30882 0.58645 0.98037 0.0
C27 C 0.29392 0.57221 1.0015 0.0
C28 C 0.31916 0.51767 0.99896 0.0
C29 C 0.3343 0.53204 0.97792 0.0
C30 C 0.28689 0.52591 0.03378 0.0
C31 C 0.2549 0.36976 0.03428 0.0
H32 H 0.11626 0.18572 0.16069 0.0
H33 H 0.1595 0.20867 0.12689 0.0
H34 H 0.14626 0.3274 0.12434 0.0
H35 H 0.10275 0.30466 0.15797 0.0
H36 H 0.30525 0.61366 0.97357 0.0
H37 H 0.27887 0.58842 0.01057 0.0
H38 H 0.32366 0.49118 0.00596 0.0
H39 H 0.34984 0.51607 0.96906 0.0
Tb40 Tb 0.76694 0.13085 0.44931 0.0
Tb41 Tb 0.73038 0.19026 0.47644 0.0
C42 C 0.66693 0.10683 0.44849 0.0
C43 C 0.82526 0.10383 0.40698 0.0
C44 C 0.8725 0.12612 0.36735 0.0
C45 C 0.86103 0.08532 0.37794 0.0
C46 C 0.83749 0.07425 0.39758 0.0
C47 C 0.83719 0.14485 0.39668 0.0
C48 C 0.86055 0.15588 0.37705 0.0
C49 C 0.79849 0.09117 0.42699 0.0
O50 O 0.75673 0.17143 0.42545 0.0
O51 O 0.75827 0.22784 0.44656 0.0
O52 O 0.79611 0.2057 0.4876 0.0
O53 O 0.82223 0.19871 0.45515 0.0
O54 O 0.6767 0.19694 0.48796 0.0
O55 O 0.74523 0.24859 0.49428 0.0
O56 O 0.71277 0.13161 0.49638 0.0
O57 O 0.76044 0.10809 0.4827 0.0
O58 O 0.69396 0.09026 0.45074 0.0
O59 O 0.67974 0.14886 0.45318 0.0
C60 C 0.75976 0.21113 0.42759 0.0
O61 O 0.8184 0.11549 0.444 0.0
O62 O 0.75786 0.08453 0.42489 0.0
C63 C 0.82916 0.21935 0.47378 0.0
C64 C 0.69098 0.23389 0.52144 0.0
C65 C 0.6608 0.23283 0.56393 0.0
C66 C 0.6807 0.27293 0.55176 0.0
C67 C 0.69553 0.27337 0.53063 0.0
C68 C 0.67272 0.19423 0.53384 0.0
C69 C 0.65763 0.19367 0.55488 0.0
C70 C 0.70291 0.23371 0.4986 0.0
C71 C 0.73348 0.10812 0.49788 0.0
H72 H 0.86931 0.06146 0.37082 0.0
H73 H 0.82832 0.04233 0.40526 0.0
H74 H 0.82804 0.16815 0.40373 0.0
H75 H 0.86939 0.18782 0.3695 0.0
H76 H 0.6833 0.30352 0.55828 0.0
H77 H 0.70953 0.30426 0.52129 0.0
H78 H 0.66907 0.16338 0.52708 0.0
H79 H 0.643 0.16246 0.56398 0.0
Tb80 Tb 0.63593 0.854 0.74837 0.0
Tb81 Tb 0.54762 0.79044 0.71759 0.0
C82 C 0.56126 0.87814 0.73732 0.0
C83 C 0.72036 0.89126 0.79201 0.0
C84 C 0.74978 0.87076 0.83075 0.0
C85 C 0.76042 0.91528 0.82613 0.0
C86 C 0.74587 0.92541 0.8069 0.0
C87 C 0.71005 0.84685 0.79641 0.0
C88 C 0.72487 0.83673 0.81555 0.0
C89 C 0.70171 0.9016 0.77287 0.0
O90 O 0.59136 0.79778 0.76874 0.0
O91 O 0.52457 0.77607 0.75108 0.0
O92 O 0.57087 0.7459 0.72835 0.0
O93 O 0.64375 0.79706 0.73835 0.0
O94 O 0.48004 0.76838 0.71024 0.0
O95 O 0.51813 0.74505 0.69192 0.0
O96 O 0.60574 0.82444 0.69653 0.0
O97 O 0.64804 0.88737 0.71704 0.0
O98 O 0.58584 0.87472 0.75262 0.0
O99 O 0.55521 0.85697 0.71895 0.0
C100 C 0.54722 0.77613 0.76826 0.0
O101 O 0.70538 0.88503 0.75447 0.0
O102 O 0.66162 0.89607 0.77549 0.0
C103 C 0.61196 0.75596 0.73333 0.0
C104 C 0.46377 0.75473 0.67328 0.0
C105 C 0.42977 0.77099 0.63505 0.0
C106 C 0.40088 0.73757 0.64971 0.0
C107 C 0.4178 0.72949 0.66865 0.0
C108 C 0.4928 0.78845 0.65883 0.0
C109 C 0.47594 0.79635 0.63977 0.0
C110 C 0.48064 0.74588 0.69338 0.0
C111 C 0.63732 0.86678 0.69825 0.0
H112 H 0.77988 0.94228 0.83742 0.0
H113 H 0.75383 0.95981 0.80385 0.0
H114 H 0.68975 0.81988 0.78525 0.0
H115 H 0.71566 0.80204 0.81876 0.0
H116 H 0.36526 0.71717 0.64638 0.0
H117 H 0.39497 0.70345 0.67968 0.0
H118 H 0.52841 0.80861 0.66229 0.0
H119 H 0.49887 0.82258 0.62886 0.0
Tb120 Tb 0.85554 0.63537 0.11594 0.0
Tb121 Tb 0.79557 0.53693 0.14123 0.0
C122 C 0.877 0.55772 0.11209 0.0
C123 C 0.88652 0.72489 0.0748 0.0
C124 C 0.86604 0.75231 0.03538 0.0
C125 C 0.90908 0.75816 0.03899 0.0
C126 C 0.91923 0.74472 0.05854 0.0
C127 C 0.84353 0.71925 0.07133 0.0
C128 C 0.83352 0.73316 0.05185 0.0
C129 C 0.89702 0.70762 0.09452 0.0
O130 O 0.81199 0.58781 0.09157 0.0
O131 O 0.75678 0.53136 0.11253 0.0
O132 O 0.78093 0.58652 0.15457 0.0
O133 O 0.78891 0.62462 0.12341 0.0
O134 O 0.79072 0.4766 0.15182 0.0
O135 O 0.73684 0.49056 0.15789 0.0
O136 O 0.85421 0.5763 0.16113 0.0
O137 O 0.87758 0.64896 0.1495 0.0
O138 O 0.89448 0.60096 0.11608 0.0
O139 O 0.83462 0.52907 0.11604 0.0
C140 C 0.77205 0.55167 0.09381 0.0
O141 O 0.87336 0.70331 0.11184 0.0
O142 O 0.9022 0.67278 0.09163 0.0
C143 C 0.7681 0.60851 0.14187 0.0
C144 C 0.7506 0.4489 0.18424 0.0
C145 C 0.74908 0.41656 0.22631 0.0
C146 C 0.71286 0.39231 0.2121 0.0
C147 C 0.7136 0.40845 0.19125 0.0
C148 C 0.78644 0.47365 0.19848 0.0
C149 C 0.78559 0.45778 0.2194 0.0
C150 C 0.75263 0.46358 0.16174 0.0
C151 C 0.8768 0.62025 0.16391 0.0
H152 H 0.93493 0.77316 0.02668 0.0
H153 H 0.95248 0.74911 0.06083 0.0
H154 H 0.81744 0.70342 0.08348 0.0
H155 H 0.79993 0.72778 0.04944 0.0
H156 H 0.6841 0.36066 0.21707 0.0
H157 H 0.68569 0.38888 0.18046 0.0
H158 H 0.8156 0.50454 0.19318 0.0
H159 H 0.8142 0.47693 0.22987 0.0
Tb160 Tb 0.12878 0.77391 0.41523 0.0
Tb161 Tb 0.18957 0.73664 0.39023 0.0
C162 C 0.10869 0.67496 0.41964 0.0
C163 C 0.09885 0.8327 0.45587 0.0
C164 C 0.11888 0.87962 0.49548 0.0
C165 C 0.07877 0.86822 0.48442 0.0
C166 C 0.06876 0.84473 0.4648 0.0
C167 C 0.13939 0.84501 0.46656 0.0
C168 C 0.14925 0.86809 0.48621 0.0
C169 C 0.08716 0.80531 0.43609 0.0
O170 O 0.17193 0.76965 0.43971 0.0
O171 O 0.22813 0.76952 0.41909 0.0
O172 O 0.20274 0.80068 0.37714 0.0
O173 O 0.19548 0.83011 0.4085 0.0
O174 O 0.19951 0.68315 0.38154 0.0
O175 O 0.24527 0.75073 0.37047 0.0
O176 O 0.12808 0.71218 0.37194 0.0
O177 O 0.10761 0.76447 0.38149 0.0
O178 O 0.09071 0.70046 0.4161 0.0
O179 O 0.15094 0.68883 0.4152 0.0
C180 C 0.21208 0.77381 0.43776 0.0
O181 O 0.11204 0.82488 0.41914 0.0
O182 O 0.08089 0.76481 0.43877 0.0
C183 C 0.21611 0.83531 0.38999 0.0
C184 C 0.22875 0.69089 0.34626 0.0
C185 C 0.22281 0.65557 0.30444 0.0
C186 C 0.26452 0.68867 0.31269 0.0
C187 C 0.26747 0.70601 0.33349 0.0
C188 C 0.18684 0.65876 0.33776 0.0
C189 C 0.18397 0.64109 0.3171 0.0
C190 C 0.23254 0.70809 0.36848 0.0
C191 C 0.10606 0.73371 0.36816 0.0
H192 H 0.05459 0.87638 0.49123 0.0
H193 H 0.03723 0.83532 0.45679 0.0
H194 H 0.16315 0.8362 0.45984 0.0
H195 H 0.18069 0.87695 0.49416 0.0
H196 H 0.29499 0.70024 0.30328 0.0
H197 H 0.30006 0.73083 0.33971 0.0
H198 H 0.1563 0.64684 0.34715 0.0
H199 H 0.15134 0.61606 0.31102 0.0
Tb200 Tb 0.34994 0.21101 0.78307 0.0
Tb201 Tb 0.43841 0.23686 0.81387 0.0
C202 C 0.42394 0.31021 0.79387 0.0
C203 C 0.26619 0.16208 0.7395 0.0
C204 C 0.23726 0.1121 0.70078 0.0
C205 C 0.21419 0.13304 0.7093 0.0
C206 C 0.22869 0.15799 0.72848 0.0
C207 C 0.28858 0.14029 0.73138 0.0
C208 C 0.27431 0.11561 0.71218 0.0
C209 C 0.28356 0.19111 0.75868 0.0
O210 O 0.39528 0.20066 0.76261 0.0
O211 O 0.46184 0.24595 0.78044 0.0
O212 O 0.41625 0.16936 0.80296 0.0
O213 O 0.3431 0.14674 0.79319 0.0
O214 O 0.5056 0.28326 0.82147 0.0
O215 O 0.46822 0.22133 0.83953 0.0
O216 O 0.38013 0.21226 0.8349 0.0
O217 O 0.33767 0.23245 0.81429 0.0
O218 O 0.39942 0.28202 0.77861 0.0
O219 O 0.43002 0.2953 0.81229 0.0
C220 C 0.43942 0.22351 0.76318 0.0
O221 O 0.28061 0.17078 0.77696 0.0
O222 O 0.32305 0.2267 0.75622 0.0
C223 C 0.37531 0.13796 0.798 0.0
C224 C 0.52096 0.28561 0.8585 0.0
C225 C 0.55239 0.33508 0.89709 0.0
C226 C 0.58184 0.32908 0.88346 0.0
C227 C 0.56619 0.30448 0.86433 0.0
C228 C 0.49142 0.29181 0.87189 0.0
C229 C 0.50699 0.3162 0.89112 0.0
C230 C 0.50525 0.26015 0.83828 0.0
C231 C 0.34854 0.22297 0.83314 0.0
H232 H 0.18577 0.13126 0.70082 0.0
H233 H 0.21117 0.17478 0.73448 0.0
H234 H 0.31757 0.143 0.73971 0.0
H235 H 0.2924 0.09937 0.70622 0.0
H236 H 0.61685 0.34278 0.88776 0.0
H237 H 0.58938 0.30007 0.8541 0.0
H238 H 0.4564 0.27778 0.86749 0.0
H239 H 0.48367 0.32068 0.9012 0.0
C240 C 0.19585 0.58802 0.28055 0.0
C241 C 0.21987 0.63508 0.28297 0.0
C242 C 0.19368 0.56837 0.26048 0.0
C243 C 0.25082 0.59313 0.20704 0.0
H244 H 0.14351 0.48231 0.19063 0.0
C245 C 0.22883 0.51159 0.12281 0.0
C246 C 0.21618 0.46567 0.12315 0.0
C247 C 0.22674 0.53304 0.14165 0.0
C248 C 0.1737 0.5132 0.19505 0.0
H249 H 0.25971 0.6986 0.26628 0.0
H250 H 0.25492 0.66448 0.231 0.0
H251 H 0.14465 0.51909 0.22459 0.0
H252 H 0.18992 0.4059 0.14334 0.0
H253 H 0.18558 0.44328 0.17611 0.0
H254 H 0.27947 0.58732 0.17724 0.0
C255 C 0.2387 0.64256 0.2447 0.0
C256 C 0.17452 0.53421 0.21456 0.0
C257 C 0.24134 0.66219 0.26487 0.0
C258 C 0.20005 0.44134 0.14255 0.0
C259 C 0.19734 0.46265 0.16129 0.0
C260 C 0.24975 0.57241 0.18741 0.0
C261 C 0.21503 0.59534 0.24225 0.0
C262 C 0.2133 0.57418 0.22095 0.0
C263 C 0.21131 0.50885 0.1611 0.0
C264 C 0.21136 0.53202 0.18134 0.0
H265 H 0.17949 0.56631 0.29431 0.0
H266 H 0.17598 0.53193 0.25939 0.0
H267 H 0.28156 0.62337 0.21153 0.0
H268 H 0.24151 0.53133 0.10815 0.0
H269 H 0.23739 0.56863 0.14105 0.0
C270 C 0.44266 0.19289 0.72688 0.0
C271 C 0.46464 0.2238 0.7437 0.0
C272 C 0.46622 0.19345 0.70834 0.0
C273 C 0.56482 0.26753 0.67568 0.0
H274 H 0.54877 0.15582 0.65162 0.0
C275 C 0.66472 0.26548 0.60078 0.0
C276 C 0.64126 0.23119 0.58555 0.0
C277 C 0.64543 0.2643 0.62088 0.0
C278 C 0.55327 0.1873 0.65797 0.0
H279 H 0.52862 0.27955 0.75424 0.0
H280 H 0.56965 0.28071 0.72169 0.0
H281 H 0.5104 0.15425 0.68509 0.0
H282 H 0.57899 0.16918 0.57926 0.0
H283 H 0.54498 0.16747 0.61405 0.0
H284 H 0.60665 0.30057 0.64833 0.0
C285 C 0.53418 0.25609 0.72293 0.0
C286 C 0.53137 0.18635 0.67719 0.0
C287 C 0.51073 0.25523 0.74159 0.0
C288 C 0.5982 0.19568 0.59082 0.0
C289 C 0.57876 0.19468 0.61081 0.0
C290 C 0.58641 0.26846 0.65635 0.0
C291 C 0.51215 0.2252 0.70613 0.0
C292 C 0.53671 0.22642 0.68617 0.0
C293 C 0.60207 0.229 0.6261 0.0
C294 C 0.58068 0.2283 0.64716 0.0
H295 H 0.4072 0.16815 0.72801 0.0
H296 H 0.44828 0.16953 0.69556 0.0
H297 H 0.56913 0.29889 0.68213 0.0
H298 H 0.69815 0.29304 0.5972 0.0
H299 H 0.66464 0.29092 0.63238 0.0
C300 C 0.39257 0.59332 0.94165 0.0
C301 C 0.34907 0.58457 0.94683 0.0
C302 C 0.41156 0.61128 0.92154 0.0
C303 C 0.40142 0.67424 0.87531 0.0
H304 H 0.47903 0.63747 0.84711 0.0
C305 C 0.47604 0.73558 0.78986 0.0
C306 C 0.52228 0.75108 0.78776 0.0
C307 C 0.45289 0.71302 0.80859 0.0
C308 C 0.4576 0.64819 0.85486 0.0
H309 H 0.29096 0.58691 0.93488 0.0
H310 H 0.32376 0.61754 0.8995 0.0
H311 H 0.4415 0.6014 0.88086 0.0
H312 H 0.58034 0.75435 0.80351 0.0
H313 H 0.53981 0.71479 0.8361 0.0
H314 H 0.41748 0.72088 0.84914 0.0
C315 C 0.3436 0.6114 0.91116 0.0
C316 C 0.43618 0.62766 0.87423 0.0
C317 C 0.32473 0.59374 0.93138 0.0
C318 C 0.54474 0.74297 0.80464 0.0
C319 C 0.5215 0.72005 0.82325 0.0
C320 C 0.42257 0.69451 0.85584 0.0
C321 C 0.38736 0.62061 0.90603 0.0
C322 C 0.40823 0.64078 0.88483 0.0
C323 C 0.47541 0.70509 0.82547 0.0
C324 C 0.45124 0.68202 0.84555 0.0
H325 H 0.41241 0.58729 0.95337 0.0
H326 H 0.44565 0.61878 0.91835 0.0
H327 H 0.3807 0.68569 0.88317 0.0
H328 H 0.45778 0.74135 0.77716 0.0
H329 H 0.41728 0.70154 0.80982 0.0
C330 C 0.75726 0.21598 0.38734 0.0
C331 C 0.76244 0.23642 0.40767 0.0
C332 C 0.75648 0.238 0.36852 0.0
C333 C 0.79009 0.3479 0.34455 0.0
H334 H 0.69302 0.27795 0.30447 0.0
C335 C 0.76323 0.42524 0.26637 0.0
C336 C 0.74973 0.39781 0.24785 0.0
C337 C 0.76434 0.40733 0.28656 0.0
C338 C 0.72069 0.29786 0.31532 0.0
H339 H 0.7726 0.29692 0.42402 0.0
H340 H 0.77175 0.33571 0.39088 0.0
H341 H 0.69736 0.24405 0.33831 0.0
H342 H 0.72807 0.33056 0.23584 0.0
H343 H 0.73075 0.29954 0.27081 0.0
H344 H 0.81417 0.40139 0.3213 0.0
C345 C 0.76801 0.30242 0.38969 0.0
C346 C 0.72303 0.27844 0.33475 0.0
C347 C 0.76834 0.28014 0.40864 0.0
C348 C 0.73774 0.3523 0.24989 0.0
C349 C 0.73921 0.33452 0.26998 0.0
C350 C 0.78803 0.36728 0.32495 0.0
C351 C 0.76127 0.28117 0.36951 0.0
C352 C 0.758 0.30305 0.34945 0.0
C353 C 0.75231 0.36171 0.28861 0.0
C354 C 0.75355 0.34228 0.30998 0.0
H355 H 0.75287 0.18247 0.3859 0.0
H356 H 0.75193 0.22113 0.35314 0.0
H357 H 0.81753 0.36752 0.35557 0.0
H358 H 0.7724 0.4604 0.26528 0.0
H359 H 0.77407 0.42913 0.30058 0.0
C360 C 0.37135 0.78009 0.61513 0.0
C361 C 0.41158 0.77873 0.6148 0.0
C362 C 0.35258 0.78451 0.59594 0.0
C363 C 0.37697 0.8161 0.53808 0.0
H364 H 0.24778 0.74012 0.53246 0.0
C365 C 0.28071 0.78306 0.45689 0.0
C366 C 0.23899 0.78149 0.4576 0.0
C367 C 0.30423 0.78694 0.47596 0.0
C368 C 0.28381 0.76198 0.53387 0.0
H369 H 0.46419 0.78182 0.59418 0.0
H370 H 0.43109 0.789 0.56055 0.0
H371 H 0.28424 0.73916 0.56594 0.0
H372 H 0.19028 0.78479 0.47892 0.0
H373 H 0.23136 0.79179 0.51197 0.0
H374 H 0.3763 0.83822 0.50571 0.0
C375 C 0.41439 0.78732 0.57568 0.0
C376 C 0.30474 0.7615 0.55308 0.0
C377 C 0.43332 0.78314 0.59493 0.0
C378 C 0.2221 0.78546 0.47772 0.0
C379 C 0.24553 0.78926 0.49672 0.0
C380 C 0.35598 0.81644 0.51877 0.0
C381 C 0.37345 0.7874 0.57595 0.0
C382 C 0.35154 0.78862 0.55547 0.0
C383 C 0.28642 0.78923 0.4961 0.0
C384 C 0.30915 0.78947 0.51651 0.0
H385 H 0.35429 0.77758 0.63026 0.0
H386 H 0.32153 0.78546 0.59677 0.0
H387 H 0.41303 0.83772 0.53948 0.0
H388 H 0.29476 0.78023 0.44167 0.0
H389 H 0.33558 0.78661 0.475 0.0
C390 C 0.76055 0.55107 0.05382 0.0
C391 C 0.74387 0.53239 0.07433 0.0
C392 C 0.73504 0.53154 0.03528 0.0
C393 C 0.64343 0.42333 0.01519 0.0
H394 H 0.6461 0.4959 0.96643 0.0
C395 C 0.5444 0.34345 0.93687 0.0
C396 C 0.56904 0.36034 0.91762 0.0
C397 C 0.5615 0.36587 0.95645 0.0
C398 C 0.64517 0.47523 0.9799 0.0
H399 H 0.68654 0.47938 0.09146 0.0
H400 H 0.64185 0.44566 0.05909 0.0
H401 H 0.68333 0.53272 1.00009 0.0
H402 H 0.63 0.4148 0.90362 0.0
H403 H 0.66004 0.45374 0.93782 0.0
H404 H 0.60574 0.36589 0.99492 0.0
C405 C 0.67502 0.47496 0.05735 0.0
C406 C 0.66654 0.49628 0.99916 0.0
C407 C 0.70059 0.49443 0.07591 0.0
C408 C 0.6105 0.40074 0.91824 0.0
C409 C 0.62746 0.42328 0.93778 0.0
C410 C 0.62193 0.40229 0.99597 0.0
C411 C 0.69218 0.49297 0.0368 0.0
C412 C 0.66648 0.4706 0.01692 0.0
C413 C 0.60342 0.40578 0.95713 0.0
C414 C 0.62313 0.42804 0.97803 0.0
H415 H 0.79373 0.58031 0.05198 0.0
H416 H 0.74954 0.54594 0.0197 0.0
H417 H 0.64331 0.40256 0.02844 0.0
H418 H 0.51248 0.31223 0.9369 0.0
H419 H 0.54207 0.35181 0.97108 0.0
C420 C 0.3956 0.49595 0.09054 0.0
C421 C 0.36222 0.45135 0.09495 0.0
C422 C 0.4375 0.51453 0.10041 0.0
C423 C 0.51317 0.48414 0.12885 0.0
H424 H 0.57806 0.61264 0.14084 0.0
C425 C 0.69343 0.57113 0.16036 0.0
C426 C 0.7229 0.60275 0.14516 0.0
C427 C 0.64752 0.55638 0.15968 0.0
C428 C 0.56009 0.57668 0.13776 0.0
H429 H 0.3463 0.39102 0.11308 0.0
H430 H 0.41958 0.42392 0.13092 0.0
H431 H 0.49984 0.57655 0.12908 0.0
H432 H 0.72822 0.64744 0.11902 0.0
H433 H 0.64798 0.62231 0.11822 0.0
H434 H 0.5737 0.48456 0.13756 0.0
C435 C 0.4136 0.4443 0.11948 0.0
C436 C 0.51549 0.556 0.13083 0.0
C437 C 0.37167 0.42539 0.10928 0.0
C438 C 0.70631 0.62281 0.13083 0.0
C439 C 0.66043 0.60853 0.1304 0.0
C440 C 0.5575 0.50471 0.13615 0.0
C441 C 0.44693 0.48927 0.11525 0.0
C442 C 0.49198 0.50976 0.12557 0.0
C443 C 0.63049 0.5737 0.14413 0.0
C444 C 0.58168 0.55133 0.14007 0.0
H445 H 0.38941 0.5166 0.07935 0.0
H446 H 0.46266 0.5487 0.09617 0.0
H447 H 0.49642 0.44866 0.12477 0.0
H448 H 0.70513 0.55521 0.17175 0.0
H449 H 0.62501 0.52978 0.17056 0.0
C450 C 0.09354 0.59661 0.42443 0.0
C451 C 0.08161 0.62948 0.42889 0.0
C452 C 0.06973 0.55389 0.43367 0.0
C453 C 0.96165 0.47603 0.46036 0.0
H454 H 0.0234 0.40919 0.4719 0.0
C455 C 0.86744 0.29459 0.49181 0.0
C456 C 0.86849 0.26491 0.47637 0.0
C457 C 0.89872 0.34058 0.4909 0.0
C458 C 0.00593 0.4277 0.46892 0.0
H459 H 0.03569 0.64383 0.44658 0.0
H460 H 0.99467 0.56931 0.46345 0.0
H461 H 0.06665 0.48828 0.46109 0.0
H462 H 0.90585 0.25932 0.44939 0.0
H463 H 0.96134 0.33974 0.44822 0.0
H464 H 0.901 0.41523 0.46841 0.0
C465 C 0.02181 0.57616 0.45237 0.0
C466 C 0.03049 0.47281 0.46252 0.0
C467 C 0.04525 0.61885 0.44275 0.0
C468 C 0.90404 0.28141 0.4614 0.0
C469 C 0.93582 0.32735 0.46075 0.0
C470 C 0.93727 0.43122 0.46718 0.0
C471 C 0.03387 0.54315 0.44796 0.0
C472 C 0.00849 0.49715 0.4575 0.0
C473 C 0.93214 0.35746 0.47489 0.0
C474 C 0.95909 0.40643 0.47097 0.0
H475 H 0.12116 0.60375 0.41358 0.0
H476 H 0.07921 0.52912 0.4293 0.0
H477 H 0.9434 0.49331 0.45641 0.0
H478 H 0.84066 0.28298 0.50366 0.0
H479 H 0.89554 0.36327 0.50205 0.0
C480 C 0.39085 0.07719 0.80808 0.0
C481 C 0.36829 0.09242 0.79466 0.0
C482 C 0.39596 0.04092 0.80181 0.0
C483 C 0.41312 0.99742 0.75188 0.0
H484 H 0.4278 0.91639 0.79046 0.0
C485 C 0.50407 0.89979 0.72672 0.0
C486 C 0.53445 0.90009 0.74206 0.0
C487 C 0.47503 0.91587 0.73212 0.0
C488 C 0.42389 0.93887 0.7795 0.0
H489 H 0.33025 0.07994 0.76506 0.0
H490 H 0.33945 0.01623 0.75391 0.0
H491 H 0.38547 0.95231 0.80256 0.0
H492 H 0.55903 0.9188 0.77489 0.0
H493 H 0.50896 0.94744 0.78414 0.0
H494 H 0.45319 0.98555 0.72917 0.0
C495 C 0.3531 0.03235 0.7693 0.0
C496 C 0.39941 0.95915 0.78637 0.0
C497 C 0.34744 0.06842 0.77576 0.0
C498 C 0.53602 0.91797 0.76269 0.0
C499 C 0.50693 0.93389 0.76809 0.0
C500 C 0.43757 0.97709 0.745 0.0
C501 C 0.37911 0.01959 0.78184 0.0
C502 C 0.39516 0.9899 0.77292 0.0
C503 C 0.47567 0.9324 0.75298 0.0
C504 C 0.44456 0.9489 0.75904 0.0
H505 H 0.40727 0.09534 0.82271 0.0
H506 H 0.41648 0.03225 0.81177 0.0
H507 H 0.41097 0.02142 0.74124 0.0
H508 H 0.50188 0.8861 0.71069 0.0
H509 H 0.45131 0.91433 0.72014 0.0
C510 C 0.63989 0.71431 0.75551 0.0
C511 C 0.61948 0.71773 0.73652 0.0
C512 C 0.63407 0.67249 0.76191 0.0
C513 C 0.58721 0.55286 0.74475 0.0
H514 H 0.53234 0.52577 0.80171 0.0
C515 C 0.44957 0.37512 0.76832 0.0
C516 C 0.45075 0.35896 0.78904 0.0
C517 C 0.47882 0.42011 0.76288 0.0
C518 C 0.54825 0.53283 0.78595 0.0
H519 H 0.58133 0.68209 0.7082 0.0
H520 H 0.5718 0.60961 0.71905 0.0
H521 H 0.57538 0.60385 0.78969 0.0
H522 H 0.48279 0.37777 0.82053 0.0
H523 H 0.53364 0.45647 0.81101 0.0
H524 H 0.55831 0.48161 0.74068 0.0
C525 C 0.5921 0.63866 0.72913 0.0
C526 C 0.57319 0.57762 0.77909 0.0
C527 C 0.5974 0.68015 0.72292 0.0
C528 C 0.48089 0.38915 0.80443 0.0
C529 C 0.51009 0.43423 0.79899 0.0
C530 C 0.56225 0.50809 0.75159 0.0
C531 C 0.60829 0.63386 0.74923 0.0
C532 C 0.5916 0.58799 0.75814 0.0
C533 C 0.50986 0.44998 0.77804 0.0
C534 C 0.54121 0.49755 0.77197 0.0
H535 H 0.65672 0.74282 0.76635 0.0
H536 H 0.64728 0.66979 0.77739 0.0
H537 H 0.60148 0.55989 0.72862 0.0
H538 H 0.42676 0.35283 0.75609 0.0
H539 H 0.47711 0.43152 0.74676 0.0
C540 C 0.12155 0.42409 0.03858 0.0
C541 C 0.11876 0.39156 0.0534 0.0
C542 C 0.09044 0.43901 0.03937 0.0
C543 C 0.98159 0.41743 0.05997 0.0
H544 H 0.04399 0.54417 0.07549 0.0
C545 C 0.89223 0.49487 0.10605 0.0
C546 C 0.90456 0.54013 0.1026 0.0
C547 C 0.91641 0.47675 0.09645 0.0
C548 C 0.02582 0.50909 0.07069 0.0
H549 H 0.07858 0.34574 0.07901 0.0
H550 H 0.02346 0.37107 0.07993 0.0
H551 H 0.08673 0.50929 0.06294 0.0
H552 H 0.95164 0.60204 0.08632 0.0
H553 H 0.99337 0.57 0.06884 0.0
H554 H 0.92063 0.41694 0.06756 0.0
C555 C 0.05016 0.38542 0.068 0.0
C556 C 0.05039 0.48911 0.06355 0.0
C557 C 0.08174 0.37103 0.0675 0.0
C558 C 0.94174 0.56712 0.08939 0.0
C559 C 0.96559 0.5487 0.07941 0.0
C560 C 0.95688 0.43757 0.06671 0.0
C561 C 0.05549 0.42091 0.05461 0.0
C562 C 0.02856 0.4429 0.05869 0.0
C563 C 0.95309 0.50318 0.08279 0.0
C564 C 0.9788 0.48333 0.07284 0.0
H565 H 0.14952 0.44044 0.02741 0.0
H566 H 0.09492 0.4662 0.02879 0.0
H567 H 0.96411 0.38177 0.05616 0.0
H568 H 0.86397 0.4734 0.11637 0.0
H569 H 0.90654 0.44204 0.10003 0.0
C570 C 0.29126 0.87212 0.37193 0.0
C571 C 0.26165 0.87439 0.38698 0.0
C572 C 0.33729 0.9028 0.37294 0.0
C573 C 0.42492 0.00945 0.39599 0.0
H574 H 0.48703 0.94341 0.40852 0.0
C575 C 0.58821 0.08997 0.44418 0.0
C576 C 0.62166 0.07911 0.43935 0.0
C577 C 0.54629 0.06697 0.4343 0.0
C578 C 0.47069 0.9626 0.4046 0.0
H579 H 0.25626 0.91358 0.41317 0.0
H580 H 0.33665 0.96781 0.41458 0.0
H581 H 0.41017 0.90328 0.39507 0.0
H582 H 0.6376 0.03551 0.42055 0.0
H583 H 0.56427 0.99566 0.40274 0.0
H584 H 0.48514 0.06878 0.40555 0.0
C585 C 0.32426 0.94186 0.40226 0.0
C586 C 0.42663 0.93957 0.3969 0.0
C587 C 0.27829 0.91076 0.40149 0.0
C588 C 0.61217 0.04419 0.42469 0.0
C589 C 0.57022 0.02149 0.4145 0.0
C590 C 0.46923 0.03264 0.40336 0.0
C591 C 0.35429 0.93678 0.38869 0.0
C592 C 0.403 0.96262 0.39312 0.0
C593 C 0.53694 0.033 0.41904 0.0
C594 C 0.49215 0.00926 0.40845 0.0
H595 H 0.2795 0.84475 0.36039 0.0
H596 H 0.35985 0.89858 0.36217 0.0
H597 H 0.40739 0.02791 0.39303 0.0
H598 H 0.59448 0.11646 0.45562 0.0
H599 H 0.52112 0.0758 0.43876 0.0
C600 C 0.31353 0.26081 0.85357 0.0
C601 C 0.32943 0.2301 0.85322 0.0
C602 C 0.30163 0.27254 0.87315 0.0
C603 C 0.26547 0.23838 0.92859 0.0
H604 H 0.33439 0.36582 0.94211 0.0
C605 C 0.25657 0.3079 0.01305 0.0
C606 C 0.26164 0.3512 0.01393 0.0
C607 C 0.26348 0.29123 0.99357 0.0
C608 C 0.31407 0.33022 0.93854 0.0
H609 H 0.34309 0.18584 0.87289 0.0
H610 H 0.3208 0.20535 0.90703 0.0
H611 H 0.34509 0.33888 0.90748 0.0
H612 H 0.27579 0.41012 0.99497 0.0
H613 H 0.28578 0.38073 0.9611 0.0
H614 H 0.23322 0.22962 0.95928 0.0
C615 C 0.31815 0.22065 0.89218 0.0
C616 C 0.32049 0.31485 0.91869 0.0
C617 C 0.33097 0.20963 0.87267 0.0
C618 C 0.27266 0.37702 0.99492 0.0
C619 C 0.27862 0.36012 0.97545 0.0
C620 C 0.25827 0.25387 0.94834 0.0
C621 C 0.30446 0.25304 0.89264 0.0
C622 C 0.2963 0.26885 0.91353 0.0
C623 C 0.27468 0.31719 0.97447 0.0
C624 C 0.28248 0.30009 0.9536 0.0
H625 H 0.31229 0.2774 0.83888 0.0
H626 H 0.29103 0.29753 0.87314 0.0
H627 H 0.24642 0.2027 0.92493 0.0
H628 H 0.24811 0.28728 0.02749 0.0
H629 H 0.26068 0.2583 0.99362 0.0
C630 C 0.93156 0.12868 0.34223 0.0
C631 C 0.89619 0.13735 0.34612 0.0
C632 C 0.95389 0.13953 0.32229 0.0
C633 C 0.97502 0.21144 0.27391 0.0
H634 H 0.01166 0.13162 0.24799 0.0
C635 C 0.0909 0.26358 0.19898 0.0
C636 C 0.08161 0.23071 0.18308 0.0
C637 C 0.06814 0.25177 0.21878 0.0
C638 C 0.00134 0.15412 0.2549 0.0
H639 H 0.85589 0.16325 0.33186 0.0
H640 H 0.89459 0.18194 0.29711 0.0
H641 H 0.97146 0.11125 0.28239 0.0
H642 H 0.04067 0.15965 0.17549 0.0
H643 H 0.00067 0.13904 0.20998 0.0
H644 H 0.00395 0.25381 0.24623 0.0
C645 C 0.90574 0.16759 0.3096 0.0
C646 C 0.97877 0.14271 0.27478 0.0
C647 C 0.88351 0.15685 0.32954 0.0
C648 C 0.04901 0.1857 0.18748 0.0
C649 C 0.02613 0.17389 0.20728 0.0
C650 C -0.00248 0.22282 0.25404 0.0
C651 C 0.94132 0.15922 0.30573 0.0
C652 C 0.96533 0.17124 0.28455 0.0
C653 C 0.0354 0.20679 0.22319 0.0
C654 C 0.01106 0.19436 0.24428 0.0
H655 H 0.94253 0.1142 0.35474 0.0
H656 H 0.98155 0.13321 0.31999 0.0
H657 H 0.96565 0.23449 0.28105 0.0
H658 H 0.11637 0.29843 0.19627 0.0
H659 H 0.07676 0.27787 0.23077 0.0
C660 C 0.65668 0.87008 0.65907 0.0
C661 C 0.65721 0.89257 0.67815 0.0
C662 C 0.67071 0.89342 0.63947 0.0
C663 C 0.7279 0.00968 0.61551 0.0
H664 H 0.66063 0.94579 0.5645 0.0
C665 C 0.71757 0.09681 0.53748 0.0
C666 C 0.72758 0.08244 0.51802 0.0
C667 C 0.71298 0.07359 0.55674 0.0
C668 C 0.67997 0.96386 0.57859 0.0
H669 H 0.67353 0.95728 0.69178 0.0
H670 H 0.69625 -0.00227 0.65756 0.0
H671 H 0.64573 0.90585 0.59883 0.0
H672 H 0.7403 0.03229 0.50341 0.0
H673 H 0.7307 0.99059 0.53717 0.0
H674 H 0.76019 0.06831 0.59522 0.0
C675 C 0.68641 0.96235 0.65768 0.0
C676 C 0.67171 0.94099 0.59829 0.0
C677 C 0.67321 0.93914 0.67736 0.0
C678 C 0.7326 0.04411 0.51818 0.0
C679 C 0.72704 0.02026 0.53742 0.0
C680 C 0.73547 0.03271 0.59589 0.0
C681 C 0.68471 0.93968 0.63836 0.0
C682 C 0.69536 0.96362 0.6171 0.0
C683 C 0.71749 0.03503 0.55688 0.0
C684 C 0.71138 0.01005 0.5773 0.0
H685 H 0.64482 0.83421 0.65922 0.0
H686 H 0.67001 0.87491 0.62514 0.0
H687 H 0.74752 0.02816 0.62943 0.0
H688 H 0.71399 0.1265 0.53793 0.0
H689 H 0.70531 0.08544 0.57151 0.0
C690 C 0.78119 0.83053 0.85235 0.0
C691 C 0.76338 0.85963 0.85165 0.0
C692 C 0.79329 0.8196 0.87209 0.0
C693 C 0.81832 0.85684 0.92954 0.0
H694 H 0.79686 0.73553 0.93861 0.0
C695 C 0.83166 0.78934 0.01353 0.0
C696 C 0.85487 0.7652 0.01431 0.0
C697 C 0.8212 0.8014 0.99366 0.0
C698 C 0.80339 0.76965 0.93625 0.0
H699 H 0.74361 0.89948 0.87115 0.0
H700 H 0.76382 0.87986 0.90556 0.0
H701 H 0.77721 0.75544 0.90408 0.0
H702 H 0.88469 0.73418 0.99487 0.0
H703 H 0.86622 0.75504 0.96017 0.0
H704 H 0.84367 0.87059 0.96196 0.0
C705 C 0.76962 0.86631 0.89087 0.0
C706 C 0.79229 0.78117 0.91641 0.0
C707 C 0.7579 0.87752 0.87112 0.0
C708 C 0.86714 0.75314 0.99479 0.0
C709 C 0.85622 0.76473 0.97493 0.0
C710 C 0.82902 0.84517 0.94945 0.0
C711 C 0.78749 0.83719 0.89165 0.0
C712 C 0.79963 0.82496 0.91276 0.0
C713 C 0.83323 0.78908 0.97414 0.0
C714 C 0.82173 0.80146 0.95301 0.0
H715 H 0.78627 0.8166 0.83759 0.0
H716 H 0.80767 0.79773 0.87196 0.0
H717 H 0.82527 0.89111 0.92725 0.0
H718 H 0.822 0.79931 0.02831 0.0
H719 H 0.80316 0.81988 0.99356 0.0
C720 C 0.05627 0.7457 0.34235 0.0
C721 C 0.08054 0.72392 0.34769 0.0
C722 C 0.03375 0.73713 0.32252 0.0
C723 C 0.01114 0.73077 0.27412 0.0
H724 H 0.94941 0.60724 0.25365 0.0
C725 C 0.93991 0.67798 0.18677 0.0
C726 C 0.89933 0.63699 0.1849 0.0
C727 C 0.96153 0.69151 0.20686 0.0
C728 C 0.9661 0.64189 0.25917 0.0
H729 H 0.10049 0.67642 0.3362 0.0
H730 H 0.06195 0.66207 0.30189 0.0
H731 H 0.98628 0.62453 0.28855 0.0
H732 H 0.84753 0.58024 0.20269 0.0
H733 H 0.88456 0.60366 0.23746 0.0
H734 H 0.98988 0.74773 0.2447 0.0
C735 C 0.05953 0.68513 0.31308 0.0
C736 C 0.98774 0.65188 0.2791 0.0
C737 C 0.08182 0.69354 0.3328 0.0
C738 C 0.87967 0.61103 0.20351 0.0
C739 C 0.90086 0.6246 0.22346 0.0
C740 C 0.98928 0.7207 0.25407 0.0
C741 C 0.03508 0.70662 0.30771 0.0
C742 C 0.01074 0.69642 0.28679 0.0
C743 C 0.94255 0.66442 0.22534 0.0
C744 C 0.96644 0.67607 0.24641 0.0
H745 H 0.05471 0.7694 0.35342 0.0
H746 H 0.01486 0.75393 0.31892 0.0
H747 H 0.02892 0.76549 0.27952 0.0
H748 H 0.95553 0.69876 0.17265 0.0
H749 H 0.99368 0.72237 0.20777 0.0
C750 C 0.17813 0.05876 0.67483 0.0
C751 C 0.22369 0.08784 0.67976 0.0
C752 C 0.16568 0.03591 0.65504 0.0
C753 C 0.21187 0.00051 0.60952 0.0
H754 H 0.10504 0.98271 0.57961 0.0
C755 C 0.14586 0.88823 0.53378 0.0
C756 C 0.12878 0.90259 0.51683 0.0
C757 C 0.15594 0.91006 0.55379 0.0
C758 C 0.1352 0.98771 0.58764 0.0
H759 H 0.29178 0.11673 0.66751 0.0
H760 H 0.27019 0.07752 0.63299 0.0
H761 H 0.12613 0.02329 0.61385 0.0
H762 H 0.10883 0.95116 0.50758 0.0
H763 H 0.12714 0.9899 0.54241 0.0
H764 H 0.22185 0.9663 0.58305 0.0
C765 C 0.24402 0.07134 0.64457 0.0
C766 C 0.14698 0.01049 0.60745 0.0
C767 C 0.25644 0.09392 0.66437 0.0
C768 C 0.12158 0.93906 0.5204 0.0
C769 C 0.13197 0.96117 0.54039 0.0
C770 C 0.20023 0.97797 0.58969 0.0
C771 C 0.1985 0.04183 0.63966 0.0
C772 C 0.18552 0.01724 0.61864 0.0
C773 C 0.14951 0.94708 0.55733 0.0
C774 C 0.16172 0.97119 0.57848 0.0
H775 H 0.15213 0.05306 0.68643 0.0
H776 H 0.13036 0.01301 0.65197 0.0
H777 H 0.24143 0.00449 0.61777 0.0
H778 H 0.15102 0.8597 0.53166 0.0
H779 H 0.16844 0.8976 0.56655 0.0
loop_
_geom_bond_atom_site_label_1
_geom_bond_atom_site_label_2
_geom_bond_distance
_geom_bond_site_symmetry_2
_ccdc_geom_bond_type
Tb0 C9 2.764 . S
Tb0 O10 2.325 . S
Tb0 O13 2.303 . S
Tb0 O17 2.322 . S
Tb0 O18 2.349 . S
Tb0 O21 2.415 . S
Tb0 O22 2.399 . S
Tb1 O11 2.322 . S
Tb1 O12 2.349 . S
Tb1 O14 2.415 . S
Tb1 O15 2.399 . S
Tb1 O16 2.325 . S
Tb1 O19 2.303 . S
Tb1 C30 2.764 . S
C2 O18 1.261 . S
C2 O19 1.257 . S
C3 C6 1.358 . S
C3 C7 1.332 . S
C3 C9 1.504 . S
C4 C5 1.373 . S
C4 C8 1.308 . S
C5 C4 1.373 . S
C5 C6 1.429 . S
C5 H32 0.932 . S
C6 C3 1.358 . S
C6 C5 1.429 . S
C6 H33 0.930 . S
C7 C3 1.332 . S
C7 C8 1.394 . S
C7 H34 0.932 . S
C8 C4 1.308 . S
C8 C7 1.394 . S
C8 H35 0.929 . S
C9 Tb0 2.764 . S
C9 C3 1.504 . S
C9 O21 1.239 . S
C9 O22 1.263 . S
O10 Tb0 2.325 . S
O10 C20 1.236 . S
O11 Tb1 2.322 . S
O11 C20 1.257 . S
O12 Tb1 2.349 . S
O12 C23 1.261 . S
O13 Tb0 2.303 . S
O13 C23 1.257 . S
O14 Tb1 2.415 . S
O14 C30 1.239 . S
O15 Tb1 2.399 . S
O15 C30 1.263 . S
O16 Tb1 2.325 . S
O16 C31 1.236 . S
O17 Tb0 2.322 . S
O17 C31 1.257 . S
O18 Tb0 2.349 . S
O18 C2 1.261 . S
O19 Tb1 2.303 . S
O19 C2 1.257 . S
C20 O10 1.236 . S
C20 O11 1.257 . S
O21 Tb0 2.415 . S
O21 C9 1.239 . S
O22 Tb0 2.399 . S
O22 C9 1.263 . S
C23 O12 1.261 . S
C23 O13 1.257 . S
C24 C27 1.358 . S
C24 C28 1.332 . S
C24 C30 1.504 1_556 S
C25 C26 1.373 . S
C25 C29 1.308 . S
C26 C25 1.373 . S
C26 C27 1.429 . S
C26 H36 0.932 . S
C27 C24 1.358 . S
C27 C26 1.429 . S
C27 H37 0.930 . S
C28 C24 1.332 . S
C28 C29 1.394 . S
C28 H38 0.932 . S
C29 C25 1.308 . S
C29 C28 1.394 . S
C29 H39 0.929 . S
C30 Tb1 2.764 . S
C30 O14 1.239 . S
C30 O15 1.263 . S
C30 C24 1.504 1_554 S
C31 O16 1.236 . S
C31 O17 1.257 . S
H32 C5 0.932 . S
H33 C6 0.930 . S
H34 C7 0.932 . S
H35 C8 0.929 . S
H36 C26 0.932 . S
H37 C27 0.930 . S
H38 C28 0.932 . S
H39 C29 0.929 . S
Tb40 C49 2.764 . S
Tb40 O50 2.325 . S
Tb40 O53 2.303 . S
Tb40 O57 2.322 . S
Tb40 O58 2.349 . S
Tb40 O61 2.415 . S
Tb40 O62 2.399 . S
Tb41 O51 2.322 . S
Tb41 O52 2.349 . S
Tb41 O54 2.415 . S
Tb41 O55 2.399 . S
Tb41 O56 2.325 . S
Tb41 O59 2.303 . S
Tb41 C70 2.764 . S
C42 O58 1.261 . S
C42 O59 1.257 . S
C43 C46 1.358 . S
C43 C47 1.332 . S
C43 C49 1.504 . S
C44 C45 1.373 . S
C44 C48 1.308 . S
C45 C44 1.373 . S
C45 C46 1.429 . S
C45 H72 0.932 . S
C46 C43 1.358 . S
C46 C45 1.429 . S
C46 H73 0.930 . S
C47 C43 1.332 . S
C47 C48 1.394 . S
C47 H74 0.932 . S
C48 C44 1.308 . S
C48 C47 1.394 . S
C48 H75 0.929 . S
C49 Tb40 2.764 . S
C49 C43 1.504 . S
C49 O61 1.239 . S
C49 O62 1.263 . S
O50 Tb40 2.325 . S
O50 C60 1.236 . S
O51 Tb41 2.322 . S
O51 C60 1.257 . S
O52 Tb41 2.349 . S
O52 C63 1.261 . S
O53 Tb40 2.303 . S
O53 C63 1.257 . S
O54 Tb41 2.415 . S
O54 C70 1.239 . S
O55 Tb41 2.399 . S
O55 C70 1.263 . S
O56 Tb41 2.325 . S
O56 C71 1.236 . S
O57 Tb40 2.322 . S
O57 C71 1.257 . S
O58 Tb40 2.349 . S
O58 C42 1.261 . S
O59 Tb41 2.303 . S
O59 C42 1.257 . S
C60 O50 1.236 . S
C60 O51 1.257 . S
O61 Tb40 2.415 . S
O61 C49 1.239 . S
O62 Tb40 2.399 . S
O62 C49 1.263 . S
C63 O52 1.261 . S
C63 O53 1.257 . S
C64 C67 1.358 . S
C64 C68 1.332 . S
C64 C70 1.504 . S
C65 C66 1.373 . S
C65 C69 1.308 . S
C66 C65 1.373 . S
C66 C67 1.429 . S
C66 H76 0.932 . S
C67 C64 1.358 . S
C67 C66 1.429 . S
C67 H77 0.930 . S
C68 C64 1.332 . S
C68 C69 1.394 . S
C68 H78 0.932 . S
C69 C65 1.308 . S
C69 C68 1.394 . S
C69 H79 0.929 . S
C70 Tb41 2.764 . S
C70 O54 1.239 . S
C70 O55 1.263 . S
C70 C64 1.504 . S
C71 O56 1.236 . S
C71 O57 1.257 . S
H72 C45 0.932 . S
H73 C46 0.930 . S
H74 C47 0.932 . S
H75 C48 0.929 . S
H76 C66 0.932 . S
H77 C67 0.930 . S
H78 C68 0.932 . S
H79 C69 0.929 . S
Tb80 C89 2.764 . S
Tb80 O90 2.325 . S
Tb80 O93 2.303 . S
Tb80 O97 2.322 . S
Tb80 O98 2.349 . S
Tb80 O101 2.415 . S
Tb80 O102 2.399 . S
Tb81 O91 2.322 . S
Tb81 O92 2.349 . S
Tb81 O94 2.415 . S
Tb81 O95 2.399 . S
Tb81 O96 2.325 . S
Tb81 O99 2.303 . S
Tb81 C110 2.764 . S
C82 O98 1.261 . S
C82 O99 1.257 . S
C83 C86 1.358 . S
C83 C87 1.332 . S
C83 C89 1.504 . S
C84 C85 1.373 . S
C84 C88 1.308 . S
C85 C84 1.373 . S
C85 C86 1.429 . S
C85 H112 0.932 . S
C86 C83 1.358 . S
C86 C85 1.429 . S
C86 H113 0.930 . S
C87 C83 1.332 . S
C87 C88 1.394 . S
C87 H114 0.932 . S
C88 C84 1.308 . S
C88 C87 1.394 . S
C88 H115 0.929 . S
C89 Tb80 2.764 . S
C89 C83 1.504 . S
C89 O101 1.239 . S
C89 O102 1.263 . S
O90 Tb80 2.325 . S
O90 C100 1.236 . S
O91 Tb81 2.322 . S
O91 C100 1.257 . S
O92 Tb81 2.349 . S
O92 C103 1.261 . S
O93 Tb80 2.303 . S
O93 C103 1.257 . S
O94 Tb81 2.415 . S
O94 C110 1.239 . S
O95 Tb81 2.399 . S
O95 C110 1.263 . S
O96 Tb81 2.325 . S
O96 C111 1.236 . S
O97 Tb80 2.322 . S
O97 C111 1.257 . S
O98 Tb80 2.349 . S
O98 C82 1.261 . S
O99 Tb81 2.303 . S
O99 C82 1.257 . S
C100 O90 1.236 . S
C100 O91 1.257 . S
O101 Tb80 2.415 . S
O101 C89 1.239 . S
O102 Tb80 2.399 . S
O102 C89 1.263 . S
C103 O92 1.261 . S
C103 O93 1.257 . S
C104 C107 1.358 . S
C104 C108 1.332 . S
C104 C110 1.504 . S
C105 C106 1.373 . S
C105 C109 1.308 . S
C106 C105 1.373 . S
C106 C107 1.429 . S
C106 H116 0.932 . S
C107 C104 1.358 . S
C107 C106 1.429 . S
C107 H117 0.930 . S
C108 C104 1.332 . S
C108 C109 1.394 . S
C108 H118 0.932 . S
C109 C105 1.308 . S
C109 C108 1.394 . S
C109 H119 0.929 . S
C110 Tb81 2.764 . S
C110 O94 1.239 . S
C110 O95 1.263 . S
C110 C104 1.504 . S
C111 O96 1.236 . S
C111 O97 1.257 . S
H112 C85 0.932 . S
H113 C86 0.930 . S
H114 C87 0.932 . S
H115 C88 0.929 . S
H116 C106 0.932 . S
H117 C107 0.930 . S
H118 C108 0.932 . S
H119 C109 0.929 . S
Tb120 C129 2.764 . S
Tb120 O130 2.325 . S
Tb120 O133 2.303 . S
Tb120 O137 2.322 . S
Tb120 O138 2.349 . S
Tb120 O141 2.415 . S
Tb120 O142 2.399 . S
Tb121 O131 2.322 . S
Tb121 O132 2.349 . S
Tb121 O134 2.415 . S
Tb121 O135 2.399 . S
Tb121 O136 2.325 . S
Tb121 O139 2.303 . S
Tb121 C150 2.764 . S
C122 O138 1.261 . S
C122 O139 1.257 . S
C123 C126 1.358 . S
C123 C127 1.332 . S
C123 C129 1.504 . S
C124 C125 1.373 . S
C124 C128 1.308 . S
C125 C124 1.373 . S
C125 C126 1.429 . S
C125 H152 0.932 . S
C126 C123 1.358 . S
C126 C125 1.429 . S
C126 H153 0.930 . S
C127 C123 1.332 . S
C127 C128 1.394 . S
C127 H154 0.932 . S
C128 C124 1.308 . S
C128 C127 1.394 . S
C128 H155 0.929 . S
C129 Tb120 2.764 . S
C129 C123 1.504 . S
C129 O141 1.239 . S
C129 O142 1.263 . S
O130 Tb120 2.325 . S
O130 C140 1.236 . S
O131 Tb121 2.322 . S
O131 C140 1.257 . S
O132 Tb121 2.349 . S
O132 C143 1.261 . S
O133 Tb120 2.303 . S
O133 C143 1.257 . S
O134 Tb121 2.415 . S
O134 C150 1.239 . S
O135 Tb121 2.399 . S
O135 C150 1.263 . S
O136 Tb121 2.325 . S
O136 C151 1.236 . S
O137 Tb120 2.322 . S
O137 C151 1.257 . S
O138 Tb120 2.349 . S
O138 C122 1.261 . S
O139 Tb121 2.303 . S
O139 C122 1.257 . S
C140 O130 1.236 . S
C140 O131 1.257 . S
O141 Tb120 2.415 . S
O141 C129 1.239 . S
O142 Tb120 2.399 . S
O142 C129 1.263 . S
C143 O132 1.261 . S
C143 O133 1.257 . S
C144 C147 1.358 . S
C144 C148 1.332 . S
C144 C150 1.504 . S
C145 C146 1.373 . S
C145 C149 1.308 . S
C146 C145 1.373 . S
C146 C147 1.429 . S
C146 H156 0.932 . S
C147 C144 1.358 . S
C147 C146 1.429 . S
C147 H157 0.930 . S
C148 C144 1.332 . S
C148 C149 1.394 . S
C148 H158 0.932 . S
C149 C145 1.308 . S
C149 C148 1.394 . S
C149 H159 0.929 . S
C150 Tb121 2.764 . S
C150 O134 1.239 . S
C150 O135 1.263 . S
C150 C144 1.504 . S
C151 O136 1.236 . S
C151 O137 1.257 . S
H152 C125 0.932 . S
H153 C126 0.930 . S
H154 C127 0.932 . S
H155 C128 0.929 . S
H156 C146 0.932 . S
H157 C147 0.930 . S
H158 C148 0.932 . S
H159 C149 0.929 . S
Tb160 C169 2.764 . S
Tb160 O170 2.325 . S
Tb160 O173 2.303 . S
Tb160 O177 2.322 . S
Tb160 O178 2.349 . S
Tb160 O181 2.415 . S
Tb160 O182 2.399 . S
Tb161 O171 2.322 . S
Tb161 O172 2.349 . S
Tb161 O174 2.415 . S
Tb161 O175 2.399 . S
Tb161 O176 2.325 . S
Tb161 O179 2.303 . S
Tb161 C190 2.764 . S
C162 O178 1.261 . S
C162 O179 1.257 . S
C163 C166 1.358 . S
C163 C167 1.332 . S
C163 C169 1.504 . S
C164 C165 1.373 . S
C164 C168 1.308 . S
C165 C164 1.373 . S
C165 C166 1.429 . S
C165 H192 0.932 . S
C166 C163 1.358 . S
C166 C165 1.429 . S
C166 H193 0.930 . S
C167 C163 1.332 . S
C167 C168 1.394 . S
C167 H194 0.932 . S
C168 C164 1.308 . S
C168 C167 1.394 . S
C168 H195 0.929 . S
C169 Tb160 2.764 . S
C169 C163 1.504 . S
C169 O181 1.239 . S
C169 O182 1.263 . S
O170 Tb160 2.325 . S
O170 C180 1.236 . S
O171 Tb161 2.322 . S
O171 C180 1.257 . S
O172 Tb161 2.349 . S
O172 C183 1.261 . S
O173 Tb160 2.303 . S
O173 C183 1.257 . S
O174 Tb161 2.415 . S
O174 C190 1.239 . S
O175 Tb161 2.399 . S
O175 C190 1.263 . S
O176 Tb161 2.325 . S
O176 C191 1.236 . S
O177 Tb160 2.322 . S
O177 C191 1.257 . S
O178 Tb160 2.349 . S
O178 C162 1.261 . S
O179 Tb161 2.303 . S
O179 C162 1.257 . S
C180 O170 1.236 . S
C180 O171 1.257 . S
O181 Tb160 2.415 . S
O181 C169 1.239 . S
O182 Tb160 2.399 . S
O182 C169 1.263 . S
C183 O172 1.261 . S
C183 O173 1.257 . S
C184 C187 1.358 . S
C184 C188 1.332 . S
C184 C190 1.504 . S
C185 C186 1.373 . S
C185 C189 1.308 . S
C186 C185 1.373 . S
C186 C187 1.429 . S
C186 H196 0.932 . S
C187 C184 1.358 . S
C187 C186 1.429 . S
C187 H197 0.930 . S
C188 C184 1.332 . S
C188 C189 1.394 . S
C188 H198 0.932 . S
C189 C185 1.308 . S
C189 C188 1.394 . S
C189 H199 0.929 . S
C190 Tb161 2.764 . S
C190 O174 1.239 . S
C190 O175 1.263 . S
C190 C184 1.504 . S
C191 O176 1.236 . S
C191 O177 1.257 . S
H192 C165 0.932 . S
H193 C166 0.930 . S
H194 C167 0.932 . S
H195 C168 0.929 . S
H196 C186 0.932 . S
H197 C187 0.930 . S
H198 C188 0.932 . S
H199 C189 0.929 . S
Tb200 C209 2.764 . S
Tb200 O210 2.325 . S
Tb200 O213 2.303 . S
Tb200 O217 2.322 . S
Tb200 O218 2.349 . S
Tb200 O221 2.415 . S
Tb200 O222 2.399 . S
Tb201 O211 2.322 . S
Tb201 O212 2.349 . S
Tb201 O214 2.415 . S
Tb201 O215 2.399 . S
Tb201 O216 2.325 . S
Tb201 O219 2.303 . S
Tb201 C230 2.764 . S
C202 O218 1.261 . S
C202 O219 1.257 . S
C203 C206 1.358 . S
C203 C207 1.332 . S
C203 C209 1.504 . S
C204 C205 1.373 . S
C204 C208 1.308 . S
C205 C204 1.373 . S
C205 C206 1.429 . S
C205 H232 0.932 . S
C206 C203 1.358 . S
C206 C205 1.429 . S
C206 H233 0.930 . S
C207 C203 1.332 . S
C207 C208 1.394 . S
C207 H234 0.932 . S
C208 C204 1.308 . S
C208 C207 1.394 . S
C208 H235 0.929 . S
C209 Tb200 2.764 . S
C209 C203 1.504 . S
C209 O221 1.239 . S
C209 O222 1.263 . S
O210 Tb200 2.325 . S
O210 C220 1.236 . S
O211 Tb201 2.322 . S
O211 C220 1.257 . S
O212 Tb201 2.349 . S
O212 C223 1.261 . S
O213 Tb200 2.303 . S
O213 C223 1.257 . S
O214 Tb201 2.415 . S
O214 C230 1.239 . S
O215 Tb201 2.399 . S
O215 C230 1.263 . S
O216 Tb201 2.325 . S
O216 C231 1.236 . S
O217 Tb200 2.322 . S
O217 C231 1.257 . S
O218 Tb200 2.349 . S
O218 C202 1.261 . S
O219 Tb201 2.303 . S
O219 C202 1.257 . S
C220 O210 1.236 . S
C220 O211 1.257 . S
O221 Tb200 2.415 . S
O221 C209 1.239 . S
O222 Tb200 2.399 . S
O222 C209 1.263 . S
C223 O212 1.261 . S
C223 O213 1.257 . S
C224 C227 1.358 . S
C224 C228 1.332 . S
C224 C230 1.504 . S
C225 C226 1.373 . S
C225 C229 1.308 . S
C226 C225 1.373 . S
C226 C227 1.429 . S
C226 H236 0.932 . S
C227 C224 1.358 . S
C227 C226 1.429 . S
C227 H237 0.930 . S
C228 C224 1.332 . S
C228 C229 1.394 . S
C228 H238 0.932 . S
C229 C225 1.308 . S
C229 C228 1.394 . S
C229 H239 0.929 . S
C230 Tb201 2.764 . S
C230 O214 1.239 . S
C230 O215 1.263 . S
C230 C224 1.504 . S
C231 O216 1.236 . S
C231 O217 1.257 . S
H232 C205 0.932 . S
H233 C206 0.930 . S
H234 C207 0.932 . S
H235 C208 0.929 . S
H236 C226 0.932 . S
H237 C227 0.930 . S
H238 C228 0.932 . S
H239 C229 0.929 . S
C240 C241 1.349 . S
C240 C242 1.327 . S
C240 H265 0.950 . S
C241 C240 1.349 . S
C241 C257 1.349 . S
C242 C240 1.327 . S
C242 C261 1.429 . S
C242 H266 0.950 . S
C243 C260 1.574 . S
C243 C262 1.368 . S
C243 H267 0.949 . S
H244 C248 0.949 . S
C245 C246 1.349 . S
C245 C247 1.327 . S
C245 H268 0.950 . S
C246 C245 1.349 . S
C246 C258 1.349 . S
C247 C245 1.327 . S
C247 C263 1.429 . S
C247 H269 0.950 . S
C248 H244 0.949 . S
C248 C256 1.574 . S
C248 C264 1.368 . S
H249 C257 0.950 . S
H250 C255 0.950 . S
H251 C256 0.949 . S
H252 C258 0.950 . S
H253 C259 0.950 . S
H254 C260 0.949 . S
C255 H250 0.950 . S
C255 C257 1.327 . S
C255 C261 1.429 . S
C256 C248 1.574 . S
C256 H251 0.949 . S
C256 C262 1.368 . S
C257 C241 1.349 . S
C257 H249 0.950 . S
C257 C255 1.327 . S
C258 C246 1.349 . S
C258 H252 0.950 . S
C258 C259 1.327 . S
C259 H253 0.950 . S
C259 C258 1.327 . S
C259 C263 1.429 . S
C260 C243 1.574 . S
C260 H254 0.949 . S
C260 C264 1.368 . S
C261 C242 1.429 . S
C261 C255 1.429 . S
C261 C262 1.523 . S
C262 C243 1.368 . S
C262 C256 1.368 . S
C262 C261 1.523 . S
C263 C247 1.429 . S
C263 C259 1.429 . S
C263 C264 1.523 . S
C264 C248 1.368 . S
C264 C260 1.368 . S
C264 C263 1.523 . S
H265 C240 0.950 . S
H266 C242 0.950 . S
H267 C243 0.949 . S
H268 C245 0.950 . S
H269 C247 0.950 . S
C270 C271 1.349 . S
C270 C272 1.327 . S
C270 H295 0.950 . S
C271 C270 1.349 . S
C271 C287 1.349 . S
C272 C270 1.327 . S
C272 C291 1.429 . S
C272 H296 0.950 . S
C273 C290 1.574 . S
C273 C292 1.368 . S
C273 H297 0.949 . S
H274 C278 0.949 . S
C275 C276 1.349 . S
C275 C277 1.327 . S
C275 H298 0.950 . S
C276 C275 1.349 . S
C276 C288 1.349 . S
C277 C275 1.327 . S
C277 C293 1.429 . S
C277 H299 0.950 . S
C278 H274 0.949 . S
C278 C286 1.574 . S
C278 C294 1.368 . S
H279 C287 0.950 . S
H280 C285 0.950 . S
H281 C286 0.949 . S
H282 C288 0.950 . S
H283 C289 0.950 . S
H284 C290 0.949 . S
C285 H280 0.950 . S
C285 C287 1.327 . S
C285 C291 1.429 . S
C286 C278 1.574 . S
C286 H281 0.949 . S
C286 C292 1.368 . S
C287 C271 1.349 . S
C287 H279 0.950 . S
C287 C285 1.327 . S
C288 C276 1.349 . S
C288 H282 0.950 . S
C288 C289 1.327 . S
C289 H283 0.950 . S
C289 C288 1.327 . S
C289 C293 1.429 . S
C290 C273 1.574 . S
C290 H284 0.949 . S
C290 C294 1.368 . S
C291 C272 1.429 . S
C291 C285 1.429 . S
C291 C292 1.523 . S
C292 C273 1.368 . S
C292 C286 1.368 . S
C292 C291 1.523 . S
C293 C277 1.429 . S
C293 C289 1.429 . S
C293 C294 1.523 . S
C294 C278 1.368 . S
C294 C290 1.368 . S
C294 C293 1.523 . S
H295 C270 0.950 . S
H296 C272 0.950 . S
H297 C273 0.949 . S
H298 C275 0.950 . S
H299 C277 0.950 . S
C300 C301 1.349 . S
C300 C302 1.327 . S
C300 H325 0.950 . S
C301 C300 1.349 . S
C301 C317 1.349 . S
C302 C300 1.327 . S
C302 C321 1.429 . S
C302 H326 0.950 . S
C303 C320 1.574 . S
C303 C322 1.368 . S
C303 H327 0.949 . S
H304 C308 0.949 . S
C305 C306 1.349 . S
C305 C307 1.327 . S
C305 H328 0.950 . S
C306 C305 1.349 . S
C306 C318 1.349 . S
C307 C305 1.327 . S
C307 C323 1.429 . S
C307 H329 0.950 . S
C308 H304 0.949 . S
C308 C316 1.574 . S
C308 C324 1.368 . S
H309 C317 0.950 . S
H310 C315 0.950 . S
H311 C316 0.949 . S
H312 C318 0.950 . S
H313 C319 0.950 . S
H314 C320 0.949 . S
C315 H310 0.950 . S
C315 C317 1.327 . S
C315 C321 1.429 . S
C316 C308 1.574 . S
C316 H311 0.949 . S
C316 C322 1.368 . S
C317 C301 1.349 . S
C317 H309 0.950 . S
C317 C315 1.327 . S
C318 C306 1.349 . S
C318 H312 0.950 . S
C318 C319 1.327 . S
C319 H313 0.950 . S
C319 C318 1.327 . S
C319 C323 1.429 . S
C320 C303 1.574 . S
C320 H314 0.949 . S
C320 C324 1.368 . S
C321 C302 1.429 . S
C321 C315 1.429 . S
C321 C322 1.523 . S
C322 C303 1.368 . S
C322 C316 1.368 . S
C322 C321 1.523 . S
C323 C307 1.429 . S
C323 C319 1.429 . S
C323 C324 1.523 . S
C324 C308 1.368 . S
C324 C320 1.368 . S
C324 C323 1.523 . S
H325 C300 0.950 . S
H326 C302 0.950 . S
H327 C303 0.949 . S
H328 C305 0.950 . S
H329 C307 0.950 . S
C330 C331 1.349 . S
C330 C332 1.327 . S
C330 H355 0.950 . S
C331 C330 1.349 . S
C331 C347 1.349 . S
C332 C330 1.327 . S
C332 C351 1.429 . S
C332 H356 0.950 . S
C333 C350 1.574 . S
C333 C352 1.368 . S
C333 H357 0.949 . S
H334 C338 0.949 . S
C335 C336 1.349 . S
C335 C337 1.327 . S
C335 H358 0.950 . S
C336 C335 1.349 . S
C336 C348 1.349 . S
C337 C335 1.327 . S
C337 C353 1.429 . S
C337 H359 0.950 . S
C338 H334 0.949 . S
C338 C346 1.574 . S
C338 C354 1.368 . S
H339 C347 0.950 . S
H340 C345 0.950 . S
H341 C346 0.949 . S
H342 C348 0.950 . S
H343 C349 0.950 . S
H344 C350 0.949 . S
C345 H340 0.950 . S
C345 C347 1.327 . S
C345 C351 1.429 . S
C346 C338 1.574 . S
C346 H341 0.949 . S
C346 C352 1.368 . S
C347 C331 1.349 . S
C347 H339 0.950 . S
C347 C345 1.327 . S
C348 C336 1.349 . S
C348 H342 0.950 . S
C348 C349 1.327 . S
C349 H343 0.950 . S
C349 C348 1.327 . S
C349 C353 1.429 . S
C350 C333 1.574 . S
C350 H344 0.949 . S
C350 C354 1.368 . S
C351 C332 1.429 . S
C351 C345 1.429 . S
C351 C352 1.523 . S
C352 C333 1.368 . S
C352 C346 1.368 . S
C352 C351 1.523 . S
C353 C337 1.429 . S
C353 C349 1.429 . S
C353 C354 1.523 . S
C354 C338 1.368 . S
C354 C350 1.368 . S
C354 C353 1.523 . S
H355 C330 0.950 . S
H356 C332 0.950 . S
H357 C333 0.949 . S
H358 C335 0.950 . S
H359 C337 0.950 . S
C360 C361 1.349 . S
C360 C362 1.327 . S
C360 H385 0.950 . S
C361 C360 1.349 . S
C361 C377 1.349 . S
C362 C360 1.327 . S
C362 C381 1.429 . S
C362 H386 0.950 . S
C363 C380 1.574 . S
C363 C382 1.368 . S
C363 H387 0.949 . S
H364 C368 0.949 . S
C365 C366 1.349 . S
C365 C367 1.327 . S
C365 H388 0.950 . S
C366 C365 1.349 . S
C366 C378 1.349 . S
C367 C365 1.327 . S
C367 C383 1.429 . S
C367 H389 0.950 . S
C368 H364 0.949 . S
C368 C376 1.574 . S
C368 C384 1.368 . S
H369 C377 0.950 . S
H370 C375 0.950 . S
H371 C376 0.949 . S
H372 C378 0.950 . S
H373 C379 0.950 . S
H374 C380 0.949 . S
C375 H370 0.950 . S
C375 C377 1.327 . S
C375 C381 1.429 . S
C376 C368 1.574 . S
C376 H371 0.949 . S
C376 C382 1.368 . S
C377 C361 1.349 . S
C377 H369 0.950 . S
C377 C375 1.327 . S
C378 C366 1.349 . S
C378 H372 0.950 . S
C378 C379 1.327 . S
C379 H373 0.950 . S
C379 C378 1.327 . S
C379 C383 1.429 . S
C380 C363 1.574 . S
C380 H374 0.949 . S
C380 C384 1.368 . S
C381 C362 1.429 . S
C381 C375 1.429 . S
C381 C382 1.523 . S
C382 C363 1.368 . S
C382 C376 1.368 . S
C382 C381 1.523 . S
C383 C367 1.429 . S
C383 C379 1.429 . S
C383 C384 1.523 . S
C384 C368 1.368 . S
C384 C380 1.368 . S
C384 C383 1.523 . S
H385 C360 0.950 . S
H386 C362 0.950 . S
H387 C363 0.949 . S
H388 C365 0.950 . S
H389 C367 0.950 . S
C390 C391 1.349 . S
C390 C392 1.327 . S
C390 H415 0.950 . S
C391 C390 1.349 . S
C391 C407 1.349 . S
C392 C390 1.327 . S
C392 C411 1.429 . S
C392 H416 0.950 . S
C393 C410 1.574 1_554 S
C393 C412 1.368 . S
C393 H417 0.949 . S
H394 C398 0.949 . S
C395 C396 1.349 . S
C395 C397 1.327 . S
C395 H418 0.950 . S
C396 C395 1.349 . S
C396 C408 1.349 . S
C397 C395 1.327 . S
C397 C413 1.429 . S
C397 H419 0.950 . S
C398 H394 0.949 . S
C398 C406 1.574 . S
C398 C414 1.368 . S
H399 C407 0.950 . S
H400 C405 0.950 . S
H401 C406 0.949 . S
H402 C408 0.950 . S
H403 C409 0.950 . S
H404 C410 0.949 . S
C405 H400 0.950 . S
C405 C407 1.327 . S
C405 C411 1.429 . S
C406 C398 1.574 . S
C406 H401 0.949 . S
C406 C412 1.368 1_556 S
C407 C391 1.349 . S
C407 H399 0.950 . S
C407 C405 1.327 . S
C408 C396 1.349 . S
C408 H402 0.950 . S
C408 C409 1.327 . S
C409 H403 0.950 . S
C409 C408 1.327 . S
C409 C413 1.429 . S
C410 C393 1.574 1_556 S
C410 H404 0.949 . S
C410 C414 1.368 . S
C411 C392 1.429 . S
C411 C405 1.429 . S
C411 C412 1.523 . S
C412 C393 1.368 . S
C412 C406 1.368 1_554 S
C412 C411 1.523 . S
C413 C397 1.429 . S
C413 C409 1.429 . S
C413 C414 1.523 . S
C414 C398 1.368 . S
C414 C410 1.368 . S
C414 C413 1.523 . S
H415 C390 0.950 . S
H416 C392 0.950 . S
H417 C393 0.949 . S
H418 C395 0.950 . S
H419 C397 0.950 . S
C420 C421 1.349 . S
C420 C422 1.327 . S
C420 H445 0.950 . S
C421 C420 1.349 . S
C421 C437 1.349 . S
C422 C420 1.327 . S
C422 C441 1.429 . S
C422 H446 0.950 . S
C423 C440 1.574 . S
C423 C442 1.368 . S
C423 H447 0.949 . S
H424 C428 0.949 . S
C425 C426 1.349 . S
C425 C427 1.327 . S
C425 H448 0.950 . S
C426 C425 1.349 . S
C426 C438 1.349 . S
C427 C425 1.327 . S
C427 C443 1.429 . S
C427 H449 0.950 . S
C428 H424 0.949 . S
C428 C436 1.574 . S
C428 C444 1.368 . S
H429 C437 0.950 . S
H430 C435 0.950 . S
H431 C436 0.949 . S
H432 C438 0.950 . S
H433 C439 0.950 . S
H434 C440 0.949 . S
C435 H430 0.950 . S
C435 C437 1.327 . S
C435 C441 1.429 . S
C436 C428 1.574 . S
C436 H431 0.949 . S
C436 C442 1.368 . S
C437 C421 1.349 . S
C437 H429 0.950 . S
C437 C435 1.327 . S
C438 C426 1.349 . S
C438 H432 0.950 . S
C438 C439 1.327 . S
C439 H433 0.950 . S
C439 C438 1.327 . S
C439 C443 1.429 . S
C440 C423 1.574 . S
C440 H434 0.949 . S
C440 C444 1.368 . S
C441 C422 1.429 . S
C441 C435 1.429 . S
C441 C442 1.523 . S
C442 C423 1.368 . S
C442 C436 1.368 . S
C442 C441 1.523 . S
C443 C427 1.429 . S
C443 C439 1.429 . S
C443 C444 1.523 . S
C444 C428 1.368 . S
C444 C440 1.368 . S
C444 C443 1.523 . S
H445 C420 0.950 . S
H446 C422 0.950 . S
H447 C423 0.949 . S
H448 C425 0.950 . S
H449 C427 0.950 . S
C450 C451 1.349 . S
C450 C452 1.327 . S
C450 H475 0.950 . S
C451 C450 1.349 . S
C451 C467 1.349 . S
C452 C450 1.327 . S
C452 C471 1.429 1_455 S
C452 H476 0.950 . S
C453 C470 1.574 . S
C453 C472 1.368 . S
C453 H477 0.949 . S
H454 C458 0.949 . S
C455 C456 1.349 . S
C455 C457 1.327 . S
C455 H478 0.950 . S
C456 C455 1.349 . S
C456 C468 1.349 . S
C457 C455 1.327 . S
C457 C473 1.429 . S
C457 H479 0.950 . S
C458 H454 0.949 . S
C458 C466 1.574 . S
C458 C474 1.368 . S
H459 C467 0.950 . S
H460 C465 0.950 . S
H461 C466 0.949 . S
H462 C468 0.950 . S
H463 C469 0.950 . S
H464 C470 0.949 . S
C465 H460 0.950 . S
C465 C467 1.327 1_655 S
C465 C471 1.429 . S
C466 C458 1.574 . S
C466 H461 0.949 . S
C466 C472 1.368 . S
C467 C451 1.349 . S
C467 H459 0.950 . S
C467 C465 1.327 1_455 S
C468 C456 1.349 . S
C468 H462 0.950 . S
C468 C469 1.327 . S
C469 H463 0.950 . S
C469 C468 1.327 . S
C469 C473 1.429 . S
C470 C453 1.574 . S
C470 H464 0.949 . S
C470 C474 1.368 . S
C471 C452 1.429 1_655 S
C471 C465 1.429 . S
C471 C472 1.523 . S
C472 C453 1.368 . S
C472 C466 1.368 . S
C472 C471 1.523 . S
C473 C457 1.429 . S
C473 C469 1.429 . S
C473 C474 1.523 . S
C474 C458 1.368 . S
C474 C470 1.368 . S
C474 C473 1.523 . S
H475 C450 0.950 . S
H476 C452 0.950 . S
H477 C453 0.949 . S
H478 C455 0.950 . S
H479 C457 0.950 . S
C480 C481 1.349 . S
C480 C482 1.327 . S
C480 H505 0.950 . S
C481 C480 1.349 . S
C481 C497 1.349 . S
C482 C480 1.327 . S
C482 C501 1.429 . S
C482 H506 0.950 . S
C483 C500 1.574 . S
C483 C502 1.368 . S
C483 H507 0.949 . S
H484 C488 0.949 1_565 S
C485 C486 1.349 . S
C485 C487 1.327 1_565 S
C485 H508 0.950 . S
C486 C485 1.349 . S
C486 C498 1.349 . S
C487 C485 1.327 1_545 S
C487 C503 1.429 . S
C487 H509 0.950 . S
C488 H484 0.949 1_545 S
C488 C496 1.574 . S
C488 C504 1.368 . S
H489 C497 0.950 . S
H490 C495 0.950 . S
H491 C496 0.949 . S
H492 C498 0.950 . S
H493 C499 0.950 . S
H494 C500 0.949 . S
C495 H490 0.950 . S
C495 C497 1.327 . S
C495 C501 1.429 . S
C496 C488 1.574 . S
C496 H491 0.949 . S
C496 C502 1.368 . S
C497 C481 1.349 . S
C497 H489 0.950 . S
C497 C495 1.327 . S
C498 C486 1.349 . S
C498 H492 0.950 . S
C498 C499 1.327 . S
C499 H493 0.950 . S
C499 C498 1.327 . S
C499 C503 1.429 1_565 S
C500 C483 1.574 . S
C500 H494 0.949 . S
C500 C504 1.368 . S
C501 C482 1.429 . S
C501 C495 1.429 . S
C501 C502 1.523 . S
C502 C483 1.368 . S
C502 C496 1.368 . S
C502 C501 1.523 . S
C503 C487 1.429 . S
C503 C499 1.429 1_545 S
C503 C504 1.523 . S
C504 C488 1.368 . S
C504 C500 1.368 . S
C504 C503 1.523 . S
H505 C480 0.950 . S
H506 C482 0.950 . S
H507 C483 0.949 . S
H508 C485 0.950 . S
H509 C487 0.950 . S
C510 C511 1.349 . S
C510 C512 1.327 . S
C510 H535 0.950 . S
C511 C510 1.349 . S
C511 C527 1.349 . S
C512 C510 1.327 . S
C512 C531 1.429 . S
C512 H536 0.950 . S
C513 C530 1.574 . S
C513 C532 1.368 . S
C513 H537 0.949 . S
H514 C518 0.949 . S
C515 C516 1.349 . S
C515 C517 1.327 . S
C515 H538 0.950 . S
C516 C515 1.349 . S
C516 C528 1.349 . S
C517 C515 1.327 . S
C517 C533 1.429 . S
C517 H539 0.950 . S
C518 H514 0.949 . S
C518 C526 1.574 . S
C518 C534 1.368 . S
H519 C527 0.950 . S
H520 C525 0.950 . S
H521 C526 0.949 . S
H522 C528 0.950 . S
H523 C529 0.950 . S
H524 C530 0.949 . S
C525 H520 0.950 . S
C525 C527 1.327 . S
C525 C531 1.429 . S
C526 C518 1.574 . S
C526 H521 0.949 . S
C526 C532 1.368 . S
C527 C511 1.349 . S
C527 H519 0.950 . S
C527 C525 1.327 . S
C528 C516 1.349 . S
C528 H522 0.950 . S
C528 C529 1.327 . S
C529 H523 0.950 . S
C529 C528 1.327 . S
C529 C533 1.429 . S
C530 C513 1.574 . S
C530 H524 0.949 . S
C530 C534 1.368 . S
C531 C512 1.429 . S
C531 C525 1.429 . S
C531 C532 1.523 . S
C532 C513 1.368 . S
C532 C526 1.368 . S
C532 C531 1.523 . S
C533 C517 1.429 . S
C533 C529 1.429 . S
C533 C534 1.523 . S
C534 C518 1.368 . S
C534 C530 1.368 . S
C534 C533 1.523 . S
H535 C510 0.950 . S
H536 C512 0.950 . S
H537 C513 0.949 . S
H538 C515 0.950 . S
H539 C517 0.950 . S
C540 C541 1.349 . S
C540 C542 1.327 . S
C540 H565 0.950 . S
C541 C540 1.349 . S
C541 C557 1.349 . S
C542 C540 1.327 . S
C542 C561 1.429 . S
C542 H566 0.950 . S
C543 C560 1.574 . S
C543 C562 1.368 . S
C543 H567 0.949 . S
H544 C548 0.949 . S
C545 C546 1.349 . S
C545 C547 1.327 . S
C545 H568 0.950 . S
C546 C545 1.349 . S
C546 C558 1.349 . S
C547 C545 1.327 . S
C547 C563 1.429 1_655 S
C547 H569 0.950 . S
C548 H544 0.949 . S
C548 C556 1.574 . S
C548 C564 1.368 . S
H549 C557 0.950 . S
H550 C555 0.950 . S
H551 C556 0.949 . S
H552 C558 0.950 . S
H553 C559 0.950 1_455 S
H554 C560 0.949 . S
C555 H550 0.950 . S
C555 C557 1.327 . S
C555 C561 1.429 . S
C556 C548 1.574 . S
C556 H551 0.949 . S
C556 C562 1.368 . S
C557 C541 1.349 . S
C557 H549 0.950 . S
C557 C555 1.327 . S
C558 C546 1.349 . S
C558 H552 0.950 . S
C558 C559 1.327 . S
C559 H553 0.950 1_655 S
C559 C558 1.327 . S
C559 C563 1.429 1_655 S
C560 C543 1.574 . S
C560 H554 0.949 . S
C560 C564 1.368 . S
C561 C542 1.429 . S
C561 C555 1.429 . S
C561 C562 1.523 . S
C562 C543 1.368 . S
C562 C556 1.368 . S
C562 C561 1.523 . S
C563 C547 1.429 1_455 S
C563 C559 1.429 1_455 S
C563 C564 1.523 . S
C564 C548 1.368 . S
C564 C560 1.368 . S
C564 C563 1.523 . S
H565 C540 0.950 . S
H566 C542 0.950 . S
H567 C543 0.949 . S
H568 C545 0.950 . S
H569 C547 0.950 . S
C570 C571 1.349 . S
C570 C572 1.327 . S
C570 H595 0.950 . S
C571 C570 1.349 . S
C571 C587 1.349 . S
C572 C570 1.327 . S
C572 C591 1.429 . S
C572 H596 0.950 . S
C573 C590 1.574 . S
C573 C592 1.368 . S
C573 H597 0.949 . S
H574 C578 0.949 . S
C575 C576 1.349 . S
C575 C577 1.327 . S
C575 H598 0.950 . S
C576 C575 1.349 . S
C576 C588 1.349 1_545 S
C577 C575 1.327 . S
C577 C593 1.429 1_545 S
C577 H599 0.950 . S
C578 H574 0.949 . S
C578 C586 1.574 . S
C578 C594 1.368 . S
H579 C587 0.950 . S
H580 C585 0.950 . S
H581 C586 0.949 . S
H582 C588 0.950 . S
H583 C589 0.950 . S
H584 C590 0.949 1_545 S
C585 H580 0.950 . S
C585 C587 1.327 . S
C585 C591 1.429 . S
C586 C578 1.574 . S
C586 H581 0.949 . S
C586 C592 1.368 . S
C587 C571 1.349 . S
C587 H579 0.950 . S
C587 C585 1.327 . S
C588 C576 1.349 1_565 S
C588 H582 0.950 . S
C588 C589 1.327 . S
C589 H583 0.950 . S
C589 C588 1.327 . S
C589 C593 1.429 . S
C590 C573 1.574 . S
C590 H584 0.949 1_565 S
C590 C594 1.368 . S
C591 C572 1.429 . S
C591 C585 1.429 . S
C591 C592 1.523 . S
C592 C573 1.368 . S
C592 C586 1.368 . S
C592 C591 1.523 . S
C593 C577 1.429 1_565 S
C593 C589 1.429 . S
C593 C594 1.523 . S
C594 C578 1.368 . S
C594 C590 1.368 . S
C594 C593 1.523 . S
H595 C570 0.950 . S
H596 C572 0.950 . S
H597 C573 0.949 . S
H598 C575 0.950 . S
H599 C577 0.950 . S
C600 C601 1.349 . S
C600 C602 1.327 . S
C600 H625 0.950 . S
C601 C600 1.349 . S
C601 C617 1.349 . S
C602 C600 1.327 . S
C602 C621 1.429 . S
C602 H626 0.950 . S
C603 C620 1.574 . S
C603 C622 1.368 . S
C603 H627 0.949 . S
H604 C608 0.949 . S
C605 C606 1.349 . S
C605 C607 1.327 1_554 S
C605 H628 0.950 . S
C606 C605 1.349 . S
C606 C618 1.349 1_554 S
C607 C605 1.327 1_556 S
C607 C623 1.429 . S
C607 H629 0.950 . S
C608 H604 0.949 . S
C608 C616 1.574 . S
C608 C624 1.368 . S
H609 C617 0.950 . S
H610 C615 0.950 . S
H611 C616 0.949 . S
H612 C618 0.958 . S
H613 C619 0.950 . S
H614 C620 0.949 . S
C615 H610 0.950 . S
C615 C617 1.327 . S
C615 C621 1.429 . S
C616 C608 1.574 . S
C616 H611 0.949 . S
C616 C622 1.368 . S
C617 C601 1.349 . S
C617 H609 0.950 . S
C617 C615 1.327 . S
C618 C606 1.349 1_556 S
C618 H612 0.958 . S
C618 C619 1.327 . S
C619 H613 0.950 . S
C619 C618 1.327 . S
C619 C623 1.429 . S
C620 C603 1.574 . S
C620 H614 0.949 . S
C620 C624 1.368 . S
C621 C602 1.429 . S
C621 C615 1.429 . S
C621 C622 1.523 . S
C622 C603 1.368 . S
C622 C616 1.368 . S
C622 C621 1.523 . S
C623 C607 1.429 . S
C623 C619 1.429 . S
C623 C624 1.523 . S
C624 C608 1.368 . S
C624 C620 1.368 . S
C624 C623 1.523 . S
H625 C600 0.950 . S
H626 C602 0.950 . S
H627 C603 0.949 . S
H628 C605 0.950 . S
H629 C607 0.950 . S
C630 C631 1.349 . S
C630 C632 1.327 . S
C630 H655 0.950 . S
C631 C630 1.349 . S
C631 C647 1.349 . S
C632 C630 1.327 . S
C632 C651 1.429 . S
C632 H656 0.950 . S
C633 C650 1.574 1_655 S
C633 C652 1.368 . S
C633 H657 0.949 . S
H634 C638 0.949 . S
C635 C636 1.349 . S
C635 C637 1.327 . S
C635 H658 0.950 . S
C636 C635 1.349 . S
C636 C648 1.349 . S
C637 C635 1.327 . S
C637 C653 1.429 . S
C637 H659 0.950 . S
C638 H634 0.949 . S
C638 C646 1.574 1_455 S
C638 C654 1.368 . S
H639 C647 0.950 . S
H640 C645 0.950 . S
H641 C646 0.949 . S
H642 C648 0.950 . S
H643 C649 0.950 . S
H644 C650 0.949 . S
C645 H640 0.950 . S
C645 C647 1.327 . S
C645 C651 1.429 . S
C646 C638 1.574 1_655 S
C646 H641 0.949 . S
C646 C652 1.368 . S
C647 C631 1.349 . S
C647 H639 0.950 . S
C647 C645 1.327 . S
C648 C636 1.349 . S
C648 H642 0.950 . S
C648 C649 1.327 . S
C649 H643 0.950 . S
C649 C648 1.327 . S
C649 C653 1.429 . S
C650 C633 1.574 1_455 S
C650 H644 0.949 . S
C650 C654 1.368 . S
C651 C632 1.429 . S
C651 C645 1.429 . S
C651 C652 1.523 . S
C652 C633 1.368 . S
C652 C646 1.368 . S
C652 C651 1.523 . S
C653 C637 1.429 . S
C653 C649 1.429 . S
C653 C654 1.523 . S
C654 C638 1.368 . S
C654 C650 1.368 . S
C654 C653 1.523 . S
H655 C630 0.950 . S
H656 C632 0.950 . S
H657 C633 0.949 . S
H658 C635 0.950 . S
H659 C637 0.950 . S
C660 C661 1.349 . S
C660 C662 1.327 . S
C660 H685 0.950 . S
C661 C660 1.349 . S
C661 C677 1.349 . S
C662 C660 1.327 . S
C662 C681 1.429 . S
C662 H686 0.950 . S
C663 C680 1.574 . S
C663 C682 1.368 1_545 S
C663 H687 0.949 . S
H664 C668 0.949 . S
C665 C666 1.349 . S
C665 C667 1.327 . S
C665 H688 0.950 . S
C666 C665 1.349 . S
C666 C678 1.349 . S
C667 C665 1.327 . S
C667 C683 1.429 . S
C667 H689 0.950 . S
C668 H664 0.949 . S
C668 C676 1.574 . S
C668 C684 1.368 1_565 S
H669 C677 0.950 . S
H670 C675 0.950 1_545 S
H671 C676 0.949 . S
H672 C678 0.950 . S
H673 C679 0.950 1_565 S
H674 C680 0.949 . S
C675 H670 0.950 1_565 S
C675 C677 1.327 . S
C675 C681 1.429 . S
C676 C668 1.574 . S
C676 H671 0.949 . S
C676 C682 1.368 . S
C677 C661 1.349 . S
C677 H669 0.950 . S
C677 C675 1.327 . S
C678 C666 1.349 . S
C678 H672 0.950 . S
C678 C679 1.327 . S
C679 H673 0.950 1_545 S
C679 C678 1.327 . S
C679 C683 1.429 . S
C680 C663 1.574 . S
C680 H674 0.949 . S
C680 C684 1.368 . S
C681 C662 1.429 . S
C681 C675 1.429 . S
C681 C682 1.523 . S
C682 C663 1.368 1_565 S
C682 C676 1.368 . S
C682 C681 1.523 . S
C683 C667 1.429 . S
C683 C679 1.429 . S
C683 C684 1.523 . S
C684 C668 1.368 1_545 S
C684 C680 1.368 . S
C684 C683 1.523 . S
H685 C660 0.950 . S
H686 C662 0.950 . S
H687 C663 0.949 . S
H688 C665 0.950 . S
H689 C667 0.950 . S
C690 C691 1.349 . S
C690 C692 1.327 . S
C690 H715 0.950 . S
C691 C690 1.349 . S
C691 C707 1.349 . S
C692 C690 1.327 . S
C692 C711 1.429 . S
C692 H716 0.950 . S
C693 C710 1.574 . S
C693 C712 1.368 . S
C693 H717 0.949 . S
H694 C698 0.949 . S
C695 C696 1.349 . S
C695 C697 1.327 1_554 S
C695 H718 0.950 . S
C696 C695 1.349 . S
C696 C708 1.349 1_554 S
C697 C695 1.327 1_556 S
C697 C713 1.429 . S
C697 H719 0.950 . S
C698 H694 0.949 . S
C698 C706 1.574 . S
C698 C714 1.368 . S
H699 C707 0.950 . S
H700 C705 0.950 . S
H701 C706 0.949 . S
H702 C708 0.950 . S
H703 C709 0.950 . S
H704 C710 0.949 . S
C705 H700 0.950 . S
C705 C707 1.327 . S
C705 C711 1.429 . S
C706 C698 1.574 . S
C706 H701 0.949 . S
C706 C712 1.368 . S
C707 C691 1.349 . S
C707 H699 0.950 . S
C707 C705 1.327 . S
C708 C696 1.349 1_556 S
C708 H702 0.950 . S
C708 C709 1.327 . S
C709 H703 0.950 . S
C709 C708 1.327 . S
C709 C713 1.429 . S
C710 C693 1.574 . S
C710 H704 0.949 . S
C710 C714 1.368 . S
C711 C692 1.429 . S
C711 C705 1.429 . S
C711 C712 1.523 . S
C712 C693 1.368 . S
C712 C706 1.368 . S
C712 C711 1.523 . S
C713 C697 1.429 . S
C713 C709 1.429 . S
C713 C714 1.523 . S
C714 C698 1.368 . S
C714 C710 1.368 . S
C714 C713 1.523 . S
H715 C690 0.950 . S
H716 C692 0.950 . S
H717 C693 0.949 . S
H718 C695 0.950 . S
H719 C697 0.950 . S
C720 C721 1.349 . S
C720 C722 1.327 . S
C720 H745 0.950 . S
C721 C720 1.349 . S
C721 C737 1.349 . S
C722 C720 1.327 . S
C722 C741 1.429 . S
C722 H746 0.950 1_455 S
C723 C740 1.574 . S
C723 C742 1.368 . S
C723 H747 0.949 . S
H724 C728 0.949 . S
C725 C726 1.349 . S
C725 C727 1.327 . S
C725 H748 0.950 . S
C726 C725 1.349 . S
C726 C738 1.349 . S
C727 C725 1.327 . S
C727 C743 1.429 . S
C727 H749 0.950 1_655 S
C728 H724 0.949 . S
C728 C736 1.574 . S
C728 C744 1.368 . S
H729 C737 0.950 . S
H730 C735 0.950 . S
H731 C736 0.949 . S
H732 C738 0.950 . S
H733 C739 0.950 . S
H734 C740 0.949 . S
C735 H730 0.950 . S
C735 C737 1.327 . S
C735 C741 1.429 . S
C736 C728 1.574 . S
C736 H731 0.949 . S
C736 C742 1.368 1_655 S
C737 C721 1.349 . S
C737 H729 0.950 . S
C737 C735 1.327 . S
C738 C726 1.349 . S
C738 H732 0.950 . S
C738 C739 1.327 . S
C739 H733 0.950 . S
C739 C738 1.327 . S
C739 C743 1.429 . S
C740 C723 1.574 . S
C740 H734 0.949 . S
C740 C744 1.368 1_455 S
C741 C722 1.429 . S
C741 C735 1.429 . S
C741 C742 1.523 . S
C742 C723 1.368 . S
C742 C736 1.368 1_455 S
C742 C741 1.523 . S
C743 C727 1.429 . S
C743 C739 1.429 . S
C743 C744 1.523 . S
C744 C728 1.368 . S
C744 C740 1.368 1_655 S
C744 C743 1.523 . S
H745 C720 0.950 . S
H746 C722 0.950 1_655 S
H747 C723 0.949 . S
H748 C725 0.950 . S
H749 C727 0.950 1_455 S
C750 C751 1.349 . S
C750 C752 1.327 . S
C750 H775 0.950 . S
C751 C750 1.349 . S
C751 C767 1.349 . S
C752 C750 1.327 . S
C752 C771 1.429 . S
C752 H776 0.950 . S
C753 C770 1.574 1_545 S
C753 C772 1.368 . S
C753 H777 0.949 . S
H754 C758 0.949 . S
C755 C756 1.349 . S
C755 C757 1.327 . S
C755 H778 0.950 . S
C756 C755 1.349 . S
C756 C768 1.349 . S
C757 C755 1.327 . S
C757 C773 1.429 . S
C757 H779 0.950 . S
C758 H754 0.949 . S
C758 C766 1.574 1_565 S
C758 C774 1.368 . S
H759 C767 0.950 . S
H760 C765 0.950 . S
H761 C766 0.949 . S
H762 C768 0.950 . S
H763 C769 0.950 . S
H764 C770 0.949 . S
C765 H760 0.950 . S
C765 C767 1.327 . S
C765 C771 1.429 . S
C766 C758 1.574 1_545 S
C766 H761 0.949 . S
C766 C772 1.368 . S
C767 C751 1.349 . S
C767 H759 0.950 . S
C767 C765 1.327 . S
C768 C756 1.349 . S
C768 H762 0.950 . S
C768 C769 1.327 . S
C769 H763 0.950 . S
C769 C768 1.327 . S
C769 C773 1.429 . S
C770 C753 1.574 1_565 S
C770 H764 0.949 . S
C770 C774 1.368 . S
C771 C752 1.429 . S
C771 C765 1.429 . S
C771 C772 1.523 . S
C772 C753 1.368 . S
C772 C766 1.368 . S
C772 C771 1.523 . S
C773 C757 1.429 . S
C773 C769 1.429 . S
C773 C774 1.523 . S
C774 C758 1.368 . S
C774 C770 1.368 . S
C774 C773 1.523 . S
H775 C750 0.950 . S
H776 C752 0.950 . S
H777 C753 0.949 . S
H778 C755 0.950 . S
H779 C757 0.950 . S
C241 C185 1.194 . S
C246 C20 1.196 . S
C271 C220 1.196 . S
C276 C65 1.195 . S
C301 C25 1.194 . S
C306 C100 1.196 . S
C331 C60 1.196 . S
C336 C145 1.195 . S
C361 C105 1.194 . S
C366 C180 1.196 . S
C391 C140 1.196 . S
C396 C225 1.195 . S
C421 C2 1.267 . S
C426 C143 1.204 . S
C451 C162 1.267 . S
C456 C63 1.204 . S
C481 C223 1.204 . S
C486 C82 1.267 . S
C511 C103 1.204 . S
C516 C202 1.267 . S
C541 C23 1.204 . S
C546 C122 1.268 . S
C571 C183 1.203 . S
C576 C42 1.267 . S
C601 C231 1.496 . S
C606 C31 1.496 . S
C631 C44 0.661 . S
C636 C4 0.661 . S
C661 C111 1.496 . S
C666 C71 1.496 . S
C691 C84 0.661 . S
C696 C124 0.661 . S
C721 C191 1.496 . S
C726 C151 1.496 . S
C751 C204 0.661 . S
C756 C164 0.661 . S
