# Generated by pormake.
# Topology umn, (4)-cn, num edge types: 1
# Building blocks:
#     Node 0, Type 0, BuildingBlock: QUQFOY_clean_sbu_1, # of connection points: 4
#     Node 1, Type 0, BuildingBlock: QUQFOY_clean_sbu_1, # of connection points: 4
#     Node 2, Type 0, BuildingBlock: QUQFOY_clean_sbu_1, # of connection points: 4
#     Node 3, Type 0, BuildingBlock: QUQFOY_clean_sbu_1, # of connection points: 4
#     Node 4, Type 0, BuildingBlock: QUQFOY_clean_sbu_1, # of connection points: 4
#     Node 5, Type 0, BuildingBlock: QUQFOY_clean_sbu_1, # of connection points: 4
#     Node 6, Type 0, BuildingBlock: QUQFOY_clean_sbu_1, # of connection points: 4
#     Node 7, Type 0, BuildingBlock: QUQFOY_clean_sbu_1, # of connection points: 4
#     Node 8, Type 0, BuildingBlock: QUQFOY_clean_sbu_1, # of connection points: 4
#     Node 9, Type 0, BuildingBlock: QUQFOY_clean_sbu_1, # of connection points: 4
#     Node 10, Type 0, BuildingBlock: QUQFOY_clean_sbu_1, # of connection points: 4
#     Node 11, Type 0, BuildingBlock: QUQFOY_clean_sbu_1, # of connection points: 4
#     Node 12, Type 0, BuildingBlock: QUQFOY_clean_sbu_1, # of connection points: 4
#     Node 13, Type 0, BuildingBlock: QUQFOY_clean_sbu_1, # of connection points: 4
#     Node 14, Type 0, BuildingBlock: QUQFOY_clean_sbu_1, # of connection points: 4
#     Node 15, Type 0, BuildingBlock: QUQFOY_clean_sbu_1, # of connection points: 4
#     Node 16, Type 0, BuildingBlock: QUQFOY_clean_sbu_1, # of connection points: 4
#     Node 17, Type 0, BuildingBlock: QUQFOY_clean_sbu_1, # of connection points: 4
#     Node 18, Type 0, BuildingBlock: QUQFOY_clean_sbu_1, # of connection points: 4
#     Node 19, Type 0, BuildingBlock: QUQFOY_clean_sbu_1, # of connection points: 4
#     Node 20, Type 0, BuildingBlock: QUQFOY_clean_sbu_1, # of connection points: 4
#     Node 21, Type 0, BuildingBlock: QUQFOY_clean_sbu_1, # of connection points: 4
#     Node 22, Type 0, BuildingBlock: QUQFOY_clean_sbu_1, # of connection points: 4
#     Node 23, Type 0, BuildingBlock: QUQFOY_clean_sbu_1, # of connection points: 4
#     Node 24, Type 0, BuildingBlock: QUQFOY_clean_sbu_1, # of connection points: 4
#     Node 25, Type 0, BuildingBlock: QUQFOY_clean_sbu_1, # of connection points: 4
#     Node 26, Type 0, BuildingBlock: QUQFOY_clean_sbu_1, # of connection points: 4
#     Node 27, Type 0, BuildingBlock: QUQFOY_clean_sbu_1, # of connection points: 4
#     Node 28, Type 0, BuildingBlock: QUQFOY_clean_sbu_1, # of connection points: 4
#     Node 29, Type 0, BuildingBlock: QUQFOY_clean_sbu_1, # of connection points: 4
#     Node 30, Type 0, BuildingBlock: QUQFOY_clean_sbu_1, # of connection points: 4
#     Node 31, Type 0, BuildingBlock: QUQFOY_clean_sbu_1, # of connection points: 4
#     Node 32, Type 0, BuildingBlock: QUQFOY_clean_sbu_1, # of connection points: 4
#     Node 33, Type 0, BuildingBlock: QUQFOY_clean_sbu_1, # of connection points: 4
#     Node 34, Type 0, BuildingBlock: QUQFOY_clean_sbu_1, # of connection points: 4
#     Node 35, Type 0, BuildingBlock: QUQFOY_clean_sbu_1, # of connection points: 4
#     Edge 36, Type (0, 0), BuildingBlock: KIFKEQ_clean_linker_1, # of connection points: 2
#     Edge 37, Type (0, 0), BuildingBlock: KIFKEQ_clean_linker_1, # of connection points: 2
#     Edge 38, Type (0, 0), BuildingBlock: KIFKEQ_clean_linker_1, # of connection points: 2
#     Edge 39, Type (0, 0), BuildingBlock: KIFKEQ_clean_linker_1, # of connection points: 2
#     Edge 40, Type (0, 0), BuildingBlock: KIFKEQ_clean_linker_1, # of connection points: 2
#     Edge 41, Type (0, 0), BuildingBlock: KIFKEQ_clean_linker_1, # of connection points: 2
#     Edge 42, Type (0, 0), BuildingBlock: KIFKEQ_clean_linker_1, # of connection points: 2
#     Edge 43, Type (0, 0), BuildingBlock: KIFKEQ_clean_linker_1, # of connection points: 2
#     Edge 44, Type (0, 0), BuildingBlock: KIFKEQ_clean_linker_1, # of connection points: 2
#     Edge 45, Type (0, 0), BuildingBlock: KIFKEQ_clean_linker_1, # of connection points: 2
#     Edge 46, Type (0, 0), BuildingBlock: KIFKEQ_clean_linker_1, # of connection points: 2
#     Edge 47, Type (0, 0), BuildingBlock: KIFKEQ_clean_linker_1, # of connection points: 2
#     Edge 48, Type (0, 0), BuildingBlock: KIFKEQ_clean_linker_1, # of connection points: 2
#     Edge 49, Type (0, 0), BuildingBlock: KIFKEQ_clean_linker_1, # of connection points: 2
#     Edge 50, Type (0, 0), BuildingBlock: KIFKEQ_clean_linker_1, # of connection points: 2
#     Edge 51, Type (0, 0), BuildingBlock: KIFKEQ_clean_linker_1, # of connection points: 2
#     Edge 52, Type (0, 0), BuildingBlock: KIFKEQ_clean_linker_1, # of connection points: 2
#     Edge 53, Type (0, 0), BuildingBlock: KIFKEQ_clean_linker_1, # of connection points: 2
#     Edge 54, Type (0, 0), BuildingBlock: KIFKEQ_clean_linker_1, # of connection points: 2
#     Edge 55, Type (0, 0), BuildingBlock: KIFKEQ_clean_linker_1, # of connection points: 2
#     Edge 56, Type (0, 0), BuildingBlock: KIFKEQ_clean_linker_1, # of connection points: 2
#     Edge 57, Type (0, 0), BuildingBlock: KIFKEQ_clean_linker_1, # of connection points: 2
#     Edge 58, Type (0, 0), BuildingBlock: KIFKEQ_clean_linker_1, # of connection points: 2
#     Edge 59, Type (0, 0), BuildingBlock: KIFKEQ_clean_linker_1, # of connection points: 2
#     Edge 60, Type (0, 0), BuildingBlock: KIFKEQ_clean_linker_1, # of connection points: 2
#     Edge 61, Type (0, 0), BuildingBlock: KIFKEQ_clean_linker_1, # of connection points: 2
#     Edge 62, Type (0, 0), BuildingBlock: KIFKEQ_clean_linker_1, # of connection points: 2
#     Edge 63, Type (0, 0), BuildingBlock: KIFKEQ_clean_linker_1, # of connection points: 2
#     Edge 64, Type (0, 0), BuildingBlock: KIFKEQ_clean_linker_1, # of connection points: 2
#     Edge 65, Type (0, 0), BuildingBlock: KIFKEQ_clean_linker_1, # of connection points: 2
#     Edge 66, Type (0, 0), BuildingBlock: KIFKEQ_clean_linker_1, # of connection points: 2
#     Edge 67, Type (0, 0), BuildingBlock: KIFKEQ_clean_linker_1, # of connection points: 2
#     Edge 68, Type (0, 0), BuildingBlock: KIFKEQ_clean_linker_1, # of connection points: 2
#     Edge 69, Type (0, 0), BuildingBlock: KIFKEQ_clean_linker_1, # of connection points: 2
#     Edge 70, Type (0, 0), BuildingBlock: KIFKEQ_clean_linker_1, # of connection points: 2
#     Edge 71, Type (0, 0), BuildingBlock: KIFKEQ_clean_linker_1, # of connection points: 2
#     Edge 72, Type (0, 0), BuildingBlock: KIFKEQ_clean_linker_1, # of connection points: 2
#     Edge 73, Type (0, 0), BuildingBlock: KIFKEQ_clean_linker_1, # of connection points: 2
#     Edge 74, Type (0, 0), BuildingBlock: KIFKEQ_clean_linker_1, # of connection points: 2
#     Edge 75, Type (0, 0), BuildingBlock: KIFKEQ_clean_linker_1, # of connection points: 2
#     Edge 76, Type (0, 0), BuildingBlock: KIFKEQ_clean_linker_1, # of connection points: 2
#     Edge 77, Type (0, 0), BuildingBlock: KIFKEQ_clean_linker_1, # of connection points: 2
#     Edge 78, Type (0, 0), BuildingBlock: KIFKEQ_clean_linker_1, # of connection points: 2
#     Edge 79, Type (0, 0), BuildingBlock: KIFKEQ_clean_linker_1, # of connection points: 2
#     Edge 80, Type (0, 0), BuildingBlock: KIFKEQ_clean_linker_1, # of connection points: 2
#     Edge 81, Type (0, 0), BuildingBlock: KIFKEQ_clean_linker_1, # of connection points: 2
#     Edge 82, Type (0, 0), BuildingBlock: KIFKEQ_clean_linker_1, # of connection points: 2
#     Edge 83, Type (0, 0), BuildingBlock: KIFKEQ_clean_linker_1, # of connection points: 2
#     Edge 84, Type (0, 0), BuildingBlock: KIFKEQ_clean_linker_1, # of connection points: 2
#     Edge 85, Type (0, 0), BuildingBlock: KIFKEQ_clean_linker_1, # of connection points: 2
#     Edge 86, Type (0, 0), BuildingBlock: KIFKEQ_clean_linker_1, # of connection points: 2
#     Edge 87, Type (0, 0), BuildingBlock: KIFKEQ_clean_linker_1, # of connection points: 2
#     Edge 88, Type (0, 0), BuildingBlock: KIFKEQ_clean_linker_1, # of connection points: 2
#     Edge 89, Type (0, 0), BuildingBlock: KIFKEQ_clean_linker_1, # of connection points: 2
#     Edge 90, Type (0, 0), BuildingBlock: KIFKEQ_clean_linker_1, # of connection points: 2
#     Edge 91, Type (0, 0), BuildingBlock: KIFKEQ_clean_linker_1, # of connection points: 2
#     Edge 92, Type (0, 0), BuildingBlock: KIFKEQ_clean_linker_1, # of connection points: 2
#     Edge 93, Type (0, 0), BuildingBlock: KIFKEQ_clean_linker_1, # of connection points: 2
#     Edge 94, Type (0, 0), BuildingBlock: KIFKEQ_clean_linker_1, # of connection points: 2
#     Edge 95, Type (0, 0), BuildingBlock: KIFKEQ_clean_linker_1, # of connection points: 2
#     Edge 96, Type (0, 0), BuildingBlock: KIFKEQ_clean_linker_1, # of connection points: 2
#     Edge 97, Type (0, 0), BuildingBlock: KIFKEQ_clean_linker_1, # of connection points: 2
#     Edge 98, Type (0, 0), BuildingBlock: KIFKEQ_clean_linker_1, # of connection points: 2
#     Edge 99, Type (0, 0), BuildingBlock: KIFKEQ_clean_linker_1, # of connection points: 2
#     Edge 100, Type (0, 0), BuildingBlock: KIFKEQ_clean_linker_1, # of connection points: 2
#     Edge 101, Type (0, 0), BuildingBlock: KIFKEQ_clean_linker_1, # of connection points: 2
#     Edge 102, Type (0, 0), BuildingBlock: KIFKEQ_clean_linker_1, # of connection points: 2
#     Edge 103, Type (0, 0), BuildingBlock: KIFKEQ_clean_linker_1, # of connection points: 2
#     Edge 104, Type (0, 0), BuildingBlock: KIFKEQ_clean_linker_1, # of connection points: 2
#     Edge 105, Type (0, 0), BuildingBlock: KIFKEQ_clean_linker_1, # of connection points: 2
#     Edge 106, Type (0, 0), BuildingBlock: KIFKEQ_clean_linker_1, # of connection points: 2
#     Edge 107, Type (0, 0), BuildingBlock: KIFKEQ_clean_linker_1, # of connection points: 2
# Relax obj value: 0.079
# Max RMSD: 0.125
# Mean RMSD: 0.125
data_MOF--net-umn--node1-QUQFOY_clean_sbu_1--edge1-KIFKEQ_clean_linker_1
_symmetry_space_group_name_H-M    P1
_symmetry_Int_Tables_number       1
_symmetry_cell_setting            triclinic
loop_
_symmetry_equiv_pos_as_xyz
'x, y, z'
_cell_length_a     92.53074
_cell_length_b     92.579555
_cell_length_c     39.042119
_cell_angle_alpha  89.987203
_cell_angle_beta   89.986005
_cell_angle_gamma 119.989
loop_
_atom_site_label
_atom_site_type_symbol
_atom_site_fract_x
_atom_site_fract_y
_atom_site_fract_z
_atom_type_partial_charge
O0 O 0.32032 0.08176 0.28387 0.0
Cd1 Cd 0.31441 0.08288 0.23385 0.0
Cd2 Cd 0.32876 0.06263 0.22714 0.0
O3 O 0.33478 0.06876 0.27874 0.0
O4 O 0.30679 0.09948 0.23608 0.0
O5 O 0.32794 0.10301 0.20389 0.0
C6 C 0.31837 0.1085 0.21463 0.0
C7 C 0.34703 0.06049 0.18798 0.0
C8 C 0.32862 0.07568 0.29729 0.0
C9 C 0.29133 0.04784 0.21573 0.0
O10 O 0.30382 0.04569 0.21863 0.0
O11 O 0.29301 0.06223 0.21863 0.0
O12 O 0.34036 0.05015 0.21299 0.0
O13 O 0.34401 0.07266 0.18601 0.0
O14 O 0.91004 0.24102 0.28105 0.0
Cd15 Cd 0.9103 0.23552 0.23039 0.0
Cd16 Cd 0.9312 0.2701 0.22889 0.0
O17 O 0.92498 0.26851 0.28083 0.0
O18 O 0.89446 0.21108 0.23106 0.0
O19 O 0.89016 0.22844 0.19993 0.0
C20 C 0.88517 0.21339 0.20995 0.0
C21 C 0.93146 0.28955 0.18984 0.0
C22 C 0.91673 0.2548 0.29706 0.0
C23 C 0.94603 0.24812 0.21404 0.0
O24 O 0.9484 0.26275 0.21858 0.0
O25 O 0.93151 0.23549 0.21585 0.0
O26 O 0.9419 0.29417 0.21494 0.0
O27 O 0.9202 0.27396 0.18791 0.0
O28 O 0.75745 0.66647 0.28892 0.0
Cd29 Cd 0.76433 0.67475 0.23979 0.0
Cd30 Cd 0.72947 0.65999 0.23371 0.0
O31 O 0.73001 0.65449 0.2855 0.0
O32 O 0.78884 0.68385 0.242 0.0
O33 O 0.77257 0.66386 0.20617 0.0
C34 C 0.78734 0.67374 0.21792 0.0
C35 C 0.70998 0.64137 0.19381 0.0
C36 C 0.7432 0.65907 0.30314 0.0
C37 C 0.75102 0.69735 0.22396 0.0
O38 O 0.73653 0.68454 0.22439 0.0
O39 O 0.76389 0.69612 0.22898 0.0
O40 O 0.70552 0.64739 0.21878 0.0
O41 O 0.72543 0.64511 0.19258 0.0
O42 O 0.0874 0.33208 0.23672 0.0
Cd43 Cd 0.08534 0.32296 0.28526 0.0
Cd44 Cd 0.06335 0.33544 0.29008 0.0
O45 O 0.07 0.34183 0.23882 0.0
O46 O 0.10202 0.31546 0.28183 0.0
O47 O 0.10369 0.33347 0.32076 0.0
C48 C 0.10984 0.325 0.30722 0.0
C49 C 0.06173 0.35329 0.3308 0.0
C50 C 0.07982 0.33859 0.22192 0.0
C51 C 0.04938 0.29823 0.29654 0.0
O52 O 0.04666 0.31042 0.29703 0.0
O53 O 0.06402 0.3006 0.2928 0.0
O54 O 0.05159 0.34763 0.30522 0.0
O55 O 0.07336 0.34946 0.3326 0.0
O56 O 0.66445 0.7559 0.22604 0.0
Cd57 Cd 0.67238 0.7629 0.27525 0.0
Cd58 Cd 0.65746 0.72874 0.28273 0.0
O59 O 0.65026 0.72853 0.23186 0.0
O60 O 0.67971 0.78703 0.27378 0.0
O61 O 0.66059 0.76951 0.30993 0.0
C62 C 0.66938 0.7845 0.2982 0.0
C63 C 0.63977 0.71048 0.32521 0.0
C64 C 0.6558 0.74149 0.21308 0.0
C65 C 0.69514 0.75002 0.28964 0.0
O66 O 0.68226 0.73556 0.28876 0.0
O67 O 0.69395 0.76299 0.28616 0.0
O68 O 0.64439 0.70509 0.29939 0.0
O69 O 0.64446 0.72617 0.32618 0.0
O70 O 0.24211 0.91268 0.22949 0.0
Cd71 Cd 0.23391 0.91073 0.27879 0.0
Cd72 Cd 0.26778 0.93319 0.28793 0.0
O73 O 0.26934 0.92872 0.23597 0.0
O74 O 0.21037 0.89271 0.27306 0.0
O75 O 0.22752 0.89101 0.30996 0.0
C76 C 0.21287 0.8844 0.29636 0.0
C77 C 0.28779 0.93551 0.32827 0.0
C78 C 0.25666 0.92059 0.21676 0.0
C79 C 0.24261 0.94498 0.29769 0.0
O80 O 0.25776 0.94842 0.29706 0.0
O81 O 0.23083 0.93022 0.2927 0.0
O82 O 0.29139 0.9465 0.30462 0.0
O83 O 0.27292 0.92269 0.32831 0.0
O84 O 0.66765 0.91198 0.73753 0.0
Cd85 Cd 0.67278 0.90893 0.78713 0.0
Cd86 Cd 0.66054 0.93111 0.79638 0.0
O87 O 0.65503 0.92671 0.74422 0.0
O88 O 0.67817 0.89077 0.78145 0.0
O89 O 0.65822 0.88854 0.81582 0.0
C90 C 0.66644 0.88198 0.80282 0.0
C91 C 0.64268 0.93451 0.83468 0.0
C92 C 0.66052 0.91944 0.72489 0.0
C93 C 0.69756 0.94297 0.80852 0.0
O94 O 0.68572 0.94618 0.80656 0.0
O95 O 0.6949 0.92829 0.80382 0.0
O96 O 0.65069 0.94518 0.81085 0.0
O97 O 0.64424 0.92142 0.83612 0.0
O98 O 0.08196 0.7584 0.74502 0.0
Cd99 Cd 0.07964 0.76296 0.79536 0.0
Cd100 Cd 0.06093 0.7284 0.79587 0.0
O101 O 0.06885 0.73088 0.74496 0.0
O102 O 0.09529 0.78741 0.79851 0.0
O103 O 0.09858 0.76906 0.82855 0.0
C104 C 0.10394 0.78439 0.8201 0.0
C105 C 0.06043 0.70876 0.83485 0.0
C106 C 0.07668 0.74473 0.72904 0.0
C107 C 0.04324 0.74816 0.80638 0.0
O108 O 0.04221 0.73402 0.80285 0.0
O109 O 0.05728 0.7615 0.8061 0.0
O110 O 0.05091 0.70419 0.80826 0.0
O111 O 0.07094 0.72449 0.83854 0.0
O112 O 0.24685 0.33345 0.74099 0.0
Cd113 Cd 0.23846 0.32469 0.78929 0.0
Cd114 Cd 0.27293 0.33476 0.79553 0.0
O115 O 0.27346 0.34068 0.74374 0.0
O116 O 0.21466 0.31826 0.78254 0.0
O117 O 0.23031 0.33592 0.82255 0.0
C118 C 0.21605 0.32795 0.80736 0.0
C119 C 0.29402 0.35233 0.83427 0.0
C120 C 0.26088 0.33862 0.72649 0.0
C121 C 0.24706 0.29811 0.80344 0.0
O122 O 0.26232 0.30949 0.80453 0.0
O123 O 0.23565 0.30165 0.79829 0.0
O124 O 0.29681 0.34452 0.81018 0.0
O125 O 0.27932 0.35068 0.83574 0.0
O126 O 0.90748 0.65552 0.78811 0.0
Cd127 Cd 0.90599 0.66301 0.73946 0.0
Cd128 Cd 0.92986 0.65367 0.72711 0.0
O129 O 0.92749 0.64949 0.77982 0.0
O130 O 0.88864 0.66949 0.74587 0.0
O131 O 0.88573 0.65016 0.70908 0.0
C132 C 0.87981 0.6588 0.72284 0.0
C133 C 0.93027 0.63488 0.68715 0.0
C134 C 0.91774 0.65145 0.79988 0.0
C135 C 0.9405 0.68978 0.7187 0.0
O136 O 0.94451 0.67856 0.71551 0.0
O137 O 0.92578 0.68598 0.7272 0.0
O138 O 0.94201 0.6423 0.70939 0.0
O139 O 0.91787 0.63758 0.68826 0.0
O140 O 0.3296 0.24623 0.77723 0.0
Cd141 Cd 0.32221 0.23886 0.72783 0.0
Cd142 Cd 0.33303 0.27325 0.72345 0.0
O143 O 0.33819 0.27315 0.77555 0.0
O144 O 0.31574 0.21497 0.73263 0.0
O145 O 0.33442 0.23163 0.69506 0.0
C146 C 0.32612 0.21702 0.70871 0.0
C147 C 0.35132 0.2942 0.68528 0.0
C148 C 0.33502 0.26011 0.79243 0.0
C149 C 0.29633 0.2481 0.71241 0.0
O150 O 0.30794 0.26327 0.71317 0.0
O151 O 0.29948 0.23638 0.71674 0.0
O152 O 0.34355 0.29723 0.70909 0.0
O153 O 0.34929 0.27935 0.68391 0.0
O154 O 0.75043 0.08165 0.78138 0.0
Cd155 Cd 0.75818 0.08026 0.73308 0.0
Cd156 Cd 0.72377 0.0574 0.72771 0.0
O157 O 0.72349 0.06338 0.77918 0.0
O158 O 0.78219 0.09724 0.73823 0.0
O159 O 0.76631 0.09906 0.69844 0.0
C160 C 0.78072 0.10528 0.71297 0.0
C161 C 0.70367 0.05534 0.68792 0.0
C162 C 0.73637 0.07353 0.79613 0.0
C163 C 0.74806 0.0446 0.72108 0.0
O164 O 0.73302 0.04147 0.71994 0.0
O165 O 0.75999 0.05937 0.72542 0.0
O166 O 0.69992 0.04463 0.71225 0.0
O167 O 0.71881 0.06771 0.68682 0.0
O168 O 0.98943 0.41291 0.61659 0.0
Cd169 Cd 0.98386 0.41359 0.56617 0.0
Cd170 Cd -0.00079 0.39464 0.56151 0.0
O171 O 0.00502 0.4011 0.61309 0.0
O172 O 0.97619 0.43014 0.56804 0.0
O173 O -0.00301 0.43337 0.53508 0.0
C174 C 0.98761 0.43901 0.54616 0.0
C175 C 0.01793 0.3943 0.52116 0.0
C176 C -0.00192 0.40747 0.63093 0.0
C177 C 0.96172 0.37828 0.54961 0.0
O178 O 0.97454 0.37673 0.5535 0.0
O179 O 0.96283 0.39247 0.55121 0.0
O180 O 0.01263 0.3841 0.54668 0.0
O181 O 0.01329 0.40533 0.51931 0.0
O182 O 0.57719 0.58743 0.62272 0.0
Cd183 Cd 0.57579 0.57729 0.5753 0.0
Cd184 Cd 0.60091 0.60925 0.56078 0.0
O185 O 0.59933 0.6121 0.61341 0.0
O186 O 0.55674 0.55437 0.58274 0.0
O187 O 0.55703 0.57069 0.54127 0.0
C188 C 0.54947 0.55648 0.55678 0.0
C189 C 0.60205 0.62853 0.52019 0.0
C190 C 0.58863 0.60138 0.6339 0.0
C191 C 0.60923 0.58202 0.55511 0.0
O192 O 0.61395 0.59724 0.54906 0.0
O193 O 0.59461 0.5722 0.56604 0.0
O194 O 0.61403 0.63241 0.54161 0.0
O195 O 0.58906 0.61382 0.52236 0.0
O196 O 0.41623 0.99671 0.61692 0.0
Cd197 Cd 0.42377 0.00497 0.56803 0.0
Cd198 Cd 0.38984 0.99429 0.56262 0.0
O199 O 0.38941 0.98858 0.61452 0.0
O200 O 0.44758 0.01112 0.57215 0.0
O201 O 0.43077 0.99332 0.53345 0.0
C202 C 0.44541 0.00125 0.5471 0.0
C203 C 0.36974 0.97636 0.52283 0.0
C204 C 0.40224 0.99129 0.63171 0.0
C205 C 0.41473 0.03106 0.55415 0.0
O206 O 0.39958 0.01941 0.55348 0.0
O207 O 0.42641 0.02791 0.55904 0.0
O208 O 0.36607 0.98354 0.54683 0.0
O209 O 0.38475 0.97873 0.52225 0.0
O210 O 0.75008 0.65858 0.57678 0.0
Cd211 Cd 0.74743 0.64915 0.6252 0.0
Cd212 Cd 0.72625 0.66329 0.62906 0.0
O213 O 0.73385 0.66973 0.57822 0.0
O214 O 0.76346 0.64078 0.62205 0.0
O215 O 0.76575 0.65909 0.6609 0.0
C216 C 0.77149 0.65023 0.64742 0.0
C217 C 0.72378 0.68142 0.66789 0.0
C218 C 0.74335 0.6659 0.56176 0.0
C219 C 0.71108 0.62574 0.636 0.0
O220 O 0.70907 0.63837 0.63588 0.0
O221 O 0.72545 0.62736 0.63269 0.0
O222 O 0.71422 0.67561 0.64148 0.0
O223 O 0.7353 0.67756 0.67169 0.0
O224 O 0.33718 0.09043 0.56859 0.0
Cd225 Cd 0.34265 0.0973 0.61884 0.0
Cd226 Cd 0.3274 0.06262 0.62529 0.0
O227 O 0.32128 0.06312 0.57394 0.0
O228 O 0.35088 0.12167 0.6167 0.0
O229 O 0.32903 0.10429 0.64755 0.0
C230 C 0.33901 0.11931 0.63715 0.0
C231 C 0.30895 0.04271 0.66479 0.0
C232 C 0.32822 0.07615 0.55525 0.0
C233 C 0.36483 0.08427 0.63733 0.0
O234 O 0.35219 0.06981 0.63322 0.0
O235 O 0.36348 0.09721 0.63546 0.0
O236 O 0.31466 0.03847 0.63894 0.0
O237 O 0.31305 0.0582 0.66755 0.0
O238 O 0.90935 0.23871 0.56932 0.0
Cd239 Cd 0.90273 0.2391 0.61916 0.0
Cd240 Cd 0.93726 0.26108 0.62315 0.0
O241 O 0.93672 0.25491 0.57146 0.0
O242 O 0.87837 0.22293 0.61663 0.0
O243 O 0.89524 0.21919 0.6506 0.0
C244 C 0.88037 0.21393 0.63903 0.0
C245 C 0.95666 0.2623 0.66359 0.0
C246 C 0.92342 0.24602 0.55436 0.0
C247 C 0.91404 0.2748 0.63393 0.0
O248 O 0.92896 0.27769 0.63152 0.0
O249 O 0.90178 0.26008 0.63144 0.0
O250 O 0.96121 0.27262 0.6383 0.0
O251 O 0.9412 0.25066 0.66507 0.0
O252 O 0.32782 0.24364 0.06501 0.0
Cd253 Cd 0.33591 0.2436 0.11374 0.0
Cd254 Cd 0.32663 0.26776 0.12063 0.0
O255 O 0.32093 0.26321 0.06854 0.0
O256 O 0.34114 0.22533 0.10882 0.0
O257 O 0.32369 0.22485 0.14786 0.0
C258 C 0.33119 0.21777 0.13386 0.0
C259 C 0.30892 0.26979 0.16121 0.0
C260 C 0.32302 0.25285 0.05079 0.0
C261 C 0.36303 0.27815 0.12916 0.0
O262 O 0.35184 0.2823 0.13028 0.0
O263 O 0.35922 0.26319 0.12335 0.0
O264 O 0.31638 0.281 0.13792 0.0
O265 O 0.31091 0.25693 0.16062 0.0
O266 O 0.75067 0.08462 0.06904 0.0
Cd267 Cd 0.75015 0.09268 0.11752 0.0
Cd268 Cd 0.72672 0.05861 0.12396 0.0
O269 O 0.73206 0.05782 0.07226 0.0
O270 O 0.76756 0.1165 0.11182 0.0
O271 O 0.76924 0.10039 0.15129 0.0
C272 C 0.77565 0.11481 0.13671 0.0
C273 C 0.72442 0.03855 0.16407 0.0
C274 C 0.74214 0.07051 0.05472 0.0
C275 C 0.71492 0.08365 0.13117 0.0
O276 O 0.71137 0.06849 0.13227 0.0
O277 O 0.72979 0.09528 0.12634 0.0
O278 O 0.71356 0.03491 0.14009 0.0
O279 O 0.73708 0.05352 0.16458 0.0
O280 O 0.92125 0.68047 0.05927 0.0
Cd281 Cd 0.91058 0.66971 0.10519 0.0
Cd282 Cd 0.942 0.6762 0.12069 0.0
O283 O 0.94516 0.68128 0.06832 0.0
O284 O 0.88756 0.66559 0.09797 0.0
O285 O 0.90311 0.68 0.14182 0.0
C286 C 0.88908 0.6737 0.12569 0.0
C287 C 0.96071 0.69397 0.16245 0.0
C288 C 0.93499 0.68241 0.04805 0.0
C289 C 0.91541 0.64062 0.12134 0.0
O290 O 0.93025 0.651 0.1305 0.0
O291 O 0.9059 0.64568 0.10981 0.0
O292 O 0.96502 0.68636 0.14064 0.0
O293 O 0.94589 0.69196 0.16004 0.0
O294 O 0.5799 0.00686 0.116 0.0
Cd295 Cd 0.5778 0.0121 0.06593 0.0
Cd296 Cd 0.59808 -0.00236 0.05827 0.0
O297 O 0.59253 0.99208 0.11016 0.0
O298 O 0.56107 0.01957 0.06893 0.0
O299 O 0.55713 -0.00199 0.03774 0.0
C300 C 0.5517 0.00762 0.04853 0.0
C301 C 0.60029 0.97904 0.02012 0.0
C302 C 0.58606 -0.00144 0.12908 0.0
C303 C 0.61257 0.03497 0.0454 0.0
O304 O 0.61479 0.02253 0.0486 0.0
O305 O 0.59819 0.03329 0.04879 0.0
O306 O 0.61079 0.9862 0.04467 0.0
O307 O 0.58796 0.98183 0.01796 0.0
O308 O 0.98503 0.57128 0.1097 0.0
Cd309 Cd 0.98052 0.56633 0.05855 0.0
Cd310 Cd -0.00228 0.60083 0.05673 0.0
O311 O 0.00273 0.59839 0.10807 0.0
O312 O 0.97185 0.54191 0.05634 0.0
O313 O 0.9948 0.56031 0.02963 0.0
C314 C 0.9844 0.54496 0.03727 0.0
C315 C 0.01718 0.62064 0.01839 0.0
C316 C 0.99457 0.58488 0.125 0.0
C317 C 0.96042 0.58174 0.04149 0.0
O318 O 0.97354 0.59554 0.0479 0.0
O319 O 0.96066 0.56818 0.04152 0.0
O320 O 0.01201 0.6251 0.0448 0.0
O321 O 0.0121 0.60495 0.01467 0.0
O322 O 0.42903 0.41738 0.1168 0.0
Cd323 Cd 0.43626 0.41729 0.06731 0.0
Cd324 Cd 0.40108 0.39805 0.05985 0.0
O325 O 0.40159 0.40482 0.11116 0.0
O326 O 0.46073 0.43293 0.06971 0.0
O327 O 0.44416 0.43693 0.03525 0.0
C328 C 0.459 0.44186 0.04665 0.0
C329 C 0.38045 0.39584 0.02109 0.0
C330 C 0.41463 0.41178 0.12985 0.0
C331 C 0.42253 0.3817 0.05047 0.0
O332 O 0.40817 0.38037 0.05199 0.0
O333 O 0.43566 0.39569 0.05424 0.0
O334 O 0.37684 0.38585 0.04671 0.0
O335 O 0.39574 0.40774 0.01824 0.0
O336 O 0.64448 0.74122 0.9405 0.0
Cd337 Cd 0.63962 0.7417 0.88953 0.0
Cd338 Cd 0.65721 0.72483 0.88614 0.0
O339 O 0.66268 0.73245 0.93727 0.0
O340 O 0.63148 0.75789 0.88712 0.0
O341 O 0.65416 0.76172 0.86023 0.0
C342 C 0.64408 0.76709 0.86788 0.0
C343 C 0.67667 0.72435 0.84788 0.0
C344 C 0.65445 0.73747 0.95494 0.0
C345 C 0.61968 0.70628 0.87244 0.0
O346 O 0.63299 0.70581 0.87805 0.0
O347 O 0.61971 0.71998 0.87283 0.0
O348 O 0.67148 0.71479 0.87439 0.0
O349 O 0.67151 0.73488 0.84384 0.0
O350 O 0.2478 0.90849 0.94716 0.0
Cd351 Cd 0.24459 0.90056 0.89739 0.0
Cd352 Cd 0.26517 0.93493 0.88851 0.0
O353 O 0.26022 0.9358 0.94043 0.0
O354 O 0.22717 0.87673 0.90324 0.0
O355 O 0.22369 0.89402 0.86995 0.0
C356 C 0.21779 0.87928 0.8828 0.0
C357 C 0.26668 0.95487 0.849 0.0
C358 C 0.25413 0.92302 0.95981 0.0
C359 C 0.27898 0.91146 0.87612 0.0
O360 O 0.28156 0.92626 0.87935 0.0
O361 O 0.26444 0.89898 0.87936 0.0
O362 O 0.27732 0.95891 0.8735 0.0
O363 O 0.2547 0.93958 0.84741 0.0
O364 O 0.08809 0.33326 0.94864 0.0
Cd365 Cd 0.09368 0.33977 0.89829 0.0
Cd366 Cd 0.05911 0.32506 0.89622 0.0
O367 O 0.06056 0.31973 0.94774 0.0
O368 O 0.11824 0.3489 0.89886 0.0
O369 O 0.10125 0.32745 0.86685 0.0
C370 C 0.11622 0.33761 0.87718 0.0
C371 C 0.04038 0.30617 0.85583 0.0
C372 C 0.07423 0.3255 0.96426 0.0
C373 C 0.08005 0.36224 0.88453 0.0
O374 O 0.0656 0.34956 0.88818 0.0
O375 O 0.09301 0.36086 0.8856 0.0
O376 O 0.03521 0.31118 0.88141 0.0
O377 O 0.05614 0.31115 0.85406 0.0
O378 O 0.41624 -0.00201 0.90482 0.0
Cd379 Cd 0.41536 0.98952 0.95359 0.0
Cd380 Cd 0.39175 2e-05 0.95853 0.0
O381 O 0.39741 0.00595 0.90682 0.0
O382 O 0.43303 0.98335 0.94929 0.0
O383 O 0.43408 0.0011 0.98815 0.0
C384 C 0.44079 0.99322 0.97429 0.0
C385 C 0.38891 0.01778 0.99782 0.0
C386 C 0.40769 0.00339 0.88987 0.0
C387 C 0.38006 0.96321 0.96616 0.0
O388 O 0.37646 0.9748 0.96693 0.0
O389 O 0.39498 0.9665 0.9619 0.0
O390 O 0.37828 0.01043 0.97354 0.0
O391 O 0.40165 0.0156 0.9991 0.0
O392 O 0.00073 0.42081 0.90226 0.0
Cd393 Cd 0.00622 0.42789 0.95236 0.0
Cd394 Cd 0.99143 0.39355 0.95904 0.0
O395 O 0.98545 0.39345 0.90734 0.0
O396 O 0.01345 0.45199 0.94877 0.0
O397 O 0.99273 0.43465 0.98212 0.0
C398 C 0.00188 0.44954 0.97017 0.0
C399 C 0.97309 0.37437 0.99975 0.0
C400 C 0.99223 0.40651 0.88872 0.0
C401 C 0.02891 0.41551 0.97028 0.0
O402 O 0.01628 0.40098 0.96693 0.0
O403 O 0.02747 0.42839 0.96812 0.0
O404 O 0.97866 0.36964 0.97444 0.0
O405 O 0.97725 0.38992 1.00123 0.0
O406 O 0.59107 0.57462 0.89344 0.0
Cd407 Cd 0.57909 0.57288 0.93875 0.0
Cd408 Cd 0.60915 0.59975 0.95632 0.0
O409 O 0.6131 0.59919 0.90386 0.0
O410 O 0.55706 0.55273 0.92988 0.0
O411 O 0.57248 0.55494 0.97479 0.0
C412 C 0.55882 0.54641 0.95778 0.0
C413 C 0.62923 0.603 0.99738 0.0
C414 C 0.60411 0.58757 0.88295 0.0
C415 C 0.57997 0.60492 0.95653 0.0
O416 O 0.59481 0.6105 0.96719 0.0
O417 O 0.57195 0.59048 0.94341 0.0
O418 O 0.63161 0.61493 0.97693 0.0
O419 O 0.61554 0.58892 0.99401 0.0
O420 O -0.00039 0.57505 0.39747 0.0
Cd421 Cd 0.00451 0.57417 0.44828 0.0
Cd422 Cd 0.98733 0.59113 0.45297 0.0
O423 O 0.98197 0.58449 0.40136 0.0
O424 O 0.01326 0.55849 0.44922 0.0
O425 O 0.99058 0.55386 0.47727 0.0
C426 C 0.001 0.54901 0.46895 0.0
C427 C 0.9683 0.59037 0.49375 0.0
C428 C 0.99 0.57936 0.38329 0.0
C429 C 0.02458 0.60943 0.46711 0.0
O430 O 0.01139 0.61013 0.46171 0.0
O431 O 0.02441 0.59568 0.4657 0.0
O432 O 0.97278 0.60036 0.46791 0.0
O433 O 0.97373 0.57996 0.49536 0.0
O434 O 0.41844 0.42811 0.40089 0.0
Cd435 Cd 0.41834 0.43531 0.4504 0.0
Cd436 Cd 0.39867 0.40037 0.45769 0.0
O437 O 0.40562 0.40069 0.40657 0.0
O438 O 0.43431 0.4597 0.44827 0.0
O439 O 0.43791 0.44279 0.48252 0.0
C440 C 0.4431 0.45771 0.47126 0.0
C441 C 0.39616 0.37987 0.49711 0.0
C442 C 0.41273 0.41371 0.38786 0.0
C443 C 0.38274 0.4222 0.46612 0.0
O444 O 0.38114 0.40775 0.46459 0.0
O445 O 0.39691 0.43519 0.463 0.0
O446 O 0.38626 0.37621 0.47131 0.0
O447 O 0.40813 0.39513 0.49978 0.0
O448 O 0.57218 0.99157 0.39975 0.0
Cd449 Cd 0.56459 0.98558 0.44951 0.0
Cd450 Cd 0.59918 -0.00094 0.45721 0.0
O451 O 0.59961 0.00537 0.40566 0.0
O452 O 0.54047 0.97825 0.44596 0.0
O453 O 0.55778 -0.0009 0.47901 0.0
C454 C 0.54284 0.98971 0.46752 0.0
C455 C 0.61977 0.01672 0.49672 0.0
C456 C 0.58667 -0.00043 0.38675 0.0
C457 C 0.57561 0.96174 0.46782 0.0
O458 O 0.59043 0.97396 0.46532 0.0
O459 O 0.56318 0.96387 0.46474 0.0
O460 O 0.62318 0.00986 0.47169 0.0
O461 O 0.60476 0.01425 0.49854 0.0
O462 O 0.24538 0.33334 0.4534 0.0
Cd463 Cd 0.24434 0.33927 0.40333 0.0
Cd464 Cd 0.26712 0.32788 0.39858 0.0
O465 O 0.26222 0.32292 0.45084 0.0
O466 O 0.22747 0.34652 0.4068 0.0
O467 O 0.224 0.32579 0.37356 0.0
C468 C 0.21841 0.33512 0.38515 0.0
C469 C 0.26858 0.30951 0.35896 0.0
C470 C 0.25336 0.32727 0.46825 0.0
C471 C 0.27924 0.36441 0.38515 0.0
O472 O 0.28271 0.3528 0.38787 0.0
O473 O 0.2644 0.36146 0.38877 0.0
O474 O 0.27963 0.31662 0.38266 0.0
O475 O 0.25609 0.3121 0.35881 0.0
O476 O 0.6577 0.90879 0.45434 0.0
Cd477 Cd 0.65266 0.90167 0.40413 0.0
Cd478 Cd 0.66571 0.93584 0.39707 0.0
O479 O 0.67139 0.93623 0.449 0.0
O480 O 0.64573 0.87765 0.40678 0.0
O481 O 0.66695 0.89561 0.37521 0.0
C482 C 0.65756 0.8805 0.38577 0.0
C483 C 0.68394 0.95602 0.35759 0.0
C484 C 0.66538 0.92321 0.4677 0.0
C485 C 0.62866 0.91225 0.38437 0.0
O486 O 0.6407 0.92711 0.38762 0.0
O487 O 0.631 0.89996 0.3875 0.0
O488 O 0.67694 0.95973 0.3819 0.0
O489 O 0.68126 0.94093 0.35656 0.0
O490 O 0.08675 0.75768 0.45674 0.0
Cd491 Cd 0.09227 0.75472 0.40745 0.0
Cd492 Cd 0.05807 0.73603 0.40361 0.0
O493 O 0.05924 0.74365 0.4544 0.0
O494 O 0.1168 0.76991 0.40606 0.0
O495 O 0.09942 0.77296 0.37211 0.0
C496 C 0.11452 0.77806 0.38204 0.0
C497 C 0.0405 0.73659 0.36099 0.0
C498 C 0.07269 0.75195 0.47141 0.0
C499 C 0.07775 0.71831 0.39661 0.0
O500 O 0.06349 0.71716 0.39785 0.0
O501 O 0.09099 0.73235 0.39877 0.0
O502 O 0.03454 0.72682 0.38712 0.0
O503 O 0.0564 0.74683 0.36 0.0
H504 H 0.21987 0.94632 0.25633 0.0
H505 H 0.25853 0.97504 0.33001 0.0
H506 H 0.22301 0.97203 0.232 0.0
H507 H 0.26097 0.00064 0.30684 0.0
H508 H 0.26608 0.04465 0.25581 0.0
H509 H 0.24448 0.01825 0.27987 0.0
H510 H 0.25738 0.99149 0.20706 0.0
H511 H 0.27959 0.01783 0.18426 0.0
C512 C 0.22824 0.95804 0.26881 0.0
C513 C 0.2392 0.95881 0.29466 0.0
C514 C 0.22998 0.97271 0.25483 0.0
C515 C 0.24225 0.98818 0.26751 0.0
C516 C 0.25131 0.98878 0.29689 0.0
C517 C 0.24997 0.97417 0.3101 0.0
C518 C 0.2637 0.03313 0.2437 0.0
C519 C 0.27459 0.03316 0.21851 0.0
C520 C 0.25133 0.01807 0.25753 0.0
C521 C 0.24939 0.00298 0.24531 0.0
C522 C 0.25858 0.00303 0.2166 0.0
C523 C 0.27131 0.01807 0.2036 0.0
H524 H 0.04724 0.27516 0.2513 0.0
H525 H 0.01919 0.28421 0.32826 0.0
H526 H 0.02123 0.25371 0.22558 0.0
H527 H 0.99327 0.26213 0.30365 0.0
H528 H 0.94878 0.22497 0.25113 0.0
H529 H 0.97505 0.22867 0.2737 0.0
H530 H 0.00229 0.26976 0.20414 0.0
H531 H 0.9761 0.2667 0.18292 0.0
C532 C 0.03557 0.27181 0.26404 0.0
C533 C 0.03509 0.28143 0.29143 0.0
C534 C 0.02074 0.25953 0.24929 0.0
C535 C 0.00539 0.25639 0.26266 0.0
C536 C 0.00503 0.26426 0.29317 0.0
C537 C 0.01981 0.27692 0.30719 0.0
C538 C 0.96036 0.23421 0.23937 0.0
C539 C 0.96054 0.24574 0.21565 0.0
C540 C 0.97534 0.23628 0.25231 0.0
C541 C 0.99054 0.24949 0.24064 0.0
C542 C 0.99065 0.25936 0.21321 0.0
C543 C 0.97571 0.25768 0.20113 0.0
H544 H 0.73353 0.70836 0.18715 0.0
H545 H 0.77067 0.72264 0.26657 0.0
H546 H 0.72816 0.73047 0.20538 0.0
H547 H 0.76462 0.74419 0.28591 0.0
H548 H 0.72047 0.77044 0.24777 0.0
H549 H 0.74279 0.76552 0.22827 0.0
H550 H 0.72901 0.72769 0.30588 0.0
H551 H 0.70617 0.73194 0.32421 0.0
C552 C 0.74109 0.71675 0.20739 0.0
C553 C 0.75238 0.71379 0.22566 0.0
C554 C 0.73809 0.72942 0.21774 0.0
C555 C 0.74598 0.73887 0.24708 0.0
C556 C 0.75858 0.73713 0.26301 0.0
C557 C 0.76199 0.72481 0.25192 0.0
C558 C 0.72274 0.76164 0.2617 0.0
C559 C 0.71159 0.75141 0.28723 0.0
C560 C 0.7355 0.75889 0.25054 0.0
C561 C 0.73753 0.74631 0.26572 0.0
C562 C 0.72775 0.73762 0.29418 0.0
C563 C 0.71466 0.73997 0.30456 0.0
H564 H 0.71075 0.97294 0.84092 0.0
H565 H 0.72241 0.94497 0.76861 0.0
H566 H 0.73334 -0.00114 0.81757 0.0
H567 H 0.74444 0.97096 0.74412 0.0
H568 H 0.77002 0.04348 0.76527 0.0
H569 H 0.76653 0.01802 0.79172 0.0
H570 H 0.72915 0.98861 0.71645 0.0
H571 H 0.73197 0.01397 0.69107 0.0
C572 C 0.71873 0.97233 0.82135 0.0
C573 C 0.71473 0.95704 0.80624 0.0
C574 C 0.73168 0.98714 0.80799 0.0
C575 C 0.74041 0.9868 0.77882 0.0
C576 C 0.7379 0.97146 0.76672 0.0
C577 C 0.72529 0.95661 0.78082 0.0
C578 C 0.76168 0.03162 0.75327 0.0
C579 C 0.75105 0.03059 0.72646 0.0
C580 C 0.75974 0.01709 0.76846 0.0
C581 C 0.74757 0.00147 0.75615 0.0
C582 C 0.73874 0.00057 0.72616 0.0
C583 C 0.74029 0.01505 0.71168 0.0
H584 H 0.01295 0.72857 0.8358 0.0
H585 H 0.03913 0.76879 0.76374 0.0
H586 H 0.9864 0.7228 0.81088 0.0
H587 H 0.01256 0.76239 0.73757 0.0
H588 H 0.94089 0.71337 0.76052 0.0
H589 H 0.96613 0.73632 0.78528 0.0
H590 H 0.9959 0.72859 0.71049 0.0
H591 H 0.97077 0.70509 0.68666 0.0
C592 C 0.01295 0.73669 0.81581 0.0
C593 C 0.02798 0.74905 0.80159 0.0
C594 C -0.0022 0.73344 0.80156 0.0
C595 C -0.00243 0.74215 0.77227 0.0
C596 C 0.0125 0.75567 0.76035 0.0
C597 C 0.02765 0.75931 0.7754 0.0
C598 C 0.95273 0.7171 0.74815 0.0
C599 C 0.95396 0.70724 0.72213 0.0
C600 C 0.96715 0.73026 0.7624 0.0
C601 C 0.98284 0.73403 0.74989 0.0
C602 C 0.98387 0.72592 0.72037 0.0
C603 C 0.96951 0.71244 0.70678 0.0
H604 H 0.28194 0.2642 0.68181 0.0
H605 H 0.27237 0.22483 0.75334 0.0
H606 H 0.25909 0.2666 0.70671 0.0
H607 H 0.25005 0.22786 0.77937 0.0
H608 H 0.22409 0.27505 0.7606 0.0
H609 H 0.22681 0.25272 0.73385 0.0
H610 H 0.26432 0.25984 0.80812 0.0
H611 H 0.26224 0.2827 0.83383 0.0
C612 C 0.27437 0.25547 0.7016 0.0
C613 C 0.27905 0.24456 0.71603 0.0
C614 C 0.26125 0.25678 0.71583 0.0
C615 C 0.25302 0.24754 0.74523 0.0
C616 C 0.25619 0.23503 0.75664 0.0
C617 C 0.26898 0.23335 0.74168 0.0
C618 C 0.23226 0.27125 0.7724 0.0
C619 C 0.24324 0.28079 0.79882 0.0
C620 C 0.23376 0.25844 0.75703 0.0
C621 C 0.24585 0.25473 0.76876 0.0
C622 C 0.25482 0.26242 0.79875 0.0
C623 C 0.2537 0.27556 0.81343 0.0
H624 H 0.93631 0.37441 0.58985 0.0
H625 H 0.9509 0.34825 0.51891 0.0
H626 H 0.91541 0.34782 0.61462 0.0
H627 H 0.92935 0.32169 0.54238 0.0
H628 H 0.93122 0.30528 0.6641 0.0
H629 H 0.93366 0.33084 0.64054 0.0
H630 H 0.89425 0.30189 0.56864 0.0
H631 H 0.89111 0.27624 0.59345 0.0
C632 C 0.93428 0.36295 0.57803 0.0
C633 C 0.94527 0.36326 0.55277 0.0
C634 C 0.92232 0.34779 0.59225 0.0
C635 C 0.92089 0.33287 0.58034 0.0
C636 C 0.93017 0.33311 0.55164 0.0
C637 C 0.94251 0.34826 0.53825 0.0
C638 C 0.92239 0.30436 0.64477 0.0
C639 C 0.91111 0.2889 0.63037 0.0
C640 C 0.92373 0.31894 0.63135 0.0
C641 C 0.91416 0.31818 0.60276 0.0
C642 C 0.90158 0.30267 0.59093 0.0
C643 C 0.89984 0.28805 0.60517 0.0
H644 H 0.60904 0.5589 0.5983 0.0
H645 H 0.63855 0.59449 0.51997 0.0
H646 H 0.63411 0.56003 0.62105 0.0
H647 H 0.66344 0.59505 0.54194 0.0
H648 H 0.68128 0.61342 0.66859 0.0
H649 H 0.65471 0.59177 0.64573 0.0
H650 H 0.68069 0.58033 0.56812 0.0
H651 H 0.70737 0.6015 0.59209 0.0
C652 C 0.62069 0.56617 0.58462 0.0
C653 C 0.622 0.57701 0.55797 0.0
C654 C 0.63501 0.56675 0.59768 0.0
C655 C 0.65065 0.57779 0.58354 0.0
C656 C 0.65149 0.58639 0.55326 0.0
C657 C 0.63725 0.58616 0.54076 0.0
C658 C 0.68131 0.60559 0.64799 0.0
C659 C 0.69626 0.60919 0.63182 0.0
C660 C 0.66613 0.59314 0.63496 0.0
C661 C 0.66574 0.58454 0.60498 0.0
C662 C 0.68074 0.58675 0.59135 0.0
C663 C 0.69596 0.59887 0.6051 0.0
H664 H 0.37558 0.06491 0.66776 0.0
H665 H 0.39086 0.10678 0.5995 0.0
H666 H 0.39804 0.06094 0.64583 0.0
H667 H 0.41275 0.10217 0.57625 0.0
H668 H 0.43647 0.05401 0.59862 0.0
H669 H 0.43288 0.0761 0.62413 0.0
H670 H 0.39679 0.06875 0.54621 0.0
H671 H 0.39966 0.04606 0.52179 0.0
C672 C 0.38427 0.07376 0.64935 0.0
C673 C 0.38146 0.08602 0.63509 0.0
C674 C 0.39715 0.07155 0.63687 0.0
C675 C 0.40697 0.08123 0.60928 0.0
C676 C 0.40541 0.09471 0.59776 0.0
C677 C 0.39288 0.0973 0.6111 0.0
C678 C 0.42845 0.05773 0.58581 0.0
C679 C 0.41811 0.04822 0.55859 0.0
C680 C 0.42644 0.07037 0.60047 0.0
C681 C 0.41454 0.07397 0.58715 0.0
C682 C 0.40617 0.06625 0.55668 0.0
C683 C 0.40775 0.05324 0.54274 0.0
H684 H 0.40349 0.35229 0.01743 0.0
H685 H 0.443 0.37659 0.09177 0.0
H686 H 0.39764 0.32518 0.03909 0.0
H687 H 0.4365 0.34942 0.11462 0.0
H688 H 0.37866 0.30794 0.16249 0.0
H689 H 0.40279 0.33305 0.14034 0.0
H690 H 0.40985 0.30382 0.06313 0.0
H691 H 0.38624 0.27853 0.08637 0.0
C692 C 0.41145 0.35179 0.0372 0.0
C693 C 0.42354 0.36642 0.05319 0.0
C694 C 0.40817 0.33631 0.04954 0.0
C695 C 0.41658 0.33534 0.07864 0.0
C696 C 0.43 0.34994 0.09199 0.0
C697 C 0.43367 0.36544 0.07887 0.0
C698 C 0.38599 0.30676 0.14218 0.0
C699 C 0.38051 0.29142 0.12583 0.0
C700 C 0.39983 0.32109 0.12957 0.0
C701 C 0.40799 0.32026 0.09991 0.0
C702 C 0.40379 0.30467 0.08618 0.0
C703 C 0.39027 0.29024 0.09952 0.0
H704 H 0.64263 0.0463 0.01415 0.0
H705 H 0.61583 0.06073 0.08383 0.0
H706 H 0.66899 0.06849 0.03684 0.0
H707 H 0.64224 0.08233 0.10777 0.0
H708 H 0.68446 0.0684 0.16208 0.0
H709 H 0.65922 0.06599 0.13691 0.0
H710 H 0.68886 0.10264 0.0606 0.0
H711 H 0.71422 0.10576 0.08684 0.0
C712 C 0.6424 0.05478 0.033 0.0
C713 C 0.62728 0.05173 0.04752 0.0
C714 C 0.65746 0.0675 0.04596 0.0
C715 C 0.65752 0.07694 0.0742 0.0
C716 C 0.64243 0.07527 0.08581 0.0
C717 C 0.62736 0.0629 0.07205 0.0
C718 C 0.68564 0.07669 0.14131 0.0
C719 C 0.70119 0.0871 0.12615 0.0
C720 C 0.67123 0.07537 0.12694 0.0
C721 C 0.67222 0.08407 0.09673 0.0
C722 C 0.68788 0.09596 0.08406 0.0
C723 C 0.70235 0.09769 0.09914 0.0
H724 H 0.92684 0.62261 0.15557 0.0
H725 H 0.89454 0.61962 0.07263 0.0
H726 H 0.92831 0.59912 0.1313 0.0
H727 H 0.89669 0.59663 0.04768 0.0
H728 H 0.95215 0.60272 0.00989 0.0
H729 H 0.93067 0.60864 0.02992 0.0
H730 H 0.91235 0.56703 0.09977 0.0
H731 H 0.93331 0.56054 0.07835 0.0
C732 C 0.91942 0.61643 0.13313 0.0
C733 C 0.9109 0.62314 0.11561 0.0
C734 C 0.92018 0.60293 0.11931 0.0
C735 C 0.91275 0.59629 0.08746 0.0
C736 C 0.90243 0.60155 0.07233 0.0
C737 C 0.90128 0.61474 0.08667 0.0
C738 C 0.94288 0.59425 0.02793 0.0
C739 C 0.94436 0.58127 0.04274 0.0
C740 C 0.93056 0.59757 0.03936 0.0
C741 C 0.91999 0.58829 0.06648 0.0
C742 C 0.92028 0.5742 0.07862 0.0
C743 C 0.93226 0.57052 0.06632 0.0
H744 H 0.58916 0.63408 0.99035 0.0
H745 H 0.55786 0.60288 0.90817 0.0
H746 H 0.58874 0.65793 0.96512 0.0
H747 H 0.55808 0.62693 0.88232 0.0
H748 H 0.61154 0.67693 0.84142 0.0
H749 H 0.59076 0.64959 0.86286 0.0
H750 H 0.57246 0.6728 0.93299 0.0
H751 H 0.59273 0.70018 0.91023 0.0
C752 C 0.58153 0.63214 0.96789 0.0
C753 C 0.57396 0.61677 0.95074 0.0
C754 C 0.5812 0.64577 0.9535 0.0
C755 C 0.5736 0.64423 0.92151 0.0
C756 C 0.564 0.62837 0.907 0.0
C757 C 0.56396 0.61463 0.92186 0.0
C758 C 0.60239 0.6761 0.85984 0.0
C759 C 0.60375 0.69056 0.87437 0.0
C760 C 0.59046 0.66048 0.87209 0.0
C761 C 0.58014 0.65919 0.89974 0.0
C762 C 0.58021 0.67353 0.9115 0.0
C763 C 0.5918 0.68915 0.89842 0.0
H764 H 0.37974 0.94068 0.92162 0.0
H765 H 0.34936 0.94781 0.99606 0.0
H766 H 0.35461 0.91878 0.89412 0.0
H767 H 0.32433 0.92531 0.96963 0.0
H768 H 0.30937 0.92977 0.84586 0.0
H769 H 0.33531 0.9333 0.86961 0.0
H770 H 0.30732 0.89252 0.93941 0.0
H771 H 0.28133 0.88837 0.91443 0.0
C772 C 0.36777 0.93683 0.93347 0.0
C773 C 0.36639 0.94606 0.96063 0.0
C774 C 0.35342 0.92429 0.91766 0.0
C775 C 0.33765 0.9205 0.92972 0.0
C776 C 0.33641 0.92795 0.9601 0.0
C777 C 0.3507 0.94085 0.9752 0.0
C778 C 0.30878 0.92089 0.86468 0.0
C779 C 0.29343 0.90896 0.8786 0.0
C780 C 0.3236 0.92286 0.87825 0.0
C781 C 0.32319 0.91325 0.90651 0.0
C782 C 0.30788 0.89996 0.91747 0.0
C783 C 0.29304 0.89762 0.9031 0.0
H784 H 0.10237 0.38745 0.9242 0.0
H785 H 0.06079 0.37355 0.85584 0.0
H786 H 0.09782 0.40903 0.94938 0.0
H787 H 0.0569 0.39575 0.87974 0.0
H788 H 0.04035 0.39675 1.0008 0.0
H789 H 0.06207 0.3921 0.97683 0.0
H790 H 0.07509 0.43194 0.90445 0.0
H791 H 0.05402 0.43726 0.92964 0.0
C792 C 0.09297 0.38972 0.91306 0.0
C793 C 0.08179 0.3788 0.88832 0.0
C794 C 0.0904 0.40206 0.92752 0.0
C795 C 0.07707 0.40395 0.91637 0.0
C796 C 0.0674 0.39458 0.88837 0.0
C797 C 0.06958 0.38188 0.87474 0.0
C798 C 0.04858 0.40519 0.98131 0.0
C799 C 0.04551 0.41726 0.9669 0.0
C800 C 0.061 0.40257 0.96761 0.0
C801 C 0.07008 0.41165 0.93879 0.0
C802 C 0.06833 0.42496 0.92692 0.0
C803 C 0.05629 0.42798 0.94141 0.0
H804 H 0.05878 0.68865 0.36463 0.0
H805 H 0.09797 0.71359 0.43941 0.0
H806 H 0.05382 0.66168 0.3857 0.0
H807 H 0.09233 0.68652 0.46165 0.0
H808 H 0.05189 0.61585 0.43042 0.0
H809 H 0.07305 0.64358 0.41076 0.0
H810 H 0.05427 0.66593 0.48181 0.0
H811 H 0.03254 0.63825 0.50018 0.0
C812 C 0.0668 0.68834 0.3845 0.0
C813 C 0.07868 0.70306 0.40051 0.0
C814 C 0.06402 0.67298 0.39647 0.0
C815 C 0.07275 0.67222 0.42517 0.0
C816 C 0.08568 0.68694 0.43918 0.0
C817 C 0.08886 0.70234 0.42643 0.0
C818 C 0.05285 0.6267 0.44309 0.0
C819 C 0.04058 0.62505 0.46657 0.0
C820 C 0.06494 0.6425 0.43181 0.0
C821 C 0.06517 0.65669 0.44493 0.0
C822 C 0.05436 0.65506 0.47176 0.0
C823 C 0.04194 0.63929 0.48221 0.0
H824 H 0.28037 0.38909 0.42411 0.0
H825 H 0.30935 0.37809 0.35311 0.0
H826 H 0.306 0.41231 0.4472 0.0
H827 H 0.33486 0.40188 0.37495 0.0
H828 H 0.35283 0.40369 0.49789 0.0
H829 H 0.32614 0.3983 0.47443 0.0
H830 H 0.35192 0.43679 0.39878 0.0
H831 H 0.37865 0.44286 0.42345 0.0
C832 C 0.29212 0.39231 0.41189 0.0
C833 C 0.293 0.38171 0.38719 0.0
C834 C 0.30674 0.4056 0.42516 0.0
C835 C 0.32226 0.40874 0.41286 0.0
C836 C 0.32295 0.39974 0.38455 0.0
C837 C 0.3084 0.38611 0.3721 0.0
C838 C 0.35275 0.41169 0.4777 0.0
C839 C 0.36769 0.42356 0.46227 0.0
C840 C 0.33752 0.40867 0.46432 0.0
C841 C 0.33712 0.41712 0.43476 0.0
C842 C 0.35201 0.43029 0.4218 0.0
C843 C 0.36726 0.43372 0.43596 0.0
H844 H 0.61601 0.92992 0.35358 0.0
H845 H 0.60351 0.88897 0.42288 0.0
H846 H 0.59295 0.93263 0.37646 0.0
H847 H 0.58106 0.89237 0.44706 0.0
H848 H 0.55347 0.93726 0.42653 0.0
H849 H 0.55797 0.9157 0.40126 0.0
H850 H 0.59677 0.9267 0.47513 0.0
H851 H 0.59299 0.94891 0.49915 0.0
C852 C 0.60779 0.92096 0.37239 0.0
C853 C 0.61159 0.90939 0.38674 0.0
C854 C 0.59458 0.92246 0.38544 0.0
C855 C 0.58541 0.91275 0.41362 0.0
C856 C 0.58789 0.89983 0.42512 0.0
C857 C 0.60075 0.89794 0.41123 0.0
C858 C 0.56232 0.93445 0.4386 0.0
C859 C 0.57308 0.94484 0.46446 0.0
C860 C 0.56485 0.92211 0.42408 0.0
C861 C 0.57771 0.91968 0.43627 0.0
C862 C 0.58665 0.92829 0.4656 0.0
C863 C 0.58454 0.94102 0.47932 0.0
H864 H 0.30409 0.05191 0.51401 0.0
H865 H 0.35187 0.09737 0.51101 0.0
H866 H 0.30438 0.05047 0.45104 0.0
H867 H 0.3523 0.09559 0.44879 0.0
H868 H 0.35212 0.07442 0.33877 0.0
H869 H 0.35185 0.07307 0.40181 0.0
H870 H 0.30515 0.07289 0.40361 0.0
H871 H 0.3056 0.07475 0.34136 0.0
C872 C 0.31463 0.0615 0.49999 0.0
C873 C 0.32782 0.07486 0.51741 0.0
C874 C 0.31483 0.06066 0.46411 0.0
C875 C 0.32845 0.07286 0.44528 0.0
C876 C 0.34176 0.08595 0.46276 0.0
C877 C 0.34138 0.08704 0.49835 0.0
C878 C 0.34185 0.07413 0.35271 0.0
C879 C 0.32902 0.07493 0.33516 0.0
C880 C 0.34167 0.07331 0.38863 0.0
C881 C 0.32839 0.07274 0.40736 0.0
C882 C 0.31542 0.07314 0.38973 0.0
C883 C 0.31582 0.0744 0.35412 0.0
H884 H 0.8973 0.2273 0.51207 0.0
H885 H 0.94944 0.26524 0.51025 0.0
H886 H 0.89539 0.23048 0.45119 0.0
H887 H 0.94771 0.26789 0.44813 0.0
H888 H 0.9339 0.28057 0.34304 0.0
H889 H 0.93625 0.27818 0.40508 0.0
H890 H 0.90286 0.22496 0.39822 0.0
H891 H 0.89991 0.22743 0.33747 0.0
C892 C 0.90852 0.23609 0.49855 0.0
C893 C 0.92355 0.246 0.51627 0.0
C894 C 0.90742 0.23789 0.46336 0.0
C895 C 0.92137 0.24948 0.44447 0.0
C896 C 0.93662 0.25903 0.46189 0.0
C897 C 0.93769 0.25731 0.49743 0.0
C898 C 0.9268 0.26844 0.355 0.0
C899 C 0.91664 0.25423 0.33515 0.0
C900 C 0.92835 0.26702 0.39049 0.0
C901 C 0.91981 0.25135 0.40683 0.0
C902 C 0.90944 0.23728 0.3869 0.0
C903 C 0.90778 0.23871 0.35177 0.0
H904 H 0.72581 0.67433 0.51651 0.0
H905 H 0.76359 0.65994 0.52086 0.0
H906 H 0.72535 0.67206 0.45396 0.0
H907 H 0.76256 0.65694 0.45936 0.0
H908 H 0.76927 0.6681 0.34672 0.0
H909 H 0.7698 0.67151 0.40806 0.0
H910 H 0.71645 0.65168 0.40843 0.0
H911 H 0.71604 0.64898 0.34598 0.0
C912 C 0.73417 0.67092 0.50419 0.0
C913 C 0.74478 0.66739 0.52383 0.0
C914 C 0.73371 0.66934 0.46835 0.0
C915 C 0.74382 0.66417 0.45144 0.0
C916 C 0.75474 0.66116 0.47119 0.0
C917 C 0.7553 0.66285 0.50671 0.0
C918 C 0.75755 0.66426 0.35972 0.0
C919 C 0.74259 0.65822 0.3412 0.0
C920 C 0.75786 0.6662 0.39516 0.0
C921 C 0.74318 0.66193 0.41346 0.0
C922 C 0.72806 0.65538 0.39516 0.0
C923 C 0.72777 0.65357 0.3594 0.0
H924 H 0.10059 0.33388 0.18008 0.0
H925 H 0.06008 0.34442 0.17745 0.0
H926 H 0.09834 0.32939 0.11898 0.0
H927 H 0.05835 0.34071 0.11518 0.0
H928 H 0.0479 0.31508 0.00964 0.0
H929 H 0.04965 0.31945 0.07174 0.0
H930 H 0.10332 0.34226 0.06617 0.0
H931 H 0.10152 0.33718 1.00533 0.0
C932 C 0.09144 0.33567 0.16633 0.0
C933 C 0.08052 0.33952 0.18389 0.0
C934 C 0.09016 0.33311 0.13102 0.0
C935 C 0.07809 0.33458 0.11187 0.0
C936 C 0.06759 0.33915 0.12913 0.0
C937 C 0.06878 0.34158 0.16477 0.0
C938 C 0.06001 0.32068 0.02189 0.0
C939 C 0.07454 0.32566 1.00237 0.0
C940 C 0.06106 0.32345 0.05743 0.0
C941 C 0.07665 0.33132 0.07416 0.0
C942 C 0.09106 0.33594 0.05456 0.0
C943 C 0.09001 0.33303 0.01938 0.0
H944 H 0.63331 0.715 0.17349 0.0
H945 H 0.67594 0.76478 0.16689 0.0
H946 H 0.63303 0.71297 0.11058 0.0
H947 H 0.67588 0.76244 0.10483 0.0
H948 H 0.67998 0.74157 0.99755 0.0
H949 H 0.67986 0.74146 0.06061 0.0
H950 H 0.62925 0.73201 0.06047 0.0
H951 H 0.62946 0.73261 0.99802 0.0
C952 C 0.64255 0.72547 0.15873 0.0
C953 C 0.65451 0.7401 0.17521 0.0
C954 C 0.64244 0.72428 0.12286 0.0
C955 C 0.65458 0.7375 0.10308 0.0
C956 C 0.66653 0.75202 0.11955 0.0
C957 C 0.6664 0.75338 0.1551 0.0
C958 C 0.66888 0.73949 0.01105 0.0
C959 C 0.65484 0.73733 0.99287 0.0
C960 C 0.66878 0.73938 0.04699 0.0
C961 C 0.65448 0.73661 0.0652 0.0
C962 C 0.64035 0.73402 0.04701 0.0
C963 C 0.64058 0.73455 0.01128 0.0
H964 H 0.2336 0.91969 0.17308 0.0
H965 H 0.28304 0.9258 0.17524 0.0
H966 H 0.23533 0.92304 0.11114 0.0
H967 H 0.28447 0.9286 0.11233 0.0
H968 H 0.26011 0.90349 1.00195 0.0
H969 H 0.26334 0.90522 0.06404 0.0
H970 H 0.25619 0.94783 0.06525 0.0
H971 H 0.2535 0.94649 1.00234 0.0
C972 C 0.24482 0.92163 0.16027 0.0
C973 C 0.25812 0.92225 0.17901 0.0
C974 C 0.24586 0.92376 0.12485 0.0
C975 C 0.26006 0.92622 0.10714 0.0
C976 C 0.27342 0.92682 0.12562 0.0
C977 C 0.27258 0.92514 0.16144 0.0
C978 C 0.25931 0.91331 0.01537 0.0
C979 C 0.25632 0.92474 0.99739 0.0
C980 C 0.26137 0.91439 0.05084 0.0
C981 C 0.26011 0.92669 0.06925 0.0
C982 C 0.2573 0.93828 0.05142 0.0
C983 C 0.2557 0.93749 0.01561 0.0
H984 H 0.68429 0.92147 0.68176 0.0
H985 H 0.63807 0.92239 0.68308 0.0
H986 H 0.68588 0.92491 0.61975 0.0
H987 H 0.63946 0.92528 0.6202 0.0
H988 H 0.64128 0.90151 0.51033 0.0
H989 H 0.63982 0.9028 0.57248 0.0
H990 H 0.68713 0.94864 0.57328 0.0
H991 H 0.6884 0.94772 0.51028 0.0
C992 C 0.6744 0.92232 0.66874 0.0
C993 C 0.66092 0.92144 0.68723 0.0
C994 C 0.67546 0.9245 0.6333 0.0
C995 C 0.66287 0.92547 0.61538 0.0
C996 C 0.64936 0.92465 0.63366 0.0
C997 C 0.64853 0.92293 0.66945 0.0
C998 C 0.6514 0.91192 0.52365 0.0
C999 C 0.66509 0.92443 0.50547 0.0
C1000 C 0.65042 0.91273 0.55918 0.0
C1001 C 0.66328 0.92585 0.57749 0.0
C1002 C 0.67701 0.93844 0.55953 0.0
C1003 C 0.67778 0.93788 0.52366 0.0
H1004 H 0.09885 0.771 0.51347 0.0
H1005 H 0.04633 0.73426 0.51547 0.0
H1006 H 0.10038 0.76853 0.5749 0.0
H1007 H 0.04773 0.73222 0.57777 0.0
H1008 H 0.06053 0.71902 0.6828 0.0
H1009 H 0.05903 0.72142 0.6206 0.0
H1010 H 0.09255 0.7746 0.62782 0.0
H1011 H 0.09452 0.77213 0.68911 0.0
C1012 C 0.0875 0.76265 0.52712 0.0
C1013 C 0.07246 0.75282 0.50938 0.0
C1014 C 0.08838 0.76124 0.56254 0.0
C1015 C 0.07422 0.75006 0.58143 0.0
C1016 C 0.05897 0.74072 0.56396 0.0
C1017 C 0.05809 0.7421 0.5283 0.0
C1018 C 0.06785 0.73114 0.67094 0.0
C1019 C 0.07768 0.74536 0.69104 0.0
C1020 C 0.06678 0.73258 0.63535 0.0
C1021 C 0.07553 0.74824 0.61912 0.0
C1022 C 0.08575 0.76231 0.63921 0.0
C1023 C 0.08687 0.76088 0.67454 0.0
H1024 H 0.26972 0.31672 0.51231 0.0
H1025 H 0.23902 0.33976 0.5106 0.0
H1026 H 0.27258 0.32057 0.57461 0.0
H1027 H 0.24263 0.34442 0.57137 0.0
H1028 H 0.23592 0.33461 0.68397 0.0
H1029 H 0.23408 0.33071 0.62285 0.0
H1030 H 0.28498 0.34071 0.62011 0.0
H1031 H 0.2865 0.34372 0.68261 0.0
C1032 C 0.2635 0.32247 0.52514 0.0
C1033 C 0.25397 0.32772 0.50633 0.0
C1034 C 0.26534 0.32492 0.56079 0.0
C1035 C 0.25782 0.3328 0.57827 0.0
C1036 C 0.24831 0.33797 0.55924 0.0
C1037 C 0.24627 0.33531 0.52405 0.0
C1038 C 0.24686 0.33621 0.67052 0.0
C1039 C 0.26139 0.33952 0.68844 0.0
C1040 C 0.24582 0.33401 0.63514 0.0
C1041 C 0.25938 0.3354 0.6162 0.0
C1042 C 0.27418 0.33929 0.63386 0.0
C1043 C 0.27516 0.3413 0.66964 0.0
H1044 H 0.95318 0.6712 0.01336 0.0
H1045 H 0.92016 0.69097 0.99783 0.0
H1046 H 0.94941 0.66218 0.95372 0.0
H1047 H 0.91686 0.68253 0.93802 0.0
H1048 H 0.89562 0.64753 0.85008 0.0
H1049 H 0.902 0.65641 0.90945 0.0
H1050 H 0.95309 0.6686 0.89361 0.0
H1051 H 0.9465 0.65913 0.83431 0.0
C1052 C 0.94561 0.67419 0.99691 0.0
C1053 C 0.93687 0.68171 0.01045 0.0
C1054 C 0.94335 0.6689 0.96269 0.0
C1055 C 0.93242 0.67115 0.94123 0.0
C1056 C 0.92489 0.68002 0.95409 0.0
C1057 C 0.927 0.68513 0.98828 0.0
C1058 C 0.90811 0.6517 0.85949 0.0
C1059 C 0.92054 0.65264 0.83742 0.0
C1060 C 0.91187 0.65708 0.89342 0.0
C1061 C 0.92821 0.66375 0.90614 0.0
C1062 C 0.94039 0.66361 0.88473 0.0
C1063 C 0.93658 0.65805 0.85075 0.0
H1064 H 0.32964 0.23401 1.00726 0.0
H1065 H 0.31655 0.27276 1.0078 0.0
H1066 H 0.33404 0.23713 0.94639 0.0
H1067 H 0.32 0.27521 0.94541 0.0
H1068 H 0.34373 0.28638 0.83737 0.0
H1069 H 0.34004 0.28468 0.89974 0.0
H1070 H 0.32064 0.23146 0.89487 0.0
H1071 H 0.32524 0.23331 0.83405 0.0
C1072 C 0.32726 0.24296 0.99428 0.0
C1073 C 0.32265 0.25309 0.01269 0.0
C1074 C 0.32975 0.24472 0.959 0.0
C1075 C 0.32733 0.25639 0.94057 0.0
C1076 C 0.32223 0.26625 0.95873 0.0
C1077 C 0.31997 0.26466 0.99444 0.0
C1078 C 0.33904 0.27442 0.84987 0.0
C1079 C 0.33498 0.26004 0.83056 0.0
C1080 C 0.33666 0.27338 0.88557 0.0
C1081 C 0.33003 0.25792 0.90264 0.0
C1082 C 0.32613 0.24367 0.88312 0.0
C1083 C 0.32875 0.24474 0.84787 0.0
H1084 H 0.71001 0.0554 0.84044 0.0
H1085 H 0.76241 0.09257 0.83823 0.0
H1086 H 0.71138 0.05403 0.90297 0.0
H1087 H 0.76402 0.09047 0.89934 0.0
H1088 H 0.76007 0.09641 0.01148 0.0
H1089 H 0.75717 0.09745 0.95047 0.0
H1090 H 0.72166 0.04456 0.94906 0.0
H1091 H 0.72381 0.04373 0.01153 0.0
C1092 C 0.72174 0.06339 0.85322 0.0
C1093 C 0.73605 0.07417 0.83417 0.0
C1094 C 0.72261 0.06241 0.88903 0.0
C1095 C 0.73783 0.07209 0.90647 0.0
C1096 C 0.75197 0.08304 0.88724 0.0
C1097 C 0.75105 0.08421 0.85185 0.0
C1098 C 0.75174 0.08487 0.99837 0.0
C1099 C 0.74222 0.06994 0.01666 0.0
C1100 C 0.75011 0.08548 0.96303 0.0
C1101 C 0.73921 0.07109 0.94446 0.0
C1102 C 0.73 0.05596 0.9625 0.0
C1103 C 0.73143 0.05541 0.99827 0.0
H1104 H 0.02127 0.40704 0.6749 0.0
H1105 H 0.9737 0.40521 0.67265 0.0
H1106 H 0.01965 0.40523 0.7379 0.0
H1107 H 0.97194 0.4029 0.73479 0.0
H1108 H 0.96934 0.38198 0.84585 0.0
H1109 H 0.97101 0.38084 0.783 0.0
H1110 H 0.01817 0.42684 0.78414 0.0
H1111 H 0.01636 0.42832 0.84611 0.0
C1112 C 0.0105 0.40619 0.68776 0.0
C1113 C -0.00224 0.40653 0.66885 0.0
C1114 C 0.00954 0.40509 0.72366 0.0
C1115 C 0.99558 0.40378 0.74101 0.0
C1116 C 0.98272 0.40372 0.72202 0.0
C1117 C 0.98387 0.40525 0.68645 0.0
C1118 C 0.98 0.39184 0.83259 0.0
C1119 C 0.99256 0.40535 0.85088 0.0
C1120 C 0.981 0.39116 0.79678 0.0
C1121 C 0.99482 0.4037 0.77893 0.0
C1122 C 0.0075 0.41694 0.79732 0.0
C1123 C 0.00631 0.41785 0.83278 0.0
H1124 H 0.59034 0.5646 0.83169 0.0
H1125 H 0.62197 0.61745 0.8493 0.0
H1126 H 0.58748 0.57007 0.77186 0.0
H1127 H 0.61883 0.62295 0.78933 0.0
H1128 H 0.61751 0.62228 0.66849 0.0
H1129 H 0.62367 0.61974 0.72838 0.0
H1130 H 0.57222 0.58184 0.74404 0.0
H1131 H 0.56615 0.58414 0.68434 0.0
C1132 C 0.59698 0.57738 0.82265 0.0
C1133 C 0.60628 0.59057 0.84544 0.0
C1134 C 0.59515 0.58054 0.78841 0.0
C1135 C 0.60249 0.59699 0.77603 0.0
C1136 C 0.61291 0.61014 0.79806 0.0
C1137 C 0.6148 0.60696 0.83243 0.0
C1138 C 0.60741 0.61374 0.68497 0.0
C1139 C 0.59135 0.60331 0.6715 0.0
C1140 C 0.61098 0.6122 0.71927 0.0
C1141 C 0.59856 0.60023 0.74076 0.0
C1142 C 0.58223 0.59079 0.72791 0.0
C1143 C 0.57868 0.59228 0.69376 0.0
H1144 H 0.38902 0.01088 0.84546 0.0
H1145 H 0.42637 0.99588 0.84778 0.0
H1146 H 0.38704 0.00726 0.78313 0.0
H1147 H 0.42367 0.9913 0.78693 0.0
H1148 H 0.42848 -0.00042 0.67417 0.0
H1149 H 0.43009 0.00425 0.73496 0.0
H1150 H 0.37722 0.98709 0.73806 0.0
H1151 H 0.37583 0.98338 0.67575 0.0
C1152 C 0.39693 0.007 0.83273 0.0
C1153 C 0.40795 0.00382 0.85177 0.0
C1154 C 0.3956 0.00465 0.79704 0.0
C1155 C 0.40515 -0.00108 0.7797 0.0
C1156 C 0.41633 0.99605 0.7989 0.0
C1157 C 0.41785 -0.00135 0.83416 0.0
C1158 C 0.41707 0.99657 0.68762 0.0
C1159 C 0.40199 0.99102 0.66981 0.0
C1160 C 0.418 -0.00078 0.72285 0.0
C1161 C 0.40379 0.99603 0.74184 0.0
C1162 C 0.38851 0.98995 0.7243 0.0
C1163 C 0.38763 0.98755 0.68863 0.0
H1164 H 0.58872 0.02239 0.17294 0.0
H1165 H 0.58678 0.97479 0.17048 0.0
H1166 H 0.59113 0.02304 0.23516 0.0
H1167 H 0.58867 0.97527 0.23345 0.0
H1168 H 0.56477 0.97664 0.34243 0.0
H1169 H 0.56656 0.97612 0.28026 0.0
H1170 H 0.61328 0.02256 0.28267 0.0
H1171 H 0.61183 0.02289 0.34568 0.0
C1172 C 0.58872 0.012 0.18573 0.0
C1173 C 0.58735 -0.00159 0.16686 0.0
C1174 C 0.5903 0.01251 0.2213 0.0
C1175 C 0.59019 -0.00072 0.23893 0.0
C1176 C 0.58886 0.98566 0.22025 0.0
C1177 C 0.58772 0.98535 0.18438 0.0
C1178 C 0.57547 0.98678 0.32983 0.0
C1179 C 0.58809 -6e-05 0.34894 0.0
C1180 C 0.57655 0.98634 0.29426 0.0
C1181 C 0.59009 -0.00079 0.27684 0.0
C1182 C 0.60275 0.01244 0.29571 0.0
C1183 C 0.6019 0.01267 0.3316 0.0
H1184 H 0.96651 0.57984 0.34044 0.0
H1185 H 0.01403 0.5815 0.34029 0.0
H1186 H 0.96784 0.58229 0.27761 0.0
H1187 H 0.01546 0.58436 0.27824 0.0
H1188 H 0.01829 0.60739 0.16961 0.0
H1189 H 0.01692 0.60683 0.23259 0.0
H1190 H 0.96858 0.56227 0.22859 0.0
H1191 H 0.97003 0.5625 0.16634 0.0
C1192 C 0.97719 0.58073 0.32709 0.0
C1193 C 0.99004 0.58027 0.34534 0.0
C1194 C 0.97798 0.58218 0.29126 0.0
C1195 C 0.99185 0.58366 0.27324 0.0
C1196 C 0.00475 0.58343 0.29153 0.0
C1197 C 0.00379 0.58159 0.32707 0.0
C1198 C 0.00743 0.59748 0.18224 0.0
C1199 C 0.99439 0.5849 0.16299 0.0
C1200 C 0.00663 0.59717 0.21817 0.0
C1201 C 0.99257 0.58456 0.23531 0.0
C1202 C 0.97946 0.57221 0.21602 0.0
C1203 C 0.98042 0.57228 0.18036 0.0
H1204 H 0.38984 0.4114 0.16985 0.0
H1205 H 0.4363 0.41103 0.17542 0.0
H1206 H 0.38827 0.41056 0.23287 0.0
H1207 H 0.43437 0.40964 0.23769 0.0
H1208 H 0.41202 0.38875 0.34795 0.0
H1209 H 0.41117 0.38717 0.28492 0.0
H1210 H 0.41096 0.4336 0.27995 0.0
H1211 H 0.41237 0.43554 0.34221 0.0
C1212 C 0.39963 0.41108 0.18444 0.0
C1213 C 0.41329 0.41152 0.1677 0.0
C1214 C 0.39871 0.41053 0.22035 0.0
C1215 C 0.41114 0.40988 0.23992 0.0
C1216 C 0.42456 0.40997 0.22315 0.0
C1217 C 0.42572 0.41096 0.18751 0.0
C1218 C 0.41187 0.39862 0.33332 0.0
C1219 C 0.41251 0.41237 0.35002 0.0
C1220 C 0.41131 0.39768 0.29741 0.0
C1221 C 0.41085 0.41021 0.27781 0.0
C1222 C 0.41114 0.42372 0.29453 0.0
C1223 C 0.41215 0.42489 0.33016 0.0
H1224 H 0.31689 0.20146 0.19379 0.0
H1225 H 0.34024 0.19766 0.10103 0.0
H1226 H 0.3143 0.17532 0.21417 0.0
H1227 H 0.33707 0.17134 0.12058 0.0
H1228 H 0.34455 0.13335 0.17928 0.0
H1229 H 0.34777 0.16 0.16096 0.0
H1230 H 0.29952 0.14613 0.20421 0.0
H1231 H 0.29666 0.11989 0.22362 0.0
C1232 C 0.3213 0.19495 0.17764 0.0
C1233 C 0.3288 0.20161 0.14591 0.0
C1234 C 0.31977 0.17994 0.18921 0.0
C1235 C 0.32555 0.17123 0.16907 0.0
C1236 C 0.33282 0.17786 0.13711 0.0
C1237 C 0.33451 0.1929 0.12577 0.0
C1238 C 0.33467 0.13604 0.18486 0.0
C1239 C 0.32038 0.12456 0.20288 0.0
C1240 C 0.33645 0.15127 0.17424 0.0
C1241 C 0.32388 0.15523 0.18107 0.0
C1242 C 0.30958 0.14366 0.19903 0.0
C1243 C 0.30789 0.12854 0.20994 0.0
H1244 H 0.79421 0.14407 0.10293 0.0
H1245 H 0.79343 0.11781 0.19502 0.0
H1246 H 0.82066 0.16779 0.12012 0.0
H1247 H 0.81972 0.1419 0.21305 0.0
H1248 H 0.87493 0.18047 0.21742 0.0
H1249 H 0.84861 0.15668 0.19969 0.0
H1250 H 0.83274 0.19011 0.15985 0.0
H1251 H 0.85946 0.21398 0.1765 0.0
C1252 C 0.79964 0.14342 0.12705 0.0
C1253 C 0.79175 0.12907 0.14765 0.0
C1254 C 0.81478 0.15709 0.13703 0.0
C1255 C 0.82232 0.15683 0.16805 0.0
C1256 C 0.81438 0.14245 0.18874 0.0
C1257 C 0.79929 0.12867 0.17854 0.0
C1258 C 0.86584 0.18275 0.20478 0.0
C1259 C 0.86926 0.1991 0.1983 0.0
C1260 C 0.85068 0.16909 0.19486 0.0
C1261 C 0.83848 0.17144 0.17851 0.0
C1262 C 0.84194 0.18783 0.17196 0.0
C1263 C 0.85721 0.20152 0.18159 0.0
H1264 H 0.81981 0.69632 0.23129 0.0
H1265 H 0.78862 0.65141 0.17376 0.0
H1266 H 0.84459 0.69701 0.20863 0.0
H1267 H 0.8135 0.65174 0.15192 0.0
H1268 H 0.86069 0.66657 0.09155 0.0
H1269 H 0.83627 0.66685 0.11363 0.0
H1270 H 0.86039 0.68316 0.21217 0.0
H1271 H 0.88512 0.68343 0.18955 0.0
C1272 C 0.81824 0.68649 0.21398 0.0
C1273 C 0.80225 0.6738 0.20426 0.0
C1274 C 0.83248 0.68684 0.20115 0.0
C1275 C 0.83107 0.67443 0.17849 0.0
C1276 C 0.81505 0.66166 0.16891 0.0
C1277 C 0.80078 0.66139 0.18155 0.0
C1278 C 0.86083 0.67033 0.11788 0.0
C1279 C 0.87481 0.67498 0.13886 0.0
C1280 C 0.84676 0.67035 0.13063 0.0
C1281 C 0.84627 0.67487 0.16477 0.0
C1282 C 0.8604 0.67978 0.18562 0.0
C1283 C 0.87456 0.67991 0.17273 0.0
H1284 H 0.12855 0.31399 0.27509 0.0
H1285 H 0.12634 0.33858 0.36733 0.0
H1286 H 0.15448 0.31612 0.29432 0.0
H1287 H 0.15203 0.34008 0.38748 0.0
H1288 H 0.20731 0.35698 0.39467 0.0
H1289 H 0.18098 0.35424 0.37654 0.0
H1290 H 0.16625 0.30569 0.33395 0.0
H1291 H 0.19307 0.30883 0.35091 0.0
C1292 C 0.13353 0.31971 0.29972 0.0
C1293 C 0.12544 0.32617 0.3197 0.0
C1294 C 0.14836 0.32081 0.31088 0.0
C1295 C 0.15537 0.32822 0.34252 0.0
C1296 C 0.14714 0.33453 0.36271 0.0
C1297 C 0.13238 0.33361 0.3513 0.0
C1298 C 0.19845 0.3457 0.38143 0.0
C1299 C 0.20226 0.33312 0.37412 0.0
C1300 C 0.18326 0.34408 0.37127 0.0
C1301 C 0.17141 0.32972 0.3539 0.0
C1302 C 0.17518 0.31704 0.34683 0.0
C1303 C 0.19051 0.31878 0.35665 0.0
H1304 H 0.63577 0.84734 0.39245 0.0
H1305 H 0.68448 0.88236 0.35239 0.0
H1306 H 0.63883 0.82427 0.37192 0.0
H1307 H 0.68794 0.85919 0.33309 0.0
H1308 H 0.68063 0.81495 0.2692 0.0
H1309 H 0.6781 0.83814 0.29101 0.0
H1310 H 0.6528 0.80922 0.38097 0.0
H1311 H 0.6547 0.78568 0.35817 0.0
C1312 C 0.64724 0.8501 0.37957 0.0
C1313 C 0.65988 0.86666 0.37393 0.0
C1314 C 0.64905 0.83685 0.36801 0.0
C1315 C 0.66365 0.83982 0.3509 0.0
C1316 C 0.67641 0.85643 0.34567 0.0
C1317 C 0.67449 0.86972 0.35686 0.0
C1318 C 0.67452 0.81353 0.29365 0.0
C1319 C 0.66781 0.79848 0.31197 0.0
C1320 C 0.67319 0.82691 0.30631 0.0
C1321 C 0.66531 0.82563 0.33784 0.0
C1322 C 0.65872 0.81057 0.35632 0.0
C1323 C 0.65986 0.79709 0.34338 0.0
H1324 H 0.11433 0.80258 0.3433 0.0
H1325 H 0.14724 0.78709 0.38736 0.0
H1326 H 0.13844 0.82798 0.32206 0.0
H1327 H 0.17128 0.81204 0.36498 0.0
H1328 H 0.21072 0.86716 0.35485 0.0
H1329 H 0.18686 0.84113 0.37453 0.0
H1330 H 0.16032 0.8385 0.28144 0.0
H1331 H 0.18384 0.8648 0.26263 0.0
C1332 C 0.12671 0.80451 0.34801 0.0
C1333 C 0.12892 0.79292 0.36711 0.0
C1334 C 0.14054 0.81902 0.33573 0.0
C1335 C 0.15685 0.82211 0.34191 0.0
C1336 C 0.15896 0.81026 0.36034 0.0
C1337 C 0.14516 0.79589 0.37297 0.0
C1338 C 0.19981 0.86094 0.33859 0.0
C1339 C 0.19909 0.86804 0.30735 0.0
C1340 C 0.18614 0.84598 0.34975 0.0
C1341 C 0.17159 0.83773 0.32964 0.0
C1342 C 0.17114 0.84467 0.29794 0.0
C1343 C 0.18469 0.8597 0.28703 0.0
H1344 H 0.67738 0.86331 0.77015 0.0
H1345 H 0.64708 0.86217 0.85543 0.0
H1346 H 0.67155 0.83534 0.78427 0.0
H1347 H 0.64175 0.83435 0.87056 0.0
H1348 H 0.62224 0.77869 0.86947 0.0
H1349 H 0.62725 0.80612 0.85281 0.0
H1350 H 0.67789 0.82041 0.82484 0.0
H1351 H 0.6726 0.79266 0.84025 0.0
C1352 C 0.66955 0.85711 0.79212 0.0
C1353 C 0.66269 0.86494 0.81172 0.0
C1354 C 0.6663 0.84109 0.80036 0.0
C1355 C 0.65624 0.83256 0.82866 0.0
C1356 C 0.64935 0.84042 0.84827 0.0
C1357 C 0.65247 0.85641 0.83976 0.0
C1358 C 0.63442 0.78766 0.85954 0.0
C1359 C 0.64703 0.78352 0.85613 0.0
C1360 C 0.63734 0.80346 0.85026 0.0
C1361 C 0.65301 0.81557 0.83769 0.0
C1362 C 0.66559 0.81134 0.83397 0.0
C1363 C 0.66259 0.79545 0.8429 0.0
H1364 H 0.12964 0.78238 0.84975 0.0
H1365 H 0.11431 0.81753 0.81907 0.0
H1366 H 0.15706 0.80544 0.86527 0.0
H1367 H 0.14137 0.84056 0.83595 0.0
H1368 H 0.19711 0.87781 0.8311 0.0
H1369 H 0.16936 0.85476 0.81755 0.0
H1370 H 0.17211 0.82722 0.9044 0.0
H1371 H 0.20005 0.8499 0.91683 0.0
C1372 C 0.13204 0.79504 0.84695 0.0
C1373 C 0.11988 0.79816 0.83307 0.0
C1374 C 0.14774 0.80828 0.85593 0.0
C1375 C 0.15152 0.82493 0.85165 0.0
C1376 C 0.13908 0.82796 0.83885 0.0
C1377 C 0.1235 0.81474 0.82946 0.0
C1378 C 0.19175 0.86682 0.84723 0.0
C1379 C 0.20078 0.86563 0.87489 0.0
C1380 C 0.17579 0.85363 0.83965 0.0
C1381 C 0.16843 0.83906 0.85988 0.0
C1382 C 0.17745 0.83806 0.88785 0.0
C1383 C 0.19346 0.85113 0.89511 0.0
H1384 H 0.11623 0.31178 0.84306 0.0
H1385 H 0.14903 0.36062 0.88526 0.0
H1386 H 0.14041 0.30934 0.82696 0.0
H1387 H 0.17315 0.35852 0.86809 0.0
H1388 H 0.21237 0.34255 0.86526 0.0
H1389 H 0.18802 0.34458 0.88206 0.0
H1390 H 0.16315 0.31985 0.78823 0.0
H1391 H 0.18712 0.31727 0.77226 0.0
C1392 C 0.1286 0.32206 0.84851 0.0
C1393 C 0.13073 0.33636 0.86547 0.0
C1394 C 0.14248 0.32072 0.8392 0.0
C1395 C 0.15877 0.33372 0.84634 0.0
C1396 C 0.16082 0.34812 0.86281 0.0
C1397 C 0.14697 0.34938 0.87241 0.0
C1398 C 0.20168 0.33756 0.84831 0.0
C1399 C 0.20164 0.32972 0.81754 0.0
C1400 C 0.18775 0.33879 0.8578 0.0
C1401 C 0.17357 0.33235 0.83651 0.0
C1402 C 0.17368 0.32466 0.80558 0.0
C1403 C 0.1875 0.32328 0.79631 0.0
H1404 H 0.86846 0.68023 0.73554 0.0
H1405 H 0.85459 0.63316 0.68698 0.0
H1406 H 0.84217 0.6778 0.71812 0.0
H1407 H 0.82776 0.63023 0.67086 0.0
H1408 H 0.79003 0.6393 0.61435 0.0
H1409 H 0.81583 0.64099 0.63308 0.0
H1410 H 0.81334 0.66383 0.72788 0.0
H1411 H 0.78783 0.66285 0.70813 0.0
C1412 C 0.85967 0.66924 0.72144 0.0
C1413 C 0.86359 0.65689 0.71253 0.0
C1414 C 0.8445 0.66777 0.71167 0.0
C1415 C 0.83273 0.65379 0.69316 0.0
C1416 C 0.83661 0.64132 0.6846 0.0
C1417 C 0.85194 0.64292 0.69396 0.0
C1418 C 0.79498 0.64466 0.63923 0.0
C1419 C 0.78693 0.65099 0.65976 0.0
C1420 C 0.80974 0.64552 0.65013 0.0
C1421 C 0.81672 0.6525 0.68208 0.0
C1422 C 0.80851 0.65863 0.70285 0.0
C1423 C 0.79383 0.658 0.69168 0.0
H1424 H 0.34182 0.21461 0.65124 0.0
H1425 H 0.31523 0.18757 0.74181 0.0
H1426 H 0.34446 0.19077 0.6332 0.0
H1427 H 0.31843 0.16412 0.72472 0.0
H1428 H 0.31219 0.11843 0.66885 0.0
H1429 H 0.30887 0.14208 0.68481 0.0
H1430 H 0.35843 0.17595 0.64664 0.0
H1431 H 0.3614 0.15233 0.62948 0.0
C1432 C 0.33667 0.20364 0.6674 0.0
C1433 C 0.32828 0.20294 0.69784 0.0
C1434 C 0.33824 0.18999 0.6572 0.0
C1435 C 0.33161 0.17546 0.67746 0.0
C1436 C 0.32338 0.17492 0.70809 0.0
C1437 C 0.32165 0.18845 0.71803 0.0
C1438 C 0.32235 0.13093 0.66392 0.0
C1439 C 0.33703 0.13352 0.64791 0.0
C1440 C 0.3205 0.14451 0.67318 0.0
C1441 C 0.3334 0.16097 0.66702 0.0
C1442 C 0.34812 0.16349 0.6512 0.0
C1443 C 0.34988 0.14993 0.64161 0.0
H1444 H 0.88057 0.18848 0.67442 0.0
H1445 H 0.84755 0.20357 0.62926 0.0
H1446 H 0.85649 0.16189 0.69103 0.0
H1447 H 0.82354 0.17743 0.64702 0.0
H1448 H 0.78431 0.12254 0.65356 0.0
H1449 H 0.80868 0.14852 0.63517 0.0
H1450 H 0.83382 0.15006 0.72963 0.0
H1451 H 0.80985 0.12387 0.74713 0.0
C1452 C 0.86816 0.18618 0.66838 0.0
C1453 C 0.86594 0.19807 0.65051 0.0
C1454 C 0.85435 0.17098 0.67799 0.0
C1455 C 0.83803 0.16746 0.6703 0.0
C1456 C 0.83589 0.17952 0.65276 0.0
C1457 C 0.84967 0.19458 0.64282 0.0
C1458 C 0.79508 0.12845 0.67028 0.0
C1459 C 0.79519 0.12116 0.70169 0.0
C1460 C 0.80902 0.14339 0.65988 0.0
C1461 C 0.82327 0.15142 0.6809 0.0
C1462 C 0.82325 0.1441 0.71244 0.0
C1463 C 0.80943 0.12912 0.7226 0.0
H1464 H 0.00542 0.45784 0.49112 0.0
H1465 H 0.97467 0.45666 0.57556 0.0
H1466 H 0.00828 0.48426 0.47205 0.0
H1467 H 0.97809 0.48329 0.55757 0.0
H1468 H 0.97337 0.52274 0.49754 0.0
H1469 H 0.97 0.49594 0.51513 0.0
H1470 H 0.02115 0.51282 0.48639 0.0
H1471 H 0.02422 0.53921 0.46749 0.0
C1472 C -0.00059 0.4633 0.50574 0.0
C1473 C 0.98979 0.45517 0.53472 0.0
C1474 C 0.0011 0.47848 0.49497 0.0
C1475 C 0.99339 0.48593 0.51324 0.0
C1476 C 0.98392 0.4778 0.54244 0.0
C1477 C 0.98206 0.46256 0.55291 0.0
C1478 C 0.98387 0.52069 0.49507 0.0
C1479 C -0.00097 0.53303 0.4811 0.0
C1480 C 0.98199 0.50536 0.50528 0.0
C1481 C 0.9953 0.50217 0.50214 0.0
C1482 C 0.01052 0.51467 0.48855 0.0
C1483 C 0.01233 0.52988 0.47796 0.0
H1484 H 0.53402 0.55355 0.49527 0.0
H1485 H 0.5285 0.52812 0.59132 0.0
H1486 H 0.50838 0.52957 0.47439 0.0
H1487 H 0.50264 0.50448 0.57111 0.0
H1488 H 0.46729 0.45772 0.51166 0.0
H1489 H 0.49292 0.48189 0.53195 0.0
H1490 H 0.47892 0.51461 0.48123 0.0
H1491 H 0.45373 0.49051 0.45998 0.0
C1492 C 0.5272 0.54294 0.51207 0.0
C1493 C 0.53329 0.54268 0.54484 0.0
C1494 C 0.51248 0.5292 0.50018 0.0
C1495 C 0.50348 0.51501 0.52099 0.0
C1496 C 0.50942 0.51501 0.5541 0.0
C1497 C 0.52418 0.52864 0.5658 0.0
C1498 C 0.46973 0.47009 0.50487 0.0
C1499 C 0.45853 0.47221 0.4842 0.0
C1500 C 0.48436 0.48396 0.51664 0.0
C1501 C 0.488 0.50024 0.50826 0.0
C1502 C 0.47669 0.50229 0.48771 0.0
C1503 C 0.46218 0.48845 0.4757 0.0
H1504 H 0.50982 0.96801 0.45768 0.0
H1505 H 0.5439 0.01587 0.50242 0.0
H1506 H 0.48628 0.97075 0.47651 0.0
H1507 H 0.52031 0.01899 0.52008 0.0
H1508 H 0.47478 0.01098 0.57963 0.0
H1509 H 0.49822 0.00828 0.56008 0.0
H1510 H 0.47162 0.98519 0.46656 0.0
H1511 H 0.44778 0.98729 0.487 0.0
C1512 C 0.51228 0.97922 0.47128 0.0
C1513 C 0.52871 0.99172 0.47868 0.0
C1514 C 0.49877 0.98084 0.48186 0.0
C1515 C 0.50135 0.9951 0.49977 0.0
C1516 C 0.51783 0.0077 0.50684 0.0
C1517 C 0.53137 0.00598 0.49659 0.0
C1518 C 0.47392 0.0053 0.55489 0.0
C1519 C 0.45944 -0.00067 0.53482 0.0
C1520 C 0.48743 0.00388 0.54354 0.0
C1521 C 0.4869 0.99662 0.51163 0.0
C1522 C 0.47238 0.99065 0.4915 0.0
C1523 C 0.45874 0.9919 0.50309 0.0
H1524 H 0.45791 0.00815 0.03318 0.0
H1525 H 0.46007 0.98301 0.94176 0.0
H1526 H 0.48433 0.01095 0.05234 0.0
H1527 H 0.48664 0.98638 0.96001 0.0
H1528 H 0.52627 0.98066 0.01616 0.0
H1529 H 0.49907 0.97676 0.99999 0.0
H1530 H 0.51329 0.02562 0.04013 0.0
H1531 H 0.54009 0.02916 0.05747 0.0
C1532 C 0.46409 0.00334 0.0171 0.0
C1533 C 0.45691 0.99533 0.98605 0.0
C1534 C 0.47927 0.005 0.02795 0.0
C1535 C 0.48764 -0.00115 1.00776 0.0
C1536 C 0.48043 0.99096 0.97659 0.0
C1537 C 0.46522 0.98914 0.96598 0.0
C1538 C 0.52354 0.99053 0.02153 0.0
C1539 C 0.5353 0.0052 0.03806 0.0
C1540 C 0.50799 0.98835 0.01214 0.0
C1541 C 0.50396 0.00089 0.01871 0.0
C1542 C 0.5158 0.01557 0.03521 0.0
C1543 C 0.53124 0.01766 0.04492 0.0
H1544 H 0.01271 0.54693 0.01081 0.0
H1545 H 0.96165 0.51181 0.0379 0.0
H1546 H 0.01708 0.52386 0.99541 0.0
H1547 H 0.96573 0.4888 0.0212 0.0
H1548 H 0.98297 0.45067 0.02296 0.0
H1549 H 0.97904 0.47395 0.03901 0.0
H1550 H 0.01032 0.50275 0.95429 0.0
H1551 H 0.01477 0.47982 0.93931 0.0
C1552 C 0.00237 0.53429 0.01301 0.0
C1553 C 0.98687 0.53117 0.02562 0.0
C1554 C 0.00483 0.52104 1.00408 0.0
C1555 C 0.99177 0.50442 1.00718 0.0
C1556 C 0.97617 0.50139 0.01917 0.0
C1557 C 0.97379 0.5146 0.02847 0.0
C1558 C 0.98901 0.462 1.00788 0.0
C1559 C -0.00079 0.46343 0.97998 0.0
C1560 C 0.98669 0.47533 0.0169 0.0
C1561 C 0.99436 0.49028 0.99793 0.0
C1562 C 0.00447 0.49159 0.96989 0.0
C1563 C 0.00694 0.47837 0.96116 0.0
H1564 H 0.49164 0.45278 0.06105 0.0
H1565 H 0.45971 0.46535 1.00294 0.0
H1566 H 0.51611 0.47749 0.03919 0.0
H1567 H 0.48424 0.49045 0.98184 0.0
H1568 H 0.53128 0.52413 0.92256 0.0
H1569 H 0.50742 0.49874 0.94392 0.0
H1570 H 0.53095 0.50729 0.04325 0.0
H1571 H 0.55514 0.53252 0.02142 0.0
C1572 C 0.48984 0.4609 0.04377 0.0
C1573 C 0.47373 0.4571 0.03365 0.0
C1574 C 0.50389 0.47513 0.0314 0.0
C1575 C 0.50218 0.48597 0.00875 0.0
C1576 C 0.48603 0.48222 0.99882 0.0
C1577 C 0.47196 0.4679 0.01105 0.0
C1578 C 0.53143 0.52053 0.9489 0.0
C1579 C 0.54508 0.53033 0.97035 0.0
C1580 C 0.51767 0.50604 0.96123 0.0
C1581 C 0.51716 0.50106 0.99541 0.0
C1582 C 0.53099 0.51068 0.01669 0.0
C1583 C 0.54485 0.52515 1.00423 0.0
H1584 H 0.40435 0.0286 0.06016 0.0
H1585 H 0.36623 0.02846 0.99616 0.0
H1586 H 0.39687 0.04153 0.10638 0.0
H1587 H 0.3588 0.04135 0.04219 0.0
H1588 H 0.35614 0.07474 0.12419 0.0
H1589 H 0.36875 0.06702 0.07772 0.0
H1590 H 0.37199 0.03154 0.14442 0.0
H1591 H 0.35942 0.03921 0.19069 0.0
C1592 C 0.39456 0.03155 0.05574 0.0
C1593 C 0.38584 0.02741 0.02449 0.0
C1594 C 0.39021 0.03888 0.08231 0.0
C1595 C 0.37719 0.04243 0.07806 0.0
C1596 C 0.36898 0.03894 0.04626 0.0
C1597 C 0.37319 0.03145 0.01991 0.0
C1598 C 0.3598 0.06549 0.12909 0.0
C1599 C 0.35669 0.05754 0.16114 0.0
C1600 C 0.36693 0.06099 0.10239 0.0
C1601 C 0.37131 0.04859 0.10727 0.0
C1602 C 0.36891 0.04123 0.13982 0.0
C1603 C 0.36161 0.04558 0.16634 0.0
H1604 H 0.92864 0.28403 0.12123 0.0
H1605 H 0.93978 0.32216 0.19656 0.0
H1606 H 0.93684 0.30449 0.07581 0.0
H1607 H 0.94638 0.34258 0.15128 0.0
H1608 H 0.97708 0.37996 0.06831 0.0
H1609 H 0.96522 0.35957 0.11401 0.0
H1610 H 0.93479 0.32171 0.03961 0.0
H1611 H 0.94821 0.342 0.99397 0.0
C1612 C 0.93232 0.29678 0.12792 0.0
C1613 C 0.93361 0.30152 0.16238 0.0
C1614 C 0.93698 0.30865 0.10174 0.0
C1615 C 0.94255 0.32558 0.10917 0.0
C1616 C 0.9428 0.32997 0.14393 0.0
C1617 C 0.93875 0.31819 0.17014 0.0
C1618 C 0.96771 0.36728 0.06195 0.0
C1619 C 0.9636 0.36254 0.02765 0.0
C1620 C 0.96072 0.35546 0.08829 0.0
C1621 C 0.94895 0.3386 0.08119 0.0
C1622 C 0.94416 0.33424 0.04666 0.0
C1623 C 0.95166 0.34596 0.02027 0.0
H1624 H 0.66165 0.62801 1.00128 0.0
H1625 H 0.62458 0.58462 0.05576 0.0
H1626 H 0.68118 0.63443 0.04855 0.0
H1627 H 0.64416 0.5912 0.10342 0.0
H1628 H 0.67599 0.62664 0.19504 0.0
H1629 H 0.65672 0.61491 0.14686 0.0
H1630 H 0.69765 0.62355 0.08069 0.0
H1631 H 0.71696 0.63518 0.12903 0.0
C1632 C 0.65772 0.61973 0.0232 0.0
C1633 C 0.64153 0.60583 0.02477 0.0
C1634 C 0.66897 0.62337 0.05023 0.0
C1635 C 0.66422 0.61335 0.07978 0.0
C1636 C 0.64815 0.59921 0.08106 0.0
C1637 C 0.63697 0.5954 0.05371 0.0
C1638 C 0.68085 0.62575 0.17037 0.0
C1639 C 0.69804 0.63191 0.16588 0.0
C1640 C 0.66978 0.61896 0.14278 0.0
C1641 C 0.67566 0.6184 0.10988 0.0
C1642 C 0.69275 0.62394 0.10566 0.0
C1643 C 0.7038 0.6305 0.13341 0.0
H1644 H 0.053 0.37729 0.32464 0.0
H1645 H 0.06382 0.34982 0.39945 0.0
H1646 H 0.04581 0.39052 0.37013 0.0
H1647 H 0.05503 0.3615 0.44503 0.0
H1648 H 0.04296 0.387 0.52723 0.0
H1649 H 0.05675 0.38051 0.48169 0.0
H1650 H 0.02654 0.3881 0.40693 0.0
H1651 H 0.01427 0.39621 0.45254 0.0
C1652 C 0.0538 0.37409 0.351 0.0
C1653 C 0.05904 0.36261 0.35855 0.0
C1654 C 0.04942 0.38149 0.37731 0.0
C1655 C 0.04942 0.37705 0.41194 0.0
C1656 C 0.05506 0.36572 0.41921 0.0
C1657 C 0.06005 0.35884 0.39293 0.0
C1658 C 0.03963 0.38762 0.50088 0.0
C1659 C 0.02763 0.39219 0.49338 0.0
C1660 C 0.04734 0.38363 0.47455 0.0
C1661 C 0.04273 0.38337 0.43995 0.0
C1662 C 0.0309 0.38836 0.43273 0.0
C1663 C 0.02369 0.39297 0.45902 0.0
H1664 H 0.61212 0.66154 0.52586 0.0
H1665 H 0.59668 0.62194 0.45219 0.0
H1666 H 0.61778 0.68142 0.47992 0.0
H1667 H 0.60398 0.64179 0.40573 0.0
H1668 H 0.61386 0.67845 0.32277 0.0
H1669 H 0.60152 0.65896 0.37012 0.0
H1670 H 0.63545 0.69736 0.44005 0.0
H1671 H 0.64624 0.71699 0.39295 0.0
C1672 C 0.60998 0.65715 0.49962 0.0
C1673 C 0.60389 0.64024 0.49251 0.0
C1674 C 0.61348 0.6686 0.473 0.0
C1675 C 0.61174 0.66358 0.43833 0.0
C1676 C 0.60528 0.64643 0.43161 0.0
C1677 C 0.60115 0.63491 0.45834 0.0
C1678 C 0.61831 0.68271 0.34852 0.0
C1679 C 0.63091 0.69922 0.35427 0.0
C1680 C 0.61143 0.67145 0.37586 0.0
C1681 C 0.61752 0.67618 0.40959 0.0
C1682 C 0.62996 0.69298 0.41507 0.0
C1683 C 0.63633 0.70437 0.3879 0.0
H1684 H 0.3362 0.96481 0.5233 0.0
H1685 H 0.37542 0.96663 0.46025 0.0
H1686 H 0.31652 0.95233 0.47606 0.0
H1687 H 0.35567 0.95417 0.4128 0.0
H1688 H 0.32126 0.95773 0.32823 0.0
H1689 H 0.34089 0.96482 0.37551 0.0
H1690 H 0.30181 0.92708 0.43817 0.0
H1691 H 0.2821 0.91988 0.39064 0.0
C1692 C 0.34057 0.96232 0.49951 0.0
C1693 C 0.35742 0.9668 0.49554 0.0
C1694 C 0.32925 0.95508 0.47246 0.0
C1695 C 0.33453 0.95231 0.44058 0.0
C1696 C 0.35125 0.95627 0.43695 0.0
C1697 C 0.36254 0.96332 0.4642 0.0
C1698 C 0.31689 0.95075 0.3519 0.0
C1699 C 0.30008 0.93828 0.35567 0.0
C1700 C 0.32818 0.95477 0.37897 0.0
C1701 C 0.32292 0.94657 0.41069 0.0
C1702 C 0.30623 0.93372 0.41415 0.0
C1703 C 0.29496 0.92953 0.38685 0.0
H1704 H 0.63131 0.91954 0.89728 0.0
H1705 H 0.6325 0.95753 0.83119 0.0
H1706 H 0.61844 0.9277 0.94249 0.0
H1707 H 0.61962 0.96558 0.87616 0.0
H1708 H 0.58603 0.96926 0.95652 0.0
H1709 H 0.59363 0.95599 0.91119 0.0
H1710 H 0.62894 0.95327 0.97928 0.0
H1711 H 0.62143 0.96655 0.02439 0.0
C1712 C 0.62858 0.92943 0.89218 0.0
C1713 C 0.63301 0.93793 0.86066 0.0
C1714 C 0.6213 0.93417 0.91815 0.0
C1715 C 0.61804 0.94733 0.91299 0.0
C1716 C 0.6218 0.9553 0.88091 0.0
C1717 C 0.62928 0.95073 0.85517 0.0
C1718 C 0.59521 0.96558 0.96197 0.0
C1719 C 0.60317 0.96904 0.99405 0.0
C1720 C 0.59964 0.95807 0.93594 0.0
C1721 C 0.61195 0.95362 0.94155 0.0
C1722 C 0.61932 0.95639 0.97415 0.0
C1723 C 0.61506 0.96409 0.99998 0.0
H1724 H 0.01446 0.61632 0.94934 0.0
H1725 H 0.04177 0.65301 0.02702 0.0
H1726 H 0.02682 0.63758 0.90539 0.0
H1727 H 0.05561 0.67421 0.98311 0.0
H1728 H 0.06175 0.713 0.90392 0.0
H1729 H 0.05332 0.69178 0.94787 0.0
H1730 H 0.04641 0.65548 0.87009 0.0
H1731 H 0.05328 0.67659 0.82621 0.0
C1732 C 0.02361 0.62891 0.95685 0.0
C1733 C 0.02712 0.63301 0.99158 0.0
C1734 C 0.03086 0.64124 0.93151 0.0
C1735 C 0.0423 0.658 0.94008 0.0
C1736 C 0.04652 0.66175 0.975 0.0
C1737 C 0.03878 0.64951 1.00038 0.0
C1738 C 0.0586 0.7005 0.89641 0.0
C1739 C 0.05812 0.69644 0.86167 0.0
C1740 C 0.0538 0.6882 0.92174 0.0
C1741 C 0.04889 0.67153 0.91315 0.0
C1742 C 0.04946 0.66785 0.87822 0.0
C1743 C 0.05366 0.68004 0.85285 0.0
H1744 H 0.32715 0.36204 0.83175 0.0
H1745 H 0.29033 0.3641 0.8963 0.0
H1746 H 0.34796 0.37509 0.87685 0.0
H1747 H 0.31123 0.37718 0.94162 0.0
H1748 H 0.34672 0.37518 0.02548 0.0
H1749 H 0.32607 0.36724 0.97995 0.0
H1750 H 0.36449 0.40118 0.91075 0.0
H1751 H 0.38522 0.40918 0.95646 0.0
C1752 C 0.32354 0.36547 0.85542 0.0
C1753 C 0.30703 0.36195 0.86042 0.0
C1754 C 0.33552 0.37305 0.88124 0.0
C1755 C 0.33128 0.37715 0.91294 0.0
C1756 C 0.31488 0.37406 0.91761 0.0
C1757 C 0.30293 0.36665 0.89157 0.0
C1758 C 0.35075 0.38116 1.00071 0.0
C1759 C 0.36766 0.39277 0.99461 0.0
C1760 C 0.33887 0.37665 0.97462 0.0
C1761 C 0.34362 0.3835 0.9416 0.0
C1762 C 0.36044 0.39555 0.9358 0.0
C1763 C 0.37231 0.40022 0.96206 0.0
H1764 H 0.93954 0.61132 0.69337 0.0
H1765 H 0.92517 0.63614 0.61899 0.0
H1766 H 0.94501 0.59682 0.64776 0.0
H1767 H 0.93228 0.62325 0.5729 0.0
H1768 H 0.94233 0.59645 0.49043 0.0
H1769 H 0.9297 0.60351 0.53738 0.0
H1770 H 0.96285 0.59837 0.60844 0.0
H1771 H 0.97393 0.58965 0.56172 0.0
C1772 C 0.93758 0.61365 0.66706 0.0
C1773 C 0.93187 0.62476 0.65966 0.0
C1774 C 0.94097 0.60553 0.64062 0.0
C1775 C 0.9395 0.6089 0.60588 0.0
C1776 C 0.93336 0.61984 0.59885 0.0
C1777 C 0.92934 0.62742 0.62538 0.0
C1778 C 0.94652 0.59644 0.51634 0.0
C1779 C 0.95901 0.5924 0.52249 0.0
C1780 C 0.93949 0.60079 0.54345 0.0
C1781 C 0.9453 0.60197 0.57738 0.0
C1782 C 0.95757 0.59741 0.58328 0.0
C1783 C 0.9641 0.59244 0.55632 0.0
H1784 H 0.36161 0.32746 0.68734 0.0
H1785 H 0.36323 0.29015 0.62374 0.0
H1786 H 0.375 0.34808 0.642 0.0
H1787 H 0.37667 0.31086 0.57821 0.0
H1788 H 0.37525 0.34618 0.49334 0.0
H1789 H 0.36706 0.32573 0.53932 0.0
H1790 H 0.40112 0.36427 0.60806 0.0
H1791 H 0.40936 0.38482 0.56189 0.0
C1792 C 0.36503 0.3237 0.66385 0.0
C1793 C 0.36126 0.30711 0.65916 0.0
C1794 C 0.37281 0.33557 0.63788 0.0
C1795 C 0.37686 0.33113 0.60637 0.0
C1796 C 0.37358 0.31466 0.60206 0.0
C1797 C 0.36596 0.30281 0.62823 0.0
C1798 C 0.3812 0.35028 0.5181 0.0
C1799 C 0.39292 0.36718 0.52393 0.0
C1800 C 0.37655 0.33851 0.54445 0.0
C1801 C 0.38336 0.34335 0.57747 0.0
C1802 C 0.39551 0.36015 0.58302 0.0
C1803 C 0.40032 0.37191 0.5565 0.0
H1804 H 0.65324 0.02799 0.49434 0.0
H1805 H 0.6149 0.02601 0.56054 0.0
H1806 H 0.67342 0.03981 0.54087 0.0
H1807 H 0.63518 0.03788 0.60726 0.0
H1808 H 0.67009 0.03356 0.68907 0.0
H1809 H 0.65005 0.02697 0.64281 0.0
H1810 H 0.6889 0.06442 0.57924 0.0
H1811 H 0.70903 0.07105 0.62569 0.0
C1812 C 0.64917 0.03031 0.51869 0.0
C1813 C 0.63242 0.02597 0.52372 0.0
C1814 C 0.66078 0.03718 0.54535 0.0
C1815 C 0.65592 0.03973 0.57789 0.0
C1816 C 0.6393 0.03593 0.58261 0.0
C1817 C 0.6277 0.02923 0.55576 0.0
C1818 C 0.67434 0.04056 0.66541 0.0
C1819 C 0.69121 0.05278 0.66107 0.0
C1820 C 0.6628 0.03684 0.63892 0.0
C1821 C 0.66786 0.04512 0.60723 0.0
C1822 C 0.68463 0.05771 0.60322 0.0
C1823 C 0.69614 0.06158 0.62991 0.0
H1824 H 0.72486 0.6789 0.73714 0.0
H1825 H 0.71488 0.7051 0.65789 0.0
H1826 H 0.71526 0.69106 0.7802 0.0
H1827 H 0.70685 0.71878 0.70086 0.0
H1828 H 0.67384 0.72511 0.77869 0.0
H1829 H 0.68688 0.71652 0.73559 0.0
H1830 H 0.71644 0.71066 0.81462 0.0
H1831 H 0.70193 0.71764 0.85769 0.0
C1832 C 0.72109 0.68774 0.7291 0.0
C1833 C 0.72056 0.69101 0.69421 0.0
C1834 C 0.71564 0.69489 0.75391 0.0
C1835 C 0.70999 0.706 0.74463 0.0
C1836 C 0.71045 0.70994 0.70953 0.0
C1837 C 0.71532 0.70228 0.68468 0.0
C1838 C 0.68328 0.72215 0.78665 0.0
C1839 C 0.68684 0.722 0.82151 0.0
C1840 C 0.69093 0.71727 0.76181 0.0
C1841 C 0.70282 0.71261 0.77101 0.0
C1842 C 0.70703 0.7135 0.80604 0.0
C1843 C 0.69889 0.71778 0.83094 0.0
H1844 H 0.31257 0.04715 0.73366 0.0
H1845 H 0.28432 0.01036 0.65683 0.0
H1846 H 0.30065 0.02599 0.77788 0.0
H1847 H 0.27084 0.98927 0.70106 0.0
H1848 H 0.26452 0.9504 0.78002 0.0
H1849 H 0.27292 0.97157 0.73594 0.0
H1850 H 0.28158 0.00835 0.81398 0.0
H1851 H 0.27483 0.98726 0.85783 0.0
C1852 C 0.30332 0.03456 0.72645 0.0
C1853 C 0.2994 0.03038 0.69187 0.0
C1854 C 0.2963 0.02228 0.75194 0.0
C1855 C 0.28468 0.00553 0.74369 0.0
C1856 C 0.28008 0.00172 0.70893 0.0
C1857 C 0.28762 0.01389 0.68337 0.0
C1858 C 0.26808 0.96302 0.78752 0.0
C1859 C 0.26908 0.96722 0.82226 0.0
C1860 C 0.27285 0.97529 0.76215 0.0
C1861 C 0.27821 0.99206 0.77074 0.0
C1862 C 0.27819 0.99589 0.80577 0.0
C1863 C 0.27405 0.98373 0.83115 0.0
H1864 H 0.98952 0.27134 0.65812 0.0
H1865 H 0.95068 0.25972 0.73208 0.0
H1866 H 0.00972 0.27853 0.70407 0.0
H1867 H 0.97089 0.26851 0.77813 0.0
H1868 H 0.00812 0.28085 0.8612 0.0
H1869 H 0.98816 0.26701 0.81522 0.0
H1870 H 0.0262 0.29772 0.7413 0.0
H1871 H 0.04628 0.31005 0.78734 0.0
C1872 C 0.98535 0.27035 0.68439 0.0
C1873 C 0.96854 0.2649 0.69157 0.0
C1874 C -0.003 0.27474 0.71098 0.0
C1875 C 0.99232 0.27453 0.74552 0.0
C1876 C 0.97527 0.26865 0.7524 0.0
C1877 C 0.96354 0.26365 0.72585 0.0
C1878 C 0.0122 0.28428 0.83495 0.0
C1879 C 0.02875 0.29644 0.82782 0.0
C1880 C 0.00066 0.27653 0.80835 0.0
C1881 C 0.00517 0.28126 0.77383 0.0
C1882 C 0.02199 0.29326 0.767 0.0
C1883 C 0.03364 0.30051 0.79355 0.0
H1884 H 0.2979 0.2922 0.16275 0.0
H1885 H 0.29887 0.25356 0.22294 0.0
H1886 H 0.28547 0.29894 0.2108 0.0
H1887 H 0.28647 0.2604 0.27123 0.0
H1888 H 0.29023 0.29753 0.35833 0.0
H1889 H 0.29721 0.2853 0.31024 0.0
H1890 H 0.26002 0.28804 0.24827 0.0
H1891 H 0.25295 0.30023 0.29655 0.0
C1892 C 0.29524 0.28497 0.18609 0.0
C1893 C 0.29945 0.27238 0.18901 0.0
C1894 C 0.28803 0.28879 0.2136 0.0
C1895 C 0.28502 0.28025 0.24493 0.0
C1896 C 0.28874 0.26729 0.24753 0.0
C1897 C 0.29576 0.26331 0.21979 0.0
C1898 C 0.28333 0.29527 0.33465 0.0
C1899 C 0.27107 0.29993 0.33128 0.0
C1900 C 0.28729 0.28818 0.3071 0.0
C1901 C 0.27924 0.28577 0.27533 0.0
C1902 C 0.26655 0.28987 0.27231 0.0
C1903 C 0.26243 0.29675 0.30006 0.0
H1904 H 0.74017 0.04404 0.22624 0.0
H1905 H 0.70219 0.00509 0.16376 0.0
H1906 H 0.73315 0.02418 0.2734 0.0
H1907 H 0.69523 0.98531 0.21071 0.0
H1908 H 0.69338 0.95045 0.29456 0.0
H1909 H 0.70577 0.97034 0.24729 0.0
H1910 H 0.70824 0.0094 0.3117 0.0
H1911 H 0.69586 0.98961 0.35876 0.0
C1912 C 0.73052 0.0312 0.22236 0.0
C1913 C 0.72169 0.02619 0.19127 0.0
C1914 C 0.72643 0.01984 0.24945 0.0
C1915 C 0.71358 0.00316 0.24589 0.0
C1916 C 0.70529 -0.00199 0.21425 0.0
C1917 C 0.70923 0.00939 0.18737 0.0
C1918 C 0.69683 0.96335 0.2988 0.0
C1919 C 0.69354 0.96841 0.33041 0.0
C1920 C 0.70384 0.97472 0.27165 0.0
C1921 C 0.70792 0.99145 0.27564 0.0
C1922 C 0.70538 0.99666 0.30779 0.0
C1923 C 0.6982 0.98527 0.33475 0.0
H1924 H 0.00854 0.73085 0.36208 0.0
H1925 H 0.04771 0.73709 0.29351 0.0
H1926 H 0.98957 0.72412 0.31389 0.0
H1927 H 0.0286 0.7287 0.2456 0.0
H1928 H 0.99379 0.71697 0.15831 0.0
H1929 H 0.01316 0.73089 0.20514 0.0
H1930 H 0.97272 0.70461 0.27753 0.0
H1931 H 0.95336 0.69232 0.23019 0.0
C1932 C 0.01306 0.73079 0.33651 0.0
C1933 C 0.0296 0.73458 0.33148 0.0
C1934 C 0.0021 0.72665 0.3087 0.0
C1935 C 0.00716 0.72544 0.27517 0.0
C1936 C 0.02399 0.72971 0.2704 0.0
C1937 C 0.03508 0.73448 0.29805 0.0
C1938 C 0.9891 0.71454 0.18434 0.0
C1939 C 0.97211 0.70365 0.19069 0.0
C1940 C 0.00026 0.72232 0.21147 0.0
C1941 C 0.99487 0.71883 0.2459 0.0
C1942 C 0.97763 0.7081 0.25186 0.0
C1943 C 0.9664 0.70086 0.22462 0.0
loop_
_geom_bond_atom_site_label_1
_geom_bond_atom_site_label_2
_geom_bond_distance
_geom_bond_site_symmetry_2
_ccdc_geom_bond_type
O0 Cd1 2.223 . S
O0 C8 1.315 . S
Cd1 O0 2.223 . S
Cd1 O4 2.297 . S
Cd1 O5 2.439 . S
Cd1 O11 2.240 . S
Cd2 O3 2.240 . S
Cd2 O10 2.223 . S
Cd2 O12 2.297 . S
Cd2 O13 2.439 . S
O3 Cd2 2.240 . S
O3 C8 1.279 . S
O4 Cd1 2.297 . S
O4 C6 1.247 . S
O5 Cd1 2.439 . S
O5 C6 1.208 . S
C6 O4 1.247 . S
C6 O5 1.208 . S
C7 O12 1.247 . S
C7 O13 1.208 . S
C8 O0 1.315 . S
C8 O3 1.279 . S
C9 O10 1.315 . S
C9 O11 1.279 . S
O10 Cd2 2.223 . S
O10 C9 1.315 . S
O11 Cd1 2.240 . S
O11 C9 1.279 . S
O12 Cd2 2.297 . S
O12 C7 1.247 . S
O13 Cd2 2.439 . S
O13 C7 1.208 . S
O14 Cd15 2.223 . S
O14 C22 1.315 . S
Cd15 O14 2.223 . S
Cd15 O18 2.297 . S
Cd15 O19 2.439 . S
Cd15 O25 2.240 . S
Cd16 O17 2.240 . S
Cd16 O24 2.223 . S
Cd16 O26 2.297 . S
Cd16 O27 2.439 . S
O17 Cd16 2.240 . S
O17 C22 1.279 . S
O18 Cd15 2.297 . S
O18 C20 1.247 . S
O19 Cd15 2.439 . S
O19 C20 1.208 . S
C20 O18 1.247 . S
C20 O19 1.208 . S
C21 O26 1.247 . S
C21 O27 1.208 . S
C22 O14 1.315 . S
C22 O17 1.279 . S
C23 O24 1.315 . S
C23 O25 1.279 . S
O24 Cd16 2.223 . S
O24 C23 1.315 . S
O25 Cd15 2.240 . S
O25 C23 1.279 . S
O26 Cd16 2.297 . S
O26 C21 1.247 . S
O27 Cd16 2.439 . S
O27 C21 1.208 . S
O28 Cd29 2.223 . S
O28 C36 1.315 . S
Cd29 O28 2.223 . S
Cd29 O32 2.297 . S
Cd29 O33 2.439 . S
Cd29 O39 2.240 . S
Cd30 O31 2.240 . S
Cd30 O38 2.223 . S
Cd30 O40 2.297 . S
Cd30 O41 2.439 . S
O31 Cd30 2.240 . S
O31 C36 1.279 . S
O32 Cd29 2.297 . S
O32 C34 1.247 . S
O33 Cd29 2.439 . S
O33 C34 1.208 . S
C34 O32 1.247 . S
C34 O33 1.208 . S
C35 O40 1.247 . S
C35 O41 1.208 . S
C36 O28 1.315 . S
C36 O31 1.279 . S
C37 O38 1.315 . S
C37 O39 1.279 . S
O38 Cd30 2.223 . S
O38 C37 1.315 . S
O39 Cd29 2.240 . S
O39 C37 1.279 . S
O40 Cd30 2.297 . S
O40 C35 1.247 . S
O41 Cd30 2.439 . S
O41 C35 1.208 . S
O42 Cd43 2.223 . S
O42 C50 1.315 . S
Cd43 O42 2.223 . S
Cd43 O46 2.297 . S
Cd43 O47 2.439 . S
Cd43 O53 2.240 . S
Cd44 O45 2.240 . S
Cd44 O52 2.223 . S
Cd44 O54 2.297 . S
Cd44 O55 2.439 . S
O45 Cd44 2.240 . S
O45 C50 1.279 . S
O46 Cd43 2.297 . S
O46 C48 1.247 . S
O47 Cd43 2.439 . S
O47 C48 1.208 . S
C48 O46 1.247 . S
C48 O47 1.208 . S
C49 O54 1.247 . S
C49 O55 1.208 . S
C50 O42 1.315 . S
C50 O45 1.279 . S
C51 O52 1.315 . S
C51 O53 1.279 . S
O52 Cd44 2.223 . S
O52 C51 1.315 . S
O53 Cd43 2.240 . S
O53 C51 1.279 . S
O54 Cd44 2.297 . S
O54 C49 1.247 . S
O55 Cd44 2.439 . S
O55 C49 1.208 . S
O56 Cd57 2.223 . S
O56 C64 1.315 . S
Cd57 O56 2.223 . S
Cd57 O60 2.297 . S
Cd57 O61 2.439 . S
Cd57 O67 2.240 . S
Cd58 O59 2.240 . S
Cd58 O66 2.223 . S
Cd58 O68 2.297 . S
Cd58 O69 2.439 . S
O59 Cd58 2.240 . S
O59 C64 1.279 . S
O60 Cd57 2.297 . S
O60 C62 1.247 . S
O61 Cd57 2.439 . S
O61 C62 1.208 . S
C62 O60 1.247 . S
C62 O61 1.208 . S
C63 O68 1.247 . S
C63 O69 1.208 . S
C64 O56 1.315 . S
C64 O59 1.279 . S
C65 O66 1.315 . S
C65 O67 1.279 . S
O66 Cd58 2.223 . S
O66 C65 1.315 . S
O67 Cd57 2.240 . S
O67 C65 1.279 . S
O68 Cd58 2.297 . S
O68 C63 1.247 . S
O69 Cd58 2.439 . S
O69 C63 1.208 . S
O70 Cd71 2.223 . S
O70 C78 1.315 . S
Cd71 O70 2.223 . S
Cd71 O74 2.297 . S
Cd71 O75 2.439 . S
Cd71 O81 2.240 . S
Cd72 O73 2.240 . S
Cd72 O80 2.223 . S
Cd72 O82 2.297 . S
Cd72 O83 2.439 . S
O73 Cd72 2.240 . S
O73 C78 1.279 . S
O74 Cd71 2.297 . S
O74 C76 1.247 . S
O75 Cd71 2.439 . S
O75 C76 1.208 . S
C76 O74 1.247 . S
C76 O75 1.208 . S
C77 O82 1.247 . S
C77 O83 1.208 . S
C78 O70 1.315 . S
C78 O73 1.279 . S
C79 O80 1.315 . S
C79 O81 1.279 . S
O80 Cd72 2.223 . S
O80 C79 1.315 . S
O81 Cd71 2.240 . S
O81 C79 1.279 . S
O82 Cd72 2.297 . S
O82 C77 1.247 . S
O83 Cd72 2.439 . S
O83 C77 1.208 . S
O84 Cd85 2.223 . S
O84 C92 1.315 . S
Cd85 O84 2.223 . S
Cd85 O88 2.297 . S
Cd85 O89 2.439 . S
Cd85 O95 2.240 . S
Cd86 O87 2.240 . S
Cd86 O94 2.223 . S
Cd86 O96 2.297 . S
Cd86 O97 2.439 . S
O87 Cd86 2.240 . S
O87 C92 1.279 . S
O88 Cd85 2.297 . S
O88 C90 1.247 . S
O89 Cd85 2.439 . S
O89 C90 1.208 . S
C90 O88 1.247 . S
C90 O89 1.208 . S
C91 O96 1.247 . S
C91 O97 1.208 . S
C92 O84 1.315 . S
C92 O87 1.279 . S
C93 O94 1.315 . S
C93 O95 1.279 . S
O94 Cd86 2.223 . S
O94 C93 1.315 . S
O95 Cd85 2.240 . S
O95 C93 1.279 . S
O96 Cd86 2.297 . S
O96 C91 1.247 . S
O97 Cd86 2.439 . S
O97 C91 1.208 . S
O98 Cd99 2.223 . S
O98 C106 1.315 . S
Cd99 O98 2.223 . S
Cd99 O102 2.297 . S
Cd99 O103 2.439 . S
Cd99 O109 2.240 . S
Cd100 O101 2.240 . S
Cd100 O108 2.223 . S
Cd100 O110 2.297 . S
Cd100 O111 2.439 . S
O101 Cd100 2.240 . S
O101 C106 1.279 . S
O102 Cd99 2.297 . S
O102 C104 1.247 . S
O103 Cd99 2.439 . S
O103 C104 1.208 . S
C104 O102 1.247 . S
C104 O103 1.208 . S
C105 O110 1.247 . S
C105 O111 1.208 . S
C106 O98 1.315 . S
C106 O101 1.279 . S
C107 O108 1.315 . S
C107 O109 1.279 . S
O108 Cd100 2.223 . S
O108 C107 1.315 . S
O109 Cd99 2.240 . S
O109 C107 1.279 . S
O110 Cd100 2.297 . S
O110 C105 1.247 . S
O111 Cd100 2.439 . S
O111 C105 1.208 . S
O112 Cd113 2.223 . S
O112 C120 1.315 . S
Cd113 O112 2.223 . S
Cd113 O116 2.297 . S
Cd113 O117 2.439 . S
Cd113 O123 2.240 . S
Cd114 O115 2.240 . S
Cd114 O122 2.223 . S
Cd114 O124 2.297 . S
Cd114 O125 2.439 . S
O115 Cd114 2.240 . S
O115 C120 1.279 . S
O116 Cd113 2.297 . S
O116 C118 1.247 . S
O117 Cd113 2.439 . S
O117 C118 1.208 . S
C118 O116 1.247 . S
C118 O117 1.208 . S
C119 O124 1.247 . S
C119 O125 1.208 . S
C120 O112 1.315 . S
C120 O115 1.279 . S
C121 O122 1.315 . S
C121 O123 1.279 . S
O122 Cd114 2.223 . S
O122 C121 1.315 . S
O123 Cd113 2.240 . S
O123 C121 1.279 . S
O124 Cd114 2.297 . S
O124 C119 1.247 . S
O125 Cd114 2.439 . S
O125 C119 1.208 . S
O126 Cd127 2.223 . S
O126 C134 1.315 . S
Cd127 O126 2.223 . S
Cd127 O130 2.297 . S
Cd127 O131 2.439 . S
Cd127 O137 2.240 . S
Cd128 O129 2.240 . S
Cd128 O136 2.223 . S
Cd128 O138 2.297 . S
Cd128 O139 2.439 . S
O129 Cd128 2.240 . S
O129 C134 1.279 . S
O130 Cd127 2.297 . S
O130 C132 1.247 . S
O131 Cd127 2.439 . S
O131 C132 1.208 . S
C132 O130 1.247 . S
C132 O131 1.208 . S
C133 O138 1.247 . S
C133 O139 1.208 . S
C134 O126 1.315 . S
C134 O129 1.279 . S
C135 O136 1.315 . S
C135 O137 1.279 . S
O136 Cd128 2.223 . S
O136 C135 1.315 . S
O137 Cd127 2.240 . S
O137 C135 1.279 . S
O138 Cd128 2.297 . S
O138 C133 1.247 . S
O139 Cd128 2.439 . S
O139 C133 1.208 . S
O140 Cd141 2.223 . S
O140 C148 1.315 . S
Cd141 O140 2.223 . S
Cd141 O144 2.297 . S
Cd141 O145 2.439 . S
Cd141 O151 2.240 . S
Cd142 O143 2.240 . S
Cd142 O150 2.223 . S
Cd142 O152 2.297 . S
Cd142 O153 2.439 . S
O143 Cd142 2.240 . S
O143 C148 1.279 . S
O144 Cd141 2.297 . S
O144 C146 1.247 . S
O145 Cd141 2.439 . S
O145 C146 1.208 . S
C146 O144 1.247 . S
C146 O145 1.208 . S
C147 O152 1.247 . S
C147 O153 1.208 . S
C148 O140 1.315 . S
C148 O143 1.279 . S
C149 O150 1.315 . S
C149 O151 1.279 . S
O150 Cd142 2.223 . S
O150 C149 1.315 . S
O151 Cd141 2.240 . S
O151 C149 1.279 . S
O152 Cd142 2.297 . S
O152 C147 1.247 . S
O153 Cd142 2.439 . S
O153 C147 1.208 . S
O154 Cd155 2.223 . S
O154 C162 1.315 . S
Cd155 O154 2.223 . S
Cd155 O158 2.297 . S
Cd155 O159 2.439 . S
Cd155 O165 2.240 . S
Cd156 O157 2.240 . S
Cd156 O164 2.223 . S
Cd156 O166 2.297 . S
Cd156 O167 2.439 . S
O157 Cd156 2.240 . S
O157 C162 1.279 . S
O158 Cd155 2.297 . S
O158 C160 1.247 . S
O159 Cd155 2.439 . S
O159 C160 1.208 . S
C160 O158 1.247 . S
C160 O159 1.208 . S
C161 O166 1.247 . S
C161 O167 1.208 . S
C162 O154 1.315 . S
C162 O157 1.279 . S
C163 O164 1.315 . S
C163 O165 1.279 . S
O164 Cd156 2.223 . S
O164 C163 1.315 . S
O165 Cd155 2.240 . S
O165 C163 1.279 . S
O166 Cd156 2.297 . S
O166 C161 1.247 . S
O167 Cd156 2.439 . S
O167 C161 1.208 . S
O168 Cd169 2.217 1_455 S
O168 C176 1.352 . S
Cd169 O168 2.217 1_655 S
Cd169 O172 2.297 . S
Cd169 O173 2.439 1_655 S
Cd169 O179 2.240 1_655 S
Cd170 O171 2.240 . S
Cd170 O178 2.223 . S
Cd170 O180 2.297 . S
Cd170 O181 2.439 . S
O171 Cd170 2.240 . S
O171 C176 1.279 . S
O172 Cd169 2.297 . S
O172 C174 1.247 1_655 S
O173 Cd169 2.439 1_455 S
O173 C174 1.208 . S
C174 O172 1.247 1_455 S
C174 O173 1.208 . S
C175 O180 1.247 . S
C175 O181 1.208 . S
C176 O168 1.352 . S
C176 O171 1.279 . S
C177 O178 1.315 . S
C177 O179 1.279 . S
O178 Cd170 2.223 . S
O178 C177 1.315 . S
O179 Cd169 2.240 1_455 S
O179 C177 1.279 . S
O180 Cd170 2.297 . S
O180 C175 1.247 . S
O181 Cd170 2.439 . S
O181 C175 1.208 . S
O182 Cd183 2.223 . S
O182 C190 1.315 . S
Cd183 O182 2.223 . S
Cd183 O186 2.297 . S
Cd183 O187 2.439 . S
Cd183 O193 2.240 . S
Cd184 O185 2.240 . S
Cd184 O192 2.223 . S
Cd184 O194 2.297 . S
Cd184 O195 2.439 . S
O185 Cd184 2.240 . S
O185 C190 1.279 . S
O186 Cd183 2.297 . S
O186 C188 1.247 . S
O187 Cd183 2.439 . S
O187 C188 1.208 . S
C188 O186 1.247 . S
C188 O187 1.208 . S
C189 O194 1.247 . S
C189 O195 1.208 . S
C190 O182 1.315 . S
C190 O185 1.279 . S
C191 O192 1.315 . S
C191 O193 1.279 . S
O192 Cd184 2.223 . S
O192 C191 1.315 . S
O193 Cd183 2.240 . S
O193 C191 1.279 . S
O194 Cd184 2.297 . S
O194 C189 1.247 . S
O195 Cd184 2.439 . S
O195 C189 1.208 . S
O196 Cd197 2.221 1_565 S
O196 C204 1.350 . S
Cd197 O196 2.221 1_545 S
Cd197 O200 2.297 . S
Cd197 O201 2.439 1_545 S
Cd197 O207 2.240 1_545 S
Cd198 O199 2.240 . S
Cd198 O206 2.223 . S
Cd198 O208 2.297 . S
Cd198 O209 2.439 . S
O199 Cd198 2.240 . S
O199 C204 1.279 . S
O200 Cd197 2.297 . S
O200 C202 1.247 1_545 S
O201 Cd197 2.439 1_565 S
O201 C202 1.208 . S
C202 O200 1.247 1_565 S
C202 O201 1.208 . S
C203 O208 1.247 . S
C203 O209 1.208 . S
C204 O196 1.350 . S
C204 O199 1.279 . S
C205 O206 1.315 . S
C205 O207 1.279 . S
O206 Cd198 2.223 . S
O206 C205 1.315 . S
O207 Cd197 2.240 1_565 S
O207 C205 1.279 . S
O208 Cd198 2.297 . S
O208 C203 1.247 . S
O209 Cd198 2.439 . S
O209 C203 1.208 . S
O210 Cd211 2.223 . S
O210 C218 1.315 . S
Cd211 O210 2.223 . S
Cd211 O214 2.297 . S
Cd211 O215 2.439 . S
Cd211 O221 2.240 . S
Cd212 O213 2.240 . S
Cd212 O220 2.223 . S
Cd212 O222 2.297 . S
Cd212 O223 2.439 . S
O213 Cd212 2.240 . S
O213 C218 1.279 . S
O214 Cd211 2.297 . S
O214 C216 1.247 . S
O215 Cd211 2.439 . S
O215 C216 1.208 . S
C216 O214 1.247 . S
C216 O215 1.208 . S
C217 O222 1.247 . S
C217 O223 1.208 . S
C218 O210 1.315 . S
C218 O213 1.279 . S
C219 O220 1.315 . S
C219 O221 1.279 . S
O220 Cd212 2.223 . S
O220 C219 1.315 . S
O221 Cd211 2.240 . S
O221 C219 1.279 . S
O222 Cd212 2.297 . S
O222 C217 1.247 . S
O223 Cd212 2.439 . S
O223 C217 1.208 . S
O224 Cd225 2.223 . S
O224 C232 1.315 . S
Cd225 O224 2.223 . S
Cd225 O228 2.297 . S
Cd225 O229 2.439 . S
Cd225 O235 2.240 . S
Cd226 O227 2.240 . S
Cd226 O234 2.223 . S
Cd226 O236 2.297 . S
Cd226 O237 2.439 . S
O227 Cd226 2.240 . S
O227 C232 1.279 . S
O228 Cd225 2.297 . S
O228 C230 1.247 . S
O229 Cd225 2.439 . S
O229 C230 1.208 . S
C230 O228 1.247 . S
C230 O229 1.208 . S
C231 O236 1.247 . S
C231 O237 1.208 . S
C232 O224 1.315 . S
C232 O227 1.279 . S
C233 O234 1.315 . S
C233 O235 1.279 . S
O234 Cd226 2.223 . S
O234 C233 1.315 . S
O235 Cd225 2.240 . S
O235 C233 1.279 . S
O236 Cd226 2.297 . S
O236 C231 1.247 . S
O237 Cd226 2.439 . S
O237 C231 1.208 . S
O238 Cd239 2.223 . S
O238 C246 1.315 . S
Cd239 O238 2.223 . S
Cd239 O242 2.297 . S
Cd239 O243 2.439 . S
Cd239 O249 2.240 . S
Cd240 O241 2.240 . S
Cd240 O248 2.223 . S
Cd240 O250 2.297 . S
Cd240 O251 2.439 . S
O241 Cd240 2.240 . S
O241 C246 1.279 . S
O242 Cd239 2.297 . S
O242 C244 1.247 . S
O243 Cd239 2.439 . S
O243 C244 1.208 . S
C244 O242 1.247 . S
C244 O243 1.208 . S
C245 O250 1.247 . S
C245 O251 1.208 . S
C246 O238 1.315 . S
C246 O241 1.279 . S
C247 O248 1.315 . S
C247 O249 1.279 . S
O248 Cd240 2.223 . S
O248 C247 1.315 . S
O249 Cd239 2.240 . S
O249 C247 1.279 . S
O250 Cd240 2.297 . S
O250 C245 1.247 . S
O251 Cd240 2.439 . S
O251 C245 1.208 . S
O252 Cd253 2.223 . S
O252 C260 1.315 . S
Cd253 O252 2.223 . S
Cd253 O256 2.297 . S
Cd253 O257 2.439 . S
Cd253 O263 2.240 . S
Cd254 O255 2.240 . S
Cd254 O262 2.223 . S
Cd254 O264 2.297 . S
Cd254 O265 2.439 . S
O255 Cd254 2.240 . S
O255 C260 1.279 . S
O256 Cd253 2.297 . S
O256 C258 1.247 . S
O257 Cd253 2.439 . S
O257 C258 1.208 . S
C258 O256 1.247 . S
C258 O257 1.208 . S
C259 O264 1.247 . S
C259 O265 1.208 . S
C260 O252 1.315 . S
C260 O255 1.279 . S
C261 O262 1.315 . S
C261 O263 1.279 . S
O262 Cd254 2.223 . S
O262 C261 1.315 . S
O263 Cd253 2.240 . S
O263 C261 1.279 . S
O264 Cd254 2.297 . S
O264 C259 1.247 . S
O265 Cd254 2.439 . S
O265 C259 1.208 . S
O266 Cd267 2.223 . S
O266 C274 1.315 . S
Cd267 O266 2.223 . S
Cd267 O270 2.297 . S
Cd267 O271 2.439 . S
Cd267 O277 2.240 . S
Cd268 O269 2.240 . S
Cd268 O276 2.223 . S
Cd268 O278 2.297 . S
Cd268 O279 2.439 . S
O269 Cd268 2.240 . S
O269 C274 1.279 . S
O270 Cd267 2.297 . S
O270 C272 1.247 . S
O271 Cd267 2.439 . S
O271 C272 1.208 . S
C272 O270 1.247 . S
C272 O271 1.208 . S
C273 O278 1.247 . S
C273 O279 1.208 . S
C274 O266 1.315 . S
C274 O269 1.279 . S
C275 O276 1.315 . S
C275 O277 1.279 . S
O276 Cd268 2.223 . S
O276 C275 1.315 . S
O277 Cd267 2.240 . S
O277 C275 1.279 . S
O278 Cd268 2.297 . S
O278 C273 1.247 . S
O279 Cd268 2.439 . S
O279 C273 1.208 . S
O280 Cd281 2.223 . S
O280 C288 1.315 . S
Cd281 O280 2.223 . S
Cd281 O284 2.297 . S
Cd281 O285 2.439 . S
Cd281 O291 2.240 . S
Cd282 O283 2.240 . S
Cd282 O290 2.223 . S
Cd282 O292 2.297 . S
Cd282 O293 2.439 . S
O283 Cd282 2.240 . S
O283 C288 1.279 . S
O284 Cd281 2.297 . S
O284 C286 1.247 . S
O285 Cd281 2.439 . S
O285 C286 1.208 . S
C286 O284 1.247 . S
C286 O285 1.208 . S
C287 O292 1.247 . S
C287 O293 1.208 . S
C288 O280 1.315 . S
C288 O283 1.279 . S
C289 O290 1.315 . S
C289 O291 1.279 . S
O290 Cd282 2.223 . S
O290 C289 1.315 . S
O291 Cd281 2.240 . S
O291 C289 1.279 . S
O292 Cd282 2.297 . S
O292 C287 1.247 . S
O293 Cd282 2.439 . S
O293 C287 1.208 . S
O294 Cd295 2.217 1_565 S
O294 C302 1.352 . S
Cd295 O294 2.217 1_545 S
Cd295 O298 2.297 . S
Cd295 O299 2.439 1_545 S
Cd295 O305 2.240 1_545 S
Cd296 O297 2.240 . S
Cd296 O304 2.223 . S
Cd296 O306 2.297 . S
Cd296 O307 2.439 . S
O297 Cd296 2.240 . S
O297 C302 1.279 . S
O298 Cd295 2.297 . S
O298 C300 1.247 1_545 S
O299 Cd295 2.439 1_565 S
O299 C300 1.208 . S
C300 O298 1.247 1_565 S
C300 O299 1.208 . S
C301 O306 1.247 . S
C301 O307 1.208 . S
C302 O294 1.352 . S
C302 O297 1.279 . S
C303 O304 1.315 . S
C303 O305 1.279 . S
O304 Cd296 2.223 . S
O304 C303 1.315 . S
O305 Cd295 2.240 1_565 S
O305 C303 1.279 . S
O306 Cd296 2.297 . S
O306 C301 1.247 . S
O307 Cd296 2.439 . S
O307 C301 1.208 . S
O308 Cd309 2.221 1_455 S
O308 C316 1.350 . S
Cd309 O308 2.221 1_655 S
Cd309 O312 2.297 . S
Cd309 O313 2.439 1_655 S
Cd309 O319 2.240 1_655 S
Cd310 O311 2.240 . S
Cd310 O318 2.223 . S
Cd310 O320 2.297 . S
Cd310 O321 2.439 . S
O311 Cd310 2.240 . S
O311 C316 1.279 . S
O312 Cd309 2.297 . S
O312 C314 1.247 1_655 S
O313 Cd309 2.439 1_455 S
O313 C314 1.208 . S
C314 O312 1.247 1_455 S
C314 O313 1.208 . S
C315 O320 1.247 . S
C315 O321 1.208 . S
C316 O308 1.350 . S
C316 O311 1.279 . S
C317 O318 1.315 . S
C317 O319 1.279 . S
O318 Cd310 2.223 . S
O318 C317 1.315 . S
O319 Cd309 2.240 1_455 S
O319 C317 1.279 . S
O320 Cd310 2.297 . S
O320 C315 1.247 . S
O321 Cd310 2.439 . S
O321 C315 1.208 . S
O322 Cd323 2.223 . S
O322 C330 1.315 . S
Cd323 O322 2.223 . S
Cd323 O326 2.297 . S
Cd323 O327 2.439 . S
Cd323 O333 2.240 . S
Cd324 O325 2.240 . S
Cd324 O332 2.223 . S
Cd324 O334 2.297 . S
Cd324 O335 2.439 . S
O325 Cd324 2.240 . S
O325 C330 1.279 . S
O326 Cd323 2.297 . S
O326 C328 1.247 . S
O327 Cd323 2.439 . S
O327 C328 1.208 . S
C328 O326 1.247 . S
C328 O327 1.208 . S
C329 O334 1.247 . S
C329 O335 1.208 . S
C330 O322 1.315 . S
C330 O325 1.279 . S
C331 O332 1.315 . S
C331 O333 1.279 . S
O332 Cd324 2.223 . S
O332 C331 1.315 . S
O333 Cd323 2.240 . S
O333 C331 1.279 . S
O334 Cd324 2.297 . S
O334 C329 1.247 . S
O335 Cd324 2.439 . S
O335 C329 1.208 . S
O336 Cd337 2.223 . S
O336 C344 1.315 . S
Cd337 O336 2.223 . S
Cd337 O340 2.297 . S
Cd337 O341 2.439 . S
Cd337 O347 2.240 . S
Cd338 O339 2.240 . S
Cd338 O346 2.223 . S
Cd338 O348 2.297 . S
Cd338 O349 2.439 . S
O339 Cd338 2.240 . S
O339 C344 1.279 . S
O340 Cd337 2.297 . S
O340 C342 1.247 . S
O341 Cd337 2.439 . S
O341 C342 1.208 . S
C342 O340 1.247 . S
C342 O341 1.208 . S
C343 O348 1.247 . S
C343 O349 1.208 . S
C344 O336 1.315 . S
C344 O339 1.279 . S
C345 O346 1.315 . S
C345 O347 1.279 . S
O346 Cd338 2.223 . S
O346 C345 1.315 . S
O347 Cd337 2.240 . S
O347 C345 1.279 . S
O348 Cd338 2.297 . S
O348 C343 1.247 . S
O349 Cd338 2.439 . S
O349 C343 1.208 . S
O350 Cd351 2.223 . S
O350 C358 1.315 . S
Cd351 O350 2.223 . S
Cd351 O354 2.297 . S
Cd351 O355 2.439 . S
Cd351 O361 2.240 . S
Cd352 O353 2.240 . S
Cd352 O360 2.223 . S
Cd352 O362 2.297 . S
Cd352 O363 2.439 . S
O353 Cd352 2.240 . S
O353 C358 1.279 . S
O354 Cd351 2.297 . S
O354 C356 1.247 . S
O355 Cd351 2.439 . S
O355 C356 1.208 . S
C356 O354 1.247 . S
C356 O355 1.208 . S
C357 O362 1.247 . S
C357 O363 1.208 . S
C358 O350 1.315 . S
C358 O353 1.279 . S
C359 O360 1.315 . S
C359 O361 1.279 . S
O360 Cd352 2.223 . S
O360 C359 1.315 . S
O361 Cd351 2.240 . S
O361 C359 1.279 . S
O362 Cd352 2.297 . S
O362 C357 1.247 . S
O363 Cd352 2.439 . S
O363 C357 1.208 . S
O364 Cd365 2.223 . S
O364 C372 1.315 . S
Cd365 O364 2.223 . S
Cd365 O368 2.297 . S
Cd365 O369 2.439 . S
Cd365 O375 2.240 . S
Cd366 O367 2.240 . S
Cd366 O374 2.223 . S
Cd366 O376 2.297 . S
Cd366 O377 2.439 . S
O367 Cd366 2.240 . S
O367 C372 1.279 . S
O368 Cd365 2.297 . S
O368 C370 1.247 . S
O369 Cd365 2.439 . S
O369 C370 1.208 . S
C370 O368 1.247 . S
C370 O369 1.208 . S
C371 O376 1.247 . S
C371 O377 1.208 . S
C372 O364 1.315 . S
C372 O367 1.279 . S
C373 O374 1.315 . S
C373 O375 1.279 . S
O374 Cd366 2.223 . S
O374 C373 1.315 . S
O375 Cd365 2.240 . S
O375 C373 1.279 . S
O376 Cd366 2.297 . S
O376 C371 1.247 . S
O377 Cd366 2.439 . S
O377 C371 1.208 . S
O378 Cd379 2.217 1_545 S
O378 C386 1.352 . S
Cd379 O378 2.217 1_565 S
Cd379 O382 2.297 . S
Cd379 O383 2.439 1_565 S
Cd379 O389 2.240 1_565 S
Cd380 O381 2.240 . S
Cd380 O388 2.223 . S
Cd380 O390 2.297 . S
Cd380 O391 2.439 . S
O381 Cd380 2.240 . S
O381 C386 1.279 . S
O382 Cd379 2.297 . S
O382 C384 1.247 1_565 S
O383 Cd379 2.439 1_545 S
O383 C384 1.208 . S
C384 O382 1.247 1_545 S
C384 O383 1.208 . S
C385 O390 1.247 . S
C385 O391 1.208 . S
C386 O378 1.352 . S
C386 O381 1.279 . S
C387 O388 1.315 . S
C387 O389 1.279 . S
O388 Cd380 2.223 . S
O388 C387 1.315 . S
O389 Cd379 2.240 1_545 S
O389 C387 1.279 . S
O390 Cd380 2.297 . S
O390 C385 1.247 . S
O391 Cd380 2.439 . S
O391 C385 1.208 . S
O392 Cd393 2.221 1_655 S
O392 C400 1.350 . S
Cd393 O392 2.221 1_455 S
Cd393 O396 2.297 . S
Cd393 O397 2.439 1_455 S
Cd393 O403 2.240 1_455 S
Cd394 O395 2.240 . S
Cd394 O402 2.223 . S
Cd394 O404 2.297 . S
Cd394 O405 2.439 . S
O395 Cd394 2.240 . S
O395 C400 1.279 . S
O396 Cd393 2.297 . S
O396 C398 1.247 1_455 S
O397 Cd393 2.439 1_655 S
O397 C398 1.208 . S
C398 O396 1.247 1_655 S
C398 O397 1.208 . S
C399 O404 1.247 . S
C399 O405 1.208 . S
C400 O392 1.350 . S
C400 O395 1.279 . S
C401 O402 1.315 . S
C401 O403 1.279 . S
O402 Cd394 2.223 . S
O402 C401 1.315 . S
O403 Cd393 2.240 1_655 S
O403 C401 1.279 . S
O404 Cd394 2.297 . S
O404 C399 1.247 . S
O405 Cd394 2.439 . S
O405 C399 1.208 . S
O406 Cd407 2.223 . S
O406 C414 1.315 . S
Cd407 O406 2.223 . S
Cd407 O410 2.297 . S
Cd407 O411 2.439 . S
Cd407 O417 2.240 . S
Cd408 O409 2.240 . S
Cd408 O416 2.223 . S
Cd408 O418 2.297 . S
Cd408 O419 2.439 . S
O409 Cd408 2.240 . S
O409 C414 1.279 . S
O410 Cd407 2.297 . S
O410 C412 1.247 . S
O411 Cd407 2.439 . S
O411 C412 1.208 . S
C412 O410 1.247 . S
C412 O411 1.208 . S
C413 O418 1.247 . S
C413 O419 1.208 . S
C414 O406 1.315 . S
C414 O409 1.279 . S
C415 O416 1.315 . S
C415 O417 1.279 . S
O416 Cd408 2.223 . S
O416 C415 1.315 . S
O417 Cd407 2.240 . S
O417 C415 1.279 . S
O418 Cd408 2.297 . S
O418 C413 1.247 . S
O419 Cd408 2.439 . S
O419 C413 1.208 . S
O420 Cd421 2.217 1_655 S
O420 C428 1.352 . S
Cd421 O420 2.217 1_455 S
Cd421 O424 2.297 . S
Cd421 O425 2.439 1_455 S
Cd421 O431 2.240 1_455 S
Cd422 O423 2.240 . S
Cd422 O430 2.223 . S
Cd422 O432 2.297 . S
Cd422 O433 2.439 . S
O423 Cd422 2.240 . S
O423 C428 1.279 . S
O424 Cd421 2.297 . S
O424 C426 1.247 1_455 S
O425 Cd421 2.439 1_655 S
O425 C426 1.208 . S
C426 O424 1.247 1_655 S
C426 O425 1.208 . S
C427 O432 1.247 . S
C427 O433 1.208 . S
C428 O420 1.352 . S
C428 O423 1.279 . S
C429 O430 1.315 . S
C429 O431 1.279 . S
O430 Cd422 2.223 . S
O430 C429 1.315 . S
O431 Cd421 2.240 1_655 S
O431 C429 1.279 . S
O432 Cd422 2.297 . S
O432 C427 1.247 . S
O433 Cd422 2.439 . S
O433 C427 1.208 . S
O434 Cd435 2.223 . S
O434 C442 1.315 . S
Cd435 O434 2.223 . S
Cd435 O438 2.297 . S
Cd435 O439 2.439 . S
Cd435 O445 2.240 . S
Cd436 O437 2.240 . S
Cd436 O444 2.223 . S
Cd436 O446 2.297 . S
Cd436 O447 2.439 . S
O437 Cd436 2.240 . S
O437 C442 1.279 . S
O438 Cd435 2.297 . S
O438 C440 1.247 . S
O439 Cd435 2.439 . S
O439 C440 1.208 . S
C440 O438 1.247 . S
C440 O439 1.208 . S
C441 O446 1.247 . S
C441 O447 1.208 . S
C442 O434 1.315 . S
C442 O437 1.279 . S
C443 O444 1.315 . S
C443 O445 1.279 . S
O444 Cd436 2.223 . S
O444 C443 1.315 . S
O445 Cd435 2.240 . S
O445 C443 1.279 . S
O446 Cd436 2.297 . S
O446 C441 1.247 . S
O447 Cd436 2.439 . S
O447 C441 1.208 . S
O448 Cd449 2.221 1_545 S
O448 C456 1.350 . S
Cd449 O448 2.221 1_565 S
Cd449 O452 2.297 . S
Cd449 O453 2.439 1_565 S
Cd449 O459 2.240 1_565 S
Cd450 O451 2.240 . S
Cd450 O458 2.223 . S
Cd450 O460 2.297 . S
Cd450 O461 2.439 . S
O451 Cd450 2.240 . S
O451 C456 1.279 . S
O452 Cd449 2.297 . S
O452 C454 1.247 1_565 S
O453 Cd449 2.439 1_545 S
O453 C454 1.208 . S
C454 O452 1.247 1_545 S
C454 O453 1.208 . S
C455 O460 1.247 . S
C455 O461 1.208 . S
C456 O448 1.350 . S
C456 O451 1.279 . S
C457 O458 1.315 . S
C457 O459 1.279 . S
O458 Cd450 2.223 . S
O458 C457 1.315 . S
O459 Cd449 2.240 1_545 S
O459 C457 1.279 . S
O460 Cd450 2.297 . S
O460 C455 1.247 . S
O461 Cd450 2.439 . S
O461 C455 1.208 . S
O462 Cd463 2.223 . S
O462 C470 1.315 . S
Cd463 O462 2.223 . S
Cd463 O466 2.297 . S
Cd463 O467 2.439 . S
Cd463 O473 2.240 . S
Cd464 O465 2.240 . S
Cd464 O472 2.223 . S
Cd464 O474 2.297 . S
Cd464 O475 2.439 . S
O465 Cd464 2.240 . S
O465 C470 1.279 . S
O466 Cd463 2.297 . S
O466 C468 1.247 . S
O467 Cd463 2.439 . S
O467 C468 1.208 . S
C468 O466 1.247 . S
C468 O467 1.208 . S
C469 O474 1.247 . S
C469 O475 1.208 . S
C470 O462 1.315 . S
C470 O465 1.279 . S
C471 O472 1.315 . S
C471 O473 1.279 . S
O472 Cd464 2.223 . S
O472 C471 1.315 . S
O473 Cd463 2.240 . S
O473 C471 1.279 . S
O474 Cd464 2.297 . S
O474 C469 1.247 . S
O475 Cd464 2.439 . S
O475 C469 1.208 . S
O476 Cd477 2.223 . S
O476 C484 1.315 . S
Cd477 O476 2.223 . S
Cd477 O480 2.297 . S
Cd477 O481 2.439 . S
Cd477 O487 2.240 . S
Cd478 O479 2.240 . S
Cd478 O486 2.223 . S
Cd478 O488 2.297 . S
Cd478 O489 2.439 . S
O479 Cd478 2.240 . S
O479 C484 1.279 . S
O480 Cd477 2.297 . S
O480 C482 1.247 . S
O481 Cd477 2.439 . S
O481 C482 1.208 . S
C482 O480 1.247 . S
C482 O481 1.208 . S
C483 O488 1.247 . S
C483 O489 1.208 . S
C484 O476 1.315 . S
C484 O479 1.279 . S
C485 O486 1.315 . S
C485 O487 1.279 . S
O486 Cd478 2.223 . S
O486 C485 1.315 . S
O487 Cd477 2.240 . S
O487 C485 1.279 . S
O488 Cd478 2.297 . S
O488 C483 1.247 . S
O489 Cd478 2.439 . S
O489 C483 1.208 . S
O490 Cd491 2.223 . S
O490 C498 1.315 . S
Cd491 O490 2.223 . S
Cd491 O494 2.297 . S
Cd491 O495 2.439 . S
Cd491 O501 2.240 . S
Cd492 O493 2.240 . S
Cd492 O500 2.223 . S
Cd492 O502 2.297 . S
Cd492 O503 2.439 . S
O493 Cd492 2.240 . S
O493 C498 1.279 . S
O494 Cd491 2.297 . S
O494 C496 1.247 . S
O495 Cd491 2.439 . S
O495 C496 1.208 . S
C496 O494 1.247 . S
C496 O495 1.208 . S
C497 O502 1.247 . S
C497 O503 1.208 . S
C498 O490 1.315 . S
C498 O493 1.279 . S
C499 O500 1.315 . S
C499 O501 1.279 . S
O500 Cd492 2.223 . S
O500 C499 1.315 . S
O501 Cd491 2.240 . S
O501 C499 1.279 . S
O502 Cd492 2.297 . S
O502 C497 1.247 . S
O503 Cd492 2.439 . S
O503 C497 1.208 . S
H504 C512 0.950 . S
H505 C517 0.950 . S
H506 C514 0.950 . S
H507 C516 0.950 . S
H508 C518 0.950 . S
H509 C520 0.950 . S
H510 C522 0.950 . S
H511 C523 0.950 . S
C512 H504 0.950 . S
C512 C513 1.386 . S
C512 C514 1.391 . S
C513 C512 1.386 . S
C513 C517 1.393 . S
C514 H506 0.950 . S
C514 C512 1.391 . S
C514 C515 1.400 . S
C515 C514 1.400 . S
C515 C516 1.398 . S
C515 C521 1.491 1_565 S
C516 H507 0.950 . S
C516 C515 1.398 . S
C516 C517 1.391 . S
C517 H505 0.950 . S
C517 C513 1.393 . S
C517 C516 1.391 . S
C518 H508 0.950 . S
C518 C519 1.386 . S
C518 C520 1.391 . S
C519 C518 1.386 . S
C519 C523 1.393 . S
C520 H509 0.950 . S
C520 C518 1.391 . S
C520 C521 1.400 . S
C521 C515 1.491 1_545 S
C521 C520 1.400 . S
C521 C522 1.398 . S
C522 H510 0.950 . S
C522 C521 1.398 . S
C522 C523 1.391 . S
C523 H511 0.950 . S
C523 C519 1.393 . S
C523 C522 1.391 . S
H524 C532 0.950 . S
H525 C537 0.950 . S
H526 C534 0.950 . S
H527 C536 0.950 . S
H528 C538 0.950 . S
H529 C540 0.950 . S
H530 C542 0.950 . S
H531 C543 0.950 . S
C532 H524 0.950 . S
C532 C533 1.386 . S
C532 C534 1.391 . S
C533 C532 1.386 . S
C533 C537 1.393 . S
C534 H526 0.950 . S
C534 C532 1.391 . S
C534 C535 1.400 . S
C535 C534 1.400 . S
C535 C536 1.398 . S
C535 C541 1.491 1_455 S
C536 H527 0.950 . S
C536 C535 1.398 . S
C536 C537 1.391 . S
C537 H525 0.950 . S
C537 C533 1.393 . S
C537 C536 1.391 . S
C538 H528 0.950 . S
C538 C539 1.386 . S
C538 C540 1.391 . S
C539 C538 1.386 . S
C539 C543 1.393 . S
C540 H529 0.950 . S
C540 C538 1.391 . S
C540 C541 1.400 . S
C541 C535 1.491 1_655 S
C541 C540 1.400 . S
C541 C542 1.398 . S
C542 H530 0.950 . S
C542 C541 1.398 . S
C542 C543 1.391 . S
C543 H531 0.950 . S
C543 C539 1.393 . S
C543 C542 1.391 . S
H544 C552 0.950 . S
H545 C557 0.950 . S
H546 C554 0.950 . S
H547 C556 0.950 . S
H548 C558 0.950 . S
H549 C560 0.950 . S
H550 C562 0.950 . S
H551 C563 0.950 . S
C552 H544 0.950 . S
C552 C553 1.386 . S
C552 C554 1.391 . S
C553 C552 1.386 . S
C553 C557 1.393 . S
C554 H546 0.950 . S
C554 C552 1.391 . S
C554 C555 1.400 . S
C555 C554 1.400 . S
C555 C556 1.398 . S
C555 C561 1.491 . S
C556 H547 0.950 . S
C556 C555 1.398 . S
C556 C557 1.391 . S
C557 H545 0.950 . S
C557 C553 1.393 . S
C557 C556 1.391 . S
C558 H548 0.950 . S
C558 C559 1.386 . S
C558 C560 1.391 . S
C559 C558 1.386 . S
C559 C563 1.393 . S
C560 H549 0.950 . S
C560 C558 1.391 . S
C560 C561 1.400 . S
C561 C555 1.491 . S
C561 C560 1.400 . S
C561 C562 1.398 . S
C562 H550 0.950 . S
C562 C561 1.398 . S
C562 C563 1.391 . S
C563 H551 0.950 . S
C563 C559 1.393 . S
C563 C562 1.391 . S
H564 C572 0.950 . S
H565 C577 0.950 . S
H566 C574 0.950 . S
H567 C576 0.950 . S
H568 C578 0.950 . S
H569 C580 0.950 . S
H570 C582 0.950 . S
H571 C583 0.950 . S
C572 H564 0.950 . S
C572 C573 1.386 . S
C572 C574 1.391 . S
C573 C572 1.386 . S
C573 C577 1.393 . S
C574 H566 0.950 . S
C574 C572 1.391 . S
C574 C575 1.400 . S
C575 C574 1.400 . S
C575 C576 1.398 . S
C575 C581 1.491 1_565 S
C576 H567 0.950 . S
C576 C575 1.398 . S
C576 C577 1.391 . S
C577 H565 0.950 . S
C577 C573 1.393 . S
C577 C576 1.391 . S
C578 H568 0.950 . S
C578 C579 1.386 . S
C578 C580 1.391 . S
C579 C578 1.386 . S
C579 C583 1.393 . S
C580 H569 0.950 . S
C580 C578 1.391 . S
C580 C581 1.400 . S
C581 C575 1.491 1_545 S
C581 C580 1.400 . S
C581 C582 1.398 . S
C582 H570 0.950 . S
C582 C581 1.398 . S
C582 C583 1.391 . S
C583 H571 0.950 . S
C583 C579 1.393 . S
C583 C582 1.391 . S
H584 C592 0.950 . S
H585 C597 0.950 . S
H586 C594 0.950 . S
H587 C596 0.950 . S
H588 C598 0.950 . S
H589 C600 0.950 . S
H590 C602 0.950 . S
H591 C603 0.950 . S
C592 H584 0.950 . S
C592 C593 1.386 . S
C592 C594 1.391 . S
C593 C592 1.386 . S
C593 C597 1.393 . S
C594 H586 0.950 . S
C594 C592 1.391 . S
C594 C595 1.400 . S
C595 C594 1.400 . S
C595 C596 1.398 . S
C595 C601 1.491 1_455 S
C596 H587 0.950 . S
C596 C595 1.398 . S
C596 C597 1.391 . S
C597 H585 0.950 . S
C597 C593 1.393 . S
C597 C596 1.391 . S
C598 H588 0.950 . S
C598 C599 1.386 . S
C598 C600 1.391 . S
C599 C598 1.386 . S
C599 C603 1.393 . S
C600 H589 0.950 . S
C600 C598 1.391 . S
C600 C601 1.400 . S
C601 C595 1.491 1_655 S
C601 C600 1.400 . S
C601 C602 1.398 . S
C602 H590 0.950 . S
C602 C601 1.398 . S
C602 C603 1.391 . S
C603 H591 0.950 . S
C603 C599 1.393 . S
C603 C602 1.391 . S
H604 C612 0.950 . S
H605 C617 0.950 . S
H606 C614 0.950 . S
H607 C616 0.950 . S
H608 C618 0.950 . S
H609 C620 0.950 . S
H610 C622 0.950 . S
H611 C623 0.950 . S
C612 H604 0.950 . S
C612 C613 1.386 . S
C612 C614 1.391 . S
C613 C612 1.386 . S
C613 C617 1.393 . S
C614 H606 0.950 . S
C614 C612 1.391 . S
C614 C615 1.400 . S
C615 C614 1.400 . S
C615 C616 1.398 . S
C615 C621 1.491 . S
C616 H607 0.950 . S
C616 C615 1.398 . S
C616 C617 1.391 . S
C617 H605 0.950 . S
C617 C613 1.393 . S
C617 C616 1.391 . S
C618 H608 0.950 . S
C618 C619 1.386 . S
C618 C620 1.391 . S
C619 C618 1.386 . S
C619 C623 1.393 . S
C620 H609 0.950 . S
C620 C618 1.391 . S
C620 C621 1.400 . S
C621 C615 1.491 . S
C621 C620 1.400 . S
C621 C622 1.398 . S
C622 H610 0.950 . S
C622 C621 1.398 . S
C622 C623 1.391 . S
C623 H611 0.950 . S
C623 C619 1.393 . S
C623 C622 1.391 . S
H624 C632 0.950 . S
H625 C637 0.950 . S
H626 C634 0.950 . S
H627 C636 0.950 . S
H628 C638 0.950 . S
H629 C640 0.950 . S
H630 C642 0.950 . S
H631 C643 0.950 . S
C632 H624 0.950 . S
C632 C633 1.386 . S
C632 C634 1.391 . S
C633 C632 1.386 . S
C633 C637 1.393 1_655 S
C634 H626 0.950 . S
C634 C632 1.391 . S
C634 C635 1.400 . S
C635 C634 1.400 . S
C635 C636 1.398 . S
C635 C641 1.491 . S
C636 H627 0.950 . S
C636 C635 1.398 . S
C636 C637 1.391 1_655 S
C637 H625 0.950 . S
C637 C633 1.393 1_455 S
C637 C636 1.391 1_455 S
C638 H628 0.950 . S
C638 C639 1.386 . S
C638 C640 1.391 . S
C639 C638 1.386 . S
C639 C643 1.393 . S
C640 H629 0.950 . S
C640 C638 1.391 . S
C640 C641 1.400 . S
C641 C635 1.491 . S
C641 C640 1.400 . S
C641 C642 1.398 . S
C642 H630 0.950 . S
C642 C641 1.398 . S
C642 C643 1.391 . S
C643 H631 0.950 . S
C643 C639 1.393 . S
C643 C642 1.391 . S
H644 C652 0.950 . S
H645 C657 0.950 . S
H646 C654 0.950 . S
H647 C656 0.950 . S
H648 C658 0.950 . S
H649 C660 0.950 . S
H650 C662 0.950 . S
H651 C663 0.950 . S
C652 H644 0.950 . S
C652 C653 1.386 . S
C652 C654 1.391 . S
C653 C652 1.386 . S
C653 C657 1.393 . S
C654 H646 0.950 . S
C654 C652 1.391 . S
C654 C655 1.400 . S
C655 C654 1.400 . S
C655 C656 1.398 . S
C655 C661 1.491 . S
C656 H647 0.950 . S
C656 C655 1.398 . S
C656 C657 1.391 . S
C657 H645 0.950 . S
C657 C653 1.393 . S
C657 C656 1.391 . S
C658 H648 0.950 . S
C658 C659 1.386 . S
C658 C660 1.391 . S
C659 C658 1.386 . S
C659 C663 1.393 . S
C660 H649 0.950 . S
C660 C658 1.391 . S
C660 C661 1.400 . S
C661 C655 1.491 . S
C661 C660 1.400 . S
C661 C662 1.398 . S
C662 H650 0.950 . S
C662 C661 1.398 . S
C662 C663 1.391 . S
C663 H651 0.950 . S
C663 C659 1.393 . S
C663 C662 1.391 . S
H664 C672 0.950 . S
H665 C677 0.950 . S
H666 C674 0.950 . S
H667 C676 0.950 . S
H668 C678 0.950 . S
H669 C680 0.950 . S
H670 C682 0.950 . S
H671 C683 0.945 . S
C672 H664 0.950 . S
C672 C673 1.386 . S
C672 C674 1.391 . S
C673 C672 1.386 . S
C673 C677 1.393 . S
C674 H666 0.950 . S
C674 C672 1.391 . S
C674 C675 1.400 . S
C675 C674 1.400 . S
C675 C676 1.398 . S
C675 C681 1.491 . S
C676 H667 0.950 . S
C676 C675 1.398 . S
C676 C677 1.391 . S
C677 H665 0.950 . S
C677 C673 1.393 . S
C677 C676 1.391 . S
C678 H668 0.950 . S
C678 C679 1.386 . S
C678 C680 1.391 . S
C679 C678 1.386 . S
C679 C683 1.393 . S
C680 H669 0.950 . S
C680 C678 1.391 . S
C680 C681 1.400 . S
C681 C675 1.491 . S
C681 C680 1.400 . S
C681 C682 1.398 . S
C682 H670 0.950 . S
C682 C681 1.398 . S
C682 C683 1.391 . S
C683 H671 0.945 . S
C683 C679 1.393 . S
C683 C682 1.391 . S
H684 C692 0.950 . S
H685 C697 0.950 . S
H686 C694 0.950 . S
H687 C696 0.950 . S
H688 C698 0.950 . S
H689 C700 0.950 . S
H690 C702 0.950 . S
H691 C703 0.950 . S
C692 H684 0.950 . S
C692 C693 1.386 . S
C692 C694 1.391 . S
C693 C692 1.386 . S
C693 C697 1.393 . S
C694 H686 0.950 . S
C694 C692 1.391 . S
C694 C695 1.400 . S
C695 C694 1.400 . S
C695 C696 1.398 . S
C695 C701 1.491 . S
C696 H687 0.950 . S
C696 C695 1.398 . S
C696 C697 1.391 . S
C697 H685 0.950 . S
C697 C693 1.393 . S
C697 C696 1.391 . S
C698 H688 0.950 . S
C698 C699 1.386 . S
C698 C700 1.391 . S
C699 C698 1.386 . S
C699 C703 1.393 . S
C700 H689 0.950 . S
C700 C698 1.391 . S
C700 C701 1.400 . S
C701 C695 1.491 . S
C701 C700 1.400 . S
C701 C702 1.398 . S
C702 H690 0.950 . S
C702 C701 1.398 . S
C702 C703 1.391 . S
C703 H691 0.950 . S
C703 C699 1.393 . S
C703 C702 1.391 . S
H704 C712 0.950 1_565 S
H705 C717 0.950 . S
H706 C714 0.950 . S
H707 C716 0.950 . S
H708 C718 0.950 . S
H709 C720 0.950 . S
H710 C722 0.950 . S
H711 C723 0.950 . S
C712 H704 0.950 1_545 S
C712 C713 1.386 . S
C712 C714 1.391 . S
C713 C712 1.386 . S
C713 C717 1.393 . S
C714 H706 0.950 . S
C714 C712 1.391 . S
C714 C715 1.400 . S
C715 C714 1.400 . S
C715 C716 1.398 . S
C715 C721 1.491 . S
C716 H707 0.950 . S
C716 C715 1.398 . S
C716 C717 1.391 . S
C717 H705 0.950 . S
C717 C713 1.393 . S
C717 C716 1.391 . S
C718 H708 0.950 . S
C718 C719 1.386 . S
C718 C720 1.391 . S
C719 C718 1.386 . S
C719 C723 1.393 . S
C720 H709 0.950 . S
C720 C718 1.391 . S
C720 C721 1.400 . S
C721 C715 1.491 . S
C721 C720 1.400 . S
C721 C722 1.398 . S
C722 H710 0.950 . S
C722 C721 1.398 . S
C722 C723 1.391 . S
C723 H711 0.950 . S
C723 C719 1.393 . S
C723 C722 1.391 . S
H724 C732 0.950 . S
H725 C737 0.950 . S
H726 C734 0.950 . S
H727 C736 0.950 . S
H728 C738 0.950 . S
H729 C740 0.950 . S
H730 C742 0.950 . S
H731 C743 0.950 1_455 S
C732 H724 0.950 . S
C732 C733 1.386 . S
C732 C734 1.391 . S
C733 C732 1.386 . S
C733 C737 1.393 . S
C734 H726 0.950 . S
C734 C732 1.391 . S
C734 C735 1.400 . S
C735 C734 1.400 . S
C735 C736 1.398 . S
C735 C741 1.491 . S
C736 H727 0.950 . S
C736 C735 1.398 . S
C736 C737 1.391 . S
C737 H725 0.950 . S
C737 C733 1.393 . S
C737 C736 1.391 . S
C738 H728 0.950 . S
C738 C739 1.386 . S
C738 C740 1.391 . S
C739 C738 1.386 . S
C739 C743 1.393 . S
C740 H729 0.950 . S
C740 C738 1.391 . S
C740 C741 1.400 . S
C741 C735 1.491 . S
C741 C740 1.400 . S
C741 C742 1.398 . S
C742 H730 0.950 . S
C742 C741 1.398 . S
C742 C743 1.391 . S
C743 H731 0.950 1_655 S
C743 C739 1.393 . S
C743 C742 1.391 . S
H744 C752 0.950 . S
H745 C757 0.950 . S
H746 C754 0.950 . S
H747 C756 0.950 . S
H748 C758 0.950 . S
H749 C760 0.950 . S
H750 C762 0.950 . S
H751 C763 0.950 . S
C752 H744 0.950 . S
C752 C753 1.386 . S
C752 C754 1.391 . S
C753 C752 1.386 . S
C753 C757 1.393 . S
C754 H746 0.950 . S
C754 C752 1.391 . S
C754 C755 1.400 . S
C755 C754 1.400 . S
C755 C756 1.398 . S
C755 C761 1.491 . S
C756 H747 0.950 . S
C756 C755 1.398 . S
C756 C757 1.391 . S
C757 H745 0.950 . S
C757 C753 1.393 . S
C757 C756 1.391 . S
C758 H748 0.950 . S
C758 C759 1.386 . S
C758 C760 1.391 . S
C759 C758 1.386 . S
C759 C763 1.393 . S
C760 H749 0.950 . S
C760 C758 1.391 . S
C760 C761 1.400 . S
C761 C755 1.491 . S
C761 C760 1.400 . S
C761 C762 1.398 . S
C762 H750 0.950 . S
C762 C761 1.398 . S
C762 C763 1.391 . S
C763 H751 0.950 . S
C763 C759 1.393 . S
C763 C762 1.391 . S
H764 C772 0.950 . S
H765 C777 0.953 . S
H766 C774 0.950 . S
H767 C776 0.950 . S
H768 C778 0.950 . S
H769 C780 0.950 . S
H770 C782 0.950 . S
H771 C783 0.950 . S
C772 H764 0.950 . S
C772 C773 1.386 . S
C772 C774 1.391 . S
C773 C772 1.386 . S
C773 C777 1.390 1_565 S
C774 H766 0.950 . S
C774 C772 1.391 . S
C774 C775 1.400 . S
C775 C774 1.400 . S
C775 C776 1.398 . S
C775 C781 1.491 . S
C776 H767 0.950 . S
C776 C775 1.398 . S
C776 C777 1.391 1_565 S
C777 H765 0.953 . S
C777 C773 1.390 1_545 S
C777 C776 1.391 1_545 S
C778 H768 0.950 . S
C778 C779 1.386 . S
C778 C780 1.391 . S
C779 C778 1.386 . S
C779 C783 1.393 . S
C780 H769 0.950 . S
C780 C778 1.391 . S
C780 C781 1.400 . S
C781 C775 1.491 . S
C781 C780 1.400 . S
C781 C782 1.398 . S
C782 H770 0.950 . S
C782 C781 1.398 . S
C782 C783 1.391 . S
C783 H771 0.950 . S
C783 C779 1.393 . S
C783 C782 1.391 . S
H784 C792 0.950 . S
H785 C797 0.950 . S
H786 C794 0.950 . S
H787 C796 0.950 . S
H788 C798 0.950 . S
H789 C800 0.950 . S
H790 C802 0.950 . S
H791 C803 0.950 . S
C792 H784 0.950 . S
C792 C793 1.386 . S
C792 C794 1.391 . S
C793 C792 1.386 . S
C793 C797 1.393 . S
C794 H786 0.950 . S
C794 C792 1.391 . S
C794 C795 1.400 . S
C795 C794 1.400 . S
C795 C796 1.398 . S
C795 C801 1.491 . S
C796 H787 0.950 . S
C796 C795 1.398 . S
C796 C797 1.391 . S
C797 H785 0.950 . S
C797 C793 1.393 . S
C797 C796 1.391 . S
C798 H788 0.950 . S
C798 C799 1.386 1_655 S
C798 C800 1.391 1_655 S
C799 C798 1.386 1_455 S
C799 C803 1.393 . S
C800 H789 0.950 . S
C800 C798 1.391 1_455 S
C800 C801 1.400 . S
C801 C795 1.491 . S
C801 C800 1.400 . S
C801 C802 1.398 . S
C802 H790 0.950 . S
C802 C801 1.398 . S
C802 C803 1.391 . S
C803 H791 0.950 . S
C803 C799 1.393 . S
C803 C802 1.391 . S
H804 C812 0.950 . S
H805 C817 0.950 . S
H806 C814 0.950 . S
H807 C816 0.950 . S
H808 C818 0.950 . S
H809 C820 0.950 . S
H810 C822 0.950 . S
H811 C823 0.950 . S
C812 H804 0.950 . S
C812 C813 1.386 . S
C812 C814 1.391 . S
C813 C812 1.386 . S
C813 C817 1.393 . S
C814 H806 0.950 . S
C814 C812 1.391 . S
C814 C815 1.400 . S
C815 C814 1.400 . S
C815 C816 1.398 . S
C815 C821 1.491 . S
C816 H807 0.950 . S
C816 C815 1.398 . S
C816 C817 1.391 . S
C817 H805 0.950 . S
C817 C813 1.393 . S
C817 C816 1.391 . S
C818 H808 0.950 . S
C818 C819 1.386 . S
C818 C820 1.391 . S
C819 C818 1.386 . S
C819 C823 1.393 . S
C820 H809 0.950 . S
C820 C818 1.391 . S
C820 C821 1.400 . S
C821 C815 1.491 . S
C821 C820 1.400 . S
C821 C822 1.398 . S
C822 H810 0.950 . S
C822 C821 1.398 . S
C822 C823 1.391 . S
C823 H811 0.950 . S
C823 C819 1.393 . S
C823 C822 1.391 . S
H824 C832 0.950 . S
H825 C837 0.950 . S
H826 C834 0.950 . S
H827 C836 0.950 . S
H828 C838 0.950 . S
H829 C840 0.950 . S
H830 C842 0.950 . S
H831 C843 0.950 . S
C832 H824 0.950 . S
C832 C833 1.386 . S
C832 C834 1.391 . S
C833 C832 1.386 . S
C833 C837 1.393 . S
C834 H826 0.950 . S
C834 C832 1.391 . S
C834 C835 1.400 . S
C835 C834 1.400 . S
C835 C836 1.398 . S
C835 C841 1.491 . S
C836 H827 0.950 . S
C836 C835 1.398 . S
C836 C837 1.391 . S
C837 H825 0.950 . S
C837 C833 1.393 . S
C837 C836 1.391 . S
C838 H828 0.950 . S
C838 C839 1.386 . S
C838 C840 1.391 . S
C839 C838 1.386 . S
C839 C843 1.393 . S
C840 H829 0.950 . S
C840 C838 1.391 . S
C840 C841 1.400 . S
C841 C835 1.491 . S
C841 C840 1.400 . S
C841 C842 1.398 . S
C842 H830 0.950 . S
C842 C841 1.398 . S
C842 C843 1.391 . S
C843 H831 0.950 . S
C843 C839 1.393 . S
C843 C842 1.391 . S
H844 C852 0.950 . S
H845 C857 0.950 . S
H846 C854 0.950 . S
H847 C856 0.950 . S
H848 C858 0.950 . S
H849 C860 0.950 . S
H850 C862 0.950 . S
H851 C863 0.950 1_545 S
C852 H844 0.950 . S
C852 C853 1.386 . S
C852 C854 1.391 . S
C853 C852 1.386 . S
C853 C857 1.393 . S
C854 H846 0.950 . S
C854 C852 1.391 . S
C854 C855 1.400 . S
C855 C854 1.400 . S
C855 C856 1.398 . S
C855 C861 1.491 . S
C856 H847 0.950 . S
C856 C855 1.398 . S
C856 C857 1.391 . S
C857 H845 0.950 . S
C857 C853 1.393 . S
C857 C856 1.391 . S
C858 H848 0.950 . S
C858 C859 1.386 . S
C858 C860 1.391 . S
C859 C858 1.386 . S
C859 C863 1.393 . S
C860 H849 0.950 . S
C860 C858 1.391 . S
C860 C861 1.400 . S
C861 C855 1.491 . S
C861 C860 1.400 . S
C861 C862 1.398 . S
C862 H850 0.950 . S
C862 C861 1.398 . S
C862 C863 1.391 . S
C863 H851 0.950 1_565 S
C863 C859 1.393 . S
C863 C862 1.391 . S
H864 C872 0.950 . S
H865 C877 0.950 . S
H866 C874 0.950 . S
H867 C876 0.950 . S
H868 C878 0.950 . S
H869 C880 0.950 . S
H870 C882 0.950 . S
H871 C883 0.950 . S
C872 H864 0.950 . S
C872 C873 1.386 . S
C872 C874 1.391 . S
C873 C872 1.386 . S
C873 C877 1.393 . S
C874 H866 0.950 . S
C874 C872 1.391 . S
C874 C875 1.400 . S
C875 C874 1.400 . S
C875 C876 1.398 . S
C875 C881 1.491 . S
C876 H867 0.950 . S
C876 C875 1.398 . S
C876 C877 1.391 . S
C877 H865 0.950 . S
C877 C873 1.393 . S
C877 C876 1.391 . S
C878 H868 0.950 . S
C878 C879 1.386 . S
C878 C880 1.391 . S
C879 C878 1.386 . S
C879 C883 1.393 . S
C880 H869 0.950 . S
C880 C878 1.391 . S
C880 C881 1.400 . S
C881 C875 1.491 . S
C881 C880 1.400 . S
C881 C882 1.398 . S
C882 H870 0.950 . S
C882 C881 1.398 . S
C882 C883 1.391 . S
C883 H871 0.950 . S
C883 C879 1.393 . S
C883 C882 1.391 . S
H884 C892 0.950 . S
H885 C897 0.950 . S
H886 C894 0.950 . S
H887 C896 0.950 . S
H888 C898 0.950 . S
H889 C900 0.950 . S
H890 C902 0.950 . S
H891 C903 0.950 . S
C892 H884 0.950 . S
C892 C893 1.386 . S
C892 C894 1.391 . S
C893 C892 1.386 . S
C893 C897 1.393 . S
C894 H886 0.950 . S
C894 C892 1.391 . S
C894 C895 1.400 . S
C895 C894 1.400 . S
C895 C896 1.398 . S
C895 C901 1.491 . S
C896 H887 0.950 . S
C896 C895 1.398 . S
C896 C897 1.391 . S
C897 H885 0.950 . S
C897 C893 1.393 . S
C897 C896 1.391 . S
C898 H888 0.950 . S
C898 C899 1.386 . S
C898 C900 1.391 . S
C899 C898 1.386 . S
C899 C903 1.393 . S
C900 H889 0.950 . S
C900 C898 1.391 . S
C900 C901 1.400 . S
C901 C895 1.491 . S
C901 C900 1.400 . S
C901 C902 1.398 . S
C902 H890 0.950 . S
C902 C901 1.398 . S
C902 C903 1.391 . S
C903 H891 0.950 . S
C903 C899 1.393 . S
C903 C902 1.391 . S
H904 C912 0.950 . S
H905 C917 0.950 . S
H906 C914 0.950 . S
H907 C916 0.950 . S
H908 C918 0.950 . S
H909 C920 0.950 . S
H910 C922 0.950 . S
H911 C923 0.950 . S
C912 H904 0.950 . S
C912 C913 1.386 . S
C912 C914 1.391 . S
C913 C912 1.386 . S
C913 C917 1.393 . S
C914 H906 0.950 . S
C914 C912 1.391 . S
C914 C915 1.400 . S
C915 C914 1.400 . S
C915 C916 1.398 . S
C915 C921 1.491 . S
C916 H907 0.950 . S
C916 C915 1.398 . S
C916 C917 1.391 . S
C917 H905 0.950 . S
C917 C913 1.393 . S
C917 C916 1.391 . S
C918 H908 0.950 . S
C918 C919 1.386 . S
C918 C920 1.391 . S
C919 C918 1.386 . S
C919 C923 1.393 . S
C920 H909 0.950 . S
C920 C918 1.391 . S
C920 C921 1.400 . S
C921 C915 1.491 . S
C921 C920 1.400 . S
C921 C922 1.398 . S
C922 H910 0.950 . S
C922 C921 1.398 . S
C922 C923 1.391 . S
C923 H911 0.950 . S
C923 C919 1.393 . S
C923 C922 1.391 . S
H924 C932 0.950 . S
H925 C937 0.950 . S
H926 C934 0.950 . S
H927 C936 0.950 . S
H928 C938 0.950 . S
H929 C940 0.950 . S
H930 C942 0.950 . S
H931 C943 0.950 . S
C932 H924 0.950 . S
C932 C933 1.386 . S
C932 C934 1.391 . S
C933 C932 1.386 . S
C933 C937 1.393 . S
C934 H926 0.950 . S
C934 C932 1.391 . S
C934 C935 1.400 . S
C935 C934 1.400 . S
C935 C936 1.398 . S
C935 C941 1.491 . S
C936 H927 0.950 . S
C936 C935 1.398 . S
C936 C937 1.391 . S
C937 H925 0.950 . S
C937 C933 1.393 . S
C937 C936 1.391 . S
C938 H928 0.950 . S
C938 C939 1.386 1_554 S
C938 C940 1.391 . S
C939 C938 1.386 1_556 S
C939 C943 1.393 1_556 S
C940 H929 0.950 . S
C940 C938 1.391 . S
C940 C941 1.400 . S
C941 C935 1.491 . S
C941 C940 1.400 . S
C941 C942 1.398 . S
C942 H930 0.950 . S
C942 C941 1.398 . S
C942 C943 1.391 . S
C943 H931 0.950 . S
C943 C939 1.393 1_554 S
C943 C942 1.391 . S
H944 C952 0.950 . S
H945 C957 0.950 . S
H946 C954 0.950 . S
H947 C956 0.950 . S
H948 C958 0.950 . S
H949 C960 0.950 . S
H950 C962 0.950 . S
H951 C963 0.950 1_556 S
C952 H944 0.950 . S
C952 C953 1.386 . S
C952 C954 1.391 . S
C953 C952 1.386 . S
C953 C957 1.393 . S
C954 H946 0.950 . S
C954 C952 1.391 . S
C954 C955 1.400 . S
C955 C954 1.400 . S
C955 C956 1.398 . S
C955 C961 1.491 . S
C956 H947 0.950 . S
C956 C955 1.398 . S
C956 C957 1.391 . S
C957 H945 0.950 . S
C957 C953 1.393 . S
C957 C956 1.391 . S
C958 H948 0.950 . S
C958 C959 1.363 1_554 S
C958 C960 1.391 . S
C959 C958 1.363 1_556 S
C959 C963 1.386 1_556 S
C960 H949 0.950 . S
C960 C958 1.391 . S
C960 C961 1.400 . S
C961 C955 1.491 . S
C961 C960 1.400 . S
C961 C962 1.398 . S
C962 H950 0.950 . S
C962 C961 1.398 . S
C962 C963 1.391 . S
C963 H951 0.950 1_554 S
C963 C959 1.386 1_554 S
C963 C962 1.391 . S
H964 C972 0.950 . S
H965 C977 0.950 . S
H966 C974 0.950 . S
H967 C976 0.950 . S
H968 C978 0.950 1_556 S
H969 C980 0.950 . S
H970 C982 0.950 . S
H971 C983 0.950 . S
C972 H964 0.950 . S
C972 C973 1.386 . S
C972 C974 1.391 . S
C973 C972 1.386 . S
C973 C977 1.393 . S
C974 H966 0.950 . S
C974 C972 1.391 . S
C974 C975 1.400 . S
C975 C974 1.400 . S
C975 C976 1.398 . S
C975 C981 1.491 . S
C976 H967 0.950 . S
C976 C975 1.398 . S
C976 C977 1.391 . S
C977 H965 0.950 . S
C977 C973 1.393 . S
C977 C976 1.391 . S
C978 H968 0.950 1_554 S
C978 C979 1.380 1_554 S
C978 C980 1.391 . S
C979 C978 1.380 1_556 S
C979 C983 1.366 1_556 S
C980 H969 0.950 . S
C980 C978 1.391 . S
C980 C981 1.400 . S
C981 C975 1.491 . S
C981 C980 1.400 . S
C981 C982 1.398 . S
C982 H970 0.950 . S
C982 C981 1.398 . S
C982 C983 1.391 . S
C983 H971 0.950 . S
C983 C979 1.366 1_554 S
C983 C982 1.391 . S
H984 C992 0.950 . S
H985 C997 0.950 . S
H986 C994 0.950 . S
H987 C996 0.950 . S
H988 C998 0.950 . S
H989 C1000 0.950 . S
H990 C1002 0.950 . S
H991 C1003 0.950 . S
C992 H984 0.950 . S
C992 C993 1.386 . S
C992 C994 1.391 . S
C993 C992 1.386 . S
C993 C997 1.393 . S
C994 H986 0.950 . S
C994 C992 1.391 . S
C994 C995 1.400 . S
C995 C994 1.400 . S
C995 C996 1.398 . S
C995 C1001 1.491 . S
C996 H987 0.950 . S
C996 C995 1.398 . S
C996 C997 1.391 . S
C997 H985 0.950 . S
C997 C993 1.393 . S
C997 C996 1.391 . S
C998 H988 0.950 . S
C998 C999 1.386 . S
C998 C1000 1.391 . S
C999 C998 1.386 . S
C999 C1003 1.393 . S
C1000 H989 0.950 . S
C1000 C998 1.391 . S
C1000 C1001 1.400 . S
C1001 C995 1.491 . S
C1001 C1000 1.400 . S
C1001 C1002 1.398 . S
C1002 H990 0.950 . S
C1002 C1001 1.398 . S
C1002 C1003 1.391 . S
C1003 H991 0.950 . S
C1003 C999 1.393 . S
C1003 C1002 1.391 . S
H1004 C1012 0.950 . S
H1005 C1017 0.950 . S
H1006 C1014 0.950 . S
H1007 C1016 0.950 . S
H1008 C1018 0.950 . S
H1009 C1020 0.950 . S
H1010 C1022 0.950 . S
H1011 C1023 0.950 . S
C1012 H1004 0.950 . S
C1012 C1013 1.386 . S
C1012 C1014 1.391 . S
C1013 C1012 1.386 . S
C1013 C1017 1.393 . S
C1014 H1006 0.950 . S
C1014 C1012 1.391 . S
C1014 C1015 1.400 . S
C1015 C1014 1.400 . S
C1015 C1016 1.398 . S
C1015 C1021 1.491 . S
C1016 H1007 0.950 . S
C1016 C1015 1.398 . S
C1016 C1017 1.391 . S
C1017 H1005 0.950 . S
C1017 C1013 1.393 . S
C1017 C1016 1.391 . S
C1018 H1008 0.950 . S
C1018 C1019 1.386 . S
C1018 C1020 1.391 . S
C1019 C1018 1.386 . S
C1019 C1023 1.393 . S
C1020 H1009 0.950 . S
C1020 C1018 1.391 . S
C1020 C1021 1.400 . S
C1021 C1015 1.491 . S
C1021 C1020 1.400 . S
C1021 C1022 1.398 . S
C1022 H1010 0.950 . S
C1022 C1021 1.398 . S
C1022 C1023 1.391 . S
C1023 H1011 0.950 . S
C1023 C1019 1.393 . S
C1023 C1022 1.391 . S
H1024 C1032 0.950 . S
H1025 C1037 0.950 . S
H1026 C1034 0.950 . S
H1027 C1036 0.950 . S
H1028 C1038 0.950 . S
H1029 C1040 0.950 . S
H1030 C1042 0.950 . S
H1031 C1043 0.950 . S
C1032 H1024 0.950 . S
C1032 C1033 1.386 . S
C1032 C1034 1.391 . S
C1033 C1032 1.386 . S
C1033 C1037 1.393 . S
C1034 H1026 0.950 . S
C1034 C1032 1.391 . S
C1034 C1035 1.400 . S
C1035 C1034 1.400 . S
C1035 C1036 1.398 . S
C1035 C1041 1.491 . S
C1036 H1027 0.950 . S
C1036 C1035 1.398 . S
C1036 C1037 1.391 . S
C1037 H1025 0.950 . S
C1037 C1033 1.393 . S
C1037 C1036 1.391 . S
C1038 H1028 0.950 . S
C1038 C1039 1.386 . S
C1038 C1040 1.391 . S
C1039 C1038 1.386 . S
C1039 C1043 1.393 . S
C1040 H1029 0.950 . S
C1040 C1038 1.391 . S
C1040 C1041 1.400 . S
C1041 C1035 1.491 . S
C1041 C1040 1.400 . S
C1041 C1042 1.398 . S
C1042 H1030 0.950 . S
C1042 C1041 1.398 . S
C1042 C1043 1.391 . S
C1043 H1031 0.950 . S
C1043 C1039 1.393 . S
C1043 C1042 1.391 . S
H1044 C1052 0.950 . S
H1045 C1057 0.950 1_554 S
H1046 C1054 0.950 . S
H1047 C1056 0.950 . S
H1048 C1058 0.950 . S
H1049 C1060 0.950 . S
H1050 C1062 0.950 . S
H1051 C1063 0.950 . S
C1052 H1044 0.950 . S
C1052 C1053 1.386 1_556 S
C1052 C1054 1.391 . S
C1053 C1052 1.386 1_554 S
C1053 C1057 1.393 1_554 S
C1054 H1046 0.950 . S
C1054 C1052 1.391 . S
C1054 C1055 1.400 . S
C1055 C1054 1.400 . S
C1055 C1056 1.398 . S
C1055 C1061 1.491 . S
C1056 H1047 0.950 . S
C1056 C1055 1.398 . S
C1056 C1057 1.391 . S
C1057 H1045 0.950 1_556 S
C1057 C1053 1.393 1_556 S
C1057 C1056 1.391 . S
C1058 H1048 0.950 . S
C1058 C1059 1.386 . S
C1058 C1060 1.391 . S
C1059 C1058 1.386 . S
C1059 C1063 1.393 . S
C1060 H1049 0.950 . S
C1060 C1058 1.391 . S
C1060 C1061 1.400 . S
C1061 C1055 1.491 . S
C1061 C1060 1.400 . S
C1061 C1062 1.398 . S
C1062 H1050 0.950 . S
C1062 C1061 1.398 . S
C1062 C1063 1.391 . S
C1063 H1051 0.950 . S
C1063 C1059 1.393 . S
C1063 C1062 1.391 . S
H1064 C1072 0.950 . S
H1065 C1077 0.950 . S
H1066 C1074 0.950 . S
H1067 C1076 0.950 . S
H1068 C1078 0.950 . S
H1069 C1080 0.950 . S
H1070 C1082 0.950 . S
H1071 C1083 0.950 . S
C1072 H1064 0.950 . S
C1072 C1073 1.377 1_556 S
C1072 C1074 1.391 . S
C1073 C1072 1.377 1_554 S
C1073 C1077 1.383 1_554 S
C1074 H1066 0.950 . S
C1074 C1072 1.391 . S
C1074 C1075 1.400 . S
C1075 C1074 1.400 . S
C1075 C1076 1.398 . S
C1075 C1081 1.491 . S
C1076 H1067 0.950 . S
C1076 C1075 1.398 . S
C1076 C1077 1.391 . S
C1077 H1065 0.950 . S
C1077 C1073 1.383 1_556 S
C1077 C1076 1.391 . S
C1078 H1068 0.950 . S
C1078 C1079 1.386 . S
C1078 C1080 1.391 . S
C1079 C1078 1.386 . S
C1079 C1083 1.393 . S
C1080 H1069 0.950 . S
C1080 C1078 1.391 . S
C1080 C1081 1.400 . S
C1081 C1075 1.491 . S
C1081 C1080 1.400 . S
C1081 C1082 1.398 . S
C1082 H1070 0.950 . S
C1082 C1081 1.398 . S
C1082 C1083 1.391 . S
C1083 H1071 0.950 . S
C1083 C1079 1.393 . S
C1083 C1082 1.391 . S
H1084 C1092 0.950 . S
H1085 C1097 0.950 . S
H1086 C1094 0.950 . S
H1087 C1096 0.950 . S
H1088 C1098 0.950 . S
H1089 C1100 0.950 . S
H1090 C1102 0.950 . S
H1091 C1103 0.950 . S
C1092 H1084 0.950 . S
C1092 C1093 1.386 . S
C1092 C1094 1.391 . S
C1093 C1092 1.386 . S
C1093 C1097 1.393 . S
C1094 H1086 0.950 . S
C1094 C1092 1.391 . S
C1094 C1095 1.400 . S
C1095 C1094 1.400 . S
C1095 C1096 1.398 . S
C1095 C1101 1.491 . S
C1096 H1087 0.950 . S
C1096 C1095 1.398 . S
C1096 C1097 1.391 . S
C1097 H1085 0.950 . S
C1097 C1093 1.393 . S
C1097 C1096 1.391 . S
C1098 H1088 0.950 . S
C1098 C1099 1.386 1_556 S
C1098 C1100 1.391 . S
C1099 C1098 1.386 1_554 S
C1099 C1103 1.393 1_554 S
C1100 H1089 0.950 . S
C1100 C1098 1.391 . S
C1100 C1101 1.400 . S
C1101 C1095 1.491 . S
C1101 C1100 1.400 . S
C1101 C1102 1.398 . S
C1102 H1090 0.950 . S
C1102 C1101 1.398 . S
C1102 C1103 1.391 . S
C1103 H1091 0.950 . S
C1103 C1099 1.393 1_556 S
C1103 C1102 1.391 . S
H1104 C1112 0.950 . S
H1105 C1117 0.950 . S
H1106 C1114 0.950 . S
H1107 C1116 0.950 . S
H1108 C1118 0.950 . S
H1109 C1120 0.950 . S
H1110 C1122 0.950 . S
H1111 C1123 0.950 . S
C1112 H1104 0.950 . S
C1112 C1113 1.386 . S
C1112 C1114 1.391 . S
C1113 C1112 1.386 . S
C1113 C1117 1.393 1_455 S
C1114 H1106 0.950 . S
C1114 C1112 1.391 . S
C1114 C1115 1.400 . S
C1115 C1114 1.400 . S
C1115 C1116 1.398 1_455 S
C1115 C1121 1.491 1_455 S
C1116 H1107 0.950 . S
C1116 C1115 1.398 1_655 S
C1116 C1117 1.391 . S
C1117 H1105 0.950 . S
C1117 C1113 1.393 1_655 S
C1117 C1116 1.391 . S
C1118 H1108 0.950 . S
C1118 C1119 1.386 . S
C1118 C1120 1.391 . S
C1119 C1118 1.386 . S
C1119 C1123 1.393 1_655 S
C1120 H1109 0.950 . S
C1120 C1118 1.391 . S
C1120 C1121 1.400 . S
C1121 C1115 1.491 1_655 S
C1121 C1120 1.400 . S
C1121 C1122 1.398 1_655 S
C1122 H1110 0.950 . S
C1122 C1121 1.398 1_455 S
C1122 C1123 1.391 . S
C1123 H1111 0.950 . S
C1123 C1119 1.393 1_455 S
C1123 C1122 1.391 . S
H1124 C1132 0.950 . S
H1125 C1137 0.950 . S
H1126 C1134 0.950 . S
H1127 C1136 0.950 . S
H1128 C1138 0.950 . S
H1129 C1140 0.950 . S
H1130 C1142 0.950 . S
H1131 C1143 0.950 . S
C1132 H1124 0.950 . S
C1132 C1133 1.386 . S
C1132 C1134 1.391 . S
C1133 C1132 1.386 . S
C1133 C1137 1.393 . S
C1134 H1126 0.950 . S
C1134 C1132 1.391 . S
C1134 C1135 1.400 . S
C1135 C1134 1.400 . S
C1135 C1136 1.398 . S
C1135 C1141 1.491 . S
C1136 H1127 0.950 . S
C1136 C1135 1.398 . S
C1136 C1137 1.391 . S
C1137 H1125 0.950 . S
C1137 C1133 1.393 . S
C1137 C1136 1.391 . S
C1138 H1128 0.950 . S
C1138 C1139 1.386 . S
C1138 C1140 1.391 . S
C1139 C1138 1.386 . S
C1139 C1143 1.393 . S
C1140 H1129 0.950 . S
C1140 C1138 1.391 . S
C1140 C1141 1.400 . S
C1141 C1135 1.491 . S
C1141 C1140 1.400 . S
C1141 C1142 1.398 . S
C1142 H1130 0.950 . S
C1142 C1141 1.398 . S
C1142 C1143 1.391 . S
C1143 H1131 0.950 . S
C1143 C1139 1.393 . S
C1143 C1142 1.391 . S
H1144 C1152 0.950 . S
H1145 C1157 0.950 . S
H1146 C1154 0.950 1_565 S
H1147 C1156 0.950 . S
H1148 C1158 0.950 . S
H1149 C1160 0.950 1_545 S
H1150 C1162 0.950 . S
H1151 C1163 0.950 . S
C1152 H1144 0.950 . S
C1152 C1153 1.386 . S
C1152 C1154 1.391 . S
C1153 C1152 1.386 . S
C1153 C1157 1.393 . S
C1154 H1146 0.950 1_545 S
C1154 C1152 1.391 . S
C1154 C1155 1.400 . S
C1155 C1154 1.400 . S
C1155 C1156 1.398 . S
C1155 C1161 1.491 1_545 S
C1156 H1147 0.950 . S
C1156 C1155 1.398 . S
C1156 C1157 1.391 . S
C1157 H1145 0.950 . S
C1157 C1153 1.393 . S
C1157 C1156 1.391 . S
C1158 H1148 0.950 . S
C1158 C1159 1.386 . S
C1158 C1160 1.391 . S
C1159 C1158 1.386 . S
C1159 C1163 1.393 . S
C1160 H1149 0.950 1_565 S
C1160 C1158 1.391 . S
C1160 C1161 1.400 . S
C1161 C1155 1.491 1_565 S
C1161 C1160 1.400 . S
C1161 C1162 1.398 . S
C1162 H1150 0.950 . S
C1162 C1161 1.398 . S
C1162 C1163 1.391 . S
C1163 H1151 0.950 . S
C1163 C1159 1.393 . S
C1163 C1162 1.391 . S
H1164 C1172 0.963 . S
H1165 C1177 0.950 . S
H1166 C1174 0.950 . S
H1167 C1176 0.950 . S
H1168 C1178 0.961 . S
H1169 C1180 0.950 . S
H1170 C1182 0.950 . S
H1171 C1183 0.950 . S
C1172 H1164 0.963 . S
C1172 C1173 1.361 1_545 S
C1172 C1174 1.404 . S
C1173 C1172 1.361 1_565 S
C1173 C1177 1.393 . S
C1174 H1166 0.950 . S
C1174 C1172 1.404 . S
C1174 C1175 1.400 1_545 S
C1175 C1174 1.400 1_565 S
C1175 C1176 1.398 . S
C1175 C1181 1.491 1_565 S
C1176 H1167 0.950 . S
C1176 C1175 1.398 . S
C1176 C1177 1.391 . S
C1177 H1165 0.950 . S
C1177 C1173 1.393 . S
C1177 C1176 1.391 . S
C1178 H1168 0.961 . S
C1178 C1179 1.364 1_565 S
C1178 C1180 1.402 . S
C1179 C1178 1.364 1_545 S
C1179 C1183 1.393 . S
C1180 H1169 0.950 . S
C1180 C1178 1.402 . S
C1180 C1181 1.400 1_565 S
C1181 C1175 1.491 1_545 S
C1181 C1180 1.400 1_545 S
C1181 C1182 1.398 . S
C1182 H1170 0.950 . S
C1182 C1181 1.398 . S
C1182 C1183 1.391 . S
C1183 H1171 0.950 . S
C1183 C1179 1.393 . S
C1183 C1182 1.391 . S
H1184 C1192 0.950 . S
H1185 C1197 0.967 . S
H1186 C1194 0.950 . S
H1187 C1196 0.950 . S
H1188 C1198 0.950 . S
H1189 C1200 0.950 . S
H1190 C1202 0.950 . S
H1191 C1203 0.964 . S
C1192 H1184 0.950 . S
C1192 C1193 1.386 . S
C1192 C1194 1.391 . S
C1193 C1192 1.386 . S
C1193 C1197 1.368 1_655 S
C1194 H1186 0.950 . S
C1194 C1192 1.391 . S
C1194 C1195 1.400 . S
C1195 C1194 1.400 . S
C1195 C1196 1.398 1_655 S
C1195 C1201 1.491 1_655 S
C1196 H1187 0.950 . S
C1196 C1195 1.398 1_455 S
C1196 C1197 1.398 . S
C1197 H1185 0.967 . S
C1197 C1193 1.368 1_455 S
C1197 C1196 1.398 . S
C1198 H1188 0.950 . S
C1198 C1199 1.386 . S
C1198 C1200 1.391 . S
C1199 C1198 1.386 . S
C1199 C1203 1.373 1_455 S
C1200 H1189 0.950 . S
C1200 C1198 1.391 . S
C1200 C1201 1.400 . S
C1201 C1195 1.491 1_455 S
C1201 C1200 1.400 . S
C1201 C1202 1.398 1_455 S
C1202 H1190 0.950 . S
C1202 C1201 1.398 1_655 S
C1202 C1203 1.397 . S
C1203 H1191 0.964 . S
C1203 C1199 1.373 1_655 S
C1203 C1202 1.397 . S
H1204 C1212 0.950 . S
H1205 C1217 0.950 . S
H1206 C1214 0.950 . S
H1207 C1216 0.950 . S
H1208 C1218 0.950 . S
H1209 C1220 0.950 . S
H1210 C1222 0.950 . S
H1211 C1223 0.950 . S
C1212 H1204 0.950 . S
C1212 C1213 1.386 . S
C1212 C1214 1.391 . S
C1213 C1212 1.386 . S
C1213 C1217 1.393 . S
C1214 H1206 0.950 . S
C1214 C1212 1.391 . S
C1214 C1215 1.400 . S
C1215 C1214 1.400 . S
C1215 C1216 1.398 . S
C1215 C1221 1.491 . S
C1216 H1207 0.950 . S
C1216 C1215 1.398 . S
C1216 C1217 1.391 . S
C1217 H1205 0.950 . S
C1217 C1213 1.393 . S
C1217 C1216 1.391 . S
C1218 H1208 0.950 . S
C1218 C1219 1.386 . S
C1218 C1220 1.391 . S
C1219 C1218 1.386 . S
C1219 C1223 1.393 . S
C1220 H1209 0.950 . S
C1220 C1218 1.391 . S
C1220 C1221 1.400 . S
C1221 C1215 1.491 . S
C1221 C1220 1.400 . S
C1221 C1222 1.398 . S
C1222 H1210 0.950 . S
C1222 C1221 1.398 . S
C1222 C1223 1.391 . S
C1223 H1211 0.950 . S
C1223 C1219 1.393 . S
C1223 C1222 1.391 . S
H1224 C1232 0.950 . S
H1225 C1237 0.950 . S
H1226 C1234 0.950 . S
H1227 C1236 0.950 . S
H1228 C1238 0.950 . S
H1229 C1240 0.950 . S
H1230 C1242 0.950 . S
H1231 C1243 0.950 . S
C1232 H1224 0.950 . S
C1232 C1233 1.386 . S
C1232 C1234 1.391 . S
C1233 C1232 1.386 . S
C1233 C1237 1.393 . S
C1234 H1226 0.950 . S
C1234 C1232 1.391 . S
C1234 C1235 1.400 . S
C1235 C1234 1.400 . S
C1235 C1236 1.398 . S
C1235 C1241 1.491 . S
C1236 H1227 0.950 . S
C1236 C1235 1.398 . S
C1236 C1237 1.391 . S
C1237 H1225 0.950 . S
C1237 C1233 1.393 . S
C1237 C1236 1.391 . S
C1238 H1228 0.950 . S
C1238 C1239 1.386 . S
C1238 C1240 1.391 . S
C1239 C1238 1.386 . S
C1239 C1243 1.393 . S
C1240 H1229 0.950 . S
C1240 C1238 1.391 . S
C1240 C1241 1.400 . S
C1241 C1235 1.491 . S
C1241 C1240 1.400 . S
C1241 C1242 1.398 . S
C1242 H1230 0.950 . S
C1242 C1241 1.398 . S
C1242 C1243 1.391 . S
C1243 H1231 0.950 . S
C1243 C1239 1.393 . S
C1243 C1242 1.391 . S
H1244 C1252 0.950 . S
H1245 C1257 0.950 . S
H1246 C1254 0.950 . S
H1247 C1256 0.950 . S
H1248 C1258 0.950 . S
H1249 C1260 0.950 . S
H1250 C1262 0.950 . S
H1251 C1263 0.950 . S
C1252 H1244 0.950 . S
C1252 C1253 1.386 . S
C1252 C1254 1.391 . S
C1253 C1252 1.386 . S
C1253 C1257 1.393 . S
C1254 H1246 0.950 . S
C1254 C1252 1.391 . S
C1254 C1255 1.400 . S
C1255 C1254 1.400 . S
C1255 C1256 1.398 . S
C1255 C1261 1.491 . S
C1256 H1247 0.950 . S
C1256 C1255 1.398 . S
C1256 C1257 1.391 . S
C1257 H1245 0.950 . S
C1257 C1253 1.393 . S
C1257 C1256 1.391 . S
C1258 H1248 0.950 . S
C1258 C1259 1.386 . S
C1258 C1260 1.391 . S
C1259 C1258 1.386 . S
C1259 C1263 1.393 . S
C1260 H1249 0.950 . S
C1260 C1258 1.391 . S
C1260 C1261 1.400 . S
C1261 C1255 1.491 . S
C1261 C1260 1.400 . S
C1261 C1262 1.398 . S
C1262 H1250 0.950 . S
C1262 C1261 1.398 . S
C1262 C1263 1.391 . S
C1263 H1251 0.950 . S
C1263 C1259 1.393 . S
C1263 C1262 1.391 . S
H1264 C1272 0.950 . S
H1265 C1277 0.950 . S
H1266 C1274 0.950 . S
H1267 C1276 0.950 . S
H1268 C1278 0.950 . S
H1269 C1280 0.950 . S
H1270 C1282 0.950 . S
H1271 C1283 0.950 . S
C1272 H1264 0.950 . S
C1272 C1273 1.386 . S
C1272 C1274 1.391 . S
C1273 C1272 1.386 . S
C1273 C1277 1.393 . S
C1274 H1266 0.950 . S
C1274 C1272 1.391 . S
C1274 C1275 1.400 . S
C1275 C1274 1.400 . S
C1275 C1276 1.398 . S
C1275 C1281 1.491 . S
C1276 H1267 0.950 . S
C1276 C1275 1.398 . S
C1276 C1277 1.391 . S
C1277 H1265 0.950 . S
C1277 C1273 1.393 . S
C1277 C1276 1.391 . S
C1278 H1268 0.950 . S
C1278 C1279 1.386 . S
C1278 C1280 1.391 . S
C1279 C1278 1.386 . S
C1279 C1283 1.393 . S
C1280 H1269 0.950 . S
C1280 C1278 1.391 . S
C1280 C1281 1.400 . S
C1281 C1275 1.491 . S
C1281 C1280 1.400 . S
C1281 C1282 1.398 . S
C1282 H1270 0.950 . S
C1282 C1281 1.398 . S
C1282 C1283 1.391 . S
C1283 H1271 0.950 . S
C1283 C1279 1.393 . S
C1283 C1282 1.391 . S
H1284 C1292 0.950 . S
H1285 C1297 0.950 . S
H1286 C1294 0.950 . S
H1287 C1296 0.950 . S
H1288 C1298 0.950 . S
H1289 C1300 0.950 . S
H1290 C1302 0.950 . S
H1291 C1303 0.950 . S
C1292 H1284 0.950 . S
C1292 C1293 1.386 . S
C1292 C1294 1.391 . S
C1293 C1292 1.386 . S
C1293 C1297 1.393 . S
C1294 H1286 0.950 . S
C1294 C1292 1.391 . S
C1294 C1295 1.400 . S
C1295 C1294 1.400 . S
C1295 C1296 1.398 . S
C1295 C1301 1.491 . S
C1296 H1287 0.950 . S
C1296 C1295 1.398 . S
C1296 C1297 1.391 . S
C1297 H1285 0.950 . S
C1297 C1293 1.393 . S
C1297 C1296 1.391 . S
C1298 H1288 0.950 . S
C1298 C1299 1.386 . S
C1298 C1300 1.391 . S
C1299 C1298 1.386 . S
C1299 C1303 1.393 . S
C1300 H1289 0.950 . S
C1300 C1298 1.391 . S
C1300 C1301 1.400 . S
C1301 C1295 1.491 . S
C1301 C1300 1.400 . S
C1301 C1302 1.398 . S
C1302 H1290 0.950 . S
C1302 C1301 1.398 . S
C1302 C1303 1.391 . S
C1303 H1291 0.950 . S
C1303 C1299 1.393 . S
C1303 C1302 1.391 . S
H1304 C1312 0.950 . S
H1305 C1317 0.950 . S
H1306 C1314 0.950 . S
H1307 C1316 0.950 . S
H1308 C1318 0.950 . S
H1309 C1320 0.950 . S
H1310 C1322 0.950 . S
H1311 C1323 0.950 . S
C1312 H1304 0.950 . S
C1312 C1313 1.386 . S
C1312 C1314 1.391 . S
C1313 C1312 1.386 . S
C1313 C1317 1.393 . S
C1314 H1306 0.950 . S
C1314 C1312 1.391 . S
C1314 C1315 1.400 . S
C1315 C1314 1.400 . S
C1315 C1316 1.398 . S
C1315 C1321 1.491 . S
C1316 H1307 0.950 . S
C1316 C1315 1.398 . S
C1316 C1317 1.391 . S
C1317 H1305 0.950 . S
C1317 C1313 1.393 . S
C1317 C1316 1.391 . S
C1318 H1308 0.950 . S
C1318 C1319 1.386 . S
C1318 C1320 1.391 . S
C1319 C1318 1.386 . S
C1319 C1323 1.393 . S
C1320 H1309 0.950 . S
C1320 C1318 1.391 . S
C1320 C1321 1.400 . S
C1321 C1315 1.491 . S
C1321 C1320 1.400 . S
C1321 C1322 1.398 . S
C1322 H1310 0.950 . S
C1322 C1321 1.398 . S
C1322 C1323 1.391 . S
C1323 H1311 0.950 . S
C1323 C1319 1.393 . S
C1323 C1322 1.391 . S
H1324 C1332 0.950 . S
H1325 C1337 0.950 . S
H1326 C1334 0.950 . S
H1327 C1336 0.950 . S
H1328 C1338 0.950 . S
H1329 C1340 0.950 . S
H1330 C1342 0.950 . S
H1331 C1343 0.950 . S
C1332 H1324 0.950 . S
C1332 C1333 1.386 . S
C1332 C1334 1.391 . S
C1333 C1332 1.386 . S
C1333 C1337 1.393 . S
C1334 H1326 0.950 . S
C1334 C1332 1.391 . S
C1334 C1335 1.400 . S
C1335 C1334 1.400 . S
C1335 C1336 1.398 . S
C1335 C1341 1.491 . S
C1336 H1327 0.950 . S
C1336 C1335 1.398 . S
C1336 C1337 1.391 . S
C1337 H1325 0.950 . S
C1337 C1333 1.393 . S
C1337 C1336 1.391 . S
C1338 H1328 0.950 . S
C1338 C1339 1.386 . S
C1338 C1340 1.391 . S
C1339 C1338 1.386 . S
C1339 C1343 1.393 . S
C1340 H1329 0.950 . S
C1340 C1338 1.391 . S
C1340 C1341 1.400 . S
C1341 C1335 1.491 . S
C1341 C1340 1.400 . S
C1341 C1342 1.398 . S
C1342 H1330 0.950 . S
C1342 C1341 1.398 . S
C1342 C1343 1.391 . S
C1343 H1331 0.950 . S
C1343 C1339 1.393 . S
C1343 C1342 1.391 . S
H1344 C1352 0.950 . S
H1345 C1357 0.950 . S
H1346 C1354 0.950 . S
H1347 C1356 0.950 . S
H1348 C1358 0.950 . S
H1349 C1360 0.950 . S
H1350 C1362 0.950 . S
H1351 C1363 0.950 . S
C1352 H1344 0.950 . S
C1352 C1353 1.386 . S
C1352 C1354 1.391 . S
C1353 C1352 1.386 . S
C1353 C1357 1.393 . S
C1354 H1346 0.950 . S
C1354 C1352 1.391 . S
C1354 C1355 1.400 . S
C1355 C1354 1.400 . S
C1355 C1356 1.398 . S
C1355 C1361 1.491 . S
C1356 H1347 0.950 . S
C1356 C1355 1.398 . S
C1356 C1357 1.391 . S
C1357 H1345 0.950 . S
C1357 C1353 1.393 . S
C1357 C1356 1.391 . S
C1358 H1348 0.950 . S
C1358 C1359 1.386 . S
C1358 C1360 1.391 . S
C1359 C1358 1.386 . S
C1359 C1363 1.393 . S
C1360 H1349 0.950 . S
C1360 C1358 1.391 . S
C1360 C1361 1.400 . S
C1361 C1355 1.491 . S
C1361 C1360 1.400 . S
C1361 C1362 1.398 . S
C1362 H1350 0.950 . S
C1362 C1361 1.398 . S
C1362 C1363 1.391 . S
C1363 H1351 0.950 . S
C1363 C1359 1.393 . S
C1363 C1362 1.391 . S
H1364 C1372 0.950 . S
H1365 C1377 0.950 . S
H1366 C1374 0.950 . S
H1367 C1376 0.950 . S
H1368 C1378 0.950 . S
H1369 C1380 0.950 . S
H1370 C1382 0.950 . S
H1371 C1383 0.950 . S
C1372 H1364 0.950 . S
C1372 C1373 1.386 . S
C1372 C1374 1.391 . S
C1373 C1372 1.386 . S
C1373 C1377 1.393 . S
C1374 H1366 0.950 . S
C1374 C1372 1.391 . S
C1374 C1375 1.400 . S
C1375 C1374 1.400 . S
C1375 C1376 1.398 . S
C1375 C1381 1.491 . S
C1376 H1367 0.950 . S
C1376 C1375 1.398 . S
C1376 C1377 1.391 . S
C1377 H1365 0.950 . S
C1377 C1373 1.393 . S
C1377 C1376 1.391 . S
C1378 H1368 0.950 . S
C1378 C1379 1.386 . S
C1378 C1380 1.391 . S
C1379 C1378 1.386 . S
C1379 C1383 1.393 . S
C1380 H1369 0.950 . S
C1380 C1378 1.391 . S
C1380 C1381 1.400 . S
C1381 C1375 1.491 . S
C1381 C1380 1.400 . S
C1381 C1382 1.398 . S
C1382 H1370 0.950 . S
C1382 C1381 1.398 . S
C1382 C1383 1.391 . S
C1383 H1371 0.950 . S
C1383 C1379 1.393 . S
C1383 C1382 1.391 . S
H1384 C1392 0.950 . S
H1385 C1397 0.950 . S
H1386 C1394 0.950 . S
H1387 C1396 0.950 . S
H1388 C1398 0.950 . S
H1389 C1400 0.950 . S
H1390 C1402 0.950 . S
H1391 C1403 0.950 . S
C1392 H1384 0.950 . S
C1392 C1393 1.386 . S
C1392 C1394 1.391 . S
C1393 C1392 1.386 . S
C1393 C1397 1.393 . S
C1394 H1386 0.950 . S
C1394 C1392 1.391 . S
C1394 C1395 1.400 . S
C1395 C1394 1.400 . S
C1395 C1396 1.398 . S
C1395 C1401 1.491 . S
C1396 H1387 0.950 . S
C1396 C1395 1.398 . S
C1396 C1397 1.391 . S
C1397 H1385 0.950 . S
C1397 C1393 1.393 . S
C1397 C1396 1.391 . S
C1398 H1388 0.950 . S
C1398 C1399 1.386 . S
C1398 C1400 1.391 . S
C1399 C1398 1.386 . S
C1399 C1403 1.393 . S
C1400 H1389 0.950 . S
C1400 C1398 1.391 . S
C1400 C1401 1.400 . S
C1401 C1395 1.491 . S
C1401 C1400 1.400 . S
C1401 C1402 1.398 . S
C1402 H1390 0.950 . S
C1402 C1401 1.398 . S
C1402 C1403 1.391 . S
C1403 H1391 0.950 . S
C1403 C1399 1.393 . S
C1403 C1402 1.391 . S
H1404 C1412 0.950 . S
H1405 C1417 0.950 . S
H1406 C1414 0.950 . S
H1407 C1416 0.950 . S
H1408 C1418 0.950 . S
H1409 C1420 0.950 . S
H1410 C1422 0.950 . S
H1411 C1423 0.950 . S
C1412 H1404 0.950 . S
C1412 C1413 1.386 . S
C1412 C1414 1.391 . S
C1413 C1412 1.386 . S
C1413 C1417 1.393 . S
C1414 H1406 0.950 . S
C1414 C1412 1.391 . S
C1414 C1415 1.400 . S
C1415 C1414 1.400 . S
C1415 C1416 1.398 . S
C1415 C1421 1.491 . S
C1416 H1407 0.950 . S
C1416 C1415 1.398 . S
C1416 C1417 1.391 . S
C1417 H1405 0.950 . S
C1417 C1413 1.393 . S
C1417 C1416 1.391 . S
C1418 H1408 0.950 . S
C1418 C1419 1.386 . S
C1418 C1420 1.391 . S
C1419 C1418 1.386 . S
C1419 C1423 1.393 . S
C1420 H1409 0.950 . S
C1420 C1418 1.391 . S
C1420 C1421 1.400 . S
C1421 C1415 1.491 . S
C1421 C1420 1.400 . S
C1421 C1422 1.398 . S
C1422 H1410 0.950 . S
C1422 C1421 1.398 . S
C1422 C1423 1.391 . S
C1423 H1411 0.950 . S
C1423 C1419 1.393 . S
C1423 C1422 1.391 . S
H1424 C1432 0.950 . S
H1425 C1437 0.950 . S
H1426 C1434 0.950 . S
H1427 C1436 0.950 . S
H1428 C1438 0.950 . S
H1429 C1440 0.950 . S
H1430 C1442 0.950 . S
H1431 C1443 0.950 . S
C1432 H1424 0.950 . S
C1432 C1433 1.386 . S
C1432 C1434 1.391 . S
C1433 C1432 1.386 . S
C1433 C1437 1.393 . S
C1434 H1426 0.950 . S
C1434 C1432 1.391 . S
C1434 C1435 1.400 . S
C1435 C1434 1.400 . S
C1435 C1436 1.398 . S
C1435 C1441 1.491 . S
C1436 H1427 0.950 . S
C1436 C1435 1.398 . S
C1436 C1437 1.391 . S
C1437 H1425 0.950 . S
C1437 C1433 1.393 . S
C1437 C1436 1.391 . S
C1438 H1428 0.950 . S
C1438 C1439 1.386 . S
C1438 C1440 1.391 . S
C1439 C1438 1.386 . S
C1439 C1443 1.393 . S
C1440 H1429 0.950 . S
C1440 C1438 1.391 . S
C1440 C1441 1.400 . S
C1441 C1435 1.491 . S
C1441 C1440 1.400 . S
C1441 C1442 1.398 . S
C1442 H1430 0.950 . S
C1442 C1441 1.398 . S
C1442 C1443 1.391 . S
C1443 H1431 0.950 . S
C1443 C1439 1.393 . S
C1443 C1442 1.391 . S
H1444 C1452 0.950 . S
H1445 C1457 0.950 . S
H1446 C1454 0.950 . S
H1447 C1456 0.950 . S
H1448 C1458 0.950 . S
H1449 C1460 0.950 . S
H1450 C1462 0.950 . S
H1451 C1463 0.950 . S
C1452 H1444 0.950 . S
C1452 C1453 1.386 . S
C1452 C1454 1.391 . S
C1453 C1452 1.386 . S
C1453 C1457 1.393 . S
C1454 H1446 0.950 . S
C1454 C1452 1.391 . S
C1454 C1455 1.400 . S
C1455 C1454 1.400 . S
C1455 C1456 1.398 . S
C1455 C1461 1.491 . S
C1456 H1447 0.950 . S
C1456 C1455 1.398 . S
C1456 C1457 1.391 . S
C1457 H1445 0.950 . S
C1457 C1453 1.393 . S
C1457 C1456 1.391 . S
C1458 H1448 0.950 . S
C1458 C1459 1.386 . S
C1458 C1460 1.391 . S
C1459 C1458 1.386 . S
C1459 C1463 1.393 . S
C1460 H1449 0.950 . S
C1460 C1458 1.391 . S
C1460 C1461 1.400 . S
C1461 C1455 1.491 . S
C1461 C1460 1.400 . S
C1461 C1462 1.398 . S
C1462 H1450 0.950 . S
C1462 C1461 1.398 . S
C1462 C1463 1.391 . S
C1463 H1451 0.950 . S
C1463 C1459 1.393 . S
C1463 C1462 1.391 . S
H1464 C1472 0.950 . S
H1465 C1477 0.950 . S
H1466 C1474 0.950 . S
H1467 C1476 0.950 . S
H1468 C1478 0.950 . S
H1469 C1480 0.950 . S
H1470 C1482 0.950 . S
H1471 C1483 0.950 . S
C1472 H1464 0.950 . S
C1472 C1473 1.386 . S
C1472 C1474 1.391 . S
C1473 C1472 1.386 . S
C1473 C1477 1.393 1_455 S
C1474 H1466 0.950 . S
C1474 C1472 1.391 . S
C1474 C1475 1.400 . S
C1475 C1474 1.400 . S
C1475 C1476 1.398 1_455 S
C1475 C1481 1.491 1_455 S
C1476 H1467 0.950 . S
C1476 C1475 1.398 1_655 S
C1476 C1477 1.391 . S
C1477 H1465 0.950 . S
C1477 C1473 1.393 1_655 S
C1477 C1476 1.391 . S
C1478 H1468 0.950 . S
C1478 C1479 1.386 . S
C1478 C1480 1.391 . S
C1479 C1478 1.386 . S
C1479 C1483 1.393 1_655 S
C1480 H1469 0.950 . S
C1480 C1478 1.391 . S
C1480 C1481 1.400 . S
C1481 C1475 1.491 1_655 S
C1481 C1480 1.400 . S
C1481 C1482 1.398 1_655 S
C1482 H1470 0.950 . S
C1482 C1481 1.398 1_455 S
C1482 C1483 1.391 . S
C1483 H1471 0.950 . S
C1483 C1479 1.393 1_455 S
C1483 C1482 1.391 . S
H1484 C1492 0.950 . S
H1485 C1497 0.950 . S
H1486 C1494 0.950 . S
H1487 C1496 0.950 . S
H1488 C1498 0.950 . S
H1489 C1500 0.950 . S
H1490 C1502 0.950 . S
H1491 C1503 0.950 . S
C1492 H1484 0.950 . S
C1492 C1493 1.386 . S
C1492 C1494 1.391 . S
C1493 C1492 1.386 . S
C1493 C1497 1.393 . S
C1494 H1486 0.950 . S
C1494 C1492 1.391 . S
C1494 C1495 1.400 . S
C1495 C1494 1.400 . S
C1495 C1496 1.398 . S
C1495 C1501 1.491 . S
C1496 H1487 0.950 . S
C1496 C1495 1.398 . S
C1496 C1497 1.391 . S
C1497 H1485 0.950 . S
C1497 C1493 1.393 . S
C1497 C1496 1.391 . S
C1498 H1488 0.950 . S
C1498 C1499 1.386 . S
C1498 C1500 1.391 . S
C1499 C1498 1.386 . S
C1499 C1503 1.393 . S
C1500 H1489 0.950 . S
C1500 C1498 1.391 . S
C1500 C1501 1.400 . S
C1501 C1495 1.491 . S
C1501 C1500 1.400 . S
C1501 C1502 1.398 . S
C1502 H1490 0.950 . S
C1502 C1501 1.398 . S
C1502 C1503 1.391 . S
C1503 H1491 0.950 . S
C1503 C1499 1.393 . S
C1503 C1502 1.391 . S
H1504 C1512 0.950 . S
H1505 C1517 0.950 . S
H1506 C1514 0.950 . S
H1507 C1516 0.950 . S
H1508 C1518 0.950 . S
H1509 C1520 0.950 . S
H1510 C1522 0.950 . S
H1511 C1523 0.950 . S
C1512 H1504 0.950 . S
C1512 C1513 1.386 1_565 S
C1512 C1514 1.391 . S
C1513 C1512 1.386 1_545 S
C1513 C1517 1.393 . S
C1514 H1506 0.950 . S
C1514 C1512 1.391 . S
C1514 C1515 1.400 1_565 S
C1515 C1514 1.400 1_545 S
C1515 C1516 1.398 . S
C1515 C1521 1.491 1_545 S
C1516 H1507 0.950 . S
C1516 C1515 1.398 . S
C1516 C1517 1.391 . S
C1517 H1505 0.950 . S
C1517 C1513 1.393 . S
C1517 C1516 1.391 . S
C1518 H1508 0.950 . S
C1518 C1519 1.386 1_545 S
C1518 C1520 1.391 . S
C1519 C1518 1.386 1_565 S
C1519 C1523 1.393 . S
C1520 H1509 0.950 . S
C1520 C1518 1.391 . S
C1520 C1521 1.400 1_545 S
C1521 C1515 1.491 1_565 S
C1521 C1520 1.400 1_565 S
C1521 C1522 1.398 . S
C1522 H1510 0.950 . S
C1522 C1521 1.398 . S
C1522 C1523 1.391 . S
C1523 H1511 0.950 . S
C1523 C1519 1.393 . S
C1523 C1522 1.391 . S
H1524 C1532 0.950 . S
H1525 C1537 0.950 . S
H1526 C1534 0.950 . S
H1527 C1536 0.950 . S
H1528 C1538 0.950 . S
H1529 C1540 0.950 . S
H1530 C1542 0.950 . S
H1531 C1543 0.950 . S
C1532 H1524 0.950 . S
C1532 C1533 1.386 . S
C1532 C1534 1.391 . S
C1533 C1532 1.386 . S
C1533 C1537 1.393 1_545 S
C1534 H1526 0.950 . S
C1534 C1532 1.391 . S
C1534 C1535 1.400 . S
C1535 C1534 1.400 . S
C1535 C1536 1.398 1_545 S
C1535 C1541 1.491 1_546 S
C1536 H1527 0.950 . S
C1536 C1535 1.398 1_565 S
C1536 C1537 1.391 . S
C1537 H1525 0.950 . S
C1537 C1533 1.393 1_565 S
C1537 C1536 1.391 . S
C1538 H1528 0.950 . S
C1538 C1539 1.386 . S
C1538 C1540 1.391 . S
C1539 C1538 1.386 . S
C1539 C1543 1.393 1_565 S
C1540 H1529 0.950 . S
C1540 C1538 1.391 . S
C1540 C1541 1.400 . S
C1541 C1535 1.491 1_564 S
C1541 C1540 1.400 . S
C1541 C1542 1.398 1_565 S
C1542 H1530 0.950 . S
C1542 C1541 1.398 1_545 S
C1542 C1543 1.391 . S
C1543 H1531 0.950 . S
C1543 C1539 1.393 1_545 S
C1543 C1542 1.391 . S
H1544 C1552 0.950 . S
H1545 C1557 0.950 . S
H1546 C1554 0.950 1_556 S
H1547 C1556 0.950 . S
H1548 C1558 0.950 . S
H1549 C1560 0.950 1_554 S
H1550 C1562 0.950 . S
H1551 C1563 0.950 . S
C1552 H1544 0.950 . S
C1552 C1553 1.386 . S
C1552 C1554 1.391 . S
C1553 C1552 1.386 . S
C1553 C1557 1.393 1_455 S
C1554 H1546 0.950 1_554 S
C1554 C1552 1.391 . S
C1554 C1555 1.400 . S
C1555 C1554 1.400 . S
C1555 C1556 1.398 1_455 S
C1555 C1561 1.491 1_454 S
C1556 H1547 0.950 . S
C1556 C1555 1.398 1_655 S
C1556 C1557 1.391 . S
C1557 H1545 0.950 . S
C1557 C1553 1.393 1_655 S
C1557 C1556 1.391 . S
C1558 H1548 0.950 . S
C1558 C1559 1.386 . S
C1558 C1560 1.391 . S
C1559 C1558 1.386 . S
C1559 C1563 1.393 1_655 S
C1560 H1549 0.950 1_556 S
C1560 C1558 1.391 . S
C1560 C1561 1.400 . S
C1561 C1555 1.491 1_656 S
C1561 C1560 1.400 . S
C1561 C1562 1.398 1_655 S
C1562 H1550 0.950 . S
C1562 C1561 1.398 1_455 S
C1562 C1563 1.391 . S
C1563 H1551 0.950 . S
C1563 C1559 1.393 1_455 S
C1563 C1562 1.391 . S
H1564 C1572 0.950 . S
H1565 C1577 0.953 . S
H1566 C1574 0.950 . S
H1567 C1576 0.950 . S
H1568 C1578 0.950 . S
H1569 C1580 0.950 . S
H1570 C1582 0.950 . S
H1571 C1583 0.953 . S
C1572 H1564 0.950 . S
C1572 C1573 1.386 . S
C1572 C1574 1.391 . S
C1573 C1572 1.386 . S
C1573 C1577 1.388 1_554 S
C1574 H1566 0.950 . S
C1574 C1572 1.391 . S
C1574 C1575 1.400 . S
C1575 C1574 1.400 . S
C1575 C1576 1.398 1_554 S
C1575 C1581 1.491 1_554 S
C1576 H1567 0.950 . S
C1576 C1575 1.398 1_556 S
C1576 C1577 1.393 . S
C1577 H1565 0.953 . S
C1577 C1573 1.388 1_556 S
C1577 C1576 1.393 . S
C1578 H1568 0.950 . S
C1578 C1579 1.386 . S
C1578 C1580 1.391 . S
C1579 C1578 1.386 . S
C1579 C1583 1.388 1_556 S
C1580 H1569 0.950 . S
C1580 C1578 1.391 . S
C1580 C1581 1.400 . S
C1581 C1575 1.491 1_556 S
C1581 C1580 1.400 . S
C1581 C1582 1.398 1_556 S
C1582 H1570 0.950 . S
C1582 C1581 1.398 1_554 S
C1582 C1583 1.393 . S
C1583 H1571 0.953 . S
C1583 C1579 1.388 1_554 S
C1583 C1582 1.393 . S
H1584 C1592 0.950 . S
H1585 C1597 0.950 . S
H1586 C1594 0.950 . S
H1587 C1596 0.950 . S
H1588 C1598 0.950 . S
H1589 C1600 0.950 . S
H1590 C1602 0.950 . S
H1591 C1603 0.950 . S
C1592 H1584 0.950 . S
C1592 C1593 1.386 . S
C1592 C1594 1.391 . S
C1593 C1592 1.386 . S
C1593 C1597 1.393 . S
C1594 H1586 0.950 . S
C1594 C1592 1.391 . S
C1594 C1595 1.400 . S
C1595 C1594 1.400 . S
C1595 C1596 1.398 . S
C1595 C1601 1.491 . S
C1596 H1587 0.950 . S
C1596 C1595 1.398 . S
C1596 C1597 1.391 . S
C1597 H1585 0.950 . S
C1597 C1593 1.393 . S
C1597 C1596 1.391 . S
C1598 H1588 0.950 . S
C1598 C1599 1.386 . S
C1598 C1600 1.391 . S
C1599 C1598 1.386 . S
C1599 C1603 1.393 . S
C1600 H1589 0.950 . S
C1600 C1598 1.391 . S
C1600 C1601 1.400 . S
C1601 C1595 1.491 . S
C1601 C1600 1.400 . S
C1601 C1602 1.398 . S
C1602 H1590 0.950 . S
C1602 C1601 1.398 . S
C1602 C1603 1.391 . S
C1603 H1591 0.950 . S
C1603 C1599 1.393 . S
C1603 C1602 1.391 . S
H1604 C1612 0.950 . S
H1605 C1617 0.950 . S
H1606 C1614 0.950 . S
H1607 C1616 0.950 . S
H1608 C1618 0.950 . S
H1609 C1620 0.950 . S
H1610 C1622 0.950 . S
H1611 C1623 0.950 1_556 S
C1612 H1604 0.950 . S
C1612 C1613 1.386 . S
C1612 C1614 1.391 . S
C1613 C1612 1.386 . S
C1613 C1617 1.393 . S
C1614 H1606 0.950 . S
C1614 C1612 1.391 . S
C1614 C1615 1.400 . S
C1615 C1614 1.400 . S
C1615 C1616 1.398 . S
C1615 C1621 1.491 . S
C1616 H1607 0.950 . S
C1616 C1615 1.398 . S
C1616 C1617 1.391 . S
C1617 H1605 0.950 . S
C1617 C1613 1.393 . S
C1617 C1616 1.391 . S
C1618 H1608 0.950 . S
C1618 C1619 1.386 . S
C1618 C1620 1.391 . S
C1619 C1618 1.386 . S
C1619 C1623 1.393 . S
C1620 H1609 0.950 . S
C1620 C1618 1.391 . S
C1620 C1621 1.400 . S
C1621 C1615 1.491 . S
C1621 C1620 1.400 . S
C1621 C1622 1.398 . S
C1622 H1610 0.950 . S
C1622 C1621 1.398 . S
C1622 C1623 1.391 . S
C1623 H1611 0.950 1_554 S
C1623 C1619 1.393 . S
C1623 C1622 1.391 . S
H1624 C1632 0.950 . S
H1625 C1637 0.950 . S
H1626 C1634 0.950 . S
H1627 C1636 0.950 . S
H1628 C1638 0.950 . S
H1629 C1640 0.950 . S
H1630 C1642 0.950 . S
H1631 C1643 0.950 . S
C1632 H1624 0.950 . S
C1632 C1633 1.386 . S
C1632 C1634 1.391 . S
C1633 C1632 1.386 . S
C1633 C1637 1.393 . S
C1634 H1626 0.950 . S
C1634 C1632 1.391 . S
C1634 C1635 1.400 . S
C1635 C1634 1.400 . S
C1635 C1636 1.398 . S
C1635 C1641 1.491 . S
C1636 H1627 0.950 . S
C1636 C1635 1.398 . S
C1636 C1637 1.391 . S
C1637 H1625 0.950 . S
C1637 C1633 1.393 . S
C1637 C1636 1.391 . S
C1638 H1628 0.950 . S
C1638 C1639 1.386 . S
C1638 C1640 1.391 . S
C1639 C1638 1.386 . S
C1639 C1643 1.393 . S
C1640 H1629 0.950 . S
C1640 C1638 1.391 . S
C1640 C1641 1.400 . S
C1641 C1635 1.491 . S
C1641 C1640 1.400 . S
C1641 C1642 1.398 . S
C1642 H1630 0.950 . S
C1642 C1641 1.398 . S
C1642 C1643 1.391 . S
C1643 H1631 0.950 . S
C1643 C1639 1.393 . S
C1643 C1642 1.391 . S
H1644 C1652 0.950 . S
H1645 C1657 0.950 . S
H1646 C1654 0.950 . S
H1647 C1656 0.950 . S
H1648 C1658 0.950 . S
H1649 C1660 0.950 . S
H1650 C1662 0.950 . S
H1651 C1663 0.950 . S
C1652 H1644 0.950 . S
C1652 C1653 1.386 . S
C1652 C1654 1.391 . S
C1653 C1652 1.386 . S
C1653 C1657 1.393 . S
C1654 H1646 0.950 . S
C1654 C1652 1.391 . S
C1654 C1655 1.400 . S
C1655 C1654 1.400 . S
C1655 C1656 1.398 . S
C1655 C1661 1.491 . S
C1656 H1647 0.950 . S
C1656 C1655 1.398 . S
C1656 C1657 1.391 . S
C1657 H1645 0.950 . S
C1657 C1653 1.393 . S
C1657 C1656 1.391 . S
C1658 H1648 0.950 . S
C1658 C1659 1.386 . S
C1658 C1660 1.391 . S
C1659 C1658 1.386 . S
C1659 C1663 1.393 . S
C1660 H1649 0.950 . S
C1660 C1658 1.391 . S
C1660 C1661 1.400 . S
C1661 C1655 1.491 . S
C1661 C1660 1.400 . S
C1661 C1662 1.398 . S
C1662 H1650 0.950 . S
C1662 C1661 1.398 . S
C1662 C1663 1.391 . S
C1663 H1651 0.950 . S
C1663 C1659 1.393 . S
C1663 C1662 1.391 . S
H1664 C1672 0.950 . S
H1665 C1677 0.950 . S
H1666 C1674 0.950 . S
H1667 C1676 0.950 . S
H1668 C1678 0.950 . S
H1669 C1680 0.950 . S
H1670 C1682 0.950 . S
H1671 C1683 0.950 . S
C1672 H1664 0.950 . S
C1672 C1673 1.386 . S
C1672 C1674 1.391 . S
C1673 C1672 1.386 . S
C1673 C1677 1.393 . S
C1674 H1666 0.950 . S
C1674 C1672 1.391 . S
C1674 C1675 1.400 . S
C1675 C1674 1.400 . S
C1675 C1676 1.398 . S
C1675 C1681 1.491 . S
C1676 H1667 0.950 . S
C1676 C1675 1.398 . S
C1676 C1677 1.391 . S
C1677 H1665 0.950 . S
C1677 C1673 1.393 . S
C1677 C1676 1.391 . S
C1678 H1668 0.950 . S
C1678 C1679 1.386 . S
C1678 C1680 1.391 . S
C1679 C1678 1.386 . S
C1679 C1683 1.393 . S
C1680 H1669 0.950 . S
C1680 C1678 1.391 . S
C1680 C1681 1.400 . S
C1681 C1675 1.491 . S
C1681 C1680 1.400 . S
C1681 C1682 1.398 . S
C1682 H1670 0.950 . S
C1682 C1681 1.398 . S
C1682 C1683 1.391 . S
C1683 H1671 0.950 . S
C1683 C1679 1.393 . S
C1683 C1682 1.391 . S
H1684 C1692 0.950 . S
H1685 C1697 0.950 . S
H1686 C1694 0.950 . S
H1687 C1696 0.950 . S
H1688 C1698 0.950 . S
H1689 C1700 0.950 . S
H1690 C1702 0.950 . S
H1691 C1703 0.950 . S
C1692 H1684 0.950 . S
C1692 C1693 1.386 . S
C1692 C1694 1.391 . S
C1693 C1692 1.386 . S
C1693 C1697 1.393 . S
C1694 H1686 0.950 . S
C1694 C1692 1.391 . S
C1694 C1695 1.400 . S
C1695 C1694 1.400 . S
C1695 C1696 1.398 . S
C1695 C1701 1.491 . S
C1696 H1687 0.950 . S
C1696 C1695 1.398 . S
C1696 C1697 1.391 . S
C1697 H1685 0.950 . S
C1697 C1693 1.393 . S
C1697 C1696 1.391 . S
C1698 H1688 0.950 . S
C1698 C1699 1.386 . S
C1698 C1700 1.391 . S
C1699 C1698 1.386 . S
C1699 C1703 1.393 . S
C1700 H1689 0.950 . S
C1700 C1698 1.391 . S
C1700 C1701 1.400 . S
C1701 C1695 1.491 . S
C1701 C1700 1.400 . S
C1701 C1702 1.398 . S
C1702 H1690 0.950 . S
C1702 C1701 1.398 . S
C1702 C1703 1.391 . S
C1703 H1691 0.950 . S
C1703 C1699 1.393 . S
C1703 C1702 1.391 . S
H1704 C1712 0.950 . S
H1705 C1717 0.950 . S
H1706 C1714 0.950 . S
H1707 C1716 0.950 . S
H1708 C1718 0.950 . S
H1709 C1720 0.950 . S
H1710 C1722 0.950 . S
H1711 C1723 0.950 1_554 S
C1712 H1704 0.950 . S
C1712 C1713 1.386 . S
C1712 C1714 1.391 . S
C1713 C1712 1.386 . S
C1713 C1717 1.393 . S
C1714 H1706 0.950 . S
C1714 C1712 1.391 . S
C1714 C1715 1.400 . S
C1715 C1714 1.400 . S
C1715 C1716 1.398 . S
C1715 C1721 1.491 . S
C1716 H1707 0.950 . S
C1716 C1715 1.398 . S
C1716 C1717 1.391 . S
C1717 H1705 0.950 . S
C1717 C1713 1.393 . S
C1717 C1716 1.391 . S
C1718 H1708 0.950 . S
C1718 C1719 1.386 . S
C1718 C1720 1.391 . S
C1719 C1718 1.386 . S
C1719 C1723 1.393 . S
C1720 H1709 0.950 . S
C1720 C1718 1.391 . S
C1720 C1721 1.400 . S
C1721 C1715 1.491 . S
C1721 C1720 1.400 . S
C1721 C1722 1.398 . S
C1722 H1710 0.950 . S
C1722 C1721 1.398 . S
C1722 C1723 1.391 . S
C1723 H1711 0.950 1_556 S
C1723 C1719 1.393 . S
C1723 C1722 1.391 . S
H1724 C1732 0.950 . S
H1725 C1737 0.950 1_554 S
H1726 C1734 0.950 . S
H1727 C1736 0.950 . S
H1728 C1738 0.950 . S
H1729 C1740 0.950 . S
H1730 C1742 0.950 . S
H1731 C1743 0.950 . S
C1732 H1724 0.950 . S
C1732 C1733 1.386 . S
C1732 C1734 1.391 . S
C1733 C1732 1.386 . S
C1733 C1737 1.393 . S
C1734 H1726 0.950 . S
C1734 C1732 1.391 . S
C1734 C1735 1.400 . S
C1735 C1734 1.400 . S
C1735 C1736 1.398 . S
C1735 C1741 1.491 . S
C1736 H1727 0.950 . S
C1736 C1735 1.398 . S
C1736 C1737 1.391 . S
C1737 H1725 0.950 1_556 S
C1737 C1733 1.393 . S
C1737 C1736 1.391 . S
C1738 H1728 0.950 . S
C1738 C1739 1.386 . S
C1738 C1740 1.391 . S
C1739 C1738 1.386 . S
C1739 C1743 1.393 . S
C1740 H1729 0.950 . S
C1740 C1738 1.391 . S
C1740 C1741 1.400 . S
C1741 C1735 1.491 . S
C1741 C1740 1.400 . S
C1741 C1742 1.398 . S
C1742 H1730 0.950 . S
C1742 C1741 1.398 . S
C1742 C1743 1.391 . S
C1743 H1731 0.950 . S
C1743 C1739 1.393 . S
C1743 C1742 1.391 . S
H1744 C1752 0.950 . S
H1745 C1757 0.950 . S
H1746 C1754 0.950 . S
H1747 C1756 0.950 . S
H1748 C1758 0.950 . S
H1749 C1760 0.950 . S
H1750 C1762 0.950 . S
H1751 C1763 0.950 . S
C1752 H1744 0.950 . S
C1752 C1753 1.386 . S
C1752 C1754 1.391 . S
C1753 C1752 1.386 . S
C1753 C1757 1.393 . S
C1754 H1746 0.950 . S
C1754 C1752 1.391 . S
C1754 C1755 1.400 . S
C1755 C1754 1.400 . S
C1755 C1756 1.398 . S
C1755 C1761 1.491 . S
C1756 H1747 0.950 . S
C1756 C1755 1.398 . S
C1756 C1757 1.391 . S
C1757 H1745 0.950 . S
C1757 C1753 1.393 . S
C1757 C1756 1.391 . S
C1758 H1748 0.950 . S
C1758 C1759 1.386 . S
C1758 C1760 1.391 . S
C1759 C1758 1.386 . S
C1759 C1763 1.393 . S
C1760 H1749 0.950 . S
C1760 C1758 1.391 . S
C1760 C1761 1.400 . S
C1761 C1755 1.491 . S
C1761 C1760 1.400 . S
C1761 C1762 1.398 . S
C1762 H1750 0.950 . S
C1762 C1761 1.398 . S
C1762 C1763 1.391 . S
C1763 H1751 0.950 . S
C1763 C1759 1.393 . S
C1763 C1762 1.391 . S
H1764 C1772 0.950 . S
H1765 C1777 0.950 . S
H1766 C1774 0.950 . S
H1767 C1776 0.950 . S
H1768 C1778 0.950 . S
H1769 C1780 0.950 . S
H1770 C1782 0.950 . S
H1771 C1783 0.950 . S
C1772 H1764 0.950 . S
C1772 C1773 1.386 . S
C1772 C1774 1.391 . S
C1773 C1772 1.386 . S
C1773 C1777 1.393 . S
C1774 H1766 0.950 . S
C1774 C1772 1.391 . S
C1774 C1775 1.400 . S
C1775 C1774 1.400 . S
C1775 C1776 1.398 . S
C1775 C1781 1.491 . S
C1776 H1767 0.950 . S
C1776 C1775 1.398 . S
C1776 C1777 1.391 . S
C1777 H1765 0.950 . S
C1777 C1773 1.393 . S
C1777 C1776 1.391 . S
C1778 H1768 0.950 . S
C1778 C1779 1.386 . S
C1778 C1780 1.391 . S
C1779 C1778 1.386 . S
C1779 C1783 1.393 . S
C1780 H1769 0.950 . S
C1780 C1778 1.391 . S
C1780 C1781 1.400 . S
C1781 C1775 1.491 . S
C1781 C1780 1.400 . S
C1781 C1782 1.398 . S
C1782 H1770 0.950 . S
C1782 C1781 1.398 . S
C1782 C1783 1.391 . S
C1783 H1771 0.950 . S
C1783 C1779 1.393 . S
C1783 C1782 1.391 . S
H1784 C1792 0.950 . S
H1785 C1797 0.950 . S
H1786 C1794 0.950 . S
H1787 C1796 0.950 . S
H1788 C1798 0.950 . S
H1789 C1800 0.950 . S
H1790 C1802 0.950 . S
H1791 C1803 0.950 . S
C1792 H1784 0.950 . S
C1792 C1793 1.386 . S
C1792 C1794 1.391 . S
C1793 C1792 1.386 . S
C1793 C1797 1.393 . S
C1794 H1786 0.950 . S
C1794 C1792 1.391 . S
C1794 C1795 1.400 . S
C1795 C1794 1.400 . S
C1795 C1796 1.398 . S
C1795 C1801 1.491 . S
C1796 H1787 0.950 . S
C1796 C1795 1.398 . S
C1796 C1797 1.391 . S
C1797 H1785 0.950 . S
C1797 C1793 1.393 . S
C1797 C1796 1.391 . S
C1798 H1788 0.950 . S
C1798 C1799 1.386 . S
C1798 C1800 1.391 . S
C1799 C1798 1.386 . S
C1799 C1803 1.393 . S
C1800 H1789 0.950 . S
C1800 C1798 1.391 . S
C1800 C1801 1.400 . S
C1801 C1795 1.491 . S
C1801 C1800 1.400 . S
C1801 C1802 1.398 . S
C1802 H1790 0.950 . S
C1802 C1801 1.398 . S
C1802 C1803 1.391 . S
C1803 H1791 0.950 . S
C1803 C1799 1.393 . S
C1803 C1802 1.391 . S
H1804 C1812 0.950 . S
H1805 C1817 0.950 . S
H1806 C1814 0.950 . S
H1807 C1816 0.950 . S
H1808 C1818 0.950 . S
H1809 C1820 0.950 . S
H1810 C1822 0.950 . S
H1811 C1823 0.950 . S
C1812 H1804 0.950 . S
C1812 C1813 1.386 . S
C1812 C1814 1.391 . S
C1813 C1812 1.386 . S
C1813 C1817 1.393 . S
C1814 H1806 0.950 . S
C1814 C1812 1.391 . S
C1814 C1815 1.400 . S
C1815 C1814 1.400 . S
C1815 C1816 1.398 . S
C1815 C1821 1.491 . S
C1816 H1807 0.950 . S
C1816 C1815 1.398 . S
C1816 C1817 1.391 . S
C1817 H1805 0.950 . S
C1817 C1813 1.393 . S
C1817 C1816 1.391 . S
C1818 H1808 0.950 . S
C1818 C1819 1.386 . S
C1818 C1820 1.391 . S
C1819 C1818 1.386 . S
C1819 C1823 1.393 . S
C1820 H1809 0.950 . S
C1820 C1818 1.391 . S
C1820 C1821 1.400 . S
C1821 C1815 1.491 . S
C1821 C1820 1.400 . S
C1821 C1822 1.398 . S
C1822 H1810 0.950 . S
C1822 C1821 1.398 . S
C1822 C1823 1.391 . S
C1823 H1811 0.950 . S
C1823 C1819 1.393 . S
C1823 C1822 1.391 . S
H1824 C1832 0.950 . S
H1825 C1837 0.950 . S
H1826 C1834 0.950 . S
H1827 C1836 0.950 . S
H1828 C1838 0.950 . S
H1829 C1840 0.950 . S
H1830 C1842 0.950 . S
H1831 C1843 0.950 . S
C1832 H1824 0.950 . S
C1832 C1833 1.386 . S
C1832 C1834 1.391 . S
C1833 C1832 1.386 . S
C1833 C1837 1.393 . S
C1834 H1826 0.950 . S
C1834 C1832 1.391 . S
C1834 C1835 1.400 . S
C1835 C1834 1.400 . S
C1835 C1836 1.398 . S
C1835 C1841 1.491 . S
C1836 H1827 0.950 . S
C1836 C1835 1.398 . S
C1836 C1837 1.391 . S
C1837 H1825 0.950 . S
C1837 C1833 1.393 . S
C1837 C1836 1.391 . S
C1838 H1828 0.950 . S
C1838 C1839 1.386 . S
C1838 C1840 1.391 . S
C1839 C1838 1.386 . S
C1839 C1843 1.393 . S
C1840 H1829 0.950 . S
C1840 C1838 1.391 . S
C1840 C1841 1.400 . S
C1841 C1835 1.491 . S
C1841 C1840 1.400 . S
C1841 C1842 1.398 . S
C1842 H1830 0.950 . S
C1842 C1841 1.398 . S
C1842 C1843 1.391 . S
C1843 H1831 0.950 . S
C1843 C1839 1.393 . S
C1843 C1842 1.391 . S
H1844 C1852 0.950 . S
H1845 C1857 0.950 . S
H1846 C1854 0.950 . S
H1847 C1856 0.950 1_565 S
H1848 C1858 0.950 . S
H1849 C1860 0.950 . S
H1850 C1862 0.950 1_545 S
H1851 C1863 0.950 . S
C1852 H1844 0.950 . S
C1852 C1853 1.386 . S
C1852 C1854 1.391 . S
C1853 C1852 1.386 . S
C1853 C1857 1.393 . S
C1854 H1846 0.950 . S
C1854 C1852 1.391 . S
C1854 C1855 1.400 . S
C1855 C1854 1.400 . S
C1855 C1856 1.398 . S
C1855 C1861 1.491 1_545 S
C1856 H1847 0.950 1_545 S
C1856 C1855 1.398 . S
C1856 C1857 1.391 . S
C1857 H1845 0.950 . S
C1857 C1853 1.393 . S
C1857 C1856 1.391 . S
C1858 H1848 0.950 . S
C1858 C1859 1.386 . S
C1858 C1860 1.391 . S
C1859 C1858 1.386 . S
C1859 C1863 1.393 . S
C1860 H1849 0.950 . S
C1860 C1858 1.391 . S
C1860 C1861 1.400 . S
C1861 C1855 1.491 1_565 S
C1861 C1860 1.400 . S
C1861 C1862 1.398 . S
C1862 H1850 0.950 1_565 S
C1862 C1861 1.398 . S
C1862 C1863 1.391 . S
C1863 H1851 0.950 . S
C1863 C1859 1.393 . S
C1863 C1862 1.391 . S
H1864 C1872 0.950 . S
H1865 C1877 0.950 . S
H1866 C1874 0.950 1_455 S
H1867 C1876 0.950 . S
H1868 C1878 0.950 . S
H1869 C1880 0.950 1_655 S
H1870 C1882 0.950 . S
H1871 C1883 0.950 . S
C1872 H1864 0.950 . S
C1872 C1873 1.386 . S
C1872 C1874 1.391 . S
C1873 C1872 1.386 . S
C1873 C1877 1.393 . S
C1874 H1866 0.950 1_655 S
C1874 C1872 1.391 . S
C1874 C1875 1.400 . S
C1875 C1874 1.400 . S
C1875 C1876 1.398 . S
C1875 C1881 1.491 1_655 S
C1876 H1867 0.950 . S
C1876 C1875 1.398 . S
C1876 C1877 1.391 . S
C1877 H1865 0.950 . S
C1877 C1873 1.393 . S
C1877 C1876 1.391 . S
C1878 H1868 0.950 . S
C1878 C1879 1.386 . S
C1878 C1880 1.391 . S
C1879 C1878 1.386 . S
C1879 C1883 1.393 . S
C1880 H1869 0.950 1_455 S
C1880 C1878 1.391 . S
C1880 C1881 1.400 . S
C1881 C1875 1.491 1_455 S
C1881 C1880 1.400 . S
C1881 C1882 1.398 . S
C1882 H1870 0.950 . S
C1882 C1881 1.398 . S
C1882 C1883 1.391 . S
C1883 H1871 0.950 . S
C1883 C1879 1.393 . S
C1883 C1882 1.391 . S
H1884 C1892 0.950 . S
H1885 C1897 0.950 . S
H1886 C1894 0.950 . S
H1887 C1896 0.950 . S
H1888 C1898 0.950 . S
H1889 C1900 0.950 . S
H1890 C1902 0.950 . S
H1891 C1903 0.950 . S
C1892 H1884 0.950 . S
C1892 C1893 1.386 . S
C1892 C1894 1.391 . S
C1893 C1892 1.386 . S
C1893 C1897 1.393 . S
C1894 H1886 0.950 . S
C1894 C1892 1.391 . S
C1894 C1895 1.400 . S
C1895 C1894 1.400 . S
C1895 C1896 1.398 . S
C1895 C1901 1.491 . S
C1896 H1887 0.950 . S
C1896 C1895 1.398 . S
C1896 C1897 1.391 . S
C1897 H1885 0.950 . S
C1897 C1893 1.393 . S
C1897 C1896 1.391 . S
C1898 H1888 0.950 . S
C1898 C1899 1.386 . S
C1898 C1900 1.391 . S
C1899 C1898 1.386 . S
C1899 C1903 1.393 . S
C1900 H1889 0.950 . S
C1900 C1898 1.391 . S
C1900 C1901 1.400 . S
C1901 C1895 1.491 . S
C1901 C1900 1.400 . S
C1901 C1902 1.398 . S
C1902 H1890 0.950 . S
C1902 C1901 1.398 . S
C1902 C1903 1.391 . S
C1903 H1891 0.950 . S
C1903 C1899 1.393 . S
C1903 C1902 1.391 . S
H1904 C1912 0.950 . S
H1905 C1917 0.950 . S
H1906 C1914 0.950 . S
H1907 C1916 0.950 . S
H1908 C1918 0.950 . S
H1909 C1920 0.950 . S
H1910 C1922 0.950 . S
H1911 C1923 0.950 . S
C1912 H1904 0.950 . S
C1912 C1913 1.386 . S
C1912 C1914 1.391 . S
C1913 C1912 1.386 . S
C1913 C1917 1.393 . S
C1914 H1906 0.950 . S
C1914 C1912 1.391 . S
C1914 C1915 1.400 . S
C1915 C1914 1.400 . S
C1915 C1916 1.398 . S
C1915 C1921 1.491 1_545 S
C1916 H1907 0.950 . S
C1916 C1915 1.398 . S
C1916 C1917 1.391 . S
C1917 H1905 0.950 . S
C1917 C1913 1.393 . S
C1917 C1916 1.391 . S
C1918 H1908 0.950 . S
C1918 C1919 1.386 . S
C1918 C1920 1.391 . S
C1919 C1918 1.386 . S
C1919 C1923 1.393 . S
C1920 H1909 0.950 . S
C1920 C1918 1.391 . S
C1920 C1921 1.400 . S
C1921 C1915 1.491 1_565 S
C1921 C1920 1.400 . S
C1921 C1922 1.398 . S
C1922 H1910 0.950 . S
C1922 C1921 1.398 . S
C1922 C1923 1.391 . S
C1923 H1911 0.950 . S
C1923 C1919 1.393 . S
C1923 C1922 1.391 . S
H1924 C1932 0.950 . S
H1925 C1937 0.950 . S
H1926 C1934 0.950 1_655 S
H1927 C1936 0.950 . S
H1928 C1938 0.950 . S
H1929 C1940 0.950 1_455 S
H1930 C1942 0.950 . S
H1931 C1943 0.950 . S
C1932 H1924 0.950 . S
C1932 C1933 1.386 . S
C1932 C1934 1.391 . S
C1933 C1932 1.386 . S
C1933 C1937 1.393 . S
C1934 H1926 0.950 1_455 S
C1934 C1932 1.391 . S
C1934 C1935 1.400 . S
C1935 C1934 1.400 . S
C1935 C1936 1.398 . S
C1935 C1941 1.491 1_455 S
C1936 H1927 0.950 . S
C1936 C1935 1.398 . S
C1936 C1937 1.391 . S
C1937 H1925 0.950 . S
C1937 C1933 1.393 . S
C1937 C1936 1.391 . S
C1938 H1928 0.950 . S
C1938 C1939 1.386 . S
C1938 C1940 1.391 . S
C1939 C1938 1.386 . S
C1939 C1943 1.393 . S
C1940 H1929 0.950 1_655 S
C1940 C1938 1.391 . S
C1940 C1941 1.400 . S
C1941 C1935 1.491 1_655 S
C1941 C1940 1.400 . S
C1941 C1942 1.398 . S
C1942 H1930 0.950 . S
C1942 C1941 1.398 . S
C1942 C1943 1.391 . S
C1943 H1931 0.950 . S
C1943 C1939 1.393 . S
C1943 C1942 1.391 . S
C513 C79 1.195 . S
C519 C9 1.185 . S
C533 C51 1.199 . S
C539 C23 1.179 . S
C553 C37 1.174 . S
C559 C65 1.201 . S
C573 C93 1.182 . S
C579 C163 1.187 . S
C593 C107 1.174 . S
C599 C135 1.200 . S
C613 C149 1.183 . S
C619 C121 1.186 . S
C633 C177 1.188 1_655 S
C639 C247 1.182 . S
C653 C191 1.177 . S
C659 C219 1.194 . S
C673 C233 1.201 . S
C679 C205 1.175 1_545 S
C693 C331 1.196 . S
C699 C261 1.175 . S
C713 C303 1.197 1_545 S
C719 C275 1.175 . S
C733 C289 1.197 . S
C739 C317 1.175 1_655 S
C753 C415 1.189 . S
C759 C345 1.192 . S
C773 C387 1.190 1_565 S
C779 C359 1.180 . S
C793 C373 1.184 . S
C799 C401 1.185 1_455 S
C813 C499 1.174 . S
C819 C429 1.200 1_455 S
C833 C471 1.174 . S
C839 C443 1.201 . S
C853 C485 1.199 . S
C859 C457 1.174 1_565 S
C873 C232 1.622 . S
C879 C8 1.626 . S
C893 C246 1.607 . S
C899 C22 1.606 . S
C913 C218 1.631 . S
C919 C36 1.632 . S
C933 C50 1.606 . S
C939 C372 1.606 . S
C953 C64 1.622 . S
C959 C344 1.657 . S
C973 C78 1.622 . S
C979 C358 1.653 . S
C993 C92 1.614 . S
C999 C484 1.618 . S
C1013 C498 1.632 . S
C1019 C106 1.633 . S
C1033 C470 1.607 . S
C1039 C120 1.609 . S
C1053 C288 1.609 . S
C1059 C134 1.607 . S
C1073 C260 1.654 . S
C1079 C148 1.633 . S
C1093 C162 1.606 . S
C1099 C274 1.606 . S
C1113 C176 1.614 . S
C1119 C400 1.618 . S
C1133 C414 1.608 . S
C1139 C190 1.610 . S
C1153 C386 1.633 . S
C1159 C204 1.633 . S
C1173 C302 1.613 . S
C1179 C456 1.617 . S
C1193 C428 1.613 . S
C1199 C316 1.610 . S
C1213 C330 1.617 . S
C1219 C442 1.613 . S
C1233 C258 1.492 . S
C1239 C6 1.492 . S
C1253 C272 1.505 . S
C1259 C20 1.505 . S
C1273 C34 1.498 . S
C1279 C286 1.498 . S
C1293 C48 1.507 . S
C1299 C468 1.507 . S
C1313 C482 1.494 . S
C1319 C62 1.494 . S
C1333 C496 1.496 . S
C1339 C76 1.496 . S
C1353 C90 1.508 . S
C1359 C342 1.508 . S
C1373 C104 1.498 . S
C1379 C356 1.498 . S
C1393 C370 1.498 . S
C1399 C118 1.498 . S
C1413 C132 1.489 . S
C1419 C216 1.489 . S
C1433 C146 1.509 . S
C1439 C230 1.509 . S
C1453 C244 1.489 . S
C1459 C160 1.489 . S
C1473 C174 1.490 . S
C1479 C426 1.490 . S
C1493 C188 1.490 . S
C1499 C440 1.490 . S
C1513 C454 1.492 . S
C1519 C202 1.492 . S
C1533 C384 1.497 . S
C1539 C300 1.497 . S
C1553 C314 1.502 . S
C1559 C398 1.502 . S
C1573 C328 1.489 . S
C1579 C412 1.489 . S
C1593 C385 1.219 1_554 S
C1599 C7 1.219 . S
C1613 C21 1.240 . S
C1619 C399 1.228 1_554 S
C1633 C413 1.236 1_554 S
C1639 C35 1.241 . S
C1653 C49 1.219 . S
C1659 C175 1.231 . S
C1673 C189 1.224 . S
C1679 C63 1.237 . S
C1693 C203 1.217 . S
C1699 C77 1.225 . S
C1713 C91 1.217 . S
C1719 C301 1.224 1_556 S
C1733 C315 1.217 1_556 S
C1739 C105 1.226 . S
C1753 C119 1.225 . S
C1759 C329 1.217 1_556 S
C1773 C133 1.228 . S
C1779 C427 1.217 . S
C1793 C147 1.224 . S
C1799 C441 1.217 . S
C1813 C455 1.240 . S
C1819 C161 1.238 . S
C1833 C217 1.227 . S
C1839 C343 1.217 . S
C1853 C231 1.236 . S
C1859 C357 1.223 . S
C1873 C245 1.223 . S
C1879 C371 1.236 . S
C1893 C259 1.238 . S
C1899 C469 1.239 . S
C1913 C273 1.235 . S
C1919 C483 1.241 . S
C1933 C497 1.238 . S
C1939 C287 1.225 . S
