# Generated by pormake.
# Topology ske, (6)-cn, num edge types: 1
# Building blocks:
#     Node 0, Type 0, BuildingBlock: GEDQOX_clean_sbu_0, # of connection points: 6
#     Node 1, Type 0, BuildingBlock: GEDQOX_clean_sbu_0, # of connection points: 6
#     Node 2, Type 0, BuildingBlock: GEDQOX_clean_sbu_0, # of connection points: 6
#     Node 3, Type 0, BuildingBlock: GEDQOX_clean_sbu_0, # of connection points: 6
#     Node 4, Type 0, BuildingBlock: GEDQOX_clean_sbu_0, # of connection points: 6
#     Node 5, Type 0, BuildingBlock: GEDQOX_clean_sbu_0, # of connection points: 6
#     Node 6, Type 0, BuildingBlock: GEDQOX_clean_sbu_0, # of connection points: 6
#     Node 7, Type 0, BuildingBlock: GEDQOX_clean_sbu_0, # of connection points: 6
#     Edge 8, Type (0, 0), BuildingBlock: AJUNOK_clean_linker_0, # of connection points: 2
#     Edge 9, Type (0, 0), BuildingBlock: AJUNOK_clean_linker_0, # of connection points: 2
#     Edge 10, Type (0, 0), BuildingBlock: AJUNOK_clean_linker_0, # of connection points: 2
#     Edge 11, Type (0, 0), BuildingBlock: AJUNOK_clean_linker_0, # of connection points: 2
#     Edge 12, Type (0, 0), BuildingBlock: AJUNOK_clean_linker_0, # of connection points: 2
#     Edge 13, Type (0, 0), BuildingBlock: AJUNOK_clean_linker_0, # of connection points: 2
#     Edge 14, Type (0, 0), BuildingBlock: AJUNOK_clean_linker_0, # of connection points: 2
#     Edge 15, Type (0, 0), BuildingBlock: AJUNOK_clean_linker_0, # of connection points: 2
#     Edge 16, Type (0, 0), BuildingBlock: AJUNOK_clean_linker_0, # of connection points: 2
#     Edge 17, Type (0, 0), BuildingBlock: AJUNOK_clean_linker_0, # of connection points: 2
#     Edge 18, Type (0, 0), BuildingBlock: AJUNOK_clean_linker_0, # of connection points: 2
#     Edge 19, Type (0, 0), BuildingBlock: AJUNOK_clean_linker_0, # of connection points: 2
#     Edge 20, Type (0, 0), BuildingBlock: AJUNOK_clean_linker_0, # of connection points: 2
#     Edge 21, Type (0, 0), BuildingBlock: AJUNOK_clean_linker_0, # of connection points: 2
#     Edge 22, Type (0, 0), BuildingBlock: AJUNOK_clean_linker_0, # of connection points: 2
#     Edge 23, Type (0, 0), BuildingBlock: AJUNOK_clean_linker_0, # of connection points: 2
#     Edge 24, Type (0, 0), BuildingBlock: AJUNOK_clean_linker_0, # of connection points: 2
#     Edge 25, Type (0, 0), BuildingBlock: AJUNOK_clean_linker_0, # of connection points: 2
#     Edge 26, Type (0, 0), BuildingBlock: AJUNOK_clean_linker_0, # of connection points: 2
#     Edge 27, Type (0, 0), BuildingBlock: AJUNOK_clean_linker_0, # of connection points: 2
#     Edge 28, Type (0, 0), BuildingBlock: AJUNOK_clean_linker_0, # of connection points: 2
#     Edge 29, Type (0, 0), BuildingBlock: AJUNOK_clean_linker_0, # of connection points: 2
#     Edge 30, Type (0, 0), BuildingBlock: AJUNOK_clean_linker_0, # of connection points: 2
#     Edge 31, Type (0, 0), BuildingBlock: AJUNOK_clean_linker_0, # of connection points: 2
# Relax obj value: 0.224
# Max RMSD: 0.260
# Mean RMSD: 0.260
data_MOF--net-ske--node1-GEDQOX_clean_sbu_0--edge1-AJUNOK_clean_linker_0
_symmetry_space_group_name_H-M    P1
_symmetry_Int_Tables_number       1
_symmetry_cell_setting            triclinic
loop_
_symmetry_equiv_pos_as_xyz
'x, y, z'
_cell_length_a     39.142055
_cell_length_b     20.688519
_cell_length_c     20.845979
_cell_angle_alpha  89.746075
_cell_angle_beta   89.872764
_cell_angle_gamma 97.13151
loop_
_atom_site_label
_atom_site_type_symbol
_atom_site_fract_x
_atom_site_fract_y
_atom_site_fract_z
_atom_type_partial_charge
Nd0 Nd 0.1618 0.27219 0.55497 0.0
Nd1 Nd 0.12034 0.24576 0.66399 0.0
C2 C 0.18818 0.31261 0.44195 0.0
C3 C 0.17851 0.30373 0.37353 0.0
C4 C 0.14721 0.32128 0.35019 0.0
C5 C 0.13855 0.31293 0.28542 0.0
C6 C 0.16087 0.28666 0.24259 0.0
C7 C 0.192 0.26856 0.26596 0.0
C8 C 0.20082 0.27739 0.33072 0.0
C9 C 0.15052 0.13861 0.57369 0.0
C10 C 0.07603 0.2515 0.54281 0.0
C11 C 0.0919 0.21131 0.77667 0.0
C12 C 0.10171 0.22068 0.84503 0.0
C13 C 0.13133 0.19756 0.86987 0.0
C14 C 0.14099 0.20913 0.9338 0.0
C15 C 0.12112 0.2436 0.97461 0.0
C16 C 0.09097 0.26512 0.95018 0.0
C17 C 0.08147 0.25399 0.88605 0.0
C18 C 0.13171 0.37823 0.63006 0.0
C19 C 0.2027 0.26786 0.69079 0.0
O20 O 0.16921 0.34606 0.47722 0.0
O21 O 0.19695 0.26197 0.4723 0.0
O22 O 0.18026 0.17238 0.56494 0.0
O23 O 0.12745 0.17676 0.57906 0.0
O24 O 0.10508 0.28506 0.5219 0.0
O25 O 0.07692 0.21608 0.59476 0.0
O26 O 0.10918 0.17352 0.74249 0.0
O27 O 0.08558 0.26314 0.74504 0.0
O28 O 0.10194 0.34735 0.64535 0.0
O29 O 0.15414 0.3396 0.63423 0.0
O30 O 0.17318 0.23558 0.7086 0.0
O31 O 0.20483 0.29565 0.63305 0.0
H32 H 0.12928 0.34129 0.3819 0.0
H33 H 0.11413 0.32628 0.26893 0.0
H34 H 0.20969 0.24826 0.23395 0.0
H35 H 0.22511 0.26358 0.3474 0.0
H36 H 0.14719 0.17078 0.83987 0.0
H37 H 0.16431 0.19177 0.95109 0.0
H38 H 0.07454 0.29018 0.98076 0.0
H39 H 0.05828 0.27159 0.86843 0.0
Nd40 Nd 0.85116 0.28215 0.56113 0.0
Nd41 Nd 0.89376 0.30871 0.66935 0.0
C42 C 0.82372 0.24336 0.4489 0.0
C43 C 0.8324 0.25382 0.37986 0.0
C44 C 0.86119 0.22983 0.35251 0.0
C45 C 0.86912 0.24022 0.28748 0.0
C46 C 0.84853 0.27483 0.24803 0.0
C47 C 0.81972 0.29879 0.27539 0.0
C48 C 0.81165 0.28807 0.34045 0.0
C49 C 0.8627 0.41553 0.58044 0.0
C50 C 0.93683 0.30461 0.54528 0.0
C51 C 0.92183 0.34347 0.78169 0.0
C52 C 0.91083 0.33642 0.84988 0.0
C53 C 0.88245 0.365 0.87313 0.0
C54 C 0.8717 0.35588 0.93702 0.0
C55 C 0.88914 0.31821 0.97925 0.0
C56 C 0.91791 0.29074 0.9563 0.0
C57 C 0.92859 0.29968 0.89236 0.0
C58 C 0.88462 0.17726 0.634 0.0
C59 C 0.81154 0.28534 0.69853 0.0
O60 O 0.84327 0.20958 0.48277 0.0
O61 O 0.81498 0.29304 0.48052 0.0
O62 O 0.83286 0.3821 0.57223 0.0
O63 O 0.88564 0.37716 0.58455 0.0
O64 O 0.90762 0.27123 0.52538 0.0
O65 O 0.93672 0.3385 0.59821 0.0
O66 O 0.90626 0.38243 0.74543 0.0
O67 O 0.92712 0.29012 0.75201 0.0
O68 O 0.91381 0.20957 0.65002 0.0
O69 O 0.86112 0.2138 0.63902 0.0
O70 O 0.84106 0.318 0.71503 0.0
O71 O 0.80903 0.25744 0.64112 0.0
H72 H 0.87773 0.20304 0.38125 0.0
H73 H 0.89135 0.22071 0.26791 0.0
H74 H 0.80368 0.32679 0.24684 0.0
H75 H 0.78928 0.30705 0.36011 0.0
H76 H 0.86845 0.39438 0.842 0.0
H77 H 0.84992 0.37891 0.95353 0.0
H78 H 0.93189 0.26147 0.98765 0.0
H79 H 0.95064 0.27737 0.87592 0.0
Nd80 Nd 0.11932 0.74593 0.41894 0.0
Nd81 Nd 0.16265 0.77158 0.52597 0.0
C82 C 0.09092 0.71315 0.30615 0.0
C83 C 0.10011 0.72546 0.23772 0.0
C84 C 0.09467 0.67435 0.19339 0.0
C85 C 0.10394 0.68448 0.12878 0.0
C86 C 0.1187 0.74615 0.10692 0.0
C87 C 0.1243 0.79727 0.15152 0.0
C88 C 0.11517 0.78703 0.21621 0.0
C89 C 0.13038 0.87796 0.45382 0.0
C90 C 0.20094 0.76755 0.38715 0.0
C91 C 0.18917 0.81208 0.63854 0.0
C92 C 0.18013 0.80097 0.7071 0.0
C93 C 0.18623 0.85266 0.7506 0.0
C94 C 0.1765 0.84413 0.81514 0.0
C95 C 0.16037 0.78364 0.8376 0.0
C96 C 0.15477 0.73158 0.79408 0.0
C97 C 0.16435 0.74024 0.7294 0.0
C98 C 0.15138 0.63841 0.50737 0.0
C99 C 0.07689 0.74653 0.54257 0.0
O100 O 0.10987 0.67636 0.33793 0.0
O101 O 0.08334 0.7625 0.33999 0.0
O102 O 0.10063 0.8468 0.43943 0.0
O103 O 0.15304 0.83993 0.44801 0.0
O104 O 0.17125 0.73471 0.37264 0.0
O105 O 0.20447 0.79547 0.44458 0.0
O106 O 0.16851 0.84383 0.60524 0.0
O107 O 0.19895 0.76341 0.60668 0.0
O108 O 0.18118 0.67212 0.51517 0.0
O109 O 0.12821 0.67651 0.50322 0.0
O110 O 0.10599 0.78074 0.56196 0.0
O111 O 0.07722 0.71238 0.48996 0.0
H112 H 0.08335 0.62634 0.20886 0.0
H113 H 0.09933 0.64409 0.09573 0.0
H114 H 0.13638 0.84492 0.13665 0.0
H115 H 0.12024 0.82711 0.2495 0.0
H116 H 0.19833 0.89992 0.7345 0.0
H117 H 0.18175 0.88487 0.8476 0.0
H118 H 0.14233 0.68448 0.80983 0.0
H119 H 0.15909 0.69967 0.69672 0.0
Nd120 Nd 0.89715 0.80825 0.42455 0.0
Nd121 Nd 0.8533 0.78592 0.53348 0.0
C122 C 0.92539 0.84214 0.31176 0.0
C123 C 0.91398 0.83385 0.24414 0.0
C124 C 0.88121 0.84761 0.22477 0.0
C125 C 0.87042 0.83786 0.16116 0.0
C126 C 0.89209 0.814 0.11539 0.0
C127 C 0.92499 0.8009 0.13471 0.0
C128 C 0.93576 0.81058 0.19842 0.0
C129 C 0.885 0.67748 0.46242 0.0
C130 C 0.81487 0.78596 0.39473 0.0
C131 C 0.82505 0.75013 0.6465 0.0
C132 C 0.83433 0.75854 0.71512 0.0
C133 C 0.86687 0.74716 0.73779 0.0
C134 C 0.8752 0.75548 0.80277 0.0
C135 C 0.85129 0.7756 0.84663 0.0
C136 C 0.81884 0.78755 0.82365 0.0
C137 C 0.81044 0.77882 0.75866 0.0
C138 C 0.86669 0.91851 0.51062 0.0
C139 C 0.93904 0.80303 0.54896 0.0
O140 O 0.90958 0.88128 0.34723 0.0
O141 O 0.93104 0.78932 0.34253 0.0
O142 O 0.91493 0.70693 0.44574 0.0
O143 O 0.86268 0.71631 0.45678 0.0
O144 O 0.8452 0.81292 0.37541 0.0
O145 O 0.81074 0.76425 0.45469 0.0
O146 O 0.84281 0.71351 0.6122 0.0
O147 O 0.81871 0.8021 0.61542 0.0
O148 O 0.83637 0.88658 0.5183 0.0
O149 O 0.88903 0.87864 0.50782 0.0
O150 O 0.90929 0.7716 0.56923 0.0
O151 O 0.93986 0.83653 0.49547 0.0
H152 H 0.8638 0.86591 0.25869 0.0
H153 H 0.84522 0.84976 0.14766 0.0
H154 H 0.94227 0.78235 0.10066 0.0
H155 H 0.9611 0.79952 0.21208 0.0
H156 H 0.88595 0.73186 0.70536 0.0
H157 H 0.90036 0.74568 0.81881 0.0
H158 H 0.80011 0.80465 0.85565 0.0
H159 H 0.7853 0.78842 0.74228 0.0
Nd160 Nd 0.6633 0.76499 0.05836 0.0
Nd161 Nd 0.62247 0.73999 0.17342 0.0
C162 C 0.69857 0.80081 0.95273 0.0
C163 C 0.69114 0.79221 0.88296 0.0
C164 C 0.6624 0.81612 0.85518 0.0
C165 C 0.65509 0.80711 0.78991 0.0
C166 C 0.67618 0.77381 0.75045 0.0
C167 C 0.70476 0.74931 0.77812 0.0
C168 C 0.71229 0.7588 0.8436 0.0
C169 C 0.63443 0.6363 0.06238 0.0
C170 C 0.57883 0.74989 0.04986 0.0
C171 C 0.59733 0.70159 0.28783 0.0
C172 C 0.60941 0.70907 0.35548 0.0
C173 C 0.6381 0.68066 0.37779 0.0
C174 C 0.6496 0.69019 0.44122 0.0
C175 C 0.63302 0.72904 0.4836 0.0
C176 C 0.60386 0.75597 0.46163 0.0
C177 C 0.59223 0.74609 0.39849 0.0
C178 C 0.62944 0.87014 0.13313 0.0
C179 C 0.70407 0.76866 0.20001 0.0
O180 O 0.68016 0.83894 0.9841 0.0
O181 O 0.70329 0.74861 0.98566 0.0
O182 O 0.63385 0.67461 1.0136 0.0
O183 O 0.64843 0.66754 0.11018 0.0
O184 O 0.60747 0.7855 1.02945 0.0
O185 O 0.58007 0.71256 0.10075 0.0
O186 O 0.61309 0.66459 0.24998 0.0
O187 O 0.59005 0.75422 0.25881 0.0
O188 O 0.60086 0.83827 0.15393 0.0
O189 O 0.65311 0.83387 0.13552 0.0
O190 O 0.67314 0.76134 0.22459 0.0
O191 O 0.70814 0.7685 0.13631 0.0
H192 H 0.64525 0.84149 0.8839 0.0
H193 H 0.6325 0.82542 0.77042 0.0
H194 H 0.72145 0.72334 0.74897 0.0
H195 H 0.73454 0.7397 0.86357 0.0
H196 H 0.65201 0.65178 0.34611 0.0
H197 H 0.67212 0.66874 0.45656 0.0
H198 H 0.58988 0.78463 0.49343 0.0
H199 H 0.56983 0.76793 0.38309 0.0
Nd200 Nd 0.354 0.78197 0.04978 0.0
Nd201 Nd 0.39415 0.81043 0.16413 0.0
C202 C 0.31892 0.7437 0.94501 0.0
C203 C 0.32459 0.75694 0.87539 0.0
C204 C 0.31546 0.70756 0.83032 0.0
C205 C 0.32278 0.7182 0.76482 0.0
C206 C 0.33946 0.77855 0.74287 0.0
C207 C 0.34828 0.82807 0.78817 0.0
C208 C 0.34092 0.81745 0.85354 0.0
C209 C 0.38286 0.91042 0.04633 0.0
C210 C 0.43847 0.7975 1.04233 0.0
C211 C 0.41889 0.84866 0.27834 0.0
C212 C 0.40597 0.83858 0.34516 0.0
C213 C 0.41337 0.88779 0.39099 0.0
C214 C 0.40132 0.87871 0.45429 0.0
C215 C 0.3815 0.82017 0.47329 0.0
C216 C 0.37403 0.77104 0.42703 0.0
C217 C 0.38594 0.78027 0.36371 0.0
C218 C 0.38595 0.67866 0.1288 0.0
C219 C 0.31227 0.78829 0.19029 0.0
O220 O 0.34067 0.7093 0.97263 0.0
O221 O 0.3119 0.79242 0.98062 0.0
O222 O 0.38348 0.86916 1.00046 0.0
O223 O 0.36949 0.8818 0.09656 0.0
O224 O 0.41006 0.76018 1.02405 0.0
O225 O 0.43696 0.83693 0.09121 0.0
O226 O 0.40225 0.88506 0.24132 0.0
O227 O 0.42722 0.79749 0.24848 0.0
O228 O 0.41474 0.71042 0.14808 0.0
O229 O 0.36287 0.71603 0.1303 0.0
O230 O 0.34295 0.79697 0.21562 0.0
O231 O 0.30882 0.78157 0.12678 0.0
H232 H 0.30321 0.66026 0.84595 0.0
H233 H 0.31625 0.67851 0.7316 0.0
H234 H 0.36102 0.87516 0.77303 0.0
H235 H 0.34843 0.85642 0.88707 0.0
H236 H 0.42853 0.93334 0.37784 0.0
H237 H 0.4074 0.91777 0.48839 0.0
H238 H 0.35952 0.72482 0.43997 0.0
H239 H 0.37966 0.74155 0.3293 0.0
Nd240 Nd 0.61933 0.24006 0.92664 0.0
Nd241 Nd 0.66142 0.26717 1.03494 0.0
C242 C 0.59223 0.20455 0.81352 0.0
C243 C 0.6032 0.21606 0.74613 0.0
C244 C 0.58725 0.17708 0.6972 0.0
C245 C 0.59771 0.18732 0.6332 0.0
C246 C 0.6243 0.23691 0.61686 0.0
C247 C 0.64052 0.27535 0.6663 0.0
C248 C 0.63004 0.2651 0.73026 0.0
C249 C 0.62891 0.37221 0.95939 0.0
C250 C 0.70127 0.26002 0.89837 0.0
C251 C 0.68857 0.30786 0.14707 0.0
C252 C 0.68092 0.29481 0.21561 0.0
C253 C 0.69967 0.33222 0.26261 0.0
C254 C 0.69149 0.32268 0.32772 0.0
C255 C 0.6643 0.27558 0.34706 0.0
C256 C 0.64607 0.23713 0.29978 0.0
C257 C 0.65421 0.24684 0.23462 0.0
C258 C 0.64814 0.13343 1.01855 0.0
C259 C 0.57545 0.24738 0.0479 0.0
O260 O 0.61042 0.16821 0.84756 0.0
O261 O 0.58468 0.25522 0.84523 0.0
O262 O 0.59996 0.34012 0.94181 0.0
O263 O 0.65236 0.33538 0.95632 0.0
O264 O 0.67179 0.22644 0.8839 0.0
O265 O 0.70392 0.29042 0.95456 0.0
O266 O 0.66621 0.33737 0.11572 0.0
O267 O 0.69897 0.26061 0.11402 0.0
O268 O 0.67833 0.16541 1.02684 0.0
O269 O 0.62593 0.17307 1.01328 0.0
O270 O 0.60466 0.28097 0.06766 0.0
O271 O 0.57601 0.21097 0.99677 0.0
H272 H 0.56664 0.13874 0.70847 0.0
H273 H 0.58467 0.15693 0.59632 0.0
H274 H 0.66166 0.31281 0.65567 0.0
H275 H 0.64305 0.29516 0.76743 0.0
H276 H 0.72045 0.3693 0.2489 0.0
H277 H 0.70645 0.35216 0.363 0.0
H278 H 0.62499 0.20054 0.31314 0.0
H279 H 0.63938 0.21753 0.199 0.0
Nd280 Nd 0.39646 0.31085 0.91795 0.0
Nd281 Nd 0.35225 0.29557 1.02618 0.0
C282 C 0.42586 0.33938 0.80466 0.0
C283 C 0.41551 0.32765 0.73718 0.0
C284 C 0.43436 0.36162 0.68768 0.0
C285 C 0.42431 0.35197 0.6236 0.0
C286 C 0.39516 0.30806 0.60768 0.0
C287 C 0.37624 0.27427 0.65764 0.0
C288 C 0.38638 0.28384 0.72171 0.0
C289 C 0.38684 0.18323 0.96342 0.0
C290 C 0.31385 0.29465 0.88755 0.0
C291 C 0.32222 0.27327 0.14055 0.0
C292 C 0.33404 0.27292 0.20785 0.0
C293 C 0.31329 0.2389 0.25498 0.0
C294 C 0.32334 0.24162 0.31956 0.0
C295 C 0.35431 0.27868 0.33817 0.0
C296 C 0.37522 0.31206 0.29064 0.0
C297 C 0.36529 0.30892 0.2261 0.0
C298 C 0.36789 0.42581 0.99633 0.0
C299 C 0.43787 0.31025 1.04317 0.0
O300 O 0.40887 0.37943 0.83645 0.0
O301 O 0.43091 0.28818 0.83856 0.0
O302 O 0.41566 0.21247 0.94145 0.0
O303 O 0.36301 0.21901 0.95642 0.0
O304 O 0.34477 0.31911 0.86899 0.0
O305 O 0.30928 0.27359 0.94765 0.0
O306 O 0.33044 0.22727 0.10333 0.0
O307 O 0.32592 0.32962 0.11174 0.0
O308 O 0.33691 0.39555 0.99999 0.0
O309 O 0.38939 0.38457 0.99752 0.0
O310 O 0.40786 0.28011 0.06413 0.0
O311 O 0.43872 0.34262 0.98892 0.0
H312 H 0.45684 0.3958 0.69859 0.0
H313 H 0.4395 0.37862 0.58636 0.0
H314 H 0.35319 0.24138 0.64736 0.0
H315 H 0.37125 0.25754 0.75926 0.0
H316 H 0.289 0.21113 0.242 0.0
H317 H 0.30647 0.21611 0.35516 0.0
H318 H 0.39927 0.34073 0.30347 0.0
H319 H 0.38178 0.33549 0.19053 0.0
C320 C 0.22762 0.24426 0.80015 0.0
C321 C 0.23191 0.27513 0.7392 0.0
C322 C 0.25344 0.25158 0.84807 0.0
C323 C 0.28527 0.29002 0.83778 0.0
H324 H 0.20393 0.21367 0.81136 0.0
H325 H 0.24848 0.22606 0.89325 0.0
S326 S 0.30999 0.38315 0.68735 0.0
N327 N 0.2709 0.34674 0.67238 0.0
N328 N 0.3191 0.36096 0.7609 0.0
C329 C 0.2899 0.32156 0.77701 0.0
C330 C 0.26351 0.31402 0.72835 0.0
C331 C 0.76112 0.30504 0.85598 0.0
C332 C 0.72969 0.2648 0.84789 0.0
C333 C 0.78679 0.31166 0.80741 0.0
C334 C 0.7826 0.2786 0.74781 0.0
H335 H 0.76597 0.33213 0.90005 0.0
H336 H 0.81027 0.34344 0.81698 0.0
S337 S 0.70545 0.16597 0.70153 0.0
N338 N 0.69638 0.19004 0.7743 0.0
N339 N 0.74412 0.20347 0.68454 0.0
C340 C 0.75136 0.23818 0.73908 0.0
C341 C 0.72524 0.23104 0.78848 0.0
C342 C 0.28869 0.80738 0.30137 0.0
C343 C 0.28251 0.78529 0.23743 0.0
C344 C 0.26266 0.80214 0.34903 0.0
C345 C 0.22887 0.7739 0.33585 0.0
H346 H 0.3142 0.829 0.31535 0.0
H347 H 0.26926 0.81981 0.39681 0.0
S348 S 0.19844 0.7084 0.17629 0.0
N349 N 0.2395 0.73466 0.16412 0.0
N350 N 0.19073 0.724 0.2522 0.0
C351 C 0.22219 0.75204 0.27179 0.0
C352 C 0.24878 0.75799 0.22319 0.0
C353 C 0.7667 0.76265 0.23358 0.0
C354 C 0.73326 0.7767 0.24824 0.0
C355 C 0.7926 0.76481 0.28137 0.0
C356 C 0.7862 0.78002 0.34626 0.0
H357 H 0.77281 0.74888 0.18523 0.0
H358 H 0.81788 0.75365 0.26745 0.0
S359 S 0.705 0.82983 0.40896 0.0
N360 N 0.69684 0.81359 0.33267 0.0
N361 N 0.74491 0.81478 0.42084 0.0
C362 C 0.75333 0.79547 0.36124 0.0
C363 C 0.72717 0.79465 0.3128 0.0
C364 C 0.10796 0.98086 0.49409 0.0
C365 C 0.13569 0.94396 0.48538 0.0
C366 C 0.11223 0.04225 0.52506 0.0
C367 C 0.14453 0.06972 0.54873 0.0
H368 H 0.08266 0.96239 0.47633 0.0
H369 H 0.09024 0.06901 0.52899 0.0
S370 S 0.22539 0.99257 0.54014 0.0
N371 N 0.19659 0.94001 0.50412 0.0
N372 N 0.20455 0.05334 0.5627 0.0
C373 C 0.17229 0.03266 0.54121 0.0
C374 C 0.16796 0.97065 0.50941 0.0
C375 C 0.90172 0.51226 0.53394 0.0
C376 C 0.86901 0.48467 0.55602 0.0
C377 C 0.90662 0.57413 0.50358 0.0
C378 C 0.8791 0.61134 0.4939 0.0
H379 H 0.92357 0.48521 0.53861 0.0
H380 H 0.93222 0.5926 0.48695 0.0
S381 S 0.78853 0.56264 0.54465 0.0
N382 N 0.80885 0.50122 0.56769 0.0
N383 N 0.81799 0.61567 0.51022 0.0
C384 C 0.84644 0.58464 0.51655 0.0
C385 C 0.84146 0.52207 0.54771 0.0
C386 C 0.84545 1.02368 0.54452 0.0
C387 C 0.87333 0.98695 0.53654 0.0
C388 C 0.84915 0.08437 0.57621 0.0
C389 C 0.88095 0.11164 0.6018 0.0
H390 H 0.82015 1.00479 0.52702 0.0
H391 H 0.82676 0.10997 0.58092 0.0
S392 S 0.96239 0.03683 0.59385 0.0
N393 N 0.93424 0.98406 0.55637 0.0
N394 N 0.94102 0.09667 0.61683 0.0
C395 C 0.90915 0.07587 0.59377 0.0
C396 C 0.90544 1.01424 0.56089 0.0
C397 C 0.1136 0.54319 0.55969 0.0
C398 C 0.14558 0.56984 0.53356 0.0
C399 C 0.10952 0.4821 0.59166 0.0
C400 C 0.13708 0.44451 0.59862 0.0
H401 H 0.09172 0.57041 0.55694 0.0
H402 H 0.08452 0.46434 0.61155 0.0
S403 S 0.22627 0.49203 0.53948 0.0
N404 N 0.20535 0.55287 0.51706 0.0
N405 N 0.19773 0.43984 0.57728 0.0
C406 C 0.16914 0.47072 0.57283 0.0
C407 C 0.17329 0.53255 0.54017 0.0
C408 C 0.60264 0.53291 1.02148 0.0
C409 C 0.63266 0.56481 0.04991 0.0
C410 C 0.60187 0.4709 0.99344 0.0
C411 C 0.63134 0.438 0.99095 0.0
H412 H 0.5797 0.55724 1.01887 0.0
H413 H 0.57799 0.44929 0.97201 0.0
S414 S 0.71703 0.50084 0.05719 0.0
N415 N 0.69286 0.55876 0.07367 0.0
N416 N 0.69172 0.4429 1.0201 0.0
C417 C 0.66157 0.46902 1.01986 0.0
C418 C 0.66216 0.53208 0.04944 0.0
C419 C 0.38851 0.99997 0.96388 0.0
C420 C 0.38351 0.98112 1.02898 0.0
C421 C 0.38827 0.06471 0.94332 0.0
C422 C 0.38282 0.11415 0.98652 0.0
H423 H 0.39271 0.9643 0.92776 0.0
H424 H 0.39271 0.07626 0.893 0.0
S425 S 0.37288 0.09374 0.16314 0.0
N426 N 0.37526 1.01909 0.13713 0.0
N427 N 0.37595 0.14104 0.09878 0.0
C428 C 0.3787 0.09675 0.05197 0.0
C429 C 0.37876 0.03035 0.07308 0.0
C430 C 0.34801 0.53202 1.02917 0.0
C431 C 0.37494 0.49275 1.0249 0.0
C432 C 0.35167 0.59099 0.06352 0.0
C433 C 0.38254 0.61414 0.09506 0.0
H434 H 0.32343 0.51637 1.00681 0.0
H435 H 0.3299 0.61852 0.0656 0.0
S436 S 0.46077 0.52929 0.10148 0.0
N437 N 0.43366 0.48148 0.0567 0.0
N438 N 0.44031 0.59139 0.12169 0.0
C439 C 0.40973 0.57542 0.09148 0.0
C440 C 0.40606 0.51533 0.05616 0.0
C441 C 0.66712 1.02379 1.04118 0.0
C442 C 0.64091 0.0648 1.04362 0.0
C443 C 0.66333 0.96177 0.07065 0.0
C444 C 0.63302 0.93724 0.10376 0.0
H445 H 0.6912 0.04028 1.01707 0.0
H446 H 0.6846 0.9331 0.06788 0.0
S447 S 0.55806 0.02754 0.13131 0.0
N448 N 0.58439 0.07764 0.08653 0.0
N449 N 0.57717 0.96136 0.14111 0.0
C450 C 0.60674 0.97799 0.10747 0.0
C451 C 0.61063 0.0414 0.07751 0.0
C452 C 0.15197 0.21617 0.14488 0.0
C453 C 0.1514 0.2773 0.17387 0.0
C454 C 0.14221 0.20575 0.08059 0.0
C455 C 0.13166 0.25617 1.04263 0.0
H456 H 0.15944 0.17571 0.17247 0.0
H457 H 0.14243 0.1575 0.06077 0.0
S458 S 0.12906 0.42707 0.0942 0.0
N459 N 0.14146 0.38994 0.15883 0.0
N460 N 0.12363 0.37083 1.03791 0.0
C461 C 0.13176 0.31797 0.07075 0.0
C462 C 0.14151 0.32841 0.1363 0.0
C463 C 0.89227 0.30719 0.16159 0.0
C464 C 0.8578 0.28684 0.17903 0.0
C465 C 0.90206 0.31746 0.09718 0.0
C466 C 0.87779 0.30808 0.04732 0.0
H467 H 0.91192 0.31573 0.19815 0.0
H468 H 0.92887 0.33342 0.08636 0.0
S469 S 0.7845 0.25186 0.06639 0.0
N470 N 0.79948 0.25553 0.14047 0.0
N471 N 0.81787 0.27531 1.01956 0.0
C472 C 0.84321 0.28781 0.06389 0.0
C473 C 0.83323 0.27712 0.12958 0.0
C474 C 0.148 0.7126 1.00678 0.0
C475 C 0.12887 0.75658 1.0381 0.0
C476 C 0.15798 0.72154 0.94215 0.0
C477 C 0.14931 0.77488 0.90612 0.0
H478 H 0.15572 0.67131 1.0327 0.0
H479 H 0.17302 0.68683 0.92045 0.0
S480 S 0.09691 0.90084 0.96365 0.0
N481 N 0.09995 0.85334 1.02673 0.0
N482 N 0.1187 0.87016 0.90568 0.0
C483 C 0.12977 0.81866 0.93656 0.0
C484 C 0.11958 0.80953 1.00231 0.0
C485 C 0.89306 0.8183 0.9325 0.0
C486 C 0.86068 0.78526 0.91571 0.0
C487 C 0.90291 0.82731 0.99689 0.0
C488 C 0.88078 0.80384 0.0474 0.0
H489 H 0.91092 0.83801 0.8955 0.0
H490 H 0.92797 0.85359 1.00719 0.0
S491 S 0.79392 0.7107 1.02975 0.0
N492 N 0.80697 0.72671 0.95532 0.0
N493 N 0.82541 0.74389 0.07616 0.0
C494 C 0.84835 0.77048 1.03143 0.0
C495 C 0.83833 0.76117 0.96577 0.0
C496 C 0.65422 0.69042 0.58983 0.0
C497 C 0.64609 0.74187 0.55037 0.0
C498 C 0.66483 0.70124 0.65385 0.0
C499 C 0.66771 0.76392 0.68099 0.0
H500 H 0.65146 0.64108 0.57166 0.0
H501 H 0.66983 0.6599 0.68288 0.0
S502 S 0.65429 0.9165 0.59564 0.0
N503 N 0.64515 0.85887 0.5416 0.0
N504 N 0.66475 0.87893 0.66146 0.0
C505 C 0.66101 0.81607 0.6413 0.0
C506 C 0.65031 0.80514 0.57624 0.0
C507 C 0.38257 0.81749 0.6568 0.0
C508 C 0.3491 0.78924 0.6736 0.0
C509 C 0.39263 0.8275 0.59235 0.0
C510 C 0.3697 0.80986 0.54155 0.0
H511 H 0.40143 0.83108 0.69385 0.0
H512 H 0.41888 0.84831 0.58226 0.0
S513 S 0.27818 0.73909 0.55933 0.0
N514 N 0.29242 0.74683 0.63378 0.0
N515 N 0.3112 0.76603 0.51296 0.0
C516 C 0.33595 0.7825 0.55764 0.0
C517 C 0.32571 0.77211 0.62339 0.0
C518 C 0.65014 0.20448 0.44426 0.0
C519 C 0.65463 0.26702 0.4162 0.0
C520 C 0.64059 0.19525 0.50904 0.0
C521 C 0.63502 0.24815 0.54844 0.0
H522 H 0.65434 0.16233 0.41603 0.0
H523 H 0.63781 0.14627 0.52858 0.0
S524 S 0.64074 0.4212 0.49694 0.0
N525 N 0.65117 0.38232 0.43214 0.0
N526 N 0.63307 0.36503 0.55343 0.0
C527 C 0.63911 0.31086 0.52077 0.0
C528 C 0.64892 0.32026 0.45488 0.0
C529 C 0.3736 0.34639 0.43422 0.0
C530 C 0.36437 0.28451 0.40711 0.0
C531 C 0.38329 0.35344 0.49891 0.0
C532 C 0.38431 0.29889 0.53925 0.0
H533 H 0.37298 0.38988 0.40532 0.0
H534 H 0.38973 0.40218 0.51764 0.0
S535 S 0.36485 0.12583 0.49044 0.0
N536 N 0.35814 0.16752 0.42489 0.0
N537 N 0.37671 0.18056 0.54612 0.0
C538 C 0.37541 0.23664 0.51253 0.0
C539 C 0.36538 0.22951 0.44666 0.0
C540 C 0.01361 0.21362 0.52251 0.0
C541 C 0.04134 0.26414 0.51966 0.0
C542 C 0.97913 0.22679 0.52162 0.0
C543 C 0.97099 0.2911 0.52061 0.0
H544 H 0.01861 0.16376 0.5298 0.0
H545 H 0.95884 0.18675 0.52784 0.0
S546 S 0.03328 0.44004 0.50103 0.0
N547 N 0.05772 0.38043 0.5046 0.0
N548 N 0.99312 0.40512 0.50759 0.0
C549 C 0.99821 0.34152 0.51209 0.0
C550 C 0.03332 0.32803 0.51043 0.0
C551 C 0.98024 0.7221 0.56596 0.0
C552 C 0.97265 0.78638 0.57286 0.0
C553 C 0.01453 0.70819 0.56286 0.0
C554 C 0.04255 0.75779 0.56831 0.0
H555 H 0.95974 0.68328 0.5563 0.0
H556 H 0.01913 0.65898 0.55129 0.0
S557 S 0.03608 0.93205 0.60008 0.0
N558 N 0.9957 0.89851 0.59346 0.0
N559 N 0.05995 0.87223 0.59093 0.0
C560 C 0.03514 0.82091 0.58289 0.0
C561 C 1.00023 0.83526 0.58417 0.0
C562 C 0.51674 0.70892 1.03108 0.0
C563 C 0.54396 0.76025 1.02613 0.0
C564 C 0.4821 0.72045 1.02767 0.0
C565 C 0.47328 0.78396 1.02167 0.0
H566 H 0.52221 0.65991 1.04163 0.0
H567 H 0.46216 0.68015 1.03538 0.0
S568 S 0.53419 0.93316 0.9924 0.0
N569 N 0.55933 0.87539 1.00256 0.0
N570 N 0.49426 0.89732 1.00026 0.0
C571 C 0.50005 0.83475 1.01065 0.0
C572 C 0.53538 0.82279 1.01181 0.0
C573 C 0.50016 0.34356 0.06896 0.0
C574 C 0.47161 0.29469 0.06828 0.0
C575 C 0.53423 0.32791 0.07094 0.0
C576 C 0.5411 0.2627 0.07 0.0
H577 H 0.49621 0.39418 0.06329 0.0
H578 H 0.55523 0.36706 0.06676 0.0
S579 S 0.47576 0.11664 0.07449 0.0
N580 N 0.45287 0.17853 0.07397 0.0
N581 N 0.51647 0.14923 0.07382 0.0
C582 C 0.51284 0.21367 0.07389 0.0
C583 C 0.47822 0.22963 0.07406 0.0
loop_
_geom_bond_atom_site_label_1
_geom_bond_atom_site_label_2
_geom_bond_distance
_geom_bond_site_symmetry_2
_ccdc_geom_bond_type
Nd0 C2 2.836 . S
Nd0 O20 2.500 . S
Nd0 O21 2.492 . S
Nd0 O22 2.487 . S
Nd0 O23 2.682 . S
Nd0 O24 2.410 . S
Nd0 O29 2.414 . S
Nd0 O31 2.424 . S
Nd1 C11 2.836 . S
Nd1 O23 2.414 . S
Nd1 O25 2.424 . S
Nd1 O26 2.500 . S
Nd1 O27 2.492 . S
Nd1 O28 2.487 . S
Nd1 O29 2.682 . S
Nd1 O30 2.410 . S
C2 Nd0 2.836 . S
C2 C3 1.498 . S
C2 O20 1.258 . S
C2 O21 1.239 . S
C3 C2 1.498 . S
C3 C4 1.366 . S
C3 C8 1.407 . S
C4 C3 1.366 . S
C4 C5 1.392 . S
C4 H32 0.930 . S
C5 C4 1.392 . S
C5 C6 1.398 . S
C5 H33 0.929 . S
C6 C5 1.398 . S
C6 C7 1.352 . S
C7 C6 1.352 . S
C7 C8 1.384 . S
C7 H34 0.930 . S
C8 C3 1.407 . S
C8 C7 1.384 . S
C8 H35 0.929 . S
C9 O22 1.241 . S
C9 O23 1.273 . S
C10 O24 1.251 . S
C10 O25 1.268 . S
C11 Nd1 2.836 . S
C11 C12 1.498 . S
C11 O26 1.258 . S
C11 O27 1.239 . S
C12 C11 1.498 . S
C12 C13 1.366 . S
C12 C17 1.407 . S
C13 C12 1.366 . S
C13 C14 1.392 . S
C13 H36 0.930 . S
C14 C13 1.392 . S
C14 C15 1.398 . S
C14 H37 0.929 . S
C15 C14 1.398 . S
C15 C16 1.352 . S
C16 C15 1.352 . S
C16 C17 1.384 . S
C16 H38 0.930 . S
C17 C12 1.407 . S
C17 C16 1.384 . S
C17 H39 0.929 . S
C18 O28 1.241 . S
C18 O29 1.273 . S
C19 O30 1.251 . S
C19 O31 1.268 . S
O20 Nd0 2.500 . S
O20 C2 1.258 . S
O21 Nd0 2.492 . S
O21 C2 1.239 . S
O22 Nd0 2.487 . S
O22 C9 1.241 . S
O23 Nd0 2.682 . S
O23 Nd1 2.414 . S
O23 C9 1.273 . S
O24 Nd0 2.410 . S
O24 C10 1.251 . S
O25 Nd1 2.424 . S
O25 C10 1.268 . S
O26 Nd1 2.500 . S
O26 C11 1.258 . S
O27 Nd1 2.492 . S
O27 C11 1.239 . S
O28 Nd1 2.487 . S
O28 C18 1.241 . S
O29 Nd0 2.414 . S
O29 Nd1 2.682 . S
O29 C18 1.273 . S
O30 Nd1 2.410 . S
O30 C19 1.251 . S
O31 Nd0 2.424 . S
O31 C19 1.268 . S
H32 C4 0.930 . S
H33 C5 0.929 . S
H34 C7 0.930 . S
H35 C8 0.929 . S
H36 C13 0.930 . S
H37 C14 0.929 . S
H38 C16 0.930 . S
H39 C17 0.929 . S
Nd40 C42 2.836 . S
Nd40 O60 2.500 . S
Nd40 O61 2.492 . S
Nd40 O62 2.487 . S
Nd40 O63 2.682 . S
Nd40 O64 2.410 . S
Nd40 O69 2.414 . S
Nd40 O71 2.424 . S
Nd41 C51 2.836 . S
Nd41 O63 2.414 . S
Nd41 O65 2.424 . S
Nd41 O66 2.500 . S
Nd41 O67 2.492 . S
Nd41 O68 2.487 . S
Nd41 O69 2.682 . S
Nd41 O70 2.410 . S
C42 Nd40 2.836 . S
C42 C43 1.498 . S
C42 O60 1.258 . S
C42 O61 1.239 . S
C43 C42 1.498 . S
C43 C44 1.366 . S
C43 C48 1.407 . S
C44 C43 1.366 . S
C44 C45 1.392 . S
C44 H72 0.930 . S
C45 C44 1.392 . S
C45 C46 1.398 . S
C45 H73 0.929 . S
C46 C45 1.398 . S
C46 C47 1.352 . S
C47 C46 1.352 . S
C47 C48 1.384 . S
C47 H74 0.930 . S
C48 C43 1.407 . S
C48 C47 1.384 . S
C48 H75 0.929 . S
C49 O62 1.241 . S
C49 O63 1.273 . S
C50 O64 1.251 . S
C50 O65 1.268 . S
C51 Nd41 2.836 . S
C51 C52 1.498 . S
C51 O66 1.258 . S
C51 O67 1.239 . S
C52 C51 1.498 . S
C52 C53 1.366 . S
C52 C57 1.407 . S
C53 C52 1.366 . S
C53 C54 1.392 . S
C53 H76 0.930 . S
C54 C53 1.392 . S
C54 C55 1.398 . S
C54 H77 0.929 . S
C55 C54 1.398 . S
C55 C56 1.352 . S
C56 C55 1.352 . S
C56 C57 1.384 . S
C56 H78 0.930 . S
C57 C52 1.407 . S
C57 C56 1.384 . S
C57 H79 0.929 . S
C58 O68 1.241 . S
C58 O69 1.273 . S
C59 O70 1.251 . S
C59 O71 1.268 . S
O60 Nd40 2.500 . S
O60 C42 1.258 . S
O61 Nd40 2.492 . S
O61 C42 1.239 . S
O62 Nd40 2.487 . S
O62 C49 1.241 . S
O63 Nd40 2.682 . S
O63 Nd41 2.414 . S
O63 C49 1.273 . S
O64 Nd40 2.410 . S
O64 C50 1.251 . S
O65 Nd41 2.424 . S
O65 C50 1.268 . S
O66 Nd41 2.500 . S
O66 C51 1.258 . S
O67 Nd41 2.492 . S
O67 C51 1.239 . S
O68 Nd41 2.487 . S
O68 C58 1.241 . S
O69 Nd40 2.414 . S
O69 Nd41 2.682 . S
O69 C58 1.273 . S
O70 Nd41 2.410 . S
O70 C59 1.251 . S
O71 Nd40 2.424 . S
O71 C59 1.268 . S
H72 C44 0.930 . S
H73 C45 0.929 . S
H74 C47 0.930 . S
H75 C48 0.929 . S
H76 C53 0.930 . S
H77 C54 0.929 . S
H78 C56 0.930 . S
H79 C57 0.929 . S
Nd80 C82 2.836 . S
Nd80 O100 2.500 . S
Nd80 O101 2.492 . S
Nd80 O102 2.487 . S
Nd80 O103 2.682 . S
Nd80 O104 2.410 . S
Nd80 O109 2.414 . S
Nd80 O111 2.424 . S
Nd81 C91 2.836 . S
Nd81 O103 2.414 . S
Nd81 O105 2.424 . S
Nd81 O106 2.500 . S
Nd81 O107 2.492 . S
Nd81 O108 2.487 . S
Nd81 O109 2.682 . S
Nd81 O110 2.410 . S
C82 Nd80 2.836 . S
C82 C83 1.498 . S
C82 O100 1.258 . S
C82 O101 1.239 . S
C83 C82 1.498 . S
C83 C84 1.366 . S
C83 C88 1.407 . S
C84 C83 1.366 . S
C84 C85 1.392 . S
C84 H112 0.930 . S
C85 C84 1.392 . S
C85 C86 1.398 . S
C85 H113 0.929 . S
C86 C85 1.398 . S
C86 C87 1.352 . S
C87 C86 1.352 . S
C87 C88 1.384 . S
C87 H114 0.930 . S
C88 C83 1.407 . S
C88 C87 1.384 . S
C88 H115 0.929 . S
C89 O102 1.241 . S
C89 O103 1.273 . S
C90 O104 1.251 . S
C90 O105 1.268 . S
C91 Nd81 2.836 . S
C91 C92 1.498 . S
C91 O106 1.258 . S
C91 O107 1.239 . S
C92 C91 1.498 . S
C92 C93 1.366 . S
C92 C97 1.407 . S
C93 C92 1.366 . S
C93 C94 1.392 . S
C93 H116 0.930 . S
C94 C93 1.392 . S
C94 C95 1.398 . S
C94 H117 0.929 . S
C95 C94 1.398 . S
C95 C96 1.352 . S
C96 C95 1.352 . S
C96 C97 1.384 . S
C96 H118 0.930 . S
C97 C92 1.407 . S
C97 C96 1.384 . S
C97 H119 0.929 . S
C98 O108 1.241 . S
C98 O109 1.273 . S
C99 O110 1.251 . S
C99 O111 1.268 . S
O100 Nd80 2.500 . S
O100 C82 1.258 . S
O101 Nd80 2.492 . S
O101 C82 1.239 . S
O102 Nd80 2.487 . S
O102 C89 1.241 . S
O103 Nd80 2.682 . S
O103 Nd81 2.414 . S
O103 C89 1.273 . S
O104 Nd80 2.410 . S
O104 C90 1.251 . S
O105 Nd81 2.424 . S
O105 C90 1.268 . S
O106 Nd81 2.500 . S
O106 C91 1.258 . S
O107 Nd81 2.492 . S
O107 C91 1.239 . S
O108 Nd81 2.487 . S
O108 C98 1.241 . S
O109 Nd80 2.414 . S
O109 Nd81 2.682 . S
O109 C98 1.273 . S
O110 Nd81 2.410 . S
O110 C99 1.251 . S
O111 Nd80 2.424 . S
O111 C99 1.268 . S
H112 C84 0.930 . S
H113 C85 0.929 . S
H114 C87 0.930 . S
H115 C88 0.929 . S
H116 C93 0.930 . S
H117 C94 0.929 . S
H118 C96 0.930 . S
H119 C97 0.929 . S
Nd120 C122 2.836 . S
Nd120 O140 2.500 . S
Nd120 O141 2.492 . S
Nd120 O142 2.487 . S
Nd120 O143 2.682 . S
Nd120 O144 2.410 . S
Nd120 O149 2.414 . S
Nd120 O151 2.424 . S
Nd121 C131 2.836 . S
Nd121 O143 2.414 . S
Nd121 O145 2.424 . S
Nd121 O146 2.500 . S
Nd121 O147 2.492 . S
Nd121 O148 2.487 . S
Nd121 O149 2.682 . S
Nd121 O150 2.410 . S
C122 Nd120 2.836 . S
C122 C123 1.498 . S
C122 O140 1.258 . S
C122 O141 1.239 . S
C123 C122 1.498 . S
C123 C124 1.366 . S
C123 C128 1.407 . S
C124 C123 1.366 . S
C124 C125 1.392 . S
C124 H152 0.930 . S
C125 C124 1.392 . S
C125 C126 1.398 . S
C125 H153 0.929 . S
C126 C125 1.398 . S
C126 C127 1.352 . S
C127 C126 1.352 . S
C127 C128 1.384 . S
C127 H154 0.930 . S
C128 C123 1.407 . S
C128 C127 1.384 . S
C128 H155 0.929 . S
C129 O142 1.241 . S
C129 O143 1.273 . S
C130 O144 1.251 . S
C130 O145 1.268 . S
C131 Nd121 2.836 . S
C131 C132 1.498 . S
C131 O146 1.258 . S
C131 O147 1.239 . S
C132 C131 1.498 . S
C132 C133 1.366 . S
C132 C137 1.407 . S
C133 C132 1.366 . S
C133 C134 1.392 . S
C133 H156 0.930 . S
C134 C133 1.392 . S
C134 C135 1.398 . S
C134 H157 0.929 . S
C135 C134 1.398 . S
C135 C136 1.352 . S
C136 C135 1.352 . S
C136 C137 1.384 . S
C136 H158 0.930 . S
C137 C132 1.407 . S
C137 C136 1.384 . S
C137 H159 0.929 . S
C138 O148 1.241 . S
C138 O149 1.273 . S
C139 O150 1.251 . S
C139 O151 1.268 . S
O140 Nd120 2.500 . S
O140 C122 1.258 . S
O141 Nd120 2.492 . S
O141 C122 1.239 . S
O142 Nd120 2.487 . S
O142 C129 1.241 . S
O143 Nd120 2.682 . S
O143 Nd121 2.414 . S
O143 C129 1.273 . S
O144 Nd120 2.410 . S
O144 C130 1.251 . S
O145 Nd121 2.424 . S
O145 C130 1.268 . S
O146 Nd121 2.500 . S
O146 C131 1.258 . S
O147 Nd121 2.492 . S
O147 C131 1.239 . S
O148 Nd121 2.487 . S
O148 C138 1.241 . S
O149 Nd120 2.414 . S
O149 Nd121 2.682 . S
O149 C138 1.273 . S
O150 Nd121 2.410 . S
O150 C139 1.251 . S
O151 Nd120 2.424 . S
O151 C139 1.268 . S
H152 C124 0.930 . S
H153 C125 0.929 . S
H154 C127 0.930 . S
H155 C128 0.929 . S
H156 C133 0.930 . S
H157 C134 0.929 . S
H158 C136 0.930 . S
H159 C137 0.929 . S
Nd160 C162 2.836 . S
Nd160 O180 2.500 . S
Nd160 O181 2.492 . S
Nd160 O182 2.487 . S
Nd160 O183 2.682 1_556 S
Nd160 O184 2.410 . S
Nd160 O189 2.414 1_556 S
Nd160 O191 2.424 1_556 S
Nd161 C171 2.836 . S
Nd161 O183 2.414 . S
Nd161 O185 2.424 . S
Nd161 O186 2.500 . S
Nd161 O187 2.492 . S
Nd161 O188 2.487 . S
Nd161 O189 2.682 . S
Nd161 O190 2.410 . S
C162 Nd160 2.836 . S
C162 C163 1.498 . S
C162 O180 1.258 . S
C162 O181 1.239 . S
C163 C162 1.498 . S
C163 C164 1.366 . S
C163 C168 1.407 . S
C164 C163 1.366 . S
C164 C165 1.392 . S
C164 H192 0.930 . S
C165 C164 1.392 . S
C165 C166 1.398 . S
C165 H193 0.929 . S
C166 C165 1.398 . S
C166 C167 1.352 . S
C167 C166 1.352 . S
C167 C168 1.384 . S
C167 H194 0.930 . S
C168 C163 1.407 . S
C168 C167 1.384 . S
C168 H195 0.929 . S
C169 O182 1.241 1_554 S
C169 O183 1.273 . S
C170 O184 1.251 . S
C170 O185 1.268 1_556 S
C171 Nd161 2.836 . S
C171 C172 1.498 . S
C171 O186 1.258 . S
C171 O187 1.239 . S
C172 C171 1.498 . S
C172 C173 1.366 . S
C172 C177 1.407 . S
C173 C172 1.366 . S
C173 C174 1.392 . S
C173 H196 0.930 . S
C174 C173 1.392 . S
C174 C175 1.398 . S
C174 H197 0.929 . S
C175 C174 1.398 . S
C175 C176 1.352 . S
C176 C175 1.352 . S
C176 C177 1.384 . S
C176 H198 0.930 . S
C177 C172 1.407 . S
C177 C176 1.384 . S
C177 H199 0.929 . S
C178 O188 1.241 . S
C178 O189 1.273 . S
C179 O190 1.251 . S
C179 O191 1.268 . S
O180 Nd160 2.500 . S
O180 C162 1.258 . S
O181 Nd160 2.492 . S
O181 C162 1.239 . S
O182 Nd160 2.487 . S
O182 C169 1.241 1_556 S
O183 Nd160 2.682 1_554 S
O183 Nd161 2.414 . S
O183 C169 1.273 . S
O184 Nd160 2.410 . S
O184 C170 1.251 . S
O185 Nd161 2.424 . S
O185 C170 1.268 1_554 S
O186 Nd161 2.500 . S
O186 C171 1.258 . S
O187 Nd161 2.492 . S
O187 C171 1.239 . S
O188 Nd161 2.487 . S
O188 C178 1.241 . S
O189 Nd160 2.414 1_554 S
O189 Nd161 2.682 . S
O189 C178 1.273 . S
O190 Nd161 2.410 . S
O190 C179 1.251 . S
O191 Nd160 2.424 1_554 S
O191 C179 1.268 . S
H192 C164 0.930 . S
H193 C165 0.929 . S
H194 C167 0.930 . S
H195 C168 0.929 . S
H196 C173 0.930 . S
H197 C174 0.929 . S
H198 C176 0.930 . S
H199 C177 0.929 . S
Nd200 C202 2.836 . S
Nd200 O220 2.500 . S
Nd200 O221 2.492 . S
Nd200 O222 2.487 . S
Nd200 O223 2.682 1_556 S
Nd200 O224 2.410 . S
Nd200 O229 2.414 1_556 S
Nd200 O231 2.424 1_556 S
Nd201 C211 2.836 . S
Nd201 O223 2.414 . S
Nd201 O225 2.424 . S
Nd201 O226 2.500 . S
Nd201 O227 2.492 . S
Nd201 O228 2.487 . S
Nd201 O229 2.682 . S
Nd201 O230 2.410 . S
C202 Nd200 2.836 . S
C202 C203 1.498 . S
C202 O220 1.258 . S
C202 O221 1.239 . S
C203 C202 1.498 . S
C203 C204 1.366 . S
C203 C208 1.407 . S
C204 C203 1.366 . S
C204 C205 1.392 . S
C204 H232 0.930 . S
C205 C204 1.392 . S
C205 C206 1.398 . S
C205 H233 0.929 . S
C206 C205 1.398 . S
C206 C207 1.352 . S
C207 C206 1.352 . S
C207 C208 1.384 . S
C207 H234 0.930 . S
C208 C203 1.407 . S
C208 C207 1.384 . S
C208 H235 0.929 . S
C209 O222 1.241 1_554 S
C209 O223 1.273 . S
C210 O224 1.251 . S
C210 O225 1.268 1_556 S
C211 Nd201 2.836 . S
C211 C212 1.498 . S
C211 O226 1.258 . S
C211 O227 1.239 . S
C212 C211 1.498 . S
C212 C213 1.366 . S
C212 C217 1.407 . S
C213 C212 1.366 . S
C213 C214 1.392 . S
C213 H236 0.930 . S
C214 C213 1.392 . S
C214 C215 1.398 . S
C214 H237 0.929 . S
C215 C214 1.398 . S
C215 C216 1.352 . S
C216 C215 1.352 . S
C216 C217 1.384 . S
C216 H238 0.930 . S
C217 C212 1.407 . S
C217 C216 1.384 . S
C217 H239 0.929 . S
C218 O228 1.241 . S
C218 O229 1.273 . S
C219 O230 1.251 . S
C219 O231 1.268 . S
O220 Nd200 2.500 . S
O220 C202 1.258 . S
O221 Nd200 2.492 . S
O221 C202 1.239 . S
O222 Nd200 2.487 . S
O222 C209 1.241 1_556 S
O223 Nd200 2.682 1_554 S
O223 Nd201 2.414 . S
O223 C209 1.273 . S
O224 Nd200 2.410 . S
O224 C210 1.251 . S
O225 Nd201 2.424 . S
O225 C210 1.268 1_554 S
O226 Nd201 2.500 . S
O226 C211 1.258 . S
O227 Nd201 2.492 . S
O227 C211 1.239 . S
O228 Nd201 2.487 . S
O228 C218 1.241 . S
O229 Nd200 2.414 1_554 S
O229 Nd201 2.682 . S
O229 C218 1.273 . S
O230 Nd201 2.410 . S
O230 C219 1.251 . S
O231 Nd200 2.424 1_554 S
O231 C219 1.268 . S
H232 C204 0.930 . S
H233 C205 0.929 . S
H234 C207 0.930 . S
H235 C208 0.929 . S
H236 C213 0.930 . S
H237 C214 0.929 . S
H238 C216 0.930 . S
H239 C217 0.929 . S
Nd240 C242 2.836 . S
Nd240 O260 2.500 . S
Nd240 O261 2.492 . S
Nd240 O262 2.487 . S
Nd240 O263 2.682 . S
Nd240 O264 2.410 . S
Nd240 O269 2.414 . S
Nd240 O271 2.424 . S
Nd241 C251 2.836 . S
Nd241 O263 2.414 1_554 S
Nd241 O265 2.424 1_554 S
Nd241 O266 2.500 . S
Nd241 O267 2.492 . S
Nd241 O268 2.487 . S
Nd241 O269 2.682 1_554 S
Nd241 O270 2.410 . S
C242 Nd240 2.836 . S
C242 C243 1.498 . S
C242 O260 1.258 . S
C242 O261 1.239 . S
C243 C242 1.498 . S
C243 C244 1.366 . S
C243 C248 1.407 . S
C244 C243 1.366 . S
C244 C245 1.392 . S
C244 H272 0.930 . S
C245 C244 1.392 . S
C245 C246 1.398 . S
C245 H273 0.929 . S
C246 C245 1.398 . S
C246 C247 1.352 . S
C247 C246 1.352 . S
C247 C248 1.384 . S
C247 H274 0.930 . S
C248 C243 1.407 . S
C248 C247 1.384 . S
C248 H275 0.929 . S
C249 O262 1.241 . S
C249 O263 1.273 . S
C250 O264 1.251 . S
C250 O265 1.268 . S
C251 Nd241 2.836 . S
C251 C252 1.498 . S
C251 O266 1.258 . S
C251 O267 1.239 . S
C252 C251 1.498 . S
C252 C253 1.366 . S
C252 C257 1.407 . S
C253 C252 1.366 . S
C253 C254 1.392 . S
C253 H276 0.930 . S
C254 C253 1.392 . S
C254 C255 1.398 . S
C254 H277 0.929 . S
C255 C254 1.398 . S
C255 C256 1.352 . S
C256 C255 1.352 . S
C256 C257 1.384 . S
C256 H278 0.930 . S
C257 C252 1.407 . S
C257 C256 1.384 . S
C257 H279 0.929 . S
C258 O268 1.241 1_556 S
C258 O269 1.273 . S
C259 O270 1.251 . S
C259 O271 1.268 1_554 S
O260 Nd240 2.500 . S
O260 C242 1.258 . S
O261 Nd240 2.492 . S
O261 C242 1.239 . S
O262 Nd240 2.487 . S
O262 C249 1.241 . S
O263 Nd240 2.682 . S
O263 Nd241 2.414 1_556 S
O263 C249 1.273 . S
O264 Nd240 2.410 . S
O264 C250 1.251 . S
O265 Nd241 2.424 1_556 S
O265 C250 1.268 . S
O266 Nd241 2.500 . S
O266 C251 1.258 . S
O267 Nd241 2.492 . S
O267 C251 1.239 . S
O268 Nd241 2.487 . S
O268 C258 1.241 1_554 S
O269 Nd240 2.414 . S
O269 Nd241 2.682 1_556 S
O269 C258 1.273 . S
O270 Nd241 2.410 . S
O270 C259 1.251 . S
O271 Nd240 2.424 . S
O271 C259 1.268 1_556 S
H272 C244 0.930 . S
H273 C245 0.929 . S
H274 C247 0.930 . S
H275 C248 0.929 . S
H276 C253 0.930 . S
H277 C254 0.929 . S
H278 C256 0.930 . S
H279 C257 0.929 . S
Nd280 C282 2.836 . S
Nd280 O300 2.500 . S
Nd280 O301 2.492 . S
Nd280 O302 2.487 . S
Nd280 O303 2.682 . S
Nd280 O304 2.410 . S
Nd280 O309 2.414 . S
Nd280 O311 2.424 . S
Nd281 C291 2.836 . S
Nd281 O303 2.414 1_554 S
Nd281 O305 2.424 1_554 S
Nd281 O306 2.500 . S
Nd281 O307 2.492 . S
Nd281 O308 2.487 . S
Nd281 O309 2.682 1_554 S
Nd281 O310 2.410 . S
C282 Nd280 2.836 . S
C282 C283 1.498 . S
C282 O300 1.258 . S
C282 O301 1.239 . S
C283 C282 1.498 . S
C283 C284 1.366 . S
C283 C288 1.407 . S
C284 C283 1.366 . S
C284 C285 1.392 . S
C284 H312 0.930 . S
C285 C284 1.392 . S
C285 C286 1.398 . S
C285 H313 0.929 . S
C286 C285 1.398 . S
C286 C287 1.352 . S
C287 C286 1.352 . S
C287 C288 1.384 . S
C287 H314 0.930 . S
C288 C283 1.407 . S
C288 C287 1.384 . S
C288 H315 0.929 . S
C289 O302 1.241 . S
C289 O303 1.273 . S
C290 O304 1.251 . S
C290 O305 1.268 . S
C291 Nd281 2.836 . S
C291 C292 1.498 . S
C291 O306 1.258 . S
C291 O307 1.239 . S
C292 C291 1.498 . S
C292 C293 1.366 . S
C292 C297 1.407 . S
C293 C292 1.366 . S
C293 C294 1.392 . S
C293 H316 0.930 . S
C294 C293 1.392 . S
C294 C295 1.398 . S
C294 H317 0.929 . S
C295 C294 1.398 . S
C295 C296 1.352 . S
C296 C295 1.352 . S
C296 C297 1.384 . S
C296 H318 0.930 . S
C297 C292 1.407 . S
C297 C296 1.384 . S
C297 H319 0.929 . S
C298 O308 1.241 1_556 S
C298 O309 1.273 . S
C299 O310 1.251 . S
C299 O311 1.268 1_554 S
O300 Nd280 2.500 . S
O300 C282 1.258 . S
O301 Nd280 2.492 . S
O301 C282 1.239 . S
O302 Nd280 2.487 . S
O302 C289 1.241 . S
O303 Nd280 2.682 . S
O303 Nd281 2.414 1_556 S
O303 C289 1.273 . S
O304 Nd280 2.410 . S
O304 C290 1.251 . S
O305 Nd281 2.424 1_556 S
O305 C290 1.268 . S
O306 Nd281 2.500 . S
O306 C291 1.258 . S
O307 Nd281 2.492 . S
O307 C291 1.239 . S
O308 Nd281 2.487 . S
O308 C298 1.241 1_554 S
O309 Nd280 2.414 . S
O309 Nd281 2.682 1_556 S
O309 C298 1.273 . S
O310 Nd281 2.410 . S
O310 C299 1.251 . S
O311 Nd280 2.424 . S
O311 C299 1.268 1_556 S
H312 C284 0.930 . S
H313 C285 0.929 . S
H314 C287 0.930 . S
H315 C288 0.929 . S
H316 C293 0.930 . S
H317 C294 0.929 . S
H318 C296 0.930 . S
H319 C297 0.929 . S
C320 C321 1.369 . S
C320 C322 1.419 . S
C320 H324 0.930 . S
C321 C320 1.369 . S
C321 C330 1.429 . S
C322 C320 1.419 . S
C322 C323 1.363 . S
C322 H325 0.929 . S
C323 C322 1.363 . S
C323 C329 1.428 . S
H324 C320 0.930 . S
H325 C322 0.929 . S
S326 N327 1.613 . S
S326 N328 1.610 . S
N327 S326 1.613 . S
N327 C330 1.350 . S
N328 S326 1.610 . S
N328 C329 1.351 . S
C329 C323 1.428 . S
C329 N328 1.351 . S
C329 C330 1.434 . S
C330 C321 1.429 . S
C330 N327 1.350 . S
C330 C329 1.434 . S
C331 C332 1.369 . S
C331 C333 1.419 . S
C331 H335 0.930 . S
C332 C331 1.369 . S
C332 C341 1.429 . S
C333 C331 1.419 . S
C333 C334 1.363 . S
C333 H336 0.929 . S
C334 C333 1.363 . S
C334 C340 1.428 . S
H335 C331 0.930 . S
H336 C333 0.929 . S
S337 N338 1.613 . S
S337 N339 1.610 . S
N338 S337 1.613 . S
N338 C341 1.350 . S
N339 S337 1.610 . S
N339 C340 1.351 . S
C340 C334 1.428 . S
C340 N339 1.351 . S
C340 C341 1.434 . S
C341 C332 1.429 . S
C341 N338 1.350 . S
C341 C340 1.434 . S
C342 C343 1.369 . S
C342 C344 1.419 . S
C342 H346 0.930 . S
C343 C342 1.369 . S
C343 C352 1.429 . S
C344 C342 1.419 . S
C344 C345 1.363 . S
C344 H347 0.929 . S
C345 C344 1.363 . S
C345 C351 1.428 . S
H346 C342 0.930 . S
H347 C344 0.929 . S
S348 N349 1.613 . S
S348 N350 1.610 . S
N349 S348 1.613 . S
N349 C352 1.350 . S
N350 S348 1.610 . S
N350 C351 1.351 . S
C351 C345 1.428 . S
C351 N350 1.351 . S
C351 C352 1.434 . S
C352 C343 1.429 . S
C352 N349 1.350 . S
C352 C351 1.434 . S
C353 C354 1.369 . S
C353 C355 1.419 . S
C353 H357 0.930 . S
C354 C353 1.369 . S
C354 C363 1.429 . S
C355 C353 1.419 . S
C355 C356 1.363 . S
C355 H358 0.929 . S
C356 C355 1.363 . S
C356 C362 1.428 . S
H357 C353 0.930 . S
H358 C355 0.929 . S
S359 N360 1.613 . S
S359 N361 1.610 . S
N360 S359 1.613 . S
N360 C363 1.350 . S
N361 S359 1.610 . S
N361 C362 1.351 . S
C362 C356 1.428 . S
C362 N361 1.351 . S
C362 C363 1.434 . S
C363 C354 1.429 . S
C363 N360 1.350 . S
C363 C362 1.434 . S
C364 C365 1.369 . S
C364 C366 1.419 1_565 S
C364 H368 0.930 . S
C365 C364 1.369 . S
C365 C374 1.429 . S
C366 C364 1.419 1_545 S
C366 C367 1.363 . S
C366 H369 0.929 . S
C367 C366 1.363 . S
C367 C373 1.428 . S
H368 C364 0.930 . S
H369 C366 0.929 . S
S370 N371 1.613 1_545 S
S370 N372 1.610 . S
N371 S370 1.613 1_565 S
N371 C374 1.350 . S
N372 S370 1.610 . S
N372 C373 1.351 . S
C373 C367 1.428 . S
C373 N372 1.351 . S
C373 C374 1.434 1_545 S
C374 C365 1.429 . S
C374 N371 1.350 . S
C374 C373 1.434 1_565 S
C375 C376 1.369 . S
C375 C377 1.419 . S
C375 H379 0.930 . S
C376 C375 1.369 . S
C376 C385 1.429 . S
C377 C375 1.419 . S
C377 C378 1.363 . S
C377 H380 0.929 . S
C378 C377 1.363 . S
C378 C384 1.428 . S
H379 C375 0.930 . S
H380 C377 0.929 . S
S381 N382 1.613 . S
S381 N383 1.610 . S
N382 S381 1.613 . S
N382 C385 1.350 . S
N383 S381 1.610 . S
N383 C384 1.351 . S
C384 C378 1.428 . S
C384 N383 1.351 . S
C384 C385 1.434 . S
C385 C376 1.429 . S
C385 N382 1.350 . S
C385 C384 1.434 . S
C386 C387 1.369 . S
C386 C388 1.419 1_565 S
C386 H390 0.930 . S
C387 C386 1.369 . S
C387 C396 1.429 . S
C388 C386 1.419 1_545 S
C388 C389 1.363 . S
C388 H391 0.929 . S
C389 C388 1.363 . S
C389 C395 1.428 . S
H390 C386 0.930 . S
H391 C388 0.929 . S
S392 N393 1.613 . S
S392 N394 1.610 1_565 S
N393 S392 1.613 . S
N393 C396 1.350 . S
N394 S392 1.610 1_545 S
N394 C395 1.351 . S
C395 C389 1.428 . S
C395 N394 1.351 . S
C395 C396 1.434 1_545 S
C396 C387 1.429 . S
C396 N393 1.350 . S
C396 C395 1.434 1_565 S
C397 C398 1.369 . S
C397 C399 1.419 . S
C397 H401 0.930 . S
C398 C397 1.369 . S
C398 C407 1.429 . S
C399 C397 1.419 . S
C399 C400 1.363 . S
C399 H402 0.929 . S
C400 C399 1.363 . S
C400 C406 1.428 . S
H401 C397 0.930 . S
H402 C399 0.929 . S
S403 N404 1.613 . S
S403 N405 1.610 . S
N404 S403 1.613 . S
N404 C407 1.350 . S
N405 S403 1.610 . S
N405 C406 1.351 . S
C406 C400 1.428 . S
C406 N405 1.351 . S
C406 C407 1.434 . S
C407 C398 1.429 . S
C407 N404 1.350 . S
C407 C406 1.434 . S
C408 C409 1.369 . S
C408 C410 1.419 . S
C408 H412 0.930 . S
C409 C408 1.369 . S
C409 C418 1.429 1_554 S
C410 C408 1.419 . S
C410 C411 1.363 1_554 S
C410 H413 0.929 . S
C411 C410 1.363 1_556 S
C411 C417 1.428 . S
H412 C408 0.930 . S
H413 C410 0.929 . S
S414 N415 1.613 . S
S414 N416 1.610 . S
N415 S414 1.613 . S
N415 C418 1.350 . S
N416 S414 1.610 . S
N416 C417 1.351 . S
C417 C411 1.428 . S
C417 N416 1.351 . S
C417 C418 1.434 . S
C418 C409 1.429 1_556 S
C418 N415 1.350 . S
C418 C417 1.434 . S
C419 C420 1.369 1_556 S
C419 C421 1.419 1_565 S
C419 H423 0.930 . S
C420 C419 1.369 1_554 S
C420 C429 1.429 . S
C421 C419 1.419 1_545 S
C421 C422 1.363 . S
C421 H424 0.929 . S
C422 C421 1.363 . S
C422 C428 1.428 1_556 S
H423 C419 0.930 . S
H424 C421 0.929 . S
S425 N426 1.613 1_545 S
S425 N427 1.610 . S
N426 S425 1.613 1_565 S
N426 C429 1.350 . S
N427 S425 1.610 . S
N427 C428 1.351 . S
C428 C422 1.428 1_554 S
C428 N427 1.351 . S
C428 C429 1.434 1_545 S
C429 C420 1.429 . S
C429 N426 1.350 . S
C429 C428 1.434 1_565 S
C430 C431 1.369 . S
C430 C432 1.419 . S
C430 H434 0.930 . S
C431 C430 1.369 . S
C431 C440 1.429 1_556 S
C432 C430 1.419 . S
C432 C433 1.363 1_556 S
C432 H435 0.929 . S
C433 C432 1.363 1_554 S
C433 C439 1.428 . S
H434 C430 0.930 . S
H435 C432 0.929 . S
S436 N437 1.613 . S
S436 N438 1.610 . S
N437 S436 1.613 . S
N437 C440 1.350 . S
N438 S436 1.610 . S
N438 C439 1.351 . S
C439 C433 1.428 . S
C439 N438 1.351 . S
C439 C440 1.434 . S
C440 C431 1.429 1_554 S
C440 N437 1.350 . S
C440 C439 1.434 . S
C441 C442 1.369 . S
C441 C443 1.419 1_545 S
C441 H445 0.930 . S
C442 C441 1.369 . S
C442 C451 1.429 1_556 S
C443 C441 1.419 1_565 S
C443 C444 1.363 1_556 S
C443 H446 0.929 . S
C444 C443 1.363 1_554 S
C444 C450 1.428 . S
H445 C441 0.930 . S
H446 C443 0.929 . S
S447 N448 1.613 . S
S447 N449 1.610 1_545 S
N448 S447 1.613 . S
N448 C451 1.350 . S
N449 S447 1.610 1_565 S
N449 C450 1.351 . S
C450 C444 1.428 . S
C450 N449 1.351 . S
C450 C451 1.434 1_565 S
C451 C442 1.429 1_554 S
C451 N448 1.350 . S
C451 C450 1.434 1_545 S
C452 C453 1.369 . S
C452 C454 1.419 . S
C452 H456 0.930 . S
C453 C452 1.369 . S
C453 C462 1.429 . S
C454 C452 1.419 . S
C454 C455 1.363 1_554 S
C454 H457 0.929 . S
C455 C454 1.363 1_556 S
C455 C461 1.428 . S
H456 C452 0.930 . S
H457 C454 0.929 . S
S458 N459 1.613 1_556 S
S458 N460 1.610 . S
N459 S458 1.613 1_554 S
N459 C462 1.350 . S
N460 S458 1.610 . S
N460 C461 1.351 . S
C461 C455 1.428 . S
C461 N460 1.351 . S
C461 C462 1.434 1_556 S
C462 C453 1.429 . S
C462 N459 1.350 . S
C462 C461 1.434 1_554 S
C463 C464 1.369 . S
C463 C465 1.419 1_554 S
C463 H467 0.930 . S
C464 C463 1.369 . S
C464 C473 1.429 . S
C465 C463 1.419 1_556 S
C465 C466 1.363 . S
C465 H468 0.929 . S
C466 C465 1.363 . S
C466 C472 1.428 1_556 S
H467 C463 0.930 . S
H468 C465 0.929 . S
S469 N470 1.613 . S
S469 N471 1.610 . S
N470 S469 1.613 . S
N470 C473 1.350 . S
N471 S469 1.610 . S
N471 C472 1.351 . S
C472 C466 1.428 1_554 S
C472 N471 1.351 . S
C472 C473 1.434 . S
C473 C464 1.429 . S
C473 N470 1.350 . S
C473 C472 1.434 . S
C474 C475 1.369 1_556 S
C474 C476 1.419 . S
C474 H478 0.930 . S
C475 C474 1.369 1_554 S
C475 C484 1.429 . S
C476 C474 1.419 . S
C476 C477 1.363 . S
C476 H479 0.929 . S
C477 C476 1.363 . S
C477 C483 1.428 . S
H478 C474 0.930 . S
H479 C476 0.929 . S
S480 N481 1.613 . S
S480 N482 1.610 1_554 S
N481 S480 1.613 . S
N481 C484 1.350 . S
N482 S480 1.610 1_556 S
N482 C483 1.351 . S
C483 C477 1.428 . S
C483 N482 1.351 . S
C483 C484 1.434 1_556 S
C484 C475 1.429 . S
C484 N481 1.350 . S
C484 C483 1.434 1_554 S
C485 C486 1.369 . S
C485 C487 1.419 1_556 S
C485 H489 0.930 . S
C486 C485 1.369 . S
C486 C495 1.429 . S
C487 C485 1.419 1_554 S
C487 C488 1.363 . S
C487 H490 0.929 . S
C488 C487 1.363 . S
C488 C494 1.428 1_554 S
H489 C485 0.930 . S
H490 C487 0.929 . S
S491 N492 1.613 . S
S491 N493 1.610 . S
N492 S491 1.613 . S
N492 C495 1.350 . S
N493 S491 1.610 . S
N493 C494 1.351 . S
C494 C488 1.428 1_556 S
C494 N493 1.351 . S
C494 C495 1.434 . S
C495 C486 1.429 . S
C495 N492 1.350 . S
C495 C494 1.434 . S
C496 C497 1.369 . S
C496 C498 1.419 . S
C496 H500 0.930 . S
C497 C496 1.369 . S
C497 C506 1.429 . S
C498 C496 1.419 . S
C498 C499 1.363 . S
C498 H501 0.929 . S
C499 C498 1.363 . S
C499 C505 1.428 . S
H500 C496 0.930 . S
H501 C498 0.929 . S
S502 N503 1.613 . S
S502 N504 1.610 . S
N503 S502 1.613 . S
N503 C506 1.350 . S
N504 S502 1.610 . S
N504 C505 1.351 . S
C505 C499 1.428 . S
C505 N504 1.351 . S
C505 C506 1.434 . S
C506 C497 1.429 . S
C506 N503 1.350 . S
C506 C505 1.434 . S
C507 C508 1.369 . S
C507 C509 1.419 . S
C507 H511 0.930 . S
C508 C507 1.369 . S
C508 C517 1.429 . S
C509 C507 1.419 . S
C509 C510 1.363 . S
C509 H512 0.929 . S
C510 C509 1.363 . S
C510 C516 1.428 . S
H511 C507 0.930 . S
H512 C509 0.929 . S
S513 N514 1.613 . S
S513 N515 1.610 . S
N514 S513 1.613 . S
N514 C517 1.350 . S
N515 S513 1.610 . S
N515 C516 1.351 . S
C516 C510 1.428 . S
C516 N515 1.351 . S
C516 C517 1.434 . S
C517 C508 1.429 . S
C517 N514 1.350 . S
C517 C516 1.434 . S
C518 C519 1.369 . S
C518 C520 1.419 . S
C518 H522 0.930 . S
C519 C518 1.369 . S
C519 C528 1.429 . S
C520 C518 1.419 . S
C520 C521 1.363 . S
C520 H523 0.929 . S
C521 C520 1.363 . S
C521 C527 1.428 . S
H522 C518 0.930 . S
H523 C520 0.929 . S
S524 N525 1.613 . S
S524 N526 1.610 . S
N525 S524 1.613 . S
N525 C528 1.350 . S
N526 S524 1.610 . S
N526 C527 1.351 . S
C527 C521 1.428 . S
C527 N526 1.351 . S
C527 C528 1.434 . S
C528 C519 1.429 . S
C528 N525 1.350 . S
C528 C527 1.434 . S
C529 C530 1.369 . S
C529 C531 1.419 . S
C529 H533 0.930 . S
C530 C529 1.369 . S
C530 C539 1.429 . S
C531 C529 1.419 . S
C531 C532 1.363 . S
C531 H534 0.929 . S
C532 C531 1.363 . S
C532 C538 1.428 . S
H533 C529 0.930 . S
H534 C531 0.929 . S
S535 N536 1.613 . S
S535 N537 1.610 . S
N536 S535 1.613 . S
N536 C539 1.350 . S
N537 S535 1.610 . S
N537 C538 1.351 . S
C538 C532 1.428 . S
C538 N537 1.351 . S
C538 C539 1.434 . S
C539 C530 1.429 . S
C539 N536 1.350 . S
C539 C538 1.434 . S
C540 C541 1.369 . S
C540 C542 1.419 1_455 S
C540 H544 0.930 . S
C541 C540 1.369 . S
C541 C550 1.429 . S
C542 C540 1.419 1_655 S
C542 C543 1.363 . S
C542 H545 0.929 . S
C543 C542 1.363 . S
C543 C549 1.428 . S
H544 C540 0.930 . S
H545 C542 0.929 . S
S546 N547 1.613 . S
S546 N548 1.610 1_455 S
N547 S546 1.613 . S
N547 C550 1.350 . S
N548 S546 1.610 1_655 S
N548 C549 1.351 . S
C549 C543 1.428 . S
C549 N548 1.351 . S
C549 C550 1.434 1_655 S
C550 C541 1.429 . S
C550 N547 1.350 . S
C550 C549 1.434 1_455 S
C551 C552 1.369 . S
C551 C553 1.419 1_655 S
C551 H555 0.930 . S
C552 C551 1.369 . S
C552 C561 1.429 . S
C553 C551 1.419 1_455 S
C553 C554 1.363 . S
C553 H556 0.929 . S
C554 C553 1.363 . S
C554 C560 1.428 . S
H555 C551 0.930 . S
H556 C553 0.929 . S
S557 N558 1.613 1_455 S
S557 N559 1.610 . S
N558 S557 1.613 1_655 S
N558 C561 1.350 . S
N559 S557 1.610 . S
N559 C560 1.351 . S
C560 C554 1.428 . S
C560 N559 1.351 . S
C560 C561 1.434 1_455 S
C561 C552 1.429 . S
C561 N558 1.350 . S
C561 C560 1.434 1_655 S
C562 C563 1.369 1_554 S
C562 C564 1.419 . S
C562 H566 0.930 . S
C563 C562 1.369 1_556 S
C563 C572 1.429 . S
C564 C562 1.419 . S
C564 C565 1.363 1_554 S
C564 H567 0.929 . S
C565 C564 1.363 1_556 S
C565 C571 1.428 . S
H566 C562 0.930 . S
H567 C564 0.929 . S
S568 N569 1.613 . S
S568 N570 1.610 . S
N569 S568 1.613 . S
N569 C572 1.350 . S
N570 S568 1.610 . S
N570 C571 1.351 . S
C571 C565 1.428 . S
C571 N570 1.351 . S
C571 C572 1.434 . S
C572 C563 1.429 . S
C572 N569 1.350 . S
C572 C571 1.434 . S
C573 C574 1.369 . S
C573 C575 1.419 . S
C573 H577 0.930 . S
C574 C573 1.369 . S
C574 C583 1.429 . S
C575 C573 1.419 . S
C575 C576 1.363 . S
C575 H578 0.929 . S
C576 C575 1.363 . S
C576 C582 1.428 . S
H577 C573 0.930 . S
H578 C575 0.929 . S
S579 N580 1.613 . S
S579 N581 1.614 . S
N580 S579 1.613 . S
N580 C583 1.350 1_556 S
N581 S579 1.614 . S
N581 C582 1.346 1_556 S
C582 C576 1.428 . S
C582 N581 1.346 1_554 S
C582 C583 1.434 . S
C583 C574 1.429 . S
C583 N580 1.350 1_554 S
C583 C582 1.434 . S
C321 C19 2.423 . S
C323 C290 2.417 . S
C332 C250 2.420 . S
C334 C59 2.419 . S
C343 C219 2.421 . S
C345 C90 2.418 . S
C354 C179 2.421 . S
C356 C130 2.418 . S
C365 C89 1.604 . S
C367 C9 1.465 . S
C376 C49 1.470 . S
C378 C129 1.604 . S
C387 C138 1.460 . S
C389 C58 1.601 . S
C398 C98 1.472 . S
C400 C18 1.604 . S
C409 C169 1.460 . S
C411 C249 1.602 . S
C420 C209 1.474 . S
C422 C289 1.603 . S
C431 C298 1.460 . S
C433 C218 1.601 . S
C442 C258 1.460 . S
C444 C178 1.601 . S
C453 C6 1.455 . S
C455 C15 1.447 . S
C464 C46 1.445 . S
C466 C55 1.455 . S
C475 C86 1.445 . S
C477 C95 1.455 . S
C486 C135 1.445 . S
C488 C126 1.455 . S
C497 C175 1.448 . S
C499 C166 1.452 . S
C508 C206 1.454 . S
C510 C215 1.448 . S
C519 C255 1.455 . S
C521 C246 1.447 . S
C530 C295 1.456 . S
C532 C286 1.446 . S
C541 C10 2.152 . S
C543 C50 2.151 . S
C552 C139 2.145 . S
C554 C99 2.148 . S
C563 C170 2.152 . S
C565 C210 2.151 . S
C574 C299 2.150 . S
C576 C259 2.148 . S
