# Generated by pormake.
# Topology uoa, (4)-cn, num edge types: 1
# Building blocks:
#     Node 0, Type 0, BuildingBlock: NAWXER_clean_sbu_0, # of connection points: 4
#     Node 1, Type 0, BuildingBlock: NAWXER_clean_sbu_0, # of connection points: 4
#     Node 2, Type 0, BuildingBlock: NAWXER_clean_sbu_0, # of connection points: 4
#     Node 3, Type 0, BuildingBlock: NAWXER_clean_sbu_0, # of connection points: 4
#     Node 4, Type 0, BuildingBlock: NAWXER_clean_sbu_0, # of connection points: 4
#     Node 5, Type 0, BuildingBlock: NAWXER_clean_sbu_0, # of connection points: 4
#     Node 6, Type 0, BuildingBlock: NAWXER_clean_sbu_0, # of connection points: 4
#     Node 7, Type 0, BuildingBlock: NAWXER_clean_sbu_0, # of connection points: 4
#     Node 8, Type 0, BuildingBlock: NAWXER_clean_sbu_0, # of connection points: 4
#     Node 9, Type 0, BuildingBlock: NAWXER_clean_sbu_0, # of connection points: 4
#     Node 10, Type 0, BuildingBlock: NAWXER_clean_sbu_0, # of connection points: 4
#     Node 11, Type 0, BuildingBlock: NAWXER_clean_sbu_0, # of connection points: 4
#     Node 12, Type 0, BuildingBlock: NAWXER_clean_sbu_0, # of connection points: 4
#     Node 13, Type 0, BuildingBlock: NAWXER_clean_sbu_0, # of connection points: 4
#     Node 14, Type 0, BuildingBlock: NAWXER_clean_sbu_0, # of connection points: 4
#     Node 15, Type 0, BuildingBlock: NAWXER_clean_sbu_0, # of connection points: 4
#     Node 16, Type 0, BuildingBlock: NAWXER_clean_sbu_0, # of connection points: 4
#     Node 17, Type 0, BuildingBlock: NAWXER_clean_sbu_0, # of connection points: 4
#     Node 18, Type 0, BuildingBlock: NAWXER_clean_sbu_0, # of connection points: 4
#     Node 19, Type 0, BuildingBlock: NAWXER_clean_sbu_0, # of connection points: 4
#     Node 20, Type 0, BuildingBlock: NAWXER_clean_sbu_0, # of connection points: 4
#     Node 21, Type 0, BuildingBlock: NAWXER_clean_sbu_0, # of connection points: 4
#     Node 22, Type 0, BuildingBlock: NAWXER_clean_sbu_0, # of connection points: 4
#     Node 23, Type 0, BuildingBlock: NAWXER_clean_sbu_0, # of connection points: 4
#     Node 24, Type 0, BuildingBlock: NAWXER_clean_sbu_0, # of connection points: 4
#     Node 25, Type 0, BuildingBlock: NAWXER_clean_sbu_0, # of connection points: 4
#     Node 26, Type 0, BuildingBlock: NAWXER_clean_sbu_0, # of connection points: 4
#     Node 27, Type 0, BuildingBlock: NAWXER_clean_sbu_0, # of connection points: 4
#     Node 28, Type 0, BuildingBlock: NAWXER_clean_sbu_0, # of connection points: 4
#     Node 29, Type 0, BuildingBlock: NAWXER_clean_sbu_0, # of connection points: 4
#     Node 30, Type 0, BuildingBlock: NAWXER_clean_sbu_0, # of connection points: 4
#     Node 31, Type 0, BuildingBlock: NAWXER_clean_sbu_0, # of connection points: 4
#     Edge 32, Type (0, 0), None
#     Edge 33, Type (0, 0), None
#     Edge 34, Type (0, 0), None
#     Edge 35, Type (0, 0), None
#     Edge 36, Type (0, 0), None
#     Edge 37, Type (0, 0), None
#     Edge 38, Type (0, 0), None
#     Edge 39, Type (0, 0), None
#     Edge 40, Type (0, 0), None
#     Edge 41, Type (0, 0), None
#     Edge 42, Type (0, 0), None
#     Edge 43, Type (0, 0), None
#     Edge 44, Type (0, 0), None
#     Edge 45, Type (0, 0), None
#     Edge 46, Type (0, 0), None
#     Edge 47, Type (0, 0), None
#     Edge 48, Type (0, 0), None
#     Edge 49, Type (0, 0), None
#     Edge 50, Type (0, 0), None
#     Edge 51, Type (0, 0), None
#     Edge 52, Type (0, 0), None
#     Edge 53, Type (0, 0), None
#     Edge 54, Type (0, 0), None
#     Edge 55, Type (0, 0), None
#     Edge 56, Type (0, 0), None
#     Edge 57, Type (0, 0), None
#     Edge 58, Type (0, 0), None
#     Edge 59, Type (0, 0), None
#     Edge 60, Type (0, 0), None
#     Edge 61, Type (0, 0), None
#     Edge 62, Type (0, 0), None
#     Edge 63, Type (0, 0), None
#     Edge 64, Type (0, 0), None
#     Edge 65, Type (0, 0), None
#     Edge 66, Type (0, 0), None
#     Edge 67, Type (0, 0), None
#     Edge 68, Type (0, 0), None
#     Edge 69, Type (0, 0), None
#     Edge 70, Type (0, 0), None
#     Edge 71, Type (0, 0), None
#     Edge 72, Type (0, 0), None
#     Edge 73, Type (0, 0), None
#     Edge 74, Type (0, 0), None
#     Edge 75, Type (0, 0), None
#     Edge 76, Type (0, 0), None
#     Edge 77, Type (0, 0), None
#     Edge 78, Type (0, 0), None
#     Edge 79, Type (0, 0), None
#     Edge 80, Type (0, 0), None
#     Edge 81, Type (0, 0), None
#     Edge 82, Type (0, 0), None
#     Edge 83, Type (0, 0), None
#     Edge 84, Type (0, 0), None
#     Edge 85, Type (0, 0), None
#     Edge 86, Type (0, 0), None
#     Edge 87, Type (0, 0), None
#     Edge 88, Type (0, 0), None
#     Edge 89, Type (0, 0), None
#     Edge 90, Type (0, 0), None
#     Edge 91, Type (0, 0), None
#     Edge 92, Type (0, 0), None
#     Edge 93, Type (0, 0), None
#     Edge 94, Type (0, 0), None
#     Edge 95, Type (0, 0), None
# Relax obj value: 0.037
# Max RMSD: 0.224
# Mean RMSD: 0.224
data_MOF--net-uoa--node1-NAWXER_clean_sbu_0--edge1-none
_symmetry_space_group_name_H-M    P1
_symmetry_Int_Tables_number       1
_symmetry_cell_setting            triclinic
loop_
_symmetry_equiv_pos_as_xyz
'x, y, z'
_cell_length_a     34.340819
_cell_length_b     34.338832
_cell_length_c     12.383962
_cell_angle_alpha  89.999641
_cell_angle_beta   89.997226
_cell_angle_gamma 89.999813
loop_
_atom_site_label
_atom_site_type_symbol
_atom_site_fract_x
_atom_site_fract_y
_atom_site_fract_z
_atom_type_partial_charge
C0 C -0.00018 0.09702 0.87159 0.0
C1 C 0.97578 0.09218 0.25666 0.0
O2 O 0.02433 0.07449 0.91807 0.0
Zn3 Zn 0.03609 0.05698 0.08189 0.0
O4 O 0.97563 0.11627 0.92762 0.0
Zn5 Zn -0.01145 0.09528 0.06576 0.0
O6 O 0.04292 0.12251 0.11078 0.0
O7 O 0.08752 0.07618 0.11563 0.0
O8 O 0.95578 0.11005 0.18617 0.0
O9 O 0.0051 0.07137 0.22855 0.0
O10 O 0.02954 0.00157 0.06753 0.0
O11 O 0.97508 0.03436 0.03978 0.0
C12 C 0.07798 0.11153 0.12962 0.0
C13 C -0.00616 0.00206 0.04056 0.0
C14 C 0.21593 0.74383 0.29056 0.0
C15 C 0.10646 0.82796 0.37961 0.0
O16 O 0.18363 0.72506 0.28978 0.0
Zn17 Zn 0.12271 0.73853 0.31575 0.0
O18 O 0.21642 0.77952 0.31753 0.0
Zn19 Zn 0.16101 0.78608 0.33189 0.0
O20 O 0.14662 0.75509 0.47855 0.0
O21 O 0.10795 0.70575 0.43616 0.0
O22 O 0.14181 0.8375 0.36563 0.0
O23 O 0.09549 0.7929 0.36078 0.0
O24 O 0.10173 0.72561 0.17762 0.0
O25 O 0.1435 0.77432 0.16807 0.0
C26 C 0.12581 0.72575 0.50665 0.0
C27 C 0.12098 0.7498 0.12159 0.0
C28 C 0.49223 0.87579 0.75665 0.0
C29 C 0.46818 0.87096 0.37159 0.0
O30 O 0.4629 0.8966 0.72856 0.0
Zn31 Zn 0.43191 0.91099 0.58191 0.0
O32 O 0.51222 0.85793 0.68616 0.0
Zn33 Zn 0.47945 0.87269 0.56576 0.0
O34 O 0.49292 0.93361 0.53978 0.0
O35 O 0.43847 0.96641 0.56755 0.0
O36 O 0.49237 0.8517 0.42761 0.0
O37 O 0.44366 0.89349 0.41808 0.0
O38 O 0.38048 0.8918 0.61566 0.0
O39 O 0.42508 0.84547 0.61079 0.0
C40 C 0.47415 0.96591 0.54056 0.0
C41 C 0.39002 0.85644 0.62963 0.0
C42 C 0.25208 0.22415 0.79056 0.0
C43 C 0.36155 0.14001 0.87962 0.0
O44 O 0.28438 0.24291 0.78976 0.0
Zn45 Zn 0.34529 0.22944 0.81573 0.0
O46 O 0.25158 0.18845 0.81754 0.0
Zn47 Zn 0.307 0.1819 0.83189 0.0
O48 O 0.32139 0.21289 0.97854 0.0
O49 O 0.36006 0.26222 0.93613 0.0
O50 O 0.32619 0.13047 0.86565 0.0
O51 O 0.37252 0.17507 0.86077 0.0
O52 O 0.36628 0.24236 0.67758 0.0
O53 O 0.3245 0.19365 0.66806 0.0
C54 C 0.34219 0.24222 1.00663 0.0
C55 C 0.34703 0.21816 0.62157 0.0
C56 C 0.07798 0.85644 0.41931 0.0
C57 C -0.00616 0.96591 0.50837 0.0
O58 O 0.04292 0.84546 0.43815 0.0
Zn59 Zn -0.01145 0.87269 0.48318 0.0
O60 O 0.08752 0.89179 0.43329 0.0
Zn61 Zn 0.03609 0.91099 0.46703 0.0
O62 O 0.02433 0.89348 0.63086 0.0
O63 O 0.97563 0.8517 0.62132 0.0
O64 O 0.02953 0.9664 0.48139 0.0
O65 O 0.97508 0.93361 0.50916 0.0
O66 O 0.95578 0.85792 0.36278 0.0
O67 O 0.0051 0.89659 0.32038 0.0
C68 C -0.00018 0.87095 0.67735 0.0
C69 C 0.97577 0.87579 0.29228 0.0
C70 C 0.34703 0.7498 0.92734 0.0
C71 C 0.34219 0.72576 0.54228 0.0
O72 O 0.3245 0.77431 0.88087 0.0
Zn73 Zn 0.307 0.78608 0.71705 0.0
O74 O 0.36628 0.72561 0.87131 0.0
Zn75 Zn 0.34529 0.73853 0.73318 0.0
O76 O 0.37252 0.7929 0.68816 0.0
O77 O 0.32619 0.83751 0.68331 0.0
O78 O 0.36005 0.70576 0.61276 0.0
O79 O 0.32139 0.75509 0.57039 0.0
O80 O 0.25158 0.77952 0.73141 0.0
O81 O 0.28437 0.72506 0.75916 0.0
C82 C 0.36154 0.82796 0.66933 0.0
C83 C 0.25207 0.74383 0.75838 0.0
C84 C 0.46819 0.09702 0.17734 0.0
C85 C 0.49222 0.09218 0.79227 0.0
O86 O 0.44367 0.07449 0.13086 0.0
Zn87 Zn 0.43191 0.05698 0.96704 0.0
O88 O 0.49237 0.11627 0.1213 0.0
Zn89 Zn 0.47945 0.09528 0.98317 0.0
O90 O 0.42508 0.12251 0.93815 0.0
O91 O 0.38048 0.07618 0.93331 0.0
O92 O 0.51223 0.11005 0.86276 0.0
O93 O 0.4629 0.07137 0.82038 0.0
O94 O 0.43847 0.00157 0.9814 0.0
O95 O 0.49292 0.03436 1.00915 0.0
C96 C 0.39002 0.11153 0.91932 0.0
C97 C 0.47416 0.00206 1.00837 0.0
C98 C 0.12581 0.24222 0.0423 0.0
C99 C 0.12098 0.21816 0.42736 0.0
O100 O 0.14662 0.21289 0.07039 0.0
Zn101 Zn 0.16101 0.1819 0.21704 0.0
O102 O 0.10795 0.26222 0.11279 0.0
Zn103 Zn 0.12271 0.22944 0.2332 0.0
O104 O 0.18363 0.24291 0.25916 0.0
O105 O 0.21642 0.18845 0.23139 0.0
O106 O 0.10173 0.24236 0.37134 0.0
O107 O 0.14351 0.19365 0.38087 0.0
O108 O 0.14181 0.13047 0.18329 0.0
O109 O 0.09549 0.17507 0.18816 0.0
C110 C 0.21593 0.22415 0.25837 0.0
C111 C 0.10646 0.14001 0.16931 0.0
C112 C 0.96817 0.87094 0.17734 0.0
C113 C -0.00777 0.8758 0.7923 0.0
O114 O -0.00763 0.85169 0.12132 0.0
Zn115 Zn 0.97945 0.87269 0.98319 0.0
O116 O 0.94366 0.89348 0.13088 0.0
Zn117 Zn 0.93191 0.91099 0.96707 0.0
O118 O 0.88048 0.8918 0.93331 0.0
O119 O 0.92508 0.84547 0.93816 0.0
O120 O 0.9629 0.89661 0.82041 0.0
O121 O 0.01223 0.85793 0.86278 0.0
O122 O -0.00708 0.93361 1.00919 0.0
O123 O 0.93846 0.96641 0.98145 0.0
C124 C 0.89002 0.85644 0.91932 0.0
C125 C 0.97416 0.96591 1.00842 0.0
C126 C 0.84702 0.21816 0.92736 0.0
C127 C 0.84219 0.24221 0.5423 0.0
O128 O 0.86628 0.24235 0.87134 0.0
Zn129 Zn 0.84529 0.22944 0.73319 0.0
O130 O 0.8245 0.19365 0.88087 0.0
Zn131 Zn 0.807 0.18189 0.71705 0.0
O132 O 0.82619 0.13046 0.6833 0.0
O133 O 0.87252 0.17507 0.68816 0.0
O134 O 0.82139 0.21288 0.5704 0.0
O135 O 0.86006 0.26221 0.61279 0.0
O136 O 0.78438 0.2429 0.75917 0.0
O137 O 0.75158 0.18845 0.73141 0.0
C138 C 0.86155 0.14001 0.66932 0.0
C139 C 0.75208 0.22414 0.75838 0.0
C140 C 0.47578 0.09217 0.29228 0.0
C141 C 0.49982 0.09703 0.67732 0.0
O142 O 0.45578 0.11004 0.36276 0.0
Zn143 Zn 0.48855 0.09528 0.48318 0.0
O144 O 0.50511 0.07137 0.32039 0.0
Zn145 Zn 0.53609 0.05698 0.46705 0.0
O146 O 0.52953 0.00157 0.48143 0.0
O147 O 0.47508 0.03436 0.50919 0.0
O148 O 0.52433 0.0745 0.63087 0.0
O149 O 0.47562 0.11628 0.6213 0.0
O150 O 0.54292 0.1225 0.43815 0.0
O151 O 0.58752 0.07617 0.4333 0.0
C152 C 0.49385 0.00206 0.50841 0.0
C153 C 0.57797 0.11153 0.41931 0.0
C154 C 0.60645 0.82796 0.16931 0.0
C155 C 0.71593 0.74383 0.25838 0.0
O156 O 0.64181 0.83751 0.18329 0.0
Zn157 Zn 0.661 0.78608 0.21704 0.0
O158 O 0.59548 0.7929 0.18816 0.0
Zn159 Zn 0.62271 0.73853 0.2332 0.0
O160 O 0.60172 0.72562 0.37135 0.0
O161 O 0.6435 0.77433 0.38087 0.0
O162 O 0.68363 0.72507 0.25917 0.0
O163 O 0.71642 0.77952 0.2314 0.0
O164 O 0.64662 0.75508 0.0704 0.0
O165 O 0.60795 0.70575 0.1128 0.0
C166 C 0.62098 0.74981 0.42737 0.0
C167 C 0.62581 0.72575 0.0423 0.0
C168 C 0.89003 0.11153 0.62963 0.0
C169 C 0.97415 0.00206 0.54052 0.0
O170 O 0.88048 0.07617 0.61564 0.0
Zn171 Zn 0.93191 0.05698 0.58189 0.0
O172 O 0.92508 0.1225 0.61078 0.0
Zn173 Zn 0.97945 0.09528 0.56575 0.0
O174 O -0.00763 0.11628 0.42761 0.0
O175 O 0.94366 0.07449 0.41807 0.0
O176 O -0.00708 0.03436 0.53974 0.0
O177 O 0.93847 0.00156 0.56751 0.0
O178 O 0.9629 0.07136 0.72854 0.0
O179 O 0.01223 0.11004 0.68616 0.0
C180 C 0.96818 0.09703 0.3716 0.0
C181 C -0.00777 0.09217 0.75664 0.0
C182 C 0.62581 0.24221 0.50666 0.0
C183 C 0.62098 0.21817 0.1216 0.0
O184 O 0.60795 0.26221 0.43618 0.0
Zn185 Zn 0.62271 0.22944 0.31576 0.0
O186 O 0.64661 0.21288 0.47855 0.0
Zn187 Zn 0.661 0.18189 0.33189 0.0
O188 O 0.71642 0.18845 0.31753 0.0
O189 O 0.68363 0.24291 0.28978 0.0
O190 O 0.6435 0.19365 0.16807 0.0
O191 O 0.60172 0.24236 0.17763 0.0
O192 O 0.59548 0.17507 0.36078 0.0
O193 O 0.64181 0.13046 0.36563 0.0
C194 C 0.71593 0.22414 0.29056 0.0
C195 C 0.60646 0.14001 0.37961 0.0
C196 C 0.47577 0.8758 0.25664 0.0
C197 C 0.49982 0.87094 0.8716 0.0
O198 O 0.45577 0.85793 0.18616 0.0
Zn199 Zn 0.48855 0.87269 0.06575 0.0
O200 O 0.5051 0.89661 0.22853 0.0
Zn201 Zn 0.53609 0.91099 0.08187 0.0
O202 O 0.52954 0.9664 0.06749 0.0
O203 O 0.47508 0.93361 0.03974 0.0
O204 O 0.52433 0.89348 0.91805 0.0
O205 O 0.47563 0.85169 0.92762 0.0
O206 O 0.54292 0.84547 0.11078 0.0
O207 O 0.58752 0.89179 0.11561 0.0
C208 C 0.49384 0.96591 0.04051 0.0
C209 C 0.57798 0.85644 0.12961 0.0
C210 C 0.84219 0.72576 1.00665 0.0
C211 C 0.84703 0.74981 0.62158 0.0
O212 O 0.86006 0.70576 0.93615 0.0
Zn213 Zn 0.84529 0.73853 0.81575 0.0
O214 O 0.82139 0.75509 0.97855 0.0
Zn215 Zn 0.807 0.78608 0.83189 0.0
O216 O 0.75158 0.77952 0.81754 0.0
O217 O 0.78438 0.72507 0.78978 0.0
O218 O 0.8245 0.77432 0.66807 0.0
O219 O 0.86628 0.72561 0.67761 0.0
O220 O 0.87252 0.7929 0.86078 0.0
O221 O 0.82619 0.83751 0.86564 0.0
C222 C 0.75208 0.74383 0.79056 0.0
C223 C 0.86155 0.82796 0.87962 0.0
C224 C 0.49982 0.59702 0.3716 0.0
C225 C 0.47578 0.59218 0.75667 0.0
O226 O 0.52433 0.57449 0.41807 0.0
Zn227 Zn 0.53609 0.55698 0.5819 0.0
O228 O 0.47563 0.61628 0.42763 0.0
Zn229 Zn 0.48855 0.59528 0.56577 0.0
O230 O 0.54292 0.62251 0.61079 0.0
O231 O 0.58752 0.57618 0.61563 0.0
O232 O 0.45578 0.61005 0.68618 0.0
O233 O 0.50511 0.57137 0.72856 0.0
O234 O 0.52954 0.50157 0.56754 0.0
O235 O 0.47508 0.53436 0.53979 0.0
C236 C 0.57798 0.61153 0.62962 0.0
C237 C 0.49384 0.50206 0.54056 0.0
C238 C 0.60646 0.32796 0.8796 0.0
C239 C 0.71593 0.24383 0.79052 0.0
O240 O 0.59549 0.2929 0.86077 0.0
Zn241 Zn 0.62271 0.23853 0.81575 0.0
O242 O 0.64181 0.33751 0.86561 0.0
Zn243 Zn 0.66101 0.28608 0.83187 0.0
O244 O 0.64349 0.27432 0.66806 0.0
O245 O 0.60171 0.2256 0.67763 0.0
O246 O 0.71642 0.27952 0.81749 0.0
O247 O 0.68363 0.22507 0.78975 0.0
O248 O 0.60796 0.20576 0.93617 0.0
O249 O 0.64662 0.25509 0.97853 0.0
C250 C 0.62096 0.2498 0.62161 0.0
C251 C 0.62582 0.22576 1.00665 0.0
C252 C 0.96818 0.37095 0.87159 0.0
C253 C -0.00777 0.37579 0.25665 0.0
O254 O 0.94367 0.39348 0.91808 0.0
Zn255 Zn 0.93191 0.41099 0.0819 0.0
O256 O -0.00763 0.3517 0.92762 0.0
Zn257 Zn 0.97945 0.37269 0.06576 0.0
O258 O 0.92508 0.34546 0.11079 0.0
O259 O 0.88048 0.39179 0.11565 0.0
O260 O 0.01223 0.35792 0.18616 0.0
O261 O 0.9629 0.3966 0.22855 0.0
O262 O 0.93847 0.4664 0.06754 0.0
O263 O -0.00708 0.43361 0.03978 0.0
C264 C 0.89003 0.35644 0.12963 0.0
C265 C 0.97416 0.46591 0.04056 0.0
C266 C 0.84218 0.74222 0.50663 0.0
C267 C 0.84704 0.71816 0.12159 0.0
O268 O 0.82138 0.71288 0.47853 0.0
Zn269 Zn 0.807 0.68189 0.33188 0.0
O270 O 0.86005 0.76222 0.43615 0.0
Zn271 Zn 0.84529 0.72944 0.31574 0.0
O272 O 0.78437 0.7429 0.28974 0.0
O273 O 0.75158 0.68845 0.3175 0.0
O274 O 0.86628 0.74236 0.1776 0.0
O275 O 0.82451 0.69365 0.16806 0.0
O276 O 0.82619 0.63047 0.36564 0.0
O277 O 0.87251 0.67507 0.36077 0.0
C278 C 0.75207 0.72414 0.29052 0.0
C279 C 0.86155 0.64001 0.37961 0.0
C280 C 0.49982 0.37096 0.17734 0.0
C281 C 0.47577 0.37579 0.79228 0.0
O282 O 0.52433 0.39349 0.13086 0.0
Zn283 Zn 0.53609 0.41099 0.96703 0.0
O284 O 0.47563 0.3517 0.12132 0.0
Zn285 Zn 0.48855 0.37269 0.98318 0.0
O286 O 0.54292 0.34547 0.93814 0.0
O287 O 0.58752 0.3918 0.93328 0.0
O288 O 0.45578 0.35792 0.86278 0.0
O289 O 0.5051 0.3966 0.82038 0.0
O290 O 0.52953 0.4664 0.98139 0.0
O291 O 0.47508 0.43361 1.00916 0.0
C292 C 0.57798 0.35644 0.9193 0.0
C293 C 0.49385 0.46591 1.00837 0.0
C294 C 0.84218 0.22576 0.04231 0.0
C295 C 0.84704 0.24981 0.42735 0.0
O296 O 0.82138 0.25509 0.07042 0.0
Zn297 Zn 0.807 0.28608 0.21707 0.0
O298 O 0.86005 0.20576 0.11279 0.0
Zn299 Zn 0.84529 0.23853 0.23321 0.0
O300 O 0.78438 0.22507 0.2592 0.0
O301 O 0.75158 0.27952 0.23145 0.0
O302 O 0.86629 0.22561 0.37134 0.0
O303 O 0.82451 0.27433 0.38089 0.0
O304 O 0.82619 0.33751 0.18331 0.0
O305 O 0.87252 0.2929 0.18817 0.0
C306 C 0.75208 0.24383 0.25843 0.0
C307 C 0.86154 0.32796 0.16933 0.0
C308 C 0.89002 0.61153 0.41932 0.0
C309 C 0.97416 0.50206 0.50838 0.0
O310 O 0.92508 0.62251 0.43815 0.0
Zn311 Zn 0.97945 0.59528 0.48318 0.0
O312 O 0.88048 0.57618 0.43331 0.0
Zn313 Zn 0.93191 0.55699 0.46704 0.0
O314 O 0.94367 0.57449 0.63087 0.0
O315 O -0.00763 0.61627 0.62131 0.0
O316 O 0.93847 0.50157 0.4814 0.0
O317 O -0.00708 0.53436 0.50915 0.0
O318 O 0.01223 0.61005 0.36277 0.0
O319 O 0.9629 0.57137 0.32038 0.0
C320 C 0.96818 0.59702 0.67735 0.0
C321 C -0.00777 0.59218 0.29228 0.0
C322 C 0.62582 0.74222 0.54232 0.0
C323 C 0.62096 0.71815 0.92736 0.0
O324 O 0.64662 0.71288 0.57042 0.0
Zn325 Zn 0.66101 0.68189 0.71707 0.0
O326 O 0.60795 0.76222 0.6128 0.0
Zn327 Zn 0.62271 0.72944 0.73321 0.0
O328 O 0.68363 0.7429 0.75921 0.0
O329 O 0.71642 0.68845 0.73144 0.0
O330 O 0.60172 0.74236 0.87135 0.0
O331 O 0.6435 0.69364 0.88089 0.0
O332 O 0.64181 0.63046 0.6833 0.0
O333 O 0.59549 0.67507 0.68817 0.0
C334 C 0.71593 0.72414 0.75842 0.0
C335 C 0.60646 0.64001 0.66933 0.0
C336 C 0.46817 0.37094 0.67734 0.0
C337 C 0.49223 0.3758 0.29229 0.0
O338 O 0.49237 0.35169 0.62132 0.0
Zn339 Zn 0.47945 0.37269 0.48319 0.0
O340 O 0.44366 0.39348 0.63088 0.0
Zn341 Zn 0.43191 0.41099 0.46706 0.0
O342 O 0.38048 0.3918 0.43331 0.0
O343 O 0.42508 0.34547 0.43815 0.0
O344 O 0.4629 0.39661 0.3204 0.0
O345 O 0.51223 0.35793 0.36277 0.0
O346 O 0.49292 0.43361 0.50919 0.0
O347 O 0.43846 0.46641 0.48144 0.0
C348 C 0.39002 0.35644 0.41932 0.0
C349 C 0.47416 0.46591 0.50842 0.0
C350 C 0.25208 0.72414 0.25842 0.0
C351 C 0.36155 0.64001 0.16933 0.0
O352 O 0.25159 0.68844 0.23146 0.0
Zn353 Zn 0.307 0.68189 0.21707 0.0
O354 O 0.28438 0.7429 0.25919 0.0
Zn355 Zn 0.34529 0.72944 0.23319 0.0
O356 O 0.36005 0.76221 0.11276 0.0
O357 O 0.32138 0.71288 0.07041 0.0
O358 O 0.37252 0.67507 0.18816 0.0
O359 O 0.3262 0.63046 0.18333 0.0
O360 O 0.32451 0.69365 0.38088 0.0
O361 O 0.36629 0.74237 0.37131 0.0
C362 C 0.34218 0.74221 0.04229 0.0
C363 C 0.34704 0.71817 0.42733 0.0
C364 C 0.07798 0.61153 0.91931 0.0
C365 C -0.00615 0.50206 1.00842 0.0
O366 O 0.08752 0.57617 0.93329 0.0
Zn367 Zn 0.03609 0.55698 0.96705 0.0
O368 O 0.04292 0.6225 0.93815 0.0
Zn369 Zn -0.01145 0.59528 0.98319 0.0
O370 O 0.97563 0.61628 0.12132 0.0
O371 O 0.02434 0.57449 0.13087 0.0
O372 O 0.97508 0.53436 1.00919 0.0
O373 O 0.02954 0.50156 0.98143 0.0
O374 O 0.0051 0.57136 0.8204 0.0
O375 O 0.95578 0.61004 0.86278 0.0
C376 C -0.00017 0.59703 0.17733 0.0
C377 C 0.97577 0.59217 0.79229 0.0
C378 C 0.10646 0.32796 0.66932 0.0
C379 C 0.21593 0.24384 0.75842 0.0
O380 O 0.14181 0.33751 0.6833 0.0
Zn381 Zn 0.16101 0.28608 0.71706 0.0
O382 O 0.09549 0.2929 0.68817 0.0
Zn383 Zn 0.12271 0.23853 0.73321 0.0
O384 O 0.10172 0.22562 0.87135 0.0
O385 O 0.1435 0.27433 0.88088 0.0
O386 O 0.18363 0.22507 0.7592 0.0
O387 O 0.21642 0.27953 0.73143 0.0
O388 O 0.14662 0.25509 0.57041 0.0
O389 O 0.10795 0.20576 0.6128 0.0
C390 C 0.12096 0.24982 0.92735 0.0
C391 C 0.12582 0.22576 0.54231 0.0
C392 C 0.49223 0.59217 0.25665 0.0
C393 C 0.46818 0.59703 0.87161 0.0
O394 O 0.51223 0.61004 0.18617 0.0
Zn395 Zn 0.47946 0.59528 0.06575 0.0
O396 O 0.4629 0.57137 0.22854 0.0
Zn397 Zn 0.43191 0.55698 0.08189 0.0
O398 O 0.43847 0.50157 0.06751 0.0
O399 O 0.49292 0.53436 0.03975 0.0
O400 O 0.44367 0.5745 0.91807 0.0
O401 O 0.49238 0.61628 0.92763 0.0
O402 O 0.42509 0.6225 0.11079 0.0
O403 O 0.38049 0.57618 0.11564 0.0
C404 C 0.47416 0.50206 0.04052 0.0
C405 C 0.39003 0.61153 0.12963 0.0
C406 C 0.12582 0.74221 1.00664 0.0
C407 C 0.12096 0.71816 0.6216 0.0
O408 O 0.10795 0.76221 0.93616 0.0
Zn409 Zn 0.12271 0.72944 0.81574 0.0
O410 O 0.14662 0.71288 0.97852 0.0
Zn411 Zn 0.161 0.68189 0.83186 0.0
O412 O 0.21642 0.68844 0.81748 0.0
O413 O 0.18363 0.7429 0.78974 0.0
O414 O 0.14349 0.69365 0.66805 0.0
O415 O 0.10171 0.74236 0.67762 0.0
O416 O 0.09549 0.67507 0.86077 0.0
O417 O 0.14181 0.63046 0.86562 0.0
C418 C 0.21592 0.72414 0.79051 0.0
C419 C 0.10646 0.64001 0.8796 0.0
C420 C 0.07798 0.35644 0.62961 0.0
C421 C -0.00615 0.46591 0.54051 0.0
O422 O 0.08752 0.3918 0.61562 0.0
Zn423 Zn 0.03609 0.41099 0.58187 0.0
O424 O 0.04292 0.34547 0.61078 0.0
Zn425 Zn -0.01145 0.37269 0.56574 0.0
O426 O 0.97563 0.35169 0.42762 0.0
O427 O 0.02434 0.39348 0.41805 0.0
O428 O 0.97509 0.43361 0.53974 0.0
O429 O 0.02954 0.46641 0.56749 0.0
O430 O 0.0051 0.39661 0.72853 0.0
O431 O 0.95578 0.35793 0.68616 0.0
C432 C -0.00017 0.37094 0.3716 0.0
C433 C 0.97577 0.3758 0.75664 0.0
C434 C 0.34704 0.24982 0.12158 0.0
C435 C 0.34218 0.22576 0.50662 0.0
O436 O 0.36629 0.22562 0.17758 0.0
Zn437 Zn 0.34529 0.23853 0.31572 0.0
O438 O 0.32451 0.27433 0.16805 0.0
Zn439 Zn 0.307 0.28608 0.33187 0.0
O440 O 0.32619 0.33751 0.36563 0.0
O441 O 0.37252 0.29291 0.36076 0.0
O442 O 0.32138 0.25509 0.47851 0.0
O443 O 0.36005 0.20576 0.43613 0.0
O444 O 0.28438 0.22507 0.28973 0.0
O445 O 0.25158 0.27953 0.31749 0.0
C446 C 0.36155 0.32796 0.37961 0.0
C447 C 0.25208 0.24383 0.29051 0.0
loop_
_geom_bond_atom_site_label_1
_geom_bond_atom_site_label_2
_geom_bond_distance
_geom_bond_site_symmetry_2
_ccdc_geom_bond_type
C0 O2 1.247 . S
C0 O4 1.258 1_455 S
C1 O8 1.247 1_455 S
C1 O9 1.258 . S
O2 C0 1.247 . S
O2 Zn3 2.028 1_556 S
Zn3 O2 2.028 1_554 S
Zn3 O7 2.035 . S
Zn3 O9 2.035 . S
Zn3 O10 2.028 . S
O4 C0 1.258 1_655 S
O4 Zn5 2.035 1_556 S
Zn5 O4 2.035 1_554 S
Zn5 O6 2.028 1_655 S
Zn5 O8 2.028 . S
Zn5 O11 2.035 . S
O6 Zn5 2.028 1_455 S
O6 C12 1.247 . S
O7 Zn3 2.035 . S
O7 C12 1.258 . S
O8 C1 1.247 1_655 S
O8 Zn5 2.028 . S
O9 C1 1.258 . S
O9 Zn3 2.035 . S
O10 Zn3 2.028 . S
O10 C13 1.247 1_455 S
O11 Zn5 2.035 . S
O11 C13 1.258 . S
C12 O6 1.247 . S
C12 O7 1.258 . S
C13 O10 1.247 1_655 S
C13 O11 1.258 . S
C14 O16 1.247 . S
C14 O18 1.258 . S
C15 O22 1.247 . S
C15 O23 1.258 . S
O16 C14 1.247 . S
O16 Zn17 2.028 . S
Zn17 O16 2.028 . S
Zn17 O21 2.035 . S
Zn17 O23 2.035 . S
Zn17 O24 2.028 . S
O18 C14 1.258 . S
O18 Zn19 2.035 . S
Zn19 O18 2.035 . S
Zn19 O20 2.028 . S
Zn19 O22 2.028 . S
Zn19 O25 2.035 . S
O20 Zn19 2.028 . S
O20 C26 1.247 . S
O21 Zn17 2.035 . S
O21 C26 1.258 . S
O22 C15 1.247 . S
O22 Zn19 2.028 . S
O23 C15 1.258 . S
O23 Zn17 2.035 . S
O24 Zn17 2.028 . S
O24 C27 1.247 . S
O25 Zn19 2.035 . S
O25 C27 1.258 . S
C26 O20 1.247 . S
C26 O21 1.258 . S
C27 O24 1.247 . S
C27 O25 1.258 . S
C28 O30 1.247 . S
C28 O32 1.258 . S
C29 O36 1.247 . S
C29 O37 1.258 . S
O30 C28 1.247 . S
O30 Zn31 2.028 . S
Zn31 O30 2.028 . S
Zn31 O35 2.035 . S
Zn31 O37 2.035 . S
Zn31 O38 2.028 . S
O32 C28 1.258 . S
O32 Zn33 2.035 . S
Zn33 O32 2.035 . S
Zn33 O34 2.028 . S
Zn33 O36 2.028 . S
Zn33 O39 2.035 . S
O34 Zn33 2.028 . S
O34 C40 1.247 . S
O35 Zn31 2.035 . S
O35 C40 1.258 . S
O36 C29 1.247 . S
O36 Zn33 2.028 . S
O37 C29 1.258 . S
O37 Zn31 2.035 . S
O38 Zn31 2.028 . S
O38 C41 1.247 . S
O39 Zn33 2.035 . S
O39 C41 1.258 . S
C40 O34 1.247 . S
C40 O35 1.258 . S
C41 O38 1.247 . S
C41 O39 1.258 . S
C42 O44 1.247 . S
C42 O46 1.258 . S
C43 O50 1.247 . S
C43 O51 1.258 . S
O44 C42 1.247 . S
O44 Zn45 2.028 . S
Zn45 O44 2.028 . S
Zn45 O49 2.035 . S
Zn45 O51 2.035 . S
Zn45 O52 2.028 . S
O46 C42 1.258 . S
O46 Zn47 2.035 . S
Zn47 O46 2.035 . S
Zn47 O48 2.028 . S
Zn47 O50 2.028 . S
Zn47 O53 2.035 . S
O48 Zn47 2.028 . S
O48 C54 1.247 1_556 S
O49 Zn45 2.035 . S
O49 C54 1.258 1_556 S
O50 C43 1.247 . S
O50 Zn47 2.028 . S
O51 C43 1.258 . S
O51 Zn45 2.035 . S
O52 Zn45 2.028 . S
O52 C55 1.247 . S
O53 Zn47 2.035 . S
O53 C55 1.258 . S
C54 O48 1.247 1_554 S
C54 O49 1.258 1_554 S
C55 O52 1.247 . S
C55 O53 1.258 . S
C56 O58 1.247 . S
C56 O60 1.258 . S
C57 O64 1.247 1_655 S
C57 O65 1.258 . S
O58 C56 1.247 . S
O58 Zn59 2.028 1_455 S
Zn59 O58 2.028 1_655 S
Zn59 O63 2.035 . S
Zn59 O65 2.035 . S
Zn59 O66 2.028 . S
O60 C56 1.258 . S
O60 Zn61 2.035 . S
Zn61 O60 2.035 . S
Zn61 O62 2.028 . S
Zn61 O64 2.028 . S
Zn61 O67 2.035 . S
O62 Zn61 2.028 . S
O62 C68 1.247 . S
O63 Zn59 2.035 . S
O63 C68 1.258 1_655 S
O64 C57 1.247 1_455 S
O64 Zn61 2.028 . S
O65 C57 1.258 . S
O65 Zn59 2.035 . S
O66 Zn59 2.028 . S
O66 C69 1.247 1_655 S
O67 Zn61 2.035 . S
O67 C69 1.258 . S
C68 O62 1.247 . S
C68 O63 1.258 1_455 S
C69 O66 1.247 1_455 S
C69 O67 1.258 . S
C70 O72 1.247 . S
C70 O74 1.258 . S
C71 O78 1.247 . S
C71 O79 1.258 . S
O72 C70 1.247 . S
O72 Zn73 2.028 . S
Zn73 O72 2.028 . S
Zn73 O77 2.035 . S
Zn73 O79 2.035 . S
Zn73 O80 2.028 . S
O74 C70 1.258 . S
O74 Zn75 2.035 . S
Zn75 O74 2.035 . S
Zn75 O76 2.028 . S
Zn75 O78 2.028 . S
Zn75 O81 2.035 . S
O76 Zn75 2.028 . S
O76 C82 1.247 . S
O77 Zn73 2.035 . S
O77 C82 1.258 . S
O78 C71 1.247 . S
O78 Zn75 2.028 . S
O79 C71 1.258 . S
O79 Zn73 2.035 . S
O80 Zn73 2.028 . S
O80 C83 1.247 . S
O81 Zn75 2.035 . S
O81 C83 1.258 . S
C82 O76 1.247 . S
C82 O77 1.258 . S
C83 O80 1.247 . S
C83 O81 1.258 . S
C84 O86 1.247 . S
C84 O88 1.258 . S
C85 O92 1.247 . S
C85 O93 1.258 . S
O86 C84 1.247 . S
O86 Zn87 2.028 1_554 S
Zn87 O86 2.028 1_556 S
Zn87 O91 2.035 . S
Zn87 O93 2.035 . S
Zn87 O94 2.028 . S
O88 C84 1.258 . S
O88 Zn89 2.035 1_554 S
Zn89 O88 2.035 1_556 S
Zn89 O90 2.028 . S
Zn89 O92 2.028 . S
Zn89 O95 2.035 . S
O90 Zn89 2.028 . S
O90 C96 1.247 . S
O91 Zn87 2.035 . S
O91 C96 1.258 . S
O92 C85 1.247 . S
O92 Zn89 2.028 . S
O93 C85 1.258 . S
O93 Zn87 2.035 . S
O94 Zn87 2.028 . S
O94 C97 1.247 . S
O95 Zn89 2.035 . S
O95 C97 1.258 . S
C96 O90 1.247 . S
C96 O91 1.258 . S
C97 O94 1.247 . S
C97 O95 1.258 . S
C98 O100 1.247 1_556 S
C98 O102 1.258 1_556 S
C99 O106 1.247 . S
C99 O107 1.258 . S
O100 C98 1.247 1_554 S
O100 Zn101 2.028 . S
Zn101 O100 2.028 . S
Zn101 O105 2.035 . S
Zn101 O107 2.035 . S
Zn101 O108 2.028 . S
O102 C98 1.258 1_554 S
O102 Zn103 2.035 . S
Zn103 O102 2.035 . S
Zn103 O104 2.028 . S
Zn103 O106 2.028 . S
Zn103 O109 2.035 . S
O104 Zn103 2.028 . S
O104 C110 1.247 . S
O105 Zn101 2.035 . S
O105 C110 1.258 . S
O106 C99 1.247 . S
O106 Zn103 2.028 . S
O107 C99 1.258 . S
O107 Zn101 2.035 . S
O108 Zn101 2.028 . S
O108 C111 1.247 . S
O109 Zn103 2.035 . S
O109 C111 1.258 . S
C110 O104 1.247 . S
C110 O105 1.258 . S
C111 O108 1.247 . S
C111 O109 1.258 . S
C112 O114 1.247 1_655 S
C112 O116 1.258 . S
C113 O120 1.247 . S
C113 O121 1.258 1_655 S
O114 C112 1.247 1_455 S
O114 Zn115 2.028 1_554 S
Zn115 O114 2.028 1_556 S
Zn115 O119 2.035 1_455 S
Zn115 O121 2.035 . S
Zn115 O122 2.028 . S
O116 C112 1.258 . S
O116 Zn117 2.035 1_554 S
Zn117 O116 2.035 1_556 S
Zn117 O118 2.028 . S
Zn117 O120 2.028 . S
Zn117 O123 2.035 . S
O118 Zn117 2.028 . S
O118 C124 1.247 . S
O119 Zn115 2.035 1_655 S
O119 C124 1.258 . S
O120 C113 1.247 . S
O120 Zn117 2.028 . S
O121 C113 1.258 1_455 S
O121 Zn115 2.035 . S
O122 Zn115 2.028 . S
O122 C125 1.247 . S
O123 Zn117 2.035 . S
O123 C125 1.258 1_655 S
C124 O118 1.247 . S
C124 O119 1.258 . S
C125 O122 1.247 . S
C125 O123 1.258 1_455 S
C126 O128 1.247 . S
C126 O130 1.258 . S
C127 O134 1.247 . S
C127 O135 1.258 . S
O128 C126 1.247 . S
O128 Zn129 2.028 . S
Zn129 O128 2.028 . S
Zn129 O133 2.035 . S
Zn129 O135 2.035 . S
Zn129 O136 2.028 . S
O130 C126 1.258 . S
O130 Zn131 2.035 . S
Zn131 O130 2.035 . S
Zn131 O132 2.028 . S
Zn131 O134 2.028 . S
Zn131 O137 2.035 . S
O132 Zn131 2.028 . S
O132 C138 1.247 . S
O133 Zn129 2.035 . S
O133 C138 1.258 . S
O134 C127 1.247 . S
O134 Zn131 2.028 . S
O135 C127 1.258 . S
O135 Zn129 2.035 . S
O136 Zn129 2.028 . S
O136 C139 1.247 . S
O137 Zn131 2.035 . S
O137 C139 1.258 . S
C138 O132 1.247 . S
C138 O133 1.258 . S
C139 O136 1.247 . S
C139 O137 1.258 . S
C140 O142 1.247 . S
C140 O144 1.258 . S
C141 O148 1.247 . S
C141 O149 1.258 . S
O142 C140 1.247 . S
O142 Zn143 2.028 . S
Zn143 O142 2.028 . S
Zn143 O147 2.035 . S
Zn143 O149 2.035 . S
Zn143 O150 2.028 . S
O144 C140 1.258 . S
O144 Zn145 2.035 . S
Zn145 O144 2.035 . S
Zn145 O146 2.028 . S
Zn145 O148 2.028 . S
Zn145 O151 2.035 . S
O146 Zn145 2.028 . S
O146 C152 1.247 . S
O147 Zn143 2.035 . S
O147 C152 1.258 . S
O148 C141 1.247 . S
O148 Zn145 2.028 . S
O149 C141 1.258 . S
O149 Zn143 2.035 . S
O150 Zn143 2.028 . S
O150 C153 1.247 . S
O151 Zn145 2.035 . S
O151 C153 1.258 . S
C152 O146 1.247 . S
C152 O147 1.258 . S
C153 O150 1.247 . S
C153 O151 1.258 . S
C154 O156 1.247 . S
C154 O158 1.258 . S
C155 O162 1.247 . S
C155 O163 1.258 . S
O156 C154 1.247 . S
O156 Zn157 2.028 . S
Zn157 O156 2.028 . S
Zn157 O161 2.035 . S
Zn157 O163 2.035 . S
Zn157 O164 2.028 . S
O158 C154 1.258 . S
O158 Zn159 2.035 . S
Zn159 O158 2.035 . S
Zn159 O160 2.028 . S
Zn159 O162 2.028 . S
Zn159 O165 2.035 . S
O160 Zn159 2.028 . S
O160 C166 1.247 . S
O161 Zn157 2.035 . S
O161 C166 1.258 . S
O162 C155 1.247 . S
O162 Zn159 2.028 . S
O163 C155 1.258 . S
O163 Zn157 2.035 . S
O164 Zn157 2.028 . S
O164 C167 1.247 1_554 S
O165 Zn159 2.035 . S
O165 C167 1.258 1_554 S
C166 O160 1.247 . S
C166 O161 1.258 . S
C167 O164 1.247 1_556 S
C167 O165 1.258 1_556 S
C168 O170 1.247 . S
C168 O172 1.258 . S
C169 O176 1.247 . S
C169 O177 1.258 1_455 S
O170 C168 1.247 . S
O170 Zn171 2.028 . S
Zn171 O170 2.028 . S
Zn171 O175 2.035 . S
Zn171 O177 2.035 . S
Zn171 O178 2.028 . S
O172 C168 1.258 . S
O172 Zn173 2.035 1_655 S
Zn173 O172 2.035 1_455 S
Zn173 O174 2.028 . S
Zn173 O176 2.028 . S
Zn173 O179 2.035 . S
O174 Zn173 2.028 . S
O174 C180 1.247 1_455 S
O175 Zn171 2.035 . S
O175 C180 1.258 . S
O176 C169 1.247 . S
O176 Zn173 2.028 . S
O177 C169 1.258 1_655 S
O177 Zn171 2.035 . S
O178 Zn171 2.028 . S
O178 C181 1.247 . S
O179 Zn173 2.035 . S
O179 C181 1.258 1_455 S
C180 O174 1.247 1_655 S
C180 O175 1.258 . S
C181 O178 1.247 . S
C181 O179 1.258 1_655 S
C182 O184 1.247 . S
C182 O186 1.258 . S
C183 O190 1.247 . S
C183 O191 1.258 . S
O184 C182 1.247 . S
O184 Zn185 2.028 . S
Zn185 O184 2.028 . S
Zn185 O189 2.035 . S
Zn185 O191 2.035 . S
Zn185 O192 2.028 . S
O186 C182 1.258 . S
O186 Zn187 2.035 . S
Zn187 O186 2.035 . S
Zn187 O188 2.028 . S
Zn187 O190 2.028 . S
Zn187 O193 2.035 . S
O188 Zn187 2.028 . S
O188 C194 1.247 . S
O189 Zn185 2.035 . S
O189 C194 1.258 . S
O190 C183 1.247 . S
O190 Zn187 2.028 . S
O191 C183 1.258 . S
O191 Zn185 2.035 . S
O192 Zn185 2.028 . S
O192 C195 1.247 . S
O193 Zn187 2.035 . S
O193 C195 1.258 . S
C194 O188 1.247 . S
C194 O189 1.258 . S
C195 O192 1.247 . S
C195 O193 1.258 . S
C196 O198 1.247 . S
C196 O200 1.258 . S
C197 O204 1.247 . S
C197 O205 1.258 . S
O198 C196 1.247 . S
O198 Zn199 2.028 . S
Zn199 O198 2.028 . S
Zn199 O203 2.035 . S
Zn199 O205 2.035 1_554 S
Zn199 O206 2.028 . S
O200 C196 1.258 . S
O200 Zn201 2.035 . S
Zn201 O200 2.035 . S
Zn201 O202 2.028 . S
Zn201 O204 2.028 1_554 S
Zn201 O207 2.035 . S
O202 Zn201 2.028 . S
O202 C208 1.247 . S
O203 Zn199 2.035 . S
O203 C208 1.258 . S
O204 C197 1.247 . S
O204 Zn201 2.028 1_556 S
O205 C197 1.258 . S
O205 Zn199 2.035 1_556 S
O206 Zn199 2.028 . S
O206 C209 1.247 . S
O207 Zn201 2.035 . S
O207 C209 1.258 . S
C208 O202 1.247 . S
C208 O203 1.258 . S
C209 O206 1.247 . S
C209 O207 1.258 . S
C210 O212 1.247 1_554 S
C210 O214 1.258 1_554 S
C211 O218 1.247 . S
C211 O219 1.258 . S
O212 C210 1.247 1_556 S
O212 Zn213 2.028 . S
Zn213 O212 2.028 . S
Zn213 O217 2.035 . S
Zn213 O219 2.035 . S
Zn213 O220 2.028 . S
O214 C210 1.258 1_556 S
O214 Zn215 2.035 . S
Zn215 O214 2.035 . S
Zn215 O216 2.028 . S
Zn215 O218 2.028 . S
Zn215 O221 2.035 . S
O216 Zn215 2.028 . S
O216 C222 1.247 . S
O217 Zn213 2.035 . S
O217 C222 1.258 . S
O218 C211 1.247 . S
O218 Zn215 2.028 . S
O219 C211 1.258 . S
O219 Zn213 2.035 . S
O220 Zn213 2.028 . S
O220 C223 1.247 . S
O221 Zn215 2.035 . S
O221 C223 1.258 . S
C222 O216 1.247 . S
C222 O217 1.258 . S
C223 O220 1.247 . S
C223 O221 1.258 . S
C224 O226 1.247 . S
C224 O228 1.258 . S
C225 O232 1.247 . S
C225 O233 1.258 . S
O226 C224 1.247 . S
O226 Zn227 2.028 . S
Zn227 O226 2.028 . S
Zn227 O231 2.035 . S
Zn227 O233 2.035 . S
Zn227 O234 2.028 . S
O228 C224 1.258 . S
O228 Zn229 2.035 . S
Zn229 O228 2.035 . S
Zn229 O230 2.028 . S
Zn229 O232 2.028 . S
Zn229 O235 2.035 . S
O230 Zn229 2.028 . S
O230 C236 1.247 . S
O231 Zn227 2.035 . S
O231 C236 1.258 . S
O232 C225 1.247 . S
O232 Zn229 2.028 . S
O233 C225 1.258 . S
O233 Zn227 2.035 . S
O234 Zn227 2.028 . S
O234 C237 1.247 . S
O235 Zn229 2.035 . S
O235 C237 1.258 . S
C236 O230 1.247 . S
C236 O231 1.258 . S
C237 O234 1.247 . S
C237 O235 1.258 . S
C238 O240 1.247 . S
C238 O242 1.258 . S
C239 O246 1.247 . S
C239 O247 1.258 . S
O240 C238 1.247 . S
O240 Zn241 2.028 . S
Zn241 O240 2.028 . S
Zn241 O245 2.035 . S
Zn241 O247 2.035 . S
Zn241 O248 2.028 . S
O242 C238 1.258 . S
O242 Zn243 2.035 . S
Zn243 O242 2.035 . S
Zn243 O244 2.028 . S
Zn243 O246 2.028 . S
Zn243 O249 2.035 . S
O244 Zn243 2.028 . S
O244 C250 1.247 . S
O245 Zn241 2.035 . S
O245 C250 1.258 . S
O246 C239 1.247 . S
O246 Zn243 2.028 . S
O247 C239 1.258 . S
O247 Zn241 2.035 . S
O248 Zn241 2.028 . S
O248 C251 1.247 1_556 S
O249 Zn243 2.035 . S
O249 C251 1.258 1_556 S
C250 O244 1.247 . S
C250 O245 1.258 . S
C251 O248 1.247 1_554 S
C251 O249 1.258 1_554 S
C252 O254 1.247 . S
C252 O256 1.258 1_655 S
C253 O260 1.247 1_655 S
C253 O261 1.258 . S
O254 C252 1.247 . S
O254 Zn255 2.028 1_556 S
Zn255 O254 2.028 1_554 S
Zn255 O259 2.035 . S
Zn255 O261 2.035 . S
Zn255 O262 2.028 . S
O256 C252 1.258 1_455 S
O256 Zn257 2.035 1_556 S
Zn257 O256 2.035 1_554 S
Zn257 O258 2.028 1_455 S
Zn257 O260 2.028 . S
Zn257 O263 2.035 . S
O258 Zn257 2.028 1_655 S
O258 C264 1.247 . S
O259 Zn255 2.035 . S
O259 C264 1.258 . S
O260 C253 1.247 1_455 S
O260 Zn257 2.028 . S
O261 C253 1.258 . S
O261 Zn255 2.035 . S
O262 Zn255 2.028 . S
O262 C265 1.247 1_655 S
O263 Zn257 2.035 . S
O263 C265 1.258 . S
C264 O258 1.247 . S
C264 O259 1.258 . S
C265 O262 1.247 1_455 S
C265 O263 1.258 . S
C266 O268 1.247 . S
C266 O270 1.258 . S
C267 O274 1.247 . S
C267 O275 1.258 . S
O268 C266 1.247 . S
O268 Zn269 2.028 . S
Zn269 O268 2.028 . S
Zn269 O273 2.035 . S
Zn269 O275 2.035 . S
Zn269 O276 2.028 . S
O270 C266 1.258 . S
O270 Zn271 2.035 . S
Zn271 O270 2.035 . S
Zn271 O272 2.028 . S
Zn271 O274 2.028 . S
Zn271 O277 2.035 . S
O272 Zn271 2.028 . S
O272 C278 1.247 . S
O273 Zn269 2.035 . S
O273 C278 1.258 . S
O274 C267 1.247 . S
O274 Zn271 2.028 . S
O275 C267 1.258 . S
O275 Zn269 2.035 . S
O276 Zn269 2.028 . S
O276 C279 1.247 . S
O277 Zn271 2.035 . S
O277 C279 1.258 . S
C278 O272 1.247 . S
C278 O273 1.258 . S
C279 O276 1.247 . S
C279 O277 1.258 . S
C280 O282 1.247 . S
C280 O284 1.258 . S
C281 O288 1.247 . S
C281 O289 1.258 . S
O282 C280 1.247 . S
O282 Zn283 2.028 1_554 S
Zn283 O282 2.028 1_556 S
Zn283 O287 2.035 . S
Zn283 O289 2.035 . S
Zn283 O290 2.028 . S
O284 C280 1.258 . S
O284 Zn285 2.035 1_554 S
Zn285 O284 2.035 1_556 S
Zn285 O286 2.028 . S
Zn285 O288 2.028 . S
Zn285 O291 2.035 . S
O286 Zn285 2.028 . S
O286 C292 1.247 . S
O287 Zn283 2.035 . S
O287 C292 1.258 . S
O288 C281 1.247 . S
O288 Zn285 2.028 . S
O289 C281 1.258 . S
O289 Zn283 2.035 . S
O290 Zn283 2.028 . S
O290 C293 1.247 . S
O291 Zn285 2.035 . S
O291 C293 1.258 . S
C292 O286 1.247 . S
C292 O287 1.258 . S
C293 O290 1.247 . S
C293 O291 1.258 . S
C294 O296 1.247 1_556 S
C294 O298 1.258 1_556 S
C295 O302 1.247 . S
C295 O303 1.258 . S
O296 C294 1.247 1_554 S
O296 Zn297 2.028 . S
Zn297 O296 2.028 . S
Zn297 O301 2.035 . S
Zn297 O303 2.035 . S
Zn297 O304 2.028 . S
O298 C294 1.258 1_554 S
O298 Zn299 2.035 . S
Zn299 O298 2.035 . S
Zn299 O300 2.028 . S
Zn299 O302 2.028 . S
Zn299 O305 2.035 . S
O300 Zn299 2.028 . S
O300 C306 1.247 . S
O301 Zn297 2.035 . S
O301 C306 1.258 . S
O302 C295 1.247 . S
O302 Zn299 2.028 . S
O303 C295 1.258 . S
O303 Zn297 2.035 . S
O304 Zn297 2.028 . S
O304 C307 1.247 . S
O305 Zn299 2.035 . S
O305 C307 1.258 . S
C306 O300 1.247 . S
C306 O301 1.258 . S
C307 O304 1.247 . S
C307 O305 1.258 . S
C308 O310 1.247 . S
C308 O312 1.258 . S
C309 O316 1.247 1_455 S
C309 O317 1.258 . S
O310 C308 1.247 . S
O310 Zn311 2.028 1_655 S
Zn311 O310 2.028 1_455 S
Zn311 O315 2.035 . S
Zn311 O317 2.035 . S
Zn311 O318 2.028 . S
O312 C308 1.258 . S
O312 Zn313 2.035 . S
Zn313 O312 2.035 . S
Zn313 O314 2.028 . S
Zn313 O316 2.028 . S
Zn313 O319 2.035 . S
O314 Zn313 2.028 . S
O314 C320 1.247 . S
O315 Zn311 2.035 . S
O315 C320 1.258 1_455 S
O316 C309 1.247 1_655 S
O316 Zn313 2.028 . S
O317 C309 1.258 . S
O317 Zn311 2.035 . S
O318 Zn311 2.028 . S
O318 C321 1.247 1_455 S
O319 Zn313 2.035 . S
O319 C321 1.258 . S
C320 O314 1.247 . S
C320 O315 1.258 1_655 S
C321 O318 1.247 1_655 S
C321 O319 1.258 . S
C322 O324 1.247 . S
C322 O326 1.258 . S
C323 O330 1.247 . S
C323 O331 1.258 . S
O324 C322 1.247 . S
O324 Zn325 2.028 . S
Zn325 O324 2.028 . S
Zn325 O329 2.035 . S
Zn325 O331 2.035 . S
Zn325 O332 2.028 . S
O326 C322 1.258 . S
O326 Zn327 2.035 . S
Zn327 O326 2.035 . S
Zn327 O328 2.028 . S
Zn327 O330 2.028 . S
Zn327 O333 2.035 . S
O328 Zn327 2.028 . S
O328 C334 1.247 . S
O329 Zn325 2.035 . S
O329 C334 1.258 . S
O330 C323 1.247 . S
O330 Zn327 2.028 . S
O331 C323 1.258 . S
O331 Zn325 2.035 . S
O332 Zn325 2.028 . S
O332 C335 1.247 . S
O333 Zn327 2.035 . S
O333 C335 1.258 . S
C334 O328 1.247 . S
C334 O329 1.258 . S
C335 O332 1.247 . S
C335 O333 1.258 . S
C336 O338 1.247 . S
C336 O340 1.258 . S
C337 O344 1.247 . S
C337 O345 1.258 . S
O338 C336 1.247 . S
O338 Zn339 2.028 . S
Zn339 O338 2.028 . S
Zn339 O343 2.035 . S
Zn339 O345 2.035 . S
Zn339 O346 2.028 . S
O340 C336 1.258 . S
O340 Zn341 2.035 . S
Zn341 O340 2.035 . S
Zn341 O342 2.028 . S
Zn341 O344 2.028 . S
Zn341 O347 2.035 . S
O342 Zn341 2.028 . S
O342 C348 1.247 . S
O343 Zn339 2.035 . S
O343 C348 1.258 . S
O344 C337 1.247 . S
O344 Zn341 2.028 . S
O345 C337 1.258 . S
O345 Zn339 2.035 . S
O346 Zn339 2.028 . S
O346 C349 1.247 . S
O347 Zn341 2.035 . S
O347 C349 1.258 . S
C348 O342 1.247 . S
C348 O343 1.258 . S
C349 O346 1.247 . S
C349 O347 1.258 . S
C350 O352 1.247 . S
C350 O354 1.258 . S
C351 O358 1.247 . S
C351 O359 1.258 . S
O352 C350 1.247 . S
O352 Zn353 2.028 . S
Zn353 O352 2.028 . S
Zn353 O357 2.035 . S
Zn353 O359 2.035 . S
Zn353 O360 2.028 . S
O354 C350 1.258 . S
O354 Zn355 2.035 . S
Zn355 O354 2.035 . S
Zn355 O356 2.028 . S
Zn355 O358 2.028 . S
Zn355 O361 2.035 . S
O356 Zn355 2.028 . S
O356 C362 1.247 1_554 S
O357 Zn353 2.035 . S
O357 C362 1.258 1_554 S
O358 C351 1.247 . S
O358 Zn355 2.028 . S
O359 C351 1.258 . S
O359 Zn353 2.035 . S
O360 Zn353 2.028 . S
O360 C363 1.247 . S
O361 Zn355 2.035 . S
O361 C363 1.258 . S
C362 O356 1.247 1_556 S
C362 O357 1.258 1_556 S
C363 O360 1.247 . S
C363 O361 1.258 . S
C364 O366 1.247 . S
C364 O368 1.258 . S
C365 O372 1.247 . S
C365 O373 1.258 1_655 S
O366 C364 1.247 . S
O366 Zn367 2.028 . S
Zn367 O366 2.028 . S
Zn367 O371 2.035 1_556 S
Zn367 O373 2.035 . S
Zn367 O374 2.028 . S
O368 C364 1.258 . S
O368 Zn369 2.035 1_455 S
Zn369 O368 2.035 1_655 S
Zn369 O370 2.028 1_556 S
Zn369 O372 2.028 . S
Zn369 O375 2.035 . S
O370 Zn369 2.028 1_554 S
O370 C376 1.247 1_655 S
O371 Zn367 2.035 1_554 S
O371 C376 1.258 . S
O372 C365 1.247 . S
O372 Zn369 2.028 . S
O373 C365 1.258 1_455 S
O373 Zn367 2.035 . S
O374 Zn367 2.028 . S
O374 C377 1.247 . S
O375 Zn369 2.035 . S
O375 C377 1.258 1_655 S
C376 O370 1.247 1_455 S
C376 O371 1.258 . S
C377 O374 1.247 . S
C377 O375 1.258 1_455 S
C378 O380 1.247 . S
C378 O382 1.258 . S
C379 O386 1.247 . S
C379 O387 1.258 . S
O380 C378 1.247 . S
O380 Zn381 2.028 . S
Zn381 O380 2.028 . S
Zn381 O385 2.035 . S
Zn381 O387 2.035 . S
Zn381 O388 2.028 . S
O382 C378 1.258 . S
O382 Zn383 2.035 . S
Zn383 O382 2.035 . S
Zn383 O384 2.028 . S
Zn383 O386 2.028 . S
Zn383 O389 2.035 . S
O384 Zn383 2.028 . S
O384 C390 1.247 . S
O385 Zn381 2.035 . S
O385 C390 1.258 . S
O386 C379 1.247 . S
O386 Zn383 2.028 . S
O387 C379 1.258 . S
O387 Zn381 2.035 . S
O388 Zn381 2.028 . S
O388 C391 1.247 . S
O389 Zn383 2.035 . S
O389 C391 1.258 . S
C390 O384 1.247 . S
C390 O385 1.258 . S
C391 O388 1.247 . S
C391 O389 1.258 . S
C392 O394 1.247 . S
C392 O396 1.258 . S
C393 O400 1.247 . S
C393 O401 1.258 . S
O394 C392 1.247 . S
O394 Zn395 2.028 . S
Zn395 O394 2.028 . S
Zn395 O399 2.035 . S
Zn395 O401 2.035 1_554 S
Zn395 O402 2.028 . S
O396 C392 1.258 . S
O396 Zn397 2.035 . S
Zn397 O396 2.035 . S
Zn397 O398 2.028 . S
Zn397 O400 2.028 1_554 S
Zn397 O403 2.035 . S
O398 Zn397 2.028 . S
O398 C404 1.247 . S
O399 Zn395 2.035 . S
O399 C404 1.258 . S
O400 C393 1.247 . S
O400 Zn397 2.028 1_556 S
O401 C393 1.258 . S
O401 Zn395 2.035 1_556 S
O402 Zn395 2.028 . S
O402 C405 1.247 . S
O403 Zn397 2.035 . S
O403 C405 1.258 . S
C404 O398 1.247 . S
C404 O399 1.258 . S
C405 O402 1.247 . S
C405 O403 1.258 . S
C406 O408 1.247 1_554 S
C406 O410 1.258 1_554 S
C407 O414 1.247 . S
C407 O415 1.258 . S
O408 C406 1.247 1_556 S
O408 Zn409 2.028 . S
Zn409 O408 2.028 . S
Zn409 O413 2.035 . S
Zn409 O415 2.035 . S
Zn409 O416 2.028 . S
O410 C406 1.258 1_556 S
O410 Zn411 2.035 . S
Zn411 O410 2.035 . S
Zn411 O412 2.028 . S
Zn411 O414 2.028 . S
Zn411 O417 2.035 . S
O412 Zn411 2.028 . S
O412 C418 1.247 . S
O413 Zn409 2.035 . S
O413 C418 1.258 . S
O414 C407 1.247 . S
O414 Zn411 2.028 . S
O415 C407 1.258 . S
O415 Zn409 2.035 . S
O416 Zn409 2.028 . S
O416 C419 1.247 . S
O417 Zn411 2.035 . S
O417 C419 1.258 . S
C418 O412 1.247 . S
C418 O413 1.258 . S
C419 O416 1.247 . S
C419 O417 1.258 . S
C420 O422 1.247 . S
C420 O424 1.258 . S
C421 O428 1.247 . S
C421 O429 1.258 1_655 S
O422 C420 1.247 . S
O422 Zn423 2.028 . S
Zn423 O422 2.028 . S
Zn423 O427 2.035 . S
Zn423 O429 2.035 . S
Zn423 O430 2.028 . S
O424 C420 1.258 . S
O424 Zn425 2.035 1_455 S
Zn425 O424 2.035 1_655 S
Zn425 O426 2.028 . S
Zn425 O428 2.028 . S
Zn425 O431 2.035 . S
O426 Zn425 2.028 . S
O426 C432 1.247 1_655 S
O427 Zn423 2.035 . S
O427 C432 1.258 . S
O428 C421 1.247 . S
O428 Zn425 2.028 . S
O429 C421 1.258 1_455 S
O429 Zn423 2.035 . S
O430 Zn423 2.028 . S
O430 C433 1.247 . S
O431 Zn425 2.035 . S
O431 C433 1.258 1_655 S
C432 O426 1.247 1_455 S
C432 O427 1.258 . S
C433 O430 1.247 . S
C433 O431 1.258 1_455 S
C434 O436 1.247 . S
C434 O438 1.258 . S
C435 O442 1.247 . S
C435 O443 1.258 . S
O436 C434 1.247 . S
O436 Zn437 2.028 . S
Zn437 O436 2.028 . S
Zn437 O441 2.035 . S
Zn437 O443 2.035 . S
Zn437 O444 2.028 . S
O438 C434 1.258 . S
O438 Zn439 2.035 . S
Zn439 O438 2.035 . S
Zn439 O440 2.028 . S
Zn439 O442 2.028 . S
Zn439 O445 2.035 . S
O440 Zn439 2.028 . S
O440 C446 1.247 . S
O441 Zn437 2.035 . S
O441 C446 1.258 . S
O442 C435 1.247 . S
O442 Zn439 2.028 . S
O443 C435 1.258 . S
O443 Zn437 2.035 . S
O444 Zn437 2.028 . S
O444 C447 1.247 . S
O445 Zn439 2.035 . S
O445 C447 1.258 . S
C446 O440 1.247 . S
C446 O441 1.258 . S
C447 O444 1.247 . S
C447 O445 1.258 . S
C181 C0 1.596 1_655 S
C406 C27 1.588 . S
C196 C29 1.588 . S
C435 C55 1.593 . S
C113 C68 1.596 1_655 S
C70 C362 1.591 . S
C84 C140 1.591 . S
C391 C99 1.593 . S
C69 C112 1.588 1_455 S
C294 C126 1.593 . S
C85 C141 1.591 . S
C322 C166 1.593 . S
C180 C1 1.588 1_655 S
C183 C251 1.591 . S
C28 C197 1.596 . S
C211 C266 1.596 . S
C392 C224 1.591 . S
C182 C250 1.591 . S
C433 C252 1.596 1_455 S
C267 C210 1.588 . S
C280 C337 1.596 . S
C295 C127 1.593 . S
C377 C320 1.596 1_455 S
C167 C323 1.593 . S
C281 C336 1.588 . S
C363 C71 1.591 . S
C376 C321 1.588 1_455 S
C390 C98 1.593 . S
C225 C393 1.591 . S
C26 C407 1.596 . S
C253 C432 1.588 1_655 S
C434 C54 1.593 . S
C13 C125 2.605 1_644 S
C14 C350 2.604 . S
C152 C40 2.605 1_545 S
C42 C379 2.613 . S
C57 C169 2.605 1_665 S
C418 C83 2.596 . S
C208 C97 2.597 1_564 S
C110 C447 2.613 . S
C139 C239 2.604 . S
C155 C278 2.613 . S
C194 C306 2.604 . S
C334 C222 2.604 . S
C237 C349 2.605 . S
C265 C365 2.605 1_454 S
C293 C404 2.597 1_556 S
C421 C309 2.605 1_655 S
C12 C111 2.012 . S
C15 C56 2.012 . S
C82 C41 2.012 . S
C96 C43 2.012 . S
C223 C124 2.012 . S
C168 C138 2.009 . S
C195 C153 2.015 . S
C209 C154 2.012 . S
C236 C335 2.012 . S
C292 C238 2.015 . S
C307 C264 2.012 . S
C308 C279 2.012 . S
C446 C348 2.009 . S
C351 C405 2.015 . S
C364 C419 2.012 . S
C420 C378 2.009 . S
