# Generated by pormake.
# Topology tfs, (6)-cn, num edge types: 1
# Building blocks:
#     Node 0, Type 0, BuildingBlock: BETFAJ_clean_sbu_0, # of connection points: 6
#     Node 1, Type 0, BuildingBlock: BETFAJ_clean_sbu_0, # of connection points: 6
#     Node 2, Type 0, BuildingBlock: BETFAJ_clean_sbu_0, # of connection points: 6
#     Node 3, Type 0, BuildingBlock: BETFAJ_clean_sbu_0, # of connection points: 6
#     Node 4, Type 0, BuildingBlock: BETFAJ_clean_sbu_0, # of connection points: 6
#     Node 5, Type 0, BuildingBlock: BETFAJ_clean_sbu_0, # of connection points: 6
#     Edge 6, Type (0, 0), BuildingBlock: ZUJKAS_clean_linker_0, # of connection points: 2
#     Edge 7, Type (0, 0), BuildingBlock: ZUJKAS_clean_linker_0, # of connection points: 2
#     Edge 8, Type (0, 0), BuildingBlock: ZUJKAS_clean_linker_0, # of connection points: 2
#     Edge 9, Type (0, 0), BuildingBlock: ZUJKAS_clean_linker_0, # of connection points: 2
#     Edge 10, Type (0, 0), BuildingBlock: ZUJKAS_clean_linker_0, # of connection points: 2
#     Edge 11, Type (0, 0), BuildingBlock: ZUJKAS_clean_linker_0, # of connection points: 2
#     Edge 12, Type (0, 0), BuildingBlock: ZUJKAS_clean_linker_0, # of connection points: 2
#     Edge 13, Type (0, 0), BuildingBlock: ZUJKAS_clean_linker_0, # of connection points: 2
#     Edge 14, Type (0, 0), BuildingBlock: ZUJKAS_clean_linker_0, # of connection points: 2
#     Edge 15, Type (0, 0), BuildingBlock: ZUJKAS_clean_linker_0, # of connection points: 2
#     Edge 16, Type (0, 0), BuildingBlock: ZUJKAS_clean_linker_0, # of connection points: 2
#     Edge 17, Type (0, 0), BuildingBlock: ZUJKAS_clean_linker_0, # of connection points: 2
#     Edge 18, Type (0, 0), BuildingBlock: ZUJKAS_clean_linker_0, # of connection points: 2
#     Edge 19, Type (0, 0), BuildingBlock: ZUJKAS_clean_linker_0, # of connection points: 2
#     Edge 20, Type (0, 0), BuildingBlock: ZUJKAS_clean_linker_0, # of connection points: 2
#     Edge 21, Type (0, 0), BuildingBlock: ZUJKAS_clean_linker_0, # of connection points: 2
#     Edge 22, Type (0, 0), BuildingBlock: ZUJKAS_clean_linker_0, # of connection points: 2
#     Edge 23, Type (0, 0), BuildingBlock: ZUJKAS_clean_linker_0, # of connection points: 2
# Relax obj value: 0.538
# Max RMSD: 0.426
# Mean RMSD: 0.342
data_MOF--net-tfs--node1-BETFAJ_clean_sbu_0--edge1-ZUJKAS_clean_linker_0
_symmetry_space_group_name_H-M    P1
_symmetry_Int_Tables_number       1
_symmetry_cell_setting            triclinic
loop_
_symmetry_equiv_pos_as_xyz
'x, y, z'
_cell_length_a     64.914174
_cell_length_b     61.779319
_cell_length_c     17.002667
_cell_angle_alpha  97.472814
_cell_angle_beta   91.905672
_cell_angle_gamma 125.7769
loop_
_atom_site_label
_atom_site_type_symbol
_atom_site_fract_x
_atom_site_fract_y
_atom_site_fract_z
_atom_type_partial_charge
Sm0 Sm 0.33724 0.45527 0.65204 0.0
Sm1 Sm 0.32255 0.49419 0.71653 0.0
C2 C 0.35517 0.42575 0.62842 0.0
C3 C 0.3525 0.40053 0.59219 0.0
C4 C 0.35695 0.38671 0.64176 0.0
C5 C 0.35863 0.36569 0.6092 0.0
C6 C 0.35601 0.35773 0.52561 0.0
C7 C 0.35056 0.37095 0.47605 0.0
C8 C 0.3489 0.39201 0.50872 0.0
C9 C 0.31846 0.46984 0.5425 0.0
C10 C 0.27566 0.42793 0.64307 0.0
C11 C 0.30365 0.52237 0.74009 0.0
C12 C 0.30788 0.54864 0.76764 0.0
C13 C 0.32034 0.56985 0.7239 0.0
C14 C 0.32028 0.59257 0.74319 0.0
C15 C 0.30743 0.59449 0.80592 0.0
C16 C 0.29585 0.57366 0.85135 0.0
C17 C 0.29617 0.55113 0.83258 0.0
C18 C 0.3396 0.47829 0.82976 0.0
C19 C 0.38301 0.52364 0.70691 0.0
O20 O 0.34332 0.42561 0.6897 0.0
O21 O 0.35792 0.44242 0.58205 0.0
O22 O 0.33421 0.48551 0.60346 0.0
O23 O 0.31481 0.44654 0.53128 0.0
O24 O 0.29293 0.42291 0.63689 0.0
O25 O 0.28247 0.45279 0.66944 0.0
O26 O 0.31183 0.51911 0.67329 0.0
O27 O 0.3048 0.50947 0.79349 0.0
O28 O 0.32435 0.46294 0.7669 0.0
O29 O 0.3454 0.50251 0.83524 0.0
O30 O 0.36504 0.52749 0.71143 0.0
O31 O 0.37724 0.49873 0.69178 0.0
H32 H 0.35999 0.39279 0.70624 0.0
H33 H 0.36232 0.35591 0.65002 0.0
H34 H 0.34861 0.36587 0.41158 0.0
H35 H 0.34563 0.4022 0.46834 0.0
H36 H 0.32948 0.56858 0.67319 0.0
H37 H 0.32998 0.60839 0.70782 0.0
H38 H 0.28544 0.57397 0.89934 0.0
H39 H 0.28616 0.53499 0.86682 0.0
Sm40 Sm 0.86902 0.15828 0.16412 0.0
Sm41 Sm 0.80859 0.13313 0.1165 0.0
C42 C 0.91897 0.1874 0.21979 0.0
C43 C 0.94723 0.20388 0.25123 0.0
C44 C 0.95552 0.2057 0.33096 0.0
C45 C 0.98184 0.22106 0.36072 0.0
C46 C 1.00132 0.23592 0.31269 0.0
C47 C 0.99274 0.23384 0.23231 0.0
C48 C 0.96635 0.21805 0.20226 0.0
C49 C 0.8439 0.11845 0.0268 0.0
C50 C 0.82316 0.09885 0.20646 0.0
C51 C 0.76211 0.11648 0.04971 0.0
C52 C 0.74202 0.12174 0.0478 0.0
C53 C 0.73554 0.12809 0.97888 0.0
C54 C 0.71486 0.12997 0.97231 0.0
C55 C 0.69944 0.1255 0.03453 0.0
C56 C 0.70665 0.11974 0.10436 0.0
C57 C 0.72727 0.11781 0.11058 0.0
C58 C 0.83039 0.16047 0.27243 0.0
C59 C 0.85327 0.19173 0.07007 0.0
O60 O 0.90087 0.17707 0.26615 0.0
O61 O 0.91035 0.18211 0.1437 0.0
O62 O 0.84004 0.13592 0.05055 0.0
O63 O 0.86207 0.12246 0.07604 0.0
O64 O 0.84678 0.1216 0.22908 0.0
O65 O 0.8068 0.09675 0.15063 0.0
O66 O 0.78336 0.13234 0.02016 0.0
O67 O 0.76585 0.10787 0.11115 0.0
O68 O 0.84149 0.16567 0.2111 0.0
O69 O 0.80594 0.14435 0.24861 0.0
O70 O 0.82874 0.17192 0.06643 0.0
O71 O 0.8718 0.19212 0.10759 0.0
H72 H 0.94156 0.19502 0.3708 0.0
H73 H 0.98655 0.22082 0.42192 0.0
H74 H 1.00625 0.24476 0.19184 0.0
H75 H 0.96093 0.21726 0.14043 0.0
H76 H 0.74619 0.13106 0.92861 0.0
H77 H 0.71113 0.13461 0.91698 0.0
H78 H 0.69647 0.11632 0.15548 0.0
H79 H 0.73134 0.11272 0.16472 0.0
Sm80 Sm 0.69306 0.82263 0.70209 0.0
Sm81 Sm 0.67472 0.85102 0.7948 0.0
C82 C 0.71335 0.80392 0.61055 0.0
C83 C 0.73901 0.81064 0.60664 0.0
C84 C 0.75008 0.81773 0.5364 0.0
C85 C 0.77331 0.82181 0.52805 0.0
C86 C 0.78595 0.8189 0.58999 0.0
C87 C 0.77568 0.81362 0.66252 0.0
C88 C 0.75236 0.80948 0.67081 0.0
C89 C 0.71253 0.8424 0.8639 0.0
C90 C 0.71993 0.88721 0.68836 0.0
C91 C 0.66612 0.87288 0.92069 0.0
C92 C 0.64785 0.87872 0.93653 0.0
C93 C 0.63336 0.86895 -0.00076 0.0
C94 C 0.61418 0.87219 0.01059 0.0
C95 C 0.60954 0.88541 0.9595 0.0
C96 C 0.62466 0.89598 0.89841 0.0
C97 C 0.64356 0.89242 0.88642 0.0
C98 C 0.65698 0.83878 0.63598 0.0
C99 C 0.63719 0.78339 0.75954 0.0
O100 O 0.7103 0.82186 0.59236 0.0
O101 O 0.70183 0.79315 0.67114 0.0
O102 O 0.71034 0.85427 0.81417 0.0
O103 O 0.70373 0.8181 0.82909 0.0
O104 O 0.71731 0.86454 0.66065 0.0
O105 O 0.70728 0.88813 0.74644 0.0
O106 O 0.65658 0.84717 0.9054 0.0
O107 O 0.68269 0.88704 0.87363 0.0
O108 O 0.6599 0.82411 0.67339 0.0
O109 O 0.65665 0.85617 0.68735 0.0
O110 O 0.64477 0.80566 0.81088 0.0
O111 O 0.65098 0.78523 0.70155 0.0
H112 H 0.74026 0.81911 0.48669 0.0
H113 H 0.78046 0.82555 0.47101 0.0
H114 H 0.78518 0.81168 0.71176 0.0
H115 H 0.7445 0.80462 0.72647 0.0
H116 H 0.63631 0.85806 0.03766 0.0
H117 H 0.60244 0.86355 0.05737 0.0
H118 H 0.62159 0.90657 0.85904 0.0
H119 H 0.65439 0.89992 0.83703 0.0
Sm120 Sm 0.86207 0.57291 0.03277 0.0
Sm121 Sm 0.88002 0.53668 0.02643 0.0
C122 C 0.848 0.60512 0.06142 0.0
C123 C 0.8544 0.62972 0.11226 0.0
C124 C 0.86552 0.63761 0.19246 0.0
C125 C 0.87069 0.66111 0.23877 0.0
C126 C 0.86484 0.67689 0.20515 0.0
C127 C 0.85411 0.66893 0.12437 0.0
C128 C 0.84906 0.64563 0.07842 0.0
C129 C 0.8779 0.56567 0.8921 0.0
C130 C 0.91852 0.59879 0.12334 0.0
C131 C 0.89967 0.50966 0.0022 0.0
C132 C 0.8907 0.48122 -0.00766 0.0
C133 C 0.87934 0.46363 0.91752 0.0
C134 C 0.873 0.43749 0.90802 0.0
C135 C 0.87808 0.42869 0.97305 0.0
C136 C 0.88821 0.44577 0.04846 0.0
C137 C 0.89461 0.47181 0.0579 0.0
C138 C 0.84535 0.52643 0.13109 0.0
C139 C 0.82346 0.51138 0.94622 0.0
O140 O 0.83858 0.58346 0.09352 0.0
O141 O 0.86406 0.60853 0.01125 0.0
O142 O 0.88916 0.56965 0.95985 0.0
O143 O 0.85821 0.56597 0.89667 0.0
O144 O 0.90069 0.60214 0.10804 0.0
O145 O 0.91564 0.57596 0.09879 0.0
O146 O 0.89206 0.51644 0.94395 0.0
O147 O 0.9001 0.52101 0.0736 0.0
O148 O 0.86376 0.54968 0.12094 0.0
O149 O 0.84627 0.50773 0.09105 0.0
O150 O 0.8438 0.51201 0.93538 0.0
O151 O 0.82505 0.5313 -0.00808 0.0
H152 H 0.87 0.62559 0.21917 0.0
H153 H 0.87918 0.6669 0.30069 0.0
H154 H 0.84888 0.68025 0.09696 0.0
H155 H 0.84057 0.63977 0.0164 0.0
H156 H 0.87597 0.47026 0.86584 0.0
H157 H 0.86518 0.42465 0.8493 0.0
H158 H 0.8918 0.43921 0.09997 0.0
H159 H 0.90319 0.48479 0.11632 0.0
Sm160 Sm 0.23336 0.81979 0.8123 0.0
Sm161 Sm 0.29163 0.86343 0.83197 0.0
C162 C 0.18502 0.78966 0.83165 0.0
C163 C 0.16492 0.7904 0.79454 0.0
C164 C 0.14271 0.78129 0.82969 0.0
C165 C 0.12236 0.77888 0.78835 0.0
C166 C 0.12407 0.78529 0.71127 0.0
C167 C 0.14741 0.7972 0.68027 0.0
C168 C 0.16779 0.79983 0.72192 0.0
C169 C 0.25492 0.82049 0.67567 0.0
C170 C 0.25468 0.87813 0.75896 0.0
C171 C 0.34031 0.8998 0.82607 0.0
C172 C 0.36198 0.89877 0.83887 0.0
C173 C 0.36327 0.8797 0.78902 0.0
C174 C 0.3817 0.87598 0.80974 0.0
C175 C 0.3988 0.89111 0.88056 0.0
C176 C 0.39776 0.91037 0.92975 0.0
C177 C 0.37953 0.91429 0.90873 0.0
C178 C 0.26817 0.86254 0.96087 0.0
C179 C 0.27141 0.8044 0.86855 0.0
O180 O 0.20232 0.81138 0.88386 0.0
O181 O 0.1947 0.78093 0.78177 0.0
O182 O 0.26473 0.82461 0.74593 0.0
O183 O 0.2312 0.81186 0.67609 0.0
O184 O 0.23407 0.85446 0.76967 0.0
O185 O 0.27791 0.88474 0.7734 0.0
O186 O 0.32382 0.88439 0.76129 0.0
O187 O 0.32954 0.89905 0.89036 0.0
O188 O 0.26006 0.86016 0.89058 0.0
O189 O 0.28922 0.86447 0.96634 0.0
O190 O 0.29017 0.82606 0.84287 0.0
O191 O 0.24907 0.80005 0.87616 0.0
H192 H 0.14063 0.77478 0.88691 0.0
H193 H 0.10458 0.77002 0.81374 0.0
H194 H 0.14922 0.8022 0.62091 0.0
H195 H 0.18521 0.80771 0.69504 0.0
H196 H 0.34966 0.86711 0.73547 0.0
H197 H 0.3823 0.86096 0.77138 0.0
H198 H 0.4111 0.92245 0.98417 0.0
H199 H 0.37855 0.92879 0.94846 0.0
Sm200 Sm 0.43218 0.13872 0.09583 0.0
Sm201 Sm 0.47132 0.19198 0.04891 0.0
C202 C 0.40358 0.09272 0.14798 0.0
C203 C 0.37675 0.07439 0.15978 0.0
C204 C 0.36307 0.08428 0.18754 0.0
C205 C 0.33846 0.06647 0.20723 0.0
C206 C 0.32731 0.03861 0.1995 0.0
C207 C 0.34048 0.02876 0.1655 0.0
C208 C 0.36497 0.04653 0.14584 0.0
C209 C 0.41839 0.14451 0.94977 0.0
C210 C 0.42451 0.18643 0.13997 0.0
C211 C 0.49568 0.23401 0.97776 0.0
C212 C 0.5227 0.25259 0.96871 0.0
C213 C 0.53105 0.25062 0.89478 0.0
C214 C 0.55702 0.26736 0.88764 0.0
C215 C 0.57465 0.2862 0.95429 0.0
C216 C 0.56639 0.2878 0.02827 0.0
C217 C 0.5406 0.27121 0.03545 0.0
C218 C 0.48314 0.18718 0.19882 0.0
C219 C 0.48759 0.15168 0.04117 0.0
O220 O 0.41739 0.11641 0.19565 0.0
O221 O 0.40803 0.09377 0.07367 0.0
O222 O 0.44017 0.15134 0.97581 0.0
O223 O 0.4022 0.13236 -0.00068 0.0
O224 O 0.41892 0.16358 0.15897 0.0
O225 O 0.44121 0.1987 0.08964 0.0
O226 O 0.48371 0.20912 0.93869 0.0
O227 O 0.49005 0.23539 0.05059 0.0
O228 O 0.46176 0.17933 0.16646 0.0
O229 O 0.50105 0.20171 0.15583 0.0
O230 O 0.49191 0.1728 0.01377 0.0
O231 O 0.46766 0.13737 0.08053 0.0
H232 H 0.37175 0.10581 0.19694 0.0
H233 H 0.32869 0.07466 0.23203 0.0
H234 H 0.33279 1.00757 0.15942 0.0
H235 H 0.37521 0.03863 0.1233 0.0
H236 H 0.51756 0.23617 0.8428 0.0
H237 H 0.56324 0.2661 0.82994 0.0
H238 H 0.5799 0.30212 0.08043 0.0
H239 H 0.53483 0.27298 0.09355 0.0
H240 H 0.37868 0.17908 0.10931 0.0
H241 H 0.36535 0.20594 0.17691 0.0
H242 H 0.43577 0.25297 0.34055 0.0
H243 H 0.44942 0.22699 0.27068 0.0
H244 H 0.35465 0.21551 0.31725 0.0
H245 H 0.44044 0.31399 0.27315 0.0
H246 H 0.43409 0.2823 0.22775 0.0
H247 H 0.44936 0.29756 0.32997 0.0
C248 C 0.39126 0.19519 0.1597 0.0
C249 C 0.41515 0.201 0.18425 0.0
C250 C 0.38364 0.21061 0.19861 0.0
C251 C 0.39975 0.23231 0.2631 0.0
C252 C 0.42322 0.23723 0.28946 0.0
H253 H 0.38934 0.34777 0.58629 0.0
H254 H 0.39774 0.31595 0.52588 0.0
C255 C 0.43094 0.22209 0.24997 0.0
C256 C 0.39222 0.24982 0.30224 0.0
H257 H 0.41445 0.31603 0.36522 0.0
C258 C 0.36775 0.23748 0.327 0.0
C259 C 0.40894 0.2787 0.3151 0.0
C260 C 0.43453 0.29388 0.28428 0.0
C261 C 0.36 0.25296 0.36527 0.0
C262 C 0.37707 0.28172 0.38003 0.0
C263 C 0.40139 0.29405 0.35509 0.0
C264 C 0.37012 0.29951 0.41994 0.0
C265 C 0.33373 0.23847 0.39122 0.0
C266 C 0.3516 0.30104 0.38141 0.0
C267 C 0.34665 0.31934 0.41601 0.0
C268 C 0.36008 0.33679 0.49048 0.0
C269 C 0.37826 0.3347 0.52959 0.0
C270 C 0.38327 0.3165 0.49471 0.0
H271 H 0.32422 0.21638 0.38672 0.0
H272 H 0.33499 0.24735 0.45393 0.0
H273 H 0.32151 0.24113 0.35264 0.0
H274 H 0.34131 0.28848 0.32338 0.0
H275 H 0.33228 0.31981 0.38393 0.0
H276 H 0.23277 0.41556 0.71048 0.0
H277 H 0.18768 0.38049 0.65765 0.0
H278 H 0.21055 0.35886 0.44351 0.0
H279 H 0.25524 0.39065 0.50295 0.0
H280 H 0.15621 0.37103 0.56257 0.0
H281 H 0.15821 0.28544 0.43794 0.0
H282 H 0.18579 0.31562 0.4988 0.0
H283 H 0.17972 0.31382 0.39246 0.0
C284 C 0.22807 0.40259 0.65325 0.0
C285 C 0.24783 0.40565 0.61214 0.0
C286 C 0.202 0.38252 0.62191 0.0
C287 C 0.19453 0.36555 0.54602 0.0
C288 C 0.21464 0.36969 0.50378 0.0
H289 H 0.04491 0.25726 0.23205 0.0
H290 H 0.09012 0.28738 0.28734 0.0
C291 C 0.24063 0.38855 0.53744 0.0
C292 C 0.16612 0.34498 0.51064 0.0
H293 H 0.12149 0.28246 0.3911 0.0
C294 C 0.14893 0.35153 0.52654 0.0
C295 C 0.15542 0.31901 0.46221 0.0
C296 C 0.17073 0.30798 0.44771 0.0
C297 C 0.12245 0.33376 0.49639 0.0
C298 C 0.11216 0.3085 0.44582 0.0
C299 C 0.12911 0.30184 0.42881 0.0
C300 C 0.08393 0.28879 0.4114 0.0
C301 C 0.10573 0.34253 0.51861 0.0
C302 C 0.06464 0.27861 0.46155 0.0
C303 C 0.0384 0.26176 0.43009 0.0
C304 C 0.03 0.25362 0.34649 0.0
C305 C 0.0496 0.26307 0.2964 0.0
C306 C 0.07593 0.2803 0.32821 0.0
H307 H 0.11717 0.3648 0.54013 0.0
H308 H 0.09145 0.33671 0.46702 0.0
H309 H 0.09523 0.3324 0.56782 0.0
H310 H 0.06986 0.28393 0.52591 0.0
H311 H 1.0249 0.25574 0.47276 0.0
H312 H 0.85259 0.09172 0.30379 0.0
H313 H 0.83846 0.0564 0.38464 0.0
H314 H 0.7599 0.01835 0.29104 0.0
H315 H 0.77389 0.0536 0.20987 0.0
H316 H 0.80576 0.04327 0.50592 0.0
H317 H 0.76569 0.95441 0.26222 0.0
H318 H 0.7883 0.989 0.24819 0.0
H319 H 0.75509 0.97503 0.24914 0.0
C320 C 0.83227 0.07577 0.2999 0.0
C321 C 0.81445 0.07571 0.24992 0.0
C322 C 0.8242 0.05555 0.34655 0.0
C323 C 0.79805 0.03447 0.34443 0.0
C324 C 0.78021 0.03407 0.29346 0.0
H325 H 0.717 0.92991 0.68997 0.0
H326 H 0.73767 0.96573 0.60987 0.0
C327 C 0.78827 0.05432 0.24679 0.0
C328 C 0.78942 1.0135 0.3971 0.0
H329 H 0.75577 0.94498 0.39244 0.0
C330 C 0.79485 0.02179 0.48092 0.0
C331 C 0.7758 0.98543 0.36537 0.0
C332 C 0.77103 0.97531 0.27635 0.0
C333 C 0.78614 1.00287 0.53315 0.0
C334 C 0.77118 0.97462 0.50139 0.0
C335 C 0.76675 0.96646 0.41754 0.0
C336 C 0.75954 0.95332 0.55387 0.0
C337 C 0.7934 1.01339 0.62221 0.0
C338 C 0.7646 0.93395 0.54988 0.0
C339 C 0.75275 0.91333 0.59622 0.0
C340 C 0.73519 0.91118 0.64716 0.0
C341 C 0.7306 0.93095 0.65242 0.0
C342 C 0.74246 0.95157 0.60626 0.0
H343 H 0.81049 0.03497 0.63621 0.0
H344 H 0.77725 1.01208 0.64752 0.0
H345 H 0.79746 1.00112 0.65236 0.0
H346 H 0.77771 0.93471 0.51056 0.0
H347 H 0.7571 0.8988 0.59145 0.0
H348 H 0.88173 0.72528 0.16155 0.0
H349 H 0.88163 0.76177 0.23598 0.0
H350 H 0.85554 0.71871 0.43316 0.0
H351 H 0.8552 0.682 0.35896 0.0
H352 H 0.83922 0.75467 0.27927 0.0
H353 H 0.90953 0.79522 0.54947 0.0
H354 H 0.90826 0.77407 0.46253 0.0
H355 H 0.88704 0.75902 0.53616 0.0
C356 C 0.87631 0.72375 0.22124 0.0
C357 C 0.86843 0.70072 0.25438 0.0
C358 C 0.87647 0.74471 0.26382 0.0
C359 C 0.86907 0.74316 0.34056 0.0
C360 C 0.86208 0.72068 0.37496 0.0
H361 H 0.79415 0.78353 0.63574 0.0
H362 H 0.82154 0.77247 0.57947 0.0
C363 C 0.86185 0.69967 0.33237 0.0
C364 C 0.86527 0.76299 0.38041 0.0
H365 H 0.8758 0.80123 0.5616 0.0
C366 C 0.84774 0.76549 0.34026 0.0
C367 C 0.87645 0.77701 0.45985 0.0
C368 C 0.89657 0.7764 0.50409 0.0
C369 C 0.83964 0.78009 0.37946 0.0
C370 C 0.84968 0.79274 0.46054 0.0
C371 C 0.86824 0.79149 0.49937 0.0
C372 C 0.83849 0.80405 0.50819 0.0
C373 C 0.81918 0.78034 0.33552 0.0
C374 C 0.84027 0.82653 0.49024 0.0
C375 C 0.82481 0.83316 0.52305 0.0
C376 C 0.80726 0.8172 0.5736 0.0
C377 C 0.80749 0.79636 0.5974 0.0
C378 C 0.82304 0.78988 0.56494 0.0
H379 H 0.81089 0.76626 0.27676 0.0
H380 H 0.80343 0.77461 0.37207 0.0
H381 H 0.8276 0.80113 0.32459 0.0
H382 H 0.85245 0.83788 0.44729 0.0
H383 H 0.82547 0.84972 0.50506 0.0
H384 H 0.08144 0.73413 0.69083 0.0
H385 H 0.04636 0.71087 0.58308 0.0
H386 H 0.07809 0.78598 0.49744 0.0
H387 H 0.11458 0.80942 0.60464 0.0
H388 H 1.0101 0.71407 0.5407 0.0
H389 H 0.0727 0.74087 0.29869 0.0
H390 H 0.08578 0.74981 0.4026 0.0
H391 H 0.07593 0.76847 0.36253 0.0
C392 C 0.08069 0.74596 0.65057 0.0
C393 C 0.10057 0.77361 0.65643 0.0
C394 C 0.06067 0.73258 0.58847 0.0
C395 C 0.05979 0.74661 0.5315 0.0
C396 C 0.07877 0.77466 0.53969 0.0
H397 H 0.94059 0.65132 0.12049 0.0
H398 H 0.97562 0.69034 0.21615 0.0
C399 C 0.09933 0.78807 0.60134 0.0
C400 C 0.03933 0.73075 0.46272 0.0
H401 H 0.02895 0.70677 0.26217 0.0
C402 C 1.01421 0.71276 0.47963 0.0
C403 C 0.04472 0.72931 0.38288 0.0
C404 C 0.07123 0.748 0.36029 0.0
C405 C 0.99486 0.69176 0.42052 0.0
C406 C 1.00078 0.68933 0.34245 0.0
C407 C 1.02505 0.7087 0.32326 0.0
C408 C 0.98197 0.66631 0.28031 0.0
C409 C 0.9686 0.67162 0.44261 0.0
C410 C 0.97498 0.64029 0.28395 0.0
C411 C 0.95513 0.61798 0.22909 0.0
C412 C 0.9422 0.6218 0.17133 0.0
C413 C 0.95027 0.64805 0.16539 0.0
C414 C 0.97017 0.67026 0.21955 0.0
H415 H 0.96579 0.67941 0.50081 0.0
H416 H 0.95339 0.66654 0.39557 0.0
H417 H 0.96627 0.65259 0.44773 0.0
H418 H 0.98429 0.63723 0.33074 0.0
H419 H 0.94901 0.5978 0.2346 0.0
H420 H 0.21498 0.86392 0.6489 0.0
H421 H 0.21849 0.88974 0.54574 0.0
H422 H 0.29288 0.9583 0.66584 0.0
H423 H 0.29008 0.93222 0.7663 0.0
H424 H 0.22577 0.93663 0.53371 0.0
H425 H 0.31094 0.94294 0.45409 0.0
H426 H 0.29425 0.92601 0.53352 0.0
H427 H 0.31746 0.96221 0.55182 0.0
C428 C 0.23169 0.8848 0.65472 0.0
C429 C 0.25241 0.8959 0.71487 0.0
C430 C 0.2338 0.89945 0.59528 0.0
C431 C 0.25637 0.92557 0.5965 0.0
C432 C 0.2757 0.93781 0.66204 0.0
H433 H 0.31612 0.05203 0.34292 0.0
H434 H 0.2895 0.02057 0.42912 0.0
C435 C 0.27389 0.923 0.7201 0.0
C436 C 0.26035 0.9394 0.52739 0.0
H437 H 0.30183 0.96963 0.39236 0.0
C438 C 0.24228 0.94363 0.50237 0.0
C439 C 0.28185 0.94837 0.48585 0.0
C440 C 0.30203 0.94438 0.50732 0.0
C441 C 0.2457 0.95753 0.43911 0.0
C442 C 0.26746 0.96701 0.39985 0.0
C443 C 0.28502 0.96204 0.42276 0.0
C444 C 0.27429 0.98459 0.34008 0.0
C445 C 0.22643 0.96243 0.41494 0.0
C446 C 0.27315 0.97463 0.25996 0.0
C447 C 0.288 0.99262 0.20959 0.0
C448 C 0.30479 0.02071 0.23975 0.0
C449 C 0.30341 0.0306 0.31728 0.0
C450 C 0.2882 1.01261 0.36703 0.0
H451 H 0.20914 0.95136 0.44567 0.0
H452 H 0.23542 0.98449 0.42986 0.0
H453 H 0.22051 0.95602 0.34915 0.0
H454 H 0.2626 0.953 0.23849 0.0
H455 H 0.28814 0.98442 0.14946 0.0
H456 H 0.25907 0.77242 0.9837 0.0
H457 H 0.26662 0.73776 -0.0127 0.0
H458 H 0.29395 0.75016 0.7576 0.0
H459 H 0.28844 0.78584 0.7573 0.0
H460 H 0.2498 0.69168 0.90469 0.0
H461 H 0.3521 0.75815 0.86908 0.0
H462 H 0.33384 0.77134 0.88629 0.0
H463 H 0.33362 0.75705 0.78626 0.0
C464 C 0.26701 0.76785 0.93482 0.0
C465 C 0.27396 0.78229 0.87148 0.0
C466 C 0.27127 0.74807 0.93666 0.0
C467 C 0.28198 0.74211 0.8743 0.0
C468 C 0.28711 0.75534 0.80863 0.0
H469 H 0.30385 0.62193 0.69697 0.0
H470 H 0.29857 0.65805 0.72176 0.0
C471 C 0.2837 0.77558 0.80811 0.0
C472 C 0.28731 0.72172 0.87585 0.0
H473 H 0.33153 0.70998 0.83437 0.0
C474 C 0.26784 0.69587 0.89067 0.0
C475 C 0.311 0.72714 0.85858 0.0
C476 C 0.33386 0.75504 0.85014 0.0
C477 C 0.27094 0.67503 0.88464 0.0
C478 C 0.29398 0.68009 0.8624 0.0
C479 C 0.31372 0.70607 0.85015 0.0
C480 C 0.29774 0.65849 0.84891 0.0
C481 C 0.24929 0.64752 0.89983 0.0
C482 C 0.29964 0.6472 0.91261 0.0
C483 C 0.30331 0.62691 0.89914 0.0
C484 C 0.30494 0.61727 0.82139 0.0
C485 C 0.30323 0.62897 0.75792 0.0
C486 C 0.2999 0.64949 0.77172 0.0
H487 H 0.23117 0.64549 0.90229 0.0
H488 H 0.24592 0.63116 0.85258 0.0
H489 H 0.25455 0.64449 0.95807 0.0
H490 H 0.29847 0.65423 0.97291 0.0
H491 H 0.30505 0.61896 0.95003 0.0
H492 H 0.52019 0.16396 0.92736 0.0
H493 H 0.55284 0.15614 0.91513 0.0
H494 H 0.53364 0.12038 0.12739 0.0
H495 H 0.49951 0.12613 0.13532 0.0
H496 H 0.59391 0.17357 -0.01489 0.0
H497 H 0.53884 0.06627 0.01434 0.0
H498 H 0.52343 0.08248 0.00442 0.0
H499 H 0.53787 0.08511 0.10139 0.0
C500 C 0.52251 0.15386 0.97056 0.0
C501 C 0.50674 0.14536 0.03177 0.0
C502 C 0.5415 0.1495 0.96385 0.0
C503 C 0.54595 0.13698 0.01908 0.0
C504 C 0.53037 0.12891 0.08116 0.0
H505 H 0.66387 0.116 0.1428 0.0
H506 H 0.62851 0.11877 0.13184 0.0
C507 C 0.51081 0.13251 0.0864 0.0
C508 C 0.56758 0.13384 0.01387 0.0
H509 H 0.58452 0.09149 0.03815 0.0
C510 C 0.59152 0.15536 -0.00417 0.0
C511 C 0.56516 0.11012 0.02644 0.0
C512 C 0.53984 0.08463 0.03673 0.0
C513 C 0.61279 0.15437 -0.00674 0.0
C514 C 0.61069 0.13126 0.01026 0.0
C515 C 0.58668 0.10952 0.02655 0.0
C516 C 0.63312 0.12947 0.0145 0.0
C517 C 0.63754 0.1786 0.97419 0.0
C518 C 0.64801 0.13398 0.95167 0.0
C519 C 0.66913 0.1328 0.95781 0.0
C520 C 0.67626 0.12664 0.02687 0.0
C521 C 0.6605 0.12132 0.08846 0.0
C522 C 0.63958 0.12273 0.08233 0.0
H523 H 0.6382 0.19714 0.98398 0.0
H524 H 0.65437 0.18284 0.01106 0.0
H525 H 0.63918 0.17438 0.91012 0.0
H526 H 0.64326 0.13825 0.89695 0.0
H527 H 0.67958 0.13678 0.90714 0.0
H528 H 0.60635 0.73961 0.63766 0.0
H529 H 0.56459 0.69715 0.63916 0.0
H530 H 0.56975 0.72186 0.89271 0.0
H531 H 0.61045 0.7656 0.88901 0.0
H532 H 0.54695 0.65617 0.689 0.0
H533 H 0.49988 0.69494 0.85829 0.0
H534 H 0.53071 0.71771 0.82721 0.0
H535 H 0.52796 0.70316 0.91537 0.0
C536 C 0.59849 0.73621 0.69374 0.0
C537 C 0.61194 0.7565 0.76291 0.0
C538 C 0.57435 0.71159 0.6948 0.0
C539 C 0.56278 0.70569 0.7656 0.0
C540 C 0.57686 0.72564 0.83577 0.0
H541 H 0.41424 0.55666 0.8476 0.0
H542 H 0.45767 0.59964 0.86545 0.0
C543 C 0.60065 0.75078 0.83404 0.0
C544 C 0.53675 0.67844 0.76465 0.0
H545 H 0.47729 0.64745 0.82795 0.0
C546 C 0.5318 0.65468 0.71895 0.0
C547 C 0.51644 0.67533 0.80492 0.0
C548 C 0.51891 0.69917 0.85358 0.0
C549 C 0.50788 0.62885 0.71104 0.0
C550 C 0.48749 0.62591 0.74937 0.0
C551 C 0.49253 0.64932 0.79757 0.0
C552 C 0.46086 0.59902 0.73888 0.0
C553 C 0.50506 0.6048 0.66246 0.0
C554 C 0.44744 0.58383 0.66202 0.0
C555 C 0.42278 0.5589 0.65197 0.0
C556 C 0.41041 0.54844 0.7183 0.0
C557 C 0.42342 0.56376 0.79517 0.0
C558 C 0.44828 0.58857 0.80534 0.0
H559 H 0.5239 0.60836 0.66051 0.0
H560 H 0.49217 0.58604 0.68699 0.0
H561 H 0.49693 0.6015 0.59993 0.0
H562 H 0.4558 0.59151 0.60914 0.0
H563 H 0.41304 0.54813 0.59193 0.0
H564 H 0.91198 0.42035 0.02796 0.0
H565 H 0.90593 0.37739 0.02137 0.0
H566 H 0.83082 0.33522 0.88718 0.0
H567 H 0.83689 0.37864 0.89318 0.0
H568 H 0.86671 0.33558 0.08775 0.0
H569 H 0.86224 0.30185 0.76335 0.0
H570 H 0.87398 0.33623 0.80435 0.0
H571 H 0.84026 0.30937 0.79104 0.0
C572 C 0.8942 0.40196 -0.00328 0.0
C573 C 0.87471 0.40268 0.96226 0.0
C574 C 0.89086 0.3775 -0.00747 0.0
C575 C 0.868 0.35326 0.95368 0.0
C576 C 0.84874 0.35385 0.91649 0.0
H577 H 0.82327 0.19112 0.95341 0.0
H578 H 0.82733 0.23012 0.91702 0.0
C579 C 0.85217 0.37854 0.92026 0.0
C580 C 0.86403 0.32753 0.95934 0.0
H581 H 0.85968 0.27409 0.85192 0.0
C582 C 0.86513 0.32208 0.0362 0.0
C583 C 0.86141 0.30979 0.89171 0.0
C584 C 0.85953 0.31455 0.80782 0.0
C585 C 0.86459 0.29981 0.04783 0.0
C586 C 0.86366 0.28298 0.9807 0.0
C587 C 0.86123 0.2876 0.90331 0.0
C588 C 0.86393 0.25975 -0.00961 0.0
C589 C 0.86469 0.29441 0.13194 0.0
C590 C 0.88397 0.26351 0.0399 0.0
C591 C 0.88157 0.24119 0.06204 0.0
C592 C 0.85919 0.21493 0.03413 0.0
C593 C 0.84048 0.21121 0.97772 0.0
C594 C 0.8428 0.23345 0.95627 0.0
H595 H 0.85822 0.30437 0.17215 0.0
H596 H 0.85211 0.27231 0.13267 0.0
H597 H 0.8845 0.30273 0.15681 0.0
H598 H 0.9008 0.28377 0.06493 0.0
H599 H 0.89639 0.24462 0.10474 0.0
H600 H 0.43038 0.89046 0.78316 0.0
H601 H 0.46601 0.88885 0.8205 0.0
H602 H 0.44809 0.88431 0.06282 0.0
H603 H 0.41172 0.88501 0.02521 0.0
H604 H 0.50663 0.92923 0.94709 0.0
H605 H 0.45585 0.82205 -0.00937 0.0
H606 H 0.44042 0.83292 0.93433 0.0
H607 H 0.44625 0.84162 0.04151 0.0
C608 C 0.4337 0.88844 0.84379 0.0
C609 C 0.41855 0.88778 0.90154 0.0
C610 C 0.454 0.88773 0.86502 0.0
C611 C 0.45922 0.88641 0.94398 0.0
C612 C 0.44387 0.88511 0.00151 0.0
H613 H 0.5951 0.89758 0.09674 0.0
H614 H 0.55841 0.89912 0.1076 0.0
C615 C 0.42342 0.88569 0.9802 0.0
C616 C 0.48179 0.88796 0.96629 0.0
H617 H 0.50096 0.84927 0.00468 0.0
C618 C 0.50558 0.91201 0.96133 0.0
C619 C 0.47978 0.86521 0.98411 0.0
C620 C 0.45423 0.83887 -0.01239 0.0
C621 C 0.52773 0.91348 0.97013 0.0
C622 C 0.52559 0.89043 -0.01498 0.0
C623 C 0.50205 0.86685 -0.00586 0.0
C624 C 0.54699 0.88918 0.97972 0.0
C625 C 0.55299 0.93888 0.95885 0.0
C626 C 0.55182 0.88277 0.90409 0.0
C627 C 0.57227 0.88151 0.89762 0.0
C628 C 0.58808 0.8869 0.9669 0.0
C629 C 0.58301 0.89321 0.04273 0.0
C630 C 0.56233 0.89422 0.04911 0.0
H631 H 0.55196 0.95623 0.95918 0.0
H632 H 0.56829 0.94462 0.00666 0.0
H633 H 0.55851 0.93493 0.90057 0.0
H634 H 0.53971 0.8787 0.85038 0.0
H635 H 0.57552 0.87603 0.83864 0.0
H636 H 0.81238 0.46213 0.88678 0.0
H637 H 0.7705 0.41834 0.87364 0.0
H638 H 0.73651 0.45911 0.9468 0.0
H639 H 0.7779 0.50289 0.95854 0.0
H640 H 0.73969 0.40159 0.00626 0.0
H641 H 0.69206 0.40548 0.73605 0.0
H642 H 0.7265 0.42652 0.7617 0.0
H643 H 0.70783 0.43529 0.81281 0.0
C644 C 0.79584 0.46178 0.89752 0.0
C645 C 0.79821 0.4858 0.92255 0.0
C646 C 0.77216 0.43686 0.8909 0.0
C647 C 0.75086 0.43598 0.9085 0.0
C648 C 0.75297 0.4598 0.93174 0.0
H649 H 0.60283 0.34022 0.00328 0.0
H650 H 0.64762 0.37372 -0.01108 0.0
C651 C 0.77653 0.48467 0.93806 0.0
C652 C 0.72629 0.4101 0.90526 0.0
H653 H 0.66471 0.37311 0.81662 0.0
C654 C 0.72333 0.39479 0.96365 0.0
C655 C 0.70536 0.402 0.84982 0.0
C656 C 0.70808 0.41808 0.78609 0.0
C657 C 0.69915 0.37183 0.97043 0.0
C658 C 0.67814 0.36441 0.91687 0.0
C659 C 0.68129 0.37904 0.85646 0.0
C660 C 0.65222 0.34391 0.92941 0.0
C661 C 0.69576 0.35653 0.03708 0.0
C662 C 0.64068 0.31648 0.90033 0.0
C663 C 0.61518 0.29731 0.9086 0.0
C664 C 0.60147 0.30578 0.94603 0.0
C665 C 0.61331 0.33336 0.97531 0.0
C666 C 0.63866 0.35239 0.96706 0.0
H667 H 0.71422 0.36523 0.07437 0.0
H668 H 0.68255 0.35688 0.07619 0.0
H669 H 0.68688 0.33496 0.01138 0.0
H670 H 0.65128 0.31008 0.87067 0.0
H671 H 0.6062 0.27603 0.88609 0.0
H672 H 0.27097 0.4333 0.46102 0.0
H673 H 0.26163 0.43735 0.32771 0.0
H674 H 0.32216 0.52316 0.38141 0.0
H675 H 0.33176 0.51917 0.51658 0.0
H676 H 0.26782 0.46225 0.19671 0.0
H677 H 0.36169 0.48984 0.33412 0.0
H678 H 0.33554 0.47706 0.39103 0.0
H679 H 0.35229 0.51095 0.36902 0.0
C680 C 0.28122 0.45335 0.44637 0.0
C681 C 0.30355 0.47546 0.49483 0.0
C682 C 0.27567 0.45579 0.37001 0.0
C683 C 0.29334 0.47995 0.3433 0.0
C684 C 0.30959 0.50386 0.40046 0.0
H685 H 0.37321 0.5076 0.96362 0.0
H686 H 0.36155 0.49977 0.09579 0.0
C687 C 0.31521 0.50155 0.4777 0.0
C688 C 0.30272 0.47638 0.26853 0.0
H689 H 0.34903 0.47132 0.20167 0.0
C690 C 0.2859 0.46493 0.19697 0.0
C691 C 0.3258 0.47851 0.27045 0.0
C692 C 0.34484 0.48969 0.34515 0.0
C693 C 0.29205 0.45688 0.12616 0.0
C694 C 0.31537 0.45961 0.12811 0.0
C695 C 0.33131 0.46944 0.20069 0.0
C696 C 0.32666 0.45905 0.0547 0.0
C697 C 0.27384 0.44636 0.05001 0.0
C698 C 0.31288 0.43751 -0.01086 0.0
C699 C 0.31939 0.44229 0.91254 0.0
C700 C 0.33997 0.46837 0.90284 0.0
C701 C 0.35679 0.48763 0.96996 0.0
C702 C 0.35005 0.48309 0.0457 0.0
H703 H 0.25836 0.44884 0.05805 0.0
H704 H 0.28425 0.45712 0.00156 0.0
H705 H 0.26462 0.42438 0.03061 0.0
H706 H 0.29564 0.41819 -0.0042 0.0
H707 H 0.30655 0.42682 0.86119 0.0
H708 H 0.87984 0.1182 0.94919 0.0
H709 H 0.88456 0.12123 0.80869 0.0
H710 H 0.80893 0.1012 0.76598 0.0
H711 H 0.80489 0.10033 0.90863 0.0
H712 H 0.86405 0.09814 0.65134 0.0
H713 H 0.85481 0.18078 0.75195 0.0
H714 H 0.85577 0.16124 0.81997 0.0
H715 H 0.82634 0.14808 0.75789 0.0
C716 C 0.86382 0.11358 0.90955 0.0
C717 C 0.84226 0.10984 0.9402 0.0
C718 C 0.86657 0.11524 0.82895 0.0
C719 C 0.84758 0.11266 0.7779 0.0
C720 C 0.82422 0.10429 0.80546 0.0
H721 H 0.80515 0.11734 0.34536 0.0
H722 H 0.82076 0.10903 0.46014 0.0
C723 C 0.82182 0.10361 0.88672 0.0
C724 C 0.85415 0.12415 0.70355 0.0
H725 H 0.85554 0.17098 0.61271 0.0
C726 C 0.86231 0.11414 0.64294 0.0
C727 C 0.85353 0.14627 0.69451 0.0
C728 C 0.84744 0.15994 0.75993 0.0
C729 C 0.86734 0.124 0.57052 0.0
C730 C 0.86388 0.14395 0.55893 0.0
C731 C 0.85815 0.15563 0.62204 0.0
C732 C 0.85846 0.14733 0.47852 0.0
C733 C 0.87621 0.11321 0.50638 0.0
C734 C 0.87465 0.1718 0.45057 0.0
C735 C 0.86583 0.1765 0.38284 0.0
C736 C 0.84054 0.15716 0.34495 0.0
C737 C 0.82465 0.13284 0.37371 0.0
C738 C 0.83369 0.12776 0.43844 0.0
H739 H 0.87718 0.09698 0.52294 0.0
H740 H 0.8632 0.10521 0.44969 0.0
H741 H 0.89549 0.13012 0.49506 0.0
H742 H 0.89366 0.18742 0.4823 0.0
H743 H 0.8784 0.19536 0.36148 0.0
H744 H 0.66756 0.81161 0.52372 0.0
H745 H 0.69112 0.82862 0.40999 0.0
H746 H 0.69405 0.90061 0.46515 0.0
H747 H 0.67034 0.88362 0.57738 0.0
H748 H 0.67826 0.87946 0.31418 0.0
H749 H 0.76549 0.89238 0.40291 0.0
H750 H 0.74416 0.85618 0.37867 0.0
H751 H 0.73938 0.87403 0.45977 0.0
C752 C 0.67316 0.83099 0.5112 0.0
C753 C 0.66723 0.8463 0.55974 0.0
C754 C 0.68695 0.84091 0.44708 0.0
C755 C 0.69503 0.8663 0.43036 0.0
C756 C 0.68839 0.88118 0.47742 0.0
H757 H 0.73555 0.89435 0.94104 0.0
H758 H 0.73923 0.91026 0.08463 0.0
C759 C 0.6745 0.87122 0.54098 0.0
C760 C 0.70721 0.87539 0.35738 0.0
H761 H 0.75034 0.8767 0.24458 0.0
C762 C 0.69453 0.87968 0.29986 0.0
C763 C 0.72883 0.87634 0.33892 0.0
C764 C 0.74514 0.87461 0.39921 0.0
C765 C 0.70063 0.88118 0.22147 0.0
C766 C 0.72008 0.87862 0.20053 0.0
C767 C 0.73495 0.87792 0.26043 0.0
C768 C 0.72122 0.87061 0.11577 0.0
C769 C 0.68429 0.88231 0.15942 0.0
C770 C 0.71042 0.84324 0.08631 0.0
C771 C 0.70846 0.83414 0.00481 0.0
C772 C 0.71718 0.85229 0.95125 0.0
C773 C 0.72868 0.87991 0.9812 0.0
C774 C 0.73081 0.88905 0.06299 0.0
H775 H 0.67122 0.88631 0.18656 0.0
H776 H 0.69656 0.89843 0.12473 0.0
H777 H 0.67258 0.86263 0.11689 0.0
H778 H 0.70265 0.82868 0.1262 0.0
H779 H 0.69922 0.81275 0.98336 0.0
H780 H 0.87209 0.52065 0.81675 0.0
H781 H 0.86484 0.50751 0.67125 0.0
H782 H 0.89092 0.58842 0.64905 0.0
H783 H 0.8984 0.60149 0.79393 0.0
H784 H 0.82669 0.50961 0.61364 0.0
H785 H 0.90835 0.56548 0.44503 0.0
H786 H 0.9128 0.56321 0.54833 0.0
H787 H 0.90945 0.58862 0.52346 0.0
C788 C 0.878 0.53608 0.78079 0.0
C789 C 0.88582 0.56205 0.81563 0.0
C790 C 0.87365 0.5285 0.69766 0.0
C791 C 0.87705 0.5469 0.64966 0.0
C792 C 0.88846 0.57398 0.68488 0.0
H793 H 0.83994 0.56261 0.21884 0.0
H794 H 0.82869 0.56019 0.35393 0.0
C795 C 0.89273 0.58149 0.76774 0.0
C796 C 0.86246 0.53679 0.56916 0.0
H797 H 0.86751 0.55169 0.38265 0.0
C798 C 0.83556 0.51843 0.56243 0.0
C799 C 0.87409 0.54849 0.50317 0.0
C800 C 0.90279 0.56733 0.50531 0.0
C801 C 0.81991 0.51255 0.4922 0.0
C802 C 0.8316 0.5254 0.42785 0.0
C803 C 0.8585 0.54271 0.43356 0.0
C804 C 0.81729 0.51938 0.34945 0.0
C805 C 0.79119 0.49322 0.48786 0.0
C806 C 0.80976 0.49549 0.29855 0.0
C807 C 0.81592 0.49669 0.22068 0.0
C808 C 0.8292 0.52169 0.19462 0.0
C809 C 0.83059 0.5434 0.23895 0.0
C810 C 0.82365 0.54183 0.3158 0.0
H811 H 0.78515 0.49047 0.54836 0.0
H812 H 0.78171 0.50049 0.45631 0.0
H813 H 0.78443 0.47311 0.45362 0.0
H814 H 0.80388 0.47758 0.32272 0.0
H815 H 0.81355 0.47923 0.18574 0.0
H816 H 0.26045 0.89755 0.04118 0.0
H817 H 0.25286 0.89799 0.18175 0.0
H818 H 0.23645 0.81865 0.16361 0.0
H819 H 0.24287 0.81802 0.02513 0.0
H820 H 0.22183 0.82716 0.2865 0.0
H821 H 0.31965 0.92285 0.28844 0.0
H822 H 0.29248 0.92226 0.25974 0.0
H823 H 0.29945 0.90226 0.19554 0.0
C824 C 0.25385 0.87976 0.06712 0.0
C825 C 0.25334 0.85826 0.02583 0.0
C826 C 0.24975 0.88009 0.14709 0.0
C827 C 0.24636 0.85946 0.18443 0.0
C828 C 0.24018 0.83545 0.13714 0.0
H829 H 0.29245 0.82345 0.59304 0.0
H830 H 0.3055 0.84413 0.47159 0.0
C831 C 0.24401 0.83503 0.05786 0.0
C832 C 0.25625 0.86471 0.26904 0.0
H833 H 0.31239 0.90122 0.39754 0.0
C834 C 0.24175 0.84326 0.30993 0.0
C835 C 0.28237 0.88592 0.2999 0.0
C836 C 0.29948 0.9096 0.25872 0.0
C837 C 0.25317 0.84049 0.37443 0.0
C838 C 0.27896 0.86179 0.40647 0.0
C839 C 0.29307 0.88451 0.37025 0.0
C840 C 0.28708 0.86412 0.49001 0.0
C841 C 0.23694 0.81517 0.41014 0.0
C842 C 0.27426 0.87017 0.5417 0.0
C843 C 0.26337 0.85485 0.59968 0.0
C844 C 0.26968 0.83804 0.61943 0.0
C845 C 0.28748 0.8366 0.57903 0.0
C846 C 0.29561 0.84906 0.51168 0.0
H847 H 0.22089 0.79798 0.36547 0.0
H848 H 0.24845 0.80878 0.43282 0.0
H849 H 0.22844 0.81913 0.46042 0.0
H850 H 0.26658 0.88065 0.52415 0.0
H851 H 0.24738 0.85343 0.62117 0.0
H852 H 0.42177 0.18214 0.87374 0.0
H853 H 0.42329 0.18238 0.73006 0.0
H854 H 0.40177 0.10089 0.69074 0.0
H855 H 0.39967 0.10044 0.83431 0.0
H856 H 0.46251 0.17316 0.69943 0.0
H857 H 0.37619 0.10947 0.46791 0.0
H858 H 0.37525 0.12472 0.56474 0.0
H859 H 0.37687 0.09656 0.55646 0.0
C860 C 0.41606 0.16382 0.83369 0.0
C861 C 0.41085 0.14137 0.86436 0.0
C862 C 0.41676 0.16387 0.75163 0.0
C863 C 0.41281 0.14171 0.69982 0.0
C864 C 0.40458 0.11805 0.72934 0.0
H865 H 0.47124 0.14137 0.24376 0.0
H866 H 0.45561 0.12814 0.37085 0.0
C867 C 0.40362 0.1179 0.81141 0.0
C868 C 0.42559 0.14681 0.62687 0.0
H869 H 0.41674 0.1323 0.42259 0.0
C870 C 0.45246 0.16428 0.63882 0.0
C871 C 0.41242 0.13448 0.54827 0.0
C872 C 0.38357 0.11527 0.53279 0.0
C873 C 0.46666 0.17043 0.57455 0.0
C874 C 0.45365 0.15926 0.4957 0.0
C875 C 0.42668 0.14094 0.4833 0.0
C876 C 0.4676 0.16812 0.4257 0.0
C877 C 0.49551 0.18882 0.59189 0.0
C878 C 0.48081 0.19528 0.41618 0.0
C879 C 0.49003 0.2029 0.34402 0.0
C880 C 0.48611 0.18344 0.28052 0.0
C881 C 0.47501 0.15686 0.29267 0.0
C882 C 0.46567 0.14918 0.36466 0.0
H883 H 0.50226 0.18872 0.65268 0.0
H884 H 0.50413 0.18272 0.54723 0.0
H885 H 0.50255 0.20993 0.58927 0.0
H886 H 0.48222 0.21015 0.46214 0.0
H887 H 0.49767 0.22324 0.335 0.0
loop_
_geom_bond_atom_site_label_1
_geom_bond_atom_site_label_2
_geom_bond_distance
_geom_bond_site_symmetry_2
_ccdc_geom_bond_type
Sm0 C2 2.846 . S
Sm0 O20 2.543 . S
Sm0 O21 2.450 . S
Sm0 O22 2.681 . S
Sm0 O23 2.464 . S
Sm0 O24 2.396 . S
Sm0 O28 2.386 . S
Sm0 O31 2.408 . S
Sm1 C11 2.846 . S
Sm1 O22 2.386 . S
Sm1 O25 2.408 . S
Sm1 O26 2.543 . S
Sm1 O27 2.450 . S
Sm1 O28 2.681 . S
Sm1 O29 2.464 . S
Sm1 O30 2.396 . S
C2 Sm0 2.846 . S
C2 C3 1.506 . S
C2 O20 1.261 . S
C2 O21 1.242 . S
C3 C2 1.506 . S
C3 C4 1.358 . S
C3 C8 1.382 . S
C4 C3 1.358 . S
C4 C5 1.385 . S
C4 H32 0.930 . S
C5 C4 1.385 . S
C5 C6 1.395 . S
C5 H33 0.929 . S
C6 C5 1.395 . S
C6 C7 1.335 . S
C7 C6 1.335 . S
C7 C8 1.398 . S
C7 H34 0.930 . S
C8 C3 1.382 . S
C8 C7 1.398 . S
C8 H35 0.929 . S
C9 O22 1.271 . S
C9 O23 1.251 . S
C10 O24 1.252 . S
C10 O25 1.272 . S
C11 Sm1 2.846 . S
C11 C12 1.506 . S
C11 O26 1.261 . S
C11 O27 1.242 . S
C12 C11 1.506 . S
C12 C13 1.358 . S
C12 C17 1.382 . S
C13 C12 1.358 . S
C13 C14 1.385 . S
C13 H36 0.930 . S
C14 C13 1.385 . S
C14 C15 1.395 . S
C14 H37 0.929 . S
C15 C14 1.395 . S
C15 C16 1.335 . S
C16 C15 1.335 . S
C16 C17 1.398 . S
C16 H38 0.925 1_556 S
C17 C12 1.382 . S
C17 C16 1.398 . S
C17 H39 0.929 . S
C18 O28 1.271 . S
C18 O29 1.251 . S
C19 O30 1.252 . S
C19 O31 1.272 . S
O20 Sm0 2.543 . S
O20 C2 1.261 . S
O21 Sm0 2.450 . S
O21 C2 1.242 . S
O22 Sm0 2.681 . S
O22 Sm1 2.386 . S
O22 C9 1.271 . S
O23 Sm0 2.464 . S
O23 C9 1.251 . S
O24 Sm0 2.396 . S
O24 C10 1.252 . S
O25 Sm1 2.408 . S
O25 C10 1.272 . S
O26 Sm1 2.543 . S
O26 C11 1.261 . S
O27 Sm1 2.450 . S
O27 C11 1.242 . S
O28 Sm0 2.386 . S
O28 Sm1 2.681 . S
O28 C18 1.271 . S
O29 Sm1 2.464 . S
O29 C18 1.251 . S
O30 Sm1 2.396 . S
O30 C19 1.252 . S
O31 Sm0 2.408 . S
O31 C19 1.272 . S
H32 C4 0.930 . S
H33 C5 0.929 . S
H34 C7 0.930 . S
H35 C8 0.929 . S
H36 C13 0.930 . S
H37 C14 0.929 . S
H38 C16 0.925 1_554 S
H39 C17 0.929 . S
Sm40 C42 2.846 . S
Sm40 O60 2.543 . S
Sm40 O61 2.450 . S
Sm40 O62 2.681 1_554 S
Sm40 O63 2.464 1_554 S
Sm40 O64 2.396 . S
Sm40 O68 2.386 . S
Sm40 O71 2.408 . S
Sm41 C51 2.846 1_554 S
Sm41 O62 2.386 1_554 S
Sm41 O65 2.408 . S
Sm41 O66 2.543 1_554 S
Sm41 O67 2.450 . S
Sm41 O68 2.681 . S
Sm41 O69 2.464 . S
Sm41 O70 2.396 . S
C42 Sm40 2.846 . S
C42 C43 1.506 . S
C42 O60 1.261 . S
C42 O61 1.242 . S
C43 C42 1.506 . S
C43 C44 1.358 . S
C43 C48 1.382 . S
C44 C43 1.358 . S
C44 C45 1.385 . S
C44 H72 0.930 . S
C45 C44 1.385 . S
C45 C46 1.395 . S
C45 H73 0.929 . S
C46 C45 1.395 . S
C46 C47 1.335 . S
C47 C46 1.335 . S
C47 C48 1.398 . S
C47 H74 0.930 . S
C48 C43 1.382 . S
C48 C47 1.398 . S
C48 H75 0.929 . S
C49 O62 1.271 . S
C49 O63 1.251 . S
C50 O64 1.252 . S
C50 O65 1.272 . S
C51 Sm41 2.846 1_556 S
C51 C52 1.506 . S
C51 O66 1.261 . S
C51 O67 1.242 1_556 S
C52 C51 1.506 . S
C52 C53 1.358 . S
C52 C57 1.382 1_556 S
C53 C52 1.358 . S
C53 C54 1.385 . S
C53 H76 0.930 . S
C54 C53 1.385 . S
C54 C55 1.395 . S
C54 H77 0.929 . S
C55 C54 1.395 . S
C55 C56 1.346 . S
C56 C55 1.346 . S
C56 C57 1.395 1_556 S
C56 H78 0.921 1_556 S
C57 C52 1.382 1_554 S
C57 C56 1.395 1_554 S
C57 H79 0.929 . S
C58 O68 1.271 . S
C58 O69 1.251 . S
C59 O70 1.252 . S
C59 O71 1.272 . S
O60 Sm40 2.543 . S
O60 C42 1.261 . S
O61 Sm40 2.450 . S
O61 C42 1.242 . S
O62 Sm40 2.681 1_556 S
O62 Sm41 2.386 1_556 S
O62 C49 1.271 . S
O63 Sm40 2.464 1_556 S
O63 C49 1.251 . S
O64 Sm40 2.396 . S
O64 C50 1.252 . S
O65 Sm41 2.408 . S
O65 C50 1.272 . S
O66 Sm41 2.543 1_556 S
O66 C51 1.261 . S
O67 Sm41 2.450 . S
O67 C51 1.242 1_554 S
O68 Sm40 2.386 . S
O68 Sm41 2.681 . S
O68 C58 1.271 . S
O69 Sm41 2.464 . S
O69 C58 1.251 . S
O70 Sm41 2.396 . S
O70 C59 1.252 . S
O71 Sm40 2.408 . S
O71 C59 1.272 . S
H72 C44 0.930 . S
H73 C45 0.929 . S
H74 C47 0.930 . S
H75 C48 0.929 . S
H76 C53 0.930 . S
H77 C54 0.929 . S
H78 C56 0.921 1_554 S
H79 C57 0.929 . S
Sm80 C82 2.846 . S
Sm80 O100 2.543 . S
Sm80 O101 2.450 . S
Sm80 O102 2.681 . S
Sm80 O103 2.464 . S
Sm80 O104 2.396 . S
Sm80 O108 2.386 . S
Sm80 O111 2.408 . S
Sm81 C91 2.846 . S
Sm81 O102 2.386 . S
Sm81 O105 2.408 . S
Sm81 O106 2.543 . S
Sm81 O107 2.450 . S
Sm81 O108 2.681 . S
Sm81 O109 2.464 . S
Sm81 O110 2.396 . S
C82 Sm80 2.846 . S
C82 C83 1.506 . S
C82 O100 1.261 . S
C82 O101 1.242 . S
C83 C82 1.506 . S
C83 C84 1.358 . S
C83 C88 1.382 . S
C84 C83 1.358 . S
C84 C85 1.385 . S
C84 H112 0.930 . S
C85 C84 1.385 . S
C85 C86 1.395 . S
C85 H113 0.929 . S
C86 C85 1.395 . S
C86 C87 1.335 . S
C87 C86 1.335 . S
C87 C88 1.398 . S
C87 H114 0.930 . S
C88 C83 1.382 . S
C88 C87 1.398 . S
C88 H115 0.929 . S
C89 O102 1.271 1_554 S
C89 O103 1.251 1_554 S
C90 O104 1.252 . S
C90 O105 1.272 . S
C91 Sm81 2.846 . S
C91 C92 1.506 . S
C91 O106 1.261 . S
C91 O107 1.242 . S
C92 C91 1.506 . S
C92 C93 1.353 1_556 S
C92 C97 1.382 . S
C93 C92 1.353 1_554 S
C93 C94 1.387 . S
C93 H116 0.933 . S
C94 C93 1.387 . S
C94 C95 1.395 1_554 S
C94 H117 0.929 . S
C95 C94 1.395 1_556 S
C95 C96 1.335 . S
C96 C95 1.335 . S
C96 C97 1.398 . S
C96 H118 0.930 . S
C97 C92 1.382 . S
C97 C96 1.398 . S
C97 H119 0.929 . S
C98 O108 1.271 . S
C98 O109 1.251 . S
C99 O110 1.252 . S
C99 O111 1.272 . S
O100 Sm80 2.543 . S
O100 C82 1.261 . S
O101 Sm80 2.450 . S
O101 C82 1.242 . S
O102 Sm80 2.681 . S
O102 Sm81 2.386 . S
O102 C89 1.271 1_556 S
O103 Sm80 2.464 . S
O103 C89 1.251 1_556 S
O104 Sm80 2.396 . S
O104 C90 1.252 . S
O105 Sm81 2.408 . S
O105 C90 1.272 . S
O106 Sm81 2.543 . S
O106 C91 1.261 . S
O107 Sm81 2.450 . S
O107 C91 1.242 . S
O108 Sm80 2.386 . S
O108 Sm81 2.681 . S
O108 C98 1.271 . S
O109 Sm81 2.464 . S
O109 C98 1.251 . S
O110 Sm81 2.396 . S
O110 C99 1.252 . S
O111 Sm80 2.408 . S
O111 C99 1.272 . S
H112 C84 0.930 . S
H113 C85 0.929 . S
H114 C87 0.930 . S
H115 C88 0.929 . S
H116 C93 0.933 . S
H117 C94 0.929 . S
H118 C96 0.930 . S
H119 C97 0.929 . S
Sm120 C122 2.846 . S
Sm120 O140 2.543 . S
Sm120 O141 2.450 1_554 S
Sm120 O142 2.681 1_554 S
Sm120 O143 2.464 1_554 S
Sm120 O144 2.396 . S
Sm120 O148 2.386 . S
Sm120 O151 2.408 1_554 S
Sm121 C131 2.846 1_554 S
Sm121 O142 2.386 1_554 S
Sm121 O145 2.408 . S
Sm121 O146 2.543 1_554 S
Sm121 O147 2.450 . S
Sm121 O148 2.681 . S
Sm121 O149 2.464 . S
Sm121 O150 2.397 1_554 S
C122 Sm120 2.846 . S
C122 C123 1.506 . S
C122 O140 1.261 . S
C122 O141 1.242 1_554 S
C123 C122 1.506 . S
C123 C124 1.358 . S
C123 C128 1.382 . S
C124 C123 1.358 . S
C124 C125 1.385 . S
C124 H152 0.930 . S
C125 C124 1.385 . S
C125 C126 1.395 . S
C125 H153 0.929 . S
C126 C125 1.395 . S
C126 C127 1.335 . S
C127 C126 1.335 . S
C127 C128 1.398 . S
C127 H154 0.930 . S
C128 C123 1.382 . S
C128 C127 1.398 . S
C128 H155 0.929 1_554 S
C129 O142 1.271 . S
C129 O143 1.251 . S
C130 O144 1.252 . S
C130 O145 1.272 . S
C131 Sm121 2.846 1_556 S
C131 C132 1.506 . S
C131 O146 1.261 . S
C131 O147 1.242 1_556 S
C132 C131 1.506 . S
C132 C133 1.358 . S
C132 C137 1.382 . S
C133 C132 1.358 . S
C133 C134 1.385 . S
C133 H156 0.930 . S
C134 C133 1.385 . S
C134 C135 1.395 . S
C134 H157 0.929 . S
C135 C134 1.395 . S
C135 C136 1.335 . S
C136 C135 1.335 . S
C136 C137 1.398 . S
C136 H158 0.930 . S
C137 C132 1.382 . S
C137 C136 1.398 . S
C137 H159 0.929 1_556 S
C138 O148 1.271 . S
C138 O149 1.251 . S
C139 O150 1.256 . S
C139 O151 1.272 . S
O140 Sm120 2.543 . S
O140 C122 1.261 . S
O141 Sm120 2.450 1_556 S
O141 C122 1.242 1_556 S
O142 Sm120 2.681 1_556 S
O142 Sm121 2.386 1_556 S
O142 C129 1.271 . S
O143 Sm120 2.464 1_556 S
O143 C129 1.251 . S
O144 Sm120 2.396 . S
O144 C130 1.252 . S
O145 Sm121 2.408 . S
O145 C130 1.272 . S
O146 Sm121 2.543 1_556 S
O146 C131 1.261 . S
O147 Sm121 2.450 . S
O147 C131 1.242 1_554 S
O148 Sm120 2.386 . S
O148 Sm121 2.681 . S
O148 C138 1.271 . S
O149 Sm121 2.464 . S
O149 C138 1.251 . S
O150 Sm121 2.397 1_556 S
O150 C139 1.256 . S
O151 Sm120 2.408 1_556 S
O151 C139 1.272 . S
H152 C124 0.930 . S
H153 C125 0.929 . S
H154 C127 0.930 . S
H155 C128 0.929 1_556 S
H156 C133 0.930 . S
H157 C134 0.929 . S
H158 C136 0.930 . S
H159 C137 0.929 1_554 S
Sm160 C162 2.846 . S
Sm160 O180 2.543 . S
Sm160 O181 2.450 . S
Sm160 O182 2.681 . S
Sm160 O183 2.464 . S
Sm160 O184 2.396 . S
Sm160 O188 2.386 . S
Sm160 O191 2.408 . S
Sm161 C171 2.846 . S
Sm161 O182 2.386 . S
Sm161 O185 2.408 . S
Sm161 O186 2.543 . S
Sm161 O187 2.450 . S
Sm161 O188 2.681 . S
Sm161 O189 2.464 1_556 S
Sm161 O190 2.396 . S
C162 Sm160 2.846 . S
C162 C163 1.506 . S
C162 O180 1.261 . S
C162 O181 1.242 . S
C163 C162 1.506 . S
C163 C164 1.358 . S
C163 C168 1.382 . S
C164 C163 1.358 . S
C164 C165 1.385 . S
C164 H192 0.930 . S
C165 C164 1.385 . S
C165 C166 1.395 . S
C165 H193 0.929 . S
C166 C165 1.395 . S
C166 C167 1.335 . S
C167 C166 1.335 . S
C167 C168 1.398 . S
C167 H194 0.930 . S
C168 C163 1.382 . S
C168 C167 1.398 . S
C168 H195 0.929 . S
C169 O182 1.271 . S
C169 O183 1.251 . S
C170 O184 1.252 . S
C170 O185 1.272 . S
C171 Sm161 2.846 . S
C171 C172 1.506 . S
C171 O186 1.261 . S
C171 O187 1.242 . S
C172 C171 1.506 . S
C172 C173 1.358 . S
C172 C177 1.382 1_556 S
C173 C172 1.358 . S
C173 C174 1.385 . S
C173 H196 0.930 . S
C174 C173 1.385 . S
C174 C175 1.395 . S
C174 H197 0.929 . S
C175 C174 1.395 . S
C175 C176 1.335 1_556 S
C176 C175 1.335 1_554 S
C176 C177 1.398 . S
C176 H198 0.930 . S
C177 C172 1.382 1_554 S
C177 C176 1.398 . S
C177 H199 0.929 . S
C178 O188 1.271 1_554 S
C178 O189 1.251 . S
C179 O190 1.252 . S
C179 O191 1.272 . S
O180 Sm160 2.543 . S
O180 C162 1.261 . S
O181 Sm160 2.450 . S
O181 C162 1.242 . S
O182 Sm160 2.681 . S
O182 Sm161 2.386 . S
O182 C169 1.271 . S
O183 Sm160 2.464 . S
O183 C169 1.251 . S
O184 Sm160 2.396 . S
O184 C170 1.252 . S
O185 Sm161 2.408 . S
O185 C170 1.272 . S
O186 Sm161 2.543 . S
O186 C171 1.261 . S
O187 Sm161 2.450 . S
O187 C171 1.242 . S
O188 Sm160 2.386 . S
O188 Sm161 2.681 . S
O188 C178 1.271 1_556 S
O189 Sm161 2.464 1_554 S
O189 C178 1.251 . S
O190 Sm161 2.396 . S
O190 C179 1.252 . S
O191 Sm160 2.408 . S
O191 C179 1.272 . S
H192 C164 0.930 . S
H193 C165 0.929 . S
H194 C167 0.930 . S
H195 C168 0.929 . S
H196 C173 0.930 . S
H197 C174 0.929 . S
H198 C176 0.930 . S
H199 C177 0.929 . S
Sm200 C202 2.846 . S
Sm200 O220 2.543 . S
Sm200 O221 2.450 1_554 S
Sm200 O222 2.681 1_554 S
Sm200 O223 2.464 1_554 S
Sm200 O224 2.396 . S
Sm200 O228 2.386 . S
Sm200 O231 2.408 1_554 S
Sm201 C211 2.846 1_554 S
Sm201 O222 2.386 1_554 S
Sm201 O225 2.408 . S
Sm201 O226 2.543 1_554 S
Sm201 O227 2.450 . S
Sm201 O228 2.681 . S
Sm201 O229 2.464 . S
Sm201 O230 2.396 . S
C202 Sm200 2.846 . S
C202 C203 1.506 . S
C202 O220 1.261 . S
C202 O221 1.242 1_554 S
C203 C202 1.506 . S
C203 C204 1.358 . S
C203 C208 1.382 . S
C204 C203 1.358 . S
C204 C205 1.385 . S
C204 H232 0.930 . S
C205 C204 1.385 . S
C205 C206 1.395 . S
C205 H233 0.929 . S
C206 C205 1.395 . S
C206 C207 1.335 . S
C207 C206 1.335 . S
C207 C208 1.398 . S
C207 H234 0.930 1_544 S
C208 C203 1.382 . S
C208 C207 1.398 . S
C208 H235 0.929 1_554 S
C209 O222 1.271 . S
C209 O223 1.251 . S
C210 O224 1.252 . S
C210 O225 1.272 . S
C211 Sm201 2.846 1_556 S
C211 C212 1.506 . S
C211 O226 1.261 . S
C211 O227 1.242 1_556 S
C212 C211 1.506 . S
C212 C213 1.358 . S
C212 C217 1.382 1_556 S
C213 C212 1.358 . S
C213 C214 1.385 . S
C213 H236 0.930 . S
C214 C213 1.385 . S
C214 C215 1.395 . S
C214 H237 0.929 . S
C215 C214 1.395 . S
C215 C216 1.335 1_556 S
C216 C215 1.335 1_554 S
C216 C217 1.398 . S
C216 H238 0.930 . S
C217 C212 1.382 1_554 S
C217 C216 1.398 . S
C217 H239 0.929 . S
C218 O228 1.271 . S
C218 O229 1.251 . S
C219 O230 1.252 1_556 S
C219 O231 1.272 . S
O220 Sm200 2.543 . S
O220 C202 1.261 . S
O221 Sm200 2.450 1_556 S
O221 C202 1.242 1_556 S
O222 Sm200 2.681 1_556 S
O222 Sm201 2.386 1_556 S
O222 C209 1.271 . S
O223 Sm200 2.464 1_556 S
O223 C209 1.251 . S
O224 Sm200 2.396 . S
O224 C210 1.252 . S
O225 Sm201 2.408 . S
O225 C210 1.272 . S
O226 Sm201 2.543 1_556 S
O226 C211 1.261 . S
O227 Sm201 2.450 . S
O227 C211 1.242 1_554 S
O228 Sm200 2.386 . S
O228 Sm201 2.681 . S
O228 C218 1.271 . S
O229 Sm201 2.464 . S
O229 C218 1.251 . S
O230 Sm201 2.396 . S
O230 C219 1.252 1_554 S
O231 Sm200 2.408 1_556 S
O231 C219 1.272 . S
H232 C204 0.930 . S
H233 C205 0.929 . S
H234 C207 0.930 1_566 S
H235 C208 0.929 1_556 S
H236 C213 0.930 . S
H237 C214 0.929 . S
H238 C216 0.930 . S
H239 C217 0.929 . S
H240 C248 0.929 . S
H241 C250 0.930 . S
H242 C252 0.930 . S
H243 C255 0.929 . S
H244 C258 0.930 . S
H245 C260 0.960 . S
H246 C260 0.960 . S
H247 C260 0.960 . S
C248 H240 0.929 . S
C248 C249 1.377 . S
C248 C250 1.384 . S
C249 C248 1.377 . S
C249 C255 1.390 . S
C250 H241 0.930 . S
C250 C248 1.384 . S
C250 C251 1.372 . S
C251 C250 1.372 . S
C251 C252 1.400 . S
C251 C256 1.490 . S
C252 H242 0.930 . S
C252 C251 1.400 . S
C252 C255 1.386 . S
H253 C269 0.930 . S
H254 C270 0.931 . S
C255 H243 0.929 . S
C255 C249 1.390 . S
C255 C252 1.386 . S
C256 C251 1.490 . S
C256 C258 1.395 . S
C256 C259 1.403 . S
H257 C263 0.930 . S
C258 H244 0.930 . S
C258 C256 1.395 . S
C258 C261 1.403 . S
C259 C256 1.403 . S
C259 C260 1.524 . S
C259 C263 1.400 . S
C260 H245 0.960 . S
C260 H246 0.960 . S
C260 H247 0.960 . S
C260 C259 1.524 . S
C261 C258 1.403 . S
C261 C262 1.392 . S
C261 C265 1.495 . S
C262 C261 1.392 . S
C262 C263 1.385 . S
C262 C264 1.478 . S
C263 H257 0.930 . S
C263 C259 1.400 . S
C263 C262 1.385 . S
C264 C262 1.478 . S
C264 C266 1.381 . S
C264 C270 1.383 . S
C265 C261 1.495 . S
C265 H271 0.959 . S
C265 H272 0.961 . S
C265 H273 0.960 . S
C266 C264 1.381 . S
C266 C267 1.394 . S
C266 H274 0.930 . S
C267 C266 1.394 . S
C267 C268 1.383 . S
C267 H275 0.929 . S
C268 C267 1.383 . S
C268 C269 1.377 . S
C269 H253 0.930 . S
C269 C268 1.377 . S
C269 C270 1.379 . S
C270 H254 0.931 . S
C270 C264 1.383 . S
C270 C269 1.379 . S
H271 C265 0.959 . S
H272 C265 0.961 . S
H273 C265 0.960 . S
H274 C266 0.930 . S
H275 C267 0.929 . S
H276 C284 0.929 . S
H277 C286 0.930 . S
H278 C288 0.930 . S
H279 C291 0.929 . S
H280 C294 0.930 . S
H281 C296 0.960 . S
H282 C296 0.960 . S
H283 C296 0.960 . S
C284 H276 0.929 . S
C284 C285 1.377 . S
C284 C286 1.384 . S
C285 C284 1.377 . S
C285 C291 1.390 . S
C286 H277 0.930 . S
C286 C284 1.384 . S
C286 C287 1.372 . S
C287 C286 1.372 . S
C287 C288 1.400 . S
C287 C292 1.490 . S
C288 H278 0.930 . S
C288 C287 1.400 . S
C288 C291 1.386 . S
H289 C305 0.930 . S
H290 C306 0.931 . S
C291 H279 0.929 . S
C291 C285 1.390 . S
C291 C288 1.386 . S
C292 C287 1.490 . S
C292 C294 1.395 . S
C292 C295 1.403 . S
H293 C299 0.930 . S
C294 H280 0.930 . S
C294 C292 1.395 . S
C294 C297 1.403 . S
C295 C292 1.403 . S
C295 C296 1.524 . S
C295 C299 1.400 . S
C296 H281 0.960 . S
C296 H282 0.960 . S
C296 H283 0.960 . S
C296 C295 1.524 . S
C297 C294 1.403 . S
C297 C298 1.392 . S
C297 C301 1.495 . S
C298 C297 1.392 . S
C298 C299 1.385 . S
C298 C300 1.478 . S
C299 H293 0.930 . S
C299 C295 1.400 . S
C299 C298 1.385 . S
C300 C298 1.478 . S
C300 C302 1.381 . S
C300 C306 1.383 . S
C301 C297 1.495 . S
C301 H307 0.959 . S
C301 H308 0.961 . S
C301 H309 0.960 . S
C302 C300 1.381 . S
C302 C303 1.394 . S
C302 H310 0.930 . S
C303 C302 1.394 . S
C303 C304 1.383 . S
C303 H311 0.929 1_455 S
C304 C303 1.383 . S
C304 C305 1.377 . S
C305 H289 0.930 . S
C305 C304 1.377 . S
C305 C306 1.379 . S
C306 H290 0.931 . S
C306 C300 1.383 . S
C306 C305 1.379 . S
H307 C301 0.959 . S
H308 C301 0.961 . S
H309 C301 0.960 . S
H310 C302 0.930 . S
H311 C303 0.929 1_655 S
H312 C320 0.929 . S
H313 C322 0.930 . S
H314 C324 0.935 . S
H315 C327 0.929 . S
H316 C330 0.930 . S
H317 C332 0.960 . S
H318 C332 0.960 . S
H319 C332 0.960 . S
C320 H312 0.929 . S
C320 C321 1.377 . S
C320 C322 1.384 . S
C321 C320 1.377 . S
C321 C327 1.390 . S
C322 H313 0.930 . S
C322 C320 1.384 . S
C322 C323 1.372 . S
C323 C322 1.372 . S
C323 C324 1.400 . S
C323 C328 1.490 . S
C324 H314 0.935 . S
C324 C323 1.400 . S
C324 C327 1.386 . S
H325 C341 0.930 . S
H326 C342 0.931 . S
C327 H315 0.929 . S
C327 C321 1.390 . S
C327 C324 1.386 . S
C328 C323 1.490 . S
C328 C330 1.395 . S
C328 C331 1.403 1_545 S
H329 C335 0.930 . S
C330 H316 0.930 . S
C330 C328 1.395 . S
C330 C333 1.403 . S
C331 C328 1.403 1_565 S
C331 C332 1.524 . S
C331 C335 1.400 . S
C332 H317 0.960 . S
C332 H318 0.960 . S
C332 H319 0.960 . S
C332 C331 1.524 . S
C333 C330 1.403 . S
C333 C334 1.392 1_545 S
C333 C337 1.495 . S
C334 C333 1.392 1_565 S
C334 C335 1.385 . S
C334 C336 1.478 . S
C335 H329 0.930 . S
C335 C331 1.400 . S
C335 C334 1.385 . S
C336 C334 1.478 . S
C336 C338 1.381 . S
C336 C342 1.383 . S
C337 C333 1.495 . S
C337 H343 0.959 . S
C337 H344 0.961 . S
C337 H345 0.960 . S
C338 C336 1.381 . S
C338 C339 1.394 . S
C338 H346 0.930 . S
C339 C338 1.394 . S
C339 C340 1.383 . S
C339 H347 0.929 . S
C340 C339 1.383 . S
C340 C341 1.377 . S
C341 H325 0.930 . S
C341 C340 1.377 . S
C341 C342 1.379 . S
C342 H326 0.931 . S
C342 C336 1.383 . S
C342 C341 1.379 . S
H343 C337 0.959 . S
H344 C337 0.961 . S
H345 C337 0.960 . S
H346 C338 0.930 . S
H347 C339 0.929 . S
H348 C356 0.929 . S
H349 C358 0.930 . S
H350 C360 0.930 . S
H351 C363 0.929 . S
H352 C366 0.930 . S
H353 C368 0.960 . S
H354 C368 0.960 . S
H355 C368 0.960 . S
C356 H348 0.929 . S
C356 C357 1.377 . S
C356 C358 1.384 . S
C357 C356 1.377 . S
C357 C363 1.390 . S
C358 H349 0.930 . S
C358 C356 1.384 . S
C358 C359 1.372 . S
C359 C358 1.372 . S
C359 C360 1.400 . S
C359 C364 1.490 . S
C360 H350 0.930 . S
C360 C359 1.400 . S
C360 C363 1.386 . S
H361 C377 0.930 . S
H362 C378 0.931 . S
C363 H351 0.929 . S
C363 C357 1.390 . S
C363 C360 1.386 . S
C364 C359 1.490 . S
C364 C366 1.395 . S
C364 C367 1.403 . S
H365 C371 0.930 . S
C366 H352 0.930 . S
C366 C364 1.395 . S
C366 C369 1.403 . S
C367 C364 1.403 . S
C367 C368 1.524 . S
C367 C371 1.400 . S
C368 H353 0.960 . S
C368 H354 0.960 . S
C368 H355 0.960 . S
C368 C367 1.524 . S
C369 C366 1.403 . S
C369 C370 1.392 . S
C369 C373 1.495 . S
C370 C369 1.392 . S
C370 C371 1.385 . S
C370 C372 1.478 . S
C371 H365 0.930 . S
C371 C367 1.400 . S
C371 C370 1.385 . S
C372 C370 1.478 . S
C372 C374 1.381 . S
C372 C378 1.383 . S
C373 C369 1.495 . S
C373 H379 0.959 . S
C373 H380 0.961 . S
C373 H381 0.960 . S
C374 C372 1.381 . S
C374 C375 1.394 . S
C374 H382 0.930 . S
C375 C374 1.394 . S
C375 C376 1.383 . S
C375 H383 0.929 . S
C376 C375 1.383 . S
C376 C377 1.377 . S
C377 H361 0.930 . S
C377 C376 1.377 . S
C377 C378 1.379 . S
C378 H362 0.931 . S
C378 C372 1.383 . S
C378 C377 1.379 . S
H379 C373 0.959 . S
H380 C373 0.961 . S
H381 C373 0.960 . S
H382 C374 0.930 . S
H383 C375 0.929 . S
H384 C392 0.929 . S
H385 C394 0.930 . S
H386 C396 0.930 . S
H387 C399 0.929 . S
H388 C402 0.930 . S
H389 C404 0.960 . S
H390 C404 0.960 . S
H391 C404 0.960 . S
C392 H384 0.929 . S
C392 C393 1.377 . S
C392 C394 1.384 . S
C393 C392 1.377 . S
C393 C399 1.390 . S
C394 H385 0.930 . S
C394 C392 1.384 . S
C394 C395 1.372 . S
C395 C394 1.372 . S
C395 C396 1.400 . S
C395 C400 1.490 . S
C396 H386 0.930 . S
C396 C395 1.400 . S
C396 C399 1.386 . S
H397 C413 0.930 . S
H398 C414 0.931 . S
C399 H387 0.929 . S
C399 C393 1.390 . S
C399 C396 1.386 . S
C400 C395 1.490 . S
C400 C402 1.395 1_455 S
C400 C403 1.403 . S
H401 C407 0.930 . S
C402 H388 0.930 . S
C402 C400 1.395 1_655 S
C402 C405 1.403 . S
C403 C400 1.403 . S
C403 C404 1.524 . S
C403 C407 1.400 1_455 S
C404 H389 0.960 . S
C404 H390 0.960 . S
C404 H391 0.960 . S
C404 C403 1.524 . S
C405 C402 1.403 . S
C405 C406 1.392 . S
C405 C409 1.495 . S
C406 C405 1.392 . S
C406 C407 1.385 . S
C406 C408 1.478 . S
C407 H401 0.930 . S
C407 C403 1.400 1_655 S
C407 C406 1.385 . S
C408 C406 1.478 . S
C408 C410 1.381 . S
C408 C414 1.383 . S
C409 C405 1.495 . S
C409 H415 0.959 . S
C409 H416 0.961 . S
C409 H417 0.960 . S
C410 C408 1.381 . S
C410 C411 1.394 . S
C410 H418 0.930 . S
C411 C410 1.394 . S
C411 C412 1.383 . S
C411 H419 0.929 . S
C412 C411 1.383 . S
C412 C413 1.377 . S
C413 H397 0.930 . S
C413 C412 1.377 . S
C413 C414 1.379 . S
C414 H398 0.931 . S
C414 C408 1.383 . S
C414 C413 1.379 . S
H415 C409 0.959 . S
H416 C409 0.961 . S
H417 C409 0.960 . S
H418 C410 0.930 . S
H419 C411 0.929 . S
H420 C428 0.929 . S
H421 C430 0.930 . S
H422 C432 0.930 . S
H423 C435 0.929 . S
H424 C438 0.930 . S
H425 C440 0.960 . S
H426 C440 0.960 . S
H427 C440 0.960 . S
C428 H420 0.929 . S
C428 C429 1.377 . S
C428 C430 1.384 . S
C429 C428 1.377 . S
C429 C435 1.390 . S
C430 H421 0.930 . S
C430 C428 1.384 . S
C430 C431 1.372 . S
C431 C430 1.372 . S
C431 C432 1.400 . S
C431 C436 1.490 . S
C432 H422 0.930 . S
C432 C431 1.400 . S
C432 C435 1.386 . S
H433 C449 0.917 1_545 S
H434 C450 0.931 1_545 S
C435 H423 0.929 . S
C435 C429 1.390 . S
C435 C432 1.386 . S
C436 C431 1.490 . S
C436 C438 1.395 . S
C436 C439 1.403 . S
H437 C443 0.930 . S
C438 H424 0.930 . S
C438 C436 1.395 . S
C438 C441 1.403 . S
C439 C436 1.403 . S
C439 C440 1.524 . S
C439 C443 1.400 . S
C440 H425 0.960 . S
C440 H426 0.960 . S
C440 H427 0.960 . S
C440 C439 1.524 . S
C441 C438 1.403 . S
C441 C442 1.392 . S
C441 C445 1.495 . S
C442 C441 1.392 . S
C442 C443 1.385 . S
C442 C444 1.478 . S
C443 H437 0.930 . S
C443 C439 1.400 . S
C443 C442 1.385 . S
C444 C442 1.478 . S
C444 C446 1.381 . S
C444 C450 1.383 . S
C445 C441 1.495 . S
C445 H451 0.959 . S
C445 H452 0.961 . S
C445 H453 0.960 . S
C446 C444 1.381 . S
C446 C447 1.394 . S
C446 H454 0.930 . S
C447 C446 1.394 . S
C447 C448 1.383 . S
C447 H455 0.929 . S
C448 C447 1.383 . S
C448 C449 1.381 . S
C449 H433 0.917 1_565 S
C449 C448 1.381 . S
C449 C450 1.387 . S
C450 H434 0.931 1_565 S
C450 C444 1.383 . S
C450 C449 1.387 . S
H451 C445 0.959 . S
H452 C445 0.961 . S
H453 C445 0.960 . S
H454 C446 0.930 . S
H455 C447 0.929 . S
H456 C464 0.929 1_554 S
H457 C466 0.930 1_554 S
H458 C468 0.930 . S
H459 C471 0.929 . S
H460 C474 0.930 . S
H461 C476 0.960 . S
H462 C476 0.960 . S
H463 C476 0.960 . S
C464 H456 0.929 1_556 S
C464 C465 1.377 . S
C464 C466 1.384 . S
C465 C464 1.377 . S
C465 C471 1.390 . S
C466 H457 0.930 1_556 S
C466 C464 1.384 . S
C466 C467 1.372 . S
C467 C466 1.372 . S
C467 C468 1.400 . S
C467 C472 1.490 . S
C468 H458 0.930 . S
C468 C467 1.400 . S
C468 C471 1.386 . S
H469 C485 0.930 . S
H470 C486 0.931 . S
C471 H459 0.929 . S
C471 C465 1.390 . S
C471 C468 1.386 . S
C472 C467 1.490 . S
C472 C474 1.395 . S
C472 C475 1.403 . S
H473 C479 0.930 . S
C474 H460 0.930 . S
C474 C472 1.395 . S
C474 C477 1.403 . S
C475 C472 1.403 . S
C475 C476 1.524 . S
C475 C479 1.400 . S
C476 H461 0.960 . S
C476 H462 0.960 . S
C476 H463 0.960 . S
C476 C475 1.524 . S
C477 C474 1.403 . S
C477 C478 1.392 . S
C477 C481 1.495 . S
C478 C477 1.392 . S
C478 C479 1.385 . S
C478 C480 1.478 . S
C479 H473 0.930 . S
C479 C475 1.400 . S
C479 C478 1.385 . S
C480 C478 1.478 . S
C480 C482 1.381 . S
C480 C486 1.383 . S
C481 C477 1.495 . S
C481 H487 0.959 . S
C481 H488 0.961 . S
C481 H489 0.960 . S
C482 C480 1.381 . S
C482 C483 1.394 . S
C482 H490 0.930 1_556 S
C483 C482 1.394 . S
C483 C484 1.383 . S
C483 H491 0.929 1_556 S
C484 C483 1.383 . S
C484 C485 1.377 . S
C485 H469 0.930 . S
C485 C484 1.377 . S
C485 C486 1.379 . S
C486 H470 0.931 . S
C486 C480 1.383 . S
C486 C485 1.379 . S
H487 C481 0.959 . S
H488 C481 0.961 . S
H489 C481 0.960 . S
H490 C482 0.930 1_554 S
H491 C483 0.929 1_554 S
H492 C500 0.929 . S
H493 C502 0.930 . S
H494 C504 0.930 . S
H495 C507 0.929 . S
H496 C510 0.930 . S
H497 C512 0.960 . S
H498 C512 0.960 . S
H499 C512 0.960 1_554 S
C500 H492 0.929 . S
C500 C501 1.377 . S
C500 C502 1.384 . S
C501 C500 1.377 . S
C501 C507 1.390 1_556 S
C502 H493 0.930 . S
C502 C500 1.384 . S
C502 C503 1.372 . S
C503 C502 1.372 . S
C503 C504 1.400 1_556 S
C503 C508 1.490 . S
C504 H494 0.930 . S
C504 C503 1.400 1_554 S
C504 C507 1.386 . S
H505 C521 0.930 1_554 S
H506 C522 0.930 . S
C507 H495 0.929 . S
C507 C501 1.390 1_554 S
C507 C504 1.386 . S
C508 C503 1.490 . S
C508 C510 1.395 . S
C508 C511 1.403 . S
H509 C515 0.930 . S
C510 H496 0.930 . S
C510 C508 1.395 . S
C510 C513 1.403 . S
C511 C508 1.403 . S
C511 C512 1.524 . S
C511 C515 1.400 . S
C512 H497 0.960 . S
C512 H498 0.960 . S
C512 H499 0.960 1_556 S
C512 C511 1.524 . S
C513 C510 1.403 . S
C513 C514 1.392 . S
C513 C517 1.495 . S
C514 C513 1.392 . S
C514 C515 1.385 . S
C514 C516 1.478 . S
C515 H509 0.930 . S
C515 C511 1.400 . S
C515 C514 1.385 . S
C516 C514 1.478 . S
C516 C518 1.381 . S
C516 C522 1.384 1_556 S
C517 C513 1.495 . S
C517 H523 0.959 . S
C517 H524 0.961 . S
C517 H525 0.960 . S
C518 C516 1.381 . S
C518 C519 1.394 . S
C518 H526 0.930 . S
C519 C518 1.394 . S
C519 C520 1.383 . S
C519 H527 0.929 . S
C520 C519 1.383 . S
C520 C521 1.377 . S
C521 H505 0.930 1_556 S
C521 C520 1.377 . S
C521 C522 1.380 1_556 S
C522 H506 0.930 . S
C522 C516 1.384 1_554 S
C522 C521 1.380 1_554 S
H523 C517 0.959 . S
H524 C517 0.961 . S
H525 C517 0.960 . S
H526 C518 0.930 . S
H527 C519 0.929 . S
H528 C536 0.929 . S
H529 C538 0.930 . S
H530 C540 0.930 . S
H531 C543 0.929 . S
H532 C546 0.930 . S
H533 C548 0.960 . S
H534 C548 0.960 . S
H535 C548 0.960 . S
C536 H528 0.929 . S
C536 C537 1.377 . S
C536 C538 1.384 . S
C537 C536 1.377 . S
C537 C543 1.390 . S
C538 H529 0.930 . S
C538 C536 1.384 . S
C538 C539 1.372 . S
C539 C538 1.372 . S
C539 C540 1.400 . S
C539 C544 1.490 . S
C540 H530 0.930 . S
C540 C539 1.400 . S
C540 C543 1.386 . S
H541 C557 0.930 . S
H542 C558 0.931 . S
C543 H531 0.929 . S
C543 C537 1.390 . S
C543 C540 1.386 . S
C544 C539 1.490 . S
C544 C546 1.395 . S
C544 C547 1.403 . S
H545 C551 0.930 . S
C546 H532 0.930 . S
C546 C544 1.395 . S
C546 C549 1.403 . S
C547 C544 1.403 . S
C547 C548 1.524 . S
C547 C551 1.400 . S
C548 H533 0.960 . S
C548 H534 0.960 . S
C548 H535 0.960 . S
C548 C547 1.524 . S
C549 C546 1.403 . S
C549 C550 1.392 . S
C549 C553 1.495 . S
C550 C549 1.392 . S
C550 C551 1.385 . S
C550 C552 1.478 . S
C551 H545 0.930 . S
C551 C547 1.400 . S
C551 C550 1.385 . S
C552 C550 1.478 . S
C552 C554 1.381 . S
C552 C558 1.383 . S
C553 C549 1.495 . S
C553 H559 0.959 . S
C553 H560 0.961 . S
C553 H561 0.960 . S
C554 C552 1.381 . S
C554 C555 1.394 . S
C554 H562 0.930 . S
C555 C554 1.394 . S
C555 C556 1.383 . S
C555 H563 0.929 . S
C556 C555 1.383 . S
C556 C557 1.377 . S
C557 H541 0.930 . S
C557 C556 1.377 . S
C557 C558 1.379 . S
C558 H542 0.931 . S
C558 C552 1.383 . S
C558 C557 1.379 . S
H559 C553 0.959 . S
H560 C553 0.961 . S
H561 C553 0.960 . S
H562 C554 0.930 . S
H563 C555 0.929 . S
H564 C572 0.929 . S
H565 C574 0.930 . S
H566 C576 0.930 . S
H567 C579 0.929 . S
H568 C582 0.930 . S
H569 C584 0.960 . S
H570 C584 0.960 . S
H571 C584 0.960 . S
C572 H564 0.929 . S
C572 C573 1.377 . S
C572 C574 1.384 . S
C573 C572 1.377 . S
C573 C579 1.390 . S
C574 H565 0.930 . S
C574 C572 1.384 . S
C574 C575 1.372 . S
C575 C574 1.372 . S
C575 C576 1.400 . S
C575 C580 1.490 . S
C576 H566 0.930 . S
C576 C575 1.400 . S
C576 C579 1.386 . S
H577 C593 0.930 . S
H578 C594 0.931 . S
C579 H567 0.929 . S
C579 C573 1.390 . S
C579 C576 1.386 . S
C580 C575 1.490 . S
C580 C582 1.395 1_556 S
C580 C583 1.403 . S
H581 C587 0.930 . S
C582 H568 0.930 . S
C582 C580 1.395 1_554 S
C582 C585 1.403 . S
C583 C580 1.403 . S
C583 C584 1.524 . S
C583 C587 1.400 . S
C584 H569 0.960 . S
C584 H570 0.960 . S
C584 H571 0.960 . S
C584 C583 1.524 . S
C585 C582 1.403 . S
C585 C586 1.392 1_554 S
C585 C589 1.495 . S
C586 C585 1.392 1_556 S
C586 C587 1.385 . S
C586 C588 1.478 . S
C587 H581 0.930 . S
C587 C583 1.400 . S
C587 C586 1.385 . S
C588 C586 1.478 . S
C588 C590 1.381 1_556 S
C588 C594 1.383 . S
C589 C585 1.495 . S
C589 H595 0.959 . S
C589 H596 0.961 . S
C589 H597 0.960 . S
C590 C588 1.381 1_554 S
C590 C591 1.394 . S
C590 H598 0.930 . S
C591 C590 1.394 . S
C591 C592 1.383 . S
C591 H599 0.929 . S
C592 C591 1.383 . S
C592 C593 1.377 1_554 S
C593 H577 0.930 . S
C593 C592 1.377 1_556 S
C593 C594 1.379 . S
C594 H578 0.931 . S
C594 C588 1.383 . S
C594 C593 1.379 . S
H595 C589 0.959 . S
H596 C589 0.961 . S
H597 C589 0.960 . S
H598 C590 0.930 . S
H599 C591 0.929 . S
H600 C608 0.929 . S
H601 C610 0.930 . S
H602 C612 0.930 . S
H603 C615 0.929 . S
H604 C618 0.930 . S
H605 C620 0.960 . S
H606 C620 0.960 . S
H607 C620 0.960 1_554 S
C608 H600 0.929 . S
C608 C609 1.377 . S
C608 C610 1.384 . S
C609 C608 1.377 . S
C609 C615 1.390 1_556 S
C610 H601 0.930 . S
C610 C608 1.384 . S
C610 C611 1.372 . S
C611 C610 1.372 . S
C611 C612 1.400 1_556 S
C611 C616 1.490 . S
C612 H602 0.930 . S
C612 C611 1.400 1_554 S
C612 C615 1.386 . S
H613 C629 0.930 . S
H614 C630 0.931 . S
C615 H603 0.929 . S
C615 C609 1.390 1_554 S
C615 C612 1.386 . S
C616 C611 1.490 . S
C616 C618 1.395 . S
C616 C619 1.403 . S
H617 C623 0.930 . S
C618 H604 0.930 . S
C618 C616 1.395 . S
C618 C621 1.403 . S
C619 C616 1.403 . S
C619 C620 1.524 . S
C619 C623 1.400 . S
C620 H605 0.960 . S
C620 H606 0.960 . S
C620 H607 0.960 1_556 S
C620 C619 1.524 . S
C621 C618 1.403 . S
C621 C622 1.392 . S
C621 C625 1.495 . S
C622 C621 1.392 . S
C622 C623 1.385 . S
C622 C624 1.478 . S
C623 H617 0.930 . S
C623 C619 1.400 . S
C623 C622 1.385 . S
C624 C622 1.478 . S
C624 C626 1.381 . S
C624 C630 1.383 1_556 S
C625 C621 1.495 . S
C625 H631 0.959 . S
C625 H632 0.961 . S
C625 H633 0.960 . S
C626 C624 1.381 . S
C626 C627 1.394 . S
C626 H634 0.930 . S
C627 C626 1.394 . S
C627 C628 1.383 . S
C627 H635 0.929 . S
C628 C627 1.383 . S
C628 C629 1.377 1_556 S
C629 H613 0.930 . S
C629 C628 1.377 1_554 S
C629 C630 1.379 . S
C630 H614 0.931 . S
C630 C624 1.383 1_554 S
C630 C629 1.379 . S
H631 C625 0.959 . S
H632 C625 0.961 . S
H633 C625 0.960 . S
H634 C626 0.930 . S
H635 C627 0.929 . S
H636 C644 0.929 . S
H637 C646 0.930 . S
H638 C648 0.930 . S
H639 C651 0.929 . S
H640 C654 0.930 . S
H641 C656 0.960 . S
H642 C656 0.960 . S
H643 C656 0.960 . S
C644 H636 0.929 . S
C644 C645 1.377 . S
C644 C646 1.384 . S
C645 C644 1.377 . S
C645 C651 1.390 . S
C646 H637 0.930 . S
C646 C644 1.384 . S
C646 C647 1.372 . S
C647 C646 1.372 . S
C647 C648 1.400 . S
C647 C652 1.490 . S
C648 H638 0.930 . S
C648 C647 1.400 . S
C648 C651 1.386 . S
H649 C665 0.930 . S
H650 C666 0.931 . S
C651 H639 0.929 . S
C651 C645 1.390 . S
C651 C648 1.386 . S
C652 C647 1.490 . S
C652 C654 1.395 1_556 S
C652 C655 1.403 . S
H653 C659 0.930 . S
C654 H640 0.930 . S
C654 C652 1.395 1_554 S
C654 C657 1.403 . S
C655 C652 1.403 . S
C655 C656 1.524 . S
C655 C659 1.400 . S
C656 H641 0.960 . S
C656 H642 0.960 . S
C656 H643 0.960 . S
C656 C655 1.524 . S
C657 C654 1.403 . S
C657 C658 1.392 1_554 S
C657 C661 1.495 . S
C658 C657 1.392 1_556 S
C658 C659 1.385 . S
C658 C660 1.478 . S
C659 H653 0.930 . S
C659 C655 1.400 . S
C659 C658 1.385 . S
C660 C658 1.478 . S
C660 C662 1.381 . S
C660 C666 1.383 . S
C661 C657 1.495 . S
C661 H667 0.959 . S
C661 H668 0.961 . S
C661 H669 0.960 . S
C662 C660 1.381 . S
C662 C663 1.394 . S
C662 H670 0.930 . S
C663 C662 1.394 . S
C663 C664 1.383 . S
C663 H671 0.929 . S
C664 C663 1.383 . S
C664 C665 1.377 . S
C665 H649 0.930 . S
C665 C664 1.377 . S
C665 C666 1.379 . S
C666 H650 0.931 . S
C666 C660 1.383 . S
C666 C665 1.379 . S
H667 C661 0.959 . S
H668 C661 0.961 . S
H669 C661 0.960 . S
H670 C662 0.930 . S
H671 C663 0.929 . S
H672 C680 0.929 . S
H673 C682 0.930 . S
H674 C684 0.930 . S
H675 C687 0.929 . S
H676 C690 0.930 . S
H677 C692 0.960 . S
H678 C692 0.960 . S
H679 C692 0.960 . S
C680 H672 0.929 . S
C680 C681 1.377 . S
C680 C682 1.384 . S
C681 C680 1.377 . S
C681 C687 1.390 . S
C682 H673 0.930 . S
C682 C680 1.384 . S
C682 C683 1.372 . S
C683 C682 1.372 . S
C683 C684 1.400 . S
C683 C688 1.490 . S
C684 H674 0.930 . S
C684 C683 1.400 . S
C684 C687 1.386 . S
H685 C701 0.930 1_556 S
H686 C702 0.931 . S
C687 H675 0.929 . S
C687 C681 1.390 . S
C687 C684 1.386 . S
C688 C683 1.490 . S
C688 C690 1.395 . S
C688 C691 1.403 . S
H689 C695 0.930 . S
C690 H676 0.930 . S
C690 C688 1.395 . S
C690 C693 1.403 . S
C691 C688 1.403 . S
C691 C692 1.524 . S
C691 C695 1.400 . S
C692 H677 0.960 . S
C692 H678 0.960 . S
C692 H679 0.960 . S
C692 C691 1.524 . S
C693 C690 1.403 . S
C693 C694 1.392 . S
C693 C697 1.495 . S
C694 C693 1.392 . S
C694 C695 1.385 . S
C694 C696 1.478 . S
C695 H689 0.930 . S
C695 C691 1.400 . S
C695 C694 1.385 . S
C696 C694 1.478 . S
C696 C698 1.381 . S
C696 C702 1.383 . S
C697 C693 1.495 . S
C697 H703 0.959 . S
C697 H704 0.961 . S
C697 H705 0.960 . S
C698 C696 1.381 . S
C698 C699 1.394 1_554 S
C698 H706 0.930 . S
C699 C698 1.394 1_556 S
C699 C700 1.383 . S
C699 H707 0.929 . S
C700 C699 1.383 . S
C700 C701 1.377 1_556 S
C701 H685 0.930 1_554 S
C701 C700 1.377 1_554 S
C701 C702 1.379 . S
C702 H686 0.931 . S
C702 C696 1.383 . S
C702 C701 1.379 . S
H703 C697 0.959 . S
H704 C697 0.961 . S
H705 C697 0.960 . S
H706 C698 0.930 . S
H707 C699 0.929 . S
H708 C716 0.929 . S
H709 C718 0.930 . S
H710 C720 0.930 . S
H711 C723 0.929 . S
H712 C726 0.930 . S
H713 C728 0.960 . S
H714 C728 0.960 . S
H715 C728 0.960 . S
C716 H708 0.929 . S
C716 C717 1.377 . S
C716 C718 1.384 . S
C717 C716 1.377 . S
C717 C723 1.390 . S
C718 H709 0.930 . S
C718 C716 1.384 . S
C718 C719 1.372 . S
C719 C718 1.372 . S
C719 C720 1.400 . S
C719 C724 1.490 . S
C720 H710 0.930 . S
C720 C719 1.400 . S
C720 C723 1.386 . S
H721 C737 0.930 . S
H722 C738 0.931 . S
C723 H711 0.929 . S
C723 C717 1.390 . S
C723 C720 1.386 . S
C724 C719 1.490 . S
C724 C726 1.395 . S
C724 C727 1.403 . S
H725 C731 0.930 . S
C726 H712 0.930 . S
C726 C724 1.395 . S
C726 C729 1.403 . S
C727 C724 1.403 . S
C727 C728 1.524 . S
C727 C731 1.400 . S
C728 H713 0.960 . S
C728 H714 0.960 . S
C728 H715 0.960 . S
C728 C727 1.524 . S
C729 C726 1.403 . S
C729 C730 1.392 . S
C729 C733 1.495 . S
C730 C729 1.392 . S
C730 C731 1.385 . S
C730 C732 1.478 . S
C731 H725 0.930 . S
C731 C727 1.400 . S
C731 C730 1.385 . S
C732 C730 1.478 . S
C732 C734 1.381 . S
C732 C738 1.383 . S
C733 C729 1.495 . S
C733 H739 0.959 . S
C733 H740 0.961 . S
C733 H741 0.960 . S
C734 C732 1.381 . S
C734 C735 1.394 . S
C734 H742 0.930 . S
C735 C734 1.394 . S
C735 C736 1.383 . S
C735 H743 0.929 . S
C736 C735 1.383 . S
C736 C737 1.377 . S
C737 H721 0.930 . S
C737 C736 1.377 . S
C737 C738 1.379 . S
C738 H722 0.931 . S
C738 C732 1.383 . S
C738 C737 1.379 . S
H739 C733 0.959 . S
H740 C733 0.961 . S
H741 C733 0.960 . S
H742 C734 0.930 . S
H743 C735 0.929 . S
H744 C752 0.929 . S
H745 C754 0.930 . S
H746 C756 0.930 . S
H747 C759 0.929 . S
H748 C762 0.930 . S
H749 C764 0.960 . S
H750 C764 0.960 . S
H751 C764 0.960 . S
C752 H744 0.929 . S
C752 C753 1.377 . S
C752 C754 1.384 . S
C753 C752 1.377 . S
C753 C759 1.390 . S
C754 H745 0.930 . S
C754 C752 1.384 . S
C754 C755 1.372 . S
C755 C754 1.372 . S
C755 C756 1.400 . S
C755 C760 1.490 . S
C756 H746 0.930 . S
C756 C755 1.400 . S
C756 C759 1.386 . S
H757 C773 0.930 . S
H758 C774 0.931 . S
C759 H747 0.929 . S
C759 C753 1.390 . S
C759 C756 1.386 . S
C760 C755 1.490 . S
C760 C762 1.395 . S
C760 C763 1.403 . S
H761 C767 0.930 . S
C762 H748 0.930 . S
C762 C760 1.395 . S
C762 C765 1.403 . S
C763 C760 1.403 . S
C763 C764 1.524 . S
C763 C767 1.400 . S
C764 H749 0.960 . S
C764 H750 0.960 . S
C764 H751 0.960 . S
C764 C763 1.524 . S
C765 C762 1.403 . S
C765 C766 1.392 . S
C765 C769 1.495 . S
C766 C765 1.392 . S
C766 C767 1.385 . S
C766 C768 1.478 . S
C767 H761 0.930 . S
C767 C763 1.400 . S
C767 C766 1.385 . S
C768 C766 1.478 . S
C768 C770 1.381 . S
C768 C774 1.383 . S
C769 C765 1.495 . S
C769 H775 0.959 . S
C769 H776 0.961 . S
C769 H777 0.960 . S
C770 C768 1.381 . S
C770 C771 1.394 . S
C770 H778 0.930 . S
C771 C770 1.394 . S
C771 C772 1.383 . S
C771 H779 0.929 1_554 S
C772 C771 1.383 . S
C772 C773 1.377 . S
C773 H757 0.930 . S
C773 C772 1.377 . S
C773 C774 1.379 . S
C774 H758 0.931 . S
C774 C768 1.383 . S
C774 C773 1.379 . S
H775 C769 0.959 . S
H776 C769 0.961 . S
H777 C769 0.960 . S
H778 C770 0.930 . S
H779 C771 0.929 1_556 S
H780 C788 0.929 . S
H781 C790 0.930 . S
H782 C792 0.930 . S
H783 C795 0.929 . S
H784 C798 0.930 . S
H785 C800 0.960 . S
H786 C800 0.960 . S
H787 C800 0.960 . S
C788 H780 0.929 . S
C788 C789 1.377 . S
C788 C790 1.384 . S
C789 C788 1.377 . S
C789 C795 1.390 . S
C790 H781 0.930 . S
C790 C788 1.384 . S
C790 C791 1.372 . S
C791 C790 1.372 . S
C791 C792 1.400 . S
C791 C796 1.490 . S
C792 H782 0.930 . S
C792 C791 1.400 . S
C792 C795 1.386 . S
H793 C809 0.930 . S
H794 C810 0.931 . S
C795 H783 0.929 . S
C795 C789 1.390 . S
C795 C792 1.386 . S
C796 C791 1.490 . S
C796 C798 1.395 . S
C796 C799 1.403 . S
H797 C803 0.930 . S
C798 H784 0.930 . S
C798 C796 1.395 . S
C798 C801 1.403 . S
C799 C796 1.403 . S
C799 C800 1.524 . S
C799 C803 1.400 . S
C800 H785 0.960 . S
C800 H786 0.960 . S
C800 H787 0.960 . S
C800 C799 1.524 . S
C801 C798 1.403 . S
C801 C802 1.392 . S
C801 C805 1.495 . S
C802 C801 1.392 . S
C802 C803 1.385 . S
C802 C804 1.478 . S
C803 H797 0.930 . S
C803 C799 1.400 . S
C803 C802 1.385 . S
C804 C802 1.478 . S
C804 C806 1.381 . S
C804 C810 1.383 . S
C805 C801 1.495 . S
C805 H811 0.959 . S
C805 H812 0.961 . S
C805 H813 0.960 . S
C806 C804 1.381 . S
C806 C807 1.394 . S
C806 H814 0.930 . S
C807 C806 1.394 . S
C807 C808 1.383 . S
C807 H815 0.929 . S
C808 C807 1.383 . S
C808 C809 1.377 . S
C809 H793 0.930 . S
C809 C808 1.377 . S
C809 C810 1.379 . S
C810 H794 0.931 . S
C810 C804 1.383 . S
C810 C809 1.379 . S
H811 C805 0.959 . S
H812 C805 0.961 . S
H813 C805 0.960 . S
H814 C806 0.930 . S
H815 C807 0.929 . S
H816 C824 0.929 . S
H817 C826 0.930 . S
H818 C828 0.930 . S
H819 C831 0.929 . S
H820 C834 0.930 . S
H821 C836 0.960 . S
H822 C836 0.960 . S
H823 C836 0.960 . S
C824 H816 0.929 . S
C824 C825 1.377 . S
C824 C826 1.384 . S
C825 C824 1.377 . S
C825 C831 1.390 . S
C826 H817 0.930 . S
C826 C824 1.384 . S
C826 C827 1.372 . S
C827 C826 1.372 . S
C827 C828 1.400 . S
C827 C832 1.490 . S
C828 H818 0.930 . S
C828 C827 1.400 . S
C828 C831 1.386 . S
H829 C845 0.930 . S
H830 C846 0.931 . S
C831 H819 0.929 . S
C831 C825 1.390 . S
C831 C828 1.386 . S
C832 C827 1.490 . S
C832 C834 1.395 . S
C832 C835 1.403 . S
H833 C839 0.930 . S
C834 H820 0.930 . S
C834 C832 1.395 . S
C834 C837 1.403 . S
C835 C832 1.403 . S
C835 C836 1.524 . S
C835 C839 1.400 . S
C836 H821 0.960 . S
C836 H822 0.960 . S
C836 H823 0.960 . S
C836 C835 1.524 . S
C837 C834 1.403 . S
C837 C838 1.392 . S
C837 C841 1.495 . S
C838 C837 1.392 . S
C838 C839 1.385 . S
C838 C840 1.478 . S
C839 H833 0.930 . S
C839 C835 1.400 . S
C839 C838 1.385 . S
C840 C838 1.478 . S
C840 C842 1.381 . S
C840 C846 1.383 . S
C841 C837 1.495 . S
C841 H847 0.959 . S
C841 H848 0.961 . S
C841 H849 0.960 . S
C842 C840 1.381 . S
C842 C843 1.394 . S
C842 H850 0.930 . S
C843 C842 1.394 . S
C843 C844 1.383 . S
C843 H851 0.929 . S
C844 C843 1.383 . S
C844 C845 1.377 . S
C845 H829 0.930 . S
C845 C844 1.377 . S
C845 C846 1.379 . S
C846 H830 0.931 . S
C846 C840 1.383 . S
C846 C845 1.379 . S
H847 C841 0.959 . S
H848 C841 0.961 . S
H849 C841 0.960 . S
H850 C842 0.930 . S
H851 C843 0.929 . S
H852 C860 0.929 . S
H853 C862 0.930 . S
H854 C864 0.930 . S
H855 C867 0.929 . S
H856 C870 0.930 . S
H857 C872 0.960 . S
H858 C872 0.960 . S
H859 C872 0.960 . S
C860 H852 0.929 . S
C860 C861 1.377 . S
C860 C862 1.384 . S
C861 C860 1.377 . S
C861 C867 1.390 . S
C862 H853 0.930 . S
C862 C860 1.384 . S
C862 C863 1.372 . S
C863 C862 1.372 . S
C863 C864 1.400 . S
C863 C868 1.490 . S
C864 H854 0.930 . S
C864 C863 1.400 . S
C864 C867 1.386 . S
H865 C881 0.930 . S
H866 C882 0.931 . S
C867 H855 0.929 . S
C867 C861 1.390 . S
C867 C864 1.386 . S
C868 C863 1.490 . S
C868 C870 1.395 . S
C868 C871 1.403 . S
H869 C875 0.930 . S
C870 H856 0.930 . S
C870 C868 1.395 . S
C870 C873 1.403 . S
C871 C868 1.403 . S
C871 C872 1.524 . S
C871 C875 1.400 . S
C872 H857 0.960 . S
C872 H858 0.960 . S
C872 H859 0.960 . S
C872 C871 1.524 . S
C873 C870 1.403 . S
C873 C874 1.392 . S
C873 C877 1.495 . S
C874 C873 1.392 . S
C874 C875 1.385 . S
C874 C876 1.478 . S
C875 H869 0.930 . S
C875 C871 1.400 . S
C875 C874 1.385 . S
C876 C874 1.478 . S
C876 C878 1.381 . S
C876 C882 1.383 . S
C877 C873 1.495 . S
C877 H883 0.959 . S
C877 H884 0.961 . S
C877 H885 0.960 . S
C878 C876 1.381 . S
C878 C879 1.394 . S
C878 H886 0.930 . S
C879 C878 1.394 . S
C879 C880 1.383 . S
C879 H887 0.929 . S
C880 C879 1.383 . S
C880 C881 1.377 . S
C881 H865 0.930 . S
C881 C880 1.377 . S
C881 C882 1.379 . S
C882 H866 0.931 . S
C882 C876 1.383 . S
C882 C881 1.379 . S
H883 C877 0.959 . S
H884 C877 0.961 . S
H885 C877 0.960 . S
H886 C878 0.930 . S
H887 C879 0.929 . S
C249 C210 3.565 . S
C268 C6 3.501 . S
C285 C10 3.449 . S
C304 C46 3.276 1_455 S
C321 C50 2.597 . S
C340 C90 2.585 . S
C357 C126 2.310 . S
C376 C86 2.182 . S
C393 C166 2.669 . S
C412 C130 3.003 . S
C429 C170 1.905 . S
C448 C206 1.957 1_565 S
C465 C179 2.418 . S
C484 C15 2.365 . S
C501 C219 3.236 . S
C520 C55 3.230 . S
C537 C99 3.736 . S
C556 C19 3.760 . S
C573 C135 2.035 . S
C592 C59 2.082 . S
C609 C175 0.892 . S
C628 C95 0.882 . S
C645 C139 1.285 . S
C664 C215 1.307 . S
C681 C9 0.445 . S
C700 C18 0.461 . S
C717 C49 0.393 . S
C736 C58 0.411 . S
C753 C98 0.417 . S
C772 C89 0.411 . S
C789 C129 0.362 . S
C808 C138 0.383 . S
C825 C178 0.517 . S
C844 C169 0.449 . S
C861 C209 0.301 . S
C880 C218 0.287 . S
