# Generated by pormake.
# Topology tsi, (8)-cn, num edge types: 1
# Building blocks:
#     Node 0, Type 0, BuildingBlock: AJUNOK_clean_sbu_0, # of connection points: 8
#     Node 1, Type 0, BuildingBlock: AJUNOK_clean_sbu_0, # of connection points: 8
#     Node 2, Type 0, BuildingBlock: AJUNOK_clean_sbu_0, # of connection points: 8
#     Node 3, Type 0, BuildingBlock: AJUNOK_clean_sbu_0, # of connection points: 8
#     Edge 4, Type (0, 0), BuildingBlock: MIFKUJ_clean_linker_0, # of connection points: 2
#     Edge 5, Type (0, 0), BuildingBlock: MIFKUJ_clean_linker_0, # of connection points: 2
#     Edge 6, Type (0, 0), BuildingBlock: MIFKUJ_clean_linker_0, # of connection points: 2
#     Edge 7, Type (0, 0), BuildingBlock: MIFKUJ_clean_linker_0, # of connection points: 2
#     Edge 8, Type (0, 0), BuildingBlock: MIFKUJ_clean_linker_0, # of connection points: 2
#     Edge 9, Type (0, 0), BuildingBlock: MIFKUJ_clean_linker_0, # of connection points: 2
#     Edge 10, Type (0, 0), BuildingBlock: MIFKUJ_clean_linker_0, # of connection points: 2
#     Edge 11, Type (0, 0), BuildingBlock: MIFKUJ_clean_linker_0, # of connection points: 2
#     Edge 12, Type (0, 0), BuildingBlock: MIFKUJ_clean_linker_0, # of connection points: 2
#     Edge 13, Type (0, 0), BuildingBlock: MIFKUJ_clean_linker_0, # of connection points: 2
#     Edge 14, Type (0, 0), BuildingBlock: MIFKUJ_clean_linker_0, # of connection points: 2
#     Edge 15, Type (0, 0), BuildingBlock: MIFKUJ_clean_linker_0, # of connection points: 2
#     Edge 16, Type (0, 0), BuildingBlock: MIFKUJ_clean_linker_0, # of connection points: 2
#     Edge 17, Type (0, 0), BuildingBlock: MIFKUJ_clean_linker_0, # of connection points: 2
#     Edge 18, Type (0, 0), BuildingBlock: MIFKUJ_clean_linker_0, # of connection points: 2
#     Edge 19, Type (0, 0), BuildingBlock: MIFKUJ_clean_linker_0, # of connection points: 2
# Relax obj value: 0.176
# Max RMSD: 0.228
# Mean RMSD: 0.228
data_MOF--net-tsi--node1-AJUNOK_clean_sbu_0--edge1-MIFKUJ_clean_linker_0
_symmetry_space_group_name_H-M    P1
_symmetry_Int_Tables_number       1
_symmetry_cell_setting            triclinic
loop_
_symmetry_equiv_pos_as_xyz
'x, y, z'
_cell_length_a     19.898281
_cell_length_b     20.038072
_cell_length_c     91.853183
_cell_angle_alpha  90.078115
_cell_angle_beta   89.996783
_cell_angle_gamma 89.602029
loop_
_atom_site_label
_atom_site_type_symbol
_atom_site_fract_x
_atom_site_fract_y
_atom_site_fract_z
_atom_type_partial_charge
Cd0 Cd 0.98667 0.17572 0.38582 0.0
Cd1 Cd 0.01313 0.39328 0.39269 0.0
C2 C 0.07117 0.16692 0.35581 0.0
N3 N 0.00706 0.17698 0.36048 0.0
C4 C 0.96917 0.18761 0.3358 0.0
C5 C 0.03538 0.1783 0.33065 0.0
C6 C 0.08657 0.16844 0.34101 0.0
C7 C 0.95621 0.18722 0.35082 0.0
H8 H 0.11093 0.15769 0.36355 0.0
H9 H 0.90551 0.19485 0.35477 0.0
C10 C 0.86549 0.31565 0.39067 0.0
C11 C 0.93273 0.44499 0.42024 0.0
C12 C 0.92252 0.46423 0.43468 0.0
C13 C 0.95789 0.43186 0.44591 0.0
C14 C -0.0004 0.37727 0.44221 0.0
C15 C 0.00828 0.35949 0.42754 0.0
N16 N 0.97573 0.39414 0.41692 0.0
H17 H 0.90978 0.47375 0.41159 0.0
H18 H 0.04461 0.32138 0.4246 0.0
C19 C 0.93355 0.42276 0.36302 0.0
N20 N 0.99092 0.39171 0.36751 0.0
C21 C 0.01274 0.35363 0.34321 0.0
C22 C 0.95186 0.38223 0.33851 0.0
C23 C 0.91254 0.41783 0.34857 0.0
C24 C 0.03102 0.35819 0.35792 0.0
H25 H 0.90304 0.45007 0.37077 0.0
H26 H 0.07639 0.33384 0.36173 0.0
C27 C 0.13834 0.25744 0.39051 0.0
C28 C 0.91036 0.05988 0.3906 0.0
N29 N 0.02532 0.15372 0.40944 0.0
C30 C 0.07429 0.10691 0.41137 0.0
C31 C 0.08722 0.08097 0.42519 0.0
C32 C 0.04764 0.10126 0.43713 0.0
C33 C -0.00112 0.15147 0.43485 0.0
C34 C 0.98854 0.17707 0.42085 0.0
C35 C 0.07327 0.51621 0.39947 0.0
O36 O 0.90499 0.26621 0.38895 0.0
O37 O 0.89074 0.37261 0.393 0.0
O38 O 0.10445 0.31113 0.39162 0.0
O39 O 0.10836 0.2025 0.38835 0.0
O40 O 0.8882 0.11748 0.39376 0.0
O41 O 0.96547 0.05657 0.38359 0.0
O42 O 0.09987 0.46142 0.40324 0.0
O43 O 0.02321 0.51353 0.3909 0.0
H44 H 0.10117 0.08722 0.40205 0.0
H45 H 0.9482 0.21246 0.41892 0.0
H46 H 0.92756 0.19474 0.32837 0.0
H47 H 0.13865 0.16277 0.33782 0.0
H48 H 0.88924 0.50595 0.43695 0.0
H49 H 0.02865 0.35136 0.45044 0.0
H50 H 0.0444 0.32591 0.33572 0.0
H51 H 0.86568 0.44122 0.3453 0.0
H52 H 0.1263 0.04351 0.42635 0.0
H53 H 0.96621 0.16813 0.44357 0.0
Cd54 Cd 0.09773 0.73015 0.63234 0.0
Cd55 Cd 0.91431 0.74204 0.64738 0.0
C56 C 0.11846 0.81386 0.60297 0.0
N57 N 0.10137 0.75109 0.60707 0.0
C58 C 0.08078 0.72108 0.58218 0.0
C59 C 0.09271 0.78725 0.57784 0.0
C60 C 0.11411 0.83311 0.58843 0.0
C61 C 0.08497 0.70406 0.59698 0.0
H62 H 0.13423 0.84974 0.61104 0.0
H63 H 0.07244 0.65411 0.60045 0.0
C64 C 0.9953 0.59654 0.63776 0.0
C65 C 0.88574 0.66195 0.67621 0.0
C66 C 0.86576 0.65434 0.69066 0.0
C67 C 0.88501 0.70171 0.70108 0.0
C68 C 0.92747 0.75389 0.69683 0.0
C69 C 0.94509 0.76054 0.68211 0.0
N70 N 0.92337 0.71519 0.67214 0.0
H71 H 0.86602 0.62865 0.668 0.0
H72 H 0.97193 0.80429 0.67851 0.0
C73 C 0.87831 0.66492 0.6179 0.0
N74 N 0.90666 0.72335 0.62213 0.0
C75 C 0.93104 0.75061 0.59732 0.0
C76 C 0.90745 0.68786 0.59276 0.0
C77 C 0.87847 0.64599 0.60328 0.0
C78 C 0.93102 0.76703 0.61215 0.0
H79 H 0.85754 0.63176 0.626 0.0
H80 H 0.95213 0.81383 0.61568 0.0
C81 C 0.01639 0.87969 0.63963 0.0
C82 C 0.22862 0.69253 0.63954 0.0
N83 N 0.09242 0.74631 0.65792 0.0
C84 C 0.12114 0.80256 0.66339 0.0
C85 C 0.13896 0.80661 0.67807 0.0
C86 C 0.12879 0.75172 0.68729 0.0
C87 C 0.0976 0.69489 0.6815 0.0
C88 C 0.08069 0.69289 0.6667 0.0
C89 C 0.78068 0.77104 0.65478 0.0
O90 O 0.03435 0.6279 0.62928 0.0
O91 O 0.95754 0.62727 0.64674 0.0
O92 O 0.96701 0.84946 0.64519 0.0
O93 O 0.06404 0.84755 0.63365 0.0
O94 O 0.18149 0.65048 0.63954 0.0
O95 O 0.21718 0.74842 0.6335 0.0
O96 O 0.8269 0.81281 0.65698 0.0
O97 O 0.79555 0.71888 0.64758 0.0
H98 H 0.13527 0.84262 0.65618 0.0
H99 H 0.06315 0.64674 0.66206 0.0
H100 H 0.06497 0.68383 0.57437 0.0
H101 H 0.12658 0.88393 0.58554 0.0
H102 H 0.83248 0.61386 0.69354 0.0
H103 H 0.94245 0.79183 0.70456 0.0
H104 H 0.95284 0.78533 0.58968 0.0
H105 H 0.85695 0.59839 0.60032 0.0
H106 H 0.1633 0.85131 0.68202 0.0
H107 H 0.09035 0.6508 0.68811 0.0
Cd108 Cd 0.53514 0.66998 0.90003 0.0
Cd109 Cd 0.50155 0.84238 0.8835 0.0
C110 C 0.62276 0.66321 0.87124 0.0
N111 N 0.55658 0.66944 0.87461 0.0
C112 C 0.52825 0.66417 0.84922 0.0
C113 C 0.59707 0.66229 0.84532 0.0
C114 C 0.64417 0.66233 0.8568 0.0
C115 C 0.50915 0.6688 0.86394 0.0
H116 H 0.65953 0.65987 0.87986 0.0
H117 H 0.45647 0.67087 0.86681 0.0
C118 C 0.37422 0.72168 0.89188 0.0
C119 C 0.45995 0.8325 0.91844 0.0
C120 C 0.46078 0.85266 0.93304 0.0
C121 C 0.5134 0.89266 0.93821 0.0
C122 C 0.56535 0.90943 0.92859 0.0
C123 C 0.56215 0.88894 0.91407 0.0
N124 N 0.51 0.85123 0.90922 0.0
H125 H 0.41758 0.80481 0.9144 0.0
H126 H 0.59985 0.90583 0.90646 0.0
C127 C 0.3979 0.83805 0.85698 0.0
N128 N 0.46517 0.83246 0.8592 0.0
C129 C 0.48322 0.81909 0.83357 0.0
C130 C 0.41331 0.81908 0.83114 0.0
C131 C 0.37071 0.83032 0.84309 0.0
C132 C 0.50822 0.82506 0.84779 0.0
H133 H 0.36526 0.84906 0.86601 0.0
H134 H 0.56182 0.82313 0.84974 0.0
C135 C 0.6507 0.78283 0.8927 0.0
C136 C 0.60969 0.55172 0.90461 0.0
N137 N 0.51053 0.67722 0.92529 0.0
C138 C 0.56435 0.69045 0.93393 0.0
C139 C 0.56117 0.68023 0.94896 0.0
C140 C 0.50175 0.65645 0.95536 0.0
C141 C 0.44545 0.64756 0.94627 0.0
C142 C 0.45119 0.65734 0.93119 0.0
C143 C 0.4936 0.98071 0.88556 0.0
O144 O 0.41033 0.67452 0.89698 0.0
O145 O 0.40152 0.77503 0.88747 0.0
O146 O 0.62039 0.80549 0.88155 0.0
O147 O 0.61651 0.76027 0.90324 0.0
O148 O 0.55176 0.54974 0.89881 0.0
O149 O 0.63195 0.6081 0.90825 0.0
O150 O 0.54066 0.9525 0.87848 0.0
O151 O 0.44496 0.94467 0.88956 0.0
H152 H 0.61152 0.70478 0.92906 0.0
H153 H 0.4092 0.64561 0.92421 0.0
H154 H 0.48895 0.6623 0.84112 0.0
H155 H 0.69769 0.66251 0.85491 0.0
H156 H 0.41972 0.83867 0.94013 0.0
H157 H 0.60612 0.94122 0.93207 0.0
H158 H 0.51825 0.81302 0.82465 0.0
H159 H 0.31675 0.83401 0.84173 0.0
H160 H 0.60645 0.68703 0.9553 0.0
H161 H 0.39808 0.63047 0.95064 0.0
Cd162 Cd 0.55142 0.23701 0.14684 0.0
Cd163 Cd 0.35672 0.22468 0.12967 0.0
C164 C 0.57282 0.37006 0.12553 0.0
N165 N 0.57179 0.30196 0.12516 0.0
C166 C 0.5853 0.30422 0.09919 0.0
C167 C 0.57788 0.37377 0.09919 0.0
C168 C 0.5734 0.40703 0.1126 0.0
C169 C 0.58141 0.26921 0.1123 0.0
H170 H 0.57081 0.39611 0.13582 0.0
H171 H 0.58396 0.21558 0.11201 0.0
C172 C 0.44197 0.09402 0.14765 0.0
C173 C 0.25543 0.22597 0.15659 0.0
C174 C 0.23043 0.22639 0.1708 0.0
C175 C 0.27501 0.23011 0.18264 0.0
C176 C 0.34433 0.23393 0.17973 0.0
C177 C 0.36718 0.23364 0.16531 0.0
N178 N 0.32265 0.22936 0.15411 0.0
H179 H 0.22119 0.22219 0.14749 0.0
H180 H 0.42043 0.23625 0.16306 0.0
C181 C 0.46177 0.15575 0.10769 0.0
N182 N 0.43079 0.21556 0.11005 0.0
C183 C 0.44301 0.2445 0.08492 0.0
C184 C 0.47224 0.18174 0.08201 0.0
C185 C 0.48391 0.13821 0.09375 0.0
C186 C 0.42232 0.26036 0.09908 0.0
H187 H 0.46504 0.11949 0.11634 0.0
H188 H 0.3947 0.30614 0.10109 0.0
C189 C 0.42399 0.37104 0.14237 0.0
C190 C 0.65257 0.15482 0.13552 0.0
N191 N 0.5958 0.26413 0.16973 0.0
C192 C 0.62965 0.32214 0.17175 0.0
C193 C 0.66043 0.3357 0.18515 0.0
C194 C 0.65631 0.28911 0.19656 0.0
C195 C 0.62 0.23011 0.19415 0.0
C196 C 0.59014 0.21857 0.1806 0.0
C197 C 0.24135 0.18481 0.11362 0.0
O198 O 0.49282 0.12774 0.15165 0.0
O199 O 0.39629 0.1209 0.14 0.0
O200 O 0.37869 0.3439 0.13459 0.0
O201 O 0.47503 0.33729 0.14657 0.0
O202 O 0.59088 0.14209 0.13328 0.0
O203 O 0.66677 0.20604 0.14318 0.0
O204 O 0.24851 0.24604 0.11687 0.0
O205 O 0.28526 0.14477 0.11839 0.0
H206 H 0.63358 0.35741 0.16289 0.0
H207 H 0.56347 0.17256 0.17864 0.0
H208 H 0.59028 0.27677 0.08908 0.0
H209 H 0.5699 0.46096 0.11307 0.0
H210 H 0.17675 0.22232 0.17249 0.0
H211 H 0.38052 0.23744 0.1885 0.0
H212 H 0.43344 0.27976 0.07623 0.0
H213 H 0.5051 0.08891 0.092 0.0
H214 H 0.68712 0.38219 0.18653 0.0
H215 H 0.61617 0.19227 0.2025 0.0
H216 H 0.95307 0.56268 0.45476 0.0
H217 H 0.95024 0.60654 0.47952 0.0
H218 H 0.9542 0.40596 0.49648 0.0
H219 H 0.95632 0.36141 0.47163 0.0
H220 H 0.86116 0.48089 0.51013 0.0
H221 H 0.08959 0.50249 0.4967 0.0
H222 H 0.18807 0.53667 0.48238 0.0
H223 H 0.14234 0.74266 0.49099 0.0
H224 H 0.04227 0.70974 0.505 0.0
H225 H 0.93476 0.5606 0.58336 0.0
H226 H 0.94653 0.52022 0.55851 0.0
H227 H 0.91849 0.72014 0.54227 0.0
H228 H 0.90363 0.76121 0.5672 0.0
H229 H 0.02538 0.64617 0.52851 0.0
H230 H 0.79073 0.62004 0.54037 0.0
H231 H 0.6967 0.58235 0.55572 0.0
H232 H 0.76376 0.3792 0.55127 0.0
H233 H 0.85877 0.41581 0.53605 0.0
C234 C 0.95306 0.52764 0.46371 0.0
C235 C 0.95502 0.45827 0.46112 0.0
C236 C 0.952 0.55297 0.47791 0.0
C237 C 0.95273 0.50965 0.4899 0.0
C238 C 0.95393 0.44041 0.4874 0.0
C239 C 0.95551 0.41499 0.47318 0.0
C240 C 0.95032 0.53659 0.50503 0.0
C241 C 0.89766 0.51641 0.51415 0.0
C242 C 0.99737 0.58384 0.51028 0.0
C243 C 0.05729 0.60368 0.50166 0.0
C244 C 0.09965 0.55514 0.49533 0.0
C245 C 0.15596 0.57427 0.48729 0.0
C246 C 0.17119 0.6418 0.48568 0.0
C247 C 0.13028 0.69034 0.49216 0.0
C248 C 0.07364 0.67146 0.50012 0.0
C249 C 0.92957 0.59617 0.57457 0.0
C250 C 0.91629 0.66415 0.57741 0.0
C251 C 0.93719 0.57291 0.56033 0.0
C252 C 0.93241 0.61694 0.54852 0.0
C253 C 0.92196 0.68521 0.55124 0.0
C254 C 0.91352 0.70858 0.56553 0.0
C255 C 0.93611 0.59077 0.53339 0.0
C256 C 0.98896 0.61093 0.52433 0.0
C257 C 0.88985 0.54294 0.52821 0.0
C258 C 0.83216 0.52074 0.53717 0.0
C259 C 0.78567 0.56738 0.54274 0.0
C260 C 0.73216 0.5462 0.55141 0.0
C261 C 0.72435 0.47844 0.5545 0.0
C262 C 0.7699 0.43168 0.54888 0.0
C263 C 0.82354 0.4526 0.54022 0.0
H264 H 0.68292 0.46214 0.56122 0.0
H265 H 0.21495 0.65644 0.47949 0.0
H266 H 0.72026 0.6209 0.83388 0.0
H267 H 0.76293 0.63575 0.80949 0.0
H268 H 0.56942 0.70783 0.79541 0.0
H269 H 0.52645 0.69767 0.82006 0.0
H270 H 0.63711 0.60528 0.777 0.0
H271 H 0.67282 0.81465 0.79985 0.0
H272 H 0.71259 0.89497 0.81814 0.0
H273 H 0.91709 0.84221 0.8084 0.0
H274 H 0.87868 0.75818 0.79075 0.0
H275 H 0.75264 0.71046 0.7074 0.0
H276 H 0.69836 0.70452 0.73131 0.0
H277 H 0.893 0.68589 0.75169 0.0
H278 H 0.94721 0.6928 0.72767 0.0
H279 H 0.81757 0.76813 0.76672 0.0
H280 H 0.78359 0.54858 0.74716 0.0
H281 H 0.74588 0.4609 0.73021 0.0
H282 H 0.54271 0.53236 0.73374 0.0
H283 H 0.57925 0.62117 0.75054 0.0
C284 C 0.68663 0.64244 0.82595 0.0
C285 C 0.62036 0.66211 0.82964 0.0
C286 C 0.71131 0.64973 0.8118 0.0
C287 C 0.66997 0.67456 0.80072 0.0
C288 C 0.60262 0.68964 0.8039 0.0
C289 C 0.57817 0.68377 0.81816 0.0
C290 C 0.69761 0.684 0.78583 0.0
C291 C 0.67579 0.64165 0.77466 0.0
C292 C 0.74931 0.73039 0.78294 0.0
C293 C 0.77261 0.7789 0.79411 0.0
C294 C 0.72623 0.81862 0.80187 0.0
C295 C 0.74859 0.8649 0.81216 0.0
C296 C 0.81734 0.87311 0.81457 0.0
C297 C 0.86384 0.83504 0.80669 0.0
C298 C 0.84176 0.78775 0.79661 0.0
C299 C 0.78356 0.70448 0.71702 0.0
C300 C 0.85381 0.70071 0.71573 0.0
C301 C 0.7526 0.70095 0.73066 0.0
C302 C 0.79131 0.69313 0.74334 0.0
C303 C 0.86189 0.69135 0.74209 0.0
C304 C 0.89291 0.6953 0.7284 0.0
C305 C 0.7583 0.68828 0.7579 0.0
C306 C 0.77886 0.73178 0.76902 0.0
C307 C 0.70586 0.64255 0.7608 0.0
C308 C 0.6843 0.59185 0.75002 0.0
C309 C 0.731 0.54614 0.74417 0.0
C310 C 0.70975 0.49601 0.73466 0.0
C311 C 0.64188 0.49099 0.73094 0.0
C312 C 0.59521 0.5364 0.73663 0.0
C313 C 0.61615 0.5866 0.74615 0.0
H314 H 0.62552 0.45212 0.72358 0.0
H315 H 0.8346 0.90934 0.82245 0.0
H316 H 0.56937 0.71223 0.97861 0.0
H317 H 0.58062 0.66812 1.00322 0.0
H318 H 0.44147 0.51108 0.99282 0.0
H319 H 0.43264 0.55255 0.96801 0.0
H320 H 0.50611 0.64999 0.02561 0.0
H321 H 0.47961 0.36869 1.01133 0.0
H322 H 0.50843 0.28742 0.99213 0.0
H323 H 0.65987 0.41928 0.97578 0.0
H324 H 0.63236 0.50109 0.99497 0.0
H325 H 0.47832 0.46013 0.09115 0.0
H326 H 0.4618 0.51302 0.06738 0.0
H327 H 0.64682 0.42354 0.05208 0.0
H328 H 0.66138 0.36807 0.07562 0.0
H329 H 0.56058 0.41017 0.03237 0.0
H330 H 0.62684 0.59828 0.06115 0.0
H331 H 0.61903 0.67181 0.08265 0.0
H332 H 0.41761 0.7272 0.07076 0.0
H333 H 0.42395 0.65335 0.04925 0.0
C334 C 0.54143 0.66797 0.98146 0.0
C335 C 0.50109 0.63548 0.97105 0.0
C336 C 0.54745 0.6431 0.99566 0.0
C337 C 0.51311 0.58523 0.99989 0.0
C338 C 0.46991 0.55482 0.9898 0.0
C339 C 0.46417 0.57939 0.97557 0.0
C340 C 0.5237 0.55603 1.01471 0.0
C341 C 0.51799 0.5975 0.02705 0.0
C342 C 0.54012 0.48768 1.01676 0.0
C343 C 0.55325 0.44141 1.00446 0.0
C344 C 0.51861 0.3806 1.00354 0.0
C345 C 0.53476 0.33437 0.99267 0.0
C346 C 0.58562 0.34827 0.98267 0.0
C347 C 0.62013 0.40871 0.98346 0.0
C348 C 0.60409 0.45519 0.9943 0.0
C349 C 0.51581 0.45258 0.08274 0.0
C350 C 0.57142 0.41051 0.08523 0.0
C351 C 0.50647 0.48296 0.06916 0.0
C352 C 0.55352 0.47332 0.0579 0.0
C353 C 0.60963 0.43189 0.06052 0.0
C354 C 0.61818 0.40041 0.07398 0.0
C355 C 0.54327 0.50392 0.04322 0.0
C356 C 0.54857 0.46264 0.03092 0.0
C357 C 0.52844 0.57262 0.04122 0.0
C358 C 0.52563 0.61974 0.05368 0.0
C359 C 0.58083 0.62605 0.06314 0.0
C360 C 0.57662 0.66765 0.07534 0.0
C361 C 0.51762 0.70356 0.07815 0.0
C362 C 0.46307 0.69885 0.06862 0.0
C363 C 0.46702 0.65731 0.0564 0.0
H364 H 0.51442 0.73548 0.08764 0.0
H365 H 0.59854 0.31201 0.97437 0.0
H366 H 0.01686 0.40963 0.31291 0.0
H367 H 0.97357 0.39415 0.28804 0.0
H368 H 0.78873 0.31684 0.3054 0.0
H369 H 0.83141 0.33229 0.33018 0.0
H370 H 0.83578 0.24076 0.28295 0.0
H371 H 0.79842 0.47594 0.29258 0.0
H372 H 0.83408 0.58952 0.2993 0.0
H373 H 0.96975 0.59268 0.26295 0.0
H374 H 0.93558 0.47865 0.25615 0.0
H375 H 0.61011 0.26105 0.22402 0.0
H376 H 0.66811 0.27617 0.2472 0.0
H377 H 0.83821 0.35952 0.22472 0.0
H378 H 0.78057 0.34418 0.20142 0.0
H379 H 0.81062 0.43055 0.24869 0.0
H380 H 0.84536 0.20068 0.23791 0.0
H381 H 0.81426 0.08609 0.23096 0.0
H382 H 0.68982 0.07081 0.26898 0.0
H383 H 0.71947 0.18571 0.27607 0.0
C384 C 0.96702 0.38944 0.31136 0.0
C385 C 0.92722 0.3725 0.32342 0.0
C386 C 0.94231 0.38095 0.29719 0.0
C387 C 0.87782 0.35483 0.29485 0.0
C388 C 0.8386 0.33705 0.30692 0.0
C389 C 0.86283 0.34626 0.32106 0.0
C390 C 0.85065 0.34609 0.27986 0.0
C391 C 0.82959 0.28239 0.27552 0.0
C392 C 0.84491 0.39984 0.26994 0.0
C393 C 0.86493 0.46858 0.27394 0.0
C394 C 0.8362 0.50069 0.28608 0.0
C395 C 0.85609 0.56516 0.2899 0.0
C396 C 0.90427 0.59824 0.28158 0.0
C397 C 0.93246 0.56699 0.26939 0.0
C398 C 0.91281 0.50247 0.26554 0.0
C399 C 0.66007 0.28214 0.22396 0.0
C400 C 0.69071 0.30096 0.21079 0.0
C401 C 0.69323 0.29081 0.23725 0.0
C402 C 0.75808 0.31806 0.23773 0.0
C403 C 0.78829 0.3383 0.22466 0.0
C404 C 0.75508 0.32972 0.21133 0.0
C405 C 0.79391 0.32548 0.2519 0.0
C406 C 0.817 0.38878 0.25608 0.0
C407 C 0.80207 0.27122 0.26164 0.0
C408 C 0.78417 0.20204 0.25745 0.0
C409 C 0.81095 0.17308 0.24473 0.0
C410 C 0.79366 0.10803 0.24078 0.0
C411 C 0.74996 0.07125 0.2495 0.0
C412 C 0.7236 0.09939 0.26223 0.0
C413 C 0.74069 0.16445 0.26623 0.0
H414 H 0.73662 0.0209 0.24642 0.0
H415 H 0.91964 0.64814 0.28455 0.0
H416 H 0.32721 0.16221 0.206 0.0
H417 H 0.28144 0.1552 0.23066 0.0
H418 H 0.11749 0.28525 0.21838 0.0
H419 H 0.16387 0.29386 0.19378 0.0
H420 H 0.16753 0.31734 0.24512 0.0
H421 H 0.0932 0.1189 0.22071 0.0
H422 H 0.10785 0.01576 0.20634 0.0
H423 H 0.23621 0.93439 0.23954 0.0
H424 H 0.22306 0.03746 0.25402 0.0
H425 H 0.97219 0.24891 0.30869 0.0
H426 H 0.00622 0.25899 0.28323 0.0
H427 H 0.1702 0.12178 0.29088 0.0
H428 H 0.13521 0.10943 0.31605 0.0
H429 H 0.11382 0.09549 0.26579 0.0
H430 H 0.18649 0.29175 0.29068 0.0
H431 H 0.17833 0.39647 0.30464 0.0
H432 H 0.06202 0.48571 0.27038 0.0
H433 H 0.06614 0.38034 0.25653 0.0
C434 C 0.2819 0.19004 0.20858 0.0
C435 C 0.24905 0.22832 0.19786 0.0
C436 C 0.25542 0.18547 0.22266 0.0
C437 C 0.19544 0.21891 0.22633 0.0
C438 C 0.16358 0.25869 0.21579 0.0
C439 C 0.18992 0.26314 0.2017 0.0
C440 C 0.16552 0.21165 0.2411 0.0
C441 C 0.15462 0.26901 0.24959 0.0
C442 C 0.15013 0.1484 0.24701 0.0
C443 C 0.15758 0.08612 0.23839 0.0
C444 C 0.12491 0.07919 0.2249 0.0
C445 C 0.13289 0.02072 0.21674 0.0
C446 C 0.17305 0.96862 0.22201 0.0
C447 C 0.20516 0.97481 0.23547 0.0
C448 C 0.1974 0.03321 0.24366 0.0
C449 C 0.01531 0.22071 0.305 0.0
C450 C 0.05205 0.18023 0.31473 0.0
C451 C 0.03497 0.22684 0.2904 0.0
C452 C 0.0919 0.19253 0.28519 0.0
C453 C 0.12665 0.14956 0.29465 0.0
C454 C 0.10692 0.14327 0.30918 0.0
C455 C 0.11614 0.20129 0.26997 0.0
C456 C 0.12599 0.14408 0.26134 0.0
C457 C 0.13083 0.26484 0.26399 0.0
C458 C 0.12569 0.32746 0.27265 0.0
C459 C 0.15785 0.3331 0.28624 0.0
C460 C 0.15396 0.39269 0.29414 0.0
C461 C 0.11937 0.44761 0.28843 0.0
C462 C 0.08846 0.44301 0.27482 0.0
C463 C 0.09111 0.38317 0.26699 0.0
H464 H 0.11667 0.49379 0.29454 0.0
H465 H 0.17919 0.9234 0.21568 0.0
H466 H 0.25111 0.79602 0.69624 0.0
H467 H 0.29727 0.79724 0.72086 0.0
H468 H 0.11685 0.70592 0.73712 0.0
H469 H 0.06951 0.70601 0.71243 0.0
H470 H 0.14923 0.79963 0.75465 0.0
H471 H 0.27082 0.62102 0.73446 0.0
H472 H 0.34326 0.55088 0.71888 0.0
H473 H 0.50786 0.68478 0.72559 0.0
H474 H 0.43596 0.75691 0.74091 0.0
H475 H 0.30186 0.74618 0.82423 0.0
H476 H 0.25135 0.72898 0.80032 0.0
H477 H 0.40832 0.8454 0.78059 0.0
H478 H 0.45905 0.86344 0.80456 0.0
H479 H 0.38358 0.73059 0.76562 0.0
H480 H 0.24717 0.9093 0.7866 0.0
H481 H 0.17312 0.95838 0.80538 0.0
H482 H 0.03173 0.79995 0.79914 0.0
H483 H 0.10525 0.74958 0.78045 0.0
C484 C 0.22095 0.77682 0.70507 0.0
C485 C 0.15633 0.75167 0.70238 0.0
C486 C 0.24785 0.77669 0.71912 0.0
C487 C 0.21113 0.75123 0.73088 0.0
C488 C 0.14647 0.7258 0.72825 0.0
C489 C 0.1195 0.72562 0.71413 0.0
C490 C 0.23936 0.75456 0.74594 0.0
C491 C 0.20018 0.78347 0.75705 0.0
C492 C 0.3061 0.73403 0.74919 0.0
C493 C 0.34772 0.69464 0.7388 0.0
C494 C 0.32205 0.63631 0.7324 0.0
C495 C 0.36314 0.59598 0.72368 0.0
C496 C 0.43021 0.61305 0.72138 0.0
C497 C 0.45597 0.67141 0.72748 0.0
C498 C 0.41499 0.71217 0.73614 0.0
C499 C 0.32535 0.76889 0.81484 0.0
C500 C 0.3842 0.80699 0.81639 0.0
C501 C 0.29634 0.75887 0.80115 0.0
C502 C 0.32523 0.7869 0.78866 0.0
C503 C 0.38486 0.82358 0.79009 0.0
C504 C 0.41401 0.83362 0.8038 0.0
C505 C 0.29409 0.77698 0.77407 0.0
C506 C 0.33276 0.74678 0.7631 0.0
C507 C 0.22639 0.7945 0.77107 0.0
C508 C 0.18203 0.82537 0.78222 0.0
C509 C 0.20049 0.88473 0.7893 0.0
C510 C 0.15855 0.91283 0.79991 0.0
C511 C 0.0978 0.88226 0.80347 0.0
C512 C 0.07876 0.82362 0.79638 0.0
C513 C 0.12052 0.79532 0.78577 0.0
H514 H 0.06541 0.90405 0.81169 0.0
H515 H 0.46217 0.58114 0.71481 0.0
H516 H 0.40861 0.95599 0.95166 0.0
H517 H 0.4073 0.0086 0.97577 0.0
H518 H 0.61315 0.94759 0.98254 0.0
H519 H 0.61487 0.89525 0.95834 0.0
H520 H 0.52705 0.92153 1.00653 0.0
H521 H 0.58839 0.10835 0.97611 0.0
H522 H 0.57796 0.18767 0.9558 0.0
H523 H 0.37892 0.2412 0.96992 0.0
H524 H 0.38861 0.16232 0.99045 0.0
H525 H 0.57915 0.1103 0.07093 0.0
H526 H 0.59082 0.06334 0.04643 0.0
H527 H 0.40049 0.1514 0.03427 0.0
H528 H 0.38908 0.19901 0.05861 0.0
H529 H 0.48295 0.16397 1.01269 0.0
H530 H 0.41696 0.97967 0.04258 0.0
H531 H 0.42354 0.90254 0.06343 0.0
H532 H 0.62184 0.84156 0.05033 0.0
H533 H 0.61629 0.91827 0.02934 0.0
C534 C 0.45339 0.95328 0.95835 0.0
C535 C 0.51176 0.92123 0.95315 0.0
C536 C 0.45278 0.9839 0.97205 0.0
C537 C 0.51031 0.98253 0.9809 0.0
C538 C 0.5683 0.94947 0.97587 0.0
C539 C 0.56925 0.91968 0.96206 0.0
C540 C 0.5094 0.01469 0.99551 0.0
C541 C 0.51847 0.97471 1.00789 0.0
C542 C 0.4961 0.08365 0.99732 0.0
C543 C 0.48901 0.1291 0.98471 0.0
C544 C 0.54215 0.13653 0.97478 0.0
C545 C 0.5364 0.18157 0.96325 0.0
C546 C 0.47758 0.21928 0.9615 0.0
C547 C 0.42435 0.21184 0.97126 0.0
C548 C 0.43005 0.16717 0.98288 0.0
C549 C 0.53998 0.11989 0.06301 0.0
C550 C 0.48322 0.15848 0.06676 0.0
C551 C 0.54651 0.09273 0.049 0.0
C552 C 0.49594 0.10267 0.03851 0.0
C553 C 0.44026 0.14287 0.04212 0.0
C554 C 0.43396 0.17044 0.05606 0.0
C555 C 0.5004 0.07082 0.02383 0.0
C556 C 0.4918 0.11079 1.0114 0.0
C557 C 0.51304 0.00158 0.02199 0.0
C558 C 0.51657 0.9553 0.03453 0.0
C559 C 0.46212 0.9501 0.0442 0.0
C560 C 0.4656 0.90636 0.05602 0.0
C561 C 0.52335 0.86769 0.05827 0.0
C562 C 0.57732 0.87185 0.0486 0.0
C563 C 0.57394 0.91526 0.03671 0.0
H564 H 0.52636 0.83464 0.06753 0.0
H565 H 0.47331 0.25465 0.95266 0.0
H566 H 0.07833 0.97007 0.44212 0.0
H567 H 0.08403 0.91083 0.46518 0.0
H568 H 0.03252 0.09245 0.48792 0.0
H569 H 0.02963 0.15285 0.46482 0.0
H570 H 0.13 0.02972 0.50164 0.0
H571 H 0.9154 0.96455 0.48256 0.0
H572 H 0.83453 0.91826 0.46493 0.0
H573 H 0.94102 0.73117 0.46514 0.0
H574 H 0.02339 0.77714 0.48242 0.0
H575 H 0.03449 0.9041 0.56917 0.0
H576 H 0.0249 0.94858 0.5446 0.0
H577 H 0.11005 0.76689 0.52719 0.0
H578 H 0.12101 0.72192 0.55198 0.0
H579 H -0.00047 0.82333 0.51031 0.0
H580 H 0.21113 0.89025 0.53086 0.0
H581 H 0.28408 0.93734 0.54994 0.0
H582 H 0.17827 0.1244 0.5472 0.0
H583 H 0.10398 0.07807 0.52826 0.0
C584 C 0.06901 -0.00225 0.45199 0.0
C585 C 0.05335 0.06633 0.45147 0.0
C586 C 0.07136 0.96346 0.4652 0.0
C587 C 0.05746 -0.00328 0.4783 0.0
C588 C 0.04292 0.06547 0.47794 0.0
C589 C 0.04081 0.0999 0.46468 0.0
C590 C 0.05974 0.96021 0.4924 0.0
C591 C 0.10092 0.98497 0.50354 0.0
C592 C 0.02327 0.90064 0.4948 0.0
C593 C 0.97545 0.87407 0.48387 0.0
C594 C 0.92191 0.91374 0.47875 0.0
C595 C 0.87574 0.88759 0.46882 0.0
C596 C 0.88225 0.82164 0.46404 0.0
C597 C 0.93562 0.78206 0.46896 0.0
C598 C 0.98208 0.80814 0.47882 0.0
C599 C 0.05158 0.87348 0.56016 0.0
C600 C 0.08049 0.81019 0.56262 0.0
C601 C 0.0455 0.89886 0.54609 0.0
C602 C 0.06797 0.86163 0.53409 0.0
C603 C 0.0928 0.79662 0.53633 0.0
C604 C 0.09909 0.77105 0.5505 0.0
C605 C 0.06944 0.89323 0.51946 0.0
C606 C 0.02916 0.86756 0.50827 0.0
C607 C 0.10645 0.95223 0.51698 0.0
C608 C 0.15167 0.98051 0.52822 0.0
C609 C 0.20313 0.94128 0.5344 0.0
C610 C 0.24475 0.96786 0.54518 0.0
C611 C 0.23573 0.03378 0.5498 0.0
C612 C 0.18517 0.07333 0.54361 0.0
C613 C 0.14334 0.04696 0.53285 0.0
H614 H 0.26799 0.05426 0.55814 0.0
H615 H 0.84596 0.80123 0.45652 0.0
H616 H 0.9118 0.93054 0.38147 0.0
H617 H 0.90952 0.83377 0.39758 0.0
H618 H 0.8583 0.96114 0.43386 0.0
H619 H 0.85684 0.05764 0.41764 0.0
H620 H 0.99306 0.90126 0.43314 0.0
H621 H 0.76952 0.83719 0.43462 0.0
H622 H 0.65437 0.81533 0.4261 0.0
H623 H 0.7279 0.65869 0.39829 0.0
H624 H 0.84361 0.68017 0.40642 0.0
H625 H 0.08423 0.52096 0.4287 0.0
H626 H 0.04828 0.61621 0.44355 0.0
H627 H 0.046 0.74024 0.40524 0.0
H628 H 0.07842 0.64466 0.39025 0.0
H629 H 0.91208 0.66951 0.42789 0.0
H630 H 0.1086 0.8796 0.42166 0.0
H631 H 0.22557 0.90156 0.42903 0.0
H632 H 0.20581 0.76503 0.46473 0.0
H633 H 0.08856 0.74244 0.45762 0.0
C634 C 0.8961 0.93723 0.39267 0.0
C635 C 0.88488 0.00123 0.39833 0.0
C636 C 0.89455 0.88205 0.40188 0.0
C637 C 0.88377 0.89067 0.41689 0.0
C638 C 0.86574 0.9536 0.42229 0.0
C639 C 0.86502 0.00855 0.41297 0.0
C640 C 0.91045 0.83902 0.42673 0.0
C641 C 0.97465 0.85064 0.4325 0.0
C642 C 0.88502 0.77356 0.42634 0.0
C643 C 0.8155 0.76013 0.42125 0.0
C644 C 0.76128 0.79823 0.42665 0.0
C645 C 0.69583 0.78589 0.42187 0.0
C646 C 0.68381 0.73555 0.41168 0.0
C647 C 0.73726 0.6975 0.40623 0.0
C648 C 0.80283 0.70963 0.41096 0.0
C649 C 0.07967 0.5695 0.42358 0.0
C650 C 0.08341 0.57595 0.40833 0.0
C651 C 0.05872 0.62353 0.4321 0.0
C652 C 0.04389 0.68446 0.42542 0.0
C653 C 0.05776 0.69328 0.41055 0.0
C654 C 0.0763 0.63891 0.40197 0.0
C655 C 0.9971 0.73223 0.43217 0.0
C656 C 0.92876 0.7204 0.42953 0.0
C657 C 0.01886 0.79735 0.43512 0.0
C658 C 0.0896 0.81006 0.43922 0.0
C659 C 0.12912 0.85447 0.43112 0.0
C660 C 0.1955 0.86693 0.43523 0.0
C661 C 0.22303 0.83482 0.44737 0.0
C662 C 0.18436 0.78988 0.45535 0.0
C663 C 0.11799 0.7772 0.45127 0.0
H664 H 0.27437 0.84465 0.45056 0.0
H665 H 0.63309 0.72609 0.408 0.0
H666 H 0.21848 0.63627 0.66623 0.0
H667 H 0.29132 0.6593 0.68713 0.0
H668 H 0.42991 0.76024 0.65871 0.0
H669 H 0.35496 0.74196 0.63801 0.0
H670 H 0.43416 0.62341 0.68851 0.0
H671 H 0.35891 0.85681 0.66757 0.0
H672 H 0.27893 0.9493 0.67052 0.0
H673 H 0.32241 0.9575 0.71625 0.0
H674 H 0.40171 0.86309 0.71365 0.0
H675 H 0.66377 0.71185 0.64765 0.0
H676 H 0.56511 0.70137 0.66306 0.0
H677 H 0.65705 0.82602 0.69575 0.0
H678 H 0.75628 0.83803 0.68007 0.0
H679 H 0.51923 0.85503 0.691 0.0
H680 H 0.63317 0.67381 0.70831 0.0
H681 H 0.71684 0.58237 0.70854 0.0
H682 H 0.60174 0.4751 0.67685 0.0
H683 H 0.51912 0.56675 0.67589 0.0
C684 C 0.2649 0.6629 0.66444 0.0
C685 C 0.28136 0.68786 0.65056 0.0
C686 C 0.30542 0.6771 0.67643 0.0
C687 C 0.36314 0.7154 0.67455 0.0
C688 C 0.38307 0.73408 0.66044 0.0
C689 C 0.34149 0.72221 0.64858 0.0
C690 C 0.40983 0.72755 0.68657 0.0
C691 C 0.45271 0.67388 0.68968 0.0
C692 C 0.43173 0.79323 0.68945 0.0
C693 C 0.38453 0.85062 0.69053 0.0
C694 C 0.35038 0.87648 0.67834 0.0
C695 C 0.30542 0.92997 0.67992 0.0
C696 C 0.295 0.95885 0.69358 0.0
C697 C 0.33012 0.93481 0.70567 0.0
C698 C 0.37507 0.88131 0.70414 0.0
C699 C 0.66252 0.73791 0.65799 0.0
C700 C 0.71708 0.77581 0.66266 0.0
C701 C 0.60681 0.73112 0.6669 0.0
C702 C 0.60531 0.7609 0.68077 0.0
C703 C 0.65819 0.80175 0.68521 0.0
C704 C 0.71408 0.80919 0.67617 0.0
C705 C 0.5455 0.75052 0.68984 0.0
C706 C 0.50061 0.80429 0.69107 0.0
C707 C 0.52159 0.68471 0.69143 0.0
C708 C 0.56943 0.62734 0.69217 0.0
C709 C 0.62586 0.63086 0.70135 0.0
C710 C 0.67332 0.57913 0.70154 0.0
C711 C 0.66447 0.52293 0.69277 0.0
C712 C 0.60833 0.51852 0.68371 0.0
C713 C 0.56109 0.57047 0.68334 0.0
H714 H 0.70116 0.48281 0.693 0.0
H715 H 0.26018 0.00022 0.69478 0.0
H716 H 0.61634 0.43787 0.88892 0.0
H717 H 0.64866 0.32874 0.89831 0.0
H718 H 0.71488 0.41915 0.93844 0.0
H719 H 0.68491 0.52944 0.92878 0.0
H720 H 0.75935 0.25487 0.92129 0.0
H721 H 0.61147 0.38234 0.95224 0.0
H722 H 0.53965 0.47968 0.95809 0.0
H723 H 0.41289 0.43456 0.9216 0.0
H724 H 0.48437 0.33744 0.91556 0.0
H725 H 0.44774 0.01791 0.91218 0.0
H726 H 0.5021 0.09858 0.92822 0.0
H727 H 0.62737 0.16224 0.89252 0.0
H728 H 0.57506 0.0802 0.87661 0.0
H729 H 0.51347 0.22826 0.92776 0.0
H730 H 0.78055 0.18159 0.9011 0.0
H731 H 0.84585 0.08308 0.89329 0.0
H732 H 0.73163 0.95896 0.92205 0.0
H733 H 0.66653 0.05693 0.93033 0.0
C734 C 0.64065 0.43466 0.89946 0.0
C735 C 0.64637 0.4909 0.90836 0.0
C736 C 0.66021 0.37265 0.90474 0.0
C737 C 0.6827 0.36627 0.91917 0.0
C738 C 0.69744 0.42341 0.9273 0.0
C739 C 0.67955 0.48604 0.92184 0.0
C740 C 0.66569 0.30347 0.92641 0.0
C741 C 0.7063 0.24779 0.92341 0.0
C742 C 0.59709 0.29454 0.92998 0.0
C743 C 0.55288 0.35222 0.93363 0.0
C744 C 0.56791 0.39303 0.9456 0.0
C745 C 0.52743 0.44828 0.94889 0.0
C746 C 0.47145 0.46305 0.94027 0.0
C747 C 0.45606 0.42281 0.92832 0.0
C748 C 0.4965 0.36756 0.92498 0.0
C749 C 0.48544 0.05065 0.90764 0.0
C750 C 0.50747 0.04315 0.89315 0.0
C751 C 0.5173 0.09553 0.9169 0.0
C752 C 0.57078 0.13367 0.9117 0.0
C753 C 0.58825 0.1307 0.89689 0.0
C754 C 0.55724 0.08529 0.8877 0.0
C755 C 0.60589 0.18109 0.92119 0.0
C756 C 0.56765 0.23299 0.92711 0.0
C757 C 0.67681 0.18543 0.9209 0.0
C758 C 0.71877 0.12705 0.91644 0.0
C759 C 0.77002 0.13364 0.90599 0.0
C760 C 0.80685 0.07772 0.90141 0.0
C761 C 0.79297 0.01482 0.90718 0.0
C762 C 0.7424 0.00772 0.91759 0.0
C763 C 0.70555 0.06345 0.92224 0.0
H764 H 0.8213 0.97157 0.90356 0.0
H765 H 0.43994 0.50561 0.94282 0.0
H766 H 0.22962 0.06259 0.10114 0.0
H767 H 0.12697 0.01103 0.09216 0.0
H768 H 0.01985 0.19662 0.09896 0.0
H769 H 0.12262 0.2486 0.10771 0.0
H770 H 0.03165 0.99165 0.11013 0.0
H771 H 0.88348 0.21185 0.08095 0.0
H772 H 0.90224 0.28652 0.06011 0.0
H773 H 0.0509 0.15128 0.04304 0.0
H774 H 0.03233 0.075 0.06364 0.0
H775 H 0.78219 0.14371 0.14404 0.0
H776 H 0.87432 0.09315 0.13049 0.0
H777 H 0.73593 0.02789 0.09727 0.0
H778 H 0.64253 0.07828 0.11102 0.0
H779 H 0.83795 0.10394 0.08641 0.0
H780 H 0.82798 0.90631 0.11224 0.0
H781 H 0.80877 0.83107 0.13301 0.0
H782 H 0.97609 0.9168 0.15564 0.0
H783 H 0.99576 0.99334 0.13517 0.0
C784 C 0.18449 0.09292 0.10033 0.0
C785 C 0.18338 0.15916 0.10545 0.0
C786 C 0.12608 0.06345 0.09507 0.0
C787 C 0.06567 0.09972 0.09487 0.0
C788 C 0.06607 0.16776 0.09874 0.0
C789 C 0.12466 0.19741 0.10392 0.0
C790 C 0.00063 0.06451 0.09418 0.0
C791 C 0.98929 0.01487 0.10466 0.0
C792 C 0.94566 0.09152 0.08638 0.0
C793 C 0.95622 0.13732 0.07387 0.0
C794 C 0.9196 0.19744 0.07268 0.0
C795 C 0.9304 0.24027 0.06092 0.0
C796 C 0.97767 0.22363 0.05025 0.0
C797 C 0.01431 0.16414 0.05132 0.0
C798 C 0.00372 0.12112 0.06305 0.0
C799 C 0.77114 0.11717 0.13404 0.0
C800 C 0.70568 0.1152 0.1285 0.0
C801 C 0.82363 0.08763 0.12637 0.0
C802 C 0.81172 0.05601 0.11296 0.0
C803 C 0.74584 0.05132 0.10768 0.0
C804 C 0.69282 0.08012 0.11552 0.0
C805 C 0.8702 0.03917 0.10378 0.0
C806 C 0.88036 0.07816 0.0913 0.0
C807 C 0.92418 0.00191 0.10964 0.0
C808 C 0.91372 0.9553 0.12203 0.0
C809 C 0.86071 0.90921 0.12165 0.0
C810 C 0.84967 0.86635 0.13339 0.0
C811 C 0.89132 0.86901 0.14561 0.0
C812 C 0.94408 0.91456 0.14613 0.0
C813 C 0.95535 0.95757 0.13442 0.0
H814 H 0.88262 0.83585 0.1547 0.0
H815 H 0.98597 0.25689 0.04116 0.0
H816 H 0.10909 0.96335 0.6274 0.0
H817 H 0.10655 0.08544 0.62709 0.0
H818 H 0.92233 0.08488 0.65186 0.0
H819 H 0.92387 0.96323 0.65207 0.0
H820 H 0.91428 0.1703 0.62945 0.0
H821 H 0.06996 0.12189 0.66788 0.0
H822 H 0.16974 0.06852 0.67887 0.0
H823 H 0.29729 0.16971 0.64848 0.0
H824 H 0.19809 0.2228 0.63712 0.0
H825 H 0.90966 0.51101 0.65161 0.0
H826 H 0.91506 0.38893 0.65186 0.0
H827 H 0.08931 0.39327 0.62396 0.0
H828 H 0.08435 0.51506 0.62359 0.0
H829 H 0.10368 0.30657 0.64779 0.0
H830 H 0.94648 0.35425 0.60939 0.0
H831 H 0.84594 0.40739 0.59867 0.0
H832 H 0.72059 0.30747 0.6297 0.0
H833 H 0.82058 0.25451 0.64076 0.0
C834 C 0.06817 0.9892 0.63282 0.0
C835 C 0.01671 0.9535 0.63976 0.0
C836 C 0.06688 0.05896 0.63266 0.0
C837 C 0.01444 0.09416 0.63953 0.0
C838 C 0.96315 0.05866 0.64647 0.0
C839 C 0.96431 0.98908 0.64661 0.0
C840 C 0.01242 0.16807 0.63939 0.0
C841 C 0.95535 0.20007 0.63363 0.0
C842 C 0.06659 0.20681 0.64459 0.0
C843 C 0.12649 0.17582 0.65155 0.0
C844 C 0.11924 0.1324 0.66347 0.0
C845 C 0.1757 0.10223 0.66977 0.0
C846 C 0.23981 0.11558 0.66436 0.0
C847 C 0.24759 0.15933 0.65265 0.0
C848 C 0.19125 0.18951 0.64628 0.0
C849 C 0.94897 0.48601 0.64548 0.0
C850 C 0.99638 0.52276 0.63753 0.0
C851 C 0.95198 0.41632 0.64564 0.0
C852 C 0.00254 0.38229 0.63791 0.0
C853 C 0.05006 0.41874 0.63003 0.0
C854 C 0.04678 0.48831 0.62975 0.0
C855 C 0.0055 0.30851 0.63791 0.0
C856 C 0.06271 0.27663 0.64363 0.0
C857 C 0.95138 0.26981 0.63274 0.0
C858 C 0.89108 0.30091 0.62599 0.0
C859 C 0.89753 0.34399 0.614 0.0
C860 C 0.84064 0.37403 0.60785 0.0
C861 C 0.77693 0.36093 0.61352 0.0
C862 C 0.76998 0.31762 0.62533 0.0
C863 C 0.82674 0.28754 0.63154 0.0
H864 H 0.73294 0.38424 0.60875 0.0
H865 H 0.28345 0.09214 0.66925 0.0
H866 H 0.74471 0.8437 0.87532 0.0
H867 H 0.86668 0.82661 0.87553 0.0
H868 H 0.84601 0.68321 0.91026 0.0
H869 H 0.72545 0.70383 0.91077 0.0
H870 H 0.94959 0.74561 0.91578 0.0
H871 H 0.87544 0.64136 0.87201 0.0
H872 H 0.81946 0.63016 0.84825 0.0
H873 H 0.94434 0.7842 0.83064 0.0
H874 H 0.00045 0.79689 0.85433 0.0
H875 H 0.29157 0.62308 0.90296 0.0
H876 H 0.16767 0.62321 0.9035 0.0
H877 H 0.16437 0.81213 0.88116 0.0
H878 H 0.28588 0.81389 0.88113 0.0
H879 H 0.07383 0.71256 0.8695 0.0
H880 H 0.14225 0.81566 0.91537 0.0
H881 H 0.20123 0.81449 0.93898 0.0
H882 H 0.08674 0.64433 0.95235 0.0
H883 H 0.0278 0.64392 0.9287 0.0
C884 C 0.76634 0.80886 0.88304 0.0
C885 C 0.7251 0.77484 0.89294 0.0
C886 C 0.83617 0.7985 0.88308 0.0
C887 C 0.86614 0.75215 0.89267 0.0
C888 C 0.82481 0.71907 0.9027 0.0
C889 C 0.75546 0.73074 0.90293 0.0
C890 C 0.9403 0.73838 0.8924 0.0
C891 C 0.97618 0.73728 0.90562 0.0
C892 C 0.97611 0.72734 0.87924 0.0
C893 C 0.94161 0.7206 0.86501 0.0
C894 C 0.89039 0.67339 0.86311 0.0
C895 C 0.8585 0.66685 0.84963 0.0
C896 C 0.8775 0.70709 0.83794 0.0
C897 C 0.92892 0.75356 0.83969 0.0
C898 C 0.96093 0.76036 0.85315 0.0
C899 C 0.26438 0.66435 0.89808 0.0
C900 C 0.29933 0.71793 0.89176 0.0
C901 C 0.19363 0.6644 0.89842 0.0
C902 C 0.15682 0.71756 0.89227 0.0
C903 C 0.19159 0.77025 0.88582 0.0
C904 C 0.26161 0.77086 0.88573 0.0
C905 C 0.08213 0.72062 0.89276 0.0
C906 C 0.04645 0.71994 0.8796 0.0
C907 C 0.04639 0.72838 0.90596 0.0
C908 C 0.08123 0.72927 0.92021 0.0
C909 C 0.13008 0.77766 0.9233 0.0
C910 C 0.16342 0.77734 0.93669 0.0
C911 C 0.1479 0.72923 0.94714 0.0
C912 C 0.09881 0.68148 0.94423 0.0
C913 C 0.06541 0.68152 0.93084 0.0
H914 H 0.17378 0.72906 0.95751 0.0
H915 H 0.85274 0.70194 0.82751 0.0
H916 H 0.50849 0.44537 0.15954 0.0
H917 H 0.51384 0.56673 0.16187 0.0
H918 H 0.34503 0.58725 0.13277 0.0
H919 H 0.33984 0.46566 0.13023 0.0
H920 H 0.44193 0.67483 0.12565 0.0
H921 H 0.33016 0.6117 0.1701 0.0
H922 H 0.3173 0.55003 0.19313 0.0
H923 H 0.50023 0.63525 0.20925 0.0
H924 H 0.51465 0.69677 0.18622 0.0
H925 H 0.34573 0.0074 0.1382 0.0
H926 H 0.34671 0.886 0.13914 0.0
H927 H 0.53221 0.88917 0.16331 0.0
H928 H 0.53233 0.01195 0.16226 0.0
H929 H 0.43497 0.79062 0.17345 0.0
H930 H 0.54762 0.85464 0.13011 0.0
H931 H 0.56067 0.92243 0.10794 0.0
H932 H 0.38151 0.83681 0.09004 0.0
H933 H 0.36663 0.76926 0.11227 0.0
C934 C 0.47202 0.47549 0.1537 0.0
C935 C 0.4235 0.44513 0.14473 0.0
C936 C 0.4751 0.54522 0.15508 0.0
C937 C 0.42957 0.58681 0.14759 0.0
C938 C 0.38084 0.55666 0.13869 0.0
C939 C 0.37761 0.48684 0.13732 0.0
C940 C 0.43331 0.6615 0.14886 0.0
C941 C 0.43958 0.69989 0.13612 0.0
C942 C 0.43261 0.69498 0.16251 0.0
C943 C 0.42382 0.6583 0.17638 0.0
C944 C 0.3679 0.6169 0.17851 0.0
C945 C 0.36029 0.58204 0.19158 0.0
C946 C 0.40801 0.58857 0.20264 0.0
C947 C 0.46336 0.63015 0.20067 0.0
C948 C 0.47125 0.66507 0.18762 0.0
C949 C 0.38657 0.98281 0.14391 0.0
C950 C 0.43918 0.02015 0.15011 0.0
C951 C 0.38703 0.91298 0.14439 0.0
C952 C 0.43978 0.87806 0.15117 0.0
C953 C 0.4909 0.91487 0.158 0.0
C954 C 0.4909 0.98518 0.15739 0.0
C955 C 0.44257 0.80339 0.15027 0.0
C956 C 0.43761 0.76522 0.16303 0.0
C957 C 0.44516 0.76997 0.13667 0.0
C958 C 0.45556 0.80751 0.12294 0.0
C959 C 0.51081 0.85044 0.12148 0.0
C960 C 0.51853 0.88884 0.10891 0.0
C961 C 0.47166 0.88429 0.09766 0.0
C962 C 0.41752 0.84054 0.09883 0.0
C963 C 0.40947 0.80208 0.11141 0.0
H964 H 0.47737 0.91479 0.08805 0.0
H965 H 0.40203 0.56154 0.21274 0.0
H966 H 0.76818 0.41008 0.39604 0.0
H967 H 0.64635 0.39619 0.3962 0.0
H968 H 0.67099 0.18791 0.38545 0.0
H969 H 0.79313 0.20198 0.38487 0.0
H970 H 0.56993 0.23888 0.37021 0.0
H971 H 0.63092 0.24096 0.42055 0.0
H972 H 0.68483 0.28455 0.44275 0.0
H973 H 0.56484 0.46303 0.44003 0.0
H974 H 0.51085 0.4209 0.41769 0.0
H975 H 0.22934 0.15462 0.38668 0.0
H976 H 0.35232 0.16033 0.38712 0.0
H977 H 0.34057 0.37122 0.39622 0.0
H978 H 0.21796 0.36586 0.39594 0.0
H979 H 0.43554 0.31344 0.41279 0.0
H980 H 0.37705 0.31158 0.36196 0.0
H981 H 0.32289 0.26681 0.33989 0.0
H982 H 0.43826 0.08583 0.34381 0.0
H983 H 0.49238 0.12915 0.36604 0.0
C984 C 0.74788 0.36122 0.3937 0.0
C985 C 0.79094 0.30696 0.3906 0.0
C986 C 0.67791 0.35324 0.39388 0.0
C987 C 0.64893 0.29065 0.3911 0.0
C988 C 0.69175 0.23666 0.38772 0.0
C989 C 0.76183 0.24468 0.38749 0.0
C990 C 0.57416 0.28179 0.3917 0.0
C991 C 0.54079 0.25428 0.37963 0.0
C992 C 0.53536 0.30277 0.40385 0.0
C993 C 0.56726 0.32801 0.41737 0.0
C994 C 0.61634 0.2897 0.42463 0.0
C995 C 0.64687 0.31412 0.43725 0.0
C996 C 0.62839 0.37659 0.44278 0.0
C997 C 0.57916 0.41468 0.43573 0.0
C998 C 0.54852 0.39053 0.42309 0.0
C999 C 0.25285 0.20222 0.38882 0.0
C1000 C 0.21335 0.25981 0.39121 0.0
C1001 C 0.32336 0.20548 0.38901 0.0
C1002 C 0.35619 0.26642 0.39154 0.0
C1003 C 0.31681 0.3236 0.39423 0.0
C1004 C 0.24643 0.32044 0.39401 0.0
C1005 C 0.43135 0.27107 0.39127 0.0
C1006 C 0.46477 0.29779 0.4034 0.0
C1007 C 0.47016 0.24915 0.3792 0.0
C1008 C 0.43825 0.22334 0.36575 0.0
C1009 C 0.39052 0.26205 0.35817 0.0
C1010 C 0.35987 0.23696 0.34563 0.0
C1011 C 0.37698 0.17344 0.34048 0.0
C1012 C 0.42497 0.13498 0.34783 0.0
C1013 C 0.45567 0.15978 0.3604 0.0
H1014 H 0.35318 0.15409 0.33077 0.0
H1015 H 0.65211 0.39542 0.45255 0.0
loop_
_geom_bond_atom_site_label_1
_geom_bond_atom_site_label_2
_geom_bond_distance
_geom_bond_site_symmetry_2
_ccdc_geom_bond_type
Cd0 N3 2.334 . S
Cd0 N29 2.304 . S
Cd0 O36 2.268 1_455 S
Cd0 O39 2.273 . S
Cd0 O40 2.417 1_455 S
Cd0 O41 2.330 . S
Cd1 N16 2.304 . S
Cd1 N20 2.334 . S
Cd1 O37 2.273 . S
Cd1 O38 2.268 1_655 S
Cd1 O42 2.417 1_655 S
Cd1 O43 2.330 . S
C2 N3 1.332 . S
C2 C6 1.381 . S
C2 H8 0.931 . S
N3 Cd0 2.334 . S
N3 C2 1.332 . S
N3 C7 1.328 1_455 S
C4 C5 1.396 1_655 S
C4 C7 1.378 . S
C4 H46 0.931 . S
C5 C4 1.396 1_455 S
C5 C6 1.382 . S
C6 C2 1.381 . S
C6 C5 1.382 . S
C6 H47 0.930 . S
C7 N3 1.328 1_655 S
C7 C4 1.378 . S
C7 H9 0.930 . S
H8 C2 0.931 . S
H9 C7 0.930 . S
C10 O36 1.238 . S
C10 O37 1.253 . S
C11 C12 1.379 . S
C11 N16 1.337 . S
C11 H17 0.929 . S
C12 C11 1.379 . S
C12 C13 1.380 . S
C12 H48 0.929 . S
C13 C12 1.380 . S
C13 C14 1.399 1_655 S
C14 C13 1.399 1_455 S
C14 C15 1.376 . S
C14 H49 0.931 . S
C15 C14 1.376 . S
C15 N16 1.338 1_455 S
C15 H18 0.930 . S
N16 Cd1 2.304 . S
N16 C11 1.337 . S
N16 C15 1.338 1_655 S
H17 C11 0.929 . S
H18 C15 0.930 . S
C19 N20 1.332 . S
C19 C23 1.381 . S
C19 H25 0.931 . S
N20 Cd1 2.334 . S
N20 C19 1.332 . S
N20 C24 1.328 1_655 S
C21 C22 1.396 1_455 S
C21 C24 1.378 . S
C21 H50 0.931 . S
C22 C21 1.396 1_655 S
C22 C23 1.382 . S
C23 C19 1.381 . S
C23 C22 1.382 . S
C23 H51 0.930 . S
C24 N20 1.328 1_455 S
C24 C21 1.378 . S
C24 H26 0.930 . S
H25 C19 0.931 . S
H26 C24 0.930 . S
C27 O38 1.238 . S
C27 O39 1.253 . S
C28 O40 1.239 1_455 S
C28 O41 1.230 . S
N29 Cd0 2.304 . S
N29 C30 1.337 . S
N29 C34 1.338 1_455 S
C30 N29 1.337 . S
C30 C31 1.379 . S
C30 H44 0.929 . S
C31 C30 1.379 . S
C31 C32 1.380 . S
C31 H52 0.929 . S
C32 C31 1.380 . S
C32 C33 1.399 1_455 S
C33 C32 1.399 1_655 S
C33 C34 1.376 . S
C33 H53 0.931 . S
C34 N29 1.338 1_655 S
C34 C33 1.376 . S
C34 H45 0.930 . S
C35 O42 1.239 1_655 S
C35 O43 1.230 . S
O36 Cd0 2.268 1_655 S
O36 C10 1.238 . S
O37 Cd1 2.273 . S
O37 C10 1.253 . S
O38 Cd1 2.268 1_455 S
O38 C27 1.238 . S
O39 Cd0 2.273 . S
O39 C27 1.253 . S
O40 Cd0 2.417 1_655 S
O40 C28 1.239 1_655 S
O41 Cd0 2.330 . S
O41 C28 1.230 . S
O42 Cd1 2.417 1_455 S
O42 C35 1.239 1_455 S
O43 Cd1 2.330 . S
O43 C35 1.230 . S
H44 C30 0.929 . S
H45 C34 0.930 . S
H46 C4 0.931 . S
H47 C6 0.930 . S
H48 C12 0.929 . S
H49 C14 0.931 . S
H50 C21 0.931 . S
H51 C23 0.930 . S
H52 C31 0.929 . S
H53 C33 0.931 . S
Cd54 N57 2.334 . S
Cd54 N83 2.304 . S
Cd54 O90 2.268 . S
Cd54 O93 2.273 . S
Cd54 O94 2.417 . S
Cd54 O95 2.330 . S
Cd55 N70 2.304 . S
Cd55 N74 2.334 . S
Cd55 O91 2.273 . S
Cd55 O92 2.268 . S
Cd55 O96 2.417 . S
Cd55 O97 2.330 . S
C56 N57 1.332 . S
C56 C60 1.381 . S
C56 H62 0.931 . S
N57 Cd54 2.334 . S
N57 C56 1.332 . S
N57 C61 1.328 . S
C58 C59 1.396 . S
C58 C61 1.378 . S
C58 H100 0.931 . S
C59 C58 1.396 . S
C59 C60 1.382 . S
C60 C56 1.381 . S
C60 C59 1.382 . S
C60 H101 0.930 . S
C61 N57 1.328 . S
C61 C58 1.378 . S
C61 H63 0.930 . S
H62 C56 0.931 . S
H63 C61 0.930 . S
C64 O90 1.238 1_655 S
C64 O91 1.253 . S
C65 C66 1.379 . S
C65 N70 1.337 . S
C65 H71 0.929 . S
C66 C65 1.379 . S
C66 C67 1.380 . S
C66 H102 0.929 . S
C67 C66 1.380 . S
C67 C68 1.399 . S
C68 C67 1.399 . S
C68 C69 1.376 . S
C68 H103 0.931 . S
C69 C68 1.376 . S
C69 N70 1.338 . S
C69 H72 0.930 . S
N70 Cd55 2.304 . S
N70 C65 1.337 . S
N70 C69 1.338 . S
H71 C65 0.929 . S
H72 C69 0.930 . S
C73 N74 1.332 . S
C73 C77 1.381 . S
C73 H79 0.931 . S
N74 Cd55 2.334 . S
N74 C73 1.332 . S
N74 C78 1.328 . S
C75 C76 1.396 . S
C75 C78 1.378 . S
C75 H104 0.931 . S
C76 C75 1.396 . S
C76 C77 1.382 . S
C77 C73 1.381 . S
C77 C76 1.382 . S
C77 H105 0.930 . S
C78 N74 1.328 . S
C78 C75 1.378 . S
C78 H80 0.930 . S
H79 C73 0.931 . S
H80 C78 0.930 . S
C81 O92 1.238 1_455 S
C81 O93 1.253 . S
C82 O94 1.239 . S
C82 O95 1.230 . S
N83 Cd54 2.304 . S
N83 C84 1.337 . S
N83 C88 1.338 . S
C84 N83 1.337 . S
C84 C85 1.379 . S
C84 H98 0.929 . S
C85 C84 1.379 . S
C85 C86 1.380 . S
C85 H106 0.929 . S
C86 C85 1.380 . S
C86 C87 1.399 . S
C87 C86 1.399 . S
C87 C88 1.376 . S
C87 H107 0.931 . S
C88 N83 1.338 . S
C88 C87 1.376 . S
C88 H99 0.930 . S
C89 O96 1.239 . S
C89 O97 1.230 . S
O90 Cd54 2.268 . S
O90 C64 1.238 1_455 S
O91 Cd55 2.273 . S
O91 C64 1.253 . S
O92 Cd55 2.268 . S
O92 C81 1.238 1_655 S
O93 Cd54 2.273 . S
O93 C81 1.253 . S
O94 Cd54 2.417 . S
O94 C82 1.239 . S
O95 Cd54 2.330 . S
O95 C82 1.230 . S
O96 Cd55 2.417 . S
O96 C89 1.239 . S
O97 Cd55 2.330 . S
O97 C89 1.230 . S
H98 C84 0.929 . S
H99 C88 0.930 . S
H100 C58 0.931 . S
H101 C60 0.930 . S
H102 C66 0.929 . S
H103 C68 0.931 . S
H104 C75 0.931 . S
H105 C77 0.930 . S
H106 C85 0.929 . S
H107 C87 0.931 . S
Cd108 N111 2.334 . S
Cd108 N137 2.304 . S
Cd108 O144 2.268 . S
Cd108 O147 2.273 . S
Cd108 O148 2.417 . S
Cd108 O149 2.330 . S
Cd109 N124 2.304 . S
Cd109 N128 2.334 . S
Cd109 O145 2.273 . S
Cd109 O146 2.268 . S
Cd109 O150 2.417 . S
Cd109 O151 2.330 . S
C110 N111 1.332 . S
C110 C114 1.381 . S
C110 H116 0.931 . S
N111 Cd108 2.334 . S
N111 C110 1.332 . S
N111 C115 1.328 . S
C112 C113 1.396 . S
C112 C115 1.378 . S
C112 H154 0.931 . S
C113 C112 1.396 . S
C113 C114 1.382 . S
C114 C110 1.381 . S
C114 C113 1.382 . S
C114 H155 0.930 . S
C115 N111 1.328 . S
C115 C112 1.378 . S
C115 H117 0.930 . S
H116 C110 0.931 . S
H117 C115 0.930 . S
C118 O144 1.238 . S
C118 O145 1.253 . S
C119 C120 1.379 . S
C119 N124 1.337 . S
C119 H125 0.929 . S
C120 C119 1.379 . S
C120 C121 1.380 . S
C120 H156 0.929 . S
C121 C120 1.380 . S
C121 C122 1.399 . S
C122 C121 1.399 . S
C122 C123 1.376 . S
C122 H157 0.931 . S
C123 C122 1.376 . S
C123 N124 1.338 . S
C123 H126 0.930 . S
N124 Cd109 2.304 . S
N124 C119 1.337 . S
N124 C123 1.338 . S
H125 C119 0.929 . S
H126 C123 0.930 . S
C127 N128 1.332 . S
C127 C131 1.381 . S
C127 H133 0.931 . S
N128 Cd109 2.334 . S
N128 C127 1.332 . S
N128 C132 1.328 . S
C129 C130 1.396 . S
C129 C132 1.378 . S
C129 H158 0.931 . S
C130 C129 1.396 . S
C130 C131 1.382 . S
C131 C127 1.381 . S
C131 C130 1.382 . S
C131 H159 0.930 . S
C132 N128 1.328 . S
C132 C129 1.378 . S
C132 H134 0.930 . S
H133 C127 0.931 . S
H134 C132 0.930 . S
C135 O146 1.238 . S
C135 O147 1.253 . S
C136 O148 1.239 . S
C136 O149 1.230 . S
N137 Cd108 2.304 . S
N137 C138 1.337 . S
N137 C142 1.338 . S
C138 N137 1.337 . S
C138 C139 1.379 . S
C138 H152 0.929 . S
C139 C138 1.379 . S
C139 C140 1.380 . S
C139 H160 0.929 . S
C140 C139 1.380 . S
C140 C141 1.399 . S
C141 C140 1.399 . S
C141 C142 1.376 . S
C141 H161 0.931 . S
C142 N137 1.338 . S
C142 C141 1.376 . S
C142 H153 0.930 . S
C143 O150 1.239 . S
C143 O151 1.230 . S
O144 Cd108 2.268 . S
O144 C118 1.238 . S
O145 Cd109 2.273 . S
O145 C118 1.253 . S
O146 Cd109 2.268 . S
O146 C135 1.238 . S
O147 Cd108 2.273 . S
O147 C135 1.253 . S
O148 Cd108 2.417 . S
O148 C136 1.239 . S
O149 Cd108 2.330 . S
O149 C136 1.230 . S
O150 Cd109 2.417 . S
O150 C143 1.239 . S
O151 Cd109 2.330 . S
O151 C143 1.230 . S
H152 C138 0.929 . S
H153 C142 0.930 . S
H154 C112 0.931 . S
H155 C114 0.930 . S
H156 C120 0.929 . S
H157 C122 0.931 . S
H158 C129 0.931 . S
H159 C131 0.930 . S
H160 C139 0.929 . S
H161 C141 0.931 . S
Cd162 N165 2.334 . S
Cd162 N191 2.304 . S
Cd162 O198 2.268 . S
Cd162 O201 2.273 . S
Cd162 O202 2.417 . S
Cd162 O203 2.330 . S
Cd163 N178 2.304 . S
Cd163 N182 2.334 . S
Cd163 O199 2.273 . S
Cd163 O200 2.268 . S
Cd163 O204 2.417 . S
Cd163 O205 2.330 . S
C164 N165 1.332 . S
C164 C168 1.381 . S
C164 H170 0.931 . S
N165 Cd162 2.334 . S
N165 C164 1.332 . S
N165 C169 1.328 . S
C166 C167 1.396 . S
C166 C169 1.378 . S
C166 H208 0.931 . S
C167 C166 1.396 . S
C167 C168 1.382 . S
C168 C164 1.381 . S
C168 C167 1.382 . S
C168 H209 0.930 . S
C169 N165 1.328 . S
C169 C166 1.378 . S
C169 H171 0.930 . S
H170 C164 0.931 . S
H171 C169 0.930 . S
C172 O198 1.238 . S
C172 O199 1.253 . S
C173 C174 1.379 . S
C173 N178 1.337 . S
C173 H179 0.929 . S
C174 C173 1.379 . S
C174 C175 1.380 . S
C174 H210 0.929 . S
C175 C174 1.380 . S
C175 C176 1.399 . S
C176 C175 1.399 . S
C176 C177 1.376 . S
C176 H211 0.931 . S
C177 C176 1.376 . S
C177 N178 1.338 . S
C177 H180 0.930 . S
N178 Cd163 2.304 . S
N178 C173 1.337 . S
N178 C177 1.338 . S
H179 C173 0.929 . S
H180 C177 0.930 . S
C181 N182 1.332 . S
C181 C185 1.381 . S
C181 H187 0.931 . S
N182 Cd163 2.334 . S
N182 C181 1.332 . S
N182 C186 1.328 . S
C183 C184 1.396 . S
C183 C186 1.378 . S
C183 H212 0.931 . S
C184 C183 1.396 . S
C184 C185 1.382 . S
C185 C181 1.381 . S
C185 C184 1.382 . S
C185 H213 0.930 . S
C186 N182 1.328 . S
C186 C183 1.378 . S
C186 H188 0.930 . S
H187 C181 0.931 . S
H188 C186 0.930 . S
C189 O200 1.238 . S
C189 O201 1.253 . S
C190 O202 1.239 . S
C190 O203 1.230 . S
N191 Cd162 2.304 . S
N191 C192 1.337 . S
N191 C196 1.338 . S
C192 N191 1.337 . S
C192 C193 1.379 . S
C192 H206 0.929 . S
C193 C192 1.379 . S
C193 C194 1.380 . S
C193 H214 0.929 . S
C194 C193 1.380 . S
C194 C195 1.399 . S
C195 C194 1.399 . S
C195 C196 1.376 . S
C195 H215 0.931 . S
C196 N191 1.338 . S
C196 C195 1.376 . S
C196 H207 0.930 . S
C197 O204 1.239 . S
C197 O205 1.230 . S
O198 Cd162 2.268 . S
O198 C172 1.238 . S
O199 Cd163 2.273 . S
O199 C172 1.253 . S
O200 Cd163 2.268 . S
O200 C189 1.238 . S
O201 Cd162 2.273 . S
O201 C189 1.253 . S
O202 Cd162 2.417 . S
O202 C190 1.239 . S
O203 Cd162 2.330 . S
O203 C190 1.230 . S
O204 Cd163 2.417 . S
O204 C197 1.239 . S
O205 Cd163 2.330 . S
O205 C197 1.230 . S
H206 C192 0.929 . S
H207 C196 0.930 . S
H208 C166 0.931 . S
H209 C168 0.930 . S
H210 C174 0.929 . S
H211 C176 0.931 . S
H212 C183 0.931 . S
H213 C185 0.930 . S
H214 C193 0.929 . S
H215 C195 0.931 . S
H216 C234 0.951 . S
H217 C236 0.951 . S
H218 C238 0.950 1_455 S
H219 C239 0.950 1_455 S
H220 C241 0.950 . S
H221 C244 0.950 . S
H222 C245 0.950 . S
H223 C247 0.950 . S
H224 C248 0.959 . S
H225 C249 0.951 . S
H226 C251 0.951 . S
H227 C253 0.950 . S
H228 C254 0.950 . S
H229 C256 0.950 . S
H230 C259 0.950 . S
H231 C260 0.950 . S
H232 C262 0.950 . S
H233 C263 0.950 . S
C234 H216 0.951 . S
C234 C235 1.366 . S
C234 C236 1.388 . S
C235 C234 1.366 . S
C235 C239 1.385 . S
C236 H217 0.951 . S
C236 C234 1.388 . S
C236 C237 1.366 . S
C237 C236 1.366 . S
C237 C238 1.414 . S
C237 C240 1.499 . S
C238 H218 0.950 1_655 S
C238 C237 1.414 . S
C238 C239 1.374 . S
C239 H219 0.950 1_655 S
C239 C235 1.385 . S
C239 C238 1.374 . S
C240 C237 1.499 . S
C240 C241 1.373 . S
C240 C242 1.389 . S
C241 H220 0.950 . S
C241 C240 1.373 . S
C241 C257 1.377 . S
C242 C240 1.389 . S
C242 C243 1.524 1_655 S
C242 C256 1.377 . S
C243 C242 1.524 1_455 S
C243 C244 1.397 . S
C243 C248 1.360 1_455 S
C244 H221 0.950 . S
C244 C243 1.397 . S
C244 C245 1.334 . S
C245 H222 0.950 . S
C245 C244 1.334 . S
C245 C246 1.287 . S
C246 C245 1.287 . S
C246 C247 1.524 . S
C246 H265 0.913 . S
C247 H223 0.950 . S
C247 C246 1.524 . S
C247 C248 1.409 1_455 S
C248 H224 0.959 . S
C248 C243 1.360 1_655 S
C248 C247 1.409 1_655 S
C249 H225 0.951 . S
C249 C250 1.366 . S
C249 C251 1.388 . S
C250 C249 1.366 . S
C250 C254 1.385 . S
C251 H226 0.951 . S
C251 C249 1.388 . S
C251 C252 1.366 . S
C252 C251 1.366 . S
C252 C253 1.414 . S
C252 C255 1.499 . S
C253 H227 0.950 . S
C253 C252 1.414 . S
C253 C254 1.374 . S
C254 H228 0.950 . S
C254 C250 1.385 . S
C254 C253 1.374 . S
C255 C252 1.499 . S
C255 C256 1.373 . S
C255 C257 1.389 . S
C256 H229 0.950 . S
C256 C242 1.377 . S
C256 C255 1.373 . S
C257 C241 1.377 . S
C257 C255 1.389 . S
C257 C258 1.524 . S
C258 C257 1.524 . S
C258 C259 1.397 . S
C258 C263 1.363 . S
C259 H230 0.950 . S
C259 C258 1.397 . S
C259 C260 1.334 . S
C260 H231 0.950 . S
C260 C259 1.334 . S
C260 C261 1.287 . S
C261 C260 1.287 . S
C261 C262 1.524 . S
C261 H264 0.999 . S
C262 H232 0.950 . S
C262 C261 1.524 . S
C262 C263 1.415 . S
C263 H233 0.950 . S
C263 C258 1.363 . S
C263 C262 1.415 . S
H264 C261 0.999 . S
H265 C246 0.913 . S
H266 C284 0.951 . S
H267 C286 0.951 . S
H268 C288 0.950 . S
H269 C289 0.950 . S
H270 C291 0.950 . S
H271 C294 0.950 . S
H272 C295 0.950 . S
H273 C297 0.950 . S
H274 C298 0.950 . S
H275 C299 0.951 . S
H276 C301 0.951 . S
H277 C303 0.950 . S
H278 C304 0.950 . S
H279 C306 0.950 . S
H280 C309 0.950 . S
H281 C310 0.950 . S
H282 C312 0.950 . S
H283 C313 0.950 . S
C284 H266 0.951 . S
C284 C285 1.366 . S
C284 C286 1.388 . S
C285 C284 1.366 . S
C285 C289 1.385 . S
C286 H267 0.951 . S
C286 C284 1.388 . S
C286 C287 1.366 . S
C287 C286 1.366 . S
C287 C288 1.414 . S
C287 C290 1.499 . S
C288 H268 0.950 . S
C288 C287 1.414 . S
C288 C289 1.374 . S
C289 H269 0.950 . S
C289 C285 1.385 . S
C289 C288 1.374 . S
C290 C287 1.499 . S
C290 C291 1.373 . S
C290 C292 1.389 . S
C291 H270 0.950 . S
C291 C290 1.373 . S
C291 C307 1.377 . S
C292 C290 1.389 . S
C292 C293 1.524 . S
C292 C306 1.377 . S
C293 C292 1.524 . S
C293 C294 1.397 . S
C293 C298 1.363 . S
C294 H271 0.950 . S
C294 C293 1.397 . S
C294 C295 1.334 . S
C295 H272 0.950 . S
C295 C294 1.334 . S
C295 C296 1.287 . S
C296 C295 1.287 . S
C296 C297 1.524 . S
C296 H315 0.913 . S
C297 H273 0.950 . S
C297 C296 1.524 . S
C297 C298 1.415 . S
C298 H274 0.950 . S
C298 C293 1.363 . S
C298 C297 1.415 . S
C299 H275 0.951 . S
C299 C300 1.366 . S
C299 C301 1.388 . S
C300 C299 1.366 . S
C300 C304 1.385 . S
C301 H276 0.951 . S
C301 C299 1.388 . S
C301 C302 1.366 . S
C302 C301 1.366 . S
C302 C303 1.414 . S
C302 C305 1.499 . S
C303 H277 0.950 . S
C303 C302 1.414 . S
C303 C304 1.374 . S
C304 H278 0.950 . S
C304 C300 1.385 . S
C304 C303 1.374 . S
C305 C302 1.499 . S
C305 C306 1.373 . S
C305 C307 1.389 . S
C306 H279 0.950 . S
C306 C292 1.377 . S
C306 C305 1.373 . S
C307 C291 1.377 . S
C307 C305 1.389 . S
C307 C308 1.524 . S
C308 C307 1.524 . S
C308 C309 1.397 . S
C308 C313 1.363 . S
C309 H280 0.950 . S
C309 C308 1.397 . S
C309 C310 1.334 . S
C310 H281 0.950 . S
C310 C309 1.334 . S
C310 C311 1.287 . S
C311 C310 1.287 . S
C311 C312 1.524 . S
C311 H314 0.999 . S
C312 H282 0.950 . S
C312 C311 1.524 . S
C312 C313 1.415 . S
C313 H283 0.950 . S
C313 C308 1.363 . S
C313 C312 1.415 . S
H314 C311 0.999 . S
H315 C296 0.913 . S
H316 C334 0.951 . S
H317 C336 0.951 . S
H318 C338 0.950 . S
H319 C339 0.950 . S
H320 C341 0.950 . S
H321 C344 0.950 . S
H322 C345 0.950 . S
H323 C347 0.950 . S
H324 C348 0.950 . S
H325 C349 0.951 . S
H326 C351 0.951 . S
H327 C353 0.950 . S
H328 C354 0.950 . S
H329 C356 0.950 . S
H330 C359 0.950 . S
H331 C360 0.950 . S
H332 C362 0.950 . S
H333 C363 0.950 . S
C334 H316 0.951 . S
C334 C335 1.366 . S
C334 C336 1.388 . S
C335 C334 1.366 . S
C335 C339 1.385 . S
C336 H317 0.951 . S
C336 C334 1.388 . S
C336 C337 1.366 . S
C337 C336 1.366 . S
C337 C338 1.414 . S
C337 C340 1.499 . S
C338 H318 0.950 . S
C338 C337 1.414 . S
C338 C339 1.374 . S
C339 H319 0.950 . S
C339 C335 1.385 . S
C339 C338 1.374 . S
C340 C337 1.499 . S
C340 C341 1.393 . S
C340 C342 1.389 . S
C341 H320 0.950 . S
C341 C340 1.393 . S
C341 C357 1.356 1_556 S
C342 C340 1.389 . S
C342 C343 1.524 . S
C342 C356 1.350 1_556 S
C343 C342 1.524 . S
C343 C344 1.397 . S
C343 C348 1.363 . S
C344 H321 0.950 . S
C344 C343 1.397 . S
C344 C345 1.334 . S
C345 H322 0.950 . S
C345 C344 1.334 . S
C345 C346 1.287 . S
C346 C345 1.287 . S
C346 C347 1.524 . S
C346 H365 0.913 . S
C347 H323 0.950 . S
C347 C346 1.524 . S
C347 C348 1.415 . S
C348 H324 0.950 . S
C348 C343 1.363 . S
C348 C347 1.415 . S
C349 H325 0.951 . S
C349 C350 1.366 . S
C349 C351 1.388 . S
C350 C349 1.366 . S
C350 C354 1.385 . S
C351 H326 0.951 . S
C351 C349 1.388 . S
C351 C352 1.366 . S
C352 C351 1.366 . S
C352 C353 1.414 . S
C352 C355 1.499 . S
C353 H327 0.950 . S
C353 C352 1.414 . S
C353 C354 1.374 . S
C354 H328 0.950 . S
C354 C350 1.385 . S
C354 C353 1.374 . S
C355 C352 1.499 . S
C355 C356 1.399 . S
C355 C357 1.389 . S
C356 H329 0.950 . S
C356 C342 1.350 1_554 S
C356 C355 1.399 . S
C357 C341 1.356 1_554 S
C357 C355 1.389 . S
C357 C358 1.524 . S
C358 C357 1.524 . S
C358 C359 1.397 . S
C358 C363 1.363 . S
C359 H330 0.950 . S
C359 C358 1.397 . S
C359 C360 1.334 . S
C360 H331 0.950 . S
C360 C359 1.334 . S
C360 C361 1.287 . S
C361 C360 1.287 . S
C361 C362 1.524 . S
C361 H364 0.999 . S
C362 H332 0.950 . S
C362 C361 1.524 . S
C362 C363 1.415 . S
C363 H333 0.950 . S
C363 C358 1.363 . S
C363 C362 1.415 . S
H364 C361 0.999 . S
H365 C346 0.913 . S
H366 C384 0.951 . S
H367 C386 0.951 . S
H368 C388 0.950 . S
H369 C389 0.950 . S
H370 C391 0.950 . S
H371 C394 0.950 . S
H372 C395 0.950 . S
H373 C397 0.950 . S
H374 C398 0.950 . S
H375 C399 0.951 . S
H376 C401 0.951 . S
H377 C403 0.950 . S
H378 C404 0.950 . S
H379 C406 0.950 . S
H380 C409 0.950 . S
H381 C410 0.950 . S
H382 C412 0.950 . S
H383 C413 0.950 . S
C384 H366 0.951 . S
C384 C385 1.366 . S
C384 C386 1.388 . S
C385 C384 1.366 . S
C385 C389 1.385 . S
C386 H367 0.951 . S
C386 C384 1.388 . S
C386 C387 1.366 . S
C387 C386 1.366 . S
C387 C388 1.414 . S
C387 C390 1.499 . S
C388 H368 0.950 . S
C388 C387 1.414 . S
C388 C389 1.374 . S
C389 H369 0.950 . S
C389 C385 1.385 . S
C389 C388 1.374 . S
C390 C387 1.499 . S
C390 C391 1.373 . S
C390 C392 1.389 . S
C391 H370 0.950 . S
C391 C390 1.373 . S
C391 C407 1.377 . S
C392 C390 1.389 . S
C392 C393 1.524 . S
C392 C406 1.377 . S
C393 C392 1.524 . S
C393 C394 1.397 . S
C393 C398 1.363 . S
C394 H371 0.950 . S
C394 C393 1.397 . S
C394 C395 1.334 . S
C395 H372 0.950 . S
C395 C394 1.334 . S
C395 C396 1.287 . S
C396 C395 1.287 . S
C396 C397 1.524 . S
C396 H415 0.913 . S
C397 H373 0.950 . S
C397 C396 1.524 . S
C397 C398 1.415 . S
C398 H374 0.950 . S
C398 C393 1.363 . S
C398 C397 1.415 . S
C399 H375 0.951 . S
C399 C400 1.366 . S
C399 C401 1.388 . S
C400 C399 1.366 . S
C400 C404 1.385 . S
C401 H376 0.951 . S
C401 C399 1.388 . S
C401 C402 1.366 . S
C402 C401 1.366 . S
C402 C403 1.414 . S
C402 C405 1.499 . S
C403 H377 0.950 . S
C403 C402 1.414 . S
C403 C404 1.374 . S
C404 H378 0.950 . S
C404 C400 1.385 . S
C404 C403 1.374 . S
C405 C402 1.499 . S
C405 C406 1.373 . S
C405 C407 1.389 . S
C406 H379 0.950 . S
C406 C392 1.377 . S
C406 C405 1.373 . S
C407 C391 1.377 . S
C407 C405 1.389 . S
C407 C408 1.524 . S
C408 C407 1.524 . S
C408 C409 1.397 . S
C408 C413 1.363 . S
C409 H380 0.950 . S
C409 C408 1.397 . S
C409 C410 1.334 . S
C410 H381 0.950 . S
C410 C409 1.334 . S
C410 C411 1.287 . S
C411 C410 1.287 . S
C411 C412 1.524 . S
C411 H414 1.000 . S
C412 H382 0.950 . S
C412 C411 1.524 . S
C412 C413 1.415 . S
C413 H383 0.950 . S
C413 C408 1.363 . S
C413 C412 1.415 . S
H414 C411 1.000 . S
H415 C396 0.913 . S
H416 C434 0.951 . S
H417 C436 0.951 . S
H418 C438 0.950 . S
H419 C439 0.950 . S
H420 C441 0.950 . S
H421 C444 0.950 . S
H422 C445 0.950 . S
H423 C447 0.950 . S
H424 C448 0.950 . S
H425 C449 0.951 1_655 S
H426 C451 0.951 . S
H427 C453 0.950 . S
H428 C454 0.950 . S
H429 C456 0.950 . S
H430 C459 0.950 . S
H431 C460 0.950 . S
H432 C462 0.950 . S
H433 C463 0.950 . S
C434 H416 0.951 . S
C434 C435 1.366 . S
C434 C436 1.388 . S
C435 C434 1.366 . S
C435 C439 1.385 . S
C436 H417 0.951 . S
C436 C434 1.388 . S
C436 C437 1.366 . S
C437 C436 1.366 . S
C437 C438 1.414 . S
C437 C440 1.499 . S
C438 H418 0.950 . S
C438 C437 1.414 . S
C438 C439 1.374 . S
C439 H419 0.950 . S
C439 C435 1.385 . S
C439 C438 1.374 . S
C440 C437 1.499 . S
C440 C441 1.373 . S
C440 C442 1.389 . S
C441 H420 0.950 . S
C441 C440 1.373 . S
C441 C457 1.377 . S
C442 C440 1.389 . S
C442 C443 1.524 . S
C442 C456 1.377 . S
C443 C442 1.524 . S
C443 C444 1.397 . S
C443 C448 1.363 . S
C444 H421 0.950 . S
C444 C443 1.397 . S
C444 C445 1.334 . S
C445 H422 0.950 . S
C445 C444 1.334 . S
C445 C446 1.287 1_545 S
C446 C445 1.287 1_565 S
C446 C447 1.524 . S
C446 H465 0.913 . S
C447 H423 0.950 . S
C447 C446 1.524 . S
C447 C448 1.415 1_565 S
C448 H424 0.950 . S
C448 C443 1.363 . S
C448 C447 1.415 1_545 S
C449 H425 0.951 1_455 S
C449 C450 1.366 . S
C449 C451 1.388 . S
C450 C449 1.366 . S
C450 C454 1.385 . S
C451 H426 0.951 . S
C451 C449 1.388 . S
C451 C452 1.366 . S
C452 C451 1.366 . S
C452 C453 1.414 . S
C452 C455 1.499 . S
C453 H427 0.950 . S
C453 C452 1.414 . S
C453 C454 1.374 . S
C454 H428 0.950 . S
C454 C450 1.385 . S
C454 C453 1.374 . S
C455 C452 1.499 . S
C455 C456 1.373 . S
C455 C457 1.389 . S
C456 H429 0.950 . S
C456 C442 1.377 . S
C456 C455 1.373 . S
C457 C441 1.377 . S
C457 C455 1.389 . S
C457 C458 1.524 . S
C458 C457 1.524 . S
C458 C459 1.397 . S
C458 C463 1.363 . S
C459 H430 0.950 . S
C459 C458 1.397 . S
C459 C460 1.334 . S
C460 H431 0.950 . S
C460 C459 1.334 . S
C460 C461 1.287 . S
C461 C460 1.287 . S
C461 C462 1.524 . S
C461 H464 0.999 . S
C462 H432 0.950 . S
C462 C461 1.524 . S
C462 C463 1.415 . S
C463 H433 0.950 . S
C463 C458 1.363 . S
C463 C462 1.415 . S
H464 C461 0.999 . S
H465 C446 0.913 . S
H466 C484 0.951 . S
H467 C486 0.951 . S
H468 C488 0.950 . S
H469 C489 0.950 . S
H470 C491 0.950 . S
H471 C494 0.950 . S
H472 C495 0.950 . S
H473 C497 0.950 . S
H474 C498 0.950 . S
H475 C499 0.951 . S
H476 C501 0.951 . S
H477 C503 0.950 . S
H478 C504 0.950 . S
H479 C506 0.950 . S
H480 C509 0.950 . S
H481 C510 0.950 . S
H482 C512 0.950 . S
H483 C513 0.950 . S
C484 H466 0.951 . S
C484 C485 1.366 . S
C484 C486 1.388 . S
C485 C484 1.366 . S
C485 C489 1.385 . S
C486 H467 0.951 . S
C486 C484 1.388 . S
C486 C487 1.366 . S
C487 C486 1.366 . S
C487 C488 1.414 . S
C487 C490 1.499 . S
C488 H468 0.950 . S
C488 C487 1.414 . S
C488 C489 1.374 . S
C489 H469 0.950 . S
C489 C485 1.385 . S
C489 C488 1.374 . S
C490 C487 1.499 . S
C490 C491 1.373 . S
C490 C492 1.389 . S
C491 H470 0.950 . S
C491 C490 1.373 . S
C491 C507 1.377 . S
C492 C490 1.389 . S
C492 C493 1.524 . S
C492 C506 1.377 . S
C493 C492 1.524 . S
C493 C494 1.397 . S
C493 C498 1.363 . S
C494 H471 0.950 . S
C494 C493 1.397 . S
C494 C495 1.334 . S
C495 H472 0.950 . S
C495 C494 1.334 . S
C495 C496 1.287 . S
C496 C495 1.287 . S
C496 C497 1.524 . S
C496 H515 0.913 . S
C497 H473 0.950 . S
C497 C496 1.524 . S
C497 C498 1.415 . S
C498 H474 0.950 . S
C498 C493 1.363 . S
C498 C497 1.415 . S
C499 H475 0.951 . S
C499 C500 1.366 . S
C499 C501 1.388 . S
C500 C499 1.366 . S
C500 C504 1.385 . S
C501 H476 0.951 . S
C501 C499 1.388 . S
C501 C502 1.366 . S
C502 C501 1.366 . S
C502 C503 1.414 . S
C502 C505 1.499 . S
C503 H477 0.950 . S
C503 C502 1.414 . S
C503 C504 1.374 . S
C504 H478 0.950 . S
C504 C500 1.385 . S
C504 C503 1.374 . S
C505 C502 1.499 . S
C505 C506 1.373 . S
C505 C507 1.389 . S
C506 H479 0.950 . S
C506 C492 1.377 . S
C506 C505 1.373 . S
C507 C491 1.377 . S
C507 C505 1.389 . S
C507 C508 1.524 . S
C508 C507 1.524 . S
C508 C509 1.397 . S
C508 C513 1.363 . S
C509 H480 0.950 . S
C509 C508 1.397 . S
C509 C510 1.334 . S
C510 H481 0.950 . S
C510 C509 1.334 . S
C510 C511 1.287 . S
C511 C510 1.287 . S
C511 C512 1.524 . S
C511 H514 0.999 . S
C512 H482 0.950 . S
C512 C511 1.524 . S
C512 C513 1.415 . S
C513 H483 0.950 . S
C513 C508 1.363 . S
C513 C512 1.415 . S
H514 C511 0.999 . S
H515 C496 0.913 . S
H516 C534 0.951 . S
H517 C536 0.951 1_545 S
H518 C538 0.950 . S
H519 C539 0.950 . S
H520 C541 0.950 . S
H521 C544 0.950 . S
H522 C545 0.950 . S
H523 C547 0.950 . S
H524 C548 0.950 . S
H525 C549 0.951 . S
H526 C551 0.951 . S
H527 C553 0.950 . S
H528 C554 0.950 . S
H529 C556 0.950 . S
H530 C559 0.950 1_545 S
H531 C560 0.950 . S
H532 C562 0.950 . S
H533 C563 0.950 . S
C534 H516 0.951 . S
C534 C535 1.366 . S
C534 C536 1.388 . S
C535 C534 1.366 . S
C535 C539 1.385 . S
C536 H517 0.951 1_565 S
C536 C534 1.388 . S
C536 C537 1.366 . S
C537 C536 1.366 . S
C537 C538 1.414 . S
C537 C540 1.504 . S
C538 H518 0.950 . S
C538 C537 1.414 . S
C538 C539 1.374 . S
C539 H519 0.950 . S
C539 C535 1.385 . S
C539 C538 1.374 . S
C540 C537 1.504 . S
C540 C541 1.362 1_556 S
C540 C542 1.379 1_565 S
C541 H520 0.950 . S
C541 C540 1.362 1_554 S
C541 C557 1.392 1_565 S
C542 C540 1.379 1_545 S
C542 C543 1.524 . S
C542 C556 1.386 . S
C543 C542 1.524 . S
C543 C544 1.397 . S
C543 C548 1.363 . S
C544 H521 0.950 . S
C544 C543 1.397 . S
C544 C545 1.334 . S
C545 H522 0.950 . S
C545 C544 1.334 . S
C545 C546 1.287 . S
C546 C545 1.287 . S
C546 C547 1.524 . S
C546 H565 0.913 . S
C547 H523 0.950 . S
C547 C546 1.524 . S
C547 C548 1.415 . S
C548 H524 0.950 . S
C548 C543 1.363 . S
C548 C547 1.415 . S
C549 H525 0.951 . S
C549 C550 1.366 . S
C549 C551 1.388 . S
C550 C549 1.366 . S
C550 C554 1.385 . S
C551 H526 0.951 . S
C551 C549 1.388 . S
C551 C552 1.366 . S
C552 C551 1.366 . S
C552 C553 1.414 . S
C552 C555 1.499 . S
C553 H527 0.950 . S
C553 C552 1.414 . S
C553 C554 1.374 . S
C554 H528 0.950 . S
C554 C550 1.385 . S
C554 C553 1.374 . S
C555 C552 1.499 . S
C555 C556 1.364 1_554 S
C555 C557 1.389 . S
C556 H529 0.950 . S
C556 C542 1.386 . S
C556 C555 1.364 1_556 S
C557 C541 1.392 1_545 S
C557 C555 1.389 . S
C557 C558 1.524 1_545 S
C558 C557 1.524 1_565 S
C558 C559 1.397 . S
C558 C563 1.363 . S
C559 H530 0.950 1_565 S
C559 C558 1.397 . S
C559 C560 1.334 . S
C560 H531 0.950 . S
C560 C559 1.334 . S
C560 C561 1.287 . S
C561 C560 1.287 . S
C561 C562 1.524 . S
C561 H564 0.999 . S
C562 H532 0.950 . S
C562 C561 1.524 . S
C562 C563 1.415 . S
C563 H533 0.950 . S
C563 C558 1.363 . S
C563 C562 1.415 . S
H564 C561 0.999 . S
H565 C546 0.913 . S
H566 C584 0.951 . S
H567 C586 0.951 1_565 S
H568 C588 0.950 1_655 S
H569 C589 0.950 1_655 S
H570 C591 0.950 . S
H571 C594 0.950 . S
H572 C595 0.950 . S
H573 C597 0.950 . S
H574 C598 0.950 1_455 S
H575 C599 0.951 . S
H576 C601 0.951 . S
H577 C603 0.950 . S
H578 C604 0.950 . S
H579 C606 0.950 . S
H580 C609 0.950 . S
H581 C610 0.950 1_565 S
H582 C612 0.950 . S
H583 C613 0.950 . S
C584 H566 0.951 . S
C584 C585 1.366 . S
C584 C586 1.388 . S
C585 C584 1.366 . S
C585 C589 1.385 . S
C586 H567 0.951 1_545 S
C586 C584 1.388 . S
C586 C587 1.366 . S
C587 C586 1.366 . S
C587 C588 1.414 . S
C587 C590 1.499 . S
C588 H568 0.950 1_455 S
C588 C587 1.414 . S
C588 C589 1.374 . S
C589 H569 0.950 1_455 S
C589 C585 1.385 . S
C589 C588 1.374 . S
C590 C587 1.499 . S
C590 C591 1.373 . S
C590 C592 1.389 1_545 S
C591 H570 0.950 . S
C591 C590 1.373 . S
C591 C607 1.377 1_545 S
C592 C590 1.389 1_565 S
C592 C593 1.524 1_455 S
C592 C606 1.377 . S
C593 C592 1.524 1_655 S
C593 C594 1.397 . S
C593 C598 1.363 . S
C594 H571 0.950 . S
C594 C593 1.397 . S
C594 C595 1.334 . S
C595 H572 0.950 . S
C595 C594 1.334 . S
C595 C596 1.287 . S
C596 C595 1.287 . S
C596 C597 1.524 . S
C596 H615 0.913 . S
C597 H573 0.950 . S
C597 C596 1.524 . S
C597 C598 1.415 . S
C598 H574 0.950 1_655 S
C598 C593 1.363 . S
C598 C597 1.415 . S
C599 H575 0.951 . S
C599 C600 1.366 . S
C599 C601 1.388 . S
C600 C599 1.366 . S
C600 C604 1.385 . S
C601 H576 0.951 . S
C601 C599 1.388 . S
C601 C602 1.366 . S
C602 C601 1.366 . S
C602 C603 1.414 . S
C602 C605 1.499 . S
C603 H577 0.950 . S
C603 C602 1.414 . S
C603 C604 1.374 . S
C604 H578 0.950 . S
C604 C600 1.385 . S
C604 C603 1.374 . S
C605 C602 1.499 . S
C605 C606 1.373 . S
C605 C607 1.389 . S
C606 H579 0.950 . S
C606 C592 1.377 . S
C606 C605 1.373 . S
C607 C591 1.377 1_565 S
C607 C605 1.389 . S
C607 C608 1.524 1_565 S
C608 C607 1.524 1_545 S
C608 C609 1.397 1_545 S
C608 C613 1.363 . S
C609 H580 0.950 . S
C609 C608 1.397 1_565 S
C609 C610 1.334 1_565 S
C610 H581 0.950 1_545 S
C610 C609 1.334 1_545 S
C610 C611 1.287 . S
C611 C610 1.287 . S
C611 C612 1.524 . S
C611 H614 0.999 . S
C612 H582 0.950 . S
C612 C611 1.524 . S
C612 C613 1.415 . S
C613 H583 0.950 . S
C613 C608 1.363 . S
C613 C612 1.415 . S
H614 C611 0.999 . S
H615 C596 0.913 . S
H616 C634 0.951 . S
H617 C636 0.951 . S
H618 C638 0.950 . S
H619 C639 0.950 . S
H620 C641 0.950 . S
H621 C644 0.950 . S
H622 C645 0.950 . S
H623 C647 0.950 . S
H624 C648 0.950 . S
H625 C649 0.951 . S
H626 C651 0.951 . S
H627 C653 0.950 . S
H628 C654 0.950 . S
H629 C656 0.950 . S
H630 C659 0.950 . S
H631 C660 0.950 . S
H632 C662 0.950 . S
H633 C663 0.950 . S
C634 H616 0.951 . S
C634 C635 1.366 1_655 S
C634 C636 1.388 1_545 S
C635 C634 1.366 1_455 S
C635 C639 1.385 . S
C636 H617 0.951 . S
C636 C634 1.388 1_565 S
C636 C637 1.366 . S
C637 C636 1.366 . S
C637 C638 1.414 1_655 S
C637 C640 1.499 . S
C638 H618 0.950 . S
C638 C637 1.414 1_455 S
C638 C639 1.374 1_565 S
C639 H619 0.950 . S
C639 C635 1.385 . S
C639 C638 1.374 1_545 S
C640 C637 1.499 . S
C640 C641 1.373 1_655 S
C640 C642 1.389 . S
C641 H620 0.950 . S
C641 C640 1.373 1_455 S
C641 C657 1.377 . S
C642 C640 1.389 . S
C642 C643 1.524 . S
C642 C656 1.377 . S
C643 C642 1.524 . S
C643 C644 1.397 . S
C643 C648 1.363 . S
C644 H621 0.950 . S
C644 C643 1.397 . S
C644 C645 1.334 . S
C645 H622 0.950 . S
C645 C644 1.334 . S
C645 C646 1.287 . S
C646 C645 1.287 . S
C646 C647 1.524 . S
C646 H665 0.913 . S
C647 H623 0.950 . S
C647 C646 1.524 . S
C647 C648 1.415 . S
C648 H624 0.950 . S
C648 C643 1.363 . S
C648 C647 1.415 . S
C649 H625 0.951 . S
C649 C650 1.366 1_455 S
C649 C651 1.388 . S
C650 C649 1.366 1_655 S
C650 C654 1.385 . S
C651 H626 0.951 . S
C651 C649 1.388 . S
C651 C652 1.366 . S
C652 C651 1.366 . S
C652 C653 1.414 1_455 S
C652 C655 1.499 . S
C653 H627 0.950 . S
C653 C652 1.414 1_655 S
C653 C654 1.374 . S
C654 H628 0.950 . S
C654 C650 1.385 . S
C654 C653 1.374 . S
C655 C652 1.499 . S
C655 C656 1.373 1_455 S
C655 C657 1.389 . S
C656 H629 0.950 . S
C656 C642 1.377 . S
C656 C655 1.373 1_655 S
C657 C641 1.377 . S
C657 C655 1.389 . S
C657 C658 1.524 . S
C658 C657 1.524 . S
C658 C659 1.397 . S
C658 C663 1.363 . S
C659 H630 0.950 . S
C659 C658 1.397 . S
C659 C660 1.334 . S
C660 H631 0.950 . S
C660 C659 1.334 . S
C660 C661 1.287 . S
C661 C660 1.287 . S
C661 C662 1.524 . S
C661 H664 0.999 . S
C662 H632 0.950 . S
C662 C661 1.524 . S
C662 C663 1.415 . S
C663 H633 0.950 . S
C663 C658 1.363 . S
C663 C662 1.415 . S
H664 C661 0.999 . S
H665 C646 0.913 . S
H666 C684 0.951 . S
H667 C686 0.951 . S
H668 C688 0.950 . S
H669 C689 0.950 . S
H670 C691 0.950 . S
H671 C694 0.950 . S
H672 C695 0.950 . S
H673 C697 0.950 . S
H674 C698 0.950 . S
H675 C699 0.951 . S
H676 C701 0.951 . S
H677 C703 0.950 . S
H678 C704 0.950 . S
H679 C706 0.950 . S
H680 C709 0.950 . S
H681 C710 0.950 . S
H682 C712 0.950 . S
H683 C713 0.950 . S
C684 H666 0.951 . S
C684 C685 1.366 . S
C684 C686 1.388 . S
C685 C684 1.366 . S
C685 C689 1.385 . S
C686 H667 0.951 . S
C686 C684 1.388 . S
C686 C687 1.366 . S
C687 C686 1.366 . S
C687 C688 1.414 . S
C687 C690 1.499 . S
C688 H668 0.950 . S
C688 C687 1.414 . S
C688 C689 1.374 . S
C689 H669 0.950 . S
C689 C685 1.385 . S
C689 C688 1.374 . S
C690 C687 1.499 . S
C690 C691 1.373 . S
C690 C692 1.389 . S
C691 H670 0.950 . S
C691 C690 1.373 . S
C691 C707 1.377 . S
C692 C690 1.389 . S
C692 C693 1.524 . S
C692 C706 1.377 . S
C693 C692 1.524 . S
C693 C694 1.397 . S
C693 C698 1.363 . S
C694 H671 0.950 . S
C694 C693 1.397 . S
C694 C695 1.334 . S
C695 H672 0.950 . S
C695 C694 1.334 . S
C695 C696 1.287 . S
C696 C695 1.287 . S
C696 C697 1.524 . S
C696 H715 0.913 1_565 S
C697 H673 0.950 . S
C697 C696 1.524 . S
C697 C698 1.415 . S
C698 H674 0.950 . S
C698 C693 1.363 . S
C698 C697 1.415 . S
C699 H675 0.951 . S
C699 C700 1.366 . S
C699 C701 1.388 . S
C700 C699 1.366 . S
C700 C704 1.385 . S
C701 H676 0.951 . S
C701 C699 1.388 . S
C701 C702 1.366 . S
C702 C701 1.366 . S
C702 C703 1.414 . S
C702 C705 1.499 . S
C703 H677 0.950 . S
C703 C702 1.414 . S
C703 C704 1.374 . S
C704 H678 0.950 . S
C704 C700 1.385 . S
C704 C703 1.374 . S
C705 C702 1.499 . S
C705 C706 1.373 . S
C705 C707 1.389 . S
C706 H679 0.950 . S
C706 C692 1.377 . S
C706 C705 1.373 . S
C707 C691 1.377 . S
C707 C705 1.389 . S
C707 C708 1.524 . S
C708 C707 1.524 . S
C708 C709 1.397 . S
C708 C713 1.363 . S
C709 H680 0.950 . S
C709 C708 1.397 . S
C709 C710 1.334 . S
C710 H681 0.950 . S
C710 C709 1.334 . S
C710 C711 1.287 . S
C711 C710 1.287 . S
C711 C712 1.524 . S
C711 H714 0.999 . S
C712 H682 0.950 . S
C712 C711 1.524 . S
C712 C713 1.415 . S
C713 H683 0.950 . S
C713 C708 1.363 . S
C713 C712 1.415 . S
H714 C711 0.999 . S
H715 C696 0.913 1_545 S
H716 C734 0.951 . S
H717 C736 0.951 . S
H718 C738 0.950 . S
H719 C739 0.950 . S
H720 C741 0.950 . S
H721 C744 0.950 . S
H722 C745 0.950 . S
H723 C747 0.950 . S
H724 C748 0.950 . S
H725 C749 0.951 . S
H726 C751 0.951 . S
H727 C753 0.950 . S
H728 C754 0.950 . S
H729 C756 0.950 . S
H730 C759 0.950 . S
H731 C760 0.950 . S
H732 C762 0.950 . S
H733 C763 0.950 . S
C734 H716 0.951 . S
C734 C735 1.366 . S
C734 C736 1.388 . S
C735 C734 1.366 . S
C735 C739 1.385 . S
C736 H717 0.951 . S
C736 C734 1.388 . S
C736 C737 1.366 . S
C737 C736 1.366 . S
C737 C738 1.414 . S
C737 C740 1.499 . S
C738 H718 0.950 . S
C738 C737 1.414 . S
C738 C739 1.374 . S
C739 H719 0.950 . S
C739 C735 1.385 . S
C739 C738 1.374 . S
C740 C737 1.499 . S
C740 C741 1.373 . S
C740 C742 1.389 . S
C741 H720 0.950 . S
C741 C740 1.373 . S
C741 C757 1.377 . S
C742 C740 1.389 . S
C742 C743 1.524 . S
C742 C756 1.377 . S
C743 C742 1.524 . S
C743 C744 1.397 . S
C743 C748 1.363 . S
C744 H721 0.950 . S
C744 C743 1.397 . S
C744 C745 1.334 . S
C745 H722 0.950 . S
C745 C744 1.334 . S
C745 C746 1.287 . S
C746 C745 1.287 . S
C746 C747 1.524 . S
C746 H765 0.913 . S
C747 H723 0.950 . S
C747 C746 1.524 . S
C747 C748 1.415 . S
C748 H724 0.950 . S
C748 C743 1.363 . S
C748 C747 1.415 . S
C749 H725 0.951 . S
C749 C750 1.366 . S
C749 C751 1.388 1_565 S
C750 C749 1.366 . S
C750 C754 1.385 . S
C751 H726 0.951 . S
C751 C749 1.388 1_545 S
C751 C752 1.366 . S
C752 C751 1.366 . S
C752 C753 1.414 . S
C752 C755 1.499 . S
C753 H727 0.950 . S
C753 C752 1.414 . S
C753 C754 1.374 1_545 S
C754 H728 0.950 . S
C754 C750 1.385 . S
C754 C753 1.374 1_565 S
C755 C752 1.499 . S
C755 C756 1.373 . S
C755 C757 1.389 . S
C756 H729 0.950 . S
C756 C742 1.377 . S
C756 C755 1.373 . S
C757 C741 1.377 . S
C757 C755 1.389 . S
C757 C758 1.524 . S
C758 C757 1.524 . S
C758 C759 1.397 . S
C758 C763 1.363 . S
C759 H730 0.950 . S
C759 C758 1.397 . S
C759 C760 1.334 . S
C760 H731 0.950 . S
C760 C759 1.334 . S
C760 C761 1.287 . S
C761 C760 1.287 . S
C761 C762 1.524 . S
C761 H764 0.999 . S
C762 H732 0.950 . S
C762 C761 1.524 . S
C762 C763 1.415 . S
C763 H733 0.950 . S
C763 C758 1.363 . S
C763 C762 1.415 . S
H764 C761 0.999 . S
H765 C746 0.913 . S
H766 C784 0.951 . S
H767 C786 0.951 . S
H768 C788 0.950 . S
H769 C789 0.950 . S
H770 C791 0.950 . S
H771 C794 0.950 . S
H772 C795 0.950 . S
H773 C797 0.950 . S
H774 C798 0.950 . S
H775 C799 0.951 . S
H776 C801 0.951 . S
H777 C803 0.950 . S
H778 C804 0.950 . S
H779 C806 0.950 . S
H780 C809 0.950 . S
H781 C810 0.950 . S
H782 C812 0.950 . S
H783 C813 0.950 . S
C784 H766 0.951 . S
C784 C785 1.366 . S
C784 C786 1.388 . S
C785 C784 1.366 . S
C785 C789 1.385 . S
C786 H767 0.951 . S
C786 C784 1.388 . S
C786 C787 1.366 . S
C787 C786 1.366 . S
C787 C788 1.414 . S
C787 C790 1.499 . S
C788 H768 0.950 . S
C788 C787 1.414 . S
C788 C789 1.374 . S
C789 H769 0.950 . S
C789 C785 1.385 . S
C789 C788 1.374 . S
C790 C787 1.499 . S
C790 C791 1.373 . S
C790 C792 1.389 . S
C791 H770 0.950 . S
C791 C790 1.373 . S
C791 C807 1.377 1_455 S
C792 C790 1.389 . S
C792 C793 1.524 . S
C792 C806 1.377 1_455 S
C793 C792 1.524 . S
C793 C794 1.397 . S
C793 C798 1.363 . S
C794 H771 0.950 . S
C794 C793 1.397 . S
C794 C795 1.334 . S
C795 H772 0.950 . S
C795 C794 1.334 . S
C795 C796 1.287 . S
C796 C795 1.287 . S
C796 C797 1.524 . S
C796 H815 0.913 . S
C797 H773 0.950 . S
C797 C796 1.524 . S
C797 C798 1.415 . S
C798 H774 0.950 . S
C798 C793 1.363 . S
C798 C797 1.415 . S
C799 H775 0.951 . S
C799 C800 1.366 . S
C799 C801 1.388 . S
C800 C799 1.366 . S
C800 C804 1.385 . S
C801 H776 0.951 . S
C801 C799 1.388 . S
C801 C802 1.366 . S
C802 C801 1.366 . S
C802 C803 1.414 . S
C802 C805 1.499 . S
C803 H777 0.950 . S
C803 C802 1.414 . S
C803 C804 1.374 . S
C804 H778 0.950 . S
C804 C800 1.385 . S
C804 C803 1.374 . S
C805 C802 1.499 . S
C805 C806 1.373 . S
C805 C807 1.389 . S
C806 H779 0.950 . S
C806 C792 1.377 1_655 S
C806 C805 1.373 . S
C807 C791 1.377 1_655 S
C807 C805 1.389 . S
C807 C808 1.524 . S
C808 C807 1.524 . S
C808 C809 1.397 . S
C808 C813 1.363 . S
C809 H780 0.950 . S
C809 C808 1.397 . S
C809 C810 1.334 . S
C810 H781 0.950 . S
C810 C809 1.334 . S
C810 C811 1.287 . S
C811 C810 1.287 . S
C811 C812 1.524 . S
C811 H814 0.999 . S
C812 H782 0.950 . S
C812 C811 1.524 . S
C812 C813 1.415 . S
C813 H783 0.950 . S
C813 C808 1.363 . S
C813 C812 1.415 . S
H814 C811 0.999 . S
H815 C796 0.913 . S
H816 C834 0.951 . S
H817 C836 0.951 . S
H818 C838 0.950 . S
H819 C839 0.946 1_565 S
H820 C841 0.950 . S
H821 C844 0.950 . S
H822 C845 0.950 . S
H823 C847 0.950 . S
H824 C848 0.950 . S
H825 C849 0.951 . S
H826 C851 0.951 . S
H827 C853 0.950 . S
H828 C854 0.950 . S
H829 C856 0.950 . S
H830 C859 0.950 . S
H831 C860 0.950 . S
H832 C862 0.950 . S
H833 C863 0.950 . S
C834 H816 0.951 . S
C834 C835 1.366 1_455 S
C834 C836 1.388 1_565 S
C835 C834 1.366 1_655 S
C835 C839 1.380 1_565 S
C836 H817 0.951 . S
C836 C834 1.388 1_545 S
C836 C837 1.366 1_455 S
C837 C836 1.366 1_655 S
C837 C838 1.414 . S
C837 C840 1.499 . S
C838 H818 0.950 . S
C838 C837 1.414 . S
C838 C839 1.382 . S
C839 H819 0.946 1_545 S
C839 C835 1.380 1_545 S
C839 C838 1.382 . S
C840 C837 1.499 . S
C840 C841 1.373 . S
C840 C842 1.389 1_655 S
C841 H820 0.950 . S
C841 C840 1.373 . S
C841 C857 1.377 . S
C842 C840 1.389 1_455 S
C842 C843 1.524 . S
C842 C856 1.377 . S
C843 C842 1.524 . S
C843 C844 1.397 . S
C843 C848 1.363 . S
C844 H821 0.950 . S
C844 C843 1.397 . S
C844 C845 1.334 . S
C845 H822 0.950 . S
C845 C844 1.334 . S
C845 C846 1.287 . S
C846 C845 1.287 . S
C846 C847 1.524 . S
C846 H865 0.913 . S
C847 H823 0.950 . S
C847 C846 1.524 . S
C847 C848 1.415 . S
C848 H824 0.950 . S
C848 C843 1.363 . S
C848 C847 1.415 . S
C849 H825 0.951 . S
C849 C850 1.366 1_655 S
C849 C851 1.388 . S
C850 C849 1.366 1_455 S
C850 C854 1.385 . S
C851 H826 0.951 . S
C851 C849 1.388 . S
C851 C852 1.366 1_655 S
C852 C851 1.366 1_455 S
C852 C853 1.414 . S
C852 C855 1.499 . S
C853 H827 0.950 . S
C853 C852 1.414 . S
C853 C854 1.374 . S
C854 H828 0.950 . S
C854 C850 1.385 . S
C854 C853 1.374 . S
C855 C852 1.499 . S
C855 C856 1.373 . S
C855 C857 1.389 1_455 S
C856 H829 0.950 . S
C856 C842 1.377 . S
C856 C855 1.373 . S
C857 C841 1.377 . S
C857 C855 1.389 1_655 S
C857 C858 1.524 . S
C858 C857 1.524 . S
C858 C859 1.397 . S
C858 C863 1.363 . S
C859 H830 0.950 . S
C859 C858 1.397 . S
C859 C860 1.334 . S
C860 H831 0.950 . S
C860 C859 1.334 . S
C860 C861 1.287 . S
C861 C860 1.287 . S
C861 C862 1.524 . S
C861 H864 0.999 . S
C862 H832 0.950 . S
C862 C861 1.524 . S
C862 C863 1.415 . S
C863 H833 0.950 . S
C863 C858 1.363 . S
C863 C862 1.415 . S
H864 C861 0.999 . S
H865 C846 0.913 . S
H866 C884 0.951 . S
H867 C886 0.951 . S
H868 C888 0.950 . S
H869 C889 0.950 . S
H870 C891 0.950 . S
H871 C894 0.950 . S
H872 C895 0.950 . S
H873 C897 0.950 . S
H874 C898 0.950 . S
H875 C899 0.951 . S
H876 C901 0.951 . S
H877 C903 0.950 . S
H878 C904 0.950 . S
H879 C906 0.950 . S
H880 C909 0.950 . S
H881 C910 0.950 . S
H882 C912 0.950 . S
H883 C913 0.950 . S
C884 H866 0.951 . S
C884 C885 1.366 . S
C884 C886 1.388 . S
C885 C884 1.366 . S
C885 C889 1.385 . S
C886 H867 0.951 . S
C886 C884 1.388 . S
C886 C887 1.366 . S
C887 C886 1.366 . S
C887 C888 1.414 . S
C887 C890 1.499 . S
C888 H868 0.950 . S
C888 C887 1.414 . S
C888 C889 1.374 . S
C889 H869 0.950 . S
C889 C885 1.385 . S
C889 C888 1.374 . S
C890 C887 1.499 . S
C890 C891 1.373 . S
C890 C892 1.389 . S
C891 H870 0.950 . S
C891 C890 1.373 . S
C891 C907 1.377 1_655 S
C892 C890 1.389 . S
C892 C893 1.524 . S
C892 C906 1.377 1_655 S
C893 C892 1.524 . S
C893 C894 1.397 . S
C893 C898 1.363 . S
C894 H871 0.950 . S
C894 C893 1.397 . S
C894 C895 1.334 . S
C895 H872 0.950 . S
C895 C894 1.334 . S
C895 C896 1.287 . S
C896 C895 1.287 . S
C896 C897 1.524 . S
C896 H915 0.913 . S
C897 H873 0.950 . S
C897 C896 1.524 . S
C897 C898 1.415 . S
C898 H874 0.950 . S
C898 C893 1.363 . S
C898 C897 1.415 . S
C899 H875 0.951 . S
C899 C900 1.366 . S
C899 C901 1.388 . S
C900 C899 1.366 . S
C900 C904 1.385 . S
C901 H876 0.951 . S
C901 C899 1.388 . S
C901 C902 1.366 . S
C902 C901 1.366 . S
C902 C903 1.414 . S
C902 C905 1.499 . S
C903 H877 0.950 . S
C903 C902 1.414 . S
C903 C904 1.374 . S
C904 H878 0.950 . S
C904 C900 1.385 . S
C904 C903 1.374 . S
C905 C902 1.499 . S
C905 C906 1.373 . S
C905 C907 1.389 . S
C906 H879 0.950 . S
C906 C892 1.377 1_455 S
C906 C905 1.373 . S
C907 C891 1.377 1_455 S
C907 C905 1.389 . S
C907 C908 1.524 . S
C908 C907 1.524 . S
C908 C909 1.397 . S
C908 C913 1.363 . S
C909 H880 0.950 . S
C909 C908 1.397 . S
C909 C910 1.334 . S
C910 H881 0.950 . S
C910 C909 1.334 . S
C910 C911 1.287 . S
C911 C910 1.287 . S
C911 C912 1.524 . S
C911 H914 0.999 . S
C912 H882 0.950 . S
C912 C911 1.524 . S
C912 C913 1.415 . S
C913 H883 0.950 . S
C913 C908 1.363 . S
C913 C912 1.415 . S
H914 C911 0.999 . S
H915 C896 0.913 . S
H916 C934 0.951 . S
H917 C936 0.951 . S
H918 C938 0.950 . S
H919 C939 0.950 . S
H920 C941 0.950 . S
H921 C944 0.950 . S
H922 C945 0.950 . S
H923 C947 0.950 . S
H924 C948 0.950 . S
H925 C949 0.951 . S
H926 C951 0.951 . S
H927 C953 0.950 . S
H928 C954 0.945 1_545 S
H929 C956 0.950 . S
H930 C959 0.950 . S
H931 C960 0.950 . S
H932 C962 0.950 . S
H933 C963 0.950 . S
C934 H916 0.951 . S
C934 C935 1.366 . S
C934 C936 1.388 . S
C935 C934 1.366 . S
C935 C939 1.385 . S
C936 H917 0.951 . S
C936 C934 1.388 . S
C936 C937 1.366 . S
C937 C936 1.366 . S
C937 C938 1.414 . S
C937 C940 1.499 . S
C938 H918 0.950 . S
C938 C937 1.414 . S
C938 C939 1.374 . S
C939 H919 0.950 . S
C939 C935 1.385 . S
C939 C938 1.374 . S
C940 C937 1.499 . S
C940 C941 1.373 . S
C940 C942 1.389 . S
C941 H920 0.950 . S
C941 C940 1.373 . S
C941 C957 1.377 . S
C942 C940 1.389 . S
C942 C943 1.524 . S
C942 C956 1.377 . S
C943 C942 1.524 . S
C943 C944 1.397 . S
C943 C948 1.363 . S
C944 H921 0.950 . S
C944 C943 1.397 . S
C944 C945 1.334 . S
C945 H922 0.950 . S
C945 C944 1.334 . S
C945 C946 1.287 . S
C946 C945 1.287 . S
C946 C947 1.524 . S
C946 H965 0.913 . S
C947 H923 0.950 . S
C947 C946 1.524 . S
C947 C948 1.415 . S
C948 H924 0.950 . S
C948 C943 1.363 . S
C948 C947 1.415 . S
C949 H925 0.951 . S
C949 C950 1.366 . S
C949 C951 1.388 1_545 S
C950 C949 1.366 . S
C950 C954 1.379 1_545 S
C951 H926 0.951 . S
C951 C949 1.388 1_565 S
C951 C952 1.366 . S
C952 C951 1.366 . S
C952 C953 1.414 . S
C952 C955 1.499 . S
C953 H927 0.950 . S
C953 C952 1.414 . S
C953 C954 1.384 . S
C954 H928 0.945 1_565 S
C954 C950 1.379 1_565 S
C954 C953 1.384 . S
C955 C952 1.499 . S
C955 C956 1.373 . S
C955 C957 1.389 . S
C956 H929 0.950 . S
C956 C942 1.377 . S
C956 C955 1.373 . S
C957 C941 1.377 . S
C957 C955 1.389 . S
C957 C958 1.524 . S
C958 C957 1.524 . S
C958 C959 1.397 . S
C958 C963 1.363 . S
C959 H930 0.950 . S
C959 C958 1.397 . S
C959 C960 1.334 . S
C960 H931 0.950 . S
C960 C959 1.334 . S
C960 C961 1.287 . S
C961 C960 1.287 . S
C961 C962 1.524 . S
C961 H964 0.999 . S
C962 H932 0.950 . S
C962 C961 1.524 . S
C962 C963 1.415 . S
C963 H933 0.950 . S
C963 C958 1.363 . S
C963 C962 1.415 . S
H964 C961 0.999 . S
H965 C946 0.913 . S
H966 C984 0.951 . S
H967 C986 0.951 . S
H968 C988 0.950 . S
H969 C989 0.950 . S
H970 C991 0.950 . S
H971 C994 0.950 . S
H972 C995 0.950 . S
H973 C997 0.950 . S
H974 C998 0.950 . S
H975 C999 0.951 . S
H976 C1001 0.951 . S
H977 C1003 0.950 . S
H978 C1004 0.950 . S
H979 C1006 0.950 . S
H980 C1009 0.950 . S
H981 C1010 0.950 . S
H982 C1012 0.950 . S
H983 C1013 0.950 . S
C984 H966 0.951 . S
C984 C985 1.366 . S
C984 C986 1.388 . S
C985 C984 1.366 . S
C985 C989 1.385 . S
C986 H967 0.951 . S
C986 C984 1.388 . S
C986 C987 1.366 . S
C987 C986 1.366 . S
C987 C988 1.414 . S
C987 C990 1.499 . S
C988 H968 0.950 . S
C988 C987 1.414 . S
C988 C989 1.374 . S
C989 H969 0.950 . S
C989 C985 1.385 . S
C989 C988 1.374 . S
C990 C987 1.499 . S
C990 C991 1.373 . S
C990 C992 1.389 . S
C991 H970 0.950 . S
C991 C990 1.373 . S
C991 C1007 1.377 . S
C992 C990 1.389 . S
C992 C993 1.524 . S
C992 C1006 1.377 . S
C993 C992 1.524 . S
C993 C994 1.397 . S
C993 C998 1.363 . S
C994 H971 0.950 . S
C994 C993 1.397 . S
C994 C995 1.334 . S
C995 H972 0.950 . S
C995 C994 1.334 . S
C995 C996 1.287 . S
C996 C995 1.287 . S
C996 C997 1.524 . S
C996 H1015 0.913 . S
C997 H973 0.950 . S
C997 C996 1.524 . S
C997 C998 1.415 . S
C998 H974 0.950 . S
C998 C993 1.363 . S
C998 C997 1.415 . S
C999 H975 0.951 . S
C999 C1000 1.366 . S
C999 C1001 1.388 . S
C1000 C999 1.366 . S
C1000 C1004 1.385 . S
C1001 H976 0.951 . S
C1001 C999 1.388 . S
C1001 C1002 1.366 . S
C1002 C1001 1.366 . S
C1002 C1003 1.414 . S
C1002 C1005 1.499 . S
C1003 H977 0.950 . S
C1003 C1002 1.414 . S
C1003 C1004 1.374 . S
C1004 H978 0.950 . S
C1004 C1000 1.385 . S
C1004 C1003 1.374 . S
C1005 C1002 1.499 . S
C1005 C1006 1.373 . S
C1005 C1007 1.389 . S
C1006 H979 0.950 . S
C1006 C992 1.377 . S
C1006 C1005 1.373 . S
C1007 C991 1.377 . S
C1007 C1005 1.389 . S
C1007 C1008 1.524 . S
C1008 C1007 1.524 . S
C1008 C1009 1.397 . S
C1008 C1013 1.363 . S
C1009 H980 0.950 . S
C1009 C1008 1.397 . S
C1009 C1010 1.334 . S
C1010 H981 0.950 . S
C1010 C1009 1.334 . S
C1010 C1011 1.287 . S
C1011 C1010 1.287 . S
C1011 C1012 1.524 . S
C1011 H1014 0.999 . S
C1012 H982 0.950 . S
C1012 C1011 1.524 . S
C1012 C1013 1.415 . S
C1013 H983 0.950 . S
C1013 C1008 1.363 . S
C1013 C1012 1.415 . S
H1014 C1011 0.999 . S
H1015 C996 0.913 . S
C235 C13 2.208 . S
C250 C76 2.213 . S
C285 C113 2.213 . S
C300 C67 2.209 . S
C335 C140 2.208 . S
C350 C167 2.213 . S
C385 C22 2.213 . S
C400 C194 2.209 . S
C435 C175 2.208 . S
C450 C5 2.212 . S
C485 C86 2.208 . S
C500 C130 2.212 . S
C535 C121 2.208 . S
C550 C184 2.213 . S
C585 C32 2.208 . S
C600 C59 2.213 . S
C635 C28 0.459 . S
C650 C35 0.459 . S
C685 C82 0.459 . S
C700 C89 0.459 . S
C735 C136 0.459 . S
C750 C143 0.459 . S
C785 C197 0.459 . S
C800 C190 0.459 . S
C835 C81 1.688 1_655 S
C850 C64 1.688 1_455 S
C885 C135 1.688 . S
C900 C118 1.688 . S
C935 C189 1.688 . S
C950 C172 1.688 . S
C985 C10 1.688 . S
C1000 C27 1.688 . S
