# Generated by pormake.
# Topology snk, (6)-cn, num edge types: 1
# Building blocks:
#     Node 0, Type 0, BuildingBlock: KUMBOL_clean_sbu_0, # of connection points: 6
#     Node 1, Type 0, BuildingBlock: KUMBOL_clean_sbu_0, # of connection points: 6
#     Node 2, Type 0, BuildingBlock: KUMBOL_clean_sbu_0, # of connection points: 6
#     Node 3, Type 0, BuildingBlock: KUMBOL_clean_sbu_0, # of connection points: 6
#     Node 4, Type 0, BuildingBlock: KUMBOL_clean_sbu_0, # of connection points: 6
#     Node 5, Type 0, BuildingBlock: KUMBOL_clean_sbu_0, # of connection points: 6
#     Node 6, Type 0, BuildingBlock: KUMBOL_clean_sbu_0, # of connection points: 6
#     Node 7, Type 0, BuildingBlock: KUMBOL_clean_sbu_0, # of connection points: 6
#     Edge 8, Type (0, 0), BuildingBlock: TEMPAE_clean_linker_10, # of connection points: 2
#     Edge 9, Type (0, 0), BuildingBlock: TEMPAE_clean_linker_10, # of connection points: 2
#     Edge 10, Type (0, 0), BuildingBlock: TEMPAE_clean_linker_10, # of connection points: 2
#     Edge 11, Type (0, 0), BuildingBlock: TEMPAE_clean_linker_10, # of connection points: 2
#     Edge 12, Type (0, 0), BuildingBlock: TEMPAE_clean_linker_10, # of connection points: 2
#     Edge 13, Type (0, 0), BuildingBlock: TEMPAE_clean_linker_10, # of connection points: 2
#     Edge 14, Type (0, 0), BuildingBlock: TEMPAE_clean_linker_10, # of connection points: 2
#     Edge 15, Type (0, 0), BuildingBlock: TEMPAE_clean_linker_10, # of connection points: 2
#     Edge 16, Type (0, 0), BuildingBlock: TEMPAE_clean_linker_10, # of connection points: 2
#     Edge 17, Type (0, 0), BuildingBlock: TEMPAE_clean_linker_10, # of connection points: 2
#     Edge 18, Type (0, 0), BuildingBlock: TEMPAE_clean_linker_10, # of connection points: 2
#     Edge 19, Type (0, 0), BuildingBlock: TEMPAE_clean_linker_10, # of connection points: 2
#     Edge 20, Type (0, 0), BuildingBlock: TEMPAE_clean_linker_10, # of connection points: 2
#     Edge 21, Type (0, 0), BuildingBlock: TEMPAE_clean_linker_10, # of connection points: 2
#     Edge 22, Type (0, 0), BuildingBlock: TEMPAE_clean_linker_10, # of connection points: 2
#     Edge 23, Type (0, 0), BuildingBlock: TEMPAE_clean_linker_10, # of connection points: 2
#     Edge 24, Type (0, 0), BuildingBlock: TEMPAE_clean_linker_10, # of connection points: 2
#     Edge 25, Type (0, 0), BuildingBlock: TEMPAE_clean_linker_10, # of connection points: 2
#     Edge 26, Type (0, 0), BuildingBlock: TEMPAE_clean_linker_10, # of connection points: 2
#     Edge 27, Type (0, 0), BuildingBlock: TEMPAE_clean_linker_10, # of connection points: 2
#     Edge 28, Type (0, 0), BuildingBlock: TEMPAE_clean_linker_10, # of connection points: 2
#     Edge 29, Type (0, 0), BuildingBlock: TEMPAE_clean_linker_10, # of connection points: 2
#     Edge 30, Type (0, 0), BuildingBlock: TEMPAE_clean_linker_10, # of connection points: 2
#     Edge 31, Type (0, 0), BuildingBlock: TEMPAE_clean_linker_10, # of connection points: 2
# Relax obj value: 0.006
# Max RMSD: 0.053
# Mean RMSD: 0.050
data_MOF--net-snk--node1-KUMBOL_clean_sbu_0--edge1-TEMPAE_clean_linker_10
_symmetry_space_group_name_H-M    P1
_symmetry_Int_Tables_number       1
_symmetry_cell_setting            triclinic
loop_
_symmetry_equiv_pos_as_xyz
'x, y, z'
_cell_length_a     38.463074
_cell_length_b     38.464608
_cell_length_c     24.897065
_cell_angle_alpha  88.757436
_cell_angle_beta   88.682764
_cell_angle_gamma 89.837606
loop_
_atom_site_label
_atom_site_type_symbol
_atom_site_fract_x
_atom_site_fract_y
_atom_site_fract_z
_atom_type_partial_charge
Gd0 Gd 0.00256 0.02964 0.57932 0.0
Gd1 Gd 1.00144 0.97574 0.46108 0.0
C2 C 0.93655 0.8762 0.47258 0.0
C3 C 0.98103 0.83128 0.47021 0.0
C4 C 0.99711 0.89234 0.46344 0.0
C5 C 0.96269 0.90188 0.46937 0.0
C6 C 0.00657 0.85694 0.4614 0.0
C7 C 0.94599 0.84092 0.47573 0.0
C8 C 0.90185 0.88658 0.46807 0.0
C9 C 0.89422 0.92152 0.45756 0.0
N10 N 0.95459 0.93614 0.46449 0.0
C11 C 0.921 0.9461 0.45603 0.0
H12 H 0.91447 0.97305 0.44879 0.0
C13 C 0.05342 0.90965 0.43431 0.0
N14 N 0.02075 0.9178 0.45294 0.0
C15 C 0.0642 0.87492 0.43216 0.0
C16 C 0.04091 0.84845 0.4471 0.0
H17 H 0.07166 0.9301 0.42352 0.0
H18 H 0.9263 0.82085 0.4793 0.0
H19 H 0.09065 0.02934 0.57091 0.0
H20 H 0.88101 0.86767 0.46968 0.0
H21 H 0.86766 0.92966 0.45123 0.0
H22 H 0.98785 0.80393 0.46975 0.0
H23 H 0.9313 0.07454 0.61045 0.0
H24 H 0.1266 0.13218 0.59714 0.0
H25 H 0.13864 0.07022 0.58015 0.0
H26 H 0.0217 0.19787 0.62147 0.0
H27 H 0.09049 0.86862 0.41926 0.0
H28 H 0.04923 0.82156 0.445 0.0
H29 H 0.08283 0.17978 0.61105 0.0
H30 H 0.91413 0.13506 0.62983 0.0
N31 N 0.05076 0.06755 0.58092 0.0
C32 C 0.10516 0.11432 0.59277 0.0
C33 C 0.11205 0.07938 0.58322 0.0
C34 C 0.07069 0.12583 0.59654 0.0
C35 C 0.04372 0.10154 0.59042 0.0
C36 C 0.08448 0.05619 0.57796 0.0
N37 N 0.98442 0.08703 0.59486 0.0
C38 C 0.00939 0.11175 0.59618 0.0
C39 C 0.941 0.12894 0.62012 0.0
C40 C 0.96615 0.15504 0.61913 0.0
C41 C 0.95078 0.09475 0.60903 0.0
C42 C 1.00098 0.14647 0.60847 0.0
H43 H 0.95861 0.18141 0.62858 0.0
O44 O 0.97567 0.02732 0.65745 0.0
O45 O 0.98209 0.98016 0.54602 0.0
O46 O 0.9587 0.01699 0.45828 0.0
O47 O 0.97235 0.06082 0.51768 0.0
O48 O 0.94709 0.01007 0.58819 0.0
O49 O 0.03047 0.01549 0.65148 0.0
O50 O 0.0277 0.97664 0.38254 0.0
O51 O 0.02113 0.0264 0.49286 0.0
O52 O 0.04533 0.98893 0.58293 0.0
O53 O 0.03353 0.94584 0.52168 0.0
O54 O 0.05585 0.99657 0.45015 0.0
O55 O 0.97236 0.98522 0.38838 0.0
C56 C 0.95078 0.98112 0.56363 0.0
C57 C 0.02766 0.17105 0.61241 0.0
C58 C 0.06246 0.16071 0.60676 0.0
C59 C 0.00367 0.01958 0.6837 0.0
C60 C 0.00981 0.03911 0.73306 0.0
C61 C 0.01865 0.0744 0.72982 0.0
C62 C 0.0078 0.02226 0.78389 0.0
C63 C 0.01483 0.0407 0.8309 0.0
C64 C 0.02517 0.09285 0.776 0.0
C65 C 0.02329 0.07621 0.8262 0.0
C66 C 0.95471 0.04891 0.47678 0.0
C67 C 0.05193 0.0263 0.47249 0.0
C68 C 0.9991 0.98082 0.35626 0.0
C69 C 0.99398 0.95759 0.31079 0.0
C70 C 0.98416 0.92287 0.32001 0.0
C71 C 0.9987 0.97019 0.25764 0.0
C72 C 0.99384 0.94812 0.21386 0.0
C73 C 0.97937 0.90089 0.27702 0.0
C74 C 0.98418 0.91333 0.22431 0.0
C75 C 0.05036 0.9576 0.56328 0.0
H76 H 0.02075 0.08774 0.69173 0.0
H77 H 1.00144 0.99483 0.7867 0.0
H78 H 0.03181 0.12016 0.77282 0.0
H79 H 0.0282 0.09126 0.86151 0.0
H80 H 0.97998 0.91276 0.36034 0.0
H81 H 0.00642 0.99701 0.25047 0.0
H82 H 0.97171 0.87414 0.28457 0.0
H83 H 0.97975 0.89583 0.19167 0.0
Gd84 Gd 0.22455 0.75925 0.8328 0.0
Gd85 Gd 0.2786 0.74658 0.70907 0.0
C86 C 0.37168 0.67275 0.70518 0.0
C87 C 0.42005 0.71268 0.69086 0.0
C88 C 0.36079 0.73463 0.69701 0.0
C89 C 0.3485 0.7012 0.7056 0.0
C90 C 0.39663 0.74073 0.68841 0.0
C91 C 0.40758 0.67873 0.69906 0.0
C92 C 0.35799 0.63912 0.70907 0.0
C93 C 0.32206 0.6345 0.7131 0.0
N94 N 0.31364 0.69635 0.71088 0.0
C95 C 0.30012 0.66354 0.71334 0.0
H96 H 0.2724 0.65951 0.71603 0.0
C97 C 0.34775 0.79376 0.67856 0.0
N98 N 0.33738 0.76097 0.69378 0.0
C99 C 0.38307 0.80118 0.67007 0.0
C100 C 0.40767 0.77464 0.67573 0.0
H101 H 0.3288 0.81436 0.67438 0.0
H102 H 0.42583 0.65721 0.69933 0.0
H103 H 0.23052 0.84636 0.82819 0.0
H104 H 0.37485 0.61656 0.70755 0.0
H105 H 0.31122 0.60857 0.7156 0.0
H106 H 0.44773 0.71685 0.68487 0.0
H107 H 0.17456 0.69106 0.8662 0.0
H108 H 0.12789 0.8889 0.83702 0.0
H109 H 0.19152 0.89718 0.82968 0.0
H110 H 0.05533 0.78825 0.85705 0.0
H111 H 0.39128 0.82735 0.65929 0.0
H112 H 0.435 0.78042 0.66892 0.0
H113 H 0.07704 0.84806 0.84387 0.0
H114 H 0.11212 0.67779 0.88097 0.0
N115 N 0.18939 0.80938 0.83194 0.0
C116 C 0.14483 0.86643 0.83497 0.0
C117 C 0.18076 0.8712 0.83139 0.0
C118 C 0.13125 0.83273 0.83789 0.0
C119 C 0.15453 0.80436 0.8369 0.0
C120 C 0.2028 0.84224 0.83055 0.0
N121 N 0.16583 0.74454 0.84768 0.0
C122 C 0.14234 0.77084 0.84488 0.0
C123 C 0.12026 0.70405 0.87064 0.0
C124 C 0.09557 0.73055 0.86534 0.0
C125 C 0.15555 0.71163 0.86233 0.0
C126 C 0.10652 0.76457 0.85327 0.0
H127 H 0.06826 0.72464 0.87199 0.0
O128 O 0.22651 0.73523 0.91266 0.0
O129 O 0.2696 0.73193 0.79527 0.0
O130 O 0.23347 0.70911 0.71842 0.0
O131 O 0.19084 0.7359 0.77123 0.0
O132 O 0.23933 0.70276 0.8477 0.0
O133 O 0.23881 0.78978 0.9012 0.0
O134 O 0.27677 0.77016 0.62884 0.0
O135 O 0.23395 0.77419 0.74692 0.0
O136 O 0.26964 0.79683 0.82401 0.0
O137 O 0.31213 0.77065 0.76996 0.0
O138 O 0.26392 0.80311 0.69372 0.0
O139 O 0.26401 0.71582 0.64117 0.0
C140 C 0.26721 0.70238 0.818 0.0
C141 C 0.083 0.79256 0.85123 0.0
C142 C 0.09536 0.8266 0.84374 0.0
C143 C 0.23389 0.76426 0.93589 0.0
C144 C 0.21319 0.77229 0.9847 0.0
C145 C 0.1802 0.78757 0.98063 0.0
C146 C 0.2263 0.76438 0.03591 0.0
C147 C 0.20637 0.77143 0.08278 0.0
C148 C 0.16041 0.79468 0.02671 0.0
C149 C 0.1733 0.78667 0.07743 0.0
C150 C 0.2006 0.71437 0.7331 0.0
C151 C 0.23643 0.80376 0.72427 0.0
C152 C 0.26902 0.74107 0.60608 0.0
C153 C 0.28944 0.73244 0.55727 0.0
C154 C 0.3229 0.71825 0.5614 0.0
C155 C 0.27534 0.738 0.50606 0.0
C156 C 0.29452 0.72914 0.45924 0.0
C157 C 0.34212 0.70974 0.51537 0.0
C158 C 0.32811 0.71508 0.46466 0.0
C159 C 0.30241 0.79214 0.80817 0.0
H160 H 0.16975 0.79411 0.94192 0.0
H161 H 0.25172 0.75238 0.03918 0.0
H162 H 0.135 0.80656 0.0231 0.0
H163 H 0.15754 0.79287 0.11258 0.0
H164 H 0.33415 0.7136 0.60012 0.0
H165 H 0.24932 0.74862 0.50279 0.0
H166 H 0.36799 0.69891 0.51902 0.0
H167 H 0.34376 0.70853 0.42957 0.0
Gd168 Gd 0.49792 0.03063 0.95555 0.0
Gd169 Gd 0.5109 0.97637 0.07889 0.0
C170 C 0.58552 0.88399 0.08316 0.0
C171 C 0.54596 0.83529 0.09715 0.0
C172 C 0.5235 0.89434 0.09078 0.0
C173 C 0.55686 0.90693 0.08255 0.0
C174 C 0.51769 0.85846 0.09933 0.0
C175 C 0.57984 0.84805 0.08923 0.0
C176 C 0.61904 0.89797 0.07941 0.0
C177 C 0.62337 0.93394 0.07546 0.0
N178 N 0.56144 0.94183 0.07731 0.0
C179 C 0.59414 0.95563 0.0751 0.0
H180 H 0.59791 0.98339 0.07245 0.0
C181 C 0.46417 0.90686 0.10875 0.0
N182 N 0.49691 0.9175 0.09371 0.0
C183 C 0.45704 0.87149 0.11718 0.0
C184 C 0.48383 0.84712 0.11171 0.0
H185 H 0.4434 0.92563 0.1128 0.0
H186 H 0.60151 0.82999 0.08911 0.0
H187 H 0.41083 0.0245 0.96282 0.0
H188 H 0.64174 0.8813 0.081 0.0
H189 H 0.64921 0.945 0.07309 0.0
H190 H 0.54202 0.80758 0.1031 0.0
H191 H 0.56576 0.08082 0.92104 0.0
H192 H 0.368 0.12704 0.95597 0.0
H193 H 0.35993 0.0634 0.96336 0.0
H194 H 0.46834 0.1998 0.93264 0.0
H195 H 0.43091 0.86305 0.12778 0.0
H196 H 0.47828 0.81975 0.11848 0.0
H197 H 0.40871 0.17796 0.94751 0.0
H198 H 0.57877 0.14329 0.90615 0.0
N199 N 0.44771 0.06569 0.95772 0.0
C200 C 0.39054 0.11014 0.95698 0.0
C201 C 0.38587 0.0742 0.96065 0.0
C202 C 0.42418 0.12378 0.95278 0.0
C203 C 0.4526 0.10055 0.9527 0.0
C204 C 0.41488 0.05221 0.96034 0.0
N205 N 0.51237 0.0894 0.94054 0.0
C206 C 0.48604 0.11282 0.94398 0.0
C207 C 0.5526 0.13509 0.91698 0.0
C208 C 0.52607 0.1597 0.92286 0.0
C209 C 0.54516 0.09977 0.92536 0.0
C210 C 0.49216 0.14867 0.93561 0.0
H211 H 0.53187 0.18703 0.91618 0.0
O212 O 0.52136 0.02889 0.87519 0.0
O213 O 0.52567 0.98582 0.99284 0.0
O214 O 0.54785 0.02201 0.07026 0.0
O215 O 0.52112 0.06441 1.01699 0.0
O216 O 0.5545 0.01627 0.94018 0.0
O217 O 0.46701 0.01613 0.88773 0.0
O218 O 0.48669 0.97871 0.15868 0.0
O219 O 0.48316 0.02111 0.04161 0.0
O220 O 0.46051 0.98548 0.96472 0.0
O221 O 0.48714 0.94279 0.01763 0.0
O222 O 0.45432 0.99073 0.09425 0.0
O223 O 0.54151 0.98975 0.14754 0.0
C224 C 0.55521 0.9885 0.97006 0.0
C225 C 0.46415 0.17212 0.93845 0.0
C226 C 0.43019 0.15969 0.94688 0.0
C227 C 0.49224 0.02117 0.85254 0.0
C228 C 0.48359 0.04162 0.80381 0.0
C229 C 0.46953 0.07513 0.8081 0.0
C230 C 0.48908 0.02754 0.75252 0.0
C231 C 0.48028 0.04679 0.70578 0.0
C232 C 0.46108 0.09441 0.76216 0.0
C233 C 0.46636 0.08043 0.71137 0.0
C234 C 0.54213 0.05484 0.05584 0.0
C235 C 0.45365 0.01859 0.06453 0.0
C236 C 0.5158 0.98547 0.18209 0.0
C237 C 0.52323 0.96469 0.231 0.0
C238 C 0.53799 0.93145 0.22708 0.0
C239 C 0.51537 0.978 0.28214 0.0
C240 C 0.52194 0.95802 0.32911 0.0
C241 C 0.54461 0.91161 0.27325 0.0
C242 C 0.53665 0.92469 0.3239 0.0
C243 C 0.46549 0.95264 0.97977 0.0
H244 H 0.46494 0.08637 0.84688 0.0
H245 H 0.49961 1.00149 0.74913 0.0
H246 H 0.45035 0.12031 0.76593 0.0
H247 H 0.45987 0.09614 0.67637 0.0
H248 H 0.54453 0.92085 0.18842 0.0
H249 H 0.50379 0.00362 0.28528 0.0
H250 H 0.55609 0.886 0.26976 0.0
H251 H 0.54249 0.90889 0.3591 0.0
Gd252 Gd 0.22767 0.24763 0.20939 0.0
Gd253 Gd 0.27946 0.25629 0.32808 0.0
C254 C 0.37455 0.3264 0.33949 0.0
C255 C 0.42014 0.28473 0.36036 0.0
C256 C 0.36125 0.26488 0.34505 0.0
C257 C 0.35069 0.29882 0.33535 0.0
C258 C 0.39598 0.25752 0.35853 0.0
C259 C 0.40939 0.31912 0.35126 0.0
C260 C 0.3626 0.36054 0.33247 0.0
C261 C 0.3276 0.36655 0.32225 0.0
N262 N 0.31664 0.30504 0.32513 0.0
C263 C 0.3048 0.33846 0.31939 0.0
H264 H 0.27783 0.3439 0.31206 0.0
C265 C 0.34508 0.20643 0.36267 0.0
N266 N 0.33693 0.23943 0.34565 0.0
C267 C 0.37934 0.19765 0.37493 0.0
C268 C 0.40501 0.22324 0.37227 0.0
H269 H 0.32515 0.18668 0.36554 0.0
H270 H 0.42813 0.33995 0.35405 0.0
H271 H 0.22903 0.16018 0.22742 0.0
H272 H 0.38013 0.3824 0.33511 0.0
H273 H 0.31807 0.39288 0.31696 0.0
H274 H 0.44696 0.27956 0.37039 0.0
H275 H 0.18231 0.31707 0.1703 0.0
H276 H 0.12672 0.12162 0.20451 0.0
H277 H 0.18868 0.11121 0.22354 0.0
H278 H 0.06049 0.22419 0.16472 0.0
H279 H 0.38583 0.17126 0.38693 0.0
H280 H 0.43143 0.21652 0.38265 0.0
H281 H 0.079 0.16395 0.18339 0.0
H282 H 0.12188 0.33235 0.14727 0.0
N283 N 0.19036 0.19897 0.213 0.0
C284 C 0.14431 0.14348 0.20667 0.0
C285 C 0.17925 0.1375 0.2174 0.0
C286 C 0.13251 0.17756 0.19836 0.0
C287 C 0.15643 0.20513 0.20192 0.0
C288 C 0.20211 0.16558 0.21968 0.0
N289 N 0.17038 0.26441 0.19053 0.0
C290 C 0.14607 0.23895 0.1909 0.0
C291 C 0.12826 0.30602 0.15976 0.0
C292 C 0.10257 0.28043 0.16218 0.0
C293 C 0.16237 0.29732 0.17296 0.0
C294 C 0.11146 0.24625 0.1767 0.0
H295 H 0.07625 0.28711 0.15119 0.0
O296 O 0.2307 0.27021 0.12821 0.0
O297 O 0.27711 0.27054 0.24023 0.0
O298 O 0.23764 0.29804 0.32392 0.0
O299 O 0.19464 0.27981 0.26648 0.0
O300 O 0.24695 0.30232 0.19305 0.0
O301 O 0.24069 0.21541 0.14136 0.0
O302 O 0.2771 0.23346 0.40914 0.0
O303 O 0.22995 0.23361 0.29734 0.0
O304 O 0.26945 0.20589 0.21341 0.0
O305 O 0.31254 0.22463 0.27019 0.0
O306 O 0.26003 0.20161 0.34418 0.0
O307 O 0.26608 0.28807 0.39654 0.0
C308 C 0.27634 0.30035 0.21682 0.0
C309 C 0.08722 0.21907 0.1753 0.0
C310 C 0.09778 0.18477 0.18578 0.0
C311 C 0.23689 0.24046 0.10583 0.0
C312 C 0.21633 0.23236 0.05826 0.0
C313 C 0.18519 0.21361 0.06385 0.0
C314 C 0.22815 0.24287 1.00649 0.0
C315 C 0.20859 0.2352 0.96095 0.0
C316 C 0.16548 0.20646 0.01917 0.0
C317 C 0.17698 0.21724 0.96804 0.0
C318 C 0.20573 0.29986 0.30517 0.0
C319 C 0.23052 0.20382 0.32078 0.0
C320 C 0.27004 0.26293 0.43185 0.0
C321 C 0.28997 0.27132 0.47995 0.0
C322 C 0.32334 0.28568 0.47457 0.0
C323 C 0.27525 0.26598 0.53181 0.0
C324 C 0.29384 0.27516 0.57769 0.0
C325 C 0.34211 0.29408 0.51961 0.0
C326 C 0.32756 0.28887 0.57084 0.0
C327 C 0.30152 0.20451 0.23153 0.0
H328 H 0.17627 0.20399 0.10249 0.0
H329 H 0.25245 0.25694 1.00167 0.0
H330 H 0.14144 0.19207 0.02415 0.0
H331 H 0.16159 0.21068 0.93381 0.0
H332 H 0.33484 0.29082 0.43571 0.0
H333 H 0.24919 0.25552 0.53632 0.0
H334 H 0.36796 0.30492 0.51473 0.0
H335 H 0.34277 0.2955 0.60522 0.0
Gd336 Gd 0.72732 0.26152 0.32866 0.0
Gd337 Gd 0.77927 0.24455 0.20424 0.0
C338 C 0.87087 0.1689 0.19896 0.0
C339 C 0.91974 0.20772 0.18117 0.0
C340 C 0.861 0.23086 0.18907 0.0
C341 C 0.84822 0.19779 0.19935 0.0
C342 C 0.89682 0.23618 0.17891 0.0
C343 C 0.90676 0.1741 0.19098 0.0
C344 C 0.85664 0.13558 0.20492 0.0
C345 C 0.82069 0.13168 0.21079 0.0
N346 N 0.81337 0.19366 0.20648 0.0
C347 C 0.79929 0.16112 0.21086 0.0
H348 H 0.77156 0.1576 0.21501 0.0
C349 C 0.84886 0.29011 0.17 0.0
N350 N 0.83807 0.25764 0.18623 0.0
C351 C 0.88419 0.29677 0.16 0.0
C352 C 0.90834 0.26977 0.16514 0.0
H353 H 0.83026 0.31106 0.16622 0.0
H354 H 0.9246 0.15225 0.19122 0.0
H355 H 0.73542 0.34834 0.31612 0.0
H356 H 0.87305 0.1127 0.20361 0.0
H357 H 0.80942 0.10599 0.21489 0.0
H358 H 0.94739 0.21129 0.17395 0.0
H359 H 0.67593 0.19546 0.36742 0.0
H360 H 0.6341 0.39374 0.32609 0.0
H361 H 0.69777 0.40012 0.31511 0.0
H362 H 0.55922 0.29561 0.35644 0.0
H363 H 0.89276 0.3227 0.14843 0.0
H364 H 0.93567 0.27496 0.15716 0.0
H365 H 0.58232 0.35444 0.33839 0.0
H366 H 0.6133 0.18418 0.38462 0.0
N367 N 0.69344 0.31251 0.32506 0.0
C368 C 0.65042 0.37077 0.32525 0.0
C369 C 0.68639 0.37449 0.31954 0.0
C370 C 0.63602 0.33754 0.33157 0.0
C371 C 0.65855 0.30856 0.33194 0.0
C372 C 0.70766 0.34496 0.32011 0.0
N373 N 0.6684 0.24875 0.34627 0.0
C374 C 0.64561 0.2756 0.34271 0.0
C375 C 0.62202 0.20999 0.37267 0.0
C376 C 0.598 0.23704 0.36675 0.0
C377 C 0.65742 0.21645 0.36301 0.0
C378 C 0.60972 0.27049 0.35253 0.0
H379 H 0.57062 0.23201 0.37449 0.0
O380 O 0.7297 0.23956 0.40987 0.0
O381 O 0.77121 0.2322 0.29142 0.0
O382 O 0.73393 0.20781 0.21809 0.0
O383 O 0.69248 0.23671 0.27038 0.0
O384 O 0.74122 0.20518 0.34708 0.0
O385 O 0.74314 0.2935 0.39455 0.0
O386 O 0.77724 0.26634 0.12287 0.0
O387 O 0.73536 0.27374 0.24145 0.0
O388 O 0.77291 0.29796 0.31518 0.0
O389 O 0.8143 0.26892 0.26299 0.0
O390 O 0.76523 0.30089 0.18607 0.0
O391 O 0.76211 0.21291 0.1388 0.0
C392 C 0.76845 0.20331 0.31612 0.0
C393 C 0.58693 0.29903 0.34947 0.0
C394 C 0.60007 0.33252 0.33921 0.0
C395 C 0.73791 0.26906 0.43098 0.0
C396 C 0.71783 0.27885 0.47963 0.0
C397 C 0.68673 0.29769 0.47524 0.0
C398 C 0.7296 0.26906 0.53099 0.0
C399 C 0.71022 0.27785 0.57768 0.0
C400 C 0.6675 0.3065 0.52112 0.0
C401 C 0.67906 0.29668 0.57195 0.0
C402 C 0.70139 0.21373 0.23394 0.0
C403 C 0.73784 0.30262 0.2167 0.0
C404 C 0.76779 0.23711 0.10214 0.0
C405 C 0.78697 0.22646 0.05314 0.0
C406 C 0.81858 0.20845 0.05701 0.0
C407 C 0.77351 0.23398 1.002 0.0
C408 C 0.79142 0.22322 0.95501 0.0
C409 C 0.83657 0.19805 1.01083 0.0
C410 C 0.82316 0.20531 0.96021 0.0
C411 C 0.80546 0.29183 0.29962 0.0
H412 H 0.67734 0.30576 0.43643 0.0
H413 H 0.75352 0.25431 0.53451 0.0
H414 H 0.64357 0.32114 0.51727 0.0
H415 H 0.66382 0.3043 0.60691 0.0
H416 H 0.82932 0.20225 0.09566 0.0
H417 H 0.74891 0.24761 0.9989 0.0
H418 H 0.86102 0.18425 1.01428 0.0
H419 H 0.83786 0.19719 0.92501 0.0
Gd420 Gd 0.72634 0.752 0.70598 0.0
Gd421 Gd 0.78013 0.75368 0.82425 0.0
C422 C 0.88044 0.81738 0.81226 0.0
C423 C 0.92485 0.77242 0.81557 0.0
C424 C 0.8636 0.75706 0.82231 0.0
C425 C 0.85446 0.79154 0.81576 0.0
C426 C 0.89889 0.74723 0.82466 0.0
C427 C 0.91562 0.80753 0.80943 0.0
C428 C 0.87042 0.85222 0.81617 0.0
C429 C 0.83554 0.8603 0.82644 0.0
N430 N 0.82028 0.80004 0.82033 0.0
C431 C 0.81067 0.83379 0.82832 0.0
H432 H 0.78377 0.84062 0.83537 0.0
C433 C 0.84559 0.70111 0.85207 0.0
N434 N 0.83785 0.73378 0.83302 0.0
C435 C 0.88019 0.68998 0.85459 0.0
C436 C 0.90696 0.71289 0.8395 0.0
H437 H 0.82491 0.68315 0.86296 0.0
H438 H 0.93591 0.82698 0.80564 0.0
H439 H 0.72827 0.66389 0.71653 0.0
H440 H 0.88956 0.87285 0.81433 0.0
H441 H 0.82769 0.88699 0.83235 0.0
H442 H 0.95212 0.76531 0.81627 0.0
H443 H 0.68003 0.82223 0.67496 0.0
H444 H 0.62645 0.62569 0.68914 0.0
H445 H 0.68844 0.61503 0.70756 0.0
H446 H 0.55892 0.72906 0.66176 0.0
H447 H 0.88616 0.6637 0.86787 0.0
H448 H 0.93375 0.70429 0.84186 0.0
H449 H 0.57819 0.66837 0.67317 0.0
H450 H 0.61924 0.83808 0.65505 0.0
N451 N 0.68942 0.70297 0.705 0.0
C452 C 0.64384 0.64752 0.69339 0.0
C453 C 0.6788 0.64141 0.70375 0.0
C454 C 0.6317 0.68173 0.68865 0.0
C455 C 0.65539 0.70924 0.69478 0.0
C456 C 0.70139 0.66949 0.70883 0.0
N457 N 0.66865 0.76884 0.69009 0.0
C458 C 0.64454 0.74332 0.68826 0.0
C459 C 0.62591 0.81134 0.66465 0.0
C460 C 0.60043 0.78558 0.6649 0.0
C461 C 0.66023 0.80232 0.67614 0.0
C462 C 0.60974 0.75094 0.67548 0.0
H463 H 0.57397 0.79251 0.65511 0.0
O464 O 0.72848 0.77924 0.62818 0.0
O465 O 0.7758 0.77269 0.73914 0.0
O466 O 0.73918 0.79671 0.82624 0.0
O467 O 0.69529 0.78284 0.76708 0.0
O468 O 0.74567 0.80752 0.69699 0.0
O469 O 0.74042 0.72442 0.63342 0.0
O470 O 0.77929 0.72839 0.9035 0.0
O471 O 0.72948 0.73394 0.79264 0.0
O472 O 0.76757 0.70982 0.70178 0.0
O473 O 0.81007 0.72107 0.76421 0.0
O474 O 0.75904 0.69945 0.83611 0.0
O475 O 0.76995 0.78353 0.89602 0.0
C476 C 0.77468 0.80396 0.7214 0.0
C477 C 0.58578 0.72372 0.67129 0.0
C478 C 0.59679 0.68917 0.67753 0.0
C479 C 0.73615 0.75135 0.60156 0.0
C480 C 0.71646 0.74549 0.55231 0.0
C481 C 0.68258 0.73222 0.55567 0.0
C482 C 0.73169 0.75276 0.5013 0.0
C483 C 0.71279 0.74736 0.45423 0.0
C484 C 0.66373 0.727 0.50945 0.0
C485 C 0.67862 0.73459 0.45904 0.0
C486 C 0.70731 0.80071 0.80766 0.0
C487 C 0.7294 0.7033 0.81354 0.0
C488 C 0.77452 0.75727 0.92893 0.0
C489 C 0.79735 0.76341 0.9745 0.0
C490 C 0.83236 0.77225 0.96542 0.0
C491 C 0.78394 0.76129 0.02754 0.0
C492 C 0.80537 0.76819 0.07132 0.0
C493 C 0.85378 0.77877 1.00847 0.0
C494 C 0.84046 0.77681 0.06105 0.0
C495 C 0.79862 0.70449 0.72214 0.0
H496 H 0.67072 0.72553 0.59385 0.0
H497 H 0.758 0.76275 0.49827 0.0
H498 H 0.63756 0.71674 0.51271 0.0
H499 H 0.66363 0.72977 0.42366 0.0
H500 H 0.84312 0.77432 0.92515 0.0
H501 H 0.75675 0.75494 0.03458 0.0
H502 H 0.88081 0.78546 1.00104 0.0
H503 H 0.85773 0.78176 0.09377 0.0
Gd504 Gd 0.50715 0.52845 0.07618 0.0
Gd505 Gd 0.49834 0.47684 0.9573 0.0
C506 C 0.42779 0.38231 0.94361 0.0
C507 C 0.46916 0.33693 0.92022 0.0
C508 C 0.48932 0.39546 0.93746 0.0
C509 C 0.4555 0.40598 0.94821 0.0
C510 C 0.49649 0.36092 0.92266 0.0
C511 C 0.43486 0.34766 0.93031 0.0
C512 C 0.39374 0.39428 0.95167 0.0
C513 C 0.38792 0.4291 0.96346 0.0
N514 N 0.44948 0.43983 0.96005 0.0
C515 C 0.41613 0.45171 0.96681 0.0
H516 H 0.41084 0.47855 0.97535 0.0
C517 C 0.54795 0.41143 0.92101 0.0
N518 N 0.51495 0.41956 0.93804 0.0
C519 C 0.55652 0.37736 0.90726 0.0
C520 C 0.53073 0.35188 0.90862 0.0
H521 H 0.56787 0.43122 0.91915 0.0
H522 H 0.41394 0.32907 0.92712 0.0
H523 H 0.59467 0.52717 0.05923 0.0
H524 H 0.37178 0.37689 0.94867 0.0
H525 H 0.36166 0.43863 0.96958 0.0
H526 H 0.47418 0.31026 0.90914 0.0
H527 H 0.43769 0.57378 0.11563 0.0
H528 H 0.63282 0.62989 0.07989 0.0
H529 H 0.6435 0.56774 0.0625 0.0
H530 H 0.52992 0.69621 0.11739 0.0
H531 H 0.58292 0.37087 0.89517 0.0
H532 H 0.53731 0.32561 0.8972 0.0
H533 H 0.59026 0.67772 0.09949 0.0
H534 H 0.42214 0.6344 0.13728 0.0
N535 N 0.55571 0.56588 0.07238 0.0
C536 C 0.61103 0.6122 0.07798 0.0
C537 C 0.61716 0.57715 0.06818 0.0
C538 C 0.57688 0.62398 0.0857 0.0
C539 C 0.5494 0.59993 0.08246 0.0
C540 C 0.58916 0.55417 0.06624 0.0
N541 N 0.49017 0.58584 0.0943 0.0
C542 C 0.51549 0.61031 0.09296 0.0
C543 C 0.44845 0.62805 0.12459 0.0
C544 C 0.47386 0.65388 0.12111 0.0
C545 C 0.4573 0.59382 0.1122 0.0
C546 C 0.50805 0.64504 0.10646 0.0
H547 H 0.46708 0.68029 0.13156 0.0
O548 O 0.48479 0.52577 0.15757 0.0
O549 O 0.48431 0.47899 0.04526 0.0
O550 O 0.45664 0.51868 0.96156 0.0
O551 O 0.475 0.56152 0.01916 0.0
O552 O 0.45255 0.50895 0.09286 0.0
O553 O 0.53945 0.51537 0.14405 0.0
O554 O 0.52118 0.47972 0.87623 0.0
O555 O 0.5212 0.52623 0.9882 0.0
O556 O 0.54892 0.48663 0.07145 0.0
O557 O 0.53007 0.44354 1.0147 0.0
O558 O 0.55311 0.49603 0.94126 0.0
O559 O 0.46647 0.49042 0.88921 0.0
C560 C 0.45457 0.47959 0.06895 0.0
C561 C 0.53514 0.66939 0.10738 0.0
C562 C 0.56951 0.65883 0.09739 0.0
C563 C 0.51448 0.51909 0.17978 0.0
C564 C 0.52295 0.53921 0.22768 0.0
C565 C 0.53751 0.57247 0.22197 0.0
C566 C 0.51753 0.52475 0.27967 0.0
C567 C 0.52682 0.54349 0.32536 0.0
C568 C 0.54599 0.59141 0.26682 0.0
C569 C 0.5407 0.57711 0.31819 0.0
C570 C 0.45495 0.55058 0.98039 0.0
C571 C 0.55103 0.52552 0.96479 0.0
C572 C 0.49156 0.48639 0.85376 0.0
C573 C 0.48331 0.46612 0.80592 0.0
C574 C 0.46398 0.43532 0.81106 0.0
C575 C 0.49423 0.47791 0.75434 0.0
C576 C 0.48642 0.45863 0.70856 0.0
C577 C 0.45672 0.41585 0.76615 0.0
C578 C 0.46794 0.42729 0.71521 0.0
C579 C 0.55031 0.45455 0.05322 0.0
H580 H 0.54277 0.58375 0.18298 0.0
H581 H 0.50694 0.49875 0.28443 0.0
H582 H 0.55698 0.61718 0.26171 0.0
H583 H 0.54741 0.59244 0.35243 0.0
H584 H 0.45396 0.42649 0.8495 0.0
H585 H 0.5087 0.50199 0.74983 0.0
H586 H 0.44189 0.39205 0.77079 0.0
H587 H 0.46127 0.41212 0.68077 0.0
Gd588 Gd 0.99712 0.5307 0.45205 0.0
Gd589 Gd 0.00959 0.47634 0.57546 0.0
C590 C 0.08342 0.38328 0.58015 0.0
C591 C 0.04346 0.33495 0.59447 0.0
C592 C 0.02151 0.39419 0.58789 0.0
C593 C 0.05497 0.40647 0.57947 0.0
C594 C 0.01539 0.35837 0.59652 0.0
C595 C 0.07744 0.3474 0.58647 0.0
C596 C 0.11706 0.39696 0.57626 0.0
C597 C 0.12168 0.43289 0.57199 0.0
N598 N 0.05983 0.44131 0.57399 0.0
C599 C 0.09265 0.45483 0.57152 0.0
H600 H 0.09668 0.48254 0.56865 0.0
C601 C 0.96223 0.40721 0.60524 0.0
N602 N 0.99513 0.41758 0.59061 0.0
C603 C 0.95479 0.37191 0.61375 0.0
C604 C 0.98141 0.34732 0.60869 0.0
H605 H 0.94157 0.42613 0.60899 0.0
H606 H 0.09896 0.32916 0.58643 0.0
H607 H 0.91011 0.52301 0.4555 0.0
H608 H 0.13962 0.38011 0.57793 0.0
H609 H 0.14762 0.44372 0.56946 0.0
H610 H 0.03927 0.30728 0.60053 0.0
H611 H 0.0645 0.58226 0.4208 0.0
H612 H 0.8656 0.62481 0.44833 0.0
H613 H 0.85856 0.56101 0.45419 0.0
H614 H 0.96491 0.69948 0.43168 0.0
H615 H 0.92855 0.36369 0.62412 0.0
H616 H 0.97561 0.32 0.61552 0.0
H617 H 0.90547 0.67649 0.44327 0.0
H618 H 0.07666 0.6451 0.40807 0.0
N619 N 0.94629 0.56485 0.45296 0.0
C620 C 0.8884 0.6083 0.45024 0.0
C621 C 0.88433 0.57227 0.45301 0.0
C622 C 0.92183 0.62255 0.44806 0.0
C623 C 0.95064 0.59982 0.44886 0.0
C624 C 0.91371 0.5508 0.45374 0.0
N625 N 0.01075 0.58981 0.43877 0.0
C626 C 0.98397 0.61274 0.44181 0.0
C627 C 0.05049 0.63636 0.41774 0.0
C628 C 0.02347 0.66047 0.42331 0.0
C629 C 0.04355 0.60085 0.42487 0.0
C630 C 0.98958 0.64874 0.4345 0.0
H631 H 0.02888 0.68794 0.41754 0.0
O632 O 0.0214 0.53045 0.37217 0.0
O633 O 0.02468 0.4859 0.48951 0.0
O634 O 0.04706 0.52145 0.56659 0.0
O635 O 0.02011 0.56414 0.5143 0.0
O636 O 0.05374 0.51628 0.43713 0.0
O637 O 0.9674 0.51583 0.38325 0.0
O638 O 0.98563 0.47855 0.65543 0.0
O639 O 0.9819 0.52094 0.53769 0.0
O640 O 0.96026 0.48491 0.45974 0.0
O641 O 0.98641 0.44258 0.514 0.0
O642 O 0.95288 0.49068 0.59026 0.0
O643 O 0.04018 0.49073 0.64368 0.0
C644 C 0.05425 0.48839 0.46678 0.0
C645 C 0.96112 0.67168 0.43668 0.0
C646 C 0.92728 0.65859 0.44325 0.0
C647 C 0.99279 0.52189 0.34872 0.0
C648 C 0.98388 0.54225 0.30007 0.0
C649 C 0.96951 0.57563 0.30438 0.0
C650 C 0.98924 0.5281 0.24883 0.0
C651 C 0.98 0.54713 0.20213 0.0
C652 C 0.96056 0.59469 0.25846 0.0
C653 C 0.9657 0.58061 0.2077 0.0
C654 C 0.04168 0.55434 0.55228 0.0
C655 C 0.95224 0.51827 0.55999 0.0
C656 C 0.01469 0.48595 0.6785 0.0
C657 C 0.02277 0.46537 0.72737 0.0
C658 C 0.03834 0.4325 0.72333 0.0
C659 C 0.01473 0.47849 0.77857 0.0
C660 C 0.02195 0.45871 0.82547 0.0
C661 C 0.04562 0.41286 0.76944 0.0
C662 C 0.03749 0.42577 0.82015 0.0
C663 C 0.96551 0.45211 0.47496 0.0
H664 H 0.96507 0.58693 0.34315 0.0
H665 H 1.00002 0.50215 0.24544 0.0
H666 H 0.94957 0.62048 0.26223 0.0
H667 H 0.95881 0.59613 0.17268 0.0
H668 H 0.04501 0.42205 0.68463 0.0
H669 H 0.00251 0.50382 0.7818 0.0
H670 H 0.05773 0.38755 0.76586 0.0
H671 H 0.04385 0.41014 0.8553 0.0
C672 C 0.06691 0.09213 0.46187 0.0
C673 C 0.0731 0.05704 0.44976 0.0
C674 C 0.09004 0.1191 0.44362 0.0
C675 C 0.11745 0.1119 0.4058 0.0
C676 C 0.12067 0.07719 0.38798 0.0
C677 C 0.10003 0.05045 0.41185 0.0
C678 C 0.08659 0.15443 0.46853 0.0
C679 C 0.14621 0.06757 0.34371 0.0
C680 C 0.16481 0.18906 0.3315 0.0
C681 C 0.19986 0.18271 0.3437 0.0
C682 C 0.13768 0.16626 0.3501 0.0
C683 C 0.14471 0.13896 0.38809 0.0
C684 C 0.17943 0.13555 0.40584 0.0
C685 C 0.20633 0.15597 0.38185 0.0
C686 C 0.10225 0.16993 0.32563 0.0
C687 C 0.18887 0.11003 0.45016 0.0
H688 H 0.04454 0.09854 0.48658 0.0
H689 H 0.10479 0.024 0.39937 0.0
H690 H 0.09245 0.17607 0.43992 0.0
H691 H 0.06024 0.15847 0.48655 0.0
H692 H 0.10601 0.15639 0.50049 0.0
H693 H 0.13578 0.04617 0.31955 0.0
H694 H 0.15234 0.08992 0.3162 0.0
H695 H 0.17065 0.05799 0.36159 0.0
H696 H 0.15861 0.21127 0.30625 0.0
H697 H 0.23278 0.15119 0.39426 0.0
H698 H 0.08084 0.16749 0.35577 0.0
H699 H 0.09861 0.14841 0.29741 0.0
H700 H 0.09934 0.19511 0.30349 0.0
H701 H 0.16649 0.10421 0.47784 0.0
H702 H 0.21044 0.12027 0.47411 0.0
H703 H 0.19811 0.08543 0.43232 0.0
C704 C 0.09603 0.91055 0.56177 0.0
C705 C 0.07604 0.93461 0.59059 0.0
C706 C 0.12067 0.88912 0.58727 0.0
C707 C 0.12571 0.89183 0.64326 0.0
C708 C 0.1055 0.91606 0.67267 0.0
C709 C 0.081 0.93708 0.64605 0.0
C710 C 0.14182 0.86403 0.55396 0.0
C711 C 0.10918 0.91948 0.73245 0.0
C712 C 0.17275 0.81507 0.70936 0.0
C713 C 0.20703 0.82732 0.71082 0.0
C714 C 0.14566 0.83633 0.69018 0.0
C715 C 0.15317 0.87032 0.67009 0.0
C716 C 0.18767 0.883 0.67241 0.0
C717 C 0.21409 0.86138 0.69267 0.0
C718 C 0.10921 0.82197 0.68987 0.0
C719 C 0.1969 0.91908 0.65186 0.0
H720 H 0.09327 0.90915 0.51894 0.0
H721 H 0.06542 0.95528 0.66897 0.0
H722 H 0.16981 0.87072 0.55563 0.0
H723 H 0.13875 0.8372 0.57061 0.0
H724 H 0.13409 0.86433 0.51122 0.0
H725 H 0.0961 0.94319 0.74777 0.0
H726 H 0.09712 0.89649 0.75296 0.0
H727 H 0.13697 0.92018 0.74334 0.0
H728 H 0.16713 0.78856 0.72185 0.0
H729 H 0.24061 0.87084 0.69312 0.0
H730 H 0.10104 0.81884 0.6478 0.0
H731 H 0.09077 0.84039 0.70912 0.0
H732 H 0.10712 0.79639 0.7113 0.0
H733 H 0.19196 0.92126 0.60817 0.0
H734 H 0.22457 0.9256 0.65848 0.0
H735 H 0.1802 0.93863 0.67212 0.0
C736 C 0.3642 0.80948 0.81724 0.0
C737 C 0.32941 0.81169 0.83491 0.0
C738 C 0.38979 0.82945 0.84055 0.0
C739 C 0.38035 0.85087 0.88386 0.0
C740 C 0.34581 0.85134 0.90442 0.0
C741 C 0.32056 0.83214 0.87904 0.0
C742 C 0.42634 0.829 0.817 0.0
C743 C 0.33525 0.87315 0.9519 0.0
C744 C 0.44742 0.89103 0.97058 0.0
C745 C 0.44565 0.92584 0.95302 0.0
C746 C 0.42689 0.86578 0.94749 0.0
C747 C 0.40544 0.87557 0.90445 0.0
C748 C 0.40547 0.91009 0.88392 0.0
C749 C 0.42516 0.93501 0.90913 0.0
C750 C 0.42684 0.82922 0.97092 0.0
C751 C 0.38369 0.92101 0.83664 0.0
H752 H 0.37146 0.79272 0.78454 0.0
H753 H 0.29387 0.83343 0.89374 0.0
H754 H 0.43157 0.85409 0.79552 0.0
H755 H 0.44572 0.82622 0.84909 0.0
H756 H 0.43031 0.80764 0.78813 0.0
H757 H 0.30847 0.86713 0.96694 0.0
H758 H 0.35352 0.86893 0.98528 0.0
H759 H 0.33635 0.90111 0.9401 0.0
H760 H 0.46422 0.88352 1.00305 0.0
H761 H 0.42418 0.9617 0.8945 0.0
H762 H 0.42972 0.80987 0.93874 0.0
H763 H 0.40153 0.82416 0.99191 0.0
H764 H 0.44793 0.82501 1.00013 0.0
H765 H 0.38757 0.90272 0.80315 0.0
H766 H 0.39004 0.94772 0.82164 0.0
H767 H 0.35573 0.9203 0.84862 0.0
C768 C 0.44349 0.08245 0.08076 0.0
C769 C 0.43096 0.04822 0.08056 0.0
C770 C 0.42325 0.1097 0.102 0.0
C771 C 0.39017 0.10239 0.1258 0.0
C772 C 0.3773 0.06789 0.12531 0.0
C773 C 0.39774 0.04137 0.10255 0.0
C774 C 0.4376 0.14618 0.09982 0.0
C775 C 0.34215 0.05885 0.14986 0.0
C776 C 0.35195 0.16226 0.2329 0.0
C777 C 0.32593 0.17989 0.20468 0.0
C778 C 0.37342 0.13741 0.20758 0.0
C779 C 0.36918 0.13039 0.15236 0.0
C780 C 0.34361 0.14897 0.12339 0.0
C781 C 0.32234 0.17327 0.14985 0.0
C782 C 0.39996 0.11793 0.24035 0.0
C783 C 0.33894 0.14371 0.06415 0.0
H784 H 0.46939 0.088 0.06543 0.0
H785 H 0.38806 0.01491 0.10317 0.0
H786 H 0.41865 0.16419 0.08095 0.0
H787 H 0.44179 0.15523 0.14117 0.0
H788 H 0.46263 0.14792 0.07671 0.0
H789 H 0.33588 0.03082 0.14638 0.0
H790 H 0.34139 0.06553 0.19302 0.0
H791 H 0.32161 0.07438 0.12985 0.0
H792 H 0.3548 0.16691 0.27515 0.0
H793 H 0.3029 0.18734 0.12724 0.0
H794 H 0.42621 0.12092 0.22144 0.0
H795 H 0.39375 0.08975 0.24133 0.0
H796 H 0.4008 0.1271 0.28232 0.0
H797 H 0.36117 0.15583 0.04173 0.0
H798 H 0.31457 0.15581 0.04947 0.0
H799 H 0.33869 0.11565 0.05474 0.0
C800 C 0.89239 0.95183 0.57323 0.0
C801 C 0.92837 0.9506 0.58124 0.0
C802 C 0.86976 0.92533 0.59303 0.0
C803 C 0.88213 0.8987 0.62856 0.0
C804 C 0.91855 0.89835 0.63897 0.0
C805 C 0.94117 0.9233 0.61365 0.0
C806 C 0.83252 0.92668 0.57514 0.0
C807 C 0.93426 0.8727 0.67823 0.0
C808 C 0.80356 0.86253 0.71178 0.0
C809 C 0.80506 0.82655 0.70378 0.0
C810 C 0.82992 0.88532 0.69197 0.0
C811 C 0.85667 0.87309 0.65645 0.0
C812 C 0.85728 0.83667 0.64605 0.0
C813 C 0.83248 0.8139 0.67138 0.0
C814 C 0.82828 0.92258 0.7098 0.0
C815 C 0.88308 0.82111 0.60679 0.0
H816 H 0.88186 0.97323 0.54956 0.0
H817 H 0.9687 0.92267 0.62211 0.0
H818 H 0.8186 0.90168 0.58173 0.0
H819 H 0.81844 0.94754 0.59673 0.0
H820 H 0.83153 0.93375 0.53176 0.0
H821 H 0.94719 0.85159 0.65553 0.0
H822 H 0.95465 0.88545 0.70178 0.0
H823 H 0.91478 0.8611 0.70677 0.0
H824 H 0.78207 0.87292 0.73548 0.0
H825 H 0.8333 0.78637 0.66293 0.0
H826 H 0.80754 0.93655 0.68785 0.0
H827 H 0.85327 0.93657 0.70355 0.0
H828 H 0.82088 0.92362 0.75307 0.0
H829 H 0.89444 0.84064 0.57811 0.0
H830 H 0.87056 0.8005 0.5834 0.0
H831 H 0.90436 0.80851 0.62947 0.0
C832 C 0.91309 0.09974 0.47619 0.0
C833 C 0.92918 0.07214 0.44934 0.0
C834 C 0.88798 0.12085 0.45114 0.0
C835 C 0.87917 0.11489 0.39713 0.0
C836 C 0.89595 0.08756 0.3693 0.0
C837 C 0.92047 0.06647 0.39576 0.0
C838 C 0.87026 0.14905 0.48306 0.0
C839 C 0.88889 0.08103 0.31108 0.0
C840 C 0.78994 0.14667 0.35319 0.0
C841 C 0.79754 0.17945 0.3302 0.0
C842 C 0.8163 0.12514 0.37388 0.0
C843 C 0.85138 0.13637 0.37101 0.0
C844 C 0.85936 0.16893 0.34602 0.0
C845 C 0.83231 0.1904 0.3272 0.0
C846 C 0.80647 0.09075 0.40029 0.0
C847 C 0.89642 0.18142 0.34003 0.0
H848 H 0.91937 0.10442 0.51731 0.0
H849 H 0.93317 0.04569 0.37405 0.0
H850 H 0.87438 0.1747 0.46274 0.0
H851 H 0.8418 0.14433 0.48519 0.0
H852 H 0.88 0.15036 0.52464 0.0
H853 H 0.89802 0.05489 0.29874 0.0
H854 H 0.8608 0.08344 0.30258 0.0
H855 H 0.90304 0.1008 0.28603 0.0
H856 H 0.76308 0.13824 0.35633 0.0
H857 H 0.83845 0.21602 0.3111 0.0
H858 H 0.81434 0.09038 0.44292 0.0
H859 H 0.82055 0.06928 0.38009 0.0
H860 H 0.7781 0.08562 0.39895 0.0
H861 H 0.90715 0.18607 0.38021 0.0
H862 H 0.89855 0.20584 0.31551 0.0
H863 H 0.91278 0.16117 0.32078 0.0
C864 C 0.68227 0.17142 0.16736 0.0
C865 C 0.67379 0.1942 0.20874 0.0
C866 C 0.65648 0.15281 0.1424 0.0
C867 C 0.62159 0.15636 0.16057 0.0
C868 C 0.6126 0.17986 0.20139 0.0
C869 C 0.63891 0.19902 0.22452 0.0
C870 C 0.66677 0.12848 0.09781 0.0
C871 C 0.57562 0.18367 0.22221 0.0
C872 C 0.55892 0.11662 0.06681 0.0
C873 C 0.5594 0.08202 0.08557 0.0
C874 C 0.57745 0.14216 0.09288 0.0
C875 C 0.59554 0.13281 0.13975 0.0
C876 C 0.59326 0.09874 0.1618 0.0
C877 C 0.57573 0.07352 0.13379 0.0
C878 C 0.57979 0.17824 0.06794 0.0
C879 C 0.61131 0.08832 0.21301 0.0
H880 H 0.70909 0.16788 0.15437 0.0
H881 H 0.63208 0.21737 0.25536 0.0
H882 H 0.66291 0.10114 0.11176 0.0
H883 H 0.65012 0.13297 0.06251 0.0
H884 H 0.6944 0.13171 0.0847 0.0
H885 H 0.57236 0.20654 0.24839 0.0
H886 H 0.55733 0.18618 0.18855 0.0
H887 H 0.56818 0.15998 0.24593 0.0
H888 H 0.54516 0.12364 0.03082 0.0
H889 H 0.57539 0.04708 0.14949 0.0
H890 H 0.60562 0.18151 0.04769 0.0
H891 H 0.57742 0.19839 0.09901 0.0
H892 H 0.55944 0.18288 0.03762 0.0
H893 H 0.63973 0.08641 0.20492 0.0
H894 H 0.60205 0.06279 0.22936 0.0
H895 H 0.60706 0.10819 0.24414 0.0
C896 C 0.6887 0.83386 0.88916 0.0
C897 C 0.68424 0.82652 0.83476 0.0
C898 C 0.66782 0.85863 0.91551 0.0
C899 C 0.64195 0.87701 0.88676 0.0
C900 C 0.63724 0.86959 0.83185 0.0
C901 C 0.65817 0.84428 0.8068 0.0
C902 C 0.673 0.86433 0.97449 0.0
C903 C 0.6106 0.88899 0.79909 0.0
C904 C 0.56644 0.92466 0.95561 0.0
C905 C 0.57847 0.95907 0.95519 0.0
C906 C 0.58742 0.89742 0.93609 0.0
C907 C 0.6207 0.90491 0.91312 0.0
C908 C 0.63302 0.93962 0.91285 0.0
C909 C 0.61188 0.96614 0.93409 0.0
C910 C 0.57365 0.86073 0.93914 0.0
C911 C 0.66824 0.9489 0.88875 0.0
H912 H 0.70833 0.81989 0.91156 0.0
H913 H 0.65468 0.8392 0.76488 0.0
H914 H 0.6721 0.89238 0.98387 0.0
H915 H 0.65163 0.85119 0.9976 0.0
H916 H 0.69807 0.85334 0.98835 0.0
H917 H 0.60998 0.88005 0.75698 0.0
H918 H 0.58433 0.88558 0.81774 0.0
H919 H 0.61646 0.91724 0.79852 0.0
H920 H 0.54037 0.91897 0.97023 0.0
H921 H 0.62117 0.99275 0.93295 0.0
H922 H 0.5929 0.8432 0.95835 0.0
H923 H 0.56954 0.85122 0.89803 0.0
H924 H 0.54866 0.85883 0.96234 0.0
H925 H 0.6888 0.93364 0.90916 0.0
H926 H 0.6742 0.977 0.89206 0.0
H927 H 0.66931 0.94207 0.84565 0.0
C928 C 0.59945 0.54937 0.90452 0.0
C929 C 0.57235 0.55605 0.94204 0.0
C930 C 0.62001 0.57615 0.88052 0.0
C931 C 0.61631 0.61099 0.89763 0.0
C932 C 0.58866 0.61824 0.93497 0.0
C933 C 0.56579 0.59117 0.95359 0.0
C934 C 0.64595 0.56645 0.83686 0.0
C935 C 0.58463 0.65387 0.9587 0.0
C936 C 0.70487 0.65572 0.87474 0.0
C937 C 0.69852 0.68234 0.83628 0.0
C938 C 0.67799 0.63521 0.8985 0.0
C939 C 0.64343 0.63821 0.88001 0.0
C940 C 0.63647 0.66531 0.84165 0.0
C941 C 0.66352 0.6884 0.82355 0.0
C942 C 0.68732 0.61003 0.94334 0.0
C943 C 0.60139 0.66843 0.81594 0.0
H944 H 0.6044 0.52284 0.89262 0.0
H945 H 0.54334 0.59749 0.9783 0.0
H946 H 0.65196 0.58863 0.80894 0.0
H947 H 0.6704 0.55739 0.85532 0.0
H948 H 0.63598 0.54467 0.81304 0.0
H949 H 0.55929 0.65684 0.98043 0.0
H950 H 0.60595 0.6579 0.98711 0.0
H951 H 0.58714 0.67503 0.9282 0.0
H952 H 0.73123 0.6511 0.88772 0.0
H953 H 0.65726 0.7106 0.79844 0.0
H954 H 0.69721 0.58552 0.92601 0.0
H955 H 0.66475 0.60396 0.97046 0.0
H956 H 0.70841 0.62076 0.96779 0.0
H957 H 0.59982 0.64872 0.78429 0.0
H958 H 0.59742 0.69461 0.79737 0.0
H959 H 0.57949 0.6627 0.84418 0.0
C960 C 0.71513 0.35785 0.17631 0.0
C961 C 0.70822 0.32534 0.20073 0.0
C962 C 0.68843 0.37816 0.15387 0.0
C963 C 0.65368 0.36593 0.15621 0.0
C964 C 0.64636 0.33357 0.18233 0.0
C965 C 0.67376 0.31339 0.20317 0.0
C966 C 0.69753 0.41252 0.12672 0.0
C967 C 0.60966 0.31995 0.18757 0.0
C968 C 0.58363 0.43483 0.1335 0.0
C969 C 0.57528 0.4302 0.07951 0.0
C970 C 0.6082 0.41357 0.1593 0.0
C971 C 0.62535 0.38694 0.13052 0.0
C972 C 0.6166 0.38165 0.07621 0.0
C973 C 0.59146 0.4031 0.05159 0.0
C974 C 0.61526 0.41941 0.21774 0.0
C975 C 0.63454 0.35397 0.04358 0.0
H976 H 0.74175 0.36707 0.17362 0.0
H977 H 0.66814 0.28796 0.22039 0.0
H978 H 0.68956 0.41242 0.08416 0.0
H979 H 0.68308 0.43387 0.14662 0.0
H980 H 0.7258 0.41824 0.12781 0.0
H981 H 0.60805 0.29548 0.21206 0.0
H982 H 0.59252 0.33967 0.2065 0.0
H983 H 0.59945 0.31501 0.14715 0.0
H984 H 0.57071 0.45506 0.15605 0.0
H985 H 0.58537 0.39928 1.01005 0.0
H986 H 0.64359 0.41931 0.22515 0.0
H987 H 0.60332 0.39789 0.24203 0.0
H988 H 0.60406 0.44432 0.23197 0.0
H989 H 0.66283 0.35949 0.04043 0.0
H990 H 0.62419 0.35248 1.00239 0.0
H991 H 0.63144 0.3282 0.06395 0.0
C992 C 0.9491 0.39016 0.46426 0.0
C993 C 0.94758 0.42488 0.44616 0.0
C994 C 0.93024 0.36447 0.43907 0.0
C995 C 0.91064 0.37378 0.3937 0.0
C996 C 0.91149 0.40811 0.37241 0.0
C997 C 0.92949 0.43345 0.39953 0.0
C998 C 0.92941 0.32813 0.46329 0.0
C999 C 0.89168 0.41858 0.32285 0.0
C1000 C 0.86784 0.30753 0.30817 0.0
C1001 C 0.83306 0.3112 0.32525 0.0
C1002 C 0.89399 0.327 0.33121 0.0
C1003 C 0.88499 0.34955 0.37335 0.0
C1004 C 0.85033 0.35167 0.39306 0.0
C1005 C 0.82465 0.33287 0.36812 0.0
C1006 C 0.93071 0.32468 0.30878 0.0
C1007 C 0.84009 0.37482 0.43916 0.0
H1008 H 0.96413 0.3831 0.499 0.0
H1009 H 0.92885 0.46003 0.38441 0.0
H1010 H 0.90413 0.324 0.48486 0.0
H1011 H 0.93158 0.30834 0.43166 0.0
H1012 H 0.95057 0.32376 0.49235 0.0
H1013 H 0.8995 0.44468 0.3069 0.0
H1014 H 0.89588 0.39935 0.29074 0.0
H1015 H 0.86342 0.4192 0.33277 0.0
H1016 H 0.87466 0.28997 0.27626 0.0
H1017 H 0.79795 0.33543 0.38226 0.0
H1018 H 0.94962 0.32203 0.34158 0.0
H1019 H 0.93709 0.34903 0.28598 0.0
H1020 H 0.93419 0.30247 0.28134 0.0
H1021 H 0.85765 0.37041 0.4734 0.0
H1022 H 0.81288 0.37029 0.45351 0.0
H1023 H 0.84261 0.4025 0.42619 0.0
C1024 C 0.84568 0.6588 0.72378 0.0
C1025 C 0.82171 0.67882 0.6949 0.0
C1026 C 0.86707 0.63407 0.69832 0.0
C1027 C 0.86444 0.62899 0.64232 0.0
C1028 C 0.84036 0.64929 0.61285 0.0
C1029 C 0.81936 0.67385 0.63941 0.0
C1030 C 0.89203 0.61285 0.73168 0.0
C1031 C 0.83706 0.64555 0.55306 0.0
C1032 C 0.9411 0.58189 0.57583 0.0
C1033 C 0.92874 0.54766 0.57395 0.0
C1034 C 0.91994 0.60897 0.59538 0.0
C1035 C 0.88593 0.6015 0.61545 0.0
C1036 C 0.87316 0.56705 0.61284 0.0
C1037 C 0.89468 0.54064 0.59217 0.0
C1038 C 0.93445 0.64535 0.59608 0.0
C1039 C 0.83707 0.55785 0.63349 0.0
H1040 H 0.84702 0.66161 0.76661 0.0
H1041 H 0.80123 0.68944 0.61645 0.0
H1042 H 0.88525 0.58488 0.72997 0.0
H1043 H 0.9189 0.61582 0.71511 0.0
H1044 H 0.89167 0.6206 0.77442 0.0
H1045 H 0.81386 0.65935 0.53739 0.0
H1046 H 0.86054 0.6567 0.53262 0.0
H1047 H 0.83546 0.61775 0.54244 0.0
H1048 H 0.96762 0.58749 0.56338 0.0
H1049 H 0.88514 0.51416 0.59146 0.0
H1050 H 0.93771 0.65329 0.63824 0.0
H1051 H 0.91607 0.66396 0.57722 0.0
H1052 H 0.96001 0.64745 0.57451 0.0
H1053 H 0.83494 0.56272 0.67721 0.0
H1054 H 0.83051 0.5302 0.62673 0.0
H1055 H 0.81753 0.57461 0.6134 0.0
C1056 C 0.34193 0.31576 0.20664 0.0
C1057 C 0.30682 0.32206 0.19475 0.0
C1058 C 0.36889 0.33894 0.18863 0.0
C1059 C 0.36162 0.36666 0.15149 0.0
C1060 C 0.32683 0.37016 0.13408 0.0
C1061 C 0.30011 0.34927 0.15754 0.0
C1062 C 0.40435 0.33523 0.21297 0.0
C1063 C 0.31713 0.39621 0.09066 0.0
C1064 C 0.40645 0.45532 0.12945 0.0
C1065 C 0.43313 0.44894 0.09111 0.0
C1066 C 0.38573 0.42843 0.15278 0.0
C1067 C 0.38879 0.39387 0.13414 0.0
C1068 C 0.41598 0.38693 0.09586 0.0
C1069 C 0.43911 0.41397 0.07799 0.0
C1070 C 0.36031 0.43772 0.19736 0.0
C1071 C 0.41911 0.35182 0.07012 0.0
H1072 H 0.34831 0.29325 0.23112 0.0
H1073 H 0.2736 0.35405 0.14541 0.0
H1074 H 0.42581 0.33864 0.18313 0.0
H1075 H 0.40767 0.35621 0.24222 0.0
H1076 H 0.40759 0.30966 0.23387 0.0
H1077 H 0.29562 0.38613 0.06639 0.0
H1078 H 0.30767 0.42045 0.10938 0.0
H1079 H 0.33941 0.40261 0.06312 0.0
H1080 H 0.40195 0.48168 0.14254 0.0
H1081 H 0.46127 0.40776 0.05259 0.0
H1082 H 0.35407 0.41513 0.22432 0.0
H1083 H 0.3359 0.44763 0.17977 0.0
H1084 H 0.37089 0.45879 0.22204 0.0
H1085 H 0.41566 0.32996 0.09919 0.0
H1086 H 0.44449 0.34862 0.04858 0.0
H1087 H 0.39788 0.3492 0.04114 0.0
C1088 C 0.41242 0.60075 0.98317 0.0
C1089 C 0.42997 0.57493 0.95431 0.0
C1090 C 0.3873 0.62221 0.9586 0.0
C1091 C 0.37988 0.61817 0.90349 0.0
C1092 C 0.39835 0.59278 0.87388 0.0
C1093 C 0.42294 0.57151 0.8996 0.0
C1094 C 0.36794 0.64854 0.99207 0.0
C1095 C 0.39267 0.5883 0.81472 0.0
C1096 C 0.29041 0.64654 0.85554 0.0
C1097 C 0.297 0.67983 0.83369 0.0
C1098 C 0.31715 0.62616 0.8777 0.0
C1099 C 0.35161 0.63916 0.87771 0.0
C1100 C 0.35864 0.67235 0.85412 0.0
C1101 C 0.33117 0.69253 0.8335 0.0
C1102 C 0.3084 0.5909 0.90208 0.0
C1103 C 0.39506 0.68686 0.85146 0.0
H1104 H 0.41737 0.60347 0.02536 0.0
H1105 H 0.43692 0.55222 0.87649 0.0
H1106 H 0.37069 0.67487 0.97341 0.0
H1107 H 0.3398 0.64221 0.99353 0.0
H1108 H 0.37742 0.64925 0.03385 0.0
H1109 H 0.40475 0.56404 0.79955 0.0
H1110 H 0.36453 0.58797 0.80588 0.0
H1111 H 0.40456 0.61066 0.79233 0.0
H1112 H 0.26399 0.63673 0.85646 0.0
H1113 H 0.3365 0.71851 0.81825 0.0
H1114 H 0.31541 0.59002 0.94509 0.0
H1115 H 0.32384 0.57049 0.88155 0.0
H1116 H 0.28036 0.58456 0.89911 0.0
H1117 H 0.40434 0.69096 0.89268 0.0
H1118 H 0.39656 0.71195 0.82854 0.0
H1119 H 0.41303 0.66803 0.83212 0.0
C1120 C 0.18273 0.67617 0.65973 0.0
C1121 C 0.17369 0.69534 0.70517 0.0
C1122 C 0.15773 0.6574 0.6331 0.0
C1123 C 0.12322 0.65682 0.65376 0.0
C1124 C 0.11352 0.67704 0.69837 0.0
C1125 C 0.13888 0.69674 0.72291 0.0
C1126 C 0.16861 0.637 0.58426 0.0
C1127 C 0.07701 0.67637 0.72201 0.0
C1128 C 0.05768 0.6163 0.56457 0.0
C1129 C 0.0606 0.58124 0.5804 0.0
C1130 C 0.07709 0.64178 0.58932 0.0
C1131 C 0.09869 0.63188 0.63214 0.0
C1132 C 0.09981 0.59697 0.65088 0.0
C1133 C 0.08118 0.57192 0.62412 0.0
C1134 C 0.07591 0.67875 0.56772 0.0
C1135 C 0.12184 0.5858 0.69775 0.0
H1136 H 0.20941 0.67547 0.64497 0.0
H1137 H 0.13146 0.71251 0.7567 0.0
H1138 H 0.16834 0.60878 0.59453 0.0
H1139 H 0.15006 0.64148 0.55132 0.0
H1140 H 0.19514 0.64406 0.56924 0.0
H1141 H 0.07268 0.69708 0.75189 0.0
H1142 H 0.05755 0.67941 0.69006 0.0
H1143 H 0.07227 0.6508 0.74232 0.0
H1144 H 0.04084 0.62386 0.53214 0.0
H1145 H 0.0831 0.545 0.63738 0.0
H1146 H 0.10073 0.68477 0.54592 0.0
H1147 H 0.07315 0.69741 0.60088 0.0
H1148 H 0.05422 0.683 0.53955 0.0
H1149 H 0.14977 0.58744 0.68581 0.0
H1150 H 0.1162 0.55869 0.71156 0.0
H1151 H 0.11747 0.60336 0.73203 0.0
C1152 C 0.15559 0.34239 0.30227 0.0
C1153 C 0.18158 0.32513 0.33108 0.0
C1154 C 0.13432 0.36779 0.32661 0.0
C1155 C 0.1387 0.37574 0.38145 0.0
C1156 C 0.16427 0.35759 0.41103 0.0
C1157 C 0.18537 0.33274 0.38552 0.0
C1158 C 0.10779 0.38682 0.29318 0.0
C1159 C 0.16907 0.36377 0.47 0.0
C1160 C 0.11007 0.46535 0.4287 0.0
C1161 C 0.0769 0.45867 0.45102 0.0
C1162 C 0.13049 0.4386 0.40653 0.0
C1163 C 0.11767 0.40407 0.40705 0.0
C1164 C 0.08462 0.39697 0.43108 0.0
C1165 C 0.06438 0.42443 0.4516 0.0
C1166 C 0.1656 0.44741 0.3816 0.0
C1167 C 0.07035 0.36047 0.43443 0.0
H1168 H 0.15256 0.33696 0.2603 0.0
H1169 H 0.20479 0.31899 0.40862 0.0
H1170 H 0.08153 0.38402 0.31211 0.0
H1171 H 0.11395 0.415 0.29136 0.0
H1172 H 0.10701 0.3771 0.25152 0.0
H1173 H 0.19383 0.35251 0.48467 0.0
H1174 H 0.1686 0.39193 0.47867 0.0
H1175 H 0.1473 0.35124 0.49297 0.0
H1176 H 0.11975 0.49181 0.42743 0.0
H1177 H 0.0385 0.419 0.46714 0.0
H1178 H 0.16638 0.44003 0.33874 0.0
H1179 H 0.18619 0.43229 0.4022 0.0
H1180 H 0.17176 0.47552 0.38401 0.0
H1181 H 0.06632 0.35078 0.39341 0.0
H1182 H 0.04526 0.35898 0.45741 0.0
H1183 H 0.08931 0.34281 0.45407 0.0
C1184 C 0.98538 1.00226 0.90111 0.0
C1185 C 0.01343 0.02359 0.88514 0.0
C1186 C 0.98235 0.98882 0.95404 0.0
C1187 C 0.00807 0.99678 0.99176 0.0
C1188 C 0.037 0.01736 0.97529 0.0
C1189 C 0.03932 0.03047 0.92229 0.0
C1190 C 0.95116 0.9669 0.97001 0.0
C1191 C 0.06517 0.02619 1.01398 0.0
C1192 C 0.98444 0.99336 0.14121 0.0
C1193 C 0.99832 0.96112 0.15731 0.0
C1194 C 0.98722 0.00515 0.08743 0.0
C1195 C 0.00444 0.9843 0.04878 0.0
C1196 C 0.01879 0.95189 0.06488 0.0
C1197 C 0.01554 0.9407 0.11885 0.0
C1198 C 0.97154 0.03987 0.0719 0.0
C1199 C 0.03766 0.92905 0.0251 0.0
H1200 H 0.96518 0.99705 0.87274 0.0
H1201 H 0.06136 0.04648 0.90997 0.0
H1202 H 0.9597 0.94158 0.98743 0.0
H1203 H 0.93554 0.9802 1.0015 0.0
H1204 H 0.93421 0.96191 0.93549 0.0
H1205 H 0.0866 0.04143 0.99432 0.0
H1206 H 0.05397 0.04151 0.04746 0.0
H1207 H 0.07623 1.00204 0.03186 0.0
H1208 H 0.97074 0.00908 0.1705 0.0
H1209 H 0.02673 0.91596 0.13109 0.0
H1210 H 0.95201 0.03636 0.04038 0.0
H1211 H 0.99203 0.05734 0.05471 0.0
H1212 H 0.95877 0.05283 0.10662 0.0
H1213 H 0.02015 0.92251 0.99201 0.0
H1214 H 0.04715 0.90447 0.04397 0.0
H1215 H 0.06022 0.94321 1.0068 0.0
C1216 C 0.26288 0.76543 0.39055 0.0
C1217 C 0.27997 0.7344 0.40465 0.0
C1218 C 0.25084 0.7713 0.33817 0.0
C1219 C 0.25581 0.74544 0.29898 0.0
C1220 C 0.27249 0.71383 0.31328 0.0
C1221 C 0.28437 0.70873 0.3658 0.0
C1222 C 0.23323 0.80538 0.32453 0.0
C1223 C 0.27797 0.68543 0.27298 0.0
C1224 C 0.19787 0.74796 0.17701 0.0
C1225 C 0.21975 0.76333 0.13736 0.0
C1226 C 0.20932 0.7418 0.22955 0.0
C1227 C 0.24349 0.75137 0.24305 0.0
C1228 C 0.26589 0.7665 0.20306 0.0
C1229 C 0.2538 0.77217 0.15066 0.0
C1230 C 0.18475 0.72523 0.27071 0.0
C1231 C 0.30247 0.77716 0.21583 0.0
H1232 H 0.25967 0.78551 0.42015 0.0
H1233 H 0.2971 0.68447 0.37657 0.0
H1234 H 0.24805 0.81915 0.29179 0.0
H1235 H 0.20676 0.80055 0.30962 0.0
H1236 H 0.23108 0.82268 0.35961 0.0
H1237 H 0.291 0.66219 0.29065 0.0
H1238 H 0.25262 0.67736 0.25699 0.0
H1239 H 0.29407 0.69532 0.23842 0.0
H1240 H 0.17167 0.74063 0.16685 0.0
H1241 H 0.27072 0.78437 0.12042 0.0
H1242 H 0.18037 0.74301 0.30471 0.0
H1243 H 0.19639 0.701 0.28737 0.0
H1244 H 0.15918 0.71885 0.25359 0.0
H1245 H 0.3018 0.79671 0.24796 0.0
H1246 H 0.31669 0.78837 0.18021 0.0
H1247 H 0.31724 0.75437 0.23122 0.0
C1248 C 0.45987 0.03695 0.61222 0.0
C1249 C 0.48547 0.03226 0.65108 0.0
C1250 C 0.46491 0.02508 0.55964 0.0
C1251 C 0.49635 0.00808 0.54528 0.0
C1252 C 0.52214 0.00284 0.58446 0.0
C1253 C 0.51635 0.01489 0.6369 0.0
C1254 C 0.43659 0.03088 0.51936 0.0
C1255 C 0.55604 0.98488 0.57076 0.0
C1256 C 0.49823 0.94998 0.42334 0.0
C1257 C 0.5139 0.97161 0.38366 0.0
C1258 C 0.49219 0.96157 0.47587 0.0
C1259 C 0.50215 0.99564 0.48933 0.0
C1260 C 0.51756 0.0178 0.44929 0.0
C1261 C 0.52314 0.00557 0.39691 0.0
C1262 C 0.47532 0.93724 0.51708 0.0
C1263 C 0.52863 0.05428 0.46199 0.0
H1264 H 0.43572 0.04988 0.62304 0.0
H1265 H 0.53639 0.01147 0.66647 0.0
H1266 H 0.4467 0.04679 0.48476 0.0
H1267 H 0.42819 0.00561 0.50342 0.0
H1268 H 0.41352 0.04423 0.53703 0.0
H1269 H 0.57333 0.98259 0.60581 0.0
H1270 H 0.55094 0.95844 0.55589 0.0
H1271 H 0.56996 0.99952 0.53798 0.0
H1272 H 0.49058 0.92386 0.41323 0.0
H1273 H 0.53557 0.0223 0.36665 0.0
H1274 H 0.45121 0.94919 0.53375 0.0
H1275 H 0.49305 0.9327 0.55106 0.0
H1276 H 0.46865 0.91173 0.5 0.0
H1277 H 0.50601 0.06931 0.47745 0.0
H1278 H 0.53998 0.06834 0.42632 0.0
H1279 H 0.5482 0.05343 0.49405 0.0
C1280 C 0.1986 0.25938 0.86832 0.0
C1281 C 0.22131 0.24446 0.90569 0.0
C1282 C 0.20921 0.26544 0.8146 0.0
C1283 C 0.2433 0.25609 0.79769 0.0
C1284 C 0.26656 0.2416 0.83547 0.0
C1285 C 0.25533 0.23612 0.8891 0.0
C1286 C 0.1838 0.28144 0.77581 0.0
C1287 C 0.30308 0.23117 0.81897 0.0
C1288 C 0.26165 0.24012 0.6492 0.0
C1289 C 0.27857 0.27094 0.6329 0.0
C1290 C 0.2497 0.23504 0.70262 0.0
C1291 C 0.25465 0.2615 0.74047 0.0
C1292 C 0.27087 0.29301 0.72381 0.0
C1293 C 0.28259 0.29734 0.67032 0.0
C1294 C 0.23249 0.20107 0.71886 0.0
C1295 C 0.27631 0.322 0.76268 0.0
H1296 H 0.17235 0.26614 0.88113 0.0
H1297 H 0.27282 0.22421 0.9177 0.0
H1298 H 0.19502 0.30538 0.75685 0.0
H1299 H 0.17881 0.2631 0.7431 0.0
H1300 H 0.15859 0.28814 0.7957 0.0
H1301 H 0.31806 0.22061 0.85331 0.0
H1302 H 0.30218 0.21114 0.78762 0.0
H1303 H 0.31721 0.25391 0.80121 0.0
H1304 H 0.2587 0.21954 0.6206 0.0
H1305 H 0.29514 0.32146 0.65774 0.0
H1306 H 0.20627 0.20601 0.73663 0.0
H1307 H 0.24793 0.18758 0.75015 0.0
H1308 H 0.22983 0.18348 0.68439 0.0
H1309 H 0.25107 0.3298 0.78129 0.0
H1310 H 0.2885 0.34527 0.74297 0.0
H1311 H 0.29321 0.31281 0.79563 0.0
C1312 C 0.76423 0.26338 0.88656 0.0
C1313 C 0.77749 0.23047 0.90046 0.0
C1314 C 0.75307 0.27096 0.83412 0.0
C1315 C 0.755 0.24495 0.79465 0.0
C1316 C 0.76771 0.21148 0.80879 0.0
C1317 C 0.7788 0.20469 0.86136 0.0
C1318 C 0.73973 0.30698 0.82069 0.0
C1319 C 0.76984 0.18288 0.76823 0.0
C1320 C 0.69845 0.25508 0.67166 0.0
C1321 C 0.72224 0.2679 0.63247 0.0
C1322 C 0.70878 0.24737 0.72438 0.0
C1323 C 0.74377 0.25268 0.73856 0.0
C1324 C 0.76804 0.2652 0.69904 0.0
C1325 C 0.75702 0.27254 0.64647 0.0
C1326 C 0.68215 0.2337 0.76501 0.0
C1327 C 0.80557 0.27129 0.71252 0.0
H1328 H 0.76342 0.28353 0.91634 0.0
H1329 H 0.78853 0.17903 0.87197 0.0
H1330 H 0.75628 0.3191 0.7884 0.0
H1331 H 0.71296 0.30546 0.80527 0.0
H1332 H 0.73945 0.32415 0.85601 0.0
H1333 H 0.7798 0.15811 0.78584 0.0
H1334 H 0.74376 0.17812 0.75176 0.0
H1335 H 0.78722 0.1909 0.73403 0.0
H1336 H 0.67163 0.25097 0.661 0.0
H1337 H 0.77546 0.28277 0.61663 0.0
H1338 H 0.67982 0.25167 0.79917 0.0
H1339 H 0.69066 0.20813 0.78154 0.0
H1340 H 0.65608 0.23063 0.74744 0.0
H1341 H 0.80708 0.29055 0.74491 0.0
H1342 H 0.82123 0.28093 0.67725 0.0
H1343 H 0.81741 0.24679 0.72783 0.0
C1344 C 0.76115 0.74036 0.38583 0.0
C1345 C 0.72841 0.75399 0.3998 0.0
C1346 C 0.77439 0.74328 0.33278 0.0
C1347 C 0.75456 0.76057 0.29294 0.0
C1348 C 0.72201 0.77538 0.30734 0.0
C1349 C 0.7093 0.7718 0.36047 0.0
C1350 C 0.80913 0.727 0.31902 0.0
C1351 C 0.70026 0.79444 0.26637 0.0
C1352 C 0.80025 0.79244 0.16397 0.0
C1353 C 0.7915 0.76661 0.12768 0.0
C1354 C 0.78844 0.79081 0.21778 0.0
C1355 C 0.76744 0.76259 0.23596 0.0
C1356 C 0.75831 0.73652 0.19948 0.0
C1357 C 0.77034 0.73891 0.14575 0.0
C1358 C 0.79839 0.81936 0.25515 0.0
C1359 C 0.73606 0.70594 0.21733 0.0
H1360 H 0.77583 0.72628 0.41597 0.0
H1361 H 0.68412 0.78267 0.37125 0.0
H1362 H 0.80564 0.70634 0.28921 0.0
H1363 H 0.82683 0.74675 0.30028 0.0
H1364 H 0.8218 0.71541 0.35487 0.0
H1365 H 0.67626 0.80577 0.28456 0.0
H1366 H 0.71562 0.81566 0.24655 0.0
H1367 H 0.69269 0.77635 0.23458 0.0
H1368 H 0.8162 0.81418 0.15012 0.0
H1369 H 0.76377 0.71869 0.11811 0.0
H1370 H 0.81277 0.80821 0.28962 0.0
H1371 H 0.77464 0.832 0.27176 0.0
H1372 H 0.81486 0.83955 0.23473 0.0
H1373 H 0.74872 0.69143 0.25058 0.0
H1374 H 0.73148 0.68775 0.18416 0.0
H1375 H 0.71053 0.71523 0.23301 0.0
C1376 C 0.48786 0.50549 0.63705 0.0
C1377 C 0.49599 0.4714 0.65347 0.0
C1378 C 0.49343 0.51674 0.58346 0.0
C1379 C 0.50784 0.49344 0.54558 0.0
C1380 C 0.51704 0.45931 0.56237 0.0
C1381 C 0.51086 0.44866 0.61603 0.0
C1382 C 0.48316 0.5533 0.5671 0.0
C1383 C 0.53295 0.43386 0.52348 0.0
C1384 C 0.49171 0.51167 0.39719 0.0
C1385 C 0.52257 0.52845 0.38069 0.0
C1386 C 0.48666 0.49984 0.45066 0.0
C1387 C 0.51319 0.50475 0.48835 0.0
C1388 C 0.54473 0.52086 0.47151 0.0
C1389 C 0.54903 0.53247 0.41797 0.0
C1390 C 0.45265 0.48276 0.4671 0.0
C1391 C 0.57379 0.52626 0.51022 0.0
H1392 H 0.47599 0.52299 0.66572 0.0
H1393 H 0.51743 0.42236 0.62873 0.0
H1394 H 0.50591 0.56732 0.54917 0.0
H1395 H 0.46303 0.55249 0.53592 0.0
H1396 H 0.47276 0.56835 0.60154 0.0
H1397 H 0.53969 0.40867 0.54333 0.0
H1398 H 0.51454 0.42883 0.49091 0.0
H1399 H 0.55686 0.44505 0.50434 0.0
H1400 H 0.47109 0.50871 0.3687 0.0
H1401 H 0.57318 0.54492 0.40525 0.0
H1402 H 0.43929 0.49824 0.49855 0.0
H1403 H 0.45752 0.45651 0.48474 0.0
H1404 H 0.43496 0.48019 0.43277 0.0
H1405 H 0.56468 0.54317 0.54326 0.0
H1406 H 0.59705 0.53841 0.4904 0.0
H1407 H 0.58158 0.50101 0.52874 0.0
C1408 C 0.99881 0.45012 0.91993 0.0
C1409 C 0.01377 0.47212 0.88008 0.0
C1410 C 0.99267 0.4616 0.9725 0.0
C1411 C 1.00181 0.49594 0.98581 0.0
C1412 C 0.01649 0.51845 0.94561 0.0
C1413 C 0.02217 0.50632 0.8932 0.0
C1414 C 0.9766 0.43688 1.01391 0.0
C1415 C 0.02668 0.55522 0.95818 0.0
C1416 C 0.95922 0.53651 0.10905 0.0
C1417 C 0.98515 0.53253 0.14753 0.0
C1418 C 0.96421 0.52456 0.05651 0.0
C1419 C 0.99597 0.50826 0.0418 0.0
C1420 C 0.02209 0.50373 0.08062 0.0
C1421 C 0.01632 0.5158 0.13304 0.0
C1422 C 0.93553 0.52955 1.01663 0.0
C1423 C 0.05634 0.48655 0.06654 0.0
H1424 H 0.9918 0.42381 0.90993 0.0
H1425 H 0.03406 0.52335 0.86281 0.0
H1426 H 0.99461 0.43279 0.04766 0.0
H1427 H 0.95229 0.44823 0.03088 0.0
H1428 H 0.97048 0.4112 0.99691 0.0
H1429 H 0.03751 0.56954 0.92238 0.0
H1430 H 0.00375 0.56967 0.97386 0.0
H1431 H 0.0464 0.55489 0.99002 0.0
H1432 H 0.93486 0.54896 0.12014 0.0
H1433 H 0.03659 0.51292 0.16235 0.0
H1434 H 0.92775 0.50406 1.00078 0.0
H1435 H 0.94501 0.54574 0.98192 0.0
H1436 H 0.91219 0.54226 0.03462 0.0
H1437 H 0.05179 0.45999 0.05175 0.0
H1438 H 0.07384 0.48469 0.10139 0.0
H1439 H 0.06976 0.50149 0.0336 0.0
loop_
_geom_bond_atom_site_label_1
_geom_bond_atom_site_label_2
_geom_bond_distance
_geom_bond_site_symmetry_2
_ccdc_geom_bond_type
Gd0 N31 2.662 1_655 S
Gd0 N37 2.601 1_655 S
Gd0 O44 2.544 . S
Gd0 O45 2.605 1_545 S
Gd0 O47 2.428 . S
Gd0 O48 2.543 1_545 S
Gd0 O49 2.413 1_655 S
Gd0 O51 2.363 1_655 S
Gd0 O52 2.325 1_645 S
Gd0 C59 2.828 . S
Gd1 N10 2.655 1_455 S
Gd1 N14 2.601 1_455 S
Gd1 O45 2.360 1_455 S
Gd1 O46 2.320 1_465 S
Gd1 O50 2.548 . S
Gd1 O51 2.608 1_565 S
Gd1 O53 2.433 . S
Gd1 O54 2.548 1_565 S
Gd1 O55 2.411 1_455 S
Gd1 C68 2.829 . S
C2 C5 1.417 . S
C2 C7 1.431 . S
C2 C8 1.412 . S
C3 C6 1.437 . S
C3 C7 1.317 . S
C3 H22 0.929 . S
C4 C5 1.426 . S
C4 C6 1.413 . S
C4 N14 1.359 . S
C5 C2 1.417 . S
C5 C4 1.426 . S
C5 N10 1.350 . S
C6 C3 1.437 . S
C6 C4 1.413 . S
C6 C16 1.418 . S
C7 C2 1.431 . S
C7 C3 1.317 . S
C7 H18 0.930 . S
C8 C2 1.412 . S
C8 C9 1.355 . S
C8 H20 0.930 . S
C9 C8 1.355 . S
C9 C11 1.402 . S
C9 H21 0.930 . S
N10 Gd1 2.655 1_655 S
N10 C5 1.350 . S
N10 C11 1.307 . S
C11 C9 1.402 . S
C11 N10 1.307 . S
C11 H12 0.930 . S
H12 C11 0.930 . S
C13 N14 1.334 1_455 S
C13 C15 1.394 . S
C13 H17 0.930 . S
N14 Gd1 2.601 1_655 S
N14 C4 1.359 . S
N14 C13 1.334 1_655 S
C15 C13 1.394 . S
C15 C16 1.333 1_455 S
C15 H27 0.930 . S
C16 C6 1.418 . S
C16 C15 1.333 1_655 S
C16 H28 0.929 . S
H17 C13 0.930 . S
H18 C7 0.930 . S
H19 C36 0.930 . S
H20 C8 0.930 . S
H21 C9 0.930 . S
H22 C3 0.929 . S
H23 C41 0.930 . S
H24 C32 0.930 . S
H25 C33 0.930 . S
H26 C57 0.929 . S
H27 C15 0.930 . S
H28 C16 0.929 . S
H29 C58 0.930 . S
H30 C39 0.930 . S
N31 Gd0 2.662 1_455 S
N31 C35 1.350 . S
N31 C36 1.307 . S
C32 H24 0.930 . S
C32 C33 1.355 . S
C32 C34 1.412 . S
C33 H25 0.930 . S
C33 C32 1.355 . S
C33 C36 1.402 . S
C34 C32 1.412 . S
C34 C35 1.417 . S
C34 C58 1.431 . S
C35 N31 1.350 . S
C35 C34 1.417 . S
C35 C38 1.426 . S
C36 H19 0.930 . S
C36 N31 1.307 . S
C36 C33 1.402 . S
N37 Gd0 2.601 1_455 S
N37 C38 1.359 . S
N37 C41 1.334 1_455 S
C38 C35 1.426 . S
C38 N37 1.359 . S
C38 C42 1.413 . S
C39 H30 0.930 . S
C39 C40 1.359 1_655 S
C39 C41 1.394 . S
C40 C39 1.359 1_455 S
C40 C42 1.391 . S
C40 H43 0.930 . S
C41 H23 0.930 . S
C41 N37 1.334 1_655 S
C41 C39 1.394 . S
C42 C38 1.413 . S
C42 C40 1.391 . S
C42 C57 1.437 . S
H43 C40 0.930 . S
O44 Gd0 2.544 . S
O44 C59 1.258 . S
O45 Gd0 2.605 1_565 S
O45 Gd1 2.360 1_655 S
O45 C56 1.284 . S
O46 Gd1 2.320 1_645 S
O46 C66 1.254 . S
O47 Gd0 2.428 . S
O47 C66 1.268 . S
O48 Gd0 2.543 1_565 S
O48 C56 1.250 . S
O49 Gd0 2.413 1_455 S
O49 C59 1.252 1_455 S
O50 Gd1 2.548 . S
O50 C68 1.258 . S
O51 Gd0 2.363 1_455 S
O51 Gd1 2.608 1_545 S
O51 C67 1.284 . S
O52 Gd0 2.325 1_465 S
O52 C75 1.254 . S
O53 Gd1 2.433 . S
O53 C75 1.268 . S
O54 Gd1 2.548 1_545 S
O54 C67 1.250 . S
O55 Gd1 2.411 1_655 S
O55 C68 1.252 1_655 S
C56 O45 1.284 . S
C56 O48 1.250 . S
C57 H26 0.929 . S
C57 C42 1.437 . S
C57 C58 1.317 . S
C58 H29 0.930 . S
C58 C34 1.431 . S
C58 C57 1.317 . S
C59 Gd0 2.828 . S
C59 O44 1.258 . S
C59 O49 1.252 1_655 S
C59 C60 1.497 . S
C60 C59 1.497 . S
C60 C61 1.395 . S
C60 C62 1.380 . S
C61 C60 1.395 . S
C61 C64 1.398 . S
C61 H76 0.930 . S
C62 C60 1.380 . S
C62 C63 1.391 . S
C62 H77 0.930 1_645 S
C63 C62 1.391 . S
C63 C65 1.387 . S
C64 C61 1.398 . S
C64 C65 1.380 . S
C64 H78 0.930 . S
C65 C63 1.387 . S
C65 C64 1.380 . S
C65 H79 0.930 . S
C66 O46 1.254 . S
C66 O47 1.268 . S
C67 O51 1.284 . S
C67 O54 1.250 . S
C68 Gd1 2.829 . S
C68 O50 1.258 . S
C68 O55 1.252 1_455 S
C68 C69 1.497 . S
C69 C68 1.497 . S
C69 C70 1.395 . S
C69 C71 1.380 . S
C70 C69 1.395 . S
C70 C73 1.398 . S
C70 H80 0.930 . S
C71 C69 1.380 . S
C71 C72 1.391 . S
C71 H81 0.930 1_465 S
C72 C71 1.391 . S
C72 C74 1.387 . S
C73 C70 1.398 . S
C73 C74 1.380 . S
C73 H82 0.930 . S
C74 C72 1.387 . S
C74 C73 1.380 . S
C74 H83 0.930 . S
C75 O52 1.254 . S
C75 O53 1.268 . S
H76 C61 0.930 . S
H77 C62 0.930 1_465 S
H78 C64 0.930 . S
H79 C65 0.930 . S
H80 C70 0.930 . S
H81 C71 0.930 1_645 S
H82 C73 0.930 . S
H83 C74 0.930 . S
Gd84 N115 2.661 . S
Gd84 N121 2.601 . S
Gd84 O128 2.545 . S
Gd84 O129 2.606 . S
Gd84 O131 2.429 . S
Gd84 O132 2.545 . S
Gd84 O133 2.412 . S
Gd84 O135 2.362 . S
Gd84 O136 2.324 . S
Gd84 C143 2.828 . S
Gd85 N94 2.661 . S
Gd85 N98 2.601 . S
Gd85 O129 2.362 . S
Gd85 O130 2.324 . S
Gd85 O134 2.545 . S
Gd85 O135 2.606 . S
Gd85 O137 2.429 . S
Gd85 O138 2.545 . S
Gd85 O139 2.412 . S
Gd85 C152 2.828 . S
C86 C89 1.417 . S
C86 C91 1.431 . S
C86 C92 1.412 . S
C87 C90 1.437 . S
C87 C91 1.317 . S
C87 H106 0.929 . S
C88 C89 1.426 . S
C88 C90 1.413 . S
C88 N98 1.359 . S
C89 C86 1.417 . S
C89 C88 1.426 . S
C89 N94 1.350 . S
C90 C87 1.437 . S
C90 C88 1.413 . S
C90 C100 1.391 . S
C91 C86 1.431 . S
C91 C87 1.317 . S
C91 H102 0.930 . S
C92 C86 1.412 . S
C92 C93 1.355 . S
C92 H104 0.930 . S
C93 C92 1.355 . S
C93 C95 1.402 . S
C93 H105 0.930 . S
N94 Gd85 2.661 . S
N94 C89 1.350 . S
N94 C95 1.307 . S
C95 C93 1.402 . S
C95 N94 1.307 . S
C95 H96 0.930 . S
H96 C95 0.930 . S
C97 N98 1.334 . S
C97 C99 1.394 . S
C97 H101 0.930 . S
N98 Gd85 2.601 . S
N98 C88 1.359 . S
N98 C97 1.334 . S
C99 C97 1.394 . S
C99 C100 1.359 . S
C99 H111 0.930 . S
C100 C90 1.391 . S
C100 C99 1.359 . S
C100 H112 0.929 . S
H101 C97 0.930 . S
H102 C91 0.930 . S
H103 C120 0.930 . S
H104 C92 0.930 . S
H105 C93 0.930 . S
H106 C87 0.929 . S
H107 C125 0.930 . S
H108 C116 0.930 . S
H109 C117 0.930 . S
H110 C141 0.929 . S
H111 C99 0.930 . S
H112 C100 0.929 . S
H113 C142 0.930 . S
H114 C123 0.930 . S
N115 Gd84 2.661 . S
N115 C119 1.350 . S
N115 C120 1.307 . S
C116 H108 0.930 . S
C116 C117 1.355 . S
C116 C118 1.412 . S
C117 H109 0.930 . S
C117 C116 1.355 . S
C117 C120 1.402 . S
C118 C116 1.412 . S
C118 C119 1.417 . S
C118 C142 1.431 . S
C119 N115 1.350 . S
C119 C118 1.417 . S
C119 C122 1.426 . S
C120 H103 0.930 . S
C120 N115 1.307 . S
C120 C117 1.402 . S
N121 Gd84 2.601 . S
N121 C122 1.359 . S
N121 C125 1.334 . S
C122 C119 1.426 . S
C122 N121 1.359 . S
C122 C126 1.413 . S
C123 H114 0.930 . S
C123 C124 1.359 . S
C123 C125 1.394 . S
C124 C123 1.359 . S
C124 C126 1.391 . S
C124 H127 0.929 . S
C125 H107 0.930 . S
C125 N121 1.334 . S
C125 C123 1.394 . S
C126 C122 1.413 . S
C126 C124 1.391 . S
C126 C141 1.437 . S
H127 C124 0.929 . S
O128 Gd84 2.545 . S
O128 C143 1.258 . S
O129 Gd84 2.606 . S
O129 Gd85 2.362 . S
O129 C140 1.284 . S
O130 Gd85 2.324 . S
O130 C150 1.254 . S
O131 Gd84 2.429 . S
O131 C150 1.268 . S
O132 Gd84 2.545 . S
O132 C140 1.250 . S
O133 Gd84 2.412 . S
O133 C143 1.252 . S
O134 Gd85 2.545 . S
O134 C152 1.258 . S
O135 Gd84 2.362 . S
O135 Gd85 2.606 . S
O135 C151 1.284 . S
O136 Gd84 2.324 . S
O136 C159 1.254 . S
O137 Gd85 2.429 . S
O137 C159 1.268 . S
O138 Gd85 2.545 . S
O138 C151 1.250 . S
O139 Gd85 2.412 . S
O139 C152 1.252 . S
C140 O129 1.284 . S
C140 O132 1.250 . S
C141 H110 0.929 . S
C141 C126 1.437 . S
C141 C142 1.317 . S
C142 H113 0.930 . S
C142 C118 1.431 . S
C142 C141 1.317 . S
C143 Gd84 2.828 . S
C143 O128 1.258 . S
C143 O133 1.252 . S
C143 C144 1.497 . S
C144 C143 1.497 . S
C144 C145 1.395 1_556 S
C144 C146 1.380 1_556 S
C145 C144 1.395 1_554 S
C145 C148 1.398 . S
C145 H160 0.930 1_554 S
C146 C144 1.380 1_554 S
C146 C147 1.391 . S
C146 H161 0.930 1_554 S
C147 C146 1.391 . S
C147 C149 1.387 . S
C148 C145 1.398 . S
C148 C149 1.380 . S
C148 H162 0.930 . S
C149 C147 1.387 . S
C149 C148 1.380 . S
C149 H163 0.930 . S
C150 O130 1.254 . S
C150 O131 1.268 . S
C151 O135 1.284 . S
C151 O138 1.250 . S
C152 Gd85 2.828 . S
C152 O134 1.258 . S
C152 O139 1.252 . S
C152 C153 1.497 . S
C153 C152 1.497 . S
C153 C154 1.395 . S
C153 C155 1.380 . S
C154 C153 1.395 . S
C154 C157 1.398 . S
C154 H164 0.930 . S
C155 C153 1.380 . S
C155 C156 1.391 . S
C155 H165 0.930 . S
C156 C155 1.391 . S
C156 C158 1.387 . S
C157 C154 1.398 . S
C157 C158 1.380 . S
C157 H166 0.930 . S
C158 C156 1.387 . S
C158 C157 1.380 . S
C158 H167 0.930 . S
C159 O136 1.254 . S
C159 O137 1.268 . S
H160 C145 0.930 1_556 S
H161 C146 0.930 1_556 S
H162 C148 0.930 . S
H163 C149 0.930 . S
H164 C154 0.930 . S
H165 C155 0.930 . S
H166 C157 0.930 . S
H167 C158 0.930 . S
Gd168 N199 2.661 . S
Gd168 N205 2.601 . S
Gd168 O212 2.545 . S
Gd168 O213 2.606 1_545 S
Gd168 O215 2.429 . S
Gd168 O216 2.545 1_545 S
Gd168 O217 2.412 . S
Gd168 O219 2.362 1_556 S
Gd168 O220 2.324 1_545 S
Gd168 C227 2.828 . S
Gd169 N178 2.661 . S
Gd169 N182 2.601 . S
Gd169 O213 2.362 1_554 S
Gd169 O214 2.324 1_565 S
Gd169 O218 2.545 . S
Gd169 O219 2.606 1_565 S
Gd169 O221 2.429 . S
Gd169 O222 2.545 1_565 S
Gd169 O223 2.412 . S
Gd169 C236 2.828 . S
C170 C173 1.417 . S
C170 C175 1.431 . S
C170 C176 1.412 . S
C171 C174 1.437 . S
C171 C175 1.317 . S
C171 H190 0.929 . S
C172 C173 1.426 . S
C172 C174 1.413 . S
C172 N182 1.359 . S
C173 C170 1.417 . S
C173 C172 1.426 . S
C173 N178 1.350 . S
C174 C171 1.437 . S
C174 C172 1.413 . S
C174 C184 1.391 . S
C175 C170 1.431 . S
C175 C171 1.317 . S
C175 H186 0.930 . S
C176 C170 1.412 . S
C176 C177 1.355 . S
C176 H188 0.930 . S
C177 C176 1.355 . S
C177 C179 1.402 . S
C177 H189 0.930 . S
N178 Gd169 2.661 . S
N178 C173 1.350 . S
N178 C179 1.307 . S
C179 C177 1.402 . S
C179 N178 1.307 . S
C179 H180 0.930 . S
H180 C179 0.930 . S
C181 N182 1.334 . S
C181 C183 1.394 . S
C181 H185 0.930 . S
N182 Gd169 2.601 . S
N182 C172 1.359 . S
N182 C181 1.334 . S
C183 C181 1.394 . S
C183 C184 1.359 . S
C183 H195 0.930 . S
C184 C174 1.391 . S
C184 C183 1.359 . S
C184 H196 0.929 . S
H185 C181 0.930 . S
H186 C175 0.930 . S
H187 C204 0.930 . S
H188 C176 0.930 . S
H189 C177 0.930 . S
H190 C171 0.929 . S
H191 C209 0.930 . S
H192 C200 0.930 . S
H193 C201 0.930 . S
H194 C225 0.929 . S
H195 C183 0.930 . S
H196 C184 0.929 . S
H197 C226 0.930 . S
H198 C207 0.930 . S
N199 Gd168 2.661 . S
N199 C203 1.350 . S
N199 C204 1.307 . S
C200 H192 0.930 . S
C200 C201 1.355 . S
C200 C202 1.412 . S
C201 H193 0.930 . S
C201 C200 1.355 . S
C201 C204 1.402 . S
C202 C200 1.412 . S
C202 C203 1.417 . S
C202 C226 1.431 . S
C203 N199 1.350 . S
C203 C202 1.417 . S
C203 C206 1.426 . S
C204 H187 0.930 . S
C204 N199 1.307 . S
C204 C201 1.402 . S
N205 Gd168 2.601 . S
N205 C206 1.359 . S
N205 C209 1.334 . S
C206 C203 1.426 . S
C206 N205 1.359 . S
C206 C210 1.413 . S
C207 H198 0.930 . S
C207 C208 1.359 . S
C207 C209 1.394 . S
C208 C207 1.359 . S
C208 C210 1.391 . S
C208 H211 0.929 . S
C209 H191 0.930 . S
C209 N205 1.334 . S
C209 C207 1.394 . S
C210 C206 1.413 . S
C210 C208 1.391 . S
C210 C225 1.437 . S
H211 C208 0.929 . S
O212 Gd168 2.545 . S
O212 C227 1.258 . S
O213 Gd168 2.606 1_565 S
O213 Gd169 2.362 1_556 S
O213 C224 1.284 . S
O214 Gd169 2.324 1_545 S
O214 C234 1.254 . S
O215 Gd168 2.429 . S
O215 C234 1.268 1_556 S
O216 Gd168 2.545 1_565 S
O216 C224 1.250 . S
O217 Gd168 2.412 . S
O217 C227 1.252 . S
O218 Gd169 2.545 . S
O218 C236 1.258 . S
O219 Gd168 2.362 1_554 S
O219 Gd169 2.606 1_545 S
O219 C235 1.284 . S
O220 Gd168 2.324 1_565 S
O220 C243 1.254 . S
O221 Gd169 2.429 . S
O221 C243 1.268 1_554 S
O222 Gd169 2.545 1_545 S
O222 C235 1.250 . S
O223 Gd169 2.412 . S
O223 C236 1.252 . S
C224 O213 1.284 . S
C224 O216 1.250 . S
C225 H194 0.929 . S
C225 C210 1.437 . S
C225 C226 1.317 . S
C226 H197 0.930 . S
C226 C202 1.431 . S
C226 C225 1.317 . S
C227 Gd168 2.828 . S
C227 O212 1.258 . S
C227 O217 1.252 . S
C227 C228 1.497 . S
C228 C227 1.497 . S
C228 C229 1.395 . S
C228 C230 1.380 . S
C229 C228 1.395 . S
C229 C232 1.398 . S
C229 H244 0.930 . S
C230 C228 1.380 . S
C230 C231 1.391 . S
C230 H245 0.930 1_545 S
C231 C230 1.391 . S
C231 C233 1.387 . S
C232 C229 1.398 . S
C232 C233 1.380 . S
C232 H246 0.930 . S
C233 C231 1.387 . S
C233 C232 1.380 . S
C233 H247 0.930 . S
C234 O214 1.254 . S
C234 O215 1.268 1_554 S
C235 O219 1.284 . S
C235 O222 1.250 . S
C236 Gd169 2.828 . S
C236 O218 1.258 . S
C236 O223 1.252 . S
C236 C237 1.497 . S
C237 C236 1.497 . S
C237 C238 1.395 . S
C237 C239 1.380 . S
C238 C237 1.395 . S
C238 C241 1.398 . S
C238 H248 0.930 . S
C239 C237 1.380 . S
C239 C240 1.391 . S
C239 H249 0.930 1_565 S
C240 C239 1.391 . S
C240 C242 1.387 . S
C241 C238 1.398 . S
C241 C242 1.380 . S
C241 H250 0.930 . S
C242 C240 1.387 . S
C242 C241 1.380 . S
C242 H251 0.930 . S
C243 O220 1.254 . S
C243 O221 1.268 1_556 S
H244 C229 0.930 . S
H245 C230 0.930 1_565 S
H246 C232 0.930 . S
H247 C233 0.930 . S
H248 C238 0.930 . S
H249 C239 0.930 1_545 S
H250 C241 0.930 . S
H251 C242 0.930 . S
Gd252 N283 2.661 . S
Gd252 N289 2.601 . S
Gd252 O296 2.545 . S
Gd252 O297 2.606 . S
Gd252 O299 2.429 . S
Gd252 O300 2.545 . S
Gd252 O301 2.412 . S
Gd252 O303 2.362 . S
Gd252 O304 2.324 . S
Gd252 C311 2.828 . S
Gd253 N262 2.661 . S
Gd253 N266 2.601 . S
Gd253 O297 2.362 . S
Gd253 O298 2.324 . S
Gd253 O302 2.545 . S
Gd253 O303 2.606 . S
Gd253 O305 2.429 . S
Gd253 O306 2.545 . S
Gd253 O307 2.412 . S
Gd253 C320 2.828 . S
C254 C257 1.417 . S
C254 C259 1.431 . S
C254 C260 1.412 . S
C255 C258 1.437 . S
C255 C259 1.317 . S
C255 H274 0.929 . S
C256 C257 1.426 . S
C256 C258 1.413 . S
C256 N266 1.359 . S
C257 C254 1.417 . S
C257 C256 1.426 . S
C257 N262 1.350 . S
C258 C255 1.437 . S
C258 C256 1.413 . S
C258 C268 1.391 . S
C259 C254 1.431 . S
C259 C255 1.317 . S
C259 H270 0.930 . S
C260 C254 1.412 . S
C260 C261 1.355 . S
C260 H272 0.930 . S
C261 C260 1.355 . S
C261 C263 1.402 . S
C261 H273 0.930 . S
N262 Gd253 2.661 . S
N262 C257 1.350 . S
N262 C263 1.307 . S
C263 C261 1.402 . S
C263 N262 1.307 . S
C263 H264 0.930 . S
H264 C263 0.930 . S
C265 N266 1.334 . S
C265 C267 1.394 . S
C265 H269 0.930 . S
N266 Gd253 2.601 . S
N266 C256 1.359 . S
N266 C265 1.334 . S
C267 C265 1.394 . S
C267 C268 1.359 . S
C267 H279 0.930 . S
C268 C258 1.391 . S
C268 C267 1.359 . S
C268 H280 0.929 . S
H269 C265 0.930 . S
H270 C259 0.930 . S
H271 C288 0.930 . S
H272 C260 0.930 . S
H273 C261 0.930 . S
H274 C255 0.929 . S
H275 C293 0.930 . S
H276 C284 0.930 . S
H277 C285 0.930 . S
H278 C309 0.929 . S
H279 C267 0.930 . S
H280 C268 0.929 . S
H281 C310 0.930 . S
H282 C291 0.930 . S
N283 Gd252 2.661 . S
N283 C287 1.350 . S
N283 C288 1.307 . S
C284 H276 0.930 . S
C284 C285 1.355 . S
C284 C286 1.412 . S
C285 H277 0.930 . S
C285 C284 1.355 . S
C285 C288 1.402 . S
C286 C284 1.412 . S
C286 C287 1.417 . S
C286 C310 1.431 . S
C287 N283 1.350 . S
C287 C286 1.417 . S
C287 C290 1.426 . S
C288 H271 0.930 . S
C288 N283 1.307 . S
C288 C285 1.402 . S
N289 Gd252 2.601 . S
N289 C290 1.359 . S
N289 C293 1.334 . S
C290 C287 1.426 . S
C290 N289 1.359 . S
C290 C294 1.413 . S
C291 H282 0.930 . S
C291 C292 1.359 . S
C291 C293 1.394 . S
C292 C291 1.359 . S
C292 C294 1.391 . S
C292 H295 0.929 . S
C293 H275 0.930 . S
C293 N289 1.334 . S
C293 C291 1.394 . S
C294 C290 1.413 . S
C294 C292 1.391 . S
C294 C309 1.437 . S
H295 C292 0.929 . S
O296 Gd252 2.545 . S
O296 C311 1.258 . S
O297 Gd252 2.606 . S
O297 Gd253 2.362 . S
O297 C308 1.284 . S
O298 Gd253 2.324 . S
O298 C318 1.254 . S
O299 Gd252 2.429 . S
O299 C318 1.268 . S
O300 Gd252 2.545 . S
O300 C308 1.250 . S
O301 Gd252 2.412 . S
O301 C311 1.252 . S
O302 Gd253 2.545 . S
O302 C320 1.258 . S
O303 Gd252 2.362 . S
O303 Gd253 2.606 . S
O303 C319 1.284 . S
O304 Gd252 2.324 . S
O304 C327 1.254 . S
O305 Gd253 2.429 . S
O305 C327 1.268 . S
O306 Gd253 2.545 . S
O306 C319 1.250 . S
O307 Gd253 2.412 . S
O307 C320 1.252 . S
C308 O297 1.284 . S
C308 O300 1.250 . S
C309 H278 0.929 . S
C309 C294 1.437 . S
C309 C310 1.317 . S
C310 H281 0.930 . S
C310 C286 1.431 . S
C310 C309 1.317 . S
C311 Gd252 2.828 . S
C311 O296 1.258 . S
C311 O301 1.252 . S
C311 C312 1.497 . S
C312 C311 1.497 . S
C312 C313 1.395 1_554 S
C312 C314 1.380 1_554 S
C313 C312 1.395 1_556 S
C313 C316 1.398 . S
C313 H328 0.930 1_556 S
C314 C312 1.380 1_556 S
C314 C315 1.391 . S
C314 H329 0.930 1_556 S
C315 C314 1.391 . S
C315 C317 1.387 . S
C316 C313 1.398 . S
C316 C317 1.380 . S
C316 H330 0.930 . S
C317 C315 1.387 . S
C317 C316 1.380 . S
C317 H331 0.930 . S
C318 O298 1.254 . S
C318 O299 1.268 . S
C319 O303 1.284 . S
C319 O306 1.250 . S
C320 Gd253 2.828 . S
C320 O302 1.258 . S
C320 O307 1.252 . S
C320 C321 1.497 . S
C321 C320 1.497 . S
C321 C322 1.395 . S
C321 C323 1.380 . S
C322 C321 1.395 . S
C322 C325 1.398 . S
C322 H332 0.930 . S
C323 C321 1.380 . S
C323 C324 1.391 . S
C323 H333 0.930 . S
C324 C323 1.391 . S
C324 C326 1.387 . S
C325 C322 1.398 . S
C325 C326 1.380 . S
C325 H334 0.930 . S
C326 C324 1.387 . S
C326 C325 1.380 . S
C326 H335 0.930 . S
C327 O304 1.254 . S
C327 O305 1.268 . S
H328 C313 0.930 1_554 S
H329 C314 0.930 1_554 S
H330 C316 0.930 . S
H331 C317 0.930 . S
H332 C322 0.930 . S
H333 C323 0.930 . S
H334 C325 0.930 . S
H335 C326 0.930 . S
Gd336 N367 2.661 . S
Gd336 N373 2.601 . S
Gd336 O380 2.545 . S
Gd336 O381 2.606 . S
Gd336 O383 2.429 . S
Gd336 O384 2.545 . S
Gd336 O385 2.412 . S
Gd336 O387 2.362 . S
Gd336 O388 2.324 . S
Gd336 C395 2.828 . S
Gd337 N346 2.661 . S
Gd337 N350 2.601 . S
Gd337 O381 2.362 . S
Gd337 O382 2.324 . S
Gd337 O386 2.545 . S
Gd337 O387 2.606 . S
Gd337 O389 2.429 . S
Gd337 O390 2.545 . S
Gd337 O391 2.412 . S
Gd337 C404 2.828 . S
C338 C341 1.417 . S
C338 C343 1.431 . S
C338 C344 1.412 . S
C339 C342 1.437 . S
C339 C343 1.317 . S
C339 H358 0.929 . S
C340 C341 1.426 . S
C340 C342 1.413 . S
C340 N350 1.359 . S
C341 C338 1.417 . S
C341 C340 1.426 . S
C341 N346 1.350 . S
C342 C339 1.437 . S
C342 C340 1.413 . S
C342 C352 1.391 . S
C343 C338 1.431 . S
C343 C339 1.317 . S
C343 H354 0.930 . S
C344 C338 1.412 . S
C344 C345 1.355 . S
C344 H356 0.930 . S
C345 C344 1.355 . S
C345 C347 1.402 . S
C345 H357 0.930 . S
N346 Gd337 2.661 . S
N346 C341 1.350 . S
N346 C347 1.307 . S
C347 C345 1.402 . S
C347 N346 1.307 . S
C347 H348 0.930 . S
H348 C347 0.930 . S
C349 N350 1.334 . S
C349 C351 1.394 . S
C349 H353 0.930 . S
N350 Gd337 2.601 . S
N350 C340 1.359 . S
N350 C349 1.334 . S
C351 C349 1.394 . S
C351 C352 1.359 . S
C351 H363 0.930 . S
C352 C342 1.391 . S
C352 C351 1.359 . S
C352 H364 0.929 . S
H353 C349 0.930 . S
H354 C343 0.930 . S
H355 C372 0.930 . S
H356 C344 0.930 . S
H357 C345 0.930 . S
H358 C339 0.929 . S
H359 C377 0.930 . S
H360 C368 0.930 . S
H361 C369 0.930 . S
H362 C393 0.929 . S
H363 C351 0.930 . S
H364 C352 0.929 . S
H365 C394 0.930 . S
H366 C375 0.930 . S
N367 Gd336 2.661 . S
N367 C371 1.350 . S
N367 C372 1.307 . S
C368 H360 0.930 . S
C368 C369 1.355 . S
C368 C370 1.412 . S
C369 H361 0.930 . S
C369 C368 1.355 . S
C369 C372 1.402 . S
C370 C368 1.412 . S
C370 C371 1.417 . S
C370 C394 1.431 . S
C371 N367 1.350 . S
C371 C370 1.417 . S
C371 C374 1.426 . S
C372 H355 0.930 . S
C372 N367 1.307 . S
C372 C369 1.402 . S
N373 Gd336 2.601 . S
N373 C374 1.359 . S
N373 C377 1.334 . S
C374 C371 1.426 . S
C374 N373 1.359 . S
C374 C378 1.413 . S
C375 H366 0.930 . S
C375 C376 1.359 . S
C375 C377 1.394 . S
C376 C375 1.359 . S
C376 C378 1.391 . S
C376 H379 0.929 . S
C377 H359 0.930 . S
C377 N373 1.334 . S
C377 C375 1.394 . S
C378 C374 1.413 . S
C378 C376 1.391 . S
C378 C393 1.437 . S
H379 C376 0.929 . S
O380 Gd336 2.545 . S
O380 C395 1.258 . S
O381 Gd336 2.606 . S
O381 Gd337 2.362 . S
O381 C392 1.284 . S
O382 Gd337 2.324 . S
O382 C402 1.254 . S
O383 Gd336 2.429 . S
O383 C402 1.268 . S
O384 Gd336 2.545 . S
O384 C392 1.250 . S
O385 Gd336 2.412 . S
O385 C395 1.252 . S
O386 Gd337 2.545 . S
O386 C404 1.258 . S
O387 Gd336 2.362 . S
O387 Gd337 2.606 . S
O387 C403 1.284 . S
O388 Gd336 2.324 . S
O388 C411 1.254 . S
O389 Gd337 2.429 . S
O389 C411 1.268 . S
O390 Gd337 2.545 . S
O390 C403 1.250 . S
O391 Gd337 2.412 . S
O391 C404 1.252 . S
C392 O381 1.284 . S
C392 O384 1.250 . S
C393 H362 0.929 . S
C393 C378 1.437 . S
C393 C394 1.317 . S
C394 H365 0.930 . S
C394 C370 1.431 . S
C394 C393 1.317 . S
C395 Gd336 2.828 . S
C395 O380 1.258 . S
C395 O385 1.252 . S
C395 C396 1.497 . S
C396 C395 1.497 . S
C396 C397 1.395 . S
C396 C398 1.380 . S
C397 C396 1.395 . S
C397 C400 1.398 . S
C397 H412 0.930 . S
C398 C396 1.380 . S
C398 C399 1.391 . S
C398 H413 0.930 . S
C399 C398 1.391 . S
C399 C401 1.387 . S
C400 C397 1.398 . S
C400 C401 1.380 . S
C400 H414 0.930 . S
C401 C399 1.387 . S
C401 C400 1.380 . S
C401 H415 0.930 . S
C402 O382 1.254 . S
C402 O383 1.268 . S
C403 O387 1.284 . S
C403 O390 1.250 . S
C404 Gd337 2.828 . S
C404 O386 1.258 . S
C404 O391 1.252 . S
C404 C405 1.497 . S
C405 C404 1.497 . S
C405 C406 1.395 1_554 S
C405 C407 1.380 1_554 S
C406 C405 1.395 1_556 S
C406 C409 1.398 . S
C406 H416 0.930 1_556 S
C407 C405 1.380 1_556 S
C407 C408 1.391 . S
C407 H417 0.930 1_556 S
C408 C407 1.391 . S
C408 C410 1.387 . S
C409 C406 1.398 . S
C409 C410 1.380 . S
C409 H418 0.930 . S
C410 C408 1.387 . S
C410 C409 1.380 . S
C410 H419 0.930 . S
C411 O388 1.254 . S
C411 O389 1.268 . S
H412 C397 0.930 . S
H413 C398 0.930 . S
H414 C400 0.930 . S
H415 C401 0.930 . S
H416 C406 0.930 1_554 S
H417 C407 0.930 1_554 S
H418 C409 0.930 . S
H419 C410 0.930 . S
Gd420 N451 2.661 . S
Gd420 N457 2.601 . S
Gd420 O464 2.545 . S
Gd420 O465 2.606 . S
Gd420 O467 2.429 . S
Gd420 O468 2.545 . S
Gd420 O469 2.412 . S
Gd420 O471 2.362 . S
Gd420 O472 2.324 . S
Gd420 C479 2.828 . S
Gd421 N430 2.661 . S
Gd421 N434 2.601 . S
Gd421 O465 2.362 . S
Gd421 O466 2.324 . S
Gd421 O470 2.545 . S
Gd421 O471 2.606 . S
Gd421 O473 2.429 . S
Gd421 O474 2.545 . S
Gd421 O475 2.412 . S
Gd421 C488 2.828 . S
C422 C425 1.417 . S
C422 C427 1.431 . S
C422 C428 1.412 . S
C423 C426 1.437 . S
C423 C427 1.317 . S
C423 H442 0.929 . S
C424 C425 1.426 . S
C424 C426 1.413 . S
C424 N434 1.359 . S
C425 C422 1.417 . S
C425 C424 1.426 . S
C425 N430 1.350 . S
C426 C423 1.437 . S
C426 C424 1.413 . S
C426 C436 1.391 . S
C427 C422 1.431 . S
C427 C423 1.317 . S
C427 H438 0.930 . S
C428 C422 1.412 . S
C428 C429 1.355 . S
C428 H440 0.930 . S
C429 C428 1.355 . S
C429 C431 1.402 . S
C429 H441 0.930 . S
N430 Gd421 2.661 . S
N430 C425 1.350 . S
N430 C431 1.307 . S
C431 C429 1.402 . S
C431 N430 1.307 . S
C431 H432 0.930 . S
H432 C431 0.930 . S
C433 N434 1.334 . S
C433 C435 1.394 . S
C433 H437 0.930 . S
N434 Gd421 2.601 . S
N434 C424 1.359 . S
N434 C433 1.334 . S
C435 C433 1.394 . S
C435 C436 1.359 . S
C435 H447 0.930 . S
C436 C426 1.391 . S
C436 C435 1.359 . S
C436 H448 0.929 . S
H437 C433 0.930 . S
H438 C427 0.930 . S
H439 C456 0.930 . S
H440 C428 0.930 . S
H441 C429 0.930 . S
H442 C423 0.929 . S
H443 C461 0.930 . S
H444 C452 0.930 . S
H445 C453 0.930 . S
H446 C477 0.929 . S
H447 C435 0.930 . S
H448 C436 0.929 . S
H449 C478 0.930 . S
H450 C459 0.930 . S
N451 Gd420 2.661 . S
N451 C455 1.350 . S
N451 C456 1.307 . S
C452 H444 0.930 . S
C452 C453 1.355 . S
C452 C454 1.412 . S
C453 H445 0.930 . S
C453 C452 1.355 . S
C453 C456 1.402 . S
C454 C452 1.412 . S
C454 C455 1.417 . S
C454 C478 1.431 . S
C455 N451 1.350 . S
C455 C454 1.417 . S
C455 C458 1.426 . S
C456 H439 0.930 . S
C456 N451 1.307 . S
C456 C453 1.402 . S
N457 Gd420 2.601 . S
N457 C458 1.359 . S
N457 C461 1.334 . S
C458 C455 1.426 . S
C458 N457 1.359 . S
C458 C462 1.413 . S
C459 H450 0.930 . S
C459 C460 1.359 . S
C459 C461 1.394 . S
C460 C459 1.359 . S
C460 C462 1.391 . S
C460 H463 0.929 . S
C461 H443 0.930 . S
C461 N457 1.334 . S
C461 C459 1.394 . S
C462 C458 1.413 . S
C462 C460 1.391 . S
C462 C477 1.437 . S
H463 C460 0.929 . S
O464 Gd420 2.545 . S
O464 C479 1.258 . S
O465 Gd420 2.606 . S
O465 Gd421 2.362 . S
O465 C476 1.284 . S
O466 Gd421 2.324 . S
O466 C486 1.254 . S
O467 Gd420 2.429 . S
O467 C486 1.268 . S
O468 Gd420 2.545 . S
O468 C476 1.250 . S
O469 Gd420 2.412 . S
O469 C479 1.252 . S
O470 Gd421 2.545 . S
O470 C488 1.258 . S
O471 Gd420 2.362 . S
O471 Gd421 2.606 . S
O471 C487 1.284 . S
O472 Gd420 2.324 . S
O472 C495 1.254 . S
O473 Gd421 2.429 . S
O473 C495 1.268 . S
O474 Gd421 2.545 . S
O474 C487 1.250 . S
O475 Gd421 2.412 . S
O475 C488 1.252 . S
C476 O465 1.284 . S
C476 O468 1.250 . S
C477 H446 0.929 . S
C477 C462 1.437 . S
C477 C478 1.317 . S
C478 H449 0.930 . S
C478 C454 1.431 . S
C478 C477 1.317 . S
C479 Gd420 2.828 . S
C479 O464 1.258 . S
C479 O469 1.252 . S
C479 C480 1.497 . S
C480 C479 1.497 . S
C480 C481 1.395 . S
C480 C482 1.380 . S
C481 C480 1.395 . S
C481 C484 1.398 . S
C481 H496 0.930 . S
C482 C480 1.380 . S
C482 C483 1.391 . S
C482 H497 0.930 . S
C483 C482 1.391 . S
C483 C485 1.387 . S
C484 C481 1.398 . S
C484 C485 1.380 . S
C484 H498 0.930 . S
C485 C483 1.387 . S
C485 C484 1.380 . S
C485 H499 0.930 . S
C486 O466 1.254 . S
C486 O467 1.268 . S
C487 O471 1.284 . S
C487 O474 1.250 . S
C488 Gd421 2.828 . S
C488 O470 1.258 . S
C488 O475 1.252 . S
C488 C489 1.497 . S
C489 C488 1.497 . S
C489 C490 1.395 1_556 S
C489 C491 1.380 1_556 S
C490 C489 1.395 1_554 S
C490 C493 1.398 . S
C490 H500 0.930 1_554 S
C491 C489 1.380 1_554 S
C491 C492 1.391 . S
C491 H501 0.930 1_554 S
C492 C491 1.391 . S
C492 C494 1.387 . S
C493 C490 1.398 . S
C493 C494 1.380 . S
C493 H502 0.930 . S
C494 C492 1.387 . S
C494 C493 1.380 . S
C494 H503 0.930 . S
C495 O472 1.254 . S
C495 O473 1.268 . S
H496 C481 0.930 . S
H497 C482 0.930 . S
H498 C484 0.930 . S
H499 C485 0.930 . S
H500 C490 0.930 1_556 S
H501 C491 0.930 1_556 S
H502 C493 0.930 . S
H503 C494 0.930 . S
Gd504 N535 2.661 . S
Gd504 N541 2.601 . S
Gd504 O548 2.545 . S
Gd504 O549 2.606 . S
Gd504 O551 2.429 . S
Gd504 O552 2.545 . S
Gd504 O553 2.412 . S
Gd504 O555 2.362 1_554 S
Gd504 O556 2.324 . S
Gd504 C563 2.828 . S
Gd505 N514 2.661 . S
Gd505 N518 2.601 . S
Gd505 O549 2.362 1_556 S
Gd505 O550 2.324 . S
Gd505 O554 2.545 . S
Gd505 O555 2.606 . S
Gd505 O557 2.429 . S
Gd505 O558 2.545 . S
Gd505 O559 2.412 . S
Gd505 C572 2.828 . S
C506 C509 1.417 . S
C506 C511 1.431 . S
C506 C512 1.412 . S
C507 C510 1.437 . S
C507 C511 1.317 . S
C507 H526 0.929 . S
C508 C509 1.426 . S
C508 C510 1.413 . S
C508 N518 1.359 . S
C509 C506 1.417 . S
C509 C508 1.426 . S
C509 N514 1.350 . S
C510 C507 1.437 . S
C510 C508 1.413 . S
C510 C520 1.391 . S
C511 C506 1.431 . S
C511 C507 1.317 . S
C511 H522 0.930 . S
C512 C506 1.412 . S
C512 C513 1.355 . S
C512 H524 0.930 . S
C513 C512 1.355 . S
C513 C515 1.402 . S
C513 H525 0.930 . S
N514 Gd505 2.661 . S
N514 C509 1.350 . S
N514 C515 1.307 . S
C515 C513 1.402 . S
C515 N514 1.307 . S
C515 H516 0.930 . S
H516 C515 0.930 . S
C517 N518 1.334 . S
C517 C519 1.394 . S
C517 H521 0.930 . S
N518 Gd505 2.601 . S
N518 C508 1.359 . S
N518 C517 1.334 . S
C519 C517 1.394 . S
C519 C520 1.359 . S
C519 H531 0.930 . S
C520 C510 1.391 . S
C520 C519 1.359 . S
C520 H532 0.929 . S
H521 C517 0.930 . S
H522 C511 0.930 . S
H523 C540 0.930 . S
H524 C512 0.930 . S
H525 C513 0.930 . S
H526 C507 0.929 . S
H527 C545 0.930 . S
H528 C536 0.930 . S
H529 C537 0.930 . S
H530 C561 0.929 . S
H531 C519 0.930 . S
H532 C520 0.929 . S
H533 C562 0.930 . S
H534 C543 0.930 . S
N535 Gd504 2.661 . S
N535 C539 1.350 . S
N535 C540 1.307 . S
C536 H528 0.930 . S
C536 C537 1.355 . S
C536 C538 1.412 . S
C537 H529 0.930 . S
C537 C536 1.355 . S
C537 C540 1.402 . S
C538 C536 1.412 . S
C538 C539 1.417 . S
C538 C562 1.431 . S
C539 N535 1.350 . S
C539 C538 1.417 . S
C539 C542 1.426 . S
C540 H523 0.930 . S
C540 N535 1.307 . S
C540 C537 1.402 . S
N541 Gd504 2.601 . S
N541 C542 1.359 . S
N541 C545 1.334 . S
C542 C539 1.426 . S
C542 N541 1.359 . S
C542 C546 1.413 . S
C543 H534 0.930 . S
C543 C544 1.359 . S
C543 C545 1.394 . S
C544 C543 1.359 . S
C544 C546 1.391 . S
C544 H547 0.929 . S
C545 H527 0.930 . S
C545 N541 1.334 . S
C545 C543 1.394 . S
C546 C542 1.413 . S
C546 C544 1.391 . S
C546 C561 1.437 . S
H547 C544 0.929 . S
O548 Gd504 2.545 . S
O548 C563 1.258 . S
O549 Gd504 2.606 . S
O549 Gd505 2.362 1_554 S
O549 C560 1.284 . S
O550 Gd505 2.324 . S
O550 C570 1.254 . S
O551 Gd504 2.429 . S
O551 C570 1.268 1_554 S
O552 Gd504 2.545 . S
O552 C560 1.250 . S
O553 Gd504 2.412 . S
O553 C563 1.252 . S
O554 Gd505 2.545 . S
O554 C572 1.258 . S
O555 Gd504 2.362 1_556 S
O555 Gd505 2.606 . S
O555 C571 1.284 . S
O556 Gd504 2.324 . S
O556 C579 1.254 . S
O557 Gd505 2.429 . S
O557 C579 1.268 1_556 S
O558 Gd505 2.545 . S
O558 C571 1.250 . S
O559 Gd505 2.412 . S
O559 C572 1.252 . S
C560 O549 1.284 . S
C560 O552 1.250 . S
C561 H530 0.929 . S
C561 C546 1.437 . S
C561 C562 1.317 . S
C562 H533 0.930 . S
C562 C538 1.431 . S
C562 C561 1.317 . S
C563 Gd504 2.828 . S
C563 O548 1.258 . S
C563 O553 1.252 . S
C563 C564 1.497 . S
C564 C563 1.497 . S
C564 C565 1.395 . S
C564 C566 1.380 . S
C565 C564 1.395 . S
C565 C568 1.398 . S
C565 H580 0.930 . S
C566 C564 1.380 . S
C566 C567 1.391 . S
C566 H581 0.930 . S
C567 C566 1.391 . S
C567 C569 1.387 . S
C568 C565 1.398 . S
C568 C569 1.380 . S
C568 H582 0.930 . S
C569 C567 1.387 . S
C569 C568 1.380 . S
C569 H583 0.930 . S
C570 O550 1.254 . S
C570 O551 1.268 1_556 S
C571 O555 1.284 . S
C571 O558 1.250 . S
C572 Gd505 2.828 . S
C572 O554 1.258 . S
C572 O559 1.252 . S
C572 C573 1.497 . S
C573 C572 1.497 . S
C573 C574 1.395 . S
C573 C575 1.380 . S
C574 C573 1.395 . S
C574 C577 1.398 . S
C574 H584 0.930 . S
C575 C573 1.380 . S
C575 C576 1.391 . S
C575 H585 0.930 . S
C576 C575 1.391 . S
C576 C578 1.387 . S
C577 C574 1.398 . S
C577 C578 1.380 . S
C577 H586 0.930 . S
C578 C576 1.387 . S
C578 C577 1.380 . S
C578 H587 0.930 . S
C579 O556 1.254 . S
C579 O557 1.268 1_554 S
H580 C565 0.930 . S
H581 C566 0.930 . S
H582 C568 0.930 . S
H583 C569 0.930 . S
H584 C574 0.930 . S
H585 C575 0.930 . S
H586 C577 0.930 . S
H587 C578 0.930 . S
Gd588 N619 2.655 1_455 S
Gd588 N625 2.601 1_455 S
Gd588 O632 2.548 . S
Gd588 O633 2.608 . S
Gd588 O635 2.433 . S
Gd588 O636 2.548 . S
Gd588 O637 2.411 1_455 S
Gd588 O639 2.360 1_455 S
Gd588 O640 2.320 1_455 S
Gd588 C647 2.829 . S
Gd589 N598 2.662 1_655 S
Gd589 N602 2.601 1_655 S
Gd589 O633 2.363 1_655 S
Gd589 O634 2.325 1_655 S
Gd589 O638 2.544 . S
Gd589 O639 2.605 . S
Gd589 O641 2.427 . S
Gd589 O642 2.543 . S
Gd589 O643 2.413 1_655 S
Gd589 C656 2.828 . S
C590 C593 1.417 . S
C590 C595 1.431 . S
C590 C596 1.412 . S
C591 C594 1.437 . S
C591 C595 1.317 . S
C591 H610 0.929 . S
C592 C593 1.426 . S
C592 C594 1.413 . S
C592 N602 1.359 . S
C593 C590 1.417 . S
C593 C592 1.426 . S
C593 N598 1.350 . S
C594 C591 1.437 . S
C594 C592 1.413 . S
C594 C604 1.391 . S
C595 C590 1.431 . S
C595 C591 1.317 . S
C595 H606 0.930 . S
C596 C590 1.412 . S
C596 C597 1.355 . S
C596 H608 0.930 . S
C597 C596 1.355 . S
C597 C599 1.402 . S
C597 H609 0.930 . S
N598 Gd589 2.662 1_455 S
N598 C593 1.350 . S
N598 C599 1.307 . S
C599 C597 1.402 . S
C599 N598 1.307 . S
C599 H600 0.930 . S
H600 C599 0.930 . S
C601 N602 1.334 1_655 S
C601 C603 1.394 . S
C601 H605 0.930 . S
N602 Gd589 2.601 1_455 S
N602 C592 1.359 . S
N602 C601 1.334 1_455 S
C603 C601 1.394 . S
C603 C604 1.359 1_655 S
C603 H615 0.930 . S
C604 C594 1.391 . S
C604 C603 1.359 1_455 S
C604 H616 0.930 . S
H605 C601 0.930 . S
H606 C595 0.930 . S
H607 C624 0.930 . S
H608 C596 0.930 . S
H609 C597 0.930 . S
H610 C591 0.929 . S
H611 C629 0.930 . S
H612 C620 0.930 . S
H613 C621 0.930 . S
H614 C645 0.929 . S
H615 C603 0.930 . S
H616 C604 0.930 . S
H617 C646 0.930 . S
H618 C627 0.930 . S
N619 Gd588 2.655 1_655 S
N619 C623 1.350 . S
N619 C624 1.307 . S
C620 H612 0.930 . S
C620 C621 1.355 . S
C620 C622 1.412 . S
C621 H613 0.930 . S
C621 C620 1.355 . S
C621 C624 1.402 . S
C622 C620 1.412 . S
C622 C623 1.417 . S
C622 C646 1.431 . S
C623 N619 1.350 . S
C623 C622 1.417 . S
C623 C626 1.426 . S
C624 H607 0.930 . S
C624 N619 1.307 . S
C624 C621 1.402 . S
N625 Gd588 2.601 1_655 S
N625 C626 1.359 . S
N625 C629 1.334 1_655 S
C626 C623 1.426 . S
C626 N625 1.359 . S
C626 C630 1.413 . S
C627 H618 0.930 . S
C627 C628 1.332 1_455 S
C627 C629 1.394 . S
C628 C627 1.332 1_655 S
C628 C630 1.418 . S
C628 H631 0.929 . S
C629 H611 0.930 . S
C629 N625 1.334 1_455 S
C629 C627 1.394 . S
C630 C626 1.413 . S
C630 C628 1.418 . S
C630 C645 1.437 . S
H631 C628 0.929 . S
O632 Gd588 2.548 . S
O632 C647 1.258 . S
O633 Gd588 2.608 . S
O633 Gd589 2.363 1_455 S
O633 C644 1.284 . S
O634 Gd589 2.325 1_455 S
O634 C654 1.254 . S
O635 Gd588 2.433 . S
O635 C654 1.268 . S
O636 Gd588 2.548 . S
O636 C644 1.250 . S
O637 Gd588 2.411 1_655 S
O637 C647 1.252 1_655 S
O638 Gd589 2.544 . S
O638 C656 1.258 . S
O639 Gd588 2.360 1_655 S
O639 Gd589 2.605 . S
O639 C655 1.284 . S
O640 Gd588 2.320 1_655 S
O640 C663 1.254 . S
O641 Gd589 2.427 . S
O641 C663 1.268 . S
O642 Gd589 2.543 . S
O642 C655 1.250 . S
O643 Gd589 2.413 1_455 S
O643 C656 1.252 1_455 S
C644 O633 1.284 . S
C644 O636 1.250 . S
C645 H614 0.929 . S
C645 C630 1.437 . S
C645 C646 1.317 . S
C646 H617 0.930 . S
C646 C622 1.431 . S
C646 C645 1.317 . S
C647 Gd588 2.829 . S
C647 O632 1.258 . S
C647 O637 1.252 1_455 S
C647 C648 1.497 . S
C648 C647 1.497 . S
C648 C649 1.395 . S
C648 C650 1.380 . S
C649 C648 1.395 . S
C649 C652 1.398 . S
C649 H664 0.930 . S
C650 C648 1.380 . S
C650 C651 1.391 . S
C650 H665 0.930 1_455 S
C651 C650 1.391 . S
C651 C653 1.387 . S
C652 C649 1.398 . S
C652 C653 1.380 . S
C652 H666 0.930 . S
C653 C651 1.387 . S
C653 C652 1.380 . S
C653 H667 0.930 . S
C654 O634 1.254 . S
C654 O635 1.268 . S
C655 O639 1.284 . S
C655 O642 1.250 . S
C656 Gd589 2.828 . S
C656 O638 1.258 . S
C656 O643 1.252 1_655 S
C656 C657 1.497 . S
C657 C656 1.497 . S
C657 C658 1.395 . S
C657 C659 1.380 . S
C658 C657 1.395 . S
C658 C661 1.398 . S
C658 H668 0.930 . S
C659 C657 1.380 . S
C659 C660 1.391 . S
C659 H669 0.930 1_655 S
C660 C659 1.391 . S
C660 C662 1.387 . S
C661 C658 1.398 . S
C661 C662 1.380 . S
C661 H670 0.930 . S
C662 C660 1.387 . S
C662 C661 1.380 . S
C662 H671 0.930 . S
C663 O640 1.254 . S
C663 O641 1.268 . S
H664 C649 0.930 . S
H665 C650 0.930 1_655 S
H666 C652 0.930 . S
H667 C653 0.930 . S
H668 C658 0.930 . S
H669 C659 0.930 1_455 S
H670 C661 0.930 . S
H671 C662 0.930 . S
C672 C673 1.391 . S
C672 C674 1.394 . S
C672 H688 0.931 . S
C673 C672 1.391 . S
C673 C677 1.376 . S
C674 C672 1.394 . S
C674 C675 1.369 . S
C674 C678 1.531 . S
C675 C674 1.369 . S
C675 C676 1.410 . S
C675 C683 1.503 . S
C676 C675 1.410 . S
C676 C677 1.392 . S
C676 C679 1.511 . S
C677 C673 1.376 . S
C677 C676 1.392 . S
C677 H689 0.929 . S
C678 C674 1.531 . S
C678 H690 0.960 . S
C678 H691 0.962 . S
C678 H692 0.960 . S
C679 C676 1.511 . S
C679 H693 0.961 . S
C679 H694 0.961 . S
C679 H695 0.961 . S
C680 C681 1.370 . S
C680 C682 1.363 . S
C680 H696 0.931 . S
C681 C680 1.370 . S
C681 C685 1.408 . S
C682 C680 1.363 . S
C682 C683 1.370 . S
C682 C686 1.524 . S
C683 C675 1.503 . S
C683 C682 1.370 . S
C683 C684 1.403 . S
C684 C683 1.403 . S
C684 C685 1.404 . S
C684 C687 1.539 . S
C685 C681 1.408 . S
C685 C684 1.404 . S
C685 H697 0.930 . S
C686 C682 1.524 . S
C686 H698 0.956 . S
C686 H699 0.961 . S
C686 H700 0.961 . S
C687 C684 1.539 . S
C687 H701 0.958 . S
C687 H702 0.961 . S
C687 H703 0.960 . S
H688 C672 0.931 . S
H689 C677 0.929 . S
H690 C678 0.960 . S
H691 C678 0.962 . S
H692 C678 0.960 . S
H693 C679 0.961 . S
H694 C679 0.961 . S
H695 C679 0.961 . S
H696 C680 0.931 . S
H697 C685 0.930 . S
H698 C686 0.956 . S
H699 C686 0.961 . S
H700 C686 0.961 . S
H701 C687 0.958 . S
H702 C687 0.961 . S
H703 C687 0.960 . S
C704 C705 1.391 . S
C704 C706 1.394 . S
C704 H720 0.931 . S
C705 C704 1.391 . S
C705 C709 1.376 . S
C706 C704 1.394 . S
C706 C707 1.369 . S
C706 C710 1.531 . S
C707 C706 1.369 . S
C707 C708 1.410 . S
C707 C715 1.503 . S
C708 C707 1.410 . S
C708 C709 1.392 . S
C708 C711 1.511 . S
C709 C705 1.376 . S
C709 C708 1.392 . S
C709 H721 0.929 . S
C710 C706 1.531 . S
C710 H722 0.960 . S
C710 H723 0.962 . S
C710 H724 0.960 . S
C711 C708 1.511 . S
C711 H725 0.961 . S
C711 H726 0.961 . S
C711 H727 0.961 . S
C712 C713 1.370 . S
C712 C714 1.363 . S
C712 H728 0.931 . S
C713 C712 1.370 . S
C713 C717 1.408 . S
C714 C712 1.363 . S
C714 C715 1.370 . S
C714 C718 1.524 . S
C715 C707 1.503 . S
C715 C714 1.370 . S
C715 C716 1.403 . S
C716 C715 1.403 . S
C716 C717 1.404 . S
C716 C719 1.539 . S
C717 C713 1.408 . S
C717 C716 1.404 . S
C717 H729 0.930 . S
C718 C714 1.524 . S
C718 H730 0.956 . S
C718 H731 0.961 . S
C718 H732 0.961 . S
C719 C716 1.539 . S
C719 H733 0.958 . S
C719 H734 0.961 . S
C719 H735 0.960 . S
H720 C704 0.931 . S
H721 C709 0.929 . S
H722 C710 0.960 . S
H723 C710 0.962 . S
H724 C710 0.960 . S
H725 C711 0.961 . S
H726 C711 0.961 . S
H727 C711 0.961 . S
H728 C712 0.931 . S
H729 C717 0.930 . S
H730 C718 0.956 . S
H731 C718 0.961 . S
H732 C718 0.961 . S
H733 C719 0.958 . S
H734 C719 0.961 . S
H735 C719 0.960 . S
C736 C737 1.391 . S
C736 C738 1.394 . S
C736 H752 0.931 . S
C737 C736 1.391 . S
C737 C741 1.376 . S
C738 C736 1.394 . S
C738 C739 1.369 . S
C738 C742 1.531 . S
C739 C738 1.369 . S
C739 C740 1.410 . S
C739 C747 1.503 . S
C740 C739 1.410 . S
C740 C741 1.392 . S
C740 C743 1.511 . S
C741 C737 1.376 . S
C741 C740 1.392 . S
C741 H753 0.929 . S
C742 C738 1.531 . S
C742 H754 0.960 . S
C742 H755 0.962 . S
C742 H756 0.960 . S
C743 C740 1.511 . S
C743 H757 0.961 . S
C743 H758 0.961 . S
C743 H759 0.961 . S
C744 C745 1.370 . S
C744 C746 1.363 . S
C744 H760 0.931 . S
C745 C744 1.370 . S
C745 C749 1.408 . S
C746 C744 1.363 . S
C746 C747 1.370 . S
C746 C750 1.524 . S
C747 C739 1.503 . S
C747 C746 1.370 . S
C747 C748 1.403 . S
C748 C747 1.403 . S
C748 C749 1.404 . S
C748 C751 1.539 . S
C749 C745 1.408 . S
C749 C748 1.404 . S
C749 H761 0.930 . S
C750 C746 1.524 . S
C750 H762 0.956 . S
C750 H763 0.961 . S
C750 H764 0.961 . S
C751 C748 1.539 . S
C751 H765 0.958 . S
C751 H766 0.961 . S
C751 H767 0.960 . S
H752 C736 0.931 . S
H753 C741 0.929 . S
H754 C742 0.960 . S
H755 C742 0.962 . S
H756 C742 0.960 . S
H757 C743 0.961 . S
H758 C743 0.961 . S
H759 C743 0.961 . S
H760 C744 0.931 . S
H761 C749 0.930 . S
H762 C750 0.956 . S
H763 C750 0.961 . S
H764 C750 0.961 . S
H765 C751 0.958 . S
H766 C751 0.961 . S
H767 C751 0.960 . S
C768 C769 1.391 . S
C768 C770 1.394 . S
C768 H784 0.931 . S
C769 C768 1.391 . S
C769 C773 1.376 . S
C770 C768 1.394 . S
C770 C771 1.369 . S
C770 C774 1.531 . S
C771 C770 1.369 . S
C771 C772 1.410 . S
C771 C779 1.503 . S
C772 C771 1.410 . S
C772 C773 1.392 . S
C772 C775 1.511 . S
C773 C769 1.376 . S
C773 C772 1.392 . S
C773 H785 0.929 . S
C774 C770 1.531 . S
C774 H786 0.960 . S
C774 H787 0.962 . S
C774 H788 0.960 . S
C775 C772 1.511 . S
C775 H789 0.961 1_554 S
C775 H790 0.961 . S
C775 H791 0.961 . S
C776 C777 1.370 . S
C776 C778 1.363 . S
C776 H792 0.931 . S
C777 C776 1.370 . S
C777 C781 1.408 . S
C778 C776 1.363 . S
C778 C779 1.370 . S
C778 C782 1.524 . S
C779 C771 1.503 . S
C779 C778 1.370 . S
C779 C780 1.403 . S
C780 C779 1.403 . S
C780 C781 1.404 . S
C780 C783 1.539 . S
C781 C777 1.408 . S
C781 C780 1.404 . S
C781 H793 0.930 . S
C782 C778 1.524 . S
C782 H794 0.956 . S
C782 H795 0.961 . S
C782 H796 0.961 . S
C783 C780 1.539 . S
C783 H797 0.958 . S
C783 H798 0.961 . S
C783 H799 0.960 . S
H784 C768 0.931 . S
H785 C773 0.929 . S
H786 C774 0.960 . S
H787 C774 0.962 . S
H788 C774 0.960 . S
H789 C775 0.961 1_556 S
H790 C775 0.961 . S
H791 C775 0.961 . S
H792 C776 0.931 . S
H793 C781 0.930 . S
H794 C782 0.956 . S
H795 C782 0.961 . S
H796 C782 0.961 . S
H797 C783 0.958 . S
H798 C783 0.961 . S
H799 C783 0.960 . S
C800 C801 1.391 . S
C800 C802 1.394 . S
C800 H816 0.931 . S
C801 C800 1.391 . S
C801 C805 1.376 . S
C802 C800 1.394 . S
C802 C803 1.369 . S
C802 C806 1.531 . S
C803 C802 1.369 . S
C803 C804 1.410 . S
C803 C811 1.503 . S
C804 C803 1.410 . S
C804 C805 1.392 . S
C804 C807 1.511 . S
C805 C801 1.376 . S
C805 C804 1.392 . S
C805 H817 0.929 . S
C806 C802 1.531 . S
C806 H818 0.960 . S
C806 H819 0.962 . S
C806 H820 0.960 . S
C807 C804 1.511 . S
C807 H821 0.961 . S
C807 H822 0.961 . S
C807 H823 0.961 . S
C808 C809 1.370 . S
C808 C810 1.363 . S
C808 H824 0.931 . S
C809 C808 1.370 . S
C809 C813 1.408 . S
C810 C808 1.363 . S
C810 C811 1.370 . S
C810 C814 1.524 . S
C811 C803 1.503 . S
C811 C810 1.370 . S
C811 C812 1.403 . S
C812 C811 1.403 . S
C812 C813 1.404 . S
C812 C815 1.539 . S
C813 C809 1.408 . S
C813 C812 1.404 . S
C813 H825 0.930 . S
C814 C810 1.524 . S
C814 H826 0.956 . S
C814 H827 0.961 . S
C814 H828 0.961 . S
C815 C812 1.539 . S
C815 H829 0.958 . S
C815 H830 0.961 . S
C815 H831 0.960 . S
H816 C800 0.931 . S
H817 C805 0.929 . S
H818 C806 0.960 . S
H819 C806 0.962 . S
H820 C806 0.960 . S
H821 C807 0.961 . S
H822 C807 0.961 . S
H823 C807 0.961 . S
H824 C808 0.931 . S
H825 C813 0.930 . S
H826 C814 0.956 . S
H827 C814 0.961 . S
H828 C814 0.961 . S
H829 C815 0.958 . S
H830 C815 0.961 . S
H831 C815 0.960 . S
C832 C833 1.391 . S
C832 C834 1.394 . S
C832 H848 0.931 . S
C833 C832 1.391 . S
C833 C837 1.376 . S
C834 C832 1.394 . S
C834 C835 1.369 . S
C834 C838 1.531 . S
C835 C834 1.369 . S
C835 C836 1.410 . S
C835 C843 1.503 . S
C836 C835 1.410 . S
C836 C837 1.392 . S
C836 C839 1.511 . S
C837 C833 1.376 . S
C837 C836 1.392 . S
C837 H849 0.929 . S
C838 C834 1.531 . S
C838 H850 0.960 . S
C838 H851 0.962 . S
C838 H852 0.960 . S
C839 C836 1.511 . S
C839 H853 0.961 . S
C839 H854 0.961 . S
C839 H855 0.961 . S
C840 C841 1.370 . S
C840 C842 1.363 . S
C840 H856 0.931 . S
C841 C840 1.370 . S
C841 C845 1.408 . S
C842 C840 1.363 . S
C842 C843 1.370 . S
C842 C846 1.524 . S
C843 C835 1.503 . S
C843 C842 1.370 . S
C843 C844 1.403 . S
C844 C843 1.403 . S
C844 C845 1.404 . S
C844 C847 1.539 . S
C845 C841 1.408 . S
C845 C844 1.404 . S
C845 H857 0.930 . S
C846 C842 1.524 . S
C846 H858 0.956 . S
C846 H859 0.961 . S
C846 H860 0.961 . S
C847 C844 1.539 . S
C847 H861 0.958 . S
C847 H862 0.961 . S
C847 H863 0.960 . S
H848 C832 0.931 . S
H849 C837 0.929 . S
H850 C838 0.960 . S
H851 C838 0.962 . S
H852 C838 0.960 . S
H853 C839 0.961 . S
H854 C839 0.961 . S
H855 C839 0.961 . S
H856 C840 0.931 . S
H857 C845 0.930 . S
H858 C846 0.956 . S
H859 C846 0.961 . S
H860 C846 0.961 . S
H861 C847 0.958 . S
H862 C847 0.961 . S
H863 C847 0.960 . S
C864 C865 1.391 . S
C864 C866 1.394 . S
C864 H880 0.931 . S
C865 C864 1.391 . S
C865 C869 1.376 . S
C866 C864 1.394 . S
C866 C867 1.369 . S
C866 C870 1.531 . S
C867 C866 1.369 . S
C867 C868 1.410 . S
C867 C875 1.503 . S
C868 C867 1.410 . S
C868 C869 1.392 . S
C868 C871 1.511 . S
C869 C865 1.376 . S
C869 C868 1.392 . S
C869 H881 0.929 . S
C870 C866 1.531 . S
C870 H882 0.960 . S
C870 H883 0.962 . S
C870 H884 0.960 . S
C871 C868 1.511 . S
C871 H885 0.961 . S
C871 H886 0.961 . S
C871 H887 0.961 . S
C872 C873 1.370 . S
C872 C874 1.363 . S
C872 H888 0.931 . S
C873 C872 1.370 . S
C873 C877 1.408 . S
C874 C872 1.363 . S
C874 C875 1.370 . S
C874 C878 1.524 . S
C875 C867 1.503 . S
C875 C874 1.370 . S
C875 C876 1.403 . S
C876 C875 1.403 . S
C876 C877 1.404 . S
C876 C879 1.539 . S
C877 C873 1.408 . S
C877 C876 1.404 . S
C877 H889 0.930 . S
C878 C874 1.524 . S
C878 H890 0.956 . S
C878 H891 0.961 . S
C878 H892 0.983 . S
C879 C876 1.539 . S
C879 H893 0.958 . S
C879 H894 0.961 . S
C879 H895 0.960 . S
H880 C864 0.931 . S
H881 C869 0.929 . S
H882 C870 0.960 . S
H883 C870 0.962 . S
H884 C870 0.960 . S
H885 C871 0.961 . S
H886 C871 0.961 . S
H887 C871 0.961 . S
H888 C872 0.931 . S
H889 C877 0.930 . S
H890 C878 0.956 . S
H891 C878 0.961 . S
H892 C878 0.983 . S
H893 C879 0.958 . S
H894 C879 0.961 . S
H895 C879 0.960 . S
C896 C897 1.391 . S
C896 C898 1.394 . S
C896 H912 0.931 . S
C897 C896 1.391 . S
C897 C901 1.376 . S
C898 C896 1.394 . S
C898 C899 1.369 . S
C898 C902 1.531 . S
C899 C898 1.369 . S
C899 C900 1.410 . S
C899 C907 1.503 . S
C900 C899 1.410 . S
C900 C901 1.392 . S
C900 C903 1.511 . S
C901 C897 1.376 . S
C901 C900 1.392 . S
C901 H913 0.929 . S
C902 C898 1.531 . S
C902 H914 0.960 . S
C902 H915 0.962 . S
C902 H916 0.960 . S
C903 C900 1.511 . S
C903 H917 0.961 . S
C903 H918 0.961 . S
C903 H919 0.961 . S
C904 C905 1.370 . S
C904 C906 1.363 . S
C904 H920 0.931 . S
C905 C904 1.370 . S
C905 C909 1.408 . S
C906 C904 1.363 . S
C906 C907 1.370 . S
C906 C910 1.524 . S
C907 C899 1.503 . S
C907 C906 1.370 . S
C907 C908 1.403 . S
C908 C907 1.403 . S
C908 C909 1.404 . S
C908 C911 1.539 . S
C909 C905 1.408 . S
C909 C908 1.404 . S
C909 H921 0.930 . S
C910 C906 1.524 . S
C910 H922 0.956 . S
C910 H923 0.961 . S
C910 H924 0.961 . S
C911 C908 1.539 . S
C911 H925 0.958 . S
C911 H926 0.961 . S
C911 H927 0.960 . S
H912 C896 0.931 . S
H913 C901 0.929 . S
H914 C902 0.960 . S
H915 C902 0.962 . S
H916 C902 0.960 . S
H917 C903 0.961 . S
H918 C903 0.961 . S
H919 C903 0.961 . S
H920 C904 0.931 . S
H921 C909 0.930 . S
H922 C910 0.956 . S
H923 C910 0.961 . S
H924 C910 0.961 . S
H925 C911 0.958 . S
H926 C911 0.961 . S
H927 C911 0.960 . S
C928 C929 1.391 . S
C928 C930 1.394 . S
C928 H944 0.931 . S
C929 C928 1.391 . S
C929 C933 1.376 . S
C930 C928 1.394 . S
C930 C931 1.369 . S
C930 C934 1.531 . S
C931 C930 1.369 . S
C931 C932 1.410 . S
C931 C939 1.503 . S
C932 C931 1.410 . S
C932 C933 1.392 . S
C932 C935 1.511 . S
C933 C929 1.376 . S
C933 C932 1.392 . S
C933 H945 0.929 . S
C934 C930 1.531 . S
C934 H946 0.960 . S
C934 H947 0.962 . S
C934 H948 0.960 . S
C935 C932 1.511 . S
C935 H949 0.961 . S
C935 H950 0.961 . S
C935 H951 0.961 . S
C936 C937 1.370 . S
C936 C938 1.363 . S
C936 H952 0.931 . S
C937 C936 1.370 . S
C937 C941 1.408 . S
C938 C936 1.363 . S
C938 C939 1.370 . S
C938 C942 1.524 . S
C939 C931 1.503 . S
C939 C938 1.370 . S
C939 C940 1.403 . S
C940 C939 1.403 . S
C940 C941 1.404 . S
C940 C943 1.539 . S
C941 C937 1.408 . S
C941 C940 1.404 . S
C941 H953 0.930 . S
C942 C938 1.524 . S
C942 H954 0.956 . S
C942 H955 0.961 . S
C942 H956 0.961 . S
C943 C940 1.539 . S
C943 H957 0.958 . S
C943 H958 0.961 . S
C943 H959 0.960 . S
H944 C928 0.931 . S
H945 C933 0.929 . S
H946 C934 0.960 . S
H947 C934 0.962 . S
H948 C934 0.960 . S
H949 C935 0.961 . S
H950 C935 0.961 . S
H951 C935 0.961 . S
H952 C936 0.931 . S
H953 C941 0.930 . S
H954 C942 0.956 . S
H955 C942 0.961 . S
H956 C942 0.961 . S
H957 C943 0.958 . S
H958 C943 0.961 . S
H959 C943 0.960 . S
C960 C961 1.391 . S
C960 C962 1.394 . S
C960 H976 0.931 . S
C961 C960 1.391 . S
C961 C965 1.376 . S
C962 C960 1.394 . S
C962 C963 1.369 . S
C962 C966 1.531 . S
C963 C962 1.369 . S
C963 C964 1.410 . S
C963 C971 1.503 . S
C964 C963 1.410 . S
C964 C965 1.392 . S
C964 C967 1.511 . S
C965 C961 1.376 . S
C965 C964 1.392 . S
C965 H977 0.929 . S
C966 C962 1.531 . S
C966 H978 0.960 . S
C966 H979 0.962 . S
C966 H980 0.960 . S
C967 C964 1.511 . S
C967 H981 0.961 . S
C967 H982 0.961 . S
C967 H983 0.961 . S
C968 C969 1.370 . S
C968 C970 1.363 . S
C968 H984 0.931 . S
C969 C968 1.370 . S
C969 C973 1.408 . S
C970 C968 1.363 . S
C970 C971 1.370 . S
C970 C974 1.524 . S
C971 C963 1.503 . S
C971 C970 1.370 . S
C971 C972 1.403 . S
C972 C971 1.403 . S
C972 C973 1.404 . S
C972 C975 1.539 . S
C973 C969 1.408 . S
C973 C972 1.404 . S
C973 H985 0.930 . S
C974 C970 1.524 . S
C974 H986 0.956 . S
C974 H987 0.961 . S
C974 H988 0.961 . S
C975 C972 1.539 . S
C975 H989 0.958 1_554 S
C975 H990 0.961 1_554 S
C975 H991 0.960 . S
H976 C960 0.931 . S
H977 C965 0.929 . S
H978 C966 0.960 . S
H979 C966 0.962 . S
H980 C966 0.960 . S
H981 C967 0.961 . S
H982 C967 0.961 . S
H983 C967 0.961 . S
H984 C968 0.931 . S
H985 C973 0.930 . S
H986 C974 0.956 . S
H987 C974 0.961 . S
H988 C974 0.961 . S
H989 C975 0.958 1_556 S
H990 C975 0.961 1_556 S
H991 C975 0.960 . S
C992 C993 1.391 . S
C992 C994 1.394 . S
C992 H1008 0.931 . S
C993 C992 1.391 . S
C993 C997 1.376 . S
C994 C992 1.394 . S
C994 C995 1.369 . S
C994 C998 1.531 . S
C995 C994 1.369 . S
C995 C996 1.410 . S
C995 C1003 1.503 . S
C996 C995 1.410 . S
C996 C997 1.392 . S
C996 C999 1.511 . S
C997 C993 1.376 . S
C997 C996 1.392 . S
C997 H1009 0.929 . S
C998 C994 1.531 . S
C998 H1010 0.960 . S
C998 H1011 0.962 . S
C998 H1012 0.960 . S
C999 C996 1.511 . S
C999 H1013 0.961 . S
C999 H1014 0.961 . S
C999 H1015 0.961 . S
C1000 C1001 1.370 . S
C1000 C1002 1.363 . S
C1000 H1016 0.931 . S
C1001 C1000 1.370 . S
C1001 C1005 1.408 . S
C1002 C1000 1.363 . S
C1002 C1003 1.370 . S
C1002 C1006 1.524 . S
C1003 C995 1.503 . S
C1003 C1002 1.370 . S
C1003 C1004 1.403 . S
C1004 C1003 1.403 . S
C1004 C1005 1.404 . S
C1004 C1007 1.539 . S
C1005 C1001 1.408 . S
C1005 C1004 1.404 . S
C1005 H1017 0.930 . S
C1006 C1002 1.524 . S
C1006 H1018 0.956 . S
C1006 H1019 0.961 . S
C1006 H1020 0.961 . S
C1007 C1004 1.539 . S
C1007 H1021 0.958 . S
C1007 H1022 0.961 . S
C1007 H1023 0.960 . S
H1008 C992 0.931 . S
H1009 C997 0.929 . S
H1010 C998 0.960 . S
H1011 C998 0.962 . S
H1012 C998 0.960 . S
H1013 C999 0.961 . S
H1014 C999 0.961 . S
H1015 C999 0.961 . S
H1016 C1000 0.931 . S
H1017 C1005 0.930 . S
H1018 C1006 0.956 . S
H1019 C1006 0.961 . S
H1020 C1006 0.961 . S
H1021 C1007 0.958 . S
H1022 C1007 0.961 . S
H1023 C1007 0.960 . S
C1024 C1025 1.391 . S
C1024 C1026 1.394 . S
C1024 H1040 0.931 . S
C1025 C1024 1.391 . S
C1025 C1029 1.376 . S
C1026 C1024 1.394 . S
C1026 C1027 1.369 . S
C1026 C1030 1.531 . S
C1027 C1026 1.369 . S
C1027 C1028 1.410 . S
C1027 C1035 1.503 . S
C1028 C1027 1.410 . S
C1028 C1029 1.392 . S
C1028 C1031 1.511 . S
C1029 C1025 1.376 . S
C1029 C1028 1.392 . S
C1029 H1041 0.929 . S
C1030 C1026 1.531 . S
C1030 H1042 0.960 . S
C1030 H1043 0.962 . S
C1030 H1044 0.960 . S
C1031 C1028 1.511 . S
C1031 H1045 0.961 . S
C1031 H1046 0.961 . S
C1031 H1047 0.961 . S
C1032 C1033 1.370 . S
C1032 C1034 1.363 . S
C1032 H1048 0.931 . S
C1033 C1032 1.370 . S
C1033 C1037 1.408 . S
C1034 C1032 1.363 . S
C1034 C1035 1.370 . S
C1034 C1038 1.524 . S
C1035 C1027 1.503 . S
C1035 C1034 1.370 . S
C1035 C1036 1.403 . S
C1036 C1035 1.403 . S
C1036 C1037 1.404 . S
C1036 C1039 1.539 . S
C1037 C1033 1.408 . S
C1037 C1036 1.404 . S
C1037 H1049 0.930 . S
C1038 C1034 1.524 . S
C1038 H1050 0.956 . S
C1038 H1051 0.961 . S
C1038 H1052 0.961 . S
C1039 C1036 1.539 . S
C1039 H1053 0.958 . S
C1039 H1054 0.961 . S
C1039 H1055 0.960 . S
H1040 C1024 0.931 . S
H1041 C1029 0.929 . S
H1042 C1030 0.960 . S
H1043 C1030 0.962 . S
H1044 C1030 0.960 . S
H1045 C1031 0.961 . S
H1046 C1031 0.961 . S
H1047 C1031 0.961 . S
H1048 C1032 0.931 . S
H1049 C1037 0.930 . S
H1050 C1038 0.956 . S
H1051 C1038 0.961 . S
H1052 C1038 0.961 . S
H1053 C1039 0.958 . S
H1054 C1039 0.961 . S
H1055 C1039 0.960 . S
C1056 C1057 1.391 . S
C1056 C1058 1.394 . S
C1056 H1072 0.931 . S
C1057 C1056 1.391 . S
C1057 C1061 1.376 . S
C1058 C1056 1.394 . S
C1058 C1059 1.369 . S
C1058 C1062 1.531 . S
C1059 C1058 1.369 . S
C1059 C1060 1.410 . S
C1059 C1067 1.503 . S
C1060 C1059 1.410 . S
C1060 C1061 1.392 . S
C1060 C1063 1.511 . S
C1061 C1057 1.376 . S
C1061 C1060 1.392 . S
C1061 H1073 0.929 . S
C1062 C1058 1.531 . S
C1062 H1074 0.960 . S
C1062 H1075 0.962 . S
C1062 H1076 0.960 . S
C1063 C1060 1.511 . S
C1063 H1077 0.961 . S
C1063 H1078 0.961 . S
C1063 H1079 0.961 . S
C1064 C1065 1.370 . S
C1064 C1066 1.363 . S
C1064 H1080 0.931 . S
C1065 C1064 1.370 . S
C1065 C1069 1.408 . S
C1066 C1064 1.363 . S
C1066 C1067 1.370 . S
C1066 C1070 1.524 . S
C1067 C1059 1.503 . S
C1067 C1066 1.370 . S
C1067 C1068 1.403 . S
C1068 C1067 1.403 . S
C1068 C1069 1.404 . S
C1068 C1071 1.539 . S
C1069 C1065 1.408 . S
C1069 C1068 1.404 . S
C1069 H1081 0.930 . S
C1070 C1066 1.524 . S
C1070 H1082 0.956 . S
C1070 H1083 0.961 . S
C1070 H1084 0.961 . S
C1071 C1068 1.539 . S
C1071 H1085 0.958 . S
C1071 H1086 0.961 . S
C1071 H1087 0.960 . S
H1072 C1056 0.931 . S
H1073 C1061 0.929 . S
H1074 C1062 0.960 . S
H1075 C1062 0.962 . S
H1076 C1062 0.960 . S
H1077 C1063 0.961 . S
H1078 C1063 0.961 . S
H1079 C1063 0.961 . S
H1080 C1064 0.931 . S
H1081 C1069 0.930 . S
H1082 C1070 0.956 . S
H1083 C1070 0.961 . S
H1084 C1070 0.961 . S
H1085 C1071 0.958 . S
H1086 C1071 0.961 . S
H1087 C1071 0.960 . S
C1088 C1089 1.391 . S
C1088 C1090 1.394 . S
C1088 H1104 0.931 . S
C1089 C1088 1.391 . S
C1089 C1093 1.376 . S
C1090 C1088 1.394 . S
C1090 C1091 1.369 . S
C1090 C1094 1.531 . S
C1091 C1090 1.369 . S
C1091 C1092 1.410 . S
C1091 C1099 1.503 . S
C1092 C1091 1.410 . S
C1092 C1093 1.392 . S
C1092 C1095 1.511 . S
C1093 C1089 1.376 . S
C1093 C1092 1.392 . S
C1093 H1105 0.929 . S
C1094 C1090 1.531 . S
C1094 H1106 0.960 . S
C1094 H1107 0.962 . S
C1094 H1108 0.960 . S
C1095 C1092 1.511 . S
C1095 H1109 0.961 . S
C1095 H1110 0.961 . S
C1095 H1111 0.961 . S
C1096 C1097 1.370 . S
C1096 C1098 1.363 . S
C1096 H1112 0.931 . S
C1097 C1096 1.370 . S
C1097 C1101 1.408 . S
C1098 C1096 1.363 . S
C1098 C1099 1.370 . S
C1098 C1102 1.524 . S
C1099 C1091 1.503 . S
C1099 C1098 1.370 . S
C1099 C1100 1.403 . S
C1100 C1099 1.403 . S
C1100 C1101 1.404 . S
C1100 C1103 1.539 . S
C1101 C1097 1.408 . S
C1101 C1100 1.404 . S
C1101 H1113 0.930 . S
C1102 C1098 1.524 . S
C1102 H1114 0.956 . S
C1102 H1115 0.961 . S
C1102 H1116 0.961 . S
C1103 C1100 1.539 . S
C1103 H1117 0.958 . S
C1103 H1118 0.961 . S
C1103 H1119 0.960 . S
H1104 C1088 0.931 . S
H1105 C1093 0.929 . S
H1106 C1094 0.960 . S
H1107 C1094 0.962 . S
H1108 C1094 0.960 . S
H1109 C1095 0.961 . S
H1110 C1095 0.961 . S
H1111 C1095 0.961 . S
H1112 C1096 0.931 . S
H1113 C1101 0.930 . S
H1114 C1102 0.956 . S
H1115 C1102 0.961 . S
H1116 C1102 0.961 . S
H1117 C1103 0.958 . S
H1118 C1103 0.961 . S
H1119 C1103 0.960 . S
C1120 C1121 1.391 . S
C1120 C1122 1.394 . S
C1120 H1136 0.931 . S
C1121 C1120 1.391 . S
C1121 C1125 1.376 . S
C1122 C1120 1.394 . S
C1122 C1123 1.369 . S
C1122 C1126 1.531 . S
C1123 C1122 1.369 . S
C1123 C1124 1.410 . S
C1123 C1131 1.503 . S
C1124 C1123 1.410 . S
C1124 C1125 1.392 . S
C1124 C1127 1.511 . S
C1125 C1121 1.376 . S
C1125 C1124 1.392 . S
C1125 H1137 0.929 . S
C1126 C1122 1.531 . S
C1126 H1138 0.960 . S
C1126 H1139 0.962 . S
C1126 H1140 0.960 . S
C1127 C1124 1.511 . S
C1127 H1141 0.961 . S
C1127 H1142 0.961 . S
C1127 H1143 0.961 . S
C1128 C1129 1.370 . S
C1128 C1130 1.363 . S
C1128 H1144 0.931 . S
C1129 C1128 1.370 . S
C1129 C1133 1.408 . S
C1130 C1128 1.363 . S
C1130 C1131 1.370 . S
C1130 C1134 1.524 . S
C1131 C1123 1.503 . S
C1131 C1130 1.370 . S
C1131 C1132 1.403 . S
C1132 C1131 1.403 . S
C1132 C1133 1.404 . S
C1132 C1135 1.539 . S
C1133 C1129 1.408 . S
C1133 C1132 1.404 . S
C1133 H1145 0.930 . S
C1134 C1130 1.524 . S
C1134 H1146 0.956 . S
C1134 H1147 0.961 . S
C1134 H1148 0.961 . S
C1135 C1132 1.539 . S
C1135 H1149 0.958 . S
C1135 H1150 0.961 . S
C1135 H1151 0.960 . S
H1136 C1120 0.931 . S
H1137 C1125 0.929 . S
H1138 C1126 0.960 . S
H1139 C1126 0.962 . S
H1140 C1126 0.960 . S
H1141 C1127 0.961 . S
H1142 C1127 0.961 . S
H1143 C1127 0.961 . S
H1144 C1128 0.931 . S
H1145 C1133 0.930 . S
H1146 C1134 0.956 . S
H1147 C1134 0.961 . S
H1148 C1134 0.961 . S
H1149 C1135 0.958 . S
H1150 C1135 0.961 . S
H1151 C1135 0.960 . S
C1152 C1153 1.391 . S
C1152 C1154 1.394 . S
C1152 H1168 0.931 . S
C1153 C1152 1.391 . S
C1153 C1157 1.376 . S
C1154 C1152 1.394 . S
C1154 C1155 1.369 . S
C1154 C1158 1.531 . S
C1155 C1154 1.369 . S
C1155 C1156 1.410 . S
C1155 C1163 1.503 . S
C1156 C1155 1.410 . S
C1156 C1157 1.392 . S
C1156 C1159 1.511 . S
C1157 C1153 1.376 . S
C1157 C1156 1.392 . S
C1157 H1169 0.929 . S
C1158 C1154 1.531 . S
C1158 H1170 0.960 . S
C1158 H1171 0.962 . S
C1158 H1172 0.960 . S
C1159 C1156 1.511 . S
C1159 H1173 0.961 . S
C1159 H1174 0.961 . S
C1159 H1175 0.961 . S
C1160 C1161 1.370 . S
C1160 C1162 1.363 . S
C1160 H1176 0.931 . S
C1161 C1160 1.370 . S
C1161 C1165 1.408 . S
C1162 C1160 1.363 . S
C1162 C1163 1.370 . S
C1162 C1166 1.524 . S
C1163 C1155 1.503 . S
C1163 C1162 1.370 . S
C1163 C1164 1.403 . S
C1164 C1163 1.403 . S
C1164 C1165 1.404 . S
C1164 C1167 1.539 . S
C1165 C1161 1.408 . S
C1165 C1164 1.404 . S
C1165 H1177 0.930 . S
C1166 C1162 1.524 . S
C1166 H1178 0.956 . S
C1166 H1179 0.961 . S
C1166 H1180 0.961 . S
C1167 C1164 1.539 . S
C1167 H1181 0.958 . S
C1167 H1182 0.961 . S
C1167 H1183 0.960 . S
H1168 C1152 0.931 . S
H1169 C1157 0.929 . S
H1170 C1158 0.960 . S
H1171 C1158 0.962 . S
H1172 C1158 0.960 . S
H1173 C1159 0.961 . S
H1174 C1159 0.961 . S
H1175 C1159 0.961 . S
H1176 C1160 0.931 . S
H1177 C1165 0.930 . S
H1178 C1166 0.956 . S
H1179 C1166 0.961 . S
H1180 C1166 0.961 . S
H1181 C1167 0.958 . S
H1182 C1167 0.961 . S
H1183 C1167 0.960 . S
C1184 C1185 1.391 . S
C1184 C1186 1.394 . S
C1184 H1200 0.931 . S
C1185 C1184 1.391 . S
C1185 C1189 1.376 1_665 S
C1186 C1184 1.394 . S
C1186 C1187 1.369 1_655 S
C1186 C1190 1.531 . S
C1187 C1186 1.369 1_455 S
C1187 C1188 1.410 1_565 S
C1187 C1195 1.503 1_556 S
C1188 C1187 1.410 1_545 S
C1188 C1189 1.392 . S
C1188 C1191 1.511 . S
C1189 C1185 1.376 1_445 S
C1189 C1188 1.392 . S
C1189 H1201 0.929 . S
C1190 C1186 1.531 . S
C1190 H1202 0.960 1_556 S
C1190 H1203 0.962 . S
C1190 H1204 0.960 . S
C1191 C1188 1.511 . S
C1191 H1205 0.961 . S
C1191 H1206 0.961 1_556 S
C1191 H1207 0.961 . S
C1192 C1193 1.370 1_655 S
C1192 C1194 1.363 . S
C1192 H1208 0.931 . S
C1193 C1192 1.370 1_455 S
C1193 C1197 1.408 1_545 S
C1194 C1192 1.363 . S
C1194 C1195 1.370 1_645 S
C1194 C1198 1.524 . S
C1195 C1187 1.503 1_554 S
C1195 C1194 1.370 1_465 S
C1195 C1196 1.403 . S
C1196 C1195 1.403 . S
C1196 C1197 1.404 . S
C1196 C1199 1.539 . S
C1197 C1193 1.408 1_565 S
C1197 C1196 1.404 . S
C1197 H1209 0.930 . S
C1198 C1194 1.524 . S
C1198 H1210 0.956 . S
C1198 H1211 0.961 1_554 S
C1198 H1212 0.961 . S
C1199 C1196 1.539 . S
C1199 H1213 0.958 . S
C1199 H1214 0.961 . S
C1199 H1215 0.953 1_554 S
H1200 C1184 0.931 . S
H1201 C1189 0.929 . S
H1202 C1190 0.960 1_554 S
H1203 C1190 0.962 . S
H1204 C1190 0.960 . S
H1205 C1191 0.961 . S
H1206 C1191 0.961 1_554 S
H1207 C1191 0.961 . S
H1208 C1192 0.931 . S
H1209 C1197 0.930 . S
H1210 C1198 0.956 . S
H1211 C1198 0.961 1_556 S
H1212 C1198 0.961 . S
H1213 C1199 0.958 . S
H1214 C1199 0.961 . S
H1215 C1199 0.953 1_556 S
C1216 C1217 1.391 . S
C1216 C1218 1.394 . S
C1216 H1232 0.931 . S
C1217 C1216 1.391 . S
C1217 C1221 1.376 . S
C1218 C1216 1.394 . S
C1218 C1219 1.369 . S
C1218 C1222 1.531 . S
C1219 C1218 1.369 . S
C1219 C1220 1.410 . S
C1219 C1227 1.503 . S
C1220 C1219 1.410 . S
C1220 C1221 1.392 . S
C1220 C1223 1.511 . S
C1221 C1217 1.376 . S
C1221 C1220 1.392 . S
C1221 H1233 0.929 . S
C1222 C1218 1.531 . S
C1222 H1234 0.960 . S
C1222 H1235 0.962 . S
C1222 H1236 0.960 . S
C1223 C1220 1.511 . S
C1223 H1237 0.961 . S
C1223 H1238 0.961 . S
C1223 H1239 0.961 . S
C1224 C1225 1.370 . S
C1224 C1226 1.363 . S
C1224 H1240 0.931 . S
C1225 C1224 1.370 . S
C1225 C1229 1.408 . S
C1226 C1224 1.363 . S
C1226 C1227 1.370 . S
C1226 C1230 1.524 . S
C1227 C1219 1.503 . S
C1227 C1226 1.370 . S
C1227 C1228 1.403 . S
C1228 C1227 1.403 . S
C1228 C1229 1.404 . S
C1228 C1231 1.539 . S
C1229 C1225 1.408 . S
C1229 C1228 1.404 . S
C1229 H1241 0.930 . S
C1230 C1226 1.524 . S
C1230 H1242 0.956 . S
C1230 H1243 0.961 . S
C1230 H1244 0.961 . S
C1231 C1228 1.539 . S
C1231 H1245 0.958 . S
C1231 H1246 0.961 . S
C1231 H1247 0.960 . S
H1232 C1216 0.931 . S
H1233 C1221 0.929 . S
H1234 C1222 0.960 . S
H1235 C1222 0.962 . S
H1236 C1222 0.960 . S
H1237 C1223 0.961 . S
H1238 C1223 0.961 . S
H1239 C1223 0.961 . S
H1240 C1224 0.931 . S
H1241 C1229 0.930 . S
H1242 C1230 0.956 . S
H1243 C1230 0.961 . S
H1244 C1230 0.961 . S
H1245 C1231 0.958 . S
H1246 C1231 0.961 . S
H1247 C1231 0.960 . S
C1248 C1249 1.391 1_545 S
C1248 C1250 1.394 . S
C1248 H1264 0.931 . S
C1249 C1248 1.391 1_565 S
C1249 C1253 1.376 . S
C1250 C1248 1.394 . S
C1250 C1251 1.369 . S
C1250 C1254 1.531 . S
C1251 C1250 1.369 . S
C1251 C1252 1.410 1_545 S
C1251 C1259 1.503 . S
C1252 C1251 1.410 1_565 S
C1252 C1253 1.392 . S
C1252 C1255 1.511 . S
C1253 C1249 1.376 . S
C1253 C1252 1.392 . S
C1253 H1265 0.929 . S
C1254 C1250 1.531 . S
C1254 H1266 0.960 . S
C1254 H1267 0.962 . S
C1254 H1268 0.960 . S
C1255 C1252 1.511 . S
C1255 H1269 0.961 . S
C1255 H1270 0.961 . S
C1255 H1271 0.961 . S
C1256 C1257 1.370 1_565 S
C1256 C1258 1.363 . S
C1256 H1272 0.931 . S
C1257 C1256 1.370 1_545 S
C1257 C1261 1.408 . S
C1258 C1256 1.363 . S
C1258 C1259 1.370 1_565 S
C1258 C1262 1.524 . S
C1259 C1251 1.503 . S
C1259 C1258 1.370 1_545 S
C1259 C1260 1.403 . S
C1260 C1259 1.403 . S
C1260 C1261 1.404 . S
C1260 C1263 1.539 . S
C1261 C1257 1.408 . S
C1261 C1260 1.404 . S
C1261 H1273 0.930 . S
C1262 C1258 1.524 . S
C1262 H1274 0.956 . S
C1262 H1275 0.961 . S
C1262 H1276 0.961 . S
C1263 C1260 1.539 . S
C1263 H1277 0.958 . S
C1263 H1278 0.961 . S
C1263 H1279 0.960 . S
H1264 C1248 0.931 . S
H1265 C1253 0.929 . S
H1266 C1254 0.960 . S
H1267 C1254 0.962 . S
H1268 C1254 0.960 . S
H1269 C1255 0.961 . S
H1270 C1255 0.961 . S
H1271 C1255 0.961 . S
H1272 C1256 0.931 . S
H1273 C1261 0.930 . S
H1274 C1262 0.956 . S
H1275 C1262 0.961 . S
H1276 C1262 0.961 . S
H1277 C1263 0.958 . S
H1278 C1263 0.961 . S
H1279 C1263 0.960 . S
C1280 C1281 1.391 . S
C1280 C1282 1.394 . S
C1280 H1296 0.931 . S
C1281 C1280 1.391 . S
C1281 C1285 1.376 . S
C1282 C1280 1.394 . S
C1282 C1283 1.369 . S
C1282 C1286 1.531 . S
C1283 C1282 1.369 . S
C1283 C1284 1.410 . S
C1283 C1291 1.503 . S
C1284 C1283 1.410 . S
C1284 C1285 1.392 . S
C1284 C1287 1.511 . S
C1285 C1281 1.376 . S
C1285 C1284 1.392 . S
C1285 H1297 0.929 . S
C1286 C1282 1.531 . S
C1286 H1298 0.960 . S
C1286 H1299 0.962 . S
C1286 H1300 0.960 . S
C1287 C1284 1.511 . S
C1287 H1301 0.961 . S
C1287 H1302 0.961 . S
C1287 H1303 0.961 . S
C1288 C1289 1.370 . S
C1288 C1290 1.363 . S
C1288 H1304 0.931 . S
C1289 C1288 1.370 . S
C1289 C1293 1.408 . S
C1290 C1288 1.363 . S
C1290 C1291 1.370 . S
C1290 C1294 1.524 . S
C1291 C1283 1.503 . S
C1291 C1290 1.370 . S
C1291 C1292 1.403 . S
C1292 C1291 1.403 . S
C1292 C1293 1.404 . S
C1292 C1295 1.539 . S
C1293 C1289 1.408 . S
C1293 C1292 1.404 . S
C1293 H1305 0.930 . S
C1294 C1290 1.524 . S
C1294 H1306 0.956 . S
C1294 H1307 0.961 . S
C1294 H1308 0.961 . S
C1295 C1292 1.539 . S
C1295 H1309 0.958 . S
C1295 H1310 0.961 . S
C1295 H1311 0.960 . S
H1296 C1280 0.931 . S
H1297 C1285 0.929 . S
H1298 C1286 0.960 . S
H1299 C1286 0.962 . S
H1300 C1286 0.960 . S
H1301 C1287 0.961 . S
H1302 C1287 0.961 . S
H1303 C1287 0.961 . S
H1304 C1288 0.931 . S
H1305 C1293 0.930 . S
H1306 C1294 0.956 . S
H1307 C1294 0.961 . S
H1308 C1294 0.961 . S
H1309 C1295 0.958 . S
H1310 C1295 0.961 . S
H1311 C1295 0.960 . S
C1312 C1313 1.391 . S
C1312 C1314 1.394 . S
C1312 H1328 0.931 . S
C1313 C1312 1.391 . S
C1313 C1317 1.376 . S
C1314 C1312 1.394 . S
C1314 C1315 1.369 . S
C1314 C1318 1.531 . S
C1315 C1314 1.369 . S
C1315 C1316 1.410 . S
C1315 C1323 1.503 . S
C1316 C1315 1.410 . S
C1316 C1317 1.392 . S
C1316 C1319 1.511 . S
C1317 C1313 1.376 . S
C1317 C1316 1.392 . S
C1317 H1329 0.929 . S
C1318 C1314 1.531 . S
C1318 H1330 0.960 . S
C1318 H1331 0.962 . S
C1318 H1332 0.960 . S
C1319 C1316 1.511 . S
C1319 H1333 0.961 . S
C1319 H1334 0.961 . S
C1319 H1335 0.961 . S
C1320 C1321 1.370 . S
C1320 C1322 1.363 . S
C1320 H1336 0.931 . S
C1321 C1320 1.370 . S
C1321 C1325 1.408 . S
C1322 C1320 1.363 . S
C1322 C1323 1.370 . S
C1322 C1326 1.524 . S
C1323 C1315 1.503 . S
C1323 C1322 1.370 . S
C1323 C1324 1.403 . S
C1324 C1323 1.403 . S
C1324 C1325 1.404 . S
C1324 C1327 1.539 . S
C1325 C1321 1.408 . S
C1325 C1324 1.404 . S
C1325 H1337 0.930 . S
C1326 C1322 1.524 . S
C1326 H1338 0.956 . S
C1326 H1339 0.961 . S
C1326 H1340 0.961 . S
C1327 C1324 1.539 . S
C1327 H1341 0.958 . S
C1327 H1342 0.961 . S
C1327 H1343 0.960 . S
H1328 C1312 0.931 . S
H1329 C1317 0.929 . S
H1330 C1318 0.960 . S
H1331 C1318 0.962 . S
H1332 C1318 0.960 . S
H1333 C1319 0.961 . S
H1334 C1319 0.961 . S
H1335 C1319 0.961 . S
H1336 C1320 0.931 . S
H1337 C1325 0.930 . S
H1338 C1326 0.956 . S
H1339 C1326 0.961 . S
H1340 C1326 0.961 . S
H1341 C1327 0.958 . S
H1342 C1327 0.961 . S
H1343 C1327 0.960 . S
C1344 C1345 1.391 . S
C1344 C1346 1.394 . S
C1344 H1360 0.931 . S
C1345 C1344 1.391 . S
C1345 C1349 1.376 . S
C1346 C1344 1.394 . S
C1346 C1347 1.369 . S
C1346 C1350 1.531 . S
C1347 C1346 1.369 . S
C1347 C1348 1.410 . S
C1347 C1355 1.503 . S
C1348 C1347 1.410 . S
C1348 C1349 1.392 . S
C1348 C1351 1.511 . S
C1349 C1345 1.376 . S
C1349 C1348 1.392 . S
C1349 H1361 0.929 . S
C1350 C1346 1.531 . S
C1350 H1362 0.960 . S
C1350 H1363 0.962 . S
C1350 H1364 0.960 . S
C1351 C1348 1.511 . S
C1351 H1365 0.961 . S
C1351 H1366 0.961 . S
C1351 H1367 0.961 . S
C1352 C1353 1.370 . S
C1352 C1354 1.363 . S
C1352 H1368 0.931 . S
C1353 C1352 1.370 . S
C1353 C1357 1.408 . S
C1354 C1352 1.363 . S
C1354 C1355 1.370 . S
C1354 C1358 1.524 . S
C1355 C1347 1.503 . S
C1355 C1354 1.370 . S
C1355 C1356 1.403 . S
C1356 C1355 1.403 . S
C1356 C1357 1.404 . S
C1356 C1359 1.539 . S
C1357 C1353 1.408 . S
C1357 C1356 1.404 . S
C1357 H1369 0.930 . S
C1358 C1354 1.524 . S
C1358 H1370 0.956 . S
C1358 H1371 0.961 . S
C1358 H1372 0.961 . S
C1359 C1356 1.539 . S
C1359 H1373 0.958 . S
C1359 H1374 0.961 . S
C1359 H1375 0.960 . S
H1360 C1344 0.931 . S
H1361 C1349 0.929 . S
H1362 C1350 0.960 . S
H1363 C1350 0.962 . S
H1364 C1350 0.960 . S
H1365 C1351 0.961 . S
H1366 C1351 0.961 . S
H1367 C1351 0.961 . S
H1368 C1352 0.931 . S
H1369 C1357 0.930 . S
H1370 C1358 0.956 . S
H1371 C1358 0.961 . S
H1372 C1358 0.961 . S
H1373 C1359 0.958 . S
H1374 C1359 0.961 . S
H1375 C1359 0.960 . S
C1376 C1377 1.391 . S
C1376 C1378 1.394 . S
C1376 H1392 0.931 . S
C1377 C1376 1.391 . S
C1377 C1381 1.376 . S
C1378 C1376 1.394 . S
C1378 C1379 1.369 . S
C1378 C1382 1.531 . S
C1379 C1378 1.369 . S
C1379 C1380 1.410 . S
C1379 C1387 1.503 . S
C1380 C1379 1.410 . S
C1380 C1381 1.392 . S
C1380 C1383 1.511 . S
C1381 C1377 1.376 . S
C1381 C1380 1.392 . S
C1381 H1393 0.929 . S
C1382 C1378 1.531 . S
C1382 H1394 0.960 . S
C1382 H1395 0.962 . S
C1382 H1396 0.960 . S
C1383 C1380 1.511 . S
C1383 H1397 0.961 . S
C1383 H1398 0.961 . S
C1383 H1399 0.961 . S
C1384 C1385 1.370 . S
C1384 C1386 1.363 . S
C1384 H1400 0.931 . S
C1385 C1384 1.370 . S
C1385 C1389 1.408 . S
C1386 C1384 1.363 . S
C1386 C1387 1.370 . S
C1386 C1390 1.524 . S
C1387 C1379 1.503 . S
C1387 C1386 1.370 . S
C1387 C1388 1.403 . S
C1388 C1387 1.403 . S
C1388 C1389 1.404 . S
C1388 C1391 1.539 . S
C1389 C1385 1.408 . S
C1389 C1388 1.404 . S
C1389 H1401 0.930 . S
C1390 C1386 1.524 . S
C1390 H1402 0.956 . S
C1390 H1403 0.961 . S
C1390 H1404 0.961 . S
C1391 C1388 1.539 . S
C1391 H1405 0.958 . S
C1391 H1406 0.961 . S
C1391 H1407 0.960 . S
H1392 C1376 0.931 . S
H1393 C1381 0.929 . S
H1394 C1382 0.960 . S
H1395 C1382 0.962 . S
H1396 C1382 0.960 . S
H1397 C1383 0.961 . S
H1398 C1383 0.961 . S
H1399 C1383 0.961 . S
H1400 C1384 0.931 . S
H1401 C1389 0.930 . S
H1402 C1390 0.956 . S
H1403 C1390 0.961 . S
H1404 C1390 0.961 . S
H1405 C1391 0.958 . S
H1406 C1391 0.961 . S
H1407 C1391 0.960 . S
C1408 C1409 1.391 . S
C1408 C1410 1.394 . S
C1408 H1424 0.931 . S
C1409 C1408 1.391 . S
C1409 C1413 1.376 1_655 S
C1410 C1408 1.394 . S
C1410 C1411 1.369 1_655 S
C1410 C1414 1.531 . S
C1411 C1410 1.369 1_455 S
C1411 C1412 1.410 . S
C1411 C1419 1.503 1_556 S
C1412 C1411 1.410 . S
C1412 C1413 1.392 . S
C1412 C1415 1.511 . S
C1413 C1409 1.376 1_455 S
C1413 C1412 1.392 . S
C1413 H1425 0.929 . S
C1414 C1410 1.531 . S
C1414 H1426 0.960 1_556 S
C1414 H1427 0.962 . S
C1414 H1428 0.960 . S
C1415 C1412 1.511 . S
C1415 H1429 0.961 . S
C1415 H1430 0.961 1_556 S
C1415 H1431 0.961 . S
C1416 C1417 1.370 1_655 S
C1416 C1418 1.363 . S
C1416 H1432 0.931 . S
C1417 C1416 1.370 1_455 S
C1417 C1421 1.408 . S
C1418 C1416 1.363 . S
C1418 C1419 1.370 1_655 S
C1418 C1422 1.524 . S
C1419 C1411 1.503 1_554 S
C1419 C1418 1.370 1_455 S
C1419 C1420 1.403 . S
C1420 C1419 1.403 . S
C1420 C1421 1.404 . S
C1420 C1423 1.539 . S
C1421 C1417 1.408 . S
C1421 C1420 1.404 . S
C1421 H1433 0.930 . S
C1422 C1418 1.524 . S
C1422 H1434 0.956 . S
C1422 H1435 0.961 . S
C1422 H1436 0.961 . S
C1423 C1420 1.539 . S
C1423 H1437 0.958 . S
C1423 H1438 0.961 . S
C1423 H1439 0.960 1_554 S
H1424 C1408 0.931 . S
H1425 C1413 0.929 . S
H1426 C1414 0.960 1_554 S
H1427 C1414 0.962 . S
H1428 C1414 0.960 . S
H1429 C1415 0.961 . S
H1430 C1415 0.961 1_554 S
H1431 C1415 0.961 . S
H1432 C1416 0.931 . S
H1433 C1421 0.930 . S
H1434 C1422 0.956 . S
H1435 C1422 0.961 . S
H1436 C1422 0.961 . S
H1437 C1423 0.958 . S
H1438 C1423 0.961 . S
H1439 C1423 0.960 1_556 S
C673 C67 1.583 . S
C681 C319 1.576 . S
C705 C75 1.462 . S
C713 C151 1.451 . S
C737 C159 1.293 . S
C745 C243 1.319 . S
C769 C235 1.467 . S
C777 C327 1.476 . S
C801 C56 1.604 . S
C809 C476 1.608 . S
C833 C66 1.478 . S
C841 C392 1.454 . S
C865 C402 1.309 . S
C873 C234 1.330 . S
C897 C486 1.439 . S
C905 C224 1.438 . S
C929 C571 1.572 . S
C937 C487 1.605 . S
C961 C403 1.427 . S
C969 C579 1.466 . S
C993 C663 1.301 . S
C1001 C411 1.315 . S
C1025 C495 1.448 . S
C1033 C655 1.446 . S
C1057 C308 1.605 . S
C1065 C560 1.602 . S
C1089 C570 1.456 . S
C1097 C140 1.442 . S
C1121 C150 1.308 . S
C1129 C654 1.310 . S
C1153 C318 1.491 . S
C1161 C644 1.459 . S
C1185 C63 1.466 1_565 S
C1193 C72 1.399 1_545 S
C1217 C156 1.376 . S
C1225 C147 1.430 . S
C1249 C231 1.371 1_565 S
C1257 C240 1.426 1_545 S
C1281 C315 1.429 . S
C1289 C324 1.411 . S
C1313 C408 1.360 . S
C1321 C399 1.435 . S
C1345 C483 1.384 . S
C1353 C492 1.435 . S
C1377 C576 1.450 . S
C1385 C567 1.408 . S
C1409 C660 1.382 . S
C1417 C651 1.422 . S
