# Generated by pormake.
# Topology smm, (6)-cn, num edge types: 1
# Building blocks:
#     Node 0, Type 0, BuildingBlock: FUNLAD_clean_sbu_0, # of connection points: 6
#     Node 1, Type 0, BuildingBlock: FUNLAD_clean_sbu_0, # of connection points: 6
#     Node 2, Type 0, BuildingBlock: FUNLAD_clean_sbu_0, # of connection points: 6
#     Node 3, Type 0, BuildingBlock: FUNLAD_clean_sbu_0, # of connection points: 6
#     Node 4, Type 0, BuildingBlock: FUNLAD_clean_sbu_0, # of connection points: 6
#     Node 5, Type 0, BuildingBlock: FUNLAD_clean_sbu_0, # of connection points: 6
#     Node 6, Type 0, BuildingBlock: FUNLAD_clean_sbu_0, # of connection points: 6
#     Node 7, Type 0, BuildingBlock: FUNLAD_clean_sbu_0, # of connection points: 6
#     Node 8, Type 0, BuildingBlock: FUNLAD_clean_sbu_0, # of connection points: 6
#     Edge 9, Type (0, 0), BuildingBlock: AJUNOK_clean_linker_0, # of connection points: 2
#     Edge 10, Type (0, 0), BuildingBlock: AJUNOK_clean_linker_0, # of connection points: 2
#     Edge 11, Type (0, 0), BuildingBlock: AJUNOK_clean_linker_0, # of connection points: 2
#     Edge 12, Type (0, 0), BuildingBlock: AJUNOK_clean_linker_0, # of connection points: 2
#     Edge 13, Type (0, 0), BuildingBlock: AJUNOK_clean_linker_0, # of connection points: 2
#     Edge 14, Type (0, 0), BuildingBlock: AJUNOK_clean_linker_0, # of connection points: 2
#     Edge 15, Type (0, 0), BuildingBlock: AJUNOK_clean_linker_0, # of connection points: 2
#     Edge 16, Type (0, 0), BuildingBlock: AJUNOK_clean_linker_0, # of connection points: 2
#     Edge 17, Type (0, 0), BuildingBlock: AJUNOK_clean_linker_0, # of connection points: 2
#     Edge 18, Type (0, 0), BuildingBlock: AJUNOK_clean_linker_0, # of connection points: 2
#     Edge 19, Type (0, 0), BuildingBlock: AJUNOK_clean_linker_0, # of connection points: 2
#     Edge 20, Type (0, 0), BuildingBlock: AJUNOK_clean_linker_0, # of connection points: 2
#     Edge 21, Type (0, 0), BuildingBlock: AJUNOK_clean_linker_0, # of connection points: 2
#     Edge 22, Type (0, 0), BuildingBlock: AJUNOK_clean_linker_0, # of connection points: 2
#     Edge 23, Type (0, 0), BuildingBlock: AJUNOK_clean_linker_0, # of connection points: 2
#     Edge 24, Type (0, 0), BuildingBlock: AJUNOK_clean_linker_0, # of connection points: 2
#     Edge 25, Type (0, 0), BuildingBlock: AJUNOK_clean_linker_0, # of connection points: 2
#     Edge 26, Type (0, 0), BuildingBlock: AJUNOK_clean_linker_0, # of connection points: 2
#     Edge 27, Type (0, 0), BuildingBlock: AJUNOK_clean_linker_0, # of connection points: 2
#     Edge 28, Type (0, 0), BuildingBlock: AJUNOK_clean_linker_0, # of connection points: 2
#     Edge 29, Type (0, 0), BuildingBlock: AJUNOK_clean_linker_0, # of connection points: 2
#     Edge 30, Type (0, 0), BuildingBlock: AJUNOK_clean_linker_0, # of connection points: 2
#     Edge 31, Type (0, 0), BuildingBlock: AJUNOK_clean_linker_0, # of connection points: 2
#     Edge 32, Type (0, 0), BuildingBlock: AJUNOK_clean_linker_0, # of connection points: 2
#     Edge 33, Type (0, 0), BuildingBlock: AJUNOK_clean_linker_0, # of connection points: 2
#     Edge 34, Type (0, 0), BuildingBlock: AJUNOK_clean_linker_0, # of connection points: 2
#     Edge 35, Type (0, 0), BuildingBlock: AJUNOK_clean_linker_0, # of connection points: 2
# Relax obj value: 0.487
# Max RMSD: 0.301
# Mean RMSD: 0.299
data_MOF--net-smm--node1-FUNLAD_clean_sbu_0--edge1-AJUNOK_clean_linker_0
_symmetry_space_group_name_H-M    P1
_symmetry_Int_Tables_number       1
_symmetry_cell_setting            triclinic
loop_
_symmetry_equiv_pos_as_xyz
'x, y, z'
_cell_length_a     35.049544
_cell_length_b     34.985538
_cell_length_c     17.016787
_cell_angle_alpha  90.553646
_cell_angle_beta   90.456395
_cell_angle_gamma 119.97051
loop_
_atom_site_label
_atom_site_type_symbol
_atom_site_fract_x
_atom_site_fract_y
_atom_site_fract_z
_atom_type_partial_charge
C0 C 0.93193 0.09783 0.00902 0.0
N1 N 0.02106 0.2044 0.16061 0.0
C2 C 0.98101 0.18043 0.19509 0.0
C3 C 0.97622 0.18256 0.27514 0.0
C4 C 0.013 0.20875 0.32212 0.0
C5 C 0.05458 0.23254 0.2871 0.0
C6 C 0.05783 0.23038 0.2049 0.0
Zn7 Zn 0.01397 0.19757 0.04 0.0
C8 C 0.05104 0.15477 0.97452 0.0
N9 N 0.96318 0.16839 0.81519 0.0
C10 C 0.9276 0.16 0.7697 0.0
C11 C 0.00278 0.18045 0.78183 0.0
C12 C 0.00856 0.18616 0.70192 0.0
C13 C 0.97315 0.17828 0.65306 0.0
C14 C 0.93178 0.16434 0.68748 0.0
Zn15 Zn 0.97051 0.17381 0.93587 0.0
O16 O 0.96458 0.12333 0.05443 0.0
C17 C 0.93539 0.21443 0.02999 0.0
O18 O 0.92261 0.1136 0.95076 0.0
H19 H 0.03156 0.18904 0.81743 0.0
H20 H 0.95166 0.16025 0.16041 0.0
H21 H 0.89653 0.15111 0.79695 0.0
O22 O 0.96854 0.21499 0.05856 0.0
O23 O 0.92283 0.19811 0.96061 0.0
H24 H 0.08931 0.24942 0.17682 0.0
O25 O 0.0177 0.23539 0.91116 0.0
O26 O 0.06307 0.26818 0.00808 0.0
O27 O 0.01788 0.14579 0.92945 0.0
O28 O 0.06106 0.1823 0.03006 0.0
C29 C 0.05108 0.26909 0.93704 0.0
H30 H 0.94386 0.16315 0.30039 0.0
H31 H 0.08382 0.25263 0.32266 0.0
H32 H 0.04133 0.19825 0.67909 0.0
H33 H 0.90326 0.15727 0.65173 0.0
C34 C 0.84022 0.90697 0.99454 0.0
N35 N 0.83205 0.80809 0.83391 0.0
C36 C 0.82536 0.83731 0.79203 0.0
C37 C 0.82151 0.83432 0.71098 0.0
C38 C 0.82407 0.8007 0.67117 0.0
C39 C 0.83286 0.77174 0.71407 0.0
C40 C 0.8365 0.7759 0.79656 0.0
Zn41 Zn 0.82281 0.81172 0.95276 0.0
C42 C 0.90024 0.84837 0.03892 0.0
N43 N 0.79261 0.83044 0.18193 0.0
C44 C 0.82636 0.8623 0.22576 0.0
C45 C 0.75874 0.79472 0.21626 0.0
C46 C 0.76026 0.78778 0.29663 0.0
C47 C 0.79701 0.8179 0.34158 0.0
C48 C 0.82919 0.85665 0.30625 0.0
Zn49 Zn 0.80288 0.82617 0.06492 0.0
O50 O 0.84975 0.88455 0.94685 0.0
C51 C 0.72968 0.79484 0.95272 0.0
O52 O 0.81349 0.88739 0.04881 0.0
H53 H 0.73281 0.76932 0.18012 0.0
H54 H 0.81951 0.86133 0.82107 0.0
H55 H 0.85301 0.89035 0.19739 0.0
O56 O 0.76278 0.79959 0.91706 0.0
O57 O 0.73184 0.79878 0.02792 0.0
H58 H 0.84073 0.75229 0.8306 0.0
O59 O 0.79284 0.76552 0.09122 0.0
O60 O 0.79714 0.73988 0.97625 0.0
O61 O 0.87559 0.85497 0.08595 0.0
O62 O 0.88362 0.8243 0.97856 0.0
C63 C 0.79068 0.73449 0.05048 0.0
H64 H 0.81481 0.85724 0.6797 0.0
H65 H 0.83491 0.74526 0.68462 0.0
H66 H 0.73461 0.75768 0.32207 0.0
H67 H 0.85734 0.88129 0.33974 0.0
C68 C 0.14694 0.06412 0.03964 0.0
N69 N 0.16259 0.98248 0.20376 0.0
C70 C 0.16355 0.01733 0.24207 0.0
C71 C 0.16863 0.0219 0.32249 0.0
C72 C 0.17343 0.99077 0.36504 0.0
C73 C 0.17199 0.95457 0.32577 0.0
C74 C 0.16642 0.95101 0.24379 0.0
Zn75 Zn 0.16916 0.99091 0.08588 0.0
C76 C 0.08996 0.94297 0.01094 0.0
N77 N 0.19124 0.02908 0.85828 0.0
C78 C 0.2236 0.06474 0.82111 0.0
C79 C 0.1615 0.99242 0.81726 0.0
C80 C 0.16291 0.99049 0.73664 0.0
C81 C 0.19537 0.0264 0.69671 0.0
C82 C 0.22633 0.06409 0.7389 0.0
Zn83 Zn 0.18564 0.01971 0.97588 0.0
O84 O 0.13488 0.03137 0.08555 0.0
C85 C 0.26047 0.06802 0.07964 0.0
O86 O 0.17719 0.07246 0.99158 0.0
H87 H 0.13757 0.96326 0.84678 0.0
H88 H 0.16397 0.04402 0.21069 0.0
H89 H 0.24758 0.09304 0.85503 0.0
O90 O 0.22663 0.04466 0.11822 0.0
O91 O 0.25814 0.06265 1.00465 0.0
H92 H 0.1671 0.92441 0.21213 0.0
O93 O 0.19407 0.96831 0.94947 0.0
O94 O 0.20259 0.95038 0.06746 0.0
O95 O 0.11151 0.97547 0.96486 0.0
O96 O 0.1107 0.93653 0.06513 0.0
C97 C 0.2032 0.94531 0.99273 0.0
H98 H 0.17056 0.05068 0.35103 0.0
H99 H 0.17568 0.92998 0.35778 0.0
H100 H 0.13903 0.96071 0.70558 0.0
H101 H 0.25187 0.09233 0.70884 0.0
C102 C 0.73026 0.4877 0.32945 0.0
N103 N 0.64386 0.49121 0.15636 0.0
C104 C 0.68328 0.50232 0.12334 0.0
C105 C 0.68862 0.50647 0.04315 0.0
C106 C 0.65321 0.49924 0.99506 0.0
C107 C 0.61244 0.48744 0.02927 0.0
C108 C 0.60841 0.48348 0.1112 0.0
Zn109 Zn 0.64926 0.49929 0.27522 0.0
C110 C 0.61031 0.42385 0.35462 0.0
N111 N 0.69144 0.53354 0.50548 0.0
C112 C 0.72936 0.56016 0.54638 0.0
C113 C 0.65267 0.50858 0.54305 0.0
C114 C 0.65046 0.51006 0.62378 0.0
C115 C 0.68872 0.5364 0.66732 0.0
C116 C 0.72882 0.5617 0.62878 0.0
Zn117 Zn 0.68419 0.52486 0.38685 0.0
O118 O 0.69877 0.47595 0.2794 0.0
C119 C 0.72216 0.5969 0.28204 0.0
O120 O 0.73615 0.5155 0.3824 0.0
H121 H 0.62289 0.48697 0.51054 0.0
H122 H 0.71213 0.51151 0.15913 0.0
H123 H 0.75984 0.57943 0.51539 0.0
O124 O 0.69444 0.56176 0.2485 0.0
O125 O 0.72784 0.5964 0.35642 0.0
H126 H 0.57781 0.47613 0.13868 0.0
O127 O 0.6329 0.53502 0.40077 0.0
O128 O 0.59825 0.51913 0.28776 0.0
O129 O 0.63993 0.45085 0.40339 0.0
O130 O 0.60356 0.43768 0.29113 0.0
C131 C 0.60118 0.53091 0.36004 0.0
H132 H 0.72101 0.51745 0.01933 0.0
H133 H 0.58456 0.48228 0.99336 0.0
H134 H 0.61929 0.48949 0.65227 0.0
H135 H 0.75907 0.58175 0.66186 0.0
C136 C 0.50763 0.23391 0.34568 0.0
N137 N 0.4915 0.12647 0.19725 0.0
C138 C 0.47575 0.15066 0.16134 0.0
C139 C 0.46937 0.14878 0.08093 0.0
C140 C 0.48015 0.12261 0.035 0.0
C141 C 0.49756 0.09854 0.07144 0.0
C142 C 0.50247 0.10049 0.15396 0.0
Zn143 Zn 0.49058 0.13349 0.31806 0.0
C144 C 0.57107 0.17768 0.38475 0.0
N145 N 0.46951 0.16411 0.54133 0.0
C146 C 0.44067 0.17011 0.58574 0.0
C147 C 0.49842 0.15388 0.57598 0.0
C148 C 0.49864 0.14805 0.65598 0.0
C149 C 0.46946 0.15346 0.70365 0.0
C150 C 0.44033 0.16525 0.66801 0.0
Zn151 Zn 0.4717 0.15865 0.42031 0.0
O152 O 0.51492 0.20796 0.30214 0.0
C153 C 0.39535 0.11742 0.32296 0.0
O154 O 0.48304 0.21836 0.40405 0.0
H155 H 0.51952 0.14646 0.54137 0.0
H156 H 0.46621 0.17067 0.19507 0.0
H157 H 0.41725 0.17731 0.55756 0.0
O158 O 0.42742 0.11554 0.29606 0.0
O159 O 0.39965 0.13391 0.39233 0.0
H160 H 0.51466 0.08126 0.18304 0.0
O161 O 0.45852 0.0977 0.44678 0.0
O162 O 0.47005 0.06307 0.35263 0.0
O163 O 0.54736 0.18754 0.42844 0.0
O164 O 0.55294 0.14927 0.33058 0.0
C165 C 0.45852 0.06371 0.42379 0.0
H166 H 0.45652 0.16824 0.0546 0.0
H167 H 0.5068 0.0784 0.03676 0.0
H168 H 0.52066 0.13759 0.6798 0.0
H169 H 0.41744 0.17023 0.70288 0.0
C170 C 0.7581 0.27232 0.33072 0.0
N171 N 0.85845 0.3632 0.17543 0.0
C172 C 0.82036 0.35232 0.13613 0.0
C173 C 0.81641 0.34257 0.05595 0.0
C174 C 0.85258 0.34588 0.01488 0.0
C175 C 0.89313 0.3629 0.05518 0.0
C176 C 0.89512 0.37047 0.13618 0.0
Zn177 Zn 0.85446 0.3484 0.29169 0.0
C178 C 0.82407 0.39371 0.37756 0.0
N179 N 0.83706 0.30171 0.51966 0.0
C180 C 0.82539 0.26335 0.55769 0.0
C181 C 0.85 0.33996 0.56082 0.0
C182 C 0.85097 0.34098 0.64175 0.0
C183 C 0.83798 0.30225 0.6828 0.0
C184 C 0.82564 0.26287 0.64052 0.0
Zn185 Zn 0.84035 0.31346 0.40093 0.0
O186 O 0.7798 0.30486 0.28472 0.0
C187 C 0.8664 0.26887 0.28765 0.0
O188 O 0.77846 0.26462 0.3838 0.0
H189 H 0.86046 0.37066 0.53123 0.0
H190 H 0.79174 0.34752 0.16764 0.0
H191 H 0.81572 0.23337 0.5242 0.0
O192 O 0.86121 0.29745 0.25318 0.0
O193 O 0.86487 0.26779 0.36313 0.0
H194 H 0.92501 0.37853 0.16822 0.0
O195 O 0.90255 0.36098 0.42769 0.0
O196 O 0.92724 0.3916 0.31494 0.0
O197 O 0.81378 0.36026 0.42099 0.0
O198 O 0.84808 0.39978 0.31927 0.0
C199 C 0.93356 0.38928 0.38848 0.0
H200 H 0.78449 0.33009 0.02778 0.0
H201 H 0.92262 0.36847 0.02551 0.0
H202 H 0.86159 0.37213 0.67224 0.0
H203 H 0.81559 0.23231 0.67091 0.0
C204 C 0.27177 0.76632 0.71785 0.0
N205 N 0.36259 0.86147 0.88508 0.0
C206 C 0.32321 0.83418 0.91905 0.0
C207 C 0.31804 0.83488 0.99911 0.0
C208 C 0.35344 0.86417 0.04652 0.0
C209 C 0.39418 0.89233 0.01156 0.0
C210 C 0.39806 0.89044 0.92955 0.0
Zn211 Zn 0.35587 0.86029 0.76521 0.0
C212 C 0.39079 0.81812 0.68872 0.0
N213 N 0.30988 0.84668 0.53685 0.0
C214 C 0.27417 0.84239 0.4965 0.0
C215 C 0.34734 0.85521 0.49876 0.0
C216 C 0.35045 0.86014 0.41842 0.0
C217 C 0.31468 0.85605 0.37556 0.0
C218 C 0.27578 0.84669 0.41434 0.0
Zn219 Zn 0.31835 0.84769 0.65606 0.0
O220 O 0.30419 0.78706 0.76624 0.0
C221 C 0.28415 0.88647 0.76128 0.0
O222 O 0.26567 0.78784 0.66529 0.0
H223 H 0.37607 0.85999 0.53068 0.0
H224 H 0.29417 0.81375 0.88412 0.0
H225 H 0.24494 0.8362 0.5278 0.0
O226 O 0.31278 0.87991 0.79204 0.0
O227 O 0.27597 0.87765 0.68768 0.0
H228 H 0.42863 0.91301 0.90148 0.0
O229 O 0.37045 0.90781 0.63593 0.0
O230 O 0.40815 0.93048 0.74554 0.0
O231 O 0.36064 0.8149 0.64111 0.0
O232 O 0.39992 0.84204 0.74956 0.0
C233 C 0.40361 0.93654 0.67265 0.0
H234 H 0.28581 0.81361 0.02349 0.0
H235 H 0.42226 0.91555 0.04687 0.0
H236 H 0.38072 0.86704 0.38975 0.0
H237 H 0.24741 0.84292 0.38175 0.0
C238 C 0.18323 0.57747 0.65978 0.0
N239 N 0.17113 0.48089 0.49435 0.0
C240 C 0.16665 0.51271 0.45699 0.0
C241 C 0.16405 0.51296 0.37635 0.0
C242 C 0.16555 0.47996 0.33265 0.0
C243 C 0.16979 0.44691 0.371 0.0
C244 C 0.17273 0.44811 0.45332 0.0
Zn245 Zn 0.16439 0.48283 0.61205 0.0
C246 C 0.24443 0.51683 0.68598 0.0
N247 N 0.14488 0.4995 0.84139 0.0
C248 C 0.11322 0.50309 0.8812 0.0
C249 C 0.17546 0.49315 0.87974 0.0
C250 C 0.17551 0.49043 0.96024 0.0
C251 C 0.14389 0.49432 1.00279 0.0
C252 C 0.11209 0.50051 0.96345 0.0
Zn253 Zn 0.14927 0.49581 0.72352 0.0
O254 O 0.19541 0.55713 0.61229 0.0
C255 C 0.07209 0.46335 0.62235 0.0
O256 O 0.15507 0.55588 0.71099 0.0
H257 H 0.19911 0.4881 0.84811 0.0
H258 H 0.16215 0.53672 0.48919 0.0
H259 H 0.0887 0.50716 0.84933 0.0
O260 O 0.10586 0.47594 0.58224 0.0
O261 O 0.07589 0.46266 0.69737 0.0
H262 H 0.17482 0.42235 0.48427 0.0
O263 O 0.14388 0.43684 0.74692 0.0
O264 O 0.13412 0.40953 0.62864 0.0
O265 O 0.22348 0.5287 0.73224 0.0
O266 O 0.22374 0.48945 0.63147 0.0
C267 C 0.13517 0.40461 0.70308 0.0
H268 H 0.15958 0.53818 0.34827 0.0
H269 H 0.17053 0.42069 0.33794 0.0
H270 H 0.19998 0.48492 0.98923 0.0
H271 H 0.08715 0.50346 0.99572 0.0
C272 C 0.48743 0.72411 0.67241 0.0
N273 N 0.50723 0.63713 0.82071 0.0
C274 C 0.52201 0.67702 0.85746 0.0
C275 C 0.528 0.6817 0.93788 0.0
C276 C 0.51809 0.645 0.98273 0.0
C277 C 0.50164 0.60354 0.94534 0.0
C278 C 0.49692 0.60039 0.8629 0.0
Zn279 Zn 0.50846 0.64438 0.7008 0.0
C280 C 0.4299 0.60569 0.63121 0.0
N281 N 0.53014 0.69477 0.47848 0.0
C282 C 0.55545 0.73091 0.43446 0.0
C283 C 0.50405 0.6546 0.44337 0.0
C284 C 0.50356 0.64888 0.3631 0.0
C285 C 0.52914 0.68488 0.31575 0.0
C286 C 0.55518 0.72673 0.35194 0.0
Zn287 Zn 0.52792 0.68788 0.5989 0.0
O288 O 0.48195 0.69224 0.71666 0.0
C289 C 0.60311 0.72445 0.69634 0.0
O290 O 0.51291 0.73449 0.61483 0.0
H291 H 0.48506 0.62551 0.47764 0.0
H292 H 0.53095 0.70637 0.82441 0.0
H293 H 0.57628 0.76254 0.46301 0.0
O294 O 0.57064 0.69089 0.72259 0.0
O295 O 0.59951 0.73702 0.62754 0.0
H296 H 0.48553 0.56905 0.83294 0.0
O297 O 0.54406 0.64151 0.57339 0.0
O298 O 0.53084 0.59606 0.6683 0.0
O299 O 0.45358 0.63909 0.58813 0.0
O300 O 0.44745 0.59662 0.68726 0.0
C301 C 0.54389 0.60788 0.59798 0.0
H302 H 0.54003 0.71396 0.96501 0.0
H303 H 0.49317 0.57439 0.97922 0.0
H304 H 0.48397 0.61584 0.33863 0.0
H305 H 0.57507 0.75564 0.31725 0.0
C306 C 0.12006 0.33322 0.87777 0.0
C307 C 0.0743 0.30444 0.87674 0.0
C308 C 0.1411 0.36189 0.81434 0.0
C309 C 0.11766 0.36248 0.74624 0.0
H310 H 0.13969 0.33382 0.92774 0.0
H311 H 0.17586 0.38585 0.82058 0.0
S312 S -0.00254 0.29403 0.71318 0.0
N313 N 0.00615 0.27924 0.80027 0.0
N314 N 0.04643 0.33143 0.68235 0.0
C315 C 0.07243 0.33281 0.7433 0.0
C316 C 0.05068 0.3046 0.80814 0.0
C317 C 0.68417 0.80574 0.85029 0.0
C318 C 0.6896 0.77711 0.90177 0.0
C319 C 0.65915 0.79023 0.77911 0.0
C320 C 0.64073 0.74587 0.75424 0.0
H321 H 0.7006 0.84074 0.86402 0.0
H322 H 0.65359 0.81282 0.74441 0.0
S323 S 0.64889 0.6584 0.86357 0.0
N324 N 0.67528 0.70274 0.9204 0.0
N325 N 0.63192 0.67423 0.78628 0.0
C326 C 0.64752 0.7176 0.80425 0.0
C327 C 0.67068 0.73286 0.87771 0.0
C328 C 0.1966 0.89495 0.88227 0.0
C329 C 0.22093 0.92068 0.94888 0.0
C330 C 0.21675 0.88567 0.81871 0.0
C331 C 0.26247 0.90262 0.81806 0.0
H332 H 0.16169 0.88366 0.87758 0.0
H333 H 0.19639 0.86486 0.77049 0.0
S334 S 0.34164 0.9732 0.97607 0.0
N335 N 0.29329 0.96311 0.00859 0.0
N336 N 0.33164 0.94721 0.8904 0.0
C337 C 0.28708 0.92839 0.88455 0.0
C338 C 0.26635 0.93686 0.94948 0.0
C339 C 0.35955 0.0839 0.19253 0.0
C340 C 0.35904 0.10596 0.26308 0.0
C341 C 0.33171 0.07735 0.12766 0.0
C342 C 0.30103 0.09176 0.12961 0.0
H343 H 0.38179 0.07099 0.18688 0.0
H344 H 0.33202 0.05787 0.07803 0.0
S345 S 0.28449 0.15057 0.29788 0.0
N346 N 0.32501 0.14292 0.32853 0.0
N347 N 0.27103 0.12877 0.20834 0.0
C348 C 0.30011 0.11417 0.19904 0.0
C349 C 0.3291 0.12145 0.26516 0.0
C350 C 0.85536 0.21272 0.18326 0.0
C351 C 0.88412 0.24734 0.23523 0.0
C352 C 0.87024 0.20367 0.11161 0.0
C353 C 0.9139 0.23066 0.08659 0.0
H354 H 0.82077 0.1932 0.19717 0.0
H355 H 0.84778 0.17493 0.07676 0.0
S356 S 0.00102 0.32835 0.1965 0.0
N357 N 0.95776 0.30933 0.2538 0.0
N358 N 0.98478 0.29516 0.11871 0.0
C359 C 0.94212 0.26641 0.1368 0.0
C360 C 0.92768 0.27388 0.21082 0.0
C361 C 0.80339 0.68989 0.15053 0.0
C362 C 0.77489 0.69286 0.09439 0.0
C363 C 0.78712 0.66123 0.21563 0.0
C364 C 0.7416 0.63589 0.22921 0.0
H365 H 0.83867 0.71115 0.14552 0.0
H366 H 0.81018 0.65847 0.2546 0.0
S367 S 0.6531 0.63375 0.10371 0.0
N368 N 0.69908 0.66859 0.05949 0.0
N369 N 0.66849 0.61677 0.18154 0.0
C370 C 0.71306 0.63943 0.17427 0.0
C371 C 0.72956 0.66719 0.10731 0.0
C372 C 0.00731 0.46201 0.55367 0.0
C373 C 0.03097 0.44063 0.57373 0.0
C374 C 0.97902 0.44863 0.48659 0.0
C375 C 0.97514 0.41514 0.4342 0.0
H376 H 0.01138 0.48978 0.58891 0.0
H377 H 0.95895 0.46375 0.47683 0.0
S378 S 0.03248 0.35106 0.45681 0.0
N379 N 0.04921 0.38489 0.53372 0.0
N380 N -0.00196 0.36157 0.40766 0.0
C381 C -0.00056 0.39448 0.45292 0.0
C382 C 0.02665 0.4067 0.52222 0.0
C383 C 0.574 0.60657 0.46558 0.0
C384 C 0.5548 0.58383 0.53624 0.0
C385 C 0.58188 0.58641 0.40095 0.0
C386 C 0.57166 0.54239 0.40313 0.0
H387 H 0.58428 0.6412 0.46006 0.0
H388 H 0.59983 0.60671 0.35171 0.0
S389 S 0.5194 0.46648 0.57009 0.0
N390 N 0.52359 0.51336 0.6012 0.0
N391 N 0.53994 0.47567 0.48065 0.0
C392 C 0.551 0.51851 0.47175 0.0
C393 C 0.54255 0.53909 0.53798 0.0
C394 C 0.43135 0.03681 0.55949 0.0
C395 C 0.44838 0.03041 0.48782 0.0
C396 C 0.42406 0.01055 0.62576 0.0
C397 C 0.43249 0.97552 0.62456 0.0
H398 H 0.42222 0.06207 0.5647 0.0
H399 H 0.40793 0.01535 0.67591 0.0
S400 S 0.47762 0.94353 0.45489 0.0
N401 N 0.47497 0.98656 0.42252 0.0
N402 N 0.4594 0.93566 0.54597 0.0
C403 C 0.45052 0.96906 0.55453 0.0
C404 C 0.45858 -0.00356 0.48665 0.0
C405 C 0.14261 0.12941 0.995 0.0
C406 C 0.12142 0.08697 0.02782 0.0
C407 C 0.11887 0.14981 0.97088 0.0
C408 C 0.07284 0.12813 0.97623 0.0
H409 H 0.17804 0.14718 0.98816 0.0
H410 H 0.13681 0.18339 0.95004 0.0
S411 S 0.00127 0.01712 0.05836 0.0
N412 N 0.05144 0.02411 0.06481 0.0
N413 N 0.0069 0.06249 0.01853 0.0
C414 C 0.0511 0.08559 0.00806 0.0
C415 C 0.07534 0.06504 0.03422 0.0
C416 C 0.86693 0.97825 0.06792 0.0
C417 C 0.86456 0.95574 0.99673 0.0
C418 C 0.89054 0.02446 0.07381 0.0
C419 C 0.91201 0.04957 0.0084 0.0
H420 H 0.85052 0.96004 0.11995 0.0
H421 H 0.89082 0.04051 0.12876 0.0
S422 S 0.91865 0.00745 0.81048 0.0
N423 N 0.88776 0.96255 0.86118 0.0
N424 N 0.93186 0.04931 0.87155 0.0
C425 C 0.91091 0.02762 0.93758 0.0
C426 C 0.8873 0.98072 0.93188 0.0
C427 C 0.97493 0.86793 0.08863 0.0
C428 C 0.94835 0.8766 0.03897 0.0
C429 C 0.02048 0.88849 0.07683 0.0
C430 C 0.04112 0.91844 0.01478 0.0
H431 H 0.96033 0.84413 0.1351 0.0
H432 H 0.03961 0.88078 0.11728 0.0
S433 S 0.98468 0.95128 0.86799 0.0
N434 N 0.9449 0.91621 0.92501 0.0
N435 N 0.03054 0.9553 0.90351 0.0
C436 C 0.01456 0.92728 0.96491 0.0
C437 C 0.96822 0.90629 0.97694 0.0
C438 C 0.7969 0.48075 0.31774 0.0
C439 C 0.75302 0.46253 0.34009 0.0
C440 C 0.82098 0.46005 0.33718 0.0
C441 C 0.80214 0.42046 0.38014 0.0
H442 H 0.81266 0.5111 0.28496 0.0
H443 H 0.8543 0.47442 0.31567 0.0
S444 S 0.69034 0.36432 0.46433 0.0
N445 N 0.69326 0.40654 0.41649 0.0
N446 N 0.73829 0.36694 0.45181 0.0
C447 C 0.7591 0.40363 0.40728 0.0
C448 C 0.73455 0.42477 0.38728 0.0
C449 C 0.54991 0.35342 0.40332 0.0
C450 C 0.5888 0.37587 0.36117 0.0
C451 C 0.52278 0.30776 0.39388 0.0
C452 C 0.53349 0.28273 0.34186 0.0
H453 H 0.53961 0.37142 0.44161 0.0
H454 H 0.49316 0.29194 0.42851 0.0
S455 S 0.63147 0.32772 0.21477 0.0
N456 N 0.63628 0.37119 0.26284 0.0
N457 N 0.58563 0.28499 0.24606 0.0
C458 C 0.5722 0.30524 0.29845 0.0
C459 C 0.59979 0.35184 0.30808 0.0
C460 C 0.64164 0.24831 0.36664 0.0
C461 C 0.61964 0.20305 0.38419 0.0
C462 C 0.68578 0.27017 0.34185 0.0
C463 C 0.7095 0.24761 0.3353 0.0
H464 H 0.62416 0.26647 0.36936 0.0
H465 H 0.70179 0.30512 0.32996 0.0
S466 S 0.66693 0.12916 0.37573 0.0
N467 N 0.62473 0.13659 0.39256 0.0
N468 N 0.70775 0.17774 0.3497 0.0
C469 C 0.68784 0.20254 0.35372 0.0
C470 C 0.64304 0.18033 0.3775 0.0
C471 C 0.45061 0.75759 0.74891 0.0
C472 C 0.45919 0.74414 0.67684 0.0
C473 C 0.4277 0.78084 0.75128 0.0
C474 C 0.412 0.79085 0.68205 0.0
H475 H 0.46297 0.75157 0.80304 0.0
H476 H 0.42266 0.79148 0.8085 0.0
S477 S 0.42085 0.75705 0.47956 0.0
N478 N 0.44672 0.73835 0.5349 0.0
N479 N 0.40326 0.78178 0.54045 0.0
C480 C 0.41811 0.7752 0.61006 0.0
C481 C 0.44191 0.75199 0.60745 0.0
C482 C 0.19841 0.65278 0.62608 0.0
C483 C 0.20831 0.62558 0.67098 0.0
C484 C 0.21745 0.69781 0.6448 0.0
C485 C 0.24733 0.71742 0.70901 0.0
H486 H 0.17522 0.63906 0.57722 0.0
H487 H 0.20907 0.71748 0.60737 0.0
S488 S 0.28177 0.65855 0.84698 0.0
N489 N 0.24752 0.6199 0.78458 0.0
N490 N 0.28467 0.70488 0.81823 0.0
C491 C 0.25689 0.69005 0.75491 0.0
C492 C 0.23706 0.64409 0.73621 0.0
C493 C 0.36026 0.60705 0.64583 0.0
C494 C 0.38166 0.58283 0.63093 0.0
C495 C 0.31627 0.58586 0.67056 0.0
C496 C 0.29262 0.53994 0.68132 0.0
H497 H 0.37812 0.6427 0.64155 0.0
H498 H 0.30033 0.60529 0.6788 0.0
S499 S 0.3338 0.46201 0.64899 0.0
N500 N 0.3761 0.51085 0.62856 0.0
N501 N 0.29341 0.47101 0.67339 0.0
C502 C 0.31366 0.51555 0.66573 0.0
C503 C 0.35814 0.53698 0.64086 0.0
C504 C 0.00983 0.17363 0.5308 0.0
C505 C 0.98151 0.18599 0.5675 0.0
C506 C 0.0226 0.18426 0.45282 0.0
C507 C 0.00678 0.20677 0.40776 0.0
H508 H 0.02217 0.15524 0.56254 0.0
H509 H 0.04347 0.17308 0.42657 0.0
S510 S 0.93104 0.24561 0.47313 0.0
N511 N 0.93846 0.22263 0.55174 0.0
N512 N 0.96047 0.24019 0.40309 0.0
C513 C 0.97801 0.21887 0.4426 0.0
C514 C 0.96567 0.20888 0.52279 0.0
C515 C 0.7749 0.79087 0.55744 0.0
C516 C 0.81516 0.79612 0.58562 0.0
C517 C 0.76869 0.79648 0.47789 0.0
C518 C 0.80276 0.80808 0.42398 0.0
H519 H 0.7487 0.78432 0.598 0.0
H520 H 0.73776 0.79367 0.45917 0.0
S521 S 0.91255 0.82071 0.4668 0.0
N522 N 0.88815 0.80996 0.55293 0.0
N523 N 0.87658 0.82018 0.40279 0.0
C524 C 0.84229 0.81096 0.4507 0.0
C525 C 0.84844 0.80495 0.53171 0.0
C526 C 0.15571 0.0156 0.57164 0.0
C527 C 0.19424 0.02305 0.61088 0.0
C528 C 0.14858 0.00309 0.49271 0.0
C529 C 0.17979 -0.00229 0.45026 0.0
H530 H 0.13033 0.01829 0.603 0.0
H531 H 0.11849 -0.00219 0.46434 0.0
S532 S 0.28666 0.01459 0.52563 0.0
N533 N 0.26418 0.02461 0.60242 0.0
N534 N 0.25128 0.00214 0.45171 0.0
C535 C 0.21881 0.00562 0.48829 0.0
C536 C 0.22604 0.01831 0.56926 0.0
C537 C 0.66359 0.54955 0.79526 0.0
C538 C 0.68581 0.53214 0.75274 0.0
C539 C 0.65174 0.53771 0.87343 0.0
C540 C 0.66112 0.50754 0.91045 0.0
H541 H 0.65451 0.5716 0.76723 0.0
H542 H 0.63561 0.55252 0.90526 0.0
S543 S 0.71561 0.45029 0.82126 0.0
N544 N 0.71513 0.48236 0.75113 0.0
N545 N 0.69202 0.45908 0.89757 0.0
C546 C 0.6828 0.48954 0.86778 0.0
C547 C 0.6954 0.50214 0.78896 0.0
C548 C 0.51138 0.16073 0.82783 0.0
C549 C 0.47035 0.14554 0.78928 0.0
C550 C 0.51417 0.15015 0.90588 0.0
C551 C 0.47608 0.12466 0.94911 0.0
H552 H 0.54185 0.18128 0.79742 0.0
H553 H 0.54636 0.16354 0.93363 0.0
S554 S 0.36065 0.07741 0.87841 0.0
N555 N 0.39062 0.1029 0.80126 0.0
N556 N 0.39611 0.0854 0.95004 0.0
C557 C 0.43482 0.10969 0.9124 0.0
C558 C 0.43188 0.1197 0.83215 0.0
C559 C 0.81388 0.32487 0.80191 0.0
C560 C 0.83652 0.30497 0.76926 0.0
C561 C 0.81947 0.33794 0.88079 0.0
C562 C 0.84721 0.33077 0.93123 0.0
H563 H 0.79325 0.33242 0.76496 0.0
H564 H 0.8029 0.35516 0.90143 0.0
S565 S 0.91101 0.27607 0.87528 0.0
N566 N 0.88655 0.27717 0.79267 0.0
N567 N 0.89484 0.29864 0.94337 0.0
C568 C 0.86838 0.30868 0.90004 0.0
C569 C 0.86333 0.29624 0.81867 0.0
C570 C 0.31129 0.82083 0.24823 0.0
C571 C 0.31887 0.85872 0.29003 0.0
C572 C 0.32447 0.82351 0.17041 0.0
C573 C 0.34572 0.8642 0.13165 0.0
H574 H 0.29645 0.78915 0.27687 0.0
H575 H 0.31798 0.79341 0.14013 0.0
S576 S 0.37354 0.97316 0.21694 0.0
N577 N 0.34961 0.93817 0.28919 0.0
N578 N 0.37352 0.94323 0.14113 0.0
C579 C 0.35357 0.90244 0.17304 0.0
C580 C 0.34021 0.89966 0.25271 0.0
C581 C 0.11609 0.455 0.1285 0.0
C582 C 0.14652 0.49276 0.08827 0.0
C583 C 0.12356 0.44942 0.20752 0.0
C584 C 0.16178 0.48132 0.24724 0.0
H585 H 0.08712 0.42933 0.09825 0.0
H586 H 0.09906 0.42069 0.23813 0.0
S587 S 0.25131 0.5853 0.16671 0.0
N588 N 0.21584 0.56208 0.09297 0.0
N589 N 0.23018 0.55136 0.24109 0.0
C590 C 0.19235 0.51893 0.2072 0.0
C591 C 0.18457 0.52478 0.12772 0.0
C592 C 0.48715 0.64732 0.19266 0.0
C593 C 0.52786 0.67666 0.22968 0.0
C594 C 0.48467 0.63457 0.11387 0.0
C595 C 0.52267 0.6513 0.06858 0.0
H596 H 0.45672 0.63414 0.22488 0.0
H597 H 0.45262 0.61291 0.08733 0.0
S598 S 0.637 0.72959 0.13478 0.0
N599 N 0.60715 0.72159 0.21403 0.0
N600 N 0.602 0.69929 0.06412 0.0
C601 C 0.56352 0.68096 0.10387 0.0
C602 C 0.56621 0.69342 0.1847 0.0
loop_
_geom_bond_atom_site_label_1
_geom_bond_atom_site_label_2
_geom_bond_distance
_geom_bond_site_symmetry_2
_ccdc_geom_bond_type
C0 O16 1.251 . S
C0 O18 1.254 1_554 S
N1 C2 1.333 . S
N1 C6 1.307 . S
N1 Zn7 2.020 . S
C2 N1 1.333 . S
C2 C3 1.379 . S
C2 H20 0.952 1_455 S
C3 C2 1.379 . S
C3 C4 1.390 . S
C3 H30 0.949 1_455 S
C4 C3 1.390 . S
C4 C5 1.357 . S
C5 C4 1.357 . S
C5 C6 1.370 . S
C5 H31 0.950 . S
C6 N1 1.307 . S
C6 C5 1.370 . S
C6 H24 0.948 . S
Zn7 N1 2.020 . S
Zn7 O16 2.039 1_455 S
Zn7 O22 2.034 1_455 S
Zn7 O26 2.025 . S
Zn7 O28 2.024 . S
C8 O27 1.246 . S
C8 O28 1.249 1_556 S
N9 C10 1.307 . S
N9 C11 1.333 1_655 S
N9 Zn15 2.020 . S
C10 N9 1.307 . S
C10 C14 1.370 . S
C10 H21 0.948 . S
C11 N9 1.333 1_455 S
C11 C12 1.379 . S
C11 H19 0.952 . S
C12 C11 1.379 . S
C12 C13 1.390 1_455 S
C12 H32 0.949 . S
C13 C12 1.390 1_655 S
C13 C14 1.357 . S
C14 C10 1.370 . S
C14 C13 1.357 . S
C14 H33 0.950 . S
Zn15 N9 2.020 . S
Zn15 O18 2.025 . S
Zn15 O23 2.024 . S
Zn15 O25 2.039 1_655 S
Zn15 O27 2.034 1_655 S
O16 C0 1.251 . S
O16 Zn7 2.039 1_655 S
C17 O22 1.246 . S
C17 O23 1.249 1_554 S
O18 C0 1.254 1_556 S
O18 Zn15 2.025 . S
H19 C11 0.952 . S
H20 C2 0.952 1_655 S
H21 C10 0.948 . S
O22 Zn7 2.034 1_655 S
O22 C17 1.246 . S
O23 Zn15 2.024 . S
O23 C17 1.249 1_556 S
H24 C6 0.948 . S
O25 Zn15 2.039 1_455 S
O25 C29 1.251 . S
O26 Zn7 2.025 . S
O26 C29 1.254 1_554 S
O27 C8 1.246 . S
O27 Zn15 2.034 1_455 S
O28 Zn7 2.024 . S
O28 C8 1.249 1_554 S
C29 O25 1.251 . S
C29 O26 1.254 1_556 S
H30 C3 0.949 1_655 S
H31 C5 0.950 . S
H32 C12 0.949 . S
H33 C14 0.950 . S
C34 O50 1.251 . S
C34 O52 1.254 1_556 S
N35 C36 1.333 . S
N35 C40 1.307 . S
N35 Zn41 2.020 . S
C36 N35 1.333 . S
C36 C37 1.379 . S
C36 H54 0.952 . S
C37 C36 1.379 . S
C37 C38 1.390 . S
C37 H64 0.949 . S
C38 C37 1.390 . S
C38 C39 1.357 . S
C39 C38 1.357 . S
C39 C40 1.370 . S
C39 H65 0.950 . S
C40 N35 1.307 . S
C40 C39 1.370 . S
C40 H58 0.948 . S
Zn41 N35 2.020 . S
Zn41 O50 2.039 . S
Zn41 O56 2.034 . S
Zn41 O60 2.025 . S
Zn41 O62 2.024 . S
C42 O61 1.246 . S
C42 O62 1.249 1_554 S
N43 C44 1.307 . S
N43 C45 1.333 . S
N43 Zn49 2.020 . S
C44 N43 1.307 . S
C44 C48 1.370 . S
C44 H55 0.948 . S
C45 N43 1.333 . S
C45 C46 1.379 . S
C45 H53 0.952 . S
C46 C45 1.379 . S
C46 C47 1.390 . S
C46 H66 0.949 . S
C47 C46 1.390 . S
C47 C48 1.357 . S
C48 C44 1.370 . S
C48 C47 1.357 . S
C48 H67 0.950 . S
Zn49 N43 2.020 . S
Zn49 O52 2.025 . S
Zn49 O57 2.024 . S
Zn49 O59 2.039 . S
Zn49 O61 2.034 . S
O50 C34 1.251 . S
O50 Zn41 2.039 . S
C51 O56 1.246 . S
C51 O57 1.249 1_556 S
O52 C34 1.254 1_554 S
O52 Zn49 2.025 . S
H53 C45 0.952 . S
H54 C36 0.952 . S
H55 C44 0.948 . S
O56 Zn41 2.034 . S
O56 C51 1.246 . S
O57 Zn49 2.024 . S
O57 C51 1.249 1_554 S
H58 C40 0.948 . S
O59 Zn49 2.039 . S
O59 C63 1.251 . S
O60 Zn41 2.025 . S
O60 C63 1.254 1_556 S
O61 C42 1.246 . S
O61 Zn49 2.034 . S
O62 Zn41 2.024 . S
O62 C42 1.249 1_556 S
C63 O59 1.251 . S
C63 O60 1.254 1_554 S
H64 C37 0.949 . S
H65 C39 0.950 . S
H66 C46 0.949 . S
H67 C48 0.950 . S
C68 O84 1.251 . S
C68 O86 1.254 1_554 S
N69 C70 1.333 1_565 S
N69 C74 1.307 . S
N69 Zn75 2.020 . S
C70 N69 1.333 1_545 S
C70 C71 1.379 . S
C70 H88 0.952 . S
C71 C70 1.379 . S
C71 C72 1.390 1_545 S
C71 H98 0.949 . S
C72 C71 1.390 1_565 S
C72 C73 1.357 . S
C73 C72 1.357 . S
C73 C74 1.370 . S
C73 H99 0.950 . S
C74 N69 1.307 . S
C74 C73 1.370 . S
C74 H92 0.948 . S
Zn75 N69 2.020 . S
Zn75 O84 2.039 1_565 S
Zn75 O90 2.034 1_565 S
Zn75 O94 2.025 . S
Zn75 O96 2.024 . S
C76 O95 1.246 . S
C76 O96 1.249 1_556 S
N77 C78 1.307 . S
N77 C79 1.333 1_545 S
N77 Zn83 2.020 . S
C78 N77 1.307 . S
C78 C82 1.370 . S
C78 H89 0.948 . S
C79 N77 1.333 1_565 S
C79 C80 1.379 1_565 S
C79 H87 0.952 . S
C80 C79 1.379 1_545 S
C80 C81 1.390 . S
C80 H100 0.949 1_545 S
C81 C80 1.390 . S
C81 C82 1.357 . S
C82 C78 1.370 . S
C82 C81 1.357 . S
C82 H101 0.950 . S
Zn83 N77 2.020 . S
Zn83 O86 2.025 . S
Zn83 O91 2.024 . S
Zn83 O93 2.039 1_545 S
Zn83 O95 2.034 1_545 S
O84 C68 1.251 . S
O84 Zn75 2.039 1_545 S
C85 O90 1.246 . S
C85 O91 1.249 1_554 S
O86 C68 1.254 1_556 S
O86 Zn83 2.025 . S
H87 C79 0.952 . S
H88 C70 0.952 . S
H89 C78 0.948 . S
O90 Zn75 2.034 1_545 S
O90 C85 1.246 . S
O91 Zn83 2.024 . S
O91 C85 1.249 1_556 S
H92 C74 0.948 . S
O93 Zn83 2.039 1_565 S
O93 C97 1.251 . S
O94 Zn75 2.025 . S
O94 C97 1.254 1_554 S
O95 C76 1.246 . S
O95 Zn83 2.034 1_565 S
O96 Zn75 2.024 . S
O96 C76 1.249 1_554 S
C97 O93 1.251 . S
C97 O94 1.254 1_556 S
H98 C71 0.949 . S
H99 C73 0.950 . S
H100 C80 0.949 1_565 S
H101 C82 0.950 . S
C102 O118 1.251 . S
C102 O120 1.254 . S
N103 C104 1.333 . S
N103 C108 1.307 . S
N103 Zn109 2.020 . S
C104 N103 1.333 . S
C104 C105 1.379 . S
C104 H122 0.952 . S
C105 C104 1.379 . S
C105 C106 1.390 1_554 S
C105 H132 0.949 1_554 S
C106 C105 1.390 1_556 S
C106 C107 1.357 1_556 S
C107 C106 1.357 1_554 S
C107 C108 1.370 . S
C107 H133 0.950 . S
C108 N103 1.307 . S
C108 C107 1.370 . S
C108 H126 0.948 . S
Zn109 N103 2.020 . S
Zn109 O118 2.039 . S
Zn109 O124 2.034 . S
Zn109 O128 2.025 . S
Zn109 O130 2.024 . S
C110 O129 1.246 . S
C110 O130 1.249 . S
N111 C112 1.307 . S
N111 C113 1.333 . S
N111 Zn117 2.020 . S
C112 N111 1.307 . S
C112 C116 1.370 . S
C112 H123 0.948 . S
C113 N111 1.333 . S
C113 C114 1.379 . S
C113 H121 0.952 . S
C114 C113 1.379 . S
C114 C115 1.390 . S
C114 H134 0.949 . S
C115 C114 1.390 . S
C115 C116 1.357 . S
C116 C112 1.370 . S
C116 C115 1.357 . S
C116 H135 0.950 . S
Zn117 N111 2.020 . S
Zn117 O120 2.025 . S
Zn117 O125 2.024 . S
Zn117 O127 2.039 . S
Zn117 O129 2.034 . S
O118 C102 1.251 . S
O118 Zn109 2.039 . S
C119 O124 1.246 . S
C119 O125 1.249 . S
O120 C102 1.254 . S
O120 Zn117 2.025 . S
H121 C113 0.952 . S
H122 C104 0.952 . S
H123 C112 0.948 . S
O124 Zn109 2.034 . S
O124 C119 1.246 . S
O125 Zn117 2.024 . S
O125 C119 1.249 . S
H126 C108 0.948 . S
O127 Zn117 2.039 . S
O127 C131 1.251 . S
O128 Zn109 2.025 . S
O128 C131 1.254 . S
O129 C110 1.246 . S
O129 Zn117 2.034 . S
O130 Zn109 2.024 . S
O130 C110 1.249 . S
C131 O127 1.251 . S
C131 O128 1.254 . S
H132 C105 0.949 1_556 S
H133 C107 0.950 . S
H134 C114 0.949 . S
H135 C116 0.950 . S
C136 O152 1.251 . S
C136 O154 1.254 . S
N137 C138 1.333 . S
N137 C142 1.307 . S
N137 Zn143 2.020 . S
C138 N137 1.333 . S
C138 C139 1.379 . S
C138 H156 0.952 . S
C139 C138 1.379 . S
C139 C140 1.390 1_554 S
C139 H166 0.949 1_554 S
C140 C139 1.390 1_556 S
C140 C141 1.357 1_556 S
C141 C140 1.357 1_554 S
C141 C142 1.370 . S
C141 H167 0.950 . S
C142 N137 1.307 . S
C142 C141 1.370 . S
C142 H160 0.948 . S
Zn143 N137 2.020 . S
Zn143 O152 2.039 . S
Zn143 O158 2.034 . S
Zn143 O162 2.025 . S
Zn143 O164 2.024 . S
C144 O163 1.246 . S
C144 O164 1.249 . S
N145 C146 1.307 . S
N145 C147 1.333 . S
N145 Zn151 2.020 . S
C146 N145 1.307 . S
C146 C150 1.370 . S
C146 H157 0.948 . S
C147 N145 1.333 . S
C147 C148 1.379 . S
C147 H155 0.952 . S
C148 C147 1.379 . S
C148 C149 1.390 . S
C148 H168 0.949 . S
C149 C148 1.390 . S
C149 C150 1.357 . S
C150 C146 1.370 . S
C150 C149 1.357 . S
C150 H169 0.950 . S
Zn151 N145 2.020 . S
Zn151 O154 2.025 . S
Zn151 O159 2.024 . S
Zn151 O161 2.039 . S
Zn151 O163 2.034 . S
O152 C136 1.251 . S
O152 Zn143 2.039 . S
C153 O158 1.246 . S
C153 O159 1.249 . S
O154 C136 1.254 . S
O154 Zn151 2.025 . S
H155 C147 0.952 . S
H156 C138 0.952 . S
H157 C146 0.948 . S
O158 Zn143 2.034 . S
O158 C153 1.246 . S
O159 Zn151 2.024 . S
O159 C153 1.249 . S
H160 C142 0.948 . S
O161 Zn151 2.039 . S
O161 C165 1.251 . S
O162 Zn143 2.025 . S
O162 C165 1.254 . S
O163 C144 1.246 . S
O163 Zn151 2.034 . S
O164 Zn143 2.024 . S
O164 C144 1.249 . S
C165 O161 1.251 . S
C165 O162 1.254 . S
H166 C139 0.949 1_556 S
H167 C141 0.950 . S
H168 C148 0.949 . S
H169 C150 0.950 . S
C170 O186 1.251 . S
C170 O188 1.254 . S
N171 C172 1.333 . S
N171 C176 1.307 . S
N171 Zn177 2.020 . S
C172 N171 1.333 . S
C172 C173 1.379 . S
C172 H190 0.952 . S
C173 C172 1.379 . S
C173 C174 1.390 1_554 S
C173 H200 0.949 1_554 S
C174 C173 1.390 1_556 S
C174 C175 1.357 1_556 S
C175 C174 1.357 1_554 S
C175 C176 1.370 . S
C175 H201 0.950 . S
C176 N171 1.307 . S
C176 C175 1.370 . S
C176 H194 0.948 . S
Zn177 N171 2.020 . S
Zn177 O186 2.039 . S
Zn177 O192 2.034 . S
Zn177 O196 2.025 . S
Zn177 O198 2.024 . S
C178 O197 1.246 . S
C178 O198 1.249 . S
N179 C180 1.307 . S
N179 C181 1.333 . S
N179 Zn185 2.020 . S
C180 N179 1.307 . S
C180 C184 1.370 . S
C180 H191 0.948 . S
C181 N179 1.333 . S
C181 C182 1.379 . S
C181 H189 0.952 . S
C182 C181 1.379 . S
C182 C183 1.390 . S
C182 H202 0.949 . S
C183 C182 1.390 . S
C183 C184 1.357 . S
C184 C180 1.370 . S
C184 C183 1.357 . S
C184 H203 0.950 . S
Zn185 N179 2.020 . S
Zn185 O188 2.025 . S
Zn185 O193 2.024 . S
Zn185 O195 2.039 . S
Zn185 O197 2.034 . S
O186 C170 1.251 . S
O186 Zn177 2.039 . S
C187 O192 1.246 . S
C187 O193 1.249 . S
O188 C170 1.254 . S
O188 Zn185 2.025 . S
H189 C181 0.952 . S
H190 C172 0.952 . S
H191 C180 0.948 . S
O192 Zn177 2.034 . S
O192 C187 1.246 . S
O193 Zn185 2.024 . S
O193 C187 1.249 . S
H194 C176 0.948 . S
O195 Zn185 2.039 . S
O195 C199 1.251 . S
O196 Zn177 2.025 . S
O196 C199 1.254 . S
O197 C178 1.246 . S
O197 Zn185 2.034 . S
O198 Zn177 2.024 . S
O198 C178 1.249 . S
C199 O195 1.251 . S
C199 O196 1.254 . S
H200 C173 0.949 1_556 S
H201 C175 0.950 . S
H202 C182 0.949 . S
H203 C184 0.950 . S
C204 O220 1.251 . S
C204 O222 1.254 . S
N205 C206 1.333 . S
N205 C210 1.307 . S
N205 Zn211 2.020 . S
C206 N205 1.333 . S
C206 C207 1.379 . S
C206 H224 0.952 . S
C207 C206 1.379 . S
C207 C208 1.390 1_556 S
C207 H234 0.949 1_556 S
C208 C207 1.390 1_554 S
C208 C209 1.357 1_554 S
C209 C208 1.357 1_556 S
C209 C210 1.370 . S
C209 H235 0.950 . S
C210 N205 1.307 . S
C210 C209 1.370 . S
C210 H228 0.948 . S
Zn211 N205 2.020 . S
Zn211 O220 2.039 . S
Zn211 O226 2.034 . S
Zn211 O230 2.025 . S
Zn211 O232 2.024 . S
C212 O231 1.246 . S
C212 O232 1.249 . S
N213 C214 1.307 . S
N213 C215 1.333 . S
N213 Zn219 2.020 . S
C214 N213 1.307 . S
C214 C218 1.370 . S
C214 H225 0.948 . S
C215 N213 1.333 . S
C215 C216 1.379 . S
C215 H223 0.952 . S
C216 C215 1.379 . S
C216 C217 1.390 . S
C216 H236 0.949 . S
C217 C216 1.390 . S
C217 C218 1.357 . S
C218 C214 1.370 . S
C218 C217 1.357 . S
C218 H237 0.950 . S
Zn219 N213 2.020 . S
Zn219 O222 2.025 . S
Zn219 O227 2.024 . S
Zn219 O229 2.039 . S
Zn219 O231 2.034 . S
O220 C204 1.251 . S
O220 Zn211 2.039 . S
C221 O226 1.246 . S
C221 O227 1.249 . S
O222 C204 1.254 . S
O222 Zn219 2.025 . S
H223 C215 0.952 . S
H224 C206 0.952 . S
H225 C214 0.948 . S
O226 Zn211 2.034 . S
O226 C221 1.246 . S
O227 Zn219 2.024 . S
O227 C221 1.249 . S
H228 C210 0.948 . S
O229 Zn219 2.039 . S
O229 C233 1.251 . S
O230 Zn211 2.025 . S
O230 C233 1.254 . S
O231 C212 1.246 . S
O231 Zn219 2.034 . S
O232 Zn211 2.024 . S
O232 C212 1.249 . S
C233 O229 1.251 . S
C233 O230 1.254 . S
H234 C207 0.949 1_554 S
H235 C209 0.950 . S
H236 C216 0.949 . S
H237 C218 0.950 . S
C238 O254 1.251 . S
C238 O256 1.254 . S
N239 C240 1.333 . S
N239 C244 1.307 . S
N239 Zn245 2.020 . S
C240 N239 1.333 . S
C240 C241 1.379 . S
C240 H258 0.952 . S
C241 C240 1.379 . S
C241 C242 1.390 . S
C241 H268 0.949 . S
C242 C241 1.390 . S
C242 C243 1.357 . S
C243 C242 1.357 . S
C243 C244 1.370 . S
C243 H269 0.950 . S
C244 N239 1.307 . S
C244 C243 1.370 . S
C244 H262 0.948 . S
Zn245 N239 2.020 . S
Zn245 O254 2.039 . S
Zn245 O260 2.034 . S
Zn245 O264 2.025 . S
Zn245 O266 2.024 . S
C246 O265 1.246 . S
C246 O266 1.249 . S
N247 C248 1.307 . S
N247 C249 1.333 . S
N247 Zn253 2.020 . S
C248 N247 1.307 . S
C248 C252 1.370 . S
C248 H259 0.948 . S
C249 N247 1.333 . S
C249 C250 1.379 . S
C249 H257 0.952 . S
C250 C249 1.379 . S
C250 C251 1.390 1_556 S
C250 H270 0.949 1_556 S
C251 C250 1.390 1_554 S
C251 C252 1.357 1_554 S
C252 C248 1.370 . S
C252 C251 1.357 1_556 S
C252 H271 0.951 . S
Zn253 N247 2.020 . S
Zn253 O256 2.025 . S
Zn253 O261 2.024 . S
Zn253 O263 2.039 . S
Zn253 O265 2.034 . S
O254 C238 1.251 . S
O254 Zn245 2.039 . S
C255 O260 1.246 . S
C255 O261 1.249 . S
O256 C238 1.254 . S
O256 Zn253 2.025 . S
H257 C249 0.952 . S
H258 C240 0.952 . S
H259 C248 0.948 . S
O260 Zn245 2.034 . S
O260 C255 1.246 . S
O261 Zn253 2.024 . S
O261 C255 1.249 . S
H262 C244 0.948 . S
O263 Zn253 2.039 . S
O263 C267 1.251 . S
O264 Zn245 2.025 . S
O264 C267 1.254 . S
O265 C246 1.246 . S
O265 Zn253 2.034 . S
O266 Zn245 2.024 . S
O266 C246 1.249 . S
C267 O263 1.251 . S
C267 O264 1.254 . S
H268 C241 0.949 . S
H269 C243 0.950 . S
H270 C250 0.949 1_554 S
H271 C252 0.951 . S
C272 O288 1.251 . S
C272 O290 1.254 . S
N273 C274 1.333 . S
N273 C278 1.307 . S
N273 Zn279 2.020 . S
C274 N273 1.333 . S
C274 C275 1.379 . S
C274 H292 0.952 . S
C275 C274 1.379 . S
C275 C276 1.390 1_556 S
C275 H302 0.949 1_556 S
C276 C275 1.390 1_554 S
C276 C277 1.357 1_554 S
C277 C276 1.357 1_556 S
C277 C278 1.370 . S
C277 H303 0.950 . S
C278 N273 1.307 . S
C278 C277 1.370 . S
C278 H296 0.948 . S
Zn279 N273 2.020 . S
Zn279 O288 2.039 . S
Zn279 O294 2.034 . S
Zn279 O298 2.025 . S
Zn279 O300 2.024 . S
C280 O299 1.246 . S
C280 O300 1.249 . S
N281 C282 1.307 . S
N281 C283 1.333 . S
N281 Zn287 2.020 . S
C282 N281 1.307 . S
C282 C286 1.370 . S
C282 H293 0.948 . S
C283 N281 1.333 . S
C283 C284 1.379 . S
C283 H291 0.952 . S
C284 C283 1.379 . S
C284 C285 1.390 . S
C284 H304 0.949 . S
C285 C284 1.390 . S
C285 C286 1.357 . S
C286 C282 1.370 . S
C286 C285 1.357 . S
C286 H305 0.950 . S
Zn287 N281 2.020 . S
Zn287 O290 2.025 . S
Zn287 O295 2.024 . S
Zn287 O297 2.039 . S
Zn287 O299 2.034 . S
O288 C272 1.251 . S
O288 Zn279 2.039 . S
C289 O294 1.246 . S
C289 O295 1.249 . S
O290 C272 1.254 . S
O290 Zn287 2.025 . S
H291 C283 0.952 . S
H292 C274 0.952 . S
H293 C282 0.948 . S
O294 Zn279 2.034 . S
O294 C289 1.246 . S
O295 Zn287 2.024 . S
O295 C289 1.249 . S
H296 C278 0.948 . S
O297 Zn287 2.039 . S
O297 C301 1.251 . S
O298 Zn279 2.025 . S
O298 C301 1.254 . S
O299 C280 1.246 . S
O299 Zn287 2.034 . S
O300 Zn279 2.024 . S
O300 C280 1.249 . S
C301 O297 1.251 . S
C301 O298 1.254 . S
H302 C275 0.949 1_554 S
H303 C277 0.950 . S
H304 C284 0.949 . S
H305 C286 0.950 . S
C306 C307 1.369 . S
C306 C308 1.419 . S
C306 H310 0.930 . S
C307 C306 1.369 . S
C307 C316 1.429 . S
C308 C306 1.419 . S
C308 C309 1.363 . S
C308 H311 0.929 . S
C309 C308 1.363 . S
C309 C315 1.428 . S
H310 C306 0.930 . S
H311 C308 0.929 . S
S312 N313 1.613 . S
S312 N314 1.610 . S
N313 S312 1.613 . S
N313 C316 1.350 . S
N314 S312 1.610 . S
N314 C315 1.351 . S
C315 C309 1.428 . S
C315 N314 1.351 . S
C315 C316 1.434 . S
C316 C307 1.429 . S
C316 N313 1.350 . S
C316 C315 1.434 . S
C317 C318 1.369 . S
C317 C319 1.419 . S
C317 H321 0.930 . S
C318 C317 1.369 . S
C318 C327 1.429 . S
C319 C317 1.419 . S
C319 C320 1.363 . S
C319 H322 0.929 . S
C320 C319 1.363 . S
C320 C326 1.428 . S
H321 C317 0.930 . S
H322 C319 0.929 . S
S323 N324 1.613 . S
S323 N325 1.610 . S
N324 S323 1.613 . S
N324 C327 1.350 . S
N325 S323 1.610 . S
N325 C326 1.351 . S
C326 C320 1.428 . S
C326 N325 1.351 . S
C326 C327 1.434 . S
C327 C318 1.429 . S
C327 N324 1.350 . S
C327 C326 1.434 . S
C328 C329 1.369 . S
C328 C330 1.419 . S
C328 H332 0.930 . S
C329 C328 1.369 . S
C329 C338 1.429 . S
C330 C328 1.419 . S
C330 C331 1.363 . S
C330 H333 0.929 . S
C331 C330 1.363 . S
C331 C337 1.428 . S
H332 C328 0.930 . S
H333 C330 0.929 . S
S334 N335 1.613 . S
S334 N336 1.610 . S
N335 S334 1.613 . S
N335 C338 1.350 . S
N336 S334 1.610 . S
N336 C337 1.351 . S
C337 C331 1.428 . S
C337 N336 1.351 . S
C337 C338 1.434 . S
C338 C329 1.429 . S
C338 N335 1.350 . S
C338 C337 1.434 . S
C339 C340 1.369 . S
C339 C341 1.419 . S
C339 H343 0.930 . S
C340 C339 1.369 . S
C340 C349 1.429 . S
C341 C339 1.419 . S
C341 C342 1.363 . S
C341 H344 0.929 . S
C342 C341 1.363 . S
C342 C348 1.428 . S
H343 C339 0.930 . S
H344 C341 0.929 . S
S345 N346 1.613 . S
S345 N347 1.610 . S
N346 S345 1.613 . S
N346 C349 1.350 . S
N347 S345 1.610 . S
N347 C348 1.351 . S
C348 C342 1.428 . S
C348 N347 1.351 . S
C348 C349 1.434 . S
C349 C340 1.429 . S
C349 N346 1.350 . S
C349 C348 1.434 . S
C350 C351 1.369 . S
C350 C352 1.419 . S
C350 H354 0.930 . S
C351 C350 1.369 . S
C351 C360 1.429 . S
C352 C350 1.419 . S
C352 C353 1.363 . S
C352 H355 0.929 . S
C353 C352 1.363 . S
C353 C359 1.428 . S
H354 C350 0.930 . S
H355 C352 0.929 . S
S356 N357 1.613 1_455 S
S356 N358 1.610 1_455 S
N357 S356 1.613 1_655 S
N357 C360 1.350 . S
N358 S356 1.610 1_655 S
N358 C359 1.351 . S
C359 C353 1.428 . S
C359 N358 1.351 . S
C359 C360 1.434 . S
C360 C351 1.429 . S
C360 N357 1.350 . S
C360 C359 1.434 . S
C361 C362 1.369 . S
C361 C363 1.419 . S
C361 H365 0.930 . S
C362 C361 1.369 . S
C362 C371 1.429 . S
C363 C361 1.419 . S
C363 C364 1.363 . S
C363 H366 0.929 . S
C364 C363 1.363 . S
C364 C370 1.428 . S
H365 C361 0.930 . S
H366 C363 0.929 . S
S367 N368 1.613 . S
S367 N369 1.610 . S
N368 S367 1.613 . S
N368 C371 1.350 . S
N369 S367 1.610 . S
N369 C370 1.351 . S
C370 C364 1.428 . S
C370 N369 1.351 . S
C370 C371 1.434 . S
C371 C362 1.429 . S
C371 N368 1.350 . S
C371 C370 1.434 . S
C372 C373 1.369 . S
C372 C374 1.419 1_455 S
C372 H376 0.930 . S
C373 C372 1.369 . S
C373 C382 1.429 . S
C374 C372 1.419 1_655 S
C374 C375 1.363 . S
C374 H377 0.929 . S
C375 C374 1.363 . S
C375 C381 1.428 . S
H376 C372 0.930 . S
H377 C374 0.929 . S
S378 N379 1.613 1_655 S
S378 N380 1.610 . S
N379 S378 1.613 1_455 S
N379 C382 1.350 . S
N380 S378 1.610 . S
N380 C381 1.351 . S
C381 C375 1.428 . S
C381 N380 1.351 . S
C381 C382 1.434 1_655 S
C382 C373 1.429 . S
C382 N379 1.350 . S
C382 C381 1.434 1_455 S
C383 C384 1.369 . S
C383 C385 1.419 . S
C383 H387 0.930 . S
C384 C383 1.369 . S
C384 C393 1.429 . S
C385 C383 1.419 . S
C385 C386 1.363 . S
C385 H388 0.929 . S
C386 C385 1.363 . S
C386 C392 1.428 . S
H387 C383 0.930 . S
H388 C385 0.929 . S
S389 N390 1.613 . S
S389 N391 1.610 . S
N390 S389 1.613 . S
N390 C393 1.350 . S
N391 S389 1.610 . S
N391 C392 1.351 . S
C392 C386 1.428 . S
C392 N391 1.351 . S
C392 C393 1.434 . S
C393 C384 1.429 . S
C393 N390 1.350 . S
C393 C392 1.434 . S
C394 C395 1.369 . S
C394 C396 1.419 . S
C394 H398 0.930 . S
C395 C394 1.369 . S
C395 C404 1.429 1_545 S
C396 C394 1.419 . S
C396 C397 1.363 1_545 S
C396 H399 0.929 . S
C397 C396 1.363 1_565 S
C397 C403 1.428 . S
H398 C394 0.930 . S
H399 C396 0.929 . S
S400 N401 1.613 . S
S400 N402 1.610 . S
N401 S400 1.613 . S
N401 C404 1.350 . S
N402 S400 1.610 . S
N402 C403 1.351 . S
C403 C397 1.428 . S
C403 N402 1.351 . S
C403 C404 1.434 . S
C404 C395 1.429 1_565 S
C404 N401 1.350 . S
C404 C403 1.434 . S
C405 C406 1.369 . S
C405 C407 1.419 1_554 S
C405 H409 0.930 . S
C406 C405 1.369 . S
C406 C415 1.429 . S
C407 C405 1.419 1_556 S
C407 C408 1.363 . S
C407 H410 0.929 . S
C408 C407 1.363 . S
C408 C414 1.428 1_556 S
H409 C405 0.930 . S
H410 C407 0.929 . S
S411 N412 1.613 . S
S411 N413 1.610 . S
N412 S411 1.613 . S
N412 C415 1.350 . S
N413 S411 1.610 . S
N413 C414 1.351 . S
C414 C408 1.428 1_554 S
C414 N413 1.351 . S
C414 C415 1.434 . S
C415 C406 1.429 . S
C415 N412 1.350 . S
C415 C414 1.434 . S
C416 C417 1.369 1_554 S
C416 C418 1.419 1_565 S
C416 H420 0.930 . S
C417 C416 1.369 1_556 S
C417 C426 1.429 . S
C418 C416 1.419 1_545 S
C418 C419 1.363 . S
C418 H421 0.929 . S
C419 C418 1.363 . S
C419 C425 1.428 1_554 S
H420 C416 0.930 . S
H421 C418 0.929 . S
S422 N423 1.613 1_545 S
S422 N424 1.610 . S
N423 S422 1.613 1_565 S
N423 C426 1.350 . S
N424 S422 1.610 . S
N424 C425 1.351 . S
C425 C419 1.428 1_556 S
C425 N424 1.351 . S
C425 C426 1.434 1_545 S
C426 C417 1.429 . S
C426 N423 1.350 . S
C426 C425 1.434 1_565 S
C427 C428 1.369 . S
C427 C429 1.419 1_655 S
C427 H431 0.930 . S
C428 C427 1.369 . S
C428 C437 1.429 1_554 S
C429 C427 1.419 1_455 S
C429 C430 1.363 1_554 S
C429 H432 0.929 . S
C430 C429 1.363 1_556 S
C430 C436 1.428 . S
H431 C427 0.930 . S
H432 C429 0.929 . S
S433 N434 1.613 . S
S433 N435 1.610 1_655 S
N434 S433 1.613 . S
N434 C437 1.350 . S
N435 S433 1.610 1_455 S
N435 C436 1.351 . S
C436 C430 1.428 . S
C436 N435 1.351 . S
C436 C437 1.434 1_455 S
C437 C428 1.429 1_556 S
C437 N434 1.350 . S
C437 C436 1.434 1_655 S
C438 C439 1.369 . S
C438 C440 1.419 . S
C438 H442 0.930 . S
C439 C438 1.369 . S
C439 C448 1.429 . S
C440 C438 1.419 . S
C440 C441 1.363 . S
C440 H443 0.929 . S
C441 C440 1.363 . S
C441 C447 1.428 . S
H442 C438 0.930 . S
H443 C440 0.929 . S
S444 N445 1.613 . S
S444 N446 1.610 . S
N445 S444 1.613 . S
N445 C448 1.350 . S
N446 S444 1.610 . S
N446 C447 1.351 . S
C447 C441 1.428 . S
C447 N446 1.351 . S
C447 C448 1.434 . S
C448 C439 1.429 . S
C448 N445 1.350 . S
C448 C447 1.434 . S
C449 C450 1.369 . S
C449 C451 1.419 . S
C449 H453 0.930 . S
C450 C449 1.369 . S
C450 C459 1.429 . S
C451 C449 1.419 . S
C451 C452 1.363 . S
C451 H454 0.929 . S
C452 C451 1.363 . S
C452 C458 1.428 . S
H453 C449 0.930 . S
H454 C451 0.929 . S
S455 N456 1.613 . S
S455 N457 1.610 . S
N456 S455 1.613 . S
N456 C459 1.350 . S
N457 S455 1.610 . S
N457 C458 1.351 . S
C458 C452 1.428 . S
C458 N457 1.351 . S
C458 C459 1.434 . S
C459 C450 1.429 . S
C459 N456 1.350 . S
C459 C458 1.434 . S
C460 C461 1.369 . S
C460 C462 1.419 . S
C460 H464 0.930 . S
C461 C460 1.369 . S
C461 C470 1.429 . S
C462 C460 1.419 . S
C462 C463 1.363 . S
C462 H465 0.929 . S
C463 C462 1.363 . S
C463 C469 1.428 . S
H464 C460 0.930 . S
H465 C462 0.929 . S
S466 N467 1.613 . S
S466 N468 1.610 . S
N467 S466 1.613 . S
N467 C470 1.350 . S
N468 S466 1.610 . S
N468 C469 1.351 . S
C469 C463 1.428 . S
C469 N468 1.351 . S
C469 C470 1.434 . S
C470 C461 1.429 . S
C470 N467 1.350 . S
C470 C469 1.434 . S
C471 C472 1.369 . S
C471 C473 1.419 . S
C471 H475 0.930 . S
C472 C471 1.369 . S
C472 C481 1.429 . S
C473 C471 1.419 . S
C473 C474 1.363 . S
C473 H476 0.929 . S
C474 C473 1.363 . S
C474 C480 1.428 . S
H475 C471 0.930 . S
H476 C473 0.929 . S
S477 N478 1.613 . S
S477 N479 1.610 . S
N478 S477 1.613 . S
N478 C481 1.350 . S
N479 S477 1.610 . S
N479 C480 1.351 . S
C480 C474 1.428 . S
C480 N479 1.351 . S
C480 C481 1.434 . S
C481 C472 1.429 . S
C481 N478 1.350 . S
C481 C480 1.434 . S
C482 C483 1.369 . S
C482 C484 1.419 . S
C482 H486 0.930 . S
C483 C482 1.369 . S
C483 C492 1.429 . S
C484 C482 1.419 . S
C484 C485 1.363 . S
C484 H487 0.929 . S
C485 C484 1.363 . S
C485 C491 1.428 . S
H486 C482 0.930 . S
H487 C484 0.929 . S
S488 N489 1.613 . S
S488 N490 1.610 . S
N489 S488 1.613 . S
N489 C492 1.350 . S
N490 S488 1.610 . S
N490 C491 1.351 . S
C491 C485 1.428 . S
C491 N490 1.351 . S
C491 C492 1.434 . S
C492 C483 1.429 . S
C492 N489 1.350 . S
C492 C491 1.434 . S
C493 C494 1.369 . S
C493 C495 1.419 . S
C493 H497 0.930 . S
C494 C493 1.369 . S
C494 C503 1.429 . S
C495 C493 1.419 . S
C495 C496 1.363 . S
C495 H498 0.929 . S
C496 C495 1.363 . S
C496 C502 1.428 . S
H497 C493 0.930 . S
H498 C495 0.929 . S
S499 N500 1.613 . S
S499 N501 1.610 . S
N500 S499 1.613 . S
N500 C503 1.350 . S
N501 S499 1.610 . S
N501 C502 1.351 . S
C502 C496 1.428 . S
C502 N501 1.351 . S
C502 C503 1.434 . S
C503 C494 1.429 . S
C503 N500 1.350 . S
C503 C502 1.434 . S
C504 C505 1.369 1_455 S
C504 C506 1.419 . S
C504 H508 0.930 . S
C505 C504 1.369 1_655 S
C505 C514 1.429 . S
C506 C504 1.419 . S
C506 C507 1.363 . S
C506 H509 0.929 . S
C507 C506 1.363 . S
C507 C513 1.428 1_455 S
H508 C504 0.930 . S
H509 C506 0.929 . S
S510 N511 1.613 . S
S510 N512 1.610 . S
N511 S510 1.613 . S
N511 C514 1.350 . S
N512 S510 1.610 . S
N512 C513 1.351 . S
C513 C507 1.428 1_655 S
C513 N512 1.351 . S
C513 C514 1.434 . S
C514 C505 1.429 . S
C514 N511 1.350 . S
C514 C513 1.434 . S
C515 C516 1.369 . S
C515 C517 1.419 . S
C515 H519 0.930 . S
C516 C515 1.369 . S
C516 C525 1.429 . S
C517 C515 1.419 . S
C517 C518 1.363 . S
C517 H520 0.929 . S
C518 C517 1.363 . S
C518 C524 1.428 . S
H519 C515 0.930 . S
H520 C517 0.929 . S
S521 N522 1.613 . S
S521 N523 1.610 . S
N522 S521 1.613 . S
N522 C525 1.350 . S
N523 S521 1.610 . S
N523 C524 1.351 . S
C524 C518 1.428 . S
C524 N523 1.351 . S
C524 C525 1.434 . S
C525 C516 1.429 . S
C525 N522 1.350 . S
C525 C524 1.434 . S
C526 C527 1.369 . S
C526 C528 1.419 1_545 S
C526 H530 0.930 . S
C527 C526 1.369 . S
C527 C536 1.429 . S
C528 C526 1.419 1_565 S
C528 C529 1.363 . S
C528 H531 0.929 . S
C529 C528 1.363 . S
C529 C535 1.428 1_565 S
H530 C526 0.930 . S
H531 C528 0.929 . S
S532 N533 1.613 . S
S532 N534 1.610 . S
N533 S532 1.613 . S
N533 C536 1.350 . S
N534 S532 1.610 . S
N534 C535 1.351 . S
C535 C529 1.428 1_545 S
C535 N534 1.351 . S
C535 C536 1.434 . S
C536 C527 1.429 . S
C536 N533 1.350 . S
C536 C535 1.434 . S
C537 C538 1.369 . S
C537 C539 1.419 . S
C537 H541 0.930 . S
C538 C537 1.369 . S
C538 C547 1.429 . S
C539 C537 1.419 . S
C539 C540 1.363 . S
C539 H542 0.929 . S
C540 C539 1.363 . S
C540 C546 1.428 . S
H541 C537 0.930 . S
H542 C539 0.929 . S
S543 N544 1.613 . S
S543 N545 1.610 . S
N544 S543 1.613 . S
N544 C547 1.350 . S
N545 S543 1.610 . S
N545 C546 1.351 . S
C546 C540 1.428 . S
C546 N545 1.351 . S
C546 C547 1.434 . S
C547 C538 1.429 . S
C547 N544 1.350 . S
C547 C546 1.434 . S
C548 C549 1.369 . S
C548 C550 1.419 . S
C548 H552 0.930 . S
C549 C548 1.369 . S
C549 C558 1.429 . S
C550 C548 1.419 . S
C550 C551 1.363 . S
C550 H553 0.929 . S
C551 C550 1.363 . S
C551 C557 1.428 . S
H552 C548 0.930 . S
H553 C550 0.929 . S
S554 N555 1.613 . S
S554 N556 1.610 . S
N555 S554 1.613 . S
N555 C558 1.350 . S
N556 S554 1.610 . S
N556 C557 1.351 . S
C557 C551 1.428 . S
C557 N556 1.351 . S
C557 C558 1.434 . S
C558 C549 1.429 . S
C558 N555 1.350 . S
C558 C557 1.434 . S
C559 C560 1.369 . S
C559 C561 1.419 . S
C559 H563 0.930 . S
C560 C559 1.369 . S
C560 C569 1.429 . S
C561 C559 1.419 . S
C561 C562 1.363 . S
C561 H564 0.929 . S
C562 C561 1.363 . S
C562 C568 1.428 . S
H563 C559 0.930 . S
H564 C561 0.929 . S
S565 N566 1.613 . S
S565 N567 1.610 . S
N566 S565 1.613 . S
N566 C569 1.350 . S
N567 S565 1.610 . S
N567 C568 1.351 . S
C568 C562 1.428 . S
C568 N567 1.351 . S
C568 C569 1.434 . S
C569 C560 1.429 . S
C569 N566 1.350 . S
C569 C568 1.434 . S
C570 C571 1.369 . S
C570 C572 1.419 . S
C570 H574 0.930 . S
C571 C570 1.369 . S
C571 C580 1.429 . S
C572 C570 1.419 . S
C572 C573 1.363 . S
C572 H575 0.929 . S
C573 C572 1.363 . S
C573 C579 1.428 . S
H574 C570 0.930 . S
H575 C572 0.929 . S
S576 N577 1.613 . S
S576 N578 1.610 . S
N577 S576 1.613 . S
N577 C580 1.350 . S
N578 S576 1.610 . S
N578 C579 1.351 . S
C579 C573 1.428 . S
C579 N578 1.351 . S
C579 C580 1.434 . S
C580 C571 1.429 . S
C580 N577 1.350 . S
C580 C579 1.434 . S
C581 C582 1.369 . S
C581 C583 1.419 . S
C581 H585 0.930 . S
C582 C581 1.369 . S
C582 C591 1.429 . S
C583 C581 1.419 . S
C583 C584 1.363 . S
C583 H586 0.929 . S
C584 C583 1.363 . S
C584 C590 1.428 . S
H585 C581 0.930 . S
H586 C583 0.929 . S
S587 N588 1.613 . S
S587 N589 1.610 . S
N588 S587 1.613 . S
N588 C591 1.350 . S
N589 S587 1.610 . S
N589 C590 1.351 . S
C590 C584 1.428 . S
C590 N589 1.351 . S
C590 C591 1.434 . S
C591 C582 1.429 . S
C591 N588 1.350 . S
C591 C590 1.434 . S
C592 C593 1.369 . S
C592 C594 1.419 . S
C592 H596 0.930 . S
C593 C592 1.369 . S
C593 C602 1.429 . S
C594 C592 1.419 . S
C594 C595 1.363 . S
C594 H597 0.929 . S
C595 C594 1.363 . S
C595 C601 1.428 . S
H596 C592 0.930 . S
H597 C594 0.929 . S
S598 N599 1.613 . S
S598 N600 1.610 . S
N599 S598 1.613 . S
N599 C602 1.350 . S
N600 S598 1.610 . S
N600 C601 1.351 . S
C601 C595 1.428 . S
C601 N600 1.351 . S
C601 C602 1.434 . S
C602 C593 1.429 . S
C602 N599 1.350 . S
C602 C601 1.434 . S
C307 C29 1.932 . S
C309 C267 1.941 . S
C318 C51 1.932 . S
C320 C289 1.927 . S
C329 C97 1.933 . S
C331 C221 1.932 . S
C340 C153 1.893 . S
C342 C85 1.883 . S
C351 C187 1.911 . S
C353 C17 1.914 . S
C362 C63 1.923 . S
C364 C119 1.931 . S
C373 C255 1.937 . S
C375 C199 1.938 . S
C384 C301 1.955 . S
C386 C131 1.955 . S
C395 C165 1.983 . S
C397 C233 1.979 . S
C406 C68 1.389 . S
C408 C8 1.396 . S
C417 C34 1.406 . S
C419 C0 1.400 . S
C428 C42 1.408 . S
C430 C76 1.415 . S
C439 C102 1.401 . S
C441 C178 1.413 . S
C450 C110 1.411 . S
C452 C136 1.407 . S
C461 C144 1.409 . S
C463 C170 1.405 . S
C472 C272 1.417 . S
C474 C212 1.428 . S
C483 C238 1.401 . S
C485 C204 1.406 . S
C494 C280 1.414 . S
C496 C246 1.411 . S
C505 C13 1.378 . S
C507 C4 1.368 . S
C516 C38 1.348 . S
C518 C47 1.336 . S
C527 C81 1.333 . S
C529 C72 1.324 . S
C538 C115 1.365 . S
C540 C106 1.371 . S
C549 C149 1.361 . S
C551 C140 1.349 . S
C560 C183 1.348 . S
C562 C174 1.338 . S
C571 C217 1.385 . S
C573 C208 1.378 . S
C582 C251 1.361 . S
C584 C242 1.373 . S
C593 C285 1.342 . S
C595 C276 1.333 . S
