# Generated by pormake.
# Topology crs, (6)-cn, num edge types: 1
# Building blocks:
#     Node 0, Type 0, BuildingBlock: KUMBUR_clean_sbu_0, # of connection points: 6
#     Node 1, Type 0, BuildingBlock: KUMBUR_clean_sbu_0, # of connection points: 6
#     Node 2, Type 0, BuildingBlock: KUMBUR_clean_sbu_0, # of connection points: 6
#     Node 3, Type 0, BuildingBlock: KUMBUR_clean_sbu_0, # of connection points: 6
#     Node 4, Type 0, BuildingBlock: KUMBUR_clean_sbu_0, # of connection points: 6
#     Node 5, Type 0, BuildingBlock: KUMBUR_clean_sbu_0, # of connection points: 6
#     Node 6, Type 0, BuildingBlock: KUMBUR_clean_sbu_0, # of connection points: 6
#     Node 7, Type 0, BuildingBlock: KUMBUR_clean_sbu_0, # of connection points: 6
#     Node 8, Type 0, BuildingBlock: KUMBUR_clean_sbu_0, # of connection points: 6
#     Node 9, Type 0, BuildingBlock: KUMBUR_clean_sbu_0, # of connection points: 6
#     Node 10, Type 0, BuildingBlock: KUMBUR_clean_sbu_0, # of connection points: 6
#     Node 11, Type 0, BuildingBlock: KUMBUR_clean_sbu_0, # of connection points: 6
#     Node 12, Type 0, BuildingBlock: KUMBUR_clean_sbu_0, # of connection points: 6
#     Node 13, Type 0, BuildingBlock: KUMBUR_clean_sbu_0, # of connection points: 6
#     Node 14, Type 0, BuildingBlock: KUMBUR_clean_sbu_0, # of connection points: 6
#     Node 15, Type 0, BuildingBlock: KUMBUR_clean_sbu_0, # of connection points: 6
#     Edge 16, Type (0, 0), None
#     Edge 17, Type (0, 0), None
#     Edge 18, Type (0, 0), None
#     Edge 19, Type (0, 0), None
#     Edge 20, Type (0, 0), None
#     Edge 21, Type (0, 0), None
#     Edge 22, Type (0, 0), None
#     Edge 23, Type (0, 0), None
#     Edge 24, Type (0, 0), None
#     Edge 25, Type (0, 0), None
#     Edge 26, Type (0, 0), None
#     Edge 27, Type (0, 0), None
#     Edge 28, Type (0, 0), None
#     Edge 29, Type (0, 0), None
#     Edge 30, Type (0, 0), None
#     Edge 31, Type (0, 0), None
#     Edge 32, Type (0, 0), None
#     Edge 33, Type (0, 0), None
#     Edge 34, Type (0, 0), None
#     Edge 35, Type (0, 0), None
#     Edge 36, Type (0, 0), None
#     Edge 37, Type (0, 0), None
#     Edge 38, Type (0, 0), None
#     Edge 39, Type (0, 0), None
#     Edge 40, Type (0, 0), None
#     Edge 41, Type (0, 0), None
#     Edge 42, Type (0, 0), None
#     Edge 43, Type (0, 0), None
#     Edge 44, Type (0, 0), None
#     Edge 45, Type (0, 0), None
#     Edge 46, Type (0, 0), None
#     Edge 47, Type (0, 0), None
#     Edge 48, Type (0, 0), None
#     Edge 49, Type (0, 0), None
#     Edge 50, Type (0, 0), None
#     Edge 51, Type (0, 0), None
#     Edge 52, Type (0, 0), None
#     Edge 53, Type (0, 0), None
#     Edge 54, Type (0, 0), None
#     Edge 55, Type (0, 0), None
#     Edge 56, Type (0, 0), None
#     Edge 57, Type (0, 0), None
#     Edge 58, Type (0, 0), None
#     Edge 59, Type (0, 0), None
#     Edge 60, Type (0, 0), None
#     Edge 61, Type (0, 0), None
#     Edge 62, Type (0, 0), None
#     Edge 63, Type (0, 0), None
# Relax obj value: 0.311
# Max RMSD: 0.325
# Mean RMSD: 0.266
data_MOF--net-crs--node1-KUMBUR_clean_sbu_0--edge1-none
_symmetry_space_group_name_H-M    P1
_symmetry_Int_Tables_number       1
_symmetry_cell_setting            triclinic
loop_
_symmetry_equiv_pos_as_xyz
'x, y, z'
_cell_length_a     32.214781
_cell_length_b     31.345777
_cell_length_c     20.973015
_cell_angle_alpha  64.802974
_cell_angle_beta   62.791328
_cell_angle_gamma 55.717422
loop_
_atom_site_label
_atom_site_type_symbol
_atom_site_fract_x
_atom_site_fract_y
_atom_site_fract_z
_atom_type_partial_charge
Tb0 Tb 0.97363 0.99876 0.08251 0.0
C1 C 0.07344 0.063 0.76093 0.0
C2 C 0.16504 1.00307 0.75135 0.0
C3 C 0.13809 0.05626 0.64032 0.0
C4 C 0.11237 1.02706 0.79396 0.0
C5 C 0.08561 0.07631 0.68358 0.0
C6 C 0.17801 1.01939 0.67436 0.0
C7 C 0.99346 0.12636 0.69823 0.0
N8 N 0.02325 0.08275 0.8049 0.0
C9 C 0.98349 0.11676 0.77355 0.0
C10 C 0.04454 0.1065 0.65251 0.0
Tb11 Tb 0.01432 0.07157 0.92496 0.0
N12 N 0.09732 1.01082 0.86795 0.0
C13 C 0.13156 0.96333 0.90064 0.0
C14 C 0.20213 0.96043 0.78714 0.0
C15 C 0.18492 0.93923 0.86184 0.0
H16 H 0.94456 0.13915 0.80583 0.0
H17 H 0.21242 0.90307 0.88886 0.0
H18 H 0.21812 1.00066 0.64108 0.0
H19 H 0.96155 0.15178 0.67506 0.0
H20 H 0.11837 0.94478 0.95744 0.0
H21 H 0.77558 0.16741 0.11825 0.0
H22 H 0.24298 0.9406 0.75667 0.0
H23 H 0.04326 0.93154 0.20185 0.0
H24 H 0.86964 0.12559 0.04982 0.0
H25 H 0.026 0.919 0.33275 0.0
H26 H 0.14748 0.06603 0.58093 0.0
H27 H 0.74486 0.1299 0.2504 0.0
H28 H 0.76958 0.06983 0.3661 0.0
H29 H 0.05176 0.11535 0.59361 0.0
H30 H 0.84013 1.00453 0.42641 0.0
N31 N 0.89058 0.05956 0.13938 0.0
C32 C 0.8564 0.10707 0.10662 0.0
C33 C 0.78573 0.11004 0.22 0.0
C34 C 0.82276 0.06737 0.25588 0.0
C35 C 0.80302 0.13123 0.14533 0.0
C36 C 0.87545 0.04335 0.21336 0.0
H37 H 0.93578 0.95521 0.41397 0.0
N38 N 0.96455 0.98775 0.20261 0.0
C39 C -0.00582 0.94436 0.30941 0.0
C40 C 0.91433 1.00745 0.24649 0.0
C41 C 0.00427 0.9539 0.23405 0.0
C42 C 0.94307 0.96408 0.35504 0.0
C43 C 0.90207 0.99419 0.32385 0.0
O44 O -0.00126 0.91793 0.14194 0.0
O45 O 0.02044 0.99265 0.96977 0.0
O46 O 0.94055 0.0791 0.92043 0.0
O47 O 0.91236 1.0296 0.03628 0.0
O48 O 0.0199 0.99222 0.97096 0.0
O49 O 0.93759 0.95961 0.08876 0.0
O50 O 0.9892 0.15244 0.86573 0.0
O51 O 0.96752 0.07769 0.03768 0.0
O52 O 0.04743 0.99117 0.08701 0.0
O53 O 0.07562 0.04068 0.97117 0.0
O54 O 0.96805 0.07811 0.03652 0.0
O55 O 0.05051 0.1106 0.91867 0.0
C56 C 0.02063 0.969 0.93108 0.0
C57 C 0.93042 0.89191 0.18692 0.0
C58 C 0.88954 0.8404 0.20697 0.0
C59 C 0.91538 0.87085 0.15983 0.0
C60 C 0.87148 0.8375 0.28292 0.0
C61 C 0.91241 0.88997 0.26225 0.0
C62 C 0.8813 0.86411 0.31002 0.0
C63 C 0.90856 0.05697 0.96942 0.0
C64 C 0.96301 0.91656 0.13057 0.0
C65 C 0.84957 1.01425 0.36701 0.0
C66 C 0.8097 0.05108 0.33288 0.0
C67 C 0.96736 0.10127 0.07643 0.0
C68 C 0.05755 0.17843 0.82062 0.0
C69 C 0.07256 0.19956 0.84764 0.0
C70 C 0.09832 0.23008 0.80045 0.0
C71 C 0.11636 0.23296 0.72451 0.0
C72 C 0.07552 0.18037 0.74529 0.0
C73 C 0.10657 0.2063 0.69745 0.0
C74 C 0.07943 1.01329 0.03801 0.0
C75 C 0.02502 0.15373 0.877 0.0
H76 H 0.92876 0.87346 0.10108 0.0
H77 H 0.85215 0.81311 0.32097 0.0
H78 H 0.92269 0.90734 0.28394 0.0
H79 H 0.86717 0.86239 0.3684 0.0
H80 H 0.05919 0.19695 0.90639 0.0
H81 H 0.13563 0.2574 0.68642 0.0
H82 H 0.06527 0.16295 0.72363 0.0
H83 H 0.12067 0.20803 0.63908 0.0
Tb84 Tb 0.98707 0.3035 0.32337 0.0
C85 C 0.91042 0.25522 0.21336 0.0
C86 C 0.91114 0.18542 0.32537 0.0
C87 C 0.83224 0.26016 0.29871 0.0
C88 C 0.93796 0.20999 0.26271 0.0
C89 C 0.8584 0.27208 0.22654 0.0
C90 C 0.85855 0.21457 0.34606 0.0
C91 C 0.86106 0.33339 0.10852 0.0
N92 N 0.92995 0.28871 0.163 0.0
C93 C 0.90789 0.32604 0.10752 0.0
C94 C 0.83354 0.30971 0.17273 0.0
Tb95 Tb 0.00086 0.26693 0.18396 0.0
N96 N 0.98574 0.1983 0.25977 0.0
C97 C 0.01344 0.15286 0.30402 0.0
C98 C 0.9358 0.14395 0.37768 0.0
C99 C 0.98762 0.12702 0.36592 0.0
H100 H 0.92636 0.34978 0.06345 0.0
H101 H 0.0055 0.09752 0.408 0.0
H102 H 0.84065 0.20777 0.40394 0.0
H103 H 0.84555 0.35988 0.06253 0.0
H104 H 0.05474 0.13468 0.29295 0.0
H105 H 0.9823 0.473 0.09937 0.0
H106 H 0.91436 0.12751 0.42993 0.0
H107 H 0.06169 0.22069 0.44368 0.0
H108 H 0.93311 0.43583 0.21455 0.0
H109 H 0.14255 0.21059 0.44435 0.0
H110 H 0.79454 0.28958 0.31995 0.0
H111 H 0.0735 0.44293 0.07714 0.0
H112 H 0.14728 0.36269 0.10273 0.0
H113 H 0.79394 0.31954 0.18108 0.0
H114 H 0.19345 0.2807 0.18662 0.0
N115 N 0.00219 0.37214 0.24749 0.0
C116 C 0.97443 0.41763 0.20335 0.0
C117 C 0.05209 0.42646 0.1294 0.0
C118 C 0.07684 0.3849 0.18155 0.0
C119 C 0.00023 0.44346 0.14137 0.0
C120 C 0.05002 0.36044 0.24439 0.0
H121 H 0.19427 0.25059 0.32544 0.0
N122 N 0.05804 0.28175 0.34412 0.0
C123 C 0.12705 0.23701 0.39834 0.0
C124 C 0.07761 0.31518 0.29363 0.0
C125 C 0.08016 0.24441 0.39953 0.0
C126 C 0.1546 0.26055 0.33396 0.0
C127 C 0.12969 0.29817 0.28018 0.0
O128 O 0.97468 0.2975 0.43481 0.0
O129 O 0.94438 0.27625 0.30268 0.0
O130 O 0.93098 0.35365 0.18001 0.0
O131 O 0.91267 0.3659 0.29206 0.0
O132 O 0.92312 0.28283 0.40373 0.0
O133 O 0.95682 0.37283 0.35903 0.0
O134 O 0.01337 0.27282 0.07251 0.0
O135 O 0.04362 0.29417 0.2046 0.0
O136 O 0.05689 0.21674 0.32737 0.0
O137 O 0.07529 0.20457 0.21522 0.0
O138 O 0.06455 0.28785 0.10374 0.0
O139 O 0.03115 0.19753 0.14838 0.0
C140 C 0.90409 0.2775 0.36637 0.0
C141 C 0.99247 0.35851 0.45094 0.0
C142 C 0.01686 0.41868 0.45868 0.0
C143 C 0.99108 0.40903 0.42954 0.0
C144 C 0.0481 0.37618 0.50318 0.0
C145 C 0.02128 0.31885 0.50078 0.0
C146 C 0.04916 0.32714 0.52551 0.0
C147 C 0.89694 0.38103 0.23372 0.0
C148 C 0.96384 0.34667 0.42373 0.0
C149 C 0.15576 0.31006 0.20791 0.0
C150 C 0.12941 0.3557 0.16065 0.0
C151 C 0.08391 0.29299 0.14087 0.0
C152 C -0.00439 0.21181 0.05633 0.0
C153 C -0.00317 0.16134 0.0778 0.0
C154 C 0.97104 0.15179 0.04852 0.0
C155 C 0.93994 0.19434 0.00388 0.0
C156 C 0.96695 0.25148 0.00633 0.0
C157 C 0.93906 0.24329 0.98148 0.0
C158 C 0.09099 0.18941 0.27361 0.0
C159 C 0.02419 0.22365 0.08364 0.0
H160 H 0.97082 0.44038 0.38971 0.0
H161 H 0.07138 0.3811 0.52141 0.0
H162 H 0.02447 0.28008 0.51907 0.0
H163 H 0.07217 0.29503 0.56197 0.0
H164 H 0.01691 0.13 0.11782 0.0
H165 H 0.91658 0.18954 0.98565 0.0
H166 H 0.96385 0.29021 0.98807 0.0
H167 H 0.91616 0.27543 0.94492 0.0
Tb168 Tb 0.72458 0.27479 0.44777 0.0
C169 C 0.73001 0.3325 0.70519 0.0
C170 C 0.6557 0.41811 0.7026 0.0
C171 C 0.67693 0.365 0.81714 0.0
C172 C 0.70072 0.37889 0.66456 0.0
C173 C 0.72315 0.32886 0.7785 0.0
C174 C 0.64203 0.40891 0.77931 0.0
C175 C 0.80338 0.24969 0.7712 0.0
N176 N 0.76146 0.28885 0.67659 0.0
C177 C 0.79697 0.24608 0.71197 0.0
C178 C 0.76267 0.28801 0.81023 0.0
Tb179 Tb 0.76322 0.29561 0.55952 0.0
N180 N 0.70823 0.38075 0.59362 0.0
C181 C 0.67694 0.429 0.55518 0.0
C182 C 0.6223 0.46281 0.66432 0.0
C183 C 0.63587 0.47052 0.58933 0.0
H184 H 0.8248 0.21256 0.68816 0.0
H185 H 0.61051 0.50642 0.55972 0.0
H186 H 0.60543 0.43649 0.80922 0.0
H187 H 0.8385 0.22214 0.78834 0.0
H188 H 0.67456 0.43498 0.50269 0.0
H189 H 0.87744 0.06398 0.44797 0.0
H190 H 0.58529 0.49105 0.69248 0.0
H191 H 0.66299 0.35764 0.31932 0.0
H192 H 0.8135 0.13562 0.5047 0.0
H193 H 0.6495 0.34805 0.21892 0.0
H194 H 0.66779 0.35903 0.87589 0.0
H195 H 0.90265 0.07916 0.31524 0.0
H196 H 0.88251 0.1336 0.19847 0.0
H197 H 0.76291 0.28668 0.86256 0.0
H198 H 0.82023 0.21104 0.13168 0.0
N199 N 0.77976 0.18963 0.41383 0.0
C200 C 0.81106 0.14145 0.45232 0.0
C201 C 0.86566 0.10747 0.34334 0.0
C202 C 0.83231 0.15217 0.30498 0.0
C203 C 0.85209 0.09986 0.4183 0.0
C204 C 0.78734 0.19147 0.34289 0.0
H205 H 0.72517 0.28344 0.14485 0.0
N206 N 0.72637 0.28144 0.33084 0.0
C207 C 0.68459 0.32052 0.23614 0.0
C208 C 0.75799 0.2378 0.30223 0.0
C209 C 0.69088 0.32416 0.29544 0.0
C210 C 0.72536 0.28217 0.19718 0.0
C211 C 0.76487 0.24135 0.22896 0.0
O212 O 0.6462 0.32515 0.44398 0.0
O213 O 0.69466 0.28635 0.55984 0.0
O214 O 0.75882 0.21257 0.6257 0.0
O215 O 0.7379 0.20268 0.5424 0.0
O216 O 0.6487 0.30008 0.52962 0.0
O217 O 0.685 0.23957 0.44996 0.0
O218 O 0.8416 0.2449 0.56358 0.0
O219 O 0.79329 0.28346 0.44708 0.0
O220 O 0.72921 0.3577 0.38145 0.0
O221 O 0.74974 0.36772 0.46502 0.0
O222 O 0.83974 0.27299 0.47867 0.0
O223 O 0.80288 0.33055 0.55774 0.0
C224 C 0.64451 0.28957 0.59873 0.0
C225 C 0.60812 0.29265 0.40986 0.0
C226 C 0.58901 0.26967 0.33197 0.0
C227 C 0.62455 0.26036 0.36351 0.0
C228 C 0.53676 0.3084 0.35124 0.0
C229 C 0.55551 0.32971 0.42947 0.0
C230 C 0.5199 0.33549 0.40293 0.0
C231 C 0.74894 0.18264 0.60666 0.0
C232 C 0.64191 0.28457 0.44752 0.0
C233 C 0.81108 0.20514 0.19041 0.0
C234 C 0.84596 0.16125 0.2283 0.0
C235 C 0.84324 0.28081 0.41105 0.0
C236 C 0.87985 0.27748 0.59758 0.0
C237 C 0.86347 0.3098 0.64389 0.0
C238 C 0.89908 0.30057 0.67524 0.0
C239 C 0.95134 0.26191 0.65581 0.0
C240 C 0.93249 0.24056 0.57773 0.0
C241 C 0.96815 0.23485 0.60411 0.0
C242 C 0.73894 0.38769 0.40064 0.0
C243 C 0.84594 0.28547 0.56014 0.0
H244 H 0.66376 0.22764 0.35363 0.0
H245 H 0.50769 0.31379 0.33199 0.0
H246 H 0.54133 0.35311 0.4676 0.0
H247 H 0.47869 0.36165 0.42228 0.0
H248 H 0.82423 0.34247 0.6539 0.0
H249 H 0.98044 0.25655 0.67495 0.0
H250 H 0.94664 0.21718 0.53958 0.0
H251 H 0.00936 0.20873 0.58465 0.0
Tb252 Tb 0.72467 0.03516 0.69489 0.0
C253 C 0.81336 0.1034 0.77211 0.0
C254 C 0.88927 0.08251 0.66642 0.0
C255 C 0.88181 0.12275 0.74906 0.0
C256 C 0.8446 0.07651 0.71615 0.0
C257 C 0.83234 0.12558 0.79032 0.0
C258 C 0.90897 0.10416 0.68424 0.0
C259 C 0.74987 0.15721 0.88321 0.0
N260 N 0.7659 0.10474 0.81181 0.0
C261 C 0.73257 0.13362 0.8642 0.0
C262 C 0.80073 0.15046 0.84899 0.0
Tb263 Tb 0.76323 0.03518 0.81248 0.0
N264 N 0.82917 0.04764 0.70796 0.0
C265 C 0.85007 0.03488 0.64075 0.0
C266 C 0.91221 0.06737 0.60017 0.0
C267 C 0.89182 0.04406 0.58692 0.0
H268 H 0.69609 0.13192 0.89852 0.0
H269 H 0.91015 1.03074 0.53674 0.0
H270 H 0.94454 0.10672 0.64711 0.0
H271 H 0.72609 0.17673 0.92848 0.0
H272 H 0.83269 1.02184 0.62471 0.0
H273 H 0.57798 0.03943 0.97089 0.0
H274 H 0.94592 0.07279 0.55938 0.0
H275 H 0.79178 0.93839 0.60897 0.0
H276 H 0.65528 0.04852 0.88269 0.0
H277 H 0.76174 0.89359 0.57907 0.0
H278 H 0.89491 0.14131 0.76261 0.0
H279 H 0.54219 0.99733 0.94838 0.0
H280 H 0.54354 0.9633 0.86082 0.0
H281 H 0.81542 0.16373 0.86998 0.0
H282 H 0.59309 0.92871 0.74531 0.0
N283 N 0.65875 1.02272 0.7995 0.0
C284 C 0.63787 0.03549 0.86669 0.0
C285 C 0.57583 1.00284 0.90749 0.0
C286 C 0.59868 0.98776 0.84121 0.0
C287 C 0.59621 1.0262 0.92064 0.0
C288 C 0.64329 0.99385 0.79136 0.0
H289 H 0.67238 0.90664 0.63759 0.0
N290 N 0.72197 0.96558 0.69569 0.0
C291 C 0.73797 0.91313 0.62431 0.0
C292 C 0.6745 0.96695 0.7354 0.0
C293 C 0.75529 0.93671 0.64329 0.0
C294 C 0.6871 0.91988 0.65857 0.0
C295 C 0.65552 0.94474 0.71726 0.0
O296 O 0.7425 0.03944 0.58264 0.0
O297 O 0.74657 0.08606 0.70849 0.0
O298 O 0.67923 0.11285 0.8139 0.0
O299 O 0.65386 0.10606 0.73303 0.0
O300 O 0.74054 0.10426 0.61436 0.0
O301 O 0.66217 0.06754 0.65129 0.0
O302 O 0.7454 1.03088 0.92474 0.0
O303 O 0.74123 0.98433 0.79894 0.0
O304 O 0.80866 0.95753 0.69342 0.0
O305 O 0.83405 0.9643 0.77429 0.0
O306 O 0.74748 0.96599 0.89292 0.0
O307 O 0.82573 1.00277 0.85609 0.0
C308 C 0.7456 0.12583 0.64939 0.0
C309 C 0.68202 0.03401 0.55109 0.0
C310 C 0.6288 1.00148 0.54648 0.0
C311 C 0.63252 0.03499 0.57125 0.0
C312 C 0.67517 0.96795 0.50326 0.0
C313 C 0.72345 1.00743 0.49602 0.0
C314 C 0.7203 0.9742 0.47285 0.0
C315 C 0.64346 0.13359 0.7768 0.0
C316 C 0.69332 0.05793 0.58669 0.0
C317 C 0.60611 0.94745 0.75868 0.0
C318 C 0.57901 0.96601 0.82353 0.0
C319 C 0.74233 0.94446 0.85793 0.0
C320 C 0.80593 0.03624 0.95631 0.0
C321 C 0.85546 0.03522 0.93615 0.0
C322 C 0.85919 0.06871 0.96093 0.0
C323 C 0.81284 0.10227 0.00412 0.0
C324 C 0.76452 0.06282 0.0114 0.0
C325 C 0.76769 0.09603 0.03455 0.0
C326 C 0.84444 0.93677 0.73052 0.0
C327 C 0.79459 1.01237 0.92069 0.0
H328 H 0.59825 0.05979 0.60727 0.0
H329 H 0.67684 0.93583 0.49416 0.0
H330 H 0.76068 1.00713 0.47736 0.0
H331 H 0.75456 0.94972 0.43611 0.0
H332 H 0.88972 1.01041 0.90013 0.0
H333 H 0.81118 0.13442 0.01311 0.0
H334 H 0.72728 0.06313 0.03008 0.0
H335 H 0.73345 0.12053 0.07128 0.0
Tb336 Tb 0.48711 0.80347 0.32333 0.0
C337 C 0.41037 0.75523 0.21358 0.0
C338 C 0.4112 0.68544 0.32559 0.0
C339 C 0.33225 0.7603 0.2993 0.0
C340 C 0.43799 0.70995 0.26278 0.0
C341 C 0.3583 0.77219 0.22703 0.0
C342 C 0.35864 0.71468 0.34655 0.0
C343 C 0.36087 0.83343 0.10894 0.0
N344 N 0.4299 0.7887 0.16314 0.0
C345 C 0.40776 0.82605 0.10775 0.0
C346 C 0.33336 0.80984 0.17329 0.0
Tb347 Tb 0.50085 0.76696 0.18396 0.0
N348 N 0.48583 0.69824 0.25965 0.0
C349 C 0.51361 0.65273 0.30373 0.0
C350 C 0.43598 0.64385 0.3777 0.0
C351 C 0.48786 0.62685 0.36568 0.0
H352 H 0.42621 0.84979 0.06361 0.0
H353 H 0.50582 0.59727 0.40763 0.0
H354 H 0.34082 0.70769 0.40446 0.0
H355 H 0.34532 0.8599 0.06298 0.0
H356 H 0.55494 0.63454 0.29248 0.0
H357 H 0.48218 0.97316 0.09964 0.0
H358 H 0.4146 0.62738 0.42998 0.0
H359 H 0.56173 0.72066 0.44367 0.0
H360 H 0.43305 0.93587 0.21478 0.0
H361 H 0.64261 0.71055 0.4443 0.0
H362 H 0.29452 0.78963 0.3206 0.0
H363 H 0.57341 0.94306 0.07728 0.0
H364 H 0.64723 0.86278 0.10274 0.0
H365 H 0.2937 0.81977 0.18183 0.0
H366 H 0.69347 0.78077 0.18657 0.0
N367 N 0.50218 0.87215 0.24756 0.0
C368 C 0.47438 0.91768 0.20352 0.0
C369 C 0.55202 0.92655 0.12954 0.0
C370 C 0.57681 0.88494 0.18162 0.0
C371 C 0.50014 0.94356 0.14157 0.0
C372 C 0.55001 0.86045 0.24445 0.0
H373 H 0.6943 0.75059 0.32539 0.0
N374 N 0.55806 0.78173 0.34411 0.0
C375 C 0.62709 0.73699 0.39831 0.0
C376 C 0.57762 0.81517 0.29364 0.0
C377 C 0.58019 0.74439 0.39952 0.0
C378 C 0.65463 0.76054 0.33393 0.0
C379 C 0.62971 0.79817 0.28017 0.0
O380 O 0.47471 0.79742 0.43481 0.0
O381 O 0.44433 0.77622 0.30271 0.0
O382 O 0.43103 0.8537 0.17995 0.0
O383 O 0.41268 0.86587 0.29208 0.0
O384 O 0.42336 0.78262 0.40352 0.0
O385 O 0.4568 0.87277 0.3591 0.0
O386 O 0.51324 0.77297 0.07251 0.0
O387 O 0.54363 0.79418 0.20459 0.0
O388 O 0.55691 0.71671 0.32737 0.0
O389 O 0.57529 0.70457 0.21522 0.0
O390 O 0.56456 0.78785 0.10376 0.0
O391 O 0.5312 0.69762 0.14823 0.0
C392 C 0.40402 0.77744 0.3664 0.0
C393 C 0.49245 0.85843 0.45104 0.0
C394 C 0.51685 0.9186 0.45881 0.0
C395 C 0.49108 0.90895 0.42964 0.0
C396 C 0.54805 0.8761 0.50337 0.0
C397 C 0.52125 0.81878 0.5009 0.0
C398 C 0.54909 0.82707 0.52569 0.0
C399 C 0.39696 0.88104 0.23369 0.0
C400 C 0.46385 0.84659 0.42378 0.0
C401 C 0.65575 0.8101 0.2079 0.0
C402 C 0.62937 0.85575 0.16066 0.0
C403 C 0.58392 0.79301 0.14088 0.0
C404 C 0.49549 0.71192 0.05639 0.0
C405 C 0.49684 0.6614 0.07786 0.0
C406 C 0.47105 0.65174 0.04875 0.0
C407 C 0.43985 0.69422 0.00418 0.0
C408 C 0.4667 0.75155 0.00652 0.0
C409 C 0.43882 0.74325 0.9818 0.0
C410 C 0.59099 0.68938 0.27362 0.0
C411 C 0.52412 0.72379 0.08356 0.0
H412 H 0.47083 0.9403 0.38979 0.0
H413 H 0.57131 0.88102 0.52163 0.0
H414 H 0.52445 0.78 0.51914 0.0
H415 H 0.57207 0.79496 0.56218 0.0
H416 H 0.51709 0.63006 0.11771 0.0
H417 H 0.41657 0.6893 0.98596 0.0
H418 H 0.46352 0.79033 0.98821 0.0
H419 H 0.41584 0.77535 0.9453 0.0
Tb420 Tb 0.22457 0.77474 0.44769 0.0
C421 C 0.22975 0.83262 0.70532 0.0
C422 C 0.15547 0.91823 0.70257 0.0
C423 C 0.17674 0.86527 0.81712 0.0
C424 C 0.20045 0.87896 0.66466 0.0
C425 C 0.22293 0.82906 0.77856 0.0
C426 C 0.14184 0.90915 0.77925 0.0
C427 C 0.30315 0.74987 0.77136 0.0
N428 N 0.26125 0.78898 0.67676 0.0
C429 C 0.29674 0.74622 0.71218 0.0
C430 C 0.26246 0.78824 0.8103 0.0
Tb431 Tb 0.26327 0.79571 0.55963 0.0
N432 N 0.20804 0.8808 0.59371 0.0
C433 C 0.17678 0.92899 0.5552 0.0
C434 C 0.12212 0.96293 0.66421 0.0
C435 C 0.13572 0.97056 0.58923 0.0
H436 H 0.32455 0.71268 0.68841 0.0
H437 H 0.11039 1.00645 0.55957 0.0
H438 H 0.10529 0.93679 0.80908 0.0
H439 H 0.33826 0.72232 0.78852 0.0
H440 H 0.17444 0.9349 0.50271 0.0
H441 H 0.37747 0.56397 0.44779 0.0
H442 H 0.08514 0.99124 0.6923 0.0
H443 H 0.16299 0.85761 0.31928 0.0
H444 H 0.31342 0.63554 0.50463 0.0
H445 H 0.14953 0.84797 0.21893 0.0
H446 H 0.16762 0.85937 0.87584 0.0
H447 H 0.40283 0.57922 0.315 0.0
H448 H 0.38276 0.63376 0.19815 0.0
H449 H 0.26271 0.78697 0.86259 0.0
H450 H 0.32042 0.7112 0.13139 0.0
N451 N 0.27994 0.6897 0.41355 0.0
C452 C 0.31113 0.64148 0.4521 0.0
C453 C 0.36586 0.60756 0.34307 0.0
C454 C 0.33257 0.65231 0.30466 0.0
C455 C 0.35221 0.59991 0.41807 0.0
C456 C 0.28759 0.69159 0.34256 0.0
H457 H 0.22528 0.78349 0.1447 0.0
N458 N 0.22656 0.78152 0.33061 0.0
C459 C 0.18466 0.8205 0.23605 0.0
C460 C 0.25824 0.73791 0.30194 0.0
C461 C 0.19095 0.82417 0.29532 0.0
C462 C 0.22548 0.78222 0.19701 0.0
C463 C 0.26507 0.74147 0.22869 0.0
O464 O 0.1462 0.82509 0.44383 0.0
O465 O 0.19473 0.78679 0.56004 0.0
O466 O 0.25899 0.71259 0.62559 0.0
O467 O 0.23802 0.70269 0.54235 0.0
O468 O 0.14808 0.79813 0.52856 0.0
O469 O 0.1852 0.73941 0.44968 0.0
O470 O 0.3416 0.74483 0.56385 0.0
O471 O 0.29326 0.78333 0.44706 0.0
O472 O 0.22896 0.85782 0.38165 0.0
O473 O 0.2498 0.86774 0.46499 0.0
O474 O 0.33997 0.77402 0.47927 0.0
O475 O 0.30293 0.83054 0.55798 0.0
C476 C 0.14473 0.78954 0.59643 0.0
C477 C 0.10836 0.79238 0.40955 0.0
C478 C 0.0895 0.76935 0.33144 0.0
C479 C 0.1249 0.76 0.36327 0.0
C480 C 0.03727 0.8082 0.35035 0.0
C481 C 0.05576 0.82951 0.4289 0.0
C482 C 0.02029 0.83536 0.40203 0.0
C483 C 0.24902 0.68269 0.60661 0.0
C484 C 0.14205 0.78441 0.44728 0.0
C485 C 0.3113 0.7053 0.19011 0.0
C486 C 0.34621 0.6614 0.22798 0.0
C487 C 0.34314 0.78084 0.41233 0.0
C488 C 0.37983 0.77743 0.59783 0.0
C489 C 0.36341 0.80978 0.6441 0.0
C490 C 0.39898 0.8006 0.67546 0.0
C491 C 0.45125 0.76195 0.65607 0.0
C492 C 0.43248 0.74054 0.57797 0.0
C493 C 0.4681 0.73486 0.60438 0.0
C494 C 0.2389 0.88771 0.40068 0.0
C495 C 0.34596 0.78541 0.5604 0.0
H496 H 0.16409 0.72722 0.35361 0.0
H497 H 0.0083 0.81363 0.33088 0.0
H498 H 0.04149 0.85296 0.46703 0.0
H499 H 0.97908 0.86158 0.42117 0.0
H500 H 0.32416 0.84245 0.65407 0.0
H501 H 0.48033 0.75662 0.67524 0.0
H502 H 0.44665 0.71716 0.53981 0.0
H503 H 0.50932 0.70873 0.58497 0.0
Tb504 Tb 0.22468 0.53521 0.69489 0.0
C505 C 0.31332 0.60348 0.77215 0.0
C506 C 0.38918 0.58268 0.66639 0.0
C507 C 0.38172 0.62292 0.74904 0.0
C508 C 0.34456 0.5766 0.71617 0.0
C509 C 0.33228 0.62568 0.79036 0.0
C510 C 0.40886 0.60437 0.68418 0.0
C511 C 0.24981 0.65726 0.88328 0.0
N512 N 0.26586 0.6048 0.81186 0.0
C513 C 0.23252 0.63367 0.86425 0.0
C514 C 0.30067 0.65054 0.84905 0.0
Tb515 Tb 0.26323 0.53521 0.8125 0.0
N516 N 0.32916 0.54769 0.70798 0.0
C517 C 0.35006 0.53494 0.64077 0.0
C518 C 0.41209 0.56758 0.60011 0.0
C519 C 0.39175 0.54423 0.58689 0.0
H520 H 0.19604 0.63198 0.89856 0.0
H521 H 0.41006 0.53095 0.53668 0.0
H522 H 0.44437 0.60701 0.64698 0.0
H523 H 0.22603 0.67678 0.92855 0.0
H524 H 0.3327 0.52188 0.62474 0.0
H525 H 0.07796 0.53952 0.97086 0.0
H526 H 0.44576 0.57307 0.55929 0.0
H527 H 0.29175 0.43849 0.60893 0.0
H528 H 0.15529 0.54857 0.88269 0.0
H529 H 0.2617 0.3937 0.57901 0.0
H530 H 0.39479 0.64154 0.76254 0.0
H531 H 0.04218 0.49741 0.94836 0.0
H532 H 0.04355 0.46333 0.86085 0.0
H533 H 0.31535 0.66381 0.87005 0.0
H534 H 0.09309 0.42874 0.74534 0.0
N535 N 0.15876 0.52277 0.7995 0.0
C536 C 0.13788 0.53555 0.86669 0.0
C537 C 0.07583 0.50291 0.90748 0.0
C538 C 0.09868 0.48781 0.84121 0.0
C539 C 0.0962 0.52627 0.92063 0.0
C540 C 0.1433 0.4939 0.79135 0.0
H541 H 0.17233 0.40677 0.63754 0.0
N542 N 0.22196 0.46565 0.69566 0.0
C543 C 0.23794 0.41322 0.62427 0.0
C544 C 0.17449 0.46702 0.73539 0.0
C545 C 0.25527 0.4368 0.64325 0.0
C546 C 0.18707 0.41998 0.65853 0.0
C547 C 0.15551 0.44481 0.71725 0.0
O548 O 0.24249 0.53951 0.58264 0.0
O549 O 0.24659 0.58611 0.70849 0.0
O550 O 0.17924 0.61289 0.81389 0.0
O551 O 0.15387 0.60612 0.73302 0.0
O552 O 0.24059 0.6043 0.61436 0.0
O553 O 0.16217 0.56762 0.65131 0.0
O554 O 0.24539 0.53093 0.92476 0.0
O555 O 0.24124 0.48435 0.79895 0.0
O556 O 0.30869 0.45757 0.69341 0.0
O557 O 0.33407 0.46433 0.77429 0.0
O558 O 0.24749 0.466 0.89292 0.0
O559 O 0.32572 0.50284 0.85611 0.0
C560 C 0.24564 0.62588 0.64938 0.0
C561 C 0.18197 0.53415 0.55109 0.0
C562 C 0.12869 0.50169 0.54649 0.0
C563 C 0.13244 0.53518 0.57125 0.0
C564 C 0.17505 0.46814 0.50329 0.0
C565 C 0.22339 0.50756 0.49601 0.0
C566 C 0.2202 0.47436 0.47286 0.0
C567 C 0.14347 0.63365 0.77678 0.0
C568 C 0.1933 0.55803 0.58671 0.0
C569 C 0.10611 0.4475 0.75869 0.0
C570 C 0.07901 0.46605 0.82355 0.0
C571 C 0.24235 0.44447 0.85793 0.0
C572 C 0.30587 0.53633 0.95635 0.0
C573 C 0.35538 0.53536 0.93618 0.0
C574 C 0.35909 0.56885 0.961 0.0
C575 C 0.31273 0.60234 0.00427 0.0
C576 C 0.26446 0.56287 0.01147 0.0
C577 C 0.26761 0.59607 0.03468 0.0
C578 C 0.34447 0.4368 0.7305 0.0
C579 C 0.29457 0.51244 0.92071 0.0
H580 H 0.09819 0.56 0.60726 0.0
H581 H 0.1767 0.436 0.49426 0.0
H582 H 0.26063 0.50724 0.47735 0.0
H583 H 0.25444 0.44986 0.43613 0.0
H584 H 0.38964 0.51059 0.90013 0.0
H585 H 0.31105 0.63445 0.0134 0.0
H586 H 0.22724 0.56313 0.03015 0.0
H587 H 0.23336 0.62053 0.07146 0.0
Tb588 Tb 0.97354 0.49891 0.58244 0.0
C589 C 0.07354 0.56282 0.26095 0.0
C590 C 0.1651 0.50282 0.25156 0.0
C591 C 0.13829 0.55597 0.14042 0.0
C592 C 0.11241 0.52688 0.29408 0.0
C593 C 0.08579 0.57607 0.18359 0.0
C594 C 0.17815 0.51911 0.17456 0.0
C595 C 0.99368 0.62607 0.19804 0.0
N596 N 0.02332 0.5826 0.30483 0.0
C597 C 0.98361 0.61653 0.27339 0.0
C598 C 0.04478 0.60625 0.15241 0.0
Tb599 Tb 0.01429 0.57159 0.4249 0.0
N600 N 0.09728 0.5107 0.36807 0.0
C601 C 0.13146 0.46321 0.40086 0.0
C602 C 0.20212 0.46016 0.28744 0.0
C603 C 0.18483 0.43902 0.36214 0.0
H604 H 0.94465 0.63894 0.30558 0.0
H605 H 0.21227 0.40285 0.38924 0.0
H606 H 0.21828 0.50035 0.14133 0.0
H607 H 0.96185 0.65147 0.17475 0.0
H608 H 0.11822 0.44473 0.45769 0.0
H609 H 0.77545 0.66745 0.61851 0.0
H610 H 0.24299 0.44028 0.25704 0.0
H611 H 0.0433 0.4315 0.70165 0.0
H612 H 0.86949 0.62572 0.54995 0.0
H613 H 0.02616 0.41888 0.83248 0.0
H614 H 0.14773 0.56571 0.08103 0.0
H615 H 0.74484 0.62989 0.75067 0.0
H616 H 0.76967 0.56979 0.86628 0.0
H617 H 0.05206 0.61511 0.09349 0.0
H618 H 0.84028 0.50444 0.92645 0.0
N619 N 0.89052 0.55965 0.63943 0.0
C620 C 0.85629 0.60716 0.60675 0.0
C621 C 0.7857 0.61006 0.72021 0.0
C622 C 0.82277 0.56739 0.75601 0.0
C623 C 0.80293 0.63127 0.64553 0.0
C624 C 0.87545 0.54339 0.71342 0.0
H625 H 0.93597 0.45514 0.91385 0.0
N626 N 0.96457 0.48775 0.70253 0.0
C627 C -0.0057 0.44426 0.80924 0.0
C628 C 0.91436 0.50745 0.74647 0.0
C629 C 0.00432 0.45384 0.7339 0.0
C630 C 0.94321 0.46401 0.85493 0.0
C631 C 0.90217 0.49415 0.82383 0.0
O632 O -0.00128 0.41804 0.64171 0.0
O633 O 0.02041 0.49265 0.46975 0.0
O634 O 0.9404 0.57931 0.42044 0.0
O635 O 0.91222 0.52981 0.53629 0.0
O636 O 0.01984 0.49225 0.47093 0.0
O637 O 0.93744 0.4598 0.58872 0.0
O638 O 0.98931 0.65239 0.36538 0.0
O639 O 0.96744 0.57783 0.53756 0.0
O640 O 0.0473 0.49138 0.58701 0.0
O641 O 0.07558 0.54074 0.47109 0.0
O642 O 0.96796 0.57825 0.53641 0.0
O643 O 0.05041 0.61065 0.41866 0.0
C644 C 0.01991 0.46951 0.43109 0.0
C645 C 0.93052 0.39186 0.68665 0.0
C646 C 0.88986 0.34017 0.70657 0.0
C647 C 0.91567 0.37066 0.65949 0.0
C648 C 0.8717 0.33729 0.78252 0.0
C649 C 0.9124 0.38997 0.76198 0.0
C650 C 0.88137 0.364 0.8097 0.0
C651 C 0.90838 0.55721 0.46947 0.0
C652 C 0.96298 0.41668 0.63035 0.0
C653 C 0.84968 0.5142 0.86706 0.0
C654 C 0.80978 0.55106 0.833 0.0
C655 C 0.96727 0.60143 0.57628 0.0
C656 C 0.05773 0.67826 0.32042 0.0
C657 C 0.07284 0.69927 0.34746 0.0
C658 C 0.09872 0.72968 0.30027 0.0
C659 C 0.11673 0.7326 0.22433 0.0
C660 C 0.0757 0.6802 0.24509 0.0
C661 C 0.10684 0.70602 0.19727 0.0
C662 C 0.07933 0.51345 0.53797 0.0
C663 C 0.02506 0.65371 0.37678 0.0
H664 H 0.92911 0.37327 0.60073 0.0
H665 H 0.8524 0.31287 0.82053 0.0
H666 H 0.92251 0.40747 0.78372 0.0
H667 H 0.86716 0.3623 0.86808 0.0
H668 H 0.05944 0.69671 0.40621 0.0
H669 H 0.13607 0.75698 0.18625 0.0
H670 H 0.06536 0.66287 0.22342 0.0
H671 H 0.12093 0.70777 0.13889 0.0
Tb672 Tb 0.22459 0.27469 0.94758 0.0
C673 C 0.22974 0.33236 0.20551 0.0
C674 C 0.15541 0.41794 0.20287 0.0
C675 C 0.17677 0.36496 0.31736 0.0
C676 C 0.20041 0.3787 0.16492 0.0
C677 C 0.22296 0.32879 0.27873 0.0
C678 C 0.14181 0.40883 0.27955 0.0
C679 C 0.30338 0.24978 0.27125 0.0
N680 N 0.26135 0.28877 0.17684 0.0
C681 C 0.29702 0.24612 0.21203 0.0
C682 C 0.26258 0.28804 0.31034 0.0
Tb683 Tb 0.2634 0.29558 0.05969 0.0
N684 N 0.20811 0.38064 0.09389 0.0
C685 C 0.17701 0.42894 0.05532 0.0
C686 C 0.1221 0.46269 0.16449 0.0
C687 C 0.13585 0.47044 0.08945 0.0
H688 H 0.32495 0.21267 0.1881 0.0
H689 H 0.11067 0.50645 0.0597 0.0
H690 H 0.10527 0.43646 0.30942 0.0
H691 H 0.33852 0.22229 0.28834 0.0
H692 H 0.17497 0.43511 1.00254 0.0
H693 H 0.37747 0.06391 0.94783 0.0
H694 H 0.08512 0.491 0.19259 0.0
H695 H 0.16336 0.35764 0.81884 0.0
H696 H 0.31346 0.13554 0.00457 0.0
H697 H 0.14977 0.34799 0.71863 0.0
H698 H 0.16769 0.35905 0.37606 0.0
H699 H 0.40288 0.07911 0.81505 0.0
H700 H 0.38285 0.13359 0.69816 0.0
H701 H 0.26284 0.28674 0.36263 0.0
H702 H 0.32057 0.21104 0.63133 0.0
N703 N 0.28004 0.18966 0.91343 0.0
C704 C 0.3112 0.14146 0.95203 0.0
C705 C 0.36591 0.10746 0.84308 0.0
C706 C 0.33265 0.1522 0.80464 0.0
C707 C 0.35224 0.09984 0.91807 0.0
C708 C 0.2877 0.19151 0.84247 0.0
H709 H 0.22544 0.28339 0.64453 0.0
N710 N 0.22673 0.28141 0.83043 0.0
C711 C 0.18488 0.32047 0.73579 0.0
C712 C 0.25835 0.2378 0.80183 0.0
C713 C 0.19122 0.32413 0.79502 0.0
C714 C 0.22564 0.28212 0.69684 0.0
C715 C 0.26518 0.24133 0.7286 0.0
O716 O 0.14627 0.32551 0.94339 0.0
O717 O 0.19473 0.287 0.06017 0.0
O718 O 0.25901 0.21251 0.12563 0.0
O719 O 0.23808 0.20267 0.0423 0.0
O720 O 0.14793 0.29643 0.02803 0.0
O721 O 0.18501 0.23979 0.94922 0.0
O722 O 0.34174 0.24509 0.06366 0.0
O723 O 0.29324 0.28326 0.94704 0.0
O724 O 0.22884 0.35785 0.88174 0.0
O725 O 0.24993 0.3676 0.96496 0.0
O726 O 0.34055 0.27268 0.98025 0.0
O727 O 0.30282 0.33086 0.05763 0.0
C728 C 0.14482 0.28955 0.09497 0.0
C729 C 0.10813 0.29291 0.90933 0.0
C730 C 0.08905 0.26976 0.83163 0.0
C731 C 0.12459 0.26055 0.86306 0.0
C732 C 0.03679 0.30845 0.85091 0.0
C733 C 0.05549 0.32983 0.92912 0.0
C734 C 0.01991 0.33555 0.90259 0.0
C735 C 0.24903 0.18267 0.1066 0.0
C736 C 0.14195 0.28492 0.94683 0.0
C737 C 0.31141 0.20514 0.69006 0.0
C738 C 0.3463 0.16125 0.72796 0.0
C739 C 0.34308 0.2808 0.91313 0.0
C740 C 0.37975 0.2778 0.09759 0.0
C741 C 0.36331 0.31009 0.14395 0.0
C742 C 0.39885 0.30077 0.17549 0.0
C743 C 0.4511 0.26203 0.15623 0.0
C744 C 0.43237 0.24077 0.07794 0.0
C745 C 0.46796 0.23496 0.10452 0.0
C746 C 0.23892 0.38766 0.90071 0.0
C747 C 0.34594 0.28579 0.06009 0.0
H748 H 0.16383 0.22786 0.85315 0.0
H749 H 0.00774 0.31378 0.83169 0.0
H750 H 0.0413 0.35321 0.9673 0.0
H751 H 0.97869 0.36168 0.92198 0.0
H752 H 0.32408 0.34279 0.15386 0.0
H753 H 0.48016 0.25662 0.17551 0.0
H754 H 0.44654 0.21738 0.03979 0.0
H755 H 0.50916 0.20877 0.08519 0.0
Tb756 Tb 0.22469 0.0352 0.19487 0.0
C757 C 0.31338 0.10345 0.27206 0.0
C758 C 0.38922 0.08264 0.16628 0.0
C759 C 0.38181 0.12285 0.24891 0.0
C760 C 0.3446 0.07656 0.21609 0.0
C761 C 0.33236 0.12564 0.29023 0.0
C762 C 0.40893 0.10431 0.18405 0.0
C763 C 0.24991 0.15725 0.38316 0.0
N764 N 0.26593 0.10477 0.31179 0.0
C765 C 0.23261 0.13365 0.36417 0.0
C766 C 0.30077 0.15051 0.34891 0.0
Tb767 Tb 0.26324 0.03522 0.31247 0.0
N768 N 0.32918 0.04766 0.20793 0.0
C769 C 0.35007 0.03491 0.14073 0.0
C770 C 0.41209 0.06756 0.1 0.0
C771 C 0.39175 0.04419 0.08682 0.0
H772 H 0.19613 0.13196 0.3985 0.0
H773 H 0.41006 1.03088 0.03664 0.0
H774 H 0.44444 0.10696 0.14684 0.0
H775 H 0.22615 0.17678 0.42842 0.0
H776 H 0.3327 1.02184 0.12472 0.0
H777 H 0.0778 0.03987 0.47067 0.0
H778 H 0.44576 0.07305 0.05915 0.0
H779 H 0.29171 0.9384 0.10905 0.0
H780 H 0.15531 0.04861 0.38265 0.0
H781 H 0.26163 0.89358 0.07924 0.0
H782 H 0.39489 0.14147 0.2624 0.0
H783 H 0.04204 0.99767 0.44833 0.0
H784 H 0.04346 0.96344 0.36098 0.0
H785 H 0.31548 0.16378 0.36988 0.0
H786 H 0.09303 0.92871 0.24559 0.0
N787 N 0.15875 1.02281 0.29949 0.0
C788 C 0.13787 0.03562 0.36665 0.0
C789 C 0.07573 1.0031 0.40746 0.0
C790 C 0.09862 0.98791 0.34126 0.0
C791 C 0.09611 1.02648 0.42054 0.0
C792 C 0.14325 0.99395 0.29139 0.0
H793 H 0.17225 0.90669 0.13778 0.0
N794 N 0.22192 0.96563 0.19574 0.0
C795 C 0.23788 0.91314 0.12446 0.0
C796 C 0.17444 0.96702 0.23548 0.0
C797 C 0.25522 0.93673 0.14339 0.0
C798 C 0.18701 0.91992 0.15874 0.0
C799 C 0.15545 0.94479 0.21741 0.0
O800 O 0.24256 0.03942 0.08263 0.0
O801 O 0.2466 0.0861 0.20846 0.0
O802 O 0.17927 0.11291 0.31383 0.0
O803 O 0.15388 0.10612 0.23298 0.0
O804 O 0.24058 0.10429 0.11433 0.0
O805 O 0.16222 0.06757 0.15123 0.0
O806 O 0.24538 1.03094 0.42473 0.0
O807 O 0.24125 0.98436 0.29892 0.0
O808 O 0.30868 0.95754 0.19346 0.0
O809 O 0.33406 0.96433 0.27432 0.0
O810 O 0.24745 0.96604 0.39293 0.0
O811 O 0.32572 1.00284 0.35611 0.0
C812 C 0.24565 0.12586 0.14935 0.0
C813 C 0.18207 0.03402 0.05107 0.0
C814 C 0.1288 1.00153 0.04649 0.0
C815 C 0.13254 0.03504 0.07123 0.0
C816 C 0.17515 0.96793 1.00335 0.0
C817 C 0.22349 1.00737 0.99605 0.0
C818 C 0.22031 0.97414 0.97293 0.0
C819 C 0.14349 0.13366 0.27673 0.0
C820 C 0.19337 0.05793 0.08665 0.0
C821 C 0.10604 0.94751 0.25887 0.0
C822 C 0.07894 0.96613 0.32366 0.0
C823 C 0.24232 0.94451 0.35793 0.0
C824 C 0.30585 0.03634 0.45634 0.0
C825 C 0.35536 0.03536 0.43619 0.0
C826 C 0.35907 0.06887 0.46099 0.0
C827 C 0.3127 0.10237 0.50424 0.0
C828 C 0.26442 0.06292 0.51142 0.0
C829 C 0.26757 0.09612 0.53463 0.0
C830 C 0.34445 0.93679 0.23057 0.0
C831 C 0.29456 1.01244 0.4207 0.0
H832 H 0.09827 0.05989 0.1072 0.0
H833 H 0.17679 0.93581 0.99431 0.0
H834 H 0.26074 1.00705 0.97739 0.0
H835 H 0.25456 0.94962 0.93623 0.0
H836 H 0.38963 1.01057 0.40016 0.0
H837 H 0.31103 0.13448 0.51336 0.0
H838 H 0.22718 0.06323 0.53004 0.0
H839 H 0.23331 0.12059 0.57138 0.0
Tb840 Tb 0.48707 0.30341 0.82325 0.0
C841 C 0.4104 0.25522 0.71338 0.0
C842 C 0.41113 0.18554 0.82549 0.0
C843 C 0.33223 0.2605 0.79918 0.0
C844 C 0.43798 0.20995 0.76261 0.0
C845 C 0.35831 0.27223 0.72684 0.0
C846 C 0.35858 0.21492 0.84651 0.0
C847 C 0.36093 0.33348 0.60873 0.0
N848 N 0.42995 0.28868 0.66296 0.0
C849 C 0.40781 0.32609 0.6076 0.0
C850 C 0.33342 0.30985 0.67303 0.0
Tb851 Tb 0.50095 0.26687 0.68368 0.0
N852 N 0.48583 0.19821 0.75948 0.0
C853 C 0.51357 0.15274 0.80367 0.0
C854 C 0.4359 0.14392 0.87759 0.0
C855 C 0.48778 0.12688 0.86561 0.0
H856 H 0.42626 0.34984 0.56351 0.0
H857 H 0.50574 0.0973 0.90757 0.0
H858 H 0.34074 0.20787 0.9044 0.0
H859 H 0.34539 0.35998 0.56277 0.0
H860 H 0.55489 0.1345 0.79248 0.0
H861 H 0.48223 0.47312 0.59964 0.0
H862 H 0.4145 0.12746 0.92988 0.0
H863 H 0.56159 0.22054 0.94378 0.0
H864 H 0.43306 0.43585 0.71475 0.0
H865 H 0.64239 0.21043 0.94471 0.0
H866 H 0.29449 0.28987 0.82038 0.0
H867 H 0.57341 0.4431 0.5776 0.0
H868 H 0.64721 0.36286 0.60363 0.0
H869 H 0.29377 0.31976 0.6815 0.0
H870 H 0.6932 0.28104 0.68733 0.0
N871 N 0.50217 0.37205 0.7475 0.0
C872 C 0.47438 0.41763 0.7035 0.0
C873 C 0.55199 0.42658 0.62979 0.0
C874 C 0.57667 0.38514 0.68211 0.0
C875 C 0.50016 0.44352 0.64161 0.0
C876 C 0.54993 0.3604 0.74462 0.0
H877 H 0.69401 0.25076 0.82619 0.0
N878 N 0.558 0.28161 0.84421 0.0
C879 C 0.62689 0.23691 0.89871 0.0
C880 C 0.5775 0.31513 0.79391 0.0
C881 C 0.58006 0.24428 0.8997 0.0
C882 C 0.65439 0.26062 0.83455 0.0
C883 C 0.62949 0.29836 0.78084 0.0
O884 O 0.47465 0.29741 0.93474 0.0
O885 O 0.44432 0.27612 0.80256 0.0
O886 O 0.43113 0.35371 0.6798 0.0
O887 O 0.41264 0.36582 0.79205 0.0
O888 O 0.42346 0.28241 0.90324 0.0
O889 O 0.45676 0.37274 0.85904 0.0
O890 O 0.51329 0.2729 0.57228 0.0
O891 O 0.54357 0.29401 0.70454 0.0
O892 O 0.5569 0.2167 0.82733 0.0
O893 O 0.57526 0.20443 0.71527 0.0
O894 O 0.56535 0.28712 0.60295 0.0
O895 O 0.53119 0.19754 0.64809 0.0
C896 C 0.40398 0.2773 0.86628 0.0
C897 C 0.49242 0.35842 0.95102 0.0
C898 C 0.51685 0.41859 0.95881 0.0
C899 C 0.49107 0.40894 0.92963 0.0
C900 C 0.54804 0.37609 1.00338 0.0
C901 C 0.52119 0.31878 1.00093 0.0
C902 C 0.54906 0.32706 0.02571 0.0
C903 C 0.397 0.38104 0.73359 0.0
C904 C 0.46381 0.34658 0.92372 0.0
C905 C 0.65562 0.31057 0.70882 0.0
C906 C 0.62927 0.35629 0.6616 0.0
C907 C 0.58385 0.29255 0.64088 0.0
C908 C 0.49548 0.21189 0.55629 0.0
C909 C 0.4968 0.16139 0.57782 0.0
C910 C 0.47099 0.15174 0.54873 0.0
C911 C 0.43979 0.19423 0.50417 0.0
C912 C 0.46668 0.25154 0.50644 0.0
C913 C 0.43877 0.24326 0.48177 0.0
C914 C 0.59095 0.18931 0.77365 0.0
C915 C 0.52414 0.22372 0.5834 0.0
H916 H 0.47084 0.44029 0.88977 0.0
H917 H 0.57131 0.38099 0.02163 0.0
H918 H 0.52437 0.28001 0.0192 0.0
H919 H 0.57203 0.29495 0.06221 0.0
H920 H 0.51705 0.13005 0.61767 0.0
H921 H 0.41651 0.18931 0.48595 0.0
H922 H 0.46353 0.29031 0.48811 0.0
H923 H 0.4158 0.27536 0.44527 0.0
Tb924 Tb 0.98704 0.80351 0.82334 0.0
C925 C 0.91044 0.75522 0.71334 0.0
C926 C 0.91119 0.68544 0.82538 0.0
C927 C 0.83228 0.76027 0.79889 0.0
C928 C 0.938 0.70997 0.76264 0.0
C929 C 0.85839 0.77214 0.72666 0.0
C930 C 0.85862 0.71465 0.84619 0.0
C931 C 0.86103 0.83339 0.60858 0.0
N932 N 0.92998 0.78867 0.66293 0.0
C933 C 0.90791 0.826 0.60746 0.0
C934 C 0.8335 0.80977 0.67287 0.0
Tb935 Tb 0.0009 0.76693 0.68383 0.0
N936 N 0.98582 0.69826 0.75959 0.0
C937 C 0.01356 0.65278 0.80376 0.0
C938 C 0.93591 0.64392 0.8776 0.0
C939 C 0.98777 0.62693 0.8657 0.0
H940 H 0.92638 0.84973 0.56335 0.0
H941 H 0.0057 0.59737 0.90769 0.0
H942 H 0.84075 0.70778 0.9041 0.0
H943 H 0.84549 0.85987 0.5626 0.0
H944 H 0.05488 0.63457 0.79257 0.0
H945 H 0.98241 0.97291 0.59927 0.0
H946 H 0.91449 0.62748 0.92988 0.0
H947 H 0.06152 0.72068 0.94386 0.0
H948 H 0.93316 0.93578 0.71438 0.0
H949 H 0.14233 0.71058 0.94477 0.0
H950 H 0.79461 0.78972 0.82018 0.0
H951 H 0.07358 0.94284 0.57728 0.0
H952 H 0.1473 0.86258 0.60329 0.0
H953 H 0.79387 0.81966 0.68132 0.0
H954 H 0.19331 0.7807 0.68724 0.0
N955 N 0.00218 0.87212 0.74749 0.0
C956 C 0.97447 0.91758 0.70328 0.0
C957 C 0.05214 0.92642 0.62954 0.0
C958 C 0.0768 0.88495 0.68185 0.0
C959 C 0.0003 0.94339 0.64134 0.0
C960 C 0.04996 0.86044 0.74457 0.0
H961 H 0.194 0.75079 0.82615 0.0
N962 N 0.05794 0.78174 0.8443 0.0
C963 C 0.12684 0.73704 0.89876 0.0
C964 C 0.07749 0.81521 0.79391 0.0
C965 C 0.08 0.74441 0.89978 0.0
C966 C 0.15438 0.76067 0.83452 0.0
C967 C 0.12953 0.7983 0.7807 0.0
O968 O 0.97451 0.79759 0.93482 0.0
O969 O 0.94436 0.77623 0.80263 0.0
O970 O 0.931 0.85366 0.67991 0.0
O971 O 0.91265 0.86589 0.79201 0.0
O972 O 0.92321 0.78274 0.90362 0.0
O973 O 0.9568 0.87288 0.85894 0.0
O974 O 0.01341 0.77288 0.57236 0.0
O975 O 0.04358 0.79416 0.70459 0.0
O976 O 0.0569 0.71677 0.82735 0.0
O977 O 0.07528 0.70454 0.71524 0.0
O978 O 0.06482 0.78766 0.60341 0.0
O979 O 0.03118 0.69756 0.64821 0.0
C980 C 0.90406 0.77747 0.86635 0.0
C981 C 0.99231 0.85855 0.95109 0.0
C982 C 0.01689 0.91852 0.95903 0.0
C983 C 0.99112 0.90899 0.92967 0.0
C984 C 0.04797 0.87594 0.00369 0.0
C985 C 0.02094 0.81885 1.00112 0.0
C986 C 0.04882 0.827 0.02603 0.0
C987 C 0.89695 0.88103 0.73363 0.0
C988 C 0.96373 0.84675 0.9237 0.0
C989 C 0.15568 0.8102 0.70852 0.0
C990 C 0.12938 0.85583 0.6612 0.0
C991 C 0.08385 0.7929 0.64086 0.0
C992 C -0.00435 0.71189 0.55612 0.0
C993 C -0.0032 0.66145 0.57764 0.0
C994 C 0.97102 0.65191 0.54832 0.0
C995 C 0.94 0.69446 0.50357 0.0
C996 C 0.96706 0.75156 0.50604 0.0
C997 C 0.93919 0.74339 0.48114 0.0
C998 C 0.09096 0.68939 0.77364 0.0
C999 C 0.02422 0.7237 0.58347 0.0
H1000 H 0.97107 0.94035 0.88962 0.0
H1001 H 0.07132 0.88072 0.02196 0.0
H1002 H 0.02403 0.78013 0.01933 0.0
H1003 H 0.0717 0.79484 0.06261 0.0
H1004 H 0.01682 0.63012 0.61773 0.0
H1005 H 0.91666 0.68967 0.48529 0.0
H1006 H 0.96399 0.79028 0.48778 0.0
H1007 H 0.91634 0.77552 0.44451 0.0
Tb1008 Tb 0.7247 0.53518 0.19489 0.0
C1009 C 0.81346 0.60338 0.27195 0.0
C1010 C 0.88929 0.58253 0.16617 0.0
C1011 C 0.88187 0.62285 0.24865 0.0
C1012 C 0.84466 0.57647 0.21602 0.0
C1013 C 0.83245 0.6256 0.29005 0.0
C1014 C 0.90898 0.60426 0.18383 0.0
C1015 C 0.75002 0.65724 0.38298 0.0
N1016 N 0.766 0.60474 0.31169 0.0
C1017 C 0.73268 0.63366 0.36403 0.0
C1018 C 0.80089 0.65047 0.34873 0.0
Tb1019 Tb 0.76325 0.5352 0.31248 0.0
N1020 N 0.8292 0.54759 0.2079 0.0
C1021 C 0.85005 0.53483 0.14071 0.0
C1022 C 0.91216 0.56739 0.09993 0.0
C1023 C 0.89178 0.54402 0.08681 0.0
H1024 H 0.69619 0.632 0.39836 0.0
H1025 H 0.9101 0.53066 0.03667 0.0
H1026 H 0.94447 0.60693 0.14655 0.0
H1027 H 0.72626 0.67681 0.4282 0.0
H1028 H 0.83264 0.52181 0.12471 0.0
H1029 H 0.57794 0.53953 0.47081 0.0
H1030 H 0.94584 0.57284 0.05907 0.0
H1031 H 0.79181 0.43837 0.109 0.0
H1032 H 0.65527 0.54857 0.38266 0.0
H1033 H 0.76178 0.39356 0.07911 0.0
H1034 H 0.89491 0.64158 0.262 0.0
H1035 H 0.54222 0.49733 0.44838 0.0
H1036 H 0.54354 0.46334 0.36078 0.0
H1037 H 0.81563 0.6637 0.3697 0.0
H1038 H 0.59307 0.4288 0.24525 0.0
N1039 N 0.65877 0.52273 0.29949 0.0
C1040 C 0.63789 0.53552 0.36667 0.0
C1041 C 0.57587 0.50284 0.40749 0.0
C1042 C 0.59871 0.48775 0.34122 0.0
C1043 C 0.59622 0.52623 0.42062 0.0
C1044 C 0.64333 0.49384 0.29136 0.0
H1045 H 0.67243 0.4066 0.13763 0.0
N1046 N 0.722 0.46558 0.19569 0.0
C1047 C 0.73801 0.4131 0.12436 0.0
C1048 C 0.67454 0.46695 0.23541 0.0
C1049 C 0.75533 0.43669 0.14332 0.0
C1050 C 0.68715 0.41985 0.15862 0.0
C1051 C 0.65556 0.44472 0.21729 0.0
O1052 O 0.74254 0.53943 0.08265 0.0
O1053 O 0.7466 0.58609 0.20848 0.0
O1054 O 0.67926 0.61287 0.31387 0.0
O1055 O 0.65388 0.60609 0.233 0.0
O1056 O 0.74059 0.60429 0.11438 0.0
O1057 O 0.66221 0.56753 0.15128 0.0
O1058 O 0.74536 0.53097 0.42473 0.0
O1059 O 0.74126 0.48434 0.29893 0.0
O1060 O 0.80867 0.45751 0.1935 0.0
O1061 O 0.83406 0.4643 0.27434 0.0
O1062 O 0.74749 0.466 0.39294 0.0
O1063 O 0.8257 0.50284 0.35615 0.0
C1064 C 0.74565 0.62588 0.1494 0.0
C1065 C 0.68208 0.53398 0.0511 0.0
C1066 C 0.62885 0.50145 0.04648 0.0
C1067 C 0.63257 0.53497 0.07125 0.0
C1068 C 0.67521 0.46792 1.00327 0.0
C1069 C 0.72351 0.50738 0.99604 0.0
C1070 C 0.72035 0.47416 0.97287 0.0
C1071 C 0.64348 0.63363 0.27676 0.0
C1072 C 0.69336 0.55791 0.08669 0.0
C1073 C 0.60613 0.44748 0.25866 0.0
C1074 C 0.57902 0.46603 0.32351 0.0
C1075 C 0.74236 0.44448 0.35792 0.0
C1076 C 0.80582 0.53639 0.45635 0.0
C1077 C 0.85533 0.5354 0.4362 0.0
C1078 C 0.85902 0.56893 0.46098 0.0
C1079 C 0.81266 0.60248 0.50416 0.0
C1080 C 0.76438 0.563 0.51139 0.0
C1081 C 0.76752 0.59623 0.53455 0.0
C1082 C 0.84444 0.43676 0.2306 0.0
C1083 C 0.79453 0.51247 0.42073 0.0
H1084 H 0.5983 0.55978 0.10726 0.0
H1085 H 0.67687 0.43581 0.99416 0.0
H1086 H 0.76074 0.50707 0.9774 0.0
H1087 H 0.7546 0.44967 0.93614 0.0
H1088 H 0.88961 0.5106 0.4002 0.0
H1089 H 0.81099 0.63461 0.51322 0.0
H1090 H 0.72715 0.5633 0.53004 0.0
H1091 H 0.73326 0.62073 0.57127 0.0
Tb1092 Tb 0.72466 0.77466 0.94767 0.0
C1093 C 0.72969 0.83244 0.20556 0.0
C1094 C 0.65534 0.918 0.20294 0.0
C1095 C 0.67668 0.86498 0.31744 0.0
C1096 C 0.70035 0.87878 0.16498 0.0
C1097 C 0.7229 0.82884 0.2788 0.0
C1098 C 0.64172 0.90887 0.27963 0.0
C1099 C 0.80331 0.74983 0.27133 0.0
N1100 N 0.76135 0.78886 0.17684 0.0
C1101 C 0.79696 0.74618 0.21209 0.0
C1102 C 0.76251 0.78808 0.31043 0.0
Tb1103 Tb 0.76335 0.79571 0.05968 0.0
N1104 N 0.70806 0.88074 0.09393 0.0
C1105 C 0.67696 0.92905 0.05537 0.0
C1106 C 0.62205 0.96277 0.16456 0.0
C1107 C 0.6358 0.97055 0.08951 0.0
H1108 H 0.82489 0.71273 0.18816 0.0
H1109 H 0.61064 1.00657 0.05974 0.0
H1110 H 0.60518 0.93649 0.3095 0.0
H1111 H 0.83846 0.72234 0.28842 0.0
H1112 H 0.67492 0.93524 1.00257 0.0
H1113 H 0.87753 0.56392 0.94782 0.0
H1114 H 0.58507 0.99108 0.19265 0.0
H1115 H 0.66335 0.85761 0.81895 0.0
H1116 H 0.81352 0.63553 0.0046 0.0
H1117 H 0.6497 0.84794 0.71881 0.0
H1118 H 0.66759 0.85907 0.37616 0.0
H1119 H 0.90285 0.5791 0.81508 0.0
H1120 H 0.88275 0.63354 0.69826 0.0
H1121 H 0.76276 0.78679 0.36272 0.0
H1122 H 0.82046 0.71099 0.63145 0.0
N1123 N 0.77998 0.68961 0.91356 0.0
C1124 C 0.81119 0.64141 0.95212 0.0
C1125 C 0.86587 0.60743 0.84314 0.0
C1126 C 0.83256 0.65214 0.80474 0.0
C1127 C 0.85224 0.59982 0.91812 0.0
C1128 C 0.78759 0.69144 0.84261 0.0
H1129 H 0.72534 0.78335 0.64469 0.0
N1130 N 0.72672 0.78138 0.83053 0.0
C1131 C 0.68483 0.82044 0.73594 0.0
C1132 C 0.75828 0.73775 0.80195 0.0
C1133 C 0.69121 0.8241 0.79514 0.0
C1134 C 0.72557 0.78208 0.69698 0.0
C1135 C 0.76512 0.7413 0.72871 0.0
O1136 O 0.64633 0.82552 0.94349 0.0
O1137 O 0.69472 0.78705 0.06024 0.0
O1138 O 0.75905 0.71256 0.1256 0.0
O1139 O 0.73811 0.70265 0.04234 0.0
O1140 O 0.64797 0.79637 0.02806 0.0
O1141 O 0.68502 0.73981 0.94932 0.0
O1142 O 0.84172 0.74511 0.06362 0.0
O1143 O 0.79324 0.78343 0.94723 0.0
O1144 O 0.72895 0.85778 0.88174 0.0
O1145 O 0.74982 0.86772 0.96503 0.0
O1146 O 0.83989 0.77335 0.97891 0.0
O1147 O 0.80285 0.83079 0.05789 0.0
C1148 C 0.64482 0.78958 0.09497 0.0
C1149 C 0.6081 0.79294 0.90951 0.0
C1150 C 0.58893 0.76979 0.83189 0.0
C1151 C 0.62451 0.76059 0.86323 0.0
C1152 C 0.53666 0.80844 0.85128 0.0
C1153 C 0.55546 0.82983 0.92937 0.0
C1154 C 0.51983 0.83553 0.90297 0.0
C1155 C 0.74906 0.68268 0.10662 0.0
C1156 C 0.64198 0.78494 0.94693 0.0
C1157 C 0.81132 0.70509 0.69017 0.0
C1158 C 0.8462 0.6612 0.72806 0.0
C1159 C 0.84318 0.78083 0.91157 0.0
C1160 C 0.87975 0.77772 0.09782 0.0
C1161 C 0.86327 0.81007 0.14413 0.0
C1162 C 0.89877 0.80075 0.17574 0.0
C1163 C 0.95101 0.76199 0.15662 0.0
C1164 C 0.93237 0.74069 0.07823 0.0
C1165 C 0.96791 0.73488 0.10492 0.0
C1166 C 0.73888 0.88769 0.90074 0.0
C1167 C 0.84596 0.78573 0.06022 0.0
H1168 H 0.66376 0.72792 0.85325 0.0
H1169 H 0.50758 0.81378 0.83213 0.0
H1170 H 0.5413 0.85322 0.96753 0.0
H1171 H 0.47861 0.86166 0.9224 0.0
H1172 H 0.82405 0.8428 0.15395 0.0
H1173 H 0.98003 0.75658 0.17596 0.0
H1174 H 0.94658 0.71729 0.04006 0.0
H1175 H 0.00913 0.70869 0.08565 0.0
Tb1176 Tb 0.47355 0.99888 0.58248 0.0
C1177 C 0.57347 0.06289 0.26098 0.0
C1178 C 0.66505 1.00288 0.25147 0.0
C1179 C 0.63816 0.05613 0.1404 0.0
C1180 C 0.61237 1.02691 0.29405 0.0
C1181 C 0.58567 0.0762 0.18363 0.0
C1182 C 0.67805 1.01923 0.17447 0.0
C1183 C 0.49354 0.12628 0.19819 0.0
N1184 N 0.52327 0.08267 0.30492 0.0
C1185 C 0.48353 0.11668 0.27353 0.0
C1186 C 0.54462 0.10643 0.15251 0.0
Tb1187 Tb 0.51432 0.07149 0.425 0.0
N1188 N 0.59729 1.01066 0.36803 0.0
C1189 C 0.63151 0.96316 0.40075 0.0
C1190 C 0.70211 0.96021 0.28728 0.0
C1191 C 0.68488 0.93902 0.36197 0.0
H1192 H 0.44459 0.13909 0.30578 0.0
H1193 H 0.71235 0.90286 0.38901 0.0
H1194 H 0.71817 1.0005 0.1412 0.0
H1195 H 0.46166 0.15172 0.17497 0.0
H1196 H 0.61832 0.94463 0.45756 0.0
H1197 H 0.27551 0.16751 0.61848 0.0
H1198 H 0.74297 0.94037 0.25683 0.0
H1199 H 0.5433 0.93139 0.7017 0.0
H1200 H 0.36955 0.12573 0.54992 0.0
H1201 H 0.52619 0.91877 0.83251 0.0
H1202 H 0.64758 0.06593 0.081 0.0
H1203 H 0.2449 0.12998 0.75065 0.0
H1204 H 0.26969 0.06985 0.86628 0.0
H1205 H 0.55186 0.11531 0.09359 0.0
H1206 H 0.34029 1.00445 0.92647 0.0
N1207 N 0.39057 0.05969 0.63945 0.0
C1208 C 0.35635 0.1072 0.60674 0.0
C1209 C 0.28575 0.11014 0.7202 0.0
C1210 C 0.32281 0.06746 0.75601 0.0
C1211 C 0.30299 0.13133 0.64551 0.0
C1212 C 0.37549 0.04344 0.71343 0.0
H1213 H 0.43599 0.9551 0.91388 0.0
N1214 N 0.4646 0.98772 0.70256 0.0
C1215 C 0.49432 0.94417 0.80929 0.0
C1216 C 0.41439 1.00747 0.74649 0.0
C1217 C 0.50434 0.95376 0.73395 0.0
C1218 C 0.44323 0.96397 0.85497 0.0
C1219 C 0.40219 0.99416 0.82385 0.0
O1220 O 0.49861 0.91804 0.64183 0.0
O1221 O 0.52044 0.99255 0.46983 0.0
O1222 O 0.44048 0.07917 0.42044 0.0
O1223 O 0.41221 1.0298 0.53636 0.0
O1224 O 0.51988 0.99216 0.471 0.0
O1225 O 0.43737 0.95984 0.58876 0.0
O1226 O 0.48925 0.15234 0.36571 0.0
O1227 O 0.46741 0.07784 0.53762 0.0
O1228 O 0.5474 0.99118 0.58701 0.0
O1229 O 0.57566 0.04056 0.47112 0.0
O1230 O 0.46796 0.07822 0.53647 0.0
O1231 O 0.55052 0.11051 0.41872 0.0
C1232 C 0.51993 0.96941 0.43118 0.0
C1233 C 0.43035 0.89197 0.68674 0.0
C1234 C 0.38971 0.84026 0.70671 0.0
C1235 C 0.41551 0.87075 0.65961 0.0
C1236 C 0.3715 0.83743 0.78265 0.0
C1237 C 0.4122 0.89012 0.76207 0.0
C1238 C 0.38116 0.86417 0.8098 0.0
C1239 C 0.40842 0.05714 0.4695 0.0
C1240 C 0.46285 0.91672 0.63044 0.0
C1241 C 0.3497 1.01423 0.86708 0.0
C1242 C 0.30981 0.05111 0.833 0.0
C1243 C 0.46793 0.10091 0.57634 0.0
C1244 C 0.55753 0.17838 0.32074 0.0
C1245 C 0.57242 0.19957 0.34784 0.0
C1246 C 0.59822 0.23005 0.3007 0.0
C1247 C 0.61635 0.23293 0.22476 0.0
C1248 C 0.57561 0.18027 0.24541 0.0
C1249 C 0.60664 0.20623 0.19764 0.0
C1250 C 0.57945 1.01322 0.53797 0.0
C1251 C 0.52503 0.15364 0.37707 0.0
H1252 H 0.42899 0.8733 0.60085 0.0
H1253 H 0.35219 0.81303 0.82067 0.0
H1254 H 0.42231 0.90762 0.7838 0.0
H1255 H 0.36693 0.86249 0.86817 0.0
H1256 H 0.55899 0.19699 0.40659 0.0
H1257 H 0.63564 0.25735 0.18673 0.0
H1258 H 0.56545 0.1628 0.22371 0.0
H1259 H 0.62081 0.20793 0.13927 0.0
Tb1260 Tb 0.47358 0.49888 0.08247 0.0
C1261 C 0.57346 0.56291 0.76099 0.0
C1262 C 0.66505 0.50295 0.75143 0.0
C1263 C 0.63813 0.55619 0.64039 0.0
C1264 C 0.61238 0.52694 0.79403 0.0
C1265 C 0.58564 0.57624 0.68363 0.0
C1266 C 0.67804 0.51931 0.67444 0.0
C1267 C 0.4935 0.62629 0.69825 0.0
N1268 N 0.52327 0.58268 0.80494 0.0
C1269 C 0.48352 0.61669 0.77358 0.0
C1270 C 0.54458 0.60645 0.65255 0.0
Tb1271 Tb 0.51435 0.57148 0.92501 0.0
N1272 N 0.59731 0.51068 0.86801 0.0
C1273 C 0.63155 0.46317 0.9007 0.0
C1274 C 0.70213 0.46028 0.78722 0.0
C1275 C 0.68491 0.43907 0.86191 0.0
H1276 H 0.44458 0.63909 0.80584 0.0
H1277 H 0.7124 0.4029 0.88893 0.0
H1278 H 0.71815 0.50059 0.64115 0.0
H1279 H 0.46161 0.65173 0.67508 0.0
H1280 H 0.61836 0.44463 0.95751 0.0
H1281 H 0.27556 0.66754 0.11845 0.0
H1282 H 0.74299 0.44046 0.75675 0.0
H1283 H 0.54332 0.43136 0.20172 0.0
H1284 H 0.36959 0.62574 0.04989 0.0
H1285 H 0.52621 0.41874 0.33254 0.0
H1286 H 0.64753 0.56599 0.58099 0.0
H1287 H 0.24493 0.63003 0.25063 0.0
H1288 H 0.26972 0.5699 0.36625 0.0
H1289 H 0.55181 0.61532 0.59363 0.0
H1290 H 0.3403 0.50448 0.42646 0.0
N1291 N 0.3906 0.5597 0.13943 0.0
C1292 C 0.35639 0.60722 0.10672 0.0
C1293 C 0.28579 0.61018 0.22018 0.0
C1294 C 0.32284 0.5675 0.25599 0.0
C1295 C 0.30303 0.63136 0.14549 0.0
C1296 C 0.37552 0.54346 0.21342 0.0
H1297 H 0.436 0.45511 0.41389 0.0
N1298 N 0.46463 0.48772 0.20257 0.0
C1299 C 0.49434 0.44416 0.3093 0.0
C1300 C 0.41442 0.50749 0.24649 0.0
C1301 C 0.50437 0.45375 0.23396 0.0
C1302 C 0.44325 0.46398 0.35497 0.0
C1303 C 0.40221 0.49419 0.32385 0.0
O1304 O 0.49863 0.41804 0.14183 0.0
O1305 O 0.52048 0.49254 0.96983 0.0
O1306 O 0.44051 0.57915 0.92046 0.0
O1307 O 0.41223 0.5298 0.03637 0.0
O1308 O 0.51992 0.49214 0.971 0.0
O1309 O 0.43741 0.45984 0.08875 0.0
O1310 O 0.48927 0.65234 0.86573 0.0
O1311 O 0.46745 0.57784 0.03763 0.0
O1312 O 0.54743 0.49117 0.08702 0.0
O1313 O 0.5757 0.54055 0.97112 0.0
O1314 O 0.468 0.57822 0.03648 0.0
O1315 O 0.55056 0.61049 0.9187 0.0
C1316 C 0.51997 0.46939 0.93118 0.0
C1317 C 0.43035 0.39201 0.18676 0.0
C1318 C 0.38962 0.34038 0.20675 0.0
C1319 C 0.41546 0.37084 0.15964 0.0
C1320 C 0.37146 0.33753 0.28269 0.0
C1321 C 0.41223 0.39014 0.26209 0.0
C1322 C 0.38116 0.36422 0.30983 0.0
C1323 C 0.40845 0.55712 0.96951 0.0
C1324 C 0.46287 0.41673 0.13045 0.0
C1325 C 0.34972 0.51426 0.36707 0.0
C1326 C 0.30983 0.55116 0.33299 0.0
C1327 C 0.46799 0.60091 0.07634 0.0
C1328 C 0.55755 0.67839 0.82073 0.0
C1329 C 0.57241 0.69962 0.84781 0.0
C1330 C 0.59818 0.73013 0.80066 0.0
C1331 C 0.61634 0.73296 0.72473 0.0
C1332 C 0.57564 0.68026 0.7454 0.0
C1333 C 0.60666 0.70622 0.69763 0.0
C1334 C 0.57949 0.5132 0.03797 0.0
C1335 C 0.52506 0.65363 0.87707 0.0
H1336 H 0.42892 0.3734 0.10088 0.0
H1337 H 0.35213 0.31313 0.32071 0.0
H1338 H 0.42238 0.40761 0.28381 0.0
H1339 H 0.36696 0.36252 0.36821 0.0
H1340 H 0.55896 0.69705 0.90656 0.0
H1341 H 0.63563 0.75739 0.68668 0.0
H1342 H 0.5655 0.66276 0.72371 0.0
H1343 H 0.62085 0.70791 0.63925 0.0
loop_
_geom_bond_atom_site_label_1
_geom_bond_atom_site_label_2
_geom_bond_distance
_geom_bond_site_symmetry_2
_ccdc_geom_bond_type
Tb0 N31 2.660 1_565 S
Tb0 N38 2.600 . S
Tb0 O44 2.546 . S
Tb0 O45 2.610 1_654 S
Tb0 O47 2.320 1_564 S
Tb0 O48 2.552 1_655 S
Tb0 O49 2.413 . S
Tb0 O51 2.362 1_565 S
Tb0 O52 2.421 1_655 S
Tb0 C64 2.833 . S
C1 C4 1.432 1_545 S
C1 C5 1.414 . S
C1 N8 1.359 . S
C2 C4 1.417 . S
C2 C6 1.432 . S
C2 C14 1.410 . S
C3 C5 1.444 1_565 S
C3 C6 1.317 . S
C3 H26 0.929 . S
C4 C1 1.432 1_565 S
C4 C2 1.417 . S
C4 N12 1.360 . S
C5 C1 1.414 . S
C5 C3 1.444 1_545 S
C5 C10 1.385 . S
C6 C2 1.432 . S
C6 C3 1.317 . S
C6 H18 0.930 . S
C7 C9 1.392 . S
C7 C10 1.370 . S
C7 H19 0.931 . S
N8 C1 1.359 . S
N8 C9 1.327 . S
N8 Tb11 2.600 . S
C9 C7 1.392 . S
C9 N8 1.327 . S
C9 H16 0.930 1_455 S
C10 C5 1.385 . S
C10 C7 1.370 . S
C10 H29 0.930 . S
Tb11 N8 2.600 . S
Tb11 N12 2.660 1_545 S
Tb11 O45 2.362 1_545 S
Tb11 O46 2.421 1_455 S
Tb11 O50 2.546 . S
Tb11 O51 2.610 1_456 S
Tb11 O53 2.320 1_546 S
Tb11 O54 2.552 1_455 S
Tb11 O55 2.413 . S
Tb11 C75 2.833 . S
N12 C4 1.360 . S
N12 Tb11 2.660 1_565 S
N12 C13 1.305 . S
C13 N12 1.305 . S
C13 C15 1.407 . S
C13 H20 0.930 . S
C14 C2 1.410 . S
C14 C15 1.345 . S
C14 H22 0.930 . S
C15 C13 1.407 . S
C15 C14 1.345 . S
C15 H17 0.930 . S
H16 C9 0.930 1_655 S
H17 C15 0.930 . S
H18 C6 0.930 . S
H19 C7 0.931 . S
H20 C13 0.930 . S
H21 C35 0.930 . S
H22 C14 0.930 . S
H23 C41 0.930 1_455 S
H24 C32 0.930 . S
H25 C39 0.931 . S
H26 C3 0.929 . S
H27 C33 0.930 . S
H28 C66 0.930 . S
H29 C10 0.930 . S
H30 C65 0.929 . S
N31 Tb0 2.660 1_545 S
N31 C32 1.305 . S
N31 C36 1.360 . S
C32 H24 0.930 . S
C32 N31 1.305 . S
C32 C35 1.407 . S
C33 H27 0.930 . S
C33 C34 1.410 . S
C33 C35 1.345 . S
C34 C33 1.410 . S
C34 C36 1.417 . S
C34 C66 1.432 . S
C35 H21 0.930 . S
C35 C32 1.407 . S
C35 C33 1.345 . S
C36 N31 1.360 . S
C36 C34 1.417 . S
C36 C40 1.432 1_545 S
H37 C42 0.930 . S
N38 Tb0 2.600 . S
N38 C40 1.359 . S
N38 C41 1.327 . S
C39 H25 0.931 . S
C39 C41 1.392 . S
C39 C42 1.370 . S
C40 C36 1.432 1_565 S
C40 N38 1.359 . S
C40 C43 1.414 . S
C41 H23 0.930 1_655 S
C41 N38 1.327 . S
C41 C39 1.392 . S
C42 H37 0.930 . S
C42 C39 1.370 . S
C42 C43 1.385 . S
C43 C40 1.414 . S
C43 C42 1.385 . S
C43 C65 1.444 1_565 S
O44 Tb0 2.546 . S
O44 C64 1.251 . S
O45 Tb0 2.610 1_456 S
O45 Tb11 2.362 1_565 S
O45 C56 1.283 . S
O46 Tb11 2.421 1_655 S
O46 C63 1.262 . S
O47 Tb0 2.320 1_546 S
O47 C63 1.260 . S
O48 Tb0 2.552 1_455 S
O48 C56 1.243 1_554 S
O49 Tb0 2.413 . S
O49 C64 1.256 . S
O50 Tb11 2.546 . S
O50 C75 1.251 . S
O51 Tb0 2.362 1_545 S
O51 Tb11 2.610 1_654 S
O51 C67 1.283 . S
O52 Tb0 2.421 1_455 S
O52 C74 1.262 . S
O53 Tb11 2.320 1_564 S
O53 C74 1.260 . S
O54 Tb11 2.552 1_655 S
O54 C67 1.243 1_556 S
O55 Tb11 2.413 . S
O55 C75 1.256 . S
C56 O45 1.283 . S
C56 O48 1.243 1_556 S
C57 C59 1.382 . S
C57 C61 1.393 . S
C57 C64 1.500 . S
C58 C59 1.400 . S
C58 C60 1.384 . S
C59 C57 1.382 . S
C59 C58 1.400 . S
C59 H76 0.930 . S
C60 C58 1.384 . S
C60 C62 1.392 . S
C60 H77 0.931 . S
C61 C57 1.393 . S
C61 C62 1.401 . S
C61 H78 0.930 . S
C62 C60 1.392 . S
C62 C61 1.401 . S
C62 H79 0.930 . S
C63 O46 1.262 . S
C63 O47 1.260 . S
C64 Tb0 2.833 . S
C64 O44 1.251 . S
C64 O49 1.256 . S
C64 C57 1.500 . S
C65 H30 0.929 . S
C65 C43 1.444 1_545 S
C65 C66 1.317 . S
C66 H28 0.930 . S
C66 C34 1.432 . S
C66 C65 1.317 . S
C67 O51 1.283 . S
C67 O54 1.243 1_554 S
C68 C69 1.382 . S
C68 C72 1.393 . S
C68 C75 1.500 . S
C69 C68 1.382 . S
C69 C70 1.400 . S
C69 H80 0.930 . S
C70 C69 1.400 . S
C70 C71 1.384 . S
C71 C70 1.384 . S
C71 C73 1.392 . S
C71 H81 0.931 . S
C72 C68 1.393 . S
C72 C73 1.401 . S
C72 H82 0.930 . S
C73 C71 1.392 . S
C73 C72 1.401 . S
C73 H83 0.930 . S
C74 O52 1.262 . S
C74 O53 1.260 . S
C75 Tb11 2.833 . S
C75 O50 1.251 . S
C75 O55 1.256 . S
C75 C68 1.500 . S
H76 C59 0.930 . S
H77 C60 0.931 . S
H78 C61 0.930 . S
H79 C62 0.930 . S
H80 C69 0.930 . S
H81 C71 0.931 . S
H82 C72 0.930 . S
H83 C73 0.930 . S
Tb84 N115 2.660 . S
Tb84 N122 2.600 . S
Tb84 O128 2.546 . S
Tb84 O129 2.610 1_455 S
Tb84 O131 2.320 1_455 S
Tb84 O132 2.552 1_455 S
Tb84 O133 2.413 1_455 S
Tb84 O135 2.362 . S
Tb84 O136 2.421 . S
Tb84 C148 2.833 . S
C85 C88 1.432 . S
C85 C89 1.414 . S
C85 N92 1.359 . S
C86 C88 1.417 . S
C86 C90 1.432 . S
C86 C98 1.410 . S
C87 C89 1.444 . S
C87 C90 1.317 . S
C87 H110 0.929 . S
C88 C85 1.432 . S
C88 C86 1.417 . S
C88 N96 1.360 . S
C89 C85 1.414 . S
C89 C87 1.444 . S
C89 C94 1.385 . S
C90 C86 1.432 . S
C90 C87 1.317 . S
C90 H102 0.930 . S
C91 C93 1.392 . S
C91 C94 1.370 . S
C91 H103 0.931 . S
N92 C85 1.359 . S
N92 C93 1.327 . S
N92 Tb95 2.600 . S
C93 C91 1.392 . S
C93 N92 1.327 . S
C93 H100 0.930 . S
C94 C89 1.385 . S
C94 C91 1.370 . S
C94 H113 0.930 . S
Tb95 N92 2.600 . S
Tb95 N96 2.660 . S
Tb95 O129 2.362 . S
Tb95 O130 2.421 . S
Tb95 O134 2.546 . S
Tb95 O135 2.610 1_655 S
Tb95 O137 2.320 1_655 S
Tb95 O138 2.552 1_655 S
Tb95 O139 2.413 1_655 S
Tb95 C159 2.833 . S
N96 C88 1.360 . S
N96 Tb95 2.660 . S
N96 C97 1.305 . S
C97 N96 1.305 . S
C97 C99 1.407 . S
C97 H104 0.930 . S
C98 C86 1.410 . S
C98 C99 1.345 . S
C98 H106 0.930 . S
C99 C97 1.407 . S
C99 C98 1.345 . S
C99 H101 0.930 . S
H100 C93 0.930 . S
H101 C99 0.930 . S
H102 C90 0.930 . S
H103 C91 0.931 . S
H104 C97 0.930 . S
H105 C119 0.930 . S
H106 C98 0.930 . S
H107 C125 0.930 . S
H108 C116 0.930 . S
H109 C123 0.931 . S
H110 C87 0.929 . S
H111 C117 0.930 . S
H112 C150 0.930 . S
H113 C94 0.930 . S
H114 C149 0.929 . S
N115 Tb84 2.660 . S
N115 C116 1.305 . S
N115 C120 1.360 . S
C116 H108 0.930 . S
C116 N115 1.305 . S
C116 C119 1.407 . S
C117 H111 0.930 . S
C117 C118 1.410 . S
C117 C119 1.345 . S
C118 C117 1.410 . S
C118 C120 1.417 . S
C118 C150 1.432 . S
C119 H105 0.930 . S
C119 C116 1.407 . S
C119 C117 1.345 . S
C120 N115 1.360 . S
C120 C118 1.417 . S
C120 C124 1.432 . S
H121 C126 0.930 . S
N122 Tb84 2.600 . S
N122 C124 1.359 . S
N122 C125 1.327 . S
C123 H109 0.931 . S
C123 C125 1.392 . S
C123 C126 1.370 . S
C124 C120 1.432 . S
C124 N122 1.359 . S
C124 C127 1.414 . S
C125 H107 0.930 . S
C125 N122 1.327 . S
C125 C123 1.392 . S
C126 H121 0.930 . S
C126 C123 1.370 . S
C126 C127 1.385 . S
C127 C124 1.414 . S
C127 C126 1.385 . S
C127 C149 1.444 . S
O128 Tb84 2.546 . S
O128 C148 1.251 . S
O129 Tb84 2.610 1_655 S
O129 Tb95 2.362 . S
O129 C140 1.283 . S
O130 Tb95 2.421 . S
O130 C147 1.262 . S
O131 Tb84 2.320 1_655 S
O131 C147 1.260 . S
O132 Tb84 2.552 1_655 S
O132 C140 1.243 . S
O133 Tb84 2.413 1_655 S
O133 C148 1.256 1_655 S
O134 Tb95 2.546 . S
O134 C159 1.251 . S
O135 Tb84 2.362 . S
O135 Tb95 2.610 1_455 S
O135 C151 1.283 . S
O136 Tb84 2.421 . S
O136 C158 1.262 . S
O137 Tb95 2.320 1_455 S
O137 C158 1.260 . S
O138 Tb95 2.552 1_455 S
O138 C151 1.243 . S
O139 Tb95 2.413 1_455 S
O139 C159 1.256 1_455 S
C140 O129 1.283 . S
C140 O132 1.243 . S
C141 C143 1.382 . S
C141 C145 1.393 1_655 S
C141 C148 1.500 1_655 S
C142 C143 1.400 . S
C142 C144 1.384 . S
C143 C141 1.382 . S
C143 C142 1.400 . S
C143 H160 0.930 . S
C144 C142 1.384 . S
C144 C146 1.392 1_655 S
C144 H161 0.931 . S
C145 C141 1.393 1_455 S
C145 C146 1.401 . S
C145 H162 0.930 . S
C146 C144 1.392 1_455 S
C146 C145 1.401 . S
C146 H163 0.930 . S
C147 O130 1.262 . S
C147 O131 1.260 . S
C148 Tb84 2.833 . S
C148 O128 1.251 . S
C148 O133 1.256 1_455 S
C148 C141 1.500 1_455 S
C149 H114 0.929 . S
C149 C127 1.444 . S
C149 C150 1.317 . S
C150 H112 0.930 . S
C150 C118 1.432 . S
C150 C149 1.317 . S
C151 O135 1.283 . S
C151 O138 1.243 . S
C152 C153 1.382 . S
C152 C156 1.393 1_454 S
C152 C159 1.500 1_455 S
C153 C152 1.382 . S
C153 C154 1.400 1_554 S
C153 H164 0.930 . S
C154 C153 1.400 1_556 S
C154 C155 1.384 . S
C155 C154 1.384 . S
C155 C157 1.392 1_455 S
C155 H165 0.931 . S
C156 C152 1.393 1_656 S
C156 C157 1.401 . S
C156 H166 0.930 . S
C157 C155 1.392 1_655 S
C157 C156 1.401 . S
C157 H167 0.930 . S
C158 O136 1.262 . S
C158 O137 1.260 . S
C159 Tb95 2.833 . S
C159 O134 1.251 . S
C159 O139 1.256 1_655 S
C159 C152 1.500 1_655 S
H160 C143 0.930 . S
H161 C144 0.931 . S
H162 C145 0.930 . S
H163 C146 0.930 . S
H164 C153 0.930 . S
H165 C155 0.931 . S
H166 C156 0.930 . S
H167 C157 0.930 . S
Tb168 N199 2.660 . S
Tb168 N206 2.600 . S
Tb168 O212 2.546 . S
Tb168 O213 2.610 . S
Tb168 O215 2.320 . S
Tb168 O216 2.552 . S
Tb168 O217 2.413 . S
Tb168 O219 2.362 . S
Tb168 O220 2.421 . S
Tb168 C232 2.833 . S
C169 C172 1.432 . S
C169 C173 1.414 . S
C169 N176 1.359 . S
C170 C172 1.417 . S
C170 C174 1.432 . S
C170 C182 1.410 . S
C171 C173 1.444 . S
C171 C174 1.317 . S
C171 H194 0.929 . S
C172 C169 1.432 . S
C172 C170 1.417 . S
C172 N180 1.360 . S
C173 C169 1.414 . S
C173 C171 1.444 . S
C173 C178 1.385 . S
C174 C170 1.432 . S
C174 C171 1.317 . S
C174 H186 0.930 . S
C175 C177 1.392 . S
C175 C178 1.370 . S
C175 H187 0.931 . S
N176 C169 1.359 . S
N176 C177 1.327 . S
N176 Tb179 2.600 . S
C177 C175 1.392 . S
C177 N176 1.327 . S
C177 H184 0.930 . S
C178 C173 1.385 . S
C178 C175 1.370 . S
C178 H197 0.930 . S
Tb179 N176 2.600 . S
Tb179 N180 2.660 . S
Tb179 O213 2.362 . S
Tb179 O214 2.421 . S
Tb179 O218 2.546 . S
Tb179 O219 2.610 . S
Tb179 O221 2.320 . S
Tb179 O222 2.552 . S
Tb179 O223 2.413 . S
Tb179 C243 2.833 . S
N180 C172 1.360 . S
N180 Tb179 2.660 . S
N180 C181 1.305 . S
C181 N180 1.305 . S
C181 C183 1.407 . S
C181 H188 0.930 . S
C182 C170 1.410 . S
C182 C183 1.345 . S
C182 H190 0.930 . S
C183 C181 1.407 . S
C183 C182 1.345 . S
C183 H185 0.930 . S
H184 C177 0.930 . S
H185 C183 0.930 . S
H186 C174 0.930 . S
H187 C175 0.931 . S
H188 C181 0.930 . S
H189 C203 0.930 . S
H190 C182 0.930 . S
H191 C209 0.930 . S
H192 C200 0.930 . S
H193 C207 0.931 . S
H194 C171 0.929 . S
H195 C201 0.930 . S
H196 C234 0.930 . S
H197 C178 0.930 . S
H198 C233 0.929 . S
N199 Tb168 2.660 . S
N199 C200 1.305 . S
N199 C204 1.360 . S
C200 H192 0.930 . S
C200 N199 1.305 . S
C200 C203 1.407 . S
C201 H195 0.930 . S
C201 C202 1.410 . S
C201 C203 1.345 . S
C202 C201 1.410 . S
C202 C204 1.417 . S
C202 C234 1.432 . S
C203 H189 0.930 . S
C203 C200 1.407 . S
C203 C201 1.345 . S
C204 N199 1.360 . S
C204 C202 1.417 . S
C204 C208 1.432 . S
H205 C210 0.930 . S
N206 Tb168 2.600 . S
N206 C208 1.359 . S
N206 C209 1.327 . S
C207 H193 0.931 . S
C207 C209 1.392 . S
C207 C210 1.370 . S
C208 C204 1.432 . S
C208 N206 1.359 . S
C208 C211 1.414 . S
C209 H191 0.930 . S
C209 N206 1.327 . S
C209 C207 1.392 . S
C210 H205 0.930 . S
C210 C207 1.370 . S
C210 C211 1.385 . S
C211 C208 1.414 . S
C211 C210 1.385 . S
C211 C233 1.444 . S
O212 Tb168 2.546 . S
O212 C232 1.251 . S
O213 Tb168 2.610 . S
O213 Tb179 2.362 . S
O213 C224 1.283 . S
O214 Tb179 2.421 . S
O214 C231 1.262 . S
O215 Tb168 2.320 . S
O215 C231 1.260 . S
O216 Tb168 2.552 . S
O216 C224 1.243 . S
O217 Tb168 2.413 . S
O217 C232 1.256 . S
O218 Tb179 2.546 . S
O218 C243 1.251 . S
O219 Tb168 2.362 . S
O219 Tb179 2.610 . S
O219 C235 1.283 . S
O220 Tb168 2.421 . S
O220 C242 1.262 . S
O221 Tb179 2.320 . S
O221 C242 1.260 . S
O222 Tb179 2.552 . S
O222 C235 1.243 . S
O223 Tb179 2.413 . S
O223 C243 1.256 . S
C224 O213 1.283 . S
C224 O216 1.243 . S
C225 C227 1.382 . S
C225 C229 1.393 . S
C225 C232 1.500 . S
C226 C227 1.400 . S
C226 C228 1.384 . S
C227 C225 1.382 . S
C227 C226 1.400 . S
C227 H244 0.930 . S
C228 C226 1.384 . S
C228 C230 1.392 . S
C228 H245 0.931 . S
C229 C225 1.393 . S
C229 C230 1.401 . S
C229 H246 0.930 . S
C230 C228 1.392 . S
C230 C229 1.401 . S
C230 H247 0.930 . S
C231 O214 1.262 . S
C231 O215 1.260 . S
C232 Tb168 2.833 . S
C232 O212 1.251 . S
C232 O217 1.256 . S
C232 C225 1.500 . S
C233 H198 0.929 . S
C233 C211 1.444 . S
C233 C234 1.317 . S
C234 H196 0.930 . S
C234 C202 1.432 . S
C234 C233 1.317 . S
C235 O219 1.283 . S
C235 O222 1.243 . S
C236 C237 1.382 . S
C236 C240 1.393 . S
C236 C243 1.500 . S
C237 C236 1.382 . S
C237 C238 1.400 . S
C237 H248 0.930 . S
C238 C237 1.400 . S
C238 C239 1.384 . S
C239 C238 1.384 . S
C239 C241 1.392 . S
C239 H249 0.931 . S
C240 C236 1.393 . S
C240 C241 1.401 . S
C240 H250 0.930 . S
C241 C239 1.392 . S
C241 C240 1.401 . S
C241 H251 0.930 . S
C242 O220 1.262 . S
C242 O221 1.260 . S
C243 Tb179 2.833 . S
C243 O218 1.251 . S
C243 O223 1.256 . S
C243 C236 1.500 . S
H244 C227 0.930 . S
H245 C228 0.931 . S
H246 C229 0.930 . S
H247 C230 0.930 . S
H248 C237 0.930 . S
H249 C239 0.931 . S
H250 C240 0.930 . S
H251 C241 0.930 . S
Tb252 N283 2.660 . S
Tb252 N290 2.600 . S
Tb252 O296 2.546 . S
Tb252 O297 2.610 1_565 S
Tb252 O299 2.320 1_565 S
Tb252 O300 2.552 1_565 S
Tb252 O301 2.413 1_565 S
Tb252 O303 2.362 . S
Tb252 O304 2.421 . S
Tb252 C316 2.833 . S
C253 C256 1.432 . S
C253 C257 1.414 . S
C253 N260 1.359 . S
C254 C256 1.417 . S
C254 C258 1.432 . S
C254 C266 1.410 . S
C255 C257 1.444 . S
C255 C258 1.317 . S
C255 H278 0.929 . S
C256 C253 1.432 . S
C256 C254 1.417 . S
C256 N264 1.360 . S
C257 C253 1.414 . S
C257 C255 1.444 . S
C257 C262 1.385 . S
C258 C254 1.432 . S
C258 C255 1.317 . S
C258 H270 0.930 . S
C259 C261 1.392 . S
C259 C262 1.370 . S
C259 H271 0.931 . S
N260 C253 1.359 . S
N260 C261 1.327 . S
N260 Tb263 2.600 . S
C261 C259 1.392 . S
C261 N260 1.327 . S
C261 H268 0.930 . S
C262 C257 1.385 . S
C262 C259 1.370 . S
C262 H281 0.930 . S
Tb263 N260 2.600 . S
Tb263 N264 2.660 . S
Tb263 O297 2.362 . S
Tb263 O298 2.421 . S
Tb263 O302 2.546 . S
Tb263 O303 2.610 1_545 S
Tb263 O305 2.320 1_545 S
Tb263 O306 2.552 1_545 S
Tb263 O307 2.413 1_545 S
Tb263 C327 2.833 . S
N264 C256 1.360 . S
N264 Tb263 2.660 . S
N264 C265 1.305 . S
C265 N264 1.305 . S
C265 C267 1.407 . S
C265 H272 0.930 . S
C266 C254 1.410 . S
C266 C267 1.345 . S
C266 H274 0.930 . S
C267 C265 1.407 . S
C267 C266 1.345 . S
C267 H269 0.930 . S
H268 C261 0.930 . S
H269 C267 0.930 . S
H270 C258 0.930 . S
H271 C259 0.931 . S
H272 C265 0.930 . S
H273 C287 0.930 . S
H274 C266 0.930 . S
H275 C293 0.930 . S
H276 C284 0.930 . S
H277 C291 0.931 . S
H278 C255 0.929 . S
H279 C285 0.930 . S
H280 C318 0.930 . S
H281 C262 0.930 . S
H282 C317 0.929 . S
N283 Tb252 2.660 . S
N283 C284 1.305 . S
N283 C288 1.360 . S
C284 H276 0.930 . S
C284 N283 1.305 . S
C284 C287 1.407 . S
C285 H279 0.930 . S
C285 C286 1.410 . S
C285 C287 1.345 . S
C286 C285 1.410 . S
C286 C288 1.417 . S
C286 C318 1.432 . S
C287 H273 0.930 . S
C287 C284 1.407 . S
C287 C285 1.345 . S
C288 N283 1.360 . S
C288 C286 1.417 . S
C288 C292 1.432 . S
H289 C294 0.930 . S
N290 Tb252 2.600 . S
N290 C292 1.359 . S
N290 C293 1.327 . S
C291 H277 0.931 . S
C291 C293 1.392 . S
C291 C294 1.370 . S
C292 C288 1.432 . S
C292 N290 1.359 . S
C292 C295 1.414 . S
C293 H275 0.930 . S
C293 N290 1.327 . S
C293 C291 1.392 . S
C294 H289 0.930 . S
C294 C291 1.370 . S
C294 C295 1.385 . S
C295 C292 1.414 . S
C295 C294 1.385 . S
C295 C317 1.444 . S
O296 Tb252 2.546 . S
O296 C316 1.251 . S
O297 Tb252 2.610 1_545 S
O297 Tb263 2.362 . S
O297 C308 1.283 . S
O298 Tb263 2.421 . S
O298 C315 1.262 . S
O299 Tb252 2.320 1_545 S
O299 C315 1.260 . S
O300 Tb252 2.552 1_545 S
O300 C308 1.243 . S
O301 Tb252 2.413 1_545 S
O301 C316 1.256 1_545 S
O302 Tb263 2.546 . S
O302 C327 1.251 . S
O303 Tb252 2.362 . S
O303 Tb263 2.610 1_565 S
O303 C319 1.283 . S
O304 Tb252 2.421 . S
O304 C326 1.262 . S
O305 Tb263 2.320 1_565 S
O305 C326 1.260 . S
O306 Tb263 2.552 1_565 S
O306 C319 1.243 . S
O307 Tb263 2.413 1_565 S
O307 C327 1.256 1_565 S
C308 O297 1.283 . S
C308 O300 1.243 . S
C309 C311 1.382 . S
C309 C313 1.393 1_545 S
C309 C316 1.500 1_545 S
C310 C311 1.400 . S
C310 C312 1.384 . S
C311 C309 1.382 . S
C311 C310 1.400 . S
C311 H328 0.930 . S
C312 C310 1.384 . S
C312 C314 1.392 1_545 S
C312 H329 0.931 . S
C313 C309 1.393 1_565 S
C313 C314 1.401 . S
C313 H330 0.930 . S
C314 C312 1.392 1_565 S
C314 C313 1.401 . S
C314 H331 0.930 . S
C315 O298 1.262 . S
C315 O299 1.260 . S
C316 Tb252 2.833 . S
C316 O296 1.251 . S
C316 O301 1.256 1_565 S
C316 C309 1.500 1_565 S
C317 H282 0.929 . S
C317 C295 1.444 . S
C317 C318 1.317 . S
C318 H280 0.930 . S
C318 C286 1.432 . S
C318 C317 1.317 . S
C319 O303 1.283 . S
C319 O306 1.243 . S
C320 C321 1.387 . S
C320 C324 1.385 1_566 S
C320 C327 1.503 1_565 S
C321 C320 1.387 . S
C321 C322 1.400 1_556 S
C321 H332 0.930 . S
C322 C321 1.400 1_554 S
C322 C323 1.384 . S
C323 C322 1.384 . S
C323 C325 1.392 1_565 S
C323 H333 0.931 . S
C324 C320 1.385 1_544 S
C324 C325 1.401 . S
C324 H334 0.930 . S
C325 C323 1.392 1_545 S
C325 C324 1.401 . S
C325 H335 0.930 . S
C326 O304 1.262 . S
C326 O305 1.260 . S
C327 Tb263 2.833 . S
C327 O302 1.251 . S
C327 O307 1.256 1_545 S
C327 C320 1.503 1_545 S
H328 C311 0.930 . S
H329 C312 0.931 . S
H330 C313 0.930 . S
H331 C314 0.930 . S
H332 C321 0.930 . S
H333 C323 0.931 . S
H334 C324 0.930 . S
H335 C325 0.930 . S
Tb336 N367 2.660 . S
Tb336 N374 2.600 . S
Tb336 O380 2.546 . S
Tb336 O381 2.610 . S
Tb336 O383 2.320 . S
Tb336 O384 2.552 . S
Tb336 O385 2.413 . S
Tb336 O387 2.362 . S
Tb336 O388 2.421 . S
Tb336 C400 2.833 . S
C337 C340 1.432 . S
C337 C341 1.414 . S
C337 N344 1.359 . S
C338 C340 1.417 . S
C338 C342 1.432 . S
C338 C350 1.410 . S
C339 C341 1.444 . S
C339 C342 1.317 . S
C339 H362 0.929 . S
C340 C337 1.432 . S
C340 C338 1.417 . S
C340 N348 1.360 . S
C341 C337 1.414 . S
C341 C339 1.444 . S
C341 C346 1.385 . S
C342 C338 1.432 . S
C342 C339 1.317 . S
C342 H354 0.930 . S
C343 C345 1.392 . S
C343 C346 1.370 . S
C343 H355 0.931 . S
N344 C337 1.359 . S
N344 C345 1.327 . S
N344 Tb347 2.600 . S
C345 C343 1.392 . S
C345 N344 1.327 . S
C345 H352 0.930 . S
C346 C341 1.385 . S
C346 C343 1.370 . S
C346 H365 0.930 . S
Tb347 N344 2.600 . S
Tb347 N348 2.660 . S
Tb347 O381 2.362 . S
Tb347 O382 2.421 . S
Tb347 O386 2.546 . S
Tb347 O387 2.610 . S
Tb347 O389 2.320 . S
Tb347 O390 2.552 . S
Tb347 O391 2.413 . S
Tb347 C411 2.833 . S
N348 C340 1.360 . S
N348 Tb347 2.660 . S
N348 C349 1.305 . S
C349 N348 1.305 . S
C349 C351 1.407 . S
C349 H356 0.930 . S
C350 C338 1.410 . S
C350 C351 1.345 . S
C350 H358 0.930 . S
C351 C349 1.407 . S
C351 C350 1.345 . S
C351 H353 0.930 . S
H352 C345 0.930 . S
H353 C351 0.930 . S
H354 C342 0.930 . S
H355 C343 0.931 . S
H356 C349 0.930 . S
H357 C371 0.930 . S
H358 C350 0.930 . S
H359 C377 0.930 . S
H360 C368 0.930 . S
H361 C375 0.931 . S
H362 C339 0.929 . S
H363 C369 0.930 . S
H364 C402 0.930 . S
H365 C346 0.930 . S
H366 C401 0.929 . S
N367 Tb336 2.660 . S
N367 C368 1.305 . S
N367 C372 1.360 . S
C368 H360 0.930 . S
C368 N367 1.305 . S
C368 C371 1.407 . S
C369 H363 0.930 . S
C369 C370 1.410 . S
C369 C371 1.345 . S
C370 C369 1.410 . S
C370 C372 1.417 . S
C370 C402 1.432 . S
C371 H357 0.930 . S
C371 C368 1.407 . S
C371 C369 1.345 . S
C372 N367 1.360 . S
C372 C370 1.417 . S
C372 C376 1.432 . S
H373 C378 0.930 . S
N374 Tb336 2.600 . S
N374 C376 1.359 . S
N374 C377 1.327 . S
C375 H361 0.931 . S
C375 C377 1.392 . S
C375 C378 1.370 . S
C376 C372 1.432 . S
C376 N374 1.359 . S
C376 C379 1.414 . S
C377 H359 0.930 . S
C377 N374 1.327 . S
C377 C375 1.392 . S
C378 H373 0.930 . S
C378 C375 1.370 . S
C378 C379 1.385 . S
C379 C376 1.414 . S
C379 C378 1.385 . S
C379 C401 1.444 . S
O380 Tb336 2.546 . S
O380 C400 1.251 . S
O381 Tb336 2.610 . S
O381 Tb347 2.362 . S
O381 C392 1.283 . S
O382 Tb347 2.421 . S
O382 C399 1.262 . S
O383 Tb336 2.320 . S
O383 C399 1.260 . S
O384 Tb336 2.552 . S
O384 C392 1.243 . S
O385 Tb336 2.413 . S
O385 C400 1.256 . S
O386 Tb347 2.546 . S
O386 C411 1.251 . S
O387 Tb336 2.362 . S
O387 Tb347 2.610 . S
O387 C403 1.283 . S
O388 Tb336 2.421 . S
O388 C410 1.262 . S
O389 Tb347 2.320 . S
O389 C410 1.260 . S
O390 Tb347 2.552 . S
O390 C403 1.243 . S
O391 Tb347 2.413 . S
O391 C411 1.256 . S
C392 O381 1.283 . S
C392 O384 1.243 . S
C393 C395 1.382 . S
C393 C397 1.393 . S
C393 C400 1.500 . S
C394 C395 1.400 . S
C394 C396 1.384 . S
C395 C393 1.382 . S
C395 C394 1.400 . S
C395 H412 0.930 . S
C396 C394 1.384 . S
C396 C398 1.392 . S
C396 H413 0.931 . S
C397 C393 1.393 . S
C397 C398 1.401 . S
C397 H414 0.930 . S
C398 C396 1.392 . S
C398 C397 1.401 . S
C398 H415 0.930 . S
C399 O382 1.262 . S
C399 O383 1.260 . S
C400 Tb336 2.833 . S
C400 O380 1.251 . S
C400 O385 1.256 . S
C400 C393 1.500 . S
C401 H366 0.929 . S
C401 C379 1.444 . S
C401 C402 1.317 . S
C402 H364 0.930 . S
C402 C370 1.432 . S
C402 C401 1.317 . S
C403 O387 1.283 . S
C403 O390 1.243 . S
C404 C405 1.382 . S
C404 C408 1.393 1_554 S
C404 C411 1.500 . S
C405 C404 1.382 . S
C405 C406 1.400 1_554 S
C405 H416 0.930 . S
C406 C405 1.400 1_556 S
C406 C407 1.384 . S
C407 C406 1.384 . S
C407 C409 1.392 . S
C407 H417 0.931 . S
C408 C404 1.393 1_556 S
C408 C409 1.401 . S
C408 H418 0.930 . S
C409 C407 1.392 . S
C409 C408 1.401 . S
C409 H419 0.930 . S
C410 O388 1.262 . S
C410 O389 1.260 . S
C411 Tb347 2.833 . S
C411 O386 1.251 . S
C411 O391 1.256 . S
C411 C404 1.500 . S
H412 C395 0.930 . S
H413 C396 0.931 . S
H414 C397 0.930 . S
H415 C398 0.930 . S
H416 C405 0.930 . S
H417 C407 0.931 . S
H418 C408 0.930 . S
H419 C409 0.930 . S
Tb420 N451 2.660 . S
Tb420 N458 2.600 . S
Tb420 O464 2.546 . S
Tb420 O465 2.610 . S
Tb420 O467 2.320 . S
Tb420 O468 2.552 . S
Tb420 O469 2.413 . S
Tb420 O471 2.362 . S
Tb420 O472 2.421 . S
Tb420 C484 2.833 . S
C421 C424 1.432 . S
C421 C425 1.414 . S
C421 N428 1.359 . S
C422 C424 1.417 . S
C422 C426 1.432 . S
C422 C434 1.410 . S
C423 C425 1.444 . S
C423 C426 1.317 . S
C423 H446 0.929 . S
C424 C421 1.432 . S
C424 C422 1.417 . S
C424 N432 1.360 . S
C425 C421 1.414 . S
C425 C423 1.444 . S
C425 C430 1.385 . S
C426 C422 1.432 . S
C426 C423 1.317 . S
C426 H438 0.930 . S
C427 C429 1.392 . S
C427 C430 1.370 . S
C427 H439 0.931 . S
N428 C421 1.359 . S
N428 C429 1.327 . S
N428 Tb431 2.600 . S
C429 C427 1.392 . S
C429 N428 1.327 . S
C429 H436 0.930 . S
C430 C425 1.385 . S
C430 C427 1.370 . S
C430 H449 0.930 . S
Tb431 N428 2.600 . S
Tb431 N432 2.660 . S
Tb431 O465 2.362 . S
Tb431 O466 2.421 . S
Tb431 O470 2.546 . S
Tb431 O471 2.610 . S
Tb431 O473 2.320 . S
Tb431 O474 2.552 . S
Tb431 O475 2.413 . S
Tb431 C495 2.833 . S
N432 C424 1.360 . S
N432 Tb431 2.660 . S
N432 C433 1.305 . S
C433 N432 1.305 . S
C433 C435 1.407 . S
C433 H440 0.930 . S
C434 C422 1.410 . S
C434 C435 1.345 . S
C434 H442 0.930 . S
C435 C433 1.407 . S
C435 C434 1.345 . S
C435 H437 0.930 . S
H436 C429 0.930 . S
H437 C435 0.930 . S
H438 C426 0.930 . S
H439 C427 0.931 . S
H440 C433 0.930 . S
H441 C455 0.930 . S
H442 C434 0.930 . S
H443 C461 0.930 . S
H444 C452 0.930 . S
H445 C459 0.931 . S
H446 C423 0.929 . S
H447 C453 0.930 . S
H448 C486 0.930 . S
H449 C430 0.930 . S
H450 C485 0.929 . S
N451 Tb420 2.660 . S
N451 C452 1.305 . S
N451 C456 1.360 . S
C452 H444 0.930 . S
C452 N451 1.305 . S
C452 C455 1.407 . S
C453 H447 0.930 . S
C453 C454 1.410 . S
C453 C455 1.345 . S
C454 C453 1.410 . S
C454 C456 1.417 . S
C454 C486 1.432 . S
C455 H441 0.930 . S
C455 C452 1.407 . S
C455 C453 1.345 . S
C456 N451 1.360 . S
C456 C454 1.417 . S
C456 C460 1.432 . S
H457 C462 0.930 . S
N458 Tb420 2.600 . S
N458 C460 1.359 . S
N458 C461 1.327 . S
C459 H445 0.931 . S
C459 C461 1.392 . S
C459 C462 1.370 . S
C460 C456 1.432 . S
C460 N458 1.359 . S
C460 C463 1.414 . S
C461 H443 0.930 . S
C461 N458 1.327 . S
C461 C459 1.392 . S
C462 H457 0.930 . S
C462 C459 1.370 . S
C462 C463 1.385 . S
C463 C460 1.414 . S
C463 C462 1.385 . S
C463 C485 1.444 . S
O464 Tb420 2.546 . S
O464 C484 1.251 . S
O465 Tb420 2.610 . S
O465 Tb431 2.362 . S
O465 C476 1.283 . S
O466 Tb431 2.421 . S
O466 C483 1.262 . S
O467 Tb420 2.320 . S
O467 C483 1.260 . S
O468 Tb420 2.552 . S
O468 C476 1.243 . S
O469 Tb420 2.413 . S
O469 C484 1.256 . S
O470 Tb431 2.546 . S
O470 C495 1.251 . S
O471 Tb420 2.362 . S
O471 Tb431 2.610 . S
O471 C487 1.283 . S
O472 Tb420 2.421 . S
O472 C494 1.262 . S
O473 Tb431 2.320 . S
O473 C494 1.260 . S
O474 Tb431 2.552 . S
O474 C487 1.243 . S
O475 Tb431 2.413 . S
O475 C495 1.256 . S
C476 O465 1.283 . S
C476 O468 1.243 . S
C477 C479 1.382 . S
C477 C481 1.393 . S
C477 C484 1.500 . S
C478 C479 1.400 . S
C478 C480 1.384 . S
C479 C477 1.382 . S
C479 C478 1.400 . S
C479 H496 0.930 . S
C480 C478 1.384 . S
C480 C482 1.392 . S
C480 H497 0.931 . S
C481 C477 1.393 . S
C481 C482 1.401 . S
C481 H498 0.930 . S
C482 C480 1.392 . S
C482 C481 1.401 . S
C482 H499 0.930 . S
C483 O466 1.262 . S
C483 O467 1.260 . S
C484 Tb420 2.833 . S
C484 O464 1.251 . S
C484 O469 1.256 . S
C484 C477 1.500 . S
C485 H450 0.929 . S
C485 C463 1.444 . S
C485 C486 1.317 . S
C486 H448 0.930 . S
C486 C454 1.432 . S
C486 C485 1.317 . S
C487 O471 1.283 . S
C487 O474 1.243 . S
C488 C489 1.382 . S
C488 C492 1.393 . S
C488 C495 1.500 . S
C489 C488 1.382 . S
C489 C490 1.400 . S
C489 H500 0.930 . S
C490 C489 1.400 . S
C490 C491 1.384 . S
C491 C490 1.384 . S
C491 C493 1.392 . S
C491 H501 0.931 . S
C492 C488 1.393 . S
C492 C493 1.401 . S
C492 H502 0.930 . S
C493 C491 1.392 . S
C493 C492 1.401 . S
C493 H503 0.930 . S
C494 O472 1.262 . S
C494 O473 1.260 . S
C495 Tb431 2.833 . S
C495 O470 1.251 . S
C495 O475 1.256 . S
C495 C488 1.500 . S
H496 C479 0.930 . S
H497 C480 0.931 . S
H498 C481 0.930 . S
H499 C482 0.930 . S
H500 C489 0.930 . S
H501 C491 0.931 . S
H502 C492 0.930 . S
H503 C493 0.930 . S
Tb504 N535 2.660 . S
Tb504 N542 2.600 . S
Tb504 O548 2.546 . S
Tb504 O549 2.610 . S
Tb504 O551 2.320 . S
Tb504 O552 2.552 . S
Tb504 O553 2.413 . S
Tb504 O555 2.362 . S
Tb504 O556 2.421 . S
Tb504 C568 2.833 . S
C505 C508 1.432 . S
C505 C509 1.414 . S
C505 N512 1.359 . S
C506 C508 1.417 . S
C506 C510 1.432 . S
C506 C518 1.410 . S
C507 C509 1.444 . S
C507 C510 1.317 . S
C507 H530 0.929 . S
C508 C505 1.432 . S
C508 C506 1.417 . S
C508 N516 1.360 . S
C509 C505 1.414 . S
C509 C507 1.444 . S
C509 C514 1.385 . S
C510 C506 1.432 . S
C510 C507 1.317 . S
C510 H522 0.930 . S
C511 C513 1.392 . S
C511 C514 1.370 . S
C511 H523 0.931 . S
N512 C505 1.359 . S
N512 C513 1.327 . S
N512 Tb515 2.600 . S
C513 C511 1.392 . S
C513 N512 1.327 . S
C513 H520 0.930 . S
C514 C509 1.385 . S
C514 C511 1.370 . S
C514 H533 0.930 . S
Tb515 N512 2.600 . S
Tb515 N516 2.660 . S
Tb515 O549 2.362 . S
Tb515 O550 2.421 . S
Tb515 O554 2.546 . S
Tb515 O555 2.610 . S
Tb515 O557 2.320 . S
Tb515 O558 2.552 . S
Tb515 O559 2.413 . S
Tb515 C579 2.833 . S
N516 C508 1.360 . S
N516 Tb515 2.660 . S
N516 C517 1.305 . S
C517 N516 1.305 . S
C517 C519 1.407 . S
C517 H524 0.930 . S
C518 C506 1.410 . S
C518 C519 1.345 . S
C518 H526 0.930 . S
C519 C517 1.407 . S
C519 C518 1.345 . S
C519 H521 0.930 . S
H520 C513 0.930 . S
H521 C519 0.930 . S
H522 C510 0.930 . S
H523 C511 0.931 . S
H524 C517 0.930 . S
H525 C539 0.930 . S
H526 C518 0.930 . S
H527 C545 0.930 . S
H528 C536 0.930 . S
H529 C543 0.931 . S
H530 C507 0.929 . S
H531 C537 0.930 . S
H532 C570 0.930 . S
H533 C514 0.930 . S
H534 C569 0.929 . S
N535 Tb504 2.660 . S
N535 C536 1.305 . S
N535 C540 1.360 . S
C536 H528 0.930 . S
C536 N535 1.305 . S
C536 C539 1.407 . S
C537 H531 0.930 . S
C537 C538 1.410 . S
C537 C539 1.345 . S
C538 C537 1.410 . S
C538 C540 1.417 . S
C538 C570 1.432 . S
C539 H525 0.930 . S
C539 C536 1.407 . S
C539 C537 1.345 . S
C540 N535 1.360 . S
C540 C538 1.417 . S
C540 C544 1.432 . S
H541 C546 0.930 . S
N542 Tb504 2.600 . S
N542 C544 1.359 . S
N542 C545 1.327 . S
C543 H529 0.931 . S
C543 C545 1.392 . S
C543 C546 1.370 . S
C544 C540 1.432 . S
C544 N542 1.359 . S
C544 C547 1.414 . S
C545 H527 0.930 . S
C545 N542 1.327 . S
C545 C543 1.392 . S
C546 H541 0.930 . S
C546 C543 1.370 . S
C546 C547 1.385 . S
C547 C544 1.414 . S
C547 C546 1.385 . S
C547 C569 1.444 . S
O548 Tb504 2.546 . S
O548 C568 1.251 . S
O549 Tb504 2.610 . S
O549 Tb515 2.362 . S
O549 C560 1.283 . S
O550 Tb515 2.421 . S
O550 C567 1.262 . S
O551 Tb504 2.320 . S
O551 C567 1.260 . S
O552 Tb504 2.552 . S
O552 C560 1.243 . S
O553 Tb504 2.413 . S
O553 C568 1.256 . S
O554 Tb515 2.546 . S
O554 C579 1.251 . S
O555 Tb504 2.362 . S
O555 Tb515 2.610 . S
O555 C571 1.283 . S
O556 Tb504 2.421 . S
O556 C578 1.262 . S
O557 Tb515 2.320 . S
O557 C578 1.260 . S
O558 Tb515 2.552 . S
O558 C571 1.243 . S
O559 Tb515 2.413 . S
O559 C579 1.256 . S
C560 O549 1.283 . S
C560 O552 1.243 . S
C561 C563 1.382 . S
C561 C565 1.393 . S
C561 C568 1.500 . S
C562 C563 1.400 . S
C562 C564 1.384 . S
C563 C561 1.382 . S
C563 C562 1.400 . S
C563 H580 0.930 . S
C564 C562 1.384 . S
C564 C566 1.392 . S
C564 H581 0.931 . S
C565 C561 1.393 . S
C565 C566 1.401 . S
C565 H582 0.930 . S
C566 C564 1.392 . S
C566 C565 1.401 . S
C566 H583 0.930 . S
C567 O550 1.262 . S
C567 O551 1.260 . S
C568 Tb504 2.833 . S
C568 O548 1.251 . S
C568 O553 1.256 . S
C568 C561 1.500 . S
C569 H534 0.929 . S
C569 C547 1.444 . S
C569 C570 1.317 . S
C570 H532 0.930 . S
C570 C538 1.432 . S
C570 C569 1.317 . S
C571 O555 1.283 . S
C571 O558 1.243 . S
C572 C573 1.382 . S
C572 C576 1.393 1_556 S
C572 C579 1.500 . S
C573 C572 1.382 . S
C573 C574 1.400 1_556 S
C573 H584 0.930 . S
C574 C573 1.400 1_554 S
C574 C575 1.384 . S
C575 C574 1.384 . S
C575 C577 1.392 . S
C575 H585 0.931 . S
C576 C572 1.393 1_554 S
C576 C577 1.401 . S
C576 H586 0.930 . S
C577 C575 1.392 . S
C577 C576 1.401 . S
C577 H587 0.930 . S
C578 O556 1.262 . S
C578 O557 1.260 . S
C579 Tb515 2.833 . S
C579 O554 1.251 . S
C579 O559 1.256 . S
C579 C572 1.500 . S
H580 C563 0.930 . S
H581 C564 0.931 . S
H582 C565 0.930 . S
H583 C566 0.930 . S
H584 C573 0.930 . S
H585 C575 0.931 . S
H586 C576 0.930 . S
H587 C577 0.930 . S
Tb588 N619 2.660 . S
Tb588 N626 2.600 . S
Tb588 O632 2.546 . S
Tb588 O633 2.610 1_655 S
Tb588 O635 2.320 . S
Tb588 O636 2.552 1_655 S
Tb588 O637 2.413 . S
Tb588 O639 2.362 . S
Tb588 O640 2.421 1_655 S
Tb588 C652 2.833 . S
C589 C592 1.432 . S
C589 C593 1.414 . S
C589 N596 1.359 . S
C590 C592 1.417 . S
C590 C594 1.432 . S
C590 C602 1.410 . S
C591 C593 1.444 . S
C591 C594 1.317 . S
C591 H614 0.929 . S
C592 C589 1.432 . S
C592 C590 1.417 . S
C592 N600 1.360 . S
C593 C589 1.414 . S
C593 C591 1.444 . S
C593 C598 1.385 . S
C594 C590 1.432 . S
C594 C591 1.317 . S
C594 H606 0.930 . S
C595 C597 1.392 . S
C595 C598 1.370 . S
C595 H607 0.931 . S
N596 C589 1.359 . S
N596 C597 1.327 . S
N596 Tb599 2.600 . S
C597 C595 1.392 . S
C597 N596 1.327 . S
C597 H604 0.930 1_455 S
C598 C593 1.385 . S
C598 C595 1.370 . S
C598 H617 0.930 . S
Tb599 N596 2.600 . S
Tb599 N600 2.660 . S
Tb599 O633 2.362 . S
Tb599 O634 2.421 1_455 S
Tb599 O638 2.546 . S
Tb599 O639 2.610 1_455 S
Tb599 O641 2.320 . S
Tb599 O642 2.552 1_455 S
Tb599 O643 2.413 . S
Tb599 C663 2.833 . S
N600 C592 1.360 . S
N600 Tb599 2.660 . S
N600 C601 1.305 . S
C601 N600 1.305 . S
C601 C603 1.407 . S
C601 H608 0.930 . S
C602 C590 1.410 . S
C602 C603 1.345 . S
C602 H610 0.930 . S
C603 C601 1.407 . S
C603 C602 1.345 . S
C603 H605 0.930 . S
H604 C597 0.930 1_655 S
H605 C603 0.930 . S
H606 C594 0.930 . S
H607 C595 0.931 . S
H608 C601 0.930 . S
H609 C623 0.930 . S
H610 C602 0.930 . S
H611 C629 0.930 1_455 S
H612 C620 0.930 . S
H613 C627 0.931 . S
H614 C591 0.929 . S
H615 C621 0.930 . S
H616 C654 0.930 . S
H617 C598 0.930 . S
H618 C653 0.929 . S
N619 Tb588 2.660 . S
N619 C620 1.305 . S
N619 C624 1.360 . S
C620 H612 0.930 . S
C620 N619 1.305 . S
C620 C623 1.407 . S
C621 H615 0.930 . S
C621 C622 1.410 . S
C621 C623 1.345 . S
C622 C621 1.410 . S
C622 C624 1.417 . S
C622 C654 1.432 . S
C623 H609 0.930 . S
C623 C620 1.407 . S
C623 C621 1.345 . S
C624 N619 1.360 . S
C624 C622 1.417 . S
C624 C628 1.432 . S
H625 C630 0.930 . S
N626 Tb588 2.600 . S
N626 C628 1.359 . S
N626 C629 1.327 . S
C627 H613 0.931 . S
C627 C629 1.392 . S
C627 C630 1.370 . S
C628 C624 1.432 . S
C628 N626 1.359 . S
C628 C631 1.414 . S
C629 H611 0.930 1_655 S
C629 N626 1.327 . S
C629 C627 1.392 . S
C630 H625 0.930 . S
C630 C627 1.370 . S
C630 C631 1.385 . S
C631 C628 1.414 . S
C631 C630 1.385 . S
C631 C653 1.444 . S
O632 Tb588 2.546 . S
O632 C652 1.251 . S
O633 Tb588 2.610 1_455 S
O633 Tb599 2.362 . S
O633 C644 1.283 . S
O634 Tb599 2.421 1_655 S
O634 C651 1.262 . S
O635 Tb588 2.320 . S
O635 C651 1.260 . S
O636 Tb588 2.552 1_455 S
O636 C644 1.243 . S
O637 Tb588 2.413 . S
O637 C652 1.256 . S
O638 Tb599 2.546 . S
O638 C663 1.251 . S
O639 Tb588 2.362 . S
O639 Tb599 2.610 1_655 S
O639 C655 1.283 . S
O640 Tb588 2.421 1_455 S
O640 C662 1.262 . S
O641 Tb599 2.320 . S
O641 C662 1.260 . S
O642 Tb599 2.552 1_655 S
O642 C655 1.243 . S
O643 Tb599 2.413 . S
O643 C663 1.256 . S
C644 O633 1.283 . S
C644 O636 1.243 . S
C645 C647 1.382 . S
C645 C649 1.393 . S
C645 C652 1.500 . S
C646 C647 1.400 . S
C646 C648 1.384 . S
C647 C645 1.382 . S
C647 C646 1.400 . S
C647 H664 0.930 . S
C648 C646 1.384 . S
C648 C650 1.392 . S
C648 H665 0.931 . S
C649 C645 1.393 . S
C649 C650 1.401 . S
C649 H666 0.930 . S
C650 C648 1.392 . S
C650 C649 1.401 . S
C650 H667 0.930 . S
C651 O634 1.262 . S
C651 O635 1.260 . S
C652 Tb588 2.833 . S
C652 O632 1.251 . S
C652 O637 1.256 . S
C652 C645 1.500 . S
C653 H618 0.929 . S
C653 C631 1.444 . S
C653 C654 1.317 . S
C654 H616 0.930 . S
C654 C622 1.432 . S
C654 C653 1.317 . S
C655 O639 1.283 . S
C655 O642 1.243 . S
C656 C657 1.382 . S
C656 C660 1.393 . S
C656 C663 1.500 . S
C657 C656 1.382 . S
C657 C658 1.400 . S
C657 H668 0.930 . S
C658 C657 1.400 . S
C658 C659 1.384 . S
C659 C658 1.384 . S
C659 C661 1.392 . S
C659 H669 0.931 . S
C660 C656 1.393 . S
C660 C661 1.401 . S
C660 H670 0.930 . S
C661 C659 1.392 . S
C661 C660 1.401 . S
C661 H671 0.930 . S
C662 O640 1.262 . S
C662 O641 1.260 . S
C663 Tb599 2.833 . S
C663 O638 1.251 . S
C663 O643 1.256 . S
C663 C656 1.500 . S
H664 C647 0.930 . S
H665 C648 0.931 . S
H666 C649 0.930 . S
H667 C650 0.930 . S
H668 C657 0.930 . S
H669 C659 0.931 . S
H670 C660 0.930 . S
H671 C661 0.930 . S
Tb672 N703 2.660 . S
Tb672 N710 2.600 . S
Tb672 O716 2.546 . S
Tb672 O717 2.610 1_556 S
Tb672 O719 2.320 1_556 S
Tb672 O720 2.552 1_556 S
Tb672 O721 2.413 . S
Tb672 O723 2.362 . S
Tb672 O724 2.421 . S
Tb672 C736 2.833 . S
C673 C676 1.432 . S
C673 C677 1.414 . S
C673 N680 1.359 . S
C674 C676 1.417 . S
C674 C678 1.432 . S
C674 C686 1.410 . S
C675 C677 1.444 . S
C675 C678 1.317 . S
C675 H698 0.929 . S
C676 C673 1.432 . S
C676 C674 1.417 . S
C676 N684 1.360 . S
C677 C673 1.414 . S
C677 C675 1.444 . S
C677 C682 1.385 . S
C678 C674 1.432 . S
C678 C675 1.317 . S
C678 H690 0.930 . S
C679 C681 1.392 . S
C679 C682 1.370 . S
C679 H691 0.931 . S
N680 C673 1.359 . S
N680 C681 1.327 . S
N680 Tb683 2.600 . S
C681 C679 1.392 . S
C681 N680 1.327 . S
C681 H688 0.930 . S
C682 C677 1.385 . S
C682 C679 1.370 . S
C682 H701 0.930 . S
Tb683 N680 2.600 . S
Tb683 N684 2.660 . S
Tb683 O717 2.362 . S
Tb683 O718 2.421 . S
Tb683 O722 2.546 . S
Tb683 O723 2.610 1_554 S
Tb683 O725 2.320 1_554 S
Tb683 O726 2.552 1_554 S
Tb683 O727 2.413 . S
Tb683 C747 2.833 . S
N684 C676 1.360 . S
N684 Tb683 2.660 . S
N684 C685 1.305 . S
C685 N684 1.305 . S
C685 C687 1.407 . S
C685 H692 0.930 . S
C686 C674 1.410 . S
C686 C687 1.345 . S
C686 H694 0.930 . S
C687 C685 1.407 . S
C687 C686 1.345 . S
C687 H689 0.930 . S
H688 C681 0.930 . S
H689 C687 0.930 . S
H690 C678 0.930 . S
H691 C679 0.931 . S
H692 C685 0.930 . S
H693 C707 0.930 . S
H694 C686 0.930 . S
H695 C713 0.930 . S
H696 C704 0.930 . S
H697 C711 0.931 . S
H698 C675 0.929 . S
H699 C705 0.930 . S
H700 C738 0.930 . S
H701 C682 0.930 . S
H702 C737 0.929 . S
N703 Tb672 2.660 . S
N703 C704 1.305 . S
N703 C708 1.360 . S
C704 H696 0.930 . S
C704 N703 1.305 . S
C704 C707 1.407 . S
C705 H699 0.930 . S
C705 C706 1.410 . S
C705 C707 1.345 . S
C706 C705 1.410 . S
C706 C708 1.417 . S
C706 C738 1.432 . S
C707 H693 0.930 . S
C707 C704 1.407 . S
C707 C705 1.345 . S
C708 N703 1.360 . S
C708 C706 1.417 . S
C708 C712 1.432 . S
H709 C714 0.930 . S
N710 Tb672 2.600 . S
N710 C712 1.359 . S
N710 C713 1.327 . S
C711 H697 0.931 . S
C711 C713 1.392 . S
C711 C714 1.370 . S
C712 C708 1.432 . S
C712 N710 1.359 . S
C712 C715 1.414 . S
C713 H695 0.930 . S
C713 N710 1.327 . S
C713 C711 1.392 . S
C714 H709 0.930 . S
C714 C711 1.370 . S
C714 C715 1.385 . S
C715 C712 1.414 . S
C715 C714 1.385 . S
C715 C737 1.444 . S
O716 Tb672 2.546 . S
O716 C736 1.251 . S
O717 Tb672 2.610 1_554 S
O717 Tb683 2.362 . S
O717 C728 1.283 . S
O718 Tb683 2.421 . S
O718 C735 1.262 . S
O719 Tb672 2.320 1_554 S
O719 C735 1.260 . S
O720 Tb672 2.552 1_554 S
O720 C728 1.243 . S
O721 Tb672 2.413 . S
O721 C736 1.256 . S
O722 Tb683 2.546 . S
O722 C747 1.251 . S
O723 Tb672 2.362 . S
O723 Tb683 2.610 1_556 S
O723 C739 1.283 . S
O724 Tb672 2.421 . S
O724 C746 1.262 . S
O725 Tb683 2.320 1_556 S
O725 C746 1.260 . S
O726 Tb683 2.552 1_556 S
O726 C739 1.243 . S
O727 Tb683 2.413 . S
O727 C747 1.256 . S
C728 O717 1.283 . S
C728 O720 1.243 . S
C729 C731 1.382 . S
C729 C733 1.393 . S
C729 C736 1.500 . S
C730 C731 1.400 . S
C730 C732 1.384 . S
C731 C729 1.382 . S
C731 C730 1.400 . S
C731 H748 0.930 . S
C732 C730 1.384 . S
C732 C734 1.392 . S
C732 H749 0.931 . S
C733 C729 1.393 . S
C733 C734 1.401 . S
C733 H750 0.930 . S
C734 C732 1.392 . S
C734 C733 1.401 . S
C734 H751 0.930 . S
C735 O718 1.262 . S
C735 O719 1.260 . S
C736 Tb672 2.833 . S
C736 O716 1.251 . S
C736 O721 1.256 . S
C736 C729 1.500 . S
C737 H702 0.929 . S
C737 C715 1.444 . S
C737 C738 1.317 . S
C738 H700 0.930 . S
C738 C706 1.432 . S
C738 C737 1.317 . S
C739 O723 1.283 . S
C739 O726 1.243 . S
C740 C741 1.382 . S
C740 C744 1.393 . S
C740 C747 1.500 . S
C741 C740 1.382 . S
C741 C742 1.400 . S
C741 H752 0.930 . S
C742 C741 1.400 . S
C742 C743 1.384 . S
C743 C742 1.384 . S
C743 C745 1.392 . S
C743 H753 0.931 . S
C744 C740 1.393 . S
C744 C745 1.401 . S
C744 H754 0.930 . S
C745 C743 1.392 . S
C745 C744 1.401 . S
C745 H755 0.930 . S
C746 O724 1.262 . S
C746 O725 1.260 . S
C747 Tb683 2.833 . S
C747 O722 1.251 . S
C747 O727 1.256 . S
C747 C740 1.500 . S
H748 C731 0.930 . S
H749 C732 0.931 . S
H750 C733 0.930 . S
H751 C734 0.930 . S
H752 C741 0.930 . S
H753 C743 0.931 . S
H754 C744 0.930 . S
H755 C745 0.930 . S
Tb756 N787 2.660 . S
Tb756 N794 2.600 . S
Tb756 O800 2.546 . S
Tb756 O801 2.610 1_565 S
Tb756 O803 2.320 1_565 S
Tb756 O804 2.552 1_565 S
Tb756 O805 2.413 1_565 S
Tb756 O807 2.362 . S
Tb756 O808 2.421 . S
Tb756 C820 2.833 . S
C757 C760 1.432 . S
C757 C761 1.414 . S
C757 N764 1.359 . S
C758 C760 1.417 . S
C758 C762 1.432 . S
C758 C770 1.410 . S
C759 C761 1.444 . S
C759 C762 1.317 . S
C759 H782 0.929 . S
C760 C757 1.432 . S
C760 C758 1.417 . S
C760 N768 1.360 . S
C761 C757 1.414 . S
C761 C759 1.444 . S
C761 C766 1.385 . S
C762 C758 1.432 . S
C762 C759 1.317 . S
C762 H774 0.930 . S
C763 C765 1.392 . S
C763 C766 1.370 . S
C763 H775 0.931 . S
N764 C757 1.359 . S
N764 C765 1.327 . S
N764 Tb767 2.600 . S
C765 C763 1.392 . S
C765 N764 1.327 . S
C765 H772 0.930 . S
C766 C761 1.385 . S
C766 C763 1.370 . S
C766 H785 0.930 . S
Tb767 N764 2.600 . S
Tb767 N768 2.660 . S
Tb767 O801 2.362 . S
Tb767 O802 2.421 . S
Tb767 O806 2.546 . S
Tb767 O807 2.610 1_545 S
Tb767 O809 2.320 1_545 S
Tb767 O810 2.552 1_545 S
Tb767 O811 2.413 1_545 S
Tb767 C831 2.833 . S
N768 C760 1.360 . S
N768 Tb767 2.660 . S
N768 C769 1.305 . S
C769 N768 1.305 . S
C769 C771 1.407 . S
C769 H776 0.930 . S
C770 C758 1.410 . S
C770 C771 1.345 . S
C770 H778 0.930 . S
C771 C769 1.407 . S
C771 C770 1.345 . S
C771 H773 0.930 . S
H772 C765 0.930 . S
H773 C771 0.930 . S
H774 C762 0.930 . S
H775 C763 0.931 . S
H776 C769 0.930 . S
H777 C791 0.930 . S
H778 C770 0.930 . S
H779 C797 0.930 . S
H780 C788 0.930 . S
H781 C795 0.931 . S
H782 C759 0.929 . S
H783 C789 0.930 . S
H784 C822 0.930 . S
H785 C766 0.930 . S
H786 C821 0.929 . S
N787 Tb756 2.660 . S
N787 C788 1.305 . S
N787 C792 1.360 . S
C788 H780 0.930 . S
C788 N787 1.305 . S
C788 C791 1.407 . S
C789 H783 0.930 . S
C789 C790 1.410 . S
C789 C791 1.345 . S
C790 C789 1.410 . S
C790 C792 1.417 . S
C790 C822 1.432 . S
C791 H777 0.930 . S
C791 C788 1.407 . S
C791 C789 1.345 . S
C792 N787 1.360 . S
C792 C790 1.417 . S
C792 C796 1.432 . S
H793 C798 0.930 . S
N794 Tb756 2.600 . S
N794 C796 1.359 . S
N794 C797 1.327 . S
C795 H781 0.931 . S
C795 C797 1.392 . S
C795 C798 1.370 . S
C796 C792 1.432 . S
C796 N794 1.359 . S
C796 C799 1.414 . S
C797 H779 0.930 . S
C797 N794 1.327 . S
C797 C795 1.392 . S
C798 H793 0.930 . S
C798 C795 1.370 . S
C798 C799 1.385 . S
C799 C796 1.414 . S
C799 C798 1.385 . S
C799 C821 1.444 . S
O800 Tb756 2.546 . S
O800 C820 1.251 . S
O801 Tb756 2.610 1_545 S
O801 Tb767 2.362 . S
O801 C812 1.283 . S
O802 Tb767 2.421 . S
O802 C819 1.262 . S
O803 Tb756 2.320 1_545 S
O803 C819 1.260 . S
O804 Tb756 2.552 1_545 S
O804 C812 1.243 . S
O805 Tb756 2.413 1_545 S
O805 C820 1.256 1_545 S
O806 Tb767 2.546 . S
O806 C831 1.251 . S
O807 Tb756 2.362 . S
O807 Tb767 2.610 1_565 S
O807 C823 1.283 . S
O808 Tb756 2.421 . S
O808 C830 1.262 . S
O809 Tb767 2.320 1_565 S
O809 C830 1.260 . S
O810 Tb767 2.552 1_565 S
O810 C823 1.243 . S
O811 Tb767 2.413 1_565 S
O811 C831 1.256 1_565 S
C812 O801 1.283 . S
C812 O804 1.243 . S
C813 C815 1.382 . S
C813 C817 1.393 1_544 S
C813 C820 1.500 1_545 S
C814 C815 1.400 1_556 S
C814 C816 1.384 . S
C815 C813 1.382 . S
C815 C814 1.400 1_554 S
C815 H832 0.930 . S
C816 C814 1.384 . S
C816 C818 1.392 1_545 S
C816 H833 0.931 . S
C817 C813 1.393 1_566 S
C817 C818 1.401 . S
C817 H834 0.930 . S
C818 C816 1.392 1_565 S
C818 C817 1.401 . S
C818 H835 0.930 . S
C819 O802 1.262 . S
C819 O803 1.260 . S
C820 Tb756 2.833 . S
C820 O800 1.251 . S
C820 O805 1.256 1_565 S
C820 C813 1.500 1_565 S
C821 H786 0.929 . S
C821 C799 1.444 . S
C821 C822 1.317 . S
C822 H784 0.930 . S
C822 C790 1.432 . S
C822 C821 1.317 . S
C823 O807 1.283 . S
C823 O810 1.243 . S
C824 C825 1.387 . S
C824 C828 1.386 1_565 S
C824 C831 1.503 1_565 S
C825 C824 1.387 . S
C825 C826 1.400 . S
C825 H836 0.930 . S
C826 C825 1.400 . S
C826 C827 1.384 . S
C827 C826 1.384 . S
C827 C829 1.392 1_565 S
C827 H837 0.931 . S
C828 C824 1.386 1_545 S
C828 C829 1.401 . S
C828 H838 0.930 . S
C829 C827 1.392 1_545 S
C829 C828 1.401 . S
C829 H839 0.930 . S
C830 O808 1.262 . S
C830 O809 1.260 . S
C831 Tb767 2.833 . S
C831 O806 1.251 . S
C831 O811 1.256 1_545 S
C831 C824 1.503 1_545 S
H832 C815 0.930 . S
H833 C816 0.931 . S
H834 C817 0.930 . S
H835 C818 0.930 . S
H836 C825 0.930 . S
H837 C827 0.931 . S
H838 C828 0.930 . S
H839 C829 0.930 . S
Tb840 N871 2.660 . S
Tb840 N878 2.600 . S
Tb840 O884 2.546 . S
Tb840 O885 2.610 . S
Tb840 O887 2.320 . S
Tb840 O888 2.552 . S
Tb840 O889 2.413 . S
Tb840 O891 2.362 . S
Tb840 O892 2.421 . S
Tb840 C904 2.833 . S
C841 C844 1.432 . S
C841 C845 1.414 . S
C841 N848 1.359 . S
C842 C844 1.417 . S
C842 C846 1.432 . S
C842 C854 1.410 . S
C843 C845 1.444 . S
C843 C846 1.317 . S
C843 H866 0.929 . S
C844 C841 1.432 . S
C844 C842 1.417 . S
C844 N852 1.360 . S
C845 C841 1.414 . S
C845 C843 1.444 . S
C845 C850 1.385 . S
C846 C842 1.432 . S
C846 C843 1.317 . S
C846 H858 0.930 . S
C847 C849 1.392 . S
C847 C850 1.370 . S
C847 H859 0.931 . S
N848 C841 1.359 . S
N848 C849 1.327 . S
N848 Tb851 2.600 . S
C849 C847 1.392 . S
C849 N848 1.327 . S
C849 H856 0.930 . S
C850 C845 1.385 . S
C850 C847 1.370 . S
C850 H869 0.930 . S
Tb851 N848 2.600 . S
Tb851 N852 2.660 . S
Tb851 O885 2.362 . S
Tb851 O886 2.421 . S
Tb851 O890 2.546 . S
Tb851 O891 2.610 . S
Tb851 O893 2.320 . S
Tb851 O894 2.552 . S
Tb851 O895 2.413 . S
Tb851 C915 2.833 . S
N852 C844 1.360 . S
N852 Tb851 2.660 . S
N852 C853 1.305 . S
C853 N852 1.305 . S
C853 C855 1.407 . S
C853 H860 0.930 . S
C854 C842 1.410 . S
C854 C855 1.345 . S
C854 H862 0.930 . S
C855 C853 1.407 . S
C855 C854 1.345 . S
C855 H857 0.930 . S
H856 C849 0.930 . S
H857 C855 0.930 . S
H858 C846 0.930 . S
H859 C847 0.931 . S
H860 C853 0.930 . S
H861 C875 0.930 . S
H862 C854 0.930 . S
H863 C881 0.930 . S
H864 C872 0.930 . S
H865 C879 0.931 . S
H866 C843 0.929 . S
H867 C873 0.930 . S
H868 C906 0.930 . S
H869 C850 0.930 . S
H870 C905 0.929 . S
N871 Tb840 2.660 . S
N871 C872 1.305 . S
N871 C876 1.360 . S
C872 H864 0.930 . S
C872 N871 1.305 . S
C872 C875 1.407 . S
C873 H867 0.930 . S
C873 C874 1.410 . S
C873 C875 1.345 . S
C874 C873 1.410 . S
C874 C876 1.417 . S
C874 C906 1.432 . S
C875 H861 0.930 . S
C875 C872 1.407 . S
C875 C873 1.345 . S
C876 N871 1.360 . S
C876 C874 1.417 . S
C876 C880 1.432 . S
H877 C882 0.930 . S
N878 Tb840 2.600 . S
N878 C880 1.359 . S
N878 C881 1.327 . S
C879 H865 0.931 . S
C879 C881 1.392 . S
C879 C882 1.370 . S
C880 C876 1.432 . S
C880 N878 1.359 . S
C880 C883 1.414 . S
C881 H863 0.930 . S
C881 N878 1.327 . S
C881 C879 1.392 . S
C882 H877 0.930 . S
C882 C879 1.370 . S
C882 C883 1.385 . S
C883 C880 1.414 . S
C883 C882 1.385 . S
C883 C905 1.444 . S
O884 Tb840 2.546 . S
O884 C904 1.251 . S
O885 Tb840 2.610 . S
O885 Tb851 2.362 . S
O885 C896 1.283 . S
O886 Tb851 2.421 . S
O886 C903 1.262 . S
O887 Tb840 2.320 . S
O887 C903 1.260 . S
O888 Tb840 2.552 . S
O888 C896 1.243 . S
O889 Tb840 2.413 . S
O889 C904 1.256 . S
O890 Tb851 2.546 . S
O890 C915 1.251 . S
O891 Tb840 2.362 . S
O891 Tb851 2.610 . S
O891 C907 1.283 . S
O892 Tb840 2.421 . S
O892 C914 1.262 . S
O893 Tb851 2.320 . S
O893 C914 1.260 . S
O894 Tb851 2.552 . S
O894 C907 1.243 . S
O895 Tb851 2.413 . S
O895 C915 1.256 . S
C896 O885 1.283 . S
C896 O888 1.243 . S
C897 C899 1.382 . S
C897 C901 1.393 1_556 S
C897 C904 1.500 . S
C898 C899 1.400 1_554 S
C898 C900 1.384 . S
C899 C897 1.382 . S
C899 C898 1.400 1_556 S
C899 H916 0.930 . S
C900 C898 1.384 . S
C900 C902 1.392 . S
C900 H917 0.931 . S
C901 C897 1.393 1_554 S
C901 C902 1.401 . S
C901 H918 0.930 . S
C902 C900 1.392 . S
C902 C901 1.401 . S
C902 H919 0.930 . S
C903 O886 1.262 . S
C903 O887 1.260 . S
C904 Tb840 2.833 . S
C904 O884 1.251 . S
C904 O889 1.256 . S
C904 C897 1.500 . S
C905 H870 0.929 . S
C905 C883 1.444 . S
C905 C906 1.317 . S
C906 H868 0.930 . S
C906 C874 1.432 . S
C906 C905 1.317 . S
C907 O891 1.283 . S
C907 O894 1.243 . S
C908 C909 1.382 . S
C908 C912 1.393 . S
C908 C915 1.500 . S
C909 C908 1.382 . S
C909 C910 1.400 . S
C909 H920 0.930 . S
C910 C909 1.400 . S
C910 C911 1.384 . S
C911 C910 1.384 . S
C911 C913 1.392 . S
C911 H921 0.931 . S
C912 C908 1.393 . S
C912 C913 1.401 . S
C912 H922 0.930 . S
C913 C911 1.392 . S
C913 C912 1.401 . S
C913 H923 0.930 . S
C914 O892 1.262 . S
C914 O893 1.260 . S
C915 Tb851 2.833 . S
C915 O890 1.251 . S
C915 O895 1.256 . S
C915 C908 1.500 . S
H916 C899 0.930 . S
H917 C900 0.931 . S
H918 C901 0.930 . S
H919 C902 0.930 . S
H920 C909 0.930 . S
H921 C911 0.931 . S
H922 C912 0.930 . S
H923 C913 0.930 . S
Tb924 N955 2.660 . S
Tb924 N962 2.600 . S
Tb924 O968 2.546 . S
Tb924 O969 2.610 1_455 S
Tb924 O971 2.320 1_455 S
Tb924 O972 2.552 1_455 S
Tb924 O973 2.413 1_455 S
Tb924 O975 2.362 . S
Tb924 O976 2.421 . S
Tb924 C988 2.833 . S
C925 C928 1.432 . S
C925 C929 1.414 . S
C925 N932 1.359 . S
C926 C928 1.417 . S
C926 C930 1.432 . S
C926 C938 1.410 . S
C927 C929 1.444 . S
C927 C930 1.317 . S
C927 H950 0.929 . S
C928 C925 1.432 . S
C928 C926 1.417 . S
C928 N936 1.360 . S
C929 C925 1.414 . S
C929 C927 1.444 . S
C929 C934 1.385 . S
C930 C926 1.432 . S
C930 C927 1.317 . S
C930 H942 0.930 . S
C931 C933 1.392 . S
C931 C934 1.370 . S
C931 H943 0.931 . S
N932 C925 1.359 . S
N932 C933 1.327 . S
N932 Tb935 2.600 . S
C933 C931 1.392 . S
C933 N932 1.327 . S
C933 H940 0.930 . S
C934 C929 1.385 . S
C934 C931 1.370 . S
C934 H953 0.930 . S
Tb935 N932 2.600 . S
Tb935 N936 2.660 . S
Tb935 O969 2.362 . S
Tb935 O970 2.421 . S
Tb935 O974 2.546 . S
Tb935 O975 2.610 1_655 S
Tb935 O977 2.320 1_655 S
Tb935 O978 2.552 1_655 S
Tb935 O979 2.413 1_655 S
Tb935 C999 2.833 . S
N936 C928 1.360 . S
N936 Tb935 2.660 . S
N936 C937 1.305 . S
C937 N936 1.305 . S
C937 C939 1.407 . S
C937 H944 0.930 . S
C938 C926 1.410 . S
C938 C939 1.345 . S
C938 H946 0.930 . S
C939 C937 1.407 . S
C939 C938 1.345 . S
C939 H941 0.930 . S
H940 C933 0.930 . S
H941 C939 0.930 . S
H942 C930 0.930 . S
H943 C931 0.931 . S
H944 C937 0.930 . S
H945 C959 0.930 . S
H946 C938 0.930 . S
H947 C965 0.930 . S
H948 C956 0.930 . S
H949 C963 0.931 . S
H950 C927 0.929 . S
H951 C957 0.930 . S
H952 C990 0.930 . S
H953 C934 0.930 . S
H954 C989 0.929 . S
N955 Tb924 2.660 . S
N955 C956 1.305 . S
N955 C960 1.360 . S
C956 H948 0.930 . S
C956 N955 1.305 . S
C956 C959 1.407 . S
C957 H951 0.930 . S
C957 C958 1.410 . S
C957 C959 1.345 . S
C958 C957 1.410 . S
C958 C960 1.417 . S
C958 C990 1.432 . S
C959 H945 0.930 . S
C959 C956 1.407 . S
C959 C957 1.345 . S
C960 N955 1.360 . S
C960 C958 1.417 . S
C960 C964 1.432 . S
H961 C966 0.930 . S
N962 Tb924 2.600 . S
N962 C964 1.359 . S
N962 C965 1.327 . S
C963 H949 0.931 . S
C963 C965 1.392 . S
C963 C966 1.370 . S
C964 C960 1.432 . S
C964 N962 1.359 . S
C964 C967 1.414 . S
C965 H947 0.930 . S
C965 N962 1.327 . S
C965 C963 1.392 . S
C966 H961 0.930 . S
C966 C963 1.370 . S
C966 C967 1.385 . S
C967 C964 1.414 . S
C967 C966 1.385 . S
C967 C989 1.444 . S
O968 Tb924 2.546 . S
O968 C988 1.251 . S
O969 Tb924 2.610 1_655 S
O969 Tb935 2.362 . S
O969 C980 1.283 . S
O970 Tb935 2.421 . S
O970 C987 1.262 . S
O971 Tb924 2.320 1_655 S
O971 C987 1.260 . S
O972 Tb924 2.552 1_655 S
O972 C980 1.243 . S
O973 Tb924 2.413 1_655 S
O973 C988 1.256 1_655 S
O974 Tb935 2.546 . S
O974 C999 1.251 . S
O975 Tb924 2.362 . S
O975 Tb935 2.610 1_455 S
O975 C991 1.283 . S
O976 Tb924 2.421 . S
O976 C998 1.262 . S
O977 Tb935 2.320 1_455 S
O977 C998 1.260 . S
O978 Tb935 2.552 1_455 S
O978 C991 1.243 . S
O979 Tb935 2.413 1_455 S
O979 C999 1.256 1_455 S
C980 O969 1.283 . S
C980 O972 1.243 . S
C981 C983 1.382 . S
C981 C985 1.393 1_656 S
C981 C988 1.500 1_655 S
C982 C983 1.400 1_554 S
C982 C984 1.384 . S
C983 C981 1.382 . S
C983 C982 1.400 1_556 S
C983 H1000 0.930 . S
C984 C982 1.384 . S
C984 C986 1.392 1_655 S
C984 H1001 0.931 . S
C985 C981 1.393 1_454 S
C985 C986 1.401 . S
C985 H1002 0.930 . S
C986 C984 1.392 1_455 S
C986 C985 1.401 . S
C986 H1003 0.930 . S
C987 O970 1.262 . S
C987 O971 1.260 . S
C988 Tb924 2.833 . S
C988 O968 1.251 . S
C988 O973 1.256 1_455 S
C988 C981 1.500 1_455 S
C989 H954 0.929 . S
C989 C967 1.444 . S
C989 C990 1.317 . S
C990 H952 0.930 . S
C990 C958 1.432 . S
C990 C989 1.317 . S
C991 O975 1.283 . S
C991 O978 1.243 . S
C992 C993 1.382 . S
C992 C996 1.393 1_455 S
C992 C999 1.500 1_455 S
C993 C992 1.382 . S
C993 C994 1.400 . S
C993 H1004 0.930 . S
C994 C993 1.400 . S
C994 C995 1.384 . S
C995 C994 1.384 . S
C995 C997 1.392 1_455 S
C995 H1005 0.931 . S
C996 C992 1.393 1_655 S
C996 C997 1.401 . S
C996 H1006 0.930 . S
C997 C995 1.392 1_655 S
C997 C996 1.401 . S
C997 H1007 0.930 . S
C998 O976 1.262 . S
C998 O977 1.260 . S
C999 Tb935 2.833 . S
C999 O974 1.251 . S
C999 O979 1.256 1_655 S
C999 C992 1.500 1_655 S
H1000 C983 0.930 . S
H1001 C984 0.931 . S
H1002 C985 0.930 . S
H1003 C986 0.930 . S
H1004 C993 0.930 . S
H1005 C995 0.931 . S
H1006 C996 0.930 . S
H1007 C997 0.930 . S
Tb1008 N1039 2.660 . S
Tb1008 N1046 2.600 . S
Tb1008 O1052 2.546 . S
Tb1008 O1053 2.610 . S
Tb1008 O1055 2.320 . S
Tb1008 O1056 2.552 . S
Tb1008 O1057 2.413 . S
Tb1008 O1059 2.362 . S
Tb1008 O1060 2.421 . S
Tb1008 C1072 2.833 . S
C1009 C1012 1.432 . S
C1009 C1013 1.414 . S
C1009 N1016 1.359 . S
C1010 C1012 1.417 . S
C1010 C1014 1.432 . S
C1010 C1022 1.410 . S
C1011 C1013 1.444 . S
C1011 C1014 1.317 . S
C1011 H1034 0.929 . S
C1012 C1009 1.432 . S
C1012 C1010 1.417 . S
C1012 N1020 1.360 . S
C1013 C1009 1.414 . S
C1013 C1011 1.444 . S
C1013 C1018 1.385 . S
C1014 C1010 1.432 . S
C1014 C1011 1.317 . S
C1014 H1026 0.930 . S
C1015 C1017 1.392 . S
C1015 C1018 1.370 . S
C1015 H1027 0.931 . S
N1016 C1009 1.359 . S
N1016 C1017 1.327 . S
N1016 Tb1019 2.600 . S
C1017 C1015 1.392 . S
C1017 N1016 1.327 . S
C1017 H1024 0.930 . S
C1018 C1013 1.385 . S
C1018 C1015 1.370 . S
C1018 H1037 0.930 . S
Tb1019 N1016 2.600 . S
Tb1019 N1020 2.660 . S
Tb1019 O1053 2.362 . S
Tb1019 O1054 2.421 . S
Tb1019 O1058 2.546 . S
Tb1019 O1059 2.610 . S
Tb1019 O1061 2.320 . S
Tb1019 O1062 2.552 . S
Tb1019 O1063 2.413 . S
Tb1019 C1083 2.833 . S
N1020 C1012 1.360 . S
N1020 Tb1019 2.660 . S
N1020 C1021 1.305 . S
C1021 N1020 1.305 . S
C1021 C1023 1.407 . S
C1021 H1028 0.930 . S
C1022 C1010 1.410 . S
C1022 C1023 1.345 . S
C1022 H1030 0.930 . S
C1023 C1021 1.407 . S
C1023 C1022 1.345 . S
C1023 H1025 0.930 . S
H1024 C1017 0.930 . S
H1025 C1023 0.930 . S
H1026 C1014 0.930 . S
H1027 C1015 0.931 . S
H1028 C1021 0.930 . S
H1029 C1043 0.930 . S
H1030 C1022 0.930 . S
H1031 C1049 0.930 . S
H1032 C1040 0.930 . S
H1033 C1047 0.931 . S
H1034 C1011 0.929 . S
H1035 C1041 0.930 . S
H1036 C1074 0.930 . S
H1037 C1018 0.930 . S
H1038 C1073 0.929 . S
N1039 Tb1008 2.660 . S
N1039 C1040 1.305 . S
N1039 C1044 1.360 . S
C1040 H1032 0.930 . S
C1040 N1039 1.305 . S
C1040 C1043 1.407 . S
C1041 H1035 0.930 . S
C1041 C1042 1.410 . S
C1041 C1043 1.345 . S
C1042 C1041 1.410 . S
C1042 C1044 1.417 . S
C1042 C1074 1.432 . S
C1043 H1029 0.930 . S
C1043 C1040 1.407 . S
C1043 C1041 1.345 . S
C1044 N1039 1.360 . S
C1044 C1042 1.417 . S
C1044 C1048 1.432 . S
H1045 C1050 0.930 . S
N1046 Tb1008 2.600 . S
N1046 C1048 1.359 . S
N1046 C1049 1.327 . S
C1047 H1033 0.931 . S
C1047 C1049 1.392 . S
C1047 C1050 1.370 . S
C1048 C1044 1.432 . S
C1048 N1046 1.359 . S
C1048 C1051 1.414 . S
C1049 H1031 0.930 . S
C1049 N1046 1.327 . S
C1049 C1047 1.392 . S
C1050 H1045 0.930 . S
C1050 C1047 1.370 . S
C1050 C1051 1.385 . S
C1051 C1048 1.414 . S
C1051 C1050 1.385 . S
C1051 C1073 1.444 . S
O1052 Tb1008 2.546 . S
O1052 C1072 1.251 . S
O1053 Tb1008 2.610 . S
O1053 Tb1019 2.362 . S
O1053 C1064 1.283 . S
O1054 Tb1019 2.421 . S
O1054 C1071 1.262 . S
O1055 Tb1008 2.320 . S
O1055 C1071 1.260 . S
O1056 Tb1008 2.552 . S
O1056 C1064 1.243 . S
O1057 Tb1008 2.413 . S
O1057 C1072 1.256 . S
O1058 Tb1019 2.546 . S
O1058 C1083 1.251 . S
O1059 Tb1008 2.362 . S
O1059 Tb1019 2.610 . S
O1059 C1075 1.283 . S
O1060 Tb1008 2.421 . S
O1060 C1082 1.262 . S
O1061 Tb1019 2.320 . S
O1061 C1082 1.260 . S
O1062 Tb1019 2.552 . S
O1062 C1075 1.243 . S
O1063 Tb1019 2.413 . S
O1063 C1083 1.256 . S
C1064 O1053 1.283 . S
C1064 O1056 1.243 . S
C1065 C1067 1.382 . S
C1065 C1069 1.393 1_554 S
C1065 C1072 1.500 . S
C1066 C1067 1.400 1_556 S
C1066 C1068 1.384 . S
C1067 C1065 1.382 . S
C1067 C1066 1.400 1_554 S
C1067 H1084 0.930 . S
C1068 C1066 1.384 . S
C1068 C1070 1.392 . S
C1068 H1085 0.931 . S
C1069 C1065 1.393 1_556 S
C1069 C1070 1.401 . S
C1069 H1086 0.930 . S
C1070 C1068 1.392 . S
C1070 C1069 1.401 . S
C1070 H1087 0.930 . S
C1071 O1054 1.262 . S
C1071 O1055 1.260 . S
C1072 Tb1008 2.833 . S
C1072 O1052 1.251 . S
C1072 O1057 1.256 . S
C1072 C1065 1.500 . S
C1073 H1038 0.929 . S
C1073 C1051 1.444 . S
C1073 C1074 1.317 . S
C1074 H1036 0.930 . S
C1074 C1042 1.432 . S
C1074 C1073 1.317 . S
C1075 O1059 1.283 . S
C1075 O1062 1.243 . S
C1076 C1077 1.382 . S
C1076 C1080 1.393 . S
C1076 C1083 1.500 . S
C1077 C1076 1.382 . S
C1077 C1078 1.400 . S
C1077 H1088 0.930 . S
C1078 C1077 1.400 . S
C1078 C1079 1.384 . S
C1079 C1078 1.384 . S
C1079 C1081 1.392 . S
C1079 H1089 0.931 . S
C1080 C1076 1.393 . S
C1080 C1081 1.401 . S
C1080 H1090 0.930 . S
C1081 C1079 1.392 . S
C1081 C1080 1.401 . S
C1081 H1091 0.930 . S
C1082 O1060 1.262 . S
C1082 O1061 1.260 . S
C1083 Tb1019 2.833 . S
C1083 O1058 1.251 . S
C1083 O1063 1.256 . S
C1083 C1076 1.500 . S
H1084 C1067 0.930 . S
H1085 C1068 0.931 . S
H1086 C1069 0.930 . S
H1087 C1070 0.930 . S
H1088 C1077 0.930 . S
H1089 C1079 0.931 . S
H1090 C1080 0.930 . S
H1091 C1081 0.930 . S
Tb1092 N1123 2.660 . S
Tb1092 N1130 2.600 . S
Tb1092 O1136 2.546 . S
Tb1092 O1137 2.610 1_556 S
Tb1092 O1139 2.320 1_556 S
Tb1092 O1140 2.552 1_556 S
Tb1092 O1141 2.413 . S
Tb1092 O1143 2.362 . S
Tb1092 O1144 2.421 . S
Tb1092 C1156 2.833 . S
C1093 C1096 1.432 . S
C1093 C1097 1.414 . S
C1093 N1100 1.359 . S
C1094 C1096 1.417 . S
C1094 C1098 1.432 . S
C1094 C1106 1.410 . S
C1095 C1097 1.444 . S
C1095 C1098 1.317 . S
C1095 H1118 0.929 . S
C1096 C1093 1.432 . S
C1096 C1094 1.417 . S
C1096 N1104 1.360 . S
C1097 C1093 1.414 . S
C1097 C1095 1.444 . S
C1097 C1102 1.385 . S
C1098 C1094 1.432 . S
C1098 C1095 1.317 . S
C1098 H1110 0.930 . S
C1099 C1101 1.392 . S
C1099 C1102 1.370 . S
C1099 H1111 0.931 . S
N1100 C1093 1.359 . S
N1100 C1101 1.327 . S
N1100 Tb1103 2.600 . S
C1101 C1099 1.392 . S
C1101 N1100 1.327 . S
C1101 H1108 0.930 . S
C1102 C1097 1.385 . S
C1102 C1099 1.370 . S
C1102 H1121 0.930 . S
Tb1103 N1100 2.600 . S
Tb1103 N1104 2.660 . S
Tb1103 O1137 2.362 . S
Tb1103 O1138 2.421 . S
Tb1103 O1142 2.546 . S
Tb1103 O1143 2.610 1_554 S
Tb1103 O1145 2.320 1_554 S
Tb1103 O1146 2.552 1_554 S
Tb1103 O1147 2.413 . S
Tb1103 C1167 2.833 . S
N1104 C1096 1.360 . S
N1104 Tb1103 2.660 . S
N1104 C1105 1.305 . S
C1105 N1104 1.305 . S
C1105 C1107 1.407 . S
C1105 H1112 0.930 . S
C1106 C1094 1.410 . S
C1106 C1107 1.345 . S
C1106 H1114 0.930 . S
C1107 C1105 1.407 . S
C1107 C1106 1.345 . S
C1107 H1109 0.930 . S
H1108 C1101 0.930 . S
H1109 C1107 0.930 . S
H1110 C1098 0.930 . S
H1111 C1099 0.931 . S
H1112 C1105 0.930 . S
H1113 C1127 0.930 . S
H1114 C1106 0.930 . S
H1115 C1133 0.930 . S
H1116 C1124 0.930 . S
H1117 C1131 0.931 . S
H1118 C1095 0.929 . S
H1119 C1125 0.930 . S
H1120 C1158 0.930 . S
H1121 C1102 0.930 . S
H1122 C1157 0.929 . S
N1123 Tb1092 2.660 . S
N1123 C1124 1.305 . S
N1123 C1128 1.360 . S
C1124 H1116 0.930 . S
C1124 N1123 1.305 . S
C1124 C1127 1.407 . S
C1125 H1119 0.930 . S
C1125 C1126 1.410 . S
C1125 C1127 1.345 . S
C1126 C1125 1.410 . S
C1126 C1128 1.417 . S
C1126 C1158 1.432 . S
C1127 H1113 0.930 . S
C1127 C1124 1.407 . S
C1127 C1125 1.345 . S
C1128 N1123 1.360 . S
C1128 C1126 1.417 . S
C1128 C1132 1.432 . S
H1129 C1134 0.930 . S
N1130 Tb1092 2.600 . S
N1130 C1132 1.359 . S
N1130 C1133 1.327 . S
C1131 H1117 0.931 . S
C1131 C1133 1.392 . S
C1131 C1134 1.370 . S
C1132 C1128 1.432 . S
C1132 N1130 1.359 . S
C1132 C1135 1.414 . S
C1133 H1115 0.930 . S
C1133 N1130 1.327 . S
C1133 C1131 1.392 . S
C1134 H1129 0.930 . S
C1134 C1131 1.370 . S
C1134 C1135 1.385 . S
C1135 C1132 1.414 . S
C1135 C1134 1.385 . S
C1135 C1157 1.444 . S
O1136 Tb1092 2.546 . S
O1136 C1156 1.251 . S
O1137 Tb1092 2.610 1_554 S
O1137 Tb1103 2.362 . S
O1137 C1148 1.283 . S
O1138 Tb1103 2.421 . S
O1138 C1155 1.262 . S
O1139 Tb1092 2.320 1_554 S
O1139 C1155 1.260 . S
O1140 Tb1092 2.552 1_554 S
O1140 C1148 1.243 . S
O1141 Tb1092 2.413 . S
O1141 C1156 1.256 . S
O1142 Tb1103 2.546 . S
O1142 C1167 1.251 . S
O1143 Tb1092 2.362 . S
O1143 Tb1103 2.610 1_556 S
O1143 C1159 1.283 . S
O1144 Tb1092 2.421 . S
O1144 C1166 1.262 . S
O1145 Tb1103 2.320 1_556 S
O1145 C1166 1.260 . S
O1146 Tb1103 2.552 1_556 S
O1146 C1159 1.243 . S
O1147 Tb1103 2.413 . S
O1147 C1167 1.256 . S
C1148 O1137 1.283 . S
C1148 O1140 1.243 . S
C1149 C1151 1.382 . S
C1149 C1153 1.393 . S
C1149 C1156 1.500 . S
C1150 C1151 1.400 . S
C1150 C1152 1.384 . S
C1151 C1149 1.382 . S
C1151 C1150 1.400 . S
C1151 H1168 0.930 . S
C1152 C1150 1.384 . S
C1152 C1154 1.392 . S
C1152 H1169 0.931 . S
C1153 C1149 1.393 . S
C1153 C1154 1.401 . S
C1153 H1170 0.930 . S
C1154 C1152 1.392 . S
C1154 C1153 1.401 . S
C1154 H1171 0.930 . S
C1155 O1138 1.262 . S
C1155 O1139 1.260 . S
C1156 Tb1092 2.833 . S
C1156 O1136 1.251 . S
C1156 O1141 1.256 . S
C1156 C1149 1.500 . S
C1157 H1122 0.929 . S
C1157 C1135 1.444 . S
C1157 C1158 1.317 . S
C1158 H1120 0.930 . S
C1158 C1126 1.432 . S
C1158 C1157 1.317 . S
C1159 O1143 1.283 . S
C1159 O1146 1.243 . S
C1160 C1161 1.382 . S
C1160 C1164 1.393 . S
C1160 C1167 1.500 . S
C1161 C1160 1.382 . S
C1161 C1162 1.400 . S
C1161 H1172 0.930 . S
C1162 C1161 1.400 . S
C1162 C1163 1.384 . S
C1163 C1162 1.384 . S
C1163 C1165 1.392 . S
C1163 H1173 0.931 . S
C1164 C1160 1.393 . S
C1164 C1165 1.401 . S
C1164 H1174 0.930 . S
C1165 C1163 1.392 . S
C1165 C1164 1.401 . S
C1165 H1175 0.930 . S
C1166 O1144 1.262 . S
C1166 O1145 1.260 . S
C1167 Tb1103 2.833 . S
C1167 O1142 1.251 . S
C1167 O1147 1.256 . S
C1167 C1160 1.500 . S
H1168 C1151 0.930 . S
H1169 C1152 0.931 . S
H1170 C1153 0.930 . S
H1171 C1154 0.930 . S
H1172 C1161 0.930 . S
H1173 C1163 0.931 . S
H1174 C1164 0.930 . S
H1175 C1165 0.930 . S
Tb1176 N1207 2.660 1_565 S
Tb1176 N1214 2.600 . S
Tb1176 O1220 2.546 . S
Tb1176 O1221 2.610 . S
Tb1176 O1223 2.320 1_565 S
Tb1176 O1224 2.552 . S
Tb1176 O1225 2.413 . S
Tb1176 O1227 2.362 1_565 S
Tb1176 O1228 2.421 . S
Tb1176 C1240 2.833 . S
C1177 C1180 1.432 1_545 S
C1177 C1181 1.414 . S
C1177 N1184 1.359 . S
C1178 C1180 1.417 . S
C1178 C1182 1.432 . S
C1178 C1190 1.410 . S
C1179 C1181 1.444 1_565 S
C1179 C1182 1.317 . S
C1179 H1202 0.929 . S
C1180 C1177 1.432 1_565 S
C1180 C1178 1.417 . S
C1180 N1188 1.360 . S
C1181 C1177 1.414 . S
C1181 C1179 1.444 1_545 S
C1181 C1186 1.385 . S
C1182 C1178 1.432 . S
C1182 C1179 1.317 . S
C1182 H1194 0.930 . S
C1183 C1185 1.392 . S
C1183 C1186 1.370 . S
C1183 H1195 0.931 . S
N1184 C1177 1.359 . S
N1184 C1185 1.327 . S
N1184 Tb1187 2.600 . S
C1185 C1183 1.392 . S
C1185 N1184 1.327 . S
C1185 H1192 0.930 . S
C1186 C1181 1.385 . S
C1186 C1183 1.370 . S
C1186 H1205 0.930 . S
Tb1187 N1184 2.600 . S
Tb1187 N1188 2.660 1_545 S
Tb1187 O1221 2.362 1_545 S
Tb1187 O1222 2.421 . S
Tb1187 O1226 2.546 . S
Tb1187 O1227 2.610 . S
Tb1187 O1229 2.320 1_545 S
Tb1187 O1230 2.552 . S
Tb1187 O1231 2.413 . S
Tb1187 C1251 2.833 . S
N1188 C1180 1.360 . S
N1188 Tb1187 2.660 1_565 S
N1188 C1189 1.305 . S
C1189 N1188 1.305 . S
C1189 C1191 1.407 . S
C1189 H1196 0.930 . S
C1190 C1178 1.410 . S
C1190 C1191 1.345 . S
C1190 H1198 0.930 . S
C1191 C1189 1.407 . S
C1191 C1190 1.345 . S
C1191 H1193 0.930 . S
H1192 C1185 0.930 . S
H1193 C1191 0.930 . S
H1194 C1182 0.930 . S
H1195 C1183 0.931 . S
H1196 C1189 0.930 . S
H1197 C1211 0.930 . S
H1198 C1190 0.930 . S
H1199 C1217 0.930 . S
H1200 C1208 0.930 . S
H1201 C1215 0.931 . S
H1202 C1179 0.929 . S
H1203 C1209 0.930 . S
H1204 C1242 0.930 . S
H1205 C1186 0.930 . S
H1206 C1241 0.929 . S
N1207 Tb1176 2.660 1_545 S
N1207 C1208 1.305 . S
N1207 C1212 1.360 . S
C1208 H1200 0.930 . S
C1208 N1207 1.305 . S
C1208 C1211 1.407 . S
C1209 H1203 0.930 . S
C1209 C1210 1.410 . S
C1209 C1211 1.345 . S
C1210 C1209 1.410 . S
C1210 C1212 1.417 . S
C1210 C1242 1.432 . S
C1211 H1197 0.930 . S
C1211 C1208 1.407 . S
C1211 C1209 1.345 . S
C1212 N1207 1.360 . S
C1212 C1210 1.417 . S
C1212 C1216 1.432 1_545 S
H1213 C1218 0.930 . S
N1214 Tb1176 2.600 . S
N1214 C1216 1.359 . S
N1214 C1217 1.327 . S
C1215 H1201 0.931 . S
C1215 C1217 1.392 . S
C1215 C1218 1.370 . S
C1216 C1212 1.432 1_565 S
C1216 N1214 1.359 . S
C1216 C1219 1.414 . S
C1217 H1199 0.930 . S
C1217 N1214 1.327 . S
C1217 C1215 1.392 . S
C1218 H1213 0.930 . S
C1218 C1215 1.370 . S
C1218 C1219 1.385 . S
C1219 C1216 1.414 . S
C1219 C1218 1.385 . S
C1219 C1241 1.444 1_565 S
O1220 Tb1176 2.546 . S
O1220 C1240 1.251 . S
O1221 Tb1176 2.610 . S
O1221 Tb1187 2.362 1_565 S
O1221 C1232 1.283 . S
O1222 Tb1187 2.421 . S
O1222 C1239 1.262 . S
O1223 Tb1176 2.320 1_545 S
O1223 C1239 1.260 . S
O1224 Tb1176 2.552 . S
O1224 C1232 1.243 . S
O1225 Tb1176 2.413 . S
O1225 C1240 1.256 . S
O1226 Tb1187 2.546 . S
O1226 C1251 1.251 . S
O1227 Tb1176 2.362 1_545 S
O1227 Tb1187 2.610 . S
O1227 C1243 1.283 . S
O1228 Tb1176 2.421 . S
O1228 C1250 1.262 . S
O1229 Tb1187 2.320 1_565 S
O1229 C1250 1.260 . S
O1230 Tb1187 2.552 . S
O1230 C1243 1.243 . S
O1231 Tb1187 2.413 . S
O1231 C1251 1.256 . S
C1232 O1221 1.283 . S
C1232 O1224 1.243 . S
C1233 C1235 1.382 . S
C1233 C1237 1.393 . S
C1233 C1240 1.500 . S
C1234 C1235 1.400 . S
C1234 C1236 1.384 . S
C1235 C1233 1.382 . S
C1235 C1234 1.400 . S
C1235 H1252 0.930 . S
C1236 C1234 1.384 . S
C1236 C1238 1.392 . S
C1236 H1253 0.931 . S
C1237 C1233 1.393 . S
C1237 C1238 1.401 . S
C1237 H1254 0.930 . S
C1238 C1236 1.392 . S
C1238 C1237 1.401 . S
C1238 H1255 0.930 . S
C1239 O1222 1.262 . S
C1239 O1223 1.260 . S
C1240 Tb1176 2.833 . S
C1240 O1220 1.251 . S
C1240 O1225 1.256 . S
C1240 C1233 1.500 . S
C1241 H1206 0.929 . S
C1241 C1219 1.444 1_545 S
C1241 C1242 1.317 . S
C1242 H1204 0.930 . S
C1242 C1210 1.432 . S
C1242 C1241 1.317 . S
C1243 O1227 1.283 . S
C1243 O1230 1.243 . S
C1244 C1245 1.382 . S
C1244 C1248 1.393 . S
C1244 C1251 1.500 . S
C1245 C1244 1.382 . S
C1245 C1246 1.400 . S
C1245 H1256 0.930 . S
C1246 C1245 1.400 . S
C1246 C1247 1.384 . S
C1247 C1246 1.384 . S
C1247 C1249 1.392 . S
C1247 H1257 0.931 . S
C1248 C1244 1.393 . S
C1248 C1249 1.401 . S
C1248 H1258 0.930 . S
C1249 C1247 1.392 . S
C1249 C1248 1.401 . S
C1249 H1259 0.930 . S
C1250 O1228 1.262 . S
C1250 O1229 1.260 . S
C1251 Tb1187 2.833 . S
C1251 O1226 1.251 . S
C1251 O1231 1.256 . S
C1251 C1244 1.500 . S
H1252 C1235 0.930 . S
H1253 C1236 0.931 . S
H1254 C1237 0.930 . S
H1255 C1238 0.930 . S
H1256 C1245 0.930 . S
H1257 C1247 0.931 . S
H1258 C1248 0.930 . S
H1259 C1249 0.930 . S
Tb1260 N1291 2.660 . S
Tb1260 N1298 2.600 . S
Tb1260 O1304 2.546 . S
Tb1260 O1305 2.610 1_554 S
Tb1260 O1307 2.320 1_554 S
Tb1260 O1308 2.552 . S
Tb1260 O1309 2.413 . S
Tb1260 O1311 2.362 . S
Tb1260 O1312 2.421 . S
Tb1260 C1324 2.833 . S
C1261 C1264 1.432 . S
C1261 C1265 1.414 . S
C1261 N1268 1.359 . S
C1262 C1264 1.417 . S
C1262 C1266 1.432 . S
C1262 C1274 1.410 . S
C1263 C1265 1.444 . S
C1263 C1266 1.317 . S
C1263 H1286 0.929 . S
C1264 C1261 1.432 . S
C1264 C1262 1.417 . S
C1264 N1272 1.360 . S
C1265 C1261 1.414 . S
C1265 C1263 1.444 . S
C1265 C1270 1.385 . S
C1266 C1262 1.432 . S
C1266 C1263 1.317 . S
C1266 H1278 0.930 . S
C1267 C1269 1.392 . S
C1267 C1270 1.370 . S
C1267 H1279 0.931 . S
N1268 C1261 1.359 . S
N1268 C1269 1.327 . S
N1268 Tb1271 2.600 . S
C1269 C1267 1.392 . S
C1269 N1268 1.327 . S
C1269 H1276 0.930 . S
C1270 C1265 1.385 . S
C1270 C1267 1.370 . S
C1270 H1289 0.930 . S
Tb1271 N1268 2.600 . S
Tb1271 N1272 2.660 . S
Tb1271 O1305 2.362 . S
Tb1271 O1306 2.421 . S
Tb1271 O1310 2.546 . S
Tb1271 O1311 2.610 1_556 S
Tb1271 O1313 2.320 1_556 S
Tb1271 O1314 2.552 . S
Tb1271 O1315 2.413 . S
Tb1271 C1335 2.833 . S
N1272 C1264 1.360 . S
N1272 Tb1271 2.660 . S
N1272 C1273 1.305 . S
C1273 N1272 1.305 . S
C1273 C1275 1.407 . S
C1273 H1280 0.930 . S
C1274 C1262 1.410 . S
C1274 C1275 1.345 . S
C1274 H1282 0.930 . S
C1275 C1273 1.407 . S
C1275 C1274 1.345 . S
C1275 H1277 0.930 . S
H1276 C1269 0.930 . S
H1277 C1275 0.930 . S
H1278 C1266 0.930 . S
H1279 C1267 0.931 . S
H1280 C1273 0.930 . S
H1281 C1295 0.930 . S
H1282 C1274 0.930 . S
H1283 C1301 0.930 . S
H1284 C1292 0.930 . S
H1285 C1299 0.931 . S
H1286 C1263 0.929 . S
H1287 C1293 0.930 . S
H1288 C1326 0.930 . S
H1289 C1270 0.930 . S
H1290 C1325 0.929 . S
N1291 Tb1260 2.660 . S
N1291 C1292 1.305 . S
N1291 C1296 1.360 . S
C1292 H1284 0.930 . S
C1292 N1291 1.305 . S
C1292 C1295 1.407 . S
C1293 H1287 0.930 . S
C1293 C1294 1.410 . S
C1293 C1295 1.345 . S
C1294 C1293 1.410 . S
C1294 C1296 1.417 . S
C1294 C1326 1.432 . S
C1295 H1281 0.930 . S
C1295 C1292 1.407 . S
C1295 C1293 1.345 . S
C1296 N1291 1.360 . S
C1296 C1294 1.417 . S
C1296 C1300 1.432 . S
H1297 C1302 0.930 . S
N1298 Tb1260 2.600 . S
N1298 C1300 1.359 . S
N1298 C1301 1.327 . S
C1299 H1285 0.931 . S
C1299 C1301 1.392 . S
C1299 C1302 1.370 . S
C1300 C1296 1.432 . S
C1300 N1298 1.359 . S
C1300 C1303 1.414 . S
C1301 H1283 0.930 . S
C1301 N1298 1.327 . S
C1301 C1299 1.392 . S
C1302 H1297 0.930 . S
C1302 C1299 1.370 . S
C1302 C1303 1.385 . S
C1303 C1300 1.414 . S
C1303 C1302 1.385 . S
C1303 C1325 1.444 . S
O1304 Tb1260 2.546 . S
O1304 C1324 1.251 . S
O1305 Tb1260 2.610 1_556 S
O1305 Tb1271 2.362 . S
O1305 C1316 1.283 . S
O1306 Tb1271 2.421 . S
O1306 C1323 1.262 . S
O1307 Tb1260 2.320 1_556 S
O1307 C1323 1.260 . S
O1308 Tb1260 2.552 . S
O1308 C1316 1.243 1_554 S
O1309 Tb1260 2.413 . S
O1309 C1324 1.256 . S
O1310 Tb1271 2.546 . S
O1310 C1335 1.251 . S
O1311 Tb1260 2.362 . S
O1311 Tb1271 2.610 1_554 S
O1311 C1327 1.283 . S
O1312 Tb1260 2.421 . S
O1312 C1334 1.262 . S
O1313 Tb1271 2.320 1_554 S
O1313 C1334 1.260 . S
O1314 Tb1271 2.552 . S
O1314 C1327 1.243 1_556 S
O1315 Tb1271 2.413 . S
O1315 C1335 1.256 . S
C1316 O1305 1.283 . S
C1316 O1308 1.243 1_556 S
C1317 C1319 1.382 . S
C1317 C1321 1.393 . S
C1317 C1324 1.500 . S
C1318 C1319 1.400 . S
C1318 C1320 1.384 . S
C1319 C1317 1.382 . S
C1319 C1318 1.400 . S
C1319 H1336 0.930 . S
C1320 C1318 1.384 . S
C1320 C1322 1.392 . S
C1320 H1337 0.931 . S
C1321 C1317 1.393 . S
C1321 C1322 1.401 . S
C1321 H1338 0.930 . S
C1322 C1320 1.392 . S
C1322 C1321 1.401 . S
C1322 H1339 0.930 . S
C1323 O1306 1.262 . S
C1323 O1307 1.260 . S
C1324 Tb1260 2.833 . S
C1324 O1304 1.251 . S
C1324 O1309 1.256 . S
C1324 C1317 1.500 . S
C1325 H1290 0.929 . S
C1325 C1303 1.444 . S
C1325 C1326 1.317 . S
C1326 H1288 0.930 . S
C1326 C1294 1.432 . S
C1326 C1325 1.317 . S
C1327 O1311 1.283 . S
C1327 O1314 1.243 1_554 S
C1328 C1329 1.382 . S
C1328 C1332 1.393 . S
C1328 C1335 1.500 . S
C1329 C1328 1.382 . S
C1329 C1330 1.400 . S
C1329 H1340 0.930 . S
C1330 C1329 1.400 . S
C1330 C1331 1.384 . S
C1331 C1330 1.384 . S
C1331 C1333 1.392 . S
C1331 H1341 0.931 . S
C1332 C1328 1.393 . S
C1332 C1333 1.401 . S
C1332 H1342 0.930 . S
C1333 C1331 1.392 . S
C1333 C1332 1.401 . S
C1333 H1343 0.930 . S
C1334 O1312 1.262 . S
C1334 O1313 1.260 . S
C1335 Tb1271 2.833 . S
C1335 O1310 1.251 . S
C1335 O1315 1.256 . S
C1335 C1328 1.500 . S
H1336 C1319 0.930 . S
H1337 C1320 0.931 . S
H1338 C1321 0.930 . S
H1339 C1322 0.930 . S
H1340 C1329 0.930 . S
H1341 C1331 0.931 . S
H1342 C1332 0.930 . S
H1343 C1333 0.930 . S
C67 C154 3.123 1_654 S
C235 C140 3.059 . S
C308 C231 3.386 . S
C63 C322 3.636 1_546 S
C74 C814 3.635 1_564 S
C644 C142 3.126 1_455 S
C224 C907 3.060 . S
C319 C1166 3.386 . S
C728 C151 3.060 . S
C1075 C242 3.387 . S
C1250 C310 3.636 1_565 S
C56 C982 3.126 1_456 S
C70 C730 1.724 . S
C1071 C410 2.653 . S
C490 C1234 1.724 . S
C998 C567 2.653 . S
C238 C646 1.721 . S
C830 C399 2.652 . S
C578 C903 2.653 . S
C476 C991 3.060 . S
C823 C494 3.386 . S
C994 C655 3.122 1_455 S
C487 C392 3.059 . S
C812 C735 3.386 . S
C1159 C980 3.060 . S
C560 C483 3.386 . S
C826 C1239 3.635 1_565 S
C1162 C58 1.722 . S
C226 C1246 1.721 . S
C1082 C147 2.653 . S
C658 C478 1.724 . S
C315 C914 2.653 . S
C1064 C1155 3.386 . S
C651 C1078 3.636 . S
C562 C662 3.635 . S
C403 C1148 3.060 . S
C1066 C1334 3.636 1_556 S
C1318 C742 1.724 . S
C158 C819 2.653 . S
C746 C571 3.386 . S
C739 C896 3.060 . S
C1323 C574 3.636 1_556 S
C1150 C1330 1.722 . S
C987 C326 2.653 . S
C910 C1243 3.126 . S
C898 C1316 3.123 1_554 S
C394 C1232 3.123 . S
C1327 C406 3.125 1_554 S
