# Generated by pormake.
# Topology oof, (8)-cn, num edge types: 1
# Building blocks:
#     Node 0, Type 0, BuildingBlock: LIZSOE_clean_sbu_0, # of connection points: 8
#     Node 1, Type 0, BuildingBlock: LIZSOE_clean_sbu_0, # of connection points: 8
#     Node 2, Type 0, BuildingBlock: LIZSOE_clean_sbu_0, # of connection points: 8
#     Node 3, Type 0, BuildingBlock: LIZSOE_clean_sbu_0, # of connection points: 8
#     Edge 4, Type (0, 0), BuildingBlock: CIFDUS_clean_linker_0, # of connection points: 2
#     Edge 5, Type (0, 0), BuildingBlock: CIFDUS_clean_linker_0, # of connection points: 2
#     Edge 6, Type (0, 0), BuildingBlock: CIFDUS_clean_linker_0, # of connection points: 2
#     Edge 7, Type (0, 0), BuildingBlock: CIFDUS_clean_linker_0, # of connection points: 2
#     Edge 8, Type (0, 0), BuildingBlock: CIFDUS_clean_linker_0, # of connection points: 2
#     Edge 9, Type (0, 0), BuildingBlock: CIFDUS_clean_linker_0, # of connection points: 2
#     Edge 10, Type (0, 0), BuildingBlock: CIFDUS_clean_linker_0, # of connection points: 2
#     Edge 11, Type (0, 0), BuildingBlock: CIFDUS_clean_linker_0, # of connection points: 2
#     Edge 12, Type (0, 0), BuildingBlock: CIFDUS_clean_linker_0, # of connection points: 2
#     Edge 13, Type (0, 0), BuildingBlock: CIFDUS_clean_linker_0, # of connection points: 2
#     Edge 14, Type (0, 0), BuildingBlock: CIFDUS_clean_linker_0, # of connection points: 2
#     Edge 15, Type (0, 0), BuildingBlock: CIFDUS_clean_linker_0, # of connection points: 2
#     Edge 16, Type (0, 0), BuildingBlock: CIFDUS_clean_linker_0, # of connection points: 2
#     Edge 17, Type (0, 0), BuildingBlock: CIFDUS_clean_linker_0, # of connection points: 2
#     Edge 18, Type (0, 0), BuildingBlock: CIFDUS_clean_linker_0, # of connection points: 2
#     Edge 19, Type (0, 0), BuildingBlock: CIFDUS_clean_linker_0, # of connection points: 2
# Relax obj value: 0.098
# Max RMSD: 0.210
# Mean RMSD: 0.207
data_MOF--net-oof--node1-LIZSOE_clean_sbu_0--edge1-CIFDUS_clean_linker_0
_symmetry_space_group_name_H-M    P1
_symmetry_Int_Tables_number       1
_symmetry_cell_setting            triclinic
loop_
_symmetry_equiv_pos_as_xyz
'x, y, z'
_cell_length_a     13.631902
_cell_length_b     36.678654
_cell_length_c     20.9323
_cell_angle_alpha  88.572994
_cell_angle_beta   115.51971
_cell_angle_gamma 89.862776
loop_
_atom_site_label
_atom_site_type_symbol
_atom_site_fract_x
_atom_site_fract_y
_atom_site_fract_z
_atom_type_partial_charge
Co0 Co 0.09541 0.18738 0.14012 0.0
N1 N 0.18332 0.19027 0.09404 0.0
C2 C 0.282 0.17475 0.11303 0.0
N3 N 0.2318 0.19775 1.00513 0.0
C4 C 0.15393 0.20364 0.02778 0.0
C5 C 0.3127 0.17984 0.05922 0.0
Co6 Co 0.05655 0.127 0.41906 0.0
N7 N 0.04335 0.1364 0.50309 0.0
N8 N 0.06941 0.14907 0.61308 0.0
C9 C 0.96308 0.1434 0.57493 0.0
C10 C 0.94728 0.13548 0.5076 0.0
C11 C 0.11711 0.14446 0.56924 0.0
Co12 Co 0.04474 0.15273 0.26538 0.0
C13 C 0.11769 0.1017 0.41209 0.0
H14 H 0.87015 0.12859 0.46513 0.0
O15 O 1.00704 0.18813 0.18028 0.0
O16 O 0.08639 0.19725 0.32421 0.0
O17 O 0.20244 0.14539 0.28756 0.0
O18 O 1.00959 0.11157 0.19595 0.0
O19 O 0.10183 0.13585 0.13856 0.0
O20 O 0.09414 0.17523 0.42325 0.0
O21 O 0.06929 0.11415 0.3445 0.0
O22 O 0.91072 0.14028 0.36335 0.0
O23 O 0.21969 0.19115 0.22508 0.0
O24 O 0.08209 0.23423 0.14445 0.0
O25 O 0.88975 0.15795 0.25336 0.0
O26 O 0.20097 0.11731 0.46038 0.0
C27 C 0.26198 0.16816 0.27503 0.0
C28 C 0.23747 0.14739 0.59218 0.0
H29 H 0.25458 0.16339 0.55266 0.0
H30 H 0.27813 0.16072 0.64394 0.0
H31 H 0.27303 0.11961 0.59755 0.0
C32 C 0.10465 0.2014 0.38784 0.0
C33 C 0.05417 0.10909 0.15268 0.0
H34 H 0.32388 0.15748 0.15938 0.0
H35 H 0.98588 0.21077 1.00716 0.0
H36 H 1.0087 0.20452 0.92926 0.0
H37 H 0.04155 0.24717 0.97395 0.0
C38 C 0.04065 0.21717 0.98188 0.0
C39 C 0.01338 0.22341 0.16855 0.0
C40 C 0.85237 0.15162 0.2998 0.0
H41 H 0.38406 0.16796 0.05715 0.0
H42 H 0.9021 0.14379 0.59511 0.0
Co43 Co 0.92124 0.93726 0.59844 0.0
N44 N 0.89602 0.92311 0.50635 0.0
C45 C 0.79861 0.90897 0.46336 0.0
N46 N 0.88773 0.91439 0.39864 0.0
C47 C 0.94862 0.92638 0.46438 0.0
C48 C 0.79385 0.90333 0.39795 0.0
Co49 Co 0.95459 0.91223 0.88602 0.0
N50 N 0.90314 0.94142 0.93769 0.0
N51 N 0.87243 0.96148 0.0281 0.0
C52 C 0.78894 0.97259 0.96739 0.0
C53 C 0.8083 0.96053 0.91201 0.0
C54 C 0.94178 0.94345 1.00908 0.0
Co55 Co 0.96435 0.91713 0.76158 0.0
C56 C 0.02849 0.86304 0.90637 0.0
H57 H 0.75392 0.96429 0.85659 0.0
O58 O 0.93423 0.95366 0.67885 0.0
O59 O 0.02283 0.9623 0.82333 0.0
O60 O 0.10761 0.90826 0.75801 0.0
O61 O 0.90381 0.87134 0.70927 0.0
O62 O 0.87834 0.89102 0.60573 0.0
O63 O 0.08852 0.93426 0.92686 0.0
O64 O 1.01115 0.88 0.84573 0.0
O65 O 0.81839 0.89105 0.84171 0.0
O66 O 0.07193 0.92009 0.64224 0.0
O67 O 0.78137 0.95155 0.57165 0.0
O68 O 0.81245 0.92599 0.75367 0.0
O69 O 0.99603 0.87772 0.94905 0.0
C70 C 0.13669 0.91026 0.70668 0.0
C71 C 0.04849 0.92723 0.06242 0.0
H72 H 0.1132 0.9291 0.04433 0.0
H73 H 0.07714 0.94152 0.11329 0.0
H74 H 0.03785 0.89809 0.07297 0.0
C75 C 0.08147 0.96279 0.89055 0.0
C76 C 0.87114 0.86611 0.64449 0.0
H77 H 0.73314 0.90358 0.47823 0.0
H78 H 0.05789 0.96458 0.45195 0.0
H79 H 0.11335 0.91973 0.48059 0.0
H80 H 0.0956 0.94935 0.54235 0.0
C81 C 0.06047 0.94101 0.48692 0.0
C82 C 0.87477 0.9654 0.61196 0.0
C83 C 0.76341 0.90669 0.78233 0.0
H84 H 0.72497 0.89346 0.35224 0.0
H85 H 0.71601 0.98629 0.96341 0.0
Co86 Co 0.56857 0.69053 0.14273 0.0
N87 N 0.65138 0.68998 0.09253 0.0
C88 C 0.73999 0.66895 0.1073 0.0
N89 N 0.70452 0.69718 1.0055 0.0
C90 C 0.63272 0.70743 0.03078 0.0
C91 C 0.77294 0.67337 0.05448 0.0
Co92 Co 0.515 0.63569 0.41812 0.0
N93 N 0.48752 0.64518 0.49688 0.0
N94 N 0.4964 0.65404 0.60459 0.0
C95 C 0.40114 0.63837 0.56532 0.0
C96 C 0.39578 0.63304 0.49953 0.0
C97 C 0.54798 0.65799 0.56237 0.0
Co98 Co 0.51539 0.65708 0.26667 0.0
C99 C 0.59118 0.61377 0.41941 0.0
H100 H 0.33173 0.61873 0.45784 0.0
O101 O 0.48048 0.69307 0.18354 0.0
O102 O 0.5587 0.70153 0.32391 0.0
O103 O 0.67504 0.65139 0.28834 0.0
O104 O 0.47982 0.61509 0.20061 0.0
O105 O 0.58073 0.63792 0.1497 0.0
O106 O 0.52694 0.68635 0.41389 0.0
O107 O 0.54358 0.62095 0.34916 0.0
O108 O 0.36792 0.63984 0.35791 0.0
O109 O 0.69403 0.69749 0.22504 0.0
O110 O 0.44501 0.68432 0.06958 0.0
O111 O 0.35764 0.66104 0.25238 0.0
O112 O 0.66202 0.63509 0.46416 0.0
C113 C 0.73445 0.6749 0.27648 0.0
C114 C 0.66375 0.67013 0.58849 0.0
H115 H 0.67971 0.68265 0.54544 0.0
H116 H 0.68381 0.69029 0.63066 0.0
H117 H 0.7189 0.64622 0.6113 0.0
C118 C 0.55373 0.70979 0.38029 0.0
C119 C 0.5267 0.61176 0.1593 0.0
H120 H 0.77164 0.64881 0.14949 0.0
H121 H 0.47014 0.71603 0.95126 0.0
H122 H 0.55704 0.75454 0.96364 0.0
H123 H 0.50617 0.7436 0.02839 0.0
C124 C 0.53599 0.73197 0.99146 0.0
C125 C 0.41032 0.69342 0.11591 0.0
C126 C 0.31406 0.65132 0.29415 0.0
H127 H 0.83378 0.65682 0.04798 0.0
H128 H 0.34298 0.62922 0.58454 0.0
Co129 Co 0.52436 0.41539 0.63433 0.0
N130 N 0.55804 0.39032 0.57034 0.0
C131 C 0.57578 0.35392 0.57193 0.0
N132 N 0.55404 0.37398 0.4669 0.0
C133 C 0.54605 0.40182 0.50568 0.0
C134 C 0.57421 0.34395 0.50888 0.0
Co135 Co 0.4347 0.37982 0.90488 0.0
N136 N 0.35844 0.38376 0.95985 0.0
N137 N 0.3179 0.38772 0.05257 0.0
C138 C 0.23711 0.37004 1.00145 0.0
C139 C 0.26225 0.36754 0.94475 0.0
C140 C 0.38976 0.39625 0.02608 0.0
Co141 Co 0.49947 0.40855 0.77852 0.0
C142 C 0.59014 0.37027 0.9268 0.0
H143 H 0.21674 0.35245 0.8975 0.0
O144 O 0.49246 0.44244 0.69432 0.0
O145 O 0.53045 0.4526 0.84086 0.0
O146 O 0.65946 0.40229 0.80838 0.0
O147 O 0.45392 0.36275 0.71799 0.0
O148 O 0.40581 0.38723 0.61141 0.0
O149 O 0.44456 0.43124 0.90317 0.0
O150 O 0.51651 0.37366 0.86024 0.0
O151 O 0.30721 0.38129 0.82534 0.0
O152 O 0.62113 0.38114 0.70521 0.0
O153 O 0.63101 0.4442 0.65947 0.0
O154 O 0.33585 0.41699 0.7475 0.0
O155 O 0.56087 0.37808 0.97605 0.0
C156 C 0.69251 0.38947 0.76541 0.0
C157 C 0.49557 0.41496 0.06837 0.0
H158 H 0.52345 0.43114 0.03439 0.0
H159 H 0.48725 0.43325 0.10728 0.0
H160 H 0.55938 0.39418 0.09799 0.0
C161 C 0.48809 0.45741 0.88438 0.0
C162 C 0.39841 0.36188 0.65054 0.0
H163 H 0.58119 0.33514 0.61398 0.0
H164 H 0.44019 0.44829 0.4685 0.0
H165 H 0.53982 0.44585 0.433 0.0
H166 H 0.58046 0.45834 0.52339 0.0
C167 C 0.52545 0.44085 0.48073 0.0
C168 C 0.5674 0.46067 0.68176 0.0
C169 C 0.27188 0.4007 0.76923 0.0
H170 H 0.57865 0.31637 0.49292 0.0
H171 H 0.17012 0.35696 1.00721 0.0
H172 H 0.27161 0.14187 0.9409 0.0
H173 H 0.15652 0.25334 0.90813 0.0
H174 H 0.0999 0.24883 0.78025 0.0
H175 H 0.06717 0.2104 0.67741 0.0
H176 H 0.18462 0.09941 0.71236 0.0
H177 H 0.2586 0.10618 0.84099 0.0
C178 C 0.23686 0.16545 0.90594 0.0
C179 C 0.21647 0.1977 0.93299 0.0
C180 C 0.20434 0.16243 0.8334 0.0
C181 C 0.17072 0.22808 0.88756 0.0
C182 C 0.13854 0.22547 0.81485 0.0
C183 C 0.11026 0.18811 0.71389 0.0
C184 C 0.12074 0.15446 0.68731 0.0
C185 C 0.15199 0.19239 0.78709 0.0
C186 C 0.17657 0.12539 0.73326 0.0
C187 C 0.21833 0.12931 0.80614 0.0
H188 H 0.88573 0.97647 0.32946 0.0
H189 H 0.92065 0.85997 0.3282 0.0
H190 H 0.91562 0.86438 0.20975 0.0
H191 H 0.8883 0.90112 0.10463 0.0
H192 H 0.85167 1.01762 0.10282 0.0
H193 H 0.86593 1.01402 0.22409 0.0
C194 C 0.89531 0.9524 0.30346 0.0
C195 C 0.90617 0.91801 0.33682 0.0
C196 C 0.88903 0.95525 0.23493 0.0
C197 C 0.91467 0.88657 0.30301 0.0
C198 C 0.91044 0.88913 0.23546 0.0
C199 C 0.88566 0.9257 0.13155 0.0
C200 C 0.87266 0.9597 0.09661 0.0
C201 C 0.89563 0.92323 0.20062 0.0
C202 C 0.86374 0.99136 0.12988 0.0
C203 C 0.87233 0.98922 0.19894 0.0
H204 H 0.6599 0.63767 0.93058 0.0
H205 H 0.69405 0.75383 0.91719 0.0
H206 H 0.63415 0.75085 0.78838 0.0
H207 H 0.56206 0.71459 0.67934 0.0
H208 H 0.5304 0.59843 0.69617 0.0
H209 H 0.60008 0.60147 0.82491 0.0
C210 C 0.65603 0.66215 0.89934 0.0
C211 C 0.68068 0.69587 0.9321 0.0
C212 C 0.62154 0.66006 0.82658 0.0
C213 C 0.6743 0.72771 0.89201 0.0
C214 C 0.64028 0.72593 0.81888 0.0
C215 C 0.5723 0.69013 0.7119 0.0
C216 C 0.54238 0.65633 0.67976 0.0
C217 C 0.61214 0.69225 0.78553 0.0
C218 C 0.55348 0.62457 0.72098 0.0
C219 C 0.59318 0.62634 0.79405 0.0
H220 H 0.48365 0.35287 0.15543 0.0
H221 H 0.19967 0.41887 0.11213 0.0
H222 H 0.24739 0.42026 0.23972 0.0
H223 H 0.37471 0.40388 0.36305 0.0
H224 H 0.66447 0.34108 0.40498 0.0
H225 H 0.61116 0.33726 0.27761 0.0
C226 C 0.43335 0.36788 0.17443 0.0
C227 C 0.3402 0.38652 0.12587 0.0
C228 C 0.46308 0.36927 0.24692 0.0
C229 C 0.27229 0.40472 0.14959 0.0
C230 C 0.29994 0.40562 0.22207 0.0
C231 C 0.4271 0.39018 0.34402 0.0
C232 C 0.5249 0.3737 0.39255 0.0
C233 C 0.39619 0.38846 0.27117 0.0
C234 C 0.58992 0.3544 0.36791 0.0
C235 C 0.55932 0.35216 0.29552 0.0
H236 H 0.72501 0.10902 0.3367 0.0
H237 H 0.72867 0.21124 0.2314 0.0
H238 H 0.55379 0.22864 0.22999 0.0
H239 H 0.40329 0.21473 0.2595 0.0
H240 H 0.38691 0.10903 0.34992 0.0
H241 H 0.56996 0.09414 0.3627 0.0
C242 C 0.68637 0.13488 0.31245 0.0
C243 C 0.7382 0.1588 0.28349 0.0
C244 C 0.58707 0.14457 0.3123 0.0
C245 C 0.68857 0.19222 0.25246 0.0
C246 C 0.59013 0.20238 0.25305 0.0
C247 C 0.44 0.1885 0.28283 0.0
C248 C 0.38075 0.16271 0.30262 0.0
C249 C 0.53968 0.1789 0.2836 0.0
C250 C 0.43042 0.12925 0.33399 0.0
C251 C 0.53398 0.12049 0.33994 0.0
H252 H 0.639 0.87396 0.8389 0.0
H253 H 0.61656 0.94146 0.66104 0.0
H254 H 0.4194 0.94661 0.6193 0.0
H255 H 0.2556 0.9352 0.63795 0.0
H256 H 0.28017 0.86861 0.81728 0.0
H257 H 0.47466 0.85997 0.85387 0.0
C258 C 0.59116 0.8896 0.79064 0.0
C259 C 0.64294 0.90751 0.75348 0.0
C260 C 0.47821 0.89276 0.7674 0.0
C261 C 0.57913 0.92752 0.69094 0.0
C262 C 0.46632 0.93052 0.66706 0.0
C263 C 0.30275 0.91818 0.68411 0.0
C264 C 0.25271 0.90249 0.72449 0.0
C265 C 0.41517 0.91366 0.70543 0.0
C266 C 0.31633 0.88118 0.78529 0.0
C267 C 0.42769 0.87619 0.80629 0.0
H268 H 0.84657 0.61817 0.26043 0.0
H269 H 0.88429 0.72401 0.35185 0.0
H270 H 0.06775 0.72811 0.3585 0.0
H271 H 0.21059 0.70373 0.32829 0.0
H272 H 0.16271 0.60184 0.222 0.0
H273 H 0.9858 0.59519 0.22519 0.0
C274 C 0.89653 0.64163 0.2835 0.0
C275 C 0.85313 0.67058 0.30635 0.0
C276 C 0.9966 0.6455 0.27985 0.0
C277 C 0.91729 0.70114 0.33522 0.0
C278 C 0.02077 0.70388 0.33723 0.0
C279 C 0.15912 0.68084 0.30338 0.0
C280 C 0.19683 0.65403 0.27229 0.0
C281 C 0.05919 0.67694 0.30693 0.0
C282 C 0.13254 0.62356 0.24322 0.0
C283 C 0.03307 0.61931 0.24687 0.0
H284 H 0.78144 0.3718 0.67494 0.0
H285 H 0.85939 0.42196 0.87522 0.0
H286 H 0.03858 0.4378 0.88376 0.0
H287 H 0.17578 0.43483 0.83773 0.0
H288 H 0.10661 0.37971 0.64411 0.0
H289 H 0.91795 0.37071 0.62654 0.0
C290 C 0.83728 0.38619 0.72054 0.0
C291 C 0.8062 0.39548 0.77458 0.0
C292 C 0.94018 0.39553 0.72478 0.0
C293 C 0.88071 0.41409 0.83322 0.0
C294 C 0.98285 0.42358 0.83768 0.0
C295 C 0.11791 0.42214 0.79013 0.0
C296 C 0.15422 0.40885 0.74117 0.0
C297 C 0.01321 0.41451 0.78377 0.0
C298 C 0.07982 0.39133 0.6811 0.0
C299 C 0.97289 0.38534 0.67226 0.0
H300 H 0.33431 0.34816 0.51247 0.0
H301 H 0.32642 0.30255 0.70259 0.0
H302 H 0.22463 0.25023 0.63498 0.0
H303 H 0.14159 0.21796 0.52243 0.0
H304 H 0.16583 0.26239 0.33669 0.0
H305 H 0.25556 0.31611 0.40256 0.0
C306 C 0.31079 0.32694 0.53992 0.0
C307 C 0.33846 0.32934 0.61304 0.0
C308 C 0.2545 0.29717 0.50129 0.0
C309 C 0.30693 0.30131 0.64676 0.0
C310 C 0.24845 0.27158 0.60799 0.0
C311 C 0.1672 0.23917 0.49629 0.0
C312 C 0.14813 0.23583 0.42467 0.0
C313 C 0.22243 0.26925 0.5353 0.0
C314 C 0.17918 0.2642 0.39141 0.0
C315 C 0.23116 0.29476 0.42925 0.0
H316 H 0.7635 0.36872 0.0534 0.0
H317 H 0.61162 0.30735 0.8631 0.0
H318 H 0.71451 0.25258 0.92773 0.0
H319 H 0.84012 0.22148 0.0411 0.0
H320 H 0.98354 0.28348 0.23078 0.0
H321 H 0.8824 0.33789 0.16534 0.0
C322 C 0.75469 0.34356 0.02531 0.0
C323 C 0.68011 0.34249 0.95289 0.0
C324 C 0.8066 0.3117 0.06415 0.0
C325 C 0.66969 0.30948 0.91798 0.0
C326 C 0.72617 0.27785 0.95567 0.0
C327 C 0.84553 0.24657 0.06867 0.0
C328 C 0.91712 0.24802 0.14166 0.0
C329 C 0.79184 0.27837 0.02936 0.0
C330 C 0.92617 0.28112 0.17578 0.0
C331 C 0.87094 0.31253 0.13768 0.0
H332 H 0.5567 0.73613 0.50223 0.0
H333 H 0.66856 0.75934 0.34136 0.0
H334 H 0.78423 0.80725 0.41323 0.0
H335 H 0.86223 0.83958 0.52388 0.0
H336 H 0.75231 0.81805 0.68572 0.0
H337 H 0.63396 0.76981 0.61379 0.0
C338 C 0.60617 0.7517 0.48274 0.0
C339 C 0.60467 0.7437 0.41663 0.0
C340 C 0.6759 0.77835 0.52566 0.0
C341 C 0.66754 0.76481 0.39169 0.0
C342 C 0.73505 0.79188 0.43327 0.0
C343 C 0.81182 0.82455 0.54339 0.0
C344 C 0.8151 0.83264 0.60969 0.0
C345 C 0.74151 0.79825 0.50077 0.0
C346 C 0.75196 0.81212 0.63518 0.0
C347 C 0.68308 0.78503 0.59352 0.0
H348 H 0.28441 0.7118 0.97674 0.0
H349 H 0.32885 0.73743 0.18793 0.0
H350 H 0.2101 0.79121 0.13939 0.0
H351 H 0.11176 0.83402 0.04008 0.0
H352 H 0.08384 0.8121 0.83112 0.0
H353 H 0.18325 0.75408 0.87695 0.0
C354 C 0.26773 0.72874 1.01272 0.0
C355 C 0.31723 0.72031 0.08674 0.0
C356 C 0.20522 0.76083 0.98502 0.0
C357 C 0.29242 0.7428 0.13124 0.0
C358 C 0.22558 0.77389 0.10344 0.0
C359 C 0.12636 0.8166 1.00387 0.0
C360 C 0.08968 0.82766 0.93163 0.0
C361 C 0.18468 0.78373 0.03089 0.0
C362 C 0.11109 0.80458 0.88657 0.0
C363 C 0.16742 0.77132 0.91287 0.0
H364 H 0.21112 0.06611 0.14672 0.0
H365 H 0.86571 0.08636 0.04809 0.0
H366 H 0.84799 0.05012 0.94692 0.0
H367 H 0.9316 1.0128 0.88584 0.0
H368 H 0.2728 0.98589 0.99218 0.0
H369 H 0.29335 1.02633 0.08844 0.0
C370 C 0.13141 0.06129 0.10432 0.0
C371 C 0.03908 0.07761 0.1065 0.0
C372 C 0.12226 0.04065 0.04603 0.0
C373 C 0.93717 0.07271 0.04942 0.0
C374 C 0.92754 0.0527 0.99073 0.0
C375 C 1.01078 1.01643 0.92944 0.0
C376 C 0.10097 0.99682 0.931 0.0
C377 C 0.01973 1.03692 0.98798 0.0
C378 C 0.20279 1.00145 0.98848 0.0
C379 C 0.21389 1.02383 0.04448 0.0
H380 H 0.9123 0.07366 0.38312 0.0
H381 H 0.2536 0.05172 0.50925 0.0
H382 H 0.21239 1.015 0.59293 0.0
H383 H 0.07989 0.99086 0.63491 0.0
H384 H 0.73865 1.01305 0.50841 0.0
H385 H 0.78012 0.04991 0.42513 0.0
C386 C 0.97784 0.06037 0.42791 0.0
C387 C 0.08655 0.06641 0.4393 0.0
C388 C 0.95389 0.04055 0.47868 0.0
C389 C 0.16901 0.04791 0.49805 0.0
C390 C 0.14577 1.02759 0.54748 0.0
C391 C 0.01459 1.00445 0.59024 0.0
C392 C 0.90589 0.99848 0.57867 0.0
C393 C 0.03866 1.02457 0.53976 0.0
C394 C 0.82327 1.01666 0.51954 0.0
C395 C 0.84671 0.03735 0.47064 0.0
H396 H 0.6266 0.59699 0.07396 0.0
H397 H 0.3871 0.5544 0.13876 0.0
H398 H 0.34649 0.50597 0.05287 0.0
H399 H 0.37652 0.4766 0.95912 0.0
H400 H 0.62437 0.51598 0.89932 0.0
H401 H 0.65922 0.56658 0.98083 0.0
C402 C 0.56582 0.57705 0.06995 0.0
C403 C 0.51021 0.57948 0.11359 0.0
C404 C 0.54236 0.54944 1.02 0.0
C405 C 0.43192 0.5532 0.10689 0.0
C406 C 0.4079 0.52571 0.05713 0.0
C407 C 0.43876 0.4961 0.96372 0.0
C408 C 0.49894 0.49195 0.92341 0.0
C409 C 0.46203 0.52379 1.0132 0.0
C410 C 0.57683 0.51827 0.92928 0.0
C411 C 0.59762 0.54694 0.97666 0.0
H412 H 0.41278 0.48657 0.55456 0.0
H413 H 0.69327 0.51833 0.74039 0.0
H414 H 0.73559 0.56429 0.67015 0.0
H415 H 0.71041 0.58847 0.55513 0.0
H416 H 0.42473 0.56216 0.36689 0.0
H417 H 0.37268 0.51826 0.43763 0.0
C418 C 0.47992 0.50488 0.58026 0.0
C419 C 0.54947 0.49891 0.65338 0.0
C420 C 0.50752 0.5301 0.53808 0.0
C421 C 0.63716 0.52254 0.68514 0.0
C422 C 0.6635 0.54803 0.64427 0.0
C423 C 0.63636 0.57329 0.52854 0.0
C424 C 0.57259 0.57877 0.45455 0.0
C425 C 0.60267 0.55059 0.57036 0.0
C426 C 0.47764 0.55811 0.42271 0.0
C427 C 0.44628 0.53373 0.46382 0.0
loop_
_geom_bond_atom_site_label_1
_geom_bond_atom_site_label_2
_geom_bond_distance
_geom_bond_site_symmetry_2
_ccdc_geom_bond_type
Co0 N1 2.034 . S
Co0 O15 2.262 1_455 S
Co0 O19 1.958 1_455 S
Co0 O23 1.950 . S
Co0 O24 2.057 1_455 S
N1 Co0 2.034 . S
N1 C2 1.366 1_554 S
N1 C4 1.332 1_554 S
C2 N1 1.366 1_556 S
C2 C5 1.377 . S
C2 H34 0.931 1_455 S
N3 C4 1.346 . S
N3 C5 1.337 . S
C4 N1 1.332 1_556 S
C4 N3 1.346 . S
C4 C38 1.361 1_556 S
C5 C2 1.377 . S
C5 N3 1.337 . S
C5 H41 0.930 . S
Co6 N7 2.034 . S
Co6 O20 1.950 1_655 S
Co6 O21 2.262 1_655 S
Co6 O22 1.958 . S
Co6 O26 2.057 1_655 S
N7 Co6 2.034 . S
N7 C10 1.366 . S
N7 C11 1.332 . S
N8 C9 1.337 . S
N8 C11 1.346 . S
C9 N8 1.337 . S
C9 C10 1.377 . S
C9 H42 0.930 . S
C10 N7 1.366 . S
C10 C9 1.377 . S
C10 H14 0.931 . S
C11 N7 1.332 . S
C11 N8 1.346 . S
C11 C28 1.361 1_655 S
Co12 O15 2.097 . S
Co12 O16 2.065 1_655 S
Co12 O17 2.065 1_655 S
Co12 O18 2.042 . S
Co12 O21 2.097 1_655 S
Co12 O25 2.042 . S
C13 O21 1.253 . S
C13 O26 1.263 . S
H14 C10 0.931 . S
O15 Co0 2.262 1_655 S
O15 Co12 2.097 . S
O15 C39 1.253 . S
O16 Co12 2.065 1_455 S
O16 C32 1.221 . S
O17 Co12 2.065 1_455 S
O17 C27 1.221 . S
O18 Co12 2.042 . S
O18 C33 1.237 . S
O19 Co0 1.958 1_655 S
O19 C33 1.278 . S
O20 Co6 1.950 1_455 S
O20 C32 1.277 . S
O21 Co6 2.262 1_455 S
O21 Co12 2.097 1_455 S
O21 C13 1.253 . S
O22 Co6 1.958 . S
O22 C40 1.278 . S
O23 Co0 1.950 . S
O23 C27 1.277 . S
O24 Co0 2.057 1_655 S
O24 C39 1.263 . S
O25 Co12 2.042 . S
O25 C40 1.237 . S
O26 Co6 2.057 1_455 S
O26 C13 1.263 . S
C27 O17 1.221 . S
C27 O23 1.277 . S
C28 C11 1.361 1_455 S
C28 H29 0.960 . S
C28 H30 0.961 . S
C28 H31 0.961 . S
H29 C28 0.960 . S
H30 C28 0.961 . S
H31 C28 0.961 . S
C32 O16 1.221 . S
C32 O20 1.277 . S
C33 O18 1.237 . S
C33 O19 1.278 . S
H34 C2 0.931 1_655 S
H35 C38 0.961 . S
H36 C38 0.961 . S
H37 C38 0.960 . S
C38 C4 1.361 1_554 S
C38 H35 0.961 . S
C38 H36 0.961 . S
C38 H37 0.960 . S
C39 O15 1.253 . S
C39 O24 1.263 . S
C40 O22 1.278 . S
C40 O25 1.237 . S
H41 C5 0.930 . S
H42 C9 0.930 . S
Co43 N44 2.034 . S
Co43 O58 2.262 1_455 S
Co43 O62 1.958 1_455 S
Co43 O66 1.950 . S
Co43 O67 2.057 1_455 S
N44 Co43 2.034 . S
N44 C45 1.366 . S
N44 C47 1.332 . S
C45 N44 1.366 . S
C45 C48 1.377 . S
C45 H77 0.931 1_455 S
N46 C47 1.346 . S
N46 C48 1.337 . S
C47 N44 1.332 . S
C47 N46 1.346 . S
C47 C81 1.361 . S
C48 C45 1.377 . S
C48 N46 1.337 . S
C48 H84 0.930 . S
Co49 N50 2.034 . S
Co49 O63 1.950 1_655 S
Co49 O64 2.262 1_655 S
Co49 O65 1.958 . S
Co49 O69 2.057 1_655 S
N50 Co49 2.034 . S
N50 C53 1.366 . S
N50 C54 1.332 1_556 S
N51 C52 1.337 . S
N51 C54 1.346 . S
C52 N51 1.337 . S
C52 C53 1.377 1_554 S
C52 H85 0.930 . S
C53 N50 1.366 . S
C53 C52 1.377 1_556 S
C53 H57 0.931 . S
C54 N50 1.332 1_554 S
C54 N51 1.346 . S
C54 C71 1.361 1_655 S
Co55 O58 2.097 . S
Co55 O59 2.065 1_655 S
Co55 O60 2.065 1_655 S
Co55 O61 2.042 . S
Co55 O64 2.097 1_655 S
Co55 O68 2.042 . S
C56 O64 1.253 . S
C56 O69 1.263 . S
H57 C53 0.931 . S
O58 Co43 2.262 1_655 S
O58 Co55 2.097 . S
O58 C82 1.253 . S
O59 Co55 2.065 1_455 S
O59 C75 1.221 . S
O60 Co55 2.065 1_455 S
O60 C70 1.221 . S
O61 Co55 2.042 . S
O61 C76 1.237 . S
O62 Co43 1.958 1_655 S
O62 C76 1.278 . S
O63 Co49 1.950 1_455 S
O63 C75 1.277 . S
O64 Co49 2.262 1_455 S
O64 Co55 2.097 1_455 S
O64 C56 1.253 . S
O65 Co49 1.958 . S
O65 C83 1.278 . S
O66 Co43 1.950 . S
O66 C70 1.277 . S
O67 Co43 2.057 1_655 S
O67 C82 1.263 . S
O68 Co55 2.042 . S
O68 C83 1.237 . S
O69 Co49 2.057 1_455 S
O69 C56 1.263 . S
C70 O60 1.221 . S
C70 O66 1.277 . S
C71 C54 1.361 1_455 S
C71 H72 0.960 . S
C71 H73 0.961 . S
C71 H74 0.961 . S
H72 C71 0.960 . S
H73 C71 0.961 . S
H74 C71 0.961 . S
C75 O59 1.221 . S
C75 O63 1.277 . S
C76 O61 1.237 . S
C76 O62 1.278 . S
H77 C45 0.931 1_655 S
H78 C81 0.961 . S
H79 C81 0.961 . S
H80 C81 0.960 . S
C81 C47 1.361 . S
C81 H78 0.961 . S
C81 H79 0.961 . S
C81 H80 0.960 . S
C82 O58 1.253 . S
C82 O67 1.263 . S
C83 O65 1.278 . S
C83 O68 1.237 . S
H84 C48 0.930 . S
H85 C52 0.930 . S
Co86 N87 2.034 . S
Co86 O101 2.262 . S
Co86 O105 1.958 . S
Co86 O109 1.950 . S
Co86 O110 2.057 . S
N87 Co86 2.034 . S
N87 C88 1.366 1_554 S
N87 C90 1.332 1_554 S
C88 N87 1.366 1_556 S
C88 C91 1.377 . S
C88 H120 0.931 . S
N89 C90 1.346 . S
N89 C91 1.337 . S
C90 N87 1.332 1_556 S
C90 N89 1.346 . S
C90 C124 1.361 1_556 S
C91 C88 1.377 . S
C91 N89 1.337 . S
C91 H127 0.930 . S
Co92 N93 2.034 . S
Co92 O106 1.950 . S
Co92 O107 2.262 . S
Co92 O108 1.958 . S
Co92 O112 2.057 . S
N93 Co92 2.034 . S
N93 C96 1.366 . S
N93 C97 1.332 . S
N94 C95 1.337 . S
N94 C97 1.346 . S
C95 N94 1.337 . S
C95 C96 1.377 . S
C95 H128 0.930 . S
C96 N93 1.366 . S
C96 C95 1.377 . S
C96 H100 0.931 . S
C97 N93 1.332 . S
C97 N94 1.346 . S
C97 C114 1.361 . S
Co98 O101 2.097 . S
Co98 O102 2.065 . S
Co98 O103 2.065 . S
Co98 O104 2.042 . S
Co98 O107 2.097 . S
Co98 O111 2.042 . S
C99 O107 1.253 . S
C99 O112 1.263 . S
H100 C96 0.931 . S
O101 Co86 2.262 . S
O101 Co98 2.097 . S
O101 C125 1.253 . S
O102 Co98 2.065 . S
O102 C118 1.221 . S
O103 Co98 2.065 . S
O103 C113 1.221 . S
O104 Co98 2.042 . S
O104 C119 1.237 . S
O105 Co86 1.958 . S
O105 C119 1.278 . S
O106 Co92 1.950 . S
O106 C118 1.277 . S
O107 Co92 2.262 . S
O107 Co98 2.097 . S
O107 C99 1.253 . S
O108 Co92 1.958 . S
O108 C126 1.278 . S
O109 Co86 1.950 . S
O109 C113 1.277 . S
O110 Co86 2.057 . S
O110 C125 1.263 . S
O111 Co98 2.042 . S
O111 C126 1.237 . S
O112 Co92 2.057 . S
O112 C99 1.263 . S
C113 O103 1.221 . S
C113 O109 1.277 . S
C114 C97 1.361 . S
C114 H115 0.960 . S
C114 H116 0.961 . S
C114 H117 0.961 . S
H115 C114 0.960 . S
H116 C114 0.961 . S
H117 C114 0.961 . S
C118 O102 1.221 . S
C118 O106 1.277 . S
C119 O104 1.237 . S
C119 O105 1.278 . S
H120 C88 0.931 . S
H121 C124 0.961 . S
H122 C124 0.961 . S
H123 C124 0.960 . S
C124 C90 1.361 1_554 S
C124 H121 0.961 . S
C124 H122 0.961 . S
C124 H123 0.960 . S
C125 O101 1.253 . S
C125 O110 1.263 . S
C126 O108 1.278 . S
C126 O111 1.237 . S
H127 C91 0.930 . S
H128 C95 0.930 . S
Co129 N130 2.034 . S
Co129 O144 2.262 . S
Co129 O148 1.958 . S
Co129 O152 1.950 . S
Co129 O153 2.057 . S
N130 Co129 2.034 . S
N130 C131 1.366 . S
N130 C133 1.332 . S
C131 N130 1.366 . S
C131 C134 1.377 . S
C131 H163 0.931 . S
N132 C133 1.346 . S
N132 C134 1.337 . S
C133 N130 1.332 . S
C133 N132 1.346 . S
C133 C167 1.361 . S
C134 C131 1.377 . S
C134 N132 1.337 . S
C134 H170 0.930 . S
Co135 N136 2.034 . S
Co135 O149 1.950 . S
Co135 O150 2.262 . S
Co135 O151 1.958 . S
Co135 O155 2.057 . S
N136 Co135 2.034 . S
N136 C139 1.366 . S
N136 C140 1.332 1_556 S
N137 C138 1.337 . S
N137 C140 1.346 . S
C138 N137 1.337 . S
C138 C139 1.377 1_554 S
C138 H171 0.930 . S
C139 N136 1.366 . S
C139 C138 1.377 1_556 S
C139 H143 0.931 . S
C140 N136 1.332 1_554 S
C140 N137 1.346 . S
C140 C157 1.361 . S
Co141 O144 2.097 . S
Co141 O145 2.065 . S
Co141 O146 2.065 . S
Co141 O147 2.042 . S
Co141 O150 2.097 . S
Co141 O154 2.042 . S
C142 O150 1.253 . S
C142 O155 1.263 . S
H143 C139 0.931 . S
O144 Co129 2.262 . S
O144 Co141 2.097 . S
O144 C168 1.253 . S
O145 Co141 2.065 . S
O145 C161 1.221 . S
O146 Co141 2.065 . S
O146 C156 1.221 . S
O147 Co141 2.042 . S
O147 C162 1.237 . S
O148 Co129 1.958 . S
O148 C162 1.278 . S
O149 Co135 1.950 . S
O149 C161 1.277 . S
O150 Co135 2.262 . S
O150 Co141 2.097 . S
O150 C142 1.253 . S
O151 Co135 1.958 . S
O151 C169 1.278 . S
O152 Co129 1.950 . S
O152 C156 1.277 . S
O153 Co129 2.057 . S
O153 C168 1.263 . S
O154 Co141 2.042 . S
O154 C169 1.237 . S
O155 Co135 2.057 . S
O155 C142 1.263 . S
C156 O146 1.221 . S
C156 O152 1.277 . S
C157 C140 1.361 . S
C157 H158 0.960 . S
C157 H159 0.961 . S
C157 H160 0.961 . S
H158 C157 0.960 . S
H159 C157 0.961 . S
H160 C157 0.961 . S
C161 O145 1.221 . S
C161 O149 1.277 . S
C162 O147 1.237 . S
C162 O148 1.278 . S
H163 C131 0.931 . S
H164 C167 0.961 . S
H165 C167 0.961 . S
H166 C167 0.960 . S
C167 C133 1.361 . S
C167 H164 0.961 . S
C167 H165 0.961 . S
C167 H166 0.960 . S
C168 O144 1.253 . S
C168 O153 1.263 . S
C169 O151 1.278 . S
C169 O154 1.237 . S
H170 C134 0.930 . S
H171 C138 0.930 . S
H172 C178 0.930 . S
H173 C181 0.930 . S
H174 C182 0.930 . S
H175 C183 0.930 . S
H176 C186 0.930 . S
H177 C187 0.930 . S
C178 H172 0.930 . S
C178 C179 1.355 . S
C178 C180 1.415 . S
C179 C178 1.355 . S
C179 C181 1.419 . S
C180 C178 1.415 . S
C180 C185 1.425 . S
C180 C187 1.409 1_455 S
C181 H173 0.930 . S
C181 C179 1.419 . S
C181 C182 1.362 . S
C182 H174 0.930 . S
C182 C181 1.362 . S
C182 C185 1.409 . S
C183 H175 0.930 . S
C183 C184 1.355 1_455 S
C183 C185 1.415 . S
C184 C183 1.355 1_655 S
C184 C186 1.419 . S
C185 C180 1.425 . S
C185 C182 1.409 . S
C185 C183 1.415 . S
C186 H176 0.930 . S
C186 C184 1.419 . S
C186 C187 1.362 . S
C187 H177 0.930 . S
C187 C180 1.409 1_655 S
C187 C186 1.362 . S
H188 C194 0.930 1_655 S
H189 C197 0.930 . S
H190 C198 0.930 . S
H191 C199 0.930 . S
H192 C202 0.930 . S
H193 C203 0.930 . S
C194 H188 0.930 1_455 S
C194 C195 1.355 . S
C194 C196 1.415 1_455 S
C195 C194 1.355 . S
C195 C197 1.419 . S
C196 C194 1.415 1_655 S
C196 C201 1.425 1_655 S
C196 C203 1.409 . S
C197 H189 0.930 . S
C197 C195 1.419 . S
C197 C198 1.362 . S
C198 H190 0.930 . S
C198 C197 1.362 . S
C198 C201 1.409 . S
C199 H191 0.930 . S
C199 C200 1.355 1_455 S
C199 C201 1.415 . S
C200 C199 1.355 1_655 S
C200 C202 1.419 . S
C201 C196 1.425 1_455 S
C201 C198 1.409 . S
C201 C199 1.415 . S
C202 H192 0.930 . S
C202 C200 1.419 . S
C202 C203 1.362 . S
C203 H193 0.930 . S
C203 C196 1.409 . S
C203 C202 1.362 . S
H204 C210 0.930 . S
H205 C213 0.930 . S
H206 C214 0.930 . S
H207 C215 0.930 . S
H208 C218 0.930 . S
H209 C219 0.930 . S
C210 H204 0.930 . S
C210 C211 1.355 . S
C210 C212 1.415 . S
C211 C210 1.355 . S
C211 C213 1.419 . S
C212 C210 1.415 . S
C212 C217 1.425 . S
C212 C219 1.409 . S
C213 H205 0.930 . S
C213 C211 1.419 . S
C213 C214 1.362 . S
C214 H206 0.930 . S
C214 C213 1.362 . S
C214 C217 1.409 . S
C215 H207 0.930 . S
C215 C216 1.355 . S
C215 C217 1.415 . S
C216 C215 1.355 . S
C216 C218 1.419 . S
C217 C212 1.425 . S
C217 C214 1.409 . S
C217 C215 1.415 . S
C218 H208 0.930 . S
C218 C216 1.419 . S
C218 C219 1.362 . S
C219 H209 0.930 . S
C219 C212 1.409 . S
C219 C218 1.362 . S
H220 C226 0.930 . S
H221 C229 0.930 . S
H222 C230 0.930 . S
H223 C231 0.930 . S
H224 C234 0.930 . S
H225 C235 0.930 . S
C226 H220 0.930 . S
C226 C227 1.355 . S
C226 C228 1.415 . S
C227 C226 1.355 . S
C227 C229 1.419 . S
C228 C226 1.415 . S
C228 C233 1.425 . S
C228 C235 1.409 . S
C229 H221 0.930 . S
C229 C227 1.419 . S
C229 C230 1.362 . S
C230 H222 0.930 . S
C230 C229 1.362 . S
C230 C233 1.409 . S
C231 H223 0.930 . S
C231 C232 1.355 . S
C231 C233 1.415 . S
C232 C231 1.355 . S
C232 C234 1.419 . S
C233 C228 1.425 . S
C233 C230 1.409 . S
C233 C231 1.415 . S
C234 H224 0.930 . S
C234 C232 1.419 . S
C234 C235 1.362 . S
C235 H225 0.930 . S
C235 C228 1.409 . S
C235 C234 1.362 . S
H236 C242 0.930 . S
H237 C245 0.930 . S
H238 C246 0.930 . S
H239 C247 0.930 . S
H240 C250 0.930 . S
H241 C251 0.930 . S
C242 H236 0.930 . S
C242 C243 1.355 . S
C242 C244 1.415 . S
C243 C242 1.355 . S
C243 C245 1.419 . S
C244 C242 1.415 . S
C244 C249 1.425 . S
C244 C251 1.409 . S
C245 H237 0.930 . S
C245 C243 1.419 . S
C245 C246 1.362 . S
C246 H238 0.930 . S
C246 C245 1.362 . S
C246 C249 1.409 . S
C247 H239 0.930 . S
C247 C248 1.355 . S
C247 C249 1.415 . S
C248 C247 1.355 . S
C248 C250 1.419 . S
C249 C244 1.425 . S
C249 C246 1.409 . S
C249 C247 1.415 . S
C250 H240 0.930 . S
C250 C248 1.419 . S
C250 C251 1.362 . S
C251 H241 0.930 . S
C251 C244 1.409 . S
C251 C250 1.362 . S
H252 C258 0.930 . S
H253 C261 0.930 . S
H254 C262 0.930 . S
H255 C263 0.930 . S
H256 C266 0.930 . S
H257 C267 0.930 . S
C258 H252 0.930 . S
C258 C259 1.355 . S
C258 C260 1.415 . S
C259 C258 1.355 . S
C259 C261 1.419 . S
C260 C258 1.415 . S
C260 C265 1.425 . S
C260 C267 1.409 . S
C261 H253 0.930 . S
C261 C259 1.419 . S
C261 C262 1.362 . S
C262 H254 0.930 . S
C262 C261 1.362 . S
C262 C265 1.409 . S
C263 H255 0.930 . S
C263 C264 1.355 . S
C263 C265 1.415 . S
C264 C263 1.355 . S
C264 C266 1.419 . S
C265 C260 1.425 . S
C265 C262 1.409 . S
C265 C263 1.415 . S
C266 H256 0.930 . S
C266 C264 1.419 . S
C266 C267 1.362 . S
C267 H257 0.930 . S
C267 C260 1.409 . S
C267 C266 1.362 . S
H268 C274 0.930 . S
H269 C277 0.930 . S
H270 C278 0.930 . S
H271 C279 0.930 . S
H272 C282 0.930 . S
H273 C283 0.930 . S
C274 H268 0.930 . S
C274 C275 1.355 . S
C274 C276 1.415 . S
C275 C274 1.355 . S
C275 C277 1.419 . S
C276 C274 1.415 . S
C276 C281 1.425 1_655 S
C276 C283 1.409 . S
C277 H269 0.930 . S
C277 C275 1.419 . S
C277 C278 1.362 1_655 S
C278 H270 0.930 . S
C278 C277 1.362 1_455 S
C278 C281 1.409 . S
C279 H271 0.930 . S
C279 C280 1.355 . S
C279 C281 1.415 . S
C280 C279 1.355 . S
C280 C282 1.419 . S
C281 C276 1.425 1_455 S
C281 C278 1.409 . S
C281 C279 1.415 . S
C282 H272 0.930 . S
C282 C280 1.419 . S
C282 C283 1.362 1_455 S
C283 H273 0.930 . S
C283 C276 1.409 . S
C283 C282 1.362 1_655 S
H284 C290 0.930 . S
H285 C293 0.930 . S
H286 C294 0.930 . S
H287 C295 0.930 . S
H288 C298 0.930 . S
H289 C299 0.930 . S
C290 H284 0.930 . S
C290 C291 1.355 . S
C290 C292 1.415 . S
C291 C290 1.355 . S
C291 C293 1.419 . S
C292 C290 1.415 . S
C292 C297 1.425 1_655 S
C292 C299 1.409 . S
C293 H285 0.930 . S
C293 C291 1.419 . S
C293 C294 1.362 1_655 S
C294 H286 0.930 . S
C294 C293 1.362 1_455 S
C294 C297 1.409 . S
C295 H287 0.930 . S
C295 C296 1.355 . S
C295 C297 1.415 . S
C296 C295 1.355 . S
C296 C298 1.419 . S
C297 C292 1.425 1_455 S
C297 C294 1.409 . S
C297 C295 1.415 . S
C298 H288 0.930 . S
C298 C296 1.419 . S
C298 C299 1.362 1_455 S
C299 H289 0.930 . S
C299 C292 1.409 . S
C299 C298 1.362 1_655 S
H300 C306 0.930 . S
H301 C309 0.930 . S
H302 C310 0.930 . S
H303 C311 0.930 . S
H304 C314 0.930 1_655 S
H305 C315 0.930 . S
C306 H300 0.930 . S
C306 C307 1.355 . S
C306 C308 1.415 . S
C307 C306 1.355 . S
C307 C309 1.419 . S
C308 C306 1.415 . S
C308 C313 1.425 . S
C308 C315 1.409 . S
C309 H301 0.930 . S
C309 C307 1.419 . S
C309 C310 1.362 . S
C310 H302 0.930 . S
C310 C309 1.362 . S
C310 C313 1.409 . S
C311 H303 0.930 . S
C311 C312 1.355 . S
C311 C313 1.415 . S
C312 C311 1.355 . S
C312 C314 1.419 . S
C313 C308 1.425 . S
C313 C310 1.409 . S
C313 C311 1.415 . S
C314 H304 0.930 1_455 S
C314 C312 1.419 . S
C314 C315 1.362 . S
C315 H305 0.930 . S
C315 C308 1.409 . S
C315 C314 1.362 . S
H316 C322 0.930 . S
H317 C325 0.930 . S
H318 C326 0.930 . S
H319 C327 0.930 . S
H320 C330 0.930 1_455 S
H321 C331 0.930 . S
C322 H316 0.930 . S
C322 C323 1.355 . S
C322 C324 1.415 . S
C323 C322 1.355 . S
C323 C325 1.419 . S
C324 C322 1.415 . S
C324 C329 1.425 1_556 S
C324 C331 1.409 1_556 S
C325 H317 0.930 . S
C325 C323 1.419 . S
C325 C326 1.362 . S
C326 H318 0.930 . S
C326 C325 1.362 . S
C326 C329 1.409 1_556 S
C327 H319 0.930 . S
C327 C328 1.355 . S
C327 C329 1.415 . S
C328 C327 1.355 . S
C328 C330 1.419 . S
C329 C324 1.425 1_554 S
C329 C326 1.409 1_554 S
C329 C327 1.415 . S
C330 H320 0.930 1_655 S
C330 C328 1.419 . S
C330 C331 1.362 . S
C331 H321 0.930 . S
C331 C324 1.409 1_554 S
C331 C330 1.362 . S
H332 C338 0.930 . S
H333 C341 0.930 . S
H334 C342 0.930 . S
H335 C343 0.930 . S
H336 C346 0.930 . S
H337 C347 0.930 . S
C338 H332 0.930 . S
C338 C339 1.355 . S
C338 C340 1.415 . S
C339 C338 1.355 . S
C339 C341 1.419 . S
C340 C338 1.415 . S
C340 C345 1.425 . S
C340 C347 1.409 . S
C341 H333 0.930 . S
C341 C339 1.419 . S
C341 C342 1.362 . S
C342 H334 0.930 . S
C342 C341 1.362 . S
C342 C345 1.409 . S
C343 H335 0.930 . S
C343 C344 1.355 . S
C343 C345 1.415 . S
C344 C343 1.355 . S
C344 C346 1.419 . S
C345 C340 1.425 . S
C345 C342 1.409 . S
C345 C343 1.415 . S
C346 H336 0.930 . S
C346 C344 1.419 . S
C346 C347 1.362 . S
C347 H337 0.930 . S
C347 C340 1.409 . S
C347 C346 1.362 . S
H348 C354 0.930 . S
H349 C357 0.930 . S
H350 C358 0.930 . S
H351 C359 0.930 . S
H352 C362 0.930 . S
H353 C363 0.930 . S
C354 H348 0.930 . S
C354 C355 1.355 . S
C354 C356 1.415 . S
C355 C354 1.355 . S
C355 C357 1.419 . S
C356 C354 1.415 . S
C356 C361 1.425 1_554 S
C356 C363 1.409 . S
C357 H349 0.930 . S
C357 C355 1.419 . S
C357 C358 1.362 1_554 S
C358 H350 0.930 . S
C358 C357 1.362 1_556 S
C358 C361 1.409 . S
C359 H351 0.930 . S
C359 C360 1.355 . S
C359 C361 1.415 . S
C360 C359 1.355 . S
C360 C362 1.419 . S
C361 C356 1.425 1_556 S
C361 C358 1.409 . S
C361 C359 1.415 . S
C362 H352 0.930 . S
C362 C360 1.419 . S
C362 C363 1.362 1_556 S
C363 H353 0.930 . S
C363 C356 1.409 . S
C363 C362 1.362 1_554 S
H364 C370 0.930 . S
H365 C373 0.930 . S
H366 C374 0.931 . S
H367 C375 0.930 . S
H368 C378 0.930 . S
H369 C379 0.930 . S
C370 H364 0.930 . S
C370 C371 1.355 1_455 S
C370 C372 1.415 . S
C371 C370 1.355 1_655 S
C371 C373 1.419 . S
C372 C370 1.415 . S
C372 C377 1.425 1_444 S
C372 C379 1.409 1_545 S
C373 H365 0.930 . S
C373 C371 1.419 . S
C373 C374 1.361 1_544 S
C374 H366 0.931 . S
C374 C373 1.361 1_566 S
C374 C377 1.410 . S
C375 H367 0.930 . S
C375 C376 1.355 1_655 S
C375 C377 1.415 . S
C376 C375 1.355 1_455 S
C376 C378 1.419 . S
C377 C372 1.425 1_666 S
C377 C374 1.410 . S
C377 C375 1.415 . S
C378 H368 0.930 . S
C378 C376 1.419 . S
C378 C379 1.362 1_556 S
C379 H369 0.930 . S
C379 C372 1.409 1_565 S
C379 C378 1.362 1_554 S
H380 C386 0.930 . S
H381 C389 0.927 1_565 S
H382 C390 0.930 . S
H383 C391 0.930 . S
H384 C394 0.930 1_545 S
H385 C395 0.930 . S
C386 H380 0.930 . S
C386 C387 1.355 1_655 S
C386 C388 1.415 . S
C387 C386 1.355 1_455 S
C387 C389 1.435 . S
C388 C386 1.415 . S
C388 C393 1.425 1_645 S
C388 C395 1.409 . S
C389 H381 0.927 1_545 S
C389 C387 1.435 . S
C389 C390 1.350 1_545 S
C390 H382 0.930 . S
C390 C389 1.350 1_565 S
C390 C393 1.409 . S
C391 H383 0.930 . S
C391 C392 1.355 1_455 S
C391 C393 1.415 . S
C392 C391 1.355 1_655 S
C392 C394 1.419 . S
C393 C388 1.425 1_465 S
C393 C390 1.409 . S
C393 C391 1.415 . S
C394 H384 0.930 1_565 S
C394 C392 1.419 . S
C394 C395 1.362 1_565 S
C395 H385 0.930 . S
C395 C388 1.409 . S
C395 C394 1.362 1_545 S
H396 C402 0.930 . S
H397 C405 0.930 . S
H398 C406 0.930 . S
H399 C407 0.930 . S
H400 C410 0.930 . S
H401 C411 0.930 . S
C402 H396 0.930 . S
C402 C403 1.355 . S
C402 C404 1.415 . S
C403 C402 1.355 . S
C403 C405 1.419 . S
C404 C402 1.415 . S
C404 C409 1.425 1_554 S
C404 C411 1.409 . S
C405 H397 0.930 . S
C405 C403 1.419 . S
C405 C406 1.362 1_554 S
C406 H398 0.930 . S
C406 C405 1.362 1_556 S
C406 C409 1.409 . S
C407 H399 0.930 . S
C407 C408 1.355 . S
C407 C409 1.415 . S
C408 C407 1.355 . S
C408 C410 1.419 . S
C409 C404 1.425 1_556 S
C409 C406 1.409 . S
C409 C407 1.415 . S
C410 H400 0.930 . S
C410 C408 1.419 . S
C410 C411 1.362 1_556 S
C411 H401 0.930 . S
C411 C404 1.409 . S
C411 C410 1.362 1_554 S
H412 C418 0.930 . S
H413 C421 0.930 . S
H414 C422 0.930 . S
H415 C423 0.930 . S
H416 C426 0.930 . S
H417 C427 0.930 . S
C418 H412 0.930 . S
C418 C419 1.355 . S
C418 C420 1.415 . S
C419 C418 1.355 . S
C419 C421 1.419 . S
C420 C418 1.415 . S
C420 C425 1.425 . S
C420 C427 1.409 . S
C421 H413 0.930 . S
C421 C419 1.419 . S
C421 C422 1.362 . S
C422 H414 0.930 . S
C422 C421 1.362 . S
C422 C425 1.409 . S
C423 H415 0.930 . S
C423 C424 1.355 . S
C423 C425 1.415 . S
C424 C423 1.355 . S
C424 C426 1.419 . S
C425 C420 1.425 . S
C425 C422 1.409 . S
C425 C423 1.415 . S
C426 H416 0.930 . S
C426 C424 1.419 . S
C426 C427 1.362 . S
C427 H417 0.930 . S
C427 C420 1.409 . S
C427 C426 1.362 . S
C179 N3 1.182 . S
C184 N8 1.205 . S
C195 N46 1.159 . S
C200 N51 1.198 . S
C211 N89 1.184 . S
C216 N94 1.207 . S
C227 N137 1.222 . S
C232 N132 1.196 . S
C243 C40 1.295 . S
C248 C27 1.297 . S
C259 C83 1.207 . S
C264 C70 1.202 . S
C275 C113 1.294 . S
C280 C126 1.296 . S
C291 C156 1.294 . S
C296 C169 1.296 . S
C307 C162 1.577 . S
C312 C32 1.580 . S
C323 C142 1.589 . S
C328 C39 1.587 . S
C339 C118 1.555 . S
C344 C76 1.542 . S
C355 C125 1.534 . S
C360 C56 1.541 . S
C371 C33 1.952 . S
C376 C75 1.929 . S
C387 C13 1.933 . S
C392 C82 1.961 . S
C403 C119 1.960 . S
C408 C161 1.937 . S
C419 C168 1.908 . S
C424 C99 1.871 . S
