# Generated by pormake.
# Topology lcy-e, (6)-cn, num edge types: 1
# Building blocks:
#     Node 0, Type 0, BuildingBlock: BETDIP_clean_sbu_0, # of connection points: 6
#     Node 1, Type 0, BuildingBlock: BETDIP_clean_sbu_0, # of connection points: 6
#     Node 2, Type 0, BuildingBlock: BETDIP_clean_sbu_0, # of connection points: 6
#     Node 3, Type 0, BuildingBlock: BETDIP_clean_sbu_0, # of connection points: 6
#     Node 4, Type 0, BuildingBlock: BETDIP_clean_sbu_0, # of connection points: 6
#     Node 5, Type 0, BuildingBlock: BETDIP_clean_sbu_0, # of connection points: 6
#     Node 6, Type 0, BuildingBlock: BETDIP_clean_sbu_0, # of connection points: 6
#     Node 7, Type 0, BuildingBlock: BETDIP_clean_sbu_0, # of connection points: 6
#     Node 8, Type 0, BuildingBlock: BETDIP_clean_sbu_0, # of connection points: 6
#     Node 9, Type 0, BuildingBlock: BETDIP_clean_sbu_0, # of connection points: 6
#     Node 10, Type 0, BuildingBlock: BETDIP_clean_sbu_0, # of connection points: 6
#     Node 11, Type 0, BuildingBlock: BETDIP_clean_sbu_0, # of connection points: 6
#     Edge 12, Type (0, 0), BuildingBlock: AJUNOK_clean_linker_0, # of connection points: 2
#     Edge 13, Type (0, 0), BuildingBlock: AJUNOK_clean_linker_0, # of connection points: 2
#     Edge 14, Type (0, 0), BuildingBlock: AJUNOK_clean_linker_0, # of connection points: 2
#     Edge 15, Type (0, 0), BuildingBlock: AJUNOK_clean_linker_0, # of connection points: 2
#     Edge 16, Type (0, 0), BuildingBlock: AJUNOK_clean_linker_0, # of connection points: 2
#     Edge 17, Type (0, 0), BuildingBlock: AJUNOK_clean_linker_0, # of connection points: 2
#     Edge 18, Type (0, 0), BuildingBlock: AJUNOK_clean_linker_0, # of connection points: 2
#     Edge 19, Type (0, 0), BuildingBlock: AJUNOK_clean_linker_0, # of connection points: 2
#     Edge 20, Type (0, 0), BuildingBlock: AJUNOK_clean_linker_0, # of connection points: 2
#     Edge 21, Type (0, 0), BuildingBlock: AJUNOK_clean_linker_0, # of connection points: 2
#     Edge 22, Type (0, 0), BuildingBlock: AJUNOK_clean_linker_0, # of connection points: 2
#     Edge 23, Type (0, 0), BuildingBlock: AJUNOK_clean_linker_0, # of connection points: 2
#     Edge 24, Type (0, 0), BuildingBlock: AJUNOK_clean_linker_0, # of connection points: 2
#     Edge 25, Type (0, 0), BuildingBlock: AJUNOK_clean_linker_0, # of connection points: 2
#     Edge 26, Type (0, 0), BuildingBlock: AJUNOK_clean_linker_0, # of connection points: 2
#     Edge 27, Type (0, 0), BuildingBlock: AJUNOK_clean_linker_0, # of connection points: 2
#     Edge 28, Type (0, 0), BuildingBlock: AJUNOK_clean_linker_0, # of connection points: 2
#     Edge 29, Type (0, 0), BuildingBlock: AJUNOK_clean_linker_0, # of connection points: 2
#     Edge 30, Type (0, 0), BuildingBlock: AJUNOK_clean_linker_0, # of connection points: 2
#     Edge 31, Type (0, 0), BuildingBlock: AJUNOK_clean_linker_0, # of connection points: 2
#     Edge 32, Type (0, 0), BuildingBlock: AJUNOK_clean_linker_0, # of connection points: 2
#     Edge 33, Type (0, 0), BuildingBlock: AJUNOK_clean_linker_0, # of connection points: 2
#     Edge 34, Type (0, 0), BuildingBlock: AJUNOK_clean_linker_0, # of connection points: 2
#     Edge 35, Type (0, 0), BuildingBlock: AJUNOK_clean_linker_0, # of connection points: 2
#     Edge 36, Type (0, 0), BuildingBlock: AJUNOK_clean_linker_0, # of connection points: 2
#     Edge 37, Type (0, 0), BuildingBlock: AJUNOK_clean_linker_0, # of connection points: 2
#     Edge 38, Type (0, 0), BuildingBlock: AJUNOK_clean_linker_0, # of connection points: 2
#     Edge 39, Type (0, 0), BuildingBlock: AJUNOK_clean_linker_0, # of connection points: 2
#     Edge 40, Type (0, 0), BuildingBlock: AJUNOK_clean_linker_0, # of connection points: 2
#     Edge 41, Type (0, 0), BuildingBlock: AJUNOK_clean_linker_0, # of connection points: 2
#     Edge 42, Type (0, 0), BuildingBlock: AJUNOK_clean_linker_0, # of connection points: 2
#     Edge 43, Type (0, 0), BuildingBlock: AJUNOK_clean_linker_0, # of connection points: 2
#     Edge 44, Type (0, 0), BuildingBlock: AJUNOK_clean_linker_0, # of connection points: 2
#     Edge 45, Type (0, 0), BuildingBlock: AJUNOK_clean_linker_0, # of connection points: 2
#     Edge 46, Type (0, 0), BuildingBlock: AJUNOK_clean_linker_0, # of connection points: 2
#     Edge 47, Type (0, 0), BuildingBlock: AJUNOK_clean_linker_0, # of connection points: 2
# Relax obj value: 0.209
# Max RMSD: 0.306
# Mean RMSD: 0.288
data_MOF--net-lcy-e--node1-BETDIP_clean_sbu_0--edge1-AJUNOK_clean_linker_0
_symmetry_space_group_name_H-M    P1
_symmetry_Int_Tables_number       1
_symmetry_cell_setting            triclinic
loop_
_symmetry_equiv_pos_as_xyz
'x, y, z'
_cell_length_a     32.423613
_cell_length_b     35.032409
_cell_length_c     34.9216
_cell_angle_alpha  91.501324
_cell_angle_beta   90.68927
_cell_angle_gamma 88.472418
loop_
_atom_site_label
_atom_site_type_symbol
_atom_site_fract_x
_atom_site_fract_y
_atom_site_fract_z
_atom_type_partial_charge
Tb0 Tb 0.15314 0.26979 0.59503 0.0
Tb1 Tb 0.13574 0.32814 0.52815 0.0
C2 C 0.14068 0.23294 0.65422 0.0
C3 C 0.13175 0.19325 0.66303 0.0
C4 C 0.10116 0.18685 0.68997 0.0
C5 C 0.0881 0.14995 0.69618 0.0
C6 C 0.10567 0.11868 0.67578 0.0
C7 C 0.13658 0.12495 0.64892 0.0
C8 C 0.14933 0.16211 0.64232 0.0
C9 C 0.20203 0.25512 0.53559 0.0
C10 C 0.0838 0.25205 0.53205 0.0
C11 C 0.13122 0.35634 0.46247 0.0
C12 C 0.15494 0.37716 0.43383 0.0
C13 C 0.19055 0.36116 0.41636 0.0
C14 C 0.2101 0.3802 0.38695 0.0
C15 C 0.1942 0.41543 0.37402 0.0
C16 C 0.15829 0.43101 0.39131 0.0
C17 C 0.13915 0.41227 0.42092 0.0
C18 C 0.10123 0.34475 0.59588 0.0
C19 C 0.20063 0.34827 0.5889 0.0
O20 O 0.11141 0.24997 0.63439 0.0
O21 O 0.17785 0.24079 0.6425 0.0
O22 O 0.1755 0.2815 0.54055 0.0
O23 O 0.2013 0.2344 0.56586 0.0
O24 O 0.10797 0.23891 0.55997 0.0
O25 O 0.08773 0.28645 0.51762 0.0
O26 O 0.14213 0.3207 0.46878 0.0
O27 O 0.12018 0.37506 0.4939 0.0
O28 O 0.10882 0.31242 0.58059 0.0
O29 O 0.10896 0.37006 0.5704 0.0
O30 O 0.19402 0.34652 0.55148 0.0
O31 O 0.1842 0.32343 0.61243 0.0
H32 H 0.08674 0.2106 0.70573 0.0
H33 H 0.0645 0.14577 0.71726 0.0
H34 H 0.15042 0.1012 0.63277 0.0
H35 H 0.1723 0.16654 0.62073 0.0
H36 H 0.20287 0.33361 0.42483 0.0
H37 H 0.23751 0.36722 0.37418 0.0
H38 H 0.14417 0.45732 0.38127 0.0
H39 H 0.11116 0.4248 0.43306 0.0
Tb40 Tb 0.98382 0.91087 0.74771 0.0
Tb41 Tb 0.05226 0.92641 0.80594 0.0
C42 C 0.92308 0.92115 0.70323 0.0
C43 C 0.91381 0.93147 0.66317 0.0
C44 C 0.88846 0.96384 0.65687 0.0
C45 C 0.87773 0.97447 0.61977 0.0
C46 C 0.89183 0.95281 0.58792 0.0
C47 C 0.91806 0.92079 0.59406 0.0
C48 C 0.92905 0.91021 0.63143 0.0
C49 C 0.04797 0.86508 0.74077 0.0
C50 C 0.04954 0.97721 0.73475 0.0
C51 C 0.11605 0.92119 0.84745 0.0
C52 C 0.14457 0.8931 0.86578 0.0
C53 C 0.18154 0.88133 0.84759 0.0
C54 C 0.2128 0.86183 0.86782 0.0
C55 C 0.20776 0.85409 0.90664 0.0
C56 C 0.16973 0.86328 0.92397 0.0
C57 C 0.13844 0.88257 0.90378 0.0
C58 C 0.98206 0.96786 0.81425 0.0
C59 C 0.98952 0.86496 0.82415 0.0
O60 O 0.93978 0.94817 0.72421 0.0
O61 O 0.93934 0.88726 0.71014 0.0
O62 O 0.04908 0.90018 0.74978 0.0
O63 O 1.01093 0.85634 0.73008 0.0
O64 O 1.01584 0.95937 0.72309 0.0
O65 O 0.0699 0.96828 0.76615 0.0
O66 O 0.11662 0.92257 0.81004 0.0
O67 O 0.07874 0.92607 0.86118 0.0
O68 O 0.98705 0.93409 0.80317 0.0
O69 O 1.01803 0.97912 0.82611 0.0
O70 O 0.02927 0.8714 0.82224 0.0
O71 O 0.96327 0.88265 0.80024 0.0
H72 H 0.87634 0.98072 0.68086 0.0
H73 H 0.85706 0.99894 0.61607 0.0
H74 H 0.92963 0.90372 0.57002 0.0
H75 H 0.94898 0.8853 0.63543 0.0
H76 H 0.1874 0.88919 0.81841 0.0
H77 H 0.24202 0.8555 0.85401 0.0
H78 H 0.16527 0.85778 0.95401 0.0
H79 H 0.11054 0.89131 0.91875 0.0
Tb80 Tb 0.38451 0.8051 0.07662 0.0
Tb81 Tb 0.40668 0.74575 1.01111 0.0
C82 C 0.39063 0.84198 0.13885 0.0
C83 C 0.40115 0.88183 0.14948 0.0
C84 C 0.44263 0.89158 0.15539 0.0
C85 C 0.4529 0.92877 0.1663 0.0
C86 C 0.42197 0.95706 0.17195 0.0
C87 C 0.38054 0.94764 0.16531 0.0
C88 C 0.37021 0.91034 0.15438 0.0
C89 C 0.33986 0.82071 1.01501 0.0
C90 C 0.45994 0.82042 1.02294 0.0
C91 C 0.42035 0.71696 0.94559 0.0
C92 C 0.39882 0.70261 0.91069 0.0
C93 C 0.3747 0.66984 0.91075 0.0
C94 C 0.35876 0.65458 0.87632 0.0
C95 C 0.36685 0.67163 0.84126 0.0
C96 C 0.38928 0.70538 0.84153 0.0
C97 C 0.40523 0.72058 0.87585 0.0
C98 C 0.43276 0.72954 0.08144 0.0
C99 C 0.33449 0.72823 0.06073 0.0
O100 O 0.42061 0.82088 0.12398 0.0
O101 O 0.35516 0.83629 0.12137 0.0
O102 O 0.36646 0.79404 1.0189 0.0
O103 O 0.33929 0.8408 0.04672 0.0
O104 O 0.43273 0.83547 0.0475 0.0
O105 O 0.45737 0.78505 1.00886 0.0
O106 O 0.41729 0.7538 0.95284 0.0
O107 O 0.41886 0.69685 0.97669 0.0
O108 O 0.42927 0.76163 0.06644 0.0
O109 O 0.42759 0.70383 0.05441 0.0
O110 O 0.34536 0.72934 1.02455 0.0
O111 O 0.34818 0.75371 0.08663 0.0
H112 H 0.46732 0.87034 0.15208 0.0
H113 H 0.48504 0.93512 0.1715 0.0
H114 H 0.35609 0.96905 0.16893 0.0
H115 H 0.33799 0.90381 0.15006 0.0
H116 H 0.36908 0.65538 0.93714 0.0
H117 H 0.34154 0.62853 0.87694 0.0
H118 H 0.39532 0.71955 0.81505 0.0
H119 H 0.42364 0.7459 0.875 0.0
Tb120 Tb 0.54123 0.16682 0.24884 0.0
Tb121 Tb 0.4816 0.15728 0.31195 0.0
C122 C 0.60013 0.17019 0.20258 0.0
C123 C 0.60719 0.16161 0.16146 0.0
C124 C 0.58673 0.13159 0.14233 0.0
C125 C 0.59958 0.11844 0.10606 0.0
C126 C 0.63266 0.13545 0.08796 0.0
C127 C 0.65135 0.16699 0.10616 0.0
C128 C 0.6388 0.17984 0.14263 0.0
C129 C 0.46969 0.20414 0.23935 0.0
C130 C 0.47795 0.10091 0.23912 0.0
C131 C 0.41739 0.15436 0.35169 0.0
C132 C 0.38933 0.17696 0.37739 0.0
C133 C 0.36359 0.20697 0.36407 0.0
C134 C 0.33293 0.22366 0.38775 0.0
C135 C 0.32729 0.21042 0.42496 0.0
C136 C 0.3542 0.18158 0.43859 0.0
C137 C 0.38473 0.16507 0.41512 0.0
C138 C 0.55516 0.12288 0.32232 0.0
C139 C 0.54463 0.21605 0.32783 0.0
O140 O 0.59247 0.1405 0.22293 0.0
O141 O 0.57651 0.19979 0.21201 0.0
O142 O 0.48973 0.20056 0.27031 0.0
O143 O 0.48993 0.18566 0.21276 0.0
O144 O 0.5122 0.11535 0.22621 0.0
O145 O 0.46018 0.11474 0.27043 0.0
O146 O 0.41707 0.16199 0.31515 0.0
O147 O 0.4545 0.14598 0.36467 0.0
O148 O 0.53528 0.12577 0.29128 0.0
O149 O 0.53129 0.13503 0.34978 0.0
O150 O 0.50468 0.21171 0.3293 0.0
O151 O 0.56649 0.19808 0.30043 0.0
H152 H 0.56223 0.11697 0.15626 0.0
H153 H 0.58472 0.09405 0.09276 0.0
H154 H 0.6774 0.18023 0.09324 0.0
H155 H 0.65527 0.20274 0.15694 0.0
H156 H 0.36609 0.21662 0.33501 0.0
H157 H 0.31249 0.24565 0.37637 0.0
H158 H 0.35087 0.17102 0.46724 0.0
H159 H 0.40382 0.14186 0.42608 0.0
Tb160 Tb 0.63551 0.24432 0.56604 0.0
Tb161 Tb 0.66065 0.31122 0.52091 0.0
C162 C 0.63183 0.18955 0.61103 0.0
C163 C 0.65204 0.17925 0.64788 0.0
C164 C 0.69456 0.17043 0.65116 0.0
C165 C 0.71195 0.15991 0.68658 0.0
C166 C 0.68718 0.15821 0.71933 0.0
C167 C 0.64504 0.16829 0.71601 0.0
C168 C 0.62773 0.17841 0.68081 0.0
C169 C 0.57915 0.29934 0.56213 0.0
C170 C 0.70049 0.30337 0.60148 0.0
C171 C 0.66986 0.3787 0.4996 0.0
C172 C 0.65069 0.40784 0.47494 0.0
C173 C 0.60887 0.40691 0.46382 0.0
C174 C 0.59087 0.43702 0.44311 0.0
C175 C 0.61451 0.46828 0.43314 0.0
C176 C 0.65619 0.46904 0.44467 0.0
C177 C 0.67407 0.43911 0.46523 0.0
C178 C 0.69977 0.24497 0.50378 0.0
C179 C 0.60198 0.25512 0.48152 0.0
O180 O 0.6538 0.18807 0.57975 0.0
O181 O 0.60742 0.21979 0.61269 0.0
O182 O 0.61761 0.30345 0.56623 0.0
O183 O 0.57152 0.26325 0.56011 0.0
O184 O 0.675 0.27531 0.60808 0.0
O185 O 0.70339 0.31845 0.56762 0.0
O186 O 0.64851 0.36962 0.52931 0.0
O187 O 0.68804 0.3489 0.4831 0.0
O188 O 0.68929 0.25774 0.53641 0.0
O189 O 0.69052 0.27128 0.47929 0.0
O190 O 0.60879 0.29176 0.48745 0.0
O191 O 0.61507 0.22912 0.50664 0.0
H192 H 0.71424 0.17103 0.62636 0.0
H193 H 0.74437 0.15175 0.68797 0.0
H194 H 0.62512 0.16758 0.74065 0.0
H195 H 0.59496 0.18524 0.67926 0.0
H196 H 0.59014 0.38317 0.47148 0.0
H197 H 0.55873 0.43568 0.43448 0.0
H198 H 0.67498 0.49303 0.43794 0.0
H199 H 0.70613 0.44069 0.47413 0.0
Tb200 Tb 0.9895 0.42358 0.77742 0.0
Tb201 Tb 0.05948 0.40753 0.83151 0.0
C202 C 0.94054 0.43055 0.72139 0.0
C203 C 0.8991 0.41652 0.71229 0.0
C204 C 0.88208 0.42278 0.67595 0.0
C205 C 0.84606 0.40459 0.66427 0.0
C206 C 0.82643 0.37949 0.68865 0.0
C207 C 0.84296 0.37399 0.72555 0.0
C208 C 0.87903 0.39244 0.7373 0.0
C209 C 0.9788 0.45302 0.84748 0.0
C210 C 0.98157 0.35329 0.82981 0.0
C211 C 0.10157 0.39724 0.89186 0.0
C212 C 0.11793 0.41768 0.92625 0.0
C213 C 0.09811 0.4505 0.94234 0.0
C214 C 0.11151 0.46596 0.97786 0.0
C215 C 0.1445 0.44853 0.998 0.0
C216 C 0.16513 0.41672 0.98091 0.0
C217 C 0.15197 0.4015 0.94556 0.0
C218 C 0.07069 0.38112 0.75945 0.0
C219 C 0.06977 0.47558 0.7831 0.0
O220 O 0.96874 0.40345 0.72408 0.0
O221 O 0.94395 0.45659 0.7488 0.0
O222 O 1.01196 0.45134 0.82892 0.0
O223 O 0.95032 0.43791 0.82613 0.0
O224 O 0.96679 0.37062 0.79933 0.0
O225 O 1.01597 0.3641 0.84702 0.0
O226 O 0.06148 0.3943 0.88954 0.0
O227 O 0.11799 0.40364 0.85861 0.0
O228 O 0.03775 0.3822 0.77829 0.0
O229 O 0.10026 0.38917 0.78339 0.0
O230 O 0.07316 0.46548 0.81891 0.0
O231 O 0.04099 0.46033 0.7605 0.0
H232 H 0.89748 0.44069 0.65602 0.0
H233 H 0.83431 0.40916 0.63554 0.0
H234 H 0.82828 0.35524 0.74511 0.0
H235 H 0.89193 0.38702 0.76544 0.0
H236 H 0.07166 0.46348 0.92801 0.0
H237 H 0.09526 0.49067 0.99018 0.0
H238 H 0.19123 0.40317 0.99528 0.0
H239 H 0.16771 0.37623 0.93382 0.0
Tb240 Tb 0.89947 0.82674 0.05746 0.0
Tb241 Tb 0.88199 0.76115 1.00486 0.0
C242 C 0.90546 0.8885 0.095 0.0
C243 C 0.88953 0.90023 0.13345 0.0
C244 C 0.85543 0.92579 0.13656 0.0
C245 C 0.83883 0.9358 0.17242 0.0
C246 C 0.85618 0.92081 0.20608 0.0
C247 C 0.88998 0.89495 0.203 0.0
C248 C 0.90648 0.88477 0.16715 0.0
C249 C 0.94059 0.76296 0.07396 0.0
C250 C 0.83318 0.77025 0.08349 0.0
C251 C 0.87192 0.69541 0.97577 0.0
C252 C 0.89373 0.66244 0.95717 0.0
C253 C 0.93087 0.64687 0.97208 0.0
C254 C 0.94741 0.61229 0.95704 0.0
C255 C 0.9268 0.59257 0.92725 0.0
C256 C 0.89073 0.60913 0.91139 0.0
C257 C 0.87436 0.64362 0.92625 0.0
C258 C 0.83886 0.82584 0.9919 0.0
C259 C 0.94279 0.81584 0.9754 0.0
O260 O 0.87739 0.8827 0.0685 0.0
O261 O 0.93506 0.86231 0.09351 0.0
O262 O 0.93407 0.77532 0.04065 0.0
O263 O 0.92472 0.78704 0.09868 0.0
O264 O 0.84756 0.80496 0.0887 0.0
O265 O 0.8449 0.74823 0.05418 0.0
O266 O 0.88023 0.70221 1.01203 0.0
O267 O 0.86705 0.72676 0.95643 0.0
O268 O 0.84844 0.81151 1.02331 0.0
O269 O 0.85122 0.80176 0.96539 0.0
O270 O 0.93733 0.77907 0.97882 0.0
O271 O 0.92786 0.84063 1.00174 0.0
H272 H 0.8415 0.93801 0.11116 0.0
H273 H 0.81297 0.95599 0.17392 0.0
H274 H 0.90371 0.88259 0.22841 0.0
H275 H 0.9324 0.86466 0.16593 0.0
H276 H 0.94636 0.66072 0.99609 0.0
H277 H 0.97544 0.6003 0.96957 0.0
H278 H 0.87475 0.59501 0.88779 0.0
H279 H 0.8457 0.65499 0.91435 0.0
Tb280 Tb 0.48755 0.66123 0.31922 0.0
Tb281 Tb 0.55504 0.64224 0.26741 0.0
C282 C 0.42217 0.6728 0.35631 0.0
C283 C 0.40836 0.6556 0.3918 0.0
C284 C 0.42369 0.61944 0.4025 0.0
C285 C 0.41118 0.6034 0.43653 0.0
C286 C 0.38305 0.62324 0.46042 0.0
C287 C 0.36849 0.65983 0.45011 0.0
C288 C 0.381 0.67584 0.41602 0.0
C289 C 0.55498 0.70117 0.33316 0.0
C290 C 0.54993 0.59626 0.34411 0.0
C291 C 0.62491 0.63533 0.23773 0.0
C292 C 0.65186 0.66087 0.21694 0.0
C293 C 0.68738 0.67516 0.23516 0.0
C294 C 0.71431 0.69786 0.21537 0.0
C295 C 0.70631 0.7064 0.17694 0.0
C296 C 0.6702 0.69311 0.15906 0.0
C297 C 0.64315 0.67063 0.17886 0.0
C298 C 0.4861 0.60369 0.25343 0.0
C299 C 0.4929 0.69776 0.23603 0.0
O300 O 0.42501 0.64978 0.32643 0.0
O301 O 0.45422 0.69436 0.35999 0.0
O302 O 0.53957 0.69308 0.3006 0.0
O303 O 0.53276 0.68575 0.35874 0.0
O304 O 0.51217 0.61077 0.34903 0.0
O305 O 0.57296 0.60814 0.31628 0.0
O306 O 0.61916 0.64426 0.27394 0.0
O307 O 0.59095 0.62447 0.22038 0.0
O308 O 0.502 0.61225 0.28539 0.0
O309 O 0.5113 0.61416 0.22739 0.0
O310 O 0.53284 0.69207 0.2392 0.0
O311 O 0.46812 0.68607 0.26328 0.0
H312 H 0.44507 0.60337 0.38443 0.0
H313 H 0.42279 0.57518 0.44376 0.0
H314 H 0.34732 0.67604 0.46843 0.0
H315 H 0.36935 0.70399 0.40858 0.0
H316 H 0.69485 0.66804 0.26448 0.0
H317 H 0.74232 0.70721 0.22954 0.0
H318 H 0.66348 0.69931 0.12936 0.0
H319 H 0.61596 0.6603 0.16403 0.0
Tb320 Tb 0.30689 0.50701 0.16539 0.0
Tb321 Tb 0.23627 0.56605 0.19029 0.0
C322 C 0.37311 0.46878 0.16791 0.0
C323 C 0.38273 0.42871 0.17759 0.0
C324 C 0.35607 0.40844 0.20066 0.0
C325 C 0.36619 0.37104 0.21121 0.0
C326 C 0.40298 0.35308 0.19858 0.0
C327 C 0.42917 0.37313 0.17482 0.0
C328 C 0.4192 0.41068 0.16457 0.0
C329 C 0.23527 0.48867 0.13293 0.0
C330 C 0.25082 0.49465 0.24038 0.0
C331 C 0.17313 0.60919 0.19278 0.0
C332 C 0.14371 0.63035 0.16784 0.0
C333 C 0.12259 0.61261 0.13699 0.0
C334 C 0.09077 0.63238 0.11751 0.0
C335 C 0.07956 0.67009 0.12867 0.0
C336 C 0.10213 0.68815 0.15828 0.0
C337 C 0.13378 0.66853 0.17759 0.0
C338 C 0.31195 0.57396 0.22088 0.0
C339 C 0.28754 0.58111 0.11737 0.0
O340 O 0.35954 0.49061 0.19648 0.0
O341 O 0.35216 0.4742 0.13592 0.0
O342 O 0.24276 0.51459 0.15754 0.0
O343 O 0.27 0.47054 0.12672 0.0
O344 O 0.28392 0.48477 0.21983 0.0
O345 O 0.22555 0.52344 0.23195 0.0
O346 O 0.17188 0.57173 0.19187 0.0
O347 O 0.21083 0.62172 0.19556 0.0
O348 O 0.30178 0.56319 0.18797 0.0
O349 O 0.27821 0.58447 0.23846 0.0
O350 O 0.25006 0.5808 0.13176 0.0
O351 O 0.31716 0.55665 0.129 0.0
H352 H 0.32752 0.42156 0.21079 0.0
H353 H 0.34514 0.35608 0.22901 0.0
H354 H 0.45776 0.35995 0.16472 0.0
H355 H 0.44016 0.42574 0.14675 0.0
H356 H 0.12965 0.58315 0.12879 0.0
H357 H 0.07374 0.61766 0.09499 0.0
H358 H 0.09443 0.71728 0.16727 0.0
H359 H 0.14956 0.68284 0.2012 0.0
Tb360 Tb 0.80648 0.06782 0.9318 0.0
Tb361 Tb 0.74424 1.01125 0.90602 0.0
C362 C 0.86694 0.11163 0.93156 0.0
C363 C 0.87814 0.15097 0.92332 0.0
C364 C 0.84984 0.17695 0.9068 0.0
C365 C 0.86338 0.21168 0.89295 0.0
C366 C 0.90546 0.22071 0.89509 0.0
C367 C 0.93323 0.19494 0.9128 0.0
C368 C 0.91968 0.1605 0.92673 0.0
C369 C 0.73902 0.07186 0.97224 0.0
C370 C 0.74625 0.08468 0.85899 0.0
C371 C 0.68508 0.96637 0.89866 0.0
C372 C 0.65557 0.94502 0.92086 0.0
C373 C 0.65199 0.94982 0.96077 0.0
C374 C 0.62151 0.93056 0.98036 0.0
C375 C 0.59422 0.90646 0.9602 0.0
C376 C 0.59829 0.90187 0.92029 0.0
C377 C 0.62863 0.9209 0.9009 0.0
C378 C 0.81731 1.00753 0.87056 0.0
C379 C 0.80157 0.98808 0.97201 0.0
O380 O 0.8541 0.09175 0.90182 0.0
O381 O 0.84563 0.10544 0.96235 0.0
O382 O 0.7404 0.06589 0.93629 0.0
O383 O 0.77547 0.07964 0.98532 0.0
O384 O 0.7778 0.09554 0.88099 0.0
O385 O 0.72654 0.05326 0.86533 0.0
O386 O 0.68072 1.00359 0.90048 0.0
O387 O 0.72385 0.95489 0.89953 0.0
O388 O 0.80982 1.01426 0.90488 0.0
O389 O 0.78263 0.99834 0.85433 0.0
O390 O 0.76227 0.99146 0.96265 0.0
O391 O 0.82744 1.01336 0.95846 0.0
H392 H 0.81766 0.16985 0.90354 0.0
H393 H 0.84104 0.2312 0.8802 0.0
H394 H 0.96584 0.20076 0.91467 0.0
H395 H 0.9421 0.14051 0.93874 0.0
H396 H 0.67247 0.96856 0.97663 0.0
H397 H 0.61956 0.93422 1.01117 0.0
H398 H 0.57758 0.88381 0.90387 0.0
H399 H 0.63066 0.91717 0.87007 0.0
Tb400 Tb 0.72657 1.00501 0.41623 0.0
Tb401 Tb 0.79285 0.0615 0.40052 0.0
C402 C 0.66601 0.96137 0.40788 0.0
C403 C 0.65645 0.92086 0.39844 0.0
C404 C 0.67978 0.89849 0.37202 0.0
C405 C 0.66737 0.86158 0.36084 0.0
C406 C 0.6313 0.84627 0.37572 0.0
C407 C 0.60868 0.86858 0.40273 0.0
C408 C 0.62105 0.90532 0.41385 0.0
C409 C 0.79135 0.99775 0.46119 0.0
C410 C 0.79266 0.9889 0.34808 0.0
C411 C 0.85329 0.10539 0.40353 0.0
C412 C 0.88252 0.12454 0.43046 0.0
C413 C 0.91744 0.10471 0.445 0.0
C414 C 0.94855 0.12425 0.46488 0.0
C415 C 0.94553 0.16408 0.47077 0.0
C416 C 0.90987 0.18364 0.45756 0.0
C417 C 0.87881 0.16414 0.43758 0.0
C418 C 0.72203 0.06803 0.36009 0.0
C419 C 0.73173 0.08332 0.46378 0.0
O420 O 0.68148 0.98097 0.38035 0.0
O421 O 0.68336 0.96926 0.44115 0.0
O422 O 0.79231 1.00595 0.42609 0.0
O423 O 0.7542 0.98908 0.47023 0.0
O424 O 0.75856 0.97874 0.3656 0.0
O425 O 0.81272 1.01966 0.35846 0.0
O426 O 0.85671 0.06818 0.39958 0.0
O427 O 0.81473 0.11763 0.40282 0.0
O428 O 0.72769 0.05923 0.39394 0.0
O429 O 0.75757 0.07848 0.34786 0.0
O430 O 0.77147 0.07855 0.45753 0.0
O431 O 0.70572 0.05991 0.44528 0.0
H432 H 0.70725 0.90972 0.35958 0.0
H433 H 0.68608 0.84504 0.34063 0.0
H434 H 0.58065 0.85797 0.41467 0.0
H435 H 0.6023 0.92201 0.43394 0.0
H436 H 0.92169 0.07428 0.43966 0.0
H437 H 0.9759 0.10837 0.47398 0.0
H438 H 0.90649 0.2143 0.46179 0.0
H439 H 0.85261 0.18034 0.42642 0.0
Tb440 Tb 0.30628 0.51476 0.67223 0.0
Tb441 Tb 0.24381 0.57536 0.65667 0.0
C442 C 0.3468 0.4535 0.6827 0.0
C443 C 0.38178 0.43425 0.66307 0.0
C444 C 0.38782 0.39475 0.66627 0.0
C445 C 0.42028 0.37578 0.64715 0.0
C446 C 0.44739 0.39602 0.6245 0.0
C447 C 0.44119 0.43566 0.62119 0.0
C448 C 0.40851 0.45464 0.64023 0.0
C449 C 0.32156 0.5817 0.70584 0.0
C450 C 0.32169 0.56527 0.60216 0.0
C451 C 0.20797 0.6383 0.64448 0.0
C452 C 0.18832 0.67116 0.66487 0.0
C453 C 0.21066 0.69477 0.69045 0.0
C454 C 0.19272 0.72877 0.70512 0.0
C455 C 0.15226 0.73952 0.69448 0.0
C456 C 0.12956 0.71504 0.67021 0.0
C457 C 0.14748 0.68131 0.65545 0.0
C458 C 0.22933 0.50763 0.62392 0.0
C459 C 0.22372 0.5261 0.72232 0.0
O460 O 0.3124 0.45544 0.66299 0.0
O461 O 0.35451 0.48571 0.70074 0.0
O462 O 0.28698 0.56637 0.70249 0.0
O463 O 0.34908 0.55883 0.69051 0.0
O464 O 0.33127 0.53201 0.61749 0.0
O465 O 0.29185 0.58764 0.61608 0.0
O466 O 0.24798 0.63388 0.64855 0.0
O467 O 0.18876 0.60586 0.64433 0.0
O468 O 0.26316 0.52375 0.62761 0.0
O469 O 0.20082 0.53099 0.63677 0.0
O470 O 0.22326 0.56212 0.71278 0.0
O471 O 0.25118 0.50146 0.70678 0.0
H472 H 0.36734 0.37854 0.68352 0.0
H473 H 0.42443 0.34523 0.6503 0.0
H474 H 0.46122 0.45184 0.60347 0.0
H475 H 0.404 0.48514 0.63702 0.0
H476 H 0.24235 0.68767 0.69818 0.0
H477 H 0.21091 0.74724 0.72362 0.0
H478 H 0.09805 0.7224 0.66204 0.0
H479 H 0.12975 0.66368 0.6357 0.0
C480 C 0.18698 0.40782 0.62725 0.0
C481 C 0.21419 0.3858 0.60404 0.0
C482 C 0.1914 0.44734 0.63246 0.0
C483 C 0.22465 0.46608 0.61661 0.0
H484 H 0.16044 0.39503 0.63948 0.0
H485 H 0.16827 0.4634 0.64869 0.0
S486 S 0.30596 0.42124 0.55517 0.0
N487 N 0.27567 0.38568 0.56507 0.0
N488 N 0.28612 0.45948 0.57757 0.0
C489 C 0.25319 0.4442 0.59467 0.0
C490 C 0.24761 0.40418 0.58796 0.0
C491 C 0.8654 0.98091 0.82051 0.0
C492 C 0.85978 1.00067 0.85544 0.0
C493 C 0.90508 0.97089 0.80752 0.0
C494 C 0.94103 0.98275 0.82712 0.0
H495 H 0.83896 0.97115 0.80403 0.0
H496 H 0.90715 0.95219 0.78286 0.0
S497 S 0.94393 0.03065 0.92262 0.0
N498 N 0.89439 1.02632 0.91264 0.0
N499 N 0.9684 1.01304 0.88471 0.0
C500 C 0.93602 1.00287 0.8619 0.0
C501 C 0.89561 1.01061 0.87679 0.0
C502 C 0.31956 0.65854 0.05014 0.0
C503 C 0.31726 0.6919 0.07399 0.0
C504 C 0.31073 0.62231 0.06403 0.0
C505 C 0.29915 0.61822 0.10216 0.0
H506 H 0.3296 0.66008 1.02077 0.0
H507 H 0.31296 0.5975 0.04491 0.0
S508 S 0.28663 0.69563 0.17605 0.0
N509 N 0.3005 0.71781 0.13731 0.0
N510 N 0.28515 0.64998 0.16343 0.0
C511 C 0.29598 0.65115 0.12602 0.0
C512 C 0.30461 0.6879 0.11194 0.0
C513 C 0.6051 0.07877 0.35482 0.0
C514 C 0.5981 0.10712 0.32774 0.0
C515 C 0.64517 0.06538 0.36373 0.0
C516 C 0.68022 0.07912 0.34544 0.0
H517 H 0.5794 0.06749 0.37009 0.0
H518 H 0.64861 0.04519 0.38644 0.0
S519 S 0.6802 0.15826 0.27762 0.0
N520 N 0.63109 0.15267 0.28733 0.0
N521 N 0.70561 0.12488 0.30138 0.0
C522 C 0.67392 0.10751 0.31842 0.0
C523 C 0.63311 0.12217 0.31027 0.0
C524 C 0.71916 0.17698 0.52172 0.0
C525 C 0.7083 0.2037 0.49351 0.0
C526 C 0.72433 0.13755 0.51262 0.0
C527 C 0.71843 0.12319 0.47496 0.0
H528 H 0.72464 0.18673 0.55095 0.0
H529 H 0.7339 0.11833 0.53503 0.0
S530 S 0.69851 0.18189 0.38931 0.0
N531 N 0.6981 0.21322 0.42541 0.0
N532 N 0.70658 0.13987 0.40868 0.0
C533 C 0.70936 0.1499 0.44638 0.0
C534 C 0.70483 0.1899 0.45549 0.0
C535 C 0.1312 0.46711 0.74201 0.0
C536 C 0.10708 0.49109 0.76624 0.0
C537 C 0.1708 0.47713 0.7311 0.0
C538 C 0.18695 0.51256 0.74211 0.0
H539 H 0.12006 0.43977 0.73223 0.0
H540 H 0.18831 0.45739 0.7129 0.0
S541 S 0.13709 0.58494 0.80726 0.0
N542 N 0.10347 0.55034 0.80368 0.0
N543 N 0.1764 0.57122 0.78004 0.0
C544 C 0.16328 0.53681 0.76665 0.0
C545 C 0.12368 0.52566 0.77933 0.0
C546 C 0.80031 0.92864 1.01096 0.0
C547 C 0.81656 0.94852 0.98028 0.0
C548 C 0.80756 0.88897 1.01451 0.0
C549 C 0.83008 0.86739 0.9868 0.0
H550 H 0.78127 0.94375 0.03198 0.0
H551 H 0.79494 0.87494 0.03888 0.0
S552 S 0.875 0.90491 0.89868 0.0
N553 N 0.85475 0.94289 0.92097 0.0
N554 N 0.86603 0.86864 0.92633 0.0
C555 C 0.84542 0.88673 0.95552 0.0
C556 C 0.83936 0.92717 0.95267 0.0
C557 C 0.42307 0.60421 0.21098 0.0
C558 C 0.44159 0.59528 0.24639 0.0
C559 C 0.381 0.59801 0.20367 0.0
C560 C 0.35528 0.58314 0.23159 0.0
H561 H 0.44115 0.61636 0.18865 0.0
H562 H 0.36847 0.60508 0.17577 0.0
S563 S 0.38875 0.55217 0.32792 0.0
N564 N 0.43119 0.56822 0.30889 0.0
N565 N 0.35175 0.55807 0.29548 0.0
C566 C 0.37321 0.57397 0.26708 0.0
C567 C 0.41642 0.57957 0.27434 0.0
C568 C 0.58922 0.20354 0.38508 0.0
C569 C 0.56406 0.22919 0.3642 0.0
C570 C 0.59884 0.21055 0.42401 0.0
C571 C 0.5851 0.24425 0.4431 0.0
H572 H 0.60009 0.177 0.37182 0.0
H573 H 0.6178 0.18978 0.43901 0.0
S574 S 0.51671 0.31979 0.4017 0.0
N575 N 0.5236 0.28836 0.36613 0.0
N576 N 0.54368 0.30299 0.43827 0.0
C577 C 0.55988 0.27013 0.42243 0.0
C578 C 0.54908 0.26234 0.38327 0.0
C579 C 0.10954 0.33187 0.66713 0.0
C580 C 0.09163 0.35331 0.63728 0.0
C581 C 0.10172 0.3406 0.70609 0.0
C582 C 0.07588 0.3716 0.71735 0.0
H583 H 0.13182 0.30955 0.66083 0.0
H584 H 0.11674 0.32324 0.72767 0.0
S585 S 0.02835 0.44196 0.65038 0.0
N586 N 0.0508 0.40964 0.6219 0.0
N587 N 0.03768 0.42747 0.69426 0.0
C588 C 0.0596 0.39462 0.68767 0.0
C589 C 0.06724 0.38528 0.64801 0.0
C590 C 0.9639 0.81559 0.86814 0.0
C591 C 0.97537 0.85314 0.86202 0.0
C592 C 0.95497 0.80361 0.90519 0.0
C593 C 0.95716 0.82875 0.93758 0.0
H594 H 0.96226 0.79528 0.84428 0.0
H595 H 0.94549 0.77444 0.9082 0.0
S596 S 0.98754 0.92988 0.93633 0.0
N597 N 0.99 0.91516 0.89108 0.0
N598 N 0.97269 0.89284 0.96046 0.0
C599 C 0.96915 0.86628 0.93165 0.0
C600 C 0.97844 0.87838 0.89397 0.0
C601 C 0.49937 0.69615 0.16478 0.0
C602 C 0.47678 0.70797 0.19756 0.0
C603 C 0.48441 0.70281 0.12759 0.0
C604 C 0.44675 0.7224 0.1215 0.0
H605 H 0.5286 0.68073 0.16773 0.0
H606 H 0.50276 0.6929 0.1034 0.0
S607 S 0.37568 0.75911 0.19788 0.0
N608 N 0.41467 0.73937 0.22159 0.0
N609 N 0.3869 0.75316 0.15209 0.0
C610 C 0.42394 0.73453 0.15412 0.0
C611 C 0.43884 0.72694 0.19204 0.0
C612 C 0.22569 0.41495 0.30794 0.0
C613 C 0.21363 0.43535 0.3416 0.0
C614 C 0.23978 0.43392 0.27563 0.0
C615 C 0.24181 0.47396 0.27573 0.0
H616 H 0.22268 0.38424 0.30596 0.0
H617 H 0.24727 0.41733 0.24992 0.0
S618 S 0.22085 0.54013 0.35826 0.0
N619 N 0.21042 0.49755 0.37425 0.0
N620 N 0.2352 0.53297 0.31339 0.0
C621 C 0.23201 0.49442 0.3097 0.0
C622 C 0.21835 0.47522 0.34263 0.0
C623 C 0.87422 1.00032 0.53708 0.0
C624 C 0.8755 0.96215 0.54913 0.0
C625 C 0.85027 1.01138 0.5052 0.0
C626 C 0.82683 0.98463 0.48448 0.0
H627 H 0.88981 1.02218 0.55382 0.0
H628 H 0.84751 0.04143 0.49867 0.0
S629 S 0.82266 0.88088 0.50143 0.0
N630 N 0.85382 0.89725 0.53545 0.0
N631 N 0.80898 0.91817 0.47577 0.0
C632 C 0.83033 0.94608 0.49434 0.0
C633 C 0.85474 0.93476 0.52657 0.0
C634 C 0.3027 0.61919 0.76555 0.0
C635 C 0.33191 0.60931 0.73718 0.0
C636 C 0.31387 0.64023 0.79871 0.0
C637 C 0.35445 0.65266 0.80442 0.0
H638 H 0.2714 0.60929 0.76297 0.0
H639 H 0.29077 0.64623 0.82036 0.0
S640 S 0.44166 0.63657 0.7375 0.0
N641 N 0.40245 0.61545 0.71599 0.0
N642 N 0.42344 0.65485 0.77814 0.0
C643 C 0.3834 0.64444 0.77545 0.0
C644 C 0.37211 0.62284 0.74187 0.0
C645 C 0.66464 0.07872 0.0536 0.0
C646 C 0.65145 0.11735 0.05304 0.0
C647 C 0.69006 0.06277 1.02476 0.0
C648 C 0.70232 0.08458 0.99393 0.0
H649 H 0.65784 0.06148 0.07793 0.0
H650 H 0.70236 0.03393 1.02791 0.0
S651 S 0.67222 0.18537 0.97644 0.0
N652 N 0.64956 0.17588 1.01713 0.0
N653 N 0.69697 0.14558 0.96273 0.0
C654 C 0.68692 0.12225 0.99146 0.0
C655 C 0.66154 0.13872 1.02108 0.0
C656 C 0.68033 0.11425 0.77377 0.0
C657 C 0.70334 0.14203 0.75592 0.0
C658 C 0.69407 0.09734 0.80752 0.0
C659 C 0.73179 0.10702 0.8253 0.0
H660 H 0.6516 0.10474 0.76108 0.0
H661 H 0.67486 0.07583 0.81935 0.0
S662 S 0.80307 0.17985 0.79141 0.0
N663 N 0.76507 0.18002 0.75942 0.0
N664 N 0.79146 0.14756 0.82294 0.0
C665 C 0.75495 0.13542 0.80831 0.0
C666 C 0.74074 0.15288 0.77358 0.0
C667 C 0.19161 0.51073 0.07776 0.0
C668 C 0.19954 0.4841 0.10665 0.0
C669 C 0.17076 0.50006 0.04351 0.0
C670 C 0.15764 0.46236 0.03703 0.0
H671 H 0.20479 0.53878 0.08001 0.0
H672 H 0.1678 0.52055 1.02088 0.0
S673 S 0.16539 0.38404 0.10639 0.0
N674 N 0.18856 0.42006 0.12828 0.0
N675 N 0.14912 0.4002 0.0647 0.0
C676 C 0.16222 0.43673 0.06721 0.0
C677 C 0.18326 0.44757 0.1018 0.0
C678 C 0.78283 0.94921 0.28757 0.0
C679 C 0.80934 0.96622 0.31487 0.0
C680 C 0.79818 0.9337 0.25272 0.0
C681 C 0.84061 0.93406 0.24432 0.0
H682 H 0.74986 0.94954 0.29229 0.0
H683 H 0.77662 0.92195 0.23191 0.0
S684 S 0.92318 0.97256 0.30757 0.0
N685 N 0.8804 0.98026 0.33205 0.0
N686 N 0.90888 0.95137 0.26697 0.0
C687 C 0.86751 0.94942 0.27217 0.0
C688 C 0.85196 0.9654 0.30732 0.0
C689 C 0.38027 0.57505 0.55709 0.0
C690 C 0.33782 0.57558 0.56463 0.0
C691 C 0.39497 0.58983 0.52284 0.0
C692 C 0.36755 0.60535 0.4953 0.0
H693 H 0.40217 0.56464 0.5783 0.0
H694 H 0.42796 0.59022 0.5184 0.0
S695 S 0.25332 0.60705 0.49905 0.0
N696 N 0.26849 0.58867 0.54007 0.0
N697 N 0.29603 0.61586 0.476 0.0
C698 C 0.32504 0.60385 0.50176 0.0
C699 C 0.3102 0.58906 0.53636 0.0
C700 C 0.23621 0.20781 0.49195 0.0
C701 C 0.2286 0.24638 0.50218 0.0
C702 C 0.2669 0.19686 0.46572 0.0
C703 C 0.29182 0.22399 0.44897 0.0
H704 H 0.21908 0.18568 0.50529 0.0
H705 H 0.27197 0.16668 0.45933 0.0
S706 S 0.28502 0.32882 0.46677 0.0
N707 N 0.24822 0.31197 0.49344 0.0
N708 N 0.30653 0.29139 0.44431 0.0
C709 C 0.28371 0.26288 0.45796 0.0
C710 C 0.25198 0.27409 0.48459 0.0
C711 C 0.05057 0.07066 0.68286 0.0
C712 C 0.09265 0.07965 0.68433 0.0
C713 C 0.03689 0.03595 0.69667 0.0
C714 C 0.06483 1.00953 0.71307 0.0
H715 H 0.02796 0.09121 0.67218 0.0
H716 H 1.00408 0.03086 0.69662 0.0
S717 S 0.17855 1.01815 0.7204 0.0
N718 N 0.16231 0.05825 0.70069 0.0
N719 N 0.1368 0.99323 0.72692 0.0
C720 C 0.10719 1.01737 0.71276 0.0
C721 C 0.12108 0.0524 0.6983 0.0
C722 C 0.25511 0.87086 0.96001 0.0
C723 C 0.24401 0.84443 0.93114 0.0
C724 C 0.2877 0.86314 0.98524 0.0
C725 C 0.31063 0.82848 0.98307 0.0
H726 H 0.23805 0.89774 0.96342 0.0
H727 H 0.29417 0.8844 1.00746 0.0
S728 S 0.2956 0.75048 0.91085 0.0
N729 N 0.25977 0.78302 0.89993 0.0
N730 N 0.32117 0.768 0.94833 0.0
C731 C 0.30104 0.80218 0.95337 0.0
C732 C 0.26767 0.8103 0.92716 0.0
C733 C 0.47901 0.04993 0.18703 0.0
C734 C 0.46065 0.06613 0.22024 0.0
C735 C 0.46555 1.01525 0.17085 0.0
C736 C 0.43312 0.99549 0.18712 0.0
H737 H 0.50456 0.06365 0.1738 0.0
H738 H 0.48104 1.00351 0.14568 0.0
S739 S 0.37423 1.02529 0.27373 0.0
N740 N 0.40737 0.05959 0.26827 0.0
N741 N 0.38296 0.99443 0.23809 0.0
C742 C 0.41386 1.01167 0.2197 0.0
C743 C 0.4274 0.04694 0.23619 0.0
C744 C 0.75817 0.37962 0.655 0.0
C745 C 0.78939 0.35899 0.67438 0.0
C746 C 0.72727 0.36093 0.63421 0.0
C747 C 0.72601 0.32084 0.63216 0.0
H748 H 0.75886 0.4105 0.65425 0.0
H749 H 0.70541 0.37803 0.61779 0.0
S750 S 0.79705 0.25342 0.68167 0.0
N751 N 0.81478 0.29607 0.69323 0.0
N752 N 0.75588 0.26099 0.65424 0.0
C753 C 0.75473 0.29977 0.65395 0.0
C754 C 0.78665 0.31886 0.67509 0.0
C755 C 0.99572 0.51508 0.88105 0.0
C756 C 0.96831 0.48491 0.87474 0.0
C757 C 0.98281 0.54931 0.89977 0.0
C758 C 0.94208 0.55451 0.91276 0.0
H759 H 0.02663 0.51316 0.86963 0.0
H760 H 1.00417 0.57252 0.90231 0.0
S761 S 0.8609 0.48181 0.90967 0.0
N762 N 0.90044 0.46073 0.8876 0.0
N763 N 0.87634 0.5248 0.92277 0.0
C764 C 0.91551 0.5235 0.90926 0.0
C765 C 0.92862 0.48875 0.89035 0.0
C766 C 0.78273 0.72069 0.09846 0.0
C767 C 0.80092 0.75567 0.10862 0.0
C768 C 0.75189 0.7056 0.12055 0.0
C769 C 0.73795 0.72462 0.15395 0.0
H770 H 0.79217 0.70451 0.07305 0.0
H771 H 0.73928 0.67839 0.11166 0.0
S772 S 0.77449 0.81716 0.19353 0.0
N773 N 0.80218 0.8092 0.15457 0.0
N774 N 0.74394 0.78034 0.19641 0.0
C775 C 0.75564 0.75954 0.1648 0.0
C776 C 0.7871 0.77523 0.14203 0.0
C777 C 0.56056 0.52004 0.42056 0.0
C778 C 0.59677 0.49965 0.4096 0.0
C779 C 0.5454 0.55133 0.39946 0.0
C780 C 0.56594 0.56328 0.36667 0.0
H781 H 0.54436 0.51224 0.44602 0.0
H782 H 0.51769 0.56641 0.40914 0.0
S783 S 0.65975 0.51623 0.32404 0.0
N784 N 0.65079 0.49154 0.36247 0.0
N785 N 0.62321 0.54986 0.32308 0.0
C786 C 0.60163 0.54216 0.35501 0.0
C787 C 0.61676 0.5105 0.37638 0.0
C788 C 0.42563 0.286 0.18166 0.0
C789 C 0.4144 0.3135 0.20991 0.0
C790 C 0.44056 0.24961 0.19154 0.0
C791 C 0.44554 0.23943 0.23013 0.0
H792 H 0.42376 0.29297 0.15164 0.0
H793 H 0.45014 0.23 0.16864 0.0
S794 S 0.41694 0.29994 0.31498 0.0
N795 N 0.40628 0.32723 0.27807 0.0
N796 N 0.43461 0.25883 0.29666 0.0
C797 C 0.43226 0.26594 0.25864 0.0
C798 C 0.41668 0.30298 0.24853 0.0
C799 C 0.96914 0.30914 0.88335 0.0
C800 C 0.95947 0.3207 0.8459 0.0
C801 C 0.95044 0.27776 0.89929 0.0
C802 C 0.92132 0.25625 0.8785 0.0
H803 H 0.9916 0.32434 0.90069 0.0
H804 H 0.95925 0.27005 0.92815 0.0
S805 S 0.88449 0.27456 0.77935 0.0
N806 N 0.91784 0.3085 0.78863 0.0
N807 N 0.88332 0.24896 0.81835 0.0
C808 C 0.91057 0.26788 0.84127 0.0
C809 C 0.92949 0.30015 0.82504 0.0
C810 C 1.01285 0.70602 0.13778 0.0
C811 C 0.0423 0.68993 0.11248 0.0
C812 C 0.97918 0.72789 0.12449 0.0
C813 C 0.97347 0.73497 0.08527 0.0
H814 H 1.01624 0.70221 0.16836 0.0
H815 H 0.95804 0.74031 0.14545 0.0
S816 S 0.04004 0.69701 1.00665 0.0
N817 N 0.06228 0.68051 0.04595 0.0
N818 N 0.99888 0.72211 1.02086 0.0
C819 C 1.00159 0.71767 0.05932 0.0
C820 C 0.03601 0.69503 0.07295 0.0
C821 C 0.60264 0.78249 0.39142 0.0
C822 C 0.61663 0.80736 0.36362 0.0
C823 C 0.58473 0.74754 0.38116 0.0
C824 C 0.57964 0.73574 0.34252 0.0
H825 H 0.60489 0.79038 0.42157 0.0
H826 H 0.57359 0.73018 0.40385 0.0
S827 S 0.61407 0.78848 0.25836 0.0
N828 N 0.62626 0.81639 0.29545 0.0
N829 N 0.59294 0.75057 0.27631 0.0
C830 C 0.59524 0.75935 0.31438 0.0
C831 C 0.61364 0.79509 0.32485 0.0
C832 C 0.5052 0.3188 0.56729 0.0
C833 C 0.54681 0.3281 0.57295 0.0
C834 C 0.47327 0.3418 0.58275 0.0
C835 C 0.48163 0.37517 0.60437 0.0
H836 H 0.49721 0.2927 0.55192 0.0
H837 H 0.44176 0.33285 0.57859 0.0
S838 S 0.58518 0.41373 0.6254 0.0
N839 N 0.59464 0.37415 0.59992 0.0
N840 N 0.53446 0.41758 0.62896 0.0
C841 C 0.52298 0.38598 0.60857 0.0
C842 C 0.55563 0.3624 0.59284 0.0
C843 C 0.11309 0.79945 0.67977 0.0
C844 C 0.13344 0.77664 0.70706 0.0
C845 C 0.0883 0.83086 0.69101 0.0
C846 C 0.08358 0.84091 0.72986 0.0
H847 H 0.11457 0.79174 0.64955 0.0
H848 H 0.07067 0.84597 0.66933 0.0
S849 S 0.13364 0.79342 0.81237 0.0
N850 N 0.1499 0.76824 0.77455 0.0
N851 N 0.10361 0.8281 0.79554 0.0
C852 C 0.10624 0.82042 0.75731 0.0
C853 C 0.13129 0.78807 0.74592 0.0
C854 C 0.52463 0.82576 0.98538 0.0
C855 C 0.49535 0.84315 1.01026 0.0
C856 C 0.55704 0.8462 0.97066 0.0
C857 C 0.56188 0.88509 0.97997 0.0
H858 H 0.52239 0.79602 0.97651 0.0
H859 H 0.57827 0.83142 0.95128 0.0
S860 S 0.49555 0.94415 0.04553 0.0
N861 N 0.47481 0.90158 0.04515 0.0
N862 N 0.53568 0.94017 1.01685 0.0
C863 C 0.53387 0.90276 1.00582 0.0
C864 C 0.50063 0.88182 1.02101 0.0
C865 C 0.9944 0.21827 0.46921 0.0
C866 C 0.9808 0.18569 0.48758 0.0
C867 C 0.02785 0.239 0.48357 0.0
C868 C 0.04942 0.22817 0.51701 0.0
H869 H 0.97935 0.22764 0.4431 0.0
H870 H 0.03686 0.26378 0.46807 0.0
S871 S 0.02524 0.1456 0.57689 0.0
N872 N 0.99084 0.14398 0.54164 0.0
N873 N 0.05394 0.18267 0.5686 0.0
C874 C 0.03618 0.19552 0.53575 0.0
C875 C 1.00192 0.17439 0.52106 0.0
loop_
_geom_bond_atom_site_label_1
_geom_bond_atom_site_label_2
_geom_bond_distance
_geom_bond_site_symmetry_2
_ccdc_geom_bond_type
Tb0 C2 2.809 . S
Tb0 O20 2.484 . S
Tb0 O21 2.440 . S
Tb0 O22 2.658 . S
Tb0 O23 2.409 . S
Tb0 O24 2.378 . S
Tb0 O28 2.325 . S
Tb0 O31 2.341 . S
Tb1 C11 2.809 . S
Tb1 O22 2.325 . S
Tb1 O25 2.341 . S
Tb1 O26 2.484 . S
Tb1 O27 2.440 . S
Tb1 O28 2.658 . S
Tb1 O29 2.409 . S
Tb1 O30 2.378 . S
C2 Tb0 2.809 . S
C2 C3 1.514 . S
C2 O20 1.248 . S
C2 O21 1.266 . S
C3 C2 1.514 . S
C3 C4 1.359 . S
C3 C8 1.348 . S
C4 C3 1.359 . S
C4 C5 1.380 . S
C4 H32 0.929 . S
C5 C4 1.380 . S
C5 C6 1.347 . S
C5 H33 0.931 . S
C6 C5 1.347 . S
C6 C7 1.369 . S
C7 C6 1.369 . S
C7 C8 1.408 . S
C7 H34 0.930 . S
C8 C3 1.348 . S
C8 C7 1.408 . S
C8 H35 0.930 . S
C9 O22 1.281 . S
C9 O23 1.254 . S
C10 O24 1.236 . S
C10 O25 1.266 . S
C11 Tb1 2.809 . S
C11 C12 1.514 . S
C11 O26 1.248 . S
C11 O27 1.266 . S
C12 C11 1.514 . S
C12 C13 1.359 . S
C12 C17 1.348 . S
C13 C12 1.359 . S
C13 C14 1.380 . S
C13 H36 0.929 . S
C14 C13 1.380 . S
C14 C15 1.347 . S
C14 H37 0.931 . S
C15 C14 1.347 . S
C15 C16 1.369 . S
C16 C15 1.369 . S
C16 C17 1.408 . S
C16 H38 0.930 . S
C17 C12 1.348 . S
C17 C16 1.408 . S
C17 H39 0.930 . S
C18 O28 1.281 . S
C18 O29 1.254 . S
C19 O30 1.236 . S
C19 O31 1.266 . S
O20 Tb0 2.484 . S
O20 C2 1.248 . S
O21 Tb0 2.440 . S
O21 C2 1.266 . S
O22 Tb0 2.658 . S
O22 Tb1 2.325 . S
O22 C9 1.281 . S
O23 Tb0 2.409 . S
O23 C9 1.254 . S
O24 Tb0 2.378 . S
O24 C10 1.236 . S
O25 Tb1 2.341 . S
O25 C10 1.266 . S
O26 Tb1 2.484 . S
O26 C11 1.248 . S
O27 Tb1 2.440 . S
O27 C11 1.266 . S
O28 Tb0 2.325 . S
O28 Tb1 2.658 . S
O28 C18 1.281 . S
O29 Tb1 2.409 . S
O29 C18 1.254 . S
O30 Tb1 2.378 . S
O30 C19 1.236 . S
O31 Tb0 2.341 . S
O31 C19 1.266 . S
H32 C4 0.929 . S
H33 C5 0.931 . S
H34 C7 0.930 . S
H35 C8 0.930 . S
H36 C13 0.929 . S
H37 C14 0.931 . S
H38 C16 0.930 . S
H39 C17 0.930 . S
Tb40 C42 2.809 . S
Tb40 O60 2.484 . S
Tb40 O61 2.440 . S
Tb40 O62 2.658 1_655 S
Tb40 O63 2.409 1_655 S
Tb40 O64 2.378 1_655 S
Tb40 O68 2.325 . S
Tb40 O71 2.341 . S
Tb41 C51 2.809 . S
Tb41 O62 2.325 . S
Tb41 O65 2.341 . S
Tb41 O66 2.484 . S
Tb41 O67 2.440 . S
Tb41 O68 2.658 1_455 S
Tb41 O69 2.409 1_455 S
Tb41 O70 2.378 1_455 S
C42 Tb40 2.809 . S
C42 C43 1.514 . S
C42 O60 1.248 . S
C42 O61 1.266 . S
C43 C42 1.514 . S
C43 C44 1.359 . S
C43 C48 1.348 . S
C44 C43 1.359 . S
C44 C45 1.380 . S
C44 H72 0.929 . S
C45 C44 1.380 . S
C45 C46 1.347 . S
C45 H73 0.931 . S
C46 C45 1.347 . S
C46 C47 1.369 . S
C47 C46 1.369 . S
C47 C48 1.408 . S
C47 H74 0.930 . S
C48 C43 1.348 . S
C48 C47 1.408 . S
C48 H75 0.930 . S
C49 O62 1.281 . S
C49 O63 1.254 . S
C50 O64 1.236 . S
C50 O65 1.266 . S
C51 Tb41 2.809 . S
C51 C52 1.514 . S
C51 O66 1.248 . S
C51 O67 1.266 . S
C52 C51 1.514 . S
C52 C53 1.359 . S
C52 C57 1.348 . S
C53 C52 1.359 . S
C53 C54 1.380 . S
C53 H76 0.929 . S
C54 C53 1.380 . S
C54 C55 1.347 . S
C54 H77 0.931 . S
C55 C54 1.347 . S
C55 C56 1.369 . S
C56 C55 1.369 . S
C56 C57 1.408 . S
C56 H78 0.930 . S
C57 C52 1.348 . S
C57 C56 1.408 . S
C57 H79 0.930 . S
C58 O68 1.281 . S
C58 O69 1.254 . S
C59 O70 1.236 . S
C59 O71 1.266 . S
O60 Tb40 2.484 . S
O60 C42 1.248 . S
O61 Tb40 2.440 . S
O61 C42 1.266 . S
O62 Tb40 2.658 1_455 S
O62 Tb41 2.325 . S
O62 C49 1.281 . S
O63 Tb40 2.409 1_455 S
O63 C49 1.254 . S
O64 Tb40 2.378 1_455 S
O64 C50 1.236 . S
O65 Tb41 2.341 . S
O65 C50 1.266 . S
O66 Tb41 2.484 . S
O66 C51 1.248 . S
O67 Tb41 2.440 . S
O67 C51 1.266 . S
O68 Tb40 2.325 . S
O68 Tb41 2.658 1_655 S
O68 C58 1.281 . S
O69 Tb41 2.409 1_655 S
O69 C58 1.254 . S
O70 Tb41 2.378 1_655 S
O70 C59 1.236 . S
O71 Tb40 2.341 . S
O71 C59 1.266 . S
H72 C44 0.929 . S
H73 C45 0.931 . S
H74 C47 0.930 . S
H75 C48 0.930 . S
H76 C53 0.929 . S
H77 C54 0.931 . S
H78 C56 0.930 . S
H79 C57 0.930 . S
Tb80 C82 2.809 . S
Tb80 O100 2.484 . S
Tb80 O101 2.440 . S
Tb80 O102 2.658 1_554 S
Tb80 O103 2.409 1_554 S
Tb80 O104 2.359 1_554 S
Tb80 O108 2.325 . S
Tb80 O111 2.341 . S
Tb81 C91 2.809 . S
Tb81 O102 2.325 . S
Tb81 O105 2.341 . S
Tb81 O106 2.484 . S
Tb81 O107 2.440 . S
Tb81 O108 2.658 1_556 S
Tb81 O109 2.409 1_556 S
Tb81 O110 2.364 1_556 S
C82 Tb80 2.809 . S
C82 C83 1.514 . S
C82 O100 1.248 . S
C82 O101 1.266 . S
C83 C82 1.514 . S
C83 C84 1.359 . S
C83 C88 1.348 . S
C84 C83 1.359 . S
C84 C85 1.380 . S
C84 H112 0.929 . S
C85 C84 1.380 . S
C85 C86 1.347 . S
C85 H113 0.931 . S
C86 C85 1.347 . S
C86 C87 1.369 . S
C87 C86 1.369 . S
C87 C88 1.408 . S
C87 H114 0.930 . S
C88 C83 1.348 . S
C88 C87 1.408 . S
C88 H115 0.930 . S
C89 O102 1.281 . S
C89 O103 1.254 . S
C90 O104 1.253 . S
C90 O105 1.266 . S
C91 Tb81 2.809 . S
C91 C92 1.514 . S
C91 O106 1.248 . S
C91 O107 1.266 . S
C92 C91 1.514 . S
C92 C93 1.359 . S
C92 C97 1.348 . S
C93 C92 1.359 . S
C93 C94 1.380 . S
C93 H116 0.929 . S
C94 C93 1.380 . S
C94 C95 1.347 . S
C94 H117 0.931 . S
C95 C94 1.347 . S
C95 C96 1.369 . S
C96 C95 1.369 . S
C96 C97 1.408 . S
C96 H118 0.930 . S
C97 C92 1.348 . S
C97 C96 1.408 . S
C97 H119 0.930 . S
C98 O108 1.281 . S
C98 O109 1.254 . S
C99 O110 1.249 . S
C99 O111 1.266 . S
O100 Tb80 2.484 . S
O100 C82 1.248 . S
O101 Tb80 2.440 . S
O101 C82 1.266 . S
O102 Tb80 2.658 1_556 S
O102 Tb81 2.325 . S
O102 C89 1.281 . S
O103 Tb80 2.409 1_556 S
O103 C89 1.254 . S
O104 Tb80 2.359 1_556 S
O104 C90 1.253 . S
O105 Tb81 2.341 . S
O105 C90 1.266 . S
O106 Tb81 2.484 . S
O106 C91 1.248 . S
O107 Tb81 2.440 . S
O107 C91 1.266 . S
O108 Tb80 2.325 . S
O108 Tb81 2.658 1_554 S
O108 C98 1.281 . S
O109 Tb81 2.409 1_554 S
O109 C98 1.254 . S
O110 Tb81 2.364 1_554 S
O110 C99 1.249 . S
O111 Tb80 2.341 . S
O111 C99 1.266 . S
H112 C84 0.929 . S
H113 C85 0.931 . S
H114 C87 0.930 . S
H115 C88 0.930 . S
H116 C93 0.929 . S
H117 C94 0.931 . S
H118 C96 0.930 . S
H119 C97 0.930 . S
Tb120 C122 2.809 . S
Tb120 O140 2.484 . S
Tb120 O141 2.440 . S
Tb120 O142 2.658 . S
Tb120 O143 2.409 . S
Tb120 O144 2.378 . S
Tb120 O148 2.325 . S
Tb120 O151 2.341 . S
Tb121 C131 2.809 . S
Tb121 O142 2.325 . S
Tb121 O145 2.341 . S
Tb121 O146 2.484 . S
Tb121 O147 2.440 . S
Tb121 O148 2.658 . S
Tb121 O149 2.409 . S
Tb121 O150 2.378 . S
C122 Tb120 2.809 . S
C122 C123 1.514 . S
C122 O140 1.248 . S
C122 O141 1.266 . S
C123 C122 1.514 . S
C123 C124 1.359 . S
C123 C128 1.348 . S
C124 C123 1.359 . S
C124 C125 1.380 . S
C124 H152 0.929 . S
C125 C124 1.380 . S
C125 C126 1.347 . S
C125 H153 0.931 . S
C126 C125 1.347 . S
C126 C127 1.369 . S
C127 C126 1.369 . S
C127 C128 1.408 . S
C127 H154 0.930 . S
C128 C123 1.348 . S
C128 C127 1.408 . S
C128 H155 0.930 . S
C129 O142 1.281 . S
C129 O143 1.254 . S
C130 O144 1.236 . S
C130 O145 1.266 . S
C131 Tb121 2.809 . S
C131 C132 1.514 . S
C131 O146 1.248 . S
C131 O147 1.266 . S
C132 C131 1.514 . S
C132 C133 1.359 . S
C132 C137 1.348 . S
C133 C132 1.359 . S
C133 C134 1.380 . S
C133 H156 0.929 . S
C134 C133 1.380 . S
C134 C135 1.347 . S
C134 H157 0.931 . S
C135 C134 1.347 . S
C135 C136 1.369 . S
C136 C135 1.369 . S
C136 C137 1.408 . S
C136 H158 0.930 . S
C137 C132 1.348 . S
C137 C136 1.408 . S
C137 H159 0.930 . S
C138 O148 1.281 . S
C138 O149 1.254 . S
C139 O150 1.236 . S
C139 O151 1.266 . S
O140 Tb120 2.484 . S
O140 C122 1.248 . S
O141 Tb120 2.440 . S
O141 C122 1.266 . S
O142 Tb120 2.658 . S
O142 Tb121 2.325 . S
O142 C129 1.281 . S
O143 Tb120 2.409 . S
O143 C129 1.254 . S
O144 Tb120 2.378 . S
O144 C130 1.236 . S
O145 Tb121 2.341 . S
O145 C130 1.266 . S
O146 Tb121 2.484 . S
O146 C131 1.248 . S
O147 Tb121 2.440 . S
O147 C131 1.266 . S
O148 Tb120 2.325 . S
O148 Tb121 2.658 . S
O148 C138 1.281 . S
O149 Tb121 2.409 . S
O149 C138 1.254 . S
O150 Tb121 2.378 . S
O150 C139 1.236 . S
O151 Tb120 2.341 . S
O151 C139 1.266 . S
H152 C124 0.929 . S
H153 C125 0.931 . S
H154 C127 0.930 . S
H155 C128 0.930 . S
H156 C133 0.929 . S
H157 C134 0.931 . S
H158 C136 0.930 . S
H159 C137 0.930 . S
Tb160 C162 2.809 . S
Tb160 O180 2.484 . S
Tb160 O181 2.440 . S
Tb160 O182 2.658 . S
Tb160 O183 2.409 . S
Tb160 O184 2.378 . S
Tb160 O188 2.325 . S
Tb160 O191 2.341 . S
Tb161 C171 2.809 . S
Tb161 O182 2.325 . S
Tb161 O185 2.341 . S
Tb161 O186 2.484 . S
Tb161 O187 2.440 . S
Tb161 O188 2.658 . S
Tb161 O189 2.409 . S
Tb161 O190 2.378 . S
C162 Tb160 2.809 . S
C162 C163 1.514 . S
C162 O180 1.248 . S
C162 O181 1.266 . S
C163 C162 1.514 . S
C163 C164 1.359 . S
C163 C168 1.348 . S
C164 C163 1.359 . S
C164 C165 1.380 . S
C164 H192 0.929 . S
C165 C164 1.380 . S
C165 C166 1.347 . S
C165 H193 0.931 . S
C166 C165 1.347 . S
C166 C167 1.369 . S
C167 C166 1.369 . S
C167 C168 1.408 . S
C167 H194 0.930 . S
C168 C163 1.348 . S
C168 C167 1.408 . S
C168 H195 0.930 . S
C169 O182 1.281 . S
C169 O183 1.254 . S
C170 O184 1.236 . S
C170 O185 1.266 . S
C171 Tb161 2.809 . S
C171 C172 1.514 . S
C171 O186 1.248 . S
C171 O187 1.266 . S
C172 C171 1.514 . S
C172 C173 1.359 . S
C172 C177 1.348 . S
C173 C172 1.359 . S
C173 C174 1.380 . S
C173 H196 0.929 . S
C174 C173 1.380 . S
C174 C175 1.347 . S
C174 H197 0.931 . S
C175 C174 1.347 . S
C175 C176 1.369 . S
C176 C175 1.369 . S
C176 C177 1.408 . S
C176 H198 0.930 . S
C177 C172 1.348 . S
C177 C176 1.408 . S
C177 H199 0.930 . S
C178 O188 1.281 . S
C178 O189 1.254 . S
C179 O190 1.236 . S
C179 O191 1.266 . S
O180 Tb160 2.484 . S
O180 C162 1.248 . S
O181 Tb160 2.440 . S
O181 C162 1.266 . S
O182 Tb160 2.658 . S
O182 Tb161 2.325 . S
O182 C169 1.281 . S
O183 Tb160 2.409 . S
O183 C169 1.254 . S
O184 Tb160 2.378 . S
O184 C170 1.236 . S
O185 Tb161 2.341 . S
O185 C170 1.266 . S
O186 Tb161 2.484 . S
O186 C171 1.248 . S
O187 Tb161 2.440 . S
O187 C171 1.266 . S
O188 Tb160 2.325 . S
O188 Tb161 2.658 . S
O188 C178 1.281 . S
O189 Tb161 2.409 . S
O189 C178 1.254 . S
O190 Tb161 2.378 . S
O190 C179 1.236 . S
O191 Tb160 2.341 . S
O191 C179 1.266 . S
H192 C164 0.929 . S
H193 C165 0.931 . S
H194 C167 0.930 . S
H195 C168 0.930 . S
H196 C173 0.929 . S
H197 C174 0.931 . S
H198 C176 0.930 . S
H199 C177 0.930 . S
Tb200 C202 2.809 . S
Tb200 O220 2.484 . S
Tb200 O221 2.440 . S
Tb200 O222 2.658 . S
Tb200 O223 2.409 . S
Tb200 O224 2.378 . S
Tb200 O228 2.325 1_655 S
Tb200 O231 2.341 1_655 S
Tb201 C211 2.809 . S
Tb201 O222 2.325 1_455 S
Tb201 O225 2.341 1_455 S
Tb201 O226 2.484 . S
Tb201 O227 2.440 . S
Tb201 O228 2.658 . S
Tb201 O229 2.409 . S
Tb201 O230 2.378 . S
C202 Tb200 2.809 . S
C202 C203 1.514 . S
C202 O220 1.248 . S
C202 O221 1.266 . S
C203 C202 1.514 . S
C203 C204 1.359 . S
C203 C208 1.348 . S
C204 C203 1.359 . S
C204 C205 1.380 . S
C204 H232 0.929 . S
C205 C204 1.380 . S
C205 C206 1.347 . S
C205 H233 0.931 . S
C206 C205 1.347 . S
C206 C207 1.369 . S
C207 C206 1.369 . S
C207 C208 1.408 . S
C207 H234 0.930 . S
C208 C203 1.348 . S
C208 C207 1.408 . S
C208 H235 0.930 . S
C209 O222 1.281 . S
C209 O223 1.254 . S
C210 O224 1.236 . S
C210 O225 1.266 . S
C211 Tb201 2.809 . S
C211 C212 1.514 . S
C211 O226 1.248 . S
C211 O227 1.266 . S
C212 C211 1.514 . S
C212 C213 1.359 . S
C212 C217 1.348 . S
C213 C212 1.359 . S
C213 C214 1.380 . S
C213 H236 0.929 . S
C214 C213 1.380 . S
C214 C215 1.347 . S
C214 H237 0.931 . S
C215 C214 1.347 . S
C215 C216 1.369 . S
C216 C215 1.369 . S
C216 C217 1.408 . S
C216 H238 0.930 . S
C217 C212 1.348 . S
C217 C216 1.408 . S
C217 H239 0.930 . S
C218 O228 1.281 . S
C218 O229 1.254 . S
C219 O230 1.236 . S
C219 O231 1.266 . S
O220 Tb200 2.484 . S
O220 C202 1.248 . S
O221 Tb200 2.440 . S
O221 C202 1.266 . S
O222 Tb200 2.658 . S
O222 Tb201 2.325 1_655 S
O222 C209 1.281 . S
O223 Tb200 2.409 . S
O223 C209 1.254 . S
O224 Tb200 2.378 . S
O224 C210 1.236 . S
O225 Tb201 2.341 1_655 S
O225 C210 1.266 . S
O226 Tb201 2.484 . S
O226 C211 1.248 . S
O227 Tb201 2.440 . S
O227 C211 1.266 . S
O228 Tb200 2.325 1_455 S
O228 Tb201 2.658 . S
O228 C218 1.281 . S
O229 Tb201 2.409 . S
O229 C218 1.254 . S
O230 Tb201 2.378 . S
O230 C219 1.236 . S
O231 Tb200 2.341 1_455 S
O231 C219 1.266 . S
H232 C204 0.929 . S
H233 C205 0.931 . S
H234 C207 0.930 . S
H235 C208 0.930 . S
H236 C213 0.929 . S
H237 C214 0.931 . S
H238 C216 0.930 . S
H239 C217 0.930 . S
Tb240 C242 2.809 . S
Tb240 O260 2.484 . S
Tb240 O261 2.440 . S
Tb240 O262 2.658 . S
Tb240 O263 2.409 . S
Tb240 O264 2.378 . S
Tb240 O268 2.325 1_554 S
Tb240 O271 2.341 1_554 S
Tb241 C251 2.809 . S
Tb241 O262 2.325 1_556 S
Tb241 O265 2.341 1_556 S
Tb241 O266 2.484 . S
Tb241 O267 2.440 . S
Tb241 O268 2.658 . S
Tb241 O269 2.409 . S
Tb241 O270 2.378 . S
C242 Tb240 2.809 . S
C242 C243 1.514 . S
C242 O260 1.248 . S
C242 O261 1.266 . S
C243 C242 1.514 . S
C243 C244 1.359 . S
C243 C248 1.348 . S
C244 C243 1.359 . S
C244 C245 1.380 . S
C244 H272 0.929 . S
C245 C244 1.380 . S
C245 C246 1.347 . S
C245 H273 0.931 . S
C246 C245 1.347 . S
C246 C247 1.369 . S
C247 C246 1.369 . S
C247 C248 1.408 . S
C247 H274 0.930 . S
C248 C243 1.348 . S
C248 C247 1.408 . S
C248 H275 0.930 . S
C249 O262 1.281 . S
C249 O263 1.254 . S
C250 O264 1.236 . S
C250 O265 1.266 . S
C251 Tb241 2.809 . S
C251 C252 1.514 . S
C251 O266 1.248 . S
C251 O267 1.266 . S
C252 C251 1.514 . S
C252 C253 1.359 . S
C252 C257 1.348 . S
C253 C252 1.359 . S
C253 C254 1.380 . S
C253 H276 0.929 . S
C254 C253 1.380 . S
C254 C255 1.347 . S
C254 H277 0.931 . S
C255 C254 1.347 . S
C255 C256 1.369 . S
C256 C255 1.369 . S
C256 C257 1.408 . S
C256 H278 0.930 . S
C257 C252 1.348 . S
C257 C256 1.408 . S
C257 H279 0.930 . S
C258 O268 1.281 . S
C258 O269 1.254 . S
C259 O270 1.236 . S
C259 O271 1.266 . S
O260 Tb240 2.484 . S
O260 C242 1.248 . S
O261 Tb240 2.440 . S
O261 C242 1.266 . S
O262 Tb240 2.658 . S
O262 Tb241 2.325 1_554 S
O262 C249 1.281 . S
O263 Tb240 2.409 . S
O263 C249 1.254 . S
O264 Tb240 2.378 . S
O264 C250 1.236 . S
O265 Tb241 2.341 1_554 S
O265 C250 1.266 . S
O266 Tb241 2.484 . S
O266 C251 1.248 . S
O267 Tb241 2.440 . S
O267 C251 1.266 . S
O268 Tb240 2.325 1_556 S
O268 Tb241 2.658 . S
O268 C258 1.281 . S
O269 Tb241 2.409 . S
O269 C258 1.254 . S
O270 Tb241 2.378 . S
O270 C259 1.236 . S
O271 Tb240 2.341 1_556 S
O271 C259 1.266 . S
H272 C244 0.929 . S
H273 C245 0.931 . S
H274 C247 0.930 . S
H275 C248 0.930 . S
H276 C253 0.929 . S
H277 C254 0.931 . S
H278 C256 0.930 . S
H279 C257 0.930 . S
Tb280 C282 2.809 . S
Tb280 O300 2.484 . S
Tb280 O301 2.440 . S
Tb280 O302 2.658 . S
Tb280 O303 2.409 . S
Tb280 O304 2.378 . S
Tb280 O308 2.325 . S
Tb280 O311 2.341 . S
Tb281 C291 2.809 . S
Tb281 O302 2.325 . S
Tb281 O305 2.341 . S
Tb281 O306 2.484 . S
Tb281 O307 2.440 . S
Tb281 O308 2.658 . S
Tb281 O309 2.409 . S
Tb281 O310 2.378 . S
C282 Tb280 2.809 . S
C282 C283 1.514 . S
C282 O300 1.248 . S
C282 O301 1.266 . S
C283 C282 1.514 . S
C283 C284 1.359 . S
C283 C288 1.348 . S
C284 C283 1.359 . S
C284 C285 1.380 . S
C284 H312 0.929 . S
C285 C284 1.380 . S
C285 C286 1.347 . S
C285 H313 0.931 . S
C286 C285 1.347 . S
C286 C287 1.369 . S
C287 C286 1.369 . S
C287 C288 1.408 . S
C287 H314 0.930 . S
C288 C283 1.348 . S
C288 C287 1.408 . S
C288 H315 0.930 . S
C289 O302 1.281 . S
C289 O303 1.254 . S
C290 O304 1.236 . S
C290 O305 1.266 . S
C291 Tb281 2.809 . S
C291 C292 1.514 . S
C291 O306 1.248 . S
C291 O307 1.266 . S
C292 C291 1.514 . S
C292 C293 1.359 . S
C292 C297 1.348 . S
C293 C292 1.359 . S
C293 C294 1.380 . S
C293 H316 0.929 . S
C294 C293 1.380 . S
C294 C295 1.347 . S
C294 H317 0.931 . S
C295 C294 1.347 . S
C295 C296 1.369 . S
C296 C295 1.369 . S
C296 C297 1.408 . S
C296 H318 0.930 . S
C297 C292 1.348 . S
C297 C296 1.408 . S
C297 H319 0.930 . S
C298 O308 1.281 . S
C298 O309 1.254 . S
C299 O310 1.236 . S
C299 O311 1.266 . S
O300 Tb280 2.484 . S
O300 C282 1.248 . S
O301 Tb280 2.440 . S
O301 C282 1.266 . S
O302 Tb280 2.658 . S
O302 Tb281 2.325 . S
O302 C289 1.281 . S
O303 Tb280 2.409 . S
O303 C289 1.254 . S
O304 Tb280 2.378 . S
O304 C290 1.236 . S
O305 Tb281 2.341 . S
O305 C290 1.266 . S
O306 Tb281 2.484 . S
O306 C291 1.248 . S
O307 Tb281 2.440 . S
O307 C291 1.266 . S
O308 Tb280 2.325 . S
O308 Tb281 2.658 . S
O308 C298 1.281 . S
O309 Tb281 2.409 . S
O309 C298 1.254 . S
O310 Tb281 2.378 . S
O310 C299 1.236 . S
O311 Tb280 2.341 . S
O311 C299 1.266 . S
H312 C284 0.929 . S
H313 C285 0.931 . S
H314 C287 0.930 . S
H315 C288 0.930 . S
H316 C293 0.929 . S
H317 C294 0.931 . S
H318 C296 0.930 . S
H319 C297 0.930 . S
Tb320 C322 2.809 . S
Tb320 O340 2.484 . S
Tb320 O341 2.440 . S
Tb320 O342 2.658 . S
Tb320 O343 2.409 . S
Tb320 O344 2.378 . S
Tb320 O348 2.325 . S
Tb320 O351 2.341 . S
Tb321 C331 2.809 . S
Tb321 O342 2.325 . S
Tb321 O345 2.341 . S
Tb321 O346 2.484 . S
Tb321 O347 2.440 . S
Tb321 O348 2.658 . S
Tb321 O349 2.409 . S
Tb321 O350 2.378 . S
C322 Tb320 2.809 . S
C322 C323 1.514 . S
C322 O340 1.248 . S
C322 O341 1.266 . S
C323 C322 1.514 . S
C323 C324 1.359 . S
C323 C328 1.348 . S
C324 C323 1.359 . S
C324 C325 1.380 . S
C324 H352 0.929 . S
C325 C324 1.380 . S
C325 C326 1.347 . S
C325 H353 0.931 . S
C326 C325 1.347 . S
C326 C327 1.369 . S
C327 C326 1.369 . S
C327 C328 1.408 . S
C327 H354 0.930 . S
C328 C323 1.348 . S
C328 C327 1.408 . S
C328 H355 0.930 . S
C329 O342 1.281 . S
C329 O343 1.254 . S
C330 O344 1.236 . S
C330 O345 1.266 . S
C331 Tb321 2.809 . S
C331 C332 1.514 . S
C331 O346 1.248 . S
C331 O347 1.266 . S
C332 C331 1.514 . S
C332 C333 1.359 . S
C332 C337 1.348 . S
C333 C332 1.359 . S
C333 C334 1.380 . S
C333 H356 0.929 . S
C334 C333 1.380 . S
C334 C335 1.347 . S
C334 H357 0.931 . S
C335 C334 1.347 . S
C335 C336 1.369 . S
C336 C335 1.369 . S
C336 C337 1.408 . S
C336 H358 0.930 . S
C337 C332 1.348 . S
C337 C336 1.408 . S
C337 H359 0.930 . S
C338 O348 1.281 . S
C338 O349 1.254 . S
C339 O350 1.236 . S
C339 O351 1.266 . S
O340 Tb320 2.484 . S
O340 C322 1.248 . S
O341 Tb320 2.440 . S
O341 C322 1.266 . S
O342 Tb320 2.658 . S
O342 Tb321 2.325 . S
O342 C329 1.281 . S
O343 Tb320 2.409 . S
O343 C329 1.254 . S
O344 Tb320 2.378 . S
O344 C330 1.236 . S
O345 Tb321 2.341 . S
O345 C330 1.266 . S
O346 Tb321 2.484 . S
O346 C331 1.248 . S
O347 Tb321 2.440 . S
O347 C331 1.266 . S
O348 Tb320 2.325 . S
O348 Tb321 2.658 . S
O348 C338 1.281 . S
O349 Tb321 2.409 . S
O349 C338 1.254 . S
O350 Tb321 2.378 . S
O350 C339 1.236 . S
O351 Tb320 2.341 . S
O351 C339 1.266 . S
H352 C324 0.929 . S
H353 C325 0.931 . S
H354 C327 0.930 . S
H355 C328 0.930 . S
H356 C333 0.929 . S
H357 C334 0.931 . S
H358 C336 0.930 . S
H359 C337 0.930 . S
Tb360 C362 2.809 . S
Tb360 O380 2.484 . S
Tb360 O381 2.440 . S
Tb360 O382 2.658 . S
Tb360 O383 2.409 . S
Tb360 O384 2.378 . S
Tb360 O388 2.325 . S
Tb360 O391 2.341 1_545 S
Tb361 C371 2.809 . S
Tb361 O382 2.325 1_565 S
Tb361 O385 2.341 1_565 S
Tb361 O386 2.484 . S
Tb361 O387 2.440 . S
Tb361 O388 2.658 1_565 S
Tb361 O389 2.409 . S
Tb361 O390 2.378 . S
C362 Tb360 2.809 . S
C362 C363 1.514 . S
C362 O380 1.248 . S
C362 O381 1.266 . S
C363 C362 1.514 . S
C363 C364 1.359 . S
C363 C368 1.348 . S
C364 C363 1.359 . S
C364 C365 1.380 . S
C364 H392 0.929 . S
C365 C364 1.380 . S
C365 C366 1.347 . S
C365 H393 0.931 . S
C366 C365 1.347 . S
C366 C367 1.369 . S
C367 C366 1.369 . S
C367 C368 1.408 . S
C367 H394 0.930 . S
C368 C363 1.348 . S
C368 C367 1.408 . S
C368 H395 0.930 . S
C369 O382 1.281 . S
C369 O383 1.254 . S
C370 O384 1.236 . S
C370 O385 1.266 . S
C371 Tb361 2.809 . S
C371 C372 1.514 . S
C371 O386 1.248 . S
C371 O387 1.266 . S
C372 C371 1.514 . S
C372 C373 1.359 . S
C372 C377 1.348 . S
C373 C372 1.359 . S
C373 C374 1.380 . S
C373 H396 0.929 . S
C374 C373 1.380 . S
C374 C375 1.347 . S
C374 H397 0.931 . S
C375 C374 1.347 . S
C375 C376 1.369 . S
C376 C375 1.369 . S
C376 C377 1.408 . S
C376 H398 0.930 . S
C377 C372 1.348 . S
C377 C376 1.408 . S
C377 H399 0.930 . S
C378 O388 1.281 1_565 S
C378 O389 1.254 . S
C379 O390 1.236 . S
C379 O391 1.266 . S
O380 Tb360 2.484 . S
O380 C362 1.248 . S
O381 Tb360 2.440 . S
O381 C362 1.266 . S
O382 Tb360 2.658 . S
O382 Tb361 2.325 1_545 S
O382 C369 1.281 . S
O383 Tb360 2.409 . S
O383 C369 1.254 . S
O384 Tb360 2.378 . S
O384 C370 1.236 . S
O385 Tb361 2.341 1_545 S
O385 C370 1.266 . S
O386 Tb361 2.484 . S
O386 C371 1.248 . S
O387 Tb361 2.440 . S
O387 C371 1.266 . S
O388 Tb360 2.325 . S
O388 Tb361 2.658 1_545 S
O388 C378 1.281 1_545 S
O389 Tb361 2.409 . S
O389 C378 1.254 . S
O390 Tb361 2.378 . S
O390 C379 1.236 . S
O391 Tb360 2.341 1_565 S
O391 C379 1.266 . S
H392 C364 0.929 . S
H393 C365 0.931 . S
H394 C367 0.930 . S
H395 C368 0.930 . S
H396 C373 0.929 . S
H397 C374 0.931 . S
H398 C376 0.930 . S
H399 C377 0.930 . S
Tb400 C402 2.809 . S
Tb400 O420 2.484 . S
Tb400 O421 2.440 . S
Tb400 O422 2.658 . S
Tb400 O423 2.409 . S
Tb400 O424 2.378 . S
Tb400 O428 2.325 1_565 S
Tb400 O431 2.341 1_565 S
Tb401 C411 2.809 . S
Tb401 O422 2.325 1_545 S
Tb401 O425 2.341 1_545 S
Tb401 O426 2.484 . S
Tb401 O427 2.440 . S
Tb401 O428 2.658 . S
Tb401 O429 2.409 . S
Tb401 O430 2.378 . S
C402 Tb400 2.809 . S
C402 C403 1.514 . S
C402 O420 1.248 . S
C402 O421 1.266 . S
C403 C402 1.514 . S
C403 C404 1.359 . S
C403 C408 1.348 . S
C404 C403 1.359 . S
C404 C405 1.380 . S
C404 H432 0.929 . S
C405 C404 1.380 . S
C405 C406 1.347 . S
C405 H433 0.931 . S
C406 C405 1.347 . S
C406 C407 1.369 . S
C407 C406 1.369 . S
C407 C408 1.408 . S
C407 H434 0.930 . S
C408 C403 1.348 . S
C408 C407 1.408 . S
C408 H435 0.930 . S
C409 O422 1.281 . S
C409 O423 1.254 . S
C410 O424 1.236 . S
C410 O425 1.266 . S
C411 Tb401 2.809 . S
C411 C412 1.514 . S
C411 O426 1.248 . S
C411 O427 1.266 . S
C412 C411 1.514 . S
C412 C413 1.359 . S
C412 C417 1.348 . S
C413 C412 1.359 . S
C413 C414 1.380 . S
C413 H436 0.929 . S
C414 C413 1.380 . S
C414 C415 1.347 . S
C414 H437 0.931 . S
C415 C414 1.347 . S
C415 C416 1.369 . S
C416 C415 1.369 . S
C416 C417 1.408 . S
C416 H438 0.930 . S
C417 C412 1.348 . S
C417 C416 1.408 . S
C417 H439 0.930 . S
C418 O428 1.281 . S
C418 O429 1.254 . S
C419 O430 1.236 . S
C419 O431 1.266 . S
O420 Tb400 2.484 . S
O420 C402 1.248 . S
O421 Tb400 2.440 . S
O421 C402 1.266 . S
O422 Tb400 2.658 . S
O422 Tb401 2.325 1_565 S
O422 C409 1.281 . S
O423 Tb400 2.409 . S
O423 C409 1.254 . S
O424 Tb400 2.378 . S
O424 C410 1.236 . S
O425 Tb401 2.341 1_565 S
O425 C410 1.266 . S
O426 Tb401 2.484 . S
O426 C411 1.248 . S
O427 Tb401 2.440 . S
O427 C411 1.266 . S
O428 Tb400 2.325 1_545 S
O428 Tb401 2.658 . S
O428 C418 1.281 . S
O429 Tb401 2.409 . S
O429 C418 1.254 . S
O430 Tb401 2.378 . S
O430 C419 1.236 . S
O431 Tb400 2.341 1_545 S
O431 C419 1.266 . S
H432 C404 0.929 . S
H433 C405 0.931 . S
H434 C407 0.930 . S
H435 C408 0.930 . S
H436 C413 0.929 . S
H437 C414 0.931 . S
H438 C416 0.930 . S
H439 C417 0.930 . S
Tb440 C442 2.809 . S
Tb440 O460 2.484 . S
Tb440 O461 2.440 . S
Tb440 O462 2.658 . S
Tb440 O463 2.409 . S
Tb440 O464 2.378 . S
Tb440 O468 2.325 . S
Tb440 O471 2.341 . S
Tb441 C451 2.809 . S
Tb441 O462 2.325 . S
Tb441 O465 2.341 . S
Tb441 O466 2.484 . S
Tb441 O467 2.440 . S
Tb441 O468 2.658 . S
Tb441 O469 2.409 . S
Tb441 O470 2.378 . S
C442 Tb440 2.809 . S
C442 C443 1.514 . S
C442 O460 1.248 . S
C442 O461 1.266 . S
C443 C442 1.514 . S
C443 C444 1.359 . S
C443 C448 1.348 . S
C444 C443 1.359 . S
C444 C445 1.380 . S
C444 H472 0.929 . S
C445 C444 1.380 . S
C445 C446 1.347 . S
C445 H473 0.931 . S
C446 C445 1.347 . S
C446 C447 1.369 . S
C447 C446 1.369 . S
C447 C448 1.408 . S
C447 H474 0.930 . S
C448 C443 1.348 . S
C448 C447 1.408 . S
C448 H475 0.930 . S
C449 O462 1.281 . S
C449 O463 1.254 . S
C450 O464 1.236 . S
C450 O465 1.266 . S
C451 Tb441 2.809 . S
C451 C452 1.514 . S
C451 O466 1.248 . S
C451 O467 1.266 . S
C452 C451 1.514 . S
C452 C453 1.359 . S
C452 C457 1.348 . S
C453 C452 1.359 . S
C453 C454 1.380 . S
C453 H476 0.929 . S
C454 C453 1.380 . S
C454 C455 1.347 . S
C454 H477 0.931 . S
C455 C454 1.347 . S
C455 C456 1.369 . S
C456 C455 1.369 . S
C456 C457 1.408 . S
C456 H478 0.930 . S
C457 C452 1.348 . S
C457 C456 1.408 . S
C457 H479 0.930 . S
C458 O468 1.281 . S
C458 O469 1.254 . S
C459 O470 1.236 . S
C459 O471 1.266 . S
O460 Tb440 2.484 . S
O460 C442 1.248 . S
O461 Tb440 2.440 . S
O461 C442 1.266 . S
O462 Tb440 2.658 . S
O462 Tb441 2.325 . S
O462 C449 1.281 . S
O463 Tb440 2.409 . S
O463 C449 1.254 . S
O464 Tb440 2.378 . S
O464 C450 1.236 . S
O465 Tb441 2.341 . S
O465 C450 1.266 . S
O466 Tb441 2.484 . S
O466 C451 1.248 . S
O467 Tb441 2.440 . S
O467 C451 1.266 . S
O468 Tb440 2.325 . S
O468 Tb441 2.658 . S
O468 C458 1.281 . S
O469 Tb441 2.409 . S
O469 C458 1.254 . S
O470 Tb441 2.378 . S
O470 C459 1.236 . S
O471 Tb440 2.341 . S
O471 C459 1.266 . S
H472 C444 0.929 . S
H473 C445 0.931 . S
H474 C447 0.930 . S
H475 C448 0.930 . S
H476 C453 0.929 . S
H477 C454 0.931 . S
H478 C456 0.930 . S
H479 C457 0.930 . S
C480 C481 1.369 . S
C480 C482 1.419 . S
C480 H484 0.930 . S
C481 C480 1.369 . S
C481 C490 1.429 . S
C482 C480 1.419 . S
C482 C483 1.363 . S
C482 H485 0.929 . S
C483 C482 1.363 . S
C483 C489 1.428 . S
H484 C480 0.930 . S
H485 C482 0.929 . S
S486 N487 1.613 . S
S486 N488 1.610 . S
N487 S486 1.613 . S
N487 C490 1.350 . S
N488 S486 1.610 . S
N488 C489 1.351 . S
C489 C483 1.428 . S
C489 N488 1.351 . S
C489 C490 1.434 . S
C490 C481 1.429 . S
C490 N487 1.350 . S
C490 C489 1.434 . S
C491 C492 1.369 . S
C491 C493 1.419 . S
C491 H495 0.930 . S
C492 C491 1.369 . S
C492 C501 1.429 . S
C493 C491 1.419 . S
C493 C494 1.363 . S
C493 H496 0.929 . S
C494 C493 1.363 . S
C494 C500 1.428 . S
H495 C491 0.930 . S
H496 C493 0.929 . S
S497 N498 1.613 . S
S497 N499 1.610 1_545 S
N498 S497 1.613 . S
N498 C501 1.350 1_545 S
N499 S497 1.610 1_565 S
N499 C500 1.351 . S
C500 C494 1.428 . S
C500 N499 1.351 . S
C500 C501 1.434 . S
C501 C492 1.429 . S
C501 N498 1.350 1_565 S
C501 C500 1.434 . S
C502 C503 1.369 . S
C502 C504 1.419 . S
C502 H506 0.924 1_554 S
C503 C502 1.369 . S
C503 C512 1.429 . S
C504 C502 1.419 . S
C504 C505 1.363 . S
C504 H507 0.929 . S
C505 C504 1.363 . S
C505 C511 1.428 . S
H506 C502 0.924 1_556 S
H507 C504 0.929 . S
S508 N509 1.613 . S
S508 N510 1.610 . S
N509 S508 1.613 . S
N509 C512 1.350 . S
N510 S508 1.610 . S
N510 C511 1.351 . S
C511 C505 1.428 . S
C511 N510 1.351 . S
C511 C512 1.434 . S
C512 C503 1.429 . S
C512 N509 1.350 . S
C512 C511 1.434 . S
C513 C514 1.369 . S
C513 C515 1.419 . S
C513 H517 0.930 . S
C514 C513 1.369 . S
C514 C523 1.429 . S
C515 C513 1.419 . S
C515 C516 1.363 . S
C515 H518 0.929 . S
C516 C515 1.363 . S
C516 C522 1.428 . S
H517 C513 0.930 . S
H518 C515 0.929 . S
S519 N520 1.613 . S
S519 N521 1.610 . S
N520 S519 1.613 . S
N520 C523 1.350 . S
N521 S519 1.610 . S
N521 C522 1.351 . S
C522 C516 1.428 . S
C522 N521 1.351 . S
C522 C523 1.434 . S
C523 C514 1.429 . S
C523 N520 1.350 . S
C523 C522 1.434 . S
C524 C525 1.369 . S
C524 C526 1.419 . S
C524 H528 0.930 . S
C525 C524 1.369 . S
C525 C534 1.429 . S
C526 C524 1.419 . S
C526 C527 1.363 . S
C526 H529 0.929 . S
C527 C526 1.363 . S
C527 C533 1.428 . S
H528 C524 0.930 . S
H529 C526 0.929 . S
S530 N531 1.613 . S
S530 N532 1.610 . S
N531 S530 1.613 . S
N531 C534 1.350 . S
N532 S530 1.610 . S
N532 C533 1.351 . S
C533 C527 1.428 . S
C533 N532 1.351 . S
C533 C534 1.434 . S
C534 C525 1.429 . S
C534 N531 1.350 . S
C534 C533 1.434 . S
C535 C536 1.369 . S
C535 C537 1.419 . S
C535 H539 0.930 . S
C536 C535 1.369 . S
C536 C545 1.429 . S
C537 C535 1.419 . S
C537 C538 1.363 . S
C537 H540 0.929 . S
C538 C537 1.363 . S
C538 C544 1.428 . S
H539 C535 0.930 . S
H540 C537 0.929 . S
S541 N542 1.613 . S
S541 N543 1.610 . S
N542 S541 1.613 . S
N542 C545 1.350 . S
N543 S541 1.610 . S
N543 C544 1.351 . S
C544 C538 1.428 . S
C544 N543 1.351 . S
C544 C545 1.434 . S
C545 C536 1.429 . S
C545 N542 1.350 . S
C545 C544 1.434 . S
C546 C547 1.369 . S
C546 C548 1.419 . S
C546 H550 0.930 . S
C547 C546 1.369 . S
C547 C556 1.429 . S
C548 C546 1.419 . S
C548 C549 1.363 . S
C548 H551 0.929 . S
C549 C548 1.363 . S
C549 C555 1.428 . S
H550 C546 0.930 . S
H551 C548 0.929 . S
S552 N553 1.613 . S
S552 N554 1.610 . S
N553 S552 1.613 . S
N553 C556 1.350 . S
N554 S552 1.610 . S
N554 C555 1.351 . S
C555 C549 1.428 . S
C555 N554 1.351 . S
C555 C556 1.434 . S
C556 C547 1.429 . S
C556 N553 1.350 . S
C556 C555 1.434 . S
C557 C558 1.369 . S
C557 C559 1.419 . S
C557 H561 0.930 . S
C558 C557 1.369 . S
C558 C567 1.429 . S
C559 C557 1.419 . S
C559 C560 1.363 . S
C559 H562 0.929 . S
C560 C559 1.363 . S
C560 C566 1.428 . S
H561 C557 0.930 . S
H562 C559 0.929 . S
S563 N564 1.613 . S
S563 N565 1.610 . S
N564 S563 1.613 . S
N564 C567 1.350 . S
N565 S563 1.610 . S
N565 C566 1.351 . S
C566 C560 1.428 . S
C566 N565 1.351 . S
C566 C567 1.434 . S
C567 C558 1.429 . S
C567 N564 1.350 . S
C567 C566 1.434 . S
C568 C569 1.369 . S
C568 C570 1.419 . S
C568 H572 0.930 . S
C569 C568 1.369 . S
C569 C578 1.429 . S
C570 C568 1.419 . S
C570 C571 1.363 . S
C570 H573 0.929 . S
C571 C570 1.363 . S
C571 C577 1.428 . S
H572 C568 0.930 . S
H573 C570 0.929 . S
S574 N575 1.613 . S
S574 N576 1.610 . S
N575 S574 1.613 . S
N575 C578 1.350 . S
N576 S574 1.610 . S
N576 C577 1.351 . S
C577 C571 1.428 . S
C577 N576 1.351 . S
C577 C578 1.434 . S
C578 C569 1.429 . S
C578 N575 1.350 . S
C578 C577 1.434 . S
C579 C580 1.369 . S
C579 C581 1.419 . S
C579 H583 0.930 . S
C580 C579 1.369 . S
C580 C589 1.429 . S
C581 C579 1.419 . S
C581 C582 1.363 . S
C581 H584 0.929 . S
C582 C581 1.363 . S
C582 C588 1.428 . S
H583 C579 0.930 . S
H584 C581 0.929 . S
S585 N586 1.613 1_655 S
S585 N587 1.610 1_655 S
N586 S585 1.613 1_455 S
N586 C589 1.350 . S
N587 S585 1.610 1_455 S
N587 C588 1.351 . S
C588 C582 1.428 . S
C588 N587 1.351 . S
C588 C589 1.434 . S
C589 C580 1.429 . S
C589 N586 1.350 . S
C589 C588 1.434 . S
C590 C591 1.369 . S
C590 C592 1.419 . S
C590 H594 0.930 . S
C591 C590 1.369 . S
C591 C600 1.429 . S
C592 C590 1.419 . S
C592 C593 1.363 . S
C592 H595 0.929 . S
C593 C592 1.363 . S
C593 C599 1.428 . S
H594 C590 0.930 . S
H595 C592 0.929 . S
S596 N597 1.613 . S
S596 N598 1.610 . S
N597 S596 1.613 . S
N597 C600 1.350 1_455 S
N598 S596 1.610 . S
N598 C599 1.351 1_455 S
C599 C593 1.428 . S
C599 N598 1.351 1_655 S
C599 C600 1.434 . S
C600 C591 1.429 . S
C600 N597 1.350 1_655 S
C600 C599 1.434 . S
C601 C602 1.369 . S
C601 C603 1.419 . S
C601 H605 0.930 . S
C602 C601 1.369 . S
C602 C611 1.429 . S
C603 C601 1.419 . S
C603 C604 1.363 . S
C603 H606 0.929 . S
C604 C603 1.363 . S
C604 C610 1.428 . S
H605 C601 0.930 . S
H606 C603 0.929 . S
S607 N608 1.613 . S
S607 N609 1.610 . S
N608 S607 1.613 . S
N608 C611 1.350 . S
N609 S607 1.610 . S
N609 C610 1.351 . S
C610 C604 1.428 . S
C610 N609 1.351 . S
C610 C611 1.434 . S
C611 C602 1.429 . S
C611 N608 1.350 . S
C611 C610 1.434 . S
C612 C613 1.369 . S
C612 C614 1.419 . S
C612 H616 0.930 . S
C613 C612 1.369 . S
C613 C622 1.429 . S
C614 C612 1.419 . S
C614 C615 1.363 . S
C614 H617 0.929 . S
C615 C614 1.363 . S
C615 C621 1.428 . S
H616 C612 0.930 . S
H617 C614 0.929 . S
S618 N619 1.613 . S
S618 N620 1.610 . S
N619 S618 1.613 . S
N619 C622 1.350 . S
N620 S618 1.610 . S
N620 C621 1.351 . S
C621 C615 1.428 . S
C621 N620 1.351 . S
C621 C622 1.434 . S
C622 C613 1.429 . S
C622 N619 1.350 . S
C622 C621 1.434 . S
C623 C624 1.369 . S
C623 C625 1.419 . S
C623 H627 0.930 . S
C624 C623 1.369 . S
C624 C633 1.429 . S
C625 C623 1.419 . S
C625 C626 1.363 . S
C625 H628 0.929 1_565 S
C626 C625 1.363 . S
C626 C632 1.428 . S
H627 C623 0.930 . S
H628 C625 0.929 1_545 S
S629 N630 1.613 . S
S629 N631 1.610 . S
N630 S629 1.613 . S
N630 C633 1.350 . S
N631 S629 1.610 . S
N631 C632 1.351 . S
C632 C626 1.428 . S
C632 N631 1.351 . S
C632 C633 1.434 . S
C633 C624 1.429 . S
C633 N630 1.350 . S
C633 C632 1.434 . S
C634 C635 1.369 . S
C634 C636 1.419 . S
C634 H638 0.930 . S
C635 C634 1.369 . S
C635 C644 1.429 . S
C636 C634 1.419 . S
C636 C637 1.363 . S
C636 H639 0.929 . S
C637 C636 1.363 . S
C637 C643 1.428 . S
H638 C634 0.930 . S
H639 C636 0.929 . S
S640 N641 1.613 . S
S640 N642 1.610 . S
N641 S640 1.613 . S
N641 C644 1.350 . S
N642 S640 1.610 . S
N642 C643 1.351 . S
C643 C637 1.428 . S
C643 N642 1.351 . S
C643 C644 1.434 . S
C644 C635 1.429 . S
C644 N641 1.350 . S
C644 C643 1.434 . S
C645 C646 1.369 . S
C645 C647 1.397 1_554 S
C645 H649 0.930 . S
C646 C645 1.369 . S
C646 C655 1.429 . S
C647 C645 1.397 1_556 S
C647 C648 1.381 . S
C647 H650 0.933 . S
C648 C647 1.381 . S
C648 C654 1.428 . S
H649 C645 0.930 . S
H650 C647 0.933 . S
S651 N652 1.613 1_556 S
S651 N653 1.610 . S
N652 S651 1.613 1_554 S
N652 C655 1.350 . S
N653 S651 1.610 . S
N653 C654 1.351 . S
C654 C648 1.428 . S
C654 N653 1.351 . S
C654 C655 1.434 1_556 S
C655 C646 1.429 . S
C655 N652 1.350 . S
C655 C654 1.434 1_554 S
C656 C657 1.369 . S
C656 C658 1.419 . S
C656 H660 0.930 . S
C657 C656 1.369 . S
C657 C666 1.429 . S
C658 C656 1.419 . S
C658 C659 1.363 . S
C658 H661 0.929 . S
C659 C658 1.363 . S
C659 C665 1.428 . S
H660 C656 0.930 . S
H661 C658 0.929 . S
S662 N663 1.613 . S
S662 N664 1.610 . S
N663 S662 1.613 . S
N663 C666 1.350 . S
N664 S662 1.610 . S
N664 C665 1.351 . S
C665 C659 1.428 . S
C665 N664 1.351 . S
C665 C666 1.434 . S
C666 C657 1.429 . S
C666 N663 1.350 . S
C666 C665 1.434 . S
C667 C668 1.369 . S
C667 C669 1.419 1_554 S
C667 H671 0.930 . S
C668 C667 1.369 . S
C668 C677 1.429 . S
C669 C667 1.419 1_556 S
C669 C670 1.363 . S
C669 H672 0.929 . S
C670 C669 1.363 . S
C670 C676 1.428 . S
H671 C667 0.930 . S
H672 C669 0.929 . S
S673 N674 1.613 . S
S673 N675 1.610 1_554 S
N674 S673 1.613 . S
N674 C677 1.350 . S
N675 S673 1.610 1_556 S
N675 C676 1.351 . S
C676 C670 1.428 . S
C676 N675 1.351 . S
C676 C677 1.434 1_556 S
C677 C668 1.429 . S
C677 N674 1.350 . S
C677 C676 1.434 1_554 S
C678 C679 1.369 . S
C678 C680 1.419 . S
C678 H682 0.930 . S
C679 C678 1.369 . S
C679 C688 1.429 . S
C680 C678 1.419 . S
C680 C681 1.363 . S
C680 H683 0.929 . S
C681 C680 1.363 . S
C681 C687 1.428 . S
H682 C678 0.930 . S
H683 C680 0.929 . S
S684 N685 1.613 . S
S684 N686 1.610 . S
N685 S684 1.613 . S
N685 C688 1.350 . S
N686 S684 1.610 . S
N686 C687 1.351 . S
C687 C681 1.428 . S
C687 N686 1.351 . S
C687 C688 1.434 . S
C688 C679 1.429 . S
C688 N685 1.350 . S
C688 C687 1.434 . S
C689 C690 1.369 . S
C689 C691 1.419 . S
C689 H693 0.930 . S
C690 C689 1.369 . S
C690 C699 1.429 . S
C691 C689 1.419 . S
C691 C692 1.363 . S
C691 H694 0.929 . S
C692 C691 1.363 . S
C692 C698 1.428 . S
H693 C689 0.930 . S
H694 C691 0.929 . S
S695 N696 1.613 . S
S695 N697 1.610 . S
N696 S695 1.613 . S
N696 C699 1.350 . S
N697 S695 1.610 . S
N697 C698 1.351 . S
C698 C692 1.428 . S
C698 N697 1.351 . S
C698 C699 1.434 . S
C699 C690 1.429 . S
C699 N696 1.350 . S
C699 C698 1.434 . S
C700 C701 1.369 . S
C700 C702 1.419 . S
C700 H704 0.930 . S
C701 C700 1.369 . S
C701 C710 1.429 . S
C702 C700 1.419 . S
C702 C703 1.363 . S
C702 H705 0.929 . S
C703 C702 1.363 . S
C703 C709 1.428 . S
H704 C700 0.930 . S
H705 C702 0.929 . S
S706 N707 1.613 . S
S706 N708 1.610 . S
N707 S706 1.613 . S
N707 C710 1.350 . S
N708 S706 1.610 . S
N708 C709 1.351 . S
C709 C703 1.428 . S
C709 N708 1.351 . S
C709 C710 1.434 . S
C710 C701 1.429 . S
C710 N707 1.350 . S
C710 C709 1.434 . S
C711 C712 1.369 . S
C711 C713 1.419 1_545 S
C711 H715 0.930 . S
C712 C711 1.369 . S
C712 C721 1.429 . S
C713 C711 1.419 1_565 S
C713 C714 1.363 . S
C713 H716 0.929 1_455 S
C714 C713 1.363 . S
C714 C720 1.428 . S
H715 C711 0.930 . S
H716 C713 0.929 1_655 S
S717 N718 1.613 1_565 S
S717 N719 1.610 . S
N718 S717 1.613 1_545 S
N718 C721 1.350 . S
N719 S717 1.610 . S
N719 C720 1.351 . S
C720 C714 1.428 . S
C720 N719 1.351 . S
C720 C721 1.434 1_565 S
C721 C712 1.429 . S
C721 N718 1.350 . S
C721 C720 1.434 1_545 S
C722 C723 1.369 . S
C722 C724 1.419 . S
C722 H726 0.930 . S
C723 C722 1.369 . S
C723 C732 1.429 . S
C724 C722 1.419 . S
C724 C725 1.363 . S
C724 H727 0.929 . S
C725 C724 1.363 . S
C725 C731 1.428 . S
H726 C722 0.930 . S
H727 C724 0.929 . S
S728 N729 1.613 . S
S728 N730 1.610 . S
N729 S728 1.613 . S
N729 C732 1.350 . S
N730 S728 1.610 . S
N730 C731 1.351 . S
C731 C725 1.428 . S
C731 N730 1.351 . S
C731 C732 1.434 . S
C732 C723 1.429 . S
C732 N729 1.350 . S
C732 C731 1.434 . S
C733 C734 1.369 . S
C733 C735 1.419 . S
C733 H737 0.930 . S
C734 C733 1.369 . S
C734 C743 1.429 . S
C735 C733 1.419 . S
C735 C736 1.363 1_545 S
C735 H738 0.930 . S
C736 C735 1.363 1_565 S
C736 C742 1.428 . S
H737 C733 0.930 . S
H738 C735 0.930 . S
S739 N740 1.613 1_565 S
S739 N741 1.610 . S
N740 S739 1.613 1_545 S
N740 C743 1.350 . S
N741 S739 1.610 . S
N741 C742 1.351 . S
C742 C736 1.428 . S
C742 N741 1.351 . S
C742 C743 1.434 1_565 S
C743 C734 1.429 . S
C743 N740 1.350 . S
C743 C742 1.434 1_545 S
C744 C745 1.369 . S
C744 C746 1.419 . S
C744 H748 0.930 . S
C745 C744 1.369 . S
C745 C754 1.429 . S
C746 C744 1.419 . S
C746 C747 1.363 . S
C746 H749 0.929 . S
C747 C746 1.363 . S
C747 C753 1.428 . S
H748 C744 0.930 . S
H749 C746 0.929 . S
S750 N751 1.613 . S
S750 N752 1.610 . S
N751 S750 1.613 . S
N751 C754 1.350 . S
N752 S750 1.610 . S
N752 C753 1.351 . S
C753 C747 1.428 . S
C753 N752 1.351 . S
C753 C754 1.434 . S
C754 C745 1.429 . S
C754 N751 1.350 . S
C754 C753 1.434 . S
C755 C756 1.369 . S
C755 C757 1.419 . S
C755 H759 0.930 . S
C756 C755 1.369 . S
C756 C765 1.429 . S
C757 C755 1.419 . S
C757 C758 1.363 . S
C757 H760 0.929 . S
C758 C757 1.363 . S
C758 C764 1.428 . S
H759 C755 0.930 . S
H760 C757 0.929 . S
S761 N762 1.613 . S
S761 N763 1.610 . S
N762 S761 1.613 . S
N762 C765 1.350 . S
N763 S761 1.610 . S
N763 C764 1.351 . S
C764 C758 1.428 . S
C764 N763 1.351 . S
C764 C765 1.434 . S
C765 C756 1.429 . S
C765 N762 1.350 . S
C765 C764 1.434 . S
C766 C767 1.369 . S
C766 C768 1.419 . S
C766 H770 0.930 . S
C767 C766 1.369 . S
C767 C776 1.429 . S
C768 C766 1.419 . S
C768 C769 1.363 . S
C768 H771 0.929 . S
C769 C768 1.363 . S
C769 C775 1.428 . S
H770 C766 0.930 . S
H771 C768 0.929 . S
S772 N773 1.613 . S
S772 N774 1.610 . S
N773 S772 1.613 . S
N773 C776 1.350 . S
N774 S772 1.610 . S
N774 C775 1.351 . S
C775 C769 1.428 . S
C775 N774 1.351 . S
C775 C776 1.434 . S
C776 C767 1.429 . S
C776 N773 1.350 . S
C776 C775 1.434 . S
C777 C778 1.369 . S
C777 C779 1.419 . S
C777 H781 0.930 . S
C778 C777 1.369 . S
C778 C787 1.429 . S
C779 C777 1.419 . S
C779 C780 1.363 . S
C779 H782 0.929 . S
C780 C779 1.363 . S
C780 C786 1.428 . S
H781 C777 0.930 . S
H782 C779 0.929 . S
S783 N784 1.613 . S
S783 N785 1.610 . S
N784 S783 1.613 . S
N784 C787 1.350 . S
N785 S783 1.610 . S
N785 C786 1.351 . S
C786 C780 1.428 . S
C786 N785 1.351 . S
C786 C787 1.434 . S
C787 C778 1.429 . S
C787 N784 1.350 . S
C787 C786 1.434 . S
C788 C789 1.369 . S
C788 C790 1.419 . S
C788 H792 0.930 . S
C789 C788 1.369 . S
C789 C798 1.429 . S
C790 C788 1.419 . S
C790 C791 1.363 . S
C790 H793 0.929 . S
C791 C790 1.363 . S
C791 C797 1.428 . S
H792 C788 0.930 . S
H793 C790 0.929 . S
S794 N795 1.613 . S
S794 N796 1.610 . S
N795 S794 1.613 . S
N795 C798 1.350 . S
N796 S794 1.610 . S
N796 C797 1.351 . S
C797 C791 1.428 . S
C797 N796 1.351 . S
C797 C798 1.434 . S
C798 C789 1.429 . S
C798 N795 1.350 . S
C798 C797 1.434 . S
C799 C800 1.369 . S
C799 C801 1.419 . S
C799 H803 0.930 . S
C800 C799 1.369 . S
C800 C809 1.429 . S
C801 C799 1.419 . S
C801 C802 1.363 . S
C801 H804 0.929 . S
C802 C801 1.363 . S
C802 C808 1.428 . S
H803 C799 0.930 . S
H804 C801 0.929 . S
S805 N806 1.613 . S
S805 N807 1.610 . S
N806 S805 1.613 . S
N806 C809 1.350 . S
N807 S805 1.610 . S
N807 C808 1.351 . S
C808 C802 1.428 . S
C808 N807 1.351 . S
C808 C809 1.434 . S
C809 C800 1.429 . S
C809 N806 1.350 . S
C809 C808 1.434 . S
C810 C811 1.369 . S
C810 C812 1.419 1_455 S
C810 H814 0.930 . S
C811 C810 1.369 . S
C811 C820 1.429 . S
C812 C810 1.419 1_655 S
C812 C813 1.363 . S
C812 H815 0.929 . S
C813 C812 1.363 . S
C813 C819 1.428 1_655 S
H814 C810 0.930 . S
H815 C812 0.929 . S
S816 N817 1.613 1_556 S
S816 N818 1.610 1_455 S
N817 S816 1.613 1_554 S
N817 C820 1.350 . S
N818 S816 1.610 1_655 S
N818 C819 1.351 1_656 S
C819 C813 1.428 1_455 S
C819 N818 1.351 1_454 S
C819 C820 1.434 . S
C820 C811 1.429 . S
C820 N817 1.350 . S
C820 C819 1.434 . S
C821 C822 1.369 . S
C821 C823 1.419 . S
C821 H825 0.930 . S
C822 C821 1.369 . S
C822 C831 1.429 . S
C823 C821 1.419 . S
C823 C824 1.363 . S
C823 H826 0.929 . S
C824 C823 1.363 . S
C824 C830 1.428 . S
H825 C821 0.930 . S
H826 C823 0.929 . S
S827 N828 1.613 . S
S827 N829 1.610 . S
N828 S827 1.613 . S
N828 C831 1.350 . S
N829 S827 1.610 . S
N829 C830 1.351 . S
C830 C824 1.428 . S
C830 N829 1.351 . S
C830 C831 1.434 . S
C831 C822 1.429 . S
C831 N828 1.350 . S
C831 C830 1.434 . S
C832 C833 1.369 . S
C832 C834 1.419 . S
C832 H836 0.930 . S
C833 C832 1.369 . S
C833 C842 1.429 . S
C834 C832 1.419 . S
C834 C835 1.363 . S
C834 H837 0.929 . S
C835 C834 1.363 . S
C835 C841 1.428 . S
H836 C832 0.930 . S
H837 C834 0.929 . S
S838 N839 1.613 . S
S838 N840 1.610 . S
N839 S838 1.613 . S
N839 C842 1.350 . S
N840 S838 1.610 . S
N840 C841 1.351 . S
C841 C835 1.428 . S
C841 N840 1.351 . S
C841 C842 1.434 . S
C842 C833 1.429 . S
C842 N839 1.350 . S
C842 C841 1.434 . S
C843 C844 1.369 . S
C843 C845 1.419 . S
C843 H847 0.930 . S
C844 C843 1.369 . S
C844 C853 1.429 . S
C845 C843 1.419 . S
C845 C846 1.363 . S
C845 H848 0.929 . S
C846 C845 1.363 . S
C846 C852 1.428 . S
H847 C843 0.930 . S
H848 C845 0.929 . S
S849 N850 1.613 1_655 S
S849 N851 1.610 1_655 S
N850 S849 1.613 1_455 S
N850 C853 1.350 . S
N851 S849 1.610 1_455 S
N851 C852 1.351 . S
C852 C846 1.428 . S
C852 N851 1.351 . S
C852 C853 1.434 . S
C853 C844 1.429 . S
C853 N850 1.350 . S
C853 C852 1.434 . S
C854 C855 1.369 . S
C854 C856 1.419 . S
C854 H858 0.930 . S
C855 C854 1.369 . S
C855 C864 1.429 . S
C856 C854 1.419 . S
C856 C857 1.363 . S
C856 H859 0.929 . S
C857 C856 1.363 . S
C857 C863 1.428 . S
H858 C854 0.930 . S
H859 C856 0.929 . S
S860 N861 1.613 . S
S860 N862 1.610 1_554 S
N861 S860 1.613 . S
N861 C864 1.350 1_554 S
N862 S860 1.610 1_556 S
N862 C863 1.351 . S
C863 C857 1.428 . S
C863 N862 1.351 . S
C863 C864 1.434 . S
C864 C855 1.429 . S
C864 N861 1.350 1_556 S
C864 C863 1.434 . S
C865 C866 1.369 . S
C865 C867 1.419 . S
C865 H869 0.930 . S
C866 C865 1.369 . S
C866 C875 1.429 . S
C867 C865 1.419 . S
C867 C868 1.363 1_655 S
C867 H870 0.929 1_655 S
C868 C867 1.363 1_455 S
C868 C874 1.428 1_455 S
H869 C865 0.930 . S
H870 C867 0.929 1_455 S
S871 N872 1.613 . S
S871 N873 1.610 . S
N872 S871 1.613 . S
N872 C875 1.350 . S
N873 S871 1.610 . S
N873 C874 1.351 . S
C874 C868 1.428 1_655 S
C874 N873 1.351 . S
C874 C875 1.434 . S
C875 C866 1.429 . S
C875 N872 1.350 . S
C875 C874 1.434 . S
C481 C19 1.655 . S
C483 C458 1.775 . S
C492 C378 1.894 . S
C494 C58 1.905 . S
C503 C99 1.472 . S
C505 C339 1.486 . S
C514 C138 1.779 . S
C516 C418 1.780 . S
C525 C178 2.144 . S
C527 C419 2.003 . S
C536 C219 1.520 . S
C538 C459 1.520 . S
C547 C379 1.839 . S
C549 C258 1.973 . S
C558 C298 1.640 . S
C560 C338 1.652 . S
C569 C139 1.857 . S
C571 C179 1.824 . S
C580 C18 2.034 . S
C582 C218 2.035 . S
C591 C59 1.584 . S
C593 C259 1.616 . S
C602 C299 1.768 . S
C604 C98 1.860 . S
C613 C15 2.731 . S
C615 C330 2.885 . S
C624 C46 1.281 . S
C626 C409 1.219 . S
C635 C449 1.887 . S
C637 C95 1.984 . S
C646 C126 1.487 . S
C648 C369 1.391 . S
C657 C166 1.542 . S
C659 C370 1.524 . S
C668 C329 1.948 . S
C670 C215 2.026 . S
C679 C410 1.904 . S
C681 C246 1.930 . S
C690 C450 1.786 . S
C692 C286 1.817 . S
C701 C9 1.674 . S
C703 C135 1.757 . S
C712 C6 2.079 . S
C714 C50 2.050 . S
C723 C55 2.063 . S
C725 C89 1.970 . S
C734 C130 1.878 . S
C736 C86 1.894 . S
C745 C206 1.116 . S
C747 C170 1.089 . S
C756 C209 1.964 . S
C758 C255 2.043 . S
C767 C250 1.690 . S
C769 C295 1.617 . S
C778 C175 1.936 . S
C780 C290 2.058 . S
C789 C326 1.383 . S
C791 C129 1.265 . S
C800 C210 1.643 . S
C802 C366 1.671 . S
C811 C335 2.216 . S
C813 C249 2.127 . S
C822 C406 1.687 . S
C824 C289 1.534 . S
C833 C169 0.875 . S
C835 C446 0.910 . S
C844 C455 1.841 . S
C846 C49 1.758 . S
C855 C90 1.626 . S
C857 C375 1.536 . S
C866 C415 1.990 . S
C868 C10 2.091 . S
