# Generated by pormake.
# Topology why, (6)-cn, num edge types: 1
# Building blocks:
#     Node 0, Type 0, BuildingBlock: BETDEL_clean_sbu_0, # of connection points: 6
#     Node 1, Type 0, BuildingBlock: BETDEL_clean_sbu_0, # of connection points: 6
#     Node 2, Type 0, BuildingBlock: BETDEL_clean_sbu_0, # of connection points: 6
#     Node 3, Type 0, BuildingBlock: BETDEL_clean_sbu_0, # of connection points: 6
#     Node 4, Type 0, BuildingBlock: BETDEL_clean_sbu_0, # of connection points: 6
#     Node 5, Type 0, BuildingBlock: BETDEL_clean_sbu_0, # of connection points: 6
#     Node 6, Type 0, BuildingBlock: BETDEL_clean_sbu_0, # of connection points: 6
#     Node 7, Type 0, BuildingBlock: BETDEL_clean_sbu_0, # of connection points: 6
#     Node 8, Type 0, BuildingBlock: BETDEL_clean_sbu_0, # of connection points: 6
#     Node 9, Type 0, BuildingBlock: BETDEL_clean_sbu_0, # of connection points: 6
#     Node 10, Type 0, BuildingBlock: BETDEL_clean_sbu_0, # of connection points: 6
#     Node 11, Type 0, BuildingBlock: BETDEL_clean_sbu_0, # of connection points: 6
#     Node 12, Type 0, BuildingBlock: BETDEL_clean_sbu_0, # of connection points: 6
#     Node 13, Type 0, BuildingBlock: BETDEL_clean_sbu_0, # of connection points: 6
#     Node 14, Type 0, BuildingBlock: BETDEL_clean_sbu_0, # of connection points: 6
#     Node 15, Type 0, BuildingBlock: BETDEL_clean_sbu_0, # of connection points: 6
#     Edge 16, Type (0, 0), BuildingBlock: XIVTED_clean_linker_0, # of connection points: 2
#     Edge 17, Type (0, 0), BuildingBlock: XIVTED_clean_linker_0, # of connection points: 2
#     Edge 18, Type (0, 0), BuildingBlock: XIVTED_clean_linker_0, # of connection points: 2
#     Edge 19, Type (0, 0), BuildingBlock: XIVTED_clean_linker_0, # of connection points: 2
#     Edge 20, Type (0, 0), BuildingBlock: XIVTED_clean_linker_0, # of connection points: 2
#     Edge 21, Type (0, 0), BuildingBlock: XIVTED_clean_linker_0, # of connection points: 2
#     Edge 22, Type (0, 0), BuildingBlock: XIVTED_clean_linker_0, # of connection points: 2
#     Edge 23, Type (0, 0), BuildingBlock: XIVTED_clean_linker_0, # of connection points: 2
#     Edge 24, Type (0, 0), BuildingBlock: XIVTED_clean_linker_0, # of connection points: 2
#     Edge 25, Type (0, 0), BuildingBlock: XIVTED_clean_linker_0, # of connection points: 2
#     Edge 26, Type (0, 0), BuildingBlock: XIVTED_clean_linker_0, # of connection points: 2
#     Edge 27, Type (0, 0), BuildingBlock: XIVTED_clean_linker_0, # of connection points: 2
#     Edge 28, Type (0, 0), BuildingBlock: XIVTED_clean_linker_0, # of connection points: 2
#     Edge 29, Type (0, 0), BuildingBlock: XIVTED_clean_linker_0, # of connection points: 2
#     Edge 30, Type (0, 0), BuildingBlock: XIVTED_clean_linker_0, # of connection points: 2
#     Edge 31, Type (0, 0), BuildingBlock: XIVTED_clean_linker_0, # of connection points: 2
#     Edge 32, Type (0, 0), BuildingBlock: XIVTED_clean_linker_0, # of connection points: 2
#     Edge 33, Type (0, 0), BuildingBlock: XIVTED_clean_linker_0, # of connection points: 2
#     Edge 34, Type (0, 0), BuildingBlock: XIVTED_clean_linker_0, # of connection points: 2
#     Edge 35, Type (0, 0), BuildingBlock: XIVTED_clean_linker_0, # of connection points: 2
#     Edge 36, Type (0, 0), BuildingBlock: XIVTED_clean_linker_0, # of connection points: 2
#     Edge 37, Type (0, 0), BuildingBlock: XIVTED_clean_linker_0, # of connection points: 2
#     Edge 38, Type (0, 0), BuildingBlock: XIVTED_clean_linker_0, # of connection points: 2
#     Edge 39, Type (0, 0), BuildingBlock: XIVTED_clean_linker_0, # of connection points: 2
#     Edge 40, Type (0, 0), BuildingBlock: XIVTED_clean_linker_0, # of connection points: 2
#     Edge 41, Type (0, 0), BuildingBlock: XIVTED_clean_linker_0, # of connection points: 2
#     Edge 42, Type (0, 0), BuildingBlock: XIVTED_clean_linker_0, # of connection points: 2
#     Edge 43, Type (0, 0), BuildingBlock: XIVTED_clean_linker_0, # of connection points: 2
#     Edge 44, Type (0, 0), BuildingBlock: XIVTED_clean_linker_0, # of connection points: 2
#     Edge 45, Type (0, 0), BuildingBlock: XIVTED_clean_linker_0, # of connection points: 2
#     Edge 46, Type (0, 0), BuildingBlock: XIVTED_clean_linker_0, # of connection points: 2
#     Edge 47, Type (0, 0), BuildingBlock: XIVTED_clean_linker_0, # of connection points: 2
#     Edge 48, Type (0, 0), BuildingBlock: XIVTED_clean_linker_0, # of connection points: 2
#     Edge 49, Type (0, 0), BuildingBlock: XIVTED_clean_linker_0, # of connection points: 2
#     Edge 50, Type (0, 0), BuildingBlock: XIVTED_clean_linker_0, # of connection points: 2
#     Edge 51, Type (0, 0), BuildingBlock: XIVTED_clean_linker_0, # of connection points: 2
#     Edge 52, Type (0, 0), BuildingBlock: XIVTED_clean_linker_0, # of connection points: 2
#     Edge 53, Type (0, 0), BuildingBlock: XIVTED_clean_linker_0, # of connection points: 2
#     Edge 54, Type (0, 0), BuildingBlock: XIVTED_clean_linker_0, # of connection points: 2
#     Edge 55, Type (0, 0), BuildingBlock: XIVTED_clean_linker_0, # of connection points: 2
#     Edge 56, Type (0, 0), BuildingBlock: XIVTED_clean_linker_0, # of connection points: 2
#     Edge 57, Type (0, 0), BuildingBlock: XIVTED_clean_linker_0, # of connection points: 2
#     Edge 58, Type (0, 0), BuildingBlock: XIVTED_clean_linker_0, # of connection points: 2
#     Edge 59, Type (0, 0), BuildingBlock: XIVTED_clean_linker_0, # of connection points: 2
#     Edge 60, Type (0, 0), BuildingBlock: XIVTED_clean_linker_0, # of connection points: 2
#     Edge 61, Type (0, 0), BuildingBlock: XIVTED_clean_linker_0, # of connection points: 2
#     Edge 62, Type (0, 0), BuildingBlock: XIVTED_clean_linker_0, # of connection points: 2
#     Edge 63, Type (0, 0), BuildingBlock: XIVTED_clean_linker_0, # of connection points: 2
# Relax obj value: 0.216
# Max RMSD: 0.170
# Mean RMSD: 0.170
data_MOF--net-why--node1-BETDEL_clean_sbu_0--edge1-XIVTED_clean_linker_0
_symmetry_space_group_name_H-M    P1
_symmetry_Int_Tables_number       1
_symmetry_cell_setting            triclinic
loop_
_symmetry_equiv_pos_as_xyz
'x, y, z'
_cell_length_a     48.033211
_cell_length_b     48.045951
_cell_length_c     29.83774
_cell_angle_alpha  89.980523
_cell_angle_beta   89.788422
_cell_angle_gamma 89.918162
loop_
_atom_site_label
_atom_site_type_symbol
_atom_site_fract_x
_atom_site_fract_y
_atom_site_fract_z
_atom_type_partial_charge
Dy0 Dy 0.40879 0.17287 0.01787 0.0
C1 C 0.35366 0.21905 0.16558 0.0
C2 C 0.44028 0.15767 0.94577 0.0
Dy3 Dy 0.38374 0.20065 0.09361 0.0
O4 O 0.41611 0.16962 0.9436 0.0
O5 O 0.44703 0.15357 -0.01272 0.0
O6 O 0.39422 0.132 0.04229 0.0
O7 O 0.40717 0.16126 0.09044 0.0
C8 C 0.39695 0.13716 0.08462 0.0
C9 C 0.39264 0.23525 0.02519 0.0
O10 O 0.42878 0.20791 0.1115 0.0
O11 O 0.44207 0.20251 0.03825 0.0
O12 O 0.37485 0.23148 0.14796 0.0
O13 O 0.3496 0.19556 0.14517 0.0
O14 O 0.39415 0.2429 0.06657 0.0
O15 O 0.38415 0.21066 0.02239 0.0
O16 O 0.36567 0.1694 -0.0076 0.0
O17 O 0.34484 0.18429 0.05798 0.0
C18 C 0.44725 0.21167 0.079 0.0
C19 C 0.34308 0.17377 0.01677 0.0
Dy20 Dy 0.63631 0.66291 0.26378 0.0
C21 C 0.58744 0.59614 0.39265 0.0
C22 C 0.65198 0.69471 0.19266 0.0
Dy23 Dy 0.60769 0.63451 0.33461 0.0
O24 O 0.65503 0.70173 0.23431 0.0
O25 O 0.64076 0.67031 0.18997 0.0
O26 O 0.6774 0.64849 0.28778 0.0
O27 O 0.64696 0.65829 0.33618 0.0
C28 C 0.67147 0.64909 0.33013 0.0
C29 C 0.574 0.64656 0.26602 0.0
O30 O 0.59484 0.67746 0.35635 0.0
O31 O 0.60671 0.69586 0.28769 0.0
O32 O 0.5881 0.59397 0.34963 0.0
O33 O 0.59822 0.61974 0.40522 0.0
O34 O 0.566 0.64683 0.30746 0.0
O35 O 0.59874 0.63818 0.2632 0.0
O36 O 0.63978 0.62022 0.23562 0.0
O37 O 0.63323 0.59962 0.30413 0.0
C38 C 0.59425 0.69819 0.3271 0.0
C39 C 0.64001 0.59784 0.26119 0.0
Dy40 Dy 0.14394 0.88823 0.51424 0.0
C41 C 0.21093 0.83852 0.64265 0.0
C42 C 0.1118 0.90391 0.44344 0.0
Dy43 Dy 0.17266 0.8592 0.58479 0.0
O44 O 0.137 0.89446 0.44058 0.0
O45 O 0.10422 0.90529 0.48514 0.0
O46 O 0.15782 0.92925 0.53947 0.0
O47 O 0.14847 0.89826 0.58694 0.0
C48 C 0.1574 0.92289 0.58164 0.0
C49 C 0.16051 0.82573 0.51605 0.0
O50 O 0.12955 0.84572 0.60555 0.0
O51 O 0.11127 0.85839 0.53729 0.0
O52 O 0.21354 0.84009 0.59973 0.0
O53 O 0.18701 0.84876 0.65522 0.0
O54 O 0.16069 0.81758 0.55736 0.0
O55 O 0.16871 0.85051 0.51328 0.0
O56 O 0.18654 0.89101 0.4856 0.0
O57 O 0.20746 0.88477 0.55377 0.0
C58 C 0.1089 0.84544 0.57619 0.0
C59 C 0.20906 0.89136 0.51072 0.0
Dy60 Dy 0.9181 0.39566 0.76206 0.0
C61 C 0.96844 0.46244 0.88932 0.0
C62 C 0.90245 0.36321 0.6918 0.0
Dy63 Dy 0.94708 0.42408 0.83246 0.0
O64 O 0.9134 0.38772 0.68842 0.0
O65 O 0.89957 0.35651 0.73366 0.0
O66 O 0.87717 0.41079 0.78574 0.0
O67 O 0.90728 0.40107 0.83445 0.0
C68 C 0.88291 0.41058 0.8281 0.0
C69 C 0.98065 0.41084 0.764 0.0
O70 O 0.95961 0.38101 0.85436 0.0
O71 O 0.94702 0.36243 0.78633 0.0
O72 O 0.96789 0.46418 0.84625 0.0
O73 O 0.95682 0.43934 0.90261 0.0
O74 O 0.98857 0.41077 0.80538 0.0
O75 O 0.9561 0.41968 0.76109 0.0
O76 O 0.9156 0.43819 0.73315 0.0
O77 O 0.92232 0.45921 0.80123 0.0
C78 C 0.95969 0.36011 0.8254 0.0
C79 C 0.91567 0.46076 0.75829 0.0
Dy80 Dy 0.67202 0.85494 0.85845 0.0
C81 C 0.61446 0.89856 0.00534 0.0
C82 C 0.70195 0.83672 0.78626 0.0
Dy83 Dy 0.6466 0.88314 0.93421 0.0
O84 O 0.68063 0.82435 0.80364 0.0
O85 O 0.70623 0.86003 0.80711 0.0
O86 O 0.6631 0.8126 0.88688 0.0
O87 O 0.67146 0.84569 0.92996 0.0
C88 C 0.66379 0.8208 0.92808 0.0
C89 C 0.65877 0.91842 0.8672 0.0
O90 O 0.69 0.88692 0.95921 0.0
O91 O 0.71067 0.87202 0.89338 0.0
O92 O 0.60844 0.9032 0.96368 0.0
O93 O 0.6383 0.886 0.0082 0.0
O94 O 0.66137 0.92378 0.9095 0.0
O95 O 0.64845 0.89432 0.86154 0.0
O96 O 0.62713 0.84771 0.84033 0.0
O97 O 0.61362 0.85309 0.91349 0.0
C98 C 0.71252 0.88261 0.9345 0.0
C99 C 0.60859 0.84393 0.87267 0.0
Dy100 Dy 0.44941 0.4227 0.61729 0.0
C101 C 0.4138 0.36488 0.7686 0.0
C102 C 0.47106 0.46109 0.56089 0.0
Dy103 Dy 0.4201 0.39259 0.69037 0.0
O104 O 0.47121 0.46228 0.60405 0.0
O105 O 0.45866 0.4385 0.54727 0.0
O106 O 0.49007 0.40957 0.64695 0.0
O107 O 0.45629 0.41901 0.6889 0.0
C108 C 0.48106 0.41055 0.68783 0.0
C109 C 0.38421 0.39207 0.62176 0.0
O110 O 0.41272 0.43575 0.71481 0.0
O111 O 0.42419 0.45761 0.64834 0.0
O112 O 0.39448 0.37988 0.75 0.0
O113 O 0.43632 0.36503 0.74455 0.0
O114 O 0.37991 0.38074 0.66053 0.0
O115 O 0.40816 0.40334 0.62007 0.0
O116 O 0.46136 0.37936 0.59534 0.0
O117 O 0.44676 0.359 0.66153 0.0
C118 C 0.41443 0.45847 0.68996 0.0
C119 C 0.46039 0.35776 0.62305 0.0
Dy120 Dy 0.88189 0.19646 0.3672 0.0
C121 C 0.94332 0.1522 0.50895 0.0
C122 C 0.84348 0.21562 0.30804 0.0
Dy123 Dy 0.91079 0.16763 0.43857 0.0
O124 O 0.83976 0.21211 0.35045 0.0
O125 O 0.86863 0.20819 0.29673 0.0
O126 O 0.89259 0.2384 0.39493 0.0
O127 O 0.88568 0.20508 0.43868 0.0
C128 C 0.89327 0.23005 0.43613 0.0
C129 C 0.89712 0.1329 0.37145 0.0
O130 O 0.86816 0.16418 0.4671 0.0
O131 O 0.84724 0.17106 0.39891 0.0
O132 O 0.95014 0.14944 0.46709 0.0
O133 O 0.91863 0.1629 0.51225 0.0
O134 O 0.89672 0.12664 0.41367 0.0
O135 O 0.90622 0.15747 0.36591 0.0
O136 O 0.92498 0.21015 0.34686 0.0
O137 O 0.94319 0.19775 0.41533 0.0
C138 C 0.84568 0.16414 0.44185 0.0
C139 C 0.94553 0.21067 0.37639 0.0
Dy140 Dy 0.108 0.63164 0.119 0.0
C141 C 0.15282 0.69343 0.25908 0.0
C142 C 0.08685 0.59312 0.06224 0.0
Dy143 Dy 0.13721 0.66057 0.18935 0.0
O144 O 0.0875 0.59137 0.10531 0.0
O145 O 0.09825 0.61631 0.04891 0.0
O146 O 0.06647 0.64442 0.14669 0.0
O147 O 0.09943 0.63631 0.19045 0.0
C148 C 0.07472 0.64474 0.18791 0.0
C149 C 0.17204 0.6454 0.12305 0.0
O150 O 0.14015 0.61796 0.2182 0.0
O151 O 0.13309 0.59681 0.15022 0.0
O152 O 0.15641 0.69955 0.21713 0.0
O153 O 0.14122 0.66923 0.26286 0.0
O154 O 0.17802 0.64535 0.16533 0.0
O155 O 0.14764 0.65495 0.11694 0.0
O156 O 0.09533 0.67457 0.09688 0.0
O157 O 0.10798 0.69353 0.16468 0.0
C158 C 0.13996 0.59535 0.1931 0.0
C159 C 0.09522 0.69559 0.12562 0.0
Dy160 Dy 0.90983 0.67325 0.51552 0.0
C161 C 0.85364 0.72037 0.66043 0.0
C162 C 0.94208 0.65718 0.44495 0.0
Dy163 Dy 0.88413 0.70161 0.58917 0.0
O164 O 0.91727 0.66757 0.44174 0.0
O165 O 0.94912 0.65513 0.4867 0.0
O166 O 0.89534 0.6325 0.54027 0.0
O167 O 0.90763 0.66211 0.5883 0.0
C168 C 0.89763 0.63789 0.58257 0.0
C169 C 0.89275 0.7357 0.51921 0.0
O170 O 0.92879 0.70863 0.60863 0.0
O171 O 0.94256 0.70354 0.5357 0.0
O172 O 0.87517 0.73256 0.64337 0.0
O173 O 0.8494 0.69702 0.63975 0.0
O174 O 0.89355 0.74379 0.56045 0.0
O175 O 0.88489 0.71085 0.51736 0.0
O176 O 0.86687 0.66937 0.48933 0.0
O177 O 0.8457 0.68383 0.55479 0.0
C178 C 0.9475 0.71248 0.57663 0.0
C179 C 0.84419 0.67326 0.51369 0.0
Dy180 Dy 0.13347 0.1616 0.76811 0.0
C181 C 0.08513 0.10429 0.91227 0.0
C182 C 0.14881 0.19272 0.69563 0.0
Dy183 Dy 0.10461 0.13528 0.84196 0.0
O184 O 0.15203 0.20012 0.73709 0.0
O185 O 0.13768 0.1682 0.69385 0.0
O186 O 0.1743 0.14821 0.7945 0.0
O187 O 0.14349 0.15978 0.84132 0.0
C188 C 0.16811 0.15044 0.83663 0.0
C189 C 0.07121 0.14378 0.7715 0.0
O190 O 0.09657 0.17996 0.86102 0.0
O191 O 0.10283 0.19411 0.78837 0.0
O192 O 0.07282 0.12559 0.89478 0.0
O193 O 0.10905 0.10063 0.89273 0.0
O194 O 0.06266 0.14433 0.81258 0.0
O195 O 0.09621 0.13619 0.77006 0.0
O196 O 0.13855 0.11861 0.74254 0.0
O197 O 0.12303 0.09709 0.80708 0.0
C198 C 0.09308 0.19874 0.82903 0.0
C199 C 0.13431 0.09583 0.76634 0.0
Dy200 Dy 0.64436 0.38639 0.01698 0.0
C201 C 0.71204 0.33978 0.14751 0.0
C202 C 0.61173 0.40112 0.94643 0.0
Dy203 Dy 0.67334 0.35856 0.0885 0.0
O204 O 0.60488 0.40412 -0.01177 0.0
O205 O 0.63647 0.39053 0.94328 0.0
O206 O 0.65862 0.42775 0.03937 0.0
O207 O 0.64955 0.39796 0.08913 0.0
C208 C 0.65866 0.42239 0.08188 0.0
C209 C 0.66169 0.32421 0.02058 0.0
O210 O 0.6303 0.34501 0.10971 0.0
O211 O 0.61182 0.35671 0.0412 0.0
O212 O 0.71557 0.34305 0.10501 0.0
O213 O 0.68693 0.34726 0.15899 0.0
O214 O 0.66225 0.31632 0.06201 0.0
O215 O 0.66951 0.34904 0.01741 0.0
O216 O 0.6868 0.3895 -0.01227 0.0
O217 O 0.70797 0.38355 0.05588 0.0
C218 C 0.6096 0.34419 0.08046 0.0
C219 C 0.70936 0.39002 0.01276 0.0
Dy220 Dy 0.42159 0.89447 0.25915 0.0
C221 C 0.47076 0.96192 0.39083 0.0
C222 C 0.41638 0.86666 0.18085 0.0
Dy223 Dy 0.44971 0.92387 0.33345 0.0
O224 O 0.39687 0.8818 0.19879 0.0
O225 O 0.43855 0.86682 0.20546 0.0
O226 O 0.3808 0.88277 0.28709 0.0
O227 O 0.40817 0.90514 0.3291 0.0
C228 C 0.38414 0.89412 0.32603 0.0
C229 C 0.48265 0.91156 0.264 0.0
O230 O 0.46104 0.88037 0.35539 0.0
O231 O 0.44729 0.8605 0.28858 0.0
O232 O 0.47128 0.96344 0.3477 0.0
O233 O 0.45829 0.9392 0.40386 0.0
O234 O 0.49078 0.91027 0.30522 0.0
O235 O 0.45807 0.92048 0.26207 0.0
O236 O 0.41488 0.93775 0.23493 0.0
O237 O 0.4252 0.95906 0.30219 0.0
C238 C 0.46034 0.85894 0.32737 0.0
C239 C 0.41618 0.96026 0.26028 0.0
Dy240 Dy 0.17081 0.35421 0.36176 0.0
C241 C 0.11258 0.39926 0.50601 0.0
C242 C 0.2014 0.33507 0.29087 0.0
Dy243 Dy 0.14463 0.38312 0.43534 0.0
O244 O 0.17996 0.32289 0.30821 0.0
O245 O 0.20551 0.35862 0.31106 0.0
O246 O 0.16158 0.31216 0.39136 0.0
O247 O 0.16961 0.34564 0.43365 0.0
C248 C 0.16198 0.32071 0.43238 0.0
C249 C 0.15749 0.4179 0.36797 0.0
O250 O 0.18757 0.38705 0.46148 0.0
O251 O 0.20913 0.37217 0.39654 0.0
O252 O 0.10631 0.40316 0.46425 0.0
O253 O 0.13655 0.38702 0.50915 0.0
O254 O 0.15963 0.42355 0.41023 0.0
O255 O 0.14727 0.39372 0.36247 0.0
O256 O 0.12616 0.34686 0.34229 0.0
O257 O 0.11186 0.35295 0.41485 0.0
C258 C 0.2104 0.38295 0.43757 0.0
C259 C 0.10724 0.34344 0.37415 0.0
Dy260 Dy 0.95059 0.92066 0.11032 0.0
C261 C 0.9047 0.8634 0.25567 0.0
C262 C 0.97039 0.95133 0.0399 0.0
Dy263 Dy 0.92097 0.89486 0.18421 0.0
O264 O 0.98259 0.93006 0.05766 0.0
O265 O 0.94642 0.95512 0.0592 0.0
O266 O 0.99236 0.9119 0.14069 0.0
O267 O 0.95839 0.91994 0.1824 0.0
C268 C 0.98342 0.91245 0.18156 0.0
C269 C 0.8869 0.90658 0.11535 0.0
O270 O 0.91633 0.93805 0.20948 0.0
O271 O 0.93235 0.95907 0.14475 0.0
O272 O 0.91621 0.88771 0.25825 0.0
O273 O 0.90156 0.85645 0.214 0.0
O274 O 0.8806 0.90904 0.15739 0.0
O275 O 0.91135 0.89666 0.11089 0.0
O276 O 0.95881 0.87586 0.09221 0.0
O277 O 0.95174 0.8622 0.16492 0.0
C278 C 0.92091 0.96066 0.18537 0.0
C279 C 0.96197 0.85732 0.12463 0.0
Dy280 Dy 0.3829 0.69762 0.8646 0.0
C281 C 0.44325 0.65348 0.00723 0.0
C282 C 0.34453 0.71835 0.80704 0.0
Dy283 Dy 0.4111 0.66881 0.9364 0.0
O284 O 0.34244 0.71766 0.85009 0.0
O285 O 0.36802 0.70725 0.79415 0.0
O286 O 0.39611 0.73918 0.89053 0.0
O287 O 0.38696 0.70693 0.93577 0.0
C288 C 0.39583 0.73142 0.93202 0.0
C289 C 0.39649 0.63369 0.87038 0.0
O290 O 0.36853 0.66612 0.9651 0.0
O291 O 0.3477 0.6732 0.8969 0.0
O292 O 0.44972 0.6495 0.96548 0.0
O293 O 0.4191 0.66534 0.01022 0.0
O294 O 0.39604 0.6279 0.91277 0.0
O295 O 0.40616 0.65798 0.86407 0.0
O296 O 0.42627 0.7105 0.84392 0.0
O297 O 0.44447 0.69763 0.91219 0.0
C298 C 0.34606 0.66635 0.93987 0.0
C299 C 0.44696 0.71055 0.87328 0.0
Dy300 Dy 0.60737 0.13291 0.62027 0.0
C301 C 0.65165 0.19371 0.76163 0.0
C302 C 0.58737 0.0949 0.56159 0.0
Dy303 Dy 0.63604 0.16138 0.69134 0.0
O304 O 0.58795 0.09238 0.60457 0.0
O305 O 0.59814 0.11862 0.54946 0.0
O306 O 0.56556 0.1451 0.64766 0.0
O307 O 0.59834 0.1369 0.69173 0.0
C308 C 0.57357 0.14517 0.68901 0.0
C309 C 0.67133 0.14658 0.62543 0.0
O310 O 0.63898 0.11869 0.71968 0.0
O311 O 0.63234 0.0979 0.65134 0.0
O312 O 0.65517 0.20018 0.71979 0.0
O313 O 0.64003 0.1695 0.765 0.0
O314 O 0.67702 0.14631 0.66781 0.0
O315 O 0.647 0.1562 0.61902 0.0
O316 O 0.59455 0.17597 0.59891 0.0
O317 O 0.60661 0.19434 0.66738 0.0
C318 C 0.63906 0.09623 0.69425 0.0
C319 C 0.59403 0.19667 0.62822 0.0
H320 H 0.48102 0.23077 0.0129 0.0
H321 H 0.59293 0.31359 0.15586 0.0
H322 H 0.47042 0.23496 0.15659 0.0
H323 H 0.56948 0.33245 0.01954 0.0
H324 H 0.55317 0.28086 0.1603 0.0
H325 H 0.51943 0.26277 0.01788 0.0
C326 C 0.48687 0.23814 0.04585 0.0
C327 C 0.47223 0.22985 0.08448 0.0
C328 C 0.55681 0.29247 0.12974 0.0
C329 C 0.51701 0.26734 0.09023 0.0
C330 C 0.57944 0.31112 0.12714 0.0
C331 C 0.58475 0.32596 0.08729 0.0
C332 C 0.53989 0.2883 0.09192 0.0
C333 C 0.56653 0.32175 0.05113 0.0
C334 C 0.5089 0.25673 0.04854 0.0
C335 C 0.48109 0.24067 0.12594 0.0
N336 N 0.54533 0.30329 0.05425 0.0
N337 N 0.50303 0.25885 0.12781 0.0
H338 H 0.56801 0.71715 0.40505 0.0
H339 H 0.47048 0.81789 0.26705 0.0
H340 H 0.57768 0.73531 0.26408 0.0
H341 H 0.49156 0.84238 0.40211 0.0
H342 H 0.50305 0.77984 0.27197 0.0
H343 H 0.53478 0.75651 0.41083 0.0
C344 C 0.56342 0.72943 0.37555 0.0
C345 C 0.57584 0.72285 0.33406 0.0
C346 C 0.50046 0.79333 0.3008 0.0
C347 C 0.53762 0.7671 0.34032 0.0
C348 C 0.48159 0.81516 0.29827 0.0
C349 C 0.47802 0.8337 0.33432 0.0
C350 C 0.51599 0.78929 0.33986 0.0
C351 C 0.49354 0.82867 0.37351 0.0
C352 C 0.54454 0.75184 0.37894 0.0
C353 C 0.56896 0.73945 0.29691 0.0
N354 N 0.5119 0.80683 0.37533 0.0
N355 N 0.55022 0.76042 0.30088 0.0
H356 H 0.07012 0.83309 0.51352 0.0
H357 H 0.96824 0.73694 0.65473 0.0
H358 H 0.09108 0.81522 0.65127 0.0
H359 H 0.98384 0.72947 0.51256 0.0
H360 H 1.00791 0.76971 0.65962 0.0
H361 H 0.03197 0.8007 0.51827 0.0
C362 C 0.06662 0.82261 0.54518 0.0
C363 C 0.08412 0.82709 0.58212 0.0
C364 C 1.00259 0.76055 0.62763 0.0
C365 C 0.0397 0.78926 0.58756 0.0
C366 C 0.98002 0.74189 0.62478 0.0
C367 C 0.97255 0.7303 0.58319 0.0
C368 C 1.0172 0.76798 0.58847 0.0
C369 C 0.98855 0.73763 0.54547 0.0
C370 C 0.04475 0.80384 0.54769 0.0
C371 C 0.07819 0.81245 0.62195 0.0
N372 N 1.00973 0.75605 0.54901 0.0
N373 N 0.05636 0.79414 0.62371 0.0
H374 H 0.97144 0.3202 0.76388 0.0
H375 H 0.06831 0.22012 0.90681 0.0
H376 H 0.98984 0.343 0.90067 0.0
H377 H 0.07544 0.234 0.76416 0.0
H378 H 0.0352 0.25967 0.91094 0.0
H379 H 1.00376 0.28191 0.7694 0.0
C380 C 0.982 0.31707 0.7955 0.0
C381 C 0.97772 0.33513 0.83192 0.0
C382 C 0.04435 0.25399 0.87902 0.0
C383 C 1.01542 0.29056 0.83826 0.0
C384 C 0.06319 0.23149 0.8766 0.0
C385 C 0.07484 0.2236 0.83512 0.0
C386 C 0.03677 0.26808 0.83954 0.0
C387 C 0.06729 0.23907 0.79703 0.0
C388 C 1.00072 0.29512 0.79845 0.0
C389 C 0.99244 0.32966 0.87174 0.0
N390 N 0.0487 0.26018 0.80018 0.0
N391 N 1.01069 0.30776 0.87394 0.0
H392 H 0.5872 0.81973 0.79478 0.0
H393 H 0.48521 0.72346 0.9366 0.0
H394 H 0.57289 0.8263 0.93738 0.0
H395 H 0.46529 0.74056 0.79821 0.0
H396 H 0.52331 0.75596 0.93221 0.0
H397 H 0.54753 0.78695 0.79028 0.0
C398 C 0.5757 0.81458 0.82493 0.0
C399 C 0.58353 0.82598 0.86649 0.0
C400 C 0.51079 0.75263 0.90257 0.0
C401 C 0.53881 0.78822 0.86164 0.0
C402 C 0.48895 0.73376 0.90486 0.0
C403 C 0.47177 0.72897 0.8676 0.0
C404 C 0.51616 0.767 0.86259 0.0
C405 C 0.47795 0.7435 0.82775 0.0
C406 C 0.55312 0.7959 0.8223 0.0
C407 C 0.56787 0.81834 0.90446 0.0
N408 N 0.49975 0.76186 0.82619 0.0
N409 N 0.54666 0.79991 0.90111 0.0
H410 H 0.49209 0.34186 0.5483 0.0
H411 H 0.57683 0.23288 0.69224 0.0
H412 H 0.47036 0.31639 0.68284 0.0
H413 H 0.56827 0.21661 0.55059 0.0
H414 H 0.54425 0.27103 0.68571 0.0
H415 H 0.52507 0.30219 0.54434 0.0
C416 C 0.49391 0.32791 0.57664 0.0
C417 C 0.47822 0.33264 0.61589 0.0
C418 C 0.54955 0.25928 0.65587 0.0
C419 C 0.51624 0.28804 0.61193 0.0
C420 C 0.56841 0.23747 0.65942 0.0
C421 C 0.57554 0.22132 0.62183 0.0
C422 C 0.53764 0.26565 0.6143 0.0
C423 C 0.56341 0.22846 0.58045 0.0
C424 C 0.51271 0.30535 0.57433 0.0
C425 C 0.48169 0.31387 0.65168 0.0
N426 N 0.54506 0.25025 0.57767 0.0
N427 N 0.50042 0.29284 0.64897 0.0
H428 H 0.98431 0.22328 0.43896 0.0
H429 H 0.08634 0.31866 0.29633 0.0
H430 H 0.96339 0.24057 0.30101 0.0
H431 H 0.0711 0.32651 0.43855 0.0
H432 H 0.0466 0.28592 0.29194 0.0
H433 H 1.02259 0.25551 0.43378 0.0
C434 C 0.98783 0.23361 0.40718 0.0
C435 C 0.97031 0.22901 0.37031 0.0
C436 C 0.05202 0.29515 0.32383 0.0
C437 C 1.01489 0.26666 0.36436 0.0
C438 C 0.07463 0.3138 0.3264 0.0
C439 C 0.08221 0.32552 0.36784 0.0
C440 C 0.03749 0.28786 0.36314 0.0
C441 C 0.0663 0.31828 0.40572 0.0
C442 C 1.00979 0.25229 0.40442 0.0
C443 C 0.97629 0.24344 0.3303 0.0
N444 N 0.04508 0.29988 0.40245 0.0
N445 N 0.99818 0.26166 0.32828 0.0
H446 H 0.06504 0.71187 0.05008 0.0
H447 H 0.98019 0.82353 0.19109 0.0
H448 H 0.08348 0.73617 0.18614 0.0
H449 H 0.98662 0.8345 0.0477 0.0
H450 H 1.01262 0.78529 0.18677 0.0
H451 H 0.03224 0.75155 0.04511 0.0
C452 C 0.06248 0.72556 0.07862 0.0
C453 C 0.0772 0.72053 0.11856 0.0
C454 C 1.00697 0.79589 0.15606 0.0
C455 C 0.03944 0.76526 0.11334 0.0
C456 C 0.98816 0.8178 0.15836 0.0
C457 C 0.98041 0.8325 0.1196 0.0
C458 C 1.0183 0.78797 0.11464 0.0
C459 C 0.99193 0.82381 0.07843 0.0
C460 C 0.04379 0.74814 0.07572 0.0
C461 C 0.07287 0.73896 0.15451 0.0
N462 N 1.0103 0.80197 0.07693 0.0
N463 N 0.05433 0.76012 0.15113 0.0
H464 H 0.16977 0.17608 0.92091 0.0
H465 H 0.33394 0.14794 0.93722 0.0
H466 H 0.21856 0.12679 0.82881 0.0
H467 H 0.28959 0.18782 0.04574 0.0
H468 H 0.29049 0.141 0.8985 0.0
H469 H 0.2114 0.18083 0.96912 0.0
C470 C 0.18901 0.16595 0.91117 0.0
C471 C 0.19073 0.15114 0.87056 0.0
C472 C 0.28996 0.15112 0.93091 0.0
C473 C 0.23821 0.15674 0.92495 0.0
C474 C 0.31499 0.15516 0.95323 0.0
C475 C 0.31564 0.16847 -0.00489 0.0
C476 C 0.26488 0.16048 0.95004 0.0
C477 C 0.29011 0.17732 0.01366 0.0
C478 C 0.21276 0.16878 0.93853 0.0
C479 C 0.21622 0.13858 0.85952 0.0
N480 N 0.26573 0.1733 -0.0091 0.0
N481 N 0.23876 0.14182 0.88619 0.0
H482 H 0.68257 0.47207 0.06835 0.0
H483 H 0.63064 0.54512 0.2953 0.0
H484 H 0.6373 0.4261 0.16905 0.0
H485 H 0.66169 0.58792 0.17822 0.0
H486 H 0.63714 0.50046 0.25593 0.0
H487 H 0.68007 0.51333 0.11483 0.0
C488 C 0.67228 0.47059 0.10065 0.0
C489 C 0.65996 0.44561 0.1146 0.0
C490 C 0.64268 0.51967 0.23914 0.0
C491 C 0.65678 0.49336 0.16856 0.0
C492 C 0.63915 0.54514 0.26164 0.0
C493 C 0.6458 0.57038 0.24017 0.0
C494 C 0.65317 0.51948 0.19507 0.0
C495 C 0.65634 0.56913 0.19632 0.0
C496 C 0.67076 0.49429 0.12722 0.0
C497 C 0.6471 0.44496 0.15702 0.0
N498 N 0.65967 0.54425 0.17544 0.0
N499 N 0.64564 0.46863 0.18249 0.0
H500 H 0.3305 0.89276 0.30308 0.0
H501 H 0.26232 0.88814 0.54651 0.0
H502 H 0.38261 0.90216 0.41955 0.0
H503 H 0.21838 0.90507 0.42352 0.0
H504 H 0.30675 0.89147 0.50488 0.0
H505 H 0.28971 0.89464 0.35017 0.0
C506 C 0.33341 0.8953 0.33885 0.0
C507 C 0.36015 0.89724 0.35725 0.0
C508 C 0.28733 0.89477 0.48736 0.0
C509 C 0.31267 0.89936 0.41241 0.0
C510 C 0.26197 0.89293 0.51105 0.0
C511 C 0.23645 0.89629 0.48857 0.0
C512 C 0.28702 0.89971 0.44089 0.0
C513 C 0.23732 0.90225 0.44254 0.0
C514 C 0.30991 0.89649 0.36588 0.0
C515 C 0.36236 0.90071 0.40394 0.0
N516 N 0.262 0.90353 0.42046 0.0
N517 N 0.33883 0.9014 0.43015 0.0
H518 H 0.92084 0.63459 0.66837 0.0
H519 H 0.89492 0.47011 0.6749 0.0
H520 H 0.8739 0.58791 0.57107 0.0
H521 H 0.92492 0.51375 0.7915 0.0
H522 H 0.88911 0.51424 0.6367 0.0
H523 H 0.9238 0.59212 0.71525 0.0
C524 C 0.91088 0.61563 0.65719 0.0
C525 C 0.89728 0.61473 0.61555 0.0
C526 C 0.89672 0.51439 0.67081 0.0
C527 C 0.90086 0.56637 0.66832 0.0
C528 C 0.90006 0.48904 0.69274 0.0
C529 C 0.91021 0.48811 0.73671 0.0
C530 C 0.90375 0.53934 0.69255 0.0
C531 C 0.91673 0.51351 0.75776 0.0
C532 C 0.91266 0.59143 0.68379 0.0
C533 C 0.88483 0.5896 0.60263 0.0
N534 N 0.91354 0.53814 0.73539 0.0
N535 N 0.88712 0.56658 0.62856 0.0
H536 H 0.76521 0.86699 0.905 0.0
H537 H 0.83812 0.93348 0.12157 0.0
H538 H 0.72296 0.90985 0.01267 0.0
H539 H 0.88351 0.8789 0.03282 0.0
H540 H 0.7974 0.92904 0.0745 0.0
H541 H 0.80978 0.87431 0.94423 0.0
C542 C 0.76527 0.87812 0.93656 0.0
C543 C 0.74018 0.88787 0.95541 0.0
C544 C 0.81619 0.91808 0.06479 0.0
C545 C 0.79101 0.89629 0.00031 0.0
C546 C 0.83962 0.92073 0.0917 0.0
C547 C 0.86429 0.90644 0.08139 0.0
C548 C 0.81703 0.90091 0.02675 0.0
C549 C 0.86492 0.89034 0.04199 0.0
C550 C 0.79071 0.88217 0.95899 0.0
C551 C 0.74158 0.90191 -0.0034 0.0
N552 N 0.8415 0.88781 0.01619 0.0
N553 N 0.76638 0.90565 0.0174 0.0
H554 H 0.4189 0.63116 0.78399 0.0
H555 H 0.3886 0.46733 0.7702 0.0
H556 H 0.37236 0.58372 0.88134 0.0
H557 H 0.42659 0.51169 0.66009 0.0
H558 H 0.38222 0.51103 0.80953 0.0
H559 H 0.42129 0.58933 0.73582 0.0
C560 C 0.40884 0.61216 0.79489 0.0
C561 C 0.39552 0.61086 0.83687 0.0
C562 C 0.39172 0.51144 0.77657 0.0
C563 C 0.3984 0.56314 0.7825 0.0
C564 C 0.39534 0.48633 0.75393 0.0
C565 C 0.40799 0.48569 0.71149 0.0
C566 C 0.40096 0.53644 0.75711 0.0
C567 C 0.41646 0.51119 0.69255 0.0
C568 C 0.41033 0.58828 0.76755 0.0
C569 C 0.38302 0.58567 0.84946 0.0
N570 N 0.41297 0.53553 0.7156 0.0
N571 N 0.38493 0.56294 0.82269 0.0
H572 H 0.72093 0.12202 0.63718 0.0
H573 H 0.79276 0.17431 0.40927 0.0
H574 H 0.67461 0.16838 0.53859 0.0
H575 H 0.83615 0.14202 0.52454 0.0
H576 H 0.74833 0.16813 0.4497 0.0
H577 H 0.76187 0.12427 0.58964 0.0
C578 C 0.7193 0.1325 0.60512 0.0
C579 C 0.69432 0.14519 0.59208 0.0
C580 C 0.76761 0.16224 0.46585 0.0
C581 C 0.7417 0.14809 0.53688 0.0
C582 C 0.79296 0.16558 0.44274 0.0
C583 C 0.8183 0.15849 0.46339 0.0
C584 C 0.76766 0.15151 0.50971 0.0
C585 C 0.81728 0.1477 0.50705 0.0
C586 C 0.74282 0.13388 0.57793 0.0
C587 C 0.69348 0.15829 0.54993 0.0
N588 N 0.79252 0.14457 0.52854 0.0
N589 N 0.71696 0.1596 0.52385 0.0
H590 H 0.13333 0.42164 0.28288 0.0
H591 H 0.16133 0.58574 0.27611 0.0
H592 H 0.1827 0.46722 0.37837 0.0
H593 H 0.13007 0.54251 0.15999 0.0
H594 H 0.16715 0.54143 0.314 0.0
H595 H 0.13055 0.4642 0.23622 0.0
C596 C 0.1439 0.44036 0.29367 0.0
C597 C 0.15811 0.44094 0.33477 0.0
C598 C 0.15925 0.54143 0.28005 0.0
C599 C 0.15469 0.48944 0.2823 0.0
C600 C 0.15592 0.56687 0.25832 0.0
C601 C 0.14543 0.56795 0.21457 0.0
C602 C 0.15185 0.51657 0.25833 0.0
C603 C 0.13855 0.54264 0.19355 0.0
C604 C 0.1422 0.46463 0.2672 0.0
C605 C 0.17129 0.46579 0.34722 0.0
N606 N 0.14171 0.51795 0.21572 0.0
N607 N 0.16905 0.48891 0.32147 0.0
H608 H 0.72156 0.625 0.32041 0.0
H609 H 0.791 0.68676 0.54341 0.0
H610 H 0.67361 0.67302 0.41533 0.0
H611 H 0.835 0.64707 0.43435 0.0
H612 H 0.74689 0.6789 0.5032 0.0
H613 H 0.762 0.6291 0.36825 0.0
C614 C 0.71948 0.63622 0.35175 0.0
C615 C 0.6942 0.64881 0.36368 0.0
C616 C 0.76625 0.67184 0.48837 0.0
C617 C 0.74098 0.65396 0.41915 0.0
C618 C 0.79141 0.67622 0.51134 0.0
C619 C 0.81684 0.66756 0.49234 0.0
C620 C 0.76662 0.65855 0.44634 0.0
C621 C 0.81608 0.65419 0.45053 0.0
C622 C 0.7427 0.63867 0.37912 0.0
C623 C 0.69274 0.66296 0.40489 0.0
N624 N 0.79155 0.65018 0.42917 0.0
N625 N 0.71595 0.66538 0.43109 0.0
H626 H 0.16156 0.0875 0.68756 0.0
H627 H 0.13355 0.92366 0.6671 0.0
H628 H 0.12037 0.0422 0.79368 0.0
H629 H 0.18062 0.97345 0.57354 0.0
H630 H 0.12932 0.96478 0.7166 0.0
H631 H 0.16896 0.04443 0.64765 0.0
C632 C 0.15419 0.06841 0.70281 0.0
C633 C 0.14032 0.06866 0.7443 0.0
C634 C 0.14079 0.96649 0.68542 0.0
C635 C 0.14879 1.01842 0.69789 0.0
C636 C 0.14334 0.94303 0.65734 0.0
C637 C 0.15735 0.94522 0.616 0.0
C638 C 0.15238 0.99208 0.67187 0.0
C639 C 0.16947 0.97082 0.60487 0.0
C640 C 0.15847 0.04362 0.6798 0.0
C641 C 0.13128 0.04301 0.76191 0.0
N642 N 0.16656 0.9931 0.63233 0.0
N643 N 0.13553 1.01888 0.73848 0.0
H644 H 0.76254 0.38089 0.04507 0.0
H645 H 0.8328 0.43416 0.81652 0.0
H646 H 0.71825 0.41175 0.92966 0.0
H647 H 0.88022 0.38873 0.91488 0.0
H648 H 0.79201 0.43108 0.86426 0.0
H649 H 0.80674 0.38779 0.00429 0.0
C650 C 0.76209 0.38943 0.01148 0.0
C651 C 0.73658 0.39592 -0.0091 0.0
C652 C 0.81127 0.42186 0.87586 0.0
C653 C 0.78694 0.40375 0.94421 0.0
C654 C 0.8347 0.42372 0.84857 0.0
C655 C 0.85995 0.41153 0.8615 0.0
C656 C 0.81275 0.40768 0.91691 0.0
C657 C 0.86113 0.39844 0.90363 0.0
C658 C 0.78731 0.39319 -0.01182 0.0
C659 C 0.73728 0.40651 0.94709 0.0
N660 N 0.83774 0.39666 0.92982 0.0
N661 N 0.76191 0.41007 0.92544 0.0
H662 H 0.39112 0.96977 0.17995 0.0
H663 H 0.42121 0.13362 0.16942 0.0
H664 H 0.42806 1.01315 0.29151 0.0
H665 H 0.37248 0.08741 0.07387 0.0
H666 H 0.42417 0.09127 0.21643 0.0
H667 H 0.38482 1.01385 0.14174 0.0
C668 C 0.39766 0.98863 0.19675 0.0
C669 C 0.40996 0.98763 0.23927 0.0
C670 C 0.41264 0.09063 0.18534 0.0
C671 C 0.403 0.03878 0.19501 0.0
C672 C 0.41085 0.11478 0.15867 0.0
C673 C 0.39672 0.11397 0.1175 0.0
C674 C 0.40024 0.06573 0.17049 0.0
C675 C 0.3838 0.089 0.10509 0.0
C676 C 0.39407 1.01395 0.17478 0.0
C677 C 0.41819 1.01295 0.25896 0.0
N678 N 0.38604 0.06601 0.13115 0.0
N679 N 0.41473 0.03751 0.23655 0.0
H680 H 0.21855 0.40287 0.52167 0.0
H681 H 0.38522 0.39364 0.52776 0.0
H682 H 0.26437 0.37461 0.40545 0.0
H683 H 0.3303 0.39672 0.6423 0.0
H684 H 0.34373 0.39355 0.47823 0.0
H685 H 0.26173 0.4082 0.56173 0.0
C686 C 0.23774 0.39792 0.50423 0.0
C687 C 0.2376 0.38809 0.45994 0.0
C688 C 0.341 0.39441 0.51424 0.0
C689 C 0.28795 0.39411 0.50662 0.0
C690 C 0.36458 0.39468 0.54238 0.0
C691 C 0.36115 0.39508 0.5892 0.0
C692 C 0.31412 0.3951 0.53339 0.0
C693 C 0.334 0.39616 0.60648 0.0
C694 C 0.26258 0.40092 0.5274 0.0
C695 C 0.26346 0.38217 0.43959 0.0
N696 N 0.31177 0.39616 0.57877 0.0
N697 N 0.28768 0.38515 0.46317 0.0
H698 H 0.8721 0.08327 0.37954 0.0
H699 H 0.93615 1.01367 0.15732 0.0
H700 H 0.92189 0.13083 0.28665 0.0
H701 H 0.89293 0.97017 0.26329 0.0
H702 H 0.92842 0.05775 0.19804 0.0
H703 H 0.87609 0.04304 0.33096 0.0
C704 C 0.88368 0.08532 0.34847 0.0
C705 C 0.89677 0.11043 0.33733 0.0
C706 C 0.92054 0.03851 0.21205 0.0
C707 C 0.90183 0.06385 0.28102 0.0
C708 C 0.92484 1.01337 0.18878 0.0
C709 C 0.91516 0.98808 0.20677 0.0
C710 C 0.90633 0.03827 0.2534 0.0
C711 C 0.90085 0.98898 0.24787 0.0
C712 C 0.88607 0.06221 0.32067 0.0
C713 C 0.91141 0.11184 0.29645 0.0
N714 N 0.89697 1.01348 0.26956 0.0
N715 N 0.91378 0.08874 0.26985 0.0
H716 H 0.22159 0.62052 0.13343 0.0
H717 H 0.29306 0.67666 0.9076 0.0
H718 H 0.17502 0.66839 0.03704 0.0
H719 H 0.33666 0.64343 0.02199 0.0
H720 H 0.24865 0.66959 0.94775 0.0
H721 H 0.26246 0.62368 0.08584 0.0
C722 C 0.21989 0.63149 0.10181 0.0
C723 C 0.19487 0.64434 0.08941 0.0
C724 C 0.26798 0.66371 0.96377 0.0
C725 C 0.24217 0.64834 0.03424 0.0
C726 C 0.29331 0.66758 0.94082 0.0
C727 C 0.31869 0.66048 0.96131 0.0
C728 C 0.2681 0.65242 0.00727 0.0
C729 C 0.31774 0.64918 0.00465 0.0
C730 C 0.24337 0.6334 0.07462 0.0
C731 C 0.19392 0.65813 0.04784 0.0
N732 N 0.29301 0.64553 0.02595 0.0
N733 N 0.21737 0.65997 0.02177 0.0
H734 H 0.66054 0.08654 0.77709 0.0
H735 H 0.63431 0.92223 0.78244 0.0
H736 H 0.62973 0.04343 0.66052 0.0
H737 H 0.68356 0.96794 0.87792 0.0
H738 H 0.631 0.96489 0.73614 0.0
H739 H 0.66689 0.04216 0.81448 0.0
C740 C 0.65533 0.06768 0.75909 0.0
C741 C 0.6448 0.06881 0.71538 0.0
C742 C 0.64274 0.96533 0.76704 0.0
C743 C 0.65187 1.01736 0.75856 0.0
C744 C 0.64473 0.94101 0.7933 0.0
C745 C 0.65906 0.94161 0.8343 0.0
C746 C 0.65506 0.9902 0.78225 0.0
C747 C 0.67207 0.96652 0.84686 0.0
C748 C 0.65899 0.04221 0.78054 0.0
C749 C 0.63821 0.04352 0.69408 0.0
N750 N 0.66955 0.98968 0.8213 0.0
N751 N 0.64169 1.01878 0.71598 0.0
H752 H 0.42831 0.16428 0.85722 0.0
H753 H 0.58542 0.13734 0.77759 0.0
H754 H 0.49452 0.14124 0.94725 0.0
H755 H 0.51827 0.15714 0.68734 0.0
H756 H 0.55249 0.13859 0.84037 0.0
H757 H 0.46082 0.16069 0.79422 0.0
C758 C 0.44967 0.15823 0.86359 0.0
C759 C 0.45885 0.15303 0.9073 0.0
C760 C 0.54495 0.14264 0.80684 0.0
C761 C 0.49619 0.14929 0.83576 0.0
C762 C 0.56373 0.14202 0.77109 0.0
C763 C 0.55441 0.14705 0.72737 0.0
C764 C 0.51673 0.14839 0.79869 0.0
C765 C 0.5262 0.15306 0.72062 0.0
C766 C 0.46823 0.15628 0.82771 0.0
C767 C 0.48667 0.14533 0.91392 0.0
N768 N 0.50832 0.15353 0.75593 0.0
N769 N 0.50445 0.14384 0.8785 0.0
H770 H 0.6681 0.74906 0.19361 0.0
H771 H 0.65232 0.76552 0.92791 0.0
H772 H 0.64683 0.68172 0.10455 0.0
H773 H 0.67266 0.83368 0.01594 0.0
H774 H 0.65161 0.7342 -0.00765 0.0
H775 H 0.67203 0.78017 0.12886 0.0
C776 C 0.66458 0.74082 0.16032 0.0
C777 C 0.65711 0.71293 0.15415 0.0
C778 C 0.65627 0.75599 -0.00234 0.0
C779 C 0.6613 0.74817 0.08031 0.0
C780 C 0.65663 0.77383 0.96091 0.0
C781 C 0.66263 0.80207 0.96682 0.0
C782 C 0.66191 0.76654 0.04058 0.0
C783 C 0.66797 0.81195 0.01013 0.0
C784 C 0.66669 0.75854 0.12345 0.0
C785 C 0.6526 0.70317 0.11057 0.0
N786 N 0.6675 0.79416 0.04548 0.0
N787 N 0.65467 0.72082 0.07527 0.0
H788 H 0.96915 0.92054 0.26945 0.0
H789 H 0.12584 0.90187 0.35521 0.0
H790 H 0.03916 0.90322 0.18281 0.0
H791 H 0.05625 0.91589 0.4442 0.0
H792 H 0.09445 0.90509 0.29128 0.0
H793 H 1.00063 0.92074 0.33392 0.0
C794 C 0.99115 0.91675 0.26409 0.0
C795 C 1.0017 0.91191 0.22091 0.0
C796 C 0.086 0.90761 0.32474 0.0
C797 C 0.03769 0.91225 0.29408 0.0
C798 C 0.10394 0.90589 0.36119 0.0
C799 C 0.09352 0.90861 0.40486 0.0
C800 C 0.05742 0.91194 0.33207 0.0
C801 C 0.06503 0.91375 0.41091 0.0
C802 C 1.00909 0.91693 0.3008 0.0
C803 C 0.03027 0.9071 0.21562 0.0
N804 N 0.04788 0.9151 0.37485 0.0
N805 N 0.04729 0.90742 0.25179 0.0
H806 H 0.88563 0.21763 0.52471 0.0
H807 H 0.90722 0.37536 0.60318 0.0
H808 H 0.90388 0.28549 0.43456 0.0
H809 H 0.88803 0.30839 0.6945 0.0
H810 H 0.90435 0.34277 0.54063 0.0
H811 H 0.88579 0.25042 0.58754 0.0
C812 C 0.88975 0.23943 0.51825 0.0
C813 C 0.89464 0.24901 0.47456 0.0
C814 C 0.90061 0.33518 0.57429 0.0
C815 C 0.89472 0.28648 0.54583 0.0
C816 C 0.90213 0.3538 0.60993 0.0
C817 C 0.89786 0.34443 0.65385 0.0
C818 C 0.89496 0.30699 0.58276 0.0
C819 C 0.89139 0.31635 0.66096 0.0
C820 C 0.88975 0.25812 0.55401 0.0
C821 C 0.89991 0.27735 0.46782 0.0
N822 N 0.89029 0.29852 0.62572 0.0
N823 N 0.89977 0.29513 0.50311 0.0
H824 H 0.56097 0.9174 0.0023 0.0
H825 H 0.53645 0.89477 0.26528 0.0
H826 H 0.62443 0.88939 0.09381 0.0
H827 H 0.47178 0.92224 0.17551 0.0
H828 H 0.56889 0.89288 0.20236 0.0
H829 H 0.52807 0.9205 0.06501 0.0
C830 C 0.56801 0.91221 0.03573 0.0
C831 C 0.59536 0.90315 0.04312 0.0
C832 C 0.54763 0.89932 0.19626 0.0
C833 C 0.55797 0.90636 0.11467 0.0
C834 C 0.5291 0.90034 0.23217 0.0
C835 C 0.50155 0.90884 0.22546 0.0
C836 C 0.53852 0.90686 0.15327 0.0
C837 C 0.49296 0.91567 0.18197 0.0
C838 C 0.54923 0.91384 0.07142 0.0
C839 C 0.60349 0.89648 0.08683 0.0
N840 N 0.51146 0.91462 0.1474 0.0
N841 N 0.58483 0.89816 0.12097 0.0
H842 H 0.45417 0.34794 0.82554 0.0
H843 H 0.36603 0.23278 0.9448 0.0
H844 H 0.36574 0.34321 0.802 0.0
H845 H 0.42563 0.28059 0.02029 0.0
H846 H 0.37023 0.26641 0.88296 0.0
H847 H 0.44863 0.31653 0.88982 0.0
C848 C 0.4336 0.34038 0.8342 0.0
C849 C 0.41031 0.34807 0.80898 0.0
C850 C 0.38226 0.26944 0.91321 0.0
C851 C 0.40407 0.31196 0.88083 0.0
C852 C 0.38005 0.25031 0.94812 0.0
C853 C 0.39542 0.2543 -0.01262 0.0
C854 C 0.40056 0.29199 0.91747 0.0
C855 C 0.4133 0.27716 -0.00953 0.0
C856 C 0.43048 0.3226 0.87067 0.0
C857 C 0.38408 0.3378 0.82112 0.0
N858 N 0.41565 0.29512 0.95562 0.0
N859 N 0.38167 0.31982 0.85603 0.0
H860 H 1.01588 0.1548 0.7719 0.0
H861 H 0.99814 0.13726 0.50669 0.0
H862 H 0.08406 0.1343 0.6833 0.0
H863 H 0.93094 0.15719 0.59749 0.0
H864 H 0.02986 0.1342 0.57067 0.0
H865 H 0.98437 0.15465 0.70803 0.0
C866 C 1.02418 0.15028 0.73887 0.0
C867 C 0.0525 0.14448 0.73272 0.0
C868 C 1.00814 0.13904 0.57662 0.0
C869 C 1.01664 0.14423 0.65941 0.0
C870 C 0.99005 0.14066 0.54019 0.0
C871 C 0.962 0.14751 0.54704 0.0
C872 C 0.99797 0.14432 0.62003 0.0
C873 C 0.95248 0.15189 0.59088 0.0
C874 C 1.0062 0.15015 0.70242 0.0
C875 C 0.06228 0.13885 0.68932 0.0
N876 N 0.97047 0.15032 0.62572 0.0
N877 N 0.04433 0.13885 0.6542 0.0
H878 H 0.1474 0.77093 0.51858 0.0
H879 H 0.16925 0.74765 0.25519 0.0
H880 H 0.17035 0.83684 0.42747 0.0
H881 H 0.14574 0.68276 0.34778 0.0
H882 H 0.17156 0.7805 0.31782 0.0
H883 H 0.14744 0.73822 0.45611 0.0
C884 C 0.15239 0.77848 0.48529 0.0
C885 C 0.15901 0.80648 0.47802 0.0
C886 C 0.16609 0.75904 0.32447 0.0
C887 C 0.15923 0.76927 0.40641 0.0
C888 C 0.16493 0.7403 0.28883 0.0
C889 C 0.15729 0.71259 0.29657 0.0
C890 C 0.15956 0.74986 0.36797 0.0
C891 C 0.15169 0.70402 0.34053 0.0
C892 C 0.15248 0.75982 0.44965 0.0
C893 C 0.16519 0.81532 0.43433 0.0
N894 N 0.15285 0.72264 0.37461 0.0
N895 N 0.16521 0.79671 0.40006 0.0
H896 H 0.92919 0.65803 0.35625 0.0
H897 H 0.08754 0.64013 0.27668 0.0
H898 H 0.99756 0.64586 0.44757 0.0
H899 H 1.01888 0.65364 0.18637 0.0
H900 H 0.05495 0.64126 0.33991 0.0
H901 H 0.96167 0.65435 0.29328 0.0
C902 C 0.95105 0.65436 0.36292 0.0
C903 C 0.96084 0.65225 0.40692 0.0
C904 C 0.04702 0.64396 0.30626 0.0
C905 C 0.99809 0.64849 0.33541 0.0
C906 C 0.0656 0.64341 0.27026 0.0
C907 C 0.05576 0.64673 0.22642 0.0
C908 C 1.01847 0.64781 0.29818 0.0
C909 C 1.02723 0.65095 0.21975 0.0
C910 C 0.96959 0.65237 0.32706 0.0
C911 C 0.98926 0.64749 0.41398 0.0
N912 N 1.00954 0.65131 0.25529 0.0
N913 N 1.00699 0.64594 0.37852 0.0
H914 H 0.14373 0.17897 0.60757 0.0
H915 H 0.17007 0.3344 0.52027 0.0
H916 H 0.16432 0.24731 0.69503 0.0
H917 H 0.15109 0.26521 0.43355 0.0
H918 H 0.16884 0.30288 0.58477 0.0
H919 H 0.1479 0.21011 0.54313 0.0
C920 C 0.14936 0.20052 0.6131 0.0
C921 C 0.1537 0.21067 0.65651 0.0
C922 C 0.16499 0.29458 0.55164 0.0
C923 C 0.15816 0.24649 0.58317 0.0
C924 C 0.16562 0.31256 0.51489 0.0
C925 C 0.16073 0.30227 0.47166 0.0
C926 C 0.15937 0.26619 0.545 0.0
C927 C 0.15504 0.27389 0.4664 0.0
C928 C 0.15166 0.21831 0.57636 0.0
C929 C 0.1609 0.23872 0.66196 0.0
N930 N 0.15452 0.25682 0.50265 0.0
N931 N 0.16276 0.25573 0.62568 0.0
H932 H 0.46758 0.41957 0.77591 0.0
H933 H 0.62435 0.39605 0.85807 0.0
H934 H 0.53591 0.39738 0.68863 0.0
H935 H 0.55669 0.41524 0.94843 0.0
H936 H 0.59216 0.39862 0.79519 0.0
H937 H 0.49959 0.41903 0.83976 0.0
C938 C 0.4893 0.41448 0.7703 0.0
C939 C 0.49927 0.40864 0.7271 0.0
C940 C 0.5843 0.40239 0.82871 0.0
C941 C 0.53583 0.40818 0.79945 0.0
C942 C 0.6027 0.40105 0.86454 0.0
C943 C 0.59304 0.40541 0.90829 0.0
C944 C 0.55601 0.408 0.83676 0.0
C945 C 0.56487 0.4118 0.91502 0.0
C946 C 0.50754 0.41426 0.80663 0.0
C947 C 0.52747 0.40212 0.72146 0.0
N948 N 0.54723 0.41276 0.87956 0.0
N949 N 0.54479 0.40214 0.75722 0.0
H950 H 0.3693 0.73061 0.01293 0.0
H951 H 0.45719 0.8485 0.12524 0.0
H952 H 0.42999 0.77593 0.93499 0.0
H953 H 0.36856 0.84442 0.14811 0.0
H954 H 0.4522 0.81537 0.0632 0.0
H955 H 0.37353 0.76557 0.07275 0.0
C956 C 0.38365 0.74781 0.00873 0.0
C957 C 0.39927 0.75075 0.9693 0.0
C958 C 0.43389 0.82197 0.08167 0.0
C959 C 0.40437 0.79 0.0369 0.0
C960 C 0.43669 0.84076 0.11683 0.0
C961 C 0.41319 0.84913 0.14124 0.0
C962 C 0.40758 0.81101 0.07207 0.0
C963 C 0.38707 0.83854 0.12955 0.0
C964 C 0.38585 0.76772 0.04247 0.0
C965 C 0.41751 0.77328 0.965 0.0
N966 N 0.38496 0.81959 0.09599 0.0
N967 N 0.4198 0.79204 -0.00128 0.0
H968 H 0.05883 0.41714 0.50292 0.0
H969 H 0.03522 0.39641 0.76648 0.0
H970 H 0.12326 0.39163 0.59458 0.0
H971 H 0.96985 0.4205 0.67551 0.0
H972 H 0.06797 0.39535 0.70377 0.0
H973 H 1.02615 0.42029 0.56585 0.0
C974 C 0.06612 0.41255 0.53643 0.0
C975 C 0.09365 0.40412 0.54382 0.0
C976 C 0.04648 0.40087 0.69742 0.0
C977 C 0.05656 0.40737 0.61561 0.0
C978 C 1.0278 0.40141 0.73318 0.0
C979 C 0.99996 0.40868 0.72599 0.0
C980 C 0.03717 0.40764 0.65419 0.0
C981 C 0.99125 0.41485 0.68232 0.0
C982 C 0.04748 0.41419 0.57225 0.0
C983 C 0.10214 0.3982 0.58763 0.0
N984 N 1.00987 0.41426 0.64796 0.0
N985 N 0.08361 0.39985 0.62192 0.0
H986 H 0.8884 0.80908 0.25429 0.0
H987 H 0.90374 0.7911 0.51999 0.0
H988 H 0.91006 0.87585 0.34418 0.0
H989 H 0.88408 0.72327 0.43092 0.0
H990 H 0.9045 0.82276 0.45597 0.0
H991 H 0.88441 0.77763 0.31861 0.0
C992 C 0.89198 0.81715 0.28768 0.0
C993 C 0.89956 0.845 0.29414 0.0
C994 C 0.89998 0.80097 0.45032 0.0
C995 C 0.89529 0.80928 0.36761 0.0
C996 C 0.89958 0.78292 0.48685 0.0
C997 C 0.89378 0.75465 0.48059 0.0
C998 C 0.89457 0.79064 0.40717 0.0
C999 C 0.88861 0.74501 0.43706 0.0
C1000 C 0.88984 0.7992 0.32432 0.0
C1001 C 0.90418 0.85446 0.33788 0.0
N1002 N 0.88912 0.76301 0.40191 0.0
N1003 N 0.90205 0.8366 0.37297 0.0
H1004 H 0.49742 0.6366 0.00473 0.0
H1005 H 0.51888 0.6591 0.26827 0.0
H1006 H 0.43182 0.66106 0.0957 0.0
H1007 H 0.5854 0.63654 0.17772 0.0
H1008 H 0.48641 0.65873 0.2055 0.0
H1009 H 0.52968 0.63429 0.06797 0.0
C1010 C 0.48978 0.64115 0.03815 0.0
C1011 C 0.46205 0.64906 0.04522 0.0
C1012 C 0.50809 0.65385 0.19926 0.0
C1013 C 0.49867 0.64677 0.1174 0.0
C1014 C 0.52661 0.65413 0.23506 0.0
C1015 C 0.55473 0.64775 0.22801 0.0
C1016 C 0.51782 0.64716 0.15612 0.0
C1017 C 0.5638 0.64154 0.18444 0.0
C1018 C 0.50819 0.63998 0.07416 0.0
C1019 C 0.45312 0.65491 0.08895 0.0
N1020 N 0.54535 0.64135 0.15005 0.0
N1021 N 0.47142 0.65374 0.12342 0.0
H1022 H 0.64984 0.26902 0.02324 0.0
H1023 H 0.6682 0.24787 0.75866 0.0
H1024 H 0.67004 0.33575 0.93197 0.0
H1025 H 0.64525 0.18222 0.85022 0.0
H1026 H 0.67126 0.2801 0.82197 0.0
H1027 H 0.64939 0.2366 0.96025 0.0
C1028 C 0.65413 0.2768 -0.01017 0.0
C1029 C 0.66009 0.30494 -0.01739 0.0
C1030 C 0.66574 0.2586 0.82826 0.0
C1031 C 0.65973 0.26813 0.91052 0.0
C1032 C 0.66414 0.24022 0.79221 0.0
C1033 C 0.65644 0.21249 0.79947 0.0
C1034 C 0.65961 0.24904 0.8717 0.0
C1035 C 0.65122 0.20352 0.84336 0.0
C1036 C 0.65393 0.25832 0.95392 0.0
C1037 C 0.66539 0.31411 0.93881 0.0
N1038 N 0.65281 0.2218 0.87787 0.0
N1039 N 0.66515 0.29569 0.90431 0.0
H1040 H 0.35911 0.26942 0.20554 0.0
H1041 H 0.19589 0.28455 0.25136 0.0
H1042 H 0.29997 0.20352 0.18236 0.0
H1043 H 0.25503 0.35056 0.2737 0.0
H1044 H 0.23356 0.25495 0.22385 0.0
H1045 H 0.32139 0.299 0.23287 0.0
C1046 C 0.33822 0.26098 0.20722 0.0
C1047 C 0.33255 0.23402 0.19183 0.0
C1048 C 0.23829 0.276 0.23429 0.0
C1049 C 0.28926 0.26794 0.22177 0.0
C1050 C 0.21676 0.293 0.2495 0.0
C1051 C 0.22246 0.31998 0.26472 0.0
C1052 C 0.26569 0.28607 0.23457 0.0
C1053 C 0.24981 0.3299 0.26199 0.0
C1054 C 0.31667 0.27798 0.2223 0.0
C1055 C 0.30518 0.22414 0.19426 0.0
N1056 N 0.27052 0.31281 0.24759 0.0
N1057 N 0.28444 0.24123 0.20857 0.0
H1058 H 0.572 0.60039 0.48118 0.0
H1059 H 0.48505 0.45816 0.47163 0.0
H1060 H 0.56976 0.54575 0.36643 0.0
H1061 H 0.49123 0.51008 0.58922 0.0
H1062 H 0.51499 0.49111 0.43116 0.0
H1063 H 0.54235 0.56736 0.52209 0.0
C1064 C 0.56557 0.5813 0.46497 0.0
C1065 C 0.57312 0.57568 0.42061 0.0
C1066 C 0.50965 0.49529 0.4658 0.0
C1067 C 0.53914 0.5384 0.46617 0.0
C1068 C 0.49243 0.47665 0.48859 0.0
C1069 C 0.48584 0.48154 0.53355 0.0
C1070 C 0.52013 0.51875 0.48843 0.0
C1071 C 0.49599 0.50559 0.55446 0.0
C1072 C 0.54854 0.56259 0.48801 0.0
C1073 C 0.5642 0.55084 0.40067 0.0
N1074 N 0.51274 0.52328 0.53176 0.0
N1075 N 0.54753 0.53316 0.42352 0.0
H1076 H 0.20527 0.82007 0.72947 0.0
H1077 H 0.34963 0.73593 0.71967 0.0
H1078 H 0.26208 0.82206 0.6171 0.0
H1079 H 0.29359 0.7351 0.83306 0.0
H1080 H 0.31697 0.76661 0.68014 0.0
H1081 H 0.23776 0.78917 0.76889 0.0
C1082 C 0.22474 0.81433 0.71351 0.0
C1083 C 0.23111 0.82347 0.6702 0.0
C1084 C 0.3118 0.75953 0.7136 0.0
C1085 C 0.26783 0.788 0.71408 0.0
C1086 C 0.33029 0.74187 0.73583 0.0
C1087 C 0.32419 0.73315 0.77946 0.0
C1088 C 0.28728 0.76834 0.73545 0.0
C1089 C 0.29905 0.74154 0.79937 0.0
C1090 C 0.24314 0.79654 0.73568 0.0
C1091 C 0.25641 0.81532 0.65054 0.0
N1092 N 0.28156 0.7588 0.7773 0.0
N1093 N 0.2738 0.79792 0.67253 0.0
H1094 H 0.06679 0.54386 0.09024 0.0
H1095 H 0.98873 0.51158 0.86129 0.0
H1096 H 0.0722 0.59659 0.97339 0.0
H1097 H 0.98299 0.45898 -0.02175 0.0
H1098 H 1.0188 0.54315 0.90214 0.0
H1099 H 0.03675 0.51223 0.04939 0.0
C1100 C 0.06185 0.5486 0.05565 0.0
C1101 C 0.07188 0.57282 0.03496 0.0
C1102 C 1.01088 0.52484 0.91909 0.0
C1103 C 0.03728 0.53683 -0.01176 0.0
C1104 C 0.9936 0.50686 0.89591 0.0
C1105 C 0.98346 0.48269 0.91662 0.0
C1106 C 1.01812 0.51861 0.96337 0.0
C1107 C 0.99036 0.4775 0.9613 0.0
C1108 C 0.04459 0.53058 0.03247 0.0
C1109 C 0.06492 0.57803 -0.00968 0.0
N1110 N 1.00746 0.49535 -0.01672 0.0
N1111 N 0.04784 0.56015 0.96836 0.0
H1112 H 0.69613 0.78671 0.74527 0.0
H1113 H 0.8594 0.77051 0.70105 0.0
H1114 H 0.75573 0.852 0.76986 0.0
H1115 H 0.79981 0.7052 0.67657 0.0
H1116 H 0.82183 0.80025 0.72852 0.0
H1117 H 0.73368 0.75702 0.71764 0.0
C1118 C 0.71708 0.795 0.74384 0.0
C1119 C 0.72294 0.82179 0.75974 0.0
C1120 C 0.81698 0.77932 0.71761 0.0
C1121 C 0.76602 0.78775 0.7295 0.0
C1122 C 0.83844 0.76224 0.70244 0.0
C1123 C 0.8326 0.73542 0.68664 0.0
C1124 C 0.78949 0.7695 0.71671 0.0
C1125 C 0.80515 0.72573 0.68876 0.0
C1126 C 0.73854 0.77793 0.72858 0.0
C1127 C 0.75038 0.83149 0.75759 0.0
N1128 N 0.7845 0.7429 0.70313 0.0
N1129 N 0.77102 0.81434 0.74314 0.0
H1130 H 0.76588 0.33084 0.12697 0.0
H1131 H 0.78957 0.22444 0.32819 0.0
H1132 H 0.70408 0.31386 0.22861 0.0
H1133 H 0.85167 0.2418 0.22718 0.0
H1134 H 0.75764 0.25622 0.2911 0.0
H1135 H 0.79788 0.29909 0.16404 0.0
C1136 C 0.75925 0.3207 0.15765 0.0
C1137 C 0.73239 0.32488 0.17494 0.0
C1138 C 0.77812 0.25297 0.27672 0.0
C1139 C 0.76867 0.28813 0.21699 0.0
C1140 C 0.79629 0.23468 0.29765 0.0
C1141 C 0.82321 0.2306 0.28056 0.0
C1142 C 0.78698 0.26739 0.23846 0.0
C1143 C 0.83097 0.24431 0.24112 0.0
C1144 C 0.77745 0.30243 0.17856 0.0
C1145 C 0.72472 0.31129 0.21453 0.0
N1146 N 0.81293 0.26235 0.22146 0.0
N1147 N 0.74279 0.29326 0.23415 0.0
H1148 H 0.03414 0.1092 0.95096 0.0
H1149 H 1.02159 0.94635 0.00186 0.0
H1150 H 0.10119 0.05078 0.92976 0.0
H1151 H 0.95439 1.00475 0.02177 0.0
H1152 H 0.05075 0.98411 0.97364 0.0
H1153 H 1.00508 0.07139 -0.0208 0.0
C1154 C 0.04292 0.08846 0.95316 0.0
C1155 C 0.07009 0.08304 0.93818 0.0
C1156 C 0.02954 0.98866 -0.01627 0.0
C1157 C 0.03676 0.03959 0.96926 0.0
C1158 C 1.0128 0.96707 -0.00062 0.0
C1159 C 0.98556 0.9725 0.01399 0.0
C1160 C 1.01898 1.0159 -0.01705 0.0
C1161 C 0.97524 0.9997 0.0105 0.0
C1162 C 1.02622 0.06684 0.96882 0.0
C1163 C 0.08039 0.05582 0.94133 0.0
N1164 N 0.99207 1.02048 -0.00436 0.0
N1165 N 0.06361 0.03501 0.95622 0.0
H1166 H 0.57165 0.10027 0.47354 0.0
H1167 H 0.48487 0.95782 0.47975 0.0
H1168 H 0.56973 0.04415 0.58652 0.0
H1169 H 0.49044 1.01152 0.36407 0.0
H1170 H 0.51479 0.99029 0.52089 0.0
H1171 H 0.54181 0.06785 0.43218 0.0
C1172 C 0.56527 0.08097 0.48925 0.0
C1173 C 0.57298 0.07477 0.53326 0.0
C1174 C 0.5093 0.99498 0.48653 0.0
C1175 C 0.53874 0.03814 0.48716 0.0
C1176 C 0.49209 0.97661 0.46337 0.0
C1177 C 0.48535 0.98212 0.41872 0.0
C1178 C 0.51964 1.0188 0.4646 0.0
C1179 C 0.49532 1.00654 0.39856 0.0
C1180 C 0.54811 0.06261 0.46596 0.0
C1181 C 0.56407 0.04968 0.55256 0.0
N1182 N 0.51208 1.02395 0.42159 0.0
N1183 N 0.54728 0.03233 0.52947 0.0
loop_
_geom_bond_atom_site_label_1
_geom_bond_atom_site_label_2
_geom_bond_distance
_geom_bond_site_symmetry_2
_ccdc_geom_bond_type
Dy0 O4 2.398 1_554 S
Dy0 O5 2.491 1_554 S
Dy0 O6 2.403 . S
Dy0 O7 2.664 . S
Dy0 O11 2.326 . S
Dy0 O15 2.310 . S
Dy0 O16 2.351 . S
C1 O12 1.185 . S
C1 O13 1.355 . S
C2 O4 1.185 . S
C2 O5 1.355 . S
Dy3 O7 2.310 . S
Dy3 O10 2.351 . S
Dy3 O12 2.398 . S
Dy3 O13 2.491 . S
Dy3 O14 2.403 . S
Dy3 O15 2.664 . S
Dy3 O17 2.326 . S
O4 Dy0 2.398 1_556 S
O4 C2 1.185 . S
O5 Dy0 2.491 1_556 S
O5 C2 1.355 . S
O6 Dy0 2.403 . S
O6 C8 1.254 . S
O7 Dy0 2.664 . S
O7 Dy3 2.310 . S
O7 C8 1.268 . S
C8 O6 1.254 . S
C8 O7 1.268 . S
C9 O14 1.254 . S
C9 O15 1.268 . S
O10 Dy3 2.351 . S
O10 C18 1.249 . S
O11 Dy0 2.326 . S
O11 C18 1.267 . S
O12 C1 1.185 . S
O12 Dy3 2.398 . S
O13 C1 1.355 . S
O13 Dy3 2.491 . S
O14 Dy3 2.403 . S
O14 C9 1.254 . S
O15 Dy0 2.310 . S
O15 Dy3 2.664 . S
O15 C9 1.268 . S
O16 Dy0 2.351 . S
O16 C19 1.249 . S
O17 Dy3 2.326 . S
O17 C19 1.267 . S
C18 O10 1.249 . S
C18 O11 1.267 . S
C19 O16 1.249 . S
C19 O17 1.267 . S
Dy20 O24 2.398 . S
Dy20 O25 2.491 . S
Dy20 O26 2.403 . S
Dy20 O27 2.664 . S
Dy20 O31 2.326 . S
Dy20 O35 2.310 . S
Dy20 O36 2.351 . S
C21 O32 1.185 . S
C21 O33 1.355 . S
C22 O24 1.185 . S
C22 O25 1.355 . S
Dy23 O27 2.310 . S
Dy23 O30 2.351 . S
Dy23 O32 2.398 . S
Dy23 O33 2.491 . S
Dy23 O34 2.403 . S
Dy23 O35 2.664 . S
Dy23 O37 2.326 . S
O24 Dy20 2.398 . S
O24 C22 1.185 . S
O25 Dy20 2.491 . S
O25 C22 1.355 . S
O26 Dy20 2.403 . S
O26 C28 1.254 . S
O27 Dy20 2.664 . S
O27 Dy23 2.310 . S
O27 C28 1.268 . S
C28 O26 1.254 . S
C28 O27 1.268 . S
C29 O34 1.254 . S
C29 O35 1.268 . S
O30 Dy23 2.351 . S
O30 C38 1.249 . S
O31 Dy20 2.326 . S
O31 C38 1.267 . S
O32 C21 1.185 . S
O32 Dy23 2.398 . S
O33 C21 1.355 . S
O33 Dy23 2.491 . S
O34 Dy23 2.403 . S
O34 C29 1.254 . S
O35 Dy20 2.310 . S
O35 Dy23 2.664 . S
O35 C29 1.268 . S
O36 Dy20 2.351 . S
O36 C39 1.249 . S
O37 Dy23 2.326 . S
O37 C39 1.267 . S
C38 O30 1.249 . S
C38 O31 1.267 . S
C39 O36 1.249 . S
C39 O37 1.267 . S
Dy40 O44 2.398 . S
Dy40 O45 2.491 . S
Dy40 O46 2.403 . S
Dy40 O47 2.664 . S
Dy40 O51 2.326 . S
Dy40 O55 2.310 . S
Dy40 O56 2.351 . S
C41 O52 1.185 . S
C41 O53 1.355 . S
C42 O44 1.185 . S
C42 O45 1.355 . S
Dy43 O47 2.310 . S
Dy43 O50 2.351 . S
Dy43 O52 2.398 . S
Dy43 O53 2.491 . S
Dy43 O54 2.403 . S
Dy43 O55 2.664 . S
Dy43 O57 2.326 . S
O44 Dy40 2.398 . S
O44 C42 1.185 . S
O45 Dy40 2.491 . S
O45 C42 1.355 . S
O46 Dy40 2.403 . S
O46 C48 1.254 . S
O47 Dy40 2.664 . S
O47 Dy43 2.310 . S
O47 C48 1.268 . S
C48 O46 1.254 . S
C48 O47 1.268 . S
C49 O54 1.254 . S
C49 O55 1.268 . S
O50 Dy43 2.351 . S
O50 C58 1.249 . S
O51 Dy40 2.326 . S
O51 C58 1.267 . S
O52 C41 1.185 . S
O52 Dy43 2.398 . S
O53 C41 1.355 . S
O53 Dy43 2.491 . S
O54 Dy43 2.403 . S
O54 C49 1.254 . S
O55 Dy40 2.310 . S
O55 Dy43 2.664 . S
O55 C49 1.268 . S
O56 Dy40 2.351 . S
O56 C59 1.249 . S
O57 Dy43 2.326 . S
O57 C59 1.267 . S
C58 O50 1.249 . S
C58 O51 1.267 . S
C59 O56 1.249 . S
C59 O57 1.267 . S
Dy60 O64 2.398 . S
Dy60 O65 2.491 . S
Dy60 O66 2.403 . S
Dy60 O67 2.664 . S
Dy60 O71 2.326 . S
Dy60 O75 2.310 . S
Dy60 O76 2.351 . S
C61 O72 1.185 . S
C61 O73 1.355 . S
C62 O64 1.185 . S
C62 O65 1.355 . S
Dy63 O67 2.310 . S
Dy63 O70 2.351 . S
Dy63 O72 2.398 . S
Dy63 O73 2.491 . S
Dy63 O74 2.403 . S
Dy63 O75 2.664 . S
Dy63 O77 2.326 . S
O64 Dy60 2.398 . S
O64 C62 1.185 . S
O65 Dy60 2.491 . S
O65 C62 1.355 . S
O66 Dy60 2.403 . S
O66 C68 1.254 . S
O67 Dy60 2.664 . S
O67 Dy63 2.310 . S
O67 C68 1.268 . S
C68 O66 1.254 . S
C68 O67 1.268 . S
C69 O74 1.254 . S
C69 O75 1.268 . S
O70 Dy63 2.351 . S
O70 C78 1.249 . S
O71 Dy60 2.326 . S
O71 C78 1.267 . S
O72 C61 1.185 . S
O72 Dy63 2.398 . S
O73 C61 1.355 . S
O73 Dy63 2.491 . S
O74 Dy63 2.403 . S
O74 C69 1.254 . S
O75 Dy60 2.310 . S
O75 Dy63 2.664 . S
O75 C69 1.268 . S
O76 Dy60 2.351 . S
O76 C79 1.249 . S
O77 Dy63 2.326 . S
O77 C79 1.267 . S
C78 O70 1.249 . S
C78 O71 1.267 . S
C79 O76 1.249 . S
C79 O77 1.267 . S
Dy80 O84 2.398 . S
Dy80 O85 2.491 . S
Dy80 O86 2.403 . S
Dy80 O87 2.664 . S
Dy80 O91 2.326 . S
Dy80 O95 2.310 . S
Dy80 O96 2.351 . S
C81 O92 1.185 . S
C81 O93 1.355 . S
C82 O84 1.185 . S
C82 O85 1.355 . S
Dy83 O87 2.310 . S
Dy83 O90 2.351 . S
Dy83 O92 2.398 1_556 S
Dy83 O93 2.491 1_556 S
Dy83 O94 2.403 . S
Dy83 O95 2.664 . S
Dy83 O97 2.326 . S
O84 Dy80 2.398 . S
O84 C82 1.185 . S
O85 Dy80 2.491 . S
O85 C82 1.355 . S
O86 Dy80 2.403 . S
O86 C88 1.254 . S
O87 Dy80 2.664 . S
O87 Dy83 2.310 . S
O87 C88 1.268 . S
C88 O86 1.254 . S
C88 O87 1.268 . S
C89 O94 1.254 . S
C89 O95 1.268 . S
O90 Dy83 2.351 . S
O90 C98 1.249 . S
O91 Dy80 2.326 . S
O91 C98 1.267 . S
O92 C81 1.185 . S
O92 Dy83 2.398 1_554 S
O93 C81 1.355 . S
O93 Dy83 2.491 1_554 S
O94 Dy83 2.403 . S
O94 C89 1.254 . S
O95 Dy80 2.310 . S
O95 Dy83 2.664 . S
O95 C89 1.268 . S
O96 Dy80 2.351 . S
O96 C99 1.249 . S
O97 Dy83 2.326 . S
O97 C99 1.267 . S
C98 O90 1.249 . S
C98 O91 1.267 . S
C99 O96 1.249 . S
C99 O97 1.267 . S
Dy100 O104 2.398 . S
Dy100 O105 2.491 . S
Dy100 O106 2.403 . S
Dy100 O107 2.664 . S
Dy100 O111 2.326 . S
Dy100 O115 2.310 . S
Dy100 O116 2.351 . S
C101 O112 1.185 . S
C101 O113 1.355 . S
C102 O104 1.185 . S
C102 O105 1.355 . S
Dy103 O107 2.310 . S
Dy103 O110 2.351 . S
Dy103 O112 2.398 . S
Dy103 O113 2.491 . S
Dy103 O114 2.403 . S
Dy103 O115 2.664 . S
Dy103 O117 2.326 . S
O104 Dy100 2.398 . S
O104 C102 1.185 . S
O105 Dy100 2.491 . S
O105 C102 1.355 . S
O106 Dy100 2.403 . S
O106 C108 1.254 . S
O107 Dy100 2.664 . S
O107 Dy103 2.310 . S
O107 C108 1.268 . S
C108 O106 1.254 . S
C108 O107 1.268 . S
C109 O114 1.254 . S
C109 O115 1.268 . S
O110 Dy103 2.351 . S
O110 C118 1.249 . S
O111 Dy100 2.326 . S
O111 C118 1.267 . S
O112 C101 1.185 . S
O112 Dy103 2.398 . S
O113 C101 1.355 . S
O113 Dy103 2.491 . S
O114 Dy103 2.403 . S
O114 C109 1.254 . S
O115 Dy100 2.310 . S
O115 Dy103 2.664 . S
O115 C109 1.268 . S
O116 Dy100 2.351 . S
O116 C119 1.249 . S
O117 Dy103 2.326 . S
O117 C119 1.267 . S
C118 O110 1.249 . S
C118 O111 1.267 . S
C119 O116 1.249 . S
C119 O117 1.267 . S
Dy120 O124 2.398 . S
Dy120 O125 2.491 . S
Dy120 O126 2.403 . S
Dy120 O127 2.664 . S
Dy120 O131 2.326 . S
Dy120 O135 2.310 . S
Dy120 O136 2.351 . S
C121 O132 1.185 . S
C121 O133 1.355 . S
C122 O124 1.185 . S
C122 O125 1.355 . S
Dy123 O127 2.310 . S
Dy123 O130 2.351 . S
Dy123 O132 2.398 . S
Dy123 O133 2.491 . S
Dy123 O134 2.403 . S
Dy123 O135 2.664 . S
Dy123 O137 2.326 . S
O124 Dy120 2.398 . S
O124 C122 1.185 . S
O125 Dy120 2.491 . S
O125 C122 1.355 . S
O126 Dy120 2.403 . S
O126 C128 1.254 . S
O127 Dy120 2.664 . S
O127 Dy123 2.310 . S
O127 C128 1.268 . S
C128 O126 1.254 . S
C128 O127 1.268 . S
C129 O134 1.254 . S
C129 O135 1.268 . S
O130 Dy123 2.351 . S
O130 C138 1.249 . S
O131 Dy120 2.326 . S
O131 C138 1.267 . S
O132 C121 1.185 . S
O132 Dy123 2.398 . S
O133 C121 1.355 . S
O133 Dy123 2.491 . S
O134 Dy123 2.403 . S
O134 C129 1.254 . S
O135 Dy120 2.310 . S
O135 Dy123 2.664 . S
O135 C129 1.268 . S
O136 Dy120 2.351 . S
O136 C139 1.249 . S
O137 Dy123 2.326 . S
O137 C139 1.267 . S
C138 O130 1.249 . S
C138 O131 1.267 . S
C139 O136 1.249 . S
C139 O137 1.267 . S
Dy140 O144 2.398 . S
Dy140 O145 2.491 . S
Dy140 O146 2.403 . S
Dy140 O147 2.664 . S
Dy140 O151 2.326 . S
Dy140 O155 2.310 . S
Dy140 O156 2.351 . S
C141 O152 1.185 . S
C141 O153 1.355 . S
C142 O144 1.185 . S
C142 O145 1.355 . S
Dy143 O147 2.310 . S
Dy143 O150 2.351 . S
Dy143 O152 2.398 . S
Dy143 O153 2.491 . S
Dy143 O154 2.403 . S
Dy143 O155 2.664 . S
Dy143 O157 2.326 . S
O144 Dy140 2.398 . S
O144 C142 1.185 . S
O145 Dy140 2.491 . S
O145 C142 1.355 . S
O146 Dy140 2.403 . S
O146 C148 1.254 . S
O147 Dy140 2.664 . S
O147 Dy143 2.310 . S
O147 C148 1.268 . S
C148 O146 1.254 . S
C148 O147 1.268 . S
C149 O154 1.254 . S
C149 O155 1.268 . S
O150 Dy143 2.351 . S
O150 C158 1.249 . S
O151 Dy140 2.326 . S
O151 C158 1.267 . S
O152 C141 1.185 . S
O152 Dy143 2.398 . S
O153 C141 1.355 . S
O153 Dy143 2.491 . S
O154 Dy143 2.403 . S
O154 C149 1.254 . S
O155 Dy140 2.310 . S
O155 Dy143 2.664 . S
O155 C149 1.268 . S
O156 Dy140 2.351 . S
O156 C159 1.249 . S
O157 Dy143 2.326 . S
O157 C159 1.267 . S
C158 O150 1.249 . S
C158 O151 1.267 . S
C159 O156 1.249 . S
C159 O157 1.267 . S
Dy160 O164 2.398 . S
Dy160 O165 2.491 . S
Dy160 O166 2.403 . S
Dy160 O167 2.664 . S
Dy160 O171 2.326 . S
Dy160 O175 2.310 . S
Dy160 O176 2.351 . S
C161 O172 1.185 . S
C161 O173 1.355 . S
C162 O164 1.185 . S
C162 O165 1.355 . S
Dy163 O167 2.310 . S
Dy163 O170 2.351 . S
Dy163 O172 2.398 . S
Dy163 O173 2.491 . S
Dy163 O174 2.403 . S
Dy163 O175 2.664 . S
Dy163 O177 2.326 . S
O164 Dy160 2.398 . S
O164 C162 1.185 . S
O165 Dy160 2.491 . S
O165 C162 1.355 . S
O166 Dy160 2.403 . S
O166 C168 1.254 . S
O167 Dy160 2.664 . S
O167 Dy163 2.310 . S
O167 C168 1.268 . S
C168 O166 1.254 . S
C168 O167 1.268 . S
C169 O174 1.254 . S
C169 O175 1.268 . S
O170 Dy163 2.351 . S
O170 C178 1.249 . S
O171 Dy160 2.326 . S
O171 C178 1.267 . S
O172 C161 1.185 . S
O172 Dy163 2.398 . S
O173 C161 1.355 . S
O173 Dy163 2.491 . S
O174 Dy163 2.403 . S
O174 C169 1.254 . S
O175 Dy160 2.310 . S
O175 Dy163 2.664 . S
O175 C169 1.268 . S
O176 Dy160 2.351 . S
O176 C179 1.249 . S
O177 Dy163 2.326 . S
O177 C179 1.267 . S
C178 O170 1.249 . S
C178 O171 1.267 . S
C179 O176 1.249 . S
C179 O177 1.267 . S
Dy180 O184 2.398 . S
Dy180 O185 2.491 . S
Dy180 O186 2.403 . S
Dy180 O187 2.664 . S
Dy180 O191 2.326 . S
Dy180 O195 2.310 . S
Dy180 O196 2.351 . S
C181 O192 1.185 . S
C181 O193 1.355 . S
C182 O184 1.185 . S
C182 O185 1.355 . S
Dy183 O187 2.310 . S
Dy183 O190 2.351 . S
Dy183 O192 2.398 . S
Dy183 O193 2.491 . S
Dy183 O194 2.403 . S
Dy183 O195 2.664 . S
Dy183 O197 2.326 . S
O184 Dy180 2.398 . S
O184 C182 1.185 . S
O185 Dy180 2.491 . S
O185 C182 1.355 . S
O186 Dy180 2.403 . S
O186 C188 1.254 . S
O187 Dy180 2.664 . S
O187 Dy183 2.310 . S
O187 C188 1.268 . S
C188 O186 1.254 . S
C188 O187 1.268 . S
C189 O194 1.254 . S
C189 O195 1.268 . S
O190 Dy183 2.351 . S
O190 C198 1.249 . S
O191 Dy180 2.326 . S
O191 C198 1.267 . S
O192 C181 1.185 . S
O192 Dy183 2.398 . S
O193 C181 1.355 . S
O193 Dy183 2.491 . S
O194 Dy183 2.403 . S
O194 C189 1.254 . S
O195 Dy180 2.310 . S
O195 Dy183 2.664 . S
O195 C189 1.268 . S
O196 Dy180 2.351 . S
O196 C199 1.249 . S
O197 Dy183 2.326 . S
O197 C199 1.267 . S
C198 O190 1.249 . S
C198 O191 1.267 . S
C199 O196 1.249 . S
C199 O197 1.267 . S
Dy200 O204 2.398 1_554 S
Dy200 O205 2.491 1_554 S
Dy200 O206 2.403 . S
Dy200 O207 2.664 . S
Dy200 O211 2.326 . S
Dy200 O215 2.310 . S
Dy200 O216 2.351 . S
C201 O212 1.185 . S
C201 O213 1.355 . S
C202 O204 1.185 . S
C202 O205 1.355 . S
Dy203 O207 2.310 . S
Dy203 O210 2.351 . S
Dy203 O212 2.398 . S
Dy203 O213 2.491 . S
Dy203 O214 2.403 . S
Dy203 O215 2.664 . S
Dy203 O217 2.326 . S
O204 Dy200 2.398 1_556 S
O204 C202 1.185 . S
O205 Dy200 2.491 1_556 S
O205 C202 1.355 . S
O206 Dy200 2.403 . S
O206 C208 1.254 . S
O207 Dy200 2.664 . S
O207 Dy203 2.310 . S
O207 C208 1.268 . S
C208 O206 1.254 . S
C208 O207 1.268 . S
C209 O214 1.254 . S
C209 O215 1.268 . S
O210 Dy203 2.351 . S
O210 C218 1.249 . S
O211 Dy200 2.326 . S
O211 C218 1.267 . S
O212 C201 1.185 . S
O212 Dy203 2.398 . S
O213 C201 1.355 . S
O213 Dy203 2.491 . S
O214 Dy203 2.403 . S
O214 C209 1.254 . S
O215 Dy200 2.310 . S
O215 Dy203 2.664 . S
O215 C209 1.268 . S
O216 Dy200 2.351 . S
O216 C219 1.249 . S
O217 Dy203 2.326 . S
O217 C219 1.267 . S
C218 O210 1.249 . S
C218 O211 1.267 . S
C219 O216 1.249 . S
C219 O217 1.267 . S
Dy220 O224 2.398 . S
Dy220 O225 2.491 . S
Dy220 O226 2.403 . S
Dy220 O227 2.664 . S
Dy220 O231 2.326 . S
Dy220 O235 2.310 . S
Dy220 O236 2.351 . S
C221 O232 1.185 . S
C221 O233 1.355 . S
C222 O224 1.185 . S
C222 O225 1.355 . S
Dy223 O227 2.310 . S
Dy223 O230 2.351 . S
Dy223 O232 2.398 . S
Dy223 O233 2.491 . S
Dy223 O234 2.403 . S
Dy223 O235 2.664 . S
Dy223 O237 2.326 . S
O224 Dy220 2.398 . S
O224 C222 1.185 . S
O225 Dy220 2.491 . S
O225 C222 1.355 . S
O226 Dy220 2.403 . S
O226 C228 1.254 . S
O227 Dy220 2.664 . S
O227 Dy223 2.310 . S
O227 C228 1.268 . S
C228 O226 1.254 . S
C228 O227 1.268 . S
C229 O234 1.254 . S
C229 O235 1.268 . S
O230 Dy223 2.351 . S
O230 C238 1.249 . S
O231 Dy220 2.326 . S
O231 C238 1.267 . S
O232 C221 1.185 . S
O232 Dy223 2.398 . S
O233 C221 1.355 . S
O233 Dy223 2.491 . S
O234 Dy223 2.403 . S
O234 C229 1.254 . S
O235 Dy220 2.310 . S
O235 Dy223 2.664 . S
O235 C229 1.268 . S
O236 Dy220 2.351 . S
O236 C239 1.249 . S
O237 Dy223 2.326 . S
O237 C239 1.267 . S
C238 O230 1.249 . S
C238 O231 1.267 . S
C239 O236 1.249 . S
C239 O237 1.267 . S
Dy240 O244 2.398 . S
Dy240 O245 2.491 . S
Dy240 O246 2.403 . S
Dy240 O247 2.664 . S
Dy240 O251 2.326 . S
Dy240 O255 2.310 . S
Dy240 O256 2.351 . S
C241 O252 1.185 . S
C241 O253 1.355 . S
C242 O244 1.185 . S
C242 O245 1.355 . S
Dy243 O247 2.310 . S
Dy243 O250 2.351 . S
Dy243 O252 2.398 . S
Dy243 O253 2.491 . S
Dy243 O254 2.403 . S
Dy243 O255 2.664 . S
Dy243 O257 2.326 . S
O244 Dy240 2.398 . S
O244 C242 1.185 . S
O245 Dy240 2.491 . S
O245 C242 1.355 . S
O246 Dy240 2.403 . S
O246 C248 1.254 . S
O247 Dy240 2.664 . S
O247 Dy243 2.310 . S
O247 C248 1.268 . S
C248 O246 1.254 . S
C248 O247 1.268 . S
C249 O254 1.254 . S
C249 O255 1.268 . S
O250 Dy243 2.351 . S
O250 C258 1.249 . S
O251 Dy240 2.326 . S
O251 C258 1.267 . S
O252 C241 1.185 . S
O252 Dy243 2.398 . S
O253 C241 1.355 . S
O253 Dy243 2.491 . S
O254 Dy243 2.403 . S
O254 C249 1.254 . S
O255 Dy240 2.310 . S
O255 Dy243 2.664 . S
O255 C249 1.268 . S
O256 Dy240 2.351 . S
O256 C259 1.249 . S
O257 Dy243 2.326 . S
O257 C259 1.267 . S
C258 O250 1.249 . S
C258 O251 1.267 . S
C259 O256 1.249 . S
C259 O257 1.267 . S
Dy260 O264 2.398 . S
Dy260 O265 2.491 . S
Dy260 O266 2.403 . S
Dy260 O267 2.664 . S
Dy260 O271 2.326 . S
Dy260 O275 2.310 . S
Dy260 O276 2.351 . S
C261 O272 1.185 . S
C261 O273 1.355 . S
C262 O264 1.185 . S
C262 O265 1.355 . S
Dy263 O267 2.310 . S
Dy263 O270 2.351 . S
Dy263 O272 2.398 . S
Dy263 O273 2.491 . S
Dy263 O274 2.403 . S
Dy263 O275 2.664 . S
Dy263 O277 2.326 . S
O264 Dy260 2.398 . S
O264 C262 1.185 . S
O265 Dy260 2.491 . S
O265 C262 1.355 . S
O266 Dy260 2.403 . S
O266 C268 1.254 . S
O267 Dy260 2.664 . S
O267 Dy263 2.310 . S
O267 C268 1.268 . S
C268 O266 1.254 . S
C268 O267 1.268 . S
C269 O274 1.254 . S
C269 O275 1.268 . S
O270 Dy263 2.351 . S
O270 C278 1.249 . S
O271 Dy260 2.326 . S
O271 C278 1.267 . S
O272 C261 1.185 . S
O272 Dy263 2.398 . S
O273 C261 1.355 . S
O273 Dy263 2.491 . S
O274 Dy263 2.403 . S
O274 C269 1.254 . S
O275 Dy260 2.310 . S
O275 Dy263 2.664 . S
O275 C269 1.268 . S
O276 Dy260 2.351 . S
O276 C279 1.249 . S
O277 Dy263 2.326 . S
O277 C279 1.267 . S
C278 O270 1.249 . S
C278 O271 1.267 . S
C279 O276 1.249 . S
C279 O277 1.267 . S
Dy280 O284 2.398 . S
Dy280 O285 2.491 . S
Dy280 O286 2.403 . S
Dy280 O287 2.664 . S
Dy280 O291 2.326 . S
Dy280 O295 2.310 . S
Dy280 O296 2.351 . S
C281 O292 1.185 . S
C281 O293 1.355 . S
C282 O284 1.185 . S
C282 O285 1.355 . S
Dy283 O287 2.310 . S
Dy283 O290 2.351 . S
Dy283 O292 2.398 1_556 S
Dy283 O293 2.491 1_556 S
Dy283 O294 2.403 . S
Dy283 O295 2.664 . S
Dy283 O297 2.326 . S
O284 Dy280 2.398 . S
O284 C282 1.185 . S
O285 Dy280 2.491 . S
O285 C282 1.355 . S
O286 Dy280 2.403 . S
O286 C288 1.254 . S
O287 Dy280 2.664 . S
O287 Dy283 2.310 . S
O287 C288 1.268 . S
C288 O286 1.254 . S
C288 O287 1.268 . S
C289 O294 1.254 . S
C289 O295 1.268 . S
O290 Dy283 2.351 . S
O290 C298 1.249 . S
O291 Dy280 2.326 . S
O291 C298 1.267 . S
O292 C281 1.185 . S
O292 Dy283 2.398 1_554 S
O293 C281 1.355 . S
O293 Dy283 2.491 1_554 S
O294 Dy283 2.403 . S
O294 C289 1.254 . S
O295 Dy280 2.310 . S
O295 Dy283 2.664 . S
O295 C289 1.268 . S
O296 Dy280 2.351 . S
O296 C299 1.249 . S
O297 Dy283 2.326 . S
O297 C299 1.267 . S
C298 O290 1.249 . S
C298 O291 1.267 . S
C299 O296 1.249 . S
C299 O297 1.267 . S
Dy300 O304 2.398 . S
Dy300 O305 2.491 . S
Dy300 O306 2.403 . S
Dy300 O307 2.664 . S
Dy300 O311 2.326 . S
Dy300 O315 2.310 . S
Dy300 O316 2.351 . S
C301 O312 1.185 . S
C301 O313 1.355 . S
C302 O304 1.185 . S
C302 O305 1.355 . S
Dy303 O307 2.310 . S
Dy303 O310 2.351 . S
Dy303 O312 2.398 . S
Dy303 O313 2.491 . S
Dy303 O314 2.403 . S
Dy303 O315 2.664 . S
Dy303 O317 2.326 . S
O304 Dy300 2.398 . S
O304 C302 1.185 . S
O305 Dy300 2.491 . S
O305 C302 1.355 . S
O306 Dy300 2.403 . S
O306 C308 1.254 . S
O307 Dy300 2.664 . S
O307 Dy303 2.310 . S
O307 C308 1.268 . S
C308 O306 1.254 . S
C308 O307 1.268 . S
C309 O314 1.254 . S
C309 O315 1.268 . S
O310 Dy303 2.351 . S
O310 C318 1.249 . S
O311 Dy300 2.326 . S
O311 C318 1.267 . S
O312 C301 1.185 . S
O312 Dy303 2.398 . S
O313 C301 1.355 . S
O313 Dy303 2.491 . S
O314 Dy303 2.403 . S
O314 C309 1.254 . S
O315 Dy300 2.310 . S
O315 Dy303 2.664 . S
O315 C309 1.268 . S
O316 Dy300 2.351 . S
O316 C319 1.249 . S
O317 Dy303 2.326 . S
O317 C319 1.267 . S
C318 O310 1.249 . S
C318 O311 1.267 . S
C319 O316 1.249 . S
C319 O317 1.267 . S
H320 C326 0.930 . S
H321 C330 0.930 . S
H322 C335 0.929 . S
H323 C333 0.929 . S
H324 C328 0.929 . S
H325 C334 0.929 . S
C326 H320 0.930 . S
C326 C327 1.367 . S
C326 C334 1.378 . S
C327 C326 1.367 . S
C327 C335 1.433 . S
C328 H324 0.929 . S
C328 C330 1.378 . S
C328 C332 1.350 . S
C329 C332 1.463 . S
C329 C334 1.350 . S
C329 N337 1.427 . S
C330 H321 0.930 . S
C330 C328 1.378 . S
C330 C331 1.367 . S
C331 C330 1.367 . S
C331 C333 1.433 . S
C332 C328 1.350 . S
C332 C329 1.463 . S
C332 N336 1.427 . S
C333 H323 0.929 . S
C333 C331 1.433 . S
C333 N336 1.384 . S
C334 H325 0.929 . S
C334 C326 1.378 . S
C334 C329 1.350 . S
C335 H322 0.929 . S
C335 C327 1.433 . S
C335 N337 1.384 . S
N336 C332 1.427 . S
N336 C333 1.384 . S
N337 C329 1.427 . S
N337 C335 1.384 . S
H338 C344 0.930 . S
H339 C348 0.930 . S
H340 C353 0.929 . S
H341 C351 0.929 . S
H342 C346 0.929 . S
H343 C352 0.929 . S
C344 H338 0.930 . S
C344 C345 1.367 . S
C344 C352 1.378 . S
C345 C344 1.367 . S
C345 C353 1.433 . S
C346 H342 0.929 . S
C346 C348 1.378 . S
C346 C350 1.350 . S
C347 C350 1.463 . S
C347 C352 1.350 . S
C347 N355 1.427 . S
C348 H339 0.930 . S
C348 C346 1.378 . S
C348 C349 1.367 . S
C349 C348 1.367 . S
C349 C351 1.433 . S
C350 C346 1.350 . S
C350 C347 1.463 . S
C350 N354 1.427 . S
C351 H341 0.929 . S
C351 C349 1.433 . S
C351 N354 1.384 . S
C352 H343 0.929 . S
C352 C344 1.378 . S
C352 C347 1.350 . S
C353 H340 0.929 . S
C353 C345 1.433 . S
C353 N355 1.384 . S
N354 C350 1.427 . S
N354 C351 1.384 . S
N355 C347 1.427 . S
N355 C353 1.384 . S
H356 C362 0.930 . S
H357 C366 0.930 . S
H358 C371 0.929 . S
H359 C369 0.929 . S
H360 C364 0.929 . S
H361 C370 0.929 . S
C362 H356 0.930 . S
C362 C363 1.367 . S
C362 C370 1.378 . S
C363 C362 1.367 . S
C363 C371 1.433 . S
C364 H360 0.929 . S
C364 C366 1.378 . S
C364 C368 1.350 . S
C365 C368 1.463 1_455 S
C365 C370 1.350 . S
C365 N373 1.427 . S
C366 H357 0.930 . S
C366 C364 1.378 . S
C366 C367 1.367 . S
C367 C366 1.367 . S
C367 C369 1.433 . S
C368 C364 1.350 . S
C368 C365 1.463 1_655 S
C368 N372 1.427 . S
C369 H359 0.929 . S
C369 C367 1.433 . S
C369 N372 1.384 . S
C370 H361 0.929 . S
C370 C362 1.378 . S
C370 C365 1.350 . S
C371 H358 0.929 . S
C371 C363 1.433 . S
C371 N373 1.384 . S
N372 C368 1.427 . S
N372 C369 1.384 . S
N373 C365 1.427 . S
N373 C371 1.384 . S
H374 C380 0.930 . S
H375 C384 0.930 . S
H376 C389 0.929 . S
H377 C387 0.929 . S
H378 C382 0.929 1_655 S
H379 C388 0.929 1_455 S
C380 H374 0.930 . S
C380 C381 1.367 . S
C380 C388 1.378 . S
C381 C380 1.367 . S
C381 C389 1.433 . S
C382 H378 0.929 1_455 S
C382 C384 1.378 . S
C382 C386 1.350 . S
C383 C386 1.463 1_655 S
C383 C388 1.350 . S
C383 N391 1.427 . S
C384 H375 0.930 . S
C384 C382 1.378 . S
C384 C385 1.367 . S
C385 C384 1.367 . S
C385 C387 1.433 . S
C386 C382 1.350 . S
C386 C383 1.463 1_455 S
C386 N390 1.427 . S
C387 H377 0.929 . S
C387 C385 1.433 . S
C387 N390 1.384 . S
C388 H379 0.929 1_655 S
C388 C380 1.378 . S
C388 C383 1.350 . S
C389 H376 0.929 . S
C389 C381 1.433 . S
C389 N391 1.384 . S
N390 C386 1.427 . S
N390 C387 1.384 . S
N391 C383 1.427 . S
N391 C389 1.384 . S
H392 C398 0.930 . S
H393 C402 0.930 . S
H394 C407 0.929 . S
H395 C405 0.929 . S
H396 C400 0.929 . S
H397 C406 0.929 . S
C398 H392 0.930 . S
C398 C399 1.367 . S
C398 C406 1.378 . S
C399 C398 1.367 . S
C399 C407 1.433 . S
C400 H396 0.929 . S
C400 C402 1.378 . S
C400 C404 1.350 . S
C401 C404 1.463 . S
C401 C406 1.350 . S
C401 N409 1.427 . S
C402 H393 0.930 . S
C402 C400 1.378 . S
C402 C403 1.367 . S
C403 C402 1.367 . S
C403 C405 1.433 . S
C404 C400 1.350 . S
C404 C401 1.463 . S
C404 N408 1.427 . S
C405 H395 0.929 . S
C405 C403 1.433 . S
C405 N408 1.384 . S
C406 H397 0.929 . S
C406 C398 1.378 . S
C406 C401 1.350 . S
C407 H394 0.929 . S
C407 C399 1.433 . S
C407 N409 1.384 . S
N408 C404 1.427 . S
N408 C405 1.384 . S
N409 C401 1.427 . S
N409 C407 1.384 . S
H410 C416 0.930 . S
H411 C420 0.930 . S
H412 C425 0.929 . S
H413 C423 0.929 . S
H414 C418 0.929 . S
H415 C424 0.929 . S
C416 H410 0.930 . S
C416 C417 1.367 . S
C416 C424 1.378 . S
C417 C416 1.367 . S
C417 C425 1.433 . S
C418 H414 0.929 . S
C418 C420 1.378 . S
C418 C422 1.350 . S
C419 C422 1.463 . S
C419 C424 1.350 . S
C419 N427 1.427 . S
C420 H411 0.930 . S
C420 C418 1.378 . S
C420 C421 1.367 . S
C421 C420 1.367 . S
C421 C423 1.433 . S
C422 C418 1.350 . S
C422 C419 1.463 . S
C422 N426 1.427 . S
C423 H413 0.929 . S
C423 C421 1.433 . S
C423 N426 1.384 . S
C424 H415 0.929 . S
C424 C416 1.378 . S
C424 C419 1.350 . S
C425 H412 0.929 . S
C425 C417 1.433 . S
C425 N427 1.384 . S
N426 C422 1.427 . S
N426 C423 1.384 . S
N427 C419 1.427 . S
N427 C425 1.384 . S
H428 C434 0.930 . S
H429 C438 0.930 . S
H430 C443 0.929 . S
H431 C441 0.929 . S
H432 C436 0.929 1_655 S
H433 C442 0.929 1_455 S
C434 H428 0.930 . S
C434 C435 1.367 . S
C434 C442 1.378 . S
C435 C434 1.367 . S
C435 C443 1.433 . S
C436 H432 0.929 1_455 S
C436 C438 1.378 . S
C436 C440 1.350 . S
C437 C440 1.463 1_655 S
C437 C442 1.350 . S
C437 N445 1.427 . S
C438 H429 0.930 . S
C438 C436 1.378 . S
C438 C439 1.367 . S
C439 C438 1.367 . S
C439 C441 1.433 . S
C440 C436 1.350 . S
C440 C437 1.463 1_455 S
C440 N444 1.427 . S
C441 H431 0.929 . S
C441 C439 1.433 . S
C441 N444 1.384 . S
C442 H433 0.929 1_655 S
C442 C434 1.378 . S
C442 C437 1.350 . S
C443 H430 0.929 . S
C443 C435 1.433 . S
C443 N445 1.384 . S
N444 C440 1.427 . S
N444 C441 1.384 . S
N445 C437 1.427 . S
N445 C443 1.384 . S
H446 C452 0.930 . S
H447 C456 0.930 . S
H448 C461 0.929 . S
H449 C459 0.929 . S
H450 C454 0.929 . S
H451 C460 0.929 . S
C452 H446 0.930 . S
C452 C453 1.367 . S
C452 C460 1.378 . S
C453 C452 1.367 . S
C453 C461 1.433 . S
C454 H450 0.929 . S
C454 C456 1.378 . S
C454 C458 1.350 . S
C455 C458 1.463 1_455 S
C455 C460 1.350 . S
C455 N463 1.427 . S
C456 H447 0.930 . S
C456 C454 1.378 . S
C456 C457 1.367 . S
C457 C456 1.367 . S
C457 C459 1.433 . S
C458 C454 1.350 . S
C458 C455 1.463 1_655 S
C458 N462 1.427 . S
C459 H449 0.929 . S
C459 C457 1.433 . S
C459 N462 1.384 . S
C460 H451 0.929 . S
C460 C452 1.378 . S
C460 C455 1.350 . S
C461 H448 0.929 . S
C461 C453 1.433 . S
C461 N463 1.384 . S
N462 C458 1.427 . S
N462 C459 1.384 . S
N463 C455 1.427 . S
N463 C461 1.384 . S
H464 C470 0.930 . S
H465 C474 0.930 . S
H466 C479 0.929 . S
H467 C477 0.929 . S
H468 C472 0.929 . S
H469 C478 0.929 . S
C470 H464 0.930 . S
C470 C471 1.367 . S
C470 C478 1.378 . S
C471 C470 1.367 . S
C471 C479 1.433 . S
C472 H468 0.929 . S
C472 C474 1.378 . S
C472 C476 1.350 . S
C473 C476 1.463 . S
C473 C478 1.350 . S
C473 N481 1.427 . S
C474 H465 0.930 . S
C474 C472 1.378 . S
C474 C475 1.367 1_556 S
C475 C474 1.367 1_554 S
C475 C477 1.433 . S
C476 C472 1.350 . S
C476 C473 1.463 . S
C476 N480 1.427 . S
C477 H467 0.929 . S
C477 C475 1.433 . S
C477 N480 1.384 1_554 S
C478 H469 0.929 . S
C478 C470 1.378 . S
C478 C473 1.350 . S
C479 H466 0.929 . S
C479 C471 1.433 . S
C479 N481 1.384 . S
N480 C476 1.427 . S
N480 C477 1.384 1_556 S
N481 C473 1.427 . S
N481 C479 1.384 . S
H482 C488 0.930 . S
H483 C492 0.930 . S
H484 C497 0.929 . S
H485 C495 0.929 . S
H486 C490 0.929 . S
H487 C496 0.929 . S
C488 H482 0.930 . S
C488 C489 1.367 . S
C488 C496 1.378 . S
C489 C488 1.367 . S
C489 C497 1.433 . S
C490 H486 0.929 . S
C490 C492 1.378 . S
C490 C494 1.350 . S
C491 C494 1.463 . S
C491 C496 1.350 . S
C491 N499 1.427 . S
C492 H483 0.930 . S
C492 C490 1.378 . S
C492 C493 1.367 . S
C493 C492 1.367 . S
C493 C495 1.433 . S
C494 C490 1.350 . S
C494 C491 1.463 . S
C494 N498 1.427 . S
C495 H485 0.929 . S
C495 C493 1.433 . S
C495 N498 1.384 . S
C496 H487 0.929 . S
C496 C488 1.378 . S
C496 C491 1.350 . S
C497 H484 0.929 . S
C497 C489 1.433 . S
C497 N499 1.384 . S
N498 C494 1.427 . S
N498 C495 1.384 . S
N499 C491 1.427 . S
N499 C497 1.384 . S
H500 C506 0.930 . S
H501 C510 0.930 . S
H502 C515 0.929 . S
H503 C513 0.929 . S
H504 C508 0.929 . S
H505 C514 0.929 . S
C506 H500 0.930 . S
C506 C507 1.367 . S
C506 C514 1.378 . S
C507 C506 1.367 . S
C507 C515 1.433 . S
C508 H504 0.929 . S
C508 C510 1.378 . S
C508 C512 1.350 . S
C509 C512 1.463 . S
C509 C514 1.350 . S
C509 N517 1.427 . S
C510 H501 0.930 . S
C510 C508 1.378 . S
C510 C511 1.367 . S
C511 C510 1.367 . S
C511 C513 1.433 . S
C512 C508 1.350 . S
C512 C509 1.463 . S
C512 N516 1.427 . S
C513 H503 0.929 . S
C513 C511 1.433 . S
C513 N516 1.384 . S
C514 H505 0.929 . S
C514 C506 1.378 . S
C514 C509 1.350 . S
C515 H502 0.929 . S
C515 C507 1.433 . S
C515 N517 1.384 . S
N516 C512 1.427 . S
N516 C513 1.384 . S
N517 C509 1.427 . S
N517 C515 1.384 . S
H518 C524 0.930 . S
H519 C528 0.930 . S
H520 C533 0.929 . S
H521 C531 0.929 . S
H522 C526 0.929 . S
H523 C532 0.929 . S
C524 H518 0.930 . S
C524 C525 1.367 . S
C524 C532 1.378 . S
C525 C524 1.367 . S
C525 C533 1.433 . S
C526 H522 0.929 . S
C526 C528 1.378 . S
C526 C530 1.350 . S
C527 C530 1.463 . S
C527 C532 1.350 . S
C527 N535 1.427 . S
C528 H519 0.930 . S
C528 C526 1.378 . S
C528 C529 1.367 . S
C529 C528 1.367 . S
C529 C531 1.433 . S
C530 C526 1.350 . S
C530 C527 1.463 . S
C530 N534 1.427 . S
C531 H521 0.929 . S
C531 C529 1.433 . S
C531 N534 1.384 . S
C532 H523 0.929 . S
C532 C524 1.378 . S
C532 C527 1.350 . S
C533 H520 0.929 . S
C533 C525 1.433 . S
C533 N535 1.384 . S
N534 C530 1.427 . S
N534 C531 1.384 . S
N535 C527 1.427 . S
N535 C533 1.384 . S
H536 C542 0.930 1_556 S
H537 C546 0.930 . S
H538 C551 0.929 . S
H539 C549 0.929 . S
H540 C544 0.929 . S
H541 C550 0.929 . S
C542 H536 0.930 1_554 S
C542 C543 1.367 1_554 S
C542 C550 1.378 . S
C543 C542 1.367 1_556 S
C543 C551 1.433 1_556 S
C544 H540 0.929 . S
C544 C546 1.378 . S
C544 C548 1.350 . S
C545 C548 1.463 . S
C545 C550 1.350 . S
C545 N553 1.427 . S
C546 H537 0.930 . S
C546 C544 1.378 . S
C546 C547 1.367 . S
C547 C546 1.367 . S
C547 C549 1.433 . S
C548 C544 1.350 . S
C548 C545 1.463 . S
C548 N552 1.427 . S
C549 H539 0.929 . S
C549 C547 1.433 . S
C549 N552 1.384 . S
C550 H541 0.929 . S
C550 C542 1.378 . S
C550 C545 1.350 . S
C551 H538 0.929 . S
C551 C543 1.433 1_554 S
C551 N553 1.384 . S
N552 C548 1.427 . S
N552 C549 1.384 . S
N553 C545 1.427 . S
N553 C551 1.384 . S
H554 C560 0.930 . S
H555 C564 0.930 . S
H556 C569 0.929 . S
H557 C567 0.929 . S
H558 C562 0.929 . S
H559 C568 0.929 . S
C560 H554 0.930 . S
C560 C561 1.367 . S
C560 C568 1.378 . S
C561 C560 1.367 . S
C561 C569 1.433 . S
C562 H558 0.929 . S
C562 C564 1.378 . S
C562 C566 1.350 . S
C563 C566 1.463 . S
C563 C568 1.350 . S
C563 N571 1.427 . S
C564 H555 0.930 . S
C564 C562 1.378 . S
C564 C565 1.367 . S
C565 C564 1.367 . S
C565 C567 1.433 . S
C566 C562 1.350 . S
C566 C563 1.463 . S
C566 N570 1.427 . S
C567 H557 0.929 . S
C567 C565 1.433 . S
C567 N570 1.384 . S
C568 H559 0.929 . S
C568 C560 1.378 . S
C568 C563 1.350 . S
C569 H556 0.929 . S
C569 C561 1.433 . S
C569 N571 1.384 . S
N570 C566 1.427 . S
N570 C567 1.384 . S
N571 C563 1.427 . S
N571 C569 1.384 . S
H572 C578 0.930 . S
H573 C582 0.930 . S
H574 C587 0.929 . S
H575 C585 0.929 . S
H576 C580 0.929 . S
H577 C586 0.929 . S
C578 H572 0.930 . S
C578 C579 1.367 . S
C578 C586 1.378 . S
C579 C578 1.367 . S
C579 C587 1.433 . S
C580 H576 0.929 . S
C580 C582 1.378 . S
C580 C584 1.350 . S
C581 C584 1.463 . S
C581 C586 1.350 . S
C581 N589 1.427 . S
C582 H573 0.930 . S
C582 C580 1.378 . S
C582 C583 1.367 . S
C583 C582 1.367 . S
C583 C585 1.433 . S
C584 C580 1.350 . S
C584 C581 1.463 . S
C584 N588 1.427 . S
C585 H575 0.929 . S
C585 C583 1.433 . S
C585 N588 1.384 . S
C586 H577 0.929 . S
C586 C578 1.378 . S
C586 C581 1.350 . S
C587 H574 0.929 . S
C587 C579 1.433 . S
C587 N589 1.384 . S
N588 C584 1.427 . S
N588 C585 1.384 . S
N589 C581 1.427 . S
N589 C587 1.384 . S
H590 C596 0.930 . S
H591 C600 0.930 . S
H592 C605 0.929 . S
H593 C603 0.929 . S
H594 C598 0.929 . S
H595 C604 0.929 . S
C596 H590 0.930 . S
C596 C597 1.367 . S
C596 C604 1.378 . S
C597 C596 1.367 . S
C597 C605 1.433 . S
C598 H594 0.929 . S
C598 C600 1.378 . S
C598 C602 1.350 . S
C599 C602 1.463 . S
C599 C604 1.350 . S
C599 N607 1.427 . S
C600 H591 0.930 . S
C600 C598 1.378 . S
C600 C601 1.367 . S
C601 C600 1.367 . S
C601 C603 1.433 . S
C602 C598 1.350 . S
C602 C599 1.463 . S
C602 N606 1.427 . S
C603 H593 0.929 . S
C603 C601 1.433 . S
C603 N606 1.384 . S
C604 H595 0.929 . S
C604 C596 1.378 . S
C604 C599 1.350 . S
C605 H592 0.929 . S
C605 C597 1.433 . S
C605 N607 1.384 . S
N606 C602 1.427 . S
N606 C603 1.384 . S
N607 C599 1.427 . S
N607 C605 1.384 . S
H608 C614 0.930 . S
H609 C618 0.930 . S
H610 C623 0.929 . S
H611 C621 0.929 . S
H612 C616 0.929 . S
H613 C622 0.929 . S
C614 H608 0.930 . S
C614 C615 1.367 . S
C614 C622 1.378 . S
C615 C614 1.367 . S
C615 C623 1.433 . S
C616 H612 0.929 . S
C616 C618 1.378 . S
C616 C620 1.350 . S
C617 C620 1.463 . S
C617 C622 1.350 . S
C617 N625 1.427 . S
C618 H609 0.930 . S
C618 C616 1.378 . S
C618 C619 1.367 . S
C619 C618 1.367 . S
C619 C621 1.433 . S
C620 C616 1.350 . S
C620 C617 1.463 . S
C620 N624 1.427 . S
C621 H611 0.929 . S
C621 C619 1.433 . S
C621 N624 1.384 . S
C622 H613 0.929 . S
C622 C614 1.378 . S
C622 C617 1.350 . S
C623 H610 0.929 . S
C623 C615 1.433 . S
C623 N625 1.384 . S
N624 C620 1.427 . S
N624 C621 1.384 . S
N625 C617 1.427 . S
N625 C623 1.384 . S
H626 C632 0.930 . S
H627 C636 0.930 . S
H628 C641 0.929 . S
H629 C639 0.929 . S
H630 C634 0.929 . S
H631 C640 0.929 . S
C632 H626 0.930 . S
C632 C633 1.367 . S
C632 C640 1.378 1_545 S
C633 C632 1.367 . S
C633 C641 1.433 . S
C634 H630 0.929 . S
C634 C636 1.378 . S
C634 C638 1.350 . S
C635 C638 1.463 . S
C635 C640 1.350 . S
C635 N643 1.427 . S
C636 H627 0.930 . S
C636 C634 1.378 . S
C636 C637 1.367 . S
C637 C636 1.367 . S
C637 C639 1.433 . S
C638 C634 1.350 . S
C638 C635 1.463 . S
C638 N642 1.427 . S
C639 H629 0.929 . S
C639 C637 1.433 . S
C639 N642 1.384 . S
C640 H631 0.929 . S
C640 C632 1.378 1_565 S
C640 C635 1.350 . S
C641 H628 0.929 . S
C641 C633 1.433 . S
C641 N643 1.384 1_545 S
N642 C638 1.427 . S
N642 C639 1.384 . S
N643 C635 1.427 . S
N643 C641 1.384 1_565 S
H644 C650 0.930 . S
H645 C654 0.930 . S
H646 C659 0.929 . S
H647 C657 0.929 . S
H648 C652 0.929 . S
H649 C658 0.929 1_554 S
C650 H644 0.930 . S
C650 C651 1.367 . S
C650 C658 1.378 1_554 S
C651 C650 1.367 . S
C651 C659 1.433 1_554 S
C652 H648 0.929 . S
C652 C654 1.378 . S
C652 C656 1.350 . S
C653 C656 1.463 . S
C653 C658 1.350 . S
C653 N661 1.427 . S
C654 H645 0.930 . S
C654 C652 1.378 . S
C654 C655 1.367 . S
C655 C654 1.367 . S
C655 C657 1.433 . S
C656 C652 1.350 . S
C656 C653 1.463 . S
C656 N660 1.427 . S
C657 H647 0.929 . S
C657 C655 1.433 . S
C657 N660 1.384 . S
C658 H649 0.929 1_556 S
C658 C650 1.378 1_556 S
C658 C653 1.350 . S
C659 H646 0.929 . S
C659 C651 1.433 1_556 S
C659 N661 1.384 . S
N660 C656 1.427 . S
N660 C657 1.384 . S
N661 C653 1.427 . S
N661 C659 1.384 . S
H662 C668 0.930 . S
H663 C672 0.930 . S
H664 C677 0.929 . S
H665 C675 0.929 . S
H666 C670 0.929 . S
H667 C676 0.929 . S
C668 H662 0.930 . S
C668 C669 1.367 . S
C668 C676 1.378 . S
C669 C668 1.367 . S
C669 C677 1.433 . S
C670 H666 0.929 . S
C670 C672 1.378 . S
C670 C674 1.350 . S
C671 C674 1.463 . S
C671 C676 1.350 1_545 S
C671 N679 1.427 . S
C672 H663 0.930 . S
C672 C670 1.378 . S
C672 C673 1.367 . S
C673 C672 1.367 . S
C673 C675 1.433 . S
C674 C670 1.350 . S
C674 C671 1.463 . S
C674 N678 1.427 . S
C675 H665 0.929 . S
C675 C673 1.433 . S
C675 N678 1.384 . S
C676 H667 0.929 . S
C676 C668 1.378 . S
C676 C671 1.350 1_565 S
C677 H664 0.929 . S
C677 C669 1.433 . S
C677 N679 1.384 1_565 S
N678 C674 1.427 . S
N678 C675 1.384 . S
N679 C671 1.427 . S
N679 C677 1.384 1_545 S
H680 C686 0.930 . S
H681 C690 0.930 . S
H682 C695 0.929 . S
H683 C693 0.929 . S
H684 C688 0.929 . S
H685 C694 0.929 . S
C686 H680 0.930 . S
C686 C687 1.367 . S
C686 C694 1.378 . S
C687 C686 1.367 . S
C687 C695 1.433 . S
C688 H684 0.929 . S
C688 C690 1.378 . S
C688 C692 1.350 . S
C689 C692 1.463 . S
C689 C694 1.350 . S
C689 N697 1.427 . S
C690 H681 0.930 . S
C690 C688 1.378 . S
C690 C691 1.367 . S
C691 C690 1.367 . S
C691 C693 1.433 . S
C692 C688 1.350 . S
C692 C689 1.463 . S
C692 N696 1.427 . S
C693 H683 0.929 . S
C693 C691 1.433 . S
C693 N696 1.384 . S
C694 H685 0.929 . S
C694 C686 1.378 . S
C694 C689 1.350 . S
C695 H682 0.929 . S
C695 C687 1.433 . S
C695 N697 1.384 . S
N696 C692 1.427 . S
N696 C693 1.384 . S
N697 C689 1.427 . S
N697 C695 1.384 . S
H698 C704 0.930 . S
H699 C708 0.930 . S
H700 C713 0.929 . S
H701 C711 0.929 . S
H702 C706 0.929 . S
H703 C712 0.929 . S
C704 H698 0.930 . S
C704 C705 1.367 . S
C704 C712 1.378 . S
C705 C704 1.367 . S
C705 C713 1.433 . S
C706 H702 0.929 . S
C706 C708 1.378 1_545 S
C706 C710 1.350 . S
C707 C710 1.463 . S
C707 C712 1.350 . S
C707 N715 1.427 . S
C708 H699 0.930 . S
C708 C706 1.378 1_565 S
C708 C709 1.367 . S
C709 C708 1.367 . S
C709 C711 1.433 . S
C710 C706 1.350 . S
C710 C707 1.463 . S
C710 N714 1.427 1_545 S
C711 H701 0.929 . S
C711 C709 1.433 . S
C711 N714 1.384 . S
C712 H703 0.929 . S
C712 C704 1.378 . S
C712 C707 1.350 . S
C713 H700 0.929 . S
C713 C705 1.433 . S
C713 N715 1.384 . S
N714 C710 1.427 1_565 S
N714 C711 1.384 . S
N715 C707 1.427 . S
N715 C713 1.384 . S
H716 C722 0.930 . S
H717 C726 0.930 . S
H718 C731 0.929 . S
H719 C729 0.929 1_556 S
H720 C724 0.929 . S
H721 C730 0.929 . S
C722 H716 0.930 . S
C722 C723 1.367 . S
C722 C730 1.378 . S
C723 C722 1.367 . S
C723 C731 1.433 . S
C724 H720 0.929 . S
C724 C726 1.378 . S
C724 C728 1.350 . S
C725 C728 1.463 . S
C725 C730 1.350 . S
C725 N733 1.427 . S
C726 H717 0.930 . S
C726 C724 1.378 . S
C726 C727 1.367 1_554 S
C727 C726 1.367 1_556 S
C727 C729 1.433 1_556 S
C728 C724 1.350 . S
C728 C725 1.463 . S
C728 N732 1.427 . S
C729 H719 0.929 1_554 S
C729 C727 1.433 1_554 S
C729 N732 1.384 . S
C730 H721 0.929 . S
C730 C722 1.378 . S
C730 C725 1.350 . S
C731 H718 0.929 . S
C731 C723 1.433 . S
C731 N733 1.384 . S
N732 C728 1.427 . S
N732 C729 1.384 . S
N733 C725 1.427 . S
N733 C731 1.384 . S
H734 C740 0.930 . S
H735 C744 0.930 . S
H736 C749 0.929 . S
H737 C747 0.929 . S
H738 C742 0.929 . S
H739 C748 0.929 . S
C740 H734 0.930 . S
C740 C741 1.367 . S
C740 C748 1.378 . S
C741 C740 1.367 . S
C741 C749 1.433 . S
C742 H738 0.929 . S
C742 C744 1.378 . S
C742 C746 1.350 . S
C743 C746 1.463 . S
C743 C748 1.350 1_565 S
C743 N751 1.427 . S
C744 H735 0.930 . S
C744 C742 1.378 . S
C744 C745 1.367 . S
C745 C744 1.367 . S
C745 C747 1.433 . S
C746 C742 1.350 . S
C746 C743 1.463 . S
C746 N750 1.427 . S
C747 H737 0.929 . S
C747 C745 1.433 . S
C747 N750 1.384 . S
C748 H739 0.929 . S
C748 C740 1.378 . S
C748 C743 1.350 1_545 S
C749 H736 0.929 . S
C749 C741 1.433 . S
C749 N751 1.384 1_545 S
N750 C746 1.427 . S
N750 C747 1.384 . S
N751 C743 1.427 . S
N751 C749 1.384 1_565 S
H752 C758 0.930 . S
H753 C762 0.930 . S
H754 C767 0.929 . S
H755 C765 0.929 . S
H756 C760 0.929 . S
H757 C766 0.929 . S
C758 H752 0.930 . S
C758 C759 1.367 . S
C758 C766 1.378 . S
C759 C758 1.367 . S
C759 C767 1.433 . S
C760 H756 0.929 . S
C760 C762 1.378 . S
C760 C764 1.350 . S
C761 C764 1.463 . S
C761 C766 1.350 . S
C761 N769 1.427 . S
C762 H753 0.930 . S
C762 C760 1.378 . S
C762 C763 1.367 . S
C763 C762 1.367 . S
C763 C765 1.433 . S
C764 C760 1.350 . S
C764 C761 1.463 . S
C764 N768 1.427 . S
C765 H755 0.929 . S
C765 C763 1.433 . S
C765 N768 1.384 . S
C766 H757 0.929 . S
C766 C758 1.378 . S
C766 C761 1.350 . S
C767 H754 0.929 . S
C767 C759 1.433 . S
C767 N769 1.384 . S
N768 C764 1.427 . S
N768 C765 1.384 . S
N769 C761 1.427 . S
N769 C767 1.384 . S
H770 C776 0.930 . S
H771 C780 0.930 1_556 S
H772 C785 0.929 . S
H773 C783 0.929 . S
H774 C778 0.929 . S
H775 C784 0.929 . S
C776 H770 0.930 . S
C776 C777 1.367 . S
C776 C784 1.378 . S
C777 C776 1.367 . S
C777 C785 1.433 . S
C778 H774 0.929 . S
C778 C780 1.378 . S
C778 C782 1.350 . S
C779 C782 1.463 . S
C779 C784 1.350 . S
C779 N787 1.427 . S
C780 H771 0.930 1_554 S
C780 C778 1.378 . S
C780 C781 1.367 . S
C781 C780 1.367 . S
C781 C783 1.433 . S
C782 C778 1.350 . S
C782 C779 1.463 . S
C782 N786 1.427 . S
C783 H773 0.929 . S
C783 C781 1.433 . S
C783 N786 1.384 . S
C784 H775 0.929 . S
C784 C776 1.378 . S
C784 C779 1.350 . S
C785 H772 0.929 . S
C785 C777 1.433 . S
C785 N787 1.384 . S
N786 C782 1.427 . S
N786 C783 1.384 . S
N787 C779 1.427 . S
N787 C785 1.384 . S
H788 C794 0.930 . S
H789 C798 0.930 . S
H790 C803 0.929 1_455 S
H791 C801 0.929 . S
H792 C796 0.929 . S
H793 C802 0.929 . S
C794 H788 0.930 . S
C794 C795 1.367 . S
C794 C802 1.378 . S
C795 C794 1.367 . S
C795 C803 1.433 . S
C796 H792 0.929 . S
C796 C798 1.378 . S
C796 C800 1.350 . S
C797 C800 1.463 . S
C797 C802 1.350 1_455 S
C797 N805 1.427 . S
C798 H789 0.930 . S
C798 C796 1.378 . S
C798 C799 1.367 . S
C799 C798 1.367 . S
C799 C801 1.433 . S
C800 C796 1.350 . S
C800 C797 1.463 . S
C800 N804 1.427 . S
C801 H791 0.929 . S
C801 C799 1.433 . S
C801 N804 1.384 . S
C802 H793 0.929 . S
C802 C794 1.378 . S
C802 C797 1.350 1_655 S
C803 H790 0.929 1_655 S
C803 C795 1.433 . S
C803 N805 1.384 1_655 S
N804 C800 1.427 . S
N804 C801 1.384 . S
N805 C797 1.427 . S
N805 C803 1.384 1_455 S
H806 C812 0.930 . S
H807 C816 0.930 . S
H808 C821 0.929 . S
H809 C819 0.929 . S
H810 C814 0.929 . S
H811 C820 0.929 . S
C812 H806 0.930 . S
C812 C813 1.367 . S
C812 C820 1.378 . S
C813 C812 1.367 . S
C813 C821 1.433 . S
C814 H810 0.929 . S
C814 C816 1.378 . S
C814 C818 1.350 . S
C815 C818 1.463 . S
C815 C820 1.350 . S
C815 N823 1.427 . S
C816 H807 0.930 . S
C816 C814 1.378 . S
C816 C817 1.367 . S
C817 C816 1.367 . S
C817 C819 1.433 . S
C818 C814 1.350 . S
C818 C815 1.463 . S
C818 N822 1.427 . S
C819 H809 0.929 . S
C819 C817 1.433 . S
C819 N822 1.384 . S
C820 H811 0.929 . S
C820 C812 1.378 . S
C820 C815 1.350 . S
C821 H808 0.929 . S
C821 C813 1.433 . S
C821 N823 1.384 . S
N822 C818 1.427 . S
N822 C819 1.384 . S
N823 C815 1.427 . S
N823 C821 1.384 . S
H824 C830 0.930 . S
H825 C834 0.930 . S
H826 C839 0.929 . S
H827 C837 0.929 . S
H828 C832 0.929 . S
H829 C838 0.929 . S
C830 H824 0.930 . S
C830 C831 1.367 . S
C830 C838 1.378 . S
C831 C830 1.367 . S
C831 C839 1.433 . S
C832 H828 0.929 . S
C832 C834 1.378 . S
C832 C836 1.350 . S
C833 C836 1.463 . S
C833 C838 1.350 . S
C833 N841 1.427 . S
C834 H825 0.930 . S
C834 C832 1.378 . S
C834 C835 1.367 . S
C835 C834 1.367 . S
C835 C837 1.433 . S
C836 C832 1.350 . S
C836 C833 1.463 . S
C836 N840 1.427 . S
C837 H827 0.929 . S
C837 C835 1.433 . S
C837 N840 1.384 . S
C838 H829 0.929 . S
C838 C830 1.378 . S
C838 C833 1.350 . S
C839 H826 0.929 . S
C839 C831 1.433 . S
C839 N841 1.384 . S
N840 C836 1.427 . S
N840 C837 1.384 . S
N841 C833 1.427 . S
N841 C839 1.384 . S
H842 C848 0.930 . S
H843 C852 0.930 . S
H844 C857 0.929 . S
H845 C855 0.929 1_554 S
H846 C850 0.929 . S
H847 C856 0.929 . S
C848 H842 0.930 . S
C848 C849 1.367 . S
C848 C856 1.378 . S
C849 C848 1.367 . S
C849 C857 1.433 . S
C850 H846 0.929 . S
C850 C852 1.378 . S
C850 C854 1.350 . S
C851 C854 1.463 . S
C851 C856 1.350 . S
C851 N859 1.427 . S
C852 H843 0.930 . S
C852 C850 1.378 . S
C852 C853 1.367 . S
C853 C852 1.367 . S
C853 C855 1.433 . S
C854 C850 1.350 . S
C854 C851 1.463 . S
C854 N858 1.427 . S
C855 H845 0.929 1_556 S
C855 C853 1.433 . S
C855 N858 1.384 . S
C856 H847 0.929 . S
C856 C848 1.378 . S
C856 C851 1.350 . S
C857 H844 0.929 . S
C857 C849 1.433 . S
C857 N859 1.384 . S
N858 C854 1.427 . S
N858 C855 1.384 . S
N859 C851 1.427 . S
N859 C857 1.384 . S
H860 C866 0.930 . S
H861 C870 0.930 . S
H862 C875 0.929 . S
H863 C873 0.929 . S
H864 C868 0.929 . S
H865 C874 0.921 1_655 S
C866 H860 0.930 . S
C866 C867 1.367 . S
C866 C874 1.378 . S
C867 C866 1.367 . S
C867 C875 1.433 . S
C868 H864 0.929 . S
C868 C870 1.378 . S
C868 C872 1.350 . S
C869 C872 1.463 . S
C869 C874 1.350 1_655 S
C869 N877 1.427 1_655 S
C870 H861 0.930 . S
C870 C868 1.378 . S
C870 C871 1.367 . S
C871 C870 1.367 . S
C871 C873 1.433 . S
C872 C868 1.350 . S
C872 C869 1.463 . S
C872 N876 1.427 . S
C873 H863 0.929 . S
C873 C871 1.433 . S
C873 N876 1.384 . S
C874 H865 0.921 1_455 S
C874 C866 1.378 . S
C874 C869 1.350 1_455 S
C875 H862 0.929 . S
C875 C867 1.433 . S
C875 N877 1.384 . S
N876 C872 1.427 . S
N876 C873 1.384 . S
N877 C869 1.427 1_455 S
N877 C875 1.384 . S
H878 C884 0.930 . S
H879 C888 0.930 . S
H880 C893 0.929 . S
H881 C891 0.929 . S
H882 C886 0.929 . S
H883 C892 0.929 . S
C884 H878 0.930 . S
C884 C885 1.367 . S
C884 C892 1.378 . S
C885 C884 1.367 . S
C885 C893 1.433 . S
C886 H882 0.929 . S
C886 C888 1.378 . S
C886 C890 1.350 . S
C887 C890 1.463 . S
C887 C892 1.350 . S
C887 N895 1.427 . S
C888 H879 0.930 . S
C888 C886 1.378 . S
C888 C889 1.367 . S
C889 C888 1.367 . S
C889 C891 1.433 . S
C890 C886 1.350 . S
C890 C887 1.463 . S
C890 N894 1.427 . S
C891 H881 0.929 . S
C891 C889 1.433 . S
C891 N894 1.384 . S
C892 H883 0.929 . S
C892 C884 1.378 . S
C892 C887 1.350 . S
C893 H880 0.929 . S
C893 C885 1.433 . S
C893 N895 1.384 . S
N894 C890 1.427 . S
N894 C891 1.384 . S
N895 C887 1.427 . S
N895 C893 1.384 . S
H896 C902 0.930 . S
H897 C906 0.930 . S
H898 C911 0.929 . S
H899 C909 0.929 . S
H900 C904 0.929 . S
H901 C910 0.929 . S
C902 H896 0.930 . S
C902 C903 1.367 . S
C902 C910 1.378 . S
C903 C902 1.367 . S
C903 C911 1.433 . S
C904 H900 0.929 . S
C904 C906 1.378 . S
C904 C908 1.350 1_455 S
C905 C908 1.463 . S
C905 C910 1.350 . S
C905 N913 1.427 . S
C906 H897 0.930 . S
C906 C904 1.378 . S
C906 C907 1.367 . S
C907 C906 1.367 . S
C907 C909 1.433 . S
C908 C904 1.350 1_655 S
C908 C905 1.463 . S
C908 N912 1.427 . S
C909 H899 0.929 . S
C909 C907 1.433 . S
C909 N912 1.384 1_455 S
C910 H901 0.929 . S
C910 C902 1.378 . S
C910 C905 1.350 . S
C911 H898 0.929 . S
C911 C903 1.433 . S
C911 N913 1.384 . S
N912 C908 1.427 . S
N912 C909 1.384 1_655 S
N913 C905 1.427 . S
N913 C911 1.384 . S
H914 C920 0.930 . S
H915 C924 0.930 . S
H916 C929 0.929 . S
H917 C927 0.929 . S
H918 C922 0.929 . S
H919 C928 0.929 . S
C920 H914 0.930 . S
C920 C921 1.367 . S
C920 C928 1.378 . S
C921 C920 1.367 . S
C921 C929 1.433 . S
C922 H918 0.929 . S
C922 C924 1.378 . S
C922 C926 1.350 . S
C923 C926 1.463 . S
C923 C928 1.350 . S
C923 N931 1.427 . S
C924 H915 0.930 . S
C924 C922 1.378 . S
C924 C925 1.367 . S
C925 C924 1.367 . S
C925 C927 1.433 . S
C926 C922 1.350 . S
C926 C923 1.463 . S
C926 N930 1.427 . S
C927 H917 0.929 . S
C927 C925 1.433 . S
C927 N930 1.384 . S
C928 H919 0.929 . S
C928 C920 1.378 . S
C928 C923 1.350 . S
C929 H916 0.929 . S
C929 C921 1.433 . S
C929 N931 1.384 . S
N930 C926 1.427 . S
N930 C927 1.384 . S
N931 C923 1.427 . S
N931 C929 1.384 . S
H932 C938 0.930 . S
H933 C942 0.930 . S
H934 C947 0.929 . S
H935 C945 0.929 . S
H936 C940 0.929 . S
H937 C946 0.929 . S
C938 H932 0.930 . S
C938 C939 1.367 . S
C938 C946 1.378 . S
C939 C938 1.367 . S
C939 C947 1.433 . S
C940 H936 0.929 . S
C940 C942 1.378 . S
C940 C944 1.350 . S
C941 C944 1.463 . S
C941 C946 1.350 . S
C941 N949 1.427 . S
C942 H933 0.930 . S
C942 C940 1.378 . S
C942 C943 1.367 . S
C943 C942 1.367 . S
C943 C945 1.433 . S
C944 C940 1.350 . S
C944 C941 1.463 . S
C944 N948 1.427 . S
C945 H935 0.929 . S
C945 C943 1.433 . S
C945 N948 1.384 . S
C946 H937 0.929 . S
C946 C938 1.378 . S
C946 C941 1.350 . S
C947 H934 0.929 . S
C947 C939 1.433 . S
C947 N949 1.384 . S
N948 C944 1.427 . S
N948 C945 1.384 . S
N949 C941 1.427 . S
N949 C947 1.384 . S
H950 C956 0.930 . S
H951 C960 0.930 . S
H952 C965 0.929 1_556 S
H953 C963 0.929 . S
H954 C958 0.929 . S
H955 C964 0.929 . S
C956 H950 0.930 . S
C956 C957 1.367 . S
C956 C964 1.378 . S
C957 C956 1.367 . S
C957 C965 1.433 . S
C958 H954 0.929 . S
C958 C960 1.378 . S
C958 C962 1.350 . S
C959 C962 1.463 . S
C959 C964 1.350 . S
C959 N967 1.427 . S
C960 H951 0.930 . S
C960 C958 1.378 . S
C960 C961 1.367 . S
C961 C960 1.367 . S
C961 C963 1.433 . S
C962 C958 1.350 . S
C962 C959 1.463 . S
C962 N966 1.427 . S
C963 H953 0.929 . S
C963 C961 1.433 . S
C963 N966 1.384 . S
C964 H955 0.929 . S
C964 C956 1.378 . S
C964 C959 1.350 . S
C965 H952 0.929 1_554 S
C965 C957 1.433 . S
C965 N967 1.384 . S
N966 C962 1.427 . S
N966 C963 1.384 . S
N967 C959 1.427 . S
N967 C965 1.384 . S
H968 C974 0.930 . S
H969 C978 0.939 . S
H970 C983 0.929 . S
H971 C981 0.929 . S
H972 C976 0.929 . S
H973 C982 0.929 1_655 S
C974 H968 0.930 . S
C974 C975 1.367 . S
C974 C982 1.378 . S
C975 C974 1.367 . S
C975 C983 1.433 . S
C976 H972 0.929 . S
C976 C978 1.378 1_455 S
C976 C980 1.350 . S
C977 C980 1.463 . S
C977 C982 1.350 . S
C977 N985 1.427 . S
C978 H969 0.939 . S
C978 C976 1.378 1_655 S
C978 C979 1.367 . S
C979 C978 1.367 . S
C979 C981 1.433 . S
C980 C976 1.350 . S
C980 C977 1.463 . S
C980 N984 1.427 1_455 S
C981 H971 0.929 . S
C981 C979 1.433 . S
C981 N984 1.384 . S
C982 H973 0.929 1_455 S
C982 C974 1.378 . S
C982 C977 1.350 . S
C983 H970 0.929 . S
C983 C975 1.433 . S
C983 N985 1.384 . S
N984 C980 1.427 1_655 S
N984 C981 1.384 . S
N985 C977 1.427 . S
N985 C983 1.384 . S
H986 C992 0.930 . S
H987 C996 0.930 . S
H988 C1001 0.929 . S
H989 C999 0.929 . S
H990 C994 0.929 . S
H991 C1000 0.929 . S
C992 H986 0.930 . S
C992 C993 1.367 . S
C992 C1000 1.378 . S
C993 C992 1.367 . S
C993 C1001 1.433 . S
C994 H990 0.929 . S
C994 C996 1.378 . S
C994 C998 1.350 . S
C995 C998 1.463 . S
C995 C1000 1.350 . S
C995 N1003 1.427 . S
C996 H987 0.930 . S
C996 C994 1.378 . S
C996 C997 1.367 . S
C997 C996 1.367 . S
C997 C999 1.433 . S
C998 C994 1.350 . S
C998 C995 1.463 . S
C998 N1002 1.427 . S
C999 H989 0.929 . S
C999 C997 1.433 . S
C999 N1002 1.384 . S
C1000 H991 0.929 . S
C1000 C992 1.378 . S
C1000 C995 1.350 . S
C1001 H988 0.929 . S
C1001 C993 1.433 . S
C1001 N1003 1.384 . S
N1002 C998 1.427 . S
N1002 C999 1.384 . S
N1003 C995 1.427 . S
N1003 C1001 1.384 . S
H1004 C1010 0.930 . S
H1005 C1014 0.930 . S
H1006 C1019 0.929 . S
H1007 C1017 0.929 . S
H1008 C1012 0.929 . S
H1009 C1018 0.929 . S
C1010 H1004 0.930 . S
C1010 C1011 1.367 . S
C1010 C1018 1.378 . S
C1011 C1010 1.367 . S
C1011 C1019 1.433 . S
C1012 H1008 0.929 . S
C1012 C1014 1.378 . S
C1012 C1016 1.350 . S
C1013 C1016 1.463 . S
C1013 C1018 1.350 . S
C1013 N1021 1.427 . S
C1014 H1005 0.930 . S
C1014 C1012 1.378 . S
C1014 C1015 1.367 . S
C1015 C1014 1.367 . S
C1015 C1017 1.433 . S
C1016 C1012 1.350 . S
C1016 C1013 1.463 . S
C1016 N1020 1.427 . S
C1017 H1007 0.929 . S
C1017 C1015 1.433 . S
C1017 N1020 1.384 . S
C1018 H1009 0.929 . S
C1018 C1010 1.378 . S
C1018 C1013 1.350 . S
C1019 H1006 0.929 . S
C1019 C1011 1.433 . S
C1019 N1021 1.384 . S
N1020 C1016 1.427 . S
N1020 C1017 1.384 . S
N1021 C1013 1.427 . S
N1021 C1019 1.384 . S
H1022 C1028 0.930 1_554 S
H1023 C1032 0.930 . S
H1024 C1037 0.929 . S
H1025 C1035 0.929 . S
H1026 C1030 0.929 . S
H1027 C1036 0.929 . S
C1028 H1022 0.930 1_556 S
C1028 C1029 1.367 . S
C1028 C1036 1.378 . S
C1029 C1028 1.367 . S
C1029 C1037 1.433 . S
C1030 H1026 0.929 . S
C1030 C1032 1.378 . S
C1030 C1034 1.350 . S
C1031 C1034 1.463 . S
C1031 C1036 1.350 . S
C1031 N1039 1.427 . S
C1032 H1023 0.930 . S
C1032 C1030 1.378 . S
C1032 C1033 1.367 . S
C1033 C1032 1.367 . S
C1033 C1035 1.433 . S
C1034 C1030 1.350 . S
C1034 C1031 1.463 . S
C1034 N1038 1.427 . S
C1035 H1025 0.929 . S
C1035 C1033 1.433 . S
C1035 N1038 1.384 . S
C1036 H1027 0.929 . S
C1036 C1028 1.378 . S
C1036 C1031 1.350 . S
C1037 H1024 0.929 . S
C1037 C1029 1.433 . S
C1037 N1039 1.384 . S
N1038 C1034 1.427 . S
N1038 C1035 1.384 . S
N1039 C1031 1.427 . S
N1039 C1037 1.384 . S
H1040 C1046 0.930 . S
H1041 C1050 0.930 . S
H1042 C1055 0.929 . S
H1043 C1053 0.929 . S
H1044 C1048 0.929 . S
H1045 C1054 0.929 . S
C1046 H1040 0.930 . S
C1046 C1047 1.367 . S
C1046 C1054 1.378 . S
C1047 C1046 1.367 . S
C1047 C1055 1.433 . S
C1048 H1044 0.929 . S
C1048 C1050 1.378 . S
C1048 C1052 1.350 . S
C1049 C1052 1.463 . S
C1049 C1054 1.350 . S
C1049 N1057 1.427 . S
C1050 H1041 0.930 . S
C1050 C1048 1.378 . S
C1050 C1051 1.367 . S
C1051 C1050 1.367 . S
C1051 C1053 1.433 . S
C1052 C1048 1.350 . S
C1052 C1049 1.463 . S
C1052 N1056 1.427 . S
C1053 H1043 0.929 . S
C1053 C1051 1.433 . S
C1053 N1056 1.384 . S
C1054 H1045 0.929 . S
C1054 C1046 1.378 . S
C1054 C1049 1.350 . S
C1055 H1042 0.929 . S
C1055 C1047 1.433 . S
C1055 N1057 1.384 . S
N1056 C1052 1.427 . S
N1056 C1053 1.384 . S
N1057 C1049 1.427 . S
N1057 C1055 1.384 . S
H1058 C1064 0.930 . S
H1059 C1068 0.930 . S
H1060 C1073 0.929 . S
H1061 C1071 0.929 . S
H1062 C1066 0.929 . S
H1063 C1072 0.929 . S
C1064 H1058 0.930 . S
C1064 C1065 1.367 . S
C1064 C1072 1.378 . S
C1065 C1064 1.367 . S
C1065 C1073 1.433 . S
C1066 H1062 0.929 . S
C1066 C1068 1.378 . S
C1066 C1070 1.350 . S
C1067 C1070 1.463 . S
C1067 C1072 1.350 . S
C1067 N1075 1.427 . S
C1068 H1059 0.930 . S
C1068 C1066 1.378 . S
C1068 C1069 1.367 . S
C1069 C1068 1.367 . S
C1069 C1071 1.433 . S
C1070 C1066 1.350 . S
C1070 C1067 1.463 . S
C1070 N1074 1.427 . S
C1071 H1061 0.929 . S
C1071 C1069 1.433 . S
C1071 N1074 1.384 . S
C1072 H1063 0.929 . S
C1072 C1064 1.378 . S
C1072 C1067 1.350 . S
C1073 H1060 0.929 . S
C1073 C1065 1.433 . S
C1073 N1075 1.384 . S
N1074 C1070 1.427 . S
N1074 C1071 1.384 . S
N1075 C1067 1.427 . S
N1075 C1073 1.384 . S
H1076 C1082 0.930 . S
H1077 C1086 0.930 . S
H1078 C1091 0.929 . S
H1079 C1089 0.929 . S
H1080 C1084 0.929 . S
H1081 C1090 0.929 . S
C1082 H1076 0.930 . S
C1082 C1083 1.367 . S
C1082 C1090 1.378 . S
C1083 C1082 1.367 . S
C1083 C1091 1.433 . S
C1084 H1080 0.929 . S
C1084 C1086 1.378 . S
C1084 C1088 1.350 . S
C1085 C1088 1.463 . S
C1085 C1090 1.350 . S
C1085 N1093 1.427 . S
C1086 H1077 0.930 . S
C1086 C1084 1.378 . S
C1086 C1087 1.367 . S
C1087 C1086 1.367 . S
C1087 C1089 1.433 . S
C1088 C1084 1.350 . S
C1088 C1085 1.463 . S
C1088 N1092 1.427 . S
C1089 H1079 0.929 . S
C1089 C1087 1.433 . S
C1089 N1092 1.384 . S
C1090 H1081 0.929 . S
C1090 C1082 1.378 . S
C1090 C1085 1.350 . S
C1091 H1078 0.929 . S
C1091 C1083 1.433 . S
C1091 N1093 1.384 . S
N1092 C1088 1.427 . S
N1092 C1089 1.384 . S
N1093 C1085 1.427 . S
N1093 C1091 1.384 . S
H1094 C1100 0.930 . S
H1095 C1104 0.930 . S
H1096 C1109 0.929 . S
H1097 C1107 0.929 . S
H1098 C1102 0.929 1_455 S
H1099 C1108 0.929 1_655 S
C1100 H1094 0.930 . S
C1100 C1101 1.367 . S
C1100 C1108 1.378 . S
C1101 C1100 1.367 . S
C1101 C1109 1.433 . S
C1102 H1098 0.929 1_655 S
C1102 C1104 1.378 . S
C1102 C1106 1.350 . S
C1103 C1106 1.463 1_454 S
C1103 C1108 1.350 . S
C1103 N1111 1.427 1_554 S
C1104 H1095 0.930 . S
C1104 C1102 1.378 . S
C1104 C1105 1.367 . S
C1105 C1104 1.367 . S
C1105 C1107 1.433 . S
C1106 C1102 1.350 . S
C1106 C1103 1.463 1_656 S
C1106 N1110 1.427 1_556 S
C1107 H1097 0.929 . S
C1107 C1105 1.433 . S
C1107 N1110 1.384 1_556 S
C1108 H1099 0.929 1_455 S
C1108 C1100 1.378 . S
C1108 C1103 1.350 . S
C1109 H1096 0.929 . S
C1109 C1101 1.433 . S
C1109 N1111 1.384 1_554 S
N1110 C1106 1.427 1_554 S
N1110 C1107 1.384 1_554 S
N1111 C1103 1.427 1_556 S
N1111 C1109 1.384 1_556 S
H1112 C1118 0.930 . S
H1113 C1122 0.930 . S
H1114 C1127 0.929 . S
H1115 C1125 0.929 . S
H1116 C1120 0.929 . S
H1117 C1126 0.929 . S
C1118 H1112 0.930 . S
C1118 C1119 1.367 . S
C1118 C1126 1.378 . S
C1119 C1118 1.367 . S
C1119 C1127 1.433 . S
C1120 H1116 0.929 . S
C1120 C1122 1.378 . S
C1120 C1124 1.350 . S
C1121 C1124 1.463 . S
C1121 C1126 1.350 . S
C1121 N1129 1.427 . S
C1122 H1113 0.930 . S
C1122 C1120 1.378 . S
C1122 C1123 1.367 . S
C1123 C1122 1.367 . S
C1123 C1125 1.433 . S
C1124 C1120 1.350 . S
C1124 C1121 1.463 . S
C1124 N1128 1.427 . S
C1125 H1115 0.929 . S
C1125 C1123 1.433 . S
C1125 N1128 1.384 . S
C1126 H1117 0.929 . S
C1126 C1118 1.378 . S
C1126 C1121 1.350 . S
C1127 H1114 0.929 . S
C1127 C1119 1.433 . S
C1127 N1129 1.384 . S
N1128 C1124 1.427 . S
N1128 C1125 1.384 . S
N1129 C1121 1.427 . S
N1129 C1127 1.384 . S
H1130 C1136 0.930 . S
H1131 C1140 0.930 . S
H1132 C1145 0.929 . S
H1133 C1143 0.929 . S
H1134 C1138 0.929 . S
H1135 C1144 0.929 . S
C1136 H1130 0.930 . S
C1136 C1137 1.367 . S
C1136 C1144 1.378 . S
C1137 C1136 1.367 . S
C1137 C1145 1.433 . S
C1138 H1134 0.929 . S
C1138 C1140 1.378 . S
C1138 C1142 1.350 . S
C1139 C1142 1.463 . S
C1139 C1144 1.350 . S
C1139 N1147 1.427 . S
C1140 H1131 0.930 . S
C1140 C1138 1.378 . S
C1140 C1141 1.367 . S
C1141 C1140 1.367 . S
C1141 C1143 1.433 . S
C1142 C1138 1.350 . S
C1142 C1139 1.463 . S
C1142 N1146 1.427 . S
C1143 H1133 0.929 . S
C1143 C1141 1.433 . S
C1143 N1146 1.384 . S
C1144 H1135 0.929 . S
C1144 C1136 1.378 . S
C1144 C1139 1.350 . S
C1145 H1132 0.929 . S
C1145 C1137 1.433 . S
C1145 N1147 1.384 . S
N1146 C1142 1.427 . S
N1146 C1143 1.384 . S
N1147 C1139 1.427 . S
N1147 C1145 1.384 . S
H1148 C1154 0.930 . S
H1149 C1158 0.930 . S
H1150 C1163 0.929 . S
H1151 C1161 0.929 . S
H1152 C1156 0.942 . S
H1153 C1162 0.942 . S
C1154 H1148 0.930 . S
C1154 C1155 1.367 . S
C1154 C1162 1.369 1_455 S
C1155 C1154 1.367 . S
C1155 C1163 1.433 . S
C1156 H1152 0.942 . S
C1156 C1158 1.369 1_455 S
C1156 C1160 1.345 1_455 S
C1157 C1160 1.463 1_446 S
C1157 C1162 1.345 1_455 S
C1157 N1165 1.427 1_545 S
C1158 H1149 0.930 . S
C1158 C1156 1.369 1_655 S
C1158 C1159 1.367 . S
C1159 C1158 1.367 . S
C1159 C1161 1.433 . S
C1160 C1156 1.345 1_655 S
C1160 C1157 1.463 1_664 S
C1160 N1164 1.427 1_565 S
C1161 H1151 0.929 . S
C1161 C1159 1.433 . S
C1161 N1164 1.384 1_565 S
C1162 H1153 0.942 . S
C1162 C1154 1.369 1_655 S
C1162 C1157 1.345 1_655 S
C1163 H1150 0.929 . S
C1163 C1155 1.433 . S
C1163 N1165 1.384 1_545 S
N1164 C1160 1.427 1_545 S
N1164 C1161 1.384 1_545 S
N1165 C1157 1.427 1_565 S
N1165 C1163 1.384 1_565 S
H1166 C1172 0.930 . S
H1167 C1176 0.930 . S
H1168 C1181 0.929 1_565 S
H1169 C1179 0.929 1_545 S
H1170 C1174 0.929 . S
H1171 C1180 0.929 . S
C1172 H1166 0.930 . S
C1172 C1173 1.367 . S
C1172 C1180 1.378 . S
C1173 C1172 1.367 . S
C1173 C1181 1.433 . S
C1174 H1170 0.929 . S
C1174 C1176 1.378 . S
C1174 C1178 1.350 . S
C1175 C1178 1.463 1_545 S
C1175 C1180 1.350 . S
C1175 N1183 1.427 1_545 S
C1176 H1167 0.930 . S
C1176 C1174 1.378 . S
C1176 C1177 1.367 . S
C1177 C1176 1.367 . S
C1177 C1179 1.433 . S
C1178 C1174 1.350 . S
C1178 C1175 1.463 1_565 S
C1178 N1182 1.427 1_565 S
C1179 H1169 0.929 1_565 S
C1179 C1177 1.433 . S
C1179 N1182 1.384 1_565 S
C1180 H1171 0.929 . S
C1180 C1172 1.378 . S
C1180 C1175 1.350 . S
C1181 H1168 0.929 1_545 S
C1181 C1173 1.433 . S
C1181 N1183 1.384 1_545 S
N1182 C1178 1.427 1_545 S
N1182 C1179 1.384 1_545 S
N1183 C1175 1.427 1_565 S
N1183 C1181 1.384 1_565 S
C327 C18 1.972 . S
C331 C218 1.972 . S
C345 C38 1.976 . S
C349 C238 1.976 . S
C363 C58 1.973 . S
C367 C178 1.973 . S
C381 C78 1.972 . S
C385 C198 1.972 . S
C399 C99 1.973 . S
C403 C299 1.973 . S
C417 C119 1.974 . S
C421 C319 1.973 . S
C435 C139 1.977 . S
C439 C259 1.977 . S
C453 C159 1.975 . S
C457 C279 1.974 . S
C471 C188 2.214 . S
C475 C19 2.252 . S
C489 C208 2.205 . S
C493 C39 2.260 . S
C507 C228 2.208 . S
C511 C59 2.257 . S
C525 C168 2.216 . S
C529 C79 2.252 . S
C543 C98 2.254 . S
C547 C269 2.211 . S
C561 C289 2.215 . S
C565 C118 2.254 . S
C579 C309 2.205 . S
C583 C138 2.260 . S
C597 C249 2.212 . S
C601 C158 2.256 . S
C615 C28 2.205 . S
C619 C179 2.260 . S
C633 C199 2.258 . S
C637 C48 2.209 . S
C651 C219 2.260 . S
C655 C68 2.205 . S
C669 C239 2.252 . S
C673 C8 2.216 . S
C687 C258 2.257 . S
C691 C109 2.210 . S
C705 C129 2.207 . S
C709 C278 2.258 . S
C723 C149 2.213 . S
C727 C298 2.253 . S
C741 C318 2.252 . S
C745 C89 2.216 . S
C759 C2 0.703 . S
C763 C308 0.702 . S
C777 C22 0.714 . S
C781 C88 0.698 1_554 S
C795 C268 0.711 . S
C799 C42 0.696 . S
C813 C128 0.708 . S
C817 C62 0.696 . S
C831 C81 0.716 . S
C835 C229 0.697 . S
C849 C101 0.706 . S
C853 C9 0.709 1_556 S
C867 C189 0.701 . S
C871 C121 0.706 . S
C885 C49 0.697 . S
C889 C141 0.718 . S
C903 C162 0.702 . S
C907 C148 0.703 . S
C921 C182 0.699 . S
C925 C248 0.711 . S
C939 C108 0.709 . S
C943 C202 0.706 . S
C957 C288 0.708 1_554 S
C961 C222 0.707 . S
C975 C241 0.718 . S
C979 C69 0.697 . S
C993 C261 0.717 . S
C997 C169 0.702 . S
C1011 C281 0.706 . S
C1015 C29 0.701 . S
C1029 C209 0.697 1_556 S
C1033 C301 0.717 . S
C1047 C1 1.380 . S
C1051 C242 1.380 . S
C1065 C21 1.380 . S
C1069 C102 1.380 . S
C1083 C41 1.383 . S
C1087 C282 1.383 . S
C1101 C142 1.384 . S
C1105 C61 1.384 . S
C1119 C82 1.377 . S
C1123 C161 1.377 . S
C1137 C201 1.394 . S
C1141 C122 1.394 . S
C1155 C181 1.377 . S
C1159 C262 1.377 . S
C1173 C302 1.378 . S
C1177 C221 1.378 . S
