# Generated by pormake.
# Topology snl, (6)-cn, num edge types: 1
# Building blocks:
#     Node 0, Type 0, BuildingBlock: KUMBOL_clean_sbu_1, # of connection points: 6
#     Node 1, Type 0, BuildingBlock: KUMBOL_clean_sbu_1, # of connection points: 6
#     Node 2, Type 0, BuildingBlock: KUMBOL_clean_sbu_1, # of connection points: 6
#     Node 3, Type 0, BuildingBlock: KUMBOL_clean_sbu_1, # of connection points: 6
#     Node 4, Type 0, BuildingBlock: KUMBOL_clean_sbu_1, # of connection points: 6
#     Node 5, Type 0, BuildingBlock: KUMBOL_clean_sbu_1, # of connection points: 6
#     Node 6, Type 0, BuildingBlock: KUMBOL_clean_sbu_1, # of connection points: 6
#     Node 7, Type 0, BuildingBlock: KUMBOL_clean_sbu_1, # of connection points: 6
#     Node 8, Type 0, BuildingBlock: KUMBOL_clean_sbu_1, # of connection points: 6
#     Node 9, Type 0, BuildingBlock: KUMBOL_clean_sbu_1, # of connection points: 6
#     Node 10, Type 0, BuildingBlock: KUMBOL_clean_sbu_1, # of connection points: 6
#     Node 11, Type 0, BuildingBlock: KUMBOL_clean_sbu_1, # of connection points: 6
#     Node 12, Type 0, BuildingBlock: KUMBOL_clean_sbu_1, # of connection points: 6
#     Node 13, Type 0, BuildingBlock: KUMBOL_clean_sbu_1, # of connection points: 6
#     Node 14, Type 0, BuildingBlock: KUMBOL_clean_sbu_1, # of connection points: 6
#     Node 15, Type 0, BuildingBlock: KUMBOL_clean_sbu_1, # of connection points: 6
#     Edge 16, Type (0, 0), BuildingBlock: CIFDUS_clean_linker_0, # of connection points: 2
#     Edge 17, Type (0, 0), BuildingBlock: CIFDUS_clean_linker_0, # of connection points: 2
#     Edge 18, Type (0, 0), BuildingBlock: CIFDUS_clean_linker_0, # of connection points: 2
#     Edge 19, Type (0, 0), BuildingBlock: CIFDUS_clean_linker_0, # of connection points: 2
#     Edge 20, Type (0, 0), BuildingBlock: CIFDUS_clean_linker_0, # of connection points: 2
#     Edge 21, Type (0, 0), BuildingBlock: CIFDUS_clean_linker_0, # of connection points: 2
#     Edge 22, Type (0, 0), BuildingBlock: CIFDUS_clean_linker_0, # of connection points: 2
#     Edge 23, Type (0, 0), BuildingBlock: CIFDUS_clean_linker_0, # of connection points: 2
#     Edge 24, Type (0, 0), BuildingBlock: CIFDUS_clean_linker_0, # of connection points: 2
#     Edge 25, Type (0, 0), BuildingBlock: CIFDUS_clean_linker_0, # of connection points: 2
#     Edge 26, Type (0, 0), BuildingBlock: CIFDUS_clean_linker_0, # of connection points: 2
#     Edge 27, Type (0, 0), BuildingBlock: CIFDUS_clean_linker_0, # of connection points: 2
#     Edge 28, Type (0, 0), BuildingBlock: CIFDUS_clean_linker_0, # of connection points: 2
#     Edge 29, Type (0, 0), BuildingBlock: CIFDUS_clean_linker_0, # of connection points: 2
#     Edge 30, Type (0, 0), BuildingBlock: CIFDUS_clean_linker_0, # of connection points: 2
#     Edge 31, Type (0, 0), BuildingBlock: CIFDUS_clean_linker_0, # of connection points: 2
#     Edge 32, Type (0, 0), BuildingBlock: CIFDUS_clean_linker_0, # of connection points: 2
#     Edge 33, Type (0, 0), BuildingBlock: CIFDUS_clean_linker_0, # of connection points: 2
#     Edge 34, Type (0, 0), BuildingBlock: CIFDUS_clean_linker_0, # of connection points: 2
#     Edge 35, Type (0, 0), BuildingBlock: CIFDUS_clean_linker_0, # of connection points: 2
#     Edge 36, Type (0, 0), BuildingBlock: CIFDUS_clean_linker_0, # of connection points: 2
#     Edge 37, Type (0, 0), BuildingBlock: CIFDUS_clean_linker_0, # of connection points: 2
#     Edge 38, Type (0, 0), BuildingBlock: CIFDUS_clean_linker_0, # of connection points: 2
#     Edge 39, Type (0, 0), BuildingBlock: CIFDUS_clean_linker_0, # of connection points: 2
#     Edge 40, Type (0, 0), BuildingBlock: CIFDUS_clean_linker_0, # of connection points: 2
#     Edge 41, Type (0, 0), BuildingBlock: CIFDUS_clean_linker_0, # of connection points: 2
#     Edge 42, Type (0, 0), BuildingBlock: CIFDUS_clean_linker_0, # of connection points: 2
#     Edge 43, Type (0, 0), BuildingBlock: CIFDUS_clean_linker_0, # of connection points: 2
#     Edge 44, Type (0, 0), BuildingBlock: CIFDUS_clean_linker_0, # of connection points: 2
#     Edge 45, Type (0, 0), BuildingBlock: CIFDUS_clean_linker_0, # of connection points: 2
#     Edge 46, Type (0, 0), BuildingBlock: CIFDUS_clean_linker_0, # of connection points: 2
#     Edge 47, Type (0, 0), BuildingBlock: CIFDUS_clean_linker_0, # of connection points: 2
#     Edge 48, Type (0, 0), BuildingBlock: CIFDUS_clean_linker_0, # of connection points: 2
#     Edge 49, Type (0, 0), BuildingBlock: CIFDUS_clean_linker_0, # of connection points: 2
#     Edge 50, Type (0, 0), BuildingBlock: CIFDUS_clean_linker_0, # of connection points: 2
#     Edge 51, Type (0, 0), BuildingBlock: CIFDUS_clean_linker_0, # of connection points: 2
#     Edge 52, Type (0, 0), BuildingBlock: CIFDUS_clean_linker_0, # of connection points: 2
#     Edge 53, Type (0, 0), BuildingBlock: CIFDUS_clean_linker_0, # of connection points: 2
#     Edge 54, Type (0, 0), BuildingBlock: CIFDUS_clean_linker_0, # of connection points: 2
#     Edge 55, Type (0, 0), BuildingBlock: CIFDUS_clean_linker_0, # of connection points: 2
#     Edge 56, Type (0, 0), BuildingBlock: CIFDUS_clean_linker_0, # of connection points: 2
#     Edge 57, Type (0, 0), BuildingBlock: CIFDUS_clean_linker_0, # of connection points: 2
#     Edge 58, Type (0, 0), BuildingBlock: CIFDUS_clean_linker_0, # of connection points: 2
#     Edge 59, Type (0, 0), BuildingBlock: CIFDUS_clean_linker_0, # of connection points: 2
#     Edge 60, Type (0, 0), BuildingBlock: CIFDUS_clean_linker_0, # of connection points: 2
#     Edge 61, Type (0, 0), BuildingBlock: CIFDUS_clean_linker_0, # of connection points: 2
#     Edge 62, Type (0, 0), BuildingBlock: CIFDUS_clean_linker_0, # of connection points: 2
#     Edge 63, Type (0, 0), BuildingBlock: CIFDUS_clean_linker_0, # of connection points: 2
# Relax obj value: 0.158
# Max RMSD: 0.233
# Mean RMSD: 0.229
data_MOF--net-snl--node1-KUMBOL_clean_sbu_1--edge1-CIFDUS_clean_linker_0
_symmetry_space_group_name_H-M    P1
_symmetry_Int_Tables_number       1
_symmetry_cell_setting            triclinic
loop_
_symmetry_equiv_pos_as_xyz
'x, y, z'
_cell_length_a     50.004198
_cell_length_b     49.795547
_cell_length_c     23.22839
_cell_angle_alpha  89.959549
_cell_angle_beta   90.239383
_cell_angle_gamma 90.077089
loop_
_atom_site_label
_atom_site_type_symbol
_atom_site_fract_x
_atom_site_fract_y
_atom_site_fract_z
_atom_type_partial_charge
C0 C 0.10429 0.56024 0.22956 0.0
C1 C 0.14225 0.53085 0.24681 0.0
C2 C 0.13183 0.5568 0.23734 0.0
C3 C 0.12493 0.50866 0.24849 0.0
C4 C 0.08696 0.53788 0.23047 0.0
C5 C 0.0974 0.51216 0.2404 0.0
N6 N 0.09464 0.58519 0.21782 0.0
C7 C 0.06798 0.58936 0.20898 0.0
C8 C 0.05972 0.54189 0.21916 0.0
C9 C 0.05028 0.5677 0.20778 0.0
Gd10 Gd 0.1508 0.64296 0.07047 0.0
Gd11 Gd 0.12602 0.61967 0.22299 0.0
N12 N 0.14837 0.57861 0.23481 0.0
C13 C 0.16984 0.52789 0.25455 0.0
C14 C 0.17505 0.57585 0.24524 0.0
C15 C 0.18626 0.55052 0.25418 0.0
H16 H 0.18772 0.59291 0.24898 0.0
H17 H 0.20753 0.54855 0.26191 0.0
H18 H 0.10095 0.67856 0.01205 0.0
H19 H 0.06013 0.60935 0.20368 0.0
H20 H 0.08954 0.72668 0.99839 0.0
H21 H 0.17859 0.50829 0.26188 0.0
H22 H 0.13265 0.48862 0.2558 0.0
H23 H 0.21859 0.63999 0.06208 0.0
H24 H 0.04585 0.52515 0.21858 0.0
H25 H 0.02936 0.57095 0.19822 0.0
H26 H 0.16824 0.7733 0.06605 0.0
H27 H 0.08437 0.49477 0.24117 0.0
H28 H 0.24793 0.72023 0.08594 0.0
H29 H 0.25657 0.67152 0.07462 0.0
N30 N 0.18912 0.67039 0.07107 0.0
C31 C 0.18422 0.69717 0.06988 0.0
C32 C 0.21477 0.66118 0.06813 0.0
C33 C 0.2313 0.70646 0.08086 0.0
C34 C 0.23626 0.67899 0.07453 0.0
C35 C 0.20502 0.71596 0.07674 0.0
H36 H 0.21442 0.75834 0.08473 0.0
N37 N 0.13947 0.68707 0.04659 0.0
C38 C 0.15869 0.70578 0.05607 0.0
C39 C 0.1275 0.74074 0.03117 0.0
C40 C 0.15295 0.73324 0.0508 0.0
C41 C 0.11547 0.69395 0.02243 0.0
C42 C 0.109 0.72102 0.01491 0.0
O43 O 0.12222 0.59255 0.14202 0.0
O44 O 0.16042 0.6001 0.09254 0.0
O45 O 0.13485 0.62168 0.99574 0.0
O46 O 0.16773 0.64947 0.98603 0.0
O47 O 0.16593 0.63962 0.2234 0.0
O48 O 0.18411 0.62963 0.1354 0.0
O49 O 0.12853 0.6728 0.12486 0.0
O50 O 0.13778 0.66475 0.21936 0.0
O51 O 0.13426 0.61256 0.31373 0.0
O52 O 0.09594 0.62864 0.28655 0.0
O53 O 0.10494 0.63453 0.07942 0.0
O54 O 0.09466 0.64197 0.17558 0.0
C55 C 0.14082 0.58392 0.10611 0.0
C56 C 0.18683 0.636 0.19084 0.0
C57 C 0.16157 0.61812 0.91166 0.0
C58 C 0.16431 0.61296 0.80755 0.0
C59 C 0.19065 0.58435 0.87093 0.0
C60 C 0.18059 0.59781 0.91896 0.0
C61 C 0.18256 0.59181 0.81543 0.0
C62 C 0.15353 0.62564 0.85616 0.0
C63 C 0.15114 0.63346 0.96021 0.0
C64 C 0.17276 0.75207 0.06531 0.0
C65 C 0.19894 0.74351 0.07711 0.0
H66 H 0.12189 0.7616 0.02875 0.0
C67 C 0.13441 0.68178 0.17619 0.0
C68 C 0.08748 0.63924 0.12154 0.0
C69 C 0.11093 0.63969 0.3806 0.0
C70 C 0.11847 0.6449 0.48415 0.0
C71 C 0.09516 0.6796 0.42943 0.0
C72 C 0.09811 0.66474 0.37907 0.0
C73 C 0.10485 0.66966 0.48165 0.0
C74 C 0.12156 0.63017 0.43283 0.0
C75 C 0.1112 0.62202 0.32985 0.0
H76 H 0.20525 0.56853 0.87662 0.0
H77 H 0.188 0.59285 0.9614 0.0
H78 H 0.19125 0.5817 0.77874 0.0
H79 H 0.13917 0.64178 0.85083 0.0
H80 H 0.08477 0.69864 0.42824 0.0
H81 H 0.0898 0.67259 0.33934 0.0
H82 H 0.10109 0.68125 0.52014 0.0
H83 H 0.13188 0.61106 0.43323 0.0
C84 C 0.71346 0.85983 0.49967 0.0
C85 C 0.74014 0.89747 0.53344 0.0
C86 C 0.71565 0.88708 0.51278 0.0
C87 C 0.76234 0.88041 0.53939 0.0
C88 C 0.73576 0.84272 0.50523 0.0
C89 C 0.76016 0.85315 0.5253 0.0
N90 N 0.6899 0.85038 0.47834 0.0
C91 C 0.68687 0.824 0.46414 0.0
C92 C 0.73308 0.8158 0.48875 0.0
C93 C 0.70856 0.80649 0.46786 0.0
Gd94 Gd 0.63779 0.90633 0.31684 0.0
Gd95 Gd 0.65505 0.88134 0.47392 0.0
N96 N 0.69399 0.90336 0.50535 0.0
C97 C 0.74154 0.92467 0.54816 0.0
C98 C 0.69475 0.92929 0.52417 0.0
C99 C 0.71862 0.94053 0.54437 0.0
H100 H 0.6769 0.94115 0.52645 0.0
H101 H 0.71916 0.96126 0.55833 0.0
H102 H 0.61704 0.8458 0.26237 0.0
H103 H 0.66767 0.81638 0.45075 0.0
H104 H 0.57462 0.82433 0.23643 0.0
H105 H 0.75998 0.93339 0.56419 0.0
H106 H 0.78131 0.88812 0.55492 0.0
H107 H 0.6244 0.97155 0.33353 0.0
H108 H 0.74984 0.80209 0.49168 0.0
H109 H 0.70634 0.7859 0.4544 0.0
H110 H 0.51082 0.89527 0.24745 0.0
H111 H 0.77754 0.84032 0.52969 0.0
H112 H 0.54204 0.98399 0.29059 0.0
H113 H 0.58577 1.00198 0.32283 0.0
N114 N 0.60266 0.93681 0.30781 0.0
C115 C 0.57914 0.92661 0.28809 0.0
C116 C 0.60537 0.96352 0.31969 0.0
C117 C 0.55902 0.97062 0.29461 0.0
C118 C 0.5836 0.98083 0.31322 0.0
C119 C 0.55653 0.94322 0.28211 0.0
H120 H 0.51416 0.94408 0.26425 0.0
N121 N 0.59942 0.88346 0.28407 0.0
C122 C 0.57731 0.89911 0.27745 0.0
C123 C 0.55154 0.86037 0.24783 0.0
C124 C 0.55268 0.88779 0.2606 0.0
C125 C 0.59897 0.85735 0.26596 0.0
C126 C 0.57496 0.84523 0.2492 0.0
O127 O 0.68807 0.87738 0.4042 0.0
O128 O 0.68026 0.9128 0.34425 0.0
O129 O 0.64898 0.89436 0.22828 0.0
O130 O 0.64554 0.93651 0.25332 0.0
O131 O 0.64032 0.92427 0.46676 0.0
O132 O 0.65597 0.93747 0.37805 0.0
O133 O 0.60505 0.91095 0.38447 0.0
O134 O 0.61136 0.8758 0.4466 0.0
O135 O 0.6459 0.89253 0.56381 0.0
O136 O 0.64786 0.85053 0.53648 0.0
O137 O 0.64966 0.86169 0.32816 0.0
O138 O 0.63293 0.85259 0.41785 0.0
C139 C 0.69605 0.89386 0.36293 0.0
C140 C 0.64775 0.94321 0.43066 0.0
C141 C 0.65838 0.92918 0.15526 0.0
C142 C 0.66127 0.92406 0.0511 0.0
C143 C 0.67332 0.96642 0.09574 0.0
C144 C 0.66746 0.95579 0.14967 0.0
C145 C 0.67006 0.95075 0.04665 0.0
C146 C 0.6557 0.9131 0.10572 0.0
C147 C 0.65046 0.91946 0.21267 0.0
C148 C 0.52998 0.9041 0.25695 0.0
C149 C 0.53193 0.93178 0.26665 0.0
H150 H 0.53293 0.85098 0.23476 0.0
C151 C 0.59535 0.89242 0.41882 0.0
C152 C 0.6405 0.84454 0.36698 0.0
C153 C 0.63716 0.8573 0.63608 0.0
C154 C 0.63505 0.86248 0.74029 0.0
C155 C 0.62343 0.81985 0.69629 0.0
C156 C 0.62865 0.83052 0.6421 0.0
C157 C 0.62677 0.83563 0.74518 0.0
C158 C 0.63996 0.87347 0.68543 0.0
C159 C 0.64403 0.86729 0.57829 0.0
H160 H 0.6802 0.98695 0.09196 0.0
H161 H 0.66984 0.96857 0.18707 0.0
H162 H 0.6746 0.95943 1.00502 0.0
H163 H 0.64851 0.89261 0.10931 0.0
H164 H 0.61693 0.7992 0.70042 0.0
H165 H 0.62615 0.81767 0.60484 0.0
H166 H 0.6227 0.82693 0.787 0.0
H167 H 0.64666 0.8941 0.68146 0.0
C168 C 0.42427 0.46378 0.74109 0.0
C169 C 0.39259 0.49669 0.77593 0.0
C170 C 0.39849 0.47038 0.75747 0.0
C171 C 0.41265 0.51645 0.775 0.0
C172 C 0.44462 0.48341 0.74114 0.0
C173 C 0.4386 0.50983 0.75758 0.0
N174 N 0.42936 0.43816 0.72447 0.0
C175 C 0.45485 0.43036 0.71255 0.0
C176 C 0.47028 0.47598 0.7235 0.0
C177 C 0.47531 0.44932 0.70886 0.0
Gd178 Gd 0.36984 0.39022 0.5604 0.0
Gd179 Gd 0.39257 0.40886 0.72002 0.0
N180 N 0.37948 0.45085 0.75749 0.0
C181 C 0.36689 0.50216 0.7963 0.0
C182 C 0.35531 0.45553 0.78262 0.0
C183 C 0.34835 0.48131 0.80089 0.0
H184 H 0.34175 0.43925 0.79078 0.0
H185 H 0.3289 0.48495 0.81958 0.0
H186 H 0.42594 0.36075 0.51349 0.0
H187 H 0.45963 0.40954 0.70632 0.0
H188 H 0.44003 0.31656 0.47641 0.0
H189 H 0.36154 0.52211 0.81088 0.0
H190 H 0.40839 0.53681 0.78854 0.0
H191 H 0.30217 0.39065 0.55297 0.0
H192 H 0.48635 0.49056 0.72146 0.0
H193 H 0.49481 0.44332 0.69408 0.0
H194 H 0.3582 0.26675 0.45982 0.0
H195 H 0.45393 0.52522 0.75743 0.0
H196 H 0.27635 0.31234 0.50132 0.0
H197 H 0.26573 0.35872 0.53144 0.0
N198 N 0.33317 0.362 0.53959 0.0
C199 C 0.33942 0.33708 0.52008 0.0
C200 C 0.30704 0.37018 0.54145 0.0
C201 C 0.29243 0.32613 0.51169 0.0
C202 C 0.28634 0.35226 0.52872 0.0
C203 C 0.31919 0.31841 0.50602 0.0
H204 H 0.31089 0.27845 0.47383 0.0
N205 N 0.38501 0.34965 0.52121 0.0
C206 C 0.36607 0.33071 0.51063 0.0
C207 C 0.40016 0.30009 0.47729 0.0
C208 C 0.37318 0.30536 0.48847 0.0
C209 C 0.41118 0.34519 0.50737 0.0
C210 C 0.4192 0.32022 0.48612 0.0
O211 O 0.39964 0.44018 0.6487 0.0
O212 O 0.36277 0.43189 0.59531 0.0
O213 O 0.38563 0.39807 0.47454 0.0
O214 O 0.34638 0.41232 0.49787 0.0
O215 O 0.34766 0.41204 0.70722 0.0
O216 O 0.33672 0.38558 0.62878 0.0
O217 O 0.38724 0.35625 0.61209 0.0
O218 O 0.37458 0.36672 0.70439 0.0
O219 O 0.38182 0.40383 0.80996 0.0
O220 O 0.41989 0.38926 0.77917 0.0
O221 O 0.41426 0.40182 0.57408 0.0
O222 O 0.42135 0.38551 0.66538 0.0
C223 C 0.38261 0.44791 0.60856 0.0
C224 C 0.33034 0.39763 0.67767 0.0
C225 C 0.35257 0.39888 0.40109 0.0
C226 C 0.35651 0.39486 0.29673 0.0
C227 C 0.31687 0.37822 0.3452 0.0
C228 C 0.3273 0.38658 0.39786 0.0
C229 C 0.33124 0.38244 0.29485 0.0
C230 C 0.36718 0.40283 0.35031 0.0
C231 C 0.36341 0.40874 0.45641 0.0
C232 C 0.35314 0.28638 0.47666 0.0
C233 C 0.3262 0.293 0.48488 0.0
H234 H 0.4064 0.2808 0.46055 0.0
C235 C 0.38029 0.34886 0.66408 0.0
C236 C 0.43047 0.39226 0.61443 0.0
C237 C 0.41763 0.40357 0.87623 0.0
C238 C 0.41795 0.40624 0.98106 0.0
C239 C 0.45432 0.42573 0.92564 0.0
C240 C 0.442 0.41756 0.87456 0.0
C241 C 0.44251 0.42001 0.97861 0.0
C242 C 0.40558 0.39825 0.92938 0.0
C243 C 0.40476 0.39335 0.82371 0.0
H244 H 0.2973 0.36893 0.34329 0.0
H245 H 0.31522 0.38389 0.43557 0.0
H246 H 0.32222 0.37661 0.25428 0.0
H247 H 0.38669 0.4123 0.35256 0.0
H248 H 0.47326 0.43625 0.92422 0.0
H249 H 0.4517 0.42191 0.83409 0.0
H250 H 0.45284 0.42598 0.01761 0.0
H251 H 0.38653 0.38782 0.93028 0.0
C252 C 0.92241 0.0642 0.80111 0.0
C253 C 0.89101 0.03036 0.7677 0.0
C254 C 0.89719 0.05719 0.78182 0.0
C255 C 0.9102 1.0103 0.77708 0.0
C256 C 0.94218 0.04428 0.80801 0.0
C257 C 0.93571 0.01723 0.79759 0.0
N258 N 0.92825 0.0907 0.80786 0.0
C259 C 0.95429 0.0985 0.81333 0.0
C260 C 0.96814 0.05231 0.82259 0.0
C261 C 0.97426 0.07963 0.82459 0.0
Gd262 Gd 0.87264 0.14316 0.95505 0.0
Gd263 Gd 0.89194 0.12067 0.79658 0.0
N264 N 0.87894 0.07694 0.77429 0.0
C265 C 0.86587 0.02471 0.74362 0.0
C266 C 0.85549 0.07198 0.7465 0.0
C267 C 0.84819 0.04575 0.732 0.0
H268 H 0.84318 0.08851 0.73366 0.0
H269 H 0.82925 0.04188 0.71082 0.0
H270 H 0.93339 0.17203 0.99091 0.0
H271 H 0.95998 0.11911 0.8073 0.0
H272 H 0.9502 0.21635 0.01616 0.0
H273 H 0.86032 1.00437 0.73205 0.0
H274 H 0.90575 0.98949 0.76732 0.0
H275 H 0.80719 0.14563 0.97449 0.0
H276 H 0.98388 0.03767 0.82915 0.0
H277 H 0.99447 0.08622 0.83328 0.0
H278 H 0.8715 0.26846 0.04774 0.0
H279 H 0.9506 1.00164 0.80308 0.0
H280 H 0.78662 0.22495 0.02844 0.0
H281 H 0.77303 0.17875 1.00224 0.0
N282 N 0.83937 0.17354 0.97922 0.0
C283 C 0.8475 0.19838 0.99534 0.0
C284 C 0.81322 0.16604 0.98349 0.0
C285 C 0.80161 0.21065 0.01479 0.0
C286 C 0.79385 0.18463 1.00003 0.0
C287 C 0.82875 0.21762 0.01385 0.0
H288 H 0.82356 0.25756 0.04846 0.0
N289 N 0.89247 0.18409 0.98444 0.0
C290 C 0.87475 0.20398 0.99719 0.0
C291 C 0.91113 0.23417 0.02045 0.0
C292 C 0.88366 0.22943 0.01605 0.0
C293 C 0.91921 0.18808 0.99379 0.0
C294 C 0.92895 0.21328 0.0101 0.0
O295 O 0.87262 0.09103 0.86018 0.0
O296 O 0.8948 0.10504 0.9386 0.0
O297 O 0.87678 0.14415 0.04823 0.0
O298 O 0.8497 0.11503 1.0066 0.0
O299 O 0.84885 0.1333 0.80066 0.0
O300 O 0.83661 0.13023 0.89722 0.0
O301 O 0.86392 0.17245 0.88305 0.0
O302 O 0.89839 0.16499 0.82051 0.0
O303 O 0.87408 0.13319 0.71538 0.0
O304 O 0.91435 0.11734 0.71745 0.0
O305 O 0.91753 0.13475 0.94107 0.0
O306 O 0.92324 0.14474 0.84484 0.0
C307 C 0.8823 0.08585 0.9118 0.0
C308 C 0.83062 0.13193 0.84121 0.0
C309 C 0.85217 0.11397 0.11143 0.0
C310 C 0.85619 0.11432 0.21638 0.0
C311 C 0.82589 0.08306 0.16885 0.0
C312 C 0.83329 0.09319 0.11532 0.0
C313 C 0.83722 0.09348 0.21903 0.0
C314 C 0.86365 0.12447 0.16215 0.0
C315 C 0.85964 0.12461 0.05452 0.0
C316 C 0.86498 0.24889 0.03284 0.0
C317 C 0.83767 0.24275 0.033 0.0
H318 H 0.91872 0.25351 0.03433 0.0
C319 C 0.88204 0.18157 0.84752 0.0
C320 C 0.93298 0.14161 0.89725 0.0
C321 C 0.90262 0.14468 0.63835 0.0
C322 C 0.89901 0.15509 0.53613 0.0
C323 C 0.92971 0.18016 0.59746 0.0
C324 C 0.92181 0.16497 0.6451 0.0
C325 C 0.91854 0.17518 0.54314 0.0
C326 C 0.89119 0.13995 0.5842 0.0
C327 C 0.89514 0.12688 0.68569 0.0
H328 H 0.81136 0.06698 0.17147 0.0
H329 H 0.8242 0.08474 0.07699 0.0
H330 H 0.83139 0.0849 0.25997 0.0
H331 H 0.87809 0.14068 0.15954 0.0
H332 H 0.94465 0.19574 0.60255 0.0
H333 H 0.93085 0.16879 0.68679 0.0
H334 H 0.92491 0.18721 0.50683 0.0
H335 H 0.87664 0.12391 0.57924 0.0
C336 C 0.20123 0.35095 0.99186 0.0
C337 C 0.23517 0.38433 0.0144 0.0
C338 C 0.20891 0.37777 0.99719 0.0
C339 C 0.25349 0.36371 0.0265 0.0
C340 C 0.21953 0.33023 1.00432 0.0
C341 C 0.24568 0.33676 0.02161 0.0
N342 N 0.17593 0.34514 0.97412 0.0
C343 C 0.16721 0.31929 0.97063 0.0
C344 C 0.21086 0.30355 0.99963 0.0
C345 C 0.18446 0.29813 0.98343 0.0
Gd346 Gd 0.13577 0.40864 0.80365 0.0
Gd347 Gd 0.14789 0.38181 0.95983 0.0
N348 N 0.19081 0.39738 0.98443 0.0
C349 C 0.24225 0.41144 0.01919 0.0
C350 C 0.19731 0.42376 0.99149 0.0
C351 C 0.22317 0.43122 1.00807 0.0
H352 H 0.18267 0.43917 0.98585 0.0
H353 H 0.22826 0.45223 0.01295 0.0
H354 H 0.10997 0.34743 0.76158 0.0
H355 H 0.14653 0.31499 0.96094 0.0
H356 H 0.07194 0.33112 0.70659 0.0
H357 H 0.26224 0.41731 0.03225 0.0
H358 H 0.27374 0.3684 0.03993 0.0
H359 H 0.12404 0.47446 0.82467 0.0
H360 H 0.22421 0.28703 0.0095 0.0
H361 H 0.17703 0.27779 0.98228 0.0
H362 H 0.02575 0.41075 0.64874 0.0
H363 H 0.26002 0.32111 0.03143 0.0
H364 H 0.05464 0.49487 0.72661 0.0
H365 H 0.09181 0.50823 0.79109 0.0
N366 N 0.10377 0.44162 0.78505 0.0
C367 C 0.08317 0.4337 0.75074 0.0
C368 C 0.10703 0.46799 0.79966 0.0
C369 C 0.06821 0.47972 0.74304 0.0
C370 C 0.08908 0.48734 0.77963 0.0
C371 C 0.06521 0.45271 0.72765 0.0
H372 H 0.03117 0.45866 0.67112 0.0
N373 N 0.09777 0.38852 0.76123 0.0
C374 C 0.0801 0.4065 0.73842 0.0
C375 C 0.05579 0.37051 0.69174 0.0
C376 C 0.05908 0.39796 0.70197 0.0
C377 C 0.09523 0.36179 0.74885 0.0
C378 C 0.07387 0.35236 0.71559 0.0
O379 O 0.1828 0.37773 0.89351 0.0
O380 O 0.17572 0.41591 0.84339 0.0
O381 O 0.15039 0.39537 0.71866 0.0
O382 O 0.14768 0.43794 0.74095 0.0
O383 O 0.13427 0.42534 0.95517 0.0
O384 O 0.15137 0.43977 0.8688 0.0
O385 O 0.09976 0.41274 0.86127 0.0
O386 O 0.10437 0.37919 0.92914 0.0
O387 O 0.14565 0.39565 0.04932 0.0
O388 O 0.1296 0.35705 0.02484 0.0
O389 O 0.14759 0.36381 0.81434 0.0
O390 O 0.12785 0.35279 0.89986 0.0
C391 C 0.19125 0.39587 0.85613 0.0
C392 C 0.14201 0.44489 0.92096 0.0
C393 C 0.16308 0.42868 0.64519 0.0
C394 C 0.16663 0.42246 0.54143 0.0
C395 C 0.17916 0.46501 0.58454 0.0
C396 C 0.17273 0.45504 0.63875 0.0
C397 C 0.17589 0.44894 0.53604 0.0
C398 C 0.16048 0.41215 0.5963 0.0
C399 C 0.15293 0.42022 0.7018 0.0
C400 C 0.04187 0.41699 0.67704 0.0
C401 C 0.04496 0.44428 0.68977 0.0
H402 H 0.0396 0.36316 0.66489 0.0
C403 C 0.08964 0.39659 0.90025 0.0
C404 C 0.13861 0.34552 0.85113 0.0
C405 C 0.1459 0.36065 0.1202 0.0
C406 C 0.1522 0.36185 0.22498 0.0
C407 C 0.16021 0.32061 0.17148 0.0
C408 C 0.15353 0.33349 0.12034 0.0
C409 C 0.15914 0.33444 0.2234 0.0
C410 C 0.1457 0.37487 0.1726 0.0
C411 C 0.13518 0.37318 0.06712 0.0
H412 H 0.1864 0.48539 0.58005 0.0
H413 H 0.17485 0.46821 0.67559 0.0
H414 H 0.18089 0.45708 0.49416 0.0
H415 H 0.15278 0.39188 0.60048 0.0
H416 H 0.16551 0.29954 0.17106 0.0
H417 H 0.1534 0.32175 0.08138 0.0
H418 H 0.16319 0.32326 0.26241 0.0
H419 H 0.14005 0.39587 0.17234 0.0
C420 C 0.81489 0.85722 0.03549 0.0
C421 C 0.78192 0.89147 0.01331 0.0
C422 C 0.80809 0.8842 0.02991 0.0
C423 C 0.76268 0.87139 1.00344 0.0
C424 C 0.79549 0.83706 0.02671 0.0
C425 C 0.76939 0.84428 0.01057 0.0
N426 N 0.8404 0.85072 0.0504 0.0
C427 C 0.84808 0.82466 0.05509 0.0
C428 C 0.80299 0.81022 0.0346 0.0
C429 C 0.82943 0.80422 0.04911 0.0
Gd430 Gd 0.89359 0.90818 0.21068 0.0
Gd431 Gd 0.87022 0.88644 0.05729 0.0
N432 N 0.82683 0.90326 0.04257 0.0
C433 C 0.77571 0.91876 1.00805 0.0
C434 C 0.82077 0.92984 0.03762 0.0
C435 C 0.79523 0.93799 0.02038 0.0
H436 H 0.83543 0.94494 0.04597 0.0
H437 H 0.79064 0.95915 0.01651 0.0
H438 H 0.92224 0.84686 0.23692 0.0
H439 H 0.8688 0.81951 0.06094 0.0
H440 H 0.96696 0.82815 0.24905 0.0
H441 H 0.75587 0.92517 0.9952 0.0
H442 H 0.74245 0.87665 0.99092 0.0
H443 H 0.89996 0.97407 0.22823 0.0
H444 H 0.78868 0.79406 0.02903 0.0
H445 H 0.836 0.78405 0.05518 0.0
H446 H 0.02286 0.90537 0.27121 0.0
H447 H 0.75426 0.82905 1.00341 0.0
H448 H 0.98198 0.99206 0.26262 0.0
H449 H 0.93555 1.0074 0.24607 0.0
N450 N 0.92637 0.94089 0.22641 0.0
C451 C 0.95152 0.93188 0.23695 0.0
C452 C 0.92043 0.96752 0.2308 0.0
C453 C 0.96654 0.97752 0.25239 0.0
C454 C 0.94043 0.98629 0.24277 0.0
C455 C 0.97227 0.95002 0.25049 0.0
H456 H 0.01369 0.9538 0.27606 0.0
N457 N 0.93544 0.88725 0.22666 0.0
C458 C 0.95627 0.90437 0.23642 0.0
C459 C 0.9862 0.86679 0.25026 0.0
C460 C 0.98217 0.89454 0.24853 0.0
C461 C 0.93892 0.86029 0.2346 0.0
C462 C 0.96437 0.84961 0.24422 0.0
O463 O 0.83867 0.88288 0.12967 0.0
O464 O 0.84947 0.91377 0.19948 0.0
O465 O 0.89262 0.89078 0.29671 0.0
O466 O 0.88466 0.93305 0.28409 0.0
O467 O 0.88286 0.92964 0.0621 0.0
O468 O 0.87748 0.94371 0.15636 0.0
O469 O 0.92238 0.91633 0.13797 0.0
O470 O 0.91535 0.88146 0.07554 0.0
O471 O 0.87441 0.90492 0.97308 0.0
O472 O 0.87304 0.86159 0.98145 0.0
O473 O 0.8808 0.86369 0.19612 0.0
O474 O 0.89552 0.85706 0.10448 0.0
C475 C 0.8325 0.89712 0.1758 0.0
C476 C 0.88003 0.9488 0.10036 0.0
C477 C 0.86735 0.91325 0.36769 0.0
C478 C 0.86029 0.90943 0.47076 0.0
C479 C 0.82386 0.92332 0.40771 0.0
C480 C 0.84084 0.92173 0.36024 0.0
C481 C 0.83351 0.91737 0.46284 0.0
C482 C 0.87679 0.90674 0.42251 0.0
C483 C 0.88667 0.91357 0.3208 0.0
C484 C 1.00295 0.9126 0.26119 0.0
C485 C 0.99783 0.94019 0.26339 0.0
H486 H 1.00582 0.85849 0.25903 0.0
C487 C 0.93153 0.8989 0.10086 0.0
C488 C 0.88868 0.84736 0.15446 0.0
C489 C 0.89387 0.87895 0.89955 0.0
C490 C 0.90038 0.87759 0.79615 0.0
C491 C 0.93709 0.86677 0.86127 0.0
C492 C 0.92048 0.87119 0.90854 0.0
C493 C 0.92713 0.86985 0.80527 0.0
C494 C 0.88403 0.88238 0.8438 0.0
C495 C 0.87507 0.88187 0.9467 0.0
H496 H 0.80338 0.92985 0.40199 0.0
H497 H 0.83347 0.92754 0.31817 0.0
H498 H 0.82029 0.91981 0.49925 0.0
H499 H 0.89737 0.90026 0.42762 0.0
H500 H 0.95762 0.86062 0.86798 0.0
H501 H 0.92821 0.86827 0.95174 0.0
H502 H 0.94019 0.86578 0.76925 0.0
H503 H 0.86344 0.88867 0.83766 0.0
C504 C 0.42097 0.56069 0.30821 0.0
C505 C 0.38587 0.5292 0.28112 0.0
C506 C 0.39474 0.55568 0.29094 0.0
C507 C 0.4035 0.50772 0.29016 0.0
C508 C 0.43873 0.53908 0.31692 0.0
C509 C 0.42979 0.51263 0.30837 0.0
N510 N 0.42927 0.58659 0.31507 0.0
C511 C 0.45569 0.59202 0.32448 0.0
C512 C 0.46508 0.54471 0.33337 0.0
C513 C 0.47356 0.57133 0.33714 0.0
Gd514 Gd 0.374 0.64301 0.45132 0.0
Gd515 Gd 0.39619 0.6194 0.29935 0.0
N516 N 0.37765 0.57675 0.28531 0.0
C517 C 0.35947 0.52511 0.26264 0.0
C518 C 0.35227 0.57301 0.26509 0.0
C519 C 0.34267 0.54716 0.2541 0.0
H520 H 0.33949 0.58994 0.25758 0.0
H521 H 0.32238 0.54427 0.23892 0.0
H522 H 0.43352 0.67421 0.48735 0.0
H523 H 0.46339 0.6121 0.32083 0.0
H524 H 0.44834 0.71874 0.51627 0.0
H525 H 0.35194 0.50506 0.25443 0.0
H526 H 0.39701 0.48724 0.28315 0.0
H527 H 0.30776 0.6447 0.45691 0.0
H528 H 0.47923 0.52868 0.34153 0.0
H529 H 0.49402 0.57594 0.34869 0.0
H530 H 0.3674 0.76757 0.54666 0.0
H531 H 0.44319 0.49581 0.31494 0.0
H532 H 0.28413 0.72303 0.51133 0.0
H533 H 0.27219 0.67717 0.4793 0.0
N534 N 0.3393 0.6728 0.46917 0.0
C535 C 0.34646 0.69751 0.48832 0.0
C536 C 0.31313 0.6651 0.46741 0.0
C537 C 0.2998 0.70908 0.49963 0.0
C538 C 0.29295 0.68327 0.48138 0.0
C539 C 0.32679 0.71631 0.50431 0.0
H540 H 0.31974 0.75582 0.53962 0.0
N541 N 0.39208 0.68444 0.48226 0.0
C542 C 0.37351 0.70365 0.49434 0.0
C543 C 0.40854 0.73484 0.52098 0.0
C544 C 0.3813 0.72919 0.51479 0.0
C545 C 0.41863 0.6895 0.49172 0.0
C546 C 0.42725 0.71484 0.50973 0.0
O547 O 0.37602 0.59139 0.36631 0.0
O548 O 0.39767 0.6049 0.44501 0.0
O549 O 0.37631 0.64512 0.54485 0.0
O550 O 0.34919 0.61632 0.50234 0.0
O551 O 0.35738 0.64075 0.29911 0.0
O552 O 0.34018 0.62902 0.38689 0.0
O553 O 0.36969 0.67494 0.38282 0.0
O554 O 0.40328 0.66467 0.31891 0.0
O555 O 0.37978 0.62533 0.2135 0.0
O556 O 0.4215 0.61522 0.22438 0.0
O557 O 0.41948 0.63482 0.44245 0.0
O558 O 0.42804 0.64245 0.34605 0.0
C559 C 0.38681 0.5853 0.41648 0.0
C560 C 0.33684 0.63495 0.33116 0.0
C561 C 0.34932 0.61663 0.60741 0.0
C562 C 0.35258 0.61622 0.71266 0.0
C563 C 0.31894 0.58918 0.66356 0.0
C564 C 0.328 0.59835 0.61044 0.0
C565 C 0.33106 0.59801 0.71427 0.0
C566 C 0.36155 0.62562 0.65876 0.0
C567 C 0.35837 0.62629 0.55064 0.0
C568 C 0.36174 0.74799 0.53028 0.0
C569 C 0.3346 0.74137 0.52602 0.0
H570 H 0.41529 0.75429 0.53608 0.0
C571 C 0.38803 0.68249 0.34607 0.0
C572 C 0.43616 0.64046 0.39973 0.0
C573 C 0.40901 0.63707 0.13785 0.0
C574 C 0.40652 0.64289 0.03333 0.0
C575 C 0.43434 0.67252 0.09213 0.0
C576 C 0.42669 0.65882 0.14186 0.0
C577 C 0.42462 0.66451 0.03824 0.0
C578 C 0.39857 0.62957 0.08404 0.0
C579 C 0.40236 0.62059 0.1881 0.0
H580 H 0.30235 0.57523 0.66546 0.0
H581 H 0.31816 0.59122 0.57171 0.0
H582 H 0.32328 0.59083 0.75491 0.0
H583 H 0.37817 0.63959 0.6568 0.0
H584 H 0.44829 0.6891 0.09519 0.0
H585 H 0.43486 0.66487 0.18314 0.0
H586 H 0.43181 0.67494 1.00047 0.0
H587 H 0.38444 0.61307 0.082 0.0
C588 C 0.60822 0.06393 0.72807 0.0
C589 C 0.64703 0.03653 0.75052 0.0
C590 C 0.63573 0.06175 0.73746 0.0
C591 C 0.63064 1.01362 0.75225 0.0
C592 C 0.59169 0.04102 0.73074 0.0
C593 C 0.60307 0.01587 0.74249 0.0
N594 N 0.59776 0.08834 0.71443 0.0
C595 C 0.57089 0.09162 0.70726 0.0
C596 C 0.56425 0.044 0.7201 0.0
C597 C 0.55386 0.06942 0.70829 0.0
Gd598 Gd 0.65127 0.14276 0.55623 0.0
Gd599 Gd 0.628 0.12398 0.71345 0.0
N600 N 0.65126 0.08428 0.73526 0.0
C601 C 0.6744 0.03516 0.76297 0.0
C602 C 0.67725 0.08332 0.75309 0.0
C603 C 0.68945 0.05875 0.7654 0.0
H604 H 0.68825 0.10142 0.76118 0.0
H605 H 0.71025 0.05812 0.77842 0.0
H606 H 0.6016 0.17594 0.49414 0.0
H607 H 0.56239 0.11131 0.70136 0.0
H608 H 0.59008 0.22315 0.46991 0.0
H609 H 0.68382 0.01617 0.77323 0.0
H610 H 0.63904 0.99408 0.7619 0.0
H611 H 0.71942 0.14152 0.56346 0.0
H612 H 0.55093 0.02684 0.72107 0.0
H613 H 0.53273 0.07196 0.70003 0.0
H614 H 0.66717 0.27336 0.5338 0.0
H615 H 0.5907 0.99801 0.74422 0.0
H616 H 0.74609 0.22285 0.57948 0.0
H617 H 0.75584 0.1741 0.57948 0.0
N618 N 0.68885 0.17131 0.56156 0.0
C619 C 0.6836 0.19789 0.55521 0.0
C620 C 0.71471 0.16266 0.56582 0.0
C621 C 0.72993 0.20858 0.57366 0.0
C622 C 0.73551 0.1811 0.5738 0.0
C623 C 0.70385 0.21731 0.56231 0.0
H624 H 0.71258 0.25998 0.56302 0.0
N625 N 0.63959 0.18624 0.52892 0.0
C626 C 0.65837 0.20553 0.53683 0.0
C627 C 0.62748 0.23895 0.50199 0.0
C628 C 0.65252 0.23261 0.52559 0.0
C629 C 0.61578 0.1919 0.50264 0.0
C630 C 0.60927 0.21845 0.48911 0.0
O631 O 0.62441 0.09375 0.63771 0.0
O632 O 0.66158 0.10097 0.58402 0.0
O633 O 0.63379 0.124 0.48024 0.0
O634 O 0.67144 0.1453 0.47402 0.0
O635 O 0.66971 0.14123 0.7082 0.0
O636 O 0.68248 0.12557 0.61965 0.0
O637 O 0.62825 0.17272 0.60914 0.0
O638 O 0.64141 0.16789 0.70242 0.0
O639 O 0.6342 0.11784 0.80486 0.0
O640 O 0.59894 0.1389 0.77484 0.0
O641 O 0.60683 0.13062 0.56591 0.0
O642 O 0.59495 0.14211 0.65947 0.0
C643 C 0.64264 0.08482 0.60133 0.0
C644 C 0.68855 0.13437 0.67199 0.0
C645 C 0.66061 0.11555 0.39818 0.0
C646 C 0.65781 0.10707 0.29487 0.0
C647 C 0.68599 0.0792 0.35638 0.0
C648 C 0.67865 0.0943 0.40446 0.0
C649 C 0.67566 0.08547 0.30188 0.0
C650 C 0.65044 0.12196 0.34367 0.0
C651 C 0.65273 0.13247 0.44656 0.0
C652 C 0.67181 0.25227 0.53819 0.0
C653 C 0.69755 0.24464 0.55592 0.0
H654 H 0.62204 0.25953 0.49349 0.0
C655 C 0.63541 0.18342 0.65826 0.0
C656 C 0.5886 0.13603 0.60581 0.0
C657 C 0.61463 0.14816 0.87013 0.0
C658 C 0.62449 0.15268 0.97267 0.0
C659 C 0.60479 0.18985 0.91966 0.0
C660 C 0.60489 0.17459 0.86926 0.0
C661 C 0.6143 0.17893 0.97121 0.0
C662 C 0.62476 0.13744 0.92186 0.0
C663 C 0.61261 0.1306 0.81935 0.0
H664 H 0.69985 0.06267 0.36125 0.0
H665 H 0.68726 0.08971 0.44609 0.0
H666 H 0.68155 0.07333 0.26544 0.0
H667 H 0.63724 0.13911 0.33926 0.0
H668 H 0.59706 0.21014 0.91891 0.0
H669 H 0.59699 0.18332 0.83001 0.0
H670 H 0.61387 0.19104 0.00991 0.0
H671 H 0.63204 0.11692 0.92303 0.0
C672 C 0.952 0.4266 0.79801 0.0
C673 C 0.98194 0.38851 0.79009 0.0
C674 C 0.95594 0.39892 0.79625 0.0
C675 C 1.00379 0.40612 0.78858 0.0
C676 C 0.97384 0.44434 0.79387 0.0
C677 C 0.99975 0.43393 0.7901 0.0
N678 N 0.92686 0.4362 0.80503 0.0
C679 C 0.92185 0.46306 0.80356 0.0
C680 C 0.96904 0.47203 0.79491 0.0
C681 C 0.94284 0.48144 0.79896 0.0
Gd682 Gd 0.86849 0.38019 0.9671 0.0
Gd683 Gd 0.8933 0.40414 0.81495 0.0
N684 N 0.93449 0.38224 0.80171 0.0
C685 C 0.98529 0.36068 0.78674 0.0
C686 C 0.93743 0.35526 0.79354 0.0
C687 C 0.96285 0.34402 0.7873 0.0
H688 H 0.92041 0.34228 0.78948 0.0
H689 H 0.96508 0.32254 0.78214 0.0
H690 H 0.83695 0.43894 0.99221 0.0
H691 H 0.90157 0.47017 0.80369 0.0
H692 H 0.79211 0.45456 0.01722 0.0
H693 H 1.005 0.35194 0.7822 0.0
H694 H 0.02394 0.39835 0.78818 0.0
H695 H 0.86449 0.31285 0.96023 0.0
H696 H 0.98536 0.48628 0.79174 0.0
H697 H 0.93877 0.50278 0.79813 0.0
H698 H 0.73894 0.37431 0.01722 0.0
H699 H 0.01681 0.44728 0.79029 0.0
H700 H 0.78209 0.29104 0.97232 0.0
H701 H 0.82898 0.27882 0.95167 0.0
N702 N 0.8373 0.34524 0.97034 0.0
C703 C 0.81166 0.35259 0.98167 0.0
C704 C 0.84388 0.31889 0.96384 0.0
C705 C 0.79743 0.30643 0.97261 0.0
C706 C 0.82391 0.29933 0.96176 0.0
C707 C 0.79109 0.33326 0.98397 0.0
H708 H 0.74883 0.32673 0.99863 0.0
N709 N 0.82575 0.3981 0.9829 0.0
C710 C 0.80587 0.37966 0.98988 0.0
C711 C 0.77472 0.415 0.01359 0.0
C712 C 0.77966 0.38773 1.00376 0.0
C713 C 0.8211 0.42459 0.99369 0.0
C714 C 0.7956 0.43347 1.00894 0.0
O715 O 0.92153 0.40908 0.89137 0.0
O716 O 0.91277 0.37285 0.94866 0.0
O717 O 0.87331 0.39867 0.05102 0.0
O718 O 0.87096 0.35535 0.0436 0.0
O719 O 0.87713 0.36115 0.82595 0.0
O720 O 0.89122 0.34938 0.91635 0.0
O721 O 0.83716 0.38064 0.89373 0.0
O722 O 0.84956 0.41181 0.8253 0.0
O723 O 0.8917 0.38617 0.72977 0.0
O724 O 0.88778 0.42917 0.73959 0.0
O725 O 0.8825 0.42337 0.96256 0.0
O726 O 0.87558 0.43836 0.86927 0.0
C727 C 0.92981 0.39023 0.92664 0.0
C728 C 0.88389 0.34267 0.86412 0.0
C729 C 0.89246 0.37319 0.12587 0.0
C730 C 0.90103 0.37865 0.22844 0.0
C731 C 0.93483 0.35896 0.16633 0.0
C732 C 0.91793 0.362 0.1187 0.0
C733 C 0.92643 0.3671 0.22099 0.0
C734 C 0.88419 0.38162 0.18042 0.0
C735 C 0.87358 0.37577 0.07803 0.0
C736 C 0.75924 0.36843 1.00708 0.0
C737 C 0.76488 0.34133 0.99661 0.0
H738 H 0.7549 0.42198 0.02478 0.0
C739 C 0.83186 0.39577 0.8483 0.0
C740 C 0.8784 0.44291 0.92538 0.0
C741 C 0.86825 0.40952 0.65722 0.0
C742 C 0.85879 0.40263 0.55543 0.0
C743 C 0.82458 0.42074 0.61853 0.0
C744 C 0.84223 0.41928 0.66522 0.0
C745 C 0.83283 0.41268 0.56375 0.0
C746 C 0.87633 0.40102 0.60258 0.0
C747 C 0.88793 0.40907 0.70402 0.0
H748 H 0.95445 0.3502 0.16094 0.0
H749 H 0.92459 0.35549 0.07664 0.0
H750 H 0.93989 0.36465 0.25725 0.0
H751 H 0.86431 0.38998 0.18562 0.0
H752 H 0.80452 0.42831 0.62474 0.0
H753 H 0.83571 0.42599 0.7072 0.0
H754 H 0.81889 0.41403 0.52806 0.0
H755 H 0.89659 0.39379 0.5965 0.0
C756 C 0.44239 0.0961 0.74517 0.0
C757 C 0.47688 0.12946 0.76408 0.0
C758 C 0.45041 0.12285 0.74847 0.0
C759 C 0.49567 0.10888 0.77221 0.0
C760 C 0.46072 0.07548 0.75827 0.0
C761 C 0.48754 0.08196 0.76974 0.0
N762 N 0.41602 0.09046 0.73665 0.0
C763 C 0.40623 0.06543 0.74803 0.0
C764 C 0.45116 0.04917 0.76363 0.0
C765 C 0.4237 0.04425 0.76013 0.0
Gd766 Gd 0.36782 0.14566 0.55386 0.0
Gd767 Gd 0.38886 0.12748 0.71591 0.0
N768 N 0.43165 0.14237 0.7421 0.0
C769 C 0.48324 0.15642 0.7747 0.0
C770 C 0.43706 0.16831 0.75766 0.0
C771 C 0.46309 0.17583 0.77284 0.0
H772 H 0.42142 0.18326 0.75663 0.0
H773 H 0.46758 0.19654 0.78321 0.0
H774 H 0.33551 0.08491 0.55589 0.0
H775 H 0.3849 0.06174 0.7467 0.0
H776 H 0.29063 0.06796 0.53589 0.0
H777 H 0.50336 0.16227 0.78689 0.0
H778 H 0.51621 0.11355 0.7835 0.0
H779 H 0.36226 0.21311 0.55662 0.0
H780 H 0.46461 0.03277 0.7737 0.0
H781 H 0.41596 0.02421 0.76707 0.0
H782 H 0.23878 0.14734 0.49943 0.0
H783 H 0.50186 0.06631 0.77977 0.0
H784 H 0.28045 0.2326 0.52667 0.0
H785 H 0.32671 0.24664 0.54988 0.0
N786 N 0.33595 0.1797 0.5479 0.0
C787 C 0.31075 0.17136 0.5349 0.0
C788 C 0.34195 0.2064 0.55113 0.0
C789 C 0.29588 0.21756 0.53214 0.0
C790 C 0.32192 0.22563 0.54506 0.0
C791 C 0.29006 0.19019 0.52643 0.0
H792 H 0.24812 0.19538 0.50601 0.0
N793 N 0.32532 0.12601 0.54434 0.0
C794 C 0.30531 0.14384 0.53278 0.0
C795 C 0.27396 0.10724 0.52168 0.0
C796 C 0.27909 0.13486 0.52125 0.0
C797 C 0.32018 0.09911 0.54601 0.0
C798 C 0.29451 0.08934 0.53477 0.0
O799 O 0.41945 0.14663 0.65898 0.0
O800 O 0.4122 0.13388 0.56556 0.0
O801 O 0.36489 0.13193 0.46444 0.0
O802 O 0.3764 0.17269 0.48364 0.0
O803 O 0.37913 0.17228 0.69604 0.0
O804 O 0.39011 0.17817 0.59989 0.0
O805 O 0.33909 0.15088 0.63047 0.0
O806 O 0.34775 0.11475 0.6872 0.0
O807 O 0.36197 0.14315 0.78212 0.0
O808 O 0.39524 0.11834 0.80621 0.0
O809 O 0.38086 0.10292 0.56015 0.0
O810 O 0.38268 0.0898 0.65677 0.0
C811 C 0.42861 0.13895 0.60901 0.0
C812 C 0.38536 0.18792 0.65152 0.0
C813 C 0.39288 0.15456 0.39702 0.0
C814 C 0.40407 0.14904 0.29473 0.0
C815 C 0.4365 0.16808 0.36224 0.0
C816 C 0.41859 0.16486 0.40735 0.0
C817 C 0.42925 0.16068 0.30649 0.0
C818 C 0.38577 0.1463 0.34078 0.0
C819 C 0.3728 0.15484 0.44352 0.0
C820 C 0.25881 0.15369 0.51021 0.0
C821 C 0.26419 0.1812 0.51341 0.0
H822 H 0.2542 0.09945 0.51255 0.0
C823 C 0.33101 0.13315 0.66904 0.0
C824 C 0.38306 0.08442 0.60023 0.0
C825 C 0.35985 0.11963 0.87175 0.0
C826 C 0.3509 0.11579 0.97505 0.0
C827 C 0.32788 0.08686 0.90645 0.0
C828 C 0.34203 0.09851 0.86113 0.0
C829 C 0.33209 0.09555 0.96298 0.0
C830 C 0.3647 0.12787 0.92894 0.0
C831 C 0.37503 0.13199 0.82445 0.0
H832 H 0.456 0.17678 0.37035 0.0
H833 H 0.42463 0.17118 0.45011 0.0
H834 H 0.44348 0.16444 0.27246 0.0
H835 H 0.36606 0.13795 0.3332 0.0
H836 H 0.31391 0.07072 0.89787 0.0
H837 H 0.3395 0.09074 0.81803 0.0
H838 H 0.32126 0.08586 0.99754 0.0
H839 H 0.37922 0.14358 0.93755 0.0
C840 C 0.57799 0.59574 0.29147 0.0
C841 C 0.54733 0.63061 0.25904 0.0
C842 C 0.57282 0.6226 0.27869 0.0
C843 C 0.52688 0.61146 0.25379 0.0
C844 C 0.55765 0.57638 0.28416 0.0
C845 C 0.53215 0.58441 0.26554 0.0
N846 N 0.60336 0.58823 0.30583 0.0
C847 C 0.60993 0.5616 0.30882 0.0
C848 C 0.56385 0.54928 0.29269 0.0
C849 C 0.5902 0.54185 0.30432 0.0
Gd850 Gd 0.65615 0.64459 0.46749 0.0
Gd851 Gd 0.63469 0.62345 0.30893 0.0
N852 N 0.59307 0.64074 0.28291 0.0
C853 C 0.54346 0.65744 0.24291 0.0
C854 C 0.58993 0.6665 0.26381 0.0
C855 C 0.56494 0.67539 0.24468 0.0
H856 H 0.60672 0.68018 0.26369 0.0
H857 H 0.56233 0.69596 0.23073 0.0
H858 H 0.68473 0.58293 0.48744 0.0
H859 H 0.63047 0.55526 0.31259 0.0
H860 H 0.72955 0.56468 0.503 0.0
H861 H 0.52415 0.66432 0.22757 0.0
H862 H 0.50716 0.61721 0.23874 0.0
H863 H 0.66276 0.71124 0.46905 0.0
H864 H 0.54872 0.53386 0.28772 0.0
H865 H 0.59549 0.52085 0.30794 0.0
H866 H 0.78553 0.64243 0.51928 0.0
H867 H 0.5166 0.56965 0.25819 0.0
H868 H 0.745 0.72917 0.5018 0.0
H869 H 0.69848 0.74421 0.48465 0.0
N870 N 0.68876 0.67759 0.47511 0.0
C871 C 0.71375 0.66859 0.48792 0.0
C872 C 0.68304 0.70432 0.47479 0.0
C873 C 0.72937 0.71446 0.49463 0.0
C874 C 0.70325 0.72312 0.48423 0.0
C875 C 0.73488 0.68691 0.49694 0.0
H876 H 0.77721 0.69101 0.51504 0.0
N877 N 0.69756 0.62356 0.48258 0.0
C878 C 0.71837 0.64093 0.49091 0.0
C879 C 0.74843 0.60354 0.50531 0.0
C880 C 0.74438 0.63129 0.5022 0.0
C881 C 0.70125 0.59657 0.48856 0.0
C882 C 0.72674 0.58614 0.4989 0.0
O883 O 0.60459 0.64383 0.36715 0.0
O884 O 0.61355 0.62856 0.45768 0.0
O885 O 0.66345 0.63679 0.55808 0.0
O886 O 0.63997 0.6713 0.53249 0.0
O887 O 0.64904 0.66683 0.32149 0.0
O888 O 0.63667 0.67744 0.41481 0.0
O889 O 0.6861 0.64863 0.39243 0.0
O890 O 0.67688 0.61294 0.3341 0.0
O891 O 0.65373 0.64014 0.2321 0.0
O892 O 0.62979 0.60426 0.22605 0.0
O893 O 0.64006 0.60242 0.46165 0.0
O894 O 0.64982 0.58935 0.36856 0.0
C895 C 0.59627 0.63504 0.41718 0.0
C896 C 0.64334 0.68455 0.36211 0.0
C897 C 0.63098 0.6516 0.62332 0.0
C898 C 0.62426 0.6442 0.72612 0.0
C899 C 0.58696 0.64006 0.65919 0.0
C900 C 0.60381 0.64622 0.61326 0.0
C901 C 0.59712 0.63887 0.71525 0.0
C902 C 0.64112 0.65077 0.67991 0.0
C903 C 0.64924 0.65709 0.57533 0.0
C904 C 0.76547 0.64954 0.51052 0.0
C905 C 0.76073 0.67723 0.50812 0.0
H906 H 0.76813 0.59536 0.5138 0.0
C907 C 0.69355 0.63149 0.35208 0.0
C908 C 0.64324 0.5836 0.42262 0.0
C909 C 0.66023 0.61151 0.15107 0.0
C910 C 0.66733 0.60664 0.04773 0.0
C911 C 0.69358 0.58042 0.1157 0.0
C912 C 0.67947 0.59167 0.16142 0.0
C913 C 0.6875 0.58776 0.05913 0.0
C914 C 0.6542 0.61905 0.09403 0.0
C915 C 0.64372 0.6219 0.19812 0.0
H916 H 0.56601 0.63596 0.65126 0.0
H917 H 0.59567 0.6466 0.56997 0.0
H918 H 0.58377 0.63382 0.75026 0.0
H919 H 0.6622 0.65453 0.68778 0.0
H920 H 0.70855 0.56521 0.12397 0.0
H921 H 0.68283 0.58417 0.20451 0.0
H922 H 0.69785 0.57796 0.02407 0.0
H923 H 0.63819 0.63321 0.08561 0.0
C924 C 0.18268 0.83145 0.016 0.0
C925 C 0.14947 0.8038 0.96721 0.0
C926 C 0.1561 0.82614 1.00184 0.0
C927 C 0.16969 0.78637 0.94868 0.0
C928 C 0.20297 0.81371 0.99776 0.0
C929 C 0.19631 0.79111 0.96456 0.0
N930 N 0.18892 0.85501 0.04279 0.0
C931 C 0.21514 0.86214 0.05058 0.0
C932 C 0.2296 0.81997 0.01051 0.0
C933 C 0.2357 0.84438 0.03671 0.0
Gd934 Gd 0.13114 0.90379 0.21159 0.0
Gd935 Gd 0.15246 0.88435 0.05595 0.0
N936 N 0.13694 0.84381 0.0183 0.0
C937 C 0.12279 0.8001 0.95049 0.0
C938 C 0.11098 0.84059 1.00103 0.0
C939 C 0.10342 0.81842 0.96805 0.0
H940 H 0.09616 0.85556 0.01075 0.0
H941 H 0.08281 0.81593 0.95465 0.0
H942 H 0.19203 0.92784 0.25398 0.0
H943 H 0.22076 0.88194 0.0646 0.0
H944 H 0.21314 0.97152 0.27098 0.0
H945 H 0.11697 0.78323 0.92379 0.0
H946 H 0.16494 0.76909 0.92222 0.0
H947 H 0.06604 0.91583 0.19512 0.0
H948 H 0.24568 0.80671 0.99777 0.0
H949 H 0.25634 0.85008 0.04387 0.0
H950 H 0.14091 0.03425 0.25556 0.0
H951 H 0.21168 0.77744 0.94993 0.0
H952 H 0.05367 1.00043 0.20941 0.0
H953 H 0.03631 0.95511 0.18695 0.0
N954 N 0.1009 0.93929 0.20928 0.0
C955 C 0.111 0.96389 0.2226 0.0
C956 C 0.0742 0.9357 0.20041 0.0
C957 C 0.06709 0.98337 0.21045 0.0
C958 C 0.05712 0.9578 0.1982 0.0
C959 C 0.09428 0.98665 0.22345 0.0
H960 H 0.09276 0.02969 0.23599 0.0
N961 N 0.15417 0.94406 0.23104 0.0
C962 C 0.1384 0.96641 0.23272 0.0
C963 C 0.17676 0.99372 0.25721 0.0
C964 C 0.1494 0.99186 0.24517 0.0
C965 C 0.18038 0.94561 0.24721 0.0
C966 C 0.19222 0.97044 0.25903 0.0
O967 O 0.13636 0.84969 0.10949 0.0
O968 O 0.14761 0.86099 0.20255 0.0
O969 O 0.1369 0.91069 0.30281 0.0
O970 O 0.10173 0.88939 0.27271 0.0
O971 O 0.1079 0.89458 0.07027 0.0
O972 O 0.09948 0.88073 0.16317 0.0
O973 O 0.12561 0.93265 0.13432 0.0
O974 O 0.16315 0.92643 0.08267 0.0
O975 O 0.13295 0.90426 0.98343 0.0
O976 O 0.17192 0.88579 0.97288 0.0
O977 O 0.17317 0.88744 0.20863 0.0
O978 O 0.18603 0.89952 0.11727 0.0
C979 C 0.14262 0.84282 0.16246 0.0
C980 C 0.09131 0.88582 0.11049 0.0
C981 C 0.11795 0.8796 0.36658 0.0
C982 C 0.12396 0.87459 0.47042 0.0
C983 C 0.11631 0.83537 0.40967 0.0
C984 C 0.11505 0.85172 0.36095 0.0
C985 C 0.12043 0.84665 0.46407 0.0
C986 C 0.12289 0.89082 0.4209 0.0
C987 C 0.11538 0.89772 0.31715 0.0
C988 C 0.13275 0.01456 0.24618 0.0
C989 C 0.10529 1.01196 0.23533 0.0
H990 H 0.18595 1.0129 0.26699 0.0
C991 C 0.14399 0.94238 0.09939 0.0
C992 C 0.19203 0.89213 0.17081 0.0
C993 C 0.15738 0.91431 0.89784 0.0
C994 C 0.158 0.91865 0.79352 0.0
C995 C 0.17489 0.95474 0.85399 0.0
C996 C 0.16937 0.93954 0.90312 0.0
C997 C 0.16914 0.94443 0.79934 0.0
C998 C 0.15189 0.90384 0.84314 0.0
C999 C 0.15181 0.89742 0.94777 0.0
H1000 H 0.11374 0.81388 0.40537 0.0
H1001 H 0.11158 0.84265 0.31919 0.0
H1002 H 0.12045 0.83346 0.5011 0.0
H1003 H 0.12595 0.91232 0.4242 0.0
H1004 H 0.18409 0.97433 0.85819 0.0
H1005 H 0.17481 0.94714 0.94485 0.0
H1006 H 0.17413 0.95623 0.76168 0.0
H1007 H 0.14308 0.88399 0.83918 0.0
C1008 C 0.94359 0.60143 0.24263 0.0
C1009 C 0.97175 0.63767 0.27792 0.0
C1010 C 0.94699 0.6283 0.25672 0.0
C1011 C 0.99291 0.61954 0.28581 0.0
C1012 C 0.96453 0.58301 0.25252 0.0
C1013 C 0.98914 0.59223 0.27408 0.0
N1014 N 0.91934 0.59302 0.22288 0.0
C1015 C 0.91399 0.56623 0.21898 0.0
C1016 C 0.95974 0.55569 0.24292 0.0
C1017 C 0.93416 0.54723 0.22712 0.0
Gd1018 Gd 0.86956 0.64292 0.05235 0.0
Gd1019 Gd 0.8864 0.62642 0.21295 0.0
N1020 N 0.92598 0.6453 0.2497 0.0
C1021 C 0.97435 0.66494 0.29149 0.0
C1022 C 0.92811 0.67174 0.26465 0.0
C1023 C 0.95239 0.682 0.28511 0.0
H1024 H 0.91111 0.68495 0.26068 0.0
H1025 H 0.95412 0.70303 0.29625 0.0
H1026 H 0.84134 0.58502 0.01055 0.0
H1027 H 0.89389 0.55926 0.21327 0.0
H1028 H 0.79681 0.56805 0.98244 0.0
H1029 H 0.9931 0.67292 0.30763 0.0
H1030 H 1.01205 0.62631 0.30238 0.0
H1031 H 0.86454 0.71042 0.05146 0.0
H1032 H 0.97527 0.54091 0.25019 0.0
H1033 H 0.92972 0.52603 0.2231 0.0
H1034 H 0.7411 0.64641 0.98603 0.0
H1035 H 1.00517 0.57827 0.28332 0.0
H1036 H 0.78268 0.73091 0.0265 0.0
H1037 H 0.82954 0.74384 0.04306 0.0
N1038 N 0.83766 0.67724 0.04708 0.0
C1039 C 0.81247 0.66944 0.03193 0.0
C1040 C 0.84405 0.70383 0.0485 0.0
C1041 C 0.79785 0.71559 0.03201 0.0
C1042 C 0.82423 0.72317 0.04219 0.0
C1043 C 0.79176 0.68843 0.02528 0.0
H1044 H 0.74987 0.69423 1.00468 0.0
N1045 N 0.82823 0.62491 0.02372 0.0
C1046 C 0.80765 0.64261 0.01941 0.0
C1047 C 0.77797 0.60677 0.99009 0.0
C1048 C 0.7819 0.63396 1.00275 0.0
C1049 C 0.82474 0.59859 0.00934 0.0
C1050 C 0.79954 0.58904 0.99302 0.0
O1051 O 0.92004 0.64319 0.15894 0.0
O1052 O 0.91117 0.62619 0.06977 0.0
O1053 O 0.87079 0.63062 0.96257 0.0
O1054 O 0.88806 0.66861 0.98882 0.0
O1055 O 0.87254 0.66943 0.1973 0.0
O1056 O 0.88761 0.67728 0.10538 0.0
O1057 O 0.83611 0.62675 0.11225 0.0
O1058 O 0.84793 0.64745 0.19449 0.0
O1059 O 0.88301 0.63656 0.30336 0.0
O1060 O 0.86358 0.60085 0.27024 0.0
O1061 O 0.88676 0.60202 0.06371 0.0
O1062 O 0.87223 0.59087 0.15419 0.0
C1063 C 0.92825 0.63415 0.10925 0.0
C1064 C 0.88052 0.68609 0.15661 0.0
C1065 C 0.87258 0.66508 0.89275 0.0
C1066 C 0.8702 0.66376 0.788 0.0
C1067 C 0.85371 0.70267 0.84024 0.0
C1068 C 0.86072 0.6906 0.89234 0.0
C1069 C 0.85855 0.68948 0.78832 0.0
C1070 C 0.87699 0.65166 0.84069 0.0
C1071 C 0.88235 0.65269 0.94608 0.0
C1072 C 0.76103 0.65269 0.99868 0.0
C1073 C 0.76598 0.67988 0.00962 0.0
H1074 H 0.75846 0.59934 0.97729 0.0
C1075 C 0.82949 0.63637 0.16305 0.0
C1076 C 0.87889 0.58393 0.10075 0.0
C1077 C 0.87716 0.60088 0.36824 0.0
C1078 C 0.87894 0.60039 0.47304 0.0
C1079 C 0.89454 0.56188 0.41836 0.0
C1080 C 0.8881 0.57496 0.367 0.0
C1081 C 0.88994 0.57443 0.47116 0.0
C1082 C 0.87284 0.61353 0.42116 0.0
C1083 C 0.86934 0.61514 0.31561 0.0
H1084 H 0.84488 0.7225 0.84003 0.0
H1085 H 0.85731 0.70142 0.93195 0.0
H1086 H 0.85358 0.69961 0.74845 0.0
H1087 H 0.88591 0.63182 0.8414 0.0
H1088 H 0.90283 0.54182 0.41728 0.0
H1089 H 0.89139 0.56471 0.32669 0.0
H1090 H 0.89452 0.56362 0.51044 0.0
H1091 H 0.86467 0.63371 0.42178 0.0
C1092 C 0.07843 0.09474 0.78531 0.0
C1093 C 0.04844 0.12858 0.74564 0.0
C1094 C 0.0735 0.12123 0.76872 0.0
C1095 C 0.02855 0.10899 0.73825 0.0
C1096 C 0.05861 0.07495 0.7763 0.0
C1097 C 0.03379 0.08221 0.75271 0.0
N1098 N 0.10296 0.08801 0.80678 0.0
C1099 C 0.10962 0.06152 0.81341 0.0
C1100 C 0.06465 0.04817 0.78893 0.0
C1101 C 0.09041 0.0414 0.80667 0.0
Gd1102 Gd 0.15606 0.14163 0.96621 0.0
Gd1103 Gd 0.13407 0.12351 0.80987 0.0
N1104 N 0.09328 0.13982 0.775 0.0
C1105 C 0.04423 0.15537 0.72966 0.0
C1106 C 0.08959 0.16582 0.75797 0.0
C1107 C 0.06492 0.17404 0.73572 0.0
H1108 H 0.10569 0.18019 0.76112 0.0
H1109 H 0.06194 0.19471 0.7228 0.0
H1110 H 0.18611 0.08396 1.00192 0.0
H1111 H 0.12993 0.05533 0.82148 0.0
H1112 H 0.23218 0.06714 0.01676 0.0
H1113 H 0.02518 0.16178 0.71204 0.0
H1114 H 1.0092 0.11423 0.72041 0.0
H1115 H 0.1617 0.20983 0.95679 0.0
H1116 H 0.04994 0.03244 0.78261 0.0
H1117 H 0.09576 0.02056 0.81329 0.0
H1118 H 0.28748 0.14445 0.98305 0.0
H1119 H 0.01853 0.06716 0.74497 0.0
H1120 H 0.24473 0.22862 0.94713 0.0
H1121 H 0.19762 0.24273 0.94221 0.0
N1122 N 0.18796 0.17609 0.95737 0.0
C1123 C 0.21385 0.16807 0.96453 0.0
C1124 C 0.18203 0.20282 0.95386 0.0
C1125 C 0.22902 0.21372 0.95081 0.0
C1126 C 0.2024 0.22181 0.94815 0.0
C1127 C 0.23505 0.18669 0.96051 0.0
H1128 H 0.27805 0.19191 0.96321 0.0
N1129 N 0.19865 0.12344 0.98051 0.0
C1130 C 0.21931 0.14125 0.97768 0.0
C1131 C 0.25047 0.10551 0.99915 0.0
C1132 C 0.24587 0.13253 0.98549 0.0
C1133 C 0.20285 0.09736 0.99622 0.0
C1134 C 0.22884 0.08793 1.00519 0.0
O1135 O 0.09987 0.13809 0.86461 0.0
O1136 O 0.11097 0.13314 0.96086 0.0
O1137 O 0.15949 0.12636 0.05325 0.0
O1138 O 0.15097 0.16835 0.03923 0.0
O1139 O 0.14532 0.16798 0.82168 0.0
O1140 O 0.13457 0.17478 0.91735 0.0
O1141 O 0.18537 0.12448 0.89821 0.0
O1142 O 0.17297 0.14562 0.81681 0.0
O1143 O 0.13074 0.12859 0.71747 0.0
O1144 O 0.1554 0.09674 0.75246 0.0
O1145 O 0.13536 0.10186 0.96069 0.0
O1146 O 0.15012 0.09024 0.87132 0.0
C1147 C 0.0932 0.13614 0.91899 0.0
C1148 C 0.13836 0.18394 0.8647 0.0
C1149 C 0.13496 0.14827 0.12442 0.0
C1150 C 0.12723 0.14472 0.22762 0.0
C1151 C 0.08967 0.14634 0.16067 0.0
C1152 C 0.10731 0.14813 0.11437 0.0
C1153 C 0.0995 0.14465 0.21701 0.0
C1154 C 0.14482 0.14645 0.18076 0.0
C1155 C 0.15405 0.14927 0.07697 0.0
C1156 C 0.26693 0.1509 0.97899 0.0
C1157 C 0.26154 0.1779 0.96698 0.0
H1158 H 0.2706 0.09809 1.00566 0.0
C1159 C 0.19194 0.1356 0.84865 0.0
C1160 C 0.14189 0.08339 0.92357 0.0
C1161 C 0.16477 0.11217 0.65764 0.0
C1162 C 0.17009 0.11651 0.55387 0.0
C1163 C 0.20915 0.11299 0.61633 0.0
C1164 C 0.19264 0.11139 0.66451 0.0
C1165 C 0.19791 0.11511 0.56133 0.0
C1166 C 0.15362 0.11498 0.60245 0.0
C1167 C 0.14653 0.10866 0.7062 0.0
H1168 H 0.06831 0.1463 0.1529 0.0
H1169 H 0.09942 0.1493 0.07096 0.0
H1170 H 0.08543 0.14362 0.25224 0.0
H1171 H 0.16627 0.14595 0.18793 0.0
H1172 H 0.23065 0.11204 0.6215 0.0
H1173 H 0.20157 0.10898 0.7067 0.0
H1174 H 0.21077 0.11491 0.52425 0.0
H1175 H 0.13206 0.11583 0.59741 0.0
C1176 C 0.6806 0.33848 0.49123 0.0
C1177 C 0.64566 0.31109 0.44832 0.0
C1178 C 0.65367 0.33318 0.48227 0.0
C1179 C 0.66508 0.29407 0.42467 0.0
C1180 C 0.70018 0.3216 0.46684 0.0
C1181 C 0.69227 0.29917 0.43437 0.0
N1182 N 0.68768 0.36117 0.51992 0.0
C1183 C 0.71386 0.3691 0.52155 0.0
C1184 C 0.72715 0.32849 0.47321 0.0
C1185 C 0.73399 0.35257 0.50004 0.0
Gd1186 Gd 0.62958 0.40329 0.71081 0.0
Gd1187 Gd 0.65228 0.38877 0.55015 0.0
N1188 N 0.63532 0.35048 0.5039 0.0
C1189 C 0.61836 0.30715 0.43779 0.0
C1190 C 0.60868 0.34703 0.49268 0.0
C1191 C 0.59979 0.32509 0.46042 0.0
H1192 H 0.59423 0.36135 0.50788 0.0
H1193 H 0.57865 0.32235 0.452 0.0
H1194 H 0.68839 0.44059 0.70753 0.0
H1195 H 0.7193 0.38871 0.53783 0.0
H1196 H 0.70304 0.48493 0.73783 0.0
H1197 H 0.61144 0.29048 0.4117 0.0
H1198 H 0.65929 0.27695 0.39869 0.0
H1199 H 0.5634 0.40498 0.7147 0.0
H1200 H 0.74276 0.31601 0.45524 0.0
H1201 H 0.7547 0.35883 0.5026 0.0
H1202 H 0.62313 0.52871 0.80028 0.0
H1203 H 0.70704 0.28601 0.4154 0.0
H1204 H 0.54014 0.48118 0.78255 0.0
H1205 H 0.52858 0.43522 0.75063 0.0
N1206 N 0.59484 0.43279 0.72946 0.0
C1207 C 0.6021 0.45733 0.74974 0.0
C1208 C 0.56874 0.42511 0.7275 0.0
C1209 C 0.5557 0.46788 0.76728 0.0
C1210 C 0.54888 0.44228 0.74769 0.0
C1211 C 0.58257 0.47579 0.76808 0.0
H1212 H 0.57568 0.51576 0.80156 0.0
N1213 N 0.64749 0.44627 0.73125 0.0
C1214 C 0.6291 0.46434 0.75045 0.0
C1215 C 0.66382 0.49761 0.76392 0.0
C1216 C 0.63686 0.4904 0.76759 0.0
C1217 C 0.67371 0.45371 0.72567 0.0
C1218 C 0.68223 0.4793 0.7422 0.0
O1219 O 0.6358 0.35261 0.59769 0.0
O1220 O 0.64738 0.36193 0.69141 0.0
O1221 O 0.63952 0.40271 0.80191 0.0
O1222 O 0.60446 0.38149 0.7709 0.0
O1223 O 0.60871 0.40197 0.565 0.0
O1224 O 0.59929 0.38303 0.65278 0.0
O1225 O 0.62278 0.4368 0.64425 0.0
O1226 O 0.65983 0.42847 0.5931 0.0
O1227 O 0.63631 0.39989 0.46555 0.0
O1228 O 0.67513 0.41384 0.49285 0.0
O1229 O 0.67367 0.39609 0.70858 0.0
O1230 O 0.68768 0.38746 0.61483 0.0
C1231 C 0.6419 0.34468 0.64999 0.0
C1232 C 0.59128 0.3928 0.60307 0.0
C1233 C 0.60426 0.39661 0.86827 0.0
C1234 C 0.60456 0.40095 0.97291 0.0
C1235 C 0.56394 0.40992 0.91859 0.0
C1236 C 0.57701 0.40335 0.86763 0.0
C1237 C 0.57754 0.40867 0.97102 0.0
C1238 C 0.61793 0.39551 0.92107 0.0
C1239 C 0.61854 0.38865 0.81566 0.0
C1240 C 0.61745 0.5087 0.78654 0.0
C1241 C 0.59042 0.50137 0.78705 0.0
H1242 H 0.67053 0.51747 0.7765 0.0
C1243 C 0.64004 0.44456 0.60498 0.0
C1244 C 0.69245 0.39088 0.67075 0.0
C1245 C 0.67014 0.40375 0.39422 0.0
C1246 C 0.66596 0.39861 0.29011 0.0
C1247 C 0.70847 0.38993 0.33739 0.0
C1248 C 0.69733 0.39677 0.3901 0.0
C1249 C 0.69299 0.39094 0.28761 0.0
C1250 C 0.65452 0.40465 0.34389 0.0
C1251 C 0.65848 0.41149 0.45012 0.0
H1252 H 0.54295 0.4152 0.91762 0.0
H1253 H 0.56554 0.40282 0.82837 0.0
H1254 H 0.56662 0.41273 0.01021 0.0
H1255 H 0.63886 0.38983 0.92183 0.0
H1256 H 0.7294 0.38456 0.33492 0.0
H1257 H 0.71034 0.39723 0.42716 0.0
H1258 H 0.70251 0.38662 0.24686 0.0
H1259 H 0.63366 0.4104 0.34653 0.0
C1260 C 0.43593 0.93616 0.24486 0.0
C1261 C 0.46216 0.90169 0.19791 0.0
C1262 C 0.44079 0.90914 0.23395 0.0
C1263 C 0.4782 0.92161 0.17265 0.0
C1264 C 0.45276 0.95613 0.22158 0.0
C1265 C 0.47368 0.94872 0.18492 0.0
N1266 N 0.41456 0.94299 0.27754 0.0
C1267 C 0.4091 0.96926 0.28913 0.0
C1268 C 0.44771 0.98305 0.23478 0.0
C1269 C 0.42581 0.98963 0.2689 0.0
Gd1270 Gd 0.37606 0.88054 0.458 0.0
Gd1271 Gd 0.38563 0.90777 0.30091 0.0
N1272 N 0.42435 0.89026 0.25743 0.0
C1273 C 0.46681 0.87441 0.18794 0.0
C1274 C 0.42836 0.86366 0.2459 0.0
C1275 C 0.44994 0.85533 0.21241 0.0
H1276 H 0.41457 0.84856 0.25963 0.0
H1277 H 0.45301 0.83419 0.20389 0.0
H1278 H 0.3493 0.93942 0.50507 0.0
H1279 H 0.39123 0.97473 0.31155 0.0
H1280 H 0.30564 0.95678 0.53369 0.0
H1281 H 0.48322 0.8679 0.16105 0.0
H1282 H 0.49455 0.91621 0.14451 0.0
H1283 H 0.36913 0.8141 0.44715 0.0
H1284 H 0.46031 0.99893 0.218 0.0
H1285 H 0.4213 1.01043 0.27819 0.0
H1286 H 0.24945 0.87881 0.53698 0.0
H1287 H 0.48659 0.9638 0.16602 0.0
H1288 H 0.28766 0.79438 0.48274 0.0
H1289 H 0.33258 0.78102 0.44872 0.0
N1290 N 0.34396 0.84689 0.4681 0.0
C1291 C 0.31955 0.85489 0.48713 0.0
C1292 C 0.34919 0.82052 0.45785 0.0
C1293 C 0.3034 0.80927 0.47968 0.0
C1294 C 0.32875 0.80154 0.46106 0.0
C1295 C 0.29861 0.83618 0.49366 0.0
H1296 H 0.25702 0.83095 0.51688 0.0
N1297 N 0.33549 0.89991 0.48808 0.0
C1298 C 0.31515 0.88213 0.49704 0.0
C1299 C 0.28624 0.91828 0.52726 0.0
C1300 C 0.28984 0.89097 0.51571 0.0
C1301 C 0.33255 0.92612 0.50376 0.0
C1302 C 0.30784 0.93584 0.52217 0.0
O1303 O 0.42313 0.91119 0.3545 0.0
O1304 O 0.42004 0.88036 0.42912 0.0
O1305 O 0.38224 0.89293 0.54801 0.0
O1306 O 0.38926 0.85142 0.52077 0.0
O1307 O 0.37591 0.86263 0.31341 0.0
O1308 O 0.39658 0.85162 0.3985 0.0
O1309 O 0.34126 0.87592 0.39119 0.0
O1310 O 0.34562 0.91431 0.34061 0.0
O1311 O 0.37086 0.89123 0.219 0.0
O1312 O 0.37024 0.93459 0.23572 0.0
O1313 O 0.38997 0.92392 0.45329 0.0
O1314 O 0.37195 0.93893 0.36783 0.0
C1315 C 0.43406 0.89644 0.3952 0.0
C1316 C 0.38633 0.84451 0.34885 0.0
C1317 C 0.39776 0.86084 0.62093 0.0
C1318 C 0.39541 0.86521 0.72557 0.0
C1319 C 0.4248 0.83209 0.68206 0.0
C1320 C 0.41652 0.84013 0.62743 0.0
C1321 C 0.4143 0.84441 0.7308 0.0
C1322 C 0.38728 0.87348 0.67008 0.0
C1323 C 0.38921 0.86867 0.56265 0.0
C1324 C 0.26903 0.87232 0.52288 0.0
C1325 C 0.27337 0.84503 0.51174 0.0
H1326 H 0.26713 0.92585 0.54182 0.0
C1327 C 0.33107 0.89372 0.35487 0.0
C1328 C 0.38174 0.94368 0.42007 0.0
C1329 C 0.35332 0.92066 0.1435 0.0
C1330 C 0.35331 0.91665 0.03866 0.0
C1331 C 0.32208 0.94671 0.08648 0.0
C1332 C 0.33276 0.93965 0.13979 0.0
C1333 C 0.33239 0.93555 0.03623 0.0
C1334 C 0.36337 0.90891 0.09307 0.0
C1335 C 0.36577 0.91525 0.19953 0.0
H1336 H 0.43923 0.81605 0.68667 0.0
H1337 H 0.42488 0.83018 0.59016 0.0
H1338 H 0.42059 0.8372 0.7727 0.0
H1339 H 0.3728 0.8895 0.66511 0.0
H1340 H 0.30619 0.9614 0.08398 0.0
H1341 H 0.32512 0.94924 0.17818 0.0
H1342 H 0.32445 0.94245 0.99542 0.0
H1343 H 0.37946 0.8944 0.09629 0.0
H1344 H 0.15114 0.58331 0.71293 0.0
H1345 H 0.16207 0.66487 0.77121 0.0
H1346 H 0.15033 0.68168 0.6758 0.0
H1347 H 0.13725 0.67336 0.5764 0.0
H1348 H 0.12235 0.59202 0.51955 0.0
H1349 H 0.13692 0.57505 0.61274 0.0
C1350 C 0.15114 0.60473 0.70449 0.0
C1351 C 0.1574 0.62279 0.74907 0.0
C1352 C 0.14413 0.61433 0.64956 0.0
C1353 C 0.15702 0.65055 0.7378 0.0
C1354 C 0.15048 0.66018 0.68317 0.0
C1355 C 0.13664 0.65192 0.5843 0.0
C1356 C 0.12843 0.6342 0.54042 0.0
C1357 C 0.14388 0.64226 0.63885 0.0
C1358 C 0.12889 0.60636 0.55164 0.0
C1359 C 0.13693 0.59655 0.60538 0.0
H1360 H 0.62954 0.93596 0.96056 0.0
H1361 H 0.68649 0.87768 0.02223 0.0
H1362 H 0.68482 0.85442 0.92923 0.0
H1363 H 0.66696 0.85082 0.8306 0.0
H1364 H 0.61013 0.90917 0.76871 0.0
H1365 H 0.61192 0.93255 0.86159 0.0
C1366 C 0.64135 0.918 0.95354 0.0
C1367 C 0.65791 0.90826 0.99787 0.0
C1368 C 0.64041 0.90501 0.90004 0.0
C1369 C 0.67326 0.88511 0.9888 0.0
C1370 C 0.67248 0.87203 0.93561 0.0
C1371 C 0.65518 0.8688 0.83755 0.0
C1372 C 0.63854 0.87845 0.79328 0.0
C1373 C 0.65619 0.88186 0.89094 0.0
C1374 C 0.62334 0.90172 0.80218 0.0
C1375 C 0.62419 0.91488 0.8553 0.0
H1376 H 0.3609 0.36217 0.20372 0.0
H1377 H 0.3844 0.44009 0.2677 0.0
H1378 H 0.40568 0.45038 0.17588 0.0
H1379 H 0.41576 0.438 0.07618 0.0
H1380 H 0.39197 0.36006 0.01234 0.0
H1381 H 0.37146 0.34957 0.10467 0.0
C1382 C 0.37053 0.38148 0.19748 0.0
C1383 C 0.37099 0.40037 0.24243 0.0
C1384 C 0.38224 0.38744 0.14434 0.0
C1385 C 0.38405 0.42507 0.23405 0.0
C1386 C 0.39599 0.43107 0.18138 0.0
C1387 C 0.40642 0.41857 0.08265 0.0
C1388 C 0.40546 0.39988 0.03732 0.0
C1389 C 0.395 0.41248 0.1361 0.0
C1390 C 0.39271 0.37501 0.04614 0.0
C1391 C 0.38117 0.36887 0.0991 0.0
H1392 H 0.92443 0.14992 0.43321 0.0
H1393 H 0.8463 0.14751 0.51123 0.0
H1394 H 0.82612 0.13616 0.41854 0.0
H1395 H 0.83072 0.12575 0.31623 0.0
H1396 H 0.90877 0.12672 0.23781 0.0
H1397 H 0.92884 0.14064 0.32932 0.0
C1398 C 0.90295 0.14726 0.42964 0.0
C1399 C 0.88688 0.14953 0.47897 0.0
C1400 C 0.89147 0.14059 0.37618 0.0
C1401 C 0.85912 0.14561 0.47398 0.0
C1402 C 0.84756 0.13923 0.42099 0.0
C1403 C 0.85214 0.12892 0.31917 0.0
C1404 C 0.86823 0.12496 0.27039 0.0
C1405 C 0.86356 0.13642 0.37198 0.0
C1406 C 0.89589 0.12978 0.27459 0.0
C1407 C 0.90741 0.13754 0.32701 0.0
H1408 H 0.18327 0.35313 0.32025 0.0
H1409 H 0.11853 0.403 0.25819 0.0
H1410 H 0.11658 0.42539 0.35136 0.0
H1411 H 0.13359 0.43102 0.4508 0.0
H1412 H 0.195 0.378 0.51447 0.0
H1413 H 0.19685 0.35545 0.42088 0.0
C1414 C 0.16819 0.36839 0.327 0.0
C1415 C 0.15109 0.37615 0.28152 0.0
C1416 C 0.16627 0.38031 0.38143 0.0
C1417 C 0.13242 0.3968 0.29147 0.0
C1418 C 0.131 0.40943 0.34516 0.0
C1419 C 0.14698 0.41418 0.44418 0.0
C1420 C 0.1641 0.40598 0.48901 0.0
C1421 C 0.14782 0.40132 0.39043 0.0
C1422 C 0.18148 0.38431 0.48051 0.0
C1423 C 0.1827 0.37167 0.42696 0.0
H1424 H 0.92437 0.90059 0.70411 0.0
H1425 H 0.85113 0.86191 0.75682 0.0
H1426 H 0.83206 0.86883 0.66116 0.0
H1427 H 0.8365 0.88512 0.56212 0.0
H1428 H 0.90963 0.9244 0.51034 0.0
H1429 H 0.92877 0.91692 0.60542 0.0
C1430 C 0.9044 0.8933 0.69441 0.0
C1431 C 0.88927 0.88073 0.7374 0.0
C1432 C 0.89361 0.89716 0.63934 0.0
C1433 C 0.86315 0.87192 0.72457 0.0
C1434 C 0.85225 0.87572 0.66984 0.0
C1435 C 0.8565 0.8923 0.57183 0.0
C1436 C 0.87159 0.90514 0.52905 0.0
C1437 C 0.8673 0.88834 0.62691 0.0
C1438 C 0.89769 0.91398 0.5421 0.0
C1439 C 0.90863 0.90992 0.59662 0.0
H1440 H 0.36496 0.58588 0.80627 0.0
H1441 H 0.36836 0.66721 0.74246 0.0
H1442 H 0.38525 0.6826 0.83579 0.0
H1443 H 0.39648 0.6733 0.93692 0.0
H1444 H 0.39459 0.59137 0.99872 0.0
H1445 H 0.37824 0.57627 0.90562 0.0
C1446 C 0.36925 0.60702 0.8128 0.0
C1447 C 0.36507 0.62538 0.76755 0.0
C1448 C 0.37865 0.61576 0.86663 0.0
C1449 C 0.37146 0.65259 0.77638 0.0
C1450 C 0.38091 0.66145 0.82992 0.0
C1451 C 0.39296 0.65206 0.93006 0.0
C1452 C 0.3967 0.63369 0.97566 0.0
C1453 C 0.38426 0.64325 0.87559 0.0
C1454 C 0.39137 0.60628 0.9655 0.0
C1455 C 0.38229 0.59747 0.91182 0.0
H1456 H 0.59764 0.14955 0.07303 0.0
H1457 H 0.67302 0.12977 0.99467 0.0
H1458 H 0.69002 0.11331 0.08738 0.0
H1459 H 0.68395 0.10671 0.19162 0.0
H1460 H 0.60733 0.12431 0.268 0.0
H1461 H 0.59047 0.13984 0.17536 0.0
C1462 C 0.61777 0.14159 0.07643 0.0
C1463 C 0.63421 0.14112 0.0276 0.0
C1464 C 0.62723 0.13198 0.12949 0.0
C1465 C 0.66007 0.13033 0.03194 0.0
C1466 C 0.66979 0.12102 0.08487 0.0
C1467 C 0.66342 0.11348 0.18789 0.0
C1468 C 0.6471 0.11457 0.23712 0.0
C1469 C 0.65361 0.12198 0.13409 0.0
C1470 C 0.62061 0.12378 0.23132 0.0
C1471 C 0.61084 0.13252 0.1782 0.0
H1472 H 0.90559 0.3513 0.32909 0.0
H1473 H 0.87534 0.42514 0.25681 0.0
H1474 H 0.85906 0.43886 0.35136 0.0
H1475 H 0.85375 0.42997 0.45489 0.0
H1476 H 0.88458 0.35641 0.52717 0.0
H1477 H 0.90061 0.34259 0.43246 0.0
C1478 C 0.89569 0.37052 0.33421 0.0
C1479 C 0.89176 0.3872 0.28613 0.0
C1480 C 0.88646 0.37829 0.38863 0.0
C1481 C 0.87843 0.41184 0.29314 0.0
C1482 C 0.86919 0.41973 0.34718 0.0
C1483 C 0.86376 0.41082 0.44965 0.0
C1484 C 0.86788 0.39415 0.49769 0.0
C1485 C 0.87303 0.40309 0.39519 0.0
C1486 C 0.88131 0.3696 0.49073 0.0
C1487 C 0.89041 0.36168 0.43665 0.0
H1488 H 0.35512 0.14919 0.2383 0.0
H1489 H 0.43819 0.12831 0.21406 0.0
H1490 H 0.42968 0.11887 0.1133 0.0
H1491 H 0.39887 0.11639 0.03061 0.0
H1492 H 0.31498 0.13107 0.05692 0.0
H1493 H 0.32349 0.14268 0.15752 0.0
C1494 C 0.37135 0.14221 0.21146 0.0
C1495 C 0.3975 0.14038 0.2343 0.0
C1496 C 0.3662 0.13578 0.15322 0.0
C1497 C 0.41806 0.13112 0.19793 0.0
C1498 C 0.4132 0.1254 0.14 0.0
C1499 C 0.38253 0.12238 0.05834 0.0
C1500 C 0.35641 0.12353 0.03588 0.0
C1501 C 0.38744 0.12794 0.11692 0.0
C1502 C 0.33532 0.13056 0.07275 0.0
C1503 C 0.34018 0.13703 0.13049 0.0
H1504 H 0.66843 0.65225 0.98181 0.0
H1505 H 0.64512 0.5689 0.97996 0.0
H1506 H 0.63006 0.57303 0.88017 0.0
H1507 H 0.62341 0.60021 0.79341 0.0
H1508 H 0.64872 0.68288 0.79131 0.0
H1509 H 0.66333 0.67931 0.89221 0.0
C1510 C 0.65996 0.63514 0.95933 0.0
C1511 C 0.65778 0.61031 0.98786 0.0
C1512 C 0.65185 0.63754 0.90131 0.0
C1513 C 0.64699 0.58814 0.95853 0.0
C1514 C 0.6384 0.59049 0.90159 0.0
C1515 C 0.63218 0.61739 0.81519 0.0
C1516 C 0.63486 0.64179 0.78553 0.0
C1517 C 0.64077 0.61504 0.87254 0.0
C1518 C 0.64655 0.66388 0.81358 0.0
C1519 C 0.65477 0.66186 0.87121 0.0
H1520 H 0.15089 0.85318 0.56219 0.0
H1521 H 0.10683 0.92379 0.50975 0.0
H1522 H 0.11459 0.94396 0.60363 0.0
H1523 H 0.13281 0.94125 0.70197 0.0
H1524 H 0.17339 0.86921 0.75671 0.0
H1525 H 0.16705 0.8495 0.66128 0.0
C1526 C 0.14252 0.87278 0.57131 0.0
C1527 C 0.12837 0.88682 0.5283 0.0
C1528 C 0.14618 0.88396 0.62618 0.0
C1529 C 0.11832 0.91256 0.54114 0.0
C1530 C 0.12249 0.9241 0.5952 0.0
C1531 C 0.14033 0.92129 0.69273 0.0
C1532 C 0.15364 0.90674 0.73595 0.0
C1533 C 0.13632 0.90996 0.63807 0.0
C1534 C 0.16297 0.88073 0.72402 0.0
C1535 C 0.15945 0.86951 0.66948 0.0
H1536 H 0.83862 0.66231 0.69269 0.0
H1537 H 0.91412 0.63374 0.7595 0.0
H1538 H 0.92316 0.61119 0.66847 0.0
H1539 H 0.91027 0.60077 0.56895 0.0
H1540 H 0.835 0.62987 0.50209 0.0
H1541 H 0.82578 0.65199 0.5935 0.0
C1542 C 0.8572 0.65143 0.68718 0.0
C1543 C 0.87564 0.64981 0.73286 0.0
C1544 C 0.86249 0.63887 0.63452 0.0
C1545 C 0.89937 0.63507 0.72535 0.0
C1546 C 0.90468 0.62233 0.67314 0.0
C1547 C 0.89172 0.6117 0.57461 0.0
C1548 C 0.87337 0.61364 0.52881 0.0
C1549 C 0.88642 0.62419 0.6274 0.0
C1550 C 0.84963 0.62832 0.53644 0.0
C1551 C 0.84424 0.64083 0.5888 0.0
H1552 H 0.1864 0.14958 0.46808 0.0
H1553 H 0.12733 0.08932 0.50867 0.0
H1554 H 0.10861 0.09301 0.41163 0.0
H1555 H 0.10984 0.1125 0.31448 0.0
H1556 H 0.16879 0.17301 0.27442 0.0
H1557 H 0.18715 0.16959 0.37164 0.0
C1558 C 0.16954 0.13714 0.45552 0.0
C1559 C 0.15835 0.11914 0.49539 0.0
C1560 C 0.15897 0.13927 0.39969 0.0
C1561 C 0.13618 0.1035 0.4789 0.0
C1562 C 0.12555 0.10549 0.42336 0.0
C1563 C 0.12649 0.12516 0.32725 0.0
C1564 C 0.13791 0.14296 0.28722 0.0
C1565 C 0.13685 0.12325 0.38335 0.0
C1566 C 0.15982 0.1589 0.30415 0.0
C1567 C 0.17025 0.15708 0.35983 0.0
H1568 H 0.66634 0.3656 0.19733 0.0
H1569 H 0.63125 0.43887 0.26111 0.0
H1570 H 0.60928 0.44617 0.16831 0.0
H1571 H 0.60177 0.43277 0.06781 0.0
H1572 H 0.6377 0.35989 1.00404 0.0
H1573 H 0.65868 0.3521 0.0975 0.0
C1574 C 0.65397 0.38323 0.19088 0.0
C1575 C 0.65051 0.40169 0.23597 0.0
C1576 C 0.642 0.38766 0.13715 0.0
C1577 C 0.63397 0.42415 0.22734 0.0
C1578 C 0.62165 0.42851 0.1741 0.0
C1579 C 0.61405 0.4151 0.07452 0.0
C1580 C 0.61821 0.397 0.02901 0.0
C1581 C 0.62578 0.41054 0.12855 0.0
C1582 C 0.63451 0.37438 0.03807 0.0
C1583 C 0.6463 0.36975 0.09165 0.0
H1584 H 0.32773 0.90468 0.93777 0.0
H1585 H 0.40614 0.90582 0.01666 0.0
H1586 H 0.42597 0.89107 0.9264 0.0
H1587 H 0.42126 0.87863 0.82476 0.0
H1588 H 0.34307 0.87844 0.74528 0.0
H1589 H 0.32321 0.89374 0.83539 0.0
C1590 C 0.34921 0.90205 0.93525 0.0
C1591 C 0.36531 0.90637 0.98434 0.0
C1592 C 0.36063 0.89428 0.88276 0.0
C1593 C 0.39307 0.9022 0.98018 0.0
C1594 C 0.40453 0.89408 0.92829 0.0
C1595 C 0.39984 0.88182 0.82717 0.0
C1596 C 0.38367 0.87716 0.7784 0.0
C1597 C 0.3885 0.89014 0.87932 0.0
C1598 C 0.35605 0.88206 0.78193 0.0
C1599 C 0.34463 0.89053 0.83364 0.0
H1600 H 0.16877 0.72034 0.22192 0.0
H1601 H 0.09092 0.71014 0.14508 0.0
H1602 H 0.08597 0.75848 0.13551 0.0
H1603 H 0.10573 0.80391 0.13803 0.0
H1604 H 0.18237 0.81574 0.21914 0.0
H1605 H 0.18621 0.76717 0.23627 0.0
C1606 C 0.15034 0.72877 0.20517 0.0
C1607 C 0.12992 0.71129 0.18557 0.0
C1608 C 0.14778 0.75713 0.19862 0.0
C1609 C 0.10658 0.72283 0.1622 0.0
C1610 C 0.10388 0.75066 0.1559 0.0
C1611 C 0.12309 0.79589 0.16031 0.0
C1612 C 0.14378 0.81352 0.17716 0.0
C1613 C 0.12468 0.76801 0.17204 0.0
C1614 C 0.1661 0.80271 0.20596 0.0
C1615 C 0.16828 0.77486 0.21579 0.0
H1616 H 0.55656 0.93024 0.4009 0.0
H1617 H 0.56672 0.84738 0.44904 0.0
H1618 H 0.51809 0.84113 0.44939 0.0
H1619 H 0.47194 0.85891 0.4312 0.0
H1620 H 0.46333 0.94123 0.37596 0.0
H1621 H 0.51141 0.9478 0.38293 0.0
C1622 C 0.5482 0.9107 0.4107 0.0
C1623 C 0.56554 0.88922 0.42365 0.0
C1624 C 0.52014 0.9071 0.40958 0.0
C1625 C 0.55407 0.86432 0.4385 0.0
C1626 C 0.52613 0.86069 0.43847 0.0
C1627 C 0.48061 0.87831 0.4211 0.0
C1628 C 0.46371 0.89957 0.40334 0.0
C1629 C 0.50884 0.88187 0.4234 0.0
C1630 C 0.47556 0.92444 0.38972 0.0
C1631 C 0.50321 0.92828 0.39366 0.0
H1632 H 0.41035 0.31058 0.61379 0.0
H1633 H 0.3491 0.32071 0.74164 0.0
H1634 H 0.34613 0.27163 0.75329 0.0
H1635 H 0.35931 0.22515 0.72148 0.0
H1636 H 0.42162 0.21747 0.59439 0.0
H1637 H 0.42555 0.26589 0.58795 0.0
C1638 C 0.39633 0.30214 0.64436 0.0
C1639 C 0.3798 0.3194 0.67637 0.0
C1640 C 0.39485 0.27409 0.65085 0.0
C1641 C 0.36215 0.30796 0.71654 0.0
C1642 C 0.36037 0.27984 0.72298 0.0
C1643 C 0.37417 0.23412 0.69357 0.0
C1644 C 0.39009 0.21743 0.65838 0.0
C1645 C 0.37647 0.26256 0.68985 0.0
C1646 C 0.40899 0.22959 0.62184 0.0
C1647 C 0.41126 0.25742 0.6179 0.0
H1648 H 0.96944 0.12005 0.97657 0.0
H1649 H 0.96331 0.17486 0.83297 0.0
H1650 H 1.01155 0.17881 0.8292 0.0
H1651 H 0.05582 0.16483 0.86121 0.0
H1652 H 0.06435 0.11119 1.00543 0.0
H1653 H 0.01537 0.10933 0.01553 0.0
C1654 C 0.97868 0.13332 0.94542 0.0
C1655 C 0.96241 0.14697 0.9048 0.0
C1656 C 1.00706 0.13564 0.94326 0.0
C1657 C 0.975 0.16399 0.86466 0.0
C1658 C 1.00277 0.1662 0.86216 0.0
C1659 C 0.04705 0.15271 0.89497 0.0
C1660 C 0.06388 0.13779 0.93178 0.0
C1661 C 0.01901 0.15174 0.9003 0.0
C1662 C 0.052 0.12285 0.97633 0.0
C1663 C 0.0239 0.12167 0.98183 0.0
H1664 H 0.10324 0.3059 0.87797 0.0
H1665 H 0.18041 0.31837 0.80092 0.0
H1666 H 0.18692 0.26952 0.79446 0.0
H1667 H 0.17135 0.22258 0.81589 0.0
H1668 H 0.09434 0.21147 0.89508 0.0
H1669 H 0.08689 0.25994 0.89439 0.0
C1670 C 0.1213 0.29795 0.85878 0.0
C1671 C 0.14118 0.31595 0.83941 0.0
C1672 C 0.1249 0.26981 0.85542 0.0
C1673 C 0.16455 0.30514 0.81517 0.0
C1674 C 0.16835 0.27711 0.81192 0.0
C1675 C 0.1527 0.2308 0.83163 0.0
C1676 C 0.13322 0.21324 0.85486 0.0
C1677 C 0.14874 0.25913 0.8323 0.0
C1678 C 0.10954 0.22439 0.87668 0.0
C1679 C 0.10531 0.25219 0.87653 0.0
H1680 H 0.05542 0.92465 0.07855 0.0
H1681 H 0.06132 0.84065 0.12023 0.0
H1682 H 0.01251 0.83616 0.11476 0.0
H1683 H 0.96745 0.85697 0.10482 0.0
H1684 H 0.96196 0.94233 0.07769 0.0
H1685 H 1.01065 0.94559 0.07143 0.0
C1686 C 0.04599 0.90526 0.08513 0.0
C1687 C 0.06207 0.88285 0.09848 0.0
C1688 C 0.01772 0.90318 0.08508 0.0
C1689 C 0.04945 0.85809 0.10897 0.0
C1690 C 0.02149 0.85556 0.10618 0.0
C1691 C 0.97694 0.8761 0.09592 0.0
C1692 C 0.96094 0.89927 0.0897 0.0
C1693 C 1.00528 0.87804 0.09498 0.0
C1694 C 0.9737 0.92412 0.08112 0.0
C1695 C 1.00162 0.92602 0.07785 0.0
H1696 H 0.35104 0.72213 0.32568 0.0
H1697 H 0.43504 0.70985 0.35615 0.0
H1698 H 0.44237 0.7584 0.35872 0.0
H1699 H 0.42437 0.80498 0.35744 0.0
H1700 H 0.3413 0.81751 0.31601 0.0
H1701 H 0.33406 0.7688 0.31249 0.0
C1702 C 0.37105 0.73011 0.33163 0.0
C1703 C 0.39264 0.71213 0.33958 0.0
C1704 C 0.3752 0.75834 0.33147 0.0
C1705 C 0.41828 0.72297 0.34817 0.0
C1706 C 0.4224 0.75088 0.35031 0.0
C1707 C 0.40481 0.79702 0.34639 0.0
C1708 C 0.38342 0.81503 0.33671 0.0
C1709 C 0.40099 0.76883 0.34246 0.0
C1710 C 0.35821 0.80427 0.32255 0.0
C1711 C 0.35402 0.77633 0.32111 0.0
H1712 H 0.54983 0.17054 0.63918 0.0
H1713 H 0.56204 0.09817 0.54163 0.0
H1714 H 0.51342 0.09289 0.52976 0.0
H1715 H 0.46672 0.10749 0.55397 0.0
H1716 H 0.45628 0.18227 0.64462 0.0
H1717 H 0.50442 0.18794 0.65217 0.0
C1718 C 0.54186 0.15385 0.61445 0.0
C1719 C 0.55955 0.13483 0.59115 0.0
C1720 C 0.51398 0.15126 0.60692 0.0
C1721 C 0.54888 0.1133 0.55933 0.0
C1722 C 0.52103 0.11019 0.55291 0.0
C1723 C 0.47504 0.12536 0.57383 0.0
C1724 C 0.45771 0.14421 0.59949 0.0
C1725 C 0.50324 0.12889 0.57714 0.0
C1726 C 0.46899 0.16716 0.62541 0.0
C1727 C 0.49663 0.1705 0.62974 0.0
H1728 H 0.84688 0.22218 0.82458 0.0
H1729 H 0.92893 0.20703 0.87099 0.0
H1730 H 0.93701 0.25534 0.88118 0.0
H1731 H 0.92011 0.30227 0.88013 0.0
H1732 H 0.84008 0.31772 0.81949 0.0
H1733 H 0.83181 0.26933 0.81094 0.0
C1734 C 0.86661 0.22955 0.83602 0.0
C1735 C 0.88731 0.21102 0.84699 0.0
C1736 C 0.87143 0.25753 0.8392 0.0
C1737 C 0.91278 0.22085 0.86174 0.0
C1738 C 0.91736 0.2485 0.86784 0.0
C1739 C 0.90104 0.29498 0.86403 0.0
C1740 C 0.8807 0.31357 0.85043 0.0
C1741 C 0.8968 0.26708 0.85701 0.0
C1742 C 0.85614 0.30387 0.82942 0.0
C1743 C 0.85135 0.27616 0.82504 0.0
H1744 H 0.6746 0.80665 0.31992 0.0
H1745 H 0.59552 0.8173 0.38937 0.0
H1746 H 0.589 0.76889 0.39296 0.0
H1747 H 0.60701 0.72324 0.38494 0.0
H1748 H 0.68512 0.7111 0.31255 0.0
H1749 H 0.69094 0.75988 0.30187 0.0
C1750 C 0.65567 0.79831 0.33391 0.0
C1751 C 0.6355 0.81565 0.35411 0.0
C1752 C 0.65208 0.77005 0.33649 0.0
C1753 C 0.61133 0.80444 0.37357 0.0
C1754 C 0.60762 0.7767 0.37601 0.0
C1755 C 0.62512 0.73132 0.36597 0.0
C1756 C 0.64556 0.71368 0.34934 0.0
C1757 C 0.62807 0.75928 0.35906 0.0
C1758 C 0.66896 0.72433 0.32493 0.0
C1759 C 0.67232 0.75224 0.3191 0.0
H1760 H 0.91538 0.72452 0.11963 0.0
H1761 H 0.84338 0.71421 0.21813 0.0
H1762 H 0.83994 0.763 0.23106 0.0
H1763 H 0.85645 0.80951 0.2095 0.0
H1764 H 0.9298 0.81833 0.11429 0.0
H1765 H 0.93388 0.76984 0.10614 0.0
C1766 C 0.89907 0.73296 0.14434 0.0
C1767 C 0.87964 0.71568 0.16766 0.0
C1768 C 0.89753 0.76104 0.15262 0.0
C1769 C 0.85872 0.72699 0.19994 0.0
C1770 C 0.85671 0.75497 0.20724 0.0
C1771 C 0.87368 0.80075 0.18854 0.0
C1772 C 0.89284 0.81777 0.16272 0.0
C1773 C 0.87594 0.77236 0.18351 0.0
C1774 C 0.91474 0.80588 0.13459 0.0
C1775 C 0.91706 0.77804 0.12953 0.0
H1776 H 0.6679 0.22218 0.70881 0.0
H1777 H 0.59304 0.21142 0.619 0.0
H1778 H 0.58863 0.2598 0.60702 0.0
H1779 H 0.60753 0.30538 0.61483 0.0
H1780 H 0.67989 0.31771 0.71238 0.0
H1781 H 0.68399 0.26907 0.7278 0.0
C1782 C 0.65028 0.23051 0.68819 0.0
C1783 C 0.63088 0.21299 0.66466 0.0
C1784 C 0.6477 0.2588 0.68153 0.0
C1785 C 0.60832 0.22428 0.63744 0.0
C1786 C 0.60581 0.25206 0.63028 0.0
C1787 C 0.62407 0.29743 0.6399 0.0
C1788 C 0.64349 0.3152 0.66201 0.0
C1789 C 0.6257 0.26951 0.65064 0.0
C1790 C 0.66466 0.30452 0.69487 0.0
C1791 C 0.667 0.27665 0.70371 0.0
H1792 H 0.96795 0.42925 0.92497 0.0
H1793 H 0.95826 0.34382 0.94548 0.0
H1794 H 1.00698 0.33798 0.94336 0.0
H1795 H 0.05267 0.35707 0.92724 0.0
H1796 H 0.06079 0.4424 0.90039 0.0
H1797 H 0.01294 0.44838 0.91503 0.0
C1798 C 0.9765 0.40937 0.93004 0.0
C1799 C 0.95934 0.387 0.93517 0.0
C1800 C 1.00453 0.40615 0.92781 0.0
C1801 C 0.97088 0.36143 0.94181 0.0
C1802 C 0.99882 0.35807 0.9401 0.0
C1803 C 0.04394 0.37696 0.92518 0.0
C1804 C 0.06046 0.39927 0.91276 0.0
C1805 C 0.0159 0.38023 0.93172 0.0
C1806 C 0.04869 0.42487 0.90973 0.0
C1807 C 0.02125 0.42835 0.91836 0.0
H1808 H 0.47277 0.61375 0.47059 0.0
H1809 H 0.4659 0.67732 0.34524 0.0
H1810 H 0.51394 0.68263 0.34336 0.0
H1811 H 0.55844 0.66744 0.37067 0.0
H1812 H 0.56782 0.60225 0.4907 0.0
H1813 H 0.51896 0.5995 0.50176 0.0
C1814 C 0.48183 0.62926 0.44432 0.0
C1815 C 0.46535 0.64573 0.40943 0.0
C1816 C 0.51019 0.63157 0.44148 0.0
C1817 C 0.4777 0.665 0.37398 0.0
C1818 C 0.5054 0.6678 0.37211 0.0
C1819 C 0.54986 0.65252 0.39912 0.0
C1820 C 0.56686 0.63478 0.42893 0.0
C1821 C 0.52187 0.65088 0.40461 0.0
C1822 C 0.55527 0.61614 0.46698 0.0
C1823 C 0.52726 0.6145 0.47312 0.0
H1824 H 0.46878 0.42317 0.55749 0.0
H1825 H 0.45804 0.34925 0.65152 0.0
H1826 H 0.5062 0.34272 0.65587 0.0
H1827 H 0.55184 0.35907 0.63927 0.0
H1828 H 0.56416 0.43195 0.54315 0.0
H1829 H 0.51556 0.43773 0.53324 0.0
C1830 C 0.47699 0.40524 0.57725 0.0
C1831 C 0.45953 0.38662 0.60378 0.0
C1832 C 0.50523 0.40157 0.5801 0.0
C1833 C 0.47079 0.36387 0.63054 0.0
C1834 C 0.49846 0.36016 0.63342 0.0
C1835 C 0.54392 0.37607 0.61552 0.0
C1836 C 0.56178 0.39502 0.59198 0.0
C1837 C 0.51594 0.37908 0.60943 0.0
C1838 C 0.551 0.4169 0.5613 0.0
C1839 C 0.52311 0.42027 0.55585 0.0
H1840 H 0.0508 0.61063 0.0557 0.0
H1841 H 0.05904 0.67897 0.16835 0.0
H1842 H 1.01098 0.68372 0.17352 0.0
H1843 H 0.96633 0.66686 0.15291 0.0
H1844 H 0.95583 0.59884 0.04069 0.0
H1845 H 1.00453 0.59555 0.02844 0.0
C1846 C 0.04201 0.62712 0.07942 0.0
C1847 C 0.05873 0.6449 0.11027 0.0
C1848 C 0.01378 0.62947 0.08344 0.0
C1849 C 0.04686 0.66553 0.14273 0.0
C1850 C 0.01923 0.66805 0.14654 0.0
C1851 C 0.97466 0.65137 0.1255 0.0
C1852 C 0.9575 0.63303 0.09811 0.0
C1853 C 1.0025 0.64984 0.11819 0.0
C1854 C 0.96863 0.61329 0.06217 0.0
C1855 C 0.99651 0.61138 0.05526 0.0
H1856 H 0.17224 0.56087 0.02068 0.0
H1857 H 0.10057 0.54674 0.11792 0.0
H1858 H 0.09567 0.50269 0.07395 0.0
H1859 H 0.11115 0.46772 1.00566 0.0
H1860 H 0.17794 0.48498 0.89497 0.0
H1861 H 0.18438 0.52836 0.9431 0.0
C1862 C 0.15528 0.54847 0.03162 0.0
C1863 C 0.13739 0.55729 0.07494 0.0
C1864 C 0.15137 0.5236 1.00234 0.0
C1865 C 0.11557 0.54041 0.08771 0.0
C1866 C 0.11242 0.51519 0.06141 0.0
C1867 C 0.12702 0.48103 0.99165 0.0
C1868 C 0.14411 0.47274 0.94655 0.0
C1869 C 0.13018 0.50646 0.01862 0.0
C1870 C 0.16435 0.49063 0.92907 0.0
C1871 C 0.16817 0.51548 0.95701 0.0
H1872 H 0.71032 0.90477 0.25136 0.0
H1873 H 0.74361 0.87722 0.41187 0.0
H1874 H 0.78792 0.87495 0.36904 0.0
H1875 H 0.81816 0.88174 0.28509 0.0
H1876 H 0.78474 0.90933 0.12515 0.0
H1877 H 0.74005 0.90971 0.16683 0.0
C1878 C 0.72723 0.89816 0.27706 0.0
C1879 C 0.72324 0.89115 0.33552 0.0
C1880 C 0.75291 0.89661 0.25144 0.0
C1881 C 0.7456 0.88245 0.36727 0.0
C1882 C 0.7712 0.88129 0.34253 0.0
C1883 C 0.80107 0.88787 0.25946 0.0
C1884 C 0.80496 0.89527 0.20129 0.0
C1885 C 0.77521 0.88844 0.28463 0.0
C1886 C 0.78243 0.90278 0.16889 0.0
C1887 C 0.75679 0.9034 0.19332 0.0
H1888 H 0.35706 0.46763 0.51018 0.0
H1889 H 0.41651 0.48917 0.63685 0.0
H1890 H 0.42252 0.53268 0.591 0.0
H1891 H 0.41145 0.56532 0.51397 0.0
H1892 H 0.3531 0.54389 0.38494 0.0
H1893 H 0.34676 0.50011 0.43104 0.0
C1894 C 0.37134 0.48179 0.52793 0.0
C1895 C 0.38604 0.47473 0.57822 0.0
C1896 C 0.3752 0.50706 0.50006 0.0
C1897 C 0.4046 0.49366 0.59929 0.0
C1898 C 0.40816 0.51876 0.57265 0.0
C1899 C 0.3973 0.55114 0.49576 0.0
C1900 C 0.38298 0.5582 0.44515 0.0
C1901 C 0.39362 0.52579 0.52296 0.0
C1902 C 0.36479 0.5392 0.4229 0.0
C1903 C 0.36099 0.51407 0.44973 0.0
H1904 H 0.80572 0.10393 0.75442 0.0
H1905 H 0.79065 0.16582 0.87867 0.0
H1906 H 0.74588 0.17237 0.83784 0.0
H1907 H 0.71126 0.1613 0.76365 0.0
H1908 H 0.72876 0.10122 0.63553 0.0
H1909 H 0.77267 0.09383 0.67939 0.0
C1910 C 0.79301 0.11894 0.77269 0.0
C1911 C 0.80193 0.13384 0.82093 0.0
C1912 C 0.76766 0.12327 0.74715 0.0
C1913 C 0.78431 0.15306 0.84369 0.0
C1914 C 0.75876 0.1572 0.81931 0.0
C1915 C 0.72479 0.14677 0.7449 0.0
C1916 C 0.71659 0.13207 0.6955 0.0
C1917 C 0.75025 0.14255 0.77061 0.0
C1918 C 0.73448 0.11322 0.67246 0.0
C1919 C 0.75958 0.10878 0.69802 0.0
H1920 H 0.88528 0.56689 0.98975 0.0
H1921 H 0.86703 0.53598 0.15883 0.0
H1922 H 0.86865 0.49023 0.12099 0.0
H1923 H 0.87499 0.45884 0.03904 0.0
H1924 H 0.87878 0.49157 0.86723 0.0
H1925 H 0.88284 0.5366 0.9067 0.0
C1926 C 0.88152 0.55033 0.01894 0.0
C1927 C 0.87744 0.5554 0.07846 0.0
C1928 C 0.87984 0.52417 0.99581 0.0
C1929 C 0.87184 0.53322 0.114 0.0
C1930 C 0.87225 0.50686 0.09191 0.0
C1931 C 0.87652 0.47572 0.00978 0.0
C1932 C 0.87799 0.47114 0.94942 0.0
C1933 C 0.87634 0.50207 0.03281 0.0
C1934 C 0.87921 0.49375 0.91329 0.0
C1935 C 0.88106 0.51978 0.93609 0.0
H1936 H 0.21473 0.16419 0.76063 0.0
H1937 H 0.23077 0.09872 0.87708 0.0
H1938 H 0.27445 0.0918 0.83219 0.0
H1939 H 0.30762 0.10312 0.7561 0.0
H1940 H 0.29269 0.17109 0.64594 0.0
H1941 H 0.24888 0.17707 0.68904 0.0
C1942 C 0.2278 0.14844 0.77646 0.0
C1943 C 0.21928 0.13211 0.82279 0.0
C1944 C 0.25304 0.14453 0.7502 0.0
C1945 C 0.23672 0.11188 0.84232 0.0
C1946 C 0.26172 0.10774 0.81615 0.0
C1947 C 0.29513 0.11959 0.74234 0.0
C1948 C 0.30396 0.13649 0.69716 0.0
C1949 C 0.2701 0.12382 0.76969 0.0
C1950 C 0.28673 0.15731 0.6794 0.0
C1951 C 0.26156 0.16099 0.70471 0.0
H1952 H 0.6185 0.56434 0.51903 0.0
H1953 H 0.66863 0.53876 0.37885 0.0
H1954 H 0.67257 0.49411 0.4229 0.0
H1955 H 0.66347 0.46288 0.50413 0.0
H1956 H 0.61082 0.48796 0.64039 0.0
H1957 H 0.6069 0.53225 0.59612 0.0
C1958 C 0.63013 0.54897 0.4976 0.0
C1959 C 0.6432 0.55517 0.44514 0.0
C1960 C 0.63226 0.52324 0.52327 0.0
C1961 C 0.65807 0.53473 0.41854 0.0
C1962 C 0.66053 0.50918 0.44418 0.0
C1963 C 0.6509 0.47781 0.52402 0.0
C1964 C 0.63756 0.47166 0.5762 0.0
C1965 C 0.64796 0.50325 0.49695 0.0
C1966 C 0.62147 0.49176 0.60075 0.0
C1967 C 0.61913 0.51723 0.57518 0.0
H1968 H 0.31155 0.91727 0.25527 0.0
H1969 H 0.28974 0.86019 0.38628 0.0
H1970 H 0.24584 0.8545 0.34152 0.0
H1971 H 0.21281 0.86617 0.26548 0.0
H1972 H 0.2353 0.92106 0.13044 0.0
H1973 H 0.27938 0.92665 0.17517 0.0
C1974 C 0.29728 0.9035 0.27407 0.0
C1975 C 0.30425 0.88952 0.32538 0.0
C1976 C 0.27204 0.89966 0.24658 0.0
C1977 C 0.28526 0.87154 0.34791 0.0
C1978 C 0.25999 0.86818 0.32188 0.0
C1979 C 0.22745 0.87915 0.24524 0.0
C1980 C 0.22042 0.89305 0.19392 0.0
C1981 C 0.25306 0.88217 0.27126 0.0
C1982 C 0.23993 0.90975 0.16905 0.0
C1983 C 0.26524 0.91312 0.1951 0.0
H1984 H 0.61547 0.96687 0.51069 0.0
H1985 H 0.68328 0.98303 0.40211 0.0
H1986 H 0.68848 0.02743 0.44652 0.0
H1987 H 0.67481 0.06109 0.51961 0.0
H1988 H 0.60284 0.04742 0.61645 0.0
H1989 H 0.59884 1.00256 0.57558 0.0
C1990 C 0.63126 0.9802 0.49632 0.0
C1991 C 0.64902 0.97146 0.45301 0.0
C1992 C 0.63375 1.00603 0.52122 0.0
C1993 C 0.6692 0.98919 0.43485 0.0
C1994 C 0.6723 0.01456 0.46064 0.0
C1995 C 0.65804 0.04852 0.53131 0.0
C1996 C 0.63969 0.05766 0.57324 0.0
C1997 C 0.65484 0.02316 0.5043 0.0
C1998 C 0.61807 0.04077 0.58707 0.0
C1999 C 0.61549 0.01512 0.56264 0.0
H2000 H 0.21685 0.36068 0.78131 0.0
H2001 H 0.2278 0.43448 0.87525 0.0
H2002 H 0.27041 0.44212 0.827 0.0
H2003 H 0.30313 0.42981 0.7536 0.0
H2004 H 0.29497 0.35533 0.6614 0.0
H2005 H 0.25228 0.34682 0.71012 0.0
C2006 C 0.22898 0.37801 0.79229 0.0
C2007 C 0.21933 0.39664 0.83347 0.0
C2008 C 0.25361 0.38265 0.76299 0.0
C2009 C 0.2349 0.41952 0.84513 0.0
C2010 C 0.2592 0.42407 0.81691 0.0
C2011 C 0.29271 0.41124 0.74533 0.0
C2012 C 0.30304 0.39312 0.70421 0.0
C2013 C 0.26863 0.40602 0.77524 0.0
C2014 C 0.28778 0.36994 0.69212 0.0
C2015 C 0.26337 0.36487 0.72072 0.0
H2016 H 0.87019 0.96418 0.9891 0.0
H2017 H 0.88854 0.99809 0.15539 0.0
H2018 H 0.89241 0.04247 0.11214 0.0
H2019 H 0.89151 0.07202 0.02546 0.0
H2020 H 0.86272 0.03917 0.86529 0.0
H2021 H 0.86211 0.9943 0.90723 0.0
C2022 C 0.8748 0.98116 0.01659 0.0
C2023 C 0.87973 0.97704 0.07618 0.0
C2024 C 0.87541 1.00706 0.99177 0.0
C2025 C 0.88529 0.99986 0.10987 0.0
C2026 C 0.88736 0.02555 0.08486 0.0
C2027 C 0.88502 0.05509 0.99961 0.0
C2028 C 0.87876 0.05898 0.94056 0.0
C2029 C 0.88269 0.02941 0.02563 0.0
C2030 C 0.86937 0.03677 0.90916 0.0
C2031 C 0.86855 1.01105 0.93367 0.0
H2032 H 0.23986 0.63123 0.15127 0.0
H2033 H 0.19407 0.6408 0.30712 0.0
H2034 H 0.23444 0.63912 0.36429 0.0
H2035 H 0.28381 0.63549 0.3723 0.0
H2036 H 0.32941 0.63408 0.2149 0.0
H2037 H 0.28902 0.63259 0.15845 0.0
C2038 C 0.23853 0.63364 0.19735 0.0
C2039 C 0.21329 0.63641 0.22334 0.0
C2040 C 0.26233 0.63397 0.23114 0.0
C2041 C 0.21279 0.63881 0.28429 0.0
C2042 C 0.23611 0.63777 0.31788 0.0
C2043 C 0.28503 0.63483 0.32585 0.0
C2044 C 0.31032 0.63424 0.29921 0.0
C2045 C 0.26117 0.6354 0.29203 0.0
C2046 C 0.31075 0.63404 0.23813 0.0
C2047 C 0.28738 0.63325 0.20495 0.0
H2048 H 0.39908 0.96088 0.52774 0.0
H2049 H 0.36019 0.98995 0.37359 0.0
H2050 H 0.35882 0.03502 0.41408 0.0
H2051 H 0.36808 0.06649 0.49284 0.0
H2052 H 0.40136 0.03719 0.6523 0.0
H2053 H 0.40502 0.99225 0.61075 0.0
C2054 C 0.39041 0.97704 0.5026 0.0
C2055 C 0.3808 0.9717 0.44591 0.0
C2056 C 0.38829 1.00304 0.52769 0.0
C2057 C 0.36898 0.99315 0.41564 0.0
C2058 C 0.36778 0.01907 0.43936 0.0
C2059 C 0.37595 0.0504 0.51937 0.0
C2060 C 0.38429 0.05587 0.57688 0.0
C2061 C 0.37737 0.0243 0.49529 0.0
C2062 C 0.39447 0.03417 0.60893 0.0
C2063 C 0.3967 1.00826 0.58467 0.0
H2064 H 0.80986 0.6606 0.25941 0.0
H2065 H 0.78727 0.6049 0.12563 0.0
H2066 H 0.74396 0.59787 0.17268 0.0
H2067 H 0.71298 0.60651 0.2546 0.0
H2068 H 0.73459 0.6656 0.38145 0.0
H2069 H 0.77791 0.67151 0.33617 0.0
C2070 C 0.79549 0.64693 0.24014 0.0
C2071 C 0.80213 0.63316 0.18879 0.0
C2072 C 0.77048 0.64321 0.26717 0.0
C2073 C 0.78291 0.6158 0.16478 0.0
C2074 C 0.7581 0.6117 0.19197 0.0
C2075 C 0.72696 0.62084 0.27196 0.0
C2076 C 0.72019 0.63513 0.32254 0.0
C2077 C 0.7517 0.62512 0.24354 0.0
C2078 C 0.73901 0.65368 0.34401 0.0
C2079 C 0.7639 0.65732 0.31749 0.0
H2080 H 0.10932 0.05684 0.99874 0.0
H2081 H 0.18196 0.04692 0.90211 0.0
H2082 H 0.19034 1.00396 0.95105 0.0
H2083 H 0.17803 0.9701 0.02627 0.0
H2084 H 0.10073 0.97604 0.1062 0.0
H2085 H 0.094 0.02001 0.06258 0.0
C2086 C 0.1268 0.04508 0.98768 0.0
C2087 C 0.14499 0.05529 0.94659 0.0
C2088 C 0.13103 0.01987 0.01466 0.0
C2089 C 0.16746 0.03959 0.93289 0.0
C2090 C 0.17238 0.01507 0.96141 0.0
C2091 C 0.15929 0.9805 0.03258 0.0
C2092 C 0.14006 0.96936 0.07042 0.0
C2093 C 0.15442 1.00504 1.00285 0.0
C2094 C 0.1164 0.98406 0.07938 0.0
C2095 C 0.11227 1.00919 0.05334 0.0
H2096 H 0.71 0.40681 0.77718 0.0
H2097 H 0.73866 0.37006 0.62126 0.0
H2098 H 0.78386 0.36886 0.66092 0.0
H2099 H 0.81583 0.37789 0.74171 0.0
H2100 H 0.78636 0.41446 0.89641 0.0
H2101 H 0.7411 0.41528 0.85677 0.0
C2102 C 0.72597 0.39846 0.75138 0.0
C2103 C 0.7205 0.38916 0.69487 0.0
C2104 C 0.75198 0.39735 0.77521 0.0
C2105 C 0.74191 0.37829 0.66346 0.0
C2106 C 0.76793 0.37727 0.68671 0.0
C2107 C 0.79941 0.38597 0.76664 0.0
C2108 C 0.80436 0.3955 0.82301 0.0
C2109 C 0.77328 0.3868 0.7426 0.0
C2110 C 0.78294 0.40603 0.85438 0.0
C2111 C 0.75708 0.40686 0.83111 0.0
loop_
_geom_bond_atom_site_label_1
_geom_bond_atom_site_label_2
_geom_bond_distance
_geom_bond_site_symmetry_2
_ccdc_geom_bond_type
C0 C2 1.422 . S
C0 C4 1.415 . S
C0 N6 1.369 . S
C1 C2 1.421 . S
C1 C3 1.417 . S
C1 C13 1.422 . S
C2 C0 1.422 . S
C2 C1 1.421 . S
C2 N12 1.359 . S
C3 C1 1.417 . S
C3 C5 1.329 . S
C3 H22 0.930 . S
C4 C0 1.415 . S
C4 C5 1.437 . S
C4 C8 1.413 . S
C5 C3 1.329 . S
C5 C4 1.437 . S
C5 H27 0.929 . S
N6 C0 1.369 . S
N6 C7 1.338 . S
N6 Gd11 2.622 . S
C7 N6 1.338 . S
C7 C9 1.378 . S
C7 H19 0.929 . S
C8 C4 1.413 . S
C8 C9 1.348 . S
C8 H24 0.931 . S
C9 C7 1.378 . S
C9 C8 1.348 . S
C9 H25 0.930 . S
Gd10 N30 2.622 . S
Gd10 N37 2.570 . S
Gd10 O44 2.353 . S
Gd10 O45 2.468 1_554 S
Gd10 O46 2.427 1_554 S
Gd10 O48 2.388 . S
Gd10 O49 2.386 . S
Gd10 O53 2.307 . S
Gd10 C63 2.805 1_554 S
Gd11 N6 2.622 . S
Gd11 N12 2.570 . S
Gd11 O43 2.386 . S
Gd11 O47 2.307 . S
Gd11 O50 2.353 . S
Gd11 O51 2.468 . S
Gd11 O52 2.427 . S
Gd11 O54 2.388 . S
Gd11 C75 2.805 . S
N12 C2 1.359 . S
N12 Gd11 2.570 . S
N12 C14 1.343 . S
C13 C1 1.422 . S
C13 C15 1.321 . S
C13 H21 0.931 . S
C14 N12 1.343 . S
C14 C15 1.390 . S
C14 H16 0.931 . S
C15 C13 1.321 . S
C15 C14 1.390 . S
C15 H17 0.930 . S
H16 C14 0.931 . S
H17 C15 0.930 . S
H18 C41 0.931 . S
H19 C7 0.929 . S
H20 C42 0.930 . S
H21 C13 0.931 . S
H22 C3 0.930 . S
H23 C32 0.929 . S
H24 C8 0.931 . S
H25 C9 0.930 . S
H26 C64 0.930 . S
H27 C5 0.929 . S
H28 C33 0.931 . S
H29 C34 0.930 . S
N30 Gd10 2.622 . S
N30 C31 1.369 . S
N30 C32 1.338 . S
C31 N30 1.369 . S
C31 C35 1.415 . S
C31 C38 1.422 1_554 S
C32 H23 0.929 . S
C32 N30 1.338 . S
C32 C34 1.378 . S
C33 H28 0.931 . S
C33 C34 1.348 . S
C33 C35 1.413 . S
C34 H29 0.930 . S
C34 C32 1.378 . S
C34 C33 1.348 . S
C35 C31 1.415 . S
C35 C33 1.413 . S
C35 C65 1.437 1_554 S
H36 C65 0.929 . S
N37 Gd10 2.570 . S
N37 C38 1.359 1_554 S
N37 C41 1.343 1_554 S
C38 C31 1.422 1_556 S
C38 N37 1.359 1_556 S
C38 C40 1.421 . S
C39 C40 1.422 . S
C39 C42 1.321 . S
C39 H66 0.931 . S
C40 C38 1.421 . S
C40 C39 1.422 . S
C40 C64 1.417 . S
C41 H18 0.931 . S
C41 N37 1.343 1_556 S
C41 C42 1.390 . S
C42 H20 0.930 . S
C42 C39 1.321 . S
C42 C41 1.390 . S
O43 Gd11 2.386 . S
O43 C55 1.265 . S
O44 Gd10 2.353 . S
O44 C55 1.242 . S
O45 Gd10 2.468 1_556 S
O45 C63 1.263 . S
O46 Gd10 2.427 1_556 S
O46 C63 1.252 . S
O47 Gd11 2.307 . S
O47 C56 1.261 . S
O48 Gd10 2.388 . S
O48 C56 1.252 . S
O49 Gd10 2.386 . S
O49 C67 1.265 . S
O50 Gd11 2.353 . S
O50 C67 1.242 . S
O51 Gd11 2.468 . S
O51 C75 1.263 . S
O52 Gd11 2.427 . S
O52 C75 1.252 . S
O53 Gd10 2.307 . S
O53 C68 1.261 . S
O54 Gd11 2.388 . S
O54 C68 1.252 . S
C55 O43 1.265 . S
C55 O44 1.242 . S
C56 O47 1.261 . S
C56 O48 1.252 . S
C57 C60 1.394 . S
C57 C62 1.370 . S
C57 C63 1.500 . S
C58 C61 1.383 . S
C58 C62 1.395 . S
C59 C60 1.396 . S
C59 C61 1.365 . S
C59 H76 0.929 . S
C60 C57 1.394 . S
C60 C59 1.396 . S
C60 H77 0.930 . S
C61 C58 1.383 . S
C61 C59 1.365 . S
C61 H78 0.931 . S
C62 C57 1.370 . S
C62 C58 1.395 . S
C62 H79 0.930 . S
C63 Gd10 2.805 1_556 S
C63 O45 1.263 . S
C63 O46 1.252 . S
C63 C57 1.500 . S
C64 H26 0.930 . S
C64 C40 1.417 . S
C64 C65 1.329 . S
C65 C35 1.437 1_556 S
C65 H36 0.929 . S
C65 C64 1.329 . S
H66 C39 0.931 . S
C67 O49 1.265 . S
C67 O50 1.242 . S
C68 O53 1.261 . S
C68 O54 1.252 . S
C69 C72 1.394 . S
C69 C74 1.370 . S
C69 C75 1.500 . S
C70 C73 1.383 . S
C70 C74 1.395 . S
C71 C72 1.396 . S
C71 C73 1.365 . S
C71 H80 0.929 . S
C72 C69 1.394 . S
C72 C71 1.396 . S
C72 H81 0.930 . S
C73 C70 1.383 . S
C73 C71 1.365 . S
C73 H82 0.931 . S
C74 C69 1.370 . S
C74 C70 1.395 . S
C74 H83 0.930 . S
C75 Gd11 2.805 . S
C75 O51 1.263 . S
C75 O52 1.252 . S
C75 C69 1.500 . S
H76 C59 0.929 . S
H77 C60 0.930 . S
H78 C61 0.931 . S
H79 C62 0.930 . S
H80 C71 0.929 . S
H81 C72 0.930 . S
H82 C73 0.931 . S
H83 C74 0.930 . S
C84 C86 1.422 . S
C84 C88 1.415 . S
C84 N90 1.369 . S
C85 C86 1.421 . S
C85 C87 1.417 . S
C85 C97 1.422 . S
C86 C84 1.422 . S
C86 C85 1.421 . S
C86 N96 1.359 . S
C87 C85 1.417 . S
C87 C89 1.329 . S
C87 H106 0.930 . S
C88 C84 1.415 . S
C88 C89 1.437 . S
C88 C92 1.413 . S
C89 C87 1.329 . S
C89 C88 1.437 . S
C89 H111 0.929 . S
N90 C84 1.369 . S
N90 C91 1.338 . S
N90 Gd95 2.622 . S
C91 N90 1.338 . S
C91 C93 1.378 . S
C91 H103 0.929 . S
C92 C88 1.413 . S
C92 C93 1.348 . S
C92 H108 0.931 . S
C93 C91 1.378 . S
C93 C92 1.348 . S
C93 H109 0.930 . S
Gd94 N114 2.622 . S
Gd94 N121 2.570 . S
Gd94 O128 2.353 . S
Gd94 O129 2.468 . S
Gd94 O130 2.427 . S
Gd94 O132 2.388 . S
Gd94 O133 2.386 . S
Gd94 O137 2.307 . S
Gd94 C147 2.805 . S
Gd95 N90 2.622 . S
Gd95 N96 2.570 . S
Gd95 O127 2.386 . S
Gd95 O131 2.307 . S
Gd95 O134 2.353 . S
Gd95 O135 2.468 . S
Gd95 O136 2.427 . S
Gd95 O138 2.388 . S
Gd95 C159 2.805 . S
N96 C86 1.359 . S
N96 Gd95 2.570 . S
N96 C98 1.343 . S
C97 C85 1.422 . S
C97 C99 1.321 . S
C97 H105 0.931 . S
C98 N96 1.343 . S
C98 C99 1.390 . S
C98 H100 0.931 . S
C99 C97 1.321 . S
C99 C98 1.390 . S
C99 H101 0.930 . S
H100 C98 0.931 . S
H101 C99 0.930 . S
H102 C125 0.931 . S
H103 C91 0.929 . S
H104 C126 0.930 . S
H105 C97 0.931 . S
H106 C87 0.930 . S
H107 C116 0.929 . S
H108 C92 0.931 . S
H109 C93 0.930 . S
H110 C148 0.930 . S
H111 C89 0.929 . S
H112 C117 0.931 . S
H113 C118 0.930 . S
N114 Gd94 2.622 . S
N114 C115 1.369 . S
N114 C116 1.338 . S
C115 N114 1.369 . S
C115 C119 1.415 . S
C115 C122 1.422 . S
C116 H107 0.929 . S
C116 N114 1.338 . S
C116 C118 1.378 . S
C117 H112 0.931 . S
C117 C118 1.348 . S
C117 C119 1.413 . S
C118 H113 0.930 . S
C118 C116 1.378 . S
C118 C117 1.348 . S
C119 C115 1.415 . S
C119 C117 1.413 . S
C119 C149 1.437 . S
H120 C149 0.929 . S
N121 Gd94 2.570 . S
N121 C122 1.359 . S
N121 C125 1.343 . S
C122 C115 1.422 . S
C122 N121 1.359 . S
C122 C124 1.421 . S
C123 C124 1.422 . S
C123 C126 1.321 . S
C123 H150 0.931 . S
C124 C122 1.421 . S
C124 C123 1.422 . S
C124 C148 1.417 . S
C125 H102 0.931 . S
C125 N121 1.343 . S
C125 C126 1.390 . S
C126 H104 0.930 . S
C126 C123 1.321 . S
C126 C125 1.390 . S
O127 Gd95 2.386 . S
O127 C139 1.265 . S
O128 Gd94 2.353 . S
O128 C139 1.242 . S
O129 Gd94 2.468 . S
O129 C147 1.263 . S
O130 Gd94 2.427 . S
O130 C147 1.252 . S
O131 Gd95 2.307 . S
O131 C140 1.261 . S
O132 Gd94 2.388 . S
O132 C140 1.252 . S
O133 Gd94 2.386 . S
O133 C151 1.265 . S
O134 Gd95 2.353 . S
O134 C151 1.242 . S
O135 Gd95 2.468 . S
O135 C159 1.263 . S
O136 Gd95 2.427 . S
O136 C159 1.252 . S
O137 Gd94 2.307 . S
O137 C152 1.261 . S
O138 Gd95 2.388 . S
O138 C152 1.252 . S
C139 O127 1.265 . S
C139 O128 1.242 . S
C140 O131 1.261 . S
C140 O132 1.252 . S
C141 C144 1.394 . S
C141 C146 1.370 . S
C141 C147 1.500 . S
C142 C145 1.383 . S
C142 C146 1.395 . S
C143 C144 1.396 . S
C143 C145 1.365 . S
C143 H160 0.929 . S
C144 C141 1.394 . S
C144 C143 1.396 . S
C144 H161 0.930 . S
C145 C142 1.383 . S
C145 C143 1.365 . S
C145 H162 0.931 1_554 S
C146 C141 1.370 . S
C146 C142 1.395 . S
C146 H163 0.930 . S
C147 Gd94 2.805 . S
C147 O129 1.263 . S
C147 O130 1.252 . S
C147 C141 1.500 . S
C148 H110 0.930 . S
C148 C124 1.417 . S
C148 C149 1.329 . S
C149 C119 1.437 . S
C149 H120 0.929 . S
C149 C148 1.329 . S
H150 C123 0.931 . S
C151 O133 1.265 . S
C151 O134 1.242 . S
C152 O137 1.261 . S
C152 O138 1.252 . S
C153 C156 1.394 . S
C153 C158 1.370 . S
C153 C159 1.500 . S
C154 C157 1.383 . S
C154 C158 1.395 . S
C155 C156 1.396 . S
C155 C157 1.365 . S
C155 H164 0.929 . S
C156 C153 1.394 . S
C156 C155 1.396 . S
C156 H165 0.930 . S
C157 C154 1.383 . S
C157 C155 1.365 . S
C157 H166 0.931 . S
C158 C153 1.370 . S
C158 C154 1.395 . S
C158 H167 0.930 . S
C159 Gd95 2.805 . S
C159 O135 1.263 . S
C159 O136 1.252 . S
C159 C153 1.500 . S
H160 C143 0.929 . S
H161 C144 0.930 . S
H162 C145 0.931 1_556 S
H163 C146 0.930 . S
H164 C155 0.929 . S
H165 C156 0.930 . S
H166 C157 0.931 . S
H167 C158 0.930 . S
C168 C170 1.422 . S
C168 C172 1.415 . S
C168 N174 1.369 . S
C169 C170 1.421 . S
C169 C171 1.417 . S
C169 C181 1.422 . S
C170 C168 1.422 . S
C170 C169 1.421 . S
C170 N180 1.359 . S
C171 C169 1.417 . S
C171 C173 1.329 . S
C171 H190 0.930 . S
C172 C168 1.415 . S
C172 C173 1.437 . S
C172 C176 1.413 . S
C173 C171 1.329 . S
C173 C172 1.437 . S
C173 H195 0.929 . S
N174 C168 1.369 . S
N174 C175 1.338 . S
N174 Gd179 2.622 . S
C175 N174 1.338 . S
C175 C177 1.378 . S
C175 H187 0.929 . S
C176 C172 1.413 . S
C176 C177 1.348 . S
C176 H192 0.931 . S
C177 C175 1.378 . S
C177 C176 1.348 . S
C177 H193 0.930 . S
Gd178 N198 2.622 . S
Gd178 N205 2.570 . S
Gd178 O212 2.353 . S
Gd178 O213 2.468 . S
Gd178 O214 2.427 . S
Gd178 O216 2.388 . S
Gd178 O217 2.386 . S
Gd178 O221 2.307 . S
Gd178 C231 2.805 . S
Gd179 N174 2.622 . S
Gd179 N180 2.570 . S
Gd179 O211 2.386 . S
Gd179 O215 2.307 . S
Gd179 O218 2.353 . S
Gd179 O219 2.468 . S
Gd179 O220 2.427 . S
Gd179 O222 2.388 . S
Gd179 C243 2.805 . S
N180 C170 1.359 . S
N180 Gd179 2.570 . S
N180 C182 1.343 . S
C181 C169 1.422 . S
C181 C183 1.321 . S
C181 H189 0.931 . S
C182 N180 1.343 . S
C182 C183 1.390 . S
C182 H184 0.931 . S
C183 C181 1.321 . S
C183 C182 1.390 . S
C183 H185 0.930 . S
H184 C182 0.931 . S
H185 C183 0.930 . S
H186 C209 0.931 . S
H187 C175 0.929 . S
H188 C210 0.930 . S
H189 C181 0.931 . S
H190 C171 0.930 . S
H191 C200 0.929 . S
H192 C176 0.931 . S
H193 C177 0.930 . S
H194 C232 0.930 . S
H195 C173 0.929 . S
H196 C201 0.931 . S
H197 C202 0.930 . S
N198 Gd178 2.622 . S
N198 C199 1.369 . S
N198 C200 1.338 . S
C199 N198 1.369 . S
C199 C203 1.415 . S
C199 C206 1.422 . S
C200 H191 0.929 . S
C200 N198 1.338 . S
C200 C202 1.378 . S
C201 H196 0.931 . S
C201 C202 1.348 . S
C201 C203 1.413 . S
C202 H197 0.930 . S
C202 C200 1.378 . S
C202 C201 1.348 . S
C203 C199 1.415 . S
C203 C201 1.413 . S
C203 C233 1.437 . S
H204 C233 0.929 . S
N205 Gd178 2.570 . S
N205 C206 1.359 . S
N205 C209 1.343 . S
C206 C199 1.422 . S
C206 N205 1.359 . S
C206 C208 1.421 . S
C207 C208 1.422 . S
C207 C210 1.321 . S
C207 H234 0.931 . S
C208 C206 1.421 . S
C208 C207 1.422 . S
C208 C232 1.417 . S
C209 H186 0.931 . S
C209 N205 1.343 . S
C209 C210 1.390 . S
C210 H188 0.930 . S
C210 C207 1.321 . S
C210 C209 1.390 . S
O211 Gd179 2.386 . S
O211 C223 1.265 . S
O212 Gd178 2.353 . S
O212 C223 1.242 . S
O213 Gd178 2.468 . S
O213 C231 1.263 . S
O214 Gd178 2.427 . S
O214 C231 1.252 . S
O215 Gd179 2.307 . S
O215 C224 1.261 . S
O216 Gd178 2.388 . S
O216 C224 1.252 . S
O217 Gd178 2.386 . S
O217 C235 1.265 . S
O218 Gd179 2.353 . S
O218 C235 1.242 . S
O219 Gd179 2.468 . S
O219 C243 1.263 . S
O220 Gd179 2.427 . S
O220 C243 1.252 . S
O221 Gd178 2.307 . S
O221 C236 1.261 . S
O222 Gd179 2.388 . S
O222 C236 1.252 . S
C223 O211 1.265 . S
C223 O212 1.242 . S
C224 O215 1.261 . S
C224 O216 1.252 . S
C225 C228 1.394 . S
C225 C230 1.370 . S
C225 C231 1.500 . S
C226 C229 1.383 . S
C226 C230 1.395 . S
C227 C228 1.396 . S
C227 C229 1.365 . S
C227 H244 0.929 . S
C228 C225 1.394 . S
C228 C227 1.396 . S
C228 H245 0.930 . S
C229 C226 1.383 . S
C229 C227 1.365 . S
C229 H246 0.931 . S
C230 C225 1.370 . S
C230 C226 1.395 . S
C230 H247 0.930 . S
C231 Gd178 2.805 . S
C231 O213 1.263 . S
C231 O214 1.252 . S
C231 C225 1.500 . S
C232 H194 0.930 . S
C232 C208 1.417 . S
C232 C233 1.329 . S
C233 C203 1.437 . S
C233 H204 0.929 . S
C233 C232 1.329 . S
H234 C207 0.931 . S
C235 O217 1.265 . S
C235 O218 1.242 . S
C236 O221 1.261 . S
C236 O222 1.252 . S
C237 C240 1.394 . S
C237 C242 1.370 . S
C237 C243 1.500 . S
C238 C241 1.383 . S
C238 C242 1.395 . S
C239 C240 1.396 . S
C239 C241 1.365 . S
C239 H248 0.929 . S
C240 C237 1.394 . S
C240 C239 1.396 . S
C240 H249 0.930 . S
C241 C238 1.383 . S
C241 C239 1.365 . S
C241 H250 0.931 1_556 S
C242 C237 1.370 . S
C242 C238 1.395 . S
C242 H251 0.930 . S
C243 Gd179 2.805 . S
C243 O219 1.263 . S
C243 O220 1.252 . S
C243 C237 1.500 . S
H244 C227 0.929 . S
H245 C228 0.930 . S
H246 C229 0.931 . S
H247 C230 0.930 . S
H248 C239 0.929 . S
H249 C240 0.930 . S
H250 C241 0.931 1_554 S
H251 C242 0.930 . S
C252 C254 1.422 . S
C252 C256 1.415 . S
C252 N258 1.369 . S
C253 C254 1.421 . S
C253 C255 1.417 1_545 S
C253 C265 1.422 . S
C254 C252 1.422 . S
C254 C253 1.421 . S
C254 N264 1.359 . S
C255 C253 1.417 1_565 S
C255 C257 1.322 1_565 S
C255 H274 0.930 . S
C256 C252 1.415 . S
C256 C257 1.472 . S
C256 C260 1.413 . S
C257 C255 1.322 1_545 S
C257 C256 1.472 . S
C257 H279 0.902 1_545 S
N258 C252 1.369 . S
N258 C259 1.338 . S
N258 Gd263 2.622 . S
C259 N258 1.338 . S
C259 C261 1.378 . S
C259 H271 0.929 . S
C260 C256 1.413 . S
C260 C261 1.348 . S
C260 H276 0.931 . S
C261 C259 1.378 . S
C261 C260 1.348 . S
C261 H277 0.930 . S
Gd262 N282 2.622 . S
Gd262 N289 2.571 . S
Gd262 O296 2.353 . S
Gd262 O297 2.468 1_556 S
Gd262 O298 2.427 1_556 S
Gd262 O300 2.388 . S
Gd262 O301 2.386 . S
Gd262 O305 2.307 . S
Gd262 C315 2.805 1_556 S
Gd263 N258 2.622 . S
Gd263 N264 2.570 . S
Gd263 O295 2.386 . S
Gd263 O299 2.307 . S
Gd263 O302 2.353 . S
Gd263 O303 2.468 . S
Gd263 O304 2.427 . S
Gd263 O306 2.388 . S
Gd263 C327 2.805 . S
N264 C254 1.359 . S
N264 Gd263 2.570 . S
N264 C266 1.343 . S
C265 C253 1.422 . S
C265 C267 1.321 . S
C265 H273 0.931 1_545 S
C266 N264 1.343 . S
C266 C267 1.390 . S
C266 H268 0.931 . S
C267 C265 1.321 . S
C267 C266 1.390 . S
C267 H269 0.930 . S
H268 C266 0.931 . S
H269 C267 0.930 . S
H270 C293 0.931 . S
H271 C259 0.929 . S
H272 C294 0.930 . S
H273 C265 0.931 1_565 S
H274 C255 0.930 . S
H275 C284 0.929 . S
H276 C260 0.931 . S
H277 C261 0.930 . S
H278 C316 0.930 . S
H279 C257 0.902 1_565 S
H280 C285 0.931 . S
H281 C286 0.930 . S
N282 Gd262 2.622 . S
N282 C283 1.369 . S
N282 C284 1.338 . S
C283 N282 1.369 . S
C283 C287 1.415 1_556 S
C283 C290 1.422 1_556 S
C284 H275 0.929 . S
C284 N282 1.338 . S
C284 C286 1.378 . S
C285 H280 0.931 . S
C285 C286 1.348 . S
C285 C287 1.412 1_556 S
C286 H281 0.930 . S
C286 C284 1.378 . S
C286 C285 1.348 . S
C287 C283 1.415 1_554 S
C287 C285 1.412 1_554 S
C287 C317 1.439 . S
H288 C317 0.929 . S
N289 Gd262 2.571 . S
N289 C290 1.358 1_556 S
N289 C293 1.343 1_556 S
C290 C283 1.422 1_554 S
C290 N289 1.358 1_554 S
C290 C292 1.421 . S
C291 C292 1.422 . S
C291 C294 1.321 . S
C291 H318 0.931 . S
C292 C290 1.421 . S
C292 C291 1.422 . S
C292 C316 1.417 . S
C293 H270 0.931 . S
C293 N289 1.343 1_554 S
C293 C294 1.390 . S
C294 H272 0.930 . S
C294 C291 1.321 . S
C294 C293 1.390 . S
O295 Gd263 2.386 . S
O295 C307 1.265 . S
O296 Gd262 2.353 . S
O296 C307 1.242 . S
O297 Gd262 2.468 1_554 S
O297 C315 1.263 . S
O298 Gd262 2.427 1_554 S
O298 C315 1.252 . S
O299 Gd263 2.307 . S
O299 C308 1.261 . S
O300 Gd262 2.388 . S
O300 C308 1.252 . S
O301 Gd262 2.386 . S
O301 C319 1.265 . S
O302 Gd263 2.353 . S
O302 C319 1.242 . S
O303 Gd263 2.468 . S
O303 C327 1.263 . S
O304 Gd263 2.427 . S
O304 C327 1.252 . S
O305 Gd262 2.307 . S
O305 C320 1.261 . S
O306 Gd263 2.388 . S
O306 C320 1.252 . S
C307 O295 1.265 . S
C307 O296 1.242 . S
C308 O299 1.261 . S
C308 O300 1.252 . S
C309 C312 1.394 . S
C309 C314 1.370 . S
C309 C315 1.500 . S
C310 C313 1.383 . S
C310 C314 1.395 . S
C311 C312 1.396 . S
C311 C313 1.365 . S
C311 H328 0.929 . S
C312 C309 1.394 . S
C312 C311 1.396 . S
C312 H329 0.930 . S
C313 C310 1.383 . S
C313 C311 1.365 . S
C313 H330 0.931 . S
C314 C309 1.370 . S
C314 C310 1.395 . S
C314 H331 0.930 . S
C315 Gd262 2.805 1_554 S
C315 O297 1.263 . S
C315 O298 1.252 . S
C315 C309 1.500 . S
C316 H278 0.930 . S
C316 C292 1.417 . S
C316 C317 1.329 . S
C317 C287 1.439 . S
C317 H288 0.929 . S
C317 C316 1.329 . S
H318 C291 0.931 . S
C319 O301 1.265 . S
C319 O302 1.242 . S
C320 O305 1.261 . S
C320 O306 1.252 . S
C321 C324 1.394 . S
C321 C326 1.370 . S
C321 C327 1.500 . S
C322 C325 1.383 . S
C322 C326 1.395 . S
C323 C324 1.396 . S
C323 C325 1.365 . S
C323 H332 0.929 . S
C324 C321 1.394 . S
C324 C323 1.396 . S
C324 H333 0.930 . S
C325 C322 1.383 . S
C325 C323 1.365 . S
C325 H334 0.931 . S
C326 C321 1.370 . S
C326 C322 1.395 . S
C326 H335 0.930 . S
C327 Gd263 2.805 . S
C327 O303 1.263 . S
C327 O304 1.252 . S
C327 C321 1.500 . S
H328 C311 0.929 . S
H329 C312 0.930 . S
H330 C313 0.931 . S
H331 C314 0.930 . S
H332 C323 0.929 . S
H333 C324 0.930 . S
H334 C325 0.931 . S
H335 C326 0.930 . S
C336 C338 1.422 1_556 S
C336 C340 1.417 . S
C336 N342 1.369 . S
C337 C338 1.421 . S
C337 C339 1.417 . S
C337 C349 1.422 . S
C338 C336 1.422 1_554 S
C338 C337 1.421 . S
C338 N348 1.359 1_554 S
C339 C337 1.417 . S
C339 C341 1.329 . S
C339 H358 0.930 . S
C340 C336 1.417 . S
C340 C341 1.433 1_556 S
C340 C344 1.417 . S
C341 C339 1.329 . S
C341 C340 1.433 1_554 S
C341 H363 0.929 . S
N342 C336 1.369 . S
N342 C343 1.338 . S
N342 Gd347 2.622 . S
C343 N342 1.338 . S
C343 C345 1.378 . S
C343 H355 0.929 . S
C344 C340 1.417 . S
C344 C345 1.348 . S
C344 H360 0.931 . S
C345 C343 1.378 . S
C345 C344 1.348 . S
C345 H361 0.930 . S
Gd346 N366 2.622 . S
Gd346 N373 2.570 . S
Gd346 O380 2.353 . S
Gd346 O381 2.468 . S
Gd346 O382 2.427 . S
Gd346 O384 2.388 . S
Gd346 O385 2.386 . S
Gd346 O389 2.307 . S
Gd346 C399 2.805 . S
Gd347 N342 2.622 . S
Gd347 N348 2.570 . S
Gd347 O379 2.386 . S
Gd347 O383 2.307 . S
Gd347 O386 2.353 . S
Gd347 O387 2.468 1_556 S
Gd347 O388 2.427 1_556 S
Gd347 O390 2.388 . S
Gd347 C411 2.805 1_556 S
N348 C338 1.359 1_556 S
N348 Gd347 2.570 . S
N348 C350 1.343 1_556 S
C349 C337 1.422 . S
C349 C351 1.321 . S
C349 H357 0.931 . S
C350 N348 1.343 1_554 S
C350 C351 1.390 . S
C350 H352 0.931 . S
C351 C349 1.321 . S
C351 C350 1.390 . S
C351 H353 0.930 . S
H352 C350 0.931 . S
H353 C351 0.930 . S
H354 C377 0.931 . S
H355 C343 0.929 . S
H356 C378 0.930 . S
H357 C349 0.931 . S
H358 C339 0.930 . S
H359 C368 0.929 . S
H360 C344 0.931 . S
H361 C345 0.930 . S
H362 C400 0.930 1_655 S
H363 C341 0.929 . S
H364 C369 0.931 . S
H365 C370 0.930 . S
N366 Gd346 2.622 . S
N366 C367 1.369 . S
N366 C368 1.338 . S
C367 N366 1.369 . S
C367 C371 1.415 . S
C367 C374 1.422 . S
C368 H359 0.929 . S
C368 N366 1.338 . S
C368 C370 1.378 . S
C369 H364 0.931 . S
C369 C370 1.348 . S
C369 C371 1.413 . S
C370 H365 0.930 . S
C370 C368 1.378 . S
C370 C369 1.348 . S
C371 C367 1.415 . S
C371 C369 1.413 . S
C371 C401 1.437 . S
H372 C401 0.963 . S
N373 Gd346 2.570 . S
N373 C374 1.359 . S
N373 C377 1.343 . S
C374 C367 1.422 . S
C374 N373 1.359 . S
C374 C376 1.421 . S
C375 C376 1.422 . S
C375 C378 1.321 . S
C375 H402 0.931 . S
C376 C374 1.421 . S
C376 C375 1.422 . S
C376 C400 1.417 . S
C377 H354 0.931 . S
C377 N373 1.343 . S
C377 C378 1.390 . S
C378 H356 0.930 . S
C378 C375 1.321 . S
C378 C377 1.390 . S
O379 Gd347 2.386 . S
O379 C391 1.265 . S
O380 Gd346 2.353 . S
O380 C391 1.242 . S
O381 Gd346 2.468 . S
O381 C399 1.263 . S
O382 Gd346 2.427 . S
O382 C399 1.252 . S
O383 Gd347 2.307 . S
O383 C392 1.261 . S
O384 Gd346 2.388 . S
O384 C392 1.252 . S
O385 Gd346 2.386 . S
O385 C403 1.265 . S
O386 Gd347 2.353 . S
O386 C403 1.242 . S
O387 Gd347 2.468 1_554 S
O387 C411 1.263 . S
O388 Gd347 2.427 1_554 S
O388 C411 1.252 . S
O389 Gd346 2.307 . S
O389 C404 1.261 . S
O390 Gd347 2.388 . S
O390 C404 1.252 . S
C391 O379 1.265 . S
C391 O380 1.242 . S
C392 O383 1.261 . S
C392 O384 1.252 . S
C393 C396 1.394 . S
C393 C398 1.370 . S
C393 C399 1.500 . S
C394 C397 1.383 . S
C394 C398 1.395 . S
C395 C396 1.396 . S
C395 C397 1.365 . S
C395 H412 0.929 . S
C396 C393 1.394 . S
C396 C395 1.396 . S
C396 H413 0.930 . S
C397 C394 1.383 . S
C397 C395 1.365 . S
C397 H414 0.931 . S
C398 C393 1.370 . S
C398 C394 1.395 . S
C398 H415 0.930 . S
C399 Gd346 2.805 . S
C399 O381 1.263 . S
C399 O382 1.252 . S
C399 C393 1.500 . S
C400 H362 0.930 1_455 S
C400 C376 1.417 . S
C400 C401 1.329 . S
C401 C371 1.437 . S
C401 H372 0.963 . S
C401 C400 1.329 . S
H402 C375 0.931 . S
C403 O385 1.265 . S
C403 O386 1.242 . S
C404 O389 1.261 . S
C404 O390 1.252 . S
C405 C408 1.394 . S
C405 C410 1.370 . S
C405 C411 1.500 . S
C406 C409 1.383 . S
C406 C410 1.395 . S
C407 C408 1.396 . S
C407 C409 1.365 . S
C407 H416 0.929 . S
C408 C405 1.394 . S
C408 C407 1.396 . S
C408 H417 0.930 . S
C409 C406 1.383 . S
C409 C407 1.365 . S
C409 H418 0.931 . S
C410 C405 1.370 . S
C410 C406 1.395 . S
C410 H419 0.930 . S
C411 Gd347 2.805 1_554 S
C411 O387 1.263 . S
C411 O388 1.252 . S
C411 C405 1.500 . S
H412 C395 0.929 . S
H413 C396 0.930 . S
H414 C397 0.931 . S
H415 C398 0.930 . S
H416 C407 0.929 . S
H417 C408 0.930 . S
H418 C409 0.931 . S
H419 C410 0.930 . S
C420 C422 1.422 1_554 S
C420 C424 1.414 1_554 S
C420 N426 1.369 . S
C421 C422 1.421 . S
C421 C423 1.417 . S
C421 C433 1.422 . S
C422 C420 1.422 1_556 S
C422 C421 1.421 . S
C422 N432 1.359 1_556 S
C423 C421 1.417 . S
C423 C425 1.329 . S
C423 H442 0.930 . S
C424 C420 1.414 1_556 S
C424 C425 1.442 . S
C424 C428 1.410 1_556 S
C425 C423 1.329 . S
C425 C424 1.442 . S
C425 H447 0.929 . S
N426 C420 1.369 . S
N426 C427 1.338 . S
N426 Gd431 2.622 . S
C427 N426 1.338 . S
C427 C429 1.378 . S
C427 H439 0.929 . S
C428 C424 1.410 1_554 S
C428 C429 1.348 . S
C428 H444 0.931 . S
C429 C427 1.378 . S
C429 C428 1.348 . S
C429 H445 0.930 . S
Gd430 N450 2.622 . S
Gd430 N457 2.570 . S
Gd430 O464 2.353 . S
Gd430 O465 2.468 . S
Gd430 O466 2.427 . S
Gd430 O468 2.388 . S
Gd430 O469 2.386 . S
Gd430 O473 2.307 . S
Gd430 C483 2.805 . S
Gd431 N426 2.622 . S
Gd431 N432 2.570 . S
Gd431 O463 2.386 . S
Gd431 O467 2.307 . S
Gd431 O470 2.353 . S
Gd431 O471 2.468 1_554 S
Gd431 O472 2.427 1_554 S
Gd431 O474 2.388 . S
Gd431 C495 2.805 1_554 S
N432 C422 1.359 1_554 S
N432 Gd431 2.570 . S
N432 C434 1.343 1_554 S
C433 C421 1.422 . S
C433 C435 1.321 . S
C433 H441 0.931 . S
C434 N432 1.343 1_556 S
C434 C435 1.390 . S
C434 H436 0.931 . S
C435 C433 1.321 . S
C435 C434 1.390 . S
C435 H437 0.930 . S
H436 C434 0.931 . S
H437 C435 0.930 . S
H438 C461 0.931 . S
H439 C427 0.929 . S
H440 C462 0.930 . S
H441 C433 0.931 . S
H442 C423 0.930 . S
H443 C452 0.929 . S
H444 C428 0.931 . S
H445 C429 0.930 . S
H446 C484 0.930 1_455 S
H447 C425 0.929 . S
H448 C453 0.931 . S
H449 C454 0.930 . S
N450 Gd430 2.622 . S
N450 C451 1.369 . S
N450 C452 1.338 . S
C451 N450 1.369 . S
C451 C455 1.415 . S
C451 C458 1.422 . S
C452 H443 0.929 . S
C452 N450 1.338 . S
C452 C454 1.378 . S
C453 H448 0.931 . S
C453 C454 1.348 . S
C453 C455 1.413 . S
C454 H449 0.930 . S
C454 C452 1.378 . S
C454 C453 1.348 . S
C455 C451 1.415 . S
C455 C453 1.413 . S
C455 C485 1.437 . S
H456 C485 0.916 1_455 S
N457 Gd430 2.570 . S
N457 C458 1.359 . S
N457 C461 1.343 . S
C458 C451 1.422 . S
C458 N457 1.359 . S
C458 C460 1.421 . S
C459 C460 1.422 . S
C459 C462 1.321 . S
C459 H486 0.931 . S
C460 C458 1.421 . S
C460 C459 1.422 . S
C460 C484 1.417 . S
C461 H438 0.931 . S
C461 N457 1.343 . S
C461 C462 1.390 . S
C462 H440 0.930 . S
C462 C459 1.321 . S
C462 C461 1.390 . S
O463 Gd431 2.386 . S
O463 C475 1.265 . S
O464 Gd430 2.353 . S
O464 C475 1.242 . S
O465 Gd430 2.468 . S
O465 C483 1.263 . S
O466 Gd430 2.427 . S
O466 C483 1.252 . S
O467 Gd431 2.307 . S
O467 C476 1.261 . S
O468 Gd430 2.388 . S
O468 C476 1.252 . S
O469 Gd430 2.386 . S
O469 C487 1.265 . S
O470 Gd431 2.353 . S
O470 C487 1.242 . S
O471 Gd431 2.468 1_556 S
O471 C495 1.263 . S
O472 Gd431 2.427 1_556 S
O472 C495 1.252 . S
O473 Gd430 2.307 . S
O473 C488 1.261 . S
O474 Gd431 2.388 . S
O474 C488 1.252 . S
C475 O463 1.265 . S
C475 O464 1.242 . S
C476 O467 1.261 . S
C476 O468 1.252 . S
C477 C480 1.394 . S
C477 C482 1.370 . S
C477 C483 1.500 . S
C478 C481 1.383 . S
C478 C482 1.395 . S
C479 C480 1.396 . S
C479 C481 1.365 . S
C479 H496 0.929 . S
C480 C477 1.394 . S
C480 C479 1.396 . S
C480 H497 0.930 . S
C481 C478 1.383 . S
C481 C479 1.365 . S
C481 H498 0.931 . S
C482 C477 1.370 . S
C482 C478 1.395 . S
C482 H499 0.930 . S
C483 Gd430 2.805 . S
C483 O465 1.263 . S
C483 O466 1.252 . S
C483 C477 1.500 . S
C484 H446 0.930 1_655 S
C484 C460 1.417 . S
C484 C485 1.329 . S
C485 C455 1.437 . S
C485 H456 0.916 1_655 S
C485 C484 1.329 . S
H486 C459 0.931 . S
C487 O469 1.265 . S
C487 O470 1.242 . S
C488 O473 1.261 . S
C488 O474 1.252 . S
C489 C492 1.394 . S
C489 C494 1.370 . S
C489 C495 1.500 . S
C490 C493 1.383 . S
C490 C494 1.395 . S
C491 C492 1.396 . S
C491 C493 1.365 . S
C491 H500 0.929 . S
C492 C489 1.394 . S
C492 C491 1.396 . S
C492 H501 0.930 . S
C493 C490 1.383 . S
C493 C491 1.365 . S
C493 H502 0.931 . S
C494 C489 1.370 . S
C494 C490 1.395 . S
C494 H503 0.930 . S
C495 Gd431 2.805 1_556 S
C495 O471 1.263 . S
C495 O472 1.252 . S
C495 C489 1.500 . S
H496 C479 0.929 . S
H497 C480 0.930 . S
H498 C481 0.931 . S
H499 C482 0.930 . S
H500 C491 0.929 . S
H501 C492 0.930 . S
H502 C493 0.931 . S
H503 C494 0.930 . S
C504 C506 1.422 . S
C504 C508 1.415 . S
C504 N510 1.369 . S
C505 C506 1.421 . S
C505 C507 1.417 . S
C505 C517 1.422 . S
C506 C504 1.422 . S
C506 C505 1.421 . S
C506 N516 1.359 . S
C507 C505 1.417 . S
C507 C509 1.329 . S
C507 H526 0.930 . S
C508 C504 1.415 . S
C508 C509 1.437 . S
C508 C512 1.413 . S
C509 C507 1.329 . S
C509 C508 1.437 . S
C509 H531 0.929 . S
N510 C504 1.369 . S
N510 C511 1.338 . S
N510 Gd515 2.622 . S
C511 N510 1.338 . S
C511 C513 1.378 . S
C511 H523 0.929 . S
C512 C508 1.413 . S
C512 C513 1.348 . S
C512 H528 0.931 . S
C513 C511 1.378 . S
C513 C512 1.348 . S
C513 H529 0.930 . S
Gd514 N534 2.622 . S
Gd514 N541 2.570 . S
Gd514 O548 2.353 . S
Gd514 O549 2.468 . S
Gd514 O550 2.427 . S
Gd514 O552 2.388 . S
Gd514 O553 2.386 . S
Gd514 O557 2.307 . S
Gd514 C567 2.805 . S
Gd515 N510 2.622 . S
Gd515 N516 2.570 . S
Gd515 O547 2.386 . S
Gd515 O551 2.307 . S
Gd515 O554 2.353 . S
Gd515 O555 2.468 . S
Gd515 O556 2.427 . S
Gd515 O558 2.388 . S
Gd515 C579 2.805 . S
N516 C506 1.359 . S
N516 Gd515 2.570 . S
N516 C518 1.343 . S
C517 C505 1.422 . S
C517 C519 1.321 . S
C517 H525 0.931 . S
C518 N516 1.343 . S
C518 C519 1.390 . S
C518 H520 0.931 . S
C519 C517 1.321 . S
C519 C518 1.390 . S
C519 H521 0.930 . S
H520 C518 0.931 . S
H521 C519 0.930 . S
H522 C545 0.931 . S
H523 C511 0.929 . S
H524 C546 0.930 . S
H525 C517 0.931 . S
H526 C507 0.930 . S
H527 C536 0.929 . S
H528 C512 0.931 . S
H529 C513 0.930 . S
H530 C568 0.930 . S
H531 C509 0.929 . S
H532 C537 0.931 . S
H533 C538 0.930 . S
N534 Gd514 2.622 . S
N534 C535 1.369 . S
N534 C536 1.338 . S
C535 N534 1.369 . S
C535 C539 1.415 . S
C535 C542 1.422 . S
C536 H527 0.929 . S
C536 N534 1.338 . S
C536 C538 1.378 . S
C537 H532 0.931 . S
C537 C538 1.348 . S
C537 C539 1.413 . S
C538 H533 0.930 . S
C538 C536 1.378 . S
C538 C537 1.348 . S
C539 C535 1.415 . S
C539 C537 1.413 . S
C539 C569 1.437 . S
H540 C569 0.929 . S
N541 Gd514 2.570 . S
N541 C542 1.359 . S
N541 C545 1.343 . S
C542 C535 1.422 . S
C542 N541 1.359 . S
C542 C544 1.421 . S
C543 C544 1.422 . S
C543 C546 1.321 . S
C543 H570 0.931 . S
C544 C542 1.421 . S
C544 C543 1.422 . S
C544 C568 1.417 . S
C545 H522 0.931 . S
C545 N541 1.343 . S
C545 C546 1.390 . S
C546 H524 0.930 . S
C546 C543 1.321 . S
C546 C545 1.390 . S
O547 Gd515 2.386 . S
O547 C559 1.265 . S
O548 Gd514 2.353 . S
O548 C559 1.242 . S
O549 Gd514 2.468 . S
O549 C567 1.263 . S
O550 Gd514 2.427 . S
O550 C567 1.252 . S
O551 Gd515 2.307 . S
O551 C560 1.261 . S
O552 Gd514 2.388 . S
O552 C560 1.252 . S
O553 Gd514 2.386 . S
O553 C571 1.265 . S
O554 Gd515 2.353 . S
O554 C571 1.242 . S
O555 Gd515 2.468 . S
O555 C579 1.263 . S
O556 Gd515 2.427 . S
O556 C579 1.252 . S
O557 Gd514 2.307 . S
O557 C572 1.261 . S
O558 Gd515 2.388 . S
O558 C572 1.252 . S
C559 O547 1.265 . S
C559 O548 1.242 . S
C560 O551 1.261 . S
C560 O552 1.252 . S
C561 C564 1.394 . S
C561 C566 1.370 . S
C561 C567 1.500 . S
C562 C565 1.383 . S
C562 C566 1.395 . S
C563 C564 1.396 . S
C563 C565 1.365 . S
C563 H580 0.929 . S
C564 C561 1.394 . S
C564 C563 1.396 . S
C564 H581 0.930 . S
C565 C562 1.383 . S
C565 C563 1.365 . S
C565 H582 0.931 . S
C566 C561 1.370 . S
C566 C562 1.395 . S
C566 H583 0.930 . S
C567 Gd514 2.805 . S
C567 O549 1.263 . S
C567 O550 1.252 . S
C567 C561 1.500 . S
C568 H530 0.930 . S
C568 C544 1.417 . S
C568 C569 1.329 . S
C569 C539 1.437 . S
C569 H540 0.929 . S
C569 C568 1.329 . S
H570 C543 0.931 . S
C571 O553 1.265 . S
C571 O554 1.242 . S
C572 O557 1.261 . S
C572 O558 1.252 . S
C573 C576 1.394 . S
C573 C578 1.370 . S
C573 C579 1.500 . S
C574 C577 1.383 . S
C574 C578 1.395 . S
C575 C576 1.396 . S
C575 C577 1.365 . S
C575 H584 0.929 . S
C576 C573 1.394 . S
C576 C575 1.396 . S
C576 H585 0.930 . S
C577 C574 1.383 . S
C577 C575 1.365 . S
C577 H586 0.931 1_554 S
C578 C573 1.370 . S
C578 C574 1.395 . S
C578 H587 0.930 . S
C579 Gd515 2.805 . S
C579 O555 1.263 . S
C579 O556 1.252 . S
C579 C573 1.500 . S
H580 C563 0.929 . S
H581 C564 0.930 . S
H582 C565 0.931 . S
H583 C566 0.930 . S
H584 C575 0.929 . S
H585 C576 0.930 . S
H586 C577 0.931 1_556 S
H587 C578 0.930 . S
C588 C590 1.422 . S
C588 C592 1.415 . S
C588 N594 1.369 . S
C589 C590 1.421 . S
C589 C591 1.417 1_545 S
C589 C601 1.422 . S
C590 C588 1.422 . S
C590 C589 1.421 . S
C590 N600 1.359 . S
C591 C589 1.417 1_565 S
C591 C593 1.329 1_565 S
C591 H610 0.930 . S
C592 C588 1.415 . S
C592 C593 1.439 . S
C592 C596 1.413 . S
C593 C591 1.329 1_545 S
C593 C592 1.439 . S
C593 H615 0.928 1_545 S
N594 C588 1.369 . S
N594 C595 1.338 . S
N594 Gd599 2.622 . S
C595 N594 1.338 . S
C595 C597 1.378 . S
C595 H607 0.929 . S
C596 C592 1.413 . S
C596 C597 1.348 . S
C596 H612 0.931 . S
C597 C595 1.378 . S
C597 C596 1.348 . S
C597 H613 0.930 . S
Gd598 N618 2.622 . S
Gd598 N625 2.570 . S
Gd598 O632 2.353 . S
Gd598 O633 2.468 . S
Gd598 O634 2.427 . S
Gd598 O636 2.388 . S
Gd598 O637 2.386 . S
Gd598 O641 2.307 . S
Gd598 C651 2.805 . S
Gd599 N594 2.622 . S
Gd599 N600 2.570 . S
Gd599 O631 2.386 . S
Gd599 O635 2.307 . S
Gd599 O638 2.353 . S
Gd599 O639 2.468 . S
Gd599 O640 2.427 . S
Gd599 O642 2.388 . S
Gd599 C663 2.805 . S
N600 C590 1.359 . S
N600 Gd599 2.570 . S
N600 C602 1.343 . S
C601 C589 1.422 . S
C601 C603 1.321 . S
C601 H609 0.931 1_545 S
C602 N600 1.343 . S
C602 C603 1.390 . S
C602 H604 0.931 . S
C603 C601 1.321 . S
C603 C602 1.390 . S
C603 H605 0.930 . S
H604 C602 0.931 . S
H605 C603 0.930 . S
H606 C629 0.931 . S
H607 C595 0.929 . S
H608 C630 0.930 . S
H609 C601 0.931 1_565 S
H610 C591 0.930 . S
H611 C620 0.929 . S
H612 C596 0.931 . S
H613 C597 0.930 . S
H614 C652 0.930 . S
H615 C593 0.928 1_565 S
H616 C621 0.931 . S
H617 C622 0.930 . S
N618 Gd598 2.622 . S
N618 C619 1.369 . S
N618 C620 1.338 . S
C619 N618 1.369 . S
C619 C623 1.415 . S
C619 C626 1.422 . S
C620 H611 0.929 . S
C620 N618 1.338 . S
C620 C622 1.378 . S
C621 H616 0.931 . S
C621 C622 1.348 . S
C621 C623 1.413 . S
C622 H617 0.930 . S
C622 C620 1.378 . S
C622 C621 1.348 . S
C623 C619 1.415 . S
C623 C621 1.413 . S
C623 C653 1.437 . S
H624 C653 0.929 . S
N625 Gd598 2.570 . S
N625 C626 1.359 . S
N625 C629 1.343 . S
C626 C619 1.422 . S
C626 N625 1.359 . S
C626 C628 1.421 . S
C627 C628 1.422 . S
C627 C630 1.321 . S
C627 H654 0.931 . S
C628 C626 1.421 . S
C628 C627 1.422 . S
C628 C652 1.417 . S
C629 H606 0.931 . S
C629 N625 1.343 . S
C629 C630 1.390 . S
C630 H608 0.930 . S
C630 C627 1.321 . S
C630 C629 1.390 . S
O631 Gd599 2.386 . S
O631 C643 1.265 . S
O632 Gd598 2.353 . S
O632 C643 1.242 . S
O633 Gd598 2.468 . S
O633 C651 1.263 . S
O634 Gd598 2.427 . S
O634 C651 1.252 . S
O635 Gd599 2.307 . S
O635 C644 1.261 . S
O636 Gd598 2.388 . S
O636 C644 1.252 . S
O637 Gd598 2.386 . S
O637 C655 1.265 . S
O638 Gd599 2.353 . S
O638 C655 1.242 . S
O639 Gd599 2.468 . S
O639 C663 1.263 . S
O640 Gd599 2.427 . S
O640 C663 1.252 . S
O641 Gd598 2.307 . S
O641 C656 1.261 . S
O642 Gd599 2.388 . S
O642 C656 1.252 . S
C643 O631 1.265 . S
C643 O632 1.242 . S
C644 O635 1.261 . S
C644 O636 1.252 . S
C645 C648 1.394 . S
C645 C650 1.370 . S
C645 C651 1.500 . S
C646 C649 1.383 . S
C646 C650 1.395 . S
C647 C648 1.396 . S
C647 C649 1.365 . S
C647 H664 0.929 . S
C648 C645 1.394 . S
C648 C647 1.396 . S
C648 H665 0.930 . S
C649 C646 1.383 . S
C649 C647 1.365 . S
C649 H666 0.931 . S
C650 C645 1.370 . S
C650 C646 1.395 . S
C650 H667 0.930 . S
C651 Gd598 2.805 . S
C651 O633 1.263 . S
C651 O634 1.252 . S
C651 C645 1.500 . S
C652 H614 0.930 . S
C652 C628 1.417 . S
C652 C653 1.329 . S
C653 C623 1.437 . S
C653 H624 0.929 . S
C653 C652 1.329 . S
H654 C627 0.931 . S
C655 O637 1.265 . S
C655 O638 1.242 . S
C656 O641 1.261 . S
C656 O642 1.252 . S
C657 C660 1.394 . S
C657 C662 1.370 . S
C657 C663 1.500 . S
C658 C661 1.383 . S
C658 C662 1.395 . S
C659 C660 1.396 . S
C659 C661 1.365 . S
C659 H668 0.929 . S
C660 C657 1.394 . S
C660 C659 1.396 . S
C660 H669 0.930 . S
C661 C658 1.383 . S
C661 C659 1.365 . S
C661 H670 0.931 1_556 S
C662 C657 1.370 . S
C662 C658 1.395 . S
C662 H671 0.930 . S
C663 Gd599 2.805 . S
C663 O639 1.263 . S
C663 O640 1.252 . S
C663 C657 1.500 . S
H664 C647 0.929 . S
H665 C648 0.930 . S
H666 C649 0.931 . S
H667 C650 0.930 . S
H668 C659 0.929 . S
H669 C660 0.930 . S
H670 C661 0.931 1_554 S
H671 C662 0.930 . S
C672 C674 1.422 . S
C672 C676 1.415 . S
C672 N678 1.369 . S
C673 C674 1.421 . S
C673 C675 1.417 . S
C673 C685 1.422 . S
C674 C672 1.422 . S
C674 C673 1.421 . S
C674 N684 1.359 . S
C675 C673 1.417 . S
C675 C677 1.329 . S
C675 H694 0.930 1_655 S
C676 C672 1.415 . S
C676 C677 1.437 . S
C676 C680 1.413 . S
C677 C675 1.329 . S
C677 C676 1.437 . S
C677 H699 0.962 . S
N678 C672 1.369 . S
N678 C679 1.338 . S
N678 Gd683 2.622 . S
C679 N678 1.338 . S
C679 C681 1.378 . S
C679 H691 0.929 . S
C680 C676 1.413 . S
C680 C681 1.348 . S
C680 H696 0.931 . S
C681 C679 1.378 . S
C681 C680 1.348 . S
C681 H697 0.930 . S
Gd682 N702 2.622 . S
Gd682 N709 2.570 . S
Gd682 O716 2.353 . S
Gd682 O717 2.468 1_556 S
Gd682 O718 2.427 1_556 S
Gd682 O720 2.388 . S
Gd682 O721 2.386 . S
Gd682 O725 2.307 . S
Gd682 C735 2.805 1_556 S
Gd683 N678 2.622 . S
Gd683 N684 2.570 . S
Gd683 O715 2.386 . S
Gd683 O719 2.307 . S
Gd683 O722 2.353 . S
Gd683 O723 2.468 . S
Gd683 O724 2.427 . S
Gd683 O726 2.388 . S
Gd683 C747 2.805 . S
N684 C674 1.359 . S
N684 Gd683 2.570 . S
N684 C686 1.343 . S
C685 C673 1.422 . S
C685 C687 1.321 . S
C685 H693 0.931 . S
C686 N684 1.343 . S
C686 C687 1.390 . S
C686 H688 0.931 . S
C687 C685 1.321 . S
C687 C686 1.390 . S
C687 H689 0.930 . S
H688 C686 0.931 . S
H689 C687 0.930 . S
H690 C713 0.931 . S
H691 C679 0.929 . S
H692 C714 0.930 . S
H693 C685 0.931 . S
H694 C675 0.930 1_455 S
H695 C704 0.929 . S
H696 C680 0.931 . S
H697 C681 0.930 . S
H698 C736 0.930 . S
H699 C677 0.962 . S
H700 C705 0.931 . S
H701 C706 0.930 . S
N702 Gd682 2.622 . S
N702 C703 1.369 . S
N702 C704 1.338 . S
C703 N702 1.369 . S
C703 C707 1.415 . S
C703 C710 1.422 1_556 S
C704 H695 0.929 . S
C704 N702 1.338 . S
C704 C706 1.378 . S
C705 H700 0.931 . S
C705 C706 1.348 . S
C705 C707 1.413 . S
C706 H701 0.930 . S
C706 C704 1.378 . S
C706 C705 1.348 . S
C707 C703 1.415 . S
C707 C705 1.413 . S
C707 C737 1.437 1_556 S
H708 C737 0.929 . S
N709 Gd682 2.570 . S
N709 C710 1.359 1_556 S
N709 C713 1.343 1_556 S
C710 C703 1.422 1_554 S
C710 N709 1.359 1_554 S
C710 C712 1.421 . S
C711 C712 1.422 . S
C711 C714 1.321 . S
C711 H738 0.931 . S
C712 C710 1.421 . S
C712 C711 1.422 . S
C712 C736 1.417 . S
C713 H690 0.931 . S
C713 N709 1.343 1_554 S
C713 C714 1.390 . S
C714 H692 0.930 . S
C714 C711 1.321 . S
C714 C713 1.390 . S
O715 Gd683 2.386 . S
O715 C727 1.265 . S
O716 Gd682 2.353 . S
O716 C727 1.242 . S
O717 Gd682 2.468 1_554 S
O717 C735 1.263 . S
O718 Gd682 2.427 1_554 S
O718 C735 1.252 . S
O719 Gd683 2.307 . S
O719 C728 1.261 . S
O720 Gd682 2.388 . S
O720 C728 1.252 . S
O721 Gd682 2.386 . S
O721 C739 1.265 . S
O722 Gd683 2.353 . S
O722 C739 1.242 . S
O723 Gd683 2.468 . S
O723 C747 1.263 . S
O724 Gd683 2.427 . S
O724 C747 1.252 . S
O725 Gd682 2.307 . S
O725 C740 1.261 . S
O726 Gd683 2.388 . S
O726 C740 1.252 . S
C727 O715 1.265 . S
C727 O716 1.242 . S
C728 O719 1.261 . S
C728 O720 1.252 . S
C729 C732 1.394 . S
C729 C734 1.370 . S
C729 C735 1.500 . S
C730 C733 1.383 . S
C730 C734 1.395 . S
C731 C732 1.396 . S
C731 C733 1.365 . S
C731 H748 0.929 . S
C732 C729 1.394 . S
C732 C731 1.396 . S
C732 H749 0.930 . S
C733 C730 1.383 . S
C733 C731 1.365 . S
C733 H750 0.931 . S
C734 C729 1.370 . S
C734 C730 1.395 . S
C734 H751 0.930 . S
C735 Gd682 2.805 1_554 S
C735 O717 1.263 . S
C735 O718 1.252 . S
C735 C729 1.500 . S
C736 H698 0.930 . S
C736 C712 1.417 . S
C736 C737 1.329 . S
C737 C707 1.437 1_554 S
C737 H708 0.929 . S
C737 C736 1.329 . S
H738 C711 0.931 . S
C739 O721 1.265 . S
C739 O722 1.242 . S
C740 O725 1.261 . S
C740 O726 1.252 . S
C741 C744 1.394 . S
C741 C746 1.370 . S
C741 C747 1.500 . S
C742 C745 1.383 . S
C742 C746 1.395 . S
C743 C744 1.396 . S
C743 C745 1.365 . S
C743 H752 0.929 . S
C744 C741 1.394 . S
C744 C743 1.396 . S
C744 H753 0.930 . S
C745 C742 1.383 . S
C745 C743 1.365 . S
C745 H754 0.931 . S
C746 C741 1.370 . S
C746 C742 1.395 . S
C746 H755 0.930 . S
C747 Gd683 2.805 . S
C747 O723 1.263 . S
C747 O724 1.252 . S
C747 C741 1.500 . S
H748 C731 0.929 . S
H749 C732 0.930 . S
H750 C733 0.931 . S
H751 C734 0.930 . S
H752 C743 0.929 . S
H753 C744 0.930 . S
H754 C745 0.931 . S
H755 C746 0.930 . S
C756 C758 1.422 . S
C756 C760 1.415 . S
C756 N762 1.369 . S
C757 C758 1.421 . S
C757 C759 1.417 . S
C757 C769 1.422 . S
C758 C756 1.422 . S
C758 C757 1.421 . S
C758 N768 1.359 . S
C759 C757 1.417 . S
C759 C761 1.329 . S
C759 H778 0.930 . S
C760 C756 1.415 . S
C760 C761 1.437 . S
C760 C764 1.413 . S
C761 C759 1.329 . S
C761 C760 1.437 . S
C761 H783 0.929 . S
N762 C756 1.369 . S
N762 C763 1.338 . S
N762 Gd767 2.622 . S
C763 N762 1.338 . S
C763 C765 1.378 . S
C763 H775 0.929 . S
C764 C760 1.413 . S
C764 C765 1.348 . S
C764 H780 0.931 . S
C765 C763 1.378 . S
C765 C764 1.348 . S
C765 H781 0.930 . S
Gd766 N786 2.622 . S
Gd766 N793 2.570 . S
Gd766 O800 2.353 . S
Gd766 O801 2.468 . S
Gd766 O802 2.427 . S
Gd766 O804 2.388 . S
Gd766 O805 2.386 . S
Gd766 O809 2.307 . S
Gd766 C819 2.805 . S
Gd767 N762 2.622 . S
Gd767 N768 2.570 . S
Gd767 O799 2.386 . S
Gd767 O803 2.307 . S
Gd767 O806 2.353 . S
Gd767 O807 2.468 . S
Gd767 O808 2.427 . S
Gd767 O810 2.388 . S
Gd767 C831 2.805 . S
N768 C758 1.359 . S
N768 Gd767 2.570 . S
N768 C770 1.343 . S
C769 C757 1.422 . S
C769 C771 1.321 . S
C769 H777 0.931 . S
C770 N768 1.343 . S
C770 C771 1.390 . S
C770 H772 0.931 . S
C771 C769 1.321 . S
C771 C770 1.390 . S
C771 H773 0.930 . S
H772 C770 0.931 . S
H773 C771 0.930 . S
H774 C797 0.931 . S
H775 C763 0.929 . S
H776 C798 0.930 . S
H777 C769 0.931 . S
H778 C759 0.930 . S
H779 C788 0.929 . S
H780 C764 0.931 . S
H781 C765 0.930 . S
H782 C820 0.930 . S
H783 C761 0.929 . S
H784 C789 0.931 . S
H785 C790 0.930 . S
N786 Gd766 2.622 . S
N786 C787 1.369 . S
N786 C788 1.338 . S
C787 N786 1.369 . S
C787 C791 1.415 . S
C787 C794 1.422 . S
C788 H779 0.929 . S
C788 N786 1.338 . S
C788 C790 1.378 . S
C789 H784 0.931 . S
C789 C790 1.348 . S
C789 C791 1.413 . S
C790 H785 0.930 . S
C790 C788 1.378 . S
C790 C789 1.348 . S
C791 C787 1.415 . S
C791 C789 1.413 . S
C791 C821 1.437 . S
H792 C821 0.929 . S
N793 Gd766 2.570 . S
N793 C794 1.359 . S
N793 C797 1.343 . S
C794 C787 1.422 . S
C794 N793 1.359 . S
C794 C796 1.421 . S
C795 C796 1.422 . S
C795 C798 1.321 . S
C795 H822 0.931 . S
C796 C794 1.421 . S
C796 C795 1.422 . S
C796 C820 1.417 . S
C797 H774 0.931 . S
C797 N793 1.343 . S
C797 C798 1.390 . S
C798 H776 0.930 . S
C798 C795 1.321 . S
C798 C797 1.390 . S
O799 Gd767 2.386 . S
O799 C811 1.265 . S
O800 Gd766 2.353 . S
O800 C811 1.242 . S
O801 Gd766 2.468 . S
O801 C819 1.263 . S
O802 Gd766 2.427 . S
O802 C819 1.252 . S
O803 Gd767 2.307 . S
O803 C812 1.261 . S
O804 Gd766 2.388 . S
O804 C812 1.252 . S
O805 Gd766 2.386 . S
O805 C823 1.265 . S
O806 Gd767 2.353 . S
O806 C823 1.242 . S
O807 Gd767 2.468 . S
O807 C831 1.263 . S
O808 Gd767 2.427 . S
O808 C831 1.252 . S
O809 Gd766 2.307 . S
O809 C824 1.261 . S
O810 Gd767 2.388 . S
O810 C824 1.252 . S
C811 O799 1.265 . S
C811 O800 1.242 . S
C812 O803 1.261 . S
C812 O804 1.252 . S
C813 C816 1.394 . S
C813 C818 1.370 . S
C813 C819 1.500 . S
C814 C817 1.383 . S
C814 C818 1.395 . S
C815 C816 1.396 . S
C815 C817 1.365 . S
C815 H832 0.929 . S
C816 C813 1.394 . S
C816 C815 1.396 . S
C816 H833 0.930 . S
C817 C814 1.383 . S
C817 C815 1.365 . S
C817 H834 0.931 . S
C818 C813 1.370 . S
C818 C814 1.395 . S
C818 H835 0.930 . S
C819 Gd766 2.805 . S
C819 O801 1.263 . S
C819 O802 1.252 . S
C819 C813 1.500 . S
C820 H782 0.930 . S
C820 C796 1.417 . S
C820 C821 1.329 . S
C821 C791 1.437 . S
C821 H792 0.929 . S
C821 C820 1.329 . S
H822 C795 0.931 . S
C823 O805 1.265 . S
C823 O806 1.242 . S
C824 O809 1.261 . S
C824 O810 1.252 . S
C825 C828 1.394 . S
C825 C830 1.370 . S
C825 C831 1.500 . S
C826 C829 1.383 . S
C826 C830 1.395 . S
C827 C828 1.396 . S
C827 C829 1.365 . S
C827 H836 0.929 . S
C828 C825 1.394 . S
C828 C827 1.396 . S
C828 H837 0.930 . S
C829 C826 1.383 . S
C829 C827 1.365 . S
C829 H838 0.931 1_556 S
C830 C825 1.370 . S
C830 C826 1.395 . S
C830 H839 0.930 . S
C831 Gd767 2.805 . S
C831 O807 1.263 . S
C831 O808 1.252 . S
C831 C825 1.500 . S
H832 C815 0.929 . S
H833 C816 0.930 . S
H834 C817 0.931 . S
H835 C818 0.930 . S
H836 C827 0.929 . S
H837 C828 0.930 . S
H838 C829 0.931 1_554 S
H839 C830 0.930 . S
C840 C842 1.422 . S
C840 C844 1.415 . S
C840 N846 1.369 . S
C841 C842 1.421 . S
C841 C843 1.417 . S
C841 C853 1.422 . S
C842 C840 1.422 . S
C842 C841 1.421 . S
C842 N852 1.359 . S
C843 C841 1.417 . S
C843 C845 1.329 . S
C843 H862 0.930 . S
C844 C840 1.415 . S
C844 C845 1.437 . S
C844 C848 1.413 . S
C845 C843 1.329 . S
C845 C844 1.437 . S
C845 H867 0.929 . S
N846 C840 1.369 . S
N846 C847 1.338 . S
N846 Gd851 2.622 . S
C847 N846 1.338 . S
C847 C849 1.378 . S
C847 H859 0.929 . S
C848 C844 1.413 . S
C848 C849 1.348 . S
C848 H864 0.931 . S
C849 C847 1.378 . S
C849 C848 1.348 . S
C849 H865 0.930 . S
Gd850 N870 2.622 . S
Gd850 N877 2.570 . S
Gd850 O884 2.353 . S
Gd850 O885 2.468 . S
Gd850 O886 2.427 . S
Gd850 O888 2.388 . S
Gd850 O889 2.386 . S
Gd850 O893 2.307 . S
Gd850 C903 2.805 . S
Gd851 N846 2.622 . S
Gd851 N852 2.570 . S
Gd851 O883 2.386 . S
Gd851 O887 2.307 . S
Gd851 O890 2.353 . S
Gd851 O891 2.468 . S
Gd851 O892 2.427 . S
Gd851 O894 2.388 . S
Gd851 C915 2.805 . S
N852 C842 1.359 . S
N852 Gd851 2.570 . S
N852 C854 1.343 . S
C853 C841 1.422 . S
C853 C855 1.321 . S
C853 H861 0.931 . S
C854 N852 1.343 . S
C854 C855 1.390 . S
C854 H856 0.931 . S
C855 C853 1.321 . S
C855 C854 1.390 . S
C855 H857 0.930 . S
H856 C854 0.931 . S
H857 C855 0.930 . S
H858 C881 0.931 . S
H859 C847 0.929 . S
H860 C882 0.930 . S
H861 C853 0.931 . S
H862 C843 0.930 . S
H863 C872 0.929 . S
H864 C848 0.931 . S
H865 C849 0.930 . S
H866 C904 0.930 . S
H867 C845 0.929 . S
H868 C873 0.931 . S
H869 C874 0.930 . S
N870 Gd850 2.622 . S
N870 C871 1.369 . S
N870 C872 1.338 . S
C871 N870 1.369 . S
C871 C875 1.415 . S
C871 C878 1.422 . S
C872 H863 0.929 . S
C872 N870 1.338 . S
C872 C874 1.378 . S
C873 H868 0.931 . S
C873 C874 1.348 . S
C873 C875 1.413 . S
C874 H869 0.930 . S
C874 C872 1.378 . S
C874 C873 1.348 . S
C875 C871 1.415 . S
C875 C873 1.413 . S
C875 C905 1.437 . S
H876 C905 0.929 . S
N877 Gd850 2.570 . S
N877 C878 1.359 . S
N877 C881 1.343 . S
C878 C871 1.422 . S
C878 N877 1.359 . S
C878 C880 1.421 . S
C879 C880 1.422 . S
C879 C882 1.321 . S
C879 H906 0.931 . S
C880 C878 1.421 . S
C880 C879 1.422 . S
C880 C904 1.417 . S
C881 H858 0.931 . S
C881 N877 1.343 . S
C881 C882 1.390 . S
C882 H860 0.930 . S
C882 C879 1.321 . S
C882 C881 1.390 . S
O883 Gd851 2.386 . S
O883 C895 1.265 . S
O884 Gd850 2.353 . S
O884 C895 1.242 . S
O885 Gd850 2.468 . S
O885 C903 1.263 . S
O886 Gd850 2.427 . S
O886 C903 1.252 . S
O887 Gd851 2.307 . S
O887 C896 1.261 . S
O888 Gd850 2.388 . S
O888 C896 1.252 . S
O889 Gd850 2.386 . S
O889 C907 1.265 . S
O890 Gd851 2.353 . S
O890 C907 1.242 . S
O891 Gd851 2.468 . S
O891 C915 1.263 . S
O892 Gd851 2.427 . S
O892 C915 1.252 . S
O893 Gd850 2.307 . S
O893 C908 1.261 . S
O894 Gd851 2.388 . S
O894 C908 1.252 . S
C895 O883 1.265 . S
C895 O884 1.242 . S
C896 O887 1.261 . S
C896 O888 1.252 . S
C897 C900 1.394 . S
C897 C902 1.370 . S
C897 C903 1.500 . S
C898 C901 1.383 . S
C898 C902 1.395 . S
C899 C900 1.396 . S
C899 C901 1.365 . S
C899 H916 0.929 . S
C900 C897 1.394 . S
C900 C899 1.396 . S
C900 H917 0.930 . S
C901 C898 1.383 . S
C901 C899 1.365 . S
C901 H918 0.931 . S
C902 C897 1.370 . S
C902 C898 1.395 . S
C902 H919 0.930 . S
C903 Gd850 2.805 . S
C903 O885 1.263 . S
C903 O886 1.252 . S
C903 C897 1.500 . S
C904 H866 0.930 . S
C904 C880 1.417 . S
C904 C905 1.329 . S
C905 C875 1.437 . S
C905 H876 0.929 . S
C905 C904 1.329 . S
H906 C879 0.931 . S
C907 O889 1.265 . S
C907 O890 1.242 . S
C908 O893 1.261 . S
C908 O894 1.252 . S
C909 C912 1.394 . S
C909 C914 1.370 . S
C909 C915 1.500 . S
C910 C913 1.383 . S
C910 C914 1.395 . S
C911 C912 1.396 . S
C911 C913 1.365 . S
C911 H920 0.929 . S
C912 C909 1.394 . S
C912 C911 1.396 . S
C912 H921 0.930 . S
C913 C910 1.383 . S
C913 C911 1.365 . S
C913 H922 0.931 1_554 S
C914 C909 1.370 . S
C914 C910 1.395 . S
C914 H923 0.930 . S
C915 Gd851 2.805 . S
C915 O891 1.263 . S
C915 O892 1.252 . S
C915 C909 1.500 . S
H916 C899 0.929 . S
H917 C900 0.930 . S
H918 C901 0.931 . S
H919 C902 0.930 . S
H920 C911 0.929 . S
H921 C912 0.930 . S
H922 C913 0.931 1_556 S
H923 C914 0.930 . S
C924 C926 1.422 1_554 S
C924 C928 1.414 1_554 S
C924 N930 1.369 . S
C925 C926 1.421 . S
C925 C927 1.417 . S
C925 C937 1.422 . S
C926 C924 1.422 1_556 S
C926 C925 1.421 . S
C926 N936 1.359 . S
C927 C925 1.417 . S
C927 C929 1.329 . S
C927 H946 0.930 . S
C928 C924 1.414 1_556 S
C928 C929 1.440 . S
C928 C932 1.411 1_556 S
C929 C927 1.329 . S
C929 C928 1.440 . S
C929 H951 0.929 . S
N930 C924 1.369 . S
N930 C931 1.338 . S
N930 Gd935 2.622 . S
C931 N930 1.338 . S
C931 C933 1.378 . S
C931 H943 0.929 . S
C932 C928 1.411 1_554 S
C932 C933 1.348 . S
C932 H948 0.931 . S
C933 C931 1.378 . S
C933 C932 1.348 . S
C933 H949 0.930 . S
Gd934 N954 2.622 . S
Gd934 N961 2.570 . S
Gd934 O968 2.353 . S
Gd934 O969 2.468 . S
Gd934 O970 2.427 . S
Gd934 O972 2.388 . S
Gd934 O973 2.386 . S
Gd934 O977 2.307 . S
Gd934 C987 2.805 . S
Gd935 N930 2.622 . S
Gd935 N936 2.570 1_554 S
Gd935 O967 2.386 . S
Gd935 O971 2.307 . S
Gd935 O974 2.353 . S
Gd935 O975 2.468 1_554 S
Gd935 O976 2.427 1_554 S
Gd935 O978 2.388 . S
Gd935 C999 2.805 1_554 S
N936 C926 1.359 . S
N936 Gd935 2.570 1_556 S
N936 C938 1.343 . S
C937 C925 1.422 . S
C937 C939 1.321 . S
C937 H945 0.931 . S
C938 N936 1.343 . S
C938 C939 1.390 . S
C938 H940 0.931 . S
C939 C937 1.321 . S
C939 C938 1.390 . S
C939 H941 0.930 . S
H940 C938 0.931 . S
H941 C939 0.930 . S
H942 C965 0.931 . S
H943 C931 0.929 . S
H944 C966 0.930 . S
H945 C937 0.931 . S
H946 C927 0.930 . S
H947 C956 0.929 . S
H948 C932 0.931 . S
H949 C933 0.930 . S
H950 C988 0.930 . S
H951 C929 0.929 . S
H952 C957 0.931 . S
H953 C958 0.930 . S
N954 Gd934 2.622 . S
N954 C955 1.369 . S
N954 C956 1.338 . S
C955 N954 1.369 . S
C955 C959 1.415 . S
C955 C962 1.422 . S
C956 H947 0.929 . S
C956 N954 1.338 . S
C956 C958 1.378 . S
C957 H952 0.931 . S
C957 C958 1.348 . S
C957 C959 1.413 . S
C958 H953 0.930 . S
C958 C956 1.378 . S
C958 C957 1.348 . S
C959 C955 1.415 . S
C959 C957 1.413 . S
C959 C989 1.436 1_565 S
H960 C989 0.930 . S
N961 Gd934 2.570 . S
N961 C962 1.359 . S
N961 C965 1.343 . S
C962 C955 1.422 . S
C962 N961 1.359 . S
C962 C964 1.421 . S
C963 C964 1.422 . S
C963 C966 1.321 . S
C963 H990 0.931 1_565 S
C964 C962 1.421 . S
C964 C963 1.422 . S
C964 C988 1.417 1_565 S
C965 H942 0.931 . S
C965 N961 1.343 . S
C965 C966 1.390 . S
C966 H944 0.930 . S
C966 C963 1.321 . S
C966 C965 1.390 . S
O967 Gd935 2.386 . S
O967 C979 1.265 . S
O968 Gd934 2.353 . S
O968 C979 1.242 . S
O969 Gd934 2.468 . S
O969 C987 1.263 . S
O970 Gd934 2.427 . S
O970 C987 1.252 . S
O971 Gd935 2.307 . S
O971 C980 1.261 . S
O972 Gd934 2.388 . S
O972 C980 1.252 . S
O973 Gd934 2.386 . S
O973 C991 1.265 . S
O974 Gd935 2.353 . S
O974 C991 1.242 . S
O975 Gd935 2.468 1_556 S
O975 C999 1.263 . S
O976 Gd935 2.427 1_556 S
O976 C999 1.252 . S
O977 Gd934 2.307 . S
O977 C992 1.261 . S
O978 Gd935 2.388 . S
O978 C992 1.252 . S
C979 O967 1.265 . S
C979 O968 1.242 . S
C980 O971 1.261 . S
C980 O972 1.252 . S
C981 C984 1.394 . S
C981 C986 1.370 . S
C981 C987 1.500 . S
C982 C985 1.383 . S
C982 C986 1.395 . S
C983 C984 1.396 . S
C983 C985 1.365 . S
C983 H1000 0.929 . S
C984 C981 1.394 . S
C984 C983 1.396 . S
C984 H1001 0.930 . S
C985 C982 1.383 . S
C985 C983 1.365 . S
C985 H1002 0.931 . S
C986 C981 1.370 . S
C986 C982 1.395 . S
C986 H1003 0.930 . S
C987 Gd934 2.805 . S
C987 O969 1.263 . S
C987 O970 1.252 . S
C987 C981 1.500 . S
C988 H950 0.930 . S
C988 C964 1.417 1_545 S
C988 C989 1.329 . S
C989 C959 1.436 1_545 S
C989 H960 0.930 . S
C989 C988 1.329 . S
H990 C963 0.931 1_545 S
C991 O973 1.265 . S
C991 O974 1.242 . S
C992 O977 1.261 . S
C992 O978 1.252 . S
C993 C996 1.394 . S
C993 C998 1.370 . S
C993 C999 1.500 . S
C994 C997 1.383 . S
C994 C998 1.395 . S
C995 C996 1.396 . S
C995 C997 1.365 . S
C995 H1004 0.929 . S
C996 C993 1.394 . S
C996 C995 1.396 . S
C996 H1005 0.930 . S
C997 C994 1.383 . S
C997 C995 1.365 . S
C997 H1006 0.931 . S
C998 C993 1.370 . S
C998 C994 1.395 . S
C998 H1007 0.930 . S
C999 Gd935 2.805 1_556 S
C999 O975 1.263 . S
C999 O976 1.252 . S
C999 C993 1.500 . S
H1000 C983 0.929 . S
H1001 C984 0.930 . S
H1002 C985 0.931 . S
H1003 C986 0.930 . S
H1004 C995 0.929 . S
H1005 C996 0.930 . S
H1006 C997 0.931 . S
H1007 C998 0.930 . S
C1008 C1010 1.422 . S
C1008 C1012 1.415 . S
C1008 N1014 1.369 . S
C1009 C1010 1.421 . S
C1009 C1011 1.417 . S
C1009 C1021 1.422 . S
C1010 C1008 1.422 . S
C1010 C1009 1.421 . S
C1010 N1020 1.359 . S
C1011 C1009 1.417 . S
C1011 C1013 1.329 . S
C1011 H1030 0.930 1_655 S
C1012 C1008 1.415 . S
C1012 C1013 1.437 . S
C1012 C1016 1.413 . S
C1013 C1011 1.329 . S
C1013 C1012 1.437 . S
C1013 H1035 0.917 1_655 S
N1014 C1008 1.369 . S
N1014 C1015 1.338 . S
N1014 Gd1019 2.622 . S
C1015 N1014 1.338 . S
C1015 C1017 1.378 . S
C1015 H1027 0.929 . S
C1016 C1012 1.413 . S
C1016 C1017 1.348 . S
C1016 H1032 0.931 . S
C1017 C1015 1.378 . S
C1017 C1016 1.348 . S
C1017 H1033 0.930 . S
Gd1018 N1038 2.622 . S
Gd1018 N1045 2.570 1_554 S
Gd1018 O1052 2.353 . S
Gd1018 O1053 2.468 1_554 S
Gd1018 O1054 2.427 1_554 S
Gd1018 O1056 2.388 . S
Gd1018 O1057 2.386 . S
Gd1018 O1061 2.307 . S
Gd1018 C1071 2.805 1_554 S
Gd1019 N1014 2.622 . S
Gd1019 N1020 2.570 . S
Gd1019 O1051 2.386 . S
Gd1019 O1055 2.307 . S
Gd1019 O1058 2.353 . S
Gd1019 O1059 2.468 . S
Gd1019 O1060 2.427 . S
Gd1019 O1062 2.388 . S
Gd1019 C1083 2.805 . S
N1020 C1010 1.359 . S
N1020 Gd1019 2.570 . S
N1020 C1022 1.343 . S
C1021 C1009 1.422 . S
C1021 C1023 1.321 . S
C1021 H1029 0.931 . S
C1022 N1020 1.343 . S
C1022 C1023 1.390 . S
C1022 H1024 0.931 . S
C1023 C1021 1.321 . S
C1023 C1022 1.390 . S
C1023 H1025 0.930 . S
H1024 C1022 0.931 . S
H1025 C1023 0.930 . S
H1026 C1049 0.931 . S
H1027 C1015 0.929 . S
H1028 C1050 0.930 . S
H1029 C1021 0.931 . S
H1030 C1011 0.930 1_455 S
H1031 C1040 0.929 . S
H1032 C1016 0.931 . S
H1033 C1017 0.930 . S
H1034 C1072 0.930 . S
H1035 C1013 0.917 1_455 S
H1036 C1041 0.931 . S
H1037 C1042 0.930 . S
N1038 Gd1018 2.622 . S
N1038 C1039 1.369 . S
N1038 C1040 1.338 . S
C1039 N1038 1.369 . S
C1039 C1043 1.415 1_554 S
C1039 C1046 1.422 1_554 S
C1040 H1031 0.929 . S
C1040 N1038 1.338 . S
C1040 C1042 1.378 . S
C1041 H1036 0.931 . S
C1041 C1042 1.348 . S
C1041 C1043 1.413 1_554 S
C1042 H1037 0.930 . S
C1042 C1040 1.378 . S
C1042 C1041 1.348 . S
C1043 C1039 1.415 1_556 S
C1043 C1041 1.413 1_556 S
C1043 C1073 1.437 . S
H1044 C1073 0.929 . S
N1045 Gd1018 2.570 1_556 S
N1045 C1046 1.359 . S
N1045 C1049 1.343 . S
C1046 C1039 1.422 1_556 S
C1046 N1045 1.359 . S
C1046 C1048 1.421 . S
C1047 C1048 1.422 . S
C1047 C1050 1.321 . S
C1047 H1074 0.931 . S
C1048 C1046 1.421 . S
C1048 C1047 1.422 . S
C1048 C1072 1.417 . S
C1049 H1026 0.931 . S
C1049 N1045 1.343 . S
C1049 C1050 1.390 . S
C1050 H1028 0.930 . S
C1050 C1047 1.321 . S
C1050 C1049 1.390 . S
O1051 Gd1019 2.386 . S
O1051 C1063 1.265 . S
O1052 Gd1018 2.353 . S
O1052 C1063 1.242 . S
O1053 Gd1018 2.468 1_556 S
O1053 C1071 1.263 . S
O1054 Gd1018 2.427 1_556 S
O1054 C1071 1.252 . S
O1055 Gd1019 2.307 . S
O1055 C1064 1.261 . S
O1056 Gd1018 2.388 . S
O1056 C1064 1.252 . S
O1057 Gd1018 2.386 . S
O1057 C1075 1.265 . S
O1058 Gd1019 2.353 . S
O1058 C1075 1.242 . S
O1059 Gd1019 2.468 . S
O1059 C1083 1.263 . S
O1060 Gd1019 2.427 . S
O1060 C1083 1.252 . S
O1061 Gd1018 2.307 . S
O1061 C1076 1.261 . S
O1062 Gd1019 2.388 . S
O1062 C1076 1.252 . S
C1063 O1051 1.265 . S
C1063 O1052 1.242 . S
C1064 O1055 1.261 . S
C1064 O1056 1.252 . S
C1065 C1068 1.394 . S
C1065 C1070 1.370 . S
C1065 C1071 1.500 . S
C1066 C1069 1.383 . S
C1066 C1070 1.395 . S
C1067 C1068 1.396 . S
C1067 C1069 1.365 . S
C1067 H1084 0.929 . S
C1068 C1065 1.394 . S
C1068 C1067 1.396 . S
C1068 H1085 0.930 . S
C1069 C1066 1.383 . S
C1069 C1067 1.365 . S
C1069 H1086 0.931 . S
C1070 C1065 1.370 . S
C1070 C1066 1.395 . S
C1070 H1087 0.930 . S
C1071 Gd1018 2.805 1_556 S
C1071 O1053 1.263 . S
C1071 O1054 1.252 . S
C1071 C1065 1.500 . S
C1072 H1034 0.930 . S
C1072 C1048 1.417 . S
C1072 C1073 1.329 . S
C1073 C1043 1.437 . S
C1073 H1044 0.929 . S
C1073 C1072 1.329 . S
H1074 C1047 0.931 . S
C1075 O1057 1.265 . S
C1075 O1058 1.242 . S
C1076 O1061 1.261 . S
C1076 O1062 1.252 . S
C1077 C1080 1.394 . S
C1077 C1082 1.370 . S
C1077 C1083 1.500 . S
C1078 C1081 1.383 . S
C1078 C1082 1.395 . S
C1079 C1080 1.396 . S
C1079 C1081 1.365 . S
C1079 H1088 0.929 . S
C1080 C1077 1.394 . S
C1080 C1079 1.396 . S
C1080 H1089 0.930 . S
C1081 C1078 1.383 . S
C1081 C1079 1.365 . S
C1081 H1090 0.931 . S
C1082 C1077 1.370 . S
C1082 C1078 1.395 . S
C1082 H1091 0.930 . S
C1083 Gd1019 2.805 . S
C1083 O1059 1.263 . S
C1083 O1060 1.252 . S
C1083 C1077 1.500 . S
H1084 C1067 0.929 . S
H1085 C1068 0.930 . S
H1086 C1069 0.931 . S
H1087 C1070 0.930 . S
H1088 C1079 0.929 . S
H1089 C1080 0.930 . S
H1090 C1081 0.931 . S
H1091 C1082 0.930 . S
C1092 C1094 1.422 . S
C1092 C1096 1.415 . S
C1092 N1098 1.369 . S
C1093 C1094 1.421 . S
C1093 C1095 1.417 . S
C1093 C1105 1.422 . S
C1094 C1092 1.422 . S
C1094 C1093 1.421 . S
C1094 N1104 1.359 . S
C1095 C1093 1.417 . S
C1095 C1097 1.329 . S
C1095 H1114 0.930 1_455 S
C1096 C1092 1.415 . S
C1096 C1097 1.437 . S
C1096 C1100 1.413 . S
C1097 C1095 1.329 . S
C1097 C1096 1.437 . S
C1097 H1119 0.910 1_455 S
N1098 C1092 1.369 . S
N1098 C1099 1.338 . S
N1098 Gd1103 2.622 . S
C1099 N1098 1.338 . S
C1099 C1101 1.378 . S
C1099 H1111 0.929 . S
C1100 C1096 1.413 . S
C1100 C1101 1.348 . S
C1100 H1116 0.931 . S
C1101 C1099 1.378 . S
C1101 C1100 1.348 . S
C1101 H1117 0.930 . S
Gd1102 N1122 2.622 . S
Gd1102 N1129 2.570 . S
Gd1102 O1136 2.353 . S
Gd1102 O1137 2.468 1_556 S
Gd1102 O1138 2.427 1_556 S
Gd1102 O1140 2.388 . S
Gd1102 O1141 2.386 . S
Gd1102 O1145 2.307 . S
Gd1102 C1155 2.805 1_556 S
Gd1103 N1098 2.622 . S
Gd1103 N1104 2.570 . S
Gd1103 O1135 2.386 . S
Gd1103 O1139 2.307 . S
Gd1103 O1142 2.353 . S
Gd1103 O1143 2.468 . S
Gd1103 O1144 2.427 . S
Gd1103 O1146 2.388 . S
Gd1103 C1167 2.805 . S
N1104 C1094 1.359 . S
N1104 Gd1103 2.570 . S
N1104 C1106 1.343 . S
C1105 C1093 1.422 . S
C1105 C1107 1.321 . S
C1105 H1113 0.931 . S
C1106 N1104 1.343 . S
C1106 C1107 1.390 . S
C1106 H1108 0.931 . S
C1107 C1105 1.321 . S
C1107 C1106 1.390 . S
C1107 H1109 0.930 . S
H1108 C1106 0.931 . S
H1109 C1107 0.930 . S
H1110 C1133 0.931 . S
H1111 C1099 0.929 . S
H1112 C1134 0.930 . S
H1113 C1105 0.931 . S
H1114 C1095 0.930 1_655 S
H1115 C1124 0.929 . S
H1116 C1100 0.931 . S
H1117 C1101 0.930 . S
H1118 C1156 0.930 . S
H1119 C1097 0.910 1_655 S
H1120 C1125 0.931 . S
H1121 C1126 0.930 . S
N1122 Gd1102 2.622 . S
N1122 C1123 1.369 . S
N1122 C1124 1.338 . S
C1123 N1122 1.369 . S
C1123 C1127 1.415 1_556 S
C1123 C1130 1.422 1_556 S
C1124 H1115 0.929 . S
C1124 N1122 1.338 . S
C1124 C1126 1.378 . S
C1125 H1120 0.931 . S
C1125 C1126 1.348 . S
C1125 C1127 1.412 1_556 S
C1126 H1121 0.930 . S
C1126 C1124 1.378 . S
C1126 C1125 1.348 . S
C1127 C1123 1.415 1_554 S
C1127 C1125 1.412 1_554 S
C1127 C1157 1.438 . S
H1128 C1157 0.929 . S
N1129 Gd1102 2.570 . S
N1129 C1130 1.359 1_556 S
N1129 C1133 1.343 1_556 S
C1130 C1123 1.422 1_554 S
C1130 N1129 1.359 1_554 S
C1130 C1132 1.421 . S
C1131 C1132 1.422 . S
C1131 C1134 1.321 . S
C1131 H1158 0.931 . S
C1132 C1130 1.421 . S
C1132 C1131 1.422 . S
C1132 C1156 1.417 . S
C1133 H1110 0.931 . S
C1133 N1129 1.343 1_554 S
C1133 C1134 1.390 . S
C1134 H1112 0.930 . S
C1134 C1131 1.321 . S
C1134 C1133 1.390 . S
O1135 Gd1103 2.386 . S
O1135 C1147 1.265 . S
O1136 Gd1102 2.353 . S
O1136 C1147 1.242 . S
O1137 Gd1102 2.468 1_554 S
O1137 C1155 1.263 . S
O1138 Gd1102 2.427 1_554 S
O1138 C1155 1.252 . S
O1139 Gd1103 2.307 . S
O1139 C1148 1.261 . S
O1140 Gd1102 2.388 . S
O1140 C1148 1.252 . S
O1141 Gd1102 2.386 . S
O1141 C1159 1.265 . S
O1142 Gd1103 2.353 . S
O1142 C1159 1.242 . S
O1143 Gd1103 2.468 . S
O1143 C1167 1.263 . S
O1144 Gd1103 2.427 . S
O1144 C1167 1.252 . S
O1145 Gd1102 2.307 . S
O1145 C1160 1.261 . S
O1146 Gd1103 2.388 . S
O1146 C1160 1.252 . S
C1147 O1135 1.265 . S
C1147 O1136 1.242 . S
C1148 O1139 1.261 . S
C1148 O1140 1.252 . S
C1149 C1152 1.394 . S
C1149 C1154 1.370 . S
C1149 C1155 1.500 . S
C1150 C1153 1.383 . S
C1150 C1154 1.395 . S
C1151 C1152 1.396 . S
C1151 C1153 1.365 . S
C1151 H1168 0.929 . S
C1152 C1149 1.394 . S
C1152 C1151 1.396 . S
C1152 H1169 0.930 . S
C1153 C1150 1.383 . S
C1153 C1151 1.365 . S
C1153 H1170 0.931 . S
C1154 C1149 1.370 . S
C1154 C1150 1.395 . S
C1154 H1171 0.930 . S
C1155 Gd1102 2.805 1_554 S
C1155 O1137 1.263 . S
C1155 O1138 1.252 . S
C1155 C1149 1.500 . S
C1156 H1118 0.930 . S
C1156 C1132 1.417 . S
C1156 C1157 1.329 . S
C1157 C1127 1.438 . S
C1157 H1128 0.929 . S
C1157 C1156 1.329 . S
H1158 C1131 0.931 . S
C1159 O1141 1.265 . S
C1159 O1142 1.242 . S
C1160 O1145 1.261 . S
C1160 O1146 1.252 . S
C1161 C1164 1.394 . S
C1161 C1166 1.370 . S
C1161 C1167 1.500 . S
C1162 C1165 1.383 . S
C1162 C1166 1.395 . S
C1163 C1164 1.396 . S
C1163 C1165 1.365 . S
C1163 H1172 0.929 . S
C1164 C1161 1.394 . S
C1164 C1163 1.396 . S
C1164 H1173 0.930 . S
C1165 C1162 1.383 . S
C1165 C1163 1.365 . S
C1165 H1174 0.931 . S
C1166 C1161 1.370 . S
C1166 C1162 1.395 . S
C1166 H1175 0.930 . S
C1167 Gd1103 2.805 . S
C1167 O1143 1.263 . S
C1167 O1144 1.252 . S
C1167 C1161 1.500 . S
H1168 C1151 0.929 . S
H1169 C1152 0.930 . S
H1170 C1153 0.931 . S
H1171 C1154 0.930 . S
H1172 C1163 0.929 . S
H1173 C1164 0.930 . S
H1174 C1165 0.931 . S
H1175 C1166 0.930 . S
C1176 C1178 1.422 . S
C1176 C1180 1.415 . S
C1176 N1182 1.369 . S
C1177 C1178 1.421 . S
C1177 C1179 1.417 . S
C1177 C1189 1.422 . S
C1178 C1176 1.422 . S
C1178 C1177 1.421 . S
C1178 N1188 1.359 . S
C1179 C1177 1.417 . S
C1179 C1181 1.329 . S
C1179 H1198 0.930 . S
C1180 C1176 1.415 . S
C1180 C1181 1.437 . S
C1180 C1184 1.413 . S
C1181 C1179 1.329 . S
C1181 C1180 1.437 . S
C1181 H1203 0.929 . S
N1182 C1176 1.369 . S
N1182 C1183 1.338 . S
N1182 Gd1187 2.622 . S
C1183 N1182 1.338 . S
C1183 C1185 1.378 . S
C1183 H1195 0.929 . S
C1184 C1180 1.413 . S
C1184 C1185 1.348 . S
C1184 H1200 0.931 . S
C1185 C1183 1.378 . S
C1185 C1184 1.348 . S
C1185 H1201 0.930 . S
Gd1186 N1206 2.622 . S
Gd1186 N1213 2.570 . S
Gd1186 O1220 2.353 . S
Gd1186 O1221 2.468 . S
Gd1186 O1222 2.427 . S
Gd1186 O1224 2.388 . S
Gd1186 O1225 2.386 . S
Gd1186 O1229 2.307 . S
Gd1186 C1239 2.805 . S
Gd1187 N1182 2.622 . S
Gd1187 N1188 2.570 . S
Gd1187 O1219 2.386 . S
Gd1187 O1223 2.307 . S
Gd1187 O1226 2.353 . S
Gd1187 O1227 2.468 . S
Gd1187 O1228 2.427 . S
Gd1187 O1230 2.388 . S
Gd1187 C1251 2.805 . S
N1188 C1178 1.359 . S
N1188 Gd1187 2.570 . S
N1188 C1190 1.343 . S
C1189 C1177 1.422 . S
C1189 C1191 1.321 . S
C1189 H1197 0.931 . S
C1190 N1188 1.343 . S
C1190 C1191 1.390 . S
C1190 H1192 0.931 . S
C1191 C1189 1.321 . S
C1191 C1190 1.390 . S
C1191 H1193 0.930 . S
H1192 C1190 0.931 . S
H1193 C1191 0.930 . S
H1194 C1217 0.931 . S
H1195 C1183 0.929 . S
H1196 C1218 0.930 . S
H1197 C1189 0.931 . S
H1198 C1179 0.930 . S
H1199 C1208 0.929 . S
H1200 C1184 0.931 . S
H1201 C1185 0.930 . S
H1202 C1240 0.930 . S
H1203 C1181 0.929 . S
H1204 C1209 0.931 . S
H1205 C1210 0.930 . S
N1206 Gd1186 2.622 . S
N1206 C1207 1.369 . S
N1206 C1208 1.338 . S
C1207 N1206 1.369 . S
C1207 C1211 1.415 . S
C1207 C1214 1.422 . S
C1208 H1199 0.929 . S
C1208 N1206 1.338 . S
C1208 C1210 1.378 . S
C1209 H1204 0.931 . S
C1209 C1210 1.348 . S
C1209 C1211 1.413 . S
C1210 H1205 0.930 . S
C1210 C1208 1.378 . S
C1210 C1209 1.348 . S
C1211 C1207 1.415 . S
C1211 C1209 1.413 . S
C1211 C1241 1.437 . S
H1212 C1241 0.929 . S
N1213 Gd1186 2.570 . S
N1213 C1214 1.359 . S
N1213 C1217 1.343 . S
C1214 C1207 1.422 . S
C1214 N1213 1.359 . S
C1214 C1216 1.421 . S
C1215 C1216 1.422 . S
C1215 C1218 1.321 . S
C1215 H1242 0.931 . S
C1216 C1214 1.421 . S
C1216 C1215 1.422 . S
C1216 C1240 1.417 . S
C1217 H1194 0.931 . S
C1217 N1213 1.343 . S
C1217 C1218 1.390 . S
C1218 H1196 0.930 . S
C1218 C1215 1.321 . S
C1218 C1217 1.390 . S
O1219 Gd1187 2.386 . S
O1219 C1231 1.265 . S
O1220 Gd1186 2.353 . S
O1220 C1231 1.242 . S
O1221 Gd1186 2.468 . S
O1221 C1239 1.263 . S
O1222 Gd1186 2.427 . S
O1222 C1239 1.252 . S
O1223 Gd1187 2.307 . S
O1223 C1232 1.261 . S
O1224 Gd1186 2.388 . S
O1224 C1232 1.252 . S
O1225 Gd1186 2.386 . S
O1225 C1243 1.265 . S
O1226 Gd1187 2.353 . S
O1226 C1243 1.242 . S
O1227 Gd1187 2.468 . S
O1227 C1251 1.263 . S
O1228 Gd1187 2.427 . S
O1228 C1251 1.252 . S
O1229 Gd1186 2.307 . S
O1229 C1244 1.261 . S
O1230 Gd1187 2.388 . S
O1230 C1244 1.252 . S
C1231 O1219 1.265 . S
C1231 O1220 1.242 . S
C1232 O1223 1.261 . S
C1232 O1224 1.252 . S
C1233 C1236 1.394 . S
C1233 C1238 1.370 . S
C1233 C1239 1.500 . S
C1234 C1237 1.383 . S
C1234 C1238 1.395 . S
C1235 C1236 1.396 . S
C1235 C1237 1.365 . S
C1235 H1252 0.929 . S
C1236 C1233 1.394 . S
C1236 C1235 1.396 . S
C1236 H1253 0.930 . S
C1237 C1234 1.383 . S
C1237 C1235 1.365 . S
C1237 H1254 0.931 1_556 S
C1238 C1233 1.370 . S
C1238 C1234 1.395 . S
C1238 H1255 0.930 . S
C1239 Gd1186 2.805 . S
C1239 O1221 1.263 . S
C1239 O1222 1.252 . S
C1239 C1233 1.500 . S
C1240 H1202 0.930 . S
C1240 C1216 1.417 . S
C1240 C1241 1.329 . S
C1241 C1211 1.437 . S
C1241 H1212 0.929 . S
C1241 C1240 1.329 . S
H1242 C1215 0.931 . S
C1243 O1225 1.265 . S
C1243 O1226 1.242 . S
C1244 O1229 1.261 . S
C1244 O1230 1.252 . S
C1245 C1248 1.394 . S
C1245 C1250 1.370 . S
C1245 C1251 1.500 . S
C1246 C1249 1.383 . S
C1246 C1250 1.395 . S
C1247 C1248 1.396 . S
C1247 C1249 1.365 . S
C1247 H1256 0.929 . S
C1248 C1245 1.394 . S
C1248 C1247 1.396 . S
C1248 H1257 0.930 . S
C1249 C1246 1.383 . S
C1249 C1247 1.365 . S
C1249 H1258 0.931 . S
C1250 C1245 1.370 . S
C1250 C1246 1.395 . S
C1250 H1259 0.930 . S
C1251 Gd1187 2.805 . S
C1251 O1227 1.263 . S
C1251 O1228 1.252 . S
C1251 C1245 1.500 . S
H1252 C1235 0.929 . S
H1253 C1236 0.930 . S
H1254 C1237 0.931 1_554 S
H1255 C1238 0.930 . S
H1256 C1247 0.929 . S
H1257 C1248 0.930 . S
H1258 C1249 0.931 . S
H1259 C1250 0.930 . S
C1260 C1262 1.422 . S
C1260 C1264 1.415 . S
C1260 N1266 1.369 . S
C1261 C1262 1.421 . S
C1261 C1263 1.417 . S
C1261 C1273 1.422 . S
C1262 C1260 1.422 . S
C1262 C1261 1.421 . S
C1262 N1272 1.359 . S
C1263 C1261 1.417 . S
C1263 C1265 1.329 . S
C1263 H1282 0.930 . S
C1264 C1260 1.415 . S
C1264 C1265 1.437 . S
C1264 C1268 1.413 . S
C1265 C1263 1.329 . S
C1265 C1264 1.437 . S
C1265 H1287 0.929 . S
N1266 C1260 1.369 . S
N1266 C1267 1.338 . S
N1266 Gd1271 2.622 . S
C1267 N1266 1.338 . S
C1267 C1269 1.378 . S
C1267 H1279 0.929 . S
C1268 C1264 1.413 . S
C1268 C1269 1.348 . S
C1268 H1284 0.931 . S
C1269 C1267 1.378 . S
C1269 C1268 1.348 . S
C1269 H1285 0.930 . S
Gd1270 N1290 2.622 . S
Gd1270 N1297 2.570 . S
Gd1270 O1304 2.353 . S
Gd1270 O1305 2.468 . S
Gd1270 O1306 2.427 . S
Gd1270 O1308 2.388 . S
Gd1270 O1309 2.386 . S
Gd1270 O1313 2.307 . S
Gd1270 C1323 2.805 . S
Gd1271 N1266 2.622 . S
Gd1271 N1272 2.570 . S
Gd1271 O1303 2.386 . S
Gd1271 O1307 2.307 . S
Gd1271 O1310 2.353 . S
Gd1271 O1311 2.468 . S
Gd1271 O1312 2.427 . S
Gd1271 O1314 2.388 . S
Gd1271 C1335 2.805 . S
N1272 C1262 1.359 . S
N1272 Gd1271 2.570 . S
N1272 C1274 1.343 . S
C1273 C1261 1.422 . S
C1273 C1275 1.321 . S
C1273 H1281 0.931 . S
C1274 N1272 1.343 . S
C1274 C1275 1.390 . S
C1274 H1276 0.931 . S
C1275 C1273 1.321 . S
C1275 C1274 1.390 . S
C1275 H1277 0.930 . S
H1276 C1274 0.931 . S
H1277 C1275 0.930 . S
H1278 C1301 0.931 . S
H1279 C1267 0.929 . S
H1280 C1302 0.930 . S
H1281 C1273 0.931 . S
H1282 C1263 0.930 . S
H1283 C1292 0.929 . S
H1284 C1268 0.931 . S
H1285 C1269 0.930 . S
H1286 C1324 0.930 . S
H1287 C1265 0.929 . S
H1288 C1293 0.931 . S
H1289 C1294 0.930 . S
N1290 Gd1270 2.622 . S
N1290 C1291 1.369 . S
N1290 C1292 1.338 . S
C1291 N1290 1.369 . S
C1291 C1295 1.415 . S
C1291 C1298 1.422 . S
C1292 H1283 0.929 . S
C1292 N1290 1.338 . S
C1292 C1294 1.378 . S
C1293 H1288 0.931 . S
C1293 C1294 1.348 . S
C1293 C1295 1.413 . S
C1294 H1289 0.930 . S
C1294 C1292 1.378 . S
C1294 C1293 1.348 . S
C1295 C1291 1.415 . S
C1295 C1293 1.413 . S
C1295 C1325 1.437 . S
H1296 C1325 0.929 . S
N1297 Gd1270 2.570 . S
N1297 C1298 1.359 . S
N1297 C1301 1.343 . S
C1298 C1291 1.422 . S
C1298 N1297 1.359 . S
C1298 C1300 1.421 . S
C1299 C1300 1.422 . S
C1299 C1302 1.321 . S
C1299 H1326 0.931 . S
C1300 C1298 1.421 . S
C1300 C1299 1.422 . S
C1300 C1324 1.417 . S
C1301 H1278 0.931 . S
C1301 N1297 1.343 . S
C1301 C1302 1.390 . S
C1302 H1280 0.930 . S
C1302 C1299 1.321 . S
C1302 C1301 1.390 . S
O1303 Gd1271 2.386 . S
O1303 C1315 1.265 . S
O1304 Gd1270 2.353 . S
O1304 C1315 1.242 . S
O1305 Gd1270 2.468 . S
O1305 C1323 1.263 . S
O1306 Gd1270 2.427 . S
O1306 C1323 1.252 . S
O1307 Gd1271 2.307 . S
O1307 C1316 1.261 . S
O1308 Gd1270 2.388 . S
O1308 C1316 1.252 . S
O1309 Gd1270 2.386 . S
O1309 C1327 1.265 . S
O1310 Gd1271 2.353 . S
O1310 C1327 1.242 . S
O1311 Gd1271 2.468 . S
O1311 C1335 1.263 . S
O1312 Gd1271 2.427 . S
O1312 C1335 1.252 . S
O1313 Gd1270 2.307 . S
O1313 C1328 1.261 . S
O1314 Gd1271 2.388 . S
O1314 C1328 1.252 . S
C1315 O1303 1.265 . S
C1315 O1304 1.242 . S
C1316 O1307 1.261 . S
C1316 O1308 1.252 . S
C1317 C1320 1.394 . S
C1317 C1322 1.370 . S
C1317 C1323 1.500 . S
C1318 C1321 1.383 . S
C1318 C1322 1.395 . S
C1319 C1320 1.396 . S
C1319 C1321 1.365 . S
C1319 H1336 0.929 . S
C1320 C1317 1.394 . S
C1320 C1319 1.396 . S
C1320 H1337 0.930 . S
C1321 C1318 1.383 . S
C1321 C1319 1.365 . S
C1321 H1338 0.931 . S
C1322 C1317 1.370 . S
C1322 C1318 1.395 . S
C1322 H1339 0.930 . S
C1323 Gd1270 2.805 . S
C1323 O1305 1.263 . S
C1323 O1306 1.252 . S
C1323 C1317 1.500 . S
C1324 H1286 0.930 . S
C1324 C1300 1.417 . S
C1324 C1325 1.329 . S
C1325 C1295 1.437 . S
C1325 H1296 0.929 . S
C1325 C1324 1.329 . S
H1326 C1299 0.931 . S
C1327 O1309 1.265 . S
C1327 O1310 1.242 . S
C1328 O1313 1.261 . S
C1328 O1314 1.252 . S
C1329 C1332 1.394 . S
C1329 C1334 1.370 . S
C1329 C1335 1.500 . S
C1330 C1333 1.383 . S
C1330 C1334 1.395 . S
C1331 C1332 1.396 . S
C1331 C1333 1.365 . S
C1331 H1340 0.929 . S
C1332 C1329 1.394 . S
C1332 C1331 1.396 . S
C1332 H1341 0.930 . S
C1333 C1330 1.383 . S
C1333 C1331 1.365 . S
C1333 H1342 0.931 1_554 S
C1334 C1329 1.370 . S
C1334 C1330 1.395 . S
C1334 H1343 0.930 . S
C1335 Gd1271 2.805 . S
C1335 O1311 1.263 . S
C1335 O1312 1.252 . S
C1335 C1329 1.500 . S
H1336 C1319 0.929 . S
H1337 C1320 0.930 . S
H1338 C1321 0.931 . S
H1339 C1322 0.930 . S
H1340 C1331 0.929 . S
H1341 C1332 0.930 . S
H1342 C1333 0.931 1_556 S
H1343 C1334 0.930 . S
H1344 C1350 0.930 . S
H1345 C1353 0.930 . S
H1346 C1354 0.930 . S
H1347 C1355 0.930 . S
H1348 C1358 0.930 . S
H1349 C1359 0.930 . S
C1350 H1344 0.930 . S
C1350 C1351 1.355 . S
C1350 C1352 1.415 . S
C1351 C1350 1.355 . S
C1351 C1353 1.419 . S
C1352 C1350 1.415 . S
C1352 C1357 1.425 . S
C1352 C1359 1.409 . S
C1353 H1345 0.930 . S
C1353 C1351 1.419 . S
C1353 C1354 1.362 . S
C1354 H1346 0.930 . S
C1354 C1353 1.362 . S
C1354 C1357 1.409 . S
C1355 H1347 0.930 . S
C1355 C1356 1.355 . S
C1355 C1357 1.415 . S
C1356 C1355 1.355 . S
C1356 C1358 1.419 . S
C1357 C1352 1.425 . S
C1357 C1354 1.409 . S
C1357 C1355 1.415 . S
C1358 H1348 0.930 . S
C1358 C1356 1.419 . S
C1358 C1359 1.362 . S
C1359 H1349 0.930 . S
C1359 C1352 1.409 . S
C1359 C1358 1.362 . S
H1360 C1366 0.930 . S
H1361 C1369 0.930 . S
H1362 C1370 0.930 . S
H1363 C1371 0.930 . S
H1364 C1374 0.930 . S
H1365 C1375 0.930 . S
C1366 H1360 0.930 . S
C1366 C1367 1.355 . S
C1366 C1368 1.415 . S
C1367 C1366 1.355 . S
C1367 C1369 1.419 . S
C1368 C1366 1.415 . S
C1368 C1373 1.425 . S
C1368 C1375 1.409 . S
C1369 H1361 0.930 . S
C1369 C1367 1.419 . S
C1369 C1370 1.362 . S
C1370 H1362 0.930 . S
C1370 C1369 1.362 . S
C1370 C1373 1.409 . S
C1371 H1363 0.930 . S
C1371 C1372 1.355 . S
C1371 C1373 1.415 . S
C1372 C1371 1.355 . S
C1372 C1374 1.419 . S
C1373 C1368 1.425 . S
C1373 C1370 1.409 . S
C1373 C1371 1.415 . S
C1374 H1364 0.930 . S
C1374 C1372 1.419 . S
C1374 C1375 1.362 . S
C1375 H1365 0.930 . S
C1375 C1368 1.409 . S
C1375 C1374 1.362 . S
H1376 C1382 0.930 . S
H1377 C1385 0.930 . S
H1378 C1386 0.930 . S
H1379 C1387 0.930 . S
H1380 C1390 0.930 . S
H1381 C1391 0.930 . S
C1382 H1376 0.930 . S
C1382 C1383 1.355 . S
C1382 C1384 1.415 . S
C1383 C1382 1.355 . S
C1383 C1385 1.419 . S
C1384 C1382 1.415 . S
C1384 C1389 1.425 . S
C1384 C1391 1.409 . S
C1385 H1377 0.930 . S
C1385 C1383 1.419 . S
C1385 C1386 1.362 . S
C1386 H1378 0.930 . S
C1386 C1385 1.362 . S
C1386 C1389 1.409 . S
C1387 H1379 0.930 . S
C1387 C1388 1.355 . S
C1387 C1389 1.415 . S
C1388 C1387 1.355 . S
C1388 C1390 1.419 . S
C1389 C1384 1.425 . S
C1389 C1386 1.409 . S
C1389 C1387 1.415 . S
C1390 H1380 0.930 . S
C1390 C1388 1.419 . S
C1390 C1391 1.362 . S
C1391 H1381 0.930 . S
C1391 C1384 1.409 . S
C1391 C1390 1.362 . S
H1392 C1398 0.930 . S
H1393 C1401 0.930 . S
H1394 C1402 0.930 . S
H1395 C1403 0.930 . S
H1396 C1406 0.930 . S
H1397 C1407 0.930 . S
C1398 H1392 0.930 . S
C1398 C1399 1.355 . S
C1398 C1400 1.415 . S
C1399 C1398 1.355 . S
C1399 C1401 1.419 . S
C1400 C1398 1.415 . S
C1400 C1405 1.425 . S
C1400 C1407 1.409 . S
C1401 H1393 0.930 . S
C1401 C1399 1.419 . S
C1401 C1402 1.362 . S
C1402 H1394 0.930 . S
C1402 C1401 1.362 . S
C1402 C1405 1.409 . S
C1403 H1395 0.930 . S
C1403 C1404 1.355 . S
C1403 C1405 1.415 . S
C1404 C1403 1.355 . S
C1404 C1406 1.419 . S
C1405 C1400 1.425 . S
C1405 C1402 1.409 . S
C1405 C1403 1.415 . S
C1406 H1396 0.930 . S
C1406 C1404 1.419 . S
C1406 C1407 1.362 . S
C1407 H1397 0.930 . S
C1407 C1400 1.409 . S
C1407 C1406 1.362 . S
H1408 C1414 0.930 . S
H1409 C1417 0.930 . S
H1410 C1418 0.930 . S
H1411 C1419 0.930 . S
H1412 C1422 0.930 . S
H1413 C1423 0.930 . S
C1414 H1408 0.930 . S
C1414 C1415 1.355 . S
C1414 C1416 1.415 . S
C1415 C1414 1.355 . S
C1415 C1417 1.419 . S
C1416 C1414 1.415 . S
C1416 C1421 1.425 . S
C1416 C1423 1.409 . S
C1417 H1409 0.930 . S
C1417 C1415 1.419 . S
C1417 C1418 1.362 . S
C1418 H1410 0.930 . S
C1418 C1417 1.362 . S
C1418 C1421 1.409 . S
C1419 H1411 0.930 . S
C1419 C1420 1.355 . S
C1419 C1421 1.415 . S
C1420 C1419 1.355 . S
C1420 C1422 1.419 . S
C1421 C1416 1.425 . S
C1421 C1418 1.409 . S
C1421 C1419 1.415 . S
C1422 H1412 0.930 . S
C1422 C1420 1.419 . S
C1422 C1423 1.362 . S
C1423 H1413 0.930 . S
C1423 C1416 1.409 . S
C1423 C1422 1.362 . S
H1424 C1430 0.930 . S
H1425 C1433 0.930 . S
H1426 C1434 0.930 . S
H1427 C1435 0.930 . S
H1428 C1438 0.930 . S
H1429 C1439 0.930 . S
C1430 H1424 0.930 . S
C1430 C1431 1.355 . S
C1430 C1432 1.415 . S
C1431 C1430 1.355 . S
C1431 C1433 1.419 . S
C1432 C1430 1.415 . S
C1432 C1437 1.425 . S
C1432 C1439 1.409 . S
C1433 H1425 0.930 . S
C1433 C1431 1.419 . S
C1433 C1434 1.362 . S
C1434 H1426 0.930 . S
C1434 C1433 1.362 . S
C1434 C1437 1.409 . S
C1435 H1427 0.930 . S
C1435 C1436 1.355 . S
C1435 C1437 1.415 . S
C1436 C1435 1.355 . S
C1436 C1438 1.419 . S
C1437 C1432 1.425 . S
C1437 C1434 1.409 . S
C1437 C1435 1.415 . S
C1438 H1428 0.930 . S
C1438 C1436 1.419 . S
C1438 C1439 1.362 . S
C1439 H1429 0.930 . S
C1439 C1432 1.409 . S
C1439 C1438 1.362 . S
H1440 C1446 0.930 . S
H1441 C1449 0.930 . S
H1442 C1450 0.930 . S
H1443 C1451 0.930 . S
H1444 C1454 0.930 . S
H1445 C1455 0.930 . S
C1446 H1440 0.930 . S
C1446 C1447 1.355 . S
C1446 C1448 1.415 . S
C1447 C1446 1.355 . S
C1447 C1449 1.419 . S
C1448 C1446 1.415 . S
C1448 C1453 1.425 . S
C1448 C1455 1.409 . S
C1449 H1441 0.930 . S
C1449 C1447 1.419 . S
C1449 C1450 1.362 . S
C1450 H1442 0.930 . S
C1450 C1449 1.362 . S
C1450 C1453 1.409 . S
C1451 H1443 0.930 . S
C1451 C1452 1.355 . S
C1451 C1453 1.415 . S
C1452 C1451 1.355 . S
C1452 C1454 1.419 . S
C1453 C1448 1.425 . S
C1453 C1450 1.409 . S
C1453 C1451 1.415 . S
C1454 H1444 0.930 . S
C1454 C1452 1.419 . S
C1454 C1455 1.362 . S
C1455 H1445 0.930 . S
C1455 C1448 1.409 . S
C1455 C1454 1.362 . S
H1456 C1462 0.930 . S
H1457 C1465 0.930 . S
H1458 C1466 0.930 . S
H1459 C1467 0.930 . S
H1460 C1470 0.930 . S
H1461 C1471 0.930 . S
C1462 H1456 0.930 . S
C1462 C1463 1.355 . S
C1462 C1464 1.415 . S
C1463 C1462 1.355 . S
C1463 C1465 1.419 . S
C1464 C1462 1.415 . S
C1464 C1469 1.425 . S
C1464 C1471 1.409 . S
C1465 H1457 0.930 . S
C1465 C1463 1.419 . S
C1465 C1466 1.362 . S
C1466 H1458 0.930 . S
C1466 C1465 1.362 . S
C1466 C1469 1.409 . S
C1467 H1459 0.930 . S
C1467 C1468 1.355 . S
C1467 C1469 1.415 . S
C1468 C1467 1.355 . S
C1468 C1470 1.419 . S
C1469 C1464 1.425 . S
C1469 C1466 1.409 . S
C1469 C1467 1.415 . S
C1470 H1460 0.930 . S
C1470 C1468 1.419 . S
C1470 C1471 1.362 . S
C1471 H1461 0.930 . S
C1471 C1464 1.409 . S
C1471 C1470 1.362 . S
H1472 C1478 0.930 . S
H1473 C1481 0.930 . S
H1474 C1482 0.930 . S
H1475 C1483 0.930 . S
H1476 C1486 0.930 . S
H1477 C1487 0.930 . S
C1478 H1472 0.930 . S
C1478 C1479 1.355 . S
C1478 C1480 1.415 . S
C1479 C1478 1.355 . S
C1479 C1481 1.419 . S
C1480 C1478 1.415 . S
C1480 C1485 1.425 . S
C1480 C1487 1.409 . S
C1481 H1473 0.930 . S
C1481 C1479 1.419 . S
C1481 C1482 1.362 . S
C1482 H1474 0.930 . S
C1482 C1481 1.362 . S
C1482 C1485 1.409 . S
C1483 H1475 0.930 . S
C1483 C1484 1.355 . S
C1483 C1485 1.415 . S
C1484 C1483 1.355 . S
C1484 C1486 1.419 . S
C1485 C1480 1.425 . S
C1485 C1482 1.409 . S
C1485 C1483 1.415 . S
C1486 H1476 0.930 . S
C1486 C1484 1.419 . S
C1486 C1487 1.362 . S
C1487 H1477 0.930 . S
C1487 C1480 1.409 . S
C1487 C1486 1.362 . S
H1488 C1494 0.930 . S
H1489 C1497 0.930 . S
H1490 C1498 0.930 . S
H1491 C1499 0.930 . S
H1492 C1502 0.930 . S
H1493 C1503 0.930 . S
C1494 H1488 0.930 . S
C1494 C1495 1.355 . S
C1494 C1496 1.415 . S
C1495 C1494 1.355 . S
C1495 C1497 1.419 . S
C1496 C1494 1.415 . S
C1496 C1501 1.425 . S
C1496 C1503 1.409 . S
C1497 H1489 0.930 . S
C1497 C1495 1.419 . S
C1497 C1498 1.362 . S
C1498 H1490 0.930 . S
C1498 C1497 1.362 . S
C1498 C1501 1.409 . S
C1499 H1491 0.930 . S
C1499 C1500 1.355 . S
C1499 C1501 1.415 . S
C1500 C1499 1.355 . S
C1500 C1502 1.419 . S
C1501 C1496 1.425 . S
C1501 C1498 1.409 . S
C1501 C1499 1.415 . S
C1502 H1492 0.930 . S
C1502 C1500 1.419 . S
C1502 C1503 1.362 . S
C1503 H1493 0.930 . S
C1503 C1496 1.409 . S
C1503 C1502 1.362 . S
H1504 C1510 0.930 . S
H1505 C1513 0.930 . S
H1506 C1514 0.930 . S
H1507 C1515 0.930 . S
H1508 C1518 0.930 . S
H1509 C1519 0.930 . S
C1510 H1504 0.930 . S
C1510 C1511 1.355 . S
C1510 C1512 1.415 . S
C1511 C1510 1.355 . S
C1511 C1513 1.419 . S
C1512 C1510 1.415 . S
C1512 C1517 1.425 . S
C1512 C1519 1.409 . S
C1513 H1505 0.930 . S
C1513 C1511 1.419 . S
C1513 C1514 1.362 . S
C1514 H1506 0.930 . S
C1514 C1513 1.362 . S
C1514 C1517 1.409 . S
C1515 H1507 0.930 . S
C1515 C1516 1.355 . S
C1515 C1517 1.415 . S
C1516 C1515 1.355 . S
C1516 C1518 1.419 . S
C1517 C1512 1.425 . S
C1517 C1514 1.409 . S
C1517 C1515 1.415 . S
C1518 H1508 0.930 . S
C1518 C1516 1.419 . S
C1518 C1519 1.362 . S
C1519 H1509 0.930 . S
C1519 C1512 1.409 . S
C1519 C1518 1.362 . S
H1520 C1526 0.930 . S
H1521 C1529 0.930 . S
H1522 C1530 0.930 . S
H1523 C1531 0.930 . S
H1524 C1534 0.930 . S
H1525 C1535 0.930 . S
C1526 H1520 0.930 . S
C1526 C1527 1.355 . S
C1526 C1528 1.415 . S
C1527 C1526 1.355 . S
C1527 C1529 1.419 . S
C1528 C1526 1.415 . S
C1528 C1533 1.425 . S
C1528 C1535 1.409 . S
C1529 H1521 0.930 . S
C1529 C1527 1.419 . S
C1529 C1530 1.362 . S
C1530 H1522 0.930 . S
C1530 C1529 1.362 . S
C1530 C1533 1.409 . S
C1531 H1523 0.930 . S
C1531 C1532 1.355 . S
C1531 C1533 1.415 . S
C1532 C1531 1.355 . S
C1532 C1534 1.419 . S
C1533 C1528 1.425 . S
C1533 C1530 1.409 . S
C1533 C1531 1.415 . S
C1534 H1524 0.930 . S
C1534 C1532 1.419 . S
C1534 C1535 1.362 . S
C1535 H1525 0.930 . S
C1535 C1528 1.409 . S
C1535 C1534 1.362 . S
H1536 C1542 0.930 . S
H1537 C1545 0.930 . S
H1538 C1546 0.930 . S
H1539 C1547 0.930 . S
H1540 C1550 0.930 . S
H1541 C1551 0.930 . S
C1542 H1536 0.930 . S
C1542 C1543 1.355 . S
C1542 C1544 1.415 . S
C1543 C1542 1.355 . S
C1543 C1545 1.419 . S
C1544 C1542 1.415 . S
C1544 C1549 1.425 . S
C1544 C1551 1.409 . S
C1545 H1537 0.930 . S
C1545 C1543 1.419 . S
C1545 C1546 1.362 . S
C1546 H1538 0.930 . S
C1546 C1545 1.362 . S
C1546 C1549 1.409 . S
C1547 H1539 0.930 . S
C1547 C1548 1.355 . S
C1547 C1549 1.415 . S
C1548 C1547 1.355 . S
C1548 C1550 1.419 . S
C1549 C1544 1.425 . S
C1549 C1546 1.409 . S
C1549 C1547 1.415 . S
C1550 H1540 0.930 . S
C1550 C1548 1.419 . S
C1550 C1551 1.362 . S
C1551 H1541 0.930 . S
C1551 C1544 1.409 . S
C1551 C1550 1.362 . S
H1552 C1558 0.930 . S
H1553 C1561 0.930 . S
H1554 C1562 0.930 . S
H1555 C1563 0.930 . S
H1556 C1566 0.930 . S
H1557 C1567 0.930 . S
C1558 H1552 0.930 . S
C1558 C1559 1.355 . S
C1558 C1560 1.415 . S
C1559 C1558 1.355 . S
C1559 C1561 1.419 . S
C1560 C1558 1.415 . S
C1560 C1565 1.425 . S
C1560 C1567 1.409 . S
C1561 H1553 0.930 . S
C1561 C1559 1.419 . S
C1561 C1562 1.362 . S
C1562 H1554 0.930 . S
C1562 C1561 1.362 . S
C1562 C1565 1.409 . S
C1563 H1555 0.930 . S
C1563 C1564 1.355 . S
C1563 C1565 1.415 . S
C1564 C1563 1.355 . S
C1564 C1566 1.419 . S
C1565 C1560 1.425 . S
C1565 C1562 1.409 . S
C1565 C1563 1.415 . S
C1566 H1556 0.930 . S
C1566 C1564 1.419 . S
C1566 C1567 1.362 . S
C1567 H1557 0.930 . S
C1567 C1560 1.409 . S
C1567 C1566 1.362 . S
H1568 C1574 0.930 . S
H1569 C1577 0.930 . S
H1570 C1578 0.930 . S
H1571 C1579 0.930 . S
H1572 C1582 0.930 . S
H1573 C1583 0.930 . S
C1574 H1568 0.930 . S
C1574 C1575 1.355 . S
C1574 C1576 1.415 . S
C1575 C1574 1.355 . S
C1575 C1577 1.419 . S
C1576 C1574 1.415 . S
C1576 C1581 1.425 . S
C1576 C1583 1.409 . S
C1577 H1569 0.930 . S
C1577 C1575 1.419 . S
C1577 C1578 1.362 . S
C1578 H1570 0.930 . S
C1578 C1577 1.362 . S
C1578 C1581 1.409 . S
C1579 H1571 0.930 . S
C1579 C1580 1.355 . S
C1579 C1581 1.415 . S
C1580 C1579 1.355 . S
C1580 C1582 1.419 . S
C1581 C1576 1.425 . S
C1581 C1578 1.409 . S
C1581 C1579 1.415 . S
C1582 H1572 0.930 . S
C1582 C1580 1.419 . S
C1582 C1583 1.362 . S
C1583 H1573 0.930 . S
C1583 C1576 1.409 . S
C1583 C1582 1.362 . S
H1584 C1590 0.930 . S
H1585 C1593 0.930 1_554 S
H1586 C1594 0.930 . S
H1587 C1595 0.930 . S
H1588 C1598 0.930 . S
H1589 C1599 0.930 . S
C1590 H1584 0.930 . S
C1590 C1591 1.355 . S
C1590 C1592 1.415 . S
C1591 C1590 1.355 . S
C1591 C1593 1.419 . S
C1592 C1590 1.415 . S
C1592 C1597 1.425 . S
C1592 C1599 1.409 . S
C1593 H1585 0.930 1_556 S
C1593 C1591 1.419 . S
C1593 C1594 1.362 . S
C1594 H1586 0.930 . S
C1594 C1593 1.362 . S
C1594 C1597 1.409 . S
C1595 H1587 0.930 . S
C1595 C1596 1.355 . S
C1595 C1597 1.415 . S
C1596 C1595 1.355 . S
C1596 C1598 1.419 . S
C1597 C1592 1.425 . S
C1597 C1594 1.409 . S
C1597 C1595 1.415 . S
C1598 H1588 0.930 . S
C1598 C1596 1.419 . S
C1598 C1599 1.362 . S
C1599 H1589 0.930 . S
C1599 C1592 1.409 . S
C1599 C1598 1.362 . S
H1600 C1606 0.930 . S
H1601 C1609 0.930 . S
H1602 C1610 0.930 . S
H1603 C1611 0.930 . S
H1604 C1614 0.930 . S
H1605 C1615 0.930 . S
C1606 H1600 0.930 . S
C1606 C1607 1.355 . S
C1606 C1608 1.415 . S
C1607 C1606 1.355 . S
C1607 C1609 1.419 . S
C1608 C1606 1.415 . S
C1608 C1613 1.425 . S
C1608 C1615 1.409 . S
C1609 H1601 0.930 . S
C1609 C1607 1.419 . S
C1609 C1610 1.362 . S
C1610 H1602 0.930 . S
C1610 C1609 1.362 . S
C1610 C1613 1.409 . S
C1611 H1603 0.930 . S
C1611 C1612 1.355 . S
C1611 C1613 1.415 . S
C1612 C1611 1.355 . S
C1612 C1614 1.419 . S
C1613 C1608 1.425 . S
C1613 C1610 1.409 . S
C1613 C1611 1.415 . S
C1614 H1604 0.930 . S
C1614 C1612 1.419 . S
C1614 C1615 1.362 . S
C1615 H1605 0.930 . S
C1615 C1608 1.409 . S
C1615 C1614 1.362 . S
H1616 C1622 0.930 . S
H1617 C1625 0.930 . S
H1618 C1626 0.930 . S
H1619 C1627 0.930 . S
H1620 C1630 0.930 . S
H1621 C1631 0.930 . S
C1622 H1616 0.930 . S
C1622 C1623 1.355 . S
C1622 C1624 1.415 . S
C1623 C1622 1.355 . S
C1623 C1625 1.419 . S
C1624 C1622 1.415 . S
C1624 C1629 1.425 . S
C1624 C1631 1.409 . S
C1625 H1617 0.930 . S
C1625 C1623 1.419 . S
C1625 C1626 1.362 . S
C1626 H1618 0.930 . S
C1626 C1625 1.362 . S
C1626 C1629 1.409 . S
C1627 H1619 0.930 . S
C1627 C1628 1.355 . S
C1627 C1629 1.415 . S
C1628 C1627 1.355 . S
C1628 C1630 1.419 . S
C1629 C1624 1.425 . S
C1629 C1626 1.409 . S
C1629 C1627 1.415 . S
C1630 H1620 0.930 . S
C1630 C1628 1.419 . S
C1630 C1631 1.362 . S
C1631 H1621 0.930 . S
C1631 C1624 1.409 . S
C1631 C1630 1.362 . S
H1632 C1638 0.930 . S
H1633 C1641 0.930 . S
H1634 C1642 0.930 . S
H1635 C1643 0.930 . S
H1636 C1646 0.930 . S
H1637 C1647 0.930 . S
C1638 H1632 0.930 . S
C1638 C1639 1.355 . S
C1638 C1640 1.415 . S
C1639 C1638 1.355 . S
C1639 C1641 1.419 . S
C1640 C1638 1.415 . S
C1640 C1645 1.425 . S
C1640 C1647 1.409 . S
C1641 H1633 0.930 . S
C1641 C1639 1.419 . S
C1641 C1642 1.362 . S
C1642 H1634 0.930 . S
C1642 C1641 1.362 . S
C1642 C1645 1.409 . S
C1643 H1635 0.930 . S
C1643 C1644 1.355 . S
C1643 C1645 1.415 . S
C1644 C1643 1.355 . S
C1644 C1646 1.419 . S
C1645 C1640 1.425 . S
C1645 C1642 1.409 . S
C1645 C1643 1.415 . S
C1646 H1636 0.930 . S
C1646 C1644 1.419 . S
C1646 C1647 1.362 . S
C1647 H1637 0.930 . S
C1647 C1640 1.409 . S
C1647 C1646 1.362 . S
H1648 C1654 0.930 . S
H1649 C1657 0.930 . S
H1650 C1658 0.930 . S
H1651 C1659 0.930 . S
H1652 C1662 0.930 1_554 S
H1653 C1663 0.930 1_554 S
C1654 H1648 0.930 . S
C1654 C1655 1.355 . S
C1654 C1656 1.415 . S
C1655 C1654 1.355 . S
C1655 C1657 1.419 . S
C1656 C1654 1.415 . S
C1656 C1661 1.425 1_655 S
C1656 C1663 1.409 1_655 S
C1657 H1649 0.930 . S
C1657 C1655 1.419 . S
C1657 C1658 1.362 . S
C1658 H1650 0.930 . S
C1658 C1657 1.362 . S
C1658 C1661 1.409 1_655 S
C1659 H1651 0.930 . S
C1659 C1660 1.355 . S
C1659 C1661 1.415 . S
C1660 C1659 1.355 . S
C1660 C1662 1.419 . S
C1661 C1656 1.425 1_455 S
C1661 C1658 1.409 1_455 S
C1661 C1659 1.415 . S
C1662 H1652 0.930 1_556 S
C1662 C1660 1.419 . S
C1662 C1663 1.362 . S
C1663 H1653 0.930 1_556 S
C1663 C1656 1.409 1_455 S
C1663 C1662 1.362 . S
H1664 C1670 0.930 . S
H1665 C1673 0.930 . S
H1666 C1674 0.930 . S
H1667 C1675 0.930 . S
H1668 C1678 0.930 . S
H1669 C1679 0.930 . S
C1670 H1664 0.930 . S
C1670 C1671 1.355 . S
C1670 C1672 1.415 . S
C1671 C1670 1.355 . S
C1671 C1673 1.419 . S
C1672 C1670 1.415 . S
C1672 C1677 1.425 . S
C1672 C1679 1.409 . S
C1673 H1665 0.930 . S
C1673 C1671 1.419 . S
C1673 C1674 1.362 . S
C1674 H1666 0.930 . S
C1674 C1673 1.362 . S
C1674 C1677 1.409 . S
C1675 H1667 0.930 . S
C1675 C1676 1.355 . S
C1675 C1677 1.415 . S
C1676 C1675 1.355 . S
C1676 C1678 1.419 . S
C1677 C1672 1.425 . S
C1677 C1674 1.409 . S
C1677 C1675 1.415 . S
C1678 H1668 0.930 . S
C1678 C1676 1.419 . S
C1678 C1679 1.362 . S
C1679 H1669 0.930 . S
C1679 C1672 1.409 . S
C1679 C1678 1.362 . S
H1680 C1686 0.930 . S
H1681 C1689 0.930 . S
H1682 C1690 0.930 . S
H1683 C1691 0.930 . S
H1684 C1694 0.930 . S
H1685 C1695 0.930 . S
C1686 H1680 0.930 . S
C1686 C1687 1.355 . S
C1686 C1688 1.415 . S
C1687 C1686 1.355 . S
C1687 C1689 1.419 . S
C1688 C1686 1.415 . S
C1688 C1693 1.425 1_455 S
C1688 C1695 1.409 1_455 S
C1689 H1681 0.930 . S
C1689 C1687 1.419 . S
C1689 C1690 1.362 . S
C1690 H1682 0.930 . S
C1690 C1689 1.362 . S
C1690 C1693 1.409 1_455 S
C1691 H1683 0.930 . S
C1691 C1692 1.355 . S
C1691 C1693 1.415 . S
C1692 C1691 1.355 . S
C1692 C1694 1.419 . S
C1693 C1688 1.425 1_655 S
C1693 C1690 1.409 1_655 S
C1693 C1691 1.415 . S
C1694 H1684 0.930 . S
C1694 C1692 1.419 . S
C1694 C1695 1.362 . S
C1695 H1685 0.930 . S
C1695 C1688 1.409 1_655 S
C1695 C1694 1.362 . S
H1696 C1702 0.930 . S
H1697 C1705 0.930 . S
H1698 C1706 0.930 . S
H1699 C1707 0.930 . S
H1700 C1710 0.930 . S
H1701 C1711 0.930 . S
C1702 H1696 0.930 . S
C1702 C1703 1.355 . S
C1702 C1704 1.415 . S
C1703 C1702 1.355 . S
C1703 C1705 1.419 . S
C1704 C1702 1.415 . S
C1704 C1709 1.425 . S
C1704 C1711 1.409 . S
C1705 H1697 0.930 . S
C1705 C1703 1.419 . S
C1705 C1706 1.362 . S
C1706 H1698 0.930 . S
C1706 C1705 1.362 . S
C1706 C1709 1.409 . S
C1707 H1699 0.930 . S
C1707 C1708 1.355 . S
C1707 C1709 1.415 . S
C1708 C1707 1.355 . S
C1708 C1710 1.419 . S
C1709 C1704 1.425 . S
C1709 C1706 1.409 . S
C1709 C1707 1.415 . S
C1710 H1700 0.930 . S
C1710 C1708 1.419 . S
C1710 C1711 1.362 . S
C1711 H1701 0.930 . S
C1711 C1704 1.409 . S
C1711 C1710 1.362 . S
H1712 C1718 0.930 . S
H1713 C1721 0.930 . S
H1714 C1722 0.930 . S
H1715 C1723 0.930 . S
H1716 C1726 0.930 . S
H1717 C1727 0.930 . S
C1718 H1712 0.930 . S
C1718 C1719 1.355 . S
C1718 C1720 1.415 . S
C1719 C1718 1.355 . S
C1719 C1721 1.419 . S
C1720 C1718 1.415 . S
C1720 C1725 1.425 . S
C1720 C1727 1.409 . S
C1721 H1713 0.930 . S
C1721 C1719 1.419 . S
C1721 C1722 1.362 . S
C1722 H1714 0.930 . S
C1722 C1721 1.362 . S
C1722 C1725 1.409 . S
C1723 H1715 0.930 . S
C1723 C1724 1.355 . S
C1723 C1725 1.415 . S
C1724 C1723 1.355 . S
C1724 C1726 1.419 . S
C1725 C1720 1.425 . S
C1725 C1722 1.409 . S
C1725 C1723 1.415 . S
C1726 H1716 0.930 . S
C1726 C1724 1.419 . S
C1726 C1727 1.362 . S
C1727 H1717 0.930 . S
C1727 C1720 1.409 . S
C1727 C1726 1.362 . S
H1728 C1734 0.930 . S
H1729 C1737 0.930 . S
H1730 C1738 0.930 . S
H1731 C1739 0.930 . S
H1732 C1742 0.930 . S
H1733 C1743 0.930 . S
C1734 H1728 0.930 . S
C1734 C1735 1.355 . S
C1734 C1736 1.415 . S
C1735 C1734 1.355 . S
C1735 C1737 1.419 . S
C1736 C1734 1.415 . S
C1736 C1741 1.425 . S
C1736 C1743 1.409 . S
C1737 H1729 0.930 . S
C1737 C1735 1.419 . S
C1737 C1738 1.362 . S
C1738 H1730 0.930 . S
C1738 C1737 1.362 . S
C1738 C1741 1.409 . S
C1739 H1731 0.930 . S
C1739 C1740 1.355 . S
C1739 C1741 1.415 . S
C1740 C1739 1.355 . S
C1740 C1742 1.419 . S
C1741 C1736 1.425 . S
C1741 C1738 1.409 . S
C1741 C1739 1.415 . S
C1742 H1732 0.930 . S
C1742 C1740 1.419 . S
C1742 C1743 1.362 . S
C1743 H1733 0.930 . S
C1743 C1736 1.409 . S
C1743 C1742 1.362 . S
H1744 C1750 0.930 . S
H1745 C1753 0.930 . S
H1746 C1754 0.930 . S
H1747 C1755 0.930 . S
H1748 C1758 0.930 . S
H1749 C1759 0.930 . S
C1750 H1744 0.930 . S
C1750 C1751 1.355 . S
C1750 C1752 1.415 . S
C1751 C1750 1.355 . S
C1751 C1753 1.419 . S
C1752 C1750 1.415 . S
C1752 C1757 1.425 . S
C1752 C1759 1.409 . S
C1753 H1745 0.930 . S
C1753 C1751 1.419 . S
C1753 C1754 1.362 . S
C1754 H1746 0.930 . S
C1754 C1753 1.362 . S
C1754 C1757 1.409 . S
C1755 H1747 0.930 . S
C1755 C1756 1.355 . S
C1755 C1757 1.415 . S
C1756 C1755 1.355 . S
C1756 C1758 1.419 . S
C1757 C1752 1.425 . S
C1757 C1754 1.409 . S
C1757 C1755 1.415 . S
C1758 H1748 0.930 . S
C1758 C1756 1.419 . S
C1758 C1759 1.362 . S
C1759 H1749 0.930 . S
C1759 C1752 1.409 . S
C1759 C1758 1.362 . S
H1760 C1766 0.930 . S
H1761 C1769 0.930 . S
H1762 C1770 0.930 . S
H1763 C1771 0.930 . S
H1764 C1774 0.930 . S
H1765 C1775 0.930 . S
C1766 H1760 0.930 . S
C1766 C1767 1.355 . S
C1766 C1768 1.415 . S
C1767 C1766 1.355 . S
C1767 C1769 1.419 . S
C1768 C1766 1.415 . S
C1768 C1773 1.425 . S
C1768 C1775 1.409 . S
C1769 H1761 0.930 . S
C1769 C1767 1.419 . S
C1769 C1770 1.362 . S
C1770 H1762 0.930 . S
C1770 C1769 1.362 . S
C1770 C1773 1.409 . S
C1771 H1763 0.930 . S
C1771 C1772 1.355 . S
C1771 C1773 1.415 . S
C1772 C1771 1.355 . S
C1772 C1774 1.419 . S
C1773 C1768 1.425 . S
C1773 C1770 1.409 . S
C1773 C1771 1.415 . S
C1774 H1764 0.930 . S
C1774 C1772 1.419 . S
C1774 C1775 1.362 . S
C1775 H1765 0.930 . S
C1775 C1768 1.409 . S
C1775 C1774 1.362 . S
H1776 C1782 0.930 . S
H1777 C1785 0.930 . S
H1778 C1786 0.930 . S
H1779 C1787 0.930 . S
H1780 C1790 0.930 . S
H1781 C1791 0.930 . S
C1782 H1776 0.930 . S
C1782 C1783 1.355 . S
C1782 C1784 1.415 . S
C1783 C1782 1.355 . S
C1783 C1785 1.419 . S
C1784 C1782 1.415 . S
C1784 C1789 1.425 . S
C1784 C1791 1.409 . S
C1785 H1777 0.930 . S
C1785 C1783 1.419 . S
C1785 C1786 1.362 . S
C1786 H1778 0.930 . S
C1786 C1785 1.362 . S
C1786 C1789 1.409 . S
C1787 H1779 0.930 . S
C1787 C1788 1.355 . S
C1787 C1789 1.415 . S
C1788 C1787 1.355 . S
C1788 C1790 1.419 . S
C1789 C1784 1.425 . S
C1789 C1786 1.409 . S
C1789 C1787 1.415 . S
C1790 H1780 0.930 . S
C1790 C1788 1.419 . S
C1790 C1791 1.362 . S
C1791 H1781 0.930 . S
C1791 C1784 1.409 . S
C1791 C1790 1.362 . S
H1792 C1798 0.930 . S
H1793 C1801 0.930 . S
H1794 C1802 0.930 . S
H1795 C1803 0.930 . S
H1796 C1806 0.930 . S
H1797 C1807 0.930 . S
C1798 H1792 0.930 . S
C1798 C1799 1.355 . S
C1798 C1800 1.415 . S
C1799 C1798 1.355 . S
C1799 C1801 1.419 . S
C1800 C1798 1.415 . S
C1800 C1805 1.425 1_655 S
C1800 C1807 1.409 1_655 S
C1801 H1793 0.930 . S
C1801 C1799 1.419 . S
C1801 C1802 1.362 . S
C1802 H1794 0.930 . S
C1802 C1801 1.362 . S
C1802 C1805 1.409 1_655 S
C1803 H1795 0.930 . S
C1803 C1804 1.355 . S
C1803 C1805 1.415 . S
C1804 C1803 1.355 . S
C1804 C1806 1.419 . S
C1805 C1800 1.425 1_455 S
C1805 C1802 1.409 1_455 S
C1805 C1803 1.415 . S
C1806 H1796 0.930 . S
C1806 C1804 1.419 . S
C1806 C1807 1.362 . S
C1807 H1797 0.930 . S
C1807 C1800 1.409 1_455 S
C1807 C1806 1.362 . S
H1808 C1814 0.930 . S
H1809 C1817 0.930 . S
H1810 C1818 0.930 . S
H1811 C1819 0.930 . S
H1812 C1822 0.930 . S
H1813 C1823 0.930 . S
C1814 H1808 0.930 . S
C1814 C1815 1.355 . S
C1814 C1816 1.415 . S
C1815 C1814 1.355 . S
C1815 C1817 1.419 . S
C1816 C1814 1.415 . S
C1816 C1821 1.425 . S
C1816 C1823 1.409 . S
C1817 H1809 0.930 . S
C1817 C1815 1.419 . S
C1817 C1818 1.362 . S
C1818 H1810 0.930 . S
C1818 C1817 1.362 . S
C1818 C1821 1.409 . S
C1819 H1811 0.930 . S
C1819 C1820 1.355 . S
C1819 C1821 1.415 . S
C1820 C1819 1.355 . S
C1820 C1822 1.419 . S
C1821 C1816 1.425 . S
C1821 C1818 1.409 . S
C1821 C1819 1.415 . S
C1822 H1812 0.930 . S
C1822 C1820 1.419 . S
C1822 C1823 1.362 . S
C1823 H1813 0.930 . S
C1823 C1816 1.409 . S
C1823 C1822 1.362 . S
H1824 C1830 0.930 . S
H1825 C1833 0.930 . S
H1826 C1834 0.930 . S
H1827 C1835 0.930 . S
H1828 C1838 0.930 . S
H1829 C1839 0.930 . S
C1830 H1824 0.930 . S
C1830 C1831 1.355 . S
C1830 C1832 1.415 . S
C1831 C1830 1.355 . S
C1831 C1833 1.419 . S
C1832 C1830 1.415 . S
C1832 C1837 1.425 . S
C1832 C1839 1.409 . S
C1833 H1825 0.930 . S
C1833 C1831 1.419 . S
C1833 C1834 1.362 . S
C1834 H1826 0.930 . S
C1834 C1833 1.362 . S
C1834 C1837 1.409 . S
C1835 H1827 0.930 . S
C1835 C1836 1.355 . S
C1835 C1837 1.415 . S
C1836 C1835 1.355 . S
C1836 C1838 1.419 . S
C1837 C1832 1.425 . S
C1837 C1834 1.409 . S
C1837 C1835 1.415 . S
C1838 H1828 0.930 . S
C1838 C1836 1.419 . S
C1838 C1839 1.362 . S
C1839 H1829 0.930 . S
C1839 C1832 1.409 . S
C1839 C1838 1.362 . S
H1840 C1846 0.930 . S
H1841 C1849 0.930 . S
H1842 C1850 0.930 . S
H1843 C1851 0.930 . S
H1844 C1854 0.930 1_556 S
H1845 C1855 0.930 1_556 S
C1846 H1840 0.930 . S
C1846 C1847 1.355 . S
C1846 C1848 1.415 . S
C1847 C1846 1.355 . S
C1847 C1849 1.419 . S
C1848 C1846 1.415 . S
C1848 C1853 1.425 1_455 S
C1848 C1855 1.409 1_455 S
C1849 H1841 0.930 . S
C1849 C1847 1.419 . S
C1849 C1850 1.362 . S
C1850 H1842 0.930 . S
C1850 C1849 1.362 . S
C1850 C1853 1.409 1_455 S
C1851 H1843 0.930 . S
C1851 C1852 1.355 . S
C1851 C1853 1.415 . S
C1852 C1851 1.355 . S
C1852 C1854 1.419 . S
C1853 C1848 1.425 1_655 S
C1853 C1850 1.409 1_655 S
C1853 C1851 1.415 . S
C1854 H1844 0.930 1_554 S
C1854 C1852 1.419 . S
C1854 C1855 1.362 . S
C1855 H1845 0.930 1_554 S
C1855 C1848 1.409 1_655 S
C1855 C1854 1.362 . S
H1856 C1862 0.930 . S
H1857 C1865 0.930 . S
H1858 C1866 0.930 . S
H1859 C1867 0.930 . S
H1860 C1870 0.930 . S
H1861 C1871 0.930 . S
C1862 H1856 0.930 . S
C1862 C1863 1.355 . S
C1862 C1864 1.415 1_554 S
C1863 C1862 1.355 . S
C1863 C1865 1.419 . S
C1864 C1862 1.415 1_556 S
C1864 C1869 1.425 1_556 S
C1864 C1871 1.409 . S
C1865 H1857 0.930 . S
C1865 C1863 1.419 . S
C1865 C1866 1.362 . S
C1866 H1858 0.930 . S
C1866 C1865 1.362 . S
C1866 C1869 1.409 . S
C1867 H1859 0.930 . S
C1867 C1868 1.355 . S
C1867 C1869 1.415 1_556 S
C1868 C1867 1.355 . S
C1868 C1870 1.419 . S
C1869 C1864 1.425 1_554 S
C1869 C1866 1.409 . S
C1869 C1867 1.415 1_554 S
C1870 H1860 0.930 . S
C1870 C1868 1.419 . S
C1870 C1871 1.362 . S
C1871 H1861 0.930 . S
C1871 C1864 1.409 . S
C1871 C1870 1.362 . S
H1872 C1878 0.930 . S
H1873 C1881 0.930 . S
H1874 C1882 0.930 . S
H1875 C1883 0.930 . S
H1876 C1886 0.930 . S
H1877 C1887 0.930 . S
C1878 H1872 0.930 . S
C1878 C1879 1.355 . S
C1878 C1880 1.415 . S
C1879 C1878 1.355 . S
C1879 C1881 1.419 . S
C1880 C1878 1.415 . S
C1880 C1885 1.425 . S
C1880 C1887 1.409 . S
C1881 H1873 0.930 . S
C1881 C1879 1.419 . S
C1881 C1882 1.362 . S
C1882 H1874 0.930 . S
C1882 C1881 1.362 . S
C1882 C1885 1.409 . S
C1883 H1875 0.930 . S
C1883 C1884 1.355 . S
C1883 C1885 1.415 . S
C1884 C1883 1.355 . S
C1884 C1886 1.419 . S
C1885 C1880 1.425 . S
C1885 C1882 1.409 . S
C1885 C1883 1.415 . S
C1886 H1876 0.930 . S
C1886 C1884 1.419 . S
C1886 C1887 1.362 . S
C1887 H1877 0.930 . S
C1887 C1880 1.409 . S
C1887 C1886 1.362 . S
H1888 C1894 0.930 . S
H1889 C1897 0.930 . S
H1890 C1898 0.930 . S
H1891 C1899 0.930 . S
H1892 C1902 0.930 . S
H1893 C1903 0.930 . S
C1894 H1888 0.930 . S
C1894 C1895 1.355 . S
C1894 C1896 1.415 . S
C1895 C1894 1.355 . S
C1895 C1897 1.419 . S
C1896 C1894 1.415 . S
C1896 C1901 1.425 . S
C1896 C1903 1.409 . S
C1897 H1889 0.930 . S
C1897 C1895 1.419 . S
C1897 C1898 1.362 . S
C1898 H1890 0.930 . S
C1898 C1897 1.362 . S
C1898 C1901 1.409 . S
C1899 H1891 0.930 . S
C1899 C1900 1.355 . S
C1899 C1901 1.415 . S
C1900 C1899 1.355 . S
C1900 C1902 1.419 . S
C1901 C1896 1.425 . S
C1901 C1898 1.409 . S
C1901 C1899 1.415 . S
C1902 H1892 0.930 . S
C1902 C1900 1.419 . S
C1902 C1903 1.362 . S
C1903 H1893 0.930 . S
C1903 C1896 1.409 . S
C1903 C1902 1.362 . S
H1904 C1910 0.930 . S
H1905 C1913 0.930 . S
H1906 C1914 0.930 . S
H1907 C1915 0.930 . S
H1908 C1918 0.930 . S
H1909 C1919 0.930 . S
C1910 H1904 0.930 . S
C1910 C1911 1.355 . S
C1910 C1912 1.415 . S
C1911 C1910 1.355 . S
C1911 C1913 1.419 . S
C1912 C1910 1.415 . S
C1912 C1917 1.425 . S
C1912 C1919 1.409 . S
C1913 H1905 0.930 . S
C1913 C1911 1.419 . S
C1913 C1914 1.362 . S
C1914 H1906 0.930 . S
C1914 C1913 1.362 . S
C1914 C1917 1.409 . S
C1915 H1907 0.930 . S
C1915 C1916 1.355 . S
C1915 C1917 1.415 . S
C1916 C1915 1.355 . S
C1916 C1918 1.419 . S
C1917 C1912 1.425 . S
C1917 C1914 1.409 . S
C1917 C1915 1.415 . S
C1918 H1908 0.930 . S
C1918 C1916 1.419 . S
C1918 C1919 1.362 . S
C1919 H1909 0.930 . S
C1919 C1912 1.409 . S
C1919 C1918 1.362 . S
H1920 C1926 0.930 1_556 S
H1921 C1929 0.930 . S
H1922 C1930 0.930 . S
H1923 C1931 0.930 1_554 S
H1924 C1934 0.930 . S
H1925 C1935 0.930 . S
C1926 H1920 0.930 1_554 S
C1926 C1927 1.355 . S
C1926 C1928 1.415 1_554 S
C1927 C1926 1.355 . S
C1927 C1929 1.419 . S
C1928 C1926 1.415 1_556 S
C1928 C1933 1.425 1_556 S
C1928 C1935 1.409 . S
C1929 H1921 0.930 . S
C1929 C1927 1.419 . S
C1929 C1930 1.362 . S
C1930 H1922 0.930 . S
C1930 C1929 1.362 . S
C1930 C1933 1.409 . S
C1931 H1923 0.930 1_556 S
C1931 C1932 1.355 . S
C1931 C1933 1.415 1_556 S
C1932 C1931 1.355 . S
C1932 C1934 1.419 . S
C1933 C1928 1.425 1_554 S
C1933 C1930 1.409 . S
C1933 C1931 1.415 1_554 S
C1934 H1924 0.930 . S
C1934 C1932 1.419 . S
C1934 C1935 1.362 . S
C1935 H1925 0.930 . S
C1935 C1928 1.409 . S
C1935 C1934 1.362 . S
H1936 C1942 0.930 . S
H1937 C1945 0.930 . S
H1938 C1946 0.930 . S
H1939 C1947 0.930 . S
H1940 C1950 0.930 . S
H1941 C1951 0.930 . S
C1942 H1936 0.930 . S
C1942 C1943 1.355 . S
C1942 C1944 1.415 . S
C1943 C1942 1.355 . S
C1943 C1945 1.419 . S
C1944 C1942 1.415 . S
C1944 C1949 1.425 . S
C1944 C1951 1.409 . S
C1945 H1937 0.930 . S
C1945 C1943 1.419 . S
C1945 C1946 1.362 . S
C1946 H1938 0.930 . S
C1946 C1945 1.362 . S
C1946 C1949 1.409 . S
C1947 H1939 0.930 . S
C1947 C1948 1.355 . S
C1947 C1949 1.415 . S
C1948 C1947 1.355 . S
C1948 C1950 1.419 . S
C1949 C1944 1.425 . S
C1949 C1946 1.409 . S
C1949 C1947 1.415 . S
C1950 H1940 0.930 . S
C1950 C1948 1.419 . S
C1950 C1951 1.362 . S
C1951 H1941 0.930 . S
C1951 C1944 1.409 . S
C1951 C1950 1.362 . S
H1952 C1958 0.930 . S
H1953 C1961 0.930 . S
H1954 C1962 0.930 . S
H1955 C1963 0.930 . S
H1956 C1966 0.930 . S
H1957 C1967 0.930 . S
C1958 H1952 0.930 . S
C1958 C1959 1.355 . S
C1958 C1960 1.415 . S
C1959 C1958 1.355 . S
C1959 C1961 1.419 . S
C1960 C1958 1.415 . S
C1960 C1965 1.425 . S
C1960 C1967 1.409 . S
C1961 H1953 0.930 . S
C1961 C1959 1.419 . S
C1961 C1962 1.362 . S
C1962 H1954 0.930 . S
C1962 C1961 1.362 . S
C1962 C1965 1.409 . S
C1963 H1955 0.930 . S
C1963 C1964 1.355 . S
C1963 C1965 1.415 . S
C1964 C1963 1.355 . S
C1964 C1966 1.419 . S
C1965 C1960 1.425 . S
C1965 C1962 1.409 . S
C1965 C1963 1.415 . S
C1966 H1956 0.930 . S
C1966 C1964 1.419 . S
C1966 C1967 1.362 . S
C1967 H1957 0.930 . S
C1967 C1960 1.409 . S
C1967 C1966 1.362 . S
H1968 C1974 0.930 . S
H1969 C1977 0.930 . S
H1970 C1978 0.930 . S
H1971 C1979 0.930 . S
H1972 C1982 0.930 . S
H1973 C1983 0.930 . S
C1974 H1968 0.930 . S
C1974 C1975 1.355 . S
C1974 C1976 1.415 . S
C1975 C1974 1.355 . S
C1975 C1977 1.419 . S
C1976 C1974 1.415 . S
C1976 C1981 1.425 . S
C1976 C1983 1.409 . S
C1977 H1969 0.930 . S
C1977 C1975 1.419 . S
C1977 C1978 1.362 . S
C1978 H1970 0.930 . S
C1978 C1977 1.362 . S
C1978 C1981 1.409 . S
C1979 H1971 0.930 . S
C1979 C1980 1.355 . S
C1979 C1981 1.415 . S
C1980 C1979 1.355 . S
C1980 C1982 1.419 . S
C1981 C1976 1.425 . S
C1981 C1978 1.409 . S
C1981 C1979 1.415 . S
C1982 H1972 0.930 . S
C1982 C1980 1.419 . S
C1982 C1983 1.362 . S
C1983 H1973 0.930 . S
C1983 C1976 1.409 . S
C1983 C1982 1.362 . S
H1984 C1990 0.930 . S
H1985 C1993 0.930 . S
H1986 C1994 0.930 . S
H1987 C1995 0.930 . S
H1988 C1998 0.930 . S
H1989 C1999 0.930 . S
C1990 H1984 0.930 . S
C1990 C1991 1.355 . S
C1990 C1992 1.415 . S
C1991 C1990 1.355 . S
C1991 C1993 1.419 . S
C1992 C1990 1.415 . S
C1992 C1997 1.425 . S
C1992 C1999 1.409 1_565 S
C1993 H1985 0.930 . S
C1993 C1991 1.419 . S
C1993 C1994 1.362 . S
C1994 H1986 0.930 . S
C1994 C1993 1.362 . S
C1994 C1997 1.409 . S
C1995 H1987 0.930 . S
C1995 C1996 1.355 . S
C1995 C1997 1.415 1_545 S
C1996 C1995 1.355 . S
C1996 C1998 1.419 . S
C1997 C1992 1.425 . S
C1997 C1994 1.409 . S
C1997 C1995 1.415 1_565 S
C1998 H1988 0.930 . S
C1998 C1996 1.419 . S
C1998 C1999 1.362 . S
C1999 H1989 0.930 . S
C1999 C1992 1.409 1_545 S
C1999 C1998 1.362 . S
H2000 C2006 0.930 . S
H2001 C2009 0.930 . S
H2002 C2010 0.930 . S
H2003 C2011 0.930 . S
H2004 C2014 0.930 . S
H2005 C2015 0.930 . S
C2006 H2000 0.930 . S
C2006 C2007 1.355 . S
C2006 C2008 1.415 . S
C2007 C2006 1.355 . S
C2007 C2009 1.419 . S
C2008 C2006 1.415 . S
C2008 C2013 1.425 . S
C2008 C2015 1.409 . S
C2009 H2001 0.930 . S
C2009 C2007 1.419 . S
C2009 C2010 1.362 . S
C2010 H2002 0.930 . S
C2010 C2009 1.362 . S
C2010 C2013 1.409 . S
C2011 H2003 0.930 . S
C2011 C2012 1.355 . S
C2011 C2013 1.415 . S
C2012 C2011 1.355 . S
C2012 C2014 1.419 . S
C2013 C2008 1.425 . S
C2013 C2010 1.409 . S
C2013 C2011 1.415 . S
C2014 H2004 0.930 . S
C2014 C2012 1.419 . S
C2014 C2015 1.362 . S
C2015 H2005 0.930 . S
C2015 C2008 1.409 . S
C2015 C2014 1.362 . S
H2016 C2022 0.930 1_556 S
H2017 C2025 0.930 . S
H2018 C2026 0.930 . S
H2019 C2027 0.930 1_554 S
H2020 C2030 0.930 . S
H2021 C2031 0.930 . S
C2022 H2016 0.930 1_554 S
C2022 C2023 1.355 . S
C2022 C2024 1.415 1_554 S
C2023 C2022 1.355 . S
C2023 C2025 1.419 . S
C2024 C2022 1.415 1_556 S
C2024 C2029 1.425 1_566 S
C2024 C2031 1.409 . S
C2025 H2017 0.930 . S
C2025 C2023 1.419 . S
C2025 C2026 1.362 1_565 S
C2026 H2018 0.930 . S
C2026 C2025 1.362 1_545 S
C2026 C2029 1.409 . S
C2027 H2019 0.930 1_556 S
C2027 C2028 1.355 . S
C2027 C2029 1.415 1_556 S
C2028 C2027 1.355 . S
C2028 C2030 1.419 . S
C2029 C2024 1.425 1_544 S
C2029 C2026 1.409 . S
C2029 C2027 1.415 1_554 S
C2030 H2020 0.930 . S
C2030 C2028 1.419 . S
C2030 C2031 1.362 1_545 S
C2031 H2021 0.930 . S
C2031 C2024 1.409 . S
C2031 C2030 1.362 1_565 S
H2032 C2038 0.930 . S
H2033 C2041 0.930 . S
H2034 C2042 0.930 . S
H2035 C2043 0.930 . S
H2036 C2046 0.930 . S
H2037 C2047 0.930 . S
C2038 H2032 0.930 . S
C2038 C2039 1.355 . S
C2038 C2040 1.415 . S
C2039 C2038 1.355 . S
C2039 C2041 1.419 . S
C2040 C2038 1.415 . S
C2040 C2045 1.425 . S
C2040 C2047 1.409 . S
C2041 H2033 0.930 . S
C2041 C2039 1.419 . S
C2041 C2042 1.362 . S
C2042 H2034 0.930 . S
C2042 C2041 1.362 . S
C2042 C2045 1.409 . S
C2043 H2035 0.930 . S
C2043 C2044 1.355 . S
C2043 C2045 1.415 . S
C2044 C2043 1.355 . S
C2044 C2046 1.419 . S
C2045 C2040 1.425 . S
C2045 C2042 1.409 . S
C2045 C2043 1.415 . S
C2046 H2036 0.930 . S
C2046 C2044 1.419 . S
C2046 C2047 1.362 . S
C2047 H2037 0.930 . S
C2047 C2040 1.409 . S
C2047 C2046 1.362 . S
H2048 C2054 0.930 . S
H2049 C2057 0.930 . S
H2050 C2058 0.930 . S
H2051 C2059 0.930 . S
H2052 C2062 0.930 . S
H2053 C2063 0.930 . S
C2054 H2048 0.930 . S
C2054 C2055 1.355 . S
C2054 C2056 1.415 . S
C2055 C2054 1.355 . S
C2055 C2057 1.419 . S
C2056 C2054 1.415 . S
C2056 C2061 1.425 1_565 S
C2056 C2063 1.409 . S
C2057 H2049 0.930 . S
C2057 C2055 1.419 . S
C2057 C2058 1.362 1_565 S
C2058 H2050 0.930 . S
C2058 C2057 1.362 1_545 S
C2058 C2061 1.409 . S
C2059 H2051 0.930 . S
C2059 C2060 1.355 . S
C2059 C2061 1.415 . S
C2060 C2059 1.355 . S
C2060 C2062 1.419 . S
C2061 C2056 1.425 1_545 S
C2061 C2058 1.409 . S
C2061 C2059 1.415 . S
C2062 H2052 0.930 . S
C2062 C2060 1.419 . S
C2062 C2063 1.362 1_545 S
C2063 H2053 0.930 . S
C2063 C2056 1.409 . S
C2063 C2062 1.362 1_565 S
H2064 C2070 0.930 . S
H2065 C2073 0.930 . S
H2066 C2074 0.930 . S
H2067 C2075 0.930 . S
H2068 C2078 0.930 . S
H2069 C2079 0.930 . S
C2070 H2064 0.930 . S
C2070 C2071 1.355 . S
C2070 C2072 1.415 . S
C2071 C2070 1.355 . S
C2071 C2073 1.419 . S
C2072 C2070 1.415 . S
C2072 C2077 1.425 . S
C2072 C2079 1.409 . S
C2073 H2065 0.930 . S
C2073 C2071 1.419 . S
C2073 C2074 1.362 . S
C2074 H2066 0.930 . S
C2074 C2073 1.362 . S
C2074 C2077 1.409 . S
C2075 H2067 0.930 . S
C2075 C2076 1.355 . S
C2075 C2077 1.415 . S
C2076 C2075 1.355 . S
C2076 C2078 1.419 . S
C2077 C2072 1.425 . S
C2077 C2074 1.409 . S
C2077 C2075 1.415 . S
C2078 H2068 0.930 . S
C2078 C2076 1.419 . S
C2078 C2079 1.362 . S
C2079 H2069 0.930 . S
C2079 C2072 1.409 . S
C2079 C2078 1.362 . S
H2080 C2086 0.930 1_554 S
H2081 C2089 0.930 . S
H2082 C2090 0.942 . S
H2083 C2091 0.930 1_556 S
H2084 C2094 0.930 . S
H2085 C2095 0.930 . S
C2086 H2080 0.930 1_556 S
C2086 C2087 1.355 . S
C2086 C2088 1.415 1_556 S
C2087 C2086 1.355 . S
C2087 C2089 1.419 . S
C2088 C2086 1.415 1_554 S
C2088 C2093 1.425 1_544 S
C2088 C2095 1.409 . S
C2089 H2081 0.930 . S
C2089 C2087 1.419 . S
C2089 C2090 1.346 1_545 S
C2090 H2082 0.942 . S
C2090 C2089 1.346 1_565 S
C2090 C2093 1.414 . S
C2091 H2083 0.930 1_554 S
C2091 C2092 1.355 . S
C2091 C2093 1.415 1_554 S
C2092 C2091 1.355 . S
C2092 C2094 1.419 . S
C2093 C2088 1.425 1_566 S
C2093 C2090 1.414 . S
C2093 C2091 1.415 1_556 S
C2094 H2084 0.930 . S
C2094 C2092 1.419 . S
C2094 C2095 1.362 1_565 S
C2095 H2085 0.930 . S
C2095 C2088 1.409 . S
C2095 C2094 1.362 1_545 S
H2096 C2102 0.930 . S
H2097 C2105 0.930 . S
H2098 C2106 0.930 . S
H2099 C2107 0.930 . S
H2100 C2110 0.930 . S
H2101 C2111 0.930 . S
C2102 H2096 0.930 . S
C2102 C2103 1.355 . S
C2102 C2104 1.415 . S
C2103 C2102 1.355 . S
C2103 C2105 1.419 . S
C2104 C2102 1.415 . S
C2104 C2109 1.425 . S
C2104 C2111 1.409 . S
C2105 H2097 0.930 . S
C2105 C2103 1.419 . S
C2105 C2106 1.362 . S
C2106 H2098 0.930 . S
C2106 C2105 1.362 . S
C2106 C2109 1.409 . S
C2107 H2099 0.930 . S
C2107 C2108 1.355 . S
C2107 C2109 1.415 . S
C2108 C2107 1.355 . S
C2108 C2110 1.419 . S
C2109 C2104 1.425 . S
C2109 C2106 1.409 . S
C2109 C2107 1.415 . S
C2110 H2100 0.930 . S
C2110 C2108 1.419 . S
C2110 C2111 1.362 . S
C2111 H2101 0.930 . S
C2111 C2104 1.409 . S
C2111 C2110 1.362 . S
C1351 C58 1.551 . S
C1356 C70 1.551 . S
C1367 C142 1.506 1_556 S
C1372 C154 1.506 . S
C1383 C226 1.472 . S
C1388 C238 1.472 1_554 S
C1399 C322 1.572 . S
C1404 C310 1.572 . S
C1415 C406 1.470 . S
C1420 C394 1.470 . S
C1431 C490 1.448 . S
C1436 C478 1.448 . S
C1447 C562 1.532 . S
C1452 C574 1.532 1_556 S
C1463 C658 1.588 1_554 S
C1468 C646 1.588 . S
C1479 C730 1.570 . S
C1484 C742 1.570 . S
C1495 C814 1.529 . S
C1500 C826 1.529 1_554 S
C1511 C910 1.430 1_556 S
C1516 C898 1.430 . S
C1527 C982 1.450 . S
C1532 C994 1.450 . S
C1543 C1066 1.494 . S
C1548 C1078 1.494 . S
C1559 C1162 1.428 . S
C1564 C1150 1.428 . S
C1575 C1246 1.448 . S
C1580 C1234 1.448 1_554 S
C1591 C1330 1.503 1_556 S
C1596 C1318 1.503 . S
C1607 C67 1.750 . S
C1612 C979 1.750 . S
C1623 C151 1.775 . S
C1628 C1315 1.739 . S
C1639 C235 1.773 . S
C1644 C812 1.674 . S
C1655 C320 1.682 . S
C1660 C1147 1.784 . S
C1671 C404 1.667 . S
C1676 C1148 1.736 . S
C1687 C980 1.684 . S
C1692 C487 1.749 . S
C1703 C571 1.773 . S
C1708 C1316 1.667 . S
C1719 C656 1.739 . S
C1724 C811 1.752 . S
C1735 C319 1.782 . S
C1740 C728 1.693 . S
C1751 C152 1.728 . S
C1756 C896 1.667 . S
C1767 C1064 1.723 . S
C1772 C488 1.710 . S
C1783 C655 1.757 . S
C1788 C1231 1.759 . S
C1799 C727 1.775 . S
C1804 C403 1.756 . S
C1815 C572 1.679 . S
C1820 C895 1.786 . S
C1831 C236 1.723 . S
C1836 C1232 1.695 . S
C1847 C68 1.681 . S
C1852 C1063 1.779 . S
C1863 C55 1.622 . S
C1868 C392 1.641 . S
C1879 C139 1.661 . S
C1884 C475 1.666 . S
C1895 C223 1.639 . S
C1900 C559 1.659 . S
C1911 C308 1.676 . S
C1916 C644 1.665 . S
C1927 C1076 1.664 . S
C1932 C740 1.672 . S
C1943 C1159 1.666 . S
C1948 C823 1.643 . S
C1959 C908 1.674 . S
C1964 C1243 1.666 . S
C1975 C1327 1.642 . S
C1980 C992 1.642 . S
C1991 C140 1.639 . S
C1996 C643 1.611 . S
C2007 C391 1.687 . S
C2012 C224 1.689 . S
C2023 C476 1.684 . S
C2028 C307 1.681 . S
C2039 C56 1.667 . S
C2044 C560 1.671 . S
C2055 C1328 1.662 . S
C2060 C824 1.668 . S
C2071 C1075 1.687 . S
C2076 C907 1.671 . S
C2087 C1160 1.653 . S
C2092 C991 1.638 . S
C2103 C1244 1.645 . S
C2108 C739 1.647 . S
