# Generated by pormake.
# Topology wgm, (5)-cn, num edge types: 1
# Building blocks:
#     Node 0, Type 0, BuildingBlock: BEQFEK_clean_sbu_0, # of connection points: 5
#     Node 1, Type 0, BuildingBlock: BEQFEK_clean_sbu_0, # of connection points: 5
#     Node 2, Type 0, BuildingBlock: BEQFEK_clean_sbu_0, # of connection points: 5
#     Node 3, Type 0, BuildingBlock: BEQFEK_clean_sbu_0, # of connection points: 5
#     Node 4, Type 0, BuildingBlock: BEQFEK_clean_sbu_0, # of connection points: 5
#     Node 5, Type 0, BuildingBlock: BEQFEK_clean_sbu_0, # of connection points: 5
#     Node 6, Type 0, BuildingBlock: BEQFEK_clean_sbu_0, # of connection points: 5
#     Node 7, Type 0, BuildingBlock: BEQFEK_clean_sbu_0, # of connection points: 5
#     Node 8, Type 0, BuildingBlock: BEQFEK_clean_sbu_0, # of connection points: 5
#     Node 9, Type 0, BuildingBlock: BEQFEK_clean_sbu_0, # of connection points: 5
#     Node 10, Type 0, BuildingBlock: BEQFEK_clean_sbu_0, # of connection points: 5
#     Node 11, Type 0, BuildingBlock: BEQFEK_clean_sbu_0, # of connection points: 5
#     Node 12, Type 0, BuildingBlock: BEQFEK_clean_sbu_0, # of connection points: 5
#     Node 13, Type 0, BuildingBlock: BEQFEK_clean_sbu_0, # of connection points: 5
#     Node 14, Type 0, BuildingBlock: BEQFEK_clean_sbu_0, # of connection points: 5
#     Node 15, Type 0, BuildingBlock: BEQFEK_clean_sbu_0, # of connection points: 5
#     Node 16, Type 0, BuildingBlock: BEQFEK_clean_sbu_0, # of connection points: 5
#     Node 17, Type 0, BuildingBlock: BEQFEK_clean_sbu_0, # of connection points: 5
#     Node 18, Type 0, BuildingBlock: BEQFEK_clean_sbu_0, # of connection points: 5
#     Node 19, Type 0, BuildingBlock: BEQFEK_clean_sbu_0, # of connection points: 5
#     Node 20, Type 0, BuildingBlock: BEQFEK_clean_sbu_0, # of connection points: 5
#     Node 21, Type 0, BuildingBlock: BEQFEK_clean_sbu_0, # of connection points: 5
#     Node 22, Type 0, BuildingBlock: BEQFEK_clean_sbu_0, # of connection points: 5
#     Node 23, Type 0, BuildingBlock: BEQFEK_clean_sbu_0, # of connection points: 5
#     Node 24, Type 0, BuildingBlock: BEQFEK_clean_sbu_0, # of connection points: 5
#     Node 25, Type 0, BuildingBlock: BEQFEK_clean_sbu_0, # of connection points: 5
#     Node 26, Type 0, BuildingBlock: BEQFEK_clean_sbu_0, # of connection points: 5
#     Node 27, Type 0, BuildingBlock: BEQFEK_clean_sbu_0, # of connection points: 5
#     Node 28, Type 0, BuildingBlock: BEQFEK_clean_sbu_0, # of connection points: 5
#     Node 29, Type 0, BuildingBlock: BEQFEK_clean_sbu_0, # of connection points: 5
#     Node 30, Type 0, BuildingBlock: BEQFEK_clean_sbu_0, # of connection points: 5
#     Node 31, Type 0, BuildingBlock: BEQFEK_clean_sbu_0, # of connection points: 5
#     Edge 32, Type (0, 0), BuildingBlock: KIFKEQ_clean_linker_1, # of connection points: 2
#     Edge 33, Type (0, 0), BuildingBlock: KIFKEQ_clean_linker_1, # of connection points: 2
#     Edge 34, Type (0, 0), BuildingBlock: KIFKEQ_clean_linker_1, # of connection points: 2
#     Edge 35, Type (0, 0), BuildingBlock: KIFKEQ_clean_linker_1, # of connection points: 2
#     Edge 36, Type (0, 0), BuildingBlock: KIFKEQ_clean_linker_1, # of connection points: 2
#     Edge 37, Type (0, 0), BuildingBlock: KIFKEQ_clean_linker_1, # of connection points: 2
#     Edge 38, Type (0, 0), BuildingBlock: KIFKEQ_clean_linker_1, # of connection points: 2
#     Edge 39, Type (0, 0), BuildingBlock: KIFKEQ_clean_linker_1, # of connection points: 2
#     Edge 40, Type (0, 0), BuildingBlock: KIFKEQ_clean_linker_1, # of connection points: 2
#     Edge 41, Type (0, 0), BuildingBlock: KIFKEQ_clean_linker_1, # of connection points: 2
#     Edge 42, Type (0, 0), BuildingBlock: KIFKEQ_clean_linker_1, # of connection points: 2
#     Edge 43, Type (0, 0), BuildingBlock: KIFKEQ_clean_linker_1, # of connection points: 2
#     Edge 44, Type (0, 0), BuildingBlock: KIFKEQ_clean_linker_1, # of connection points: 2
#     Edge 45, Type (0, 0), BuildingBlock: KIFKEQ_clean_linker_1, # of connection points: 2
#     Edge 46, Type (0, 0), BuildingBlock: KIFKEQ_clean_linker_1, # of connection points: 2
#     Edge 47, Type (0, 0), BuildingBlock: KIFKEQ_clean_linker_1, # of connection points: 2
#     Edge 48, Type (0, 0), BuildingBlock: KIFKEQ_clean_linker_1, # of connection points: 2
#     Edge 49, Type (0, 0), BuildingBlock: KIFKEQ_clean_linker_1, # of connection points: 2
#     Edge 50, Type (0, 0), BuildingBlock: KIFKEQ_clean_linker_1, # of connection points: 2
#     Edge 51, Type (0, 0), BuildingBlock: KIFKEQ_clean_linker_1, # of connection points: 2
#     Edge 52, Type (0, 0), BuildingBlock: KIFKEQ_clean_linker_1, # of connection points: 2
#     Edge 53, Type (0, 0), BuildingBlock: KIFKEQ_clean_linker_1, # of connection points: 2
#     Edge 54, Type (0, 0), BuildingBlock: KIFKEQ_clean_linker_1, # of connection points: 2
#     Edge 55, Type (0, 0), BuildingBlock: KIFKEQ_clean_linker_1, # of connection points: 2
#     Edge 56, Type (0, 0), BuildingBlock: KIFKEQ_clean_linker_1, # of connection points: 2
#     Edge 57, Type (0, 0), BuildingBlock: KIFKEQ_clean_linker_1, # of connection points: 2
#     Edge 58, Type (0, 0), BuildingBlock: KIFKEQ_clean_linker_1, # of connection points: 2
#     Edge 59, Type (0, 0), BuildingBlock: KIFKEQ_clean_linker_1, # of connection points: 2
#     Edge 60, Type (0, 0), BuildingBlock: KIFKEQ_clean_linker_1, # of connection points: 2
#     Edge 61, Type (0, 0), BuildingBlock: KIFKEQ_clean_linker_1, # of connection points: 2
#     Edge 62, Type (0, 0), BuildingBlock: KIFKEQ_clean_linker_1, # of connection points: 2
#     Edge 63, Type (0, 0), BuildingBlock: KIFKEQ_clean_linker_1, # of connection points: 2
#     Edge 64, Type (0, 0), BuildingBlock: KIFKEQ_clean_linker_1, # of connection points: 2
#     Edge 65, Type (0, 0), BuildingBlock: KIFKEQ_clean_linker_1, # of connection points: 2
#     Edge 66, Type (0, 0), BuildingBlock: KIFKEQ_clean_linker_1, # of connection points: 2
#     Edge 67, Type (0, 0), BuildingBlock: KIFKEQ_clean_linker_1, # of connection points: 2
#     Edge 68, Type (0, 0), BuildingBlock: KIFKEQ_clean_linker_1, # of connection points: 2
#     Edge 69, Type (0, 0), BuildingBlock: KIFKEQ_clean_linker_1, # of connection points: 2
#     Edge 70, Type (0, 0), BuildingBlock: KIFKEQ_clean_linker_1, # of connection points: 2
#     Edge 71, Type (0, 0), BuildingBlock: KIFKEQ_clean_linker_1, # of connection points: 2
#     Edge 72, Type (0, 0), BuildingBlock: KIFKEQ_clean_linker_1, # of connection points: 2
#     Edge 73, Type (0, 0), BuildingBlock: KIFKEQ_clean_linker_1, # of connection points: 2
#     Edge 74, Type (0, 0), BuildingBlock: KIFKEQ_clean_linker_1, # of connection points: 2
#     Edge 75, Type (0, 0), BuildingBlock: KIFKEQ_clean_linker_1, # of connection points: 2
#     Edge 76, Type (0, 0), BuildingBlock: KIFKEQ_clean_linker_1, # of connection points: 2
#     Edge 77, Type (0, 0), BuildingBlock: KIFKEQ_clean_linker_1, # of connection points: 2
#     Edge 78, Type (0, 0), BuildingBlock: KIFKEQ_clean_linker_1, # of connection points: 2
#     Edge 79, Type (0, 0), BuildingBlock: KIFKEQ_clean_linker_1, # of connection points: 2
#     Edge 80, Type (0, 0), BuildingBlock: KIFKEQ_clean_linker_1, # of connection points: 2
#     Edge 81, Type (0, 0), BuildingBlock: KIFKEQ_clean_linker_1, # of connection points: 2
#     Edge 82, Type (0, 0), BuildingBlock: KIFKEQ_clean_linker_1, # of connection points: 2
#     Edge 83, Type (0, 0), BuildingBlock: KIFKEQ_clean_linker_1, # of connection points: 2
#     Edge 84, Type (0, 0), BuildingBlock: KIFKEQ_clean_linker_1, # of connection points: 2
#     Edge 85, Type (0, 0), BuildingBlock: KIFKEQ_clean_linker_1, # of connection points: 2
#     Edge 86, Type (0, 0), BuildingBlock: KIFKEQ_clean_linker_1, # of connection points: 2
#     Edge 87, Type (0, 0), BuildingBlock: KIFKEQ_clean_linker_1, # of connection points: 2
#     Edge 88, Type (0, 0), BuildingBlock: KIFKEQ_clean_linker_1, # of connection points: 2
#     Edge 89, Type (0, 0), BuildingBlock: KIFKEQ_clean_linker_1, # of connection points: 2
#     Edge 90, Type (0, 0), BuildingBlock: KIFKEQ_clean_linker_1, # of connection points: 2
#     Edge 91, Type (0, 0), BuildingBlock: KIFKEQ_clean_linker_1, # of connection points: 2
#     Edge 92, Type (0, 0), BuildingBlock: KIFKEQ_clean_linker_1, # of connection points: 2
#     Edge 93, Type (0, 0), BuildingBlock: KIFKEQ_clean_linker_1, # of connection points: 2
#     Edge 94, Type (0, 0), BuildingBlock: KIFKEQ_clean_linker_1, # of connection points: 2
#     Edge 95, Type (0, 0), BuildingBlock: KIFKEQ_clean_linker_1, # of connection points: 2
#     Edge 96, Type (0, 0), BuildingBlock: KIFKEQ_clean_linker_1, # of connection points: 2
#     Edge 97, Type (0, 0), BuildingBlock: KIFKEQ_clean_linker_1, # of connection points: 2
#     Edge 98, Type (0, 0), BuildingBlock: KIFKEQ_clean_linker_1, # of connection points: 2
#     Edge 99, Type (0, 0), BuildingBlock: KIFKEQ_clean_linker_1, # of connection points: 2
#     Edge 100, Type (0, 0), BuildingBlock: KIFKEQ_clean_linker_1, # of connection points: 2
#     Edge 101, Type (0, 0), BuildingBlock: KIFKEQ_clean_linker_1, # of connection points: 2
#     Edge 102, Type (0, 0), BuildingBlock: KIFKEQ_clean_linker_1, # of connection points: 2
#     Edge 103, Type (0, 0), BuildingBlock: KIFKEQ_clean_linker_1, # of connection points: 2
#     Edge 104, Type (0, 0), BuildingBlock: KIFKEQ_clean_linker_1, # of connection points: 2
#     Edge 105, Type (0, 0), BuildingBlock: KIFKEQ_clean_linker_1, # of connection points: 2
#     Edge 106, Type (0, 0), BuildingBlock: KIFKEQ_clean_linker_1, # of connection points: 2
#     Edge 107, Type (0, 0), BuildingBlock: KIFKEQ_clean_linker_1, # of connection points: 2
#     Edge 108, Type (0, 0), BuildingBlock: KIFKEQ_clean_linker_1, # of connection points: 2
#     Edge 109, Type (0, 0), BuildingBlock: KIFKEQ_clean_linker_1, # of connection points: 2
#     Edge 110, Type (0, 0), BuildingBlock: KIFKEQ_clean_linker_1, # of connection points: 2
#     Edge 111, Type (0, 0), BuildingBlock: KIFKEQ_clean_linker_1, # of connection points: 2
# Relax obj value: 0.070
# Max RMSD: 0.115
# Mean RMSD: 0.115
data_MOF--net-wgm--node1-BEQFEK_clean_sbu_0--edge1-KIFKEQ_clean_linker_1
_symmetry_space_group_name_H-M    P1
_symmetry_Int_Tables_number       1
_symmetry_cell_setting            triclinic
loop_
_symmetry_equiv_pos_as_xyz
'x, y, z'
_cell_length_a     48.798683
_cell_length_b     48.795513
_cell_length_c     84.159101
_cell_angle_alpha  90.002236
_cell_angle_beta   90.000903
_cell_angle_gamma 89.996588
loop_
_atom_site_label
_atom_site_type_symbol
_atom_site_fract_x
_atom_site_fract_y
_atom_site_fract_z
_atom_type_partial_charge
Co0 Co 0.20177 0.11087 0.31389 0.0
Co1 Co 0.20269 0.16056 0.33781 0.0
C2 C 0.1542 0.12317 0.33526 0.0
O3 O 0.16535 0.10915 0.32427 0.0
O4 O 0.16642 0.1435 0.34156 0.0
C5 C 0.18335 0.0798 0.28675 0.0
O6 O 0.16358 0.09804 0.28611 0.0
C7 C 0.18645 0.20904 0.35689 0.0
C8 C 0.22632 0.22991 0.35978 0.0
C9 C 0.19867 0.23239 0.36324 0.0
N10 N 0.20594 0.19396 0.34968 0.0
N11 N 0.22975 0.2064 0.35167 0.0
C12 C 0.15741 0.19973 0.35884 0.0
H13 H 0.15724 0.17805 0.36271 0.0
H14 H 0.14667 0.2011 0.34725 0.0
H15 H 0.14628 0.21183 0.36792 0.0
C16 C 0.21518 0.15561 0.29107 0.0
N17 N 0.20876 0.14645 0.30572 0.0
N18 N 0.20837 0.16735 0.31566 0.0
C19 C 0.21402 0.19048 0.30751 0.0
C20 C 0.21868 0.18378 0.29174 0.0
C21 C 0.22004 0.13756 0.27698 0.0
H22 H 0.22965 0.11804 0.28078 0.0
H23 H 0.20012 0.13289 0.27125 0.0
H24 H 0.23341 0.14778 0.26811 0.0
O25 O 0.23052 0.10062 0.32932 0.0
O26 O 0.23123 0.13557 0.34619 0.0
H27 H 0.23395 0.22203 0.32075 0.0
H28 H 0.21208 0.23455 0.30514 0.0
C29 C 0.21423 0.21867 0.3145 0.0
H30 H 0.19721 0.22093 0.32312 0.0
H31 H 0.24833 0.19898 0.34729 0.0
O32 O 0.20194 0.08212 0.29724 0.0
C33 C 0.24013 0.11234 0.34163 0.0
Co34 Co 0.13789 0.95288 0.56369 0.0
Co35 Co 0.08991 0.95392 0.5886 0.0
C36 C 0.12672 0.90521 0.58533 0.0
O37 O 0.14047 0.91665 0.57432 0.0
O38 O 0.10649 0.9173 0.59181 0.0
C39 C 0.17094 0.93166 0.53829 0.0
O40 O 0.1581 0.90868 0.54156 0.0
C41 C 0.03805 0.93773 0.60393 0.0
C42 C 0.0314 0.97246 0.62034 0.0
C43 C 0.02071 0.94739 0.61575 0.0
N44 N 0.05804 0.95632 0.60165 0.0
N45 N 0.0538 0.97709 0.61142 0.0
C46 C 0.03699 0.91039 0.59588 0.0
H47 H 0.03459 0.89392 0.60487 0.0
H48 H 0.05566 0.9068 0.58869 0.0
H49 H 0.01901 0.90957 0.58785 0.0
C50 C 0.09194 0.96673 0.54201 0.0
N51 N 0.10176 0.96008 0.55646 0.0
N52 N 0.08153 0.96042 0.56683 0.0
C53 C 0.05815 0.9672 0.55924 0.0
C54 C 0.06397 0.97132 0.54329 0.0
C55 C 0.10914 0.96861 0.52734 0.0
H56 H 0.11836 0.94827 0.52487 0.0
H57 H 0.09698 0.97515 0.51687 0.0
H58 H 0.12613 0.98331 0.52937 0.0
O59 O 0.14956 0.98163 0.5788 0.0
O60 O 0.11595 0.98195 0.59656 0.0
H61 H 0.01631 0.98207 0.55931 0.0
H62 H 0.02258 0.95161 0.57088 0.0
C63 C 0.03117 0.97169 0.56728 0.0
H64 H 0.03412 0.98428 0.57811 0.0
H65 H 0.0666 0.99415 0.61229 0.0
O66 O 0.16475 0.95324 0.54596 0.0
C67 C 0.13883 0.99093 0.59149 0.0
Co68 Co 0.29655 0.88783 0.81392 0.0
Co69 Co 0.29483 0.84015 0.83898 0.0
C70 C 0.34344 0.87756 0.8361 0.0
O71 O 0.33237 0.89114 0.82488 0.0
O72 O 0.33119 0.85733 0.84249 0.0
C73 C 0.31746 0.91952 0.78782 0.0
O74 O 0.34047 0.9067 0.79107 0.0
C75 C 0.31122 0.78865 0.85472 0.0
C76 C 0.27566 0.78129 0.87041 0.0
C77 C 0.30118 0.77107 0.86632 0.0
N78 N 0.29241 0.8083 0.85207 0.0
N79 N 0.27115 0.80365 0.86142 0.0
C80 C 0.33897 0.78798 0.84713 0.0
H81 H 0.3431 0.80716 0.84054 0.0
H82 H 0.34 0.77073 0.83859 0.0
H83 H 0.35497 0.78463 0.85631 0.0
C84 C 0.28475 0.84134 0.79218 0.0
N85 N 0.2904 0.85147 0.80671 0.0
N86 N 0.28896 0.83153 0.81722 0.0
C87 C 0.28184 0.80816 0.80973 0.0
C88 C 0.27917 0.81359 0.79362 0.0
C89 C 0.28274 0.85835 0.77744 0.0
H90 H 0.30342 0.86603 0.77427 0.0
H91 H 0.27438 0.84644 0.7673 0.0
H92 H 0.26938 0.87633 0.7797 0.0
O93 O 0.26688 0.89922 0.82862 0.0
O94 O 0.26615 0.86571 0.84644 0.0
H95 H 0.26885 0.76563 0.80969 0.0
H96 H 0.29694 0.77378 0.82269 0.0
C97 C 0.2772 0.78132 0.8179 0.0
H98 H 0.26289 0.78422 0.828 0.0
H99 H 0.2538 0.81611 0.86194 0.0
O100 O 0.29618 0.91413 0.79595 0.0
C101 C 0.25708 0.88841 0.84117 0.0
Co102 Co 0.36162 0.04649 0.06465 0.0
Co103 Co 0.41068 0.0464 0.08865 0.0
C104 C 0.37317 0.09417 0.08661 0.0
O105 O 0.3593 0.08237 0.07576 0.0
O106 O 0.39404 0.08267 0.09275 0.0
C107 C 0.33247 0.06488 0.03674 0.0
O108 O 0.35223 0.08304 0.03548 0.0
C109 C 0.46097 0.06255 0.10562 0.0
C110 C 0.47512 0.0226 0.11486 0.0
C111 C 0.48159 0.05028 0.11457 0.0
N112 N 0.4433 0.04298 0.10095 0.0
N113 N 0.45182 0.0192 0.10658 0.0
C114 C 0.45899 0.09181 0.1004 0.0
H115 H 0.4468 0.09343 0.08931 0.0
H116 H 0.47969 0.10057 0.09839 0.0
H117 H 0.44853 0.10389 0.10978 0.0
C118 C 0.40679 0.03244 0.04218 0.0
N119 N 0.39739 0.0398 0.05662 0.0
N120 N 0.41813 0.0412 0.06659 0.0
C121 C 0.44151 0.03572 0.05868 0.0
C122 C 0.43514 0.02975 0.04294 0.0
C123 C 0.3887 0.02509 0.02846 0.0
H124 H 0.36877 0.01718 0.03279 0.0
H125 H 0.38497 0.04364 0.02115 0.0
H126 H 0.3985 0.00933 0.02083 0.0
O127 O 0.35124 0.01698 0.07934 0.0
O128 O 0.38558 0.01727 0.0966 0.0
H129 H 0.47262 0.01893 0.07369 0.0
H130 H 0.4858 0.03794 0.05687 0.0
C131 C 0.46944 0.03712 0.06599 0.0
H132 H 0.47104 0.05572 0.07344 0.0
H133 H 0.44178 0.0006 0.10468 0.0
O134 O 0.33324 0.04727 0.04784 0.0
C135 C 0.36285 0.00758 0.09172 0.0
Co136 Co 0.20347 0.88839 0.18469 0.0
Co137 Co 0.20391 0.8387 0.16099 0.0
C138 C 0.15594 0.87607 0.16269 0.0
O139 O 0.16756 0.89019 0.17351 0.0
O140 O 0.16764 0.85519 0.15667 0.0
C141 C 0.18518 0.91795 0.21254 0.0
O142 O 0.16724 0.89804 0.21402 0.0
C143 C 0.18862 0.78914 0.1429 0.0
C144 C 0.22918 0.77027 0.13876 0.0
C145 C 0.20142 0.76664 0.13611 0.0
N146 N 0.20797 0.80543 0.14925 0.0
N147 N 0.23217 0.79414 0.14659 0.0
C148 C 0.15848 0.79394 0.14454 0.0
H149 H 0.15396 0.80361 0.15618 0.0
H150 H 0.14683 0.7745 0.14348 0.0
H151 H 0.15172 0.80808 0.13499 0.0
C152 C 0.21777 0.84368 0.20746 0.0
N153 N 0.21034 0.85283 0.19297 0.0
N154 N 0.2087 0.83188 0.18316 0.0
C155 C 0.21382 0.80862 0.19127 0.0
C156 C 0.22014 0.81528 0.20692 0.0
C157 C 0.22544 0.86201 0.22102 0.0
H158 H 0.23313 0.88192 0.21651 0.0
H159 H 0.2071 0.86575 0.22849 0.0
H160 H 0.24146 0.85238 0.22853 0.0
O161 O 0.23292 0.89852 0.16992 0.0
O162 O 0.23304 0.86376 0.15294 0.0
H163 H 0.23046 0.77546 0.17776 0.0
H164 H 0.20816 0.76485 0.19372 0.0
C165 C 0.21141 0.78047 0.18433 0.0
H166 H 0.1939 0.77968 0.17597 0.0
H167 H 0.25072 0.80248 0.15043 0.0
O168 O 0.20259 0.91715 0.20133 0.0
C169 C 0.2425 0.88669 0.15766 0.0
Co170 Co 0.36229 0.95335 0.43534 0.0
Co171 Co 0.41111 0.95711 0.41105 0.0
C172 C 0.37486 0.90759 0.41277 0.0
O173 O 0.36101 0.91754 0.42423 0.0
O174 O 0.39455 0.92082 0.40646 0.0
C175 C 0.32894 0.93145 0.46059 0.0
O176 O 0.34277 0.90881 0.45795 0.0
C177 C 0.46077 0.94138 0.39349 0.0
C178 C 0.47835 0.98176 0.38736 0.0
C179 C 0.48281 0.95384 0.38601 0.0
N180 N 0.444 0.96107 0.399 0.0
N181 N 0.45449 0.98515 0.39515 0.0
C182 C 0.45677 0.91145 0.39657 0.0
H183 H 0.44753 0.90838 0.40848 0.0
H184 H 0.47646 0.90013 0.39584 0.0
H185 H 0.44245 0.90303 0.38756 0.0
C186 C 0.40731 0.96518 0.45806 0.0
N187 N 0.39792 0.96017 0.44328 0.0
N188 N 0.41845 0.96161 0.43315 0.0
C189 C 0.44157 0.96761 0.44121 0.0
C190 C 0.43526 0.9701 0.45721 0.0
C191 C 0.38948 0.96696 0.47248 0.0
H192 H 0.37119 0.97964 0.46981 0.0
H193 H 0.38233 0.94609 0.47567 0.0
H194 H 0.4006 0.97591 0.48274 0.0
O195 O 0.35105 0.9829 0.42053 0.0
O196 O 0.38565 0.98573 0.4035 0.0
H197 H 0.46969 0.98961 0.42655 0.0
H198 H 0.48569 0.97175 0.44288 0.0
C199 C 0.46927 0.97064 0.43379 0.0
H200 H 0.47334 0.95295 0.42588 0.0
H201 H 0.44562 0.00391 0.39814 0.0
O202 O 0.33458 0.95281 0.45259 0.0
C203 C 0.36229 0.99369 0.40839 0.0
Co204 Co 0.29932 0.11202 0.68551 0.0
Co205 Co 0.29743 0.16004 0.66076 0.0
C206 C 0.34658 0.12402 0.66358 0.0
O207 O 0.33526 0.11013 0.67458 0.0
O208 O 0.33439 0.14429 0.65719 0.0
C209 C 0.30963 0.06173 0.70076 0.0
O210 O 0.31813 0.05558 0.68638 0.0
C211 C 0.31274 0.21126 0.64482 0.0
C212 C 0.27449 0.22179 0.63217 0.0
C213 C 0.30115 0.23063 0.63472 0.0
N214 N 0.29382 0.192 0.64797 0.0
N215 N 0.27105 0.19835 0.64033 0.0
C216 C 0.34056 0.21164 0.6523 0.0
H217 H 0.34048 0.19961 0.66349 0.0
H218 H 0.34713 0.23299 0.65479 0.0
H219 H 0.35551 0.20209 0.64405 0.0
C220 C 0.28621 0.15756 0.70744 0.0
N221 N 0.29217 0.14793 0.69286 0.0
N222 N 0.29151 0.16827 0.68259 0.0
C223 C 0.28514 0.19159 0.69037 0.0
C224 C 0.28161 0.18555 0.70637 0.0
C225 C 0.28517 0.14013 0.72206 0.0
H226 H 0.26815 0.12517 0.72092 0.0
H227 H 0.30453 0.12835 0.72311 0.0
H228 H 0.2822 0.15259 0.73295 0.0
O229 O 0.27018 0.09998 0.67075 0.0
O230 O 0.26954 0.13365 0.65303 0.0
H231 H 0.26647 0.21602 0.67223 0.0
H232 H 0.27159 0.23392 0.69077 0.0
C233 C 0.28051 0.21867 0.68247 0.0
H234 H 0.30031 0.22659 0.67793 0.0
H235 H 0.25311 0.18672 0.64075 0.0
O236 O 0.30029 0.08562 0.7034 0.0
C237 C 0.26066 0.11074 0.65812 0.0
Co238 Co 0.13993 0.04792 0.93542 0.0
Co239 Co 0.09016 0.04835 0.9117 0.0
C240 C 0.1291 0.0956 0.91376 0.0
O241 O 0.14287 0.08402 0.92471 0.0
O242 O 0.10827 0.084 0.90764 0.0
C243 C 0.17136 0.06653 0.96216 0.0
O244 O 0.15376 0.08691 0.9623 0.0
C245 C 0.03818 0.06589 0.89636 0.0
C246 C 0.02535 0.02714 0.88503 0.0
C247 C 0.01765 0.05432 0.88691 0.0
N248 N 0.05676 0.04633 0.8998 0.0
N249 N 0.04889 0.02326 0.893 0.0
C250 C 0.0407 0.095 0.90178 0.0
H251 H 0.06126 0.09922 0.90665 0.0
H252 H 0.02573 0.09886 0.91144 0.0
H253 H 0.03647 0.10924 0.8918 0.0
C254 C 0.09502 0.03506 0.95826 0.0
N255 N 0.10421 0.04186 0.94367 0.0
N256 N 0.08328 0.0429 0.93379 0.0
C257 C 0.06007 0.03741 0.94189 0.0
C258 C 0.06676 0.03232 0.95763 0.0
C259 C 0.11302 0.03068 0.97242 0.0
H260 H 0.13181 0.01946 0.96886 0.0
H261 H 0.11918 0.05089 0.97727 0.0
H262 H 0.10226 0.01918 0.98192 0.0
O263 O 0.14937 0.01875 0.92018 0.0
O264 O 0.11441 0.01896 0.9033 0.0
H265 H 0.03285 0.01949 0.92492 0.0
H266 H 0.01647 0.02912 0.94332 0.0
C267 C 0.03228 0.03506 0.9345 0.0
H268 H 0.02657 0.05501 0.92915 0.0
H269 H 0.05971 0.00485 0.89373 0.0
O270 O 0.16854 0.04735 0.95209 0.0
C271 C 0.13739 0.00942 0.90788 0.0
Co272 Co 0.8006 0.88708 0.68675 0.0
Co273 Co 0.796 0.84014 0.66124 0.0
C274 C 0.84652 0.87541 0.66446 0.0
O275 O 0.83649 0.88877 0.67607 0.0
O276 O 0.83303 0.85632 0.65771 0.0
C277 C 0.82231 0.91981 0.71236 0.0
O278 O 0.84536 0.90704 0.70914 0.0
C279 C 0.8109 0.78814 0.64558 0.0
C280 C 0.77565 0.78208 0.62948 0.0
C281 C 0.80062 0.7709 0.63387 0.0
N282 N 0.79275 0.80848 0.64801 0.0
N283 N 0.77167 0.80461 0.63841 0.0
C284 C 0.83832 0.78648 0.6535 0.0
H285 H 0.84311 0.80571 0.65991 0.0
H286 H 0.83825 0.76955 0.66228 0.0
H287 H 0.85448 0.78207 0.64457 0.0
C288 C 0.78717 0.84061 0.70815 0.0
N289 N 0.79267 0.85093 0.69365 0.0
N290 N 0.78999 0.83136 0.68297 0.0
C291 C 0.78206 0.80814 0.69034 0.0
C292 C 0.78029 0.81321 0.70651 0.0
C293 C 0.78714 0.85712 0.72312 0.0
H294 H 0.77349 0.87512 0.72164 0.0
H295 H 0.80816 0.86486 0.7254 0.0
H296 H 0.78021 0.84483 0.73346 0.0
O297 O 0.77229 0.90022 0.67171 0.0
O298 O 0.76801 0.86671 0.65403 0.0
H299 H 0.76222 0.7859 0.67164 0.0
H300 H 0.76543 0.76696 0.69006 0.0
C301 C 0.77562 0.78182 0.68202 0.0
H302 H 0.79492 0.77256 0.67764 0.0
H303 H 0.75481 0.81771 0.6377 0.0
O304 O 0.8008 0.91362 0.70463 0.0
C305 C 0.76114 0.89015 0.65934 0.0
Co306 Co 0.8613 0.04595 0.43486 0.0
Co307 Co 0.91061 0.04485 0.41073 0.0
C308 C 0.87336 0.09346 0.41315 0.0
O309 O 0.85902 0.08175 0.42381 0.0
O310 O 0.89427 0.08172 0.40716 0.0
C311 C 0.82778 0.06764 0.45986 0.0
O312 O 0.84136 0.09033 0.45691 0.0
C313 C 0.95826 0.06 0.39085 0.0
C314 C 0.97998 0.0204 0.38902 0.0
C315 C 0.9818 0.04778 0.38479 0.0
N316 N 0.94372 0.04086 0.39869 0.0
N317 N 0.95661 0.01716 0.3973 0.0
C318 C 0.9481 0.08847 0.3879 0.0
H319 H 0.92647 0.08747 0.38395 0.0
H320 H 0.94898 0.10039 0.39912 0.0
H321 H 0.95998 0.09907 0.37852 0.0
C322 C 0.90621 0.03432 0.45762 0.0
N323 N 0.89703 0.03968 0.44284 0.0
N324 N 0.91782 0.03934 0.43285 0.0
C325 C 0.94095 0.03397 0.44107 0.0
C326 C 0.93433 0.03046 0.45696 0.0
C327 C 0.88812 0.03134 0.47186 0.0
H328 H 0.88033 0.05184 0.47534 0.0
H329 H 0.89928 0.02223 0.48206 0.0
H330 H 0.87025 0.0183 0.46885 0.0
O331 O 0.85077 0.01658 0.41995 0.0
O332 O 0.88493 0.01657 0.40255 0.0
H333 H 0.97217 0.01275 0.42827 0.0
H334 H 0.98504 0.03543 0.44337 0.0
C335 C 0.96911 0.03292 0.43407 0.0
H336 H 0.97157 0.04932 0.42508 0.0
H337 H 0.94963 0.99882 0.40223 0.0
O338 O 0.83361 0.04606 0.4521 0.0
C339 C 0.86203 0.00729 0.40742 0.0
Co340 Co 0.70291 0.11144 0.18523 0.0
Co341 Co 0.70386 0.15971 0.1606 0.0
C342 C 0.65502 0.1235 0.1637 0.0
O343 O 0.66678 0.10948 0.17449 0.0
O344 O 0.66687 0.14395 0.15729 0.0
C345 C 0.68148 0.08029 0.21135 0.0
O346 O 0.65958 0.09548 0.20914 0.0
C347 C 0.68811 0.21006 0.14365 0.0
C348 C 0.72757 0.22254 0.13301 0.0
C349 C 0.70021 0.22998 0.13411 0.0
N350 N 0.70746 0.19184 0.14788 0.0
N351 N 0.73096 0.19936 0.14143 0.0
C352 C 0.65934 0.20926 0.14979 0.0
H353 H 0.65836 0.19747 0.16105 0.0
H354 H 0.65146 0.2303 0.15182 0.0
H355 H 0.64606 0.19892 0.14093 0.0
C356 C 0.7172 0.15689 0.20716 0.0
N357 N 0.71036 0.1473 0.19268 0.0
N358 N 0.71025 0.16771 0.18246 0.0
C359 C 0.71663 0.19108 0.19017 0.0
C360 C 0.72136 0.18501 0.20609 0.0
C361 C 0.72184 0.13901 0.22135 0.0
H362 H 0.73212 0.11976 0.21768 0.0
H363 H 0.70175 0.13365 0.22669 0.0
H364 H 0.73462 0.14941 0.23044 0.0
O365 O 0.73168 0.09975 0.17027 0.0
O366 O 0.73172 0.1334 0.15254 0.0
H367 H 0.73494 0.21978 0.17418 0.0
H368 H 0.71892 0.23548 0.19132 0.0
C369 C 0.7173 0.21873 0.18248 0.0
H370 H 0.69829 0.22182 0.17554 0.0
H371 H 0.74935 0.18872 0.14284 0.0
O372 O 0.70249 0.08429 0.20273 0.0
C373 C 0.74086 0.11054 0.15758 0.0
Co374 Co 0.63827 0.95039 0.93515 0.0
Co375 Co 0.58957 0.95167 0.91074 0.0
C376 C 0.62511 0.90227 0.91412 0.0
O377 O 0.63947 0.91405 0.92475 0.0
O378 O 0.60472 0.91428 0.90773 0.0
C379 C 0.66908 0.93168 0.96253 0.0
O380 O 0.65099 0.91177 0.96315 0.0
C381 C 0.53804 0.93648 0.8948 0.0
C382 C 0.52724 0.97522 0.88274 0.0
C383 C 0.51852 0.94843 0.88492 0.0
N384 N 0.55726 0.95535 0.89817 0.0
N385 N 0.55073 0.97841 0.89088 0.0
C386 C 0.53779 0.90837 0.9019 0.0
H387 H 0.54982 0.90805 0.91309 0.0
H388 H 0.51648 0.90161 0.90432 0.0
H389 H 0.54738 0.89379 0.89345 0.0
C390 C 0.59292 0.96503 0.95735 0.0
N391 N 0.60255 0.95834 0.94285 0.0
N392 N 0.5822 0.95912 0.93255 0.0
C393 C 0.55906 0.96649 0.9402 0.0
C394 C 0.5651 0.97029 0.95613 0.0
C395 C 0.61024 0.96794 0.97192 0.0
H396 H 0.63004 0.97773 0.96883 0.0
H397 H 0.61448 0.94731 0.97686 0.0
H398 H 0.59968 0.9803 0.98115 0.0
O399 O 0.64978 0.97866 0.91974 0.0
O400 O 0.61596 0.97866 0.90213 0.0
H401 H 0.53338 0.98533 0.92276 0.0
H402 H 0.5158 0.97659 0.94099 0.0
C403 C 0.53173 0.96995 0.9324 0.0
H404 H 0.52536 0.9502 0.92705 0.0
H405 H 0.56228 0.99637 0.89152 0.0
O406 O 0.66665 0.95028 0.95205 0.0
C407 C 0.63898 0.9876 0.90699 0.0
Co408 Co 0.79847 0.11292 0.81404 0.0
Co409 Co 0.79306 0.16092 0.83876 0.0
C410 C 0.84366 0.12609 0.83674 0.0
O411 O 0.83421 0.11217 0.82517 0.0
O412 O 0.82983 0.14529 0.84312 0.0
C413 C 0.82124 0.0793 0.78908 0.0
O414 O 0.84411 0.09237 0.79232 0.0
C415 C 0.80789 0.21195 0.85496 0.0
C416 C 0.76895 0.22341 0.86659 0.0
C417 C 0.79599 0.23158 0.86477 0.0
N418 N 0.7888 0.19313 0.85131 0.0
N419 N 0.76559 0.20005 0.85832 0.0
C420 C 0.83624 0.21174 0.84819 0.0
H421 H 0.83658 0.20022 0.83682 0.0
H422 H 0.84369 0.23294 0.84619 0.0
H423 H 0.85023 0.20131 0.85664 0.0
C424 C 0.7858 0.1583 0.79175 0.0
N425 N 0.79077 0.14861 0.80645 0.0
N426 N 0.7881 0.1687 0.8168 0.0
C427 C 0.78096 0.19173 0.80898 0.0
C428 C 0.77945 0.1859 0.79289 0.0
C429 C 0.78583 0.14108 0.77705 0.0
H430 H 0.77218 0.12315 0.77879 0.0
H431 H 0.80686 0.13326 0.77493 0.0
H432 H 0.77896 0.1529 0.7665 0.0
O433 O 0.76919 0.10049 0.82877 0.0
O434 O 0.76528 0.13453 0.8461 0.0
H435 H 0.75917 0.21583 0.82603 0.0
H436 H 0.76811 0.23423 0.80809 0.0
C437 C 0.77512 0.21865 0.81679 0.0
H438 H 0.79398 0.22618 0.82268 0.0
H439 H 0.74745 0.18882 0.85744 0.0
O440 O 0.7995 0.08561 0.79656 0.0
C441 C 0.75805 0.11108 0.841 0.0
Co442 Co 0.63862 0.04793 0.5641 0.0
Co443 Co 0.59078 0.04518 0.58898 0.0
C444 C 0.62529 0.0956 0.58513 0.0
O445 O 0.63933 0.08461 0.57409 0.0
O446 O 0.60587 0.08265 0.59191 0.0
C447 C 0.67091 0.0689 0.53824 0.0
O448 O 0.65731 0.09166 0.54097 0.0
C449 C 0.53963 0.06091 0.60482 0.0
C450 C 0.52915 0.0231 0.61792 0.0
C451 C 0.52035 0.0497 0.61512 0.0
N452 N 0.55883 0.04185 0.60182 0.0
N453 N 0.5525 0.01933 0.60971 0.0
C454 C 0.53919 0.08848 0.59704 0.0
H455 H 0.55101 0.08799 0.58577 0.0
H456 H 0.51782 0.09503 0.5946 0.0
H457 H 0.54892 0.10367 0.60506 0.0
C458 C 0.59321 0.03208 0.54247 0.0
N459 N 0.60291 0.03885 0.55693 0.0
N460 N 0.58268 0.03816 0.56728 0.0
C461 C 0.55939 0.03118 0.55967 0.0
C462 C 0.56532 0.02714 0.54373 0.0
C463 C 0.61036 0.03089 0.52775 0.0
H464 H 0.62824 0.0173 0.52981 0.0
H465 H 0.61826 0.0517 0.52508 0.0
H466 H 0.59849 0.02339 0.51738 0.0
O467 O 0.65172 0.02085 0.57978 0.0
O468 O 0.61752 0.01792 0.59709 0.0
H469 H 0.53482 0.01304 0.57791 0.0
H470 H 0.51689 0.01822 0.55937 0.0
C471 C 0.53229 0.02701 0.56763 0.0
H472 H 0.52466 0.04696 0.57211 0.0
H473 H 0.5641 0.00137 0.60946 0.0
O474 O 0.6655 0.04768 0.54642 0.0
C475 C 0.64117 0.01069 0.59229 0.0
Co476 Co 0.69956 0.88867 0.31419 0.0
Co477 Co 0.70231 0.83961 0.33845 0.0
C478 C 0.65351 0.87705 0.33666 0.0
O479 O 0.66376 0.89085 0.32528 0.0
O480 O 0.66633 0.85699 0.34284 0.0
C481 C 0.6779 0.92296 0.2894 0.0
O482 O 0.65478 0.91034 0.29263 0.0
C483 C 0.68635 0.79111 0.35744 0.0
C484 C 0.72644 0.77087 0.36085 0.0
C485 C 0.6987 0.76797 0.36394 0.0
N486 N 0.70587 0.80647 0.35048 0.0
N487 N 0.7298 0.79443 0.35277 0.0
C488 C 0.65705 0.79989 0.35893 0.0
H489 H 0.65628 0.82137 0.36313 0.0
H490 H 0.64705 0.79891 0.3471 0.0
H491 H 0.64555 0.78724 0.36759 0.0
C492 C 0.71092 0.84364 0.29145 0.0
N493 N 0.70573 0.85291 0.30623 0.0
N494 N 0.70667 0.83225 0.3163 0.0
C495 C 0.71237 0.80913 0.30815 0.0
C496 C 0.71538 0.8156 0.2922 0.0
C497 C 0.71352 0.86169 0.27716 0.0
H498 H 0.72692 0.87939 0.28 0.0
H499 H 0.69299 0.86978 0.27399 0.0
H500 H 0.72209 0.85046 0.26683 0.0
O501 O 0.72935 0.8993 0.32898 0.0
O502 O 0.73146 0.8646 0.34599 0.0
H503 H 0.73462 0.77951 0.32164 0.0
H504 H 0.71363 0.76494 0.30619 0.0
C505 C 0.7147 0.78122 0.31538 0.0
H506 H 0.69794 0.77802 0.32407 0.0
H507 H 0.74841 0.80212 0.3486 0.0
O508 O 0.69949 0.91627 0.2969 0.0
C509 C 0.73992 0.88779 0.34111 0.0
Co510 Co 0.86224 0.95096 0.06362 0.0
Co511 Co 0.91068 0.95245 0.08819 0.0
C512 C 0.87452 0.90333 0.08524 0.0
O513 O 0.86053 0.91481 0.07433 0.0
O514 O 0.89485 0.91544 0.09162 0.0
C515 C 0.83208 0.93235 0.03593 0.0
O516 O 0.85073 0.91298 0.03504 0.0
C517 C 0.9617 0.93653 0.10433 0.0
C518 C 0.97254 0.97472 0.117 0.0
C519 C 0.98086 0.94791 0.1146 0.0
N520 N 0.94304 0.95585 0.10078 0.0
N521 N 0.94967 0.97863 0.10835 0.0
C522 C 0.95937 0.90731 0.09909 0.0
H523 H 0.94517 0.89647 0.10724 0.0
H524 H 0.95059 0.90634 0.08694 0.0
H525 H 0.97935 0.89658 0.0994 0.0
C526 C 0.90791 0.96547 0.04151 0.0
N527 N 0.89812 0.95855 0.05596 0.0
N528 N 0.9184 0.95902 0.0663 0.0
C529 C 0.94169 0.96617 0.05874 0.0
C530 C 0.93582 0.97045 0.0428 0.0
C531 C 0.89052 0.96951 0.02706 0.0
H532 H 0.87048 0.97848 0.03044 0.0
H533 H 0.88685 0.94935 0.02136 0.0
H534 H 0.90078 0.9831 0.01831 0.0
O535 O 0.85083 0.97975 0.07873 0.0
O536 O 0.88462 0.98028 0.09636 0.0
H537 H 0.96819 0.9849 0.07581 0.0
H538 H 0.98558 0.97337 0.05803 0.0
C539 C 0.96906 0.9686 0.06664 0.0
H540 H 0.97406 0.949 0.07262 0.0
H541 H 0.93836 0.99675 0.10779 0.0
O542 O 0.83397 0.95058 0.04665 0.0
C543 C 0.86167 0.98919 0.09135 0.0
Co544 Co 0.70298 0.60996 0.81465 0.0
Co545 Co 0.70394 0.6588 0.83884 0.0
C546 C 0.65568 0.62156 0.83671 0.0
O547 O 0.66714 0.60748 0.82583 0.0
O548 O 0.66753 0.6423 0.84278 0.0
C549 C 0.68133 0.57718 0.78924 0.0
O550 O 0.65878 0.59115 0.79195 0.0
C551 C 0.68752 0.70909 0.85556 0.0
C552 C 0.72691 0.72257 0.86586 0.0
C553 C 0.69937 0.72939 0.86492 0.0
N554 N 0.70718 0.69124 0.85129 0.0
N555 N 0.73064 0.69936 0.85753 0.0
C556 C 0.65865 0.70755 0.84962 0.0
H557 H 0.65769 0.69549 0.83846 0.0
H558 H 0.65031 0.72839 0.84748 0.0
H559 H 0.64575 0.69717 0.85865 0.0
C560 C 0.71613 0.65514 0.79223 0.0
N561 N 0.70953 0.6458 0.8068 0.0
N562 N 0.70928 0.66645 0.81687 0.0
C563 C 0.71524 0.68972 0.80895 0.0
C564 C 0.71997 0.68335 0.79307 0.0
C565 C 0.72113 0.63692 0.77822 0.0
H566 H 0.73183 0.61801 0.78209 0.0
H567 H 0.70114 0.63093 0.77298 0.0
H568 H 0.73366 0.64728 0.76901 0.0
O569 O 0.73259 0.59922 0.82932 0.0
O570 O 0.7328 0.63345 0.84667 0.0
H571 H 0.73367 0.71913 0.82446 0.0
H572 H 0.71654 0.73413 0.80746 0.0
C573 C 0.71569 0.71754 0.81645 0.0
H574 H 0.69694 0.7204 0.82365 0.0
H575 H 0.74922 0.68908 0.85605 0.0
O576 O 0.70268 0.58249 0.79731 0.0
C577 C 0.74219 0.61064 0.84173 0.0
Co578 Co 0.6369 0.45164 0.06396 0.0
Co579 Co 0.58889 0.45207 0.08886 0.0
C580 C 0.62617 0.40374 0.08553 0.0
O581 O 0.63983 0.4155 0.07459 0.0
O582 O 0.60573 0.41547 0.09202 0.0
C583 C 0.67027 0.43068 0.03867 0.0
O584 O 0.65781 0.40753 0.04203 0.0
C585 C 0.53693 0.43611 0.10438 0.0
C586 C 0.5301 0.47154 0.12026 0.0
C587 C 0.5194 0.44632 0.11597 0.0
N588 N 0.557 0.45457 0.10194 0.0
N589 N 0.55266 0.47573 0.11141 0.0
C590 C 0.53583 0.40852 0.09663 0.0
H591 H 0.55519 0.40396 0.0903 0.0
H592 H 0.51894 0.40811 0.08782 0.0
H593 H 0.53164 0.39247 0.10565 0.0
C594 C 0.59087 0.46475 0.04224 0.0
N595 N 0.60072 0.45836 0.05672 0.0
N596 N 0.58047 0.45859 0.06708 0.0
C597 C 0.55705 0.46513 0.05945 0.0
C598 C 0.56286 0.46914 0.04348 0.0
C599 C 0.60809 0.46642 0.02757 0.0
H600 H 0.61787 0.44624 0.02543 0.0
H601 H 0.59583 0.47211 0.01697 0.0
H602 H 0.62466 0.48168 0.02939 0.0
O603 O 0.64828 0.48053 0.07902 0.0
O604 O 0.61478 0.48025 0.09684 0.0
H605 H 0.51525 0.48009 0.05955 0.0
H606 H 0.52142 0.44954 0.07104 0.0
C607 C 0.53006 0.46962 0.06749 0.0
H608 H 0.53301 0.48213 0.07835 0.0
H609 H 0.56545 0.49284 0.11207 0.0
O610 O 0.66374 0.45226 0.04624 0.0
C611 C 0.63751 0.48958 0.09175 0.0
Co612 Co 0.7993 0.38744 0.31394 0.0
Co613 Co 0.79776 0.33899 0.33855 0.0
C614 C 0.84692 0.37505 0.33546 0.0
O615 O 0.83534 0.38924 0.32467 0.0
O616 O 0.8349 0.35459 0.34178 0.0
C617 C 0.82047 0.42137 0.28876 0.0
O618 O 0.84363 0.40874 0.29186 0.0
C619 C 0.8131 0.2877 0.35459 0.0
C620 C 0.77429 0.2765 0.36645 0.0
C621 C 0.80119 0.26806 0.36439 0.0
N622 N 0.79411 0.30675 0.35114 0.0
N623 N 0.771 0.29999 0.35831 0.0
C624 C 0.84131 0.28768 0.34762 0.0
H625 H 0.84163 0.29956 0.33637 0.0
H626 H 0.84837 0.26642 0.34534 0.0
H627 H 0.85564 0.29757 0.3561 0.0
C628 C 0.78628 0.34195 0.29183 0.0
N629 N 0.79213 0.3516 0.30643 0.0
N630 N 0.79104 0.33129 0.31673 0.0
C631 C 0.78421 0.3081 0.30897 0.0
C632 C 0.78113 0.31411 0.29298 0.0
C633 C 0.78464 0.35932 0.27722 0.0
H634 H 0.7707 0.37688 0.27942 0.0
H635 H 0.80526 0.36769 0.27455 0.0
H636 H 0.77722 0.34742 0.26684 0.0
O637 O 0.77061 0.399 0.3291 0.0
O638 O 0.77043 0.36533 0.34682 0.0
H639 H 0.76473 0.28279 0.32637 0.0
H640 H 0.77312 0.26512 0.3081 0.0
C641 C 0.7801 0.28083 0.31673 0.0
H642 H 0.79968 0.27401 0.32211 0.0
H643 H 0.75294 0.31137 0.35759 0.0
O644 O 0.79903 0.41476 0.29643 0.0
C645 C 0.76151 0.38829 0.34184 0.0
Co646 Co 0.86127 0.54857 0.56392 0.0
Co647 Co 0.90956 0.54705 0.58849 0.0
C648 C 0.87305 0.59594 0.5858 0.0
O649 O 0.85903 0.58453 0.57488 0.0
O650 O 0.89351 0.58387 0.59206 0.0
C651 C 0.82822 0.57016 0.5386 0.0
O652 O 0.84154 0.59297 0.54163 0.0
C653 C 0.96075 0.56296 0.60432 0.0
C654 C 0.97173 0.52482 0.61695 0.0
C655 C 0.98028 0.55158 0.6144 0.0
N656 N 0.94169 0.54383 0.60118 0.0
N657 N 0.94832 0.52112 0.60881 0.0
C658 C 0.96079 0.59079 0.59685 0.0
H659 H 0.94868 0.5906 0.58568 0.0
H660 H 0.98205 0.59758 0.59431 0.0
H661 H 0.95115 0.60563 0.60513 0.0
C662 C 0.9068 0.53533 0.54182 0.0
N663 N 0.8972 0.54159 0.55638 0.0
N664 N 0.9176 0.54116 0.56662 0.0
C665 C 0.94092 0.5348 0.55884 0.0
C666 C 0.93483 0.53094 0.54289 0.0
C667 C 0.88933 0.53372 0.52725 0.0
H668 H 0.88019 0.55413 0.52492 0.0
H669 H 0.90127 0.5273 0.51667 0.0
H670 H 0.8723 0.51907 0.5293 0.0
O671 O 0.84987 0.51935 0.57874 0.0
O672 O 0.88365 0.51882 0.59636 0.0
H673 H 0.96565 0.51622 0.57687 0.0
H674 H 0.98346 0.52196 0.55836 0.0
C675 C 0.96808 0.53048 0.56671 0.0
H676 H 0.97567 0.55033 0.57137 0.0
H677 H 0.93688 0.50306 0.60841 0.0
O678 O 0.83411 0.54863 0.54639 0.0
C679 C 0.8608 0.50978 0.59129 0.0
Co680 Co 0.70183 0.38837 0.68494 0.0
Co681 Co 0.70213 0.34006 0.66026 0.0
C682 C 0.65403 0.37757 0.66329 0.0
O683 O 0.66567 0.39123 0.67427 0.0
O684 O 0.66582 0.35713 0.65686 0.0
C685 C 0.68113 0.42012 0.711 0.0
O686 O 0.65875 0.40573 0.70862 0.0
C687 C 0.68541 0.28886 0.64417 0.0
C688 C 0.72224 0.27996 0.62979 0.0
C689 C 0.69603 0.27071 0.63308 0.0
N690 N 0.70458 0.30792 0.64736 0.0
N691 N 0.72657 0.30236 0.63877 0.0
C692 C 0.65691 0.2892 0.65077 0.0
H693 H 0.65355 0.30738 0.65839 0.0
H694 H 0.65342 0.27063 0.65807 0.0
H695 H 0.64184 0.28895 0.64089 0.0
C696 C 0.71551 0.34264 0.7068 0.0
N697 N 0.70863 0.35231 0.69235 0.0
N698 N 0.70831 0.33191 0.68211 0.0
C699 C 0.71463 0.3085 0.68979 0.0
C700 C 0.7195 0.3145 0.70571 0.0
C701 C 0.72053 0.36051 0.72097 0.0
H702 H 0.73129 0.37947 0.71726 0.0
H703 H 0.70055 0.36641 0.72625 0.0
H704 H 0.73302 0.34989 0.7301 0.0
O705 O 0.7308 0.39946 0.66994 0.0
O706 O 0.7307 0.36565 0.6523 0.0
H707 H 0.73168 0.2804 0.67297 0.0
H708 H 0.71828 0.26411 0.6907 0.0
C709 C 0.71517 0.2809 0.68203 0.0
H710 H 0.69541 0.27737 0.67593 0.0
H711 H 0.74437 0.31421 0.63879 0.0
O712 O 0.70213 0.41543 0.70249 0.0
C713 C 0.74004 0.38843 0.65733 0.0
Co714 Co 0.86123 0.4524 0.93555 0.0
Co715 Co 0.91062 0.45166 0.91149 0.0
C716 C 0.87199 0.4044 0.91378 0.0
O717 O 0.85807 0.4166 0.92446 0.0
O718 O 0.89327 0.41541 0.90776 0.0
C719 C 0.82812 0.43164 0.96095 0.0
O720 O 0.84213 0.40906 0.95841 0.0
C721 C 0.95834 0.43585 0.89171 0.0
C722 C 0.98025 0.47535 0.8899 0.0
C723 C 0.98194 0.44797 0.88564 0.0
N724 N 0.94388 0.45507 0.89954 0.0
N725 N 0.95691 0.47869 0.89818 0.0
C726 C 0.9481 0.40738 0.88884 0.0
H727 H 0.92638 0.40836 0.88504 0.0
H728 H 0.94918 0.39548 0.90006 0.0
H729 H 0.95981 0.39677 0.87938 0.0
C730 C 0.90629 0.46421 0.95813 0.0
N731 N 0.89704 0.45801 0.94349 0.0
N732 N 0.91796 0.45656 0.93362 0.0
C733 C 0.94128 0.46086 0.94189 0.0
C734 C 0.93459 0.46605 0.9576 0.0
C735 C 0.88826 0.46885 0.97225 0.0
H736 H 0.87105 0.48257 0.96894 0.0
H737 H 0.87946 0.44895 0.97607 0.0
H738 H 0.89982 0.47786 0.98234 0.0
O739 O 0.85148 0.48195 0.92074 0.0
O740 O 0.88574 0.48093 0.90342 0.0
H741 H 0.97303 0.48104 0.92898 0.0
H742 H 0.98531 0.45835 0.9442 0.0
C743 C 0.96945 0.46106 0.93488 0.0
H744 H 0.97146 0.44445 0.92598 0.0
H745 H 0.95002 0.49707 0.90312 0.0
O746 O 0.83357 0.45289 0.95281 0.0
C747 C 0.86313 0.49095 0.90827 0.0
Co748 Co 0.79639 0.6126 0.18589 0.0
Co749 Co 0.79404 0.66046 0.16095 0.0
C750 C 0.84348 0.62457 0.16403 0.0
O751 O 0.8328 0.61093 0.17535 0.0
O752 O 0.83067 0.64421 0.15739 0.0
C753 C 0.81783 0.58018 0.21159 0.0
O754 O 0.84046 0.5939 0.20874 0.0
C755 C 0.81033 0.71122 0.14481 0.0
C756 C 0.77236 0.72231 0.13205 0.0
C757 C 0.7992 0.73063 0.13454 0.0
N758 N 0.79098 0.69245 0.14808 0.0
N759 N 0.76837 0.69914 0.14039 0.0
C760 C 0.83814 0.71112 0.1523 0.0
H761 H 0.83774 0.6994 0.16361 0.0
H762 H 0.84524 0.73235 0.15461 0.0
H763 H 0.85286 0.70097 0.14415 0.0
C764 C 0.782 0.65836 0.20761 0.0
N765 N 0.78861 0.64855 0.19315 0.0
N766 N 0.78809 0.66877 0.18278 0.0
C767 C 0.78141 0.69216 0.19039 0.0
C768 C 0.77736 0.68632 0.20635 0.0
C769 C 0.78013 0.64116 0.22228 0.0
H770 H 0.76615 0.62363 0.22009 0.0
H771 H 0.80069 0.63272 0.22505 0.0
H772 H 0.77274 0.65314 0.23263 0.0
O773 O 0.76773 0.60046 0.17077 0.0
O774 O 0.76604 0.63435 0.15322 0.0
H775 H 0.76255 0.71663 0.17235 0.0
H776 H 0.76896 0.73482 0.19068 0.0
C777 C 0.77711 0.71918 0.18236 0.0
H778 H 0.79688 0.72649 0.17746 0.0
H779 H 0.7502 0.6879 0.14085 0.0
O780 O 0.79642 0.58563 0.20358 0.0
C781 C 0.75775 0.6112 0.15825 0.0
Co782 Co 0.63724 0.54841 0.43546 0.0
Co783 Co 0.59005 0.54395 0.41019 0.0
C784 C 0.62538 0.59428 0.4131 0.0
O785 O 0.63886 0.58438 0.4247 0.0
O786 O 0.60624 0.58077 0.40643 0.0
C787 C 0.67138 0.57067 0.46019 0.0
O788 O 0.65973 0.59396 0.45621 0.0
C789 C 0.53755 0.55822 0.39507 0.0
C790 C 0.53245 0.52396 0.37816 0.0
C791 C 0.52053 0.54824 0.38317 0.0
N792 N 0.55846 0.54058 0.39699 0.0
N793 N 0.55518 0.52008 0.38691 0.0
C794 C 0.53522 0.58497 0.40367 0.0
H795 H 0.55473 0.59024 0.40967 0.0
H796 H 0.51906 0.58341 0.41288 0.0
H797 H 0.52932 0.60151 0.39528 0.0
C798 C 0.59097 0.53565 0.45715 0.0
N799 N 0.60111 0.54085 0.44258 0.0
N800 N 0.58148 0.53794 0.43198 0.0
C801 C 0.55837 0.52996 0.43945 0.0
C802 C 0.56351 0.52842 0.45569 0.0
C803 C 0.60724 0.53857 0.47213 0.0
H804 H 0.61907 0.55793 0.47174 0.0
H805 H 0.59393 0.53884 0.4828 0.0
H806 H 0.622 0.52134 0.47302 0.0
O807 O 0.64997 0.51935 0.42057 0.0
O808 O 0.61644 0.51631 0.40285 0.0
H809 H 0.52032 0.5072 0.43849 0.0
H810 H 0.52037 0.53951 0.42812 0.0
C811 C 0.5328 0.52117 0.43103 0.0
H812 H 0.53808 0.51048 0.41983 0.0
H813 H 0.56881 0.50371 0.38576 0.0
O814 O 0.66401 0.54873 0.45325 0.0
C815 C 0.63965 0.5087 0.4081 0.0
Co816 Co 0.29589 0.38764 0.18505 0.0
Co817 Co 0.29433 0.33936 0.16035 0.0
C818 C 0.3434 0.3755 0.16331 0.0
O819 O 0.332 0.38961 0.1742 0.0
O820 O 0.33123 0.35518 0.15696 0.0
C821 C 0.31743 0.42077 0.21042 0.0
O822 O 0.34035 0.40773 0.20725 0.0
C823 C 0.31019 0.28818 0.14445 0.0
C824 C 0.27184 0.27691 0.13212 0.0
C825 C 0.29868 0.26851 0.1345 0.0
N826 N 0.29103 0.30719 0.14767 0.0
N827 N 0.2682 0.3004 0.14022 0.0
C828 C 0.33815 0.28826 0.15175 0.0
H829 H 0.33812 0.30041 0.1629 0.0
H830 H 0.34505 0.26704 0.15428 0.0
H831 H 0.35281 0.2979 0.14336 0.0
C832 C 0.28233 0.34201 0.207 0.0
N833 N 0.28863 0.35171 0.19247 0.0
N834 N 0.28828 0.33133 0.18219 0.0
C835 C 0.28201 0.30797 0.18994 0.0
C836 C 0.27811 0.314 0.20587 0.0
C837 C 0.2802 0.35938 0.22159 0.0
H838 H 0.26615 0.37681 0.21928 0.0
H839 H 0.30068 0.36795 0.22441 0.0
H840 H 0.27271 0.34744 0.23194 0.0
O841 O 0.26694 0.39923 0.17011 0.0
O842 O 0.26638 0.36552 0.15242 0.0
H843 H 0.2635 0.28267 0.17217 0.0
H844 H 0.27059 0.26506 0.19061 0.0
C845 C 0.27824 0.28069 0.18212 0.0
H846 H 0.29812 0.27372 0.1772 0.0
H847 H 0.25009 0.31174 0.14073 0.0
O848 O 0.29588 0.41472 0.20268 0.0
C849 C 0.25746 0.38843 0.1575 0.0
Co850 Co 0.36061 0.54913 0.93579 0.0
Co851 Co 0.40961 0.5473 0.91152 0.0
C852 C 0.37378 0.59684 0.91466 0.0
O853 O 0.35944 0.58548 0.92544 0.0
O854 O 0.39397 0.58446 0.90831 0.0
C855 C 0.32972 0.56822 0.96293 0.0
O856 O 0.34775 0.58821 0.96334 0.0
C857 C 0.46238 0.56199 0.8963 0.0
C858 C 0.46937 0.52556 0.88124 0.0
C859 C 0.48017 0.55094 0.88511 0.0
N860 N 0.44207 0.54386 0.89893 0.0
N861 N 0.44653 0.52209 0.88995 0.0
C862 C 0.46364 0.58998 0.90356 0.0
H863 H 0.44417 0.59518 0.90958 0.0
H864 H 0.48022 0.59059 0.91255 0.0
H865 H 0.46839 0.60547 0.8943 0.0
C866 C 0.40565 0.53436 0.95818 0.0
N867 N 0.39627 0.54109 0.94362 0.0
N868 N 0.41672 0.53993 0.9334 0.0
C869 C 0.43963 0.53214 0.94113 0.0
C870 C 0.4334 0.52858 0.95707 0.0
C871 C 0.38808 0.53168 0.97266 0.0
H872 H 0.38376 0.5524 0.97746 0.0
H873 H 0.39842 0.51943 0.98201 0.0
H874 H 0.36832 0.52187 0.9695 0.0
O875 O 0.34913 0.52087 0.92032 0.0
O876 O 0.38331 0.52017 0.90295 0.0
H877 H 0.48239 0.51996 0.9418 0.0
H878 H 0.47428 0.54797 0.92871 0.0
C879 C 0.46692 0.52807 0.93337 0.0
H880 H 0.46474 0.51374 0.92322 0.0
H881 H 0.43361 0.50507 0.8895 0.0
O882 O 0.33218 0.54934 0.95264 0.0
C883 C 0.36009 0.51159 0.90769 0.0
Co884 Co 0.20133 0.61236 0.68529 0.0
Co885 Co 0.20313 0.6611 0.66097 0.0
C886 C 0.15421 0.62466 0.66329 0.0
O887 O 0.16556 0.61046 0.67415 0.0
O888 O 0.1663 0.64523 0.65716 0.0
C889 C 0.17926 0.57826 0.71004 0.0
O890 O 0.15624 0.59097 0.70668 0.0
C891 C 0.18777 0.71234 0.64496 0.0
C892 C 0.22641 0.72335 0.63285 0.0
C893 C 0.19952 0.73181 0.63497 0.0
N894 N 0.20682 0.69337 0.64843 0.0
N895 N 0.22984 0.70003 0.64113 0.0
C896 C 0.15961 0.71232 0.652 0.0
H897 H 0.15939 0.70044 0.66324 0.0
H898 H 0.15255 0.73357 0.65429 0.0
H899 H 0.14523 0.70239 0.64356 0.0
C900 C 0.2143 0.65745 0.70766 0.0
N901 N 0.20824 0.64813 0.69302 0.0
N902 N 0.20878 0.66873 0.68291 0.0
C903 C 0.21501 0.6919 0.69086 0.0
C904 C 0.21869 0.6855 0.70679 0.0
C905 C 0.21567 0.6397 0.72213 0.0
H906 H 0.19537 0.63007 0.7241 0.0
H907 H 0.22141 0.65152 0.73288 0.0
H908 H 0.23075 0.62302 0.72015 0.0
O909 O 0.23066 0.60112 0.67052 0.0
O910 O 0.23127 0.63516 0.65306 0.0
H911 H 0.2274 0.73457 0.69168 0.0
H912 H 0.19964 0.72663 0.67825 0.0
C913 C 0.21937 0.7192 0.68316 0.0
H914 H 0.23406 0.71701 0.67319 0.0
H915 H 0.2479 0.68864 0.64181 0.0
O916 O 0.20102 0.58491 0.70268 0.0
C917 C 0.24027 0.61222 0.65802 0.0
Co918 Co 0.13743 0.45152 0.43566 0.0
Co919 Co 0.08946 0.45507 0.41099 0.0
C920 C 0.12512 0.40521 0.41346 0.0
O921 O 0.13898 0.41547 0.42481 0.0
O922 O 0.1055 0.41835 0.40703 0.0
C923 C 0.17026 0.42957 0.46103 0.0
O924 O 0.15691 0.40678 0.458 0.0
C925 C 0.03879 0.43913 0.39485 0.0
C926 C 0.02711 0.47755 0.38272 0.0
C927 C 0.01917 0.45049 0.38483 0.0
N928 N 0.05736 0.45854 0.39834 0.0
N929 N 0.05032 0.48143 0.39103 0.0
C930 C 0.03923 0.41104 0.40198 0.0
H931 H 0.05083 0.41118 0.41332 0.0
H932 H 0.01808 0.40355 0.40414 0.0
H933 H 0.04966 0.39679 0.39368 0.0
C934 C 0.09185 0.46441 0.45785 0.0
N935 N 0.10158 0.45884 0.44323 0.0
N936 N 0.08145 0.46074 0.43286 0.0
C937 C 0.05833 0.46795 0.44057 0.0
C938 C 0.06414 0.47039 0.45664 0.0
C939 C 0.10922 0.46573 0.47248 0.0
H940 H 0.11652 0.44481 0.47543 0.0
H941 H 0.09773 0.47415 0.48276 0.0
H942 H 0.12747 0.47868 0.47016 0.0
O943 O 0.14944 0.48076 0.42076 0.0
O944 O 0.11539 0.48307 0.40335 0.0
H945 H 0.03345 0.48863 0.42342 0.0
H946 H 0.01519 0.47873 0.44125 0.0
C947 C 0.03126 0.47254 0.43265 0.0
H948 H 0.02469 0.45337 0.42671 0.0
H949 H 0.06137 0.4997 0.39173 0.0
O950 O 0.1645 0.45109 0.4532 0.0
C951 C 0.1386 0.49116 0.40837 0.0
Co952 Co 0.29782 0.61127 0.31417 0.0
Co953 Co 0.29728 0.65993 0.33883 0.0
C954 C 0.34502 0.62132 0.33612 0.0
O955 O 0.33371 0.60785 0.32495 0.0
O956 O 0.33315 0.6418 0.34248 0.0
C957 C 0.31811 0.57821 0.28855 0.0
O958 O 0.34096 0.59168 0.29125 0.0
C959 C 0.31473 0.71162 0.35448 0.0
C960 C 0.27627 0.72386 0.36633 0.0
C961 C 0.30328 0.73194 0.36414 0.0
N962 N 0.29526 0.69285 0.3512 0.0
N963 N 0.27237 0.70035 0.35834 0.0
C964 C 0.34359 0.70951 0.34858 0.0
H965 H 0.34778 0.68909 0.34351 0.0
H966 H 0.34684 0.72471 0.33897 0.0
H967 H 0.35825 0.71366 0.35837 0.0
C968 C 0.28643 0.65727 0.29201 0.0
N969 N 0.29212 0.64742 0.3066 0.0
N970 N 0.2914 0.66771 0.31693 0.0
C971 C 0.28489 0.69104 0.30921 0.0
C972 C 0.28168 0.6852 0.29321 0.0
C973 C 0.28382 0.63991 0.27744 0.0
H974 H 0.2702 0.62223 0.27996 0.0
H975 H 0.30429 0.63175 0.27422 0.0
H976 H 0.27551 0.65174 0.26726 0.0
O977 O 0.26852 0.601 0.32932 0.0
O978 O 0.26837 0.63504 0.34685 0.0
H979 H 0.26552 0.71677 0.32644 0.0
H980 H 0.27533 0.73444 0.30842 0.0
C981 C 0.28137 0.71834 0.31705 0.0
H982 H 0.30093 0.72442 0.32271 0.0
H983 H 0.25405 0.68935 0.35777 0.0
O984 O 0.29691 0.58396 0.29667 0.0
C985 C 0.25911 0.61221 0.34186 0.0
Co986 Co 0.13715 0.54964 0.06434 0.0
Co987 Co 0.08801 0.54728 0.0886 0.0
C988 C 0.12457 0.59644 0.0862 0.0
O989 O 0.13843 0.58601 0.0749 0.0
O990 O 0.10478 0.58355 0.09259 0.0
C991 C 0.16731 0.56815 0.03671 0.0
O992 O 0.14825 0.58708 0.03561 0.0
C993 C 0.04005 0.56288 0.10821 0.0
C994 C 0.01904 0.52303 0.1108 0.0
C995 C 0.01674 0.55059 0.11454 0.0
N996 N 0.05492 0.54356 0.10072 0.0
N997 N 0.04243 0.51973 0.10255 0.0
C998 C 0.04954 0.59181 0.11045 0.0
H999 H 0.07122 0.59174 0.11432 0.0
H1000 H 0.04823 0.6029 0.09896 0.0
H1001 H 0.03753 0.60275 0.11964 0.0
C1002 C 0.09224 0.53501 0.04182 0.0
N1003 N 0.10153 0.54195 0.05638 0.0
N1004 N 0.08082 0.54205 0.06644 0.0
C1005 C 0.05764 0.5359 0.05846 0.0
C1006 C 0.06414 0.53099 0.04268 0.0
C1007 C 0.11022 0.52979 0.02774 0.0
H1008 H 0.13018 0.52126 0.03163 0.0
H1009 H 0.11394 0.54942 0.02145 0.0
H1010 H 0.10038 0.51534 0.01931 0.0
O1011 O 0.1482 0.52082 0.07954 0.0
O1012 O 0.11346 0.51874 0.09652 0.0
H1013 H 0.02631 0.51558 0.07168 0.0
H1014 H 0.01356 0.53793 0.05637 0.0
C1015 C 0.02958 0.53549 0.06563 0.0
H1016 H 0.02746 0.55227 0.07441 0.0
H1017 H 0.04969 0.50126 0.09794 0.0
O1018 O 0.16572 0.55014 0.04757 0.0
C1019 C 0.13682 0.51051 0.09177 0.0
Co1020 Co 0.20129 0.38781 0.81335 0.0
Co1021 Co 0.20512 0.34007 0.83835 0.0
C1022 C 0.15494 0.37553 0.8354 0.0
O1023 O 0.1651 0.38922 0.82395 0.0
O1024 O 0.16829 0.35623 0.84203 0.0
C1025 C 0.17959 0.42022 0.78768 0.0
O1026 O 0.1569 0.40659 0.79053 0.0
C1027 C 0.19067 0.28779 0.85396 0.0
C1028 C 0.22689 0.28122 0.86925 0.0
C1029 C 0.20162 0.27024 0.86531 0.0
N1030 N 0.20874 0.30811 0.8513 0.0
N1031 N 0.23039 0.30394 0.86043 0.0
C1032 C 0.16279 0.28635 0.84658 0.0
H1033 H 0.15751 0.30584 0.84058 0.0
H1034 H 0.16242 0.26984 0.83753 0.0
H1035 H 0.1472 0.28142 0.85575 0.0
C1036 C 0.21488 0.34205 0.79148 0.0
N1037 N 0.20908 0.3519 0.80605 0.0
N1038 N 0.21134 0.33196 0.81652 0.0
C1039 C 0.2192 0.30891 0.80895 0.0
C1040 C 0.22148 0.31452 0.79284 0.0
C1041 C 0.21574 0.35918 0.77675 0.0
H1042 H 0.22862 0.37755 0.77887 0.0
H1043 H 0.19471 0.36627 0.7739 0.0
H1044 H 0.22404 0.34757 0.76648 0.0
O1045 O 0.23008 0.4003 0.8284 0.0
O1046 O 0.2327 0.3665 0.84597 0.0
H1047 H 0.23898 0.2854 0.82712 0.0
H1048 H 0.23354 0.26681 0.80875 0.0
C1049 C 0.22472 0.28215 0.81702 0.0
H1050 H 0.20525 0.27394 0.82182 0.0
H1051 H 0.24735 0.31694 0.86087 0.0
O1052 O 0.20098 0.41474 0.7957 0.0
C1053 C 0.24047 0.38977 0.84087 0.0
Co1054 Co 0.36063 0.45259 0.56426 0.0
Co1055 Co 0.40953 0.45424 0.58842 0.0
C1056 C 0.37305 0.40541 0.58622 0.0
O1057 O 0.35879 0.41681 0.5754 0.0
O1058 O 0.39368 0.41745 0.59231 0.0
C1059 C 0.32747 0.4305 0.53916 0.0
O1060 O 0.34114 0.40787 0.54212 0.0
C1061 C 0.46073 0.43893 0.60445 0.0
C1062 C 0.47234 0.47794 0.61596 0.0
C1063 C 0.48046 0.45087 0.61418 0.0
N1064 N 0.44193 0.45805 0.60081 0.0
N1065 N 0.44894 0.48128 0.60775 0.0
C1066 C 0.46034 0.4105 0.59779 0.0
H1067 H 0.44837 0.40997 0.58657 0.0
H1068 H 0.4815 0.40312 0.59552 0.0
H1069 H 0.45034 0.39656 0.60643 0.0
C1070 C 0.40556 0.46551 0.54175 0.0
N1071 N 0.39631 0.45947 0.55641 0.0
N1072 N 0.41701 0.45973 0.56645 0.0
C1073 C 0.44018 0.46561 0.55841 0.0
C1074 C 0.43365 0.46941 0.54253 0.0
C1075 C 0.38772 0.4677 0.52736 0.0
H1076 H 0.37929 0.44718 0.52451 0.0
H1077 H 0.39924 0.47545 0.51692 0.0
H1078 H 0.37022 0.48154 0.52992 0.0
O1079 O 0.3495 0.48195 0.57901 0.0
O1080 O 0.38367 0.48245 0.59638 0.0
H1081 H 0.48335 0.47586 0.55716 0.0
H1082 H 0.47431 0.44944 0.57124 0.0
C1083 C 0.46775 0.46915 0.56592 0.0
H1084 H 0.46637 0.48456 0.57557 0.0
H1085 H 0.43776 0.49945 0.60686 0.0
O1086 O 0.33316 0.4521 0.54692 0.0
C1087 C 0.36072 0.49151 0.59148 0.0
H1088 H 0.22112 0.26371 0.38651 0.0
H1089 H 0.1484 0.25599 0.35765 0.0
H1090 H 0.20209 0.30443 0.39898 0.0
H1091 H 0.12817 0.29505 0.37112 0.0
H1092 H 0.11386 0.38458 0.38406 0.0
H1093 H 0.13065 0.34226 0.37242 0.0
H1094 H 0.17018 0.32168 0.41687 0.0
H1095 H 0.15465 0.36493 0.42815 0.0
C1096 C 0.20076 0.27035 0.3831 0.0
C1097 C 0.18594 0.25604 0.37146 0.0
C1098 C 0.18967 0.29357 0.39038 0.0
C1099 C 0.16335 0.30303 0.38626 0.0
C1100 C 0.14853 0.2886 0.37459 0.0
C1101 C 0.15987 0.26567 0.36711 0.0
C1102 C 0.12599 0.37091 0.39138 0.0
C1103 C 0.13309 0.37818 0.40699 0.0
C1104 C 0.13552 0.34647 0.38473 0.0
C1105 C 0.15196 0.3284 0.39364 0.0
C1106 C 0.15816 0.3353 0.40949 0.0
C1107 C 0.14906 0.36001 0.41603 0.0
H1108 H 0.0086 0.94467 0.6471 0.0
H1109 H 0.9785 0.92052 0.60097 0.0
H1110 H 0.96828 0.92447 0.65956 0.0
H1111 H 0.93787 0.90072 0.61331 0.0
H1112 H 0.87671 0.84983 0.64129 0.0
H1113 H 0.92029 0.86472 0.62999 0.0
H1114 H 0.92081 0.93435 0.66174 0.0
H1115 H 0.87793 0.9191 0.67332 0.0
C1116 C 0.99336 0.9349 0.63964 0.0
C1117 C 0.99684 0.93379 0.6231 0.0
C1118 C 0.97021 0.92344 0.64675 0.0
C1119 C 0.94975 0.91099 0.63745 0.0
C1120 C 0.95345 0.90963 0.62088 0.0
C1121 C 0.97678 0.92091 0.61378 0.0
C1122 C 0.88627 0.86819 0.64594 0.0
C1123 C 0.87377 0.8833 0.65819 0.0
C1124 C 0.91118 0.87681 0.6394 0.0
C1125 C 0.92407 0.90078 0.64492 0.0
C1126 C 0.91175 0.91556 0.65736 0.0
C1127 C 0.887 0.90687 0.66395 0.0
H1128 H 0.40066 0.62918 0.89303 0.0
H1129 H 0.32845 0.62653 0.92276 0.0
H1130 H 0.38544 0.67284 0.882 0.0
H1131 H 0.31293 0.66956 0.91144 0.0
H1132 H 0.30124 0.75778 0.89757 0.0
H1133 H 0.32141 0.71756 0.91017 0.0
H1134 H 0.35031 0.6896 0.86439 0.0
H1135 H 0.33044 0.73004 0.85192 0.0
C1136 C 0.3816 0.63793 0.89725 0.0
C1137 C 0.36574 0.62429 0.90875 0.0
C1138 C 0.37279 0.66288 0.89085 0.0
C1139 C 0.3479 0.67469 0.89577 0.0
C1140 C 0.3324 0.66131 0.90753 0.0
C1141 C 0.34125 0.63649 0.91397 0.0
C1142 C 0.31211 0.7431 0.89025 0.0
C1143 C 0.31465 0.74724 0.87381 0.0
C1144 C 0.32358 0.72001 0.89744 0.0
C1145 C 0.3375 0.7003 0.8883 0.0
C1146 C 0.34024 0.70463 0.87185 0.0
C1147 C 0.32893 0.72787 0.86468 0.0
H1148 H 0.62106 0.15045 0.14295 0.0
H1149 H 0.62737 0.07653 0.17106 0.0
H1150 H 0.57807 0.13379 0.13159 0.0
H1151 H 0.58454 0.06006 0.15969 0.0
H1152 H 0.48791 0.10204 0.12745 0.0
H1153 H 0.52895 0.12114 0.13977 0.0
H1154 H 0.57137 0.04465 0.13211 0.0
H1155 H 0.53077 0.0258 0.11933 0.0
C1156 C 0.6132 0.1308 0.14681 0.0
C1157 C 0.62779 0.11474 0.15783 0.0
C1158 C 0.58853 0.12134 0.14036 0.0
C1159 C 0.57815 0.09554 0.14466 0.0
C1160 C 0.59229 0.07987 0.156 0.0
C1161 C 0.61676 0.0894 0.16257 0.0
C1162 C 0.50616 0.08952 0.12796 0.0
C1163 C 0.50623 0.06259 0.12201 0.0
C1164 C 0.52958 0.1004 0.13519 0.0
C1165 C 0.55331 0.08437 0.13689 0.0
C1166 C 0.55327 0.05739 0.1311 0.0
C1167 C 0.53002 0.04664 0.12375 0.0
H1168 H 0.15154 0.63813 0.0711 0.0
H1169 H 0.1171 0.61479 0.11643 0.0
H1170 H 0.16848 0.68088 0.08294 0.0
H1171 H 0.13463 0.65709 0.12822 0.0
H1172 H 0.21176 0.71321 0.14236 0.0
H1173 H 0.19079 0.67295 0.12987 0.0
H1174 H 0.14251 0.72573 0.09974 0.0
H1175 H 0.16295 0.76615 0.11258 0.0
C1176 C 0.14742 0.64223 0.08352 0.0
C1177 C 0.13295 0.62319 0.09284 0.0
C1178 C 0.15701 0.66664 0.09024 0.0
C1179 C 0.15281 0.67203 0.10644 0.0
C1180 C 0.13805 0.65325 0.11569 0.0
C1181 C 0.12793 0.62918 0.10892 0.0
C1182 C 0.1966 0.71615 0.13311 0.0
C1183 C 0.18871 0.74262 0.12848 0.0
C1184 C 0.18461 0.69323 0.12603 0.0
C1185 C 0.16509 0.69644 0.11393 0.0
C1186 C 0.15752 0.72289 0.10908 0.0
C1187 C 0.16906 0.74587 0.11644 0.0
H1188 H 0.53606 0.96685 0.39105 0.0
H1189 H 0.48392 0.91207 0.36446 0.0
H1190 H 0.57662 0.94578 0.37889 0.0
H1191 H 0.52459 0.89151 0.35195 0.0
H1192 H 0.61204 0.90467 0.32183 0.0
H1193 H 0.56928 0.92136 0.33375 0.0
H1194 H 0.59278 0.88639 0.37878 0.0
H1195 H 0.63516 0.86902 0.36689 0.0
C1196 C 0.53336 0.95033 0.38259 0.0
C1197 C 0.50703 0.94084 0.37876 0.0
C1198 C 0.55645 0.9383 0.37571 0.0
C1199 C 0.5535 0.9171 0.36458 0.0
C1200 C 0.52719 0.90782 0.36055 0.0
C1201 C 0.50408 0.91943 0.36773 0.0
C1202 C 0.60791 0.90027 0.33422 0.0
C1203 C 0.62689 0.88552 0.34343 0.0
C1204 C 0.58349 0.90972 0.34098 0.0
C1205 C 0.57799 0.90506 0.35711 0.0
C1206 C 0.59671 0.8901 0.36629 0.0
C1207 C 0.62083 0.88012 0.35946 0.0
H1208 H 0.27466 0.27795 0.62779 0.0
H1209 H 0.35458 0.24007 0.62542 0.0
H1210 H 0.29319 0.31924 0.61559 0.0
H1211 H 0.37321 0.28164 0.61349 0.0
H1212 H 0.32779 0.37574 0.57787 0.0
H1213 H 0.31169 0.33296 0.58942 0.0
H1214 H 0.38231 0.33091 0.62032 0.0
H1215 H 0.3987 0.37374 0.60868 0.0
C1216 C 0.29623 0.27847 0.62475 0.0
C1217 C 0.31323 0.25589 0.6279 0.0
C1218 C 0.30681 0.30209 0.61771 0.0
C1219 C 0.33466 0.30367 0.61358 0.0
C1220 C 0.35175 0.28115 0.61677 0.0
C1221 C 0.3411 0.25741 0.62375 0.0
C1222 C 0.34005 0.36614 0.58705 0.0
C1223 C 0.36446 0.37832 0.59242 0.0
C1224 C 0.3307 0.34169 0.59373 0.0
C1225 C 0.34559 0.32874 0.60588 0.0
C1226 C 0.37046 0.34038 0.61092 0.0
C1227 C 0.37977 0.36496 0.60429 0.0
H1228 H 0.8867 0.10165 0.82167 0.0
H1229 H 0.861 0.13332 0.86718 0.0
H1230 H 0.92991 0.08682 0.83328 0.0
H1231 H 0.9032 0.11686 0.87914 0.0
H1232 H 0.98851 0.10132 0.8956 0.0
H1233 H 0.94957 0.12123 0.88243 0.0
H1234 H 0.94826 0.0534 0.84937 0.0
H1235 H 0.98926 0.03505 0.8615 0.0
C1236 C 0.89031 0.10533 0.83419 0.0
C1237 C 0.87052 0.11861 0.84353 0.0
C1238 C 0.91498 0.0966 0.84092 0.0
C1239 C 0.92016 0.1003 0.85726 0.0
C1240 C 0.90038 0.11401 0.86649 0.0
C1241 C 0.87601 0.12334 0.85967 0.0
C1242 C 0.9809 0.09108 0.88518 0.0
C1243 C 0.99303 0.06692 0.87938 0.0
C1244 C 0.95781 0.10225 0.87779 0.0
C1245 C 0.94557 0.08912 0.86471 0.0
C1246 C 0.95736 0.06465 0.85912 0.0
C1247 C 0.98081 0.05385 0.86627 0.0
H1248 H 0.82873 0.72927 0.64852 0.0
H1249 H 0.80043 0.75701 0.60268 0.0
H1250 H 0.84806 0.6884 0.63625 0.0
H1251 H 0.82002 0.71629 0.59029 0.0
H1252 H 0.82745 0.62529 0.57765 0.0
H1253 H 0.81149 0.66819 0.589 0.0
H1254 H 0.88348 0.67161 0.61885 0.0
H1255 H 0.89912 0.62815 0.6078 0.0
C1256 C 0.82727 0.727 0.63577 0.0
C1257 C 0.81348 0.74656 0.62652 0.0
C1258 C 0.83827 0.70349 0.62872 0.0
C1259 C 0.83568 0.69904 0.61226 0.0
C1260 C 0.82208 0.71883 0.60302 0.0
C1261 C 0.81095 0.74222 0.61009 0.0
C1262 C 0.84001 0.63523 0.58655 0.0
C1263 C 0.86451 0.62315 0.59186 0.0
C1264 C 0.83091 0.65998 0.59302 0.0
C1265 C 0.84616 0.67338 0.60488 0.0
C1266 C 0.87101 0.66163 0.60992 0.0
C1267 C 0.88007 0.63679 0.6035 0.0
H1268 H 0.00399 0.09878 0.38956 0.0
H1269 H 0.01403 0.02478 0.36207 0.0
H1270 H 0.043 0.11912 0.37614 0.0
H1271 H 0.05468 0.04413 0.34958 0.0
H1272 H 0.115 0.09256 0.32032 0.0
H1273 H 0.07176 0.0762 0.33132 0.0
H1274 H 0.09048 0.11652 0.3758 0.0
H1275 H 0.13283 0.13382 0.36452 0.0
C1276 C 0.01418 0.08704 0.3804 0.0
C1277 C 0.00527 0.06054 0.37644 0.0
C1278 C 0.03705 0.09847 0.37295 0.0
C1279 C 0.05212 0.08336 0.3617 0.0
C1280 C 0.04331 0.05668 0.35789 0.0
C1281 C 0.02015 0.04544 0.36517 0.0
C1282 C 0.10965 0.09813 0.33239 0.0
C1283 C 0.12725 0.11458 0.34153 0.0
C1284 C 0.08496 0.08859 0.33876 0.0
C1285 C 0.07754 0.09489 0.35451 0.0
C1286 C 0.0951 0.11165 0.36354 0.0
C1287 C 0.11952 0.12154 0.35709 0.0
H1288 H 0.72552 0.2784 0.12824 0.0
H1289 H 0.64773 0.23727 0.12253 0.0
H1290 H 0.70663 0.31921 0.11568 0.0
H1291 H 0.62866 0.27843 0.11034 0.0
H1292 H 0.60016 0.37013 0.10684 0.0
H1293 H 0.6172 0.32724 0.1181 0.0
H1294 H 0.68968 0.33315 0.08888 0.0
H1295 H 0.67287 0.37597 0.07765 0.0
C1296 C 0.70434 0.27808 0.12438 0.0
C1297 C 0.68798 0.25474 0.12676 0.0
C1298 C 0.69356 0.30144 0.11714 0.0
C1299 C 0.66615 0.30202 0.11208 0.0
C1300 C 0.64974 0.27869 0.11437 0.0
C1301 C 0.66062 0.25519 0.12151 0.0
C1302 C 0.61964 0.36218 0.10272 0.0
C1303 C 0.63524 0.37661 0.09142 0.0
C1304 C 0.62931 0.33756 0.10913 0.0
C1305 C 0.65486 0.327 0.10447 0.0
C1306 C 0.6701 0.34102 0.09287 0.0
C1307 C 0.66036 0.36548 0.08637 0.0
H1308 H 0.37277 0.92328 0.82809 0.0
H1309 H 0.37528 0.85169 0.85834 0.0
H1310 H 0.41564 0.93927 0.83966 0.0
H1311 H 0.41814 0.86793 0.86998 0.0
H1312 H 0.50894 0.89529 0.87505 0.0
H1313 H 0.46728 0.87711 0.86299 0.0
H1314 H 0.42984 0.95712 0.86596 0.0
H1315 H 0.47121 0.9752 0.87829 0.0
C1316 C 0.38251 0.91086 0.83714 0.0
C1317 C 0.37046 0.88628 0.84235 0.0
C1318 C 0.407 0.92013 0.84383 0.0
C1319 C 0.42012 0.90497 0.85582 0.0
C1320 C 0.40856 0.87998 0.86071 0.0
C1321 C 0.38394 0.87077 0.85409 0.0
C1322 C 0.49162 0.90886 0.87354 0.0
C1323 C 0.49321 0.93659 0.87799 0.0
C1324 C 0.46783 0.89847 0.86648 0.0
C1325 C 0.44531 0.91569 0.86351 0.0
C1326 C 0.44697 0.94341 0.86791 0.0
C1327 C 0.47064 0.95372 0.87503 0.0
H1328 H 0.84862 0.23891 0.87587 0.0
H1329 H 0.7707 0.27998 0.8708 0.0
H1330 H 0.86785 0.27986 0.88816 0.0
H1331 H 0.78982 0.32079 0.88329 0.0
H1332 H 0.82405 0.37806 0.92084 0.0
H1333 H 0.80657 0.33567 0.90943 0.0
H1334 H 0.88013 0.3277 0.88128 0.0
H1335 H 0.89789 0.36988 0.89286 0.0
C1336 C 0.83574 0.25682 0.87704 0.0
C1337 C 0.80829 0.2564 0.87199 0.0
C1338 C 0.84672 0.28023 0.88423 0.0
C1339 C 0.83037 0.30357 0.88668 0.0
C1340 C 0.80287 0.30303 0.88174 0.0
C1341 C 0.79196 0.2797 0.87452 0.0
C1342 C 0.83664 0.36721 0.91231 0.0
C1343 C 0.86232 0.37758 0.90767 0.0
C1344 C 0.82651 0.34299 0.90569 0.0
C1345 C 0.84185 0.32848 0.89434 0.0
C1346 C 0.86787 0.33835 0.89005 0.0
C1347 C 0.87797 0.36265 0.89662 0.0
H1348 H 0.51144 0.10343 0.62398 0.0
H1349 H 0.47293 0.02375 0.6225 0.0
H1350 H 0.47018 0.12271 0.63592 0.0
H1351 H 0.43194 0.04294 0.6347 0.0
H1352 H 0.37612 0.07889 0.67228 0.0
H1353 H 0.41869 0.06223 0.66075 0.0
H1354 H 0.42091 0.13206 0.62925 0.0
H1355 H 0.37829 0.14903 0.64089 0.0
C1356 C 0.49402 0.09013 0.62585 0.0
C1357 C 0.49527 0.06214 0.62194 0.0
C1358 C 0.47045 0.10116 0.63284 0.0
C1359 C 0.44785 0.08434 0.63627 0.0
C1360 C 0.44916 0.05636 0.63239 0.0
C1361 C 0.47261 0.0454 0.62534 0.0
C1362 C 0.38574 0.09088 0.663 0.0
C1363 C 0.37366 0.11523 0.65745 0.0
C1364 C 0.41006 0.0812 0.65632 0.0
C1365 C 0.42297 0.09568 0.64398 0.0
C1366 C 0.41146 0.12052 0.63879 0.0
C1367 C 0.387 0.13017 0.64542 0.0
H1368 H 0.61577 0.61421 0.38335 0.0
H1369 H 0.65305 0.6353 0.42826 0.0
H1370 H 0.63255 0.65672 0.3719 0.0
H1371 H 0.66854 0.67866 0.41713 0.0
H1372 H 0.72036 0.73724 0.38772 0.0
H1373 H 0.70137 0.6962 0.39986 0.0
H1374 H 0.62912 0.7039 0.3704 0.0
H1375 H 0.64941 0.74329 0.35729 0.0
C1376 C 0.6271 0.62823 0.39087 0.0
C1377 C 0.63324 0.62135 0.40667 0.0
C1378 C 0.63663 0.65276 0.38433 0.0
C1379 C 0.65208 0.67126 0.39353 0.0
C1380 C 0.6573 0.66472 0.40954 0.0
C1381 C 0.64823 0.63994 0.41598 0.0
C1382 C 0.70038 0.73015 0.38389 0.0
C1383 C 0.686 0.74408 0.37191 0.0
C1384 C 0.68931 0.70675 0.39098 0.0
C1385 C 0.66346 0.69675 0.38631 0.0
C1386 C 0.64911 0.71078 0.3743 0.0
C1387 C 0.66045 0.73389 0.36702 0.0
H1388 H 0.99496 0.94903 0.14572 0.0
H1389 H 0.02185 0.91928 0.10006 0.0
H1390 H 0.036 0.92989 0.15811 0.0
H1391 H 0.06307 0.90035 0.11229 0.0
H1392 H 0.12322 0.84969 0.14109 0.0
H1393 H 0.07979 0.86531 0.13006 0.0
H1394 H 0.08433 0.9384 0.15894 0.0
H1395 H 0.12731 0.92247 0.17028 0.0
C1396 C 0.00963 0.93818 0.13838 0.0
C1397 C 0.005 0.935 0.12204 0.0
C1398 C 0.03319 0.92736 0.14543 0.0
C1399 C 0.05283 0.91348 0.13621 0.0
C1400 C 0.0481 0.91036 0.11981 0.0
C1401 C 0.02445 0.92108 0.11279 0.0
C1402 C 0.11488 0.869 0.14517 0.0
C1403 C 0.12884 0.88483 0.15655 0.0
C1404 C 0.09004 0.87804 0.13877 0.0
C1405 C 0.07859 0.90317 0.14355 0.0
C1406 C 0.09233 0.91876 0.15513 0.0
C1407 C 0.1171 0.90968 0.16158 0.0
H1408 H 0.72387 0.77825 0.87061 0.0
H1409 H 0.64685 0.73581 0.87669 0.0
H1410 H 0.70452 0.81865 0.88336 0.0
H1411 H 0.6273 0.77663 0.88902 0.0
H1412 H 0.59855 0.86891 0.89284 0.0
H1413 H 0.61534 0.82602 0.88138 0.0
H1414 H 0.68779 0.83108 0.91067 0.0
H1415 H 0.67124 0.87377 0.92211 0.0
C1416 C 0.70276 0.77757 0.87457 0.0
C1417 C 0.68676 0.75396 0.87228 0.0
C1418 C 0.69172 0.80069 0.88192 0.0
C1419 C 0.6644 0.80077 0.88716 0.0
C1420 C 0.6483 0.77723 0.88488 0.0
C1421 C 0.65946 0.75394 0.87764 0.0
C1422 C 0.61792 0.86073 0.89695 0.0
C1423 C 0.63364 0.87492 0.9083 0.0
C1424 C 0.62746 0.83614 0.89043 0.0
C1425 C 0.65299 0.82543 0.89502 0.0
C1426 C 0.66823 0.83911 0.90674 0.0
C1427 C 0.65863 0.8635 0.91335 0.0
H1428 H 0.3758 0.34878 0.14169 0.0
H1429 H 0.37292 0.42104 0.17137 0.0
H1430 H 0.41962 0.36381 0.13086 0.0
H1431 H 0.41619 0.43641 0.16021 0.0
H1432 H 0.50517 0.44674 0.14709 0.0
H1433 H 0.4642 0.42743 0.15933 0.0
H1434 H 0.43708 0.3987 0.11335 0.0
H1435 H 0.47823 0.41772 0.10123 0.0
C1436 C 0.38451 0.36784 0.14593 0.0
C1437 C 0.37078 0.38373 0.15737 0.0
C1438 C 0.40956 0.37654 0.13964 0.0
C1439 C 0.42141 0.40138 0.1446 0.0
C1440 C 0.4079 0.41698 0.15627 0.0
C1441 C 0.38295 0.40823 0.16261 0.0
C1442 C 0.49051 0.43609 0.13964 0.0
C1443 C 0.49511 0.43332 0.12325 0.0
C1444 C 0.46698 0.42514 0.14663 0.0
C1445 C 0.4473 0.41149 0.13733 0.0
C1446 C 0.45206 0.40856 0.12093 0.0
C1447 C 0.47573 0.41938 0.11396 0.0
H1448 H 0.82642 0.12138 0.42034 0.0
H1449 H 0.90017 0.12705 0.39207 0.0
H1450 H 0.81013 0.16416 0.40887 0.0
H1451 H 0.88356 0.16967 0.38042 0.0
H1452 H 0.85401 0.25946 0.37495 0.0
H1453 H 0.87255 0.21804 0.38712 0.0
H1454 H 0.79354 0.17889 0.38268 0.0
H1455 H 0.77513 0.22011 0.37034 0.0
C1456 C 0.83925 0.13176 0.41173 0.0
C1457 C 0.86453 0.12055 0.40702 0.0
C1458 C 0.82979 0.15621 0.40508 0.0
C1459 C 0.84542 0.17013 0.39361 0.0
C1460 C 0.87109 0.15946 0.38927 0.0
C1461 C 0.88053 0.13492 0.39589 0.0
C1462 C 0.84077 0.24183 0.37619 0.0
C1463 C 0.81323 0.24289 0.37135 0.0
C1464 C 0.85135 0.21816 0.3833 0.0
C1465 C 0.8345 0.19522 0.38588 0.0
C1466 C 0.80696 0.19635 0.38106 0.0
C1467 C 0.79645 0.21992 0.37392 0.0
H1468 H 0.98926 0.60517 0.62361 0.0
H1469 H 0.02777 0.52552 0.62146 0.0
H1470 H 0.03059 0.62417 0.63563 0.0
H1471 H 0.06879 0.54441 0.63376 0.0
H1472 H 0.12452 0.57946 0.67169 0.0
H1473 H 0.08192 0.56314 0.66003 0.0
H1474 H 0.07999 0.63352 0.62894 0.0
H1475 H 0.12266 0.65012 0.64069 0.0
C1476 C 0.00668 0.59183 0.62534 0.0
C1477 C 0.0054 0.56392 0.62123 0.0
C1478 C 0.03029 0.60269 0.63238 0.0
C1479 C 0.05289 0.58577 0.63566 0.0
C1480 C 0.05157 0.5579 0.63157 0.0
C1481 C 0.0281 0.54711 0.62446 0.0
C1482 C 0.11498 0.59163 0.66246 0.0
C1483 C 0.12716 0.61602 0.65705 0.0
C1484 C 0.09063 0.58216 0.65571 0.0
C1485 C 0.07779 0.5969 0.64346 0.0
C1486 C 0.08939 0.62178 0.63841 0.0
C1487 C 0.11388 0.63121 0.6451 0.0
H1488 H 0.66742 0.22939 0.64743 0.0
H1489 H 0.69575 0.25782 0.60177 0.0
H1490 H 0.64783 0.18885 0.63496 0.0
H1491 H 0.67579 0.21747 0.58912 0.0
H1492 H 0.66967 0.12625 0.57646 0.0
H1493 H 0.6846 0.16966 0.58757 0.0
H1494 H 0.61281 0.17163 0.61764 0.0
H1495 H 0.59827 0.12758 0.60687 0.0
C1496 C 0.66872 0.22736 0.63466 0.0
C1497 C 0.68264 0.24695 0.62551 0.0
C1498 C 0.65758 0.20405 0.62748 0.0
C1499 C 0.66014 0.19987 0.611 0.0
C1500 C 0.67374 0.21981 0.60186 0.0
C1501 C 0.68506 0.24297 0.60907 0.0
C1502 C 0.6569 0.13601 0.58534 0.0
C1503 C 0.63285 0.1233 0.59084 0.0
C1504 C 0.6654 0.16105 0.59166 0.0
C1505 C 0.64997 0.17416 0.60355 0.0
C1506 C 0.62544 0.16188 0.60869 0.0
C1507 C 0.61701 0.1367 0.60244 0.0
H1508 H 0.11511 0.40575 0.82075 0.0
H1509 H 0.13342 0.36306 0.86444 0.0
H1510 H 0.07162 0.42097 0.83185 0.0
H1511 H 0.09075 0.37939 0.87588 0.0
H1512 H 0.0041 0.39673 0.88996 0.0
H1513 H 0.04319 0.37679 0.87635 0.0
H1514 H 0.05456 0.45241 0.85036 0.0
H1515 H 0.01395 0.47135 0.86301 0.0
C1516 C 0.10985 0.39965 0.83274 0.0
C1517 C 0.12774 0.38327 0.84173 0.0
C1518 C 0.08498 0.40855 0.83917 0.0
C1519 C 0.07762 0.40166 0.85485 0.0
C1520 C 0.09537 0.38479 0.86369 0.0
C1521 C 0.12 0.37552 0.85716 0.0
C1522 C 0.01425 0.40869 0.88087 0.0
C1523 C 0.00529 0.43528 0.87714 0.0
C1524 C 0.03715 0.39748 0.87332 0.0
C1525 C 0.05215 0.41288 0.86217 0.0
C1526 C 0.04326 0.43961 0.85857 0.0
C1527 C 0.0201 0.45063 0.86595 0.0
H1528 H 0.85301 0.73883 0.12545 0.0
H1529 H 0.7737 0.77814 0.1268 0.0
H1530 H 0.8726 0.77967 0.11318 0.0
H1531 H 0.79318 0.81864 0.11422 0.0
H1532 H 0.82958 0.87361 0.07635 0.0
H1533 H 0.81271 0.83117 0.08798 0.0
H1534 H 0.88218 0.82916 0.11973 0.0
H1535 H 0.89928 0.87167 0.10806 0.0
C1536 C 0.83985 0.75632 0.12348 0.0
C1537 C 0.81188 0.75542 0.12747 0.0
C1538 C 0.85106 0.77964 0.11629 0.0
C1539 C 0.83442 0.80233 0.11272 0.0
C1540 C 0.80646 0.80135 0.11665 0.0
C1541 C 0.79534 0.77817 0.12391 0.0
C1542 C 0.84145 0.86406 0.08571 0.0
C1543 C 0.86572 0.8762 0.09133 0.0
C1544 C 0.83166 0.83981 0.09244 0.0
C1545 C 0.84597 0.82701 0.10488 0.0
C1546 C 0.87077 0.83852 0.11012 0.0
C1547 C 0.8805 0.86292 0.10345 0.0
H1548 H 0.3739 0.5755 0.32781 0.0
H1549 H 0.37713 0.64652 0.35848 0.0
H1550 H 0.41673 0.55908 0.33907 0.0
H1551 H 0.42046 0.6304 0.36944 0.0
H1552 H 0.47869 0.57519 0.39837 0.0
H1553 H 0.43737 0.59435 0.38652 0.0
H1554 H 0.4649 0.56811 0.34013 0.0
H1555 H 0.50607 0.54873 0.35208 0.0
C1556 C 0.38389 0.58779 0.33683 0.0
C1557 C 0.37199 0.61228 0.34228 0.0
C1558 C 0.40857 0.57843 0.34324 0.0
C1559 C 0.42205 0.5934 0.35519 0.0
C1560 C 0.41041 0.61816 0.36043 0.0
C1561 C 0.38564 0.62748 0.35407 0.0
C1562 C 0.47621 0.57406 0.38562 0.0
C1563 C 0.49582 0.56086 0.37612 0.0
C1564 C 0.45246 0.58495 0.37881 0.0
C1565 C 0.44782 0.58284 0.36236 0.0
C1566 C 0.46761 0.56978 0.35287 0.0
C1567 C 0.49125 0.55877 0.35969 0.0
H1568 H 0.35205 0.25971 0.12489 0.0
H1569 H 0.27277 0.22068 0.12797 0.0
H1570 H 0.37111 0.21821 0.11313 0.0
H1571 H 0.29173 0.17943 0.11594 0.0
H1572 H 0.32691 0.12249 0.07847 0.0
H1573 H 0.31003 0.16514 0.08985 0.0
H1574 H 0.3812 0.16941 0.12025 0.0
H1575 H 0.39835 0.12678 0.10878 0.0
C1576 C 0.33881 0.24214 0.12341 0.0
C1577 C 0.311 0.24332 0.12773 0.0
C1578 C 0.3497 0.21843 0.11652 0.0
C1579 C 0.33292 0.19557 0.1136 0.0
C1580 C 0.30511 0.19682 0.11786 0.0
C1581 C 0.29429 0.22042 0.12481 0.0
C1582 C 0.33911 0.13257 0.0875 0.0
C1583 C 0.36393 0.12109 0.09276 0.0
C1584 C 0.32932 0.15693 0.09409 0.0
C1585 C 0.34416 0.17049 0.10605 0.0
C1586 C 0.36938 0.1595 0.111 0.0
C1587 C 0.37913 0.13501 0.10446 0.0
H1588 H 0.62715 0.57495 0.82949 0.0
H1589 H 0.62296 0.64841 0.8581 0.0
H1590 H 0.58425 0.5592 0.84098 0.0
H1591 H 0.57954 0.63301 0.86924 0.0
H1592 H 0.52117 0.58033 0.89951 0.0
H1593 H 0.5624 0.59886 0.88723 0.0
H1594 H 0.53613 0.56731 0.84172 0.0
H1595 H 0.49509 0.5485 0.85412 0.0
C1596 C 0.61691 0.58793 0.83809 0.0
C1597 C 0.6286 0.61291 0.84291 0.0
C1598 C 0.59218 0.57894 0.84463 0.0
C1599 C 0.5784 0.5948 0.85607 0.0
C1600 C 0.5898 0.62007 0.86065 0.0
C1601 C 0.61464 0.62899 0.85417 0.0
C1602 C 0.52389 0.57791 0.88684 0.0
C1603 C 0.50469 0.56337 0.87773 0.0
C1604 C 0.54761 0.58844 0.87978 0.0
C1605 C 0.55261 0.58465 0.86346 0.0
C1606 C 0.53317 0.57029 0.85435 0.0
C1607 C 0.5096 0.55962 0.86143 0.0
H1608 H 0.1463 0.74026 0.62492 0.0
H1609 H 0.2256 0.7793 0.62789 0.0
H1610 H 0.12752 0.78127 0.61245 0.0
H1611 H 0.20693 0.82002 0.61513 0.0
H1612 H 0.17241 0.87602 0.57709 0.0
H1613 H 0.18882 0.83335 0.58871 0.0
H1614 H 0.11763 0.83039 0.61914 0.0
H1615 H 0.10096 0.87302 0.60744 0.0
C1616 C 0.15961 0.75773 0.62327 0.0
C1617 C 0.18733 0.75671 0.62778 0.0
C1618 C 0.14888 0.78115 0.61596 0.0
C1619 C 0.16576 0.80384 0.6128 0.0
C1620 C 0.19348 0.80273 0.61723 0.0
C1621 C 0.20414 0.77945 0.6246 0.0
C1622 C 0.16009 0.8662 0.58615 0.0
C1623 C 0.13546 0.87809 0.59141 0.0
C1624 C 0.1696 0.84183 0.59288 0.0
C1625 C 0.15464 0.82869 0.60494 0.0
C1626 C 0.12953 0.84 0.60981 0.0
C1627 C 0.12007 0.86449 0.60315 0.0
H1628 H 0.87911 0.34966 0.35779 0.0
H1629 H 0.87612 0.42045 0.3269 0.0
H1630 H 0.92162 0.36682 0.36948 0.0
H1631 H 0.91851 0.43733 0.33854 0.0
H1632 H 0.97112 0.47557 0.37782 0.0
H1633 H 0.93071 0.45597 0.36519 0.0
H1634 H 0.97106 0.37735 0.36257 0.0
H1635 H 0.01181 0.39709 0.37486 0.0
C1636 C 0.88762 0.36869 0.35338 0.0
C1637 C 0.87406 0.38379 0.3415 0.0
C1638 C 0.91201 0.37845 0.36004 0.0
C1639 C 0.92317 0.40355 0.35504 0.0
C1640 C 0.91011 0.41814 0.34281 0.0
C1641 C 0.8859 0.40835 0.33608 0.0
C1642 C 0.9714 0.45409 0.37457 0.0
C1643 C 0.9945 0.43778 0.37769 0.0
C1644 C 0.94829 0.4429 0.36729 0.0
C1645 C 0.94775 0.41512 0.36291 0.0
C1646 C 0.97078 0.39873 0.36604 0.0
C1647 C 0.99404 0.41 0.37324 0.0
H1648 H 0.35015 0.76126 0.35521 0.0
H1649 H 0.28379 0.76099 0.38927 0.0
H1650 H 0.36966 0.80072 0.36797 0.0
H1651 H 0.30175 0.80253 0.40096 0.0
H1652 H 0.34973 0.86525 0.4281 0.0
H1653 H 0.33477 0.8218 0.41686 0.0
H1654 H 0.36527 0.84709 0.37083 0.0
H1655 H 0.38189 0.88952 0.38244 0.0
C1656 C 0.33979 0.76907 0.36554 0.0
C1657 C 0.31571 0.7569 0.37143 0.0
C1658 C 0.35074 0.7925 0.37268 0.0
C1659 C 0.33748 0.80506 0.38562 0.0
C1660 C 0.3131 0.79322 0.39131 0.0
C1661 C 0.30253 0.76944 0.38441 0.0
C1662 C 0.35344 0.86129 0.41561 0.0
C1663 C 0.36695 0.88072 0.40614 0.0
C1664 C 0.34464 0.83647 0.40909 0.0
C1665 C 0.34848 0.83078 0.39283 0.0
C1666 C 0.36232 0.85028 0.38344 0.0
C1667 C 0.37173 0.87478 0.39006 0.0
H1668 H 0.86493 0.63587 0.13487 0.0
H1669 H 0.88306 0.59431 0.17894 0.0
H1670 H 0.90733 0.61886 0.12352 0.0
H1671 H 0.92646 0.57851 0.16794 0.0
H1672 H 0.98508 0.52785 0.1376 0.0
H1673 H 0.94426 0.54686 0.15001 0.0
H1674 H 0.95445 0.62125 0.12267 0.0
H1675 H 0.9935 0.60107 0.10924 0.0
C1676 C 0.87829 0.62352 0.14225 0.0
C1677 C 0.87057 0.61631 0.15777 0.0
C1678 C 0.90279 0.61386 0.13577 0.0
C1679 C 0.92051 0.59717 0.14475 0.0
C1680 C 0.91314 0.59077 0.1605 0.0
C1681 C 0.88835 0.60001 0.16688 0.0
C1682 C 0.97858 0.5483 0.1343 0.0
C1683 C 0.9931 0.56327 0.1228 0.0
C1684 C 0.95531 0.55938 0.14154 0.0
C1685 C 0.94602 0.58581 0.13752 0.0
C1686 C 0.96073 0.60079 0.12605 0.0
C1687 C 0.98367 0.58948 0.11859 0.0
H1688 H 0.1028 0.12857 0.89228 0.0
H1689 H 0.17601 0.12355 0.92107 0.0
H1690 H 0.11885 0.17175 0.88113 0.0
H1691 H 0.19238 0.16624 0.90958 0.0
H1692 H 0.20381 0.25545 0.89633 0.0
H1693 H 0.18466 0.21457 0.90876 0.0
H1694 H 0.15356 0.18812 0.86318 0.0
H1695 H 0.17247 0.22914 0.85087 0.0
C1696 C 0.12231 0.13666 0.89624 0.0
C1697 C 0.13814 0.12253 0.90755 0.0
C1698 C 0.13159 0.16135 0.88976 0.0
C1699 C 0.15697 0.17244 0.89439 0.0
C1700 C 0.17257 0.15852 0.90589 0.0
C1701 C 0.16323 0.13392 0.91243 0.0
C1702 C 0.19274 0.24093 0.88901 0.0
C1703 C 0.18918 0.24574 0.87269 0.0
C1704 C 0.18186 0.21745 0.8961 0.0
C1705 C 0.16749 0.19805 0.88699 0.0
C1706 C 0.16397 0.20292 0.87063 0.0
C1707 C 0.17471 0.22651 0.86356 0.0
H1708 H 0.48845 0.39803 0.62495 0.0
H1709 H 0.52843 0.47666 0.62052 0.0
H1710 H 0.52957 0.3792 0.63727 0.0
H1711 H 0.56926 0.45797 0.63315 0.0
H1712 H 0.62111 0.35165 0.64163 0.0
H1713 H 0.57843 0.36851 0.6301 0.0
H1714 H 0.58302 0.4406 0.65974 0.0
H1715 H 0.62574 0.42397 0.67121 0.0
C1716 C 0.50614 0.41116 0.62625 0.0
C1717 C 0.50537 0.4387 0.62137 0.0
C1718 C 0.52962 0.40041 0.63348 0.0
C1719 C 0.55261 0.41711 0.63618 0.0
C1720 C 0.55174 0.44467 0.6314 0.0
C1721 C 0.52839 0.45534 0.6241 0.0
C1722 C 0.61293 0.37101 0.64577 0.0
C1723 C 0.62698 0.38656 0.65726 0.0
C1724 C 0.58842 0.38058 0.63921 0.0
C1725 C 0.57754 0.40597 0.64392 0.0
C1726 C 0.59116 0.42114 0.65571 0.0
C1727 C 0.61555 0.41151 0.66235 0.0
H1728 H 0.20729 0.03002 0.2914 0.0
H1729 H 0.15992 0.07632 0.25734 0.0
H1730 H 0.20696 0.9905 0.2735 0.0
H1731 H 0.16031 0.03689 0.23925 0.0
H1732 H 0.20392 0.96958 0.20686 0.0
H1733 H 0.20274 0.00904 0.22479 0.0
H1734 H 0.16511 0.95908 0.26102 0.0
H1735 H 0.16554 0.91964 0.24293 0.0
C1736 C 0.19697 0.0318 0.28005 0.0
C1737 C 0.18363 0.05623 0.27574 0.0
C1738 C 0.19667 0.00916 0.26989 0.0
C1739 C 0.18358 0.01077 0.25508 0.0
C1740 C 0.17056 0.03526 0.25064 0.0
C1741 C 0.17029 0.05772 0.26097 0.0
C1742 C 0.19538 0.96701 0.21865 0.0
C1743 C 0.18482 0.94156 0.22352 0.0
C1744 C 0.19459 0.98959 0.22884 0.0
C1745 C 0.18381 0.98698 0.24421 0.0
C1746 C 0.17355 0.9615 0.24919 0.0
C1747 C 0.17374 0.93903 0.23886 0.0
H1748 H 0.18793 0.88992 0.51897 0.0
H1749 H 0.20495 0.97435 0.53092 0.0
H1750 H 0.22597 0.89015 0.50021 0.0
H1751 H 0.24346 0.97434 0.51253 0.0
H1752 H 0.31335 0.89069 0.48101 0.0
H1753 H 0.27518 0.89108 0.4997 0.0
H1754 H 0.25441 0.97327 0.48484 0.0
H1755 H 0.293 0.97318 0.46653 0.0
C1756 C 0.1998 0.90853 0.51761 0.0
C1757 C 0.19338 0.93211 0.52644 0.0
C1758 C 0.22177 0.9086 0.50694 0.0
C1759 C 0.23792 0.93222 0.5049 0.0
C1760 C 0.23129 0.95589 0.51364 0.0
C1761 C 0.20925 0.95585 0.52425 0.0
C1762 C 0.3007 0.90888 0.48179 0.0
C1763 C 0.30624 0.93189 0.47228 0.0
C1764 C 0.27868 0.90904 0.49242 0.0
C1765 C 0.2616 0.93217 0.49374 0.0
C1766 C 0.26731 0.95524 0.4843 0.0
C1767 C 0.2894 0.95514 0.47373 0.0
H1768 H 0.2904 0.06624 0.73122 0.0
H1769 H 0.33178 0.01042 0.69937 0.0
H1770 H 0.29249 0.03188 0.75229 0.0
H1771 H 0.33361 0.97609 0.72037 0.0
H1772 H 0.35816 0.93386 0.76709 0.0
H1773 H 0.35643 0.96852 0.74621 0.0
H1774 H 0.27241 0.98649 0.75852 0.0
H1775 H 0.27415 0.95205 0.77949 0.0
C1776 C 0.29991 0.04665 0.72871 0.0
C1777 C 0.31091 0.04106 0.71361 0.0
C1778 C 0.30097 0.02693 0.74075 0.0
C1779 C 0.3132 0.00127 0.73798 0.0
C1780 C 0.32432 0.99576 0.72292 0.0
C1781 C 0.32312 0.0154 0.71086 0.0
C1782 C 0.33931 0.94518 0.76534 0.0
C1783 C 0.31631 0.94019 0.77496 0.0
C1784 C 0.33829 0.96495 0.75333 0.0
C1785 C 0.31429 0.98026 0.75073 0.0
C1786 C 0.29129 0.97526 0.76035 0.0
C1787 C 0.29226 0.9554 0.7723 0.0
H1788 H 0.33119 0.08439 0.00632 0.0
H1789 H 0.28078 0.04637 0.04231 0.0
H1790 H 0.2919 0.0848 0.9881 0.0
H1791 H 0.24149 0.04758 0.02425 0.0
H1792 H 0.17517 0.09148 0.99112 0.0
H1793 H 0.2145 0.09119 0.00929 0.0
H1794 H 0.26001 0.04167 0.97603 0.0
H1795 H 0.22056 0.0412 0.95806 0.0
C1796 C 0.31172 0.07627 0.01034 0.0
C1797 C 0.30901 0.06528 0.02568 0.0
C1798 C 0.28936 0.07645 -7e-05 0.0
C1799 C 0.26382 0.0663 0.00487 0.0
C1800 C 0.26101 0.05563 0.02025 0.0
C1801 C 0.28349 0.05482 0.03051 0.0
C1802 C 0.19356 0.08049 0.98773 0.0
C1803 C 0.19483 0.06629 0.97323 0.0
C1804 C 0.21594 0.0803 0.9981 0.0
C1805 C 0.24015 0.0665 0.99395 0.0
C1806 C 0.24155 0.05256 0.9794 0.0
C1807 C 0.21897 0.05218 0.96921 0.0
H1808 H 0.86344 0.93642 0.73226 0.0
H1809 H 0.77986 0.95454 0.71894 0.0
H1810 H 0.86293 0.9748 0.75081 0.0
H1811 H 0.77964 0.99337 0.73707 0.0
H1812 H 0.77916 0.04415 0.78249 0.0
H1813 H 0.77941 0.0051 0.76452 0.0
H1814 H 0.86286 0.02389 0.75119 0.0
H1815 H 0.86287 0.06248 0.76959 0.0
C1816 C 0.84497 0.9486 0.73328 0.0
C1817 C 0.8217 0.94239 0.72412 0.0
C1818 C 0.84474 0.97076 0.74382 0.0
C1819 C 0.82129 0.98732 0.7454 0.0
C1820 C 0.79794 0.98089 0.73634 0.0
C1821 C 0.79811 0.95865 0.72588 0.0
C1822 C 0.79755 0.04002 0.77569 0.0
C1823 C 0.82102 0.05644 0.7775 0.0
C1824 C 0.79765 0.01766 0.76532 0.0
C1825 C 0.82117 0.01125 0.7564 0.0
C1826 C 0.84454 0.02791 0.75807 0.0
C1827 C 0.84448 0.05019 0.76853 0.0
H1828 H 0.79303 0.02542 0.46692 0.0
H1829 H 0.81122 0.10945 0.47926 0.0
H1830 H 0.75459 0.02567 0.48536 0.0
H1831 H 0.77322 0.10944 0.49805 0.0
H1832 H 0.68619 0.10956 0.51769 0.0
H1833 H 0.7239 0.10896 0.49869 0.0
H1834 H 0.7443 0.02649 0.5132 0.0
H1835 H 0.70618 0.02681 0.53184 0.0
C1836 C 0.78898 0.04389 0.47367 0.0
C1837 C 0.80518 0.06744 0.4716 0.0
C1838 C 0.76699 0.04398 0.48431 0.0
C1839 C 0.76074 0.06759 0.49318 0.0
C1840 C 0.77715 0.09105 0.49122 0.0
C1841 C 0.79909 0.09099 0.48053 0.0
C1842 C 0.69864 0.09125 0.51677 0.0
C1843 C 0.69317 0.06824 0.52629 0.0
C1844 C 0.7204 0.09098 0.50595 0.0
C1845 C 0.73725 0.06772 0.50446 0.0
C1846 C 0.73156 0.04462 0.51389 0.0
C1847 C 0.70975 0.04485 0.52464 0.0
H1848 H 0.72157 0.04237 0.21684 0.0
H1849 H 0.64099 0.0672 0.23254 0.0
H1850 H 0.72056 0.0041 0.23535 0.0
H1851 H 0.6403 0.02928 0.25141 0.0
H1852 H 0.63598 0.94186 0.27078 0.0
H1853 H 0.63703 0.97993 0.25203 0.0
H1854 H 0.72233 0.99389 0.2632 0.0
H1855 H 0.72149 0.95543 0.28159 0.0
C1856 C 0.70373 0.03982 0.22435 0.0
C1857 C 0.68134 0.05783 0.22318 0.0
C1858 C 0.70321 0.01792 0.23503 0.0
C1859 C 0.68033 0.01355 0.24487 0.0
C1860 C 0.65806 0.03177 0.24383 0.0
C1861 C 0.65854 0.05364 0.23309 0.0
C1862 C 0.65499 0.95298 0.26918 0.0
C1863 C 0.67865 0.94558 0.27767 0.0
C1864 C 0.65554 0.97495 0.25851 0.0
C1865 C 0.67974 0.99006 0.25613 0.0
C1866 C 0.70343 0.98251 0.26458 0.0
C1867 C 0.70291 0.9605 0.27519 0.0
H1868 H 0.67276 0.90876 0.99208 0.0
H1869 H 0.719 0.95508 0.95751 0.0
H1870 H 0.71251 0.90906 0.00997 0.0
H1871 H 0.75883 0.95457 0.9752 0.0
H1872 H 0.82907 0.91067 0.00603 0.0
H1873 H 0.78933 0.91067 0.98813 0.0
H1874 H 0.74171 0.95321 0.02357 0.0
H1875 H 0.78151 0.95403 0.04128 0.0
C1876 C 0.69141 0.91888 0.9883 0.0
C1877 C 0.69279 0.93196 0.97345 0.0
C1878 C 0.71404 0.91909 0.99851 0.0
C1879 C 0.73861 0.93175 0.99386 0.0
C1880 C 0.7401 0.94458 0.97897 0.0
C1881 C 0.71729 0.94497 0.96893 0.0
C1882 C 0.81014 0.92007 0.00996 0.0
C1883 C 0.80838 0.93242 0.025 0.0
C1884 C 0.78751 0.92011 -0.00026 0.0
C1885 C 0.76259 0.93185 0.00457 0.0
C1886 C 0.76072 0.94393 0.01965 0.0
C1887 C 0.78351 0.94451 0.02971 0.0
H1888 H 0.72362 0.54254 0.7822 0.0
H1889 H 0.63961 0.56058 0.76975 0.0
H1890 H 0.72355 0.50415 0.76375 0.0
H1891 H 0.63978 0.52254 0.75096 0.0
H1892 H 0.64036 0.43509 0.73157 0.0
H1893 H 0.64061 0.47297 0.75047 0.0
H1894 H 0.72276 0.49421 0.73578 0.0
H1895 H 0.72279 0.45598 0.71721 0.0
C1896 C 0.70519 0.53846 0.77543 0.0
C1897 C 0.6816 0.55462 0.77748 0.0
C1898 C 0.70519 0.5165 0.76479 0.0
C1899 C 0.68164 0.51021 0.75588 0.0
C1900 C 0.65813 0.52655 0.75781 0.0
C1901 C 0.6581 0.54849 0.7685 0.0
C1902 C 0.65852 0.44777 0.73243 0.0
C1903 C 0.68155 0.4425 0.72288 0.0
C1904 C 0.65859 0.46961 0.74319 0.0
C1905 C 0.68166 0.48672 0.74461 0.0
C1906 C 0.70477 0.48126 0.73514 0.0
C1907 C 0.70473 0.45939 0.72443 0.0
H1908 H 0.79169 0.47304 0.96666 0.0
H1909 H 0.81315 0.3911 0.98163 0.0
H1910 H 0.75307 0.47292 0.98497 0.0
H1911 H 0.77499 0.39128 0.0003 0.0
H1912 H 0.70357 0.47382 0.0311 0.0
H1913 H 0.74204 0.4742 0.01268 0.0
H1914 H 0.7258 0.38963 0.00069 0.0
H1915 H 0.68781 0.38902 0.01947 0.0
C1916 C 0.78833 0.45509 0.97397 0.0
C1917 C 0.80548 0.43205 0.97265 0.0
C1918 C 0.76623 0.45506 0.98453 0.0
C1919 C 0.76083 0.43206 0.9941 0.0
C1920 C 0.77824 0.40916 0.99292 0.0
C1921 C 0.80026 0.40913 0.9823 0.0
C1922 C 0.70814 0.45533 0.0245 0.0
C1923 C 0.69265 0.43136 0.02679 0.0
C1924 C 0.73015 0.45558 0.01387 0.0
C1925 C 0.73712 0.43192 0.00523 0.0
C1926 C 0.72133 0.40808 0.00735 0.0
C1927 C 0.69939 0.40779 0.01803 0.0
H1928 H 0.85885 0.56508 0.23194 0.0
H1929 H 0.77639 0.54399 0.21777 0.0
H1930 H 0.85911 0.52683 0.25055 0.0
H1931 H 0.77695 0.50527 0.23601 0.0
H1932 H 0.77724 0.45495 0.28178 0.0
H1933 H 0.77646 0.49377 0.26362 0.0
H1934 H 0.86072 0.47768 0.25085 0.0
H1935 H 0.86174 0.43933 0.26938 0.0
C1936 C 0.84078 0.55227 0.23278 0.0
C1937 C 0.81761 0.5576 0.22336 0.0
C1938 C 0.84101 0.53018 0.24336 0.0
C1939 C 0.81811 0.51282 0.24474 0.0
C1940 C 0.79483 0.51838 0.23542 0.0
C1941 C 0.79455 0.54054 0.2249 0.0
C1942 C 0.79559 0.45963 0.27506 0.0
C1943 C 0.81958 0.44406 0.27707 0.0
C1944 C 0.7951 0.48185 0.26458 0.0
C1945 C 0.81855 0.48896 0.25578 0.0
C1946 C 0.84243 0.47311 0.25763 0.0
C1947 C 0.84296 0.45096 0.26817 0.0
H1948 H 0.68859 0.61247 0.47938 0.0
H1949 H 0.70478 0.52771 0.46786 0.0
H1950 H 0.72632 0.61202 0.49833 0.0
H1951 H 0.74307 0.5275 0.4864 0.0
H1952 H 0.79237 0.52848 0.53241 0.0
H1953 H 0.75401 0.52856 0.51394 0.0
H1954 H 0.77523 0.61076 0.49926 0.0
H1955 H 0.81308 0.61099 0.51815 0.0
C1956 C 0.70024 0.59376 0.48086 0.0
C1957 C 0.69367 0.57013 0.47211 0.0
C1958 C 0.72203 0.59355 0.49164 0.0
C1959 C 0.73789 0.56977 0.49385 0.0
C1960 C 0.73111 0.54607 0.48518 0.0
C1961 C 0.7092 0.54623 0.47448 0.0
C1962 C 0.78891 0.54655 0.52521 0.0
C1963 C 0.80576 0.56976 0.52678 0.0
C1964 C 0.76696 0.54656 0.51455 0.0
C1965 C 0.76143 0.56969 0.50511 0.0
C1966 C 0.77856 0.59276 0.50654 0.0
C1967 C 0.80041 0.59282 0.51728 0.0
H1968 H 0.27603 0.54272 0.28241 0.0
H1969 H 0.35865 0.56266 0.268 0.0
H1970 H 0.27572 0.50427 0.26395 0.0
H1971 H 0.35806 0.52469 0.24921 0.0
H1972 H 0.35908 0.43757 0.22986 0.0
H1973 H 0.35882 0.47551 0.24868 0.0
H1974 H 0.27477 0.49332 0.23622 0.0
H1975 H 0.27479 0.45491 0.21774 0.0
C1976 C 0.29404 0.53906 0.27519 0.0
C1977 C 0.3174 0.55573 0.27672 0.0
C1978 C 0.29382 0.51707 0.26455 0.0
C1979 C 0.3169 0.51127 0.25511 0.0
C1980 C 0.3401 0.52822 0.25649 0.0
C1981 C 0.34037 0.55015 0.26718 0.0
C1982 C 0.3405 0.44949 0.23119 0.0
C1983 C 0.31697 0.4432 0.22228 0.0
C1984 C 0.34041 0.4714 0.2419 0.0
C1985 C 0.31682 0.48762 0.24392 0.0
C1986 C 0.2932 0.4811 0.23512 0.0
C1987 C 0.29325 0.45912 0.22446 0.0
H1988 H 0.32605 0.59223 0.99219 0.0
H1989 H 0.27998 0.54421 0.95833 0.0
H1990 H 0.28645 0.59222 0.01018 0.0
H1991 H 0.24029 0.54499 0.97612 0.0
H1992 H 0.16979 0.58887 0.00658 0.0
H1993 H 0.20939 0.58884 0.98858 0.0
H1994 H 0.25794 0.54842 0.02443 0.0
H1995 H 0.21829 0.54763 0.04225 0.0
C1996 C 0.30747 0.5818 0.98858 0.0
C1997 C 0.30609 0.56815 0.97391 0.0
C1998 C 0.28492 0.58176 0.99886 0.0
C1999 C 0.26045 0.56869 0.99443 0.0
C2000 C 0.25895 0.5553 0.97971 0.0
C2001 C 0.28168 0.55475 0.96962 0.0
C2002 C 0.1889 0.57995 0.01058 0.0
C2003 C 0.19097 0.56819 0.02577 0.0
C2004 C 0.21145 0.57988 0.0003 0.0
C2005 C 0.23658 0.56871 0.00522 0.0
C2006 C 0.23876 0.55725 0.02045 0.0
C2007 C 0.21607 0.55669 0.03056 0.0
H2008 H 0.13751 0.56095 0.72927 0.0
H2009 H 0.2219 0.54408 0.71717 0.0
H2010 H 0.13785 0.52274 0.74792 0.0
H2011 H 0.222 0.50541 0.73543 0.0
H2012 H 0.22132 0.45597 0.78143 0.0
H2013 H 0.22121 0.49445 0.76306 0.0
H2014 H 0.13886 0.47358 0.74852 0.0
H2015 H 0.13868 0.43554 0.7673 0.0
C2016 C 0.15612 0.54906 0.73056 0.0
C2017 C 0.17967 0.55559 0.72174 0.0
C2018 C 0.15625 0.527 0.74117 0.0
C2019 C 0.17992 0.51088 0.74315 0.0
C2020 C 0.20352 0.51757 0.73438 0.0
C2021 C 0.20343 0.5397 0.72384 0.0
C2022 C 0.20321 0.45951 0.77428 0.0
C2023 C 0.17998 0.4427 0.77586 0.0
C2024 C 0.20319 0.48154 0.76368 0.0
C2025 C 0.18 0.4872 0.75431 0.0
C2026 C 0.1569 0.47012 0.75574 0.0
C2027 C 0.15687 0.44817 0.76642 0.0
H2028 H 0.29175 0.47214 0.5327 0.0
H2029 H 0.31192 0.38914 0.51915 0.0
H2030 H 0.25333 0.47181 0.51428 0.0
H2031 H 0.27392 0.38908 0.50033 0.0
H2032 H 0.18672 0.38807 0.48071 0.0
H2033 H 0.22461 0.38846 0.49959 0.0
H2034 H 0.24307 0.47209 0.48651 0.0
H2035 H 0.20477 0.47197 0.46802 0.0
C2036 C 0.28815 0.45389 0.52568 0.0
C2037 C 0.30489 0.43065 0.52741 0.0
C2038 C 0.26616 0.45374 0.51505 0.0
C2039 C 0.26047 0.4304 0.50582 0.0
C2040 C 0.27742 0.40725 0.50744 0.0
C2041 C 0.29935 0.40735 0.51814 0.0
C2042 C 0.19879 0.40658 0.48193 0.0
C2043 C 0.1927 0.42998 0.47286 0.0
C2044 C 0.22065 0.40674 0.49267 0.0
C2045 C 0.23699 0.43028 0.49454 0.0
C2046 C 0.23073 0.45373 0.48554 0.0
C2047 C 0.20881 0.45361 0.47487 0.0
H2048 H 0.37518 0.01453 0.37917 0.0
H2049 H 0.31518 0.02041 0.41683 0.0
H2050 H 0.34813 0.0461 0.36307 0.0
H2051 H 0.28821 0.05193 0.40067 0.0
H2052 H 0.25759 0.12489 0.37168 0.0
H2053 H 0.2897 0.09905 0.38816 0.0
H2054 H 0.30207 0.04159 0.34981 0.0
H2055 H 0.27008 0.06728 0.33331 0.0
C2056 C 0.3564 0.02276 0.3841 0.0
C2057 C 0.34723 0.01477 0.39925 0.0
C2058 C 0.34088 0.04074 0.37484 0.0
C2059 C 0.31604 0.05133 0.3806 0.0
C2060 C 0.3074 0.04423 0.39598 0.0
C2061 C 0.32277 0.02604 0.40519 0.0
C2062 C 0.26737 0.1069 0.3667 0.0
C2063 C 0.26115 0.09804 0.35121 0.0
C2064 C 0.28564 0.09207 0.37617 0.0
C2065 C 0.2983 0.06832 0.37026 0.0
C2066 C 0.29279 0.05998 0.35461 0.0
C2067 C 0.27433 0.07461 0.34521 0.0
H2068 H 0.24119 0.12325 0.6285 0.0
H2069 H 0.23294 0.0642 0.66653 0.0
H2070 H 0.20926 0.09669 0.61237 0.0
H2071 H 0.20112 0.03771 0.65032 0.0
H2072 H 0.12736 0.00893 0.62158 0.0
H2073 H 0.15441 0.04025 0.63787 0.0
H2074 H 0.21166 0.05067 0.59921 0.0
H2075 H 0.18469 0.01949 0.58288 0.0
C2076 C 0.23242 0.10475 0.63348 0.0
C2077 C 0.23976 0.09576 0.64878 0.0
C2078 C 0.21423 0.0895 0.6242 0.0
C2079 C 0.2028 0.06511 0.63007 0.0
C2080 C 0.20943 0.05657 0.64554 0.0
C2081 C 0.22779 0.07167 0.65478 0.0
C2082 C 0.14556 0.0181 0.61648 0.0
C2083 C 0.15395 0.01157 0.60095 0.0
C2084 C 0.1611 0.03592 0.62585 0.0
C2085 C 0.18517 0.0478 0.61982 0.0
C2086 C 0.19307 0.042 0.60413 0.0
C2087 C 0.17769 0.024 0.59481 0.0
H2088 H 0.12483 0.99232 0.87773 0.0
H2089 H 0.1817 0.97856 0.91631 0.0
H2090 H 0.15068 0.96027 0.86117 0.0
H2091 H 0.2074 0.94675 0.89977 0.0
H2092 H 0.23598 0.87501 0.87026 0.0
H2093 H 0.20372 0.90138 0.88624 0.0
H2094 H 0.19761 0.9616 0.84881 0.0
H2095 H 0.22977 0.93525 0.83273 0.0
C2096 C 0.14262 0.98225 0.88274 0.0
C2097 C 0.15132 0.98813 0.89831 0.0
C2098 C 0.15747 0.96402 0.87323 0.0
C2099 C 0.18108 0.9511 0.87917 0.0
C2100 C 0.18915 0.95621 0.89492 0.0
C2101 C 0.1745 0.97459 0.90436 0.0
C2102 C 0.22757 0.89372 0.86534 0.0
C2103 C 0.23568 0.90315 0.85026 0.0
C2104 C 0.20916 0.90885 0.87453 0.0
C2105 C 0.19829 0.9336 0.8688 0.0
C2106 C 0.2055 0.94248 0.85348 0.0
C2107 C 0.22407 0.92746 0.84432 0.0
H2108 H 0.27235 0.93158 0.16629 0.0
H2109 H 0.26173 0.87338 0.12804 0.0
H2110 H 0.30482 0.95721 0.15018 0.0
H2111 H 0.29451 0.89909 0.11194 0.0
H2112 H 0.31789 0.9778 0.08306 0.0
H2113 H 0.29238 0.94512 0.09913 0.0
H2114 H 0.35071 0.95512 0.13728 0.0
H2115 H 0.37628 0.98809 0.12125 0.0
C2116 C 0.27716 0.92406 0.15451 0.0
C2117 C 0.26421 0.90058 0.14839 0.0
C2118 C 0.29596 0.93865 0.14533 0.0
C2119 C 0.30213 0.9302 0.12978 0.0
C2120 C 0.28993 0.9062 0.12384 0.0
C2121 C 0.27125 0.89144 0.13308 0.0
C2122 C 0.32547 0.97287 0.09482 0.0
C2123 C 0.34896 0.9858 0.10094 0.0
C2124 C 0.31096 0.95395 0.10397 0.0
C2125 C 0.3195 0.94765 0.11948 0.0
C2126 C 0.34352 0.95981 0.12541 0.0
C2127 C 0.35819 0.97861 0.11621 0.0
H2128 H 0.62244 0.97247 0.6135 0.0
H2129 H 0.69663 0.0052 0.5928 0.0
H2130 H 0.65005 0.94175 0.63018 0.0
H2131 H 0.72392 0.97509 0.60975 0.0
H2132 H 0.75527 0.94561 0.65992 0.0
H2133 H 0.72484 0.97361 0.64354 0.0
H2134 H 0.691 0.90058 0.62237 0.0
H2135 H 0.72199 0.8723 0.63846 0.0
C2136 C 0.64456 0.97306 0.61249 0.0
C2137 C 0.6574 0.99121 0.60186 0.0
C2138 C 0.66025 0.95549 0.62198 0.0
C2139 C 0.68895 0.95632 0.6212 0.0
C2140 C 0.70177 0.97427 0.61054 0.0
C2141 C 0.68615 0.99135 0.60082 0.0
C2142 C 0.74118 0.93546 0.65189 0.0
C2143 C 0.74106 0.90677 0.65042 0.0
C2144 C 0.7239 0.95149 0.64252 0.0
C2145 C 0.70578 0.93911 0.63177 0.0
C2146 C 0.70484 0.91045 0.63065 0.0
C2147 C 0.72258 0.89437 0.6398 0.0
H2148 H 0.76723 0.93461 0.33277 0.0
H2149 H 0.76125 0.87402 0.3701 0.0
H2150 H 0.79967 0.96069 0.3488 0.0
H2151 H 0.79379 0.90015 0.38606 0.0
H2152 H 0.81736 0.97711 0.41616 0.0
H2153 H 0.79085 0.94566 0.39977 0.0
H2154 H 0.84688 0.95857 0.36077 0.0
H2155 H 0.8735 0.9902 0.37714 0.0
C2156 C 0.77303 0.92669 0.34431 0.0
C2157 C 0.76145 0.90234 0.3502 0.0
C2158 C 0.79176 0.94155 0.35344 0.0
C2159 C 0.79915 0.93249 0.3687 0.0
C2160 C 0.78824 0.90774 0.3744 0.0
C2161 C 0.76969 0.89274 0.36522 0.0
C2162 C 0.82422 0.97308 0.40414 0.0
C2163 C 0.84745 0.98632 0.39793 0.0
C2164 C 0.80911 0.95491 0.39479 0.0
C2165 C 0.81676 0.94974 0.37898 0.0
C2166 C 0.84039 0.96238 0.37288 0.0
C2167 C 0.85569 0.98037 0.38229 0.0
H2168 H 0.75949 0.12245 0.12766 0.0
H2169 H 0.76931 0.06465 0.1662 0.0
H2170 H 0.79132 0.09567 0.11152 0.0
H2171 H 0.80092 0.03796 0.15002 0.0
H2172 H 0.87373 0.00814 0.12116 0.0
H2173 H 0.84709 0.04015 0.13724 0.0
H2174 H 0.78909 0.04932 0.09885 0.0
H2175 H 0.81566 0.01749 0.08273 0.0
C2176 C 0.76859 0.1042 0.13275 0.0
C2177 C 0.7617 0.09559 0.14819 0.0
C2178 C 0.78671 0.08882 0.12347 0.0
C2179 C 0.79851 0.0647 0.1295 0.0
C2180 C 0.79234 0.0566 0.14511 0.0
C2181 C 0.77407 0.07182 0.15433 0.0
C2182 C 0.85544 0.01717 0.11609 0.0
C2183 C 0.84672 0.0101 0.10069 0.0
C2184 C 0.84015 0.03541 0.12532 0.0
C2185 C 0.81599 0.04715 0.11931 0.0
C2186 C 0.80777 0.04079 0.10375 0.0
C2187 C 0.82291 0.0224 0.09456 0.0
H2188 H 0.68399 0.01739 0.91559 0.0
H2189 H 0.62794 0.00399 0.87655 0.0
H2190 H 0.71023 0.04914 0.89922 0.0
H2191 H 0.65433 0.03584 0.8602 0.0
H2192 H 0.73314 0.06307 0.83234 0.0
H2193 H 0.70198 0.03515 0.84823 0.0
H2194 H 0.70515 0.09515 0.8859 0.0
H2195 H 0.7363 0.12313 0.8701 0.0
C2196 C 0.67716 0.02134 0.90356 0.0
C2197 C 0.65394 0.00806 0.89736 0.0
C2198 C 0.6921 0.03966 0.89422 0.0
C2199 C 0.6843 0.0449 0.87845 0.0
C2200 C 0.66088 0.03198 0.8723 0.0
C2201 C 0.64574 0.01387 0.88169 0.0
C2202 C 0.72701 0.07045 0.84395 0.0
C2203 C 0.73737 0.09523 0.84999 0.0
C2204 C 0.70905 0.05453 0.853 0.0
C2205 C 0.7013 0.06295 0.86832 0.0
C2206 C 0.71104 0.08805 0.87419 0.0
C2207 C 0.72878 0.10411 0.8651 0.0
H2208 H 0.87561 0.50852 0.87819 0.0
H2209 H 0.81898 0.52188 0.91695 0.0
H2210 H 0.84969 0.54075 0.86182 0.0
H2211 H 0.79314 0.55381 0.90057 0.0
H2212 H 0.76274 0.62464 0.8709 0.0
H2213 H 0.79557 0.599 0.88696 0.0
H2214 H 0.80316 0.5389 0.84955 0.0
H2215 H 0.77058 0.5645 0.83343 0.0
C2216 C 0.85786 0.51854 0.88329 0.0
C2217 C 0.84923 0.51244 0.89883 0.0
C2218 C 0.84296 0.53689 0.87388 0.0
C2219 C 0.81934 0.54969 0.8799 0.0
C2220 C 0.8114 0.54446 0.89565 0.0
C2221 C 0.82612 0.52599 0.90499 0.0
C2222 C 0.77163 0.60612 0.86602 0.0
C2223 C 0.76382 0.59648 0.85093 0.0
C2224 C 0.79035 0.59141 0.87525 0.0
C2225 C 0.80182 0.56691 0.86953 0.0
C2226 C 0.79486 0.55786 0.85421 0.0
C2227 C 0.77602 0.57244 0.84503 0.0
H2228 H 0.62591 0.50728 0.12188 0.0
H2229 H 0.68289 0.51886 0.08311 0.0
H2230 H 0.65254 0.53899 0.13816 0.0
H2231 H 0.70943 0.55042 0.09943 0.0
H2232 H 0.73785 0.62345 0.1287 0.0
H2233 H 0.70628 0.59639 0.11261 0.0
H2234 H 0.69936 0.53721 0.15054 0.0
H2235 H 0.73083 0.56421 0.1667 0.0
C2236 C 0.64395 0.51675 0.11677 0.0
C2237 C 0.65236 0.5104 0.10122 0.0
C2238 C 0.65925 0.5348 0.12613 0.0
C2239 C 0.68308 0.54708 0.12007 0.0
C2240 C 0.69101 0.54144 0.10436 0.0
C2241 C 0.67587 0.52322 0.09505 0.0
C2242 C 0.72942 0.6048 0.13368 0.0
C2243 C 0.73702 0.5959 0.14896 0.0
C2244 C 0.71144 0.58927 0.12442 0.0
C2245 C 0.70047 0.56467 0.1303 0.0
C2246 C 0.70733 0.55622 0.14575 0.0
C2247 C 0.72549 0.57161 0.15497 0.0
H2248 H 0.6275 0.48739 0.37893 0.0
H2249 H 0.6876 0.48342 0.41664 0.0
H2250 H 0.65507 0.45605 0.36306 0.0
H2251 H 0.71515 0.45204 0.40065 0.0
H2252 H 0.74497 0.37744 0.37227 0.0
H2253 H 0.7137 0.40438 0.38867 0.0
H2254 H 0.70097 0.46039 0.34964 0.0
H2255 H 0.73215 0.43358 0.3332 0.0
C2256 C 0.64646 0.47968 0.38391 0.0
C2257 C 0.65544 0.48807 0.39903 0.0
C2258 C 0.66228 0.46182 0.37477 0.0
C2259 C 0.68728 0.45176 0.3806 0.0
C2260 C 0.69585 0.45936 0.39591 0.0
C2261 C 0.68014 0.47744 0.40502 0.0
C2262 C 0.73533 0.39537 0.36713 0.0
C2263 C 0.74114 0.40344 0.35144 0.0
C2264 C 0.71756 0.41084 0.37656 0.0
C2265 C 0.70499 0.43447 0.37043 0.0
C2266 C 0.7102 0.44211 0.35463 0.0
C2267 C 0.72818 0.42684 0.34525 0.0
H2268 H 0.81462 0.4817 0.58271 0.0
H2269 H 0.87346 0.48999 0.62084 0.0
H2270 H 0.78826 0.44961 0.59877 0.0
H2271 H 0.84703 0.45772 0.63683 0.0
H2272 H 0.76934 0.43369 0.66608 0.0
H2273 H 0.80111 0.46015 0.64989 0.0
H2274 H 0.79034 0.40303 0.6112 0.0
H2275 H 0.75835 0.37648 0.62735 0.0
C2276 C 0.82209 0.47649 0.59445 0.0
C2277 C 0.84604 0.4886 0.60053 0.0
C2278 C 0.80707 0.45794 0.6036 0.0
C2279 C 0.81556 0.45124 0.61906 0.0
C2280 C 0.83989 0.46273 0.625 0.0
C2281 C 0.85505 0.48113 0.6158 0.0
C2282 C 0.7739 0.42659 0.65417 0.0
C2283 C 0.76113 0.40308 0.64797 0.0
C2284 C 0.79226 0.44167 0.64494 0.0
C2285 C 0.79812 0.43369 0.62927 0.0
C2286 C 0.78597 0.40978 0.6232 0.0
C2287 C 0.76776 0.39454 0.63248 0.0
H2288 H 0.12417 0.49057 0.12128 0.0
H2289 H 0.18315 0.48273 0.0832 0.0
H2290 H 0.15071 0.45832 0.13726 0.0
H2291 H 0.20959 0.45063 0.09922 0.0
H2292 H 0.2287 0.43399 0.16638 0.0
H2293 H 0.19697 0.46078 0.1503 0.0
H2294 H 0.20707 0.40377 0.11149 0.0
H2295 H 0.23894 0.37689 0.12753 0.0
C2296 C 0.14262 0.4818 0.11625 0.0
C2297 C 0.15164 0.48937 0.101 0.0
C2298 C 0.15786 0.46344 0.12544 0.0
C2299 C 0.18223 0.45206 0.11949 0.0
C2300 C 0.19075 0.45889 0.10405 0.0
C2301 C 0.17568 0.47743 0.09493 0.0
C2302 C 0.22401 0.427 0.15447 0.0
C2303 C 0.23653 0.40341 0.1482 0.0
C2304 C 0.20568 0.44226 0.1453 0.0
C2305 C 0.19964 0.43439 0.12964 0.0
C2306 C 0.21158 0.41043 0.12349 0.0
C2307 C 0.22973 0.395 0.13271 0.0
H2308 H 0.31435 0.48268 0.91605 0.0
H2309 H 0.37154 0.49464 0.87741 0.0
H2310 H 0.28781 0.45138 0.89954 0.0
H2311 H 0.34485 0.46324 0.86093 0.0
H2312 H 0.26089 0.37774 0.8703 0.0
H2313 H 0.29206 0.40526 0.88635 0.0
H2314 H 0.29759 0.46483 0.84855 0.0
H2315 H 0.26642 0.43736 0.8324 0.0
C2316 C 0.32138 0.4785 0.90408 0.0
C2317 C 0.345 0.49125 0.89803 0.0
C2318 C 0.30625 0.46044 0.89467 0.0
C2319 C 0.31427 0.45495 0.87896 0.0
C2320 C 0.33811 0.46732 0.87296 0.0
C2321 C 0.35343 0.48516 0.88244 0.0
C2322 C 0.26891 0.39657 0.86532 0.0
C2323 C 0.26101 0.40544 0.85009 0.0
C2324 C 0.28666 0.41237 0.87456 0.0
C2325 C 0.29711 0.43721 0.86872 0.0
C2326 C 0.28998 0.44565 0.8533 0.0
C2327 C 0.27201 0.42998 0.8441 0.0
H2328 H 0.25953 0.62491 0.62838 0.0
H2329 H 0.26865 0.56618 0.6665 0.0
H2330 H 0.29154 0.59849 0.61219 0.0
H2331 H 0.3005 0.53984 0.65025 0.0
H2332 H 0.37327 0.51028 0.62126 0.0
H2333 H 0.34693 0.54229 0.6375 0.0
H2334 H 0.28878 0.55225 0.59925 0.0
H2335 H 0.31503 0.52039 0.58297 0.0
C2336 C 0.26853 0.60654 0.63337 0.0
C2337 C 0.26136 0.59754 0.64869 0.0
C2338 C 0.28676 0.59138 0.62406 0.0
C2339 C 0.2984 0.56708 0.62995 0.0
C2340 C 0.29202 0.55862 0.64546 0.0
C2341 C 0.27363 0.57363 0.65472 0.0
C2342 C 0.35503 0.51951 0.61624 0.0
C2343 C 0.34613 0.51262 0.60085 0.0
C2344 C 0.33991 0.53774 0.62557 0.0
C2345 C 0.31579 0.54966 0.61965 0.0
C2346 C 0.30744 0.54355 0.60407 0.0
C2347 C 0.32239 0.52515 0.59479 0.0
H2348 H 0.24199 0.62362 0.37212 0.0
H2349 H 0.22914 0.56736 0.33312 0.0
H2350 H 0.21057 0.59684 0.38853 0.0
H2351 H 0.19784 0.54071 0.34956 0.0
H2352 H 0.12551 0.51219 0.37924 0.0
H2353 H 0.15218 0.54413 0.36322 0.0
H2354 H 0.21271 0.54942 0.40051 0.0
H2355 H 0.18608 0.51749 0.41663 0.0
C2356 C 0.23226 0.60574 0.36698 0.0
C2357 C 0.23819 0.59753 0.35133 0.0
C2358 C 0.2144 0.59035 0.37642 0.0
C2359 C 0.20188 0.56667 0.37033 0.0
C2360 C 0.20704 0.55901 0.35452 0.0
C2361 C 0.22509 0.5742 0.34514 0.0
C2362 C 0.14438 0.52032 0.38411 0.0
C2363 C 0.15376 0.51212 0.39919 0.0
C2364 C 0.15968 0.53853 0.37489 0.0
C2365 C 0.18454 0.54914 0.3806 0.0
C2366 C 0.19349 0.54171 0.39587 0.0
C2367 C 0.17831 0.5233 0.40505 0.0
H2368 H 0.30891 0.2747 0.21993 0.0
H2369 H 0.22822 0.31065 0.21988 0.0
H2370 H 0.29461 0.2425 0.2408 0.0
H2371 H 0.2136 0.27813 0.2405 0.0
H2372 H 0.19407 0.19224 0.26315 0.0
H2373 H 0.20848 0.22405 0.24211 0.0
H2374 H 0.2781 0.24819 0.27051 0.0
H2375 H 0.26339 0.21678 0.29158 0.0
C2376 C 0.28814 0.27561 0.22445 0.0
C2377 C 0.26961 0.29502 0.21852 0.0
C2378 C 0.27998 0.25732 0.23633 0.0
C2379 C 0.25301 0.25788 0.24219 0.0
C2380 C 0.23444 0.2772 0.23609 0.0
C2381 C 0.24277 0.29581 0.22442 0.0
C2382 C 0.21244 0.20437 0.2648 0.0
C2383 C 0.22763 0.2023 0.2789 0.0
C2384 C 0.22059 0.22258 0.25287 0.0
C2385 C 0.24436 0.23852 0.25475 0.0
C2386 C 0.25978 0.23603 0.26877 0.0
C2387 C 0.25134 0.21822 0.2808 0.0
H2388 H 0.02037 0.94315 0.53181 0.0
H2389 H 0.06454 0.01919 0.52682 0.0
H2390 H 0.98837 0.95759 0.51088 0.0
H2391 H 0.03221 0.034 0.50614 0.0
H2392 H 0.94629 0.05818 0.48415 0.0
H2393 H 0.97798 0.04407 0.50536 0.0
H2394 H 0.99489 0.96906 0.48 0.0
H2395 H 0.96379 0.98353 0.45868 0.0
C2396 C 0.02311 0.96295 0.5262 0.0
C2397 C 0.04483 0.98006 0.53072 0.0
C2398 C 0.00493 0.97117 0.51428 0.0
C2399 C 0.00789 0.99689 0.50696 0.0
C2400 C 0.02945 0.01415 0.51168 0.0
C2401 C 0.04794 0.00568 0.52339 0.0
C2402 C 0.95685 0.03872 0.4832 0.0
C2403 C 0.9528 0.02188 0.4699 0.0
C2404 C 0.97496 0.03072 0.49523 0.0
C2405 C 0.98877 0.00549 0.49427 0.0
C2406 C 0.98435 0.98852 0.48103 0.0
C2407 C 0.96672 0.99679 0.46887 0.0
H2408 H 0.22974 0.78862 0.79072 0.0
H2409 H 0.30867 0.79654 0.76817 0.0
H2410 H 0.21477 0.75745 0.76954 0.0
H2411 H 0.29395 0.76511 0.74704 0.0
H2412 H 0.26539 0.68272 0.72422 0.0
H2413 H 0.28023 0.71399 0.74537 0.0
H2414 H 0.20612 0.76122 0.73929 0.0
H2415 H 0.19152 0.73001 0.71803 0.0
C2416 C 0.24384 0.78351 0.78122 0.0
C2417 C 0.27032 0.79466 0.78099 0.0
C2418 C 0.23529 0.76588 0.76911 0.0
C2419 C 0.25324 0.75887 0.7567 0.0
C2420 C 0.27981 0.77002 0.75655 0.0
C2421 C 0.28819 0.78798 0.76854 0.0
C2422 C 0.25235 0.69979 0.72749 0.0
C2423 C 0.22735 0.70408 0.71966 0.0
C2424 C 0.26085 0.7177 0.73947 0.0
C2425 C 0.24429 0.73997 0.74394 0.0
C2426 C 0.21915 0.74408 0.73614 0.0
C2427 C 0.21085 0.72638 0.724 0.0
H2428 H 0.4766 0.99235 0.04491 0.0
H2429 H 0.4359 0.04657 0.01202 0.0
H2430 H 0.50877 0.97898 0.02428 0.0
H2431 H 0.46635 0.03137 0.99086 0.0
H2432 H 0.54151 0.02015 0.95984 0.0
H2433 H 0.51051 0.03481 0.98099 0.0
H2434 H 0.51434 0.95347 0.00144 0.0
H2435 H 0.5467 0.93979 0.98078 0.0
C2436 C 0.47454 0.0014 0.03322 0.0
C2437 C 0.454 0.0208 0.03013 0.0
C2438 C 0.49269 0.99336 0.02127 0.0
C2439 C 0.49032 0.00402 0.00578 0.0
C2440 C 0.46929 0.02306 0.00266 0.0
C2441 C 0.4515 0.0315 0.01473 0.0
C2442 C 0.53569 0.00562 0.96898 0.0
C2443 C 0.5463 0.97897 0.96884 0.0
C2444 C 0.51775 0.01384 0.98101 0.0
C2445 C 0.50968 0.99535 0.993 0.0
C2446 C 0.52038 0.96851 0.99267 0.0
C2447 C 0.53874 0.96052 0.98079 0.0
H2448 H 0.20488 0.81526 0.23816 0.0
H2449 H 0.25675 0.77322 0.20455 0.0
H2450 H 0.22066 0.78478 0.2592 0.0
H2451 H 0.27075 0.74121 0.22511 0.0
H2452 H 0.31159 0.70343 0.26821 0.0
H2453 H 0.29744 0.73591 0.24769 0.0
H2454 H 0.21686 0.74037 0.26905 0.0
H2455 H 0.23192 0.70915 0.28999 0.0
C2456 C 0.21958 0.7994 0.23527 0.0
C2457 C 0.22944 0.79653 0.2197 0.0
C2458 C 0.22835 0.78161 0.24727 0.0
C2459 C 0.24693 0.76027 0.24392 0.0
C2460 C 0.25676 0.75753 0.22828 0.0
C2461 C 0.24834 0.77561 0.21638 0.0
C2462 C 0.29092 0.71154 0.26842 0.0
C2463 C 0.27279 0.70406 0.28056 0.0
C2464 C 0.28266 0.72997 0.25664 0.0
C2465 C 0.25591 0.74089 0.25662 0.0
C2466 C 0.23775 0.73294 0.26879 0.0
C2467 C 0.24621 0.71488 0.28071 0.0
H2468 H 0.56533 0.97941 0.52717 0.0
H2469 H 0.52241 0.05616 0.53214 0.0
H2470 H 0.53294 0.96522 0.50639 0.0
H2471 H 0.49028 0.04232 0.51117 0.0
H2472 H 0.4639 0.01751 0.45944 0.0
H2473 H 0.49526 0.0315 0.48072 0.0
H2474 H 0.4798 0.95526 0.50517 0.0
H2475 H 0.44805 0.94154 0.48394 0.0
C2476 C 0.54898 0.9932 0.52371 0.0
C2477 C 0.54621 0.01883 0.53107 0.0
C2478 C 0.53045 0.98509 0.51195 0.0
C2479 C 0.50919 0.00272 0.50722 0.0
C2480 C 0.50661 0.02846 0.51456 0.0
C2481 C 0.52485 0.03634 0.52651 0.0
C2482 C 0.46723 0.00387 0.46942 0.0
C2483 C 0.45377 0.97851 0.47017 0.0
C2484 C 0.485 0.01187 0.48157 0.0
C2485 C 0.48992 0.99441 0.49453 0.0
C2486 C 0.47645 0.96897 0.49524 0.0
C2487 C 0.45829 0.96119 0.4832 0.0
H2488 H 0.2715 0.291 0.78934 0.0
H2489 H 0.19152 0.29642 0.76782 0.0
H2490 H 0.28642 0.25975 0.76819 0.0
H2491 H 0.20619 0.26487 0.74674 0.0
H2492 H 0.23589 0.18216 0.72463 0.0
H2493 H 0.22118 0.21385 0.74559 0.0
H2494 H 0.29359 0.26286 0.73767 0.0
H2495 H 0.30804 0.23124 0.71659 0.0
C2496 C 0.25719 0.28537 0.78006 0.0
C2497 C 0.23042 0.29582 0.78012 0.0
C2498 C 0.26569 0.26768 0.76797 0.0
C2499 C 0.24741 0.25989 0.75588 0.0
C2500 C 0.22059 0.27039 0.756 0.0
C2501 C 0.21223 0.28843 0.76796 0.0
C2502 C 0.24859 0.19971 0.72745 0.0
C2503 C 0.27305 0.20439 0.71914 0.0
C2504 C 0.24015 0.21786 0.73932 0.0
C2505 C 0.25627 0.24076 0.74322 0.0
C2506 C 0.2809 0.24526 0.73496 0.0
C2507 C 0.2891 0.22732 0.72291 0.0
H2508 H 0.94739 0.94507 0.01486 0.0
H2509 H 0.96632 0.01703 0.04249 0.0
H2510 H 0.97946 0.96021 0.99418 0.0
H2511 H 0.99825 0.03237 0.02183 0.0
H2512 H 0.02742 0.06275 0.97199 0.0
H2513 H 0.99527 0.04798 0.99273 0.0
H2514 H 0.03162 0.96727 0.99222 0.0
H2515 H 0.06389 0.98229 0.97161 0.0
C2516 C 0.95842 0.96415 0.01643 0.0
C2517 C 0.95468 0.97985 0.03022 0.0
C2518 C 0.97681 0.97273 0.0047 0.0
C2519 C 0.99138 0.99741 0.00645 0.0
C2520 C 0.98719 0.01333 0.02015 0.0
C2521 C 0.96911 0.00454 0.03198 0.0
C2522 C 0.02853 0.04195 0.97645 0.0
C2523 C 0.04806 0.02363 0.97042 0.0
C2524 C 0.01026 0.03352 0.98828 0.0
C2525 C 0.01097 0.00648 0.99405 0.0
C2526 C 0.03051 0.98816 0.9879 0.0
C2527 C 0.04902 0.99673 0.97624 0.0
H2528 H 0.72892 0.79452 0.71216 0.0
H2529 H 0.81218 0.78925 0.72886 0.0
H2530 H 0.71416 0.76325 0.73318 0.0
H2531 H 0.79808 0.75681 0.74943 0.0
H2532 H 0.76075 0.72142 0.79424 0.0
H2533 H 0.77472 0.7533 0.77352 0.0
H2534 H 0.71501 0.71753 0.74168 0.0
H2535 H 0.69978 0.6871 0.76293 0.0
C2536 C 0.74403 0.78636 0.72033 0.0
C2537 C 0.77157 0.7941 0.71906 0.0
C2538 C 0.73571 0.76829 0.73228 0.0
C2539 C 0.7549 0.75734 0.74306 0.0
C2540 C 0.7826 0.76513 0.74158 0.0
C2541 C 0.79079 0.78352 0.72977 0.0
C2542 C 0.75037 0.72072 0.78287 0.0
C2543 C 0.72898 0.70205 0.78022 0.0
C2544 C 0.75865 0.7387 0.77088 0.0
C2545 C 0.74606 0.73809 0.75584 0.0
C2546 C 0.7249 0.719 0.75316 0.0
C2547 C 0.71637 0.7013 0.76526 0.0
H2548 H 0.72945 0.29802 0.28607 0.0
H2549 H 0.81352 0.28844 0.27152 0.0
H2550 H 0.71477 0.26706 0.26485 0.0
H2551 H 0.79936 0.25649 0.25067 0.0
H2552 H 0.76278 0.22241 0.20509 0.0
H2553 H 0.77678 0.25428 0.22587 0.0
H2554 H 0.71503 0.22045 0.2571 0.0
H2555 H 0.70006 0.18984 0.23586 0.0
C2556 C 0.74472 0.28904 0.27831 0.0
C2557 C 0.77248 0.29542 0.28024 0.0
C2558 C 0.73643 0.27117 0.26625 0.0
C2559 C 0.75587 0.25915 0.25602 0.0
C2560 C 0.78377 0.26565 0.25812 0.0
C2561 C 0.79196 0.28375 0.27009 0.0
C2562 C 0.75201 0.22212 0.21634 0.0
C2563 C 0.73019 0.20391 0.21885 0.0
C2564 C 0.76025 0.2401 0.22834 0.0
C2565 C 0.74707 0.24 0.24322 0.0
C2566 C 0.72539 0.22146 0.24574 0.0
C2567 C 0.71698 0.20369 0.23365 0.0
H2568 H 0.72791 0.20293 0.78638 0.0
H2569 H 0.81164 0.21017 0.77077 0.0
H2570 H 0.71317 0.23352 0.76503 0.0
H2571 H 0.79751 0.24198 0.74986 0.0
H2572 H 0.76088 0.277 0.70468 0.0
H2573 H 0.77481 0.24508 0.72543 0.0
H2574 H 0.71346 0.27936 0.75677 0.0
H2575 H 0.69837 0.3098 0.73552 0.0
C2576 C 0.7431 0.21135 0.77836 0.0
C2577 C 0.77078 0.20439 0.78004 0.0
C2578 C 0.7348 0.22904 0.76623 0.0
C2579 C 0.75413 0.24041 0.75568 0.0
C2580 C 0.78195 0.23332 0.75753 0.0
C2581 C 0.79015 0.21531 0.76954 0.0
C2582 C 0.75013 0.27732 0.71594 0.0
C2583 C 0.72834 0.29557 0.71846 0.0
C2584 C 0.75837 0.25933 0.72794 0.0
C2585 C 0.7453 0.25953 0.74285 0.0
C2586 C 0.72371 0.27818 0.74539 0.0
C2587 C 0.71524 0.29588 0.73329 0.0
H2588 H 0.6884 0.8033 0.2648 0.0
H2589 H 0.76272 0.78672 0.2908 0.0
H2590 H 0.70332 0.77179 0.24371 0.0
H2591 H 0.77792 0.75565 0.26967 0.0
H2592 H 0.80574 0.7291 0.21866 0.0
H2593 H 0.79066 0.76107 0.23944 0.0
H2594 H 0.71325 0.71853 0.24247 0.0
H2595 H 0.72867 0.6863 0.2219 0.0
C2596 C 0.70796 0.79296 0.26591 0.0
C2597 C 0.72446 0.79722 0.27932 0.0
C2598 C 0.71642 0.77493 0.25394 0.0
C2599 C 0.74176 0.76136 0.25511 0.0
C2600 C 0.75839 0.766 0.26846 0.0
C2601 C 0.74969 0.78361 0.28053 0.0
C2602 C 0.78558 0.72665 0.22387 0.0
C2603 C 0.76834 0.70535 0.21889 0.0
C2604 C 0.77699 0.74481 0.23571 0.0
C2605 C 0.7508 0.74222 0.2425 0.0
C2606 C 0.73345 0.72104 0.23733 0.0
C2607 C 0.74226 0.70259 0.22569 0.0
H2608 H 0.4588 0.47934 0.96003 0.0
H2609 H 0.44917 0.55781 0.9829 0.0
H2610 H 0.48991 0.46461 0.98132 0.0
H2611 H 0.48066 0.54339 0.00407 0.0
H2612 H 0.5648 0.51575 0.02588 0.0
H2613 H 0.5327 0.53028 0.00507 0.0
H2614 H 0.48594 0.45611 0.01199 0.0
H2615 H 0.51789 0.44188 0.03297 0.0
C2616 C 0.46346 0.49337 0.96964 0.0
C2617 C 0.45188 0.51966 0.96992 0.0
C2618 C 0.48108 0.48496 0.9818 0.0
C2619 C 0.48769 0.50292 0.99428 0.0
C2620 C 0.47603 0.52926 0.99452 0.0
C2621 C 0.45803 0.53746 0.9825 0.0
C2622 C 0.54764 0.50264 0.02289 0.0
C2623 C 0.54372 0.47771 0.03086 0.0
C2624 C 0.52926 0.51097 0.0111 0.0
C2625 C 0.50691 0.49427 0.00695 0.0
C2626 C 0.50312 0.46924 0.01491 0.0
C2627 C 0.52125 0.46115 0.02689 0.0
H2628 H 0.03872 0.5196 0.4594 0.0
H2629 H 0.04799 0.44129 0.48249 0.0
H2630 H 0.00745 0.53455 0.48051 0.0
H2631 H 0.01641 0.45599 0.50356 0.0
H2632 H 0.93293 0.48388 0.52572 0.0
H2633 H 0.96482 0.46899 0.50489 0.0
H2634 H 0.011 0.5438 0.5108 0.0
H2635 H 0.97921 0.55841 0.53177 0.0
C2636 C 0.03395 0.50565 0.46902 0.0
C2637 C 0.0455 0.47935 0.46942 0.0
C2638 C 0.01623 0.51419 0.4811 0.0
C2639 C 0.00951 0.49638 0.49363 0.0
C2640 C 0.02111 0.47001 0.49396 0.0
C2641 C 0.03917 0.46165 0.48201 0.0
C2642 C 0.9499 0.49706 0.52249 0.0
C2643 C 0.95372 0.52227 0.53017 0.0
C2644 C 0.96818 0.48852 0.51069 0.0
C2645 C 0.99033 0.50527 0.50626 0.0
C2646 C 0.99398 0.53061 0.51392 0.0
C2647 C 0.97593 0.53893 0.52589 0.0
H2648 H 0.05684 0.55264 0.01315 0.0
H2649 H 0.02995 0.48712 0.04382 0.0
H2650 H 0.02536 0.53665 0.99239 0.0
H2651 H 0.99848 0.47111 0.02316 0.0
H2652 H 0.96973 0.43483 0.97483 0.0
H2653 H 0.00175 0.45038 0.99546 0.0
H2654 H 0.97345 0.53354 0.989 0.0
H2655 H 0.94136 0.51776 0.9685 0.0
C2656 C 0.04422 0.53479 0.01538 0.0
C2657 C 0.04559 0.52115 0.03003 0.0
C2658 C 0.02614 0.52575 0.00359 0.0
C2659 C 0.00946 0.50268 0.0062 0.0
C2660 C 0.01121 0.48883 0.0208 0.0
C2661 C 0.02902 0.49809 0.03264 0.0
C2662 C 0.97038 0.45636 0.97796 0.0
C2663 C 0.95322 0.47518 0.97028 0.0
C2664 C 0.98857 0.46525 0.98972 0.0
C2665 C 0.9901 0.49318 0.99379 0.0
C2666 C 0.97287 0.51196 0.986 0.0
C2667 C 0.95446 0.50298 0.97439 0.0
H2668 H 0.51065 0.54474 0.46007 0.0
H2669 H 0.57312 0.49221 0.47976 0.0
H2670 H 0.47863 0.52957 0.48047 0.0
H2671 H 0.54201 0.4786 0.50095 0.0
H2672 H 0.47258 0.43855 0.52816 0.0
H2673 H 0.50343 0.45228 0.50671 0.0
H2674 H 0.46797 0.5336 0.50738 0.0
H2675 H 0.43626 0.519 0.52819 0.0
C2676 C 0.51754 0.53005 0.46885 0.0
C2677 C 0.54437 0.51973 0.46838 0.0
C2678 C 0.49933 0.5216 0.48069 0.0
C2679 C 0.50765 0.5029 0.49249 0.0
C2680 C 0.53463 0.4927 0.49199 0.0
C2681 C 0.55267 0.50084 0.47999 0.0
C2682 C 0.47145 0.45926 0.52356 0.0
C2683 C 0.45218 0.47776 0.52962 0.0
C2684 C 0.48922 0.46727 0.51139 0.0
C2685 C 0.48835 0.49414 0.50526 0.0
C2686 C 0.46897 0.51262 0.51153 0.0
C2687 C 0.45093 0.50442 0.52351 0.0
loop_
_geom_bond_atom_site_label_1
_geom_bond_atom_site_label_2
_geom_bond_distance
_geom_bond_site_symmetry_2
_ccdc_geom_bond_type
Co0 O3 1.970 . S
Co0 N17 1.989 . S
Co0 O25 1.967 . S
Co0 O32 1.920 . S
Co1 O4 1.966 . S
Co1 N10 2.022 . S
Co1 N18 1.993 . S
Co1 O26 1.941 . S
C2 O3 1.258 . S
C2 O4 1.263 . S
O3 Co0 1.970 . S
O3 C2 1.258 . S
O4 Co1 1.966 . S
O4 C2 1.263 . S
C5 O6 1.235 . S
C5 O32 1.289 . S
O6 C5 1.235 . S
C7 C9 1.400 . S
C7 N10 1.351 . S
C7 C12 1.501 . S
C8 C9 1.387 . S
C8 N11 1.341 . S
C9 C7 1.400 . S
C9 C8 1.387 . S
N10 Co1 2.022 . S
N10 C7 1.351 . S
N10 N11 1.365 . S
N11 C8 1.341 . S
N11 N10 1.365 . S
N11 H31 0.862 . S
C12 C7 1.501 . S
C12 H13 0.961 . S
C12 H14 0.961 . S
C12 H15 0.960 . S
H13 C12 0.961 . S
H14 C12 0.961 . S
H15 C12 0.960 . S
C16 N17 1.342 . S
C16 C20 1.401 . S
C16 C21 1.499 . S
N17 Co0 1.989 . S
N17 C16 1.342 . S
N17 N18 1.388 . S
N18 Co1 1.993 . S
N18 N17 1.388 . S
N18 C19 1.346 . S
C19 N18 1.346 . S
C19 C20 1.396 . S
C19 C29 1.510 . S
C20 C16 1.401 . S
C20 C19 1.396 . S
C21 C16 1.499 . S
C21 H22 0.959 . S
C21 H23 0.960 . S
C21 H24 0.961 . S
H22 C21 0.959 . S
H23 C21 0.960 . S
H24 C21 0.961 . S
O25 Co0 1.967 . S
O25 C33 1.258 . S
O26 Co1 1.941 . S
O26 C33 1.266 . S
H27 C29 0.959 . S
H28 C29 0.961 . S
C29 C19 1.510 . S
C29 H27 0.959 . S
C29 H28 0.961 . S
C29 H30 0.960 . S
H30 C29 0.960 . S
H31 N11 0.862 . S
O32 Co0 1.920 . S
O32 C5 1.289 . S
C33 O25 1.258 . S
C33 O26 1.266 . S
Co34 O37 1.970 . S
Co34 N51 1.989 . S
Co34 O59 1.967 . S
Co34 O66 1.920 . S
Co35 O38 1.966 . S
Co35 N44 2.022 . S
Co35 N52 1.993 . S
Co35 O60 1.941 . S
C36 O37 1.258 . S
C36 O38 1.263 . S
O37 Co34 1.970 . S
O37 C36 1.258 . S
O38 Co35 1.966 . S
O38 C36 1.263 . S
C39 O40 1.235 . S
C39 O66 1.289 . S
O40 C39 1.235 . S
C41 C43 1.400 . S
C41 N44 1.351 . S
C41 C46 1.501 . S
C42 C43 1.387 . S
C42 N45 1.341 . S
C43 C41 1.400 . S
C43 C42 1.387 . S
N44 Co35 2.022 . S
N44 C41 1.351 . S
N44 N45 1.365 . S
N45 C42 1.341 . S
N45 N44 1.365 . S
N45 H65 0.862 . S
C46 C41 1.501 . S
C46 H47 0.961 . S
C46 H48 0.961 . S
C46 H49 0.960 . S
H47 C46 0.961 . S
H48 C46 0.961 . S
H49 C46 0.960 . S
C50 N51 1.342 . S
C50 C54 1.401 . S
C50 C55 1.499 . S
N51 Co34 1.989 . S
N51 C50 1.342 . S
N51 N52 1.388 . S
N52 Co35 1.993 . S
N52 N51 1.388 . S
N52 C53 1.346 . S
C53 N52 1.346 . S
C53 C54 1.396 . S
C53 C63 1.510 . S
C54 C50 1.401 . S
C54 C53 1.396 . S
C55 C50 1.499 . S
C55 H56 0.959 . S
C55 H57 0.960 . S
C55 H58 0.961 1_565 S
H56 C55 0.959 . S
H57 C55 0.960 . S
H58 C55 0.961 1_545 S
O59 Co34 1.967 . S
O59 C67 1.258 . S
O60 Co35 1.941 . S
O60 C67 1.266 . S
H61 C63 0.959 . S
H62 C63 0.961 . S
C63 C53 1.510 . S
C63 H61 0.959 . S
C63 H62 0.961 . S
C63 H64 0.960 . S
H64 C63 0.960 . S
H65 N45 0.862 . S
O66 Co34 1.920 . S
O66 C39 1.289 . S
C67 O59 1.258 . S
C67 O60 1.266 . S
Co68 O71 1.970 . S
Co68 N85 1.989 . S
Co68 O93 1.967 . S
Co68 O100 1.920 . S
Co69 O72 1.966 . S
Co69 N78 2.022 . S
Co69 N86 1.993 . S
Co69 O94 1.941 . S
C70 O71 1.258 . S
C70 O72 1.263 . S
O71 Co68 1.970 . S
O71 C70 1.258 . S
O72 Co69 1.966 . S
O72 C70 1.263 . S
C73 O74 1.235 . S
C73 O100 1.289 . S
O74 C73 1.235 . S
C75 C77 1.400 . S
C75 N78 1.351 . S
C75 C80 1.501 . S
C76 C77 1.387 . S
C76 N79 1.341 . S
C77 C75 1.400 . S
C77 C76 1.387 . S
N78 Co69 2.022 . S
N78 C75 1.351 . S
N78 N79 1.365 . S
N79 C76 1.341 . S
N79 N78 1.365 . S
N79 H99 0.862 . S
C80 C75 1.501 . S
C80 H81 0.961 . S
C80 H82 0.961 . S
C80 H83 0.960 . S
H81 C80 0.961 . S
H82 C80 0.961 . S
H83 C80 0.960 . S
C84 N85 1.342 . S
C84 C88 1.401 . S
C84 C89 1.499 . S
N85 Co68 1.989 . S
N85 C84 1.342 . S
N85 N86 1.388 . S
N86 Co69 1.993 . S
N86 N85 1.388 . S
N86 C87 1.346 . S
C87 N86 1.346 . S
C87 C88 1.396 . S
C87 C97 1.510 . S
C88 C84 1.401 . S
C88 C87 1.396 . S
C89 C84 1.499 . S
C89 H90 0.959 . S
C89 H91 0.960 . S
C89 H92 0.961 . S
H90 C89 0.959 . S
H91 C89 0.960 . S
H92 C89 0.961 . S
O93 Co68 1.967 . S
O93 C101 1.258 . S
O94 Co69 1.941 . S
O94 C101 1.266 . S
H95 C97 0.959 . S
H96 C97 0.961 . S
C97 C87 1.510 . S
C97 H95 0.959 . S
C97 H96 0.961 . S
C97 H98 0.960 . S
H98 C97 0.960 . S
H99 N79 0.862 . S
O100 Co68 1.920 . S
O100 C73 1.289 . S
C101 O93 1.258 . S
C101 O94 1.266 . S
Co102 O105 1.970 . S
Co102 N119 1.989 . S
Co102 O127 1.967 . S
Co102 O134 1.920 . S
Co103 O106 1.966 . S
Co103 N112 2.022 . S
Co103 N120 1.993 . S
Co103 O128 1.941 . S
C104 O105 1.258 . S
C104 O106 1.263 . S
O105 Co102 1.970 . S
O105 C104 1.258 . S
O106 Co103 1.966 . S
O106 C104 1.263 . S
C107 O108 1.235 . S
C107 O134 1.289 . S
O108 C107 1.235 . S
C109 C111 1.400 . S
C109 N112 1.351 . S
C109 C114 1.501 . S
C110 C111 1.387 . S
C110 N113 1.341 . S
C111 C109 1.400 . S
C111 C110 1.387 . S
N112 Co103 2.022 . S
N112 C109 1.351 . S
N112 N113 1.365 . S
N113 C110 1.341 . S
N113 N112 1.365 . S
N113 H133 0.862 . S
C114 C109 1.501 . S
C114 H115 0.961 . S
C114 H116 0.961 . S
C114 H117 0.960 . S
H115 C114 0.961 . S
H116 C114 0.961 . S
H117 C114 0.960 . S
C118 N119 1.342 . S
C118 C122 1.401 . S
C118 C123 1.499 . S
N119 Co102 1.989 . S
N119 C118 1.342 . S
N119 N120 1.388 . S
N120 Co103 1.993 . S
N120 N119 1.388 . S
N120 C121 1.346 . S
C121 N120 1.346 . S
C121 C122 1.396 . S
C121 C131 1.510 . S
C122 C118 1.401 . S
C122 C121 1.396 . S
C123 C118 1.499 . S
C123 H124 0.959 . S
C123 H125 0.960 . S
C123 H126 0.961 1_545 S
H124 C123 0.959 . S
H125 C123 0.960 . S
H126 C123 0.961 1_565 S
O127 Co102 1.967 . S
O127 C135 1.258 . S
O128 Co103 1.941 . S
O128 C135 1.266 . S
H129 C131 0.959 . S
H130 C131 0.961 . S
C131 C121 1.510 . S
C131 H129 0.959 . S
C131 H130 0.961 . S
C131 H132 0.960 . S
H132 C131 0.960 . S
H133 N113 0.862 . S
O134 Co102 1.920 . S
O134 C107 1.289 . S
C135 O127 1.258 . S
C135 O128 1.266 . S
Co136 O139 1.970 . S
Co136 N153 1.989 . S
Co136 O161 1.967 . S
Co136 O168 1.920 . S
Co137 O140 1.966 . S
Co137 N146 2.022 . S
Co137 N154 1.993 . S
Co137 O162 1.941 . S
C138 O139 1.258 . S
C138 O140 1.263 . S
O139 Co136 1.970 . S
O139 C138 1.258 . S
O140 Co137 1.966 . S
O140 C138 1.263 . S
C141 O142 1.235 . S
C141 O168 1.289 . S
O142 C141 1.235 . S
C143 C145 1.400 . S
C143 N146 1.351 . S
C143 C148 1.501 . S
C144 C145 1.387 . S
C144 N147 1.341 . S
C145 C143 1.400 . S
C145 C144 1.387 . S
N146 Co137 2.022 . S
N146 C143 1.351 . S
N146 N147 1.365 . S
N147 C144 1.341 . S
N147 N146 1.365 . S
N147 H167 0.862 . S
C148 C143 1.501 . S
C148 H149 0.961 . S
C148 H150 0.961 . S
C148 H151 0.960 . S
H149 C148 0.961 . S
H150 C148 0.961 . S
H151 C148 0.960 . S
C152 N153 1.342 . S
C152 C156 1.401 . S
C152 C157 1.499 . S
N153 Co136 1.989 . S
N153 C152 1.342 . S
N153 N154 1.388 . S
N154 Co137 1.993 . S
N154 N153 1.388 . S
N154 C155 1.346 . S
C155 N154 1.346 . S
C155 C156 1.396 . S
C155 C165 1.510 . S
C156 C152 1.401 . S
C156 C155 1.396 . S
C157 C152 1.499 . S
C157 H158 0.959 . S
C157 H159 0.960 . S
C157 H160 0.961 . S
H158 C157 0.959 . S
H159 C157 0.960 . S
H160 C157 0.961 . S
O161 Co136 1.967 . S
O161 C169 1.258 . S
O162 Co137 1.941 . S
O162 C169 1.266 . S
H163 C165 0.959 . S
H164 C165 0.961 . S
C165 C155 1.510 . S
C165 H163 0.959 . S
C165 H164 0.961 . S
C165 H166 0.960 . S
H166 C165 0.960 . S
H167 N147 0.862 . S
O168 Co136 1.920 . S
O168 C141 1.289 . S
C169 O161 1.258 . S
C169 O162 1.266 . S
Co170 O173 1.970 . S
Co170 N187 1.989 . S
Co170 O195 1.967 . S
Co170 O202 1.920 . S
Co171 O174 1.966 . S
Co171 N180 2.022 . S
Co171 N188 1.993 . S
Co171 O196 1.941 . S
C172 O173 1.258 . S
C172 O174 1.263 . S
O173 Co170 1.970 . S
O173 C172 1.258 . S
O174 Co171 1.966 . S
O174 C172 1.263 . S
C175 O176 1.235 . S
C175 O202 1.289 . S
O176 C175 1.235 . S
C177 C179 1.400 . S
C177 N180 1.351 . S
C177 C182 1.501 . S
C178 C179 1.387 . S
C178 N181 1.341 . S
C179 C177 1.400 . S
C179 C178 1.387 . S
N180 Co171 2.022 . S
N180 C177 1.351 . S
N180 N181 1.365 . S
N181 C178 1.341 . S
N181 N180 1.365 . S
N181 H201 0.862 . S
C182 C177 1.501 . S
C182 H183 0.961 . S
C182 H184 0.961 . S
C182 H185 0.960 . S
H183 C182 0.961 . S
H184 C182 0.961 . S
H185 C182 0.960 . S
C186 N187 1.342 . S
C186 C190 1.401 . S
C186 C191 1.499 . S
N187 Co170 1.989 . S
N187 C186 1.342 . S
N187 N188 1.388 . S
N188 Co171 1.993 . S
N188 N187 1.388 . S
N188 C189 1.346 . S
C189 N188 1.346 . S
C189 C190 1.396 . S
C189 C199 1.510 . S
C190 C186 1.401 . S
C190 C189 1.396 . S
C191 C186 1.499 . S
C191 H192 0.959 . S
C191 H193 0.960 . S
C191 H194 0.961 1_565 S
H192 C191 0.959 . S
H193 C191 0.960 . S
H194 C191 0.961 1_545 S
O195 Co170 1.967 . S
O195 C203 1.258 . S
O196 Co171 1.941 . S
O196 C203 1.266 . S
H197 C199 0.959 . S
H198 C199 0.961 . S
C199 C189 1.510 . S
C199 H197 0.959 . S
C199 H198 0.961 . S
C199 H200 0.960 . S
H200 C199 0.960 . S
H201 N181 0.862 . S
O202 Co170 1.920 . S
O202 C175 1.289 . S
C203 O195 1.258 . S
C203 O196 1.266 . S
Co204 O207 1.970 . S
Co204 N221 1.989 . S
Co204 O229 1.967 . S
Co204 O236 1.920 . S
Co205 O208 1.966 . S
Co205 N214 2.022 . S
Co205 N222 1.993 . S
Co205 O230 1.941 . S
C206 O207 1.258 . S
C206 O208 1.263 . S
O207 Co204 1.970 . S
O207 C206 1.258 . S
O208 Co205 1.966 . S
O208 C206 1.263 . S
C209 O210 1.235 . S
C209 O236 1.289 . S
O210 C209 1.235 . S
C211 C213 1.400 . S
C211 N214 1.351 . S
C211 C216 1.501 . S
C212 C213 1.387 . S
C212 N215 1.341 . S
C213 C211 1.400 . S
C213 C212 1.387 . S
N214 Co205 2.022 . S
N214 C211 1.351 . S
N214 N215 1.365 . S
N215 C212 1.341 . S
N215 N214 1.365 . S
N215 H235 0.862 . S
C216 C211 1.501 . S
C216 H217 0.961 . S
C216 H218 0.961 . S
C216 H219 0.960 . S
H217 C216 0.961 . S
H218 C216 0.961 . S
H219 C216 0.960 . S
C220 N221 1.342 . S
C220 C224 1.401 . S
C220 C225 1.499 . S
N221 Co204 1.989 . S
N221 C220 1.342 . S
N221 N222 1.388 . S
N222 Co205 1.993 . S
N222 N221 1.388 . S
N222 C223 1.346 . S
C223 N222 1.346 . S
C223 C224 1.396 . S
C223 C233 1.510 . S
C224 C220 1.401 . S
C224 C223 1.396 . S
C225 C220 1.499 . S
C225 H226 0.959 . S
C225 H227 0.960 . S
C225 H228 0.961 . S
H226 C225 0.959 . S
H227 C225 0.960 . S
H228 C225 0.961 . S
O229 Co204 1.967 . S
O229 C237 1.258 . S
O230 Co205 1.941 . S
O230 C237 1.266 . S
H231 C233 0.959 . S
H232 C233 0.961 . S
C233 C223 1.510 . S
C233 H231 0.959 . S
C233 H232 0.961 . S
C233 H234 0.960 . S
H234 C233 0.960 . S
H235 N215 0.862 . S
O236 Co204 1.920 . S
O236 C209 1.289 . S
C237 O229 1.258 . S
C237 O230 1.266 . S
Co238 O241 1.970 . S
Co238 N255 1.989 . S
Co238 O263 1.967 . S
Co238 O270 1.920 . S
Co239 O242 1.966 . S
Co239 N248 2.022 . S
Co239 N256 1.993 . S
Co239 O264 1.941 . S
C240 O241 1.258 . S
C240 O242 1.263 . S
O241 Co238 1.970 . S
O241 C240 1.258 . S
O242 Co239 1.966 . S
O242 C240 1.263 . S
C243 O244 1.235 . S
C243 O270 1.289 . S
O244 C243 1.235 . S
C245 C247 1.400 . S
C245 N248 1.351 . S
C245 C250 1.501 . S
C246 C247 1.387 . S
C246 N249 1.341 . S
C247 C245 1.400 . S
C247 C246 1.387 . S
N248 Co239 2.022 . S
N248 C245 1.351 . S
N248 N249 1.365 . S
N249 C246 1.341 . S
N249 N248 1.365 . S
N249 H269 0.862 . S
C250 C245 1.501 . S
C250 H251 0.961 . S
C250 H252 0.961 . S
C250 H253 0.960 . S
H251 C250 0.961 . S
H252 C250 0.961 . S
H253 C250 0.960 . S
C254 N255 1.342 . S
C254 C258 1.401 . S
C254 C259 1.499 . S
N255 Co238 1.989 . S
N255 C254 1.342 . S
N255 N256 1.388 . S
N256 Co239 1.993 . S
N256 N255 1.388 . S
N256 C257 1.346 . S
C257 N256 1.346 . S
C257 C258 1.396 . S
C257 C267 1.510 . S
C258 C254 1.401 . S
C258 C257 1.396 . S
C259 C254 1.499 . S
C259 H260 0.959 . S
C259 H261 0.960 . S
C259 H262 0.961 1_545 S
H260 C259 0.959 . S
H261 C259 0.960 . S
H262 C259 0.961 1_565 S
O263 Co238 1.967 . S
O263 C271 1.258 . S
O264 Co239 1.941 . S
O264 C271 1.266 . S
H265 C267 0.959 . S
H266 C267 0.961 . S
C267 C257 1.510 . S
C267 H265 0.959 . S
C267 H266 0.961 . S
C267 H268 0.960 . S
H268 C267 0.960 . S
H269 N249 0.862 . S
O270 Co238 1.920 . S
O270 C243 1.289 . S
C271 O263 1.258 . S
C271 O264 1.266 . S
Co272 O275 1.970 . S
Co272 N289 1.989 . S
Co272 O297 1.967 . S
Co272 O304 1.920 . S
Co273 O276 1.966 . S
Co273 N282 2.022 . S
Co273 N290 1.993 . S
Co273 O298 1.941 . S
C274 O275 1.258 . S
C274 O276 1.263 . S
O275 Co272 1.970 . S
O275 C274 1.258 . S
O276 Co273 1.966 . S
O276 C274 1.263 . S
C277 O278 1.235 . S
C277 O304 1.289 . S
O278 C277 1.235 . S
C279 C281 1.400 . S
C279 N282 1.351 . S
C279 C284 1.501 . S
C280 C281 1.387 . S
C280 N283 1.341 . S
C281 C279 1.400 . S
C281 C280 1.387 . S
N282 Co273 2.022 . S
N282 C279 1.351 . S
N282 N283 1.365 . S
N283 C280 1.341 . S
N283 N282 1.365 . S
N283 H303 0.862 . S
C284 C279 1.501 . S
C284 H285 0.961 . S
C284 H286 0.961 . S
C284 H287 0.960 . S
H285 C284 0.961 . S
H286 C284 0.961 . S
H287 C284 0.960 . S
C288 N289 1.342 . S
C288 C292 1.401 . S
C288 C293 1.499 . S
N289 Co272 1.989 . S
N289 C288 1.342 . S
N289 N290 1.388 . S
N290 Co273 1.993 . S
N290 N289 1.388 . S
N290 C291 1.346 . S
C291 N290 1.346 . S
C291 C292 1.396 . S
C291 C301 1.510 . S
C292 C288 1.401 . S
C292 C291 1.396 . S
C293 C288 1.499 . S
C293 H294 0.959 . S
C293 H295 0.960 . S
C293 H296 0.961 . S
H294 C293 0.959 . S
H295 C293 0.960 . S
H296 C293 0.961 . S
O297 Co272 1.967 . S
O297 C305 1.258 . S
O298 Co273 1.941 . S
O298 C305 1.266 . S
H299 C301 0.959 . S
H300 C301 0.961 . S
C301 C291 1.510 . S
C301 H299 0.959 . S
C301 H300 0.961 . S
C301 H302 0.960 . S
H302 C301 0.960 . S
H303 N283 0.862 . S
O304 Co272 1.920 . S
O304 C277 1.289 . S
C305 O297 1.258 . S
C305 O298 1.266 . S
Co306 O309 1.970 . S
Co306 N323 1.989 . S
Co306 O331 1.967 . S
Co306 O338 1.920 . S
Co307 O310 1.966 . S
Co307 N316 2.022 . S
Co307 N324 1.993 . S
Co307 O332 1.941 . S
C308 O309 1.258 . S
C308 O310 1.263 . S
O309 Co306 1.970 . S
O309 C308 1.258 . S
O310 Co307 1.966 . S
O310 C308 1.263 . S
C311 O312 1.235 . S
C311 O338 1.289 . S
O312 C311 1.235 . S
C313 C315 1.400 . S
C313 N316 1.351 . S
C313 C318 1.501 . S
C314 C315 1.387 . S
C314 N317 1.341 . S
C315 C313 1.400 . S
C315 C314 1.387 . S
N316 Co307 2.022 . S
N316 C313 1.351 . S
N316 N317 1.365 . S
N317 C314 1.341 . S
N317 N316 1.365 . S
N317 H337 0.862 . S
C318 C313 1.501 . S
C318 H319 0.961 . S
C318 H320 0.961 . S
C318 H321 0.960 . S
H319 C318 0.961 . S
H320 C318 0.961 . S
H321 C318 0.960 . S
C322 N323 1.342 . S
C322 C326 1.401 . S
C322 C327 1.499 . S
N323 Co306 1.989 . S
N323 C322 1.342 . S
N323 N324 1.388 . S
N324 Co307 1.993 . S
N324 N323 1.388 . S
N324 C325 1.346 . S
C325 N324 1.346 . S
C325 C326 1.396 . S
C325 C335 1.510 . S
C326 C322 1.401 . S
C326 C325 1.396 . S
C327 C322 1.499 . S
C327 H328 0.959 . S
C327 H329 0.960 . S
C327 H330 0.961 1_545 S
H328 C327 0.959 . S
H329 C327 0.960 . S
H330 C327 0.961 1_565 S
O331 Co306 1.967 . S
O331 C339 1.258 . S
O332 Co307 1.941 . S
O332 C339 1.266 . S
H333 C335 0.959 . S
H334 C335 0.961 . S
C335 C325 1.510 . S
C335 H333 0.959 . S
C335 H334 0.961 . S
C335 H336 0.960 . S
H336 C335 0.960 . S
H337 N317 0.862 . S
O338 Co306 1.920 . S
O338 C311 1.289 . S
C339 O331 1.258 . S
C339 O332 1.266 . S
Co340 O343 1.970 . S
Co340 N357 1.989 . S
Co340 O365 1.967 . S
Co340 O372 1.920 . S
Co341 O344 1.966 . S
Co341 N350 2.022 . S
Co341 N358 1.993 . S
Co341 O366 1.941 . S
C342 O343 1.258 . S
C342 O344 1.263 . S
O343 Co340 1.970 . S
O343 C342 1.258 . S
O344 Co341 1.966 . S
O344 C342 1.263 . S
C345 O346 1.235 . S
C345 O372 1.289 . S
O346 C345 1.235 . S
C347 C349 1.400 . S
C347 N350 1.351 . S
C347 C352 1.501 . S
C348 C349 1.387 . S
C348 N351 1.341 . S
C349 C347 1.400 . S
C349 C348 1.387 . S
N350 Co341 2.022 . S
N350 C347 1.351 . S
N350 N351 1.365 . S
N351 C348 1.341 . S
N351 N350 1.365 . S
N351 H371 0.862 . S
C352 C347 1.501 . S
C352 H353 0.961 . S
C352 H354 0.961 . S
C352 H355 0.960 . S
H353 C352 0.961 . S
H354 C352 0.961 . S
H355 C352 0.960 . S
C356 N357 1.342 . S
C356 C360 1.401 . S
C356 C361 1.499 . S
N357 Co340 1.989 . S
N357 C356 1.342 . S
N357 N358 1.388 . S
N358 Co341 1.993 . S
N358 N357 1.388 . S
N358 C359 1.346 . S
C359 N358 1.346 . S
C359 C360 1.396 . S
C359 C369 1.510 . S
C360 C356 1.401 . S
C360 C359 1.396 . S
C361 C356 1.499 . S
C361 H362 0.959 . S
C361 H363 0.960 . S
C361 H364 0.961 . S
H362 C361 0.959 . S
H363 C361 0.960 . S
H364 C361 0.961 . S
O365 Co340 1.967 . S
O365 C373 1.258 . S
O366 Co341 1.941 . S
O366 C373 1.266 . S
H367 C369 0.959 . S
H368 C369 0.961 . S
C369 C359 1.510 . S
C369 H367 0.959 . S
C369 H368 0.961 . S
C369 H370 0.960 . S
H370 C369 0.960 . S
H371 N351 0.862 . S
O372 Co340 1.920 . S
O372 C345 1.289 . S
C373 O365 1.258 . S
C373 O366 1.266 . S
Co374 O377 1.970 . S
Co374 N391 1.989 . S
Co374 O399 1.967 . S
Co374 O406 1.920 . S
Co375 O378 1.966 . S
Co375 N384 2.022 . S
Co375 N392 1.993 . S
Co375 O400 1.941 . S
C376 O377 1.258 . S
C376 O378 1.263 . S
O377 Co374 1.970 . S
O377 C376 1.258 . S
O378 Co375 1.966 . S
O378 C376 1.263 . S
C379 O380 1.235 . S
C379 O406 1.289 . S
O380 C379 1.235 . S
C381 C383 1.400 . S
C381 N384 1.351 . S
C381 C386 1.501 . S
C382 C383 1.387 . S
C382 N385 1.341 . S
C383 C381 1.400 . S
C383 C382 1.387 . S
N384 Co375 2.022 . S
N384 C381 1.351 . S
N384 N385 1.365 . S
N385 C382 1.341 . S
N385 N384 1.365 . S
N385 H405 0.862 . S
C386 C381 1.501 . S
C386 H387 0.961 . S
C386 H388 0.961 . S
C386 H389 0.960 . S
H387 C386 0.961 . S
H388 C386 0.961 . S
H389 C386 0.960 . S
C390 N391 1.342 . S
C390 C394 1.401 . S
C390 C395 1.499 . S
N391 Co374 1.989 . S
N391 C390 1.342 . S
N391 N392 1.388 . S
N392 Co375 1.993 . S
N392 N391 1.388 . S
N392 C393 1.346 . S
C393 N392 1.346 . S
C393 C394 1.396 . S
C393 C403 1.510 . S
C394 C390 1.401 . S
C394 C393 1.396 . S
C395 C390 1.499 . S
C395 H396 0.959 . S
C395 H397 0.960 . S
C395 H398 0.961 1_565 S
H396 C395 0.959 . S
H397 C395 0.960 . S
H398 C395 0.961 1_545 S
O399 Co374 1.967 . S
O399 C407 1.258 . S
O400 Co375 1.941 . S
O400 C407 1.266 . S
H401 C403 0.959 . S
H402 C403 0.961 . S
C403 C393 1.510 . S
C403 H401 0.959 . S
C403 H402 0.961 . S
C403 H404 0.960 . S
H404 C403 0.960 . S
H405 N385 0.862 . S
O406 Co374 1.920 . S
O406 C379 1.289 . S
C407 O399 1.258 . S
C407 O400 1.266 . S
Co408 O411 1.970 . S
Co408 N425 1.989 . S
Co408 O433 1.967 . S
Co408 O440 1.920 . S
Co409 O412 1.966 . S
Co409 N418 2.022 . S
Co409 N426 1.993 . S
Co409 O434 1.941 . S
C410 O411 1.258 . S
C410 O412 1.263 . S
O411 Co408 1.970 . S
O411 C410 1.258 . S
O412 Co409 1.966 . S
O412 C410 1.263 . S
C413 O414 1.235 . S
C413 O440 1.289 . S
O414 C413 1.235 . S
C415 C417 1.400 . S
C415 N418 1.351 . S
C415 C420 1.501 . S
C416 C417 1.387 . S
C416 N419 1.341 . S
C417 C415 1.400 . S
C417 C416 1.387 . S
N418 Co409 2.022 . S
N418 C415 1.351 . S
N418 N419 1.365 . S
N419 C416 1.341 . S
N419 N418 1.365 . S
N419 H439 0.862 . S
C420 C415 1.501 . S
C420 H421 0.961 . S
C420 H422 0.961 . S
C420 H423 0.960 . S
H421 C420 0.961 . S
H422 C420 0.961 . S
H423 C420 0.960 . S
C424 N425 1.342 . S
C424 C428 1.401 . S
C424 C429 1.499 . S
N425 Co408 1.989 . S
N425 C424 1.342 . S
N425 N426 1.388 . S
N426 Co409 1.993 . S
N426 N425 1.388 . S
N426 C427 1.346 . S
C427 N426 1.346 . S
C427 C428 1.396 . S
C427 C437 1.510 . S
C428 C424 1.401 . S
C428 C427 1.396 . S
C429 C424 1.499 . S
C429 H430 0.959 . S
C429 H431 0.960 . S
C429 H432 0.961 . S
H430 C429 0.959 . S
H431 C429 0.960 . S
H432 C429 0.961 . S
O433 Co408 1.967 . S
O433 C441 1.258 . S
O434 Co409 1.941 . S
O434 C441 1.266 . S
H435 C437 0.959 . S
H436 C437 0.961 . S
C437 C427 1.510 . S
C437 H435 0.959 . S
C437 H436 0.961 . S
C437 H438 0.960 . S
H438 C437 0.960 . S
H439 N419 0.862 . S
O440 Co408 1.920 . S
O440 C413 1.289 . S
C441 O433 1.258 . S
C441 O434 1.266 . S
Co442 O445 1.970 . S
Co442 N459 1.989 . S
Co442 O467 1.967 . S
Co442 O474 1.920 . S
Co443 O446 1.966 . S
Co443 N452 2.022 . S
Co443 N460 1.993 . S
Co443 O468 1.941 . S
C444 O445 1.258 . S
C444 O446 1.263 . S
O445 Co442 1.970 . S
O445 C444 1.258 . S
O446 Co443 1.966 . S
O446 C444 1.263 . S
C447 O448 1.235 . S
C447 O474 1.289 . S
O448 C447 1.235 . S
C449 C451 1.400 . S
C449 N452 1.351 . S
C449 C454 1.501 . S
C450 C451 1.387 . S
C450 N453 1.341 . S
C451 C449 1.400 . S
C451 C450 1.387 . S
N452 Co443 2.022 . S
N452 C449 1.351 . S
N452 N453 1.365 . S
N453 C450 1.341 . S
N453 N452 1.365 . S
N453 H473 0.862 . S
C454 C449 1.501 . S
C454 H455 0.961 . S
C454 H456 0.961 . S
C454 H457 0.960 . S
H455 C454 0.961 . S
H456 C454 0.961 . S
H457 C454 0.960 . S
C458 N459 1.342 . S
C458 C462 1.401 . S
C458 C463 1.499 . S
N459 Co442 1.989 . S
N459 C458 1.342 . S
N459 N460 1.388 . S
N460 Co443 1.993 . S
N460 N459 1.388 . S
N460 C461 1.346 . S
C461 N460 1.346 . S
C461 C462 1.396 . S
C461 C471 1.510 . S
C462 C458 1.401 . S
C462 C461 1.396 . S
C463 C458 1.499 . S
C463 H464 0.959 . S
C463 H465 0.960 . S
C463 H466 0.961 1_545 S
H464 C463 0.959 . S
H465 C463 0.960 . S
H466 C463 0.961 1_565 S
O467 Co442 1.967 . S
O467 C475 1.258 . S
O468 Co443 1.941 . S
O468 C475 1.266 . S
H469 C471 0.959 . S
H470 C471 0.961 . S
C471 C461 1.510 . S
C471 H469 0.959 . S
C471 H470 0.961 . S
C471 H472 0.960 . S
H472 C471 0.960 . S
H473 N453 0.862 . S
O474 Co442 1.920 . S
O474 C447 1.289 . S
C475 O467 1.258 . S
C475 O468 1.266 . S
Co476 O479 1.970 . S
Co476 N493 1.989 . S
Co476 O501 1.967 . S
Co476 O508 1.920 . S
Co477 O480 1.966 . S
Co477 N486 2.022 . S
Co477 N494 1.993 . S
Co477 O502 1.941 . S
C478 O479 1.258 . S
C478 O480 1.263 . S
O479 Co476 1.970 . S
O479 C478 1.258 . S
O480 Co477 1.966 . S
O480 C478 1.263 . S
C481 O482 1.235 . S
C481 O508 1.289 . S
O482 C481 1.235 . S
C483 C485 1.400 . S
C483 N486 1.351 . S
C483 C488 1.501 . S
C484 C485 1.387 . S
C484 N487 1.341 . S
C485 C483 1.400 . S
C485 C484 1.387 . S
N486 Co477 2.022 . S
N486 C483 1.351 . S
N486 N487 1.365 . S
N487 C484 1.341 . S
N487 N486 1.365 . S
N487 H507 0.862 . S
C488 C483 1.501 . S
C488 H489 0.961 . S
C488 H490 0.961 . S
C488 H491 0.960 . S
H489 C488 0.961 . S
H490 C488 0.961 . S
H491 C488 0.960 . S
C492 N493 1.342 . S
C492 C496 1.401 . S
C492 C497 1.499 . S
N493 Co476 1.989 . S
N493 C492 1.342 . S
N493 N494 1.388 . S
N494 Co477 1.993 . S
N494 N493 1.388 . S
N494 C495 1.346 . S
C495 N494 1.346 . S
C495 C496 1.396 . S
C495 C505 1.510 . S
C496 C492 1.401 . S
C496 C495 1.396 . S
C497 C492 1.499 . S
C497 H498 0.959 . S
C497 H499 0.960 . S
C497 H500 0.961 . S
H498 C497 0.959 . S
H499 C497 0.960 . S
H500 C497 0.961 . S
O501 Co476 1.967 . S
O501 C509 1.258 . S
O502 Co477 1.941 . S
O502 C509 1.266 . S
H503 C505 0.959 . S
H504 C505 0.961 . S
C505 C495 1.510 . S
C505 H503 0.959 . S
C505 H504 0.961 . S
C505 H506 0.960 . S
H506 C505 0.960 . S
H507 N487 0.862 . S
O508 Co476 1.920 . S
O508 C481 1.289 . S
C509 O501 1.258 . S
C509 O502 1.266 . S
Co510 O513 1.970 . S
Co510 N527 1.989 . S
Co510 O535 1.967 . S
Co510 O542 1.920 . S
Co511 O514 1.966 . S
Co511 N520 2.022 . S
Co511 N528 1.993 . S
Co511 O536 1.941 . S
C512 O513 1.258 . S
C512 O514 1.263 . S
O513 Co510 1.970 . S
O513 C512 1.258 . S
O514 Co511 1.966 . S
O514 C512 1.263 . S
C515 O516 1.235 . S
C515 O542 1.289 . S
O516 C515 1.235 . S
C517 C519 1.400 . S
C517 N520 1.351 . S
C517 C522 1.501 . S
C518 C519 1.387 . S
C518 N521 1.341 . S
C519 C517 1.400 . S
C519 C518 1.387 . S
N520 Co511 2.022 . S
N520 C517 1.351 . S
N520 N521 1.365 . S
N521 C518 1.341 . S
N521 N520 1.365 . S
N521 H541 0.862 . S
C522 C517 1.501 . S
C522 H523 0.961 . S
C522 H524 0.961 . S
C522 H525 0.960 . S
H523 C522 0.961 . S
H524 C522 0.961 . S
H525 C522 0.960 . S
C526 N527 1.342 . S
C526 C530 1.401 . S
C526 C531 1.499 . S
N527 Co510 1.989 . S
N527 C526 1.342 . S
N527 N528 1.388 . S
N528 Co511 1.993 . S
N528 N527 1.388 . S
N528 C529 1.346 . S
C529 N528 1.346 . S
C529 C530 1.396 . S
C529 C539 1.510 . S
C530 C526 1.401 . S
C530 C529 1.396 . S
C531 C526 1.499 . S
C531 H532 0.959 . S
C531 H533 0.960 . S
C531 H534 0.961 1_565 S
H532 C531 0.959 . S
H533 C531 0.960 . S
H534 C531 0.961 1_545 S
O535 Co510 1.967 . S
O535 C543 1.258 . S
O536 Co511 1.941 . S
O536 C543 1.266 . S
H537 C539 0.959 . S
H538 C539 0.961 . S
C539 C529 1.510 . S
C539 H537 0.959 . S
C539 H538 0.961 . S
C539 H540 0.960 . S
H540 C539 0.960 . S
H541 N521 0.862 . S
O542 Co510 1.920 . S
O542 C515 1.289 . S
C543 O535 1.258 . S
C543 O536 1.266 . S
Co544 O547 1.970 . S
Co544 N561 1.989 . S
Co544 O569 1.967 . S
Co544 O576 1.920 . S
Co545 O548 1.966 . S
Co545 N554 2.022 . S
Co545 N562 1.993 . S
Co545 O570 1.941 . S
C546 O547 1.258 . S
C546 O548 1.263 . S
O547 Co544 1.970 . S
O547 C546 1.258 . S
O548 Co545 1.966 . S
O548 C546 1.263 . S
C549 O550 1.235 . S
C549 O576 1.289 . S
O550 C549 1.235 . S
C551 C553 1.400 . S
C551 N554 1.351 . S
C551 C556 1.501 . S
C552 C553 1.387 . S
C552 N555 1.341 . S
C553 C551 1.400 . S
C553 C552 1.387 . S
N554 Co545 2.022 . S
N554 C551 1.351 . S
N554 N555 1.365 . S
N555 C552 1.341 . S
N555 N554 1.365 . S
N555 H575 0.862 . S
C556 C551 1.501 . S
C556 H557 0.961 . S
C556 H558 0.961 . S
C556 H559 0.960 . S
H557 C556 0.961 . S
H558 C556 0.961 . S
H559 C556 0.960 . S
C560 N561 1.342 . S
C560 C564 1.401 . S
C560 C565 1.499 . S
N561 Co544 1.989 . S
N561 C560 1.342 . S
N561 N562 1.388 . S
N562 Co545 1.993 . S
N562 N561 1.388 . S
N562 C563 1.346 . S
C563 N562 1.346 . S
C563 C564 1.396 . S
C563 C573 1.510 . S
C564 C560 1.401 . S
C564 C563 1.396 . S
C565 C560 1.499 . S
C565 H566 0.959 . S
C565 H567 0.960 . S
C565 H568 0.961 . S
H566 C565 0.959 . S
H567 C565 0.960 . S
H568 C565 0.961 . S
O569 Co544 1.967 . S
O569 C577 1.258 . S
O570 Co545 1.941 . S
O570 C577 1.266 . S
H571 C573 0.959 . S
H572 C573 0.961 . S
C573 C563 1.510 . S
C573 H571 0.959 . S
C573 H572 0.961 . S
C573 H574 0.960 . S
H574 C573 0.960 . S
H575 N555 0.862 . S
O576 Co544 1.920 . S
O576 C549 1.289 . S
C577 O569 1.258 . S
C577 O570 1.266 . S
Co578 O581 1.970 . S
Co578 N595 1.989 . S
Co578 O603 1.967 . S
Co578 O610 1.920 . S
Co579 O582 1.966 . S
Co579 N588 2.022 . S
Co579 N596 1.993 . S
Co579 O604 1.941 . S
C580 O581 1.258 . S
C580 O582 1.263 . S
O581 Co578 1.970 . S
O581 C580 1.258 . S
O582 Co579 1.966 . S
O582 C580 1.263 . S
C583 O584 1.235 . S
C583 O610 1.289 . S
O584 C583 1.235 . S
C585 C587 1.400 . S
C585 N588 1.351 . S
C585 C590 1.501 . S
C586 C587 1.387 . S
C586 N589 1.341 . S
C587 C585 1.400 . S
C587 C586 1.387 . S
N588 Co579 2.022 . S
N588 C585 1.351 . S
N588 N589 1.365 . S
N589 C586 1.341 . S
N589 N588 1.365 . S
N589 H609 0.862 . S
C590 C585 1.501 . S
C590 H591 0.961 . S
C590 H592 0.961 . S
C590 H593 0.960 . S
H591 C590 0.961 . S
H592 C590 0.961 . S
H593 C590 0.960 . S
C594 N595 1.342 . S
C594 C598 1.401 . S
C594 C599 1.499 . S
N595 Co578 1.989 . S
N595 C594 1.342 . S
N595 N596 1.388 . S
N596 Co579 1.993 . S
N596 N595 1.388 . S
N596 C597 1.346 . S
C597 N596 1.346 . S
C597 C598 1.396 . S
C597 C607 1.510 . S
C598 C594 1.401 . S
C598 C597 1.396 . S
C599 C594 1.499 . S
C599 H600 0.959 . S
C599 H601 0.960 . S
C599 H602 0.961 . S
H600 C599 0.959 . S
H601 C599 0.960 . S
H602 C599 0.961 . S
O603 Co578 1.967 . S
O603 C611 1.258 . S
O604 Co579 1.941 . S
O604 C611 1.266 . S
H605 C607 0.959 . S
H606 C607 0.961 . S
C607 C597 1.510 . S
C607 H605 0.959 . S
C607 H606 0.961 . S
C607 H608 0.960 . S
H608 C607 0.960 . S
H609 N589 0.862 . S
O610 Co578 1.920 . S
O610 C583 1.289 . S
C611 O603 1.258 . S
C611 O604 1.266 . S
Co612 O615 1.970 . S
Co612 N629 1.989 . S
Co612 O637 1.967 . S
Co612 O644 1.920 . S
Co613 O616 1.966 . S
Co613 N622 2.022 . S
Co613 N630 1.993 . S
Co613 O638 1.941 . S
C614 O615 1.258 . S
C614 O616 1.263 . S
O615 Co612 1.970 . S
O615 C614 1.258 . S
O616 Co613 1.966 . S
O616 C614 1.263 . S
C617 O618 1.235 . S
C617 O644 1.289 . S
O618 C617 1.235 . S
C619 C621 1.400 . S
C619 N622 1.351 . S
C619 C624 1.501 . S
C620 C621 1.387 . S
C620 N623 1.341 . S
C621 C619 1.400 . S
C621 C620 1.387 . S
N622 Co613 2.022 . S
N622 C619 1.351 . S
N622 N623 1.365 . S
N623 C620 1.341 . S
N623 N622 1.365 . S
N623 H643 0.862 . S
C624 C619 1.501 . S
C624 H625 0.961 . S
C624 H626 0.961 . S
C624 H627 0.960 . S
H625 C624 0.961 . S
H626 C624 0.961 . S
H627 C624 0.960 . S
C628 N629 1.342 . S
C628 C632 1.401 . S
C628 C633 1.499 . S
N629 Co612 1.989 . S
N629 C628 1.342 . S
N629 N630 1.388 . S
N630 Co613 1.993 . S
N630 N629 1.388 . S
N630 C631 1.346 . S
C631 N630 1.346 . S
C631 C632 1.396 . S
C631 C641 1.510 . S
C632 C628 1.401 . S
C632 C631 1.396 . S
C633 C628 1.499 . S
C633 H634 0.959 . S
C633 H635 0.960 . S
C633 H636 0.961 . S
H634 C633 0.959 . S
H635 C633 0.960 . S
H636 C633 0.961 . S
O637 Co612 1.967 . S
O637 C645 1.258 . S
O638 Co613 1.941 . S
O638 C645 1.266 . S
H639 C641 0.959 . S
H640 C641 0.961 . S
C641 C631 1.510 . S
C641 H639 0.959 . S
C641 H640 0.961 . S
C641 H642 0.960 . S
H642 C641 0.960 . S
H643 N623 0.862 . S
O644 Co612 1.920 . S
O644 C617 1.289 . S
C645 O637 1.258 . S
C645 O638 1.266 . S
Co646 O649 1.970 . S
Co646 N663 1.989 . S
Co646 O671 1.967 . S
Co646 O678 1.920 . S
Co647 O650 1.966 . S
Co647 N656 2.022 . S
Co647 N664 1.993 . S
Co647 O672 1.941 . S
C648 O649 1.258 . S
C648 O650 1.263 . S
O649 Co646 1.970 . S
O649 C648 1.258 . S
O650 Co647 1.966 . S
O650 C648 1.263 . S
C651 O652 1.235 . S
C651 O678 1.289 . S
O652 C651 1.235 . S
C653 C655 1.400 . S
C653 N656 1.351 . S
C653 C658 1.501 . S
C654 C655 1.387 . S
C654 N657 1.341 . S
C655 C653 1.400 . S
C655 C654 1.387 . S
N656 Co647 2.022 . S
N656 C653 1.351 . S
N656 N657 1.365 . S
N657 C654 1.341 . S
N657 N656 1.365 . S
N657 H677 0.862 . S
C658 C653 1.501 . S
C658 H659 0.961 . S
C658 H660 0.961 . S
C658 H661 0.960 . S
H659 C658 0.961 . S
H660 C658 0.961 . S
H661 C658 0.960 . S
C662 N663 1.342 . S
C662 C666 1.401 . S
C662 C667 1.499 . S
N663 Co646 1.989 . S
N663 C662 1.342 . S
N663 N664 1.388 . S
N664 Co647 1.993 . S
N664 N663 1.388 . S
N664 C665 1.346 . S
C665 N664 1.346 . S
C665 C666 1.396 . S
C665 C675 1.510 . S
C666 C662 1.401 . S
C666 C665 1.396 . S
C667 C662 1.499 . S
C667 H668 0.959 . S
C667 H669 0.960 . S
C667 H670 0.961 . S
H668 C667 0.959 . S
H669 C667 0.960 . S
H670 C667 0.961 . S
O671 Co646 1.967 . S
O671 C679 1.258 . S
O672 Co647 1.941 . S
O672 C679 1.266 . S
H673 C675 0.959 . S
H674 C675 0.961 . S
C675 C665 1.510 . S
C675 H673 0.959 . S
C675 H674 0.961 . S
C675 H676 0.960 . S
H676 C675 0.960 . S
H677 N657 0.862 . S
O678 Co646 1.920 . S
O678 C651 1.289 . S
C679 O671 1.258 . S
C679 O672 1.266 . S
Co680 O683 1.970 . S
Co680 N697 1.989 . S
Co680 O705 1.967 . S
Co680 O712 1.920 . S
Co681 O684 1.966 . S
Co681 N690 2.022 . S
Co681 N698 1.993 . S
Co681 O706 1.941 . S
C682 O683 1.258 . S
C682 O684 1.263 . S
O683 Co680 1.970 . S
O683 C682 1.258 . S
O684 Co681 1.966 . S
O684 C682 1.263 . S
C685 O686 1.235 . S
C685 O712 1.289 . S
O686 C685 1.235 . S
C687 C689 1.400 . S
C687 N690 1.351 . S
C687 C692 1.501 . S
C688 C689 1.387 . S
C688 N691 1.341 . S
C689 C687 1.400 . S
C689 C688 1.387 . S
N690 Co681 2.022 . S
N690 C687 1.351 . S
N690 N691 1.365 . S
N691 C688 1.341 . S
N691 N690 1.365 . S
N691 H711 0.862 . S
C692 C687 1.501 . S
C692 H693 0.961 . S
C692 H694 0.961 . S
C692 H695 0.960 . S
H693 C692 0.961 . S
H694 C692 0.961 . S
H695 C692 0.960 . S
C696 N697 1.342 . S
C696 C700 1.401 . S
C696 C701 1.499 . S
N697 Co680 1.989 . S
N697 C696 1.342 . S
N697 N698 1.388 . S
N698 Co681 1.993 . S
N698 N697 1.388 . S
N698 C699 1.346 . S
C699 N698 1.346 . S
C699 C700 1.396 . S
C699 C709 1.510 . S
C700 C696 1.401 . S
C700 C699 1.396 . S
C701 C696 1.499 . S
C701 H702 0.959 . S
C701 H703 0.960 . S
C701 H704 0.961 . S
H702 C701 0.959 . S
H703 C701 0.960 . S
H704 C701 0.961 . S
O705 Co680 1.967 . S
O705 C713 1.258 . S
O706 Co681 1.941 . S
O706 C713 1.266 . S
H707 C709 0.959 . S
H708 C709 0.961 . S
C709 C699 1.510 . S
C709 H707 0.959 . S
C709 H708 0.961 . S
C709 H710 0.960 . S
H710 C709 0.960 . S
H711 N691 0.862 . S
O712 Co680 1.920 . S
O712 C685 1.289 . S
C713 O705 1.258 . S
C713 O706 1.266 . S
Co714 O717 1.970 . S
Co714 N731 1.989 . S
Co714 O739 1.967 . S
Co714 O746 1.920 . S
Co715 O718 1.966 . S
Co715 N724 2.022 . S
Co715 N732 1.993 . S
Co715 O740 1.941 . S
C716 O717 1.258 . S
C716 O718 1.263 . S
O717 Co714 1.970 . S
O717 C716 1.258 . S
O718 Co715 1.966 . S
O718 C716 1.263 . S
C719 O720 1.235 . S
C719 O746 1.289 . S
O720 C719 1.235 . S
C721 C723 1.400 . S
C721 N724 1.351 . S
C721 C726 1.501 . S
C722 C723 1.387 . S
C722 N725 1.341 . S
C723 C721 1.400 . S
C723 C722 1.387 . S
N724 Co715 2.022 . S
N724 C721 1.351 . S
N724 N725 1.365 . S
N725 C722 1.341 . S
N725 N724 1.365 . S
N725 H745 0.862 . S
C726 C721 1.501 . S
C726 H727 0.961 . S
C726 H728 0.961 . S
C726 H729 0.960 . S
H727 C726 0.961 . S
H728 C726 0.961 . S
H729 C726 0.960 . S
C730 N731 1.342 . S
C730 C734 1.401 . S
C730 C735 1.499 . S
N731 Co714 1.989 . S
N731 C730 1.342 . S
N731 N732 1.388 . S
N732 Co715 1.993 . S
N732 N731 1.388 . S
N732 C733 1.346 . S
C733 N732 1.346 . S
C733 C734 1.396 . S
C733 C743 1.510 . S
C734 C730 1.401 . S
C734 C733 1.396 . S
C735 C730 1.499 . S
C735 H736 0.959 . S
C735 H737 0.960 . S
C735 H738 0.961 . S
H736 C735 0.959 . S
H737 C735 0.960 . S
H738 C735 0.961 . S
O739 Co714 1.967 . S
O739 C747 1.258 . S
O740 Co715 1.941 . S
O740 C747 1.266 . S
H741 C743 0.959 . S
H742 C743 0.961 . S
C743 C733 1.510 . S
C743 H741 0.959 . S
C743 H742 0.961 . S
C743 H744 0.960 . S
H744 C743 0.960 . S
H745 N725 0.862 . S
O746 Co714 1.920 . S
O746 C719 1.289 . S
C747 O739 1.258 . S
C747 O740 1.266 . S
Co748 O751 1.970 . S
Co748 N765 1.989 . S
Co748 O773 1.967 . S
Co748 O780 1.920 . S
Co749 O752 1.966 . S
Co749 N758 2.022 . S
Co749 N766 1.993 . S
Co749 O774 1.941 . S
C750 O751 1.258 . S
C750 O752 1.263 . S
O751 Co748 1.970 . S
O751 C750 1.258 . S
O752 Co749 1.966 . S
O752 C750 1.263 . S
C753 O754 1.235 . S
C753 O780 1.289 . S
O754 C753 1.235 . S
C755 C757 1.400 . S
C755 N758 1.351 . S
C755 C760 1.501 . S
C756 C757 1.387 . S
C756 N759 1.341 . S
C757 C755 1.400 . S
C757 C756 1.387 . S
N758 Co749 2.022 . S
N758 C755 1.351 . S
N758 N759 1.365 . S
N759 C756 1.341 . S
N759 N758 1.365 . S
N759 H779 0.862 . S
C760 C755 1.501 . S
C760 H761 0.961 . S
C760 H762 0.961 . S
C760 H763 0.960 . S
H761 C760 0.961 . S
H762 C760 0.961 . S
H763 C760 0.960 . S
C764 N765 1.342 . S
C764 C768 1.401 . S
C764 C769 1.499 . S
N765 Co748 1.989 . S
N765 C764 1.342 . S
N765 N766 1.388 . S
N766 Co749 1.993 . S
N766 N765 1.388 . S
N766 C767 1.346 . S
C767 N766 1.346 . S
C767 C768 1.396 . S
C767 C777 1.510 . S
C768 C764 1.401 . S
C768 C767 1.396 . S
C769 C764 1.499 . S
C769 H770 0.959 . S
C769 H771 0.960 . S
C769 H772 0.961 . S
H770 C769 0.959 . S
H771 C769 0.960 . S
H772 C769 0.961 . S
O773 Co748 1.967 . S
O773 C781 1.258 . S
O774 Co749 1.941 . S
O774 C781 1.266 . S
H775 C777 0.959 . S
H776 C777 0.961 . S
C777 C767 1.510 . S
C777 H775 0.959 . S
C777 H776 0.961 . S
C777 H778 0.960 . S
H778 C777 0.960 . S
H779 N759 0.862 . S
O780 Co748 1.920 . S
O780 C753 1.289 . S
C781 O773 1.258 . S
C781 O774 1.266 . S
Co782 O785 1.970 . S
Co782 N799 1.989 . S
Co782 O807 1.967 . S
Co782 O814 1.920 . S
Co783 O786 1.966 . S
Co783 N792 2.022 . S
Co783 N800 1.993 . S
Co783 O808 1.941 . S
C784 O785 1.258 . S
C784 O786 1.263 . S
O785 Co782 1.970 . S
O785 C784 1.258 . S
O786 Co783 1.966 . S
O786 C784 1.263 . S
C787 O788 1.235 . S
C787 O814 1.289 . S
O788 C787 1.235 . S
C789 C791 1.400 . S
C789 N792 1.351 . S
C789 C794 1.501 . S
C790 C791 1.387 . S
C790 N793 1.341 . S
C791 C789 1.400 . S
C791 C790 1.387 . S
N792 Co783 2.022 . S
N792 C789 1.351 . S
N792 N793 1.365 . S
N793 C790 1.341 . S
N793 N792 1.365 . S
N793 H813 0.862 . S
C794 C789 1.501 . S
C794 H795 0.961 . S
C794 H796 0.961 . S
C794 H797 0.960 . S
H795 C794 0.961 . S
H796 C794 0.961 . S
H797 C794 0.960 . S
C798 N799 1.342 . S
C798 C802 1.401 . S
C798 C803 1.499 . S
N799 Co782 1.989 . S
N799 C798 1.342 . S
N799 N800 1.388 . S
N800 Co783 1.993 . S
N800 N799 1.388 . S
N800 C801 1.346 . S
C801 N800 1.346 . S
C801 C802 1.396 . S
C801 C811 1.510 . S
C802 C798 1.401 . S
C802 C801 1.396 . S
C803 C798 1.499 . S
C803 H804 0.959 . S
C803 H805 0.960 . S
C803 H806 0.961 . S
H804 C803 0.959 . S
H805 C803 0.960 . S
H806 C803 0.961 . S
O807 Co782 1.967 . S
O807 C815 1.258 . S
O808 Co783 1.941 . S
O808 C815 1.266 . S
H809 C811 0.959 . S
H810 C811 0.961 . S
C811 C801 1.510 . S
C811 H809 0.959 . S
C811 H810 0.961 . S
C811 H812 0.960 . S
H812 C811 0.960 . S
H813 N793 0.862 . S
O814 Co782 1.920 . S
O814 C787 1.289 . S
C815 O807 1.258 . S
C815 O808 1.266 . S
Co816 O819 1.970 . S
Co816 N833 1.989 . S
Co816 O841 1.967 . S
Co816 O848 1.920 . S
Co817 O820 1.966 . S
Co817 N826 2.022 . S
Co817 N834 1.993 . S
Co817 O842 1.941 . S
C818 O819 1.258 . S
C818 O820 1.263 . S
O819 Co816 1.970 . S
O819 C818 1.258 . S
O820 Co817 1.966 . S
O820 C818 1.263 . S
C821 O822 1.235 . S
C821 O848 1.289 . S
O822 C821 1.235 . S
C823 C825 1.400 . S
C823 N826 1.351 . S
C823 C828 1.501 . S
C824 C825 1.387 . S
C824 N827 1.341 . S
C825 C823 1.400 . S
C825 C824 1.387 . S
N826 Co817 2.022 . S
N826 C823 1.351 . S
N826 N827 1.365 . S
N827 C824 1.341 . S
N827 N826 1.365 . S
N827 H847 0.862 . S
C828 C823 1.501 . S
C828 H829 0.961 . S
C828 H830 0.961 . S
C828 H831 0.960 . S
H829 C828 0.961 . S
H830 C828 0.961 . S
H831 C828 0.960 . S
C832 N833 1.342 . S
C832 C836 1.401 . S
C832 C837 1.499 . S
N833 Co816 1.989 . S
N833 C832 1.342 . S
N833 N834 1.388 . S
N834 Co817 1.993 . S
N834 N833 1.388 . S
N834 C835 1.346 . S
C835 N834 1.346 . S
C835 C836 1.396 . S
C835 C845 1.510 . S
C836 C832 1.401 . S
C836 C835 1.396 . S
C837 C832 1.499 . S
C837 H838 0.959 . S
C837 H839 0.960 . S
C837 H840 0.961 . S
H838 C837 0.959 . S
H839 C837 0.960 . S
H840 C837 0.961 . S
O841 Co816 1.967 . S
O841 C849 1.258 . S
O842 Co817 1.941 . S
O842 C849 1.266 . S
H843 C845 0.959 . S
H844 C845 0.961 . S
C845 C835 1.510 . S
C845 H843 0.959 . S
C845 H844 0.961 . S
C845 H846 0.960 . S
H846 C845 0.960 . S
H847 N827 0.862 . S
O848 Co816 1.920 . S
O848 C821 1.289 . S
C849 O841 1.258 . S
C849 O842 1.266 . S
Co850 O853 1.970 . S
Co850 N867 1.989 . S
Co850 O875 1.967 . S
Co850 O882 1.920 . S
Co851 O854 1.966 . S
Co851 N860 2.022 . S
Co851 N868 1.993 . S
Co851 O876 1.941 . S
C852 O853 1.258 . S
C852 O854 1.263 . S
O853 Co850 1.970 . S
O853 C852 1.258 . S
O854 Co851 1.966 . S
O854 C852 1.263 . S
C855 O856 1.235 . S
C855 O882 1.289 . S
O856 C855 1.235 . S
C857 C859 1.400 . S
C857 N860 1.351 . S
C857 C862 1.501 . S
C858 C859 1.387 . S
C858 N861 1.341 . S
C859 C857 1.400 . S
C859 C858 1.387 . S
N860 Co851 2.022 . S
N860 C857 1.351 . S
N860 N861 1.365 . S
N861 C858 1.341 . S
N861 N860 1.365 . S
N861 H881 0.862 . S
C862 C857 1.501 . S
C862 H863 0.961 . S
C862 H864 0.961 . S
C862 H865 0.960 . S
H863 C862 0.961 . S
H864 C862 0.961 . S
H865 C862 0.960 . S
C866 N867 1.342 . S
C866 C870 1.401 . S
C866 C871 1.499 . S
N867 Co850 1.989 . S
N867 C866 1.342 . S
N867 N868 1.388 . S
N868 Co851 1.993 . S
N868 N867 1.388 . S
N868 C869 1.346 . S
C869 N868 1.346 . S
C869 C870 1.396 . S
C869 C879 1.510 . S
C870 C866 1.401 . S
C870 C869 1.396 . S
C871 C866 1.499 . S
C871 H872 0.959 . S
C871 H873 0.960 . S
C871 H874 0.961 . S
H872 C871 0.959 . S
H873 C871 0.960 . S
H874 C871 0.961 . S
O875 Co850 1.967 . S
O875 C883 1.258 . S
O876 Co851 1.941 . S
O876 C883 1.266 . S
H877 C879 0.959 . S
H878 C879 0.961 . S
C879 C869 1.510 . S
C879 H877 0.959 . S
C879 H878 0.961 . S
C879 H880 0.960 . S
H880 C879 0.960 . S
H881 N861 0.862 . S
O882 Co850 1.920 . S
O882 C855 1.289 . S
C883 O875 1.258 . S
C883 O876 1.266 . S
Co884 O887 1.970 . S
Co884 N901 1.989 . S
Co884 O909 1.967 . S
Co884 O916 1.920 . S
Co885 O888 1.966 . S
Co885 N894 2.022 . S
Co885 N902 1.993 . S
Co885 O910 1.941 . S
C886 O887 1.258 . S
C886 O888 1.263 . S
O887 Co884 1.970 . S
O887 C886 1.258 . S
O888 Co885 1.966 . S
O888 C886 1.263 . S
C889 O890 1.235 . S
C889 O916 1.289 . S
O890 C889 1.235 . S
C891 C893 1.400 . S
C891 N894 1.351 . S
C891 C896 1.501 . S
C892 C893 1.387 . S
C892 N895 1.341 . S
C893 C891 1.400 . S
C893 C892 1.387 . S
N894 Co885 2.022 . S
N894 C891 1.351 . S
N894 N895 1.365 . S
N895 C892 1.341 . S
N895 N894 1.365 . S
N895 H915 0.862 . S
C896 C891 1.501 . S
C896 H897 0.961 . S
C896 H898 0.961 . S
C896 H899 0.960 . S
H897 C896 0.961 . S
H898 C896 0.961 . S
H899 C896 0.960 . S
C900 N901 1.342 . S
C900 C904 1.401 . S
C900 C905 1.499 . S
N901 Co884 1.989 . S
N901 C900 1.342 . S
N901 N902 1.388 . S
N902 Co885 1.993 . S
N902 N901 1.388 . S
N902 C903 1.346 . S
C903 N902 1.346 . S
C903 C904 1.396 . S
C903 C913 1.510 . S
C904 C900 1.401 . S
C904 C903 1.396 . S
C905 C900 1.499 . S
C905 H906 0.959 . S
C905 H907 0.960 . S
C905 H908 0.961 . S
H906 C905 0.959 . S
H907 C905 0.960 . S
H908 C905 0.961 . S
O909 Co884 1.967 . S
O909 C917 1.258 . S
O910 Co885 1.941 . S
O910 C917 1.266 . S
H911 C913 0.959 . S
H912 C913 0.961 . S
C913 C903 1.510 . S
C913 H911 0.959 . S
C913 H912 0.961 . S
C913 H914 0.960 . S
H914 C913 0.960 . S
H915 N895 0.862 . S
O916 Co884 1.920 . S
O916 C889 1.289 . S
C917 O909 1.258 . S
C917 O910 1.266 . S
Co918 O921 1.970 . S
Co918 N935 1.989 . S
Co918 O943 1.967 . S
Co918 O950 1.920 . S
Co919 O922 1.966 . S
Co919 N928 2.022 . S
Co919 N936 1.993 . S
Co919 O944 1.941 . S
C920 O921 1.258 . S
C920 O922 1.263 . S
O921 Co918 1.970 . S
O921 C920 1.258 . S
O922 Co919 1.966 . S
O922 C920 1.263 . S
C923 O924 1.235 . S
C923 O950 1.289 . S
O924 C923 1.235 . S
C925 C927 1.400 . S
C925 N928 1.351 . S
C925 C930 1.501 . S
C926 C927 1.387 . S
C926 N929 1.341 . S
C927 C925 1.400 . S
C927 C926 1.387 . S
N928 Co919 2.022 . S
N928 C925 1.351 . S
N928 N929 1.365 . S
N929 C926 1.341 . S
N929 N928 1.365 . S
N929 H949 0.862 . S
C930 C925 1.501 . S
C930 H931 0.961 . S
C930 H932 0.961 . S
C930 H933 0.960 . S
H931 C930 0.961 . S
H932 C930 0.961 . S
H933 C930 0.960 . S
C934 N935 1.342 . S
C934 C938 1.401 . S
C934 C939 1.499 . S
N935 Co918 1.989 . S
N935 C934 1.342 . S
N935 N936 1.388 . S
N936 Co919 1.993 . S
N936 N935 1.388 . S
N936 C937 1.346 . S
C937 N936 1.346 . S
C937 C938 1.396 . S
C937 C947 1.510 . S
C938 C934 1.401 . S
C938 C937 1.396 . S
C939 C934 1.499 . S
C939 H940 0.959 . S
C939 H941 0.960 . S
C939 H942 0.961 . S
H940 C939 0.959 . S
H941 C939 0.960 . S
H942 C939 0.961 . S
O943 Co918 1.967 . S
O943 C951 1.258 . S
O944 Co919 1.941 . S
O944 C951 1.266 . S
H945 C947 0.959 . S
H946 C947 0.961 . S
C947 C937 1.510 . S
C947 H945 0.959 . S
C947 H946 0.961 . S
C947 H948 0.960 . S
H948 C947 0.960 . S
H949 N929 0.862 . S
O950 Co918 1.920 . S
O950 C923 1.289 . S
C951 O943 1.258 . S
C951 O944 1.266 . S
Co952 O955 1.970 . S
Co952 N969 1.989 . S
Co952 O977 1.967 . S
Co952 O984 1.920 . S
Co953 O956 1.966 . S
Co953 N962 2.022 . S
Co953 N970 1.993 . S
Co953 O978 1.941 . S
C954 O955 1.258 . S
C954 O956 1.263 . S
O955 Co952 1.970 . S
O955 C954 1.258 . S
O956 Co953 1.966 . S
O956 C954 1.263 . S
C957 O958 1.235 . S
C957 O984 1.289 . S
O958 C957 1.235 . S
C959 C961 1.400 . S
C959 N962 1.351 . S
C959 C964 1.501 . S
C960 C961 1.387 . S
C960 N963 1.341 . S
C961 C959 1.400 . S
C961 C960 1.387 . S
N962 Co953 2.022 . S
N962 C959 1.351 . S
N962 N963 1.365 . S
N963 C960 1.341 . S
N963 N962 1.365 . S
N963 H983 0.862 . S
C964 C959 1.501 . S
C964 H965 0.961 . S
C964 H966 0.961 . S
C964 H967 0.960 . S
H965 C964 0.961 . S
H966 C964 0.961 . S
H967 C964 0.960 . S
C968 N969 1.342 . S
C968 C972 1.401 . S
C968 C973 1.499 . S
N969 Co952 1.989 . S
N969 C968 1.342 . S
N969 N970 1.388 . S
N970 Co953 1.993 . S
N970 N969 1.388 . S
N970 C971 1.346 . S
C971 N970 1.346 . S
C971 C972 1.396 . S
C971 C981 1.510 . S
C972 C968 1.401 . S
C972 C971 1.396 . S
C973 C968 1.499 . S
C973 H974 0.959 . S
C973 H975 0.960 . S
C973 H976 0.961 . S
H974 C973 0.959 . S
H975 C973 0.960 . S
H976 C973 0.961 . S
O977 Co952 1.967 . S
O977 C985 1.258 . S
O978 Co953 1.941 . S
O978 C985 1.266 . S
H979 C981 0.959 . S
H980 C981 0.961 . S
C981 C971 1.510 . S
C981 H979 0.959 . S
C981 H980 0.961 . S
C981 H982 0.960 . S
H982 C981 0.960 . S
H983 N963 0.862 . S
O984 Co952 1.920 . S
O984 C957 1.289 . S
C985 O977 1.258 . S
C985 O978 1.266 . S
Co986 O989 1.970 . S
Co986 N1003 1.989 . S
Co986 O1011 1.967 . S
Co986 O1018 1.920 . S
Co987 O990 1.966 . S
Co987 N996 2.022 . S
Co987 N1004 1.993 . S
Co987 O1012 1.941 . S
C988 O989 1.258 . S
C988 O990 1.263 . S
O989 Co986 1.970 . S
O989 C988 1.258 . S
O990 Co987 1.966 . S
O990 C988 1.263 . S
C991 O992 1.235 . S
C991 O1018 1.289 . S
O992 C991 1.235 . S
C993 C995 1.400 . S
C993 N996 1.351 . S
C993 C998 1.501 . S
C994 C995 1.387 . S
C994 N997 1.341 . S
C995 C993 1.400 . S
C995 C994 1.387 . S
N996 Co987 2.022 . S
N996 C993 1.351 . S
N996 N997 1.365 . S
N997 C994 1.341 . S
N997 N996 1.365 . S
N997 H1017 0.862 . S
C998 C993 1.501 . S
C998 H999 0.961 . S
C998 H1000 0.961 . S
C998 H1001 0.960 . S
H999 C998 0.961 . S
H1000 C998 0.961 . S
H1001 C998 0.960 . S
C1002 N1003 1.342 . S
C1002 C1006 1.401 . S
C1002 C1007 1.499 . S
N1003 Co986 1.989 . S
N1003 C1002 1.342 . S
N1003 N1004 1.388 . S
N1004 Co987 1.993 . S
N1004 N1003 1.388 . S
N1004 C1005 1.346 . S
C1005 N1004 1.346 . S
C1005 C1006 1.396 . S
C1005 C1015 1.510 . S
C1006 C1002 1.401 . S
C1006 C1005 1.396 . S
C1007 C1002 1.499 . S
C1007 H1008 0.959 . S
C1007 H1009 0.960 . S
C1007 H1010 0.961 . S
H1008 C1007 0.959 . S
H1009 C1007 0.960 . S
H1010 C1007 0.961 . S
O1011 Co986 1.967 . S
O1011 C1019 1.258 . S
O1012 Co987 1.941 . S
O1012 C1019 1.266 . S
H1013 C1015 0.959 . S
H1014 C1015 0.961 . S
C1015 C1005 1.510 . S
C1015 H1013 0.959 . S
C1015 H1014 0.961 . S
C1015 H1016 0.960 . S
H1016 C1015 0.960 . S
H1017 N997 0.862 . S
O1018 Co986 1.920 . S
O1018 C991 1.289 . S
C1019 O1011 1.258 . S
C1019 O1012 1.266 . S
Co1020 O1023 1.970 . S
Co1020 N1037 1.989 . S
Co1020 O1045 1.967 . S
Co1020 O1052 1.920 . S
Co1021 O1024 1.966 . S
Co1021 N1030 2.022 . S
Co1021 N1038 1.993 . S
Co1021 O1046 1.941 . S
C1022 O1023 1.258 . S
C1022 O1024 1.263 . S
O1023 Co1020 1.970 . S
O1023 C1022 1.258 . S
O1024 Co1021 1.966 . S
O1024 C1022 1.263 . S
C1025 O1026 1.235 . S
C1025 O1052 1.289 . S
O1026 C1025 1.235 . S
C1027 C1029 1.400 . S
C1027 N1030 1.351 . S
C1027 C1032 1.501 . S
C1028 C1029 1.387 . S
C1028 N1031 1.341 . S
C1029 C1027 1.400 . S
C1029 C1028 1.387 . S
N1030 Co1021 2.022 . S
N1030 C1027 1.351 . S
N1030 N1031 1.365 . S
N1031 C1028 1.341 . S
N1031 N1030 1.365 . S
N1031 H1051 0.862 . S
C1032 C1027 1.501 . S
C1032 H1033 0.961 . S
C1032 H1034 0.961 . S
C1032 H1035 0.960 . S
H1033 C1032 0.961 . S
H1034 C1032 0.961 . S
H1035 C1032 0.960 . S
C1036 N1037 1.342 . S
C1036 C1040 1.401 . S
C1036 C1041 1.499 . S
N1037 Co1020 1.989 . S
N1037 C1036 1.342 . S
N1037 N1038 1.388 . S
N1038 Co1021 1.993 . S
N1038 N1037 1.388 . S
N1038 C1039 1.346 . S
C1039 N1038 1.346 . S
C1039 C1040 1.396 . S
C1039 C1049 1.510 . S
C1040 C1036 1.401 . S
C1040 C1039 1.396 . S
C1041 C1036 1.499 . S
C1041 H1042 0.959 . S
C1041 H1043 0.960 . S
C1041 H1044 0.961 . S
H1042 C1041 0.959 . S
H1043 C1041 0.960 . S
H1044 C1041 0.961 . S
O1045 Co1020 1.967 . S
O1045 C1053 1.258 . S
O1046 Co1021 1.941 . S
O1046 C1053 1.266 . S
H1047 C1049 0.959 . S
H1048 C1049 0.961 . S
C1049 C1039 1.510 . S
C1049 H1047 0.959 . S
C1049 H1048 0.961 . S
C1049 H1050 0.960 . S
H1050 C1049 0.960 . S
H1051 N1031 0.862 . S
O1052 Co1020 1.920 . S
O1052 C1025 1.289 . S
C1053 O1045 1.258 . S
C1053 O1046 1.266 . S
Co1054 O1057 1.970 . S
Co1054 N1071 1.989 . S
Co1054 O1079 1.967 . S
Co1054 O1086 1.920 . S
Co1055 O1058 1.966 . S
Co1055 N1064 2.022 . S
Co1055 N1072 1.993 . S
Co1055 O1080 1.941 . S
C1056 O1057 1.258 . S
C1056 O1058 1.263 . S
O1057 Co1054 1.970 . S
O1057 C1056 1.258 . S
O1058 Co1055 1.966 . S
O1058 C1056 1.263 . S
C1059 O1060 1.235 . S
C1059 O1086 1.289 . S
O1060 C1059 1.235 . S
C1061 C1063 1.400 . S
C1061 N1064 1.351 . S
C1061 C1066 1.501 . S
C1062 C1063 1.387 . S
C1062 N1065 1.341 . S
C1063 C1061 1.400 . S
C1063 C1062 1.387 . S
N1064 Co1055 2.022 . S
N1064 C1061 1.351 . S
N1064 N1065 1.365 . S
N1065 C1062 1.341 . S
N1065 N1064 1.365 . S
N1065 H1085 0.862 . S
C1066 C1061 1.501 . S
C1066 H1067 0.961 . S
C1066 H1068 0.961 . S
C1066 H1069 0.960 . S
H1067 C1066 0.961 . S
H1068 C1066 0.961 . S
H1069 C1066 0.960 . S
C1070 N1071 1.342 . S
C1070 C1074 1.401 . S
C1070 C1075 1.499 . S
N1071 Co1054 1.989 . S
N1071 C1070 1.342 . S
N1071 N1072 1.388 . S
N1072 Co1055 1.993 . S
N1072 N1071 1.388 . S
N1072 C1073 1.346 . S
C1073 N1072 1.346 . S
C1073 C1074 1.396 . S
C1073 C1083 1.510 . S
C1074 C1070 1.401 . S
C1074 C1073 1.396 . S
C1075 C1070 1.499 . S
C1075 H1076 0.959 . S
C1075 H1077 0.960 . S
C1075 H1078 0.961 . S
H1076 C1075 0.959 . S
H1077 C1075 0.960 . S
H1078 C1075 0.961 . S
O1079 Co1054 1.967 . S
O1079 C1087 1.258 . S
O1080 Co1055 1.941 . S
O1080 C1087 1.266 . S
H1081 C1083 0.959 . S
H1082 C1083 0.961 . S
C1083 C1073 1.510 . S
C1083 H1081 0.959 . S
C1083 H1082 0.961 . S
C1083 H1084 0.960 . S
H1084 C1083 0.960 . S
H1085 N1065 0.862 . S
O1086 Co1054 1.920 . S
O1086 C1059 1.289 . S
C1087 O1079 1.258 . S
C1087 O1080 1.266 . S
H1088 C1096 0.950 . S
H1089 C1101 0.950 . S
H1090 C1098 0.950 . S
H1091 C1100 0.950 . S
H1092 C1102 0.950 . S
H1093 C1104 0.950 . S
H1094 C1106 0.950 . S
H1095 C1107 0.950 . S
C1096 H1088 0.950 . S
C1096 C1097 1.386 . S
C1096 C1098 1.391 . S
C1097 C1096 1.386 . S
C1097 C1101 1.393 . S
C1098 H1090 0.950 . S
C1098 C1096 1.391 . S
C1098 C1099 1.400 . S
C1099 C1098 1.400 . S
C1099 C1100 1.398 . S
C1099 C1105 1.491 . S
C1100 H1091 0.950 . S
C1100 C1099 1.398 . S
C1100 C1101 1.391 . S
C1101 H1089 0.950 . S
C1101 C1097 1.393 . S
C1101 C1100 1.391 . S
C1102 H1092 0.950 . S
C1102 C1103 1.386 . S
C1102 C1104 1.391 . S
C1103 C1102 1.386 . S
C1103 C1107 1.393 . S
C1104 H1093 0.950 . S
C1104 C1102 1.391 . S
C1104 C1105 1.400 . S
C1105 C1099 1.491 . S
C1105 C1104 1.400 . S
C1105 C1106 1.398 . S
C1106 H1094 0.950 . S
C1106 C1105 1.398 . S
C1106 C1107 1.391 . S
C1107 H1095 0.950 . S
C1107 C1103 1.393 . S
C1107 C1106 1.391 . S
H1108 C1116 0.950 . S
H1109 C1121 0.950 . S
H1110 C1118 0.950 . S
H1111 C1120 0.950 . S
H1112 C1122 0.950 . S
H1113 C1124 0.950 . S
H1114 C1126 0.950 . S
H1115 C1127 0.950 . S
C1116 H1108 0.950 . S
C1116 C1117 1.386 . S
C1116 C1118 1.391 . S
C1117 C1116 1.386 . S
C1117 C1121 1.393 . S
C1118 H1110 0.950 . S
C1118 C1116 1.391 . S
C1118 C1119 1.400 . S
C1119 C1118 1.400 . S
C1119 C1120 1.398 . S
C1119 C1125 1.491 . S
C1120 H1111 0.950 . S
C1120 C1119 1.398 . S
C1120 C1121 1.391 . S
C1121 H1109 0.950 . S
C1121 C1117 1.393 . S
C1121 C1120 1.391 . S
C1122 H1112 0.950 . S
C1122 C1123 1.386 . S
C1122 C1124 1.391 . S
C1123 C1122 1.386 . S
C1123 C1127 1.393 . S
C1124 H1113 0.950 . S
C1124 C1122 1.391 . S
C1124 C1125 1.400 . S
C1125 C1119 1.491 . S
C1125 C1124 1.400 . S
C1125 C1126 1.398 . S
C1126 H1114 0.950 . S
C1126 C1125 1.398 . S
C1126 C1127 1.391 . S
C1127 H1115 0.950 . S
C1127 C1123 1.393 . S
C1127 C1126 1.391 . S
H1128 C1136 0.950 . S
H1129 C1141 0.950 . S
H1130 C1138 0.950 . S
H1131 C1140 0.950 . S
H1132 C1142 0.950 . S
H1133 C1144 0.950 . S
H1134 C1146 0.950 . S
H1135 C1147 0.950 . S
C1136 H1128 0.950 . S
C1136 C1137 1.386 . S
C1136 C1138 1.391 . S
C1137 C1136 1.386 . S
C1137 C1141 1.393 . S
C1138 H1130 0.950 . S
C1138 C1136 1.391 . S
C1138 C1139 1.400 . S
C1139 C1138 1.400 . S
C1139 C1140 1.398 . S
C1139 C1145 1.491 . S
C1140 H1131 0.950 . S
C1140 C1139 1.398 . S
C1140 C1141 1.391 . S
C1141 H1129 0.950 . S
C1141 C1137 1.393 . S
C1141 C1140 1.391 . S
C1142 H1132 0.950 . S
C1142 C1143 1.386 . S
C1142 C1144 1.391 . S
C1143 C1142 1.386 . S
C1143 C1147 1.393 . S
C1144 H1133 0.950 . S
C1144 C1142 1.391 . S
C1144 C1145 1.400 . S
C1145 C1139 1.491 . S
C1145 C1144 1.400 . S
C1145 C1146 1.398 . S
C1146 H1134 0.950 . S
C1146 C1145 1.398 . S
C1146 C1147 1.391 . S
C1147 H1135 0.950 . S
C1147 C1143 1.393 . S
C1147 C1146 1.391 . S
H1148 C1156 0.950 . S
H1149 C1161 0.950 . S
H1150 C1158 0.950 . S
H1151 C1160 0.950 . S
H1152 C1162 0.950 . S
H1153 C1164 0.950 . S
H1154 C1166 0.950 . S
H1155 C1167 0.950 . S
C1156 H1148 0.950 . S
C1156 C1157 1.386 . S
C1156 C1158 1.391 . S
C1157 C1156 1.386 . S
C1157 C1161 1.393 . S
C1158 H1150 0.950 . S
C1158 C1156 1.391 . S
C1158 C1159 1.400 . S
C1159 C1158 1.400 . S
C1159 C1160 1.398 . S
C1159 C1165 1.491 . S
C1160 H1151 0.950 . S
C1160 C1159 1.398 . S
C1160 C1161 1.391 . S
C1161 H1149 0.950 . S
C1161 C1157 1.393 . S
C1161 C1160 1.391 . S
C1162 H1152 0.950 . S
C1162 C1163 1.386 . S
C1162 C1164 1.391 . S
C1163 C1162 1.386 . S
C1163 C1167 1.393 . S
C1164 H1153 0.950 . S
C1164 C1162 1.391 . S
C1164 C1165 1.400 . S
C1165 C1159 1.491 . S
C1165 C1164 1.400 . S
C1165 C1166 1.398 . S
C1166 H1154 0.950 . S
C1166 C1165 1.398 . S
C1166 C1167 1.391 . S
C1167 H1155 0.950 . S
C1167 C1163 1.393 . S
C1167 C1166 1.391 . S
H1168 C1176 0.950 . S
H1169 C1181 0.950 . S
H1170 C1178 0.950 . S
H1171 C1180 0.950 . S
H1172 C1182 0.950 . S
H1173 C1184 0.950 . S
H1174 C1186 0.950 . S
H1175 C1187 0.950 . S
C1176 H1168 0.950 . S
C1176 C1177 1.386 . S
C1176 C1178 1.391 . S
C1177 C1176 1.386 . S
C1177 C1181 1.393 . S
C1178 H1170 0.950 . S
C1178 C1176 1.391 . S
C1178 C1179 1.400 . S
C1179 C1178 1.400 . S
C1179 C1180 1.398 . S
C1179 C1185 1.491 . S
C1180 H1171 0.950 . S
C1180 C1179 1.398 . S
C1180 C1181 1.391 . S
C1181 H1169 0.950 . S
C1181 C1177 1.393 . S
C1181 C1180 1.391 . S
C1182 H1172 0.950 . S
C1182 C1183 1.386 . S
C1182 C1184 1.391 . S
C1183 C1182 1.386 . S
C1183 C1187 1.393 . S
C1184 H1173 0.950 . S
C1184 C1182 1.391 . S
C1184 C1185 1.400 . S
C1185 C1179 1.491 . S
C1185 C1184 1.400 . S
C1185 C1186 1.398 . S
C1186 H1174 0.950 . S
C1186 C1185 1.398 . S
C1186 C1187 1.391 . S
C1187 H1175 0.950 . S
C1187 C1183 1.393 . S
C1187 C1186 1.391 . S
H1188 C1196 0.950 . S
H1189 C1201 0.950 . S
H1190 C1198 0.950 . S
H1191 C1200 0.950 . S
H1192 C1202 0.950 . S
H1193 C1204 0.950 . S
H1194 C1206 0.950 . S
H1195 C1207 0.950 . S
C1196 H1188 0.950 . S
C1196 C1197 1.386 . S
C1196 C1198 1.391 . S
C1197 C1196 1.386 . S
C1197 C1201 1.393 . S
C1198 H1190 0.950 . S
C1198 C1196 1.391 . S
C1198 C1199 1.400 . S
C1199 C1198 1.400 . S
C1199 C1200 1.398 . S
C1199 C1205 1.491 . S
C1200 H1191 0.950 . S
C1200 C1199 1.398 . S
C1200 C1201 1.391 . S
C1201 H1189 0.950 . S
C1201 C1197 1.393 . S
C1201 C1200 1.391 . S
C1202 H1192 0.950 . S
C1202 C1203 1.386 . S
C1202 C1204 1.391 . S
C1203 C1202 1.386 . S
C1203 C1207 1.393 . S
C1204 H1193 0.950 . S
C1204 C1202 1.391 . S
C1204 C1205 1.400 . S
C1205 C1199 1.491 . S
C1205 C1204 1.400 . S
C1205 C1206 1.398 . S
C1206 H1194 0.950 . S
C1206 C1205 1.398 . S
C1206 C1207 1.391 . S
C1207 H1195 0.950 . S
C1207 C1203 1.393 . S
C1207 C1206 1.391 . S
H1208 C1216 0.950 . S
H1209 C1221 0.950 . S
H1210 C1218 0.950 . S
H1211 C1220 0.950 . S
H1212 C1222 0.950 . S
H1213 C1224 0.950 . S
H1214 C1226 0.950 . S
H1215 C1227 0.950 . S
C1216 H1208 0.950 . S
C1216 C1217 1.386 . S
C1216 C1218 1.391 . S
C1217 C1216 1.386 . S
C1217 C1221 1.393 . S
C1218 H1210 0.950 . S
C1218 C1216 1.391 . S
C1218 C1219 1.400 . S
C1219 C1218 1.400 . S
C1219 C1220 1.398 . S
C1219 C1225 1.491 . S
C1220 H1211 0.950 . S
C1220 C1219 1.398 . S
C1220 C1221 1.391 . S
C1221 H1209 0.950 . S
C1221 C1217 1.393 . S
C1221 C1220 1.391 . S
C1222 H1212 0.950 . S
C1222 C1223 1.386 . S
C1222 C1224 1.391 . S
C1223 C1222 1.386 . S
C1223 C1227 1.393 . S
C1224 H1213 0.950 . S
C1224 C1222 1.391 . S
C1224 C1225 1.400 . S
C1225 C1219 1.491 . S
C1225 C1224 1.400 . S
C1225 C1226 1.398 . S
C1226 H1214 0.950 . S
C1226 C1225 1.398 . S
C1226 C1227 1.391 . S
C1227 H1215 0.950 . S
C1227 C1223 1.393 . S
C1227 C1226 1.391 . S
H1228 C1236 0.950 . S
H1229 C1241 0.950 . S
H1230 C1238 0.950 . S
H1231 C1240 0.950 . S
H1232 C1242 0.950 . S
H1233 C1244 0.950 . S
H1234 C1246 0.950 . S
H1235 C1247 0.950 . S
C1236 H1228 0.950 . S
C1236 C1237 1.386 . S
C1236 C1238 1.391 . S
C1237 C1236 1.386 . S
C1237 C1241 1.393 . S
C1238 H1230 0.950 . S
C1238 C1236 1.391 . S
C1238 C1239 1.400 . S
C1239 C1238 1.400 . S
C1239 C1240 1.398 . S
C1239 C1245 1.491 . S
C1240 H1231 0.950 . S
C1240 C1239 1.398 . S
C1240 C1241 1.391 . S
C1241 H1229 0.950 . S
C1241 C1237 1.393 . S
C1241 C1240 1.391 . S
C1242 H1232 0.950 . S
C1242 C1243 1.386 . S
C1242 C1244 1.391 . S
C1243 C1242 1.386 . S
C1243 C1247 1.393 . S
C1244 H1233 0.950 . S
C1244 C1242 1.391 . S
C1244 C1245 1.400 . S
C1245 C1239 1.491 . S
C1245 C1244 1.400 . S
C1245 C1246 1.398 . S
C1246 H1234 0.950 . S
C1246 C1245 1.398 . S
C1246 C1247 1.391 . S
C1247 H1235 0.950 . S
C1247 C1243 1.393 . S
C1247 C1246 1.391 . S
H1248 C1256 0.950 . S
H1249 C1261 0.950 . S
H1250 C1258 0.950 . S
H1251 C1260 0.950 . S
H1252 C1262 0.950 . S
H1253 C1264 0.950 . S
H1254 C1266 0.950 . S
H1255 C1267 0.950 . S
C1256 H1248 0.950 . S
C1256 C1257 1.386 . S
C1256 C1258 1.391 . S
C1257 C1256 1.386 . S
C1257 C1261 1.393 . S
C1258 H1250 0.950 . S
C1258 C1256 1.391 . S
C1258 C1259 1.400 . S
C1259 C1258 1.400 . S
C1259 C1260 1.398 . S
C1259 C1265 1.491 . S
C1260 H1251 0.950 . S
C1260 C1259 1.398 . S
C1260 C1261 1.391 . S
C1261 H1249 0.950 . S
C1261 C1257 1.393 . S
C1261 C1260 1.391 . S
C1262 H1252 0.950 . S
C1262 C1263 1.386 . S
C1262 C1264 1.391 . S
C1263 C1262 1.386 . S
C1263 C1267 1.393 . S
C1264 H1253 0.950 . S
C1264 C1262 1.391 . S
C1264 C1265 1.400 . S
C1265 C1259 1.491 . S
C1265 C1264 1.400 . S
C1265 C1266 1.398 . S
C1266 H1254 0.950 . S
C1266 C1265 1.398 . S
C1266 C1267 1.391 . S
C1267 H1255 0.950 . S
C1267 C1263 1.393 . S
C1267 C1266 1.391 . S
H1268 C1276 0.950 . S
H1269 C1281 0.950 . S
H1270 C1278 0.950 . S
H1271 C1280 0.950 . S
H1272 C1282 0.950 . S
H1273 C1284 0.950 . S
H1274 C1286 0.950 . S
H1275 C1287 0.950 . S
C1276 H1268 0.950 . S
C1276 C1277 1.386 . S
C1276 C1278 1.391 . S
C1277 C1276 1.386 . S
C1277 C1281 1.393 . S
C1278 H1270 0.950 . S
C1278 C1276 1.391 . S
C1278 C1279 1.400 . S
C1279 C1278 1.400 . S
C1279 C1280 1.398 . S
C1279 C1285 1.491 . S
C1280 H1271 0.950 . S
C1280 C1279 1.398 . S
C1280 C1281 1.391 . S
C1281 H1269 0.950 . S
C1281 C1277 1.393 . S
C1281 C1280 1.391 . S
C1282 H1272 0.950 . S
C1282 C1283 1.386 . S
C1282 C1284 1.391 . S
C1283 C1282 1.386 . S
C1283 C1287 1.393 . S
C1284 H1273 0.950 . S
C1284 C1282 1.391 . S
C1284 C1285 1.400 . S
C1285 C1279 1.491 . S
C1285 C1284 1.400 . S
C1285 C1286 1.398 . S
C1286 H1274 0.950 . S
C1286 C1285 1.398 . S
C1286 C1287 1.391 . S
C1287 H1275 0.950 . S
C1287 C1283 1.393 . S
C1287 C1286 1.391 . S
H1288 C1296 0.950 . S
H1289 C1301 0.950 . S
H1290 C1298 0.950 . S
H1291 C1300 0.950 . S
H1292 C1302 0.950 . S
H1293 C1304 0.950 . S
H1294 C1306 0.950 . S
H1295 C1307 0.950 . S
C1296 H1288 0.950 . S
C1296 C1297 1.386 . S
C1296 C1298 1.391 . S
C1297 C1296 1.386 . S
C1297 C1301 1.393 . S
C1298 H1290 0.950 . S
C1298 C1296 1.391 . S
C1298 C1299 1.400 . S
C1299 C1298 1.400 . S
C1299 C1300 1.398 . S
C1299 C1305 1.491 . S
C1300 H1291 0.950 . S
C1300 C1299 1.398 . S
C1300 C1301 1.391 . S
C1301 H1289 0.950 . S
C1301 C1297 1.393 . S
C1301 C1300 1.391 . S
C1302 H1292 0.950 . S
C1302 C1303 1.386 . S
C1302 C1304 1.391 . S
C1303 C1302 1.386 . S
C1303 C1307 1.393 . S
C1304 H1293 0.950 . S
C1304 C1302 1.391 . S
C1304 C1305 1.400 . S
C1305 C1299 1.491 . S
C1305 C1304 1.400 . S
C1305 C1306 1.398 . S
C1306 H1294 0.950 . S
C1306 C1305 1.398 . S
C1306 C1307 1.391 . S
C1307 H1295 0.950 . S
C1307 C1303 1.393 . S
C1307 C1306 1.391 . S
H1308 C1316 0.950 . S
H1309 C1321 0.950 . S
H1310 C1318 0.950 . S
H1311 C1320 0.950 . S
H1312 C1322 0.950 . S
H1313 C1324 0.950 . S
H1314 C1326 0.950 . S
H1315 C1327 0.950 . S
C1316 H1308 0.950 . S
C1316 C1317 1.386 . S
C1316 C1318 1.391 . S
C1317 C1316 1.386 . S
C1317 C1321 1.393 . S
C1318 H1310 0.950 . S
C1318 C1316 1.391 . S
C1318 C1319 1.400 . S
C1319 C1318 1.400 . S
C1319 C1320 1.398 . S
C1319 C1325 1.491 . S
C1320 H1311 0.950 . S
C1320 C1319 1.398 . S
C1320 C1321 1.391 . S
C1321 H1309 0.950 . S
C1321 C1317 1.393 . S
C1321 C1320 1.391 . S
C1322 H1312 0.950 . S
C1322 C1323 1.386 . S
C1322 C1324 1.391 . S
C1323 C1322 1.386 . S
C1323 C1327 1.393 . S
C1324 H1313 0.950 . S
C1324 C1322 1.391 . S
C1324 C1325 1.400 . S
C1325 C1319 1.491 . S
C1325 C1324 1.400 . S
C1325 C1326 1.398 . S
C1326 H1314 0.950 . S
C1326 C1325 1.398 . S
C1326 C1327 1.391 . S
C1327 H1315 0.950 . S
C1327 C1323 1.393 . S
C1327 C1326 1.391 . S
H1328 C1336 0.950 . S
H1329 C1341 0.950 . S
H1330 C1338 0.950 . S
H1331 C1340 0.950 . S
H1332 C1342 0.950 . S
H1333 C1344 0.950 . S
H1334 C1346 0.950 . S
H1335 C1347 0.950 . S
C1336 H1328 0.950 . S
C1336 C1337 1.386 . S
C1336 C1338 1.391 . S
C1337 C1336 1.386 . S
C1337 C1341 1.393 . S
C1338 H1330 0.950 . S
C1338 C1336 1.391 . S
C1338 C1339 1.400 . S
C1339 C1338 1.400 . S
C1339 C1340 1.398 . S
C1339 C1345 1.491 . S
C1340 H1331 0.950 . S
C1340 C1339 1.398 . S
C1340 C1341 1.391 . S
C1341 H1329 0.950 . S
C1341 C1337 1.393 . S
C1341 C1340 1.391 . S
C1342 H1332 0.950 . S
C1342 C1343 1.386 . S
C1342 C1344 1.391 . S
C1343 C1342 1.386 . S
C1343 C1347 1.393 . S
C1344 H1333 0.950 . S
C1344 C1342 1.391 . S
C1344 C1345 1.400 . S
C1345 C1339 1.491 . S
C1345 C1344 1.400 . S
C1345 C1346 1.398 . S
C1346 H1334 0.950 . S
C1346 C1345 1.398 . S
C1346 C1347 1.391 . S
C1347 H1335 0.950 . S
C1347 C1343 1.393 . S
C1347 C1346 1.391 . S
H1348 C1356 0.950 . S
H1349 C1361 0.950 . S
H1350 C1358 0.950 . S
H1351 C1360 0.950 . S
H1352 C1362 0.950 . S
H1353 C1364 0.950 . S
H1354 C1366 0.950 . S
H1355 C1367 0.950 . S
C1356 H1348 0.950 . S
C1356 C1357 1.386 . S
C1356 C1358 1.391 . S
C1357 C1356 1.386 . S
C1357 C1361 1.393 . S
C1358 H1350 0.950 . S
C1358 C1356 1.391 . S
C1358 C1359 1.400 . S
C1359 C1358 1.400 . S
C1359 C1360 1.398 . S
C1359 C1365 1.491 . S
C1360 H1351 0.950 . S
C1360 C1359 1.398 . S
C1360 C1361 1.391 . S
C1361 H1349 0.950 . S
C1361 C1357 1.393 . S
C1361 C1360 1.391 . S
C1362 H1352 0.950 . S
C1362 C1363 1.386 . S
C1362 C1364 1.391 . S
C1363 C1362 1.386 . S
C1363 C1367 1.393 . S
C1364 H1353 0.950 . S
C1364 C1362 1.391 . S
C1364 C1365 1.400 . S
C1365 C1359 1.491 . S
C1365 C1364 1.400 . S
C1365 C1366 1.398 . S
C1366 H1354 0.950 . S
C1366 C1365 1.398 . S
C1366 C1367 1.391 . S
C1367 H1355 0.950 . S
C1367 C1363 1.393 . S
C1367 C1366 1.391 . S
H1368 C1376 0.950 . S
H1369 C1381 0.950 . S
H1370 C1378 0.950 . S
H1371 C1380 0.950 . S
H1372 C1382 0.950 . S
H1373 C1384 0.950 . S
H1374 C1386 0.950 . S
H1375 C1387 0.950 . S
C1376 H1368 0.950 . S
C1376 C1377 1.386 . S
C1376 C1378 1.391 . S
C1377 C1376 1.386 . S
C1377 C1381 1.393 . S
C1378 H1370 0.950 . S
C1378 C1376 1.391 . S
C1378 C1379 1.400 . S
C1379 C1378 1.400 . S
C1379 C1380 1.398 . S
C1379 C1385 1.491 . S
C1380 H1371 0.950 . S
C1380 C1379 1.398 . S
C1380 C1381 1.391 . S
C1381 H1369 0.950 . S
C1381 C1377 1.393 . S
C1381 C1380 1.391 . S
C1382 H1372 0.950 . S
C1382 C1383 1.386 . S
C1382 C1384 1.391 . S
C1383 C1382 1.386 . S
C1383 C1387 1.393 . S
C1384 H1373 0.950 . S
C1384 C1382 1.391 . S
C1384 C1385 1.400 . S
C1385 C1379 1.491 . S
C1385 C1384 1.400 . S
C1385 C1386 1.398 . S
C1386 H1374 0.950 . S
C1386 C1385 1.398 . S
C1386 C1387 1.391 . S
C1387 H1375 0.950 . S
C1387 C1383 1.393 . S
C1387 C1386 1.391 . S
H1388 C1396 0.950 . S
H1389 C1401 0.950 . S
H1390 C1398 0.950 . S
H1391 C1400 0.950 . S
H1392 C1402 0.950 . S
H1393 C1404 0.950 . S
H1394 C1406 0.950 . S
H1395 C1407 0.950 . S
C1396 H1388 0.950 . S
C1396 C1397 1.386 . S
C1396 C1398 1.391 . S
C1397 C1396 1.386 . S
C1397 C1401 1.393 . S
C1398 H1390 0.950 . S
C1398 C1396 1.391 . S
C1398 C1399 1.400 . S
C1399 C1398 1.400 . S
C1399 C1400 1.398 . S
C1399 C1405 1.491 . S
C1400 H1391 0.950 . S
C1400 C1399 1.398 . S
C1400 C1401 1.391 . S
C1401 H1389 0.950 . S
C1401 C1397 1.393 . S
C1401 C1400 1.391 . S
C1402 H1392 0.950 . S
C1402 C1403 1.386 . S
C1402 C1404 1.391 . S
C1403 C1402 1.386 . S
C1403 C1407 1.393 . S
C1404 H1393 0.950 . S
C1404 C1402 1.391 . S
C1404 C1405 1.400 . S
C1405 C1399 1.491 . S
C1405 C1404 1.400 . S
C1405 C1406 1.398 . S
C1406 H1394 0.950 . S
C1406 C1405 1.398 . S
C1406 C1407 1.391 . S
C1407 H1395 0.950 . S
C1407 C1403 1.393 . S
C1407 C1406 1.391 . S
H1408 C1416 0.950 . S
H1409 C1421 0.950 . S
H1410 C1418 0.950 . S
H1411 C1420 0.950 . S
H1412 C1422 0.950 . S
H1413 C1424 0.950 . S
H1414 C1426 0.950 . S
H1415 C1427 0.950 . S
C1416 H1408 0.950 . S
C1416 C1417 1.386 . S
C1416 C1418 1.391 . S
C1417 C1416 1.386 . S
C1417 C1421 1.393 . S
C1418 H1410 0.950 . S
C1418 C1416 1.391 . S
C1418 C1419 1.400 . S
C1419 C1418 1.400 . S
C1419 C1420 1.398 . S
C1419 C1425 1.491 . S
C1420 H1411 0.950 . S
C1420 C1419 1.398 . S
C1420 C1421 1.391 . S
C1421 H1409 0.950 . S
C1421 C1417 1.393 . S
C1421 C1420 1.391 . S
C1422 H1412 0.950 . S
C1422 C1423 1.386 . S
C1422 C1424 1.391 . S
C1423 C1422 1.386 . S
C1423 C1427 1.393 . S
C1424 H1413 0.950 . S
C1424 C1422 1.391 . S
C1424 C1425 1.400 . S
C1425 C1419 1.491 . S
C1425 C1424 1.400 . S
C1425 C1426 1.398 . S
C1426 H1414 0.950 . S
C1426 C1425 1.398 . S
C1426 C1427 1.391 . S
C1427 H1415 0.950 . S
C1427 C1423 1.393 . S
C1427 C1426 1.391 . S
H1428 C1436 0.950 . S
H1429 C1441 0.950 . S
H1430 C1438 0.950 . S
H1431 C1440 0.950 . S
H1432 C1442 0.950 . S
H1433 C1444 0.950 . S
H1434 C1446 0.950 . S
H1435 C1447 0.950 . S
C1436 H1428 0.950 . S
C1436 C1437 1.386 . S
C1436 C1438 1.391 . S
C1437 C1436 1.386 . S
C1437 C1441 1.393 . S
C1438 H1430 0.950 . S
C1438 C1436 1.391 . S
C1438 C1439 1.400 . S
C1439 C1438 1.400 . S
C1439 C1440 1.398 . S
C1439 C1445 1.491 . S
C1440 H1431 0.950 . S
C1440 C1439 1.398 . S
C1440 C1441 1.391 . S
C1441 H1429 0.950 . S
C1441 C1437 1.393 . S
C1441 C1440 1.391 . S
C1442 H1432 0.950 . S
C1442 C1443 1.386 . S
C1442 C1444 1.391 . S
C1443 C1442 1.386 . S
C1443 C1447 1.393 . S
C1444 H1433 0.950 . S
C1444 C1442 1.391 . S
C1444 C1445 1.400 . S
C1445 C1439 1.491 . S
C1445 C1444 1.400 . S
C1445 C1446 1.398 . S
C1446 H1434 0.950 . S
C1446 C1445 1.398 . S
C1446 C1447 1.391 . S
C1447 H1435 0.950 . S
C1447 C1443 1.393 . S
C1447 C1446 1.391 . S
H1448 C1456 0.950 . S
H1449 C1461 0.950 . S
H1450 C1458 0.950 . S
H1451 C1460 0.950 . S
H1452 C1462 0.950 . S
H1453 C1464 0.950 . S
H1454 C1466 0.950 . S
H1455 C1467 0.950 . S
C1456 H1448 0.950 . S
C1456 C1457 1.386 . S
C1456 C1458 1.391 . S
C1457 C1456 1.386 . S
C1457 C1461 1.393 . S
C1458 H1450 0.950 . S
C1458 C1456 1.391 . S
C1458 C1459 1.400 . S
C1459 C1458 1.400 . S
C1459 C1460 1.398 . S
C1459 C1465 1.491 . S
C1460 H1451 0.950 . S
C1460 C1459 1.398 . S
C1460 C1461 1.391 . S
C1461 H1449 0.950 . S
C1461 C1457 1.393 . S
C1461 C1460 1.391 . S
C1462 H1452 0.950 . S
C1462 C1463 1.386 . S
C1462 C1464 1.391 . S
C1463 C1462 1.386 . S
C1463 C1467 1.393 . S
C1464 H1453 0.950 . S
C1464 C1462 1.391 . S
C1464 C1465 1.400 . S
C1465 C1459 1.491 . S
C1465 C1464 1.400 . S
C1465 C1466 1.398 . S
C1466 H1454 0.950 . S
C1466 C1465 1.398 . S
C1466 C1467 1.391 . S
C1467 H1455 0.950 . S
C1467 C1463 1.393 . S
C1467 C1466 1.391 . S
H1468 C1476 0.950 . S
H1469 C1481 0.950 . S
H1470 C1478 0.950 . S
H1471 C1480 0.950 . S
H1472 C1482 0.950 . S
H1473 C1484 0.950 . S
H1474 C1486 0.950 . S
H1475 C1487 0.950 . S
C1476 H1468 0.950 . S
C1476 C1477 1.386 . S
C1476 C1478 1.391 . S
C1477 C1476 1.386 . S
C1477 C1481 1.393 . S
C1478 H1470 0.950 . S
C1478 C1476 1.391 . S
C1478 C1479 1.400 . S
C1479 C1478 1.400 . S
C1479 C1480 1.398 . S
C1479 C1485 1.491 . S
C1480 H1471 0.950 . S
C1480 C1479 1.398 . S
C1480 C1481 1.391 . S
C1481 H1469 0.950 . S
C1481 C1477 1.393 . S
C1481 C1480 1.391 . S
C1482 H1472 0.950 . S
C1482 C1483 1.386 . S
C1482 C1484 1.391 . S
C1483 C1482 1.386 . S
C1483 C1487 1.393 . S
C1484 H1473 0.950 . S
C1484 C1482 1.391 . S
C1484 C1485 1.400 . S
C1485 C1479 1.491 . S
C1485 C1484 1.400 . S
C1485 C1486 1.398 . S
C1486 H1474 0.950 . S
C1486 C1485 1.398 . S
C1486 C1487 1.391 . S
C1487 H1475 0.950 . S
C1487 C1483 1.393 . S
C1487 C1486 1.391 . S
H1488 C1496 0.950 . S
H1489 C1501 0.950 . S
H1490 C1498 0.950 . S
H1491 C1500 0.950 . S
H1492 C1502 0.950 . S
H1493 C1504 0.950 . S
H1494 C1506 0.950 . S
H1495 C1507 0.950 . S
C1496 H1488 0.950 . S
C1496 C1497 1.386 . S
C1496 C1498 1.391 . S
C1497 C1496 1.386 . S
C1497 C1501 1.393 . S
C1498 H1490 0.950 . S
C1498 C1496 1.391 . S
C1498 C1499 1.400 . S
C1499 C1498 1.400 . S
C1499 C1500 1.398 . S
C1499 C1505 1.491 . S
C1500 H1491 0.950 . S
C1500 C1499 1.398 . S
C1500 C1501 1.391 . S
C1501 H1489 0.950 . S
C1501 C1497 1.393 . S
C1501 C1500 1.391 . S
C1502 H1492 0.950 . S
C1502 C1503 1.386 . S
C1502 C1504 1.391 . S
C1503 C1502 1.386 . S
C1503 C1507 1.393 . S
C1504 H1493 0.950 . S
C1504 C1502 1.391 . S
C1504 C1505 1.400 . S
C1505 C1499 1.491 . S
C1505 C1504 1.400 . S
C1505 C1506 1.398 . S
C1506 H1494 0.950 . S
C1506 C1505 1.398 . S
C1506 C1507 1.391 . S
C1507 H1495 0.950 . S
C1507 C1503 1.393 . S
C1507 C1506 1.391 . S
H1508 C1516 0.950 . S
H1509 C1521 0.950 . S
H1510 C1518 0.950 . S
H1511 C1520 0.950 . S
H1512 C1522 0.950 . S
H1513 C1524 0.950 . S
H1514 C1526 0.950 . S
H1515 C1527 0.950 . S
C1516 H1508 0.950 . S
C1516 C1517 1.386 . S
C1516 C1518 1.391 . S
C1517 C1516 1.386 . S
C1517 C1521 1.393 . S
C1518 H1510 0.950 . S
C1518 C1516 1.391 . S
C1518 C1519 1.400 . S
C1519 C1518 1.400 . S
C1519 C1520 1.398 . S
C1519 C1525 1.491 . S
C1520 H1511 0.950 . S
C1520 C1519 1.398 . S
C1520 C1521 1.391 . S
C1521 H1509 0.950 . S
C1521 C1517 1.393 . S
C1521 C1520 1.391 . S
C1522 H1512 0.950 . S
C1522 C1523 1.386 . S
C1522 C1524 1.391 . S
C1523 C1522 1.386 . S
C1523 C1527 1.393 . S
C1524 H1513 0.950 . S
C1524 C1522 1.391 . S
C1524 C1525 1.400 . S
C1525 C1519 1.491 . S
C1525 C1524 1.400 . S
C1525 C1526 1.398 . S
C1526 H1514 0.950 . S
C1526 C1525 1.398 . S
C1526 C1527 1.391 . S
C1527 H1515 0.950 . S
C1527 C1523 1.393 . S
C1527 C1526 1.391 . S
H1528 C1536 0.950 . S
H1529 C1541 0.950 . S
H1530 C1538 0.950 . S
H1531 C1540 0.950 . S
H1532 C1542 0.950 . S
H1533 C1544 0.950 . S
H1534 C1546 0.950 . S
H1535 C1547 0.950 . S
C1536 H1528 0.950 . S
C1536 C1537 1.386 . S
C1536 C1538 1.391 . S
C1537 C1536 1.386 . S
C1537 C1541 1.393 . S
C1538 H1530 0.950 . S
C1538 C1536 1.391 . S
C1538 C1539 1.400 . S
C1539 C1538 1.400 . S
C1539 C1540 1.398 . S
C1539 C1545 1.491 . S
C1540 H1531 0.950 . S
C1540 C1539 1.398 . S
C1540 C1541 1.391 . S
C1541 H1529 0.950 . S
C1541 C1537 1.393 . S
C1541 C1540 1.391 . S
C1542 H1532 0.950 . S
C1542 C1543 1.386 . S
C1542 C1544 1.391 . S
C1543 C1542 1.386 . S
C1543 C1547 1.393 . S
C1544 H1533 0.950 . S
C1544 C1542 1.391 . S
C1544 C1545 1.400 . S
C1545 C1539 1.491 . S
C1545 C1544 1.400 . S
C1545 C1546 1.398 . S
C1546 H1534 0.950 . S
C1546 C1545 1.398 . S
C1546 C1547 1.391 . S
C1547 H1535 0.950 . S
C1547 C1543 1.393 . S
C1547 C1546 1.391 . S
H1548 C1556 0.950 . S
H1549 C1561 0.950 . S
H1550 C1558 0.950 . S
H1551 C1560 0.950 . S
H1552 C1562 0.950 . S
H1553 C1564 0.950 . S
H1554 C1566 0.950 . S
H1555 C1567 0.950 . S
C1556 H1548 0.950 . S
C1556 C1557 1.386 . S
C1556 C1558 1.391 . S
C1557 C1556 1.386 . S
C1557 C1561 1.393 . S
C1558 H1550 0.950 . S
C1558 C1556 1.391 . S
C1558 C1559 1.400 . S
C1559 C1558 1.400 . S
C1559 C1560 1.398 . S
C1559 C1565 1.491 . S
C1560 H1551 0.950 . S
C1560 C1559 1.398 . S
C1560 C1561 1.391 . S
C1561 H1549 0.950 . S
C1561 C1557 1.393 . S
C1561 C1560 1.391 . S
C1562 H1552 0.950 . S
C1562 C1563 1.386 . S
C1562 C1564 1.391 . S
C1563 C1562 1.386 . S
C1563 C1567 1.393 . S
C1564 H1553 0.950 . S
C1564 C1562 1.391 . S
C1564 C1565 1.400 . S
C1565 C1559 1.491 . S
C1565 C1564 1.400 . S
C1565 C1566 1.398 . S
C1566 H1554 0.950 . S
C1566 C1565 1.398 . S
C1566 C1567 1.391 . S
C1567 H1555 0.950 . S
C1567 C1563 1.393 . S
C1567 C1566 1.391 . S
H1568 C1576 0.950 . S
H1569 C1581 0.950 . S
H1570 C1578 0.950 . S
H1571 C1580 0.950 . S
H1572 C1582 0.950 . S
H1573 C1584 0.950 . S
H1574 C1586 0.950 . S
H1575 C1587 0.950 . S
C1576 H1568 0.950 . S
C1576 C1577 1.386 . S
C1576 C1578 1.391 . S
C1577 C1576 1.386 . S
C1577 C1581 1.393 . S
C1578 H1570 0.950 . S
C1578 C1576 1.391 . S
C1578 C1579 1.400 . S
C1579 C1578 1.400 . S
C1579 C1580 1.398 . S
C1579 C1585 1.491 . S
C1580 H1571 0.950 . S
C1580 C1579 1.398 . S
C1580 C1581 1.391 . S
C1581 H1569 0.950 . S
C1581 C1577 1.393 . S
C1581 C1580 1.391 . S
C1582 H1572 0.950 . S
C1582 C1583 1.386 . S
C1582 C1584 1.391 . S
C1583 C1582 1.386 . S
C1583 C1587 1.393 . S
C1584 H1573 0.950 . S
C1584 C1582 1.391 . S
C1584 C1585 1.400 . S
C1585 C1579 1.491 . S
C1585 C1584 1.400 . S
C1585 C1586 1.398 . S
C1586 H1574 0.950 . S
C1586 C1585 1.398 . S
C1586 C1587 1.391 . S
C1587 H1575 0.950 . S
C1587 C1583 1.393 . S
C1587 C1586 1.391 . S
H1588 C1596 0.950 . S
H1589 C1601 0.950 . S
H1590 C1598 0.950 . S
H1591 C1600 0.950 . S
H1592 C1602 0.950 . S
H1593 C1604 0.950 . S
H1594 C1606 0.950 . S
H1595 C1607 0.950 . S
C1596 H1588 0.950 . S
C1596 C1597 1.386 . S
C1596 C1598 1.391 . S
C1597 C1596 1.386 . S
C1597 C1601 1.393 . S
C1598 H1590 0.950 . S
C1598 C1596 1.391 . S
C1598 C1599 1.400 . S
C1599 C1598 1.400 . S
C1599 C1600 1.398 . S
C1599 C1605 1.491 . S
C1600 H1591 0.950 . S
C1600 C1599 1.398 . S
C1600 C1601 1.391 . S
C1601 H1589 0.950 . S
C1601 C1597 1.393 . S
C1601 C1600 1.391 . S
C1602 H1592 0.950 . S
C1602 C1603 1.386 . S
C1602 C1604 1.391 . S
C1603 C1602 1.386 . S
C1603 C1607 1.393 . S
C1604 H1593 0.950 . S
C1604 C1602 1.391 . S
C1604 C1605 1.400 . S
C1605 C1599 1.491 . S
C1605 C1604 1.400 . S
C1605 C1606 1.398 . S
C1606 H1594 0.950 . S
C1606 C1605 1.398 . S
C1606 C1607 1.391 . S
C1607 H1595 0.950 . S
C1607 C1603 1.393 . S
C1607 C1606 1.391 . S
H1608 C1616 0.950 . S
H1609 C1621 0.950 . S
H1610 C1618 0.950 . S
H1611 C1620 0.950 . S
H1612 C1622 0.950 . S
H1613 C1624 0.950 . S
H1614 C1626 0.950 . S
H1615 C1627 0.950 . S
C1616 H1608 0.950 . S
C1616 C1617 1.386 . S
C1616 C1618 1.391 . S
C1617 C1616 1.386 . S
C1617 C1621 1.393 . S
C1618 H1610 0.950 . S
C1618 C1616 1.391 . S
C1618 C1619 1.400 . S
C1619 C1618 1.400 . S
C1619 C1620 1.398 . S
C1619 C1625 1.491 . S
C1620 H1611 0.950 . S
C1620 C1619 1.398 . S
C1620 C1621 1.391 . S
C1621 H1609 0.950 . S
C1621 C1617 1.393 . S
C1621 C1620 1.391 . S
C1622 H1612 0.950 . S
C1622 C1623 1.386 . S
C1622 C1624 1.391 . S
C1623 C1622 1.386 . S
C1623 C1627 1.393 . S
C1624 H1613 0.950 . S
C1624 C1622 1.391 . S
C1624 C1625 1.400 . S
C1625 C1619 1.491 . S
C1625 C1624 1.400 . S
C1625 C1626 1.398 . S
C1626 H1614 0.950 . S
C1626 C1625 1.398 . S
C1626 C1627 1.391 . S
C1627 H1615 0.950 . S
C1627 C1623 1.393 . S
C1627 C1626 1.391 . S
H1628 C1636 0.950 . S
H1629 C1641 0.950 . S
H1630 C1638 0.950 . S
H1631 C1640 0.950 . S
H1632 C1642 0.950 . S
H1633 C1644 0.950 . S
H1634 C1646 0.950 . S
H1635 C1647 0.950 . S
C1636 H1628 0.950 . S
C1636 C1637 1.386 . S
C1636 C1638 1.391 . S
C1637 C1636 1.386 . S
C1637 C1641 1.393 . S
C1638 H1630 0.950 . S
C1638 C1636 1.391 . S
C1638 C1639 1.400 . S
C1639 C1638 1.400 . S
C1639 C1640 1.398 . S
C1639 C1645 1.491 . S
C1640 H1631 0.950 . S
C1640 C1639 1.398 . S
C1640 C1641 1.391 . S
C1641 H1629 0.950 . S
C1641 C1637 1.393 . S
C1641 C1640 1.391 . S
C1642 H1632 0.950 . S
C1642 C1643 1.386 . S
C1642 C1644 1.391 . S
C1643 C1642 1.386 . S
C1643 C1647 1.393 . S
C1644 H1633 0.950 . S
C1644 C1642 1.391 . S
C1644 C1645 1.400 . S
C1645 C1639 1.491 . S
C1645 C1644 1.400 . S
C1645 C1646 1.398 . S
C1646 H1634 0.950 . S
C1646 C1645 1.398 . S
C1646 C1647 1.391 . S
C1647 H1635 0.950 . S
C1647 C1643 1.393 . S
C1647 C1646 1.391 . S
H1648 C1656 0.950 . S
H1649 C1661 0.950 . S
H1650 C1658 0.950 . S
H1651 C1660 0.950 . S
H1652 C1662 0.950 . S
H1653 C1664 0.950 . S
H1654 C1666 0.950 . S
H1655 C1667 0.950 . S
C1656 H1648 0.950 . S
C1656 C1657 1.386 . S
C1656 C1658 1.391 . S
C1657 C1656 1.386 . S
C1657 C1661 1.393 . S
C1658 H1650 0.950 . S
C1658 C1656 1.391 . S
C1658 C1659 1.400 . S
C1659 C1658 1.400 . S
C1659 C1660 1.398 . S
C1659 C1665 1.491 . S
C1660 H1651 0.950 . S
C1660 C1659 1.398 . S
C1660 C1661 1.391 . S
C1661 H1649 0.950 . S
C1661 C1657 1.393 . S
C1661 C1660 1.391 . S
C1662 H1652 0.950 . S
C1662 C1663 1.386 . S
C1662 C1664 1.391 . S
C1663 C1662 1.386 . S
C1663 C1667 1.393 . S
C1664 H1653 0.950 . S
C1664 C1662 1.391 . S
C1664 C1665 1.400 . S
C1665 C1659 1.491 . S
C1665 C1664 1.400 . S
C1665 C1666 1.398 . S
C1666 H1654 0.950 . S
C1666 C1665 1.398 . S
C1666 C1667 1.391 . S
C1667 H1655 0.950 . S
C1667 C1663 1.393 . S
C1667 C1666 1.391 . S
H1668 C1676 0.950 . S
H1669 C1681 0.950 . S
H1670 C1678 0.950 . S
H1671 C1680 0.950 . S
H1672 C1682 0.950 . S
H1673 C1684 0.950 . S
H1674 C1686 0.950 . S
H1675 C1687 0.950 . S
C1676 H1668 0.950 . S
C1676 C1677 1.386 . S
C1676 C1678 1.391 . S
C1677 C1676 1.386 . S
C1677 C1681 1.393 . S
C1678 H1670 0.950 . S
C1678 C1676 1.391 . S
C1678 C1679 1.400 . S
C1679 C1678 1.400 . S
C1679 C1680 1.398 . S
C1679 C1685 1.491 . S
C1680 H1671 0.950 . S
C1680 C1679 1.398 . S
C1680 C1681 1.391 . S
C1681 H1669 0.950 . S
C1681 C1677 1.393 . S
C1681 C1680 1.391 . S
C1682 H1672 0.950 . S
C1682 C1683 1.386 . S
C1682 C1684 1.391 . S
C1683 C1682 1.386 . S
C1683 C1687 1.393 . S
C1684 H1673 0.950 . S
C1684 C1682 1.391 . S
C1684 C1685 1.400 . S
C1685 C1679 1.491 . S
C1685 C1684 1.400 . S
C1685 C1686 1.398 . S
C1686 H1674 0.950 . S
C1686 C1685 1.398 . S
C1686 C1687 1.391 . S
C1687 H1675 0.950 . S
C1687 C1683 1.393 . S
C1687 C1686 1.391 . S
H1688 C1696 0.950 . S
H1689 C1701 0.950 . S
H1690 C1698 0.950 . S
H1691 C1700 0.950 . S
H1692 C1702 0.950 . S
H1693 C1704 0.950 . S
H1694 C1706 0.950 . S
H1695 C1707 0.950 . S
C1696 H1688 0.950 . S
C1696 C1697 1.386 . S
C1696 C1698 1.391 . S
C1697 C1696 1.386 . S
C1697 C1701 1.393 . S
C1698 H1690 0.950 . S
C1698 C1696 1.391 . S
C1698 C1699 1.400 . S
C1699 C1698 1.400 . S
C1699 C1700 1.398 . S
C1699 C1705 1.491 . S
C1700 H1691 0.950 . S
C1700 C1699 1.398 . S
C1700 C1701 1.391 . S
C1701 H1689 0.950 . S
C1701 C1697 1.393 . S
C1701 C1700 1.391 . S
C1702 H1692 0.950 . S
C1702 C1703 1.386 . S
C1702 C1704 1.391 . S
C1703 C1702 1.386 . S
C1703 C1707 1.393 . S
C1704 H1693 0.950 . S
C1704 C1702 1.391 . S
C1704 C1705 1.400 . S
C1705 C1699 1.491 . S
C1705 C1704 1.400 . S
C1705 C1706 1.398 . S
C1706 H1694 0.950 . S
C1706 C1705 1.398 . S
C1706 C1707 1.391 . S
C1707 H1695 0.950 . S
C1707 C1703 1.393 . S
C1707 C1706 1.391 . S
H1708 C1716 0.950 . S
H1709 C1721 0.950 . S
H1710 C1718 0.950 . S
H1711 C1720 0.950 . S
H1712 C1722 0.950 . S
H1713 C1724 0.950 . S
H1714 C1726 0.950 . S
H1715 C1727 0.950 . S
C1716 H1708 0.950 . S
C1716 C1717 1.386 . S
C1716 C1718 1.391 . S
C1717 C1716 1.386 . S
C1717 C1721 1.393 . S
C1718 H1710 0.950 . S
C1718 C1716 1.391 . S
C1718 C1719 1.400 . S
C1719 C1718 1.400 . S
C1719 C1720 1.398 . S
C1719 C1725 1.491 . S
C1720 H1711 0.950 . S
C1720 C1719 1.398 . S
C1720 C1721 1.391 . S
C1721 H1709 0.950 . S
C1721 C1717 1.393 . S
C1721 C1720 1.391 . S
C1722 H1712 0.950 . S
C1722 C1723 1.386 . S
C1722 C1724 1.391 . S
C1723 C1722 1.386 . S
C1723 C1727 1.393 . S
C1724 H1713 0.950 . S
C1724 C1722 1.391 . S
C1724 C1725 1.400 . S
C1725 C1719 1.491 . S
C1725 C1724 1.400 . S
C1725 C1726 1.398 . S
C1726 H1714 0.950 . S
C1726 C1725 1.398 . S
C1726 C1727 1.391 . S
C1727 H1715 0.950 . S
C1727 C1723 1.393 . S
C1727 C1726 1.391 . S
H1728 C1736 0.950 . S
H1729 C1741 0.950 . S
H1730 C1738 0.950 1_565 S
H1731 C1740 0.950 . S
H1732 C1742 0.950 . S
H1733 C1744 0.950 1_545 S
H1734 C1746 0.950 . S
H1735 C1747 0.950 . S
C1736 H1728 0.950 . S
C1736 C1737 1.386 . S
C1736 C1738 1.391 . S
C1737 C1736 1.386 . S
C1737 C1741 1.393 . S
C1738 H1730 0.950 1_545 S
C1738 C1736 1.391 . S
C1738 C1739 1.400 . S
C1739 C1738 1.400 . S
C1739 C1740 1.398 . S
C1739 C1745 1.491 1_545 S
C1740 H1731 0.950 . S
C1740 C1739 1.398 . S
C1740 C1741 1.391 . S
C1741 H1729 0.950 . S
C1741 C1737 1.393 . S
C1741 C1740 1.391 . S
C1742 H1732 0.950 . S
C1742 C1743 1.386 . S
C1742 C1744 1.391 . S
C1743 C1742 1.386 . S
C1743 C1747 1.393 . S
C1744 H1733 0.950 1_565 S
C1744 C1742 1.391 . S
C1744 C1745 1.400 . S
C1745 C1739 1.491 1_565 S
C1745 C1744 1.400 . S
C1745 C1746 1.398 . S
C1746 H1734 0.950 . S
C1746 C1745 1.398 . S
C1746 C1747 1.391 . S
C1747 H1735 0.950 . S
C1747 C1743 1.393 . S
C1747 C1746 1.391 . S
H1748 C1756 0.950 . S
H1749 C1761 0.950 . S
H1750 C1758 0.950 . S
H1751 C1760 0.950 . S
H1752 C1762 0.950 . S
H1753 C1764 0.950 . S
H1754 C1766 0.950 . S
H1755 C1767 0.950 . S
C1756 H1748 0.950 . S
C1756 C1757 1.386 . S
C1756 C1758 1.391 . S
C1757 C1756 1.386 . S
C1757 C1761 1.393 . S
C1758 H1750 0.950 . S
C1758 C1756 1.391 . S
C1758 C1759 1.400 . S
C1759 C1758 1.400 . S
C1759 C1760 1.398 . S
C1759 C1765 1.491 . S
C1760 H1751 0.950 . S
C1760 C1759 1.398 . S
C1760 C1761 1.391 . S
C1761 H1749 0.950 . S
C1761 C1757 1.393 . S
C1761 C1760 1.391 . S
C1762 H1752 0.950 . S
C1762 C1763 1.386 . S
C1762 C1764 1.391 . S
C1763 C1762 1.386 . S
C1763 C1767 1.393 . S
C1764 H1753 0.950 . S
C1764 C1762 1.391 . S
C1764 C1765 1.400 . S
C1765 C1759 1.491 . S
C1765 C1764 1.400 . S
C1765 C1766 1.398 . S
C1766 H1754 0.950 . S
C1766 C1765 1.398 . S
C1766 C1767 1.391 . S
C1767 H1755 0.950 . S
C1767 C1763 1.393 . S
C1767 C1766 1.391 . S
H1768 C1776 0.950 . S
H1769 C1781 0.950 . S
H1770 C1778 0.950 . S
H1771 C1780 0.950 1_565 S
H1772 C1782 0.950 . S
H1773 C1784 0.950 . S
H1774 C1786 0.950 1_545 S
H1775 C1787 0.950 . S
C1776 H1768 0.950 . S
C1776 C1777 1.386 . S
C1776 C1778 1.391 . S
C1777 C1776 1.386 . S
C1777 C1781 1.393 . S
C1778 H1770 0.950 . S
C1778 C1776 1.391 . S
C1778 C1779 1.400 . S
C1779 C1778 1.400 . S
C1779 C1780 1.398 . S
C1779 C1785 1.491 1_545 S
C1780 H1771 0.950 1_545 S
C1780 C1779 1.398 . S
C1780 C1781 1.391 . S
C1781 H1769 0.950 . S
C1781 C1777 1.393 . S
C1781 C1780 1.391 . S
C1782 H1772 0.950 . S
C1782 C1783 1.386 . S
C1782 C1784 1.391 . S
C1783 C1782 1.386 . S
C1783 C1787 1.393 . S
C1784 H1773 0.950 . S
C1784 C1782 1.391 . S
C1784 C1785 1.400 . S
C1785 C1779 1.491 1_565 S
C1785 C1784 1.400 . S
C1785 C1786 1.398 . S
C1786 H1774 0.950 1_565 S
C1786 C1785 1.398 . S
C1786 C1787 1.391 . S
C1787 H1775 0.950 . S
C1787 C1783 1.393 . S
C1787 C1786 1.391 . S
H1788 C1796 0.950 . S
H1789 C1801 0.950 . S
H1790 C1798 0.950 1_556 S
H1791 C1800 0.950 . S
H1792 C1802 0.950 . S
H1793 C1804 0.950 1_554 S
H1794 C1806 0.950 . S
H1795 C1807 0.950 . S
C1796 H1788 0.950 . S
C1796 C1797 1.386 . S
C1796 C1798 1.391 . S
C1797 C1796 1.386 . S
C1797 C1801 1.393 . S
C1798 H1790 0.950 1_554 S
C1798 C1796 1.391 . S
C1798 C1799 1.400 . S
C1799 C1798 1.400 . S
C1799 C1800 1.398 . S
C1799 C1805 1.491 1_554 S
C1800 H1791 0.950 . S
C1800 C1799 1.398 . S
C1800 C1801 1.391 . S
C1801 H1789 0.950 . S
C1801 C1797 1.393 . S
C1801 C1800 1.391 . S
C1802 H1792 0.950 . S
C1802 C1803 1.386 . S
C1802 C1804 1.391 . S
C1803 C1802 1.386 . S
C1803 C1807 1.393 . S
C1804 H1793 0.950 1_556 S
C1804 C1802 1.391 . S
C1804 C1805 1.400 . S
C1805 C1799 1.491 1_556 S
C1805 C1804 1.400 . S
C1805 C1806 1.398 . S
C1806 H1794 0.950 . S
C1806 C1805 1.398 . S
C1806 C1807 1.391 . S
C1807 H1795 0.950 . S
C1807 C1803 1.393 . S
C1807 C1806 1.391 . S
H1808 C1816 0.950 . S
H1809 C1821 0.950 . S
H1810 C1818 0.950 . S
H1811 C1820 0.950 . S
H1812 C1822 0.950 . S
H1813 C1824 0.950 . S
H1814 C1826 0.950 . S
H1815 C1827 0.950 . S
C1816 H1808 0.950 . S
C1816 C1817 1.386 . S
C1816 C1818 1.391 . S
C1817 C1816 1.386 . S
C1817 C1821 1.393 . S
C1818 H1810 0.950 . S
C1818 C1816 1.391 . S
C1818 C1819 1.400 . S
C1819 C1818 1.400 . S
C1819 C1820 1.398 . S
C1819 C1825 1.491 1_565 S
C1820 H1811 0.950 . S
C1820 C1819 1.398 . S
C1820 C1821 1.391 . S
C1821 H1809 0.950 . S
C1821 C1817 1.393 . S
C1821 C1820 1.391 . S
C1822 H1812 0.950 . S
C1822 C1823 1.386 . S
C1822 C1824 1.391 . S
C1823 C1822 1.386 . S
C1823 C1827 1.393 . S
C1824 H1813 0.950 . S
C1824 C1822 1.391 . S
C1824 C1825 1.400 . S
C1825 C1819 1.491 1_545 S
C1825 C1824 1.400 . S
C1825 C1826 1.398 . S
C1826 H1814 0.950 . S
C1826 C1825 1.398 . S
C1826 C1827 1.391 . S
C1827 H1815 0.950 . S
C1827 C1823 1.393 . S
C1827 C1826 1.391 . S
H1828 C1836 0.950 . S
H1829 C1841 0.950 . S
H1830 C1838 0.950 . S
H1831 C1840 0.950 . S
H1832 C1842 0.950 . S
H1833 C1844 0.950 . S
H1834 C1846 0.950 . S
H1835 C1847 0.950 . S
C1836 H1828 0.950 . S
C1836 C1837 1.386 . S
C1836 C1838 1.391 . S
C1837 C1836 1.386 . S
C1837 C1841 1.393 . S
C1838 H1830 0.950 . S
C1838 C1836 1.391 . S
C1838 C1839 1.400 . S
C1839 C1838 1.400 . S
C1839 C1840 1.398 . S
C1839 C1845 1.491 . S
C1840 H1831 0.950 . S
C1840 C1839 1.398 . S
C1840 C1841 1.391 . S
C1841 H1829 0.950 . S
C1841 C1837 1.393 . S
C1841 C1840 1.391 . S
C1842 H1832 0.950 . S
C1842 C1843 1.386 . S
C1842 C1844 1.391 . S
C1843 C1842 1.386 . S
C1843 C1847 1.393 . S
C1844 H1833 0.950 . S
C1844 C1842 1.391 . S
C1844 C1845 1.400 . S
C1845 C1839 1.491 . S
C1845 C1844 1.400 . S
C1845 C1846 1.398 . S
C1846 H1834 0.950 . S
C1846 C1845 1.398 . S
C1846 C1847 1.391 . S
C1847 H1835 0.950 . S
C1847 C1843 1.393 . S
C1847 C1846 1.391 . S
H1848 C1856 0.950 . S
H1849 C1861 0.950 . S
H1850 C1858 0.950 1_565 S
H1851 C1860 0.950 . S
H1852 C1862 0.950 . S
H1853 C1864 0.950 1_545 S
H1854 C1866 0.950 . S
H1855 C1867 0.950 . S
C1856 H1848 0.950 . S
C1856 C1857 1.386 . S
C1856 C1858 1.391 . S
C1857 C1856 1.386 . S
C1857 C1861 1.393 . S
C1858 H1850 0.950 1_545 S
C1858 C1856 1.391 . S
C1858 C1859 1.400 . S
C1859 C1858 1.400 . S
C1859 C1860 1.398 . S
C1859 C1865 1.491 1_545 S
C1860 H1851 0.950 . S
C1860 C1859 1.398 . S
C1860 C1861 1.391 . S
C1861 H1849 0.950 . S
C1861 C1857 1.393 . S
C1861 C1860 1.391 . S
C1862 H1852 0.950 . S
C1862 C1863 1.386 . S
C1862 C1864 1.391 . S
C1863 C1862 1.386 . S
C1863 C1867 1.393 . S
C1864 H1853 0.950 1_565 S
C1864 C1862 1.391 . S
C1864 C1865 1.400 . S
C1865 C1859 1.491 1_565 S
C1865 C1864 1.400 . S
C1865 C1866 1.398 . S
C1866 H1854 0.950 . S
C1866 C1865 1.398 . S
C1866 C1867 1.391 . S
C1867 H1855 0.950 . S
C1867 C1863 1.393 . S
C1867 C1866 1.391 . S
H1868 C1876 0.950 . S
H1869 C1881 0.950 . S
H1870 C1878 0.950 1_554 S
H1871 C1880 0.950 . S
H1872 C1882 0.950 . S
H1873 C1884 0.950 1_556 S
H1874 C1886 0.950 . S
H1875 C1887 0.950 . S
C1876 H1868 0.950 . S
C1876 C1877 1.386 . S
C1876 C1878 1.391 . S
C1877 C1876 1.386 . S
C1877 C1881 1.393 . S
C1878 H1870 0.950 1_556 S
C1878 C1876 1.391 . S
C1878 C1879 1.400 . S
C1879 C1878 1.400 . S
C1879 C1880 1.398 . S
C1879 C1885 1.491 1_556 S
C1880 H1871 0.950 . S
C1880 C1879 1.398 . S
C1880 C1881 1.391 . S
C1881 H1869 0.950 . S
C1881 C1877 1.393 . S
C1881 C1880 1.391 . S
C1882 H1872 0.950 . S
C1882 C1883 1.386 . S
C1882 C1884 1.391 . S
C1883 C1882 1.386 . S
C1883 C1887 1.393 . S
C1884 H1873 0.950 1_554 S
C1884 C1882 1.391 . S
C1884 C1885 1.400 . S
C1885 C1879 1.491 1_554 S
C1885 C1884 1.400 . S
C1885 C1886 1.398 . S
C1886 H1874 0.950 . S
C1886 C1885 1.398 . S
C1886 C1887 1.391 . S
C1887 H1875 0.950 . S
C1887 C1883 1.393 . S
C1887 C1886 1.391 . S
H1888 C1896 0.950 . S
H1889 C1901 0.950 . S
H1890 C1898 0.950 . S
H1891 C1900 0.950 . S
H1892 C1902 0.950 . S
H1893 C1904 0.950 . S
H1894 C1906 0.950 . S
H1895 C1907 0.950 . S
C1896 H1888 0.950 . S
C1896 C1897 1.386 . S
C1896 C1898 1.391 . S
C1897 C1896 1.386 . S
C1897 C1901 1.393 . S
C1898 H1890 0.950 . S
C1898 C1896 1.391 . S
C1898 C1899 1.400 . S
C1899 C1898 1.400 . S
C1899 C1900 1.398 . S
C1899 C1905 1.491 . S
C1900 H1891 0.950 . S
C1900 C1899 1.398 . S
C1900 C1901 1.391 . S
C1901 H1889 0.950 . S
C1901 C1897 1.393 . S
C1901 C1900 1.391 . S
C1902 H1892 0.950 . S
C1902 C1903 1.386 . S
C1902 C1904 1.391 . S
C1903 C1902 1.386 . S
C1903 C1907 1.393 . S
C1904 H1893 0.950 . S
C1904 C1902 1.391 . S
C1904 C1905 1.400 . S
C1905 C1899 1.491 . S
C1905 C1904 1.400 . S
C1905 C1906 1.398 . S
C1906 H1894 0.950 . S
C1906 C1905 1.398 . S
C1906 C1907 1.391 . S
C1907 H1895 0.950 . S
C1907 C1903 1.393 . S
C1907 C1906 1.391 . S
H1908 C1916 0.950 . S
H1909 C1921 0.950 . S
H1910 C1918 0.950 . S
H1911 C1920 0.950 1_554 S
H1912 C1922 0.950 . S
H1913 C1924 0.950 . S
H1914 C1926 0.950 1_556 S
H1915 C1927 0.950 . S
C1916 H1908 0.950 . S
C1916 C1917 1.386 . S
C1916 C1918 1.391 . S
C1917 C1916 1.386 . S
C1917 C1921 1.393 . S
C1918 H1910 0.950 . S
C1918 C1916 1.391 . S
C1918 C1919 1.400 . S
C1919 C1918 1.400 . S
C1919 C1920 1.398 . S
C1919 C1925 1.491 1_556 S
C1920 H1911 0.950 1_556 S
C1920 C1919 1.398 . S
C1920 C1921 1.391 . S
C1921 H1909 0.950 . S
C1921 C1917 1.393 . S
C1921 C1920 1.391 . S
C1922 H1912 0.950 . S
C1922 C1923 1.386 . S
C1922 C1924 1.391 . S
C1923 C1922 1.386 . S
C1923 C1927 1.393 . S
C1924 H1913 0.950 . S
C1924 C1922 1.391 . S
C1924 C1925 1.400 . S
C1925 C1919 1.491 1_554 S
C1925 C1924 1.400 . S
C1925 C1926 1.398 . S
C1926 H1914 0.950 1_554 S
C1926 C1925 1.398 . S
C1926 C1927 1.391 . S
C1927 H1915 0.950 . S
C1927 C1923 1.393 . S
C1927 C1926 1.391 . S
H1928 C1936 0.950 . S
H1929 C1941 0.950 . S
H1930 C1938 0.950 . S
H1931 C1940 0.950 . S
H1932 C1942 0.950 . S
H1933 C1944 0.950 . S
H1934 C1946 0.950 . S
H1935 C1947 0.950 . S
C1936 H1928 0.950 . S
C1936 C1937 1.386 . S
C1936 C1938 1.391 . S
C1937 C1936 1.386 . S
C1937 C1941 1.393 . S
C1938 H1930 0.950 . S
C1938 C1936 1.391 . S
C1938 C1939 1.400 . S
C1939 C1938 1.400 . S
C1939 C1940 1.398 . S
C1939 C1945 1.491 . S
C1940 H1931 0.950 . S
C1940 C1939 1.398 . S
C1940 C1941 1.391 . S
C1941 H1929 0.950 . S
C1941 C1937 1.393 . S
C1941 C1940 1.391 . S
C1942 H1932 0.950 . S
C1942 C1943 1.386 . S
C1942 C1944 1.391 . S
C1943 C1942 1.386 . S
C1943 C1947 1.393 . S
C1944 H1933 0.950 . S
C1944 C1942 1.391 . S
C1944 C1945 1.400 . S
C1945 C1939 1.491 . S
C1945 C1944 1.400 . S
C1945 C1946 1.398 . S
C1946 H1934 0.950 . S
C1946 C1945 1.398 . S
C1946 C1947 1.391 . S
C1947 H1935 0.950 . S
C1947 C1943 1.393 . S
C1947 C1946 1.391 . S
H1948 C1956 0.950 . S
H1949 C1961 0.950 . S
H1950 C1958 0.950 . S
H1951 C1960 0.950 . S
H1952 C1962 0.950 . S
H1953 C1964 0.950 . S
H1954 C1966 0.950 . S
H1955 C1967 0.950 . S
C1956 H1948 0.950 . S
C1956 C1957 1.386 . S
C1956 C1958 1.391 . S
C1957 C1956 1.386 . S
C1957 C1961 1.393 . S
C1958 H1950 0.950 . S
C1958 C1956 1.391 . S
C1958 C1959 1.400 . S
C1959 C1958 1.400 . S
C1959 C1960 1.398 . S
C1959 C1965 1.491 . S
C1960 H1951 0.950 . S
C1960 C1959 1.398 . S
C1960 C1961 1.391 . S
C1961 H1949 0.950 . S
C1961 C1957 1.393 . S
C1961 C1960 1.391 . S
C1962 H1952 0.950 . S
C1962 C1963 1.386 . S
C1962 C1964 1.391 . S
C1963 C1962 1.386 . S
C1963 C1967 1.393 . S
C1964 H1953 0.950 . S
C1964 C1962 1.391 . S
C1964 C1965 1.400 . S
C1965 C1959 1.491 . S
C1965 C1964 1.400 . S
C1965 C1966 1.398 . S
C1966 H1954 0.950 . S
C1966 C1965 1.398 . S
C1966 C1967 1.391 . S
C1967 H1955 0.950 . S
C1967 C1963 1.393 . S
C1967 C1966 1.391 . S
H1968 C1976 0.950 . S
H1969 C1981 0.950 . S
H1970 C1978 0.950 . S
H1971 C1980 0.950 . S
H1972 C1982 0.950 . S
H1973 C1984 0.950 . S
H1974 C1986 0.950 . S
H1975 C1987 0.950 . S
C1976 H1968 0.950 . S
C1976 C1977 1.386 . S
C1976 C1978 1.391 . S
C1977 C1976 1.386 . S
C1977 C1981 1.393 . S
C1978 H1970 0.950 . S
C1978 C1976 1.391 . S
C1978 C1979 1.400 . S
C1979 C1978 1.400 . S
C1979 C1980 1.398 . S
C1979 C1985 1.491 . S
C1980 H1971 0.950 . S
C1980 C1979 1.398 . S
C1980 C1981 1.391 . S
C1981 H1969 0.950 . S
C1981 C1977 1.393 . S
C1981 C1980 1.391 . S
C1982 H1972 0.950 . S
C1982 C1983 1.386 . S
C1982 C1984 1.391 . S
C1983 C1982 1.386 . S
C1983 C1987 1.393 . S
C1984 H1973 0.950 . S
C1984 C1982 1.391 . S
C1984 C1985 1.400 . S
C1985 C1979 1.491 . S
C1985 C1984 1.400 . S
C1985 C1986 1.398 . S
C1986 H1974 0.950 . S
C1986 C1985 1.398 . S
C1986 C1987 1.391 . S
C1987 H1975 0.950 . S
C1987 C1983 1.393 . S
C1987 C1986 1.391 . S
H1988 C1996 0.950 . S
H1989 C2001 0.950 . S
H1990 C1998 0.950 1_554 S
H1991 C2000 0.950 . S
H1992 C2002 0.950 . S
H1993 C2004 0.950 1_556 S
H1994 C2006 0.950 . S
H1995 C2007 0.950 . S
C1996 H1988 0.950 . S
C1996 C1997 1.386 . S
C1996 C1998 1.391 . S
C1997 C1996 1.386 . S
C1997 C2001 1.393 . S
C1998 H1990 0.950 1_556 S
C1998 C1996 1.391 . S
C1998 C1999 1.400 . S
C1999 C1998 1.400 . S
C1999 C2000 1.398 . S
C1999 C2005 1.491 1_556 S
C2000 H1991 0.950 . S
C2000 C1999 1.398 . S
C2000 C2001 1.391 . S
C2001 H1989 0.950 . S
C2001 C1997 1.393 . S
C2001 C2000 1.391 . S
C2002 H1992 0.950 . S
C2002 C2003 1.386 . S
C2002 C2004 1.391 . S
C2003 C2002 1.386 . S
C2003 C2007 1.393 . S
C2004 H1993 0.950 1_554 S
C2004 C2002 1.391 . S
C2004 C2005 1.400 . S
C2005 C1999 1.491 1_554 S
C2005 C2004 1.400 . S
C2005 C2006 1.398 . S
C2006 H1994 0.950 . S
C2006 C2005 1.398 . S
C2006 C2007 1.391 . S
C2007 H1995 0.950 . S
C2007 C2003 1.393 . S
C2007 C2006 1.391 . S
H2008 C2016 0.950 . S
H2009 C2021 0.950 . S
H2010 C2018 0.950 . S
H2011 C2020 0.950 . S
H2012 C2022 0.950 . S
H2013 C2024 0.950 . S
H2014 C2026 0.950 . S
H2015 C2027 0.950 . S
C2016 H2008 0.950 . S
C2016 C2017 1.386 . S
C2016 C2018 1.391 . S
C2017 C2016 1.386 . S
C2017 C2021 1.393 . S
C2018 H2010 0.950 . S
C2018 C2016 1.391 . S
C2018 C2019 1.400 . S
C2019 C2018 1.400 . S
C2019 C2020 1.398 . S
C2019 C2025 1.491 . S
C2020 H2011 0.950 . S
C2020 C2019 1.398 . S
C2020 C2021 1.391 . S
C2021 H2009 0.950 . S
C2021 C2017 1.393 . S
C2021 C2020 1.391 . S
C2022 H2012 0.950 . S
C2022 C2023 1.386 . S
C2022 C2024 1.391 . S
C2023 C2022 1.386 . S
C2023 C2027 1.393 . S
C2024 H2013 0.950 . S
C2024 C2022 1.391 . S
C2024 C2025 1.400 . S
C2025 C2019 1.491 . S
C2025 C2024 1.400 . S
C2025 C2026 1.398 . S
C2026 H2014 0.950 . S
C2026 C2025 1.398 . S
C2026 C2027 1.391 . S
C2027 H2015 0.950 . S
C2027 C2023 1.393 . S
C2027 C2026 1.391 . S
H2028 C2036 0.950 . S
H2029 C2041 0.950 . S
H2030 C2038 0.950 . S
H2031 C2040 0.950 . S
H2032 C2042 0.950 . S
H2033 C2044 0.950 . S
H2034 C2046 0.950 . S
H2035 C2047 0.950 . S
C2036 H2028 0.950 . S
C2036 C2037 1.386 . S
C2036 C2038 1.391 . S
C2037 C2036 1.386 . S
C2037 C2041 1.393 . S
C2038 H2030 0.950 . S
C2038 C2036 1.391 . S
C2038 C2039 1.400 . S
C2039 C2038 1.400 . S
C2039 C2040 1.398 . S
C2039 C2045 1.491 . S
C2040 H2031 0.950 . S
C2040 C2039 1.398 . S
C2040 C2041 1.391 . S
C2041 H2029 0.950 . S
C2041 C2037 1.393 . S
C2041 C2040 1.391 . S
C2042 H2032 0.950 . S
C2042 C2043 1.386 . S
C2042 C2044 1.391 . S
C2043 C2042 1.386 . S
C2043 C2047 1.393 . S
C2044 H2033 0.950 . S
C2044 C2042 1.391 . S
C2044 C2045 1.400 . S
C2045 C2039 1.491 . S
C2045 C2044 1.400 . S
C2045 C2046 1.398 . S
C2046 H2034 0.950 . S
C2046 C2045 1.398 . S
C2046 C2047 1.391 . S
C2047 H2035 0.950 . S
C2047 C2043 1.393 . S
C2047 C2046 1.391 . S
H2048 C2056 0.950 . S
H2049 C2061 0.950 . S
H2050 C2058 0.950 . S
H2051 C2060 0.950 . S
H2052 C2062 0.950 . S
H2053 C2064 0.950 . S
H2054 C2066 0.950 . S
H2055 C2067 0.950 . S
C2056 H2048 0.950 . S
C2056 C2057 1.386 . S
C2056 C2058 1.391 . S
C2057 C2056 1.386 . S
C2057 C2061 1.393 . S
C2058 H2050 0.950 . S
C2058 C2056 1.391 . S
C2058 C2059 1.400 . S
C2059 C2058 1.400 . S
C2059 C2060 1.398 . S
C2059 C2065 1.491 . S
C2060 H2051 0.950 . S
C2060 C2059 1.398 . S
C2060 C2061 1.391 . S
C2061 H2049 0.950 . S
C2061 C2057 1.393 . S
C2061 C2060 1.391 . S
C2062 H2052 0.950 . S
C2062 C2063 1.386 . S
C2062 C2064 1.391 . S
C2063 C2062 1.386 . S
C2063 C2067 1.393 . S
C2064 H2053 0.950 . S
C2064 C2062 1.391 . S
C2064 C2065 1.400 . S
C2065 C2059 1.491 . S
C2065 C2064 1.400 . S
C2065 C2066 1.398 . S
C2066 H2054 0.950 . S
C2066 C2065 1.398 . S
C2066 C2067 1.391 . S
C2067 H2055 0.950 . S
C2067 C2063 1.393 . S
C2067 C2066 1.391 . S
H2068 C2076 0.950 . S
H2069 C2081 0.950 . S
H2070 C2078 0.950 . S
H2071 C2080 0.950 . S
H2072 C2082 0.950 1_565 S
H2073 C2084 0.950 . S
H2074 C2086 0.950 . S
H2075 C2087 0.950 . S
C2076 H2068 0.950 . S
C2076 C2077 1.386 . S
C2076 C2078 1.391 . S
C2077 C2076 1.386 . S
C2077 C2081 1.393 . S
C2078 H2070 0.950 . S
C2078 C2076 1.391 . S
C2078 C2079 1.400 . S
C2079 C2078 1.400 . S
C2079 C2080 1.398 . S
C2079 C2085 1.491 . S
C2080 H2071 0.950 . S
C2080 C2079 1.398 . S
C2080 C2081 1.391 . S
C2081 H2069 0.950 . S
C2081 C2077 1.393 . S
C2081 C2080 1.391 . S
C2082 H2072 0.950 1_545 S
C2082 C2083 1.386 . S
C2082 C2084 1.391 . S
C2083 C2082 1.386 . S
C2083 C2087 1.393 . S
C2084 H2073 0.950 . S
C2084 C2082 1.391 . S
C2084 C2085 1.400 . S
C2085 C2079 1.491 . S
C2085 C2084 1.400 . S
C2085 C2086 1.398 . S
C2086 H2074 0.950 . S
C2086 C2085 1.398 . S
C2086 C2087 1.391 . S
C2087 H2075 0.950 . S
C2087 C2083 1.393 . S
C2087 C2086 1.391 . S
H2088 C2096 0.950 . S
H2089 C2101 0.950 . S
H2090 C2098 0.950 . S
H2091 C2100 0.950 . S
H2092 C2102 0.950 . S
H2093 C2104 0.950 . S
H2094 C2106 0.950 . S
H2095 C2107 0.950 . S
C2096 H2088 0.950 . S
C2096 C2097 1.386 . S
C2096 C2098 1.391 . S
C2097 C2096 1.386 . S
C2097 C2101 1.393 . S
C2098 H2090 0.950 . S
C2098 C2096 1.391 . S
C2098 C2099 1.400 . S
C2099 C2098 1.400 . S
C2099 C2100 1.398 . S
C2099 C2105 1.491 . S
C2100 H2091 0.950 . S
C2100 C2099 1.398 . S
C2100 C2101 1.391 . S
C2101 H2089 0.950 . S
C2101 C2097 1.393 . S
C2101 C2100 1.391 . S
C2102 H2092 0.950 . S
C2102 C2103 1.386 . S
C2102 C2104 1.391 . S
C2103 C2102 1.386 . S
C2103 C2107 1.393 . S
C2104 H2093 0.950 . S
C2104 C2102 1.391 . S
C2104 C2105 1.400 . S
C2105 C2099 1.491 . S
C2105 C2104 1.400 . S
C2105 C2106 1.398 . S
C2106 H2094 0.950 . S
C2106 C2105 1.398 . S
C2106 C2107 1.391 . S
C2107 H2095 0.950 . S
C2107 C2103 1.393 . S
C2107 C2106 1.391 . S
H2108 C2116 0.950 . S
H2109 C2121 0.950 . S
H2110 C2118 0.950 . S
H2111 C2120 0.950 . S
H2112 C2122 0.950 . S
H2113 C2124 0.950 . S
H2114 C2126 0.950 . S
H2115 C2127 0.950 . S
C2116 H2108 0.950 . S
C2116 C2117 1.386 . S
C2116 C2118 1.391 . S
C2117 C2116 1.386 . S
C2117 C2121 1.393 . S
C2118 H2110 0.950 . S
C2118 C2116 1.391 . S
C2118 C2119 1.400 . S
C2119 C2118 1.400 . S
C2119 C2120 1.398 . S
C2119 C2125 1.491 . S
C2120 H2111 0.950 . S
C2120 C2119 1.398 . S
C2120 C2121 1.391 . S
C2121 H2109 0.950 . S
C2121 C2117 1.393 . S
C2121 C2120 1.391 . S
C2122 H2112 0.950 . S
C2122 C2123 1.386 . S
C2122 C2124 1.391 . S
C2123 C2122 1.386 . S
C2123 C2127 1.393 . S
C2124 H2113 0.950 . S
C2124 C2122 1.391 . S
C2124 C2125 1.400 . S
C2125 C2119 1.491 . S
C2125 C2124 1.400 . S
C2125 C2126 1.398 . S
C2126 H2114 0.950 . S
C2126 C2125 1.398 . S
C2126 C2127 1.391 . S
C2127 H2115 0.950 . S
C2127 C2123 1.393 . S
C2127 C2126 1.391 . S
H2128 C2136 0.950 . S
H2129 C2141 0.950 1_545 S
H2130 C2138 0.950 . S
H2131 C2140 0.950 . S
H2132 C2142 0.950 . S
H2133 C2144 0.950 . S
H2134 C2146 0.950 . S
H2135 C2147 0.950 . S
C2136 H2128 0.950 . S
C2136 C2137 1.386 . S
C2136 C2138 1.391 . S
C2137 C2136 1.386 . S
C2137 C2141 1.393 . S
C2138 H2130 0.950 . S
C2138 C2136 1.391 . S
C2138 C2139 1.400 . S
C2139 C2138 1.400 . S
C2139 C2140 1.398 . S
C2139 C2145 1.491 . S
C2140 H2131 0.950 . S
C2140 C2139 1.398 . S
C2140 C2141 1.391 . S
C2141 H2129 0.950 1_565 S
C2141 C2137 1.393 . S
C2141 C2140 1.391 . S
C2142 H2132 0.950 . S
C2142 C2143 1.386 . S
C2142 C2144 1.391 . S
C2143 C2142 1.386 . S
C2143 C2147 1.393 . S
C2144 H2133 0.950 . S
C2144 C2142 1.391 . S
C2144 C2145 1.400 . S
C2145 C2139 1.491 . S
C2145 C2144 1.400 . S
C2145 C2146 1.398 . S
C2146 H2134 0.950 . S
C2146 C2145 1.398 . S
C2146 C2147 1.391 . S
C2147 H2135 0.950 . S
C2147 C2143 1.393 . S
C2147 C2146 1.391 . S
H2148 C2156 0.950 . S
H2149 C2161 0.950 . S
H2150 C2158 0.950 . S
H2151 C2160 0.950 . S
H2152 C2162 0.950 . S
H2153 C2164 0.950 . S
H2154 C2166 0.950 . S
H2155 C2167 0.950 . S
C2156 H2148 0.950 . S
C2156 C2157 1.386 . S
C2156 C2158 1.391 . S
C2157 C2156 1.386 . S
C2157 C2161 1.393 . S
C2158 H2150 0.950 . S
C2158 C2156 1.391 . S
C2158 C2159 1.400 . S
C2159 C2158 1.400 . S
C2159 C2160 1.398 . S
C2159 C2165 1.491 . S
C2160 H2151 0.950 . S
C2160 C2159 1.398 . S
C2160 C2161 1.391 . S
C2161 H2149 0.950 . S
C2161 C2157 1.393 . S
C2161 C2160 1.391 . S
C2162 H2152 0.950 . S
C2162 C2163 1.386 . S
C2162 C2164 1.391 . S
C2163 C2162 1.386 . S
C2163 C2167 1.393 . S
C2164 H2153 0.950 . S
C2164 C2162 1.391 . S
C2164 C2165 1.400 . S
C2165 C2159 1.491 . S
C2165 C2164 1.400 . S
C2165 C2166 1.398 . S
C2166 H2154 0.950 . S
C2166 C2165 1.398 . S
C2166 C2167 1.391 . S
C2167 H2155 0.950 . S
C2167 C2163 1.393 . S
C2167 C2166 1.391 . S
H2168 C2176 0.950 . S
H2169 C2181 0.950 . S
H2170 C2178 0.950 . S
H2171 C2180 0.950 . S
H2172 C2182 0.950 1_565 S
H2173 C2184 0.950 . S
H2174 C2186 0.950 . S
H2175 C2187 0.950 . S
C2176 H2168 0.950 . S
C2176 C2177 1.386 . S
C2176 C2178 1.391 . S
C2177 C2176 1.386 . S
C2177 C2181 1.393 . S
C2178 H2170 0.950 . S
C2178 C2176 1.391 . S
C2178 C2179 1.400 . S
C2179 C2178 1.400 . S
C2179 C2180 1.398 . S
C2179 C2185 1.491 . S
C2180 H2171 0.950 . S
C2180 C2179 1.398 . S
C2180 C2181 1.391 . S
C2181 H2169 0.950 . S
C2181 C2177 1.393 . S
C2181 C2180 1.391 . S
C2182 H2172 0.950 1_545 S
C2182 C2183 1.386 . S
C2182 C2184 1.391 . S
C2183 C2182 1.386 . S
C2183 C2187 1.393 . S
C2184 H2173 0.950 . S
C2184 C2182 1.391 . S
C2184 C2185 1.400 . S
C2185 C2179 1.491 . S
C2185 C2184 1.400 . S
C2185 C2186 1.398 . S
C2186 H2174 0.950 . S
C2186 C2185 1.398 . S
C2186 C2187 1.391 . S
C2187 H2175 0.950 . S
C2187 C2183 1.393 . S
C2187 C2186 1.391 . S
H2188 C2196 0.950 . S
H2189 C2201 0.945 1_565 S
H2190 C2198 0.950 . S
H2191 C2200 0.950 . S
H2192 C2202 0.950 . S
H2193 C2204 0.950 . S
H2194 C2206 0.950 . S
H2195 C2207 0.950 . S
C2196 H2188 0.950 . S
C2196 C2197 1.386 . S
C2196 C2198 1.391 . S
C2197 C2196 1.386 . S
C2197 C2201 1.393 . S
C2198 H2190 0.950 . S
C2198 C2196 1.391 . S
C2198 C2199 1.400 . S
C2199 C2198 1.400 . S
C2199 C2200 1.398 . S
C2199 C2205 1.491 . S
C2200 H2191 0.950 . S
C2200 C2199 1.398 . S
C2200 C2201 1.391 . S
C2201 H2189 0.945 1_545 S
C2201 C2197 1.393 . S
C2201 C2200 1.391 . S
C2202 H2192 0.950 . S
C2202 C2203 1.386 . S
C2202 C2204 1.391 . S
C2203 C2202 1.386 . S
C2203 C2207 1.393 . S
C2204 H2193 0.950 . S
C2204 C2202 1.391 . S
C2204 C2205 1.400 . S
C2205 C2199 1.491 . S
C2205 C2204 1.400 . S
C2205 C2206 1.398 . S
C2206 H2194 0.950 . S
C2206 C2205 1.398 . S
C2206 C2207 1.391 . S
C2207 H2195 0.950 . S
C2207 C2203 1.393 . S
C2207 C2206 1.391 . S
H2208 C2216 0.950 . S
H2209 C2221 0.950 . S
H2210 C2218 0.950 . S
H2211 C2220 0.950 . S
H2212 C2222 0.950 . S
H2213 C2224 0.950 . S
H2214 C2226 0.950 . S
H2215 C2227 0.950 . S
C2216 H2208 0.950 . S
C2216 C2217 1.386 . S
C2216 C2218 1.391 . S
C2217 C2216 1.386 . S
C2217 C2221 1.393 . S
C2218 H2210 0.950 . S
C2218 C2216 1.391 . S
C2218 C2219 1.400 . S
C2219 C2218 1.400 . S
C2219 C2220 1.398 . S
C2219 C2225 1.491 . S
C2220 H2211 0.950 . S
C2220 C2219 1.398 . S
C2220 C2221 1.391 . S
C2221 H2209 0.950 . S
C2221 C2217 1.393 . S
C2221 C2220 1.391 . S
C2222 H2212 0.950 . S
C2222 C2223 1.386 . S
C2222 C2224 1.391 . S
C2223 C2222 1.386 . S
C2223 C2227 1.393 . S
C2224 H2213 0.950 . S
C2224 C2222 1.391 . S
C2224 C2225 1.400 . S
C2225 C2219 1.491 . S
C2225 C2224 1.400 . S
C2225 C2226 1.398 . S
C2226 H2214 0.950 . S
C2226 C2225 1.398 . S
C2226 C2227 1.391 . S
C2227 H2215 0.950 . S
C2227 C2223 1.393 . S
C2227 C2226 1.391 . S
H2228 C2236 0.950 . S
H2229 C2241 0.950 . S
H2230 C2238 0.950 . S
H2231 C2240 0.950 . S
H2232 C2242 0.950 . S
H2233 C2244 0.950 . S
H2234 C2246 0.950 . S
H2235 C2247 0.950 . S
C2236 H2228 0.950 . S
C2236 C2237 1.386 . S
C2236 C2238 1.391 . S
C2237 C2236 1.386 . S
C2237 C2241 1.393 . S
C2238 H2230 0.950 . S
C2238 C2236 1.391 . S
C2238 C2239 1.400 . S
C2239 C2238 1.400 . S
C2239 C2240 1.398 . S
C2239 C2245 1.491 . S
C2240 H2231 0.950 . S
C2240 C2239 1.398 . S
C2240 C2241 1.391 . S
C2241 H2229 0.950 . S
C2241 C2237 1.393 . S
C2241 C2240 1.391 . S
C2242 H2232 0.950 . S
C2242 C2243 1.386 . S
C2242 C2244 1.391 . S
C2243 C2242 1.386 . S
C2243 C2247 1.393 . S
C2244 H2233 0.950 . S
C2244 C2242 1.391 . S
C2244 C2245 1.400 . S
C2245 C2239 1.491 . S
C2245 C2244 1.400 . S
C2245 C2246 1.398 . S
C2246 H2234 0.950 . S
C2246 C2245 1.398 . S
C2246 C2247 1.391 . S
C2247 H2235 0.950 . S
C2247 C2243 1.393 . S
C2247 C2246 1.391 . S
H2248 C2256 0.950 . S
H2249 C2261 0.950 . S
H2250 C2258 0.950 . S
H2251 C2260 0.950 . S
H2252 C2262 0.950 . S
H2253 C2264 0.950 . S
H2254 C2266 0.950 . S
H2255 C2267 0.950 . S
C2256 H2248 0.950 . S
C2256 C2257 1.386 . S
C2256 C2258 1.391 . S
C2257 C2256 1.386 . S
C2257 C2261 1.393 . S
C2258 H2250 0.950 . S
C2258 C2256 1.391 . S
C2258 C2259 1.400 . S
C2259 C2258 1.400 . S
C2259 C2260 1.398 . S
C2259 C2265 1.491 . S
C2260 H2251 0.950 . S
C2260 C2259 1.398 . S
C2260 C2261 1.391 . S
C2261 H2249 0.950 . S
C2261 C2257 1.393 . S
C2261 C2260 1.391 . S
C2262 H2252 0.950 . S
C2262 C2263 1.386 . S
C2262 C2264 1.391 . S
C2263 C2262 1.386 . S
C2263 C2267 1.393 . S
C2264 H2253 0.950 . S
C2264 C2262 1.391 . S
C2264 C2265 1.400 . S
C2265 C2259 1.491 . S
C2265 C2264 1.400 . S
C2265 C2266 1.398 . S
C2266 H2254 0.950 . S
C2266 C2265 1.398 . S
C2266 C2267 1.391 . S
C2267 H2255 0.950 . S
C2267 C2263 1.393 . S
C2267 C2266 1.391 . S
H2268 C2276 0.950 . S
H2269 C2281 0.950 . S
H2270 C2278 0.950 . S
H2271 C2280 0.950 . S
H2272 C2282 0.950 . S
H2273 C2284 0.950 . S
H2274 C2286 0.950 . S
H2275 C2287 0.950 . S
C2276 H2268 0.950 . S
C2276 C2277 1.386 . S
C2276 C2278 1.391 . S
C2277 C2276 1.386 . S
C2277 C2281 1.393 . S
C2278 H2270 0.950 . S
C2278 C2276 1.391 . S
C2278 C2279 1.400 . S
C2279 C2278 1.400 . S
C2279 C2280 1.398 . S
C2279 C2285 1.491 . S
C2280 H2271 0.950 . S
C2280 C2279 1.398 . S
C2280 C2281 1.391 . S
C2281 H2269 0.950 . S
C2281 C2277 1.393 . S
C2281 C2280 1.391 . S
C2282 H2272 0.950 . S
C2282 C2283 1.386 . S
C2282 C2284 1.391 . S
C2283 C2282 1.386 . S
C2283 C2287 1.393 . S
C2284 H2273 0.950 . S
C2284 C2282 1.391 . S
C2284 C2285 1.400 . S
C2285 C2279 1.491 . S
C2285 C2284 1.400 . S
C2285 C2286 1.398 . S
C2286 H2274 0.950 . S
C2286 C2285 1.398 . S
C2286 C2287 1.391 . S
C2287 H2275 0.950 . S
C2287 C2283 1.393 . S
C2287 C2286 1.391 . S
H2288 C2296 0.950 . S
H2289 C2301 0.950 . S
H2290 C2298 0.950 . S
H2291 C2300 0.950 . S
H2292 C2302 0.950 . S
H2293 C2304 0.950 . S
H2294 C2306 0.950 . S
H2295 C2307 0.950 . S
C2296 H2288 0.950 . S
C2296 C2297 1.386 . S
C2296 C2298 1.391 . S
C2297 C2296 1.386 . S
C2297 C2301 1.393 . S
C2298 H2290 0.950 . S
C2298 C2296 1.391 . S
C2298 C2299 1.400 . S
C2299 C2298 1.400 . S
C2299 C2300 1.398 . S
C2299 C2305 1.491 . S
C2300 H2291 0.950 . S
C2300 C2299 1.398 . S
C2300 C2301 1.391 . S
C2301 H2289 0.950 . S
C2301 C2297 1.393 . S
C2301 C2300 1.391 . S
C2302 H2292 0.950 . S
C2302 C2303 1.386 . S
C2302 C2304 1.391 . S
C2303 C2302 1.386 . S
C2303 C2307 1.393 . S
C2304 H2293 0.950 . S
C2304 C2302 1.391 . S
C2304 C2305 1.400 . S
C2305 C2299 1.491 . S
C2305 C2304 1.400 . S
C2305 C2306 1.398 . S
C2306 H2294 0.950 . S
C2306 C2305 1.398 . S
C2306 C2307 1.391 . S
C2307 H2295 0.950 . S
C2307 C2303 1.393 . S
C2307 C2306 1.391 . S
H2308 C2316 0.950 . S
H2309 C2321 0.950 . S
H2310 C2318 0.950 . S
H2311 C2320 0.950 . S
H2312 C2322 0.950 . S
H2313 C2324 0.950 . S
H2314 C2326 0.950 . S
H2315 C2327 0.950 . S
C2316 H2308 0.950 . S
C2316 C2317 1.386 . S
C2316 C2318 1.391 . S
C2317 C2316 1.386 . S
C2317 C2321 1.393 . S
C2318 H2310 0.950 . S
C2318 C2316 1.391 . S
C2318 C2319 1.400 . S
C2319 C2318 1.400 . S
C2319 C2320 1.398 . S
C2319 C2325 1.491 . S
C2320 H2311 0.950 . S
C2320 C2319 1.398 . S
C2320 C2321 1.391 . S
C2321 H2309 0.950 . S
C2321 C2317 1.393 . S
C2321 C2320 1.391 . S
C2322 H2312 0.950 . S
C2322 C2323 1.386 . S
C2322 C2324 1.391 . S
C2323 C2322 1.386 . S
C2323 C2327 1.393 . S
C2324 H2313 0.950 . S
C2324 C2322 1.391 . S
C2324 C2325 1.400 . S
C2325 C2319 1.491 . S
C2325 C2324 1.400 . S
C2325 C2326 1.398 . S
C2326 H2314 0.950 . S
C2326 C2325 1.398 . S
C2326 C2327 1.391 . S
C2327 H2315 0.950 . S
C2327 C2323 1.393 . S
C2327 C2326 1.391 . S
H2328 C2336 0.950 . S
H2329 C2341 0.950 . S
H2330 C2338 0.950 . S
H2331 C2340 0.950 . S
H2332 C2342 0.950 . S
H2333 C2344 0.950 . S
H2334 C2346 0.950 . S
H2335 C2347 0.950 . S
C2336 H2328 0.950 . S
C2336 C2337 1.386 . S
C2336 C2338 1.391 . S
C2337 C2336 1.386 . S
C2337 C2341 1.393 . S
C2338 H2330 0.950 . S
C2338 C2336 1.391 . S
C2338 C2339 1.400 . S
C2339 C2338 1.400 . S
C2339 C2340 1.398 . S
C2339 C2345 1.491 . S
C2340 H2331 0.950 . S
C2340 C2339 1.398 . S
C2340 C2341 1.391 . S
C2341 H2329 0.950 . S
C2341 C2337 1.393 . S
C2341 C2340 1.391 . S
C2342 H2332 0.950 . S
C2342 C2343 1.386 . S
C2342 C2344 1.391 . S
C2343 C2342 1.386 . S
C2343 C2347 1.393 . S
C2344 H2333 0.950 . S
C2344 C2342 1.391 . S
C2344 C2345 1.400 . S
C2345 C2339 1.491 . S
C2345 C2344 1.400 . S
C2345 C2346 1.398 . S
C2346 H2334 0.950 . S
C2346 C2345 1.398 . S
C2346 C2347 1.391 . S
C2347 H2335 0.950 . S
C2347 C2343 1.393 . S
C2347 C2346 1.391 . S
H2348 C2356 0.950 . S
H2349 C2361 0.950 . S
H2350 C2358 0.950 . S
H2351 C2360 0.950 . S
H2352 C2362 0.950 . S
H2353 C2364 0.950 . S
H2354 C2366 0.950 . S
H2355 C2367 0.950 . S
C2356 H2348 0.950 . S
C2356 C2357 1.386 . S
C2356 C2358 1.391 . S
C2357 C2356 1.386 . S
C2357 C2361 1.393 . S
C2358 H2350 0.950 . S
C2358 C2356 1.391 . S
C2358 C2359 1.400 . S
C2359 C2358 1.400 . S
C2359 C2360 1.398 . S
C2359 C2365 1.491 . S
C2360 H2351 0.950 . S
C2360 C2359 1.398 . S
C2360 C2361 1.391 . S
C2361 H2349 0.950 . S
C2361 C2357 1.393 . S
C2361 C2360 1.391 . S
C2362 H2352 0.950 . S
C2362 C2363 1.386 . S
C2362 C2364 1.391 . S
C2363 C2362 1.386 . S
C2363 C2367 1.393 . S
C2364 H2353 0.950 . S
C2364 C2362 1.391 . S
C2364 C2365 1.400 . S
C2365 C2359 1.491 . S
C2365 C2364 1.400 . S
C2365 C2366 1.398 . S
C2366 H2354 0.950 . S
C2366 C2365 1.398 . S
C2366 C2367 1.391 . S
C2367 H2355 0.950 . S
C2367 C2363 1.393 . S
C2367 C2366 1.391 . S
H2368 C2376 0.950 . S
H2369 C2381 0.950 . S
H2370 C2378 0.950 . S
H2371 C2380 0.950 . S
H2372 C2382 0.950 . S
H2373 C2384 0.950 . S
H2374 C2386 0.950 . S
H2375 C2387 0.950 . S
C2376 H2368 0.950 . S
C2376 C2377 1.386 . S
C2376 C2378 1.391 . S
C2377 C2376 1.386 . S
C2377 C2381 1.393 . S
C2378 H2370 0.950 . S
C2378 C2376 1.391 . S
C2378 C2379 1.400 . S
C2379 C2378 1.400 . S
C2379 C2380 1.398 . S
C2379 C2385 1.491 . S
C2380 H2371 0.950 . S
C2380 C2379 1.398 . S
C2380 C2381 1.391 . S
C2381 H2369 0.950 . S
C2381 C2377 1.393 . S
C2381 C2380 1.391 . S
C2382 H2372 0.950 . S
C2382 C2383 1.386 . S
C2382 C2384 1.391 . S
C2383 C2382 1.386 . S
C2383 C2387 1.393 . S
C2384 H2373 0.950 . S
C2384 C2382 1.391 . S
C2384 C2385 1.400 . S
C2385 C2379 1.491 . S
C2385 C2384 1.400 . S
C2385 C2386 1.398 . S
C2386 H2374 0.950 . S
C2386 C2385 1.398 . S
C2386 C2387 1.391 . S
C2387 H2375 0.950 . S
C2387 C2383 1.393 . S
C2387 C2386 1.391 . S
H2388 C2396 0.950 . S
H2389 C2401 0.948 1_545 S
H2390 C2398 0.951 1_655 S
H2391 C2400 0.950 . S
H2392 C2402 0.950 . S
H2393 C2404 0.951 1_455 S
H2394 C2406 0.950 . S
H2395 C2407 0.948 1_565 S
C2396 H2388 0.950 . S
C2396 C2397 1.386 . S
C2396 C2398 1.390 . S
C2397 C2396 1.386 . S
C2397 C2401 1.396 . S
C2398 H2390 0.951 1_455 S
C2398 C2396 1.390 . S
C2398 C2399 1.400 . S
C2399 C2398 1.400 . S
C2399 C2400 1.398 1_565 S
C2399 C2405 1.491 1_465 S
C2400 H2391 0.950 . S
C2400 C2399 1.398 1_545 S
C2400 C2401 1.389 1_545 S
C2401 H2389 0.948 1_565 S
C2401 C2397 1.396 . S
C2401 C2400 1.389 1_565 S
C2402 H2392 0.950 . S
C2402 C2403 1.386 . S
C2402 C2404 1.390 . S
C2403 C2402 1.386 . S
C2403 C2407 1.396 . S
C2404 H2393 0.951 1_655 S
C2404 C2402 1.390 . S
C2404 C2405 1.400 . S
C2405 C2399 1.491 1_645 S
C2405 C2404 1.400 . S
C2405 C2406 1.398 1_545 S
C2406 H2394 0.950 . S
C2406 C2405 1.398 1_565 S
C2406 C2407 1.389 1_565 S
C2407 H2395 0.948 1_545 S
C2407 C2403 1.396 . S
C2407 C2406 1.389 1_545 S
H2408 C2416 0.950 . S
H2409 C2421 0.950 . S
H2410 C2418 0.950 . S
H2411 C2420 0.950 . S
H2412 C2422 0.950 . S
H2413 C2424 0.950 . S
H2414 C2426 0.950 . S
H2415 C2427 0.950 . S
C2416 H2408 0.950 . S
C2416 C2417 1.386 . S
C2416 C2418 1.391 . S
C2417 C2416 1.386 . S
C2417 C2421 1.393 . S
C2418 H2410 0.950 . S
C2418 C2416 1.391 . S
C2418 C2419 1.400 . S
C2419 C2418 1.400 . S
C2419 C2420 1.398 . S
C2419 C2425 1.491 . S
C2420 H2411 0.950 . S
C2420 C2419 1.398 . S
C2420 C2421 1.391 . S
C2421 H2409 0.950 . S
C2421 C2417 1.393 . S
C2421 C2420 1.391 . S
C2422 H2412 0.950 . S
C2422 C2423 1.386 . S
C2422 C2424 1.391 . S
C2423 C2422 1.386 . S
C2423 C2427 1.393 . S
C2424 H2413 0.950 . S
C2424 C2422 1.391 . S
C2424 C2425 1.400 . S
C2425 C2419 1.491 . S
C2425 C2424 1.400 . S
C2425 C2426 1.398 . S
C2426 H2414 0.950 . S
C2426 C2425 1.398 . S
C2426 C2427 1.391 . S
C2427 H2415 0.950 . S
C2427 C2423 1.393 . S
C2427 C2426 1.391 . S
H2428 C2436 0.950 . S
H2429 C2441 0.950 . S
H2430 C2438 0.950 . S
H2431 C2440 0.950 . S
H2432 C2442 0.950 . S
H2433 C2444 0.950 . S
H2434 C2446 0.950 . S
H2435 C2447 0.950 . S
C2436 H2428 0.950 . S
C2436 C2437 1.386 1_565 S
C2436 C2438 1.391 . S
C2437 C2436 1.386 1_545 S
C2437 C2441 1.393 . S
C2438 H2430 0.950 . S
C2438 C2436 1.391 . S
C2438 C2439 1.400 1_565 S
C2439 C2438 1.400 1_545 S
C2439 C2440 1.398 . S
C2439 C2445 1.491 1_544 S
C2440 H2431 0.950 . S
C2440 C2439 1.398 . S
C2440 C2441 1.391 . S
C2441 H2429 0.950 . S
C2441 C2437 1.393 . S
C2441 C2440 1.391 . S
C2442 H2432 0.950 . S
C2442 C2443 1.386 1_545 S
C2442 C2444 1.391 . S
C2443 C2442 1.386 1_565 S
C2443 C2447 1.393 . S
C2444 H2433 0.950 . S
C2444 C2442 1.391 . S
C2444 C2445 1.400 1_545 S
C2445 C2439 1.491 1_566 S
C2445 C2444 1.400 1_565 S
C2445 C2446 1.398 . S
C2446 H2434 0.950 . S
C2446 C2445 1.398 . S
C2446 C2447 1.391 . S
C2447 H2435 0.950 . S
C2447 C2443 1.393 . S
C2447 C2446 1.391 . S
H2448 C2456 0.950 . S
H2449 C2461 0.950 . S
H2450 C2458 0.950 . S
H2451 C2460 0.950 . S
H2452 C2462 0.950 . S
H2453 C2464 0.950 . S
H2454 C2466 0.950 . S
H2455 C2467 0.950 . S
C2456 H2448 0.950 . S
C2456 C2457 1.386 . S
C2456 C2458 1.391 . S
C2457 C2456 1.386 . S
C2457 C2461 1.393 . S
C2458 H2450 0.950 . S
C2458 C2456 1.391 . S
C2458 C2459 1.400 . S
C2459 C2458 1.400 . S
C2459 C2460 1.398 . S
C2459 C2465 1.491 . S
C2460 H2451 0.950 . S
C2460 C2459 1.398 . S
C2460 C2461 1.391 . S
C2461 H2449 0.950 . S
C2461 C2457 1.393 . S
C2461 C2460 1.391 . S
C2462 H2452 0.950 . S
C2462 C2463 1.386 . S
C2462 C2464 1.391 . S
C2463 C2462 1.386 . S
C2463 C2467 1.393 . S
C2464 H2453 0.950 . S
C2464 C2462 1.391 . S
C2464 C2465 1.400 . S
C2465 C2459 1.491 . S
C2465 C2464 1.400 . S
C2465 C2466 1.398 . S
C2466 H2454 0.950 . S
C2466 C2465 1.398 . S
C2466 C2467 1.391 . S
C2467 H2455 0.950 . S
C2467 C2463 1.393 . S
C2467 C2466 1.391 . S
H2468 C2476 0.950 . S
H2469 C2481 0.950 . S
H2470 C2478 0.950 . S
H2471 C2480 0.950 . S
H2472 C2482 0.950 . S
H2473 C2484 0.950 . S
H2474 C2486 0.950 . S
H2475 C2487 0.950 . S
C2476 H2468 0.950 . S
C2476 C2477 1.386 1_565 S
C2476 C2478 1.391 . S
C2477 C2476 1.386 1_545 S
C2477 C2481 1.393 . S
C2478 H2470 0.950 . S
C2478 C2476 1.391 . S
C2478 C2479 1.400 1_565 S
C2479 C2478 1.400 1_545 S
C2479 C2480 1.398 . S
C2479 C2485 1.491 1_545 S
C2480 H2471 0.950 . S
C2480 C2479 1.398 . S
C2480 C2481 1.391 . S
C2481 H2469 0.950 . S
C2481 C2477 1.393 . S
C2481 C2480 1.391 . S
C2482 H2472 0.950 . S
C2482 C2483 1.386 1_545 S
C2482 C2484 1.391 . S
C2483 C2482 1.386 1_565 S
C2483 C2487 1.393 . S
C2484 H2473 0.950 . S
C2484 C2482 1.391 . S
C2484 C2485 1.400 1_545 S
C2485 C2479 1.491 1_565 S
C2485 C2484 1.400 1_565 S
C2485 C2486 1.398 . S
C2486 H2474 0.950 . S
C2486 C2485 1.398 . S
C2486 C2487 1.391 . S
C2487 H2475 0.950 . S
C2487 C2483 1.393 . S
C2487 C2486 1.391 . S
H2488 C2496 0.950 . S
H2489 C2501 0.950 . S
H2490 C2498 0.950 . S
H2491 C2500 0.950 . S
H2492 C2502 0.950 . S
H2493 C2504 0.950 . S
H2494 C2506 0.950 . S
H2495 C2507 0.950 . S
C2496 H2488 0.950 . S
C2496 C2497 1.386 . S
C2496 C2498 1.391 . S
C2497 C2496 1.386 . S
C2497 C2501 1.393 . S
C2498 H2490 0.950 . S
C2498 C2496 1.391 . S
C2498 C2499 1.400 . S
C2499 C2498 1.400 . S
C2499 C2500 1.398 . S
C2499 C2505 1.491 . S
C2500 H2491 0.950 . S
C2500 C2499 1.398 . S
C2500 C2501 1.391 . S
C2501 H2489 0.950 . S
C2501 C2497 1.393 . S
C2501 C2500 1.391 . S
C2502 H2492 0.950 . S
C2502 C2503 1.386 . S
C2502 C2504 1.391 . S
C2503 C2502 1.386 . S
C2503 C2507 1.393 . S
C2504 H2493 0.950 . S
C2504 C2502 1.391 . S
C2504 C2505 1.400 . S
C2505 C2499 1.491 . S
C2505 C2504 1.400 . S
C2505 C2506 1.398 . S
C2506 H2494 0.950 . S
C2506 C2505 1.398 . S
C2506 C2507 1.391 . S
C2507 H2495 0.950 . S
C2507 C2503 1.393 . S
C2507 C2506 1.391 . S
H2508 C2516 0.950 . S
H2509 C2521 0.950 . S
H2510 C2518 0.950 1_455 S
H2511 C2520 0.950 . S
H2512 C2522 0.950 . S
H2513 C2524 0.950 1_655 S
H2514 C2526 0.950 . S
H2515 C2527 0.950 . S
C2516 H2508 0.950 . S
C2516 C2517 1.386 . S
C2516 C2518 1.391 . S
C2517 C2516 1.386 . S
C2517 C2521 1.393 1_565 S
C2518 H2510 0.950 1_655 S
C2518 C2516 1.391 . S
C2518 C2519 1.400 . S
C2519 C2518 1.400 . S
C2519 C2520 1.398 1_565 S
C2519 C2525 1.491 1_664 S
C2520 H2511 0.950 . S
C2520 C2519 1.398 1_545 S
C2520 C2521 1.391 . S
C2521 H2509 0.950 . S
C2521 C2517 1.393 1_545 S
C2521 C2520 1.391 . S
C2522 H2512 0.950 . S
C2522 C2523 1.386 . S
C2522 C2524 1.391 . S
C2523 C2522 1.386 . S
C2523 C2527 1.393 1_545 S
C2524 H2513 0.950 1_455 S
C2524 C2522 1.391 . S
C2524 C2525 1.400 . S
C2525 C2519 1.491 1_446 S
C2525 C2524 1.400 . S
C2525 C2526 1.398 1_545 S
C2526 H2514 0.950 . S
C2526 C2525 1.398 1_565 S
C2526 C2527 1.391 . S
C2527 H2515 0.950 . S
C2527 C2523 1.393 1_565 S
C2527 C2526 1.391 . S
H2528 C2536 0.950 . S
H2529 C2541 0.950 . S
H2530 C2538 0.950 . S
H2531 C2540 0.950 . S
H2532 C2542 0.950 . S
H2533 C2544 0.950 . S
H2534 C2546 0.950 . S
H2535 C2547 0.950 . S
C2536 H2528 0.950 . S
C2536 C2537 1.386 . S
C2536 C2538 1.391 . S
C2537 C2536 1.386 . S
C2537 C2541 1.393 . S
C2538 H2530 0.950 . S
C2538 C2536 1.391 . S
C2538 C2539 1.400 . S
C2539 C2538 1.400 . S
C2539 C2540 1.398 . S
C2539 C2545 1.491 . S
C2540 H2531 0.950 . S
C2540 C2539 1.398 . S
C2540 C2541 1.391 . S
C2541 H2529 0.950 . S
C2541 C2537 1.393 . S
C2541 C2540 1.391 . S
C2542 H2532 0.950 . S
C2542 C2543 1.386 . S
C2542 C2544 1.391 . S
C2543 C2542 1.386 . S
C2543 C2547 1.393 . S
C2544 H2533 0.950 . S
C2544 C2542 1.391 . S
C2544 C2545 1.400 . S
C2545 C2539 1.491 . S
C2545 C2544 1.400 . S
C2545 C2546 1.398 . S
C2546 H2534 0.950 . S
C2546 C2545 1.398 . S
C2546 C2547 1.391 . S
C2547 H2535 0.950 . S
C2547 C2543 1.393 . S
C2547 C2546 1.391 . S
H2548 C2556 0.950 . S
H2549 C2561 0.950 . S
H2550 C2558 0.950 . S
H2551 C2560 0.950 . S
H2552 C2562 0.950 . S
H2553 C2564 0.950 . S
H2554 C2566 0.950 . S
H2555 C2567 0.950 . S
C2556 H2548 0.950 . S
C2556 C2557 1.386 . S
C2556 C2558 1.391 . S
C2557 C2556 1.386 . S
C2557 C2561 1.393 . S
C2558 H2550 0.950 . S
C2558 C2556 1.391 . S
C2558 C2559 1.400 . S
C2559 C2558 1.400 . S
C2559 C2560 1.398 . S
C2559 C2565 1.491 . S
C2560 H2551 0.950 . S
C2560 C2559 1.398 . S
C2560 C2561 1.391 . S
C2561 H2549 0.950 . S
C2561 C2557 1.393 . S
C2561 C2560 1.391 . S
C2562 H2552 0.950 . S
C2562 C2563 1.386 . S
C2562 C2564 1.391 . S
C2563 C2562 1.386 . S
C2563 C2567 1.393 . S
C2564 H2553 0.950 . S
C2564 C2562 1.391 . S
C2564 C2565 1.400 . S
C2565 C2559 1.491 . S
C2565 C2564 1.400 . S
C2565 C2566 1.398 . S
C2566 H2554 0.950 . S
C2566 C2565 1.398 . S
C2566 C2567 1.391 . S
C2567 H2555 0.950 . S
C2567 C2563 1.393 . S
C2567 C2566 1.391 . S
H2568 C2576 0.950 . S
H2569 C2581 0.950 . S
H2570 C2578 0.950 . S
H2571 C2580 0.950 . S
H2572 C2582 0.950 . S
H2573 C2584 0.950 . S
H2574 C2586 0.950 . S
H2575 C2587 0.950 . S
C2576 H2568 0.950 . S
C2576 C2577 1.386 . S
C2576 C2578 1.391 . S
C2577 C2576 1.386 . S
C2577 C2581 1.393 . S
C2578 H2570 0.950 . S
C2578 C2576 1.391 . S
C2578 C2579 1.400 . S
C2579 C2578 1.400 . S
C2579 C2580 1.398 . S
C2579 C2585 1.491 . S
C2580 H2571 0.950 . S
C2580 C2579 1.398 . S
C2580 C2581 1.391 . S
C2581 H2569 0.950 . S
C2581 C2577 1.393 . S
C2581 C2580 1.391 . S
C2582 H2572 0.950 . S
C2582 C2583 1.386 . S
C2582 C2584 1.391 . S
C2583 C2582 1.386 . S
C2583 C2587 1.393 . S
C2584 H2573 0.950 . S
C2584 C2582 1.391 . S
C2584 C2585 1.400 . S
C2585 C2579 1.491 . S
C2585 C2584 1.400 . S
C2585 C2586 1.398 . S
C2586 H2574 0.950 . S
C2586 C2585 1.398 . S
C2586 C2587 1.391 . S
C2587 H2575 0.950 . S
C2587 C2583 1.393 . S
C2587 C2586 1.391 . S
H2588 C2596 0.950 . S
H2589 C2601 0.950 . S
H2590 C2598 0.950 . S
H2591 C2600 0.950 . S
H2592 C2602 0.950 . S
H2593 C2604 0.950 . S
H2594 C2606 0.950 . S
H2595 C2607 0.950 . S
C2596 H2588 0.950 . S
C2596 C2597 1.386 . S
C2596 C2598 1.391 . S
C2597 C2596 1.386 . S
C2597 C2601 1.393 . S
C2598 H2590 0.950 . S
C2598 C2596 1.391 . S
C2598 C2599 1.400 . S
C2599 C2598 1.400 . S
C2599 C2600 1.398 . S
C2599 C2605 1.491 . S
C2600 H2591 0.950 . S
C2600 C2599 1.398 . S
C2600 C2601 1.391 . S
C2601 H2589 0.950 . S
C2601 C2597 1.393 . S
C2601 C2600 1.391 . S
C2602 H2592 0.950 . S
C2602 C2603 1.386 . S
C2602 C2604 1.391 . S
C2603 C2602 1.386 . S
C2603 C2607 1.393 . S
C2604 H2593 0.950 . S
C2604 C2602 1.391 . S
C2604 C2605 1.400 . S
C2605 C2599 1.491 . S
C2605 C2604 1.400 . S
C2605 C2606 1.398 . S
C2606 H2594 0.950 . S
C2606 C2605 1.398 . S
C2606 C2607 1.391 . S
C2607 H2595 0.950 . S
C2607 C2603 1.393 . S
C2607 C2606 1.391 . S
H2608 C2616 0.950 . S
H2609 C2621 0.950 . S
H2610 C2618 0.950 1_554 S
H2611 C2620 0.950 . S
H2612 C2622 0.950 . S
H2613 C2624 0.950 1_556 S
H2614 C2626 0.950 . S
H2615 C2627 0.950 . S
C2616 H2608 0.950 . S
C2616 C2617 1.386 . S
C2616 C2618 1.391 . S
C2617 C2616 1.386 . S
C2617 C2621 1.393 . S
C2618 H2610 0.950 1_556 S
C2618 C2616 1.391 . S
C2618 C2619 1.400 . S
C2619 C2618 1.400 . S
C2619 C2620 1.398 . S
C2619 C2625 1.491 1_556 S
C2620 H2611 0.950 . S
C2620 C2619 1.398 . S
C2620 C2621 1.391 . S
C2621 H2609 0.950 . S
C2621 C2617 1.393 . S
C2621 C2620 1.391 . S
C2622 H2612 0.950 . S
C2622 C2623 1.386 . S
C2622 C2624 1.391 . S
C2623 C2622 1.386 . S
C2623 C2627 1.393 . S
C2624 H2613 0.950 1_554 S
C2624 C2622 1.391 . S
C2624 C2625 1.400 . S
C2625 C2619 1.491 1_554 S
C2625 C2624 1.400 . S
C2625 C2626 1.398 . S
C2626 H2614 0.950 . S
C2626 C2625 1.398 . S
C2626 C2627 1.391 . S
C2627 H2615 0.950 . S
C2627 C2623 1.393 . S
C2627 C2626 1.391 . S
H2628 C2636 0.950 . S
H2629 C2641 0.950 . S
H2630 C2638 0.950 . S
H2631 C2640 0.950 1_655 S
H2632 C2642 0.950 . S
H2633 C2644 0.950 . S
H2634 C2646 0.950 1_455 S
H2635 C2647 0.950 . S
C2636 H2628 0.950 . S
C2636 C2637 1.386 . S
C2636 C2638 1.391 . S
C2637 C2636 1.386 . S
C2637 C2641 1.393 . S
C2638 H2630 0.950 . S
C2638 C2636 1.391 . S
C2638 C2639 1.400 . S
C2639 C2638 1.400 . S
C2639 C2640 1.398 . S
C2639 C2645 1.491 1_455 S
C2640 H2631 0.950 1_455 S
C2640 C2639 1.398 . S
C2640 C2641 1.391 . S
C2641 H2629 0.950 . S
C2641 C2637 1.393 . S
C2641 C2640 1.391 . S
C2642 H2632 0.950 . S
C2642 C2643 1.386 . S
C2642 C2644 1.391 . S
C2643 C2642 1.386 . S
C2643 C2647 1.393 . S
C2644 H2633 0.950 . S
C2644 C2642 1.391 . S
C2644 C2645 1.400 . S
C2645 C2639 1.491 1_655 S
C2645 C2644 1.400 . S
C2645 C2646 1.398 . S
C2646 H2634 0.950 1_655 S
C2646 C2645 1.398 . S
C2646 C2647 1.391 . S
C2647 H2635 0.950 . S
C2647 C2643 1.393 . S
C2647 C2646 1.391 . S
H2648 C2656 0.950 . S
H2649 C2661 0.950 . S
H2650 C2658 0.950 . S
H2651 C2660 0.950 . S
H2652 C2662 0.950 . S
H2653 C2664 0.950 . S
H2654 C2666 0.950 . S
H2655 C2667 0.950 . S
C2656 H2648 0.950 . S
C2656 C2657 1.386 . S
C2656 C2658 1.391 . S
C2657 C2656 1.386 . S
C2657 C2661 1.393 . S
C2658 H2650 0.950 . S
C2658 C2656 1.391 . S
C2658 C2659 1.400 . S
C2659 C2658 1.400 . S
C2659 C2660 1.398 . S
C2659 C2665 1.491 1_454 S
C2660 H2651 0.950 . S
C2660 C2659 1.398 . S
C2660 C2661 1.391 . S
C2661 H2649 0.950 . S
C2661 C2657 1.393 . S
C2661 C2660 1.391 . S
C2662 H2652 0.950 . S
C2662 C2663 1.386 . S
C2662 C2664 1.391 . S
C2663 C2662 1.386 . S
C2663 C2667 1.393 . S
C2664 H2653 0.950 . S
C2664 C2662 1.391 . S
C2664 C2665 1.400 . S
C2665 C2659 1.491 1_656 S
C2665 C2664 1.400 . S
C2665 C2666 1.398 . S
C2666 H2654 0.950 . S
C2666 C2665 1.398 . S
C2666 C2667 1.391 . S
C2667 H2655 0.950 . S
C2667 C2663 1.393 . S
C2667 C2666 1.391 . S
H2668 C2676 0.950 . S
H2669 C2681 0.950 . S
H2670 C2678 0.950 . S
H2671 C2680 0.950 . S
H2672 C2682 0.950 . S
H2673 C2684 0.950 . S
H2674 C2686 0.950 . S
H2675 C2687 0.950 . S
C2676 H2668 0.950 . S
C2676 C2677 1.386 . S
C2676 C2678 1.391 . S
C2677 C2676 1.386 . S
C2677 C2681 1.393 . S
C2678 H2670 0.950 . S
C2678 C2676 1.391 . S
C2678 C2679 1.400 . S
C2679 C2678 1.400 . S
C2679 C2680 1.398 . S
C2679 C2685 1.491 . S
C2680 H2671 0.950 . S
C2680 C2679 1.398 . S
C2680 C2681 1.391 . S
C2681 H2669 0.950 . S
C2681 C2677 1.393 . S
C2681 C2680 1.391 . S
C2682 H2672 0.950 . S
C2682 C2683 1.386 . S
C2682 C2684 1.391 . S
C2683 C2682 1.386 . S
C2683 C2687 1.393 . S
C2684 H2673 0.950 . S
C2684 C2682 1.391 . S
C2684 C2685 1.400 . S
C2685 C2679 1.491 . S
C2685 C2684 1.400 . S
C2685 C2686 1.398 . S
C2686 H2674 0.950 . S
C2686 C2685 1.398 . S
C2686 C2687 1.391 . S
C2687 H2675 0.950 . S
C2687 C2683 1.393 . S
C2687 C2686 1.391 . S
C1097 C9 1.468 . S
C1103 C920 1.496 . S
C1117 C43 1.460 1_655 S
C1123 C274 1.496 . S
C1137 C852 1.498 . S
C1143 C77 1.471 . S
C1157 C342 1.497 . S
C1163 C111 1.477 . S
C1177 C988 1.497 . S
C1183 C145 1.458 . S
C1197 C179 1.476 . S
C1203 C478 1.497 . S
C1217 C213 1.477 . S
C1223 C1056 1.497 . S
C1237 C410 1.496 . S
C1243 C247 1.464 1_655 S
C1257 C281 1.459 . S
C1263 C648 1.497 . S
C1277 C315 1.465 1_455 S
C1283 C2 1.496 . S
C1297 C349 1.461 . S
C1303 C580 1.497 . S
C1317 C70 1.497 . S
C1323 C383 1.459 . S
C1337 C417 1.471 . S
C1343 C716 1.496 . S
C1357 C451 1.471 . S
C1363 C206 1.496 . S
C1377 C784 1.496 . S
C1383 C485 1.470 . S
C1397 C519 1.465 1_455 S
C1403 C138 1.497 . S
C1417 C553 1.477 . S
C1423 C376 1.497 . S
C1437 C818 1.497 . S
C1443 C587 1.476 . S
C1457 C308 1.496 . S
C1463 C621 1.475 . S
C1477 C655 1.460 1_455 S
C1483 C886 1.497 . S
C1497 C689 1.470 . S
C1503 C444 1.498 . S
C1517 C1022 1.496 . S
C1523 C723 1.467 1_455 S
C1537 C757 1.459 . S
C1543 C512 1.497 . S
C1557 C954 1.496 . S
C1563 C791 1.461 . S
C1577 C825 1.475 . S
C1583 C104 1.496 . S
C1597 C546 1.498 . S
C1603 C859 1.468 . S
C1617 C893 1.475 . S
C1623 C36 1.496 . S
C1637 C614 1.496 . S
C1643 C927 1.473 1_655 S
C1657 C961 1.462 . S
C1663 C172 1.496 . S
C1677 C750 1.496 . S
C1683 C995 1.470 1_655 S
C1697 C240 1.496 . S
C1703 C1029 1.460 . S
C1717 C1063 1.477 . S
C1723 C682 1.497 . S
C1737 C5 1.598 . S
C1743 C141 1.607 . S
C1757 C39 1.610 . S
C1763 C175 1.602 . S
C1777 C209 1.610 . S
C1783 C73 1.603 . S
C1797 C107 1.610 . S
C1803 C243 1.602 . S
C1817 C277 1.608 . S
C1823 C413 1.609 . S
C1837 C311 1.598 . S
C1843 C447 1.604 . S
C1857 C345 1.604 . S
C1863 C481 1.597 . S
C1877 C379 1.602 . S
C1883 C515 1.610 . S
C1897 C549 1.610 . S
C1903 C685 1.606 . S
C1917 C719 1.599 . S
C1923 C583 1.609 . S
C1937 C753 1.605 . S
C1943 C617 1.597 . S
C1957 C787 1.603 . S
C1963 C651 1.598 . S
C1977 C957 1.602 . S
C1983 C821 1.598 . S
C1997 C855 1.603 . S
C2003 C991 1.610 . S
C2017 C889 1.605 . S
C2023 C1025 1.610 . S
C2037 C1059 1.603 . S
C2043 C923 1.598 . S
C2057 C203 1.325 1_545 S
C2063 C33 1.331 . S
C2077 C237 1.324 . S
C2083 C67 1.331 1_545 S
C2097 C271 1.324 1_565 S
C2103 C101 1.331 . S
C2117 C169 1.331 . S
C2123 C135 1.325 1_565 S
C2137 C475 1.325 1_565 S
C2143 C305 1.330 . S
C2157 C509 1.324 . S
C2163 C339 1.331 1_565 S
C2177 C373 1.330 . S
C2183 C543 1.324 1_545 S
C2197 C407 1.324 1_545 S
C2203 C441 1.331 . S
C2217 C747 1.324 . S
C2223 C577 1.331 . S
C2237 C611 1.325 . S
C2243 C781 1.331 . S
C2257 C815 1.324 . S
C2263 C645 1.331 . S
C2277 C679 1.331 . S
C2283 C713 1.324 . S
C2297 C1019 1.328 . S
C2303 C849 1.327 . S
C2317 C883 1.329 . S
C2323 C1053 1.328 . S
C2337 C917 1.330 . S
C2343 C1087 1.325 . S
C2357 C985 1.331 . S
C2363 C951 1.324 . S
C2377 C836 1.316 . S
C2383 C20 1.316 . S
C2397 C54 1.323 . S
C2403 C326 1.323 . S
C2417 C88 1.310 . S
C2423 C904 1.310 . S
C2437 C122 1.316 . S
C2443 C394 1.316 . S
C2457 C156 1.309 . S
C2463 C972 1.309 . S
C2477 C462 1.316 . S
C2483 C190 1.316 . S
C2497 C1040 1.317 . S
C2503 C224 1.317 . S
C2517 C530 1.312 . S
C2523 C258 1.312 . S
C2537 C292 1.312 . S
C2543 C564 1.312 . S
C2557 C632 1.323 . S
C2563 C360 1.323 . S
C2577 C428 1.314 . S
C2583 C700 1.314 . S
C2597 C496 1.316 . S
C2603 C768 1.316 . S
C2617 C870 1.322 . S
C2623 C598 1.322 . S
C2637 C938 1.320 . S
C2643 C666 1.320 . S
C2657 C1006 1.317 . S
C2663 C734 1.317 . S
C2677 C802 1.322 . S
C2683 C1074 1.322 . S
