# Generated by pormake.
# Topology lhb, (8)-cn, num edge types: 1
# Building blocks:
#     Node 0, Type 0, BuildingBlock: EBIMEJ_clean_sbu_0, # of connection points: 8
#     Node 1, Type 0, BuildingBlock: EBIMEJ_clean_sbu_0, # of connection points: 8
#     Node 2, Type 0, BuildingBlock: EBIMEJ_clean_sbu_0, # of connection points: 8
#     Node 3, Type 0, BuildingBlock: EBIMEJ_clean_sbu_0, # of connection points: 8
#     Node 4, Type 0, BuildingBlock: EBIMEJ_clean_sbu_0, # of connection points: 8
#     Node 5, Type 0, BuildingBlock: EBIMEJ_clean_sbu_0, # of connection points: 8
#     Node 6, Type 0, BuildingBlock: EBIMEJ_clean_sbu_0, # of connection points: 8
#     Node 7, Type 0, BuildingBlock: EBIMEJ_clean_sbu_0, # of connection points: 8
#     Edge 8, Type (0, 0), BuildingBlock: TEMPAE_clean_linker_10, # of connection points: 2
#     Edge 9, Type (0, 0), BuildingBlock: TEMPAE_clean_linker_10, # of connection points: 2
#     Edge 10, Type (0, 0), BuildingBlock: TEMPAE_clean_linker_10, # of connection points: 2
#     Edge 11, Type (0, 0), BuildingBlock: TEMPAE_clean_linker_10, # of connection points: 2
#     Edge 12, Type (0, 0), BuildingBlock: TEMPAE_clean_linker_10, # of connection points: 2
#     Edge 13, Type (0, 0), BuildingBlock: TEMPAE_clean_linker_10, # of connection points: 2
#     Edge 14, Type (0, 0), BuildingBlock: TEMPAE_clean_linker_10, # of connection points: 2
#     Edge 15, Type (0, 0), BuildingBlock: TEMPAE_clean_linker_10, # of connection points: 2
#     Edge 16, Type (0, 0), BuildingBlock: TEMPAE_clean_linker_10, # of connection points: 2
#     Edge 17, Type (0, 0), BuildingBlock: TEMPAE_clean_linker_10, # of connection points: 2
#     Edge 18, Type (0, 0), BuildingBlock: TEMPAE_clean_linker_10, # of connection points: 2
#     Edge 19, Type (0, 0), BuildingBlock: TEMPAE_clean_linker_10, # of connection points: 2
#     Edge 20, Type (0, 0), BuildingBlock: TEMPAE_clean_linker_10, # of connection points: 2
#     Edge 21, Type (0, 0), BuildingBlock: TEMPAE_clean_linker_10, # of connection points: 2
#     Edge 22, Type (0, 0), BuildingBlock: TEMPAE_clean_linker_10, # of connection points: 2
#     Edge 23, Type (0, 0), BuildingBlock: TEMPAE_clean_linker_10, # of connection points: 2
#     Edge 24, Type (0, 0), BuildingBlock: TEMPAE_clean_linker_10, # of connection points: 2
#     Edge 25, Type (0, 0), BuildingBlock: TEMPAE_clean_linker_10, # of connection points: 2
#     Edge 26, Type (0, 0), BuildingBlock: TEMPAE_clean_linker_10, # of connection points: 2
#     Edge 27, Type (0, 0), BuildingBlock: TEMPAE_clean_linker_10, # of connection points: 2
#     Edge 28, Type (0, 0), BuildingBlock: TEMPAE_clean_linker_10, # of connection points: 2
#     Edge 29, Type (0, 0), BuildingBlock: TEMPAE_clean_linker_10, # of connection points: 2
#     Edge 30, Type (0, 0), BuildingBlock: TEMPAE_clean_linker_10, # of connection points: 2
#     Edge 31, Type (0, 0), BuildingBlock: TEMPAE_clean_linker_10, # of connection points: 2
#     Edge 32, Type (0, 0), BuildingBlock: TEMPAE_clean_linker_10, # of connection points: 2
#     Edge 33, Type (0, 0), BuildingBlock: TEMPAE_clean_linker_10, # of connection points: 2
#     Edge 34, Type (0, 0), BuildingBlock: TEMPAE_clean_linker_10, # of connection points: 2
#     Edge 35, Type (0, 0), BuildingBlock: TEMPAE_clean_linker_10, # of connection points: 2
#     Edge 36, Type (0, 0), BuildingBlock: TEMPAE_clean_linker_10, # of connection points: 2
#     Edge 37, Type (0, 0), BuildingBlock: TEMPAE_clean_linker_10, # of connection points: 2
#     Edge 38, Type (0, 0), BuildingBlock: TEMPAE_clean_linker_10, # of connection points: 2
#     Edge 39, Type (0, 0), BuildingBlock: TEMPAE_clean_linker_10, # of connection points: 2
# Relax obj value: 0.072
# Max RMSD: 0.174
# Mean RMSD: 0.174
data_MOF--net-lhb--node1-EBIMEJ_clean_sbu_0--edge1-TEMPAE_clean_linker_10
_symmetry_space_group_name_H-M    P1
_symmetry_Int_Tables_number       1
_symmetry_cell_setting            triclinic
loop_
_symmetry_equiv_pos_as_xyz
'x, y, z'
_cell_length_a     31.733382
_cell_length_b     15.790075
_cell_length_c     67.7026
_cell_angle_alpha  81.886345
_cell_angle_beta   89.772834
_cell_angle_gamma 90.097191
loop_
_atom_site_label
_atom_site_type_symbol
_atom_site_fract_x
_atom_site_fract_y
_atom_site_fract_z
_atom_type_partial_charge
Co0 Co 0.98645 0.92965 0.98791 0.0
Co1 Co 0.06715 -0.00399 1.01243 0.0
Co2 Co 0.98641 0.93919 0.03425 0.0
H3 H 0.99344 0.95594 1.01109 0.0
O4 O 0.00605 0.00342 1.00706 0.0
H5 H 0.05837 -0.00866 0.03596 0.0
O6 O 0.04712 0.94287 0.04045 0.0
Co7 Co 0.06078 0.02662 0.05878 0.0
O8 O 0.12119 0.05132 0.04884 0.0
O9 O 0.12788 -0.00174 1.01979 0.0
O10 O 0.02246 0.95366 0.07914 0.0
O11 O 0.9718 0.89414 0.06231 0.0
O12 O 0.93959 0.90317 0.96858 0.0
O13 O 0.97025 0.02041 0.96419 0.0
O14 O 0.02841 0.11973 0.04257 0.0
O15 O 0.06448 0.12074 1.01435 0.0
C16 C 0.91278 0.87759 1.0146 0.0
C17 C 0.06991 -0.01177 0.96818 0.0
C18 C 0.08107 0.0846 0.09025 0.0
C19 C 0.01779 0.78988 1.01602 0.0
C20 C 0.14339 0.03368 0.03409 0.0
C21 C 0.98929 0.90737 0.0786 0.0
C22 C 0.94265 0.97435 0.95777 0.0
C23 C 0.04277 0.15862 0.02628 0.0
O24 O 0.93543 0.86339 0.99982 0.0
O25 O 0.92544 0.92653 0.02698 0.0
O26 O 0.0837 0.02287 0.98308 0.0
O27 O 0.03583 0.94485 0.9689 0.0
O28 O 0.10084 0.09947 0.07402 0.0
O29 O 0.05015 0.03652 0.08862 0.0
O30 O 0.02431 0.8335 0.9991 0.0
O31 O 0.99701 0.81911 0.02969 0.0
Co32 Co 0.22025 0.28849 0.30774 0.0
Co33 Co 0.28685 0.1779 0.28574 0.0
Co34 Co 0.20911 0.24104 0.26296 0.0
H35 H 0.21847 0.24357 0.28619 0.0
O36 O 0.22689 0.19389 0.29151 0.0
H37 H 0.28225 0.19559 0.26243 0.0
O38 O 0.27062 0.24371 0.25817 0.0
Co39 Co 0.29078 0.1703 0.23916 0.0
O40 O 0.34397 0.11145 0.24974 0.0
O41 O 0.34749 0.15533 0.27973 0.0
O42 O 0.23836 0.16444 0.22283 0.0
O43 O 0.19376 0.25918 0.23334 0.0
O44 O 0.23498 0.33235 0.33447 0.0
O45 O 0.17291 0.328 0.32572 0.0
O46 O 0.25021 0.07788 0.24951 0.0
O47 O 0.27104 0.05983 0.28115 0.0
C48 C 0.13601 0.29447 0.28385 0.0
C49 C 0.28845 0.16917 0.32921 0.0
C50 C 0.33615 0.21401 0.20922 0.0
C51 C 0.23824 0.4065 0.27285 0.0
C52 C 0.36343 0.11811 0.26583 0.0
C53 C 0.20508 0.20996 0.22056 0.0
C54 C 0.19747 0.34678 0.33894 0.0
C55 C 0.25186 0.03364 0.26663 0.0
O56 O 0.16063 0.31523 0.29739 0.0
O57 O 0.14846 0.25034 0.27035 0.0
O58 O 0.29778 0.13258 0.31409 0.0
O59 O 0.26301 0.23259 0.32834 0.0
O60 O 0.32474 0.13865 0.21523 0.0
O61 O 0.32221 0.26478 0.22037 0.0
O62 O 0.25509 0.36992 0.28873 0.0
O63 O 0.21297 0.36653 0.26296 0.0
Co64 Co 0.71759 0.77767 0.30954 0.0
Co65 Co 0.79017 0.68542 0.28571 0.0
Co66 Co 0.71004 0.73967 0.26369 0.0
H67 H 0.71891 0.73877 0.28713 0.0
O68 O 0.72961 0.69023 0.29189 0.0
H69 H 0.78402 0.70104 0.26249 0.0
O70 O 0.77122 0.74791 0.2583 0.0
Co71 Co 0.79205 0.67478 0.23931 0.0
O72 O 0.84665 0.62115 0.24996 0.0
O73 O 0.85112 0.67339 0.27897 0.0
O74 O 0.73911 0.66633 0.22338 0.0
O75 O 0.69403 0.75961 0.23417 0.0
O76 O 0.71635 0.87371 0.32768 0.0
O77 O 0.68659 0.75855 0.33694 0.0
O78 O 0.7549 0.57734 0.25047 0.0
O79 O 0.77984 0.56472 0.2814 0.0
C80 C 0.63577 0.78835 0.2845 0.0
C81 C 0.78814 0.66084 0.33005 0.0
C82 C 0.83543 0.72016 0.20883 0.0
C83 C 0.73579 0.9046 0.27563 0.0
C84 C 0.86688 0.6336 0.26549 0.0
C85 C 0.70542 0.7107 0.22132 0.0
C86 C 0.69494 0.83151 0.3413 0.0
C87 C 0.76028 0.53444 0.26754 0.0
O88 O 0.65927 0.80967 0.29836 0.0
O89 O 0.64923 0.74361 0.27134 0.0
O90 O 0.80402 0.64188 0.31385 0.0
O91 O 0.7563 0.71047 0.33042 0.0
O92 O 0.83168 0.64435 0.21716 0.0
O93 O 0.81493 0.77062 0.21795 0.0
O94 O 0.75029 0.86785 0.29205 0.0
O95 O 0.71292 0.86527 0.26447 0.0
Co96 Co 0.99106 0.43093 0.48834 0.0
Co97 Co 0.07247 0.49373 0.51298 0.0
Co98 Co 0.99324 0.43333 0.53519 0.0
H99 H 0.99892 0.45329 0.51188 0.0
O100 O 0.01124 0.50128 0.5081 0.0
H101 H 0.06388 0.49036 0.53645 0.0
O102 O 0.05375 0.44104 0.54111 0.0
Co103 Co 0.06505 0.52857 0.55885 0.0
O104 O 0.12563 0.55249 0.54869 0.0
O105 O 0.13312 0.49595 0.52009 0.0
O106 O 0.02486 0.46226 0.57948 0.0
O107 O 0.98025 0.38541 0.56326 0.0
O108 O 0.94693 0.40318 0.46792 0.0
O109 O 0.97139 0.52582 0.46607 0.0
O110 O 0.03112 0.61776 0.54181 0.0
O111 O 0.07077 0.61824 0.51481 0.0
C112 C 0.91639 0.38177 0.51478 0.0
C113 C 0.07742 0.47155 0.47032 0.0
C114 C 0.0859 0.58401 0.59057 0.0
C115 C 0.02471 0.28826 0.51509 0.0
C116 C 0.14824 0.53317 0.5342 0.0
C117 C 0.99449 0.40848 0.57933 0.0
C118 C 0.94673 0.47739 0.45844 0.0
C119 C 0.04683 0.65636 0.52578 0.0
O120 O 0.93676 0.37391 0.49889 0.0
O121 O 0.9322 0.41876 0.52872 0.0
O122 O 0.08789 0.51906 0.48352 0.0
O123 O 0.04435 0.4248 0.47204 0.0
O124 O 0.08119 0.62995 0.57401 0.0
O125 O 0.07907 0.5068 0.58905 0.0
O126 O 0.029 0.33437 0.49832 0.0
O127 O 0.0057 0.31464 0.52971 0.0
Co128 Co 0.21658 0.7841 0.80854 0.0
Co129 Co 0.29 0.6902 0.78507 0.0
Co130 Co 0.21034 0.74614 0.76273 0.0
H131 H 0.21866 0.74476 0.78618 0.0
O132 O 0.2293 0.6964 0.79106 0.0
H133 H 0.28378 0.70378 0.76191 0.0
O134 O 0.27157 0.75108 0.75747 0.0
Co135 Co 0.29157 0.67433 0.73908 0.0
O136 O 0.34163 0.60803 0.75156 0.0
O137 O 0.35098 0.67521 0.77813 0.0
O138 O 0.24148 0.68287 0.72077 0.0
O139 O 0.1949 0.7694 0.73318 0.0
O140 O 0.2083 0.88419 0.82517 0.0
O141 O 0.19096 0.76145 0.83709 0.0
O142 O 0.2539 0.57848 0.75065 0.0
O143 O 0.27795 0.56884 0.78167 0.0
C144 C 0.13546 0.79585 0.78321 0.0
C145 C 0.28641 0.66654 0.82943 0.0
C146 C 0.33523 0.71893 0.70866 0.0
C147 C 0.23907 0.90744 0.77503 0.0
C148 C 0.36384 0.62462 0.76618 0.0
C149 C 0.20834 0.72902 0.71906 0.0
C150 C 0.19295 0.83807 0.84011 0.0
C151 C 0.25822 0.53745 0.76801 0.0
O152 O 0.15852 0.81891 0.79702 0.0
O153 O 0.1495 0.7515 0.77012 0.0
O154 O 0.30369 0.64959 0.81335 0.0
O155 O 0.25373 0.71408 0.82969 0.0
O156 O 0.33977 0.64971 0.72008 0.0
O157 O 0.30634 0.76319 0.71467 0.0
O158 O 0.25341 0.86745 0.79113 0.0
O159 O 0.2144 0.87125 0.76402 0.0
Co160 Co 0.71459 0.27878 0.80894 0.0
Co161 Co 0.78662 0.18348 0.78517 0.0
Co162 Co 0.70755 0.24356 0.76299 0.0
H163 H 0.71599 0.24062 0.78647 0.0
O164 O 0.72605 0.19142 0.79114 0.0
H165 H 0.78135 0.20346 0.76192 0.0
O166 O 0.76897 0.25124 0.75807 0.0
Co167 Co 0.7901 0.18108 0.73845 0.0
O168 O 0.84191 0.11768 0.74953 0.0
O169 O 0.84781 0.16777 0.77862 0.0
O170 O 0.7403 0.18983 0.72002 0.0
O171 O 0.69206 0.26937 0.73348 0.0
O172 O 0.70418 0.38005 0.82505 0.0
O173 O 0.69267 0.25609 0.83819 0.0
O174 O 0.75205 0.08353 0.74829 0.0
O175 O 0.77343 0.06486 0.77987 0.0
C176 C 0.63169 0.28242 0.78443 0.0
C177 C 0.78466 0.15879 0.82928 0.0
C178 C 0.83468 0.22724 0.70837 0.0
C179 C 0.7328 0.40686 0.77578 0.0
C180 C 0.86274 0.12668 0.76514 0.0
C181 C 0.70619 0.23283 0.71888 0.0
C182 C 0.69204 0.33351 0.84064 0.0
C183 C 0.75489 0.03817 0.76523 0.0
O184 O 0.65423 0.30192 0.79885 0.0
O185 O 0.64684 0.24544 0.77025 0.0
O186 O 0.79908 0.13587 0.81318 0.0
O187 O 0.75443 0.21255 0.82952 0.0
O188 O 0.8386 0.15729 0.71956 0.0
O189 O 0.80586 0.27162 0.71442 0.0
O190 O 0.74845 0.36868 0.79179 0.0
O191 O 0.70915 0.36818 0.76484 0.0
Co192 Co 0.48899 0.93404 0.48778 0.0
Co193 Co 0.57178 -0.00636 0.5136 0.0
Co194 Co 0.49098 0.93515 0.53492 0.0
H195 H 0.4975 0.95407 0.51158 0.0
O196 O 0.5107 0.0011 0.50789 0.0
H197 H 0.56192 -0.0103 0.53692 0.0
O198 O 0.55128 0.94074 0.54146 0.0
Co199 Co 0.56215 0.02826 0.55927 0.0
O200 O 0.62036 0.06664 0.54824 0.0
O201 O 0.63212 -0.0015 0.52169 0.0
O202 O 0.52324 0.95826 0.57972 0.0
O203 O 0.47654 0.88825 0.56296 0.0
O204 O 0.48421 0.95571 0.45713 0.0
O205 O 0.43335 -0.01871 0.47457 0.0
O206 O 0.52602 0.11173 0.54187 0.0
O207 O 0.56742 0.1179 0.51536 0.0
C208 C 0.41674 0.87695 0.51493 0.0
C209 C 0.57466 -0.0087 0.46905 0.0
C210 C 0.58312 0.0828 0.59108 0.0
C211 C 0.51774 0.78538 0.51486 0.0
C212 C 0.64466 0.04495 0.53464 0.0
C213 C 0.49193 0.90713 0.57925 0.0
C214 C 0.44691 -0.0184 0.45712 0.0
C215 C 0.54142 0.15277 0.52605 0.0
O216 O 0.43838 0.86573 0.49961 0.0
O217 O 0.43011 0.92281 0.52774 0.0
O218 O 0.58943 0.02049 0.48448 0.0
O219 O 0.539 0.95361 0.46896 0.0
O220 O 0.57599 0.12948 0.57484 0.0
O221 O 0.57867 0.00525 0.5892 0.0
O222 O 0.52088 0.82855 0.49765 0.0
O223 O 0.50264 0.81576 0.52986 0.0
Co224 Co 0.48392 0.43232 0.98864 0.0
Co225 Co 0.56749 0.49317 1.013 0.0
Co226 Co 0.48767 0.43522 0.03531 0.0
H227 H 0.49329 0.4544 1.01206 0.0
O228 O 0.50618 0.50167 1.00817 0.0
H229 H 0.5594 0.48818 0.0366 0.0
O230 O 0.5485 0.4394 0.04109 0.0
Co231 Co 0.56193 0.52373 0.05938 0.0
O232 O 0.62207 0.54988 0.0489 0.0
O233 O 0.6283 0.49544 1.01995 0.0
O234 O 0.52447 0.44993 0.08007 0.0
O235 O 0.47415 0.38858 0.06337 0.0
O236 O 0.44949 0.40131 0.96496 0.0
O237 O 0.45317 0.52754 0.97007 0.0
O238 O 0.52695 0.6129 0.04294 0.0
O239 O 0.5652 0.61726 1.01535 0.0
C240 C 0.4125 0.37644 1.01609 0.0
C241 C 0.56782 0.48852 0.9685 0.0
C242 C 0.58269 0.58178 0.09085 0.0
C243 C 0.51537 0.28647 1.01527 0.0
C244 C 0.64393 0.53204 0.03404 0.0
C245 C 0.49163 0.40261 0.07958 0.0
C246 C 0.43863 0.47695 0.95904 0.0
C247 C 0.54137 0.65326 0.02681 0.0
O248 O 0.43385 0.36397 1.0008 0.0
O249 O 0.42633 0.42308 0.02867 0.0
O250 O 0.58307 0.52063 0.98349 0.0
O251 O 0.53275 0.44842 0.96931 0.0
O252 O 0.60293 0.59455 0.07471 0.0
O253 O 0.55099 0.53587 0.08911 0.0
O254 O 0.51905 0.33089 0.99825 0.0
O255 O 0.49881 0.31557 0.03014 0.0
C256 C 0.07104 0.08969 0.12695 0.0
C257 C 0.09336 0.1163 0.1092 0.0
C258 C 0.08391 0.11395 0.14528 0.0
C259 C 0.12004 0.1665 0.146 0.0
C260 C 0.14154 0.19665 0.12792 0.0
C261 C 0.12805 0.1711 0.10981 0.0
C262 C 0.06006 0.07941 0.16403 0.0
C263 C 0.18022 0.25242 0.12784 0.0
C264 C 0.1497 0.25931 0.19392 0.0
C265 C 0.17976 0.19978 0.20232 0.0
C266 C 0.12933 0.24925 0.17574 0.0
C267 C 0.13922 0.17818 0.16576 0.0
C268 C 0.16859 0.11714 0.17454 0.0
C269 C 0.18806 0.12839 0.19254 0.0
C270 C 0.09785 0.31535 0.167 0.0
C271 C 0.18028 0.04006 0.16473 0.0
H272 H 0.04407 0.04764 0.12666 0.0
H273 H 0.14535 0.19249 0.09617 0.0
H274 H 0.07954 0.03073 0.17324 0.0
H275 H 0.05358 0.13124 0.1731 0.0
H276 H 0.02973 0.04912 0.16074 0.0
H277 H 0.19031 0.279 0.11248 0.0
H278 H 0.17425 0.30613 0.13642 0.0
H279 H 0.20657 0.21428 0.13523 0.0
H280 H 0.14282 0.31447 0.20125 0.0
H281 H 0.21051 0.08054 0.19887 0.0
H282 H 0.06764 0.28401 0.16407 0.0
H283 H 0.10973 0.34821 0.15247 0.0
H284 H 0.09171 0.36408 0.177 0.0
H285 H 0.15169 0.0021 0.16248 0.0
H286 H 0.20318 -0.00241 0.17367 0.0
H287 H 0.19433 0.0612 0.14981 0.0
C288 C 0.92662 0.84469 0.09833 0.0
C289 C 0.96875 0.87237 0.09787 0.0
C290 C 0.90562 0.81864 0.11651 0.0
C291 C 0.92733 0.81909 0.13474 0.0
C292 C 0.97015 0.84483 0.13439 0.0
C293 C 0.99025 0.87145 0.116 0.0
C294 C 0.85983 0.79265 0.1162 0.0
C295 C 0.99464 0.84539 0.15345 0.0
C296 C 0.86174 0.83196 0.18154 0.0
C297 C 0.86009 0.74605 0.19028 0.0
C298 C 0.88389 0.85672 0.1636 0.0
C299 C 0.90494 0.79409 0.15416 0.0
C300 C 0.90381 0.70738 0.16309 0.0
C301 C 0.8814 0.68444 0.18102 0.0
C302 C 0.88429 0.94983 0.1546 0.0
C303 C 0.92596 0.63869 0.1536 0.0
H304 H 0.90954 0.84566 0.08446 0.0
H305 H 0.02284 0.89215 0.11587 0.0
H306 H 0.85555 0.72708 0.1243 0.0
H307 H 0.84044 0.8362 0.124 0.0
H308 H 0.84765 0.79428 0.10078 0.0
H309 H 0.02799 0.86512 0.15062 0.0
H310 H 0.97972 0.88998 0.16265 0.0
H311 H 0.99402 0.78077 0.16236 0.0
H312 H 0.84537 0.87987 0.18864 0.0
H313 H 0.8803 0.61792 0.18771 0.0
H314 H 0.86971 0.95725 0.13959 0.0
H315 H 0.91721 0.97332 0.15266 0.0
H316 H 0.86699 -0.00919 0.16395 0.0
H317 H 0.9125 0.63518 0.13864 0.0
H318 H 0.92314 0.57466 0.16271 0.0
H319 H 0.95987 0.65474 0.15144 0.0
C320 C 0.11172 0.38054 0.44781 0.0
C321 C 0.10472 0.46291 0.45272 0.0
C322 C 0.13028 0.36771 0.42958 0.0
C323 C 0.14182 0.43906 0.41549 0.0
C324 C 0.13647 0.52268 0.42066 0.0
C325 C 0.11817 0.53367 0.43927 0.0
C326 C 0.13574 0.27735 0.42508 0.0
C327 C 0.14813 0.60061 0.40613 0.0
C328 C 0.21313 0.38786 0.37286 0.0
C329 C 0.18379 0.37712 0.35791 0.0
C330 C 0.20025 0.41148 0.39132 0.0
C331 C 0.15691 0.42498 0.39505 0.0
C332 C 0.12735 0.41677 0.37973 0.0
C333 C 0.14109 0.39293 0.36144 0.0
C334 C 0.23295 0.41905 0.4071 0.0
C335 C 0.08087 0.43035 0.38289 0.0
H336 H 0.10135 0.32549 0.45812 0.0
H337 H 0.1123 0.59747 0.4428 0.0
H338 H 0.11488 0.26659 0.41255 0.0
H339 H 0.16864 0.26713 0.42035 0.0
H340 H 0.12808 0.22881 0.43814 0.0
H341 H 0.146 0.6604 0.41298 0.0
H342 H 0.18063 0.59445 0.40041 0.0
H343 H 0.12664 0.60604 0.39313 0.0
H344 H 0.2462 0.37591 0.3703 0.0
H345 H 0.11818 0.38525 0.34999 0.0
H346 H 0.22795 0.36781 0.4199 0.0
H347 H 0.22972 0.48116 0.41283 0.0
H348 H 0.26557 0.41367 0.40139 0.0
H349 H 0.0687 0.37991 0.39462 0.0
H350 H 0.06235 0.42846 0.36907 0.0
H351 H 0.07553 0.49286 0.38818 0.0
C352 C 0.84872 0.58825 0.34934 0.0
C353 C 0.80898 0.62744 0.34926 0.0
C354 C 0.87029 0.56231 0.36727 0.0
C355 C 0.85161 0.57491 0.38567 0.0
C356 C 0.81107 0.61234 0.38576 0.0
C357 C 0.79037 0.6385 0.36759 0.0
C358 C 0.91355 0.52315 0.36646 0.0
C359 C 0.78979 0.62599 0.40504 0.0
C360 C 0.89438 0.44445 0.433 0.0
C361 C 0.92136 0.50338 0.44024 0.0
C362 C 0.87113 0.46707 0.41541 0.0
C363 C 0.87496 0.55067 0.40476 0.0
C364 C 0.90179 0.61073 0.41215 0.0
C365 C 0.92464 0.58638 0.4298 0.0
C366 C 0.84281 0.4012 0.4081 0.0
C367 C 0.90679 0.70048 0.40128 0.0
H368 H 0.86358 0.57959 0.33533 0.0
H369 H 0.75966 0.66839 0.36777 0.0
H370 H 0.93716 0.56409 0.37264 0.0
H371 H 0.91429 0.45955 0.37581 0.0
H372 H 0.92318 0.51544 0.35102 0.0
H373 H 0.75763 0.65308 0.40263 0.0
H374 H 0.78753 0.56448 0.41518 0.0
H375 H 0.80892 0.67019 0.41274 0.0
H376 H 0.89163 0.38022 0.44103 0.0
H377 H 0.94543 0.63219 0.43533 0.0
H378 H 0.85369 0.38814 0.39324 0.0
H379 H 0.81017 0.42606 0.40631 0.0
H380 H 0.84223 0.33995 0.41845 0.0
H381 H 0.91946 0.69824 0.38606 0.0
H382 H 0.92826 0.73999 0.40916 0.0
H383 H 0.87566 0.73246 0.39957 0.0
C384 C 0.1002 0.55937 0.62746 0.0
C385 C 0.09765 0.6161 0.60957 0.0
C386 C 0.11321 0.5873 0.64537 0.0
C387 C 0.12406 0.67443 0.64557 0.0
C388 C 0.11984 0.73271 0.6277 0.0
C389 C 0.10682 0.70291 0.60995 0.0
C390 C 0.11717 0.52245 0.6639 0.0
C391 C 0.13057 0.82615 0.62713 0.0
C392 C 0.14212 0.74161 0.69749 0.0
C393 C 0.18591 0.73136 0.69951 0.0
C394 C 0.12148 0.72737 0.67967 0.0
C395 C 0.14505 0.70134 0.66364 0.0
C396 C 0.18941 0.69551 0.66534 0.0
C397 C 0.20907 0.71137 0.68298 0.0
C398 C 0.07427 0.73671 0.67833 0.0
C399 C 0.21622 0.66787 0.64888 0.0
H400 H 0.09279 0.49236 0.6274 0.0
H401 H 0.10462 0.74749 0.59627 0.0
H402 H 0.15092 0.51397 0.66794 0.0
H403 H 0.10084 0.5454 0.67665 0.0
H404 H 0.10385 0.45919 0.66184 0.0
H405 H 0.1203 0.8651 0.61301 0.0
H406 H 0.11561 0.85186 0.63987 0.0
H407 H 0.16514 0.83363 0.62854 0.0
H408 H 0.12381 0.7569 0.71005 0.0
H409 H 0.24301 0.70461 0.68409 0.0
H410 H 0.05953 0.67257 0.6791 0.0
H411 H 0.06526 0.77404 0.66384 0.0
H412 H 0.06122 0.76866 0.69062 0.0
H413 H 0.20778 0.60148 0.64679 0.0
H414 H 0.25046 0.67001 0.65215 0.0
H415 H 0.21017 0.70941 0.63456 0.0
C416 C 0.84965 0.32681 0.67692 0.0
C417 C 0.85968 0.25241 0.6899 0.0
C418 C 0.87229 0.35016 0.65906 0.0
C419 C 0.90594 0.29807 0.65407 0.0
C420 C 0.91633 0.22305 0.66721 0.0
C421 C 0.89303 0.20104 0.68492 0.0
C422 C 0.86002 0.43043 0.64548 0.0
C423 C 0.9519 0.16573 0.66247 0.0
C424 C 0.93855 0.32025 0.59927 0.0
C425 C 0.9736 0.37518 0.59868 0.0
C426 C 0.9168 0.29337 0.61723 0.0
C427 C 0.93015 0.32217 0.6351 0.0
C428 C 0.96598 0.37603 0.63471 0.0
C429 C 0.98719 0.40176 0.61657 0.0
C430 C 0.8788 0.23586 0.61694 0.0
C431 C 0.98144 0.40806 0.65339 0.0
H432 H 0.82377 0.36652 0.68062 0.0
H433 H 0.90092 0.14339 0.69489 0.0
H434 H 0.88731 0.47479 0.64317 0.0
H435 H 0.851 0.41429 0.63064 0.0
H436 H 0.83328 0.46423 0.65154 0.0
H437 H 0.95634 0.11024 0.67433 0.0
H438 H 0.94558 0.14143 0.64817 0.0
H439 H 0.98177 0.20265 0.66057 0.0
H440 H 0.92756 0.29929 0.58562 0.0
H441 H 0.01412 0.44418 0.61642 0.0
H442 H 0.84991 0.27177 0.6198 0.0
H443 H 0.88102 0.1804 0.62893 0.0
H444 H 0.87527 0.21156 0.60242 0.0
H445 H 0.95678 0.448 0.65915 0.0
H446 H 0.01074 0.44673 0.65076 0.0
H447 H 0.98758 0.35335 0.6652 0.0
C448 C 0.18228 0.95638 0.86116 0.0
C449 C 0.17963 0.86929 0.85903 0.0
C450 C 0.16884 -0.01356 0.87885 0.0
C451 C 0.15215 0.92826 0.89488 0.0
C452 C 0.15028 0.84 0.89291 0.0
C453 C 0.16401 0.81176 0.87511 0.0
C454 C 0.17167 0.08082 0.88022 0.0
C455 C 0.1327 0.77535 0.90946 0.0
C456 C 0.13732 -0.02037 0.94836 0.0
C457 C 0.0937 -0.0065 0.94894 0.0
C458 C 0.1574 0.9626 0.9306 0.0
C459 C 0.13334 0.95956 0.91302 0.0
C460 C 0.08986 -0.02048 0.91331 0.0
C461 C 0.07075 -0.00398 0.93114 0.0
C462 C 0.20386 0.94265 0.93101 0.0
C463 C 0.06269 -0.02199 0.89508 0.0
H464 H 0.19446 0.00139 0.84889 0.0
H465 H 0.16205 0.74433 0.8737 0.0
H466 H 0.13952 0.10759 0.88107 0.0
H467 H 0.18841 0.09124 0.89403 0.0
H468 H 0.18829 0.11686 0.86718 0.0
H469 H 0.13546 0.7087 0.90611 0.0
H470 H 0.14942 0.7801 0.92362 0.0
H471 H 0.09894 0.78912 0.91189 0.0
H472 H 0.15526 0.97649 0.96204 0.0
H473 H 0.03702 0.00689 0.9314 0.0
H474 H 0.21992 -0.02215 0.91773 0.0
H475 H 0.20839 0.87333 0.9305 0.0
H476 H 0.21923 0.95922 0.94468 0.0
H477 H 0.07724 0.01707 0.8819 0.0
H478 H 0.03039 0.00241 0.89718 0.0
H479 H 0.06017 0.91143 0.8917 0.0
C480 C 0.84157 0.07378 0.84878 0.0
C481 C 0.80536 0.12509 0.84852 0.0
C482 C 0.86323 0.04678 0.86664 0.0
C483 C 0.84838 0.07131 0.88476 0.0
C484 C 0.81139 0.12146 0.88469 0.0
C485 C 0.79039 0.14774 0.86662 0.0
C486 C 0.90258 -0.0065 0.86602 0.0
C487 C 0.79444 0.14893 0.90367 0.0
C488 C 0.88608 0.94626 0.93379 0.0
C489 C 0.91801 -0.00037 0.93933 0.0
C490 C 0.86302 0.96889 0.91613 0.0
C491 C 0.87223 0.0466 0.90367 0.0
C492 C 0.90447 0.1007 0.90923 0.0
C493 C 0.9269 0.07663 0.92699 0.0
C494 C 0.8289 0.90949 0.91078 0.0
C495 C 0.91544 0.18389 0.89634 0.0
H496 H 0.85361 0.05593 0.83495 0.0
H497 H 0.7625 0.18724 0.86668 0.0
H498 H 0.93011 0.0289 0.87079 0.0
H499 H 0.89959 0.93338 0.8766 0.0
H500 H 0.90908 0.97702 0.85088 0.0
H501 H 0.76445 0.18508 0.90124 0.0
H502 H 0.78897 0.09216 0.91505 0.0
H503 H 0.81795 0.18994 0.90988 0.0
H504 H 0.8791 0.88662 0.94327 0.0
H505 H 0.9517 0.11793 0.93115 0.0
H506 H 0.83624 0.88846 0.89619 0.0
H507 H 0.79833 0.94369 0.90916 0.0
H508 H 0.82527 0.85194 0.92216 0.0
H509 H 0.92538 0.17132 0.8813 0.0
H510 H 0.94116 0.21895 0.90281 0.0
H511 H 0.88728 0.22573 0.89437 0.0
C512 C 0.63898 0.23815 0.69819 0.0
C513 C 0.68312 0.2353 0.69953 0.0
C514 C 0.6182 0.22244 0.68054 0.0
C515 C 0.64204 0.20256 0.66394 0.0
C516 C 0.68656 0.20459 0.66494 0.0
C517 C 0.7063 0.22163 0.68248 0.0
C518 C 0.57072 0.22325 0.67999 0.0
C519 C 0.71366 0.18386 0.64785 0.0
C520 C 0.60103 0.05705 0.62762 0.0
C521 C 0.59495 0.11467 0.61009 0.0
C522 C 0.61415 0.08534 0.64547 0.0
C523 C 0.62138 0.17375 0.646 0.0
C524 C 0.61362 0.23258 0.62853 0.0
C525 C 0.60066 0.20242 0.61083 0.0
C526 C 0.622 0.0199 0.66358 0.0
C527 C 0.62039 0.32729 0.62834 0.0
H528 H 0.62067 0.24837 0.71119 0.0
H529 H 0.74044 0.22047 0.68311 0.0
H530 H 0.55942 0.25945 0.66576 0.0
H531 H 0.55881 0.15676 0.68078 0.0
H532 H 0.55698 0.252 0.69262 0.0
H533 H 0.74782 0.1923 0.65057 0.0
H534 H 0.70814 0.11655 0.64552 0.0
H535 H 0.70504 0.22518 0.63383 0.0
H536 H 0.5963 -0.01076 0.62729 0.0
H537 H 0.5957 0.24762 0.59744 0.0
H538 H 0.60529 0.03813 0.67676 0.0
H539 H 0.65618 0.01779 0.66704 0.0
H540 H 0.61158 0.95476 0.66132 0.0
H541 H 0.60489 0.34894 0.64146 0.0
H542 H 0.608 0.36546 0.61455 0.0
H543 H 0.65457 0.34075 0.62935 0.0
C544 C 0.4371 0.81529 0.59909 0.0
C545 C 0.47144 0.8719 0.59855 0.0
C546 C 0.41574 0.7867 0.61706 0.0
C547 C 0.42885 0.81544 0.63498 0.0
C548 C 0.46403 0.87096 0.63463 0.0
C549 C 0.48486 0.8983 0.61649 0.0
C550 C 0.37854 0.72711 0.6168 0.0
C551 C 0.47906 0.90338 0.65334 0.0
C552 C 0.3486 0.81732 0.67692 0.0
C553 C 0.35957 0.7438 0.69 0.0
C554 C 0.37073 0.84101 0.65896 0.0
C555 C 0.40485 0.79017 0.65394 0.0
C556 C 0.41614 0.71592 0.66713 0.0
C557 C 0.39329 0.69351 0.68497 0.0
C558 C 0.35757 0.92052 0.64533 0.0
C559 C 0.45235 0.66018 0.66239 0.0
H560 H 0.42641 0.79419 0.5854 0.0
H561 H 0.51125 0.94204 0.61637 0.0
H562 H 0.38336 0.66859 0.6277 0.0
H563 H 0.34957 0.75863 0.62137 0.0
H564 H 0.3733 0.70798 0.60182 0.0
H565 H 0.50811 0.94287 0.65075 0.0
H566 H 0.45405 0.94268 0.65905 0.0
H567 H 0.48545 0.8489 0.66518 0.0
H568 H 0.32242 0.85618 0.68067 0.0
H569 H 0.4019 0.63657 0.69502 0.0
H570 H 0.34901 0.90389 0.63047 0.0
H571 H 0.38427 0.96635 0.64307 0.0
H572 H 0.33028 0.95288 0.65134 0.0
H573 H 0.44658 0.63612 0.64802 0.0
H574 H 0.45714 0.60459 0.67418 0.0
H575 H 0.48187 0.6983 0.66065 0.0
C576 C 0.56818 0.48764 0.9316 0.0
C577 C 0.59133 0.4914 0.94915 0.0
C578 C 0.58751 0.47001 0.9139 0.0
C579 C 0.63154 0.45591 0.91339 0.0
C580 C 0.65567 0.46524 0.93064 0.0
C581 C 0.63532 0.48279 0.94831 0.0
C582 C 0.56018 0.46141 0.89606 0.0
C583 C 0.70272 0.4521 0.93077 0.0
C584 C 0.6663 0.30745 0.87624 0.0
C585 C 0.67894 0.36525 0.85957 0.0
C586 C 0.65241 0.336 0.894 0.0
C587 C 0.65112 0.42489 0.89535 0.0
C588 C 0.66504 0.48348 0.87874 0.0
C589 C 0.67863 0.45309 0.8611 0.0
C590 C 0.63786 0.27081 0.91115 0.0
C591 C 0.66461 0.57856 0.87943 0.0
H592 H 0.5342 0.4947 0.93194 0.0
H593 H 0.65355 0.48473 0.96175 0.0
H594 H 0.5728 0.50138 0.88254 0.0
H595 H 0.56043 0.394 0.89314 0.0
H596 H 0.52699 0.48039 0.89832 0.0
H597 H 0.71766 0.47268 0.94413 0.0
H598 H 0.70967 0.38332 0.93068 0.0
H599 H 0.71729 0.48802 0.91718 0.0
H600 H 0.66667 0.23947 0.87531 0.0
H601 H 0.68855 0.49839 0.84839 0.0
H602 H 0.60374 0.27948 0.91389 0.0
H603 H 0.65474 0.28027 0.92499 0.0
H604 H 0.64309 0.20409 0.90826 0.0
H605 H 0.6316 0.60088 0.88026 0.0
H606 H 0.67994 0.61527 0.8661 0.0
H607 H 0.68094 0.59325 0.893 0.0
C608 C 0.40008 0.4418 0.92906 0.0
C609 C 0.41347 0.50312 0.9408 0.0
C610 C 0.37766 0.46567 0.91129 0.0
C611 C 0.36851 0.55309 0.90503 0.0
C612 C 0.38144 0.61516 0.91698 0.0
C613 C 0.40373 0.58941 0.93473 0.0
C614 C 0.3643 0.39742 0.89905 0.0
C615 C 0.37256 0.70904 0.9108 0.0
C616 C 0.35064 0.62288 0.84956 0.0
C617 C 0.30677 0.6337 0.84868 0.0
C618 C 0.37107 0.59748 0.8678 0.0
C619 C 0.34698 0.57994 0.88557 0.0
C620 C 0.30254 0.58868 0.88471 0.0
C621 C 0.28303 0.6168 0.86632 0.0
C622 C 0.41857 0.59109 0.86809 0.0
C623 C 0.27562 0.56834 0.90321 0.0
H624 H 0.40751 0.37496 0.93367 0.0
H625 H 0.41401 0.63707 0.94374 0.0
H626 H 0.32989 0.40154 0.89622 0.0
H627 H 0.3804 0.40769 0.88434 0.0
H628 H 0.37181 0.33197 0.90651 0.0
H629 H 0.38375 0.749 0.92198 0.0
H630 H 0.38825 0.73132 0.89631 0.0
H631 H 0.33824 0.71944 0.90861 0.0
H632 H 0.36923 0.63691 0.83602 0.0
H633 H 0.24911 0.62486 0.86572 0.0
H634 H 0.42832 0.52517 0.87418 0.0
H635 H 0.43173 0.63456 0.87804 0.0
H636 H 0.43272 0.6079 0.85301 0.0
H637 H 0.28153 0.50172 0.91031 0.0
H638 H 0.24144 0.57568 0.89993 0.0
H639 H 0.28418 0.61112 0.91423 0.0
C640 C 0.63124 0.6644 0.11065 0.0
C641 C 0.59518 0.61346 0.1098 0.0
C642 C 0.64466 0.69003 0.12878 0.0
C643 C 0.62162 0.66408 0.14665 0.0
C644 C 0.58424 0.61537 0.14568 0.0
C645 C 0.57154 0.59077 0.12735 0.0
C646 C 0.68474 0.74149 0.12896 0.0
C647 C 0.55866 0.58556 0.16421 0.0
C648 C 0.68646 0.62523 0.19427 0.0
C649 C 0.67971 0.69936 0.20327 0.0
C650 C 0.66741 0.61323 0.17621 0.0
C651 C 0.64003 0.67634 0.16657 0.0
C652 C 0.63151 0.75013 0.17582 0.0
C653 C 0.65143 0.76087 0.19407 0.0
C654 C 0.67759 0.53325 0.16722 0.0
C655 C 0.60215 0.81858 0.16618 0.0
H656 H 0.64963 0.68267 0.09719 0.0
H657 H 0.54354 0.55167 0.12689 0.0
H658 H 0.67966 0.79728 0.13697 0.0
H659 H 0.70957 0.70133 0.13707 0.0
H660 H 0.69643 0.76476 0.11367 0.0
H661 H 0.52796 0.55733 0.16068 0.0
H662 H 0.57661 0.53646 0.17409 0.0
H663 H 0.55269 0.63956 0.1727 0.0
H664 H 0.70752 0.576 0.20126 0.0
H665 H 0.64583 0.81825 0.20077 0.0
H666 H 0.69294 0.55081 0.15245 0.0
H667 H 0.64821 0.49807 0.16479 0.0
H668 H 0.69888 0.4894 0.17679 0.0
H669 H 0.61582 0.84903 0.1518 0.0
H670 H 0.59634 0.8689 0.17579 0.0
H671 H 0.57154 0.78989 0.16279 0.0
C672 C 0.37253 0.32551 0.18492 0.0
C673 C 0.36189 0.23951 0.19098 0.0
C674 C 0.39539 0.35064 0.16719 0.0
C675 C 0.40804 0.28823 0.15524 0.0
C676 C 0.3981 0.20106 0.16153 0.0
C677 C 0.37512 0.17782 0.17928 0.0
C678 C 0.40516 0.44426 0.16101 0.0
C679 C 0.41123 0.1324 0.14935 0.0
C680 C 0.42703 0.35777 0.09971 0.0
C681 C 0.47096 0.36816 0.09878 0.0
C682 C 0.40624 0.33249 0.11796 0.0
C683 C 0.43 0.31453 0.13574 0.0
C684 C 0.4745 0.32259 0.13482 0.0
C685 C 0.49438 0.35069 0.11642 0.0
C686 C 0.35871 0.32702 0.11828 0.0
C687 C 0.50111 0.302 0.1533 0.0
H688 H 0.36247 0.37347 0.1939 0.0
H689 H 0.3671 0.11118 0.1839 0.0
H690 H 0.43961 0.45377 0.15887 0.0
H691 H 0.38993 0.46695 0.1465 0.0
H692 H 0.39409 0.48453 0.17218 0.0
H693 H 0.40314 0.06717 0.15683 0.0
H694 H 0.39548 0.14287 0.13461 0.0
H695 H 0.44572 0.13579 0.14656 0.0
H696 H 0.40864 0.37238 0.0862 0.0
H697 H 0.52832 0.3586 0.11581 0.0
H698 H 0.34574 0.37089 0.12822 0.0
H699 H 0.34847 0.26133 0.12441 0.0
H700 H 0.34483 0.34395 0.10321 0.0
H701 H 0.49358 0.34683 0.16403 0.0
H702 H 0.53539 0.30644 0.1499 0.0
H703 H 0.49389 0.23645 0.1608 0.0
C704 C 0.5788 0.01113 0.43185 0.0
C705 C 0.59974 -0.00523 0.45023 0.0
C706 C 0.59747 -0.00691 0.41402 0.0
C707 C 0.63825 0.95643 0.4144 0.0
C708 C 0.66079 0.94512 0.4327 0.0
C709 C 0.64132 0.96458 0.45038 0.0
C710 C 0.57196 0.00786 0.39509 0.0
C711 C 0.70448 0.90738 0.43386 0.0
C712 C 0.65915 0.80965 0.37493 0.0
C713 C 0.68187 0.86293 0.36026 0.0
C714 C 0.64578 0.83865 0.39271 0.0
C715 C 0.65532 0.92326 0.39612 0.0
C716 C 0.67883 0.97697 0.38147 0.0
C717 C 0.69175 0.94631 0.36377 0.0
C718 C 0.62058 0.77905 0.40772 0.0
C719 C 0.68944 0.06766 0.38427 0.0
H720 H 0.54671 0.03462 0.43156 0.0
H721 H 0.65758 0.9505 0.46452 0.0
H722 H 0.59201 0.03014 0.38192 0.0
H723 H 0.55691 0.94677 0.3926 0.0
H724 H 0.54675 0.05581 0.39606 0.0
H725 H 0.71979 0.91225 0.44839 0.0
H726 H 0.70269 0.83886 0.43191 0.0
H727 H 0.72463 0.94003 0.42167 0.0
H728 H 0.65142 0.74513 0.37243 0.0
H729 H 0.70928 -0.0119 0.35256 0.0
H730 H 0.58861 0.80577 0.40929 0.0
H731 H 0.63579 0.7732 0.42257 0.0
H732 H 0.61734 0.71414 0.40335 0.0
H733 H 0.66 0.10518 0.3847 0.0
H734 H 0.70991 0.09984 0.37212 0.0
H735 H 0.70561 0.06847 0.39875 0.0
C736 C 0.44214 0.01767 0.42003 0.0
C737 C 0.42218 0.00789 0.43874 0.0
C738 C 0.41944 0.04275 0.40241 0.0
C739 C 0.3755 0.05731 0.40345 0.0
C740 C 0.35502 0.04611 0.42229 0.0
C741 C 0.37869 0.02232 0.43973 0.0
C742 C 0.44274 0.05565 0.38271 0.0
C743 C 0.30806 0.05867 0.42401 0.0
C744 C 0.32354 0.19986 0.36034 0.0
C745 C 0.3093 0.13985 0.34846 0.0
C746 C 0.34519 0.17393 0.37823 0.0
C747 C 0.35127 0.08559 0.38482 0.0
C748 C 0.33562 0.02459 0.37317 0.0
C749 C 0.31561 0.05255 0.35491 0.0
C750 C 0.36259 0.24121 0.38978 0.0
C751 C 0.34028 0.92983 0.37995 0.0
H752 H 0.47573 0.0065 0.41915 0.0
H753 H 0.36305 0.01415 0.45414 0.0
H754 H 0.42651 0.02214 0.37156 0.0
H755 H 0.44329 0.12482 0.37675 0.0
H756 H 0.47568 0.0322 0.38416 0.0
H757 H 0.29662 0.04373 0.43965 0.0
H758 H 0.29969 0.12579 0.41829 0.0
H759 H 0.29115 0.01718 0.41471 0.0
H760 H 0.31894 0.26748 0.35529 0.0
H761 H 0.3043 0.00609 0.34581 0.0
H762 H 0.39733 0.23453 0.391 0.0
H763 H 0.34961 0.23222 0.40516 0.0
H764 H 0.35518 0.30718 0.38262 0.0
H765 H 0.37411 0.91216 0.38026 0.0
H766 H 0.32349 0.89081 0.37001 0.0
H767 H 0.32781 0.91321 0.39535 0.0
C768 C 0.99407 0.642 0.02604 0.0
C769 C 0.02582 0.69839 1.01813 0.0
C770 C 0.99844 0.5542 0.02609 0.0
C771 C 0.03627 0.52257 1.01882 0.0
C772 C 0.06905 0.57919 1.01137 0.0
C773 C 0.06301 0.66729 1.01071 0.0
C774 C 0.96236 0.49559 0.03362 0.0
C775 C 0.11036 0.54671 1.00425 0.0
C776 C 0.05497 0.29291 0.03965 0.0
C777 C 0.04254 0.25153 0.02367 0.0
C778 C 0.0554 0.38185 0.03783 0.0
C779 C 0.04171 0.4297 1.0198 0.0
C780 C 0.02982 0.38814 1.00344 0.0
C781 C 0.03113 0.29872 1.00548 0.0
C782 C 0.06938 0.42437 0.05536 0.0
C783 C 0.01405 0.43775 0.9842 0.0
H784 H 0.96507 0.66689 0.03147 0.0
H785 H 0.08733 0.71183 1.00456 0.0
H786 H 0.97251 0.45028 0.04675 0.0
H787 H 0.93448 0.53134 0.03797 0.0
H788 H 0.9527 0.45705 1.0219 0.0
H789 H 0.13292 0.59942 0.99931 0.0
H790 H 0.12507 0.50218 1.01642 0.0
H791 H 0.10484 0.51021 0.99166 0.0
H792 H 0.06468 0.25549 0.05356 0.0
H793 H 0.02189 0.26563 0.99319 0.0
H794 H 0.04198 0.45511 0.06166 0.0
H795 H 0.09281 0.47537 0.05047 0.0
H796 H 0.08352 0.37813 0.0674 0.0
H797 H 0.98429 0.47083 0.98708 0.0
H798 H 0.00809 0.39588 0.97262 0.0
H799 H 0.03718 0.48772 0.97825 0.0
C800 C 0.19588 0.53594 0.2729 0.0
C801 C 0.23523 0.499 0.27041 0.0
C802 C 0.1922 0.62393 0.27292 0.0
C803 C 0.22873 0.67538 0.26986 0.0
C804 C 0.26841 0.63829 0.26668 0.0
C805 C 0.27132 0.54958 0.2674 0.0
C806 C 0.14969 0.66083 0.27704 0.0
C807 C 0.30776 0.69213 0.26272 0.0
C808 C 0.22354 0.91078 0.25163 0.0
C809 C 0.23709 0.9446 0.26862 0.0
C810 C 0.21828 0.82281 0.2521 0.0
C811 C 0.22595 0.76815 0.27008 0.0
C812 C 0.23548 0.80235 0.28775 0.0
C813 C 0.24123 0.89063 0.28679 0.0
C814 C 0.20784 0.78811 0.23301 0.0
C815 C 0.24242 0.74537 0.30733 0.0
H816 H 0.16824 0.49543 0.2756 0.0
H817 H 0.30159 0.51972 0.26563 0.0
H818 H 0.14948 0.67837 0.29234 0.0
H819 H 0.14327 0.71989 0.26656 0.0
H820 H 0.12372 0.61448 0.27592 0.0
H821 H 0.3355 0.65362 0.2594 0.0
H822 H 0.30263 0.74317 0.24991 0.0
H823 H 0.31509 0.72394 0.2759 0.0
H824 H 0.21958 0.95231 0.23758 0.0
H825 H 0.25096 0.91666 0.30005 0.0
H826 H 0.18165 0.74119 0.23548 0.0
H827 H 0.23568 0.75406 0.22805 0.0
H828 H 0.19887 0.83952 0.22081 0.0
H829 H 0.21688 0.69701 0.31011 0.0
H830 H 0.24378 0.78238 0.3201 0.0
H831 H 0.27256 0.71033 0.30669 0.0
C832 C 0.70866 0.03659 0.2858 0.0
C833 C 0.73428 -0.00282 0.27297 0.0
C834 C 0.70793 0.12537 0.28464 0.0
C835 C 0.73431 0.17479 0.27061 0.0
C836 C 0.75952 0.13503 0.25724 0.0
C837 C 0.75888 0.0458 0.25847 0.0
C838 C 0.6801 0.1659 0.29884 0.0
C839 C 0.78843 0.18634 0.24229 0.0
C840 C 0.71907 0.41296 0.25801 0.0
C841 C 0.74963 0.44338 0.27014 0.0
C842 C 0.71268 0.32512 0.25844 0.0
C843 C 0.73809 0.26734 0.27101 0.0
C844 C 0.76807 0.29774 0.28375 0.0
C845 C 0.77318 0.38579 0.28331 0.0
C846 C 0.67974 0.29423 0.24507 0.0
C847 C 0.79595 0.23745 0.29722 0.0
H848 H 0.68963 -0.00234 0.29693 0.0
H849 H 0.77853 0.01396 0.24865 0.0
H850 H 0.69986 0.19726 0.3092 0.0
H851 H 0.66017 0.2162 0.29045 0.0
H852 H 0.65929 0.11839 0.30782 0.0
H853 H 0.80427 0.14589 0.23234 0.0
H854 H 0.7705 0.23727 0.23297 0.0
H855 H 0.81295 0.21828 0.25029 0.0
H856 H 0.70074 0.45785 0.2479 0.0
H857 H 0.79711 0.40942 0.29255 0.0
H858 H 0.65834 0.24758 0.25389 0.0
H859 H 0.69521 0.26067 0.23367 0.0
H860 H 0.66058 0.34756 0.2373 0.0
H861 H 0.77639 0.19203 0.3074 0.0
H862 H 0.81734 0.27182 0.30636 0.0
H863 H 0.81538 0.19908 0.28811 0.0
C864 C 0.08322 0.79499 0.51812 0.0
C865 C 0.04576 0.74937 0.52268 0.0
C866 C 0.08413 0.88378 0.51733 0.0
C867 C 0.04636 0.92714 0.52055 0.0
C868 C 0.00822 0.88129 0.5247 0.0
C869 C 0.00857 0.7922 0.52608 0.0
C870 C 0.12549 0.93087 0.51344 0.0
C871 C 0.96715 0.92626 0.52765 0.0
C872 C 0.04404 0.14914 0.53493 0.0
C873 C 0.03591 0.19783 0.51644 0.0
C874 C 0.04993 0.06069 0.53637 0.0
C875 C 0.04622 0.02091 0.51899 0.0
C876 C 0.03936 0.07023 0.50022 0.0
C877 C 0.03488 0.15853 0.49913 0.0
C878 C 0.05857 0.00956 0.55652 0.0
C879 C 0.03423 0.02938 0.48147 0.0
H880 H 0.11214 0.76083 0.51596 0.0
H881 H 0.97984 0.75594 0.52973 0.0
H882 H 0.12345 -0.02272 0.49957 0.0
H883 H 0.13237 0.96796 0.52581 0.0
H884 H 0.15225 0.88685 0.51196 0.0
H885 H 0.94015 0.88106 0.53012 0.0
H886 H 0.96952 0.96144 0.54067 0.0
H887 H 0.96042 0.97402 0.51438 0.0
H888 H 0.04513 0.17997 0.54825 0.0
H889 H 0.02826 0.19617 0.48481 0.0
H890 H 0.08567 0.96598 0.55555 0.0
H891 H 0.0308 0.96921 0.56147 0.0
H892 H 0.06542 0.05124 0.56804 0.0
H893 H 0.06157 -0.01214 0.4794 0.0
H894 H 0.03106 0.07755 0.46792 0.0
H895 H 0.00572 -0.01188 0.48284 0.0
C896 C 0.2052 0.03727 0.78306 0.0
C897 C 0.23786 -0.00018 0.77346 0.0
C898 C 0.20376 0.12563 0.78284 0.0
C899 C 0.23637 0.17653 0.7731 0.0
C900 C 0.26954 0.1386 0.76334 0.0
C901 C 0.26983 0.04983 0.76362 0.0
C902 C 0.16796 0.16406 0.79334 0.0
C903 C 0.30491 0.19159 0.75292 0.0
C904 C 0.2226 0.41254 0.75678 0.0
C905 C 0.24636 0.44663 0.77122 0.0
C906 C 0.21744 0.32424 0.7577 0.0
C907 C 0.23648 0.26945 0.77343 0.0
C908 C 0.25809 0.30349 0.78876 0.0
C909 C 0.2627 0.3921 0.7875 0.0
C910 C 0.19367 0.28956 0.74127 0.0
C911 C 0.27845 0.24633 0.80584 0.0
H912 H 0.18118 -0.00292 0.79105 0.0
H913 H 0.29517 0.01942 0.75646 0.0
H914 H 0.18038 0.1933 0.80611 0.0
H915 H 0.15258 0.2157 0.78307 0.0
H916 H 0.14371 0.11571 0.79902 0.0
H917 H 0.32781 0.15214 0.74577 0.0
H918 H 0.29192 0.24119 0.74131 0.0
H919 H 0.32202 0.22528 0.76378 0.0
H920 H 0.20944 0.45465 0.7443 0.0
H921 H 0.28099 0.41817 0.79873 0.0
H922 H 0.16981 0.24191 0.74768 0.0
H923 H 0.21591 0.25626 0.7323 0.0
H924 H 0.17756 0.34084 0.73115 0.0
H925 H 0.25566 0.19772 0.81286 0.0
H926 H 0.29056 0.28301 0.81748 0.0
H927 H 0.30518 0.21152 0.8001 0.0
C928 C 0.69391 0.54269 0.7713 0.0
C929 C 0.73256 0.49981 0.77298 0.0
C930 C 0.69232 0.63139 0.77073 0.0
C931 C 0.73044 0.67745 0.77118 0.0
C932 C 0.76963 0.63422 0.77246 0.0
C933 C 0.77014 0.54511 0.77375 0.0
C934 C 0.65001 0.67542 0.77003 0.0
C935 C 0.81093 0.68201 0.77243 0.0
C936 C 0.73678 0.90988 0.74968 0.0
C937 C 0.74179 0.9482 0.767 0.0
C938 C 0.73123 0.82165 0.75086 0.0
C939 C 0.72975 0.77126 0.76982 0.0
C940 C 0.73157 0.81014 0.78739 0.0
C941 C 0.73807 0.89852 0.78576 0.0
C942 C 0.72994 0.78191 0.73183 0.0
C943 C 0.72882 0.75797 0.80785 0.0
H944 H 0.66487 0.50638 0.7712 0.0
H945 H 0.79979 0.51079 0.77523 0.0
H946 H 0.64672 0.71103 0.78296 0.0
H947 H 0.64762 0.72281 0.75634 0.0
H948 H 0.62335 0.62956 0.77029 0.0
H949 H 0.83858 0.63875 0.7728 0.0
H950 H 0.81327 0.73048 0.7589 0.0
H951 H 0.81243 0.71667 0.78557 0.0
H952 H 0.73959 0.94804 0.73511 0.0
H953 H 0.7414 0.92827 0.79916 0.0
H954 H 0.70252 0.73827 0.7319 0.0
H955 H 0.75876 0.74308 0.73073 0.0
H956 H 0.72814 0.83075 0.71833 0.0
H957 H 0.70207 0.71226 0.80861 0.0
H958 H 0.72486 0.79889 0.81979 0.0
H959 H 0.75803 0.71992 0.81085 0.0
C960 C 0.54103 0.64659 0.53331 0.0
C961 C 0.52365 0.69347 0.51626 0.0
C962 C 0.54458 0.55766 0.53476 0.0
C963 C 0.52905 0.5161 0.51906 0.0
C964 C 0.51089 0.56339 0.50198 0.0
C965 C 0.50891 0.65199 0.50068 0.0
C966 C 0.56477 0.50824 0.55301 0.0
C967 C 0.49294 0.52042 0.48526 0.0
C968 C 0.56821 0.29681 0.51301 0.0
C969 C 0.53617 0.24539 0.52262 0.0
C970 C 0.56658 0.38551 0.51201 0.0
C971 C 0.53159 0.42282 0.52041 0.0
C972 C 0.49845 0.37144 0.52954 0.0
C973 C 0.50134 0.28273 0.5307 0.0
C974 C 0.60261 0.43907 0.50235 0.0
C975 C 0.46017 0.41009 0.53814 0.0
H976 H 0.55206 0.67952 0.54533 0.0
H977 H 0.49451 0.68875 0.48771 0.0
H978 H 0.54176 0.46238 0.56092 0.0
H979 H 0.59167 0.47032 0.54849 0.0
H980 H 0.57634 0.55078 0.56357 0.0
H981 H 0.47922 0.56701 0.47318 0.0
H982 H 0.51791 0.48372 0.47873 0.0
H983 H 0.46801 0.47423 0.49117 0.0
H984 H 0.5954 0.26764 0.50696 0.0
H985 H 0.47658 0.24249 0.53808 0.0
H986 H 0.61656 0.4774 0.51323 0.0
H987 H 0.59088 0.48469 0.48961 0.0
H988 H 0.62784 0.39949 0.49686 0.0
H989 H 0.46985 0.44831 0.54991 0.0
H990 H 0.43715 0.36076 0.54467 0.0
H991 H 0.44419 0.45426 0.52632 0.0
C992 C 0.50096 0.78421 0.03026 0.0
C993 C 0.53694 0.74606 0.02345 0.0
C994 C 0.49814 0.87311 0.02882 0.0
C995 C 0.53265 0.92384 1.0209 0.0
C996 C 0.56902 0.88553 1.01396 0.0
C997 C 0.5705 0.79666 1.01508 0.0
C998 C 0.45841 0.91267 0.0358 0.0
C999 C 0.60658 0.9382 1.00573 0.0
C1000 C 0.51206 0.15346 1.00033 0.0
C1001 C 0.52288 0.19482 1.01659 0.0
C1002 C 0.515 0.06488 1.00159 0.0
C1003 C 0.5302 0.0174 1.01935 0.0
C1004 C 0.54224 0.05897 0.03567 0.0
C1005 C 0.53772 0.14776 0.0342 0.0
C1006 C 0.50073 0.022 0.98416 0.0
C1007 C 0.55943 0.00962 0.05465 0.0
H1008 H 0.47512 0.74443 0.03673 0.0
H1009 H 0.59861 0.76659 1.01015 0.0
H1010 H 0.46581 0.95001 0.04805 0.0
H1011 H 0.44484 0.95781 0.02342 0.0
H1012 H 0.43417 0.86391 0.04119 0.0
H1013 H 0.63293 0.8979 1.00155 0.0
H1014 H 0.59726 -0.01697 0.99236 0.0
H1015 H 0.61816 -0.0226 1.01697 0.0
H1016 H 0.49972 0.19015 0.98685 0.0
H1017 H 0.54587 0.18042 0.04672 0.0
H1018 H 0.47475 0.97648 0.98894 0.0
H1019 H 0.52694 -0.01544 0.97885 0.0
H1020 H 0.48953 0.06871 0.97145 0.0
H1021 H 0.53514 0.96472 0.06181 0.0
H1022 H 0.56937 0.0523 0.0655 0.0
H1023 H 0.58688 0.9707 0.05119 0.0
C1024 C 0.33506 0.36065 0.02353 0.0
C1025 C 0.37428 0.3238 1.02068 0.0
C1026 C 0.29839 0.30966 0.02611 0.0
C1027 C 0.30145 0.21967 0.02648 0.0
C1028 C 0.34144 0.18228 0.02439 0.0
C1029 C 0.37719 0.23494 1.02118 0.0
C1030 C 0.25625 0.35227 0.02782 0.0
C1031 C 0.34649 0.08669 0.02536 0.0
C1032 C 0.20865 0.08606 0.04927 0.0
C1033 C 0.18695 0.06864 0.03224 0.0
C1034 C 0.24656 0.13281 0.04764 0.0
C1035 C 0.26276 0.16487 0.02851 0.0
C1036 C 0.24164 0.14548 1.01128 0.0
C1037 C 0.20429 0.09679 1.01336 0.0
C1038 C 0.26868 0.14976 0.0664 0.0
C1039 C 0.25741 0.17947 0.9906 0.0
H1040 H 0.33289 0.42944 0.023 0.0
H1041 H 0.40771 0.20652 1.0191 0.0
H1042 H 0.23542 0.3387 1.01551 0.0
H1043 H 0.24055 0.32586 0.04203 0.0
H1044 H 0.25919 0.4227 0.02722 0.0
H1045 H 0.3801 0.06739 0.02488 0.0
H1046 H 0.33197 0.05337 0.03926 0.0
H1047 H 0.3299 0.06439 1.01265 0.0
H1048 H 0.19542 0.06471 0.06392 0.0
H1049 H 0.18741 0.08494 1.00012 0.0
H1050 H 0.26817 0.21924 0.06742 0.0
H1051 H 0.30222 0.13028 0.06598 0.0
H1052 H 0.25373 0.11512 0.08008 0.0
H1053 H 0.25739 0.25046 0.98855 0.0
H1054 H 0.23779 0.15758 0.97873 0.0
H1055 H 0.29038 0.15881 0.98867 0.0
C1056 C 0.83704 0.85936 0.02587 0.0
C1057 C 0.87396 0.82564 1.01872 0.0
C1058 C 0.8 0.80946 0.02872 0.0
C1059 C 0.80054 0.72301 0.02508 0.0
C1060 C 0.83834 0.68811 1.01861 0.0
C1061 C 0.87421 0.74018 1.01515 0.0
C1062 C 0.76001 0.84986 0.03507 0.0
C1063 C 0.84097 0.59564 1.01528 0.0
C1064 C 0.7123 0.5759 0.04803 0.0
C1065 C 0.68664 0.57015 0.03145 0.0
C1066 C 0.75 0.62357 0.04612 0.0
C1067 C 0.76137 0.66962 0.02733 0.0
C1068 C 0.73554 0.66372 1.01054 0.0
C1069 C 0.69893 0.61291 1.01274 0.0
C1070 C 0.77736 0.62546 0.06424 0.0
C1071 C 0.74573 0.71362 0.99038 0.0
H1072 H 0.83676 0.92538 0.02859 0.0
H1073 H 0.90286 0.71348 1.00984 0.0
H1074 H 0.7352 0.84656 0.02369 0.0
H1075 H 0.74817 0.81407 0.04928 0.0
H1076 H 0.76467 0.91784 0.0371 0.0
H1077 H 0.87327 0.5774 1.01111 0.0
H1078 H 0.83119 0.55328 0.02903 0.0
H1079 H 0.81906 0.58365 1.00326 0.0
H1080 H 0.70262 0.54373 0.06255 0.0
H1081 H 0.67862 0.61053 0.99998 0.0
H1082 H 0.77845 0.69122 0.06819 0.0
H1083 H 0.81015 0.60735 0.06093 0.0
H1084 H 0.76565 0.58148 0.07738 0.0
H1085 H 0.74744 0.78293 0.99158 0.0
H1086 H 0.72188 0.70379 0.97894 0.0
H1087 H 0.777 0.69447 0.98516 0.0
C1088 C 0.08732 0.40801 0.29218 0.0
C1089 C 0.09391 0.33607 0.28242 0.0
C1090 C 0.05017 0.45574 0.28965 0.0
C1091 C 0.01783 0.42989 0.27752 0.0
C1092 C 0.02333 0.35557 0.26819 0.0
C1093 C 0.06166 0.31019 0.27049 0.0
C1094 C 0.04622 0.53568 0.29947 0.0
C1095 C 0.98892 0.3246 0.25565 0.0
C1096 C 0.91026 0.52451 0.28593 0.0
C1097 C 0.907 0.588 0.26934 0.0
C1098 C 0.94549 0.47048 0.28841 0.0
C1099 C 0.97889 0.48253 0.27433 0.0
C1100 C 0.97608 0.54832 0.2578 0.0
C1101 C 0.9396 0.59896 0.25525 0.0
C1102 C 0.94662 0.39957 0.30588 0.0
C1103 C 0.01173 0.56571 0.24294 0.0
H1104 H 0.11201 0.42965 0.3013 0.0
H1105 H 0.0664 0.25487 0.26292 0.0
H1106 H 0.04129 0.59202 0.28792 0.0
H1107 H 0.01843 0.53083 0.30954 0.0
H1108 H 0.07458 0.54747 0.30827 0.0
H1109 H 0.9967 0.26218 0.25076 0.0
H1110 H 0.95888 0.31791 0.26418 0.0
H1111 H 0.98361 0.37224 0.24221 0.0
H1112 H 0.88433 0.51475 0.29651 0.0
H1113 H 0.93656 0.64737 0.24228 0.0
H1114 H 0.97324 0.40976 0.31585 0.0
H1115 H 0.9519 0.33724 0.30048 0.0
H1116 H 0.91699 0.39561 0.31477 0.0
H1117 H 0.04108 0.57972 0.25076 0.0
H1118 H 1.00496 0.62051 0.2312 0.0
H1119 H 0.0178 0.50828 0.23565 0.0
C1120 C 0.339 0.86153 0.52127 0.0
C1121 C 0.37848 0.82439 0.51926 0.0
C1122 C 0.30244 0.81035 0.52402 0.0
C1123 C 0.30589 0.72001 0.52543 0.0
C1124 C 0.34611 0.68249 0.52408 0.0
C1125 C 0.38178 0.73526 0.52067 0.0
C1126 C 0.26006 0.85297 0.52489 0.0
C1127 C 0.35149 0.58665 0.52613 0.0
C1128 C 0.21291 0.58962 0.54905 0.0
C1129 C 0.19169 0.56859 0.53223 0.0
C1130 C 0.25078 0.63649 0.54711 0.0
C1131 C 0.26739 0.66487 0.52786 0.0
C1132 C 0.24674 0.64183 0.51087 0.0
C1133 C 0.20942 0.59322 0.51327 0.0
C1134 C 0.27237 0.65764 0.56565 0.0
C1135 C 0.263 0.67182 0.49006 0.0
H1136 H 0.3366 0.93055 0.52004 0.0
H1137 H 0.41253 0.70675 0.51923 0.0
H1138 H 0.23966 0.83609 0.51274 0.0
H1139 H 0.24402 0.82949 0.5392 0.0
H1140 H 0.26269 0.92375 0.52341 0.0
H1141 H 0.38516 0.56765 0.5259 0.0
H1142 H 0.33701 0.5559 0.5403 0.0
H1143 H 0.33502 0.56127 0.51378 0.0
H1144 H 0.19936 0.57103 0.56375 0.0
H1145 H 0.19291 0.57857 0.50017 0.0
H1146 H 0.27153 0.72771 0.56589 0.0
H1147 H 0.306 0.63852 0.56561 0.0
H1148 H 0.25724 0.62533 0.57953 0.0
H1149 H 0.26277 0.74279 0.48719 0.0
H1150 H 0.24382 0.64704 0.47842 0.0
H1151 H 0.2961 0.65107 0.48858 0.0
C1152 C 0.85899 0.31135 0.53691 0.0
C1153 C 0.87452 0.33955 0.51767 0.0
C1154 C 0.822 0.26179 0.53979 0.0
C1155 C 0.79964 0.24091 0.52303 0.0
C1156 C 0.8145 0.27147 0.50358 0.0
C1157 C 0.85187 0.31969 0.50114 0.0
C1158 C 0.80745 0.22992 0.56079 0.0
C1159 C 0.79104 0.25288 0.48529 0.0
C1160 C 0.72316 0.05153 0.5288 0.0
C1161 C 0.68483 0.09241 0.53133 0.0
C1162 C 0.76103 0.09886 0.52642 0.0
C1163 C 0.76007 0.18915 0.52582 0.0
C1164 C 0.72106 0.23049 0.52778 0.0
C1165 C 0.68415 0.18151 0.53084 0.0
C1166 C 0.80212 0.0523 0.52482 0.0
C1167 C 0.71819 0.3266 0.52655 0.0
H1168 H 0.87658 0.32534 0.54977 0.0
H1169 H 0.86358 0.34139 0.48621 0.0
H1170 H 0.77444 0.24974 0.56297 0.0
H1171 H 0.8081 0.15894 0.56334 0.0
H1172 H 0.82748 0.25423 0.57219 0.0
H1173 H 0.80607 0.28354 0.47122 0.0
H1174 H 0.78964 0.18285 0.48505 0.0
H1175 H 0.75809 0.27598 0.48575 0.0
H1176 H 0.72362 -0.01734 0.52922 0.0
H1177 H 0.65435 0.21328 0.53256 0.0
H1178 H 0.82386 0.06623 0.53676 0.0
H1179 H 0.81762 0.07524 0.51033 0.0
H1180 H 0.79769 -0.01806 0.52606 0.0
H1181 H 0.73703 0.3486 0.53863 0.0
H1182 H 0.68521 0.34887 0.52781 0.0
H1183 H 0.73156 0.35764 0.51216 0.0
C1184 C 0.92423 0.0705 0.78658 0.0
C1185 C 0.90415 0.08255 0.76796 0.0
C1186 C 0.96143 0.0218 0.78955 0.0
C1187 C 0.97896 -0.01564 0.77353 0.0
C1188 C 0.95914 -0.00265 0.75467 0.0
C1189 C 0.92217 0.04613 0.75212 0.0
C1190 C 0.98177 0.00978 0.80986 0.0
C1191 C 0.97688 0.95931 0.73714 0.0
C1192 C 0.09536 0.92903 0.77394 0.0
C1193 C 0.09483 0.84034 0.77972 0.0
C1194 C 0.05802 0.97661 0.77211 0.0
C1195 C 0.01892 0.9343 0.77612 0.0
C1196 C 0.01814 0.84416 0.78178 0.0
C1197 C 0.05628 0.79799 0.7835 0.0
C1198 C 0.06051 0.07223 0.7659 0.0
C1199 C 0.97707 0.7968 0.78615 0.0
H1200 H 0.91044 0.09757 0.79895 0.0
H1201 H 0.90711 0.05492 0.73764 0.0
H1202 H 0.98333 0.94064 0.81576 0.0
H1203 H 0.01461 0.03426 0.80868 0.0
H1204 H 0.96433 0.04317 0.82075 0.0
H1205 H 0.95751 0.97495 0.72348 0.0
H1206 H 0.00937 -0.01669 0.73379 0.0
H1207 H 0.97877 0.88871 0.74085 0.0
H1208 H 0.12528 0.96135 0.77081 0.0
H1209 H 0.05605 0.72943 0.78815 0.0
H1210 H 0.04541 0.10585 0.77739 0.0
H1211 H 0.04304 0.0903 0.75178 0.0
H1212 H 0.09352 0.09537 0.76369 0.0
H1213 H 0.95996 0.82278 0.79829 0.0
H1214 H 0.98182 0.72705 0.79062 0.0
H1215 H 0.95662 0.80642 0.77276 0.0
C1216 C 0.56729 0.33818 0.79967 0.0
C1217 C 0.5883 0.31749 0.7827 0.0
C1218 C 0.52966 0.38536 0.79799 0.0
C1219 C 0.51301 0.41418 0.77886 0.0
C1220 C 0.53338 0.39136 0.7617 0.0
C1221 C 0.57054 0.34257 0.76384 0.0
C1222 C 0.50837 0.40635 0.81669 0.0
C1223 C 0.51697 0.42166 0.74101 0.0
C1224 C 0.39869 0.4834 0.77247 0.0
C1225 C 0.40199 0.57264 0.7709 0.0
C1226 C 0.43434 0.43102 0.77569 0.0
C1227 C 0.47456 0.46898 0.77674 0.0
C1228 C 0.47802 0.55936 0.77532 0.0
C1229 C 0.44147 0.61022 0.77271 0.0
C1230 C 0.42897 0.33511 0.77773 0.0
C1231 C 0.52043 0.60235 0.77594 0.0
H1232 H 0.58088 0.31919 0.81429 0.0
H1233 H 0.58691 0.32815 0.75063 0.0
H1234 H 0.50917 0.47645 0.81689 0.0
H1235 H 0.47475 0.38677 0.81691 0.0
H1236 H 0.52372 0.37431 0.83047 0.0
H1237 H 0.53592 0.39692 0.72923 0.0
H1238 H 0.48379 0.40108 0.73973 0.0
H1239 H 0.51744 0.49263 0.73819 0.0
H1240 H 0.36795 0.4545 0.7712 0.0
H1241 H 0.4439 0.6793 0.77133 0.0
H1242 H 0.44398 0.30426 0.79168 0.0
H1243 H 0.44491 0.31021 0.76513 0.0
H1244 H 0.39527 0.31567 0.77791 0.0
H1245 H 0.53696 0.57787 0.78999 0.0
H1246 H 0.51775 0.673 0.77483 0.0
H1247 H 0.54038 0.58689 0.76343 0.0
C1248 C 0.5592 0.79449 0.27432 0.0
C1249 C 0.59457 0.83229 0.2818 0.0
C1250 C 0.52061 0.83895 0.27195 0.0
C1251 C 0.51806 0.92392 0.2765 0.0
C1252 C 0.55407 0.96264 0.28361 0.0
C1253 C 0.59149 0.916 0.28645 0.0
C1254 C 0.48252 0.79498 0.26478 0.0
C1255 C 0.55335 0.05392 0.28798 0.0
C1256 C 0.43182 0.07097 0.25282 0.0
C1257 C 0.4044 0.07422 0.26898 0.0
C1258 C 0.46895 0.02238 0.25505 0.0
C1259 C 0.47808 0.97346 0.27373 0.0
C1260 C 0.45026 0.97611 0.29006 0.0
C1261 C 0.41406 0.02758 0.28757 0.0
C1262 C 0.49857 0.02412 0.23749 0.0
C1263 C 0.45843 0.92361 0.3101 0.0
H1264 H 0.56151 0.72996 0.27068 0.0
H1265 H 0.6189 0.94629 0.29192 0.0
H1266 H 0.45635 0.79504 0.2757 0.0
H1267 H 0.47144 0.83042 0.25043 0.0
H1268 H 0.48924 0.72786 0.26262 0.0
H1269 H 0.58473 0.07579 0.29248 0.0
H1270 H 0.54282 0.09741 0.2746 0.0
H1271 H 0.53052 0.06012 0.30013 0.0
H1272 H 0.42423 0.10681 0.23841 0.0
H1273 H 0.3924 0.02867 0.29996 0.0
H1274 H 0.50266 0.95863 0.23365 0.0
H1275 H 0.53011 0.04699 0.24144 0.0
H1276 H 0.48708 0.06631 0.22407 0.0
H1277 H 0.46224 0.85525 0.3083 0.0
H1278 H 0.43255 0.9291 0.32094 0.0
H1279 H 0.48822 0.9446 0.31644 0.0
loop_
_geom_bond_atom_site_label_1
_geom_bond_atom_site_label_2
_geom_bond_distance
_geom_bond_site_symmetry_2
_ccdc_geom_bond_type
Co0 H3 2.400 1_565 S
Co0 O4 2.009 1_565 S
Co0 O12 2.115 . S
Co0 O13 2.315 1_565 S
Co0 O24 2.053 . S
Co0 O27 2.094 1_655 S
Co0 O30 2.128 . S
Co1 O4 2.126 1_455 S
Co1 H5 2.388 1_546 S
Co1 O6 2.053 1_546 S
Co1 O9 2.047 . S
Co1 O15 2.113 . S
Co1 O26 2.063 . S
Co2 H3 2.388 1_564 S
Co2 O4 2.053 1_564 S
Co2 O6 2.126 1_655 S
Co2 O11 2.063 . S
Co2 O25 2.047 . S
Co2 O31 2.113 . S
H3 Co0 2.400 1_545 S
H3 Co2 2.388 1_546 S
H3 O4 0.760 . S
O4 Co0 2.009 1_545 S
O4 Co1 2.126 1_655 S
O4 Co2 2.053 1_546 S
O4 H3 0.760 . S
H5 Co1 2.388 1_564 S
H5 O6 0.760 . S
H5 Co7 2.400 1_565 S
O6 Co1 2.053 1_564 S
O6 Co2 2.126 1_455 S
O6 H5 0.760 . S
O6 Co7 2.009 1_565 S
Co7 H5 2.400 1_545 S
Co7 O6 2.009 1_545 S
Co7 O8 2.053 . S
Co7 O10 2.094 1_455 S
Co7 O14 2.122 . S
Co7 O28 2.115 . S
Co7 O29 2.315 1_545 S
O8 Co7 2.053 . S
O8 C20 1.259 . S
O9 Co1 2.047 . S
O9 C20 1.257 1_556 S
O10 Co7 2.094 1_655 S
O10 C21 1.253 1_545 S
O11 Co2 2.063 . S
O11 C21 1.268 . S
O12 Co0 2.115 . S
O12 C22 1.281 . S
O13 Co0 2.315 1_545 S
O13 C22 1.252 1_545 S
O14 Co7 2.122 . S
O14 C23 1.272 . S
O15 Co1 2.113 . S
O15 C23 1.245 1_556 S
C16 O24 1.259 . S
C16 O25 1.257 1_556 S
C17 O26 1.268 . S
C17 O27 1.253 1_545 S
C18 O28 1.281 . S
C18 O29 1.252 1_545 S
C19 O30 1.316 . S
C19 O31 1.210 1_556 S
C20 O8 1.259 . S
C20 O9 1.257 1_554 S
C21 O10 1.253 1_565 S
C21 O11 1.268 . S
C22 O12 1.281 . S
C22 O13 1.252 1_565 S
C23 O14 1.272 . S
C23 O15 1.245 1_554 S
O24 Co0 2.053 . S
O24 C16 1.259 . S
O25 Co2 2.047 . S
O25 C16 1.257 1_554 S
O26 Co1 2.063 . S
O26 C17 1.268 . S
O27 Co0 2.094 1_455 S
O27 C17 1.253 1_565 S
O28 Co7 2.115 . S
O28 C18 1.281 . S
O29 Co7 2.315 1_565 S
O29 C18 1.252 1_565 S
O30 Co0 2.128 . S
O30 C19 1.316 . S
O31 Co2 2.113 . S
O31 C19 1.210 1_554 S
Co32 H35 2.400 . S
Co32 O36 2.009 . S
Co32 O44 2.115 . S
Co32 O45 2.315 . S
Co32 O56 2.053 . S
Co32 O59 2.094 . S
Co32 O62 2.122 . S
Co33 O36 2.126 . S
Co33 H37 2.388 . S
Co33 O38 2.053 . S
Co33 O41 2.047 . S
Co33 O47 2.113 . S
Co33 O58 2.063 . S
Co34 H35 2.388 . S
Co34 O36 2.053 . S
Co34 O38 2.126 . S
Co34 O43 2.063 . S
Co34 O57 2.047 . S
Co34 O63 2.113 . S
H35 Co32 2.400 . S
H35 Co34 2.388 . S
H35 O36 0.760 . S
O36 Co32 2.009 . S
O36 Co33 2.126 . S
O36 Co34 2.053 . S
O36 H35 0.760 . S
H37 Co33 2.388 . S
H37 O38 0.760 . S
H37 Co39 2.400 . S
O38 Co33 2.053 . S
O38 Co34 2.126 . S
O38 H37 0.760 . S
O38 Co39 2.009 . S
Co39 H37 2.400 . S
Co39 O38 2.009 . S
Co39 O40 2.053 . S
Co39 O42 2.094 . S
Co39 O46 2.122 . S
Co39 O60 2.115 . S
Co39 O61 2.315 . S
O40 Co39 2.053 . S
O40 C52 1.259 . S
O41 Co33 2.047 . S
O41 C52 1.257 . S
O42 Co39 2.094 . S
O42 C53 1.253 . S
O43 Co34 2.063 . S
O43 C53 1.268 . S
O44 Co32 2.115 . S
O44 C54 1.281 . S
O45 Co32 2.315 . S
O45 C54 1.252 . S
O46 Co39 2.122 . S
O46 C55 1.272 . S
O47 Co33 2.113 . S
O47 C55 1.245 . S
C48 O56 1.259 . S
C48 O57 1.257 . S
C49 O58 1.268 . S
C49 O59 1.253 . S
C50 O60 1.281 . S
C50 O61 1.252 . S
C51 O62 1.272 . S
C51 O63 1.245 . S
C52 O40 1.259 . S
C52 O41 1.257 . S
C53 O42 1.253 . S
C53 O43 1.268 . S
C54 O44 1.281 . S
C54 O45 1.252 . S
C55 O46 1.272 . S
C55 O47 1.245 . S
O56 Co32 2.053 . S
O56 C48 1.259 . S
O57 Co34 2.047 . S
O57 C48 1.257 . S
O58 Co33 2.063 . S
O58 C49 1.268 . S
O59 Co32 2.094 . S
O59 C49 1.253 . S
O60 Co39 2.115 . S
O60 C50 1.281 . S
O61 Co39 2.315 . S
O61 C50 1.252 . S
O62 Co32 2.122 . S
O62 C51 1.272 . S
O63 Co34 2.113 . S
O63 C51 1.245 . S
Co64 H67 2.400 . S
Co64 O68 2.009 . S
Co64 O76 2.115 . S
Co64 O77 2.315 . S
Co64 O88 2.053 . S
Co64 O91 2.094 . S
Co64 O94 2.122 . S
Co65 O68 2.126 . S
Co65 H69 2.388 . S
Co65 O70 2.053 . S
Co65 O73 2.047 . S
Co65 O79 2.113 . S
Co65 O90 2.063 . S
Co66 H67 2.388 . S
Co66 O68 2.053 . S
Co66 O70 2.126 . S
Co66 O75 2.063 . S
Co66 O89 2.047 . S
Co66 O95 2.113 . S
H67 Co64 2.400 . S
H67 Co66 2.388 . S
H67 O68 0.760 . S
O68 Co64 2.009 . S
O68 Co65 2.126 . S
O68 Co66 2.053 . S
O68 H67 0.760 . S
H69 Co65 2.388 . S
H69 O70 0.760 . S
H69 Co71 2.400 . S
O70 Co65 2.053 . S
O70 Co66 2.126 . S
O70 H69 0.760 . S
O70 Co71 2.009 . S
Co71 H69 2.400 . S
Co71 O70 2.009 . S
Co71 O72 2.053 . S
Co71 O74 2.094 . S
Co71 O78 2.122 . S
Co71 O92 2.115 . S
Co71 O93 2.315 . S
O72 Co71 2.053 . S
O72 C84 1.259 . S
O73 Co65 2.047 . S
O73 C84 1.257 . S
O74 Co71 2.094 . S
O74 C85 1.253 . S
O75 Co66 2.063 . S
O75 C85 1.268 . S
O76 Co64 2.115 . S
O76 C86 1.281 . S
O77 Co64 2.315 . S
O77 C86 1.252 . S
O78 Co71 2.122 . S
O78 C87 1.272 . S
O79 Co65 2.113 . S
O79 C87 1.245 . S
C80 O88 1.259 . S
C80 O89 1.257 . S
C81 O90 1.268 . S
C81 O91 1.253 . S
C82 O92 1.281 . S
C82 O93 1.252 . S
C83 O94 1.272 . S
C83 O95 1.245 . S
C84 O72 1.259 . S
C84 O73 1.257 . S
C85 O74 1.253 . S
C85 O75 1.268 . S
C86 O76 1.281 . S
C86 O77 1.252 . S
C87 O78 1.272 . S
C87 O79 1.245 . S
O88 Co64 2.053 . S
O88 C80 1.259 . S
O89 Co66 2.047 . S
O89 C80 1.257 . S
O90 Co65 2.063 . S
O90 C81 1.268 . S
O91 Co64 2.094 . S
O91 C81 1.253 . S
O92 Co71 2.115 . S
O92 C82 1.281 . S
O93 Co71 2.315 . S
O93 C82 1.252 . S
O94 Co64 2.122 . S
O94 C83 1.272 . S
O95 Co66 2.113 . S
O95 C83 1.245 . S
Co96 H99 2.400 . S
Co96 O100 2.009 . S
Co96 O108 2.115 . S
Co96 O109 2.315 . S
Co96 O120 2.053 . S
Co96 O123 2.094 1_655 S
Co96 O126 2.127 . S
Co97 O100 2.126 1_455 S
Co97 H101 2.388 . S
Co97 O102 2.053 . S
Co97 O105 2.047 . S
Co97 O111 2.113 . S
Co97 O122 2.063 . S
Co98 H99 2.388 . S
Co98 O100 2.053 . S
Co98 O102 2.126 1_655 S
Co98 O107 2.063 . S
Co98 O121 2.047 . S
Co98 O127 2.113 . S
H99 Co96 2.400 . S
H99 Co98 2.388 . S
H99 O100 0.760 . S
O100 Co96 2.009 . S
O100 Co97 2.126 1_655 S
O100 Co98 2.053 . S
O100 H99 0.760 . S
H101 Co97 2.388 . S
H101 O102 0.760 . S
H101 Co103 2.400 . S
O102 Co97 2.053 . S
O102 Co98 2.126 1_455 S
O102 H101 0.760 . S
O102 Co103 2.009 . S
Co103 H101 2.400 . S
Co103 O102 2.009 . S
Co103 O104 2.053 . S
Co103 O106 2.094 1_455 S
Co103 O110 2.122 . S
Co103 O124 2.115 . S
Co103 O125 2.315 . S
O104 Co103 2.053 . S
O104 C116 1.259 . S
O105 Co97 2.047 . S
O105 C116 1.257 . S
O106 Co103 2.094 1_655 S
O106 C117 1.253 . S
O107 Co98 2.063 . S
O107 C117 1.268 . S
O108 Co96 2.115 . S
O108 C118 1.281 . S
O109 Co96 2.315 . S
O109 C118 1.252 . S
O110 Co103 2.122 . S
O110 C119 1.272 . S
O111 Co97 2.113 . S
O111 C119 1.245 . S
C112 O120 1.259 . S
C112 O121 1.257 . S
C113 O122 1.268 . S
C113 O123 1.253 . S
C114 O124 1.281 . S
C114 O125 1.252 . S
C115 O126 1.272 . S
C115 O127 1.245 . S
C116 O104 1.259 . S
C116 O105 1.257 . S
C117 O106 1.253 . S
C117 O107 1.268 . S
C118 O108 1.281 . S
C118 O109 1.252 . S
C119 O110 1.272 . S
C119 O111 1.245 . S
O120 Co96 2.053 . S
O120 C112 1.259 . S
O121 Co98 2.047 . S
O121 C112 1.257 . S
O122 Co97 2.063 . S
O122 C113 1.268 . S
O123 Co96 2.094 1_455 S
O123 C113 1.253 . S
O124 Co103 2.115 . S
O124 C114 1.281 . S
O125 Co103 2.315 . S
O125 C114 1.252 . S
O126 Co96 2.127 . S
O126 C115 1.272 . S
O127 Co98 2.113 . S
O127 C115 1.245 . S
Co128 H131 2.400 . S
Co128 O132 2.009 . S
Co128 O140 2.115 . S
Co128 O141 2.315 . S
Co128 O152 2.053 . S
Co128 O155 2.094 . S
Co128 O158 2.122 . S
Co129 O132 2.126 . S
Co129 H133 2.388 . S
Co129 O134 2.053 . S
Co129 O137 2.047 . S
Co129 O143 2.113 . S
Co129 O154 2.063 . S
Co130 H131 2.388 . S
Co130 O132 2.053 . S
Co130 O134 2.126 . S
Co130 O139 2.063 . S
Co130 O153 2.047 . S
Co130 O159 2.113 . S
H131 Co128 2.400 . S
H131 Co130 2.388 . S
H131 O132 0.760 . S
O132 Co128 2.009 . S
O132 Co129 2.126 . S
O132 Co130 2.053 . S
O132 H131 0.760 . S
H133 Co129 2.388 . S
H133 O134 0.760 . S
H133 Co135 2.400 . S
O134 Co129 2.053 . S
O134 Co130 2.126 . S
O134 H133 0.760 . S
O134 Co135 2.009 . S
Co135 H133 2.400 . S
Co135 O134 2.009 . S
Co135 O136 2.053 . S
Co135 O138 2.094 . S
Co135 O142 2.122 . S
Co135 O156 2.115 . S
Co135 O157 2.315 . S
O136 Co135 2.053 . S
O136 C148 1.259 . S
O137 Co129 2.047 . S
O137 C148 1.257 . S
O138 Co135 2.094 . S
O138 C149 1.253 . S
O139 Co130 2.063 . S
O139 C149 1.268 . S
O140 Co128 2.115 . S
O140 C150 1.281 . S
O141 Co128 2.315 . S
O141 C150 1.252 . S
O142 Co135 2.122 . S
O142 C151 1.272 . S
O143 Co129 2.113 . S
O143 C151 1.245 . S
C144 O152 1.259 . S
C144 O153 1.257 . S
C145 O154 1.268 . S
C145 O155 1.253 . S
C146 O156 1.281 . S
C146 O157 1.252 . S
C147 O158 1.272 . S
C147 O159 1.245 . S
C148 O136 1.259 . S
C148 O137 1.257 . S
C149 O138 1.253 . S
C149 O139 1.268 . S
C150 O140 1.281 . S
C150 O141 1.252 . S
C151 O142 1.272 . S
C151 O143 1.245 . S
O152 Co128 2.053 . S
O152 C144 1.259 . S
O153 Co130 2.047 . S
O153 C144 1.257 . S
O154 Co129 2.063 . S
O154 C145 1.268 . S
O155 Co128 2.094 . S
O155 C145 1.253 . S
O156 Co135 2.115 . S
O156 C146 1.281 . S
O157 Co135 2.315 . S
O157 C146 1.252 . S
O158 Co128 2.122 . S
O158 C147 1.272 . S
O159 Co130 2.113 . S
O159 C147 1.245 . S
Co160 H163 2.400 . S
Co160 O164 2.009 . S
Co160 O172 2.115 . S
Co160 O173 2.315 . S
Co160 O184 2.053 . S
Co160 O187 2.094 . S
Co160 O190 2.122 . S
Co161 O164 2.126 . S
Co161 H165 2.388 . S
Co161 O166 2.053 . S
Co161 O169 2.047 . S
Co161 O175 2.113 . S
Co161 O186 2.063 . S
Co162 H163 2.388 . S
Co162 O164 2.053 . S
Co162 O166 2.126 . S
Co162 O171 2.063 . S
Co162 O185 2.047 . S
Co162 O191 2.113 . S
H163 Co160 2.400 . S
H163 Co162 2.388 . S
H163 O164 0.760 . S
O164 Co160 2.009 . S
O164 Co161 2.126 . S
O164 Co162 2.053 . S
O164 H163 0.760 . S
H165 Co161 2.388 . S
H165 O166 0.760 . S
H165 Co167 2.400 . S
O166 Co161 2.053 . S
O166 Co162 2.126 . S
O166 H165 0.760 . S
O166 Co167 2.009 . S
Co167 H165 2.400 . S
Co167 O166 2.009 . S
Co167 O168 2.053 . S
Co167 O170 2.094 . S
Co167 O174 2.122 . S
Co167 O188 2.115 . S
Co167 O189 2.315 . S
O168 Co167 2.053 . S
O168 C180 1.259 . S
O169 Co161 2.047 . S
O169 C180 1.257 . S
O170 Co167 2.094 . S
O170 C181 1.253 . S
O171 Co162 2.063 . S
O171 C181 1.268 . S
O172 Co160 2.115 . S
O172 C182 1.281 . S
O173 Co160 2.315 . S
O173 C182 1.252 . S
O174 Co167 2.122 . S
O174 C183 1.272 . S
O175 Co161 2.113 . S
O175 C183 1.245 . S
C176 O184 1.259 . S
C176 O185 1.257 . S
C177 O186 1.268 . S
C177 O187 1.253 . S
C178 O188 1.281 . S
C178 O189 1.252 . S
C179 O190 1.272 . S
C179 O191 1.245 . S
C180 O168 1.259 . S
C180 O169 1.257 . S
C181 O170 1.253 . S
C181 O171 1.268 . S
C182 O172 1.281 . S
C182 O173 1.252 . S
C183 O174 1.272 . S
C183 O175 1.245 . S
O184 Co160 2.053 . S
O184 C176 1.259 . S
O185 Co162 2.047 . S
O185 C176 1.257 . S
O186 Co161 2.063 . S
O186 C177 1.268 . S
O187 Co160 2.094 . S
O187 C177 1.253 . S
O188 Co167 2.115 . S
O188 C178 1.281 . S
O189 Co167 2.315 . S
O189 C178 1.252 . S
O190 Co160 2.122 . S
O190 C179 1.272 . S
O191 Co162 2.113 . S
O191 C179 1.245 . S
Co192 H195 2.400 1_565 S
Co192 O196 2.009 1_565 S
Co192 O204 2.115 . S
Co192 O205 2.315 1_565 S
Co192 O216 2.053 . S
Co192 O219 2.094 . S
Co192 O222 2.122 . S
Co193 O196 2.126 . S
Co193 H197 2.388 1_545 S
Co193 O198 2.053 1_545 S
Co193 O201 2.047 . S
Co193 O207 2.113 . S
Co193 O218 2.063 . S
Co194 H195 2.388 1_565 S
Co194 O196 2.053 1_565 S
Co194 O198 2.126 . S
Co194 O203 2.063 . S
Co194 O217 2.047 . S
Co194 O223 2.113 . S
H195 Co192 2.400 1_545 S
H195 Co194 2.388 1_545 S
H195 O196 0.760 . S
O196 Co192 2.009 1_545 S
O196 Co193 2.126 . S
O196 Co194 2.053 1_545 S
O196 H195 0.760 . S
H197 Co193 2.388 1_565 S
H197 O198 0.760 . S
H197 Co199 2.400 1_565 S
O198 Co193 2.053 1_565 S
O198 Co194 2.126 . S
O198 H197 0.760 . S
O198 Co199 2.009 1_565 S
Co199 H197 2.400 1_545 S
Co199 O198 2.009 1_545 S
Co199 O200 2.053 . S
Co199 O202 2.094 . S
Co199 O206 2.122 . S
Co199 O220 2.115 . S
Co199 O221 2.315 1_545 S
O200 Co199 2.053 . S
O200 C212 1.259 . S
O201 Co193 2.047 . S
O201 C212 1.257 . S
O202 Co199 2.094 . S
O202 C213 1.253 1_545 S
O203 Co194 2.063 . S
O203 C213 1.268 . S
O204 Co192 2.115 . S
O204 C214 1.281 . S
O205 Co192 2.315 1_545 S
O205 C214 1.252 1_545 S
O206 Co199 2.122 . S
O206 C215 1.272 . S
O207 Co193 2.113 . S
O207 C215 1.245 . S
C208 O216 1.259 . S
C208 O217 1.257 . S
C209 O218 1.268 . S
C209 O219 1.253 1_545 S
C210 O220 1.281 . S
C210 O221 1.252 1_545 S
C211 O222 1.272 . S
C211 O223 1.245 . S
C212 O200 1.259 . S
C212 O201 1.257 . S
C213 O202 1.253 1_565 S
C213 O203 1.268 . S
C214 O204 1.281 . S
C214 O205 1.252 1_565 S
C215 O206 1.272 . S
C215 O207 1.245 . S
O216 Co192 2.053 . S
O216 C208 1.259 . S
O217 Co194 2.047 . S
O217 C208 1.257 . S
O218 Co193 2.063 . S
O218 C209 1.268 . S
O219 Co192 2.094 . S
O219 C209 1.253 1_565 S
O220 Co199 2.115 . S
O220 C210 1.281 . S
O221 Co199 2.315 1_565 S
O221 C210 1.252 1_565 S
O222 Co192 2.122 . S
O222 C211 1.272 . S
O223 Co194 2.113 . S
O223 C211 1.245 . S
Co224 H227 2.400 . S
Co224 O228 2.009 . S
Co224 O236 2.115 . S
Co224 O237 2.315 . S
Co224 O248 2.053 . S
Co224 O251 2.094 . S
Co224 O254 2.122 . S
Co225 O228 2.126 . S
Co225 H229 2.388 1_556 S
Co225 O230 2.053 1_556 S
Co225 O233 2.047 . S
Co225 O239 2.113 . S
Co225 O250 2.063 . S
Co226 H227 2.388 1_554 S
Co226 O228 2.053 1_554 S
Co226 O230 2.126 . S
Co226 O235 2.063 . S
Co226 O249 2.047 . S
Co226 O255 2.113 . S
H227 Co224 2.400 . S
H227 Co226 2.388 1_556 S
H227 O228 0.760 . S
O228 Co224 2.009 . S
O228 Co225 2.126 . S
O228 Co226 2.053 1_556 S
O228 H227 0.760 . S
H229 Co225 2.388 1_554 S
H229 O230 0.760 . S
H229 Co231 2.400 . S
O230 Co225 2.053 1_554 S
O230 Co226 2.126 . S
O230 H229 0.760 . S
O230 Co231 2.009 . S
Co231 H229 2.400 . S
Co231 O230 2.009 . S
Co231 O232 2.053 . S
Co231 O234 2.094 . S
Co231 O238 2.122 . S
Co231 O252 2.115 . S
Co231 O253 2.315 . S
O232 Co231 2.053 . S
O232 C244 1.259 . S
O233 Co225 2.047 . S
O233 C244 1.257 1_556 S
O234 Co231 2.094 . S
O234 C245 1.253 . S
O235 Co226 2.063 . S
O235 C245 1.268 . S
O236 Co224 2.115 . S
O236 C246 1.281 . S
O237 Co224 2.315 . S
O237 C246 1.252 . S
O238 Co231 2.122 . S
O238 C247 1.272 . S
O239 Co225 2.113 . S
O239 C247 1.245 1_556 S
C240 O248 1.259 . S
C240 O249 1.257 1_556 S
C241 O250 1.268 . S
C241 O251 1.253 . S
C242 O252 1.281 . S
C242 O253 1.252 . S
C243 O254 1.316 . S
C243 O255 1.210 1_556 S
C244 O232 1.259 . S
C244 O233 1.257 1_554 S
C245 O234 1.253 . S
C245 O235 1.268 . S
C246 O236 1.281 . S
C246 O237 1.252 . S
C247 O238 1.272 . S
C247 O239 1.245 1_554 S
O248 Co224 2.053 . S
O248 C240 1.259 . S
O249 Co226 2.047 . S
O249 C240 1.257 1_554 S
O250 Co225 2.063 . S
O250 C241 1.268 . S
O251 Co224 2.094 . S
O251 C241 1.253 . S
O252 Co231 2.115 . S
O252 C242 1.281 . S
O253 Co231 2.315 . S
O253 C242 1.252 . S
O254 Co224 2.122 . S
O254 C243 1.316 . S
O255 Co226 2.113 . S
O255 C243 1.210 1_554 S
C256 C257 1.391 . S
C256 C258 1.394 . S
C256 H272 0.925 1_545 S
C257 C256 1.391 . S
C257 C261 1.376 . S
C258 C256 1.394 . S
C258 C259 1.369 . S
C258 C262 1.531 . S
C259 C258 1.369 . S
C259 C260 1.410 . S
C259 C267 1.503 . S
C260 C259 1.410 . S
C260 C261 1.392 . S
C260 C263 1.511 . S
C261 C257 1.376 . S
C261 C260 1.392 . S
C261 H273 0.929 . S
C262 C258 1.531 . S
C262 H274 0.960 . S
C262 H275 0.962 . S
C262 H276 0.960 1_545 S
C263 C260 1.511 . S
C263 H277 0.961 . S
C263 H278 0.961 . S
C263 H279 0.961 . S
C264 C265 1.370 . S
C264 C266 1.363 . S
C264 H280 0.931 . S
C265 C264 1.370 . S
C265 C269 1.408 . S
C266 C264 1.363 . S
C266 C267 1.370 . S
C266 C270 1.524 . S
C267 C259 1.503 . S
C267 C266 1.370 . S
C267 C268 1.403 . S
C268 C267 1.403 . S
C268 C269 1.404 . S
C268 C271 1.539 . S
C269 C265 1.408 . S
C269 C268 1.404 . S
C269 H281 0.930 . S
C270 C266 1.524 . S
C270 H282 0.956 . S
C270 H283 0.961 . S
C270 H284 0.961 . S
C271 C268 1.539 . S
C271 H285 0.958 . S
C271 H286 0.961 . S
C271 H287 0.960 . S
H272 C256 0.925 1_565 S
H273 C261 0.929 . S
H274 C262 0.960 . S
H275 C262 0.962 . S
H276 C262 0.960 1_565 S
H277 C263 0.961 . S
H278 C263 0.961 . S
H279 C263 0.961 . S
H280 C264 0.931 . S
H281 C269 0.930 . S
H282 C270 0.956 . S
H283 C270 0.961 . S
H284 C270 0.961 . S
H285 C271 0.958 . S
H286 C271 0.961 . S
H287 C271 0.960 . S
C288 C289 1.391 . S
C288 C290 1.394 . S
C288 H304 0.931 . S
C289 C288 1.391 . S
C289 C293 1.376 . S
C290 C288 1.394 . S
C290 C291 1.369 . S
C290 C294 1.531 . S
C291 C290 1.369 . S
C291 C292 1.410 . S
C291 C299 1.503 . S
C292 C291 1.410 . S
C292 C293 1.392 . S
C292 C295 1.511 . S
C293 C289 1.376 . S
C293 C292 1.392 . S
C293 H305 0.929 . S
C294 C290 1.531 . S
C294 H306 0.960 . S
C294 H307 0.962 . S
C294 H308 0.960 . S
C295 C292 1.511 . S
C295 H309 0.961 . S
C295 H310 0.961 . S
C295 H311 0.961 . S
C296 C297 1.370 . S
C296 C298 1.363 . S
C296 H312 0.931 . S
C297 C296 1.370 . S
C297 C301 1.408 . S
C298 C296 1.363 . S
C298 C299 1.370 . S
C298 C302 1.524 . S
C299 C291 1.503 . S
C299 C298 1.370 . S
C299 C300 1.403 . S
C300 C299 1.403 . S
C300 C301 1.404 . S
C300 C303 1.539 . S
C301 C297 1.408 . S
C301 C300 1.404 . S
C301 H313 0.930 . S
C302 C298 1.524 . S
C302 H314 0.956 . S
C302 H315 0.961 . S
C302 H316 0.961 . S
C303 C300 1.539 . S
C303 H317 0.958 . S
C303 H318 0.961 . S
C303 H319 0.960 . S
H304 C288 0.931 . S
H305 C293 0.929 . S
H306 C294 0.960 . S
H307 C294 0.962 . S
H308 C294 0.960 . S
H309 C295 0.961 . S
H310 C295 0.961 . S
H311 C295 0.961 . S
H312 C296 0.931 . S
H313 C301 0.930 . S
H314 C302 0.956 . S
H315 C302 0.961 . S
H316 C302 0.961 . S
H317 C303 0.958 . S
H318 C303 0.961 . S
H319 C303 0.960 . S
C320 C321 1.391 . S
C320 C322 1.394 . S
C320 H336 0.931 . S
C321 C320 1.391 . S
C321 C325 1.376 . S
C322 C320 1.394 . S
C322 C323 1.369 . S
C322 C326 1.531 . S
C323 C322 1.369 . S
C323 C324 1.410 . S
C323 C331 1.503 . S
C324 C323 1.410 . S
C324 C325 1.392 . S
C324 C327 1.511 . S
C325 C321 1.376 . S
C325 C324 1.392 . S
C325 H337 0.929 . S
C326 C322 1.531 . S
C326 H338 0.960 . S
C326 H339 0.962 . S
C326 H340 0.960 . S
C327 C324 1.511 . S
C327 H341 0.961 . S
C327 H342 0.961 . S
C327 H343 0.961 . S
C328 C329 1.370 . S
C328 C330 1.363 . S
C328 H344 0.931 . S
C329 C328 1.370 . S
C329 C333 1.408 . S
C330 C328 1.363 . S
C330 C331 1.370 . S
C330 C334 1.524 . S
C331 C323 1.503 . S
C331 C330 1.370 . S
C331 C332 1.403 . S
C332 C331 1.403 . S
C332 C333 1.404 . S
C332 C335 1.539 . S
C333 C329 1.408 . S
C333 C332 1.404 . S
C333 H345 0.930 . S
C334 C330 1.524 . S
C334 H346 0.956 . S
C334 H347 0.961 . S
C334 H348 0.961 . S
C335 C332 1.539 . S
C335 H349 0.958 . S
C335 H350 0.961 . S
C335 H351 0.960 . S
H336 C320 0.931 . S
H337 C325 0.929 . S
H338 C326 0.960 . S
H339 C326 0.962 . S
H340 C326 0.960 . S
H341 C327 0.961 . S
H342 C327 0.961 . S
H343 C327 0.961 . S
H344 C328 0.931 . S
H345 C333 0.930 . S
H346 C334 0.956 . S
H347 C334 0.961 . S
H348 C334 0.961 . S
H349 C335 0.958 . S
H350 C335 0.961 . S
H351 C335 0.960 . S
C352 C353 1.391 . S
C352 C354 1.394 . S
C352 H368 0.931 . S
C353 C352 1.391 . S
C353 C357 1.376 . S
C354 C352 1.394 . S
C354 C355 1.369 . S
C354 C358 1.531 . S
C355 C354 1.369 . S
C355 C356 1.410 . S
C355 C363 1.503 . S
C356 C355 1.410 . S
C356 C357 1.392 . S
C356 C359 1.511 . S
C357 C353 1.376 . S
C357 C356 1.392 . S
C357 H369 0.929 . S
C358 C354 1.531 . S
C358 H370 0.960 . S
C358 H371 0.962 . S
C358 H372 0.960 . S
C359 C356 1.511 . S
C359 H373 0.961 . S
C359 H374 0.961 . S
C359 H375 0.961 . S
C360 C361 1.370 . S
C360 C362 1.363 . S
C360 H376 0.931 . S
C361 C360 1.370 . S
C361 C365 1.408 . S
C362 C360 1.363 . S
C362 C363 1.370 . S
C362 C366 1.524 . S
C363 C355 1.503 . S
C363 C362 1.370 . S
C363 C364 1.403 . S
C364 C363 1.403 . S
C364 C365 1.404 . S
C364 C367 1.539 . S
C365 C361 1.408 . S
C365 C364 1.404 . S
C365 H377 0.930 . S
C366 C362 1.524 . S
C366 H378 0.956 . S
C366 H379 0.961 . S
C366 H380 0.961 . S
C367 C364 1.539 . S
C367 H381 0.958 . S
C367 H382 0.961 . S
C367 H383 0.960 . S
H368 C352 0.931 . S
H369 C357 0.929 . S
H370 C358 0.960 . S
H371 C358 0.962 . S
H372 C358 0.960 . S
H373 C359 0.961 . S
H374 C359 0.961 . S
H375 C359 0.961 . S
H376 C360 0.931 . S
H377 C365 0.930 . S
H378 C366 0.956 . S
H379 C366 0.961 . S
H380 C366 0.961 . S
H381 C367 0.958 . S
H382 C367 0.961 . S
H383 C367 0.960 . S
C384 C385 1.391 . S
C384 C386 1.394 . S
C384 H400 0.931 . S
C385 C384 1.391 . S
C385 C389 1.376 . S
C386 C384 1.394 . S
C386 C387 1.369 . S
C386 C390 1.531 . S
C387 C386 1.369 . S
C387 C388 1.410 . S
C387 C395 1.503 . S
C388 C387 1.410 . S
C388 C389 1.392 . S
C388 C391 1.511 . S
C389 C385 1.376 . S
C389 C388 1.392 . S
C389 H401 0.929 . S
C390 C386 1.531 . S
C390 H402 0.960 . S
C390 H403 0.962 . S
C390 H404 0.960 . S
C391 C388 1.511 . S
C391 H405 0.961 . S
C391 H406 0.961 . S
C391 H407 0.961 . S
C392 C393 1.370 . S
C392 C394 1.363 . S
C392 H408 0.931 . S
C393 C392 1.370 . S
C393 C397 1.408 . S
C394 C392 1.363 . S
C394 C395 1.370 . S
C394 C398 1.524 . S
C395 C387 1.503 . S
C395 C394 1.370 . S
C395 C396 1.403 . S
C396 C395 1.403 . S
C396 C397 1.404 . S
C396 C399 1.539 . S
C397 C393 1.408 . S
C397 C396 1.404 . S
C397 H409 0.930 . S
C398 C394 1.524 . S
C398 H410 0.956 . S
C398 H411 0.961 . S
C398 H412 0.961 . S
C399 C396 1.539 . S
C399 H413 0.958 . S
C399 H414 0.961 . S
C399 H415 0.960 . S
H400 C384 0.931 . S
H401 C389 0.929 . S
H402 C390 0.960 . S
H403 C390 0.962 . S
H404 C390 0.960 . S
H405 C391 0.961 . S
H406 C391 0.961 . S
H407 C391 0.961 . S
H408 C392 0.931 . S
H409 C397 0.930 . S
H410 C398 0.956 . S
H411 C398 0.961 . S
H412 C398 0.961 . S
H413 C399 0.958 . S
H414 C399 0.961 . S
H415 C399 0.960 . S
C416 C417 1.391 . S
C416 C418 1.394 . S
C416 H432 0.931 . S
C417 C416 1.391 . S
C417 C421 1.376 . S
C418 C416 1.394 . S
C418 C419 1.369 . S
C418 C422 1.531 . S
C419 C418 1.369 . S
C419 C420 1.410 . S
C419 C427 1.503 . S
C420 C419 1.410 . S
C420 C421 1.392 . S
C420 C423 1.511 . S
C421 C417 1.376 . S
C421 C420 1.392 . S
C421 H433 0.929 . S
C422 C418 1.531 . S
C422 H434 0.960 . S
C422 H435 0.962 . S
C422 H436 0.960 . S
C423 C420 1.511 . S
C423 H437 0.961 . S
C423 H438 0.961 . S
C423 H439 0.961 . S
C424 C425 1.370 . S
C424 C426 1.363 . S
C424 H440 0.931 . S
C425 C424 1.370 . S
C425 C429 1.408 . S
C426 C424 1.363 . S
C426 C427 1.370 . S
C426 C430 1.524 . S
C427 C419 1.503 . S
C427 C426 1.370 . S
C427 C428 1.403 . S
C428 C427 1.403 . S
C428 C429 1.404 . S
C428 C431 1.539 . S
C429 C425 1.408 . S
C429 C428 1.404 . S
C429 H441 0.930 . S
C430 C426 1.524 . S
C430 H442 0.956 . S
C430 H443 0.961 . S
C430 H444 0.961 . S
C431 C428 1.539 . S
C431 H445 0.958 . S
C431 H446 0.961 . S
C431 H447 0.960 . S
H432 C416 0.931 . S
H433 C421 0.929 . S
H434 C422 0.960 . S
H435 C422 0.962 . S
H436 C422 0.960 . S
H437 C423 0.961 . S
H438 C423 0.961 . S
H439 C423 0.961 . S
H440 C424 0.931 . S
H441 C429 0.930 . S
H442 C430 0.956 . S
H443 C430 0.961 . S
H444 C430 0.961 . S
H445 C431 0.958 . S
H446 C431 0.961 . S
H447 C431 0.960 . S
C448 C449 1.391 . S
C448 C450 1.394 . S
C448 H464 0.931 . S
C449 C448 1.391 . S
C449 C453 1.376 . S
C450 C448 1.394 . S
C450 C451 1.369 . S
C450 C454 1.531 1_565 S
C451 C450 1.369 . S
C451 C452 1.410 . S
C451 C459 1.503 . S
C452 C451 1.410 . S
C452 C453 1.392 . S
C452 C455 1.511 . S
C453 C449 1.376 . S
C453 C452 1.392 . S
C453 H465 0.929 . S
C454 C450 1.531 1_545 S
C454 H466 0.960 . S
C454 H467 0.962 . S
C454 H468 0.960 . S
C455 C452 1.511 . S
C455 H469 0.961 . S
C455 H470 0.961 . S
C455 H471 0.961 . S
C456 C457 1.370 1_565 S
C456 C458 1.363 . S
C456 H472 0.931 . S
C457 C456 1.370 1_545 S
C457 C461 1.408 1_545 S
C458 C456 1.363 . S
C458 C459 1.370 . S
C458 C462 1.524 . S
C459 C451 1.503 . S
C459 C458 1.370 . S
C459 C460 1.403 . S
C460 C459 1.403 . S
C460 C461 1.404 . S
C460 C463 1.539 . S
C461 C457 1.408 1_565 S
C461 C460 1.404 . S
C461 H473 0.930 1_565 S
C462 C458 1.524 . S
C462 H474 0.956 . S
C462 H475 0.961 . S
C462 H476 0.961 . S
C463 C460 1.539 . S
C463 H477 0.958 . S
C463 H478 0.961 . S
C463 H479 0.960 . S
H464 C448 0.931 . S
H465 C453 0.929 . S
H466 C454 0.960 . S
H467 C454 0.962 . S
H468 C454 0.960 . S
H469 C455 0.961 . S
H470 C455 0.961 . S
H471 C455 0.961 . S
H472 C456 0.931 . S
H473 C461 0.930 1_545 S
H474 C462 0.956 . S
H475 C462 0.961 . S
H476 C462 0.961 . S
H477 C463 0.958 . S
H478 C463 0.961 . S
H479 C463 0.960 . S
C480 C481 1.391 . S
C480 C482 1.394 . S
C480 H496 0.931 . S
C481 C480 1.391 . S
C481 C485 1.376 . S
C482 C480 1.394 . S
C482 C483 1.369 . S
C482 C486 1.531 . S
C483 C482 1.369 . S
C483 C484 1.410 . S
C483 C491 1.503 . S
C484 C483 1.410 . S
C484 C485 1.392 . S
C484 C487 1.511 . S
C485 C481 1.376 . S
C485 C484 1.392 . S
C485 H497 0.929 . S
C486 C482 1.531 . S
C486 H498 0.960 . S
C486 H499 0.962 1_545 S
C486 H500 0.960 . S
C487 C484 1.511 . S
C487 H501 0.961 . S
C487 H502 0.961 . S
C487 H503 0.961 . S
C488 C489 1.370 . S
C488 C490 1.363 1_565 S
C488 H504 0.931 . S
C489 C488 1.370 . S
C489 C493 1.408 1_565 S
C490 C488 1.363 1_545 S
C490 C491 1.370 . S
C490 C494 1.524 1_545 S
C491 C483 1.503 . S
C491 C490 1.370 . S
C491 C492 1.403 . S
C492 C491 1.403 . S
C492 C493 1.404 . S
C492 C495 1.539 . S
C493 C489 1.408 1_545 S
C493 C492 1.404 . S
C493 H505 0.930 . S
C494 C490 1.524 1_565 S
C494 H506 0.956 . S
C494 H507 0.961 1_565 S
C494 H508 0.961 . S
C495 C492 1.539 . S
C495 H509 0.958 . S
C495 H510 0.961 . S
C495 H511 0.960 . S
H496 C480 0.931 . S
H497 C485 0.929 . S
H498 C486 0.960 . S
H499 C486 0.962 1_565 S
H500 C486 0.960 . S
H501 C487 0.961 . S
H502 C487 0.961 . S
H503 C487 0.961 . S
H504 C488 0.931 . S
H505 C493 0.930 . S
H506 C494 0.956 . S
H507 C494 0.961 1_545 S
H508 C494 0.961 . S
H509 C495 0.958 . S
H510 C495 0.961 . S
H511 C495 0.960 . S
C512 C513 1.391 . S
C512 C514 1.394 . S
C512 H528 0.931 . S
C513 C512 1.391 . S
C513 C517 1.376 . S
C514 C512 1.394 . S
C514 C515 1.369 . S
C514 C518 1.531 . S
C515 C514 1.369 . S
C515 C516 1.410 . S
C515 C523 1.503 . S
C516 C515 1.410 . S
C516 C517 1.392 . S
C516 C519 1.511 . S
C517 C513 1.376 . S
C517 C516 1.392 . S
C517 H529 0.929 . S
C518 C514 1.531 . S
C518 H530 0.960 . S
C518 H531 0.962 . S
C518 H532 0.960 . S
C519 C516 1.511 . S
C519 H533 0.961 . S
C519 H534 0.961 . S
C519 H535 0.961 . S
C520 C521 1.370 . S
C520 C522 1.363 . S
C520 H536 0.931 1_545 S
C521 C520 1.370 . S
C521 C525 1.408 . S
C522 C520 1.363 . S
C522 C523 1.370 . S
C522 C526 1.524 . S
C523 C515 1.503 . S
C523 C522 1.370 . S
C523 C524 1.403 . S
C524 C523 1.403 . S
C524 C525 1.404 . S
C524 C527 1.539 . S
C525 C521 1.408 . S
C525 C524 1.404 . S
C525 H537 0.930 . S
C526 C522 1.524 . S
C526 H538 0.956 . S
C526 H539 0.961 . S
C526 H540 0.961 1_545 S
C527 C524 1.539 . S
C527 H541 0.958 . S
C527 H542 0.961 . S
C527 H543 0.960 . S
H528 C512 0.931 . S
H529 C517 0.929 . S
H530 C518 0.960 . S
H531 C518 0.962 . S
H532 C518 0.960 . S
H533 C519 0.961 . S
H534 C519 0.961 . S
H535 C519 0.961 . S
H536 C520 0.931 1_565 S
H537 C525 0.930 . S
H538 C526 0.956 . S
H539 C526 0.961 . S
H540 C526 0.961 1_565 S
H541 C527 0.958 . S
H542 C527 0.961 . S
H543 C527 0.960 . S
C544 C545 1.391 . S
C544 C546 1.394 . S
C544 H560 0.931 . S
C545 C544 1.391 . S
C545 C549 1.376 . S
C546 C544 1.394 . S
C546 C547 1.369 . S
C546 C550 1.531 . S
C547 C546 1.369 . S
C547 C548 1.410 . S
C547 C555 1.503 . S
C548 C547 1.410 . S
C548 C549 1.392 . S
C548 C551 1.511 . S
C549 C545 1.376 . S
C549 C548 1.392 . S
C549 H561 0.929 1_565 S
C550 C546 1.531 . S
C550 H562 0.960 . S
C550 H563 0.962 . S
C550 H564 0.960 . S
C551 C548 1.511 . S
C551 H565 0.961 1_565 S
C551 H566 0.961 . S
C551 H567 0.961 . S
C552 C553 1.370 . S
C552 C554 1.363 . S
C552 H568 0.931 . S
C553 C552 1.370 . S
C553 C557 1.408 . S
C554 C552 1.363 . S
C554 C555 1.370 . S
C554 C558 1.524 . S
C555 C547 1.503 . S
C555 C554 1.370 . S
C555 C556 1.403 . S
C556 C555 1.403 . S
C556 C557 1.404 . S
C556 C559 1.539 . S
C557 C553 1.408 . S
C557 C556 1.404 . S
C557 H569 0.930 . S
C558 C554 1.524 . S
C558 H570 0.956 . S
C558 H571 0.961 . S
C558 H572 0.961 . S
C559 C556 1.539 . S
C559 H573 0.958 . S
C559 H574 0.961 . S
C559 H575 0.960 . S
H560 C544 0.931 . S
H561 C549 0.929 1_545 S
H562 C550 0.960 . S
H563 C550 0.962 . S
H564 C550 0.960 . S
H565 C551 0.961 1_545 S
H566 C551 0.961 . S
H567 C551 0.961 . S
H568 C552 0.931 . S
H569 C557 0.930 . S
H570 C558 0.956 . S
H571 C558 0.961 . S
H572 C558 0.961 . S
H573 C559 0.958 . S
H574 C559 0.961 . S
H575 C559 0.960 . S
C576 C577 1.391 . S
C576 C578 1.394 . S
C576 H592 0.931 . S
C577 C576 1.391 . S
C577 C581 1.376 . S
C578 C576 1.394 . S
C578 C579 1.369 . S
C578 C582 1.531 . S
C579 C578 1.369 . S
C579 C580 1.410 . S
C579 C587 1.503 . S
C580 C579 1.410 . S
C580 C581 1.392 . S
C580 C583 1.511 . S
C581 C577 1.376 . S
C581 C580 1.392 . S
C581 H593 0.929 . S
C582 C578 1.531 . S
C582 H594 0.960 . S
C582 H595 0.962 . S
C582 H596 0.960 . S
C583 C580 1.511 . S
C583 H597 0.961 . S
C583 H598 0.961 . S
C583 H599 0.961 . S
C584 C585 1.370 . S
C584 C586 1.363 . S
C584 H600 0.931 . S
C585 C584 1.370 . S
C585 C589 1.408 . S
C586 C584 1.363 . S
C586 C587 1.370 . S
C586 C590 1.524 . S
C587 C579 1.503 . S
C587 C586 1.370 . S
C587 C588 1.403 . S
C588 C587 1.403 . S
C588 C589 1.404 . S
C588 C591 1.539 . S
C589 C585 1.408 . S
C589 C588 1.404 . S
C589 H601 0.930 . S
C590 C586 1.524 . S
C590 H602 0.956 . S
C590 H603 0.961 . S
C590 H604 0.961 . S
C591 C588 1.539 . S
C591 H605 0.958 . S
C591 H606 0.961 . S
C591 H607 0.960 . S
H592 C576 0.931 . S
H593 C581 0.929 . S
H594 C582 0.960 . S
H595 C582 0.962 . S
H596 C582 0.960 . S
H597 C583 0.961 . S
H598 C583 0.961 . S
H599 C583 0.961 . S
H600 C584 0.931 . S
H601 C589 0.930 . S
H602 C590 0.956 . S
H603 C590 0.961 . S
H604 C590 0.961 . S
H605 C591 0.958 . S
H606 C591 0.961 . S
H607 C591 0.960 . S
C608 C609 1.391 . S
C608 C610 1.394 . S
C608 H624 0.931 . S
C609 C608 1.391 . S
C609 C613 1.376 . S
C610 C608 1.394 . S
C610 C611 1.369 . S
C610 C614 1.531 . S
C611 C610 1.369 . S
C611 C612 1.410 . S
C611 C619 1.503 . S
C612 C611 1.410 . S
C612 C613 1.392 . S
C612 C615 1.511 . S
C613 C609 1.376 . S
C613 C612 1.392 . S
C613 H625 0.929 . S
C614 C610 1.531 . S
C614 H626 0.960 . S
C614 H627 0.962 . S
C614 H628 0.960 . S
C615 C612 1.511 . S
C615 H629 0.961 . S
C615 H630 0.961 . S
C615 H631 0.961 . S
C616 C617 1.370 . S
C616 C618 1.363 . S
C616 H632 0.931 . S
C617 C616 1.370 . S
C617 C621 1.408 . S
C618 C616 1.363 . S
C618 C619 1.370 . S
C618 C622 1.524 . S
C619 C611 1.503 . S
C619 C618 1.370 . S
C619 C620 1.403 . S
C620 C619 1.403 . S
C620 C621 1.404 . S
C620 C623 1.539 . S
C621 C617 1.408 . S
C621 C620 1.404 . S
C621 H633 0.930 . S
C622 C618 1.524 . S
C622 H634 0.956 . S
C622 H635 0.961 . S
C622 H636 0.961 . S
C623 C620 1.539 . S
C623 H637 0.958 . S
C623 H638 0.961 . S
C623 H639 0.960 . S
H624 C608 0.931 . S
H625 C613 0.929 . S
H626 C614 0.960 . S
H627 C614 0.962 . S
H628 C614 0.960 . S
H629 C615 0.961 . S
H630 C615 0.961 . S
H631 C615 0.961 . S
H632 C616 0.931 . S
H633 C621 0.930 . S
H634 C622 0.956 . S
H635 C622 0.961 . S
H636 C622 0.961 . S
H637 C623 0.958 . S
H638 C623 0.961 . S
H639 C623 0.960 . S
C640 C641 1.391 . S
C640 C642 1.394 . S
C640 H656 0.931 . S
C641 C640 1.391 . S
C641 C645 1.376 . S
C642 C640 1.394 . S
C642 C643 1.369 . S
C642 C646 1.531 . S
C643 C642 1.369 . S
C643 C644 1.410 . S
C643 C651 1.503 . S
C644 C643 1.410 . S
C644 C645 1.392 . S
C644 C647 1.511 . S
C645 C641 1.376 . S
C645 C644 1.392 . S
C645 H657 0.929 . S
C646 C642 1.531 . S
C646 H658 0.960 . S
C646 H659 0.962 . S
C646 H660 0.960 . S
C647 C644 1.511 . S
C647 H661 0.961 . S
C647 H662 0.961 . S
C647 H663 0.961 . S
C648 C649 1.370 . S
C648 C650 1.363 . S
C648 H664 0.931 . S
C649 C648 1.370 . S
C649 C653 1.408 . S
C650 C648 1.363 . S
C650 C651 1.370 . S
C650 C654 1.524 . S
C651 C643 1.503 . S
C651 C650 1.370 . S
C651 C652 1.403 . S
C652 C651 1.403 . S
C652 C653 1.404 . S
C652 C655 1.539 . S
C653 C649 1.408 . S
C653 C652 1.404 . S
C653 H665 0.930 . S
C654 C650 1.524 . S
C654 H666 0.956 . S
C654 H667 0.961 . S
C654 H668 0.961 . S
C655 C652 1.539 . S
C655 H669 0.958 . S
C655 H670 0.961 . S
C655 H671 0.960 . S
H656 C640 0.931 . S
H657 C645 0.929 . S
H658 C646 0.960 . S
H659 C646 0.962 . S
H660 C646 0.960 . S
H661 C647 0.961 . S
H662 C647 0.961 . S
H663 C647 0.961 . S
H664 C648 0.931 . S
H665 C653 0.930 . S
H666 C654 0.956 . S
H667 C654 0.961 . S
H668 C654 0.961 . S
H669 C655 0.958 . S
H670 C655 0.961 . S
H671 C655 0.960 . S
C672 C673 1.391 . S
C672 C674 1.394 . S
C672 H688 0.931 . S
C673 C672 1.391 . S
C673 C677 1.376 . S
C674 C672 1.394 . S
C674 C675 1.369 . S
C674 C678 1.531 . S
C675 C674 1.369 . S
C675 C676 1.410 . S
C675 C683 1.503 . S
C676 C675 1.410 . S
C676 C677 1.392 . S
C676 C679 1.511 . S
C677 C673 1.376 . S
C677 C676 1.392 . S
C677 H689 0.929 . S
C678 C674 1.531 . S
C678 H690 0.960 . S
C678 H691 0.962 . S
C678 H692 0.960 . S
C679 C676 1.511 . S
C679 H693 0.961 . S
C679 H694 0.961 . S
C679 H695 0.961 . S
C680 C681 1.370 . S
C680 C682 1.363 . S
C680 H696 0.931 . S
C681 C680 1.370 . S
C681 C685 1.408 . S
C682 C680 1.363 . S
C682 C683 1.370 . S
C682 C686 1.524 . S
C683 C675 1.503 . S
C683 C682 1.370 . S
C683 C684 1.403 . S
C684 C683 1.403 . S
C684 C685 1.404 . S
C684 C687 1.539 . S
C685 C681 1.408 . S
C685 C684 1.404 . S
C685 H697 0.930 . S
C686 C682 1.524 . S
C686 H698 0.956 . S
C686 H699 0.961 . S
C686 H700 0.961 . S
C687 C684 1.539 . S
C687 H701 0.958 . S
C687 H702 0.961 . S
C687 H703 0.960 . S
H688 C672 0.931 . S
H689 C677 0.929 . S
H690 C678 0.960 . S
H691 C678 0.962 . S
H692 C678 0.960 . S
H693 C679 0.961 . S
H694 C679 0.961 . S
H695 C679 0.961 . S
H696 C680 0.931 . S
H697 C685 0.930 . S
H698 C686 0.956 . S
H699 C686 0.961 . S
H700 C686 0.961 . S
H701 C687 0.958 . S
H702 C687 0.961 . S
H703 C687 0.960 . S
C704 C705 1.391 1_565 S
C704 C706 1.394 . S
C704 H720 0.931 1_565 S
C705 C704 1.391 1_545 S
C705 C709 1.376 1_545 S
C706 C704 1.394 . S
C706 C707 1.369 . S
C706 C710 1.531 . S
C707 C706 1.369 . S
C707 C708 1.410 . S
C707 C715 1.503 . S
C708 C707 1.410 . S
C708 C709 1.392 . S
C708 C711 1.511 . S
C709 C705 1.376 1_565 S
C709 C708 1.392 . S
C709 H721 0.929 1_565 S
C710 C706 1.531 . S
C710 H722 0.960 . S
C710 H723 0.962 . S
C710 H724 0.960 . S
C711 C708 1.511 . S
C711 H725 0.961 . S
C711 H726 0.961 . S
C711 H727 0.961 1_565 S
C712 C713 1.370 . S
C712 C714 1.363 . S
C712 H728 0.931 . S
C713 C712 1.370 . S
C713 C717 1.408 . S
C714 C712 1.363 . S
C714 C715 1.370 . S
C714 C718 1.524 . S
C715 C707 1.503 . S
C715 C714 1.370 . S
C715 C716 1.403 . S
C716 C715 1.403 . S
C716 C717 1.404 . S
C716 C719 1.539 1_565 S
C717 C713 1.408 . S
C717 C716 1.404 . S
C717 H729 0.930 . S
C718 C714 1.524 . S
C718 H730 0.956 . S
C718 H731 0.961 . S
C718 H732 0.961 . S
C719 C716 1.539 1_545 S
C719 H733 0.958 . S
C719 H734 0.961 . S
C719 H735 0.960 . S
H720 C704 0.931 1_545 S
H721 C709 0.929 1_545 S
H722 C710 0.960 . S
H723 C710 0.962 . S
H724 C710 0.960 . S
H725 C711 0.961 . S
H726 C711 0.961 . S
H727 C711 0.961 1_545 S
H728 C712 0.931 . S
H729 C717 0.930 . S
H730 C718 0.956 . S
H731 C718 0.961 . S
H732 C718 0.961 . S
H733 C719 0.958 . S
H734 C719 0.961 . S
H735 C719 0.960 . S
C736 C737 1.391 . S
C736 C738 1.394 1_565 S
C736 H752 0.931 . S
C737 C736 1.391 . S
C737 C741 1.376 1_565 S
C738 C736 1.394 1_545 S
C738 C739 1.369 . S
C738 C742 1.531 . S
C739 C738 1.369 . S
C739 C740 1.410 . S
C739 C747 1.503 . S
C740 C739 1.410 . S
C740 C741 1.392 . S
C740 C743 1.511 . S
C741 C737 1.376 1_545 S
C741 C740 1.392 . S
C741 H753 0.929 . S
C742 C738 1.531 . S
C742 H754 0.960 . S
C742 H755 0.962 . S
C742 H756 0.960 1_545 S
C743 C740 1.511 . S
C743 H757 0.961 . S
C743 H758 0.961 . S
C743 H759 0.961 . S
C744 C745 1.370 . S
C744 C746 1.363 . S
C744 H760 0.931 . S
C745 C744 1.370 . S
C745 C749 1.408 . S
C746 C744 1.363 . S
C746 C747 1.370 . S
C746 C750 1.524 . S
C747 C739 1.503 . S
C747 C746 1.370 . S
C747 C748 1.403 . S
C748 C747 1.403 . S
C748 C749 1.404 . S
C748 C751 1.539 1_545 S
C749 C745 1.408 . S
C749 C748 1.404 . S
C749 H761 0.930 . S
C750 C746 1.524 . S
C750 H762 0.956 . S
C750 H763 0.961 . S
C750 H764 0.961 . S
C751 C748 1.539 1_565 S
C751 H765 0.958 . S
C751 H766 0.961 . S
C751 H767 0.960 . S
H752 C736 0.931 . S
H753 C741 0.929 . S
H754 C742 0.960 . S
H755 C742 0.962 . S
H756 C742 0.960 1_565 S
H757 C743 0.961 . S
H758 C743 0.961 . S
H759 C743 0.961 . S
H760 C744 0.931 . S
H761 C749 0.930 . S
H762 C750 0.956 . S
H763 C750 0.961 . S
H764 C750 0.961 . S
H765 C751 0.958 . S
H766 C751 0.961 . S
H767 C751 0.960 . S
C768 C769 1.391 1_656 S
C768 C770 1.394 . S
C768 H784 0.931 . S
C769 C768 1.391 1_454 S
C769 C773 1.376 . S
C770 C768 1.394 . S
C770 C771 1.369 1_655 S
C770 C774 1.531 . S
C771 C770 1.369 1_455 S
C771 C772 1.422 . S
C771 C779 1.503 . S
C772 C771 1.422 . S
C772 C773 1.376 1_556 S
C772 C775 1.517 . S
C773 C769 1.376 . S
C773 C772 1.376 1_554 S
C773 H785 0.929 . S
C774 C770 1.531 . S
C774 H786 0.960 . S
C774 H787 0.962 1_556 S
C774 H788 0.960 . S
C775 C772 1.517 . S
C775 H789 0.961 1_556 S
C775 H790 0.961 1_556 S
C775 H791 0.961 . S
C776 C777 1.370 1_554 S
C776 C778 1.363 . S
C776 H792 0.931 . S
C777 C776 1.370 1_556 S
C777 C781 1.408 . S
C778 C776 1.363 . S
C778 C779 1.370 1_554 S
C778 C782 1.524 . S
C779 C771 1.503 . S
C779 C778 1.370 1_556 S
C779 C780 1.403 . S
C780 C779 1.403 . S
C780 C781 1.404 . S
C780 C783 1.539 . S
C781 C777 1.408 . S
C781 C780 1.404 . S
C781 H793 0.930 . S
C782 C778 1.524 . S
C782 H794 0.956 1_455 S
C782 H795 0.961 . S
C782 H796 0.961 . S
C783 C780 1.539 . S
C783 H797 0.958 1_455 S
C783 H798 0.961 . S
C783 H799 0.960 . S
H784 C768 0.931 . S
H785 C773 0.929 . S
H786 C774 0.960 . S
H787 C774 0.962 1_554 S
H788 C774 0.960 . S
H789 C775 0.961 1_554 S
H790 C775 0.961 1_554 S
H791 C775 0.961 . S
H792 C776 0.931 . S
H793 C781 0.930 . S
H794 C782 0.956 1_655 S
H795 C782 0.961 . S
H796 C782 0.961 . S
H797 C783 0.958 1_655 S
H798 C783 0.961 . S
H799 C783 0.960 . S
C800 C801 1.391 . S
C800 C802 1.394 . S
C800 H816 0.931 . S
C801 C800 1.391 . S
C801 C805 1.376 . S
C802 C800 1.394 . S
C802 C803 1.369 . S
C802 C806 1.531 . S
C803 C802 1.369 . S
C803 C804 1.410 . S
C803 C811 1.503 . S
C804 C803 1.410 . S
C804 C805 1.392 . S
C804 C807 1.511 . S
C805 C801 1.376 . S
C805 C804 1.392 . S
C805 H817 0.929 . S
C806 C802 1.531 . S
C806 H818 0.960 . S
C806 H819 0.962 . S
C806 H820 0.960 . S
C807 C804 1.511 . S
C807 H821 0.961 . S
C807 H822 0.961 . S
C807 H823 0.961 . S
C808 C809 1.370 . S
C808 C810 1.363 . S
C808 H824 0.931 . S
C809 C808 1.370 . S
C809 C813 1.408 . S
C810 C808 1.363 . S
C810 C811 1.370 . S
C810 C814 1.524 . S
C811 C803 1.503 . S
C811 C810 1.370 . S
C811 C812 1.403 . S
C812 C811 1.403 . S
C812 C813 1.404 . S
C812 C815 1.539 . S
C813 C809 1.408 . S
C813 C812 1.404 . S
C813 H825 0.930 . S
C814 C810 1.524 . S
C814 H826 0.956 . S
C814 H827 0.961 . S
C814 H828 0.961 . S
C815 C812 1.539 . S
C815 H829 0.958 . S
C815 H830 0.961 . S
C815 H831 0.960 . S
H816 C800 0.931 . S
H817 C805 0.929 . S
H818 C806 0.960 . S
H819 C806 0.962 . S
H820 C806 0.960 . S
H821 C807 0.961 . S
H822 C807 0.961 . S
H823 C807 0.961 . S
H824 C808 0.931 . S
H825 C813 0.930 . S
H826 C814 0.956 . S
H827 C814 0.961 . S
H828 C814 0.961 . S
H829 C815 0.958 . S
H830 C815 0.961 . S
H831 C815 0.960 . S
C832 C833 1.391 . S
C832 C834 1.394 . S
C832 H848 0.931 . S
C833 C832 1.391 . S
C833 C837 1.376 . S
C834 C832 1.394 . S
C834 C835 1.369 . S
C834 C838 1.531 . S
C835 C834 1.369 . S
C835 C836 1.410 . S
C835 C843 1.503 . S
C836 C835 1.410 . S
C836 C837 1.392 . S
C836 C839 1.511 . S
C837 C833 1.376 . S
C837 C836 1.392 . S
C837 H849 0.929 . S
C838 C834 1.531 . S
C838 H850 0.960 . S
C838 H851 0.962 . S
C838 H852 0.960 . S
C839 C836 1.511 . S
C839 H853 0.961 . S
C839 H854 0.961 . S
C839 H855 0.961 . S
C840 C841 1.370 . S
C840 C842 1.363 . S
C840 H856 0.931 . S
C841 C840 1.370 . S
C841 C845 1.408 . S
C842 C840 1.363 . S
C842 C843 1.370 . S
C842 C846 1.524 . S
C843 C835 1.503 . S
C843 C842 1.370 . S
C843 C844 1.403 . S
C844 C843 1.403 . S
C844 C845 1.404 . S
C844 C847 1.539 . S
C845 C841 1.408 . S
C845 C844 1.404 . S
C845 H857 0.930 . S
C846 C842 1.524 . S
C846 H858 0.956 . S
C846 H859 0.961 . S
C846 H860 0.961 . S
C847 C844 1.539 . S
C847 H861 0.958 . S
C847 H862 0.961 . S
C847 H863 0.960 . S
H848 C832 0.931 . S
H849 C837 0.929 . S
H850 C838 0.960 . S
H851 C838 0.962 . S
H852 C838 0.960 . S
H853 C839 0.961 . S
H854 C839 0.961 . S
H855 C839 0.961 . S
H856 C840 0.931 . S
H857 C845 0.930 . S
H858 C846 0.956 . S
H859 C846 0.961 . S
H860 C846 0.961 . S
H861 C847 0.958 . S
H862 C847 0.961 . S
H863 C847 0.960 . S
C864 C865 1.391 . S
C864 C866 1.394 . S
C864 H880 0.931 . S
C865 C864 1.391 . S
C865 C869 1.376 1_455 S
C866 C864 1.394 . S
C866 C867 1.369 . S
C866 C870 1.531 . S
C867 C866 1.369 . S
C867 C868 1.410 1_455 S
C867 C875 1.503 1_565 S
C868 C867 1.410 1_655 S
C868 C869 1.392 . S
C868 C871 1.511 . S
C869 C865 1.376 1_655 S
C869 C868 1.392 . S
C869 H881 0.929 . S
C870 C866 1.531 . S
C870 H882 0.960 1_565 S
C870 H883 0.962 . S
C870 H884 0.960 . S
C871 C868 1.511 . S
C871 H885 0.961 . S
C871 H886 0.961 . S
C871 H887 0.961 . S
C872 C873 1.370 . S
C872 C874 1.363 . S
C872 H888 0.931 . S
C873 C872 1.370 . S
C873 C877 1.408 1_455 S
C874 C872 1.363 . S
C874 C875 1.370 . S
C874 C878 1.524 . S
C875 C867 1.503 1_545 S
C875 C874 1.370 . S
C875 C876 1.403 1_455 S
C876 C875 1.403 1_655 S
C876 C877 1.404 . S
C876 C879 1.539 . S
C877 C873 1.408 1_655 S
C877 C876 1.404 . S
C877 H889 0.930 . S
C878 C874 1.524 . S
C878 H890 0.956 1_545 S
C878 H891 0.961 1_545 S
C878 H892 0.961 . S
C879 C876 1.539 . S
C879 H893 0.958 1_655 S
C879 H894 0.961 . S
C879 H895 0.960 . S
H880 C864 0.931 . S
H881 C869 0.929 . S
H882 C870 0.960 1_545 S
H883 C870 0.962 . S
H884 C870 0.960 . S
H885 C871 0.961 . S
H886 C871 0.961 . S
H887 C871 0.961 . S
H888 C872 0.931 . S
H889 C877 0.930 . S
H890 C878 0.956 1_565 S
H891 C878 0.961 1_565 S
H892 C878 0.961 . S
H893 C879 0.958 1_455 S
H894 C879 0.961 . S
H895 C879 0.960 . S
C896 C897 1.391 . S
C896 C898 1.394 . S
C896 H912 0.931 . S
C897 C896 1.391 . S
C897 C901 1.376 . S
C898 C896 1.394 . S
C898 C899 1.369 . S
C898 C902 1.531 . S
C899 C898 1.369 . S
C899 C900 1.410 . S
C899 C907 1.503 . S
C900 C899 1.410 . S
C900 C901 1.392 . S
C900 C903 1.511 . S
C901 C897 1.376 . S
C901 C900 1.392 . S
C901 H913 0.929 . S
C902 C898 1.531 . S
C902 H914 0.960 . S
C902 H915 0.962 . S
C902 H916 0.960 . S
C903 C900 1.511 . S
C903 H917 0.961 . S
C903 H918 0.961 . S
C903 H919 0.961 . S
C904 C905 1.370 . S
C904 C906 1.363 . S
C904 H920 0.931 . S
C905 C904 1.370 . S
C905 C909 1.408 . S
C906 C904 1.363 . S
C906 C907 1.370 . S
C906 C910 1.524 . S
C907 C899 1.503 . S
C907 C906 1.370 . S
C907 C908 1.403 . S
C908 C907 1.403 . S
C908 C909 1.404 . S
C908 C911 1.539 . S
C909 C905 1.408 . S
C909 C908 1.404 . S
C909 H921 0.930 . S
C910 C906 1.524 . S
C910 H922 0.956 . S
C910 H923 0.961 . S
C910 H924 0.961 . S
C911 C908 1.539 . S
C911 H925 0.958 . S
C911 H926 0.961 . S
C911 H927 0.960 . S
H912 C896 0.931 . S
H913 C901 0.929 . S
H914 C902 0.960 . S
H915 C902 0.962 . S
H916 C902 0.960 . S
H917 C903 0.961 . S
H918 C903 0.961 . S
H919 C903 0.961 . S
H920 C904 0.931 . S
H921 C909 0.930 . S
H922 C910 0.956 . S
H923 C910 0.961 . S
H924 C910 0.961 . S
H925 C911 0.958 . S
H926 C911 0.961 . S
H927 C911 0.960 . S
C928 C929 1.391 . S
C928 C930 1.394 . S
C928 H944 0.931 . S
C929 C928 1.391 . S
C929 C933 1.376 . S
C930 C928 1.394 . S
C930 C931 1.369 . S
C930 C934 1.531 . S
C931 C930 1.369 . S
C931 C932 1.410 . S
C931 C939 1.503 . S
C932 C931 1.410 . S
C932 C933 1.392 . S
C932 C935 1.511 . S
C933 C929 1.376 . S
C933 C932 1.392 . S
C933 H945 0.929 . S
C934 C930 1.531 . S
C934 H946 0.960 . S
C934 H947 0.962 . S
C934 H948 0.960 . S
C935 C932 1.511 . S
C935 H949 0.961 . S
C935 H950 0.961 . S
C935 H951 0.961 . S
C936 C937 1.370 . S
C936 C938 1.363 . S
C936 H952 0.931 . S
C937 C936 1.370 . S
C937 C941 1.408 . S
C938 C936 1.363 . S
C938 C939 1.370 . S
C938 C942 1.524 . S
C939 C931 1.503 . S
C939 C938 1.370 . S
C939 C940 1.403 . S
C940 C939 1.403 . S
C940 C941 1.404 . S
C940 C943 1.539 . S
C941 C937 1.408 . S
C941 C940 1.404 . S
C941 H953 0.930 . S
C942 C938 1.524 . S
C942 H954 0.956 . S
C942 H955 0.961 . S
C942 H956 0.961 . S
C943 C940 1.539 . S
C943 H957 0.958 . S
C943 H958 0.961 . S
C943 H959 0.960 . S
H944 C928 0.931 . S
H945 C933 0.929 . S
H946 C934 0.960 . S
H947 C934 0.962 . S
H948 C934 0.960 . S
H949 C935 0.961 . S
H950 C935 0.961 . S
H951 C935 0.961 . S
H952 C936 0.931 . S
H953 C941 0.930 . S
H954 C942 0.956 . S
H955 C942 0.961 . S
H956 C942 0.961 . S
H957 C943 0.958 . S
H958 C943 0.961 . S
H959 C943 0.960 . S
C960 C961 1.391 . S
C960 C962 1.394 . S
C960 H976 0.931 . S
C961 C960 1.391 . S
C961 C965 1.376 . S
C962 C960 1.394 . S
C962 C963 1.369 . S
C962 C966 1.531 . S
C963 C962 1.369 . S
C963 C964 1.410 . S
C963 C971 1.503 . S
C964 C963 1.410 . S
C964 C965 1.392 . S
C964 C967 1.511 . S
C965 C961 1.376 . S
C965 C964 1.392 . S
C965 H977 0.929 . S
C966 C962 1.531 . S
C966 H978 0.960 . S
C966 H979 0.962 . S
C966 H980 0.960 . S
C967 C964 1.511 . S
C967 H981 0.961 . S
C967 H982 0.961 . S
C967 H983 0.961 . S
C968 C969 1.370 . S
C968 C970 1.363 . S
C968 H984 0.931 . S
C969 C968 1.370 . S
C969 C973 1.408 . S
C970 C968 1.363 . S
C970 C971 1.370 . S
C970 C974 1.524 . S
C971 C963 1.503 . S
C971 C970 1.370 . S
C971 C972 1.403 . S
C972 C971 1.403 . S
C972 C973 1.404 . S
C972 C975 1.539 . S
C973 C969 1.408 . S
C973 C972 1.404 . S
C973 H985 0.930 . S
C974 C970 1.524 . S
C974 H986 0.956 . S
C974 H987 0.961 . S
C974 H988 0.961 . S
C975 C972 1.539 . S
C975 H989 0.958 . S
C975 H990 0.961 . S
C975 H991 0.960 . S
H976 C960 0.931 . S
H977 C965 0.929 . S
H978 C966 0.960 . S
H979 C966 0.962 . S
H980 C966 0.960 . S
H981 C967 0.961 . S
H982 C967 0.961 . S
H983 C967 0.961 . S
H984 C968 0.931 . S
H985 C973 0.930 . S
H986 C974 0.956 . S
H987 C974 0.961 . S
H988 C974 0.961 . S
H989 C975 0.958 . S
H990 C975 0.961 . S
H991 C975 0.960 . S
C992 C993 1.415 . S
C992 C994 1.394 . S
C992 H1008 0.931 . S
C993 C992 1.415 . S
C993 C997 1.363 1_554 S
C994 C992 1.394 . S
C994 C995 1.369 . S
C994 C998 1.531 . S
C995 C994 1.369 . S
C995 C996 1.410 1_554 S
C995 C1003 1.503 1_565 S
C996 C995 1.410 1_556 S
C996 C997 1.392 . S
C996 C999 1.511 . S
C997 C993 1.363 1_556 S
C997 C996 1.392 . S
C997 H1009 0.929 . S
C998 C994 1.531 . S
C998 H1010 0.960 . S
C998 H1011 0.962 . S
C998 H1012 0.960 . S
C999 C996 1.511 . S
C999 H1013 0.961 . S
C999 H1014 0.961 1_565 S
C999 H1015 0.961 . S
C1000 C1001 1.370 1_556 S
C1000 C1002 1.363 . S
C1000 H1016 0.931 . S
C1001 C1000 1.370 1_554 S
C1001 C1005 1.408 . S
C1002 C1000 1.363 . S
C1002 C1003 1.370 1_556 S
C1002 C1006 1.524 . S
C1003 C995 1.503 1_545 S
C1003 C1002 1.370 1_554 S
C1003 C1004 1.403 . S
C1004 C1003 1.403 . S
C1004 C1005 1.404 . S
C1004 C1007 1.539 . S
C1005 C1001 1.408 . S
C1005 C1004 1.404 . S
C1005 H1017 0.930 . S
C1006 C1002 1.524 . S
C1006 H1018 0.956 . S
C1006 H1019 0.961 . S
C1006 H1020 0.961 . S
C1007 C1004 1.539 . S
C1007 H1021 0.958 . S
C1007 H1022 0.961 . S
C1007 H1023 0.960 1_545 S
H1008 C992 0.931 . S
H1009 C997 0.929 . S
H1010 C998 0.960 . S
H1011 C998 0.962 . S
H1012 C998 0.960 . S
H1013 C999 0.961 . S
H1014 C999 0.961 1_545 S
H1015 C999 0.961 . S
H1016 C1000 0.931 . S
H1017 C1005 0.930 . S
H1018 C1006 0.956 . S
H1019 C1006 0.961 . S
H1020 C1006 0.961 . S
H1021 C1007 0.958 . S
H1022 C1007 0.961 . S
H1023 C1007 0.960 1_565 S
C1024 C1025 1.391 . S
C1024 C1026 1.394 . S
C1024 H1040 0.931 . S
C1025 C1024 1.391 . S
C1025 C1029 1.376 . S
C1026 C1024 1.394 . S
C1026 C1027 1.369 . S
C1026 C1030 1.531 . S
C1027 C1026 1.369 . S
C1027 C1028 1.410 . S
C1027 C1035 1.509 . S
C1028 C1027 1.410 . S
C1028 C1029 1.392 . S
C1028 C1031 1.511 1_556 S
C1029 C1025 1.376 . S
C1029 C1028 1.392 . S
C1029 H1041 0.929 . S
C1030 C1026 1.531 . S
C1030 H1042 0.960 . S
C1030 H1043 0.921 1_556 S
C1030 H1044 0.960 . S
C1031 C1028 1.511 1_554 S
C1031 H1045 0.961 . S
C1031 H1046 0.961 . S
C1031 H1047 0.961 1_554 S
C1032 C1033 1.370 . S
C1032 C1034 1.363 . S
C1032 H1048 0.931 . S
C1033 C1032 1.370 . S
C1033 C1037 1.408 1_554 S
C1034 C1032 1.363 . S
C1034 C1035 1.316 1_554 S
C1034 C1038 1.524 . S
C1035 C1027 1.509 . S
C1035 C1034 1.316 1_556 S
C1035 C1036 1.453 . S
C1036 C1035 1.453 . S
C1036 C1037 1.404 . S
C1036 C1039 1.539 . S
C1037 C1033 1.408 1_556 S
C1037 C1036 1.404 . S
C1037 H1049 0.930 . S
C1038 C1034 1.524 . S
C1038 H1050 0.956 . S
C1038 H1051 0.961 . S
C1038 H1052 0.961 . S
C1039 C1036 1.539 . S
C1039 H1053 0.958 . S
C1039 H1054 0.961 . S
C1039 H1055 0.960 . S
H1040 C1024 0.931 . S
H1041 C1029 0.929 . S
H1042 C1030 0.960 . S
H1043 C1030 0.921 1_554 S
H1044 C1030 0.960 . S
H1045 C1031 0.961 . S
H1046 C1031 0.961 . S
H1047 C1031 0.961 1_556 S
H1048 C1032 0.931 . S
H1049 C1037 0.930 . S
H1050 C1038 0.956 . S
H1051 C1038 0.961 . S
H1052 C1038 0.961 . S
H1053 C1039 0.958 . S
H1054 C1039 0.961 . S
H1055 C1039 0.960 . S
C1056 C1057 1.391 . S
C1056 C1058 1.394 . S
C1056 H1072 0.939 . S
C1057 C1056 1.391 . S
C1057 C1061 1.376 . S
C1058 C1056 1.394 . S
C1058 C1059 1.369 . S
C1058 C1062 1.531 1_556 S
C1059 C1058 1.369 . S
C1059 C1060 1.410 . S
C1059 C1067 1.508 . S
C1060 C1059 1.410 . S
C1060 C1061 1.392 . S
C1060 C1063 1.511 . S
C1061 C1057 1.376 . S
C1061 C1060 1.392 . S
C1061 H1073 0.929 . S
C1062 C1058 1.531 1_554 S
C1062 H1074 0.960 1_554 S
C1062 H1075 0.962 . S
C1062 H1076 0.960 1_554 S
C1063 C1060 1.511 . S
C1063 H1077 0.961 . S
C1063 H1078 0.961 . S
C1063 H1079 0.961 . S
C1064 C1065 1.370 . S
C1064 C1066 1.363 . S
C1064 H1080 0.931 . S
C1065 C1064 1.370 . S
C1065 C1069 1.408 1_554 S
C1066 C1064 1.363 . S
C1066 C1067 1.322 1_554 S
C1066 C1070 1.524 . S
C1067 C1059 1.508 . S
C1067 C1066 1.322 1_556 S
C1067 C1068 1.448 . S
C1068 C1067 1.448 . S
C1068 C1069 1.404 . S
C1068 C1071 1.539 . S
C1069 C1065 1.408 1_556 S
C1069 C1068 1.404 . S
C1069 H1081 0.930 . S
C1070 C1066 1.524 . S
C1070 H1082 0.956 . S
C1070 H1083 0.961 . S
C1070 H1084 0.961 . S
C1071 C1068 1.539 . S
C1071 H1085 0.958 . S
C1071 H1086 0.961 . S
C1071 H1087 0.960 . S
H1072 C1056 0.939 . S
H1073 C1061 0.929 . S
H1074 C1062 0.960 1_556 S
H1075 C1062 0.962 . S
H1076 C1062 0.960 1_556 S
H1077 C1063 0.961 . S
H1078 C1063 0.961 . S
H1079 C1063 0.961 . S
H1080 C1064 0.931 . S
H1081 C1069 0.930 . S
H1082 C1070 0.956 . S
H1083 C1070 0.961 . S
H1084 C1070 0.961 . S
H1085 C1071 0.958 . S
H1086 C1071 0.961 . S
H1087 C1071 0.960 . S
C1088 C1089 1.391 . S
C1088 C1090 1.394 . S
C1088 H1104 0.931 . S
C1089 C1088 1.391 . S
C1089 C1093 1.376 . S
C1090 C1088 1.394 . S
C1090 C1091 1.369 . S
C1090 C1094 1.531 . S
C1091 C1090 1.369 . S
C1091 C1092 1.410 . S
C1091 C1099 1.503 1_455 S
C1092 C1091 1.410 . S
C1092 C1093 1.392 . S
C1092 C1095 1.511 . S
C1093 C1089 1.376 . S
C1093 C1092 1.392 . S
C1093 H1105 0.929 . S
C1094 C1090 1.531 . S
C1094 H1106 0.960 . S
C1094 H1107 0.962 . S
C1094 H1108 0.960 . S
C1095 C1092 1.511 . S
C1095 H1109 0.961 . S
C1095 H1110 0.961 1_455 S
C1095 H1111 0.961 . S
C1096 C1097 1.370 . S
C1096 C1098 1.363 . S
C1096 H1112 0.931 . S
C1097 C1096 1.370 . S
C1097 C1101 1.408 . S
C1098 C1096 1.363 . S
C1098 C1099 1.370 . S
C1098 C1102 1.524 . S
C1099 C1091 1.503 1_655 S
C1099 C1098 1.370 . S
C1099 C1100 1.403 . S
C1100 C1099 1.403 . S
C1100 C1101 1.404 . S
C1100 C1103 1.539 1_655 S
C1101 C1097 1.408 . S
C1101 C1100 1.404 . S
C1101 H1113 0.930 . S
C1102 C1098 1.524 . S
C1102 H1114 0.956 . S
C1102 H1115 0.961 . S
C1102 H1116 0.961 . S
C1103 C1100 1.539 1_455 S
C1103 H1117 0.958 . S
C1103 H1118 0.961 1_455 S
C1103 H1119 0.960 . S
H1104 C1088 0.931 . S
H1105 C1093 0.929 . S
H1106 C1094 0.960 . S
H1107 C1094 0.962 . S
H1108 C1094 0.960 . S
H1109 C1095 0.961 . S
H1110 C1095 0.961 1_655 S
H1111 C1095 0.961 . S
H1112 C1096 0.931 . S
H1113 C1101 0.930 . S
H1114 C1102 0.956 . S
H1115 C1102 0.961 . S
H1116 C1102 0.961 . S
H1117 C1103 0.958 . S
H1118 C1103 0.961 1_655 S
H1119 C1103 0.960 . S
C1120 C1121 1.391 . S
C1120 C1122 1.394 . S
C1120 H1136 0.931 . S
C1121 C1120 1.391 . S
C1121 C1125 1.376 . S
C1122 C1120 1.394 . S
C1122 C1123 1.369 . S
C1122 C1126 1.531 . S
C1123 C1122 1.369 . S
C1123 C1124 1.410 . S
C1123 C1131 1.503 . S
C1124 C1123 1.410 . S
C1124 C1125 1.392 . S
C1124 C1127 1.511 . S
C1125 C1121 1.376 . S
C1125 C1124 1.392 . S
C1125 H1137 0.929 . S
C1126 C1122 1.531 . S
C1126 H1138 0.960 . S
C1126 H1139 0.962 . S
C1126 H1140 0.960 . S
C1127 C1124 1.511 . S
C1127 H1141 0.961 . S
C1127 H1142 0.961 . S
C1127 H1143 0.961 . S
C1128 C1129 1.370 . S
C1128 C1130 1.363 . S
C1128 H1144 0.931 . S
C1129 C1128 1.370 . S
C1129 C1133 1.408 . S
C1130 C1128 1.363 . S
C1130 C1131 1.370 . S
C1130 C1134 1.524 . S
C1131 C1123 1.503 . S
C1131 C1130 1.370 . S
C1131 C1132 1.403 . S
C1132 C1131 1.403 . S
C1132 C1133 1.404 . S
C1132 C1135 1.539 . S
C1133 C1129 1.408 . S
C1133 C1132 1.404 . S
C1133 H1145 0.930 . S
C1134 C1130 1.524 . S
C1134 H1146 0.956 . S
C1134 H1147 0.961 . S
C1134 H1148 0.961 . S
C1135 C1132 1.539 . S
C1135 H1149 0.958 . S
C1135 H1150 0.961 . S
C1135 H1151 0.960 . S
H1136 C1120 0.931 . S
H1137 C1125 0.929 . S
H1138 C1126 0.960 . S
H1139 C1126 0.962 . S
H1140 C1126 0.960 . S
H1141 C1127 0.961 . S
H1142 C1127 0.961 . S
H1143 C1127 0.961 . S
H1144 C1128 0.931 . S
H1145 C1133 0.930 . S
H1146 C1134 0.956 . S
H1147 C1134 0.961 . S
H1148 C1134 0.961 . S
H1149 C1135 0.958 . S
H1150 C1135 0.961 . S
H1151 C1135 0.960 . S
C1152 C1153 1.391 . S
C1152 C1154 1.394 . S
C1152 H1168 0.931 . S
C1153 C1152 1.391 . S
C1153 C1157 1.376 . S
C1154 C1152 1.394 . S
C1154 C1155 1.369 . S
C1154 C1158 1.531 . S
C1155 C1154 1.369 . S
C1155 C1156 1.410 . S
C1155 C1163 1.503 . S
C1156 C1155 1.410 . S
C1156 C1157 1.392 . S
C1156 C1159 1.511 . S
C1157 C1153 1.376 . S
C1157 C1156 1.392 . S
C1157 H1169 0.929 . S
C1158 C1154 1.531 . S
C1158 H1170 0.960 . S
C1158 H1171 0.962 . S
C1158 H1172 0.960 . S
C1159 C1156 1.511 . S
C1159 H1173 0.961 . S
C1159 H1174 0.961 . S
C1159 H1175 0.961 . S
C1160 C1161 1.370 . S
C1160 C1162 1.363 . S
C1160 H1176 0.931 . S
C1161 C1160 1.370 . S
C1161 C1165 1.408 . S
C1162 C1160 1.363 . S
C1162 C1163 1.370 . S
C1162 C1166 1.524 . S
C1163 C1155 1.503 . S
C1163 C1162 1.370 . S
C1163 C1164 1.403 . S
C1164 C1163 1.403 . S
C1164 C1165 1.404 . S
C1164 C1167 1.539 . S
C1165 C1161 1.408 . S
C1165 C1164 1.404 . S
C1165 H1177 0.930 . S
C1166 C1162 1.524 . S
C1166 H1178 0.956 . S
C1166 H1179 0.961 . S
C1166 H1180 0.961 . S
C1167 C1164 1.539 . S
C1167 H1181 0.958 . S
C1167 H1182 0.961 . S
C1167 H1183 0.960 . S
H1168 C1152 0.931 . S
H1169 C1157 0.929 . S
H1170 C1158 0.960 . S
H1171 C1158 0.962 . S
H1172 C1158 0.960 . S
H1173 C1159 0.961 . S
H1174 C1159 0.961 . S
H1175 C1159 0.961 . S
H1176 C1160 0.931 . S
H1177 C1165 0.930 . S
H1178 C1166 0.956 . S
H1179 C1166 0.961 . S
H1180 C1166 0.961 . S
H1181 C1167 0.958 . S
H1182 C1167 0.961 . S
H1183 C1167 0.960 . S
C1184 C1185 1.391 . S
C1184 C1186 1.394 . S
C1184 H1200 0.931 . S
C1185 C1184 1.391 . S
C1185 C1189 1.376 . S
C1186 C1184 1.394 . S
C1186 C1187 1.369 . S
C1186 C1190 1.531 . S
C1187 C1186 1.369 . S
C1187 C1188 1.410 1_545 S
C1187 C1195 1.503 1_645 S
C1188 C1187 1.410 1_565 S
C1188 C1189 1.392 1_565 S
C1188 C1191 1.511 . S
C1189 C1185 1.376 . S
C1189 C1188 1.392 1_545 S
C1189 H1201 0.929 . S
C1190 C1186 1.531 . S
C1190 H1202 0.960 1_655 S
C1190 H1203 0.962 1_655 S
C1190 H1204 0.960 . S
C1191 C1188 1.511 . S
C1191 H1205 0.961 . S
C1191 H1206 0.961 . S
C1191 H1207 0.961 . S
C1192 C1193 1.370 . S
C1192 C1194 1.363 1_565 S
C1192 H1208 0.931 1_565 S
C1193 C1192 1.370 . S
C1193 C1197 1.408 . S
C1194 C1192 1.363 1_545 S
C1194 C1195 1.370 1_545 S
C1194 C1198 1.524 . S
C1195 C1187 1.503 1_465 S
C1195 C1194 1.370 1_565 S
C1195 C1196 1.403 . S
C1196 C1195 1.403 . S
C1196 C1197 1.404 . S
C1196 C1199 1.539 1_455 S
C1197 C1193 1.408 . S
C1197 C1196 1.404 . S
C1197 H1209 0.930 . S
C1198 C1194 1.524 . S
C1198 H1210 0.956 . S
C1198 H1211 0.961 . S
C1198 H1212 0.961 . S
C1199 C1196 1.539 1_655 S
C1199 H1213 0.958 . S
C1199 H1214 0.961 . S
C1199 H1215 0.960 . S
H1200 C1184 0.931 . S
H1201 C1189 0.929 . S
H1202 C1190 0.960 1_455 S
H1203 C1190 0.962 1_455 S
H1204 C1190 0.960 . S
H1205 C1191 0.961 . S
H1206 C1191 0.961 . S
H1207 C1191 0.961 . S
H1208 C1192 0.931 1_545 S
H1209 C1197 0.930 . S
H1210 C1198 0.956 . S
H1211 C1198 0.961 . S
H1212 C1198 0.961 . S
H1213 C1199 0.958 . S
H1214 C1199 0.961 . S
H1215 C1199 0.960 . S
C1216 C1217 1.391 . S
C1216 C1218 1.394 . S
C1216 H1232 0.931 . S
C1217 C1216 1.391 . S
C1217 C1221 1.376 . S
C1218 C1216 1.394 . S
C1218 C1219 1.369 . S
C1218 C1222 1.531 . S
C1219 C1218 1.369 . S
C1219 C1220 1.410 . S
C1219 C1227 1.503 . S
C1220 C1219 1.410 . S
C1220 C1221 1.392 . S
C1220 C1223 1.511 . S
C1221 C1217 1.376 . S
C1221 C1220 1.392 . S
C1221 H1233 0.929 . S
C1222 C1218 1.531 . S
C1222 H1234 0.960 . S
C1222 H1235 0.962 . S
C1222 H1236 0.960 . S
C1223 C1220 1.511 . S
C1223 H1237 0.961 . S
C1223 H1238 0.961 . S
C1223 H1239 0.961 . S
C1224 C1225 1.370 . S
C1224 C1226 1.363 . S
C1224 H1240 0.931 . S
C1225 C1224 1.370 . S
C1225 C1229 1.408 . S
C1226 C1224 1.363 . S
C1226 C1227 1.370 . S
C1226 C1230 1.524 . S
C1227 C1219 1.503 . S
C1227 C1226 1.370 . S
C1227 C1228 1.403 . S
C1228 C1227 1.403 . S
C1228 C1229 1.404 . S
C1228 C1231 1.539 . S
C1229 C1225 1.408 . S
C1229 C1228 1.404 . S
C1229 H1241 0.930 . S
C1230 C1226 1.524 . S
C1230 H1242 0.956 . S
C1230 H1243 0.961 . S
C1230 H1244 0.961 . S
C1231 C1228 1.539 . S
C1231 H1245 0.958 . S
C1231 H1246 0.961 . S
C1231 H1247 0.960 . S
H1232 C1216 0.931 . S
H1233 C1221 0.929 . S
H1234 C1222 0.960 . S
H1235 C1222 0.962 . S
H1236 C1222 0.960 . S
H1237 C1223 0.961 . S
H1238 C1223 0.961 . S
H1239 C1223 0.961 . S
H1240 C1224 0.931 . S
H1241 C1229 0.930 . S
H1242 C1230 0.956 . S
H1243 C1230 0.961 . S
H1244 C1230 0.961 . S
H1245 C1231 0.958 . S
H1246 C1231 0.961 . S
H1247 C1231 0.960 . S
C1248 C1249 1.391 . S
C1248 C1250 1.394 . S
C1248 H1264 0.931 . S
C1249 C1248 1.391 . S
C1249 C1253 1.376 . S
C1250 C1248 1.394 . S
C1250 C1251 1.369 . S
C1250 C1254 1.531 . S
C1251 C1250 1.369 . S
C1251 C1252 1.410 1_565 S
C1251 C1259 1.503 1_565 S
C1252 C1251 1.410 1_545 S
C1252 C1253 1.392 1_545 S
C1252 C1255 1.511 . S
C1253 C1249 1.376 . S
C1253 C1252 1.392 1_565 S
C1253 H1265 0.929 . S
C1254 C1250 1.531 . S
C1254 H1266 0.960 . S
C1254 H1267 0.962 . S
C1254 H1268 0.960 . S
C1255 C1252 1.511 . S
C1255 H1269 0.961 . S
C1255 H1270 0.961 . S
C1255 H1271 0.961 . S
C1256 C1257 1.370 . S
C1256 C1258 1.363 . S
C1256 H1272 0.931 . S
C1257 C1256 1.370 . S
C1257 C1261 1.408 . S
C1258 C1256 1.363 . S
C1258 C1259 1.370 . S
C1258 C1262 1.524 . S
C1259 C1251 1.503 1_545 S
C1259 C1258 1.370 . S
C1259 C1260 1.403 1_545 S
C1260 C1259 1.403 1_565 S
C1260 C1261 1.404 1_565 S
C1260 C1263 1.539 . S
C1261 C1257 1.408 . S
C1261 C1260 1.404 1_545 S
C1261 H1273 0.930 . S
C1262 C1258 1.524 . S
C1262 H1274 0.956 . S
C1262 H1275 0.961 . S
C1262 H1276 0.961 . S
C1263 C1260 1.539 . S
C1263 H1277 0.958 . S
C1263 H1278 0.961 . S
C1263 H1279 0.960 . S
H1264 C1248 0.931 . S
H1265 C1253 0.929 . S
H1266 C1254 0.960 . S
H1267 C1254 0.962 . S
H1268 C1254 0.960 . S
H1269 C1255 0.961 . S
H1270 C1255 0.961 . S
H1271 C1255 0.961 . S
H1272 C1256 0.931 . S
H1273 C1261 0.930 . S
H1274 C1262 0.956 . S
H1275 C1262 0.961 . S
H1276 C1262 0.961 . S
H1277 C1263 0.958 . S
H1278 C1263 0.961 . S
H1279 C1263 0.960 . S
C257 C18 2.172 . S
C265 C53 2.134 . S
C289 C21 1.822 . S
C297 C82 1.808 . S
C321 C113 2.130 . S
C329 C54 2.166 . S
C353 C81 1.844 . S
C361 C118 1.789 . S
C385 C114 2.169 . S
C393 C149 2.136 . S
C417 C178 1.771 . S
C425 C117 1.841 . S
C449 C150 2.154 . S
C457 C17 2.140 . S
C481 C177 1.836 . S
C489 C22 1.795 . S
C513 C181 2.157 . S
C521 C210 2.161 . S
C545 C213 1.834 . S
C553 C146 1.793 . S
C577 C241 2.160 . S
C585 C182 2.162 . S
C609 C246 1.798 . S
C617 C145 1.835 . S
C641 C242 2.156 . S
C649 C85 2.147 . S
C673 C50 1.798 . S
C681 C245 1.835 . S
C705 C209 2.160 . S
C713 C86 2.162 . S
C737 C214 1.805 . S
C745 C49 1.835 . S
C769 C19 0.911 1_454 S
C777 C23 0.965 1_556 S
C801 C51 0.925 . S
C809 C55 0.958 1_565 S
C833 C83 0.932 1_545 S
C841 C87 0.955 . S
C865 C119 0.990 . S
C873 C115 0.933 1_455 S
C897 C147 0.921 1_545 S
C905 C151 0.960 . S
C929 C179 0.914 . S
C937 C183 0.963 1_565 S
C961 C211 0.973 . S
C969 C215 0.943 . S
C993 C247 0.912 . S
C1001 C243 0.959 1_554 S
C1025 C240 1.363 . S
C1033 C20 1.370 . S
C1057 C16 1.365 . S
C1065 C244 1.370 . S
C1089 C48 1.363 . S
C1097 C84 1.369 . S
C1121 C208 1.363 . S
C1129 C116 1.370 . S
C1153 C112 1.369 . S
C1161 C212 1.368 . S
C1185 C180 1.361 . S
C1193 C144 1.370 . S
C1217 C176 1.361 . S
C1225 C148 1.370 . S
C1249 C80 1.366 . S
C1257 C52 1.368 . S
