# Generated by pormake.
# Topology mon, (4)-cn, num edge types: 1
# Building blocks:
#     Node 0, Type 0, BuildingBlock: CEKHIL_clean_sbu_0, # of connection points: 4
#     Node 1, Type 0, BuildingBlock: CEKHIL_clean_sbu_0, # of connection points: 4
#     Node 2, Type 0, BuildingBlock: CEKHIL_clean_sbu_0, # of connection points: 4
#     Node 3, Type 0, BuildingBlock: CEKHIL_clean_sbu_0, # of connection points: 4
#     Node 4, Type 0, BuildingBlock: CEKHIL_clean_sbu_0, # of connection points: 4
#     Node 5, Type 0, BuildingBlock: CEKHIL_clean_sbu_0, # of connection points: 4
#     Node 6, Type 0, BuildingBlock: CEKHIL_clean_sbu_0, # of connection points: 4
#     Node 7, Type 0, BuildingBlock: CEKHIL_clean_sbu_0, # of connection points: 4
#     Node 8, Type 0, BuildingBlock: CEKHIL_clean_sbu_0, # of connection points: 4
#     Node 9, Type 0, BuildingBlock: CEKHIL_clean_sbu_0, # of connection points: 4
#     Node 10, Type 0, BuildingBlock: CEKHIL_clean_sbu_0, # of connection points: 4
#     Node 11, Type 0, BuildingBlock: CEKHIL_clean_sbu_0, # of connection points: 4
#     Node 12, Type 0, BuildingBlock: CEKHIL_clean_sbu_0, # of connection points: 4
#     Node 13, Type 0, BuildingBlock: CEKHIL_clean_sbu_0, # of connection points: 4
#     Node 14, Type 0, BuildingBlock: CEKHIL_clean_sbu_0, # of connection points: 4
#     Node 15, Type 0, BuildingBlock: CEKHIL_clean_sbu_0, # of connection points: 4
#     Edge 16, Type (0, 0), BuildingBlock: KIFKEQ_clean_linker_1, # of connection points: 2
#     Edge 17, Type (0, 0), BuildingBlock: KIFKEQ_clean_linker_1, # of connection points: 2
#     Edge 18, Type (0, 0), BuildingBlock: KIFKEQ_clean_linker_1, # of connection points: 2
#     Edge 19, Type (0, 0), BuildingBlock: KIFKEQ_clean_linker_1, # of connection points: 2
#     Edge 20, Type (0, 0), BuildingBlock: KIFKEQ_clean_linker_1, # of connection points: 2
#     Edge 21, Type (0, 0), BuildingBlock: KIFKEQ_clean_linker_1, # of connection points: 2
#     Edge 22, Type (0, 0), BuildingBlock: KIFKEQ_clean_linker_1, # of connection points: 2
#     Edge 23, Type (0, 0), BuildingBlock: KIFKEQ_clean_linker_1, # of connection points: 2
#     Edge 24, Type (0, 0), BuildingBlock: KIFKEQ_clean_linker_1, # of connection points: 2
#     Edge 25, Type (0, 0), BuildingBlock: KIFKEQ_clean_linker_1, # of connection points: 2
#     Edge 26, Type (0, 0), BuildingBlock: KIFKEQ_clean_linker_1, # of connection points: 2
#     Edge 27, Type (0, 0), BuildingBlock: KIFKEQ_clean_linker_1, # of connection points: 2
#     Edge 28, Type (0, 0), BuildingBlock: KIFKEQ_clean_linker_1, # of connection points: 2
#     Edge 29, Type (0, 0), BuildingBlock: KIFKEQ_clean_linker_1, # of connection points: 2
#     Edge 30, Type (0, 0), BuildingBlock: KIFKEQ_clean_linker_1, # of connection points: 2
#     Edge 31, Type (0, 0), BuildingBlock: KIFKEQ_clean_linker_1, # of connection points: 2
#     Edge 32, Type (0, 0), BuildingBlock: KIFKEQ_clean_linker_1, # of connection points: 2
#     Edge 33, Type (0, 0), BuildingBlock: KIFKEQ_clean_linker_1, # of connection points: 2
#     Edge 34, Type (0, 0), BuildingBlock: KIFKEQ_clean_linker_1, # of connection points: 2
#     Edge 35, Type (0, 0), BuildingBlock: KIFKEQ_clean_linker_1, # of connection points: 2
#     Edge 36, Type (0, 0), BuildingBlock: KIFKEQ_clean_linker_1, # of connection points: 2
#     Edge 37, Type (0, 0), BuildingBlock: KIFKEQ_clean_linker_1, # of connection points: 2
#     Edge 38, Type (0, 0), BuildingBlock: KIFKEQ_clean_linker_1, # of connection points: 2
#     Edge 39, Type (0, 0), BuildingBlock: KIFKEQ_clean_linker_1, # of connection points: 2
#     Edge 40, Type (0, 0), BuildingBlock: KIFKEQ_clean_linker_1, # of connection points: 2
#     Edge 41, Type (0, 0), BuildingBlock: KIFKEQ_clean_linker_1, # of connection points: 2
#     Edge 42, Type (0, 0), BuildingBlock: KIFKEQ_clean_linker_1, # of connection points: 2
#     Edge 43, Type (0, 0), BuildingBlock: KIFKEQ_clean_linker_1, # of connection points: 2
#     Edge 44, Type (0, 0), BuildingBlock: KIFKEQ_clean_linker_1, # of connection points: 2
#     Edge 45, Type (0, 0), BuildingBlock: KIFKEQ_clean_linker_1, # of connection points: 2
#     Edge 46, Type (0, 0), BuildingBlock: KIFKEQ_clean_linker_1, # of connection points: 2
#     Edge 47, Type (0, 0), BuildingBlock: KIFKEQ_clean_linker_1, # of connection points: 2
# Relax obj value: 0.188
# Max RMSD: 0.178
# Mean RMSD: 0.178
data_MOF--net-mon--node1-CEKHIL_clean_sbu_0--edge1-KIFKEQ_clean_linker_1
_symmetry_space_group_name_H-M    P1
_symmetry_Int_Tables_number       1
_symmetry_cell_setting            triclinic
loop_
_symmetry_equiv_pos_as_xyz
'x, y, z'
_cell_length_a     33.793746
_cell_length_b     33.747667
_cell_length_c     86.517516
_cell_angle_alpha  89.939515
_cell_angle_beta   90.086632
_cell_angle_gamma 89.993657
loop_
_atom_site_label
_atom_site_type_symbol
_atom_site_fract_x
_atom_site_fract_y
_atom_site_fract_z
_atom_type_partial_charge
Co0 Co 0.02155 0.03879 0.58126 0.0
O1 O 0.04579 0.08859 0.5755 0.0
O2 O 0.98632 0.08293 0.58583 0.0
C3 C 0.07617 0.01357 0.59301 0.0
O4 O 0.98733 0.99295 0.58945 0.0
Co5 Co 0.05506 0.95774 0.56935 0.0
O6 O 0.0174 0.93488 0.58424 0.0
C7 C 1.00204 0.00575 0.54938 0.0
C8 C 0.01416 0.10593 0.5806 0.0
C9 C 0.98947 0.95479 0.59033 0.0
O10 O 0.99757 0.03253 0.55988 0.0
O11 O 0.02489 0.97575 0.55085 0.0
O12 O 0.05318 0.03794 0.60041 0.0
O13 O 0.06713 0.00791 0.57874 0.0
Co14 Co 0.23161 0.76161 0.83152 0.0
O15 O 0.18347 0.78488 0.82343 0.0
O16 O 0.18643 0.72792 0.83595 0.0
C17 C 0.25496 0.81834 0.84217 0.0
O18 O 0.27472 0.72858 0.84225 0.0
Co19 Co 0.31608 0.79032 0.82218 0.0
O20 O 0.3319 0.76248 0.8413 0.0
C21 C 0.27057 0.73694 0.80139 0.0
C22 C 0.16478 0.75465 0.82916 0.0
C23 C 0.31086 0.73423 0.84654 0.0
O24 O 0.24185 0.73385 0.81115 0.0
O25 O 0.30089 0.75901 0.80355 0.0
O26 O 0.22897 0.79707 0.84953 0.0
O27 O 0.26379 0.80607 0.82853 0.0
Co28 Co 0.50308 0.97276 0.08112 0.0
O29 O 0.47888 0.9244 0.0737 0.0
O30 O 0.53623 0.92728 0.0859 0.0
C31 C 0.44714 0.99753 0.09173 0.0
O32 O 0.53695 0.01621 0.09113 0.0
Co33 Co 0.47485 0.05693 0.07094 0.0
O34 O 0.50367 0.07376 0.08969 0.0
C35 C 0.52796 0.00973 0.05063 0.0
C36 C 0.509 0.90559 0.07945 0.0
C37 C 0.53188 0.05275 0.095 0.0
O38 O 0.53033 0.98121 0.06055 0.0
O39 O 0.50648 0.0406 0.05255 0.0
O40 O 0.46848 0.97207 0.09937 0.0
O41 O 0.45889 1.00516 0.07792 0.0
Co42 Co 0.29823 0.24108 0.33087 0.0
O43 O 0.34674 0.21572 0.32414 0.0
O44 O 0.34365 0.27396 0.33567 0.0
C45 C 0.27162 0.18643 0.34202 0.0
O46 O 0.25512 0.27658 0.3402 0.0
Co47 Co 0.21427 0.21372 0.31988 0.0
O48 O 0.1942 0.25379 0.33444 0.0
C49 C 0.26439 0.26347 0.29948 0.0
C50 C 0.36544 0.24617 0.32971 0.0
C51 C 0.21706 0.27846 0.34107 0.0
O52 O 0.29153 0.26715 0.3099 0.0
O53 O 0.23356 0.24188 0.30112 0.0
O54 O 0.29756 0.20757 0.34947 0.0
O55 O 0.26488 0.19729 0.328 0.0
Co56 Co 0.03367 0.97301 0.40718 0.0
O57 O 0.05657 0.92375 0.41432 0.0
O58 O 0.99681 0.92925 0.40424 0.0
C59 C 0.08826 0.99355 0.39417 0.0
O60 O 1.0005 0.01824 0.3978 0.0
Co61 Co 0.07146 0.05522 0.41547 0.0
O62 O 0.03544 0.07491 0.39921 0.0
C63 C 0.02442 0.01074 0.43874 0.0
C64 C 0.02425 0.90635 0.4099 0.0
C65 C 0.00559 0.05524 0.39449 0.0
O66 O 0.01259 0.9849 0.42871 0.0
O67 O 0.04989 0.0377 0.43571 0.0
O68 O 0.06382 0.9689 0.38765 0.0
O69 O 0.08024 1.00227 0.40824 0.0
Co70 Co 0.29473 0.7782 0.65884 0.0
O71 O 0.34361 0.80329 0.66526 0.0
O72 O 0.33933 0.7429 0.65561 0.0
C73 C 0.27036 0.83129 0.64577 0.0
O74 O 0.25079 0.74251 0.65027 0.0
Co75 Co 0.2115 0.81157 0.66809 0.0
O76 O 0.19068 0.76909 0.65467 0.0
C77 C 0.26023 0.7675 0.6909 0.0
C78 C 0.36164 0.77119 0.66093 0.0
C79 C 0.21273 0.74207 0.64907 0.0
O80 O 0.28561 0.7569 0.68053 0.0
O81 O 0.23206 0.79192 0.68824 0.0
O82 O 0.29586 0.80795 0.63914 0.0
O83 O 0.26311 0.82339 0.65999 0.0
Co84 Co 0.49209 0.03399 0.90785 0.0
O85 O 0.46727 0.0833 0.91397 0.0
O86 O 0.52787 0.07825 0.90469 0.0
C87 C 0.43927 0.01008 0.89457 0.0
O88 O 0.52771 0.98953 0.89967 0.0
Co89 Co 0.45772 0.95097 0.91703 0.0
O90 O 0.50077 0.92953 0.90409 0.0
C91 C 0.5007 0.99991 0.94006 0.0
C92 C 0.49965 0.10097 0.90975 0.0
C93 C 0.52813 0.95139 0.89863 0.0
O94 O 0.51232 0.02494 0.9297 0.0
O95 O 0.47614 0.97195 0.93727 0.0
O96 O 0.46315 0.03519 0.88798 0.0
O97 O 0.44663 1.00279 0.90884 0.0
Co98 Co 0.23257 0.23438 0.15606 0.0
O99 O 0.18268 0.21036 0.16154 0.0
O100 O 0.18966 0.27257 0.1541 0.0
C101 C 0.25327 0.18338 0.14115 0.0
O102 O 0.27868 0.26934 0.14895 0.0
Co103 Co 0.31292 0.19299 0.16427 0.0
O104 O 0.33652 0.23729 0.15251 0.0
C105 C 0.26756 0.23586 0.18837 0.0
C106 C 0.1661 0.24407 0.15836 0.0
C107 C 0.3167 0.26723 0.14792 0.0
O108 O 0.2427 0.24982 0.17839 0.0
O109 O 0.29421 0.21036 0.185 0.0
O110 O 0.23003 0.21024 0.13532 0.0
O111 O 0.26093 0.18696 0.15561 0.0
Co112 Co 0.79963 0.27435 0.15736 0.0
O113 O 0.84852 0.29836 0.16434 0.0
O114 O 0.84417 0.23984 0.15306 0.0
C115 C 0.77533 0.32942 0.14574 0.0
O116 O 0.75552 0.24021 0.14795 0.0
Co117 Co 0.71631 0.30484 0.1674 0.0
O118 O 0.69817 0.27369 0.14943 0.0
C119 C 0.76279 0.25262 0.18829 0.0
C120 C 0.86652 0.26721 0.15905 0.0
C121 C 0.71875 0.24492 0.14437 0.0
O122 O 0.7911 0.24919 0.17838 0.0
O123 O 0.73218 0.2743 0.18617 0.0
O124 O 0.80077 0.30714 0.13856 0.0
O125 O 0.76787 0.31934 0.15978 0.0
Co126 Co 0.72841 0.74198 0.66161 0.0
O127 O 0.67925 0.71949 0.66903 0.0
O128 O 0.68405 0.7758 0.65615 0.0
C129 C 0.75294 0.68495 0.65164 0.0
O130 O 0.77289 0.77418 0.6514 0.0
Co131 Co 0.8112 0.71305 0.67317 0.0
O132 O 0.83079 0.7427 0.65506 0.0
C133 C 0.76436 0.7694 0.69202 0.0
C134 C 0.66147 0.7497 0.66283 0.0
C135 C 0.81021 0.76985 0.64873 0.0
O136 O 0.73646 0.77099 0.68184 0.0
O137 O 0.79491 0.74722 0.69085 0.0
O138 O 0.72756 0.70591 0.64381 0.0
O139 O 0.76004 0.69737 0.66543 0.0
Co140 Co 0.73241 0.27331 0.33283 0.0
O141 O 0.68249 0.29814 0.32786 0.0
O142 O 0.68895 0.23586 0.33524 0.0
C143 C 0.75522 0.32415 0.34744 0.0
O144 O 0.77863 0.23767 0.33956 0.0
Co145 Co 0.81271 0.31333 0.32365 0.0
O146 O 0.8364 0.2695 0.33566 0.0
C147 C 0.76311 0.27359 0.30001 0.0
C148 C 0.66557 0.26471 0.33116 0.0
C149 C 0.81671 0.23973 0.34047 0.0
O150 O 0.74033 0.25801 0.31034 0.0
O151 O 0.79002 0.29903 0.30315 0.0
O152 O 0.73195 0.29778 0.35358 0.0
O153 O 0.76159 0.32016 0.33292 0.0
Co154 Co 0.79737 0.73959 0.8317 0.0
O155 O 0.84503 0.71407 0.82425 0.0
O156 O 0.84366 0.77103 0.83678 0.0
C157 C 0.76988 0.68437 0.84207 0.0
O158 O 0.75515 0.77479 0.8418 0.0
Co159 Co 0.71295 0.71511 0.82023 0.0
O160 O 0.69382 0.75397 0.83548 0.0
C161 C 0.76305 0.76775 0.80106 0.0
C162 C 0.86459 0.74355 0.83015 0.0
C163 C 0.71712 0.77724 0.84264 0.0
O164 O 0.79071 0.76847 0.81133 0.0
O165 O 0.73155 0.74698 0.80223 0.0
O166 O 0.7966 0.7041 0.84969 0.0
O167 O 0.76304 0.69672 0.82824 0.0
Co168 Co 0.52842 0.53788 0.08165 0.0
O169 O 0.55181 0.58644 0.07408 0.0
O170 O 0.49404 0.58282 0.08587 0.0
C171 C 0.58424 0.5146 0.09303 0.0
O172 O 0.49544 0.49374 0.09179 0.0
Co173 Co 0.55969 0.4546 0.07161 0.0
O174 O 0.5293 0.4366 0.08975 0.0
C175 C 0.50634 0.50001 0.05086 0.0
C176 C 0.52112 0.60485 0.07951 0.0
C177 C 0.5009 0.45692 0.09528 0.0
O178 O 0.50221 0.52809 0.06087 0.0
O179 O 0.52906 0.47009 0.05285 0.0
O180 O 0.56218 0.5403 0.10017 0.0
O181 O 0.57353 0.50646 0.07912 0.0
Co182 Co 0.99416 0.47434 0.58504 0.0
O183 O 0.96669 0.42639 0.57893 0.0
O184 O 0.02853 0.42853 0.58722 0.0
C185 C 0.94341 0.49955 0.59913 0.0
O186 O 0.0322 0.51671 0.59331 0.0
Co187 Co 0.96267 0.55934 0.57703 0.0
O188 O 0.00786 0.57818 0.5895 0.0
C189 C 1.00056 0.50982 0.55297 0.0
C190 C 0.99881 0.4073 0.58248 0.0
C191 C 0.03428 0.55471 0.59464 0.0
O192 O 0.01268 0.48402 0.56298 0.0
O193 O 0.97734 0.53845 0.55636 0.0
O194 O 0.96674 0.4731 0.60525 0.0
O195 O 0.95009 0.50747 0.58487 0.0
Co196 Co 0.53551 0.46761 0.90778 0.0
O197 O 0.55869 0.41785 0.91425 0.0
O198 O 0.49811 0.42442 0.90503 0.0
C199 C 0.58894 0.48874 0.89418 0.0
O200 O 0.50157 0.5131 0.89926 0.0
Co201 Co 0.57354 0.54969 0.91588 0.0
O202 O 0.53693 0.56955 0.89979 0.0
C203 C 0.52779 0.50489 0.93952 0.0
C204 C 0.52576 0.40102 0.91018 0.0
C205 C 0.50647 0.54991 0.89571 0.0
O206 O 0.51619 0.47863 0.92962 0.0
O207 O 0.5525 0.5324 0.93628 0.0
O208 O 0.56389 0.46439 0.88783 0.0
O209 O 0.58219 0.49688 0.90841 0.0
Co210 Co 1.00088 0.53814 0.40976 0.0
O211 O 0.97536 0.58696 0.4161 0.0
O212 O 0.03435 0.58352 0.40528 0.0
C213 C 0.94696 0.51175 0.39806 0.0
O214 O 0.03659 0.49455 0.40095 0.0
Co215 Co 0.97166 0.45456 0.42055 0.0
O216 O 0.01217 0.43394 0.40627 0.0
C217 C 0.02132 0.50395 0.44132 0.0
C218 C 0.00624 0.60554 0.41089 0.0
C219 C 0.03778 0.45643 0.4 0.0
O220 O 0.02539 0.53141 0.43104 0.0
O221 O 0.99965 0.47323 0.43945 0.0
O222 O 0.96903 0.53709 0.39072 0.0
O223 O 0.95654 0.50538 0.41223 0.0
H224 H 0.94797 0.15201 0.57693 0.0
H225 H 0.07358 0.15887 0.58503 0.0
H226 H 0.94405 0.22407 0.57643 0.0
H227 H 0.06974 0.23055 0.58605 0.0
H228 H 0.06259 0.36084 0.57554 0.0
H229 H 0.06558 0.28894 0.57425 0.0
H230 H 0.94269 0.28278 0.58826 0.0
H231 H 0.9394 0.35468 0.58801 0.0
C232 C 0.97468 0.16909 0.57884 0.0
C233 C 0.01109 0.14982 0.5809 0.0
C234 C 0.97252 0.21067 0.57872 0.0
C235 C 0.00659 0.23422 0.58118 0.0
C236 C 0.04285 0.21436 0.58361 0.0
C237 C 0.04512 0.17292 0.5832 0.0
C238 C 0.03623 0.34391 0.57821 0.0
C239 C 1.00074 0.36337 0.58179 0.0
C240 C 0.0379 0.30239 0.57766 0.0
C241 C 1.00445 0.27895 0.58125 0.0
C242 C 0.96903 0.29894 0.58501 0.0
C243 C 0.96709 0.34046 0.58502 0.0
H244 H 0.91572 0.68602 0.82028 0.0
H245 H 0.91315 0.80464 0.8389 0.0
H246 H 0.98799 0.68812 0.81976 0.0
H247 H 0.98546 0.80671 0.83838 0.0
H248 H 0.11741 0.69262 0.83808 0.0
H249 H 0.04503 0.68984 0.83813 0.0
H250 H 0.04034 0.80819 0.81924 0.0
H251 H 0.11251 0.81099 0.81918 0.0
C252 C 0.93055 0.7126 0.82424 0.0
C253 C 0.90857 0.7452 0.82961 0.0
C254 C 0.97202 0.71369 0.82403 0.0
C255 C 0.9926 0.74758 0.82902 0.0
C256 C 0.97058 0.78029 0.8343 0.0
C257 C 0.92911 0.77905 0.83466 0.0
C258 C 0.10093 0.71795 0.83386 0.0
C259 C 0.12083 0.75199 0.82861 0.0
C260 C 0.05943 0.71632 0.83384 0.0
C261 C 0.03681 0.74885 0.82873 0.0
C262 C 0.05678 0.78278 0.82342 0.0
C263 C 0.09821 0.78426 0.82328 0.0
H264 H 0.57776 0.65724 0.07008 0.0
H265 H 0.45875 0.6523 0.08807 0.0
H266 H 0.57492 0.72943 0.07004 0.0
H267 H 0.45595 0.7248 0.08807 0.0
H268 H 0.45204 0.85362 0.06984 0.0
H269 H 0.45446 0.78135 0.06979 0.0
H270 H 0.5729 0.78521 0.0885 0.0
H271 H 0.57053 0.85767 0.0885 0.0
C272 C 0.55089 0.67154 0.07399 0.0
C273 C 0.51843 0.64887 0.07904 0.0
C274 C 0.5494 0.71302 0.07407 0.0
C275 C 0.51527 0.73305 0.07909 0.0
C276 C 0.4826 0.71038 0.084 0.0
C277 C 0.48423 0.6688 0.08404 0.0
C278 C 0.47868 0.83911 0.0739 0.0
C279 C 0.51116 0.86153 0.07913 0.0
C280 C 0.47994 0.7976 0.07398 0.0
C281 C 0.51384 0.77735 0.07915 0.0
C282 C 0.54645 0.7998 0.08429 0.0
C283 C 0.54506 0.84136 0.08434 0.0
H284 H 0.61154 0.32164 0.32372 0.0
H285 H 0.62008 0.19889 0.33745 0.0
H286 H 0.53975 0.31656 0.32325 0.0
H287 H 0.54775 0.1939 0.33719 0.0
H288 H 0.41841 0.19061 0.31943 0.0
H289 H 0.49064 0.1941 0.31974 0.0
H290 H 0.48433 0.31004 0.34068 0.0
H291 H 0.41223 0.30675 0.34016 0.0
C292 C 0.5981 0.29348 0.32666 0.0
C293 C 0.6217 0.26065 0.33062 0.0
C294 C 0.55679 0.29067 0.32649 0.0
C295 C 0.53774 0.25489 0.33026 0.0
C296 C 0.56135 0.22185 0.33408 0.0
C297 C 0.60283 0.22472 0.3343 0.0
C298 C 0.43244 0.21691 0.32406 0.0
C299 C 0.40944 0.2485 0.32969 0.0
C300 C 0.47392 0.21878 0.32434 0.0
C301 C 0.4935 0.25238 0.33021 0.0
C302 C 0.47039 0.28392 0.33587 0.0
C303 C 0.42896 0.28198 0.33563 0.0
H304 H 0.07972 0.8526 0.41928 0.0
H305 H 0.96005 0.86033 0.402 0.0
H306 H 0.075 0.78059 0.41961 0.0
H307 H 0.95541 0.7879 0.40219 0.0
H308 H 0.94935 0.65854 0.41987 0.0
H309 H 0.95283 0.73083 0.41979 0.0
H310 H 0.07178 0.72487 0.40179 0.0
H311 H 0.06841 0.65257 0.40201 0.0
C312 C 0.05229 0.83895 0.41558 0.0
C313 C 0.02022 0.86239 0.41063 0.0
C314 C 0.04971 0.79753 0.41566 0.0
C315 C 0.01491 0.77822 0.41086 0.0
C316 C 0.98258 0.80168 0.4061 0.0
C317 C 0.98525 0.84324 0.40594 0.0
C318 C 0.97631 0.67263 0.41593 0.0
C319 C 0.00868 0.64964 0.41101 0.0
C320 C 0.97819 0.71416 0.41578 0.0
C321 C 0.01259 0.73388 0.4108 0.0
C322 C 0.04497 0.71081 0.40589 0.0
C323 C 0.043 0.66928 0.40596 0.0
H324 H 0.40751 0.70618 0.65447 0.0
H325 H 0.4153 0.82843 0.66881 0.0
H326 H 0.47969 0.70126 0.655 0.0
H327 H 0.48733 0.82345 0.66945 0.0
H328 H 0.6074 0.69607 0.67359 0.0
H329 H 0.53535 0.70109 0.67331 0.0
H330 H 0.54383 0.81633 0.65184 0.0
H331 H 0.616 0.81141 0.65222 0.0
C332 C 0.42458 0.73195 0.6578 0.0
C333 C 0.40553 0.76767 0.66162 0.0
C334 C 0.466 0.7291 0.65817 0.0
C335 C 0.48946 0.76197 0.66226 0.0
C336 C 0.47031 0.79767 0.66608 0.0
C337 C 0.42893 0.80043 0.66582 0.0
C338 C 0.59394 0.72256 0.66885 0.0
C339 C 0.61757 0.75338 0.66296 0.0
C340 C 0.55255 0.72531 0.6686 0.0
C341 C 0.53364 0.75909 0.66254 0.0
C342 C 0.55732 0.79006 0.65675 0.0
C343 C 0.59874 0.78718 0.65691 0.0
H344 H 0.58018 0.3459 0.91939 0.0
H345 H 0.46076 0.35666 0.90209 0.0
H346 H 0.57375 0.27399 0.91956 0.0
H347 H 0.45447 0.28447 0.90203 0.0
H348 H 0.44405 0.15534 0.91866 0.0
H349 H 0.44981 0.22742 0.91907 0.0
H350 H 0.56952 0.21839 0.90202 0.0
H351 H 0.56391 0.14625 0.90184 0.0
C352 C 0.55247 0.33294 0.91564 0.0
C353 C 0.52095 0.35717 0.91076 0.0
C354 C 0.54889 0.29157 0.91562 0.0
C355 C 0.51364 0.27319 0.91076 0.0
C356 C 0.48192 0.29749 0.90602 0.0
C357 C 0.48556 0.33894 0.906 0.0
C358 C 0.47167 0.16871 0.91505 0.0
C359 C 0.50357 0.14491 0.91027 0.0
C360 C 0.47488 0.21014 0.91518 0.0
C361 C 0.51013 0.22894 0.91058 0.0
C362 C 0.54208 0.20505 0.90584 0.0
C363 C 0.53882 0.16361 0.90567 0.0
H364 H 0.11153 0.18788 0.166 0.0
H365 H 0.12143 0.31045 0.15217 0.0
H366 H 0.03978 0.19381 0.16641 0.0
H367 H 0.04921 0.31629 0.15236 0.0
H368 H 0.9124 0.20551 0.14895 0.0
H369 H 0.98449 0.20096 0.1488 0.0
H370 H 0.99223 0.31683 0.16974 0.0
H371 H 0.92014 0.32159 0.16968 0.0
C372 C 0.0984 0.21618 0.16305 0.0
C373 C 0.12234 0.24871 0.15906 0.0
C374 C 0.05713 0.21949 0.16317 0.0
C375 C 0.03852 0.25546 0.15934 0.0
C376 C 0.06248 0.28821 0.15552 0.0
C377 C 0.10391 0.28485 0.15535 0.0
C378 C 0.92946 0.22997 0.15357 0.0
C379 C 0.91041 0.26384 0.15937 0.0
C380 C 0.97086 0.22732 0.15354 0.0
C381 C 0.99434 0.25852 0.15928 0.0
C382 C 0.97521 0.29243 0.16506 0.0
C383 C 0.93381 0.29502 0.16514 0.0
H384 H 0.96194 0.96782 0.45127 0.0
H385 H 0.05113 0.05516 0.46262 0.0
H386 H 0.93777 0.97102 0.47808 0.0
H387 H 0.0276 0.05801 0.48865 0.0
H388 H 0.9849 0.07394 0.53349 0.0
H389 H 0.97397 0.07807 0.50559 0.0
H390 H 0.96619 0.95043 0.50319 0.0
H391 H 0.97573 0.94652 0.53097 0.0
C392 C 0.97619 0.98772 0.45935 0.0
C393 C 0.00847 0.01115 0.45471 0.0
C394 C 0.9622 0.98981 0.47463 0.0
C395 C 0.98014 0.01553 0.4854 0.0
C396 C 0.01201 0.03901 0.48059 0.0
C397 C 0.02593 0.03684 0.46557 0.0
C398 C 0.97904 0.04701 0.52709 0.0
C399 C 0.98246 0.00989 0.53423 0.0
C400 C 0.973 0.04926 0.51111 0.0
C401 C 0.9706 0.01444 0.50214 0.0
C402 C 0.96826 0.97776 0.50969 0.0
C403 C 0.97416 0.97553 0.52562 0.0
H404 H 0.20353 0.71594 0.78548 0.0
H405 H 0.33109 0.7161 0.78242 0.0
H406 H 0.19938 0.70725 0.75751 0.0
H407 H 0.32698 0.70916 0.75456 0.0
H408 H 0.3089 0.70848 0.70276 0.0
H409 H 0.3085 0.68218 0.72929 0.0
H410 H 0.21377 0.76279 0.74092 0.0
H411 H 0.21378 0.78825 0.71509 0.0
C412 C 0.23063 0.71268 0.77894 0.0
C413 C 0.26757 0.71812 0.78603 0.0
C414 C 0.22833 0.70799 0.7629 0.0
C415 C 0.26287 0.70906 0.75378 0.0
C416 C 0.29981 0.70862 0.76118 0.0
C417 C 0.30211 0.71302 0.77717 0.0
C418 C 0.28792 0.72025 0.71101 0.0
C419 C 0.26155 0.75059 0.70673 0.0
C420 C 0.28749 0.70505 0.72614 0.0
C421 C 0.26051 0.71979 0.73715 0.0
C422 C 0.23401 0.74965 0.73269 0.0
C423 C 0.23453 0.76477 0.71779 0.0
H424 H 0.54636 0.94182 0.03487 0.0
H425 H 0.55211 0.06944 0.0318 0.0
H426 H 0.55551 0.93741 0.00693 0.0
H427 H 0.5598 0.06512 0.00395 0.0
H428 H 0.56206 0.04538 0.95196 0.0
H429 H 0.58732 0.04422 0.97866 0.0
H430 H 0.49982 0.95597 0.99049 0.0
H431 H 0.47511 0.95691 0.96453 0.0
C432 C 0.5511 0.96881 0.02833 0.0
C433 C 0.54712 0.00597 0.03538 0.0
C434 C 0.55611 0.96636 0.01232 0.0
C435 C 0.55691 1.00101 0.00321 0.0
C436 C 0.55888 0.03791 0.01059 0.0
C437 C 0.55406 0.04035 0.02656 0.0
C438 C 0.54847 0.02572 0.96031 0.0
C439 C 0.51656 1.00131 0.95603 0.0
C440 C 0.56311 0.0248 0.97552 0.0
C441 C 0.54624 0.99923 0.98659 0.0
C442 C 0.51458 0.97491 0.98218 0.0
C443 C 0.49997 0.97597 0.96722 0.0
H444 H 0.22701 0.29933 0.20103 0.0
H445 H 0.30946 0.20558 0.21239 0.0
H446 H 0.23144 0.32342 0.22778 0.0
H447 H 0.31355 0.22914 0.23852 0.0
H448 H 0.33294 0.27482 0.28324 0.0
H449 H 0.33686 0.28216 0.25516 0.0
H450 H 0.21008 0.29797 0.253 0.0
H451 H 0.20648 0.29197 0.28092 0.0
C452 C 0.24597 0.28392 0.20915 0.0
C453 C 0.26776 0.25049 0.20452 0.0
C454 C 0.24879 0.29788 0.2244 0.0
C455 C 0.2736 0.27876 0.23519 0.0
C456 C 0.29525 0.24551 0.23044 0.0
C457 C 0.29236 0.23159 0.2154 0.0
C458 C 0.30628 0.28175 0.27682 0.0
C459 C 0.26931 0.28171 0.28413 0.0
C460 C 0.30838 0.28559 0.26073 0.0
C461 C 0.27356 0.28928 0.25184 0.0
C462 C 0.2374 0.29488 0.25945 0.0
C463 C 0.23532 0.29113 0.27547 0.0
H464 H 0.82962 0.24315 0.20567 0.0
H465 H 0.70356 0.2224 0.20585 0.0
H466 H 0.83086 0.2357 0.23379 0.0
H467 H 0.70479 0.21523 0.23389 0.0
H468 H 0.72865 0.20639 0.28734 0.0
H469 H 0.73225 0.18517 0.26009 0.0
H470 H 0.79666 0.29184 0.24892 0.0
H471 H 0.79258 0.31317 0.27542 0.0
C472 C 0.80257 0.23519 0.21162 0.0
C473 C 0.76638 0.23428 0.2037 0.0
C474 C 0.8032 0.2311 0.2277 0.0
C475 C 0.76772 0.2258 0.23598 0.0
C476 C 0.73248 0.21941 0.22781 0.0
C477 C 0.7318 0.22379 0.21177 0.0
C478 C 0.74324 0.22529 0.27898 0.0
C479 C 0.76067 0.26125 0.28361 0.0
C480 C 0.74569 0.21297 0.26349 0.0
C481 C 0.76601 0.23624 0.25257 0.0
C482 C 0.78224 0.27252 0.25719 0.0
C483 C 0.77945 0.28492 0.27242 0.0
H484 H 0.69989 0.77554 0.71062 0.0
H485 H 0.82178 0.81162 0.70627 0.0
H486 H 0.70133 0.79258 0.73794 0.0
H487 H 0.82303 0.83067 0.73343 0.0
H488 H 0.82764 0.77064 0.78237 0.0
H489 H 0.82712 0.78874 0.75513 0.0
H490 H 0.70767 0.83325 0.75986 0.0
H491 H 0.70789 0.81313 0.78693 0.0
C492 C 0.72636 0.78897 0.71538 0.0
C493 C 0.76085 0.79174 0.70651 0.0
C494 C 0.72734 0.79885 0.73106 0.0
C495 C 0.76271 0.81219 0.73803 0.0
C496 C 0.7957 0.81943 0.72858 0.0
C497 C 0.79489 0.80888 0.713 0.0
C498 C 0.80192 0.78561 0.77767 0.0
C499 C 0.76764 0.78996 0.78656 0.0
C500 C 0.80149 0.79613 0.76204 0.0
C501 C 0.7669 0.81169 0.75515 0.0
C502 C 0.73434 0.82032 0.76465 0.0
C503 C 0.73456 0.80912 0.78016 0.0
H504 H 0.55175 0.55248 0.96297 0.0
H505 H 0.46898 0.45826 0.95266 0.0
H506 H 0.52938 0.55417 0.9892 0.0
H507 H 0.44579 0.46047 0.97959 0.0
H508 H 0.48382 0.43931 0.0323 0.0
H509 H 0.47511 0.44248 0.00448 0.0
H510 H 0.47646 0.57039 0.00669 0.0
H511 H 0.48675 0.56708 0.03463 0.0
C512 C 0.52821 0.53234 0.9662 0.0
C513 C 0.51232 0.50503 0.95558 0.0
C514 C 0.51491 0.53382 0.98134 0.0
C515 C 0.48518 0.50807 0.98649 0.0
C516 C 0.46865 0.4809 0.97592 0.0
C517 C 0.48204 0.47945 0.96055 0.0
C518 C 0.4811 0.46817 0.0269 0.0
C519 C 0.48733 0.50297 0.03552 0.0
C520 C 0.4757 0.46996 0.01093 0.0
C521 C 0.47636 0.50663 0.00331 0.0
C522 C 0.47691 0.5416 0.01223 0.0
C523 C 0.48249 0.53979 0.02825 0.0
H524 H 0.97019 0.55164 0.52903 0.0
H525 H 0.06153 0.46609 0.53987 0.0
H526 H 0.99197 0.55413 0.50269 0.0
H527 H 0.08374 0.46876 0.51279 0.0
H528 H 0.04736 0.44472 0.45986 0.0
H529 H 0.05526 0.44806 0.48772 0.0
H530 H 0.04511 0.57558 0.48566 0.0
H531 H 0.03582 0.57202 0.45765 0.0
C532 C 0.99536 0.53352 0.52586 0.0
C533 C 0.01416 0.50865 0.53669 0.0
C534 C 0.00824 0.53547 0.51068 0.0
C535 C 0.04029 0.51251 0.50569 0.0
C536 C 0.05918 0.48718 0.51637 0.0
C537 C 0.04628 0.48536 0.5318 0.0
C538 C 0.04803 0.47361 0.46531 0.0
C539 C 0.03968 0.50806 0.45671 0.0
C540 C 0.05295 0.47551 0.48128 0.0
C541 C 0.04962 0.51194 0.48893 0.0
C542 C 0.04684 0.54694 0.48006 0.0
C543 C 0.04181 0.54502 0.46402 0.0
H544 H 0.21279 0.87716 0.65803 0.0
H545 H 0.27389 0.85429 0.61514 0.0
H546 H 0.16931 0.92309 0.64511 0.0
H547 H 0.2313 0.90278 0.60213 0.0
H548 H 0.11647 0.95114 0.58091 0.0
H549 H 0.16641 0.9104 0.59321 0.0
H550 H 0.16094 0.98468 0.63387 0.0
H551 H 0.1088 0.02408 0.62176 0.0
C552 C 0.2173 0.88231 0.6458 0.0
C553 C 0.24658 0.86161 0.63757 0.0
C554 C 0.19251 0.90928 0.6384 0.0
C555 C 0.19658 0.91701 0.62253 0.0
C556 C 0.22677 0.89718 0.61432 0.0
C557 C 0.25142 0.86958 0.62176 0.0
C558 C 0.12578 0.95877 0.59251 0.0
C559 C 0.10818 0.99051 0.60047 0.0
C560 C 0.15495 0.9356 0.59951 0.0
C561 C 0.16788 0.94391 0.6146 0.0
C562 C 0.1512 0.97668 0.62237 0.0
C563 C 0.12142 0.99948 0.61543 0.0
H564 H 0.31768 0.85784 0.82999 0.0
H565 H 0.24306 0.85332 0.87043 0.0
H566 H 0.35865 0.90776 0.84213 0.0
H567 H 0.28292 0.90536 0.88238 0.0
H568 H 0.39201 0.9535 0.90677 0.0
H569 H 0.34489 0.91144 0.89382 0.0
H570 H 0.36721 0.97306 0.85085 0.0
H571 H 0.41671 0.01432 0.8639 0.0
C572 C 0.30968 0.8679 0.84144 0.0
C573 C 0.27745 0.85111 0.84936 0.0
C574 C 0.33302 0.89704 0.84835 0.0
C575 C 0.32444 0.91067 0.86331 0.0
C576 C 0.29105 0.89503 0.87097 0.0
C577 C 0.268 0.86534 0.86412 0.0
C578 C 0.38702 0.95826 0.89454 0.0
C579 C 0.40854 0.98703 0.88632 0.0
C580 C 0.3594 0.93431 0.88712 0.0
C581 C 0.35188 0.93871 0.87125 0.0
C582 C 0.37258 0.96837 0.86305 0.0
C583 C 0.40079 0.99221 0.87051 0.0
H584 H 0.39125 0.03993 0.07652 0.0
H585 H 0.43012 0.0082 0.12244 0.0
H586 H 0.33984 0.08188 0.08734 0.0
H587 H 0.37978 0.0517 0.1334 0.0
H588 H 0.26919 0.10888 0.1502 0.0
H589 H 0.3122 0.06087 0.13773 0.0
H590 H 0.33038 0.14278 0.09989 0.0
H591 H 0.28527 0.18993 0.11217 0.0
C592 C 0.38875 0.04196 0.08898 0.0
C593 C 0.41463 0.02073 0.09866 0.0
C594 C 0.35943 0.06633 0.09519 0.0
C595 C 0.35555 0.0705 0.11127 0.0
C596 C 0.38128 0.04876 0.12096 0.0
C597 C 0.41032 0.02391 0.11472 0.0
C598 C 0.28178 0.11616 0.13904 0.0
C599 C 0.2739 0.1529 0.13207 0.0
C600 C 0.30687 0.08888 0.13197 0.0
C601 C 0.32551 0.09804 0.11791 0.0
C602 C 0.31631 0.13439 0.11064 0.0
C603 C 0.29044 0.16147 0.11761 0.0
H604 H 0.10828 0.99149 0.36319 0.0
H605 H 0.13889 0.04654 0.40664 0.0
H606 H 0.15715 0.0334 0.3501 0.0
H607 H 0.1852 0.08938 0.39372 0.0
H608 H 0.2848 0.1494 0.36975 0.0
H609 H 0.24547 0.09673 0.38148 0.0
H610 H 0.16574 0.09945 0.34232 0.0
H611 H 0.20631 0.15004 0.33033 0.0
C612 C 0.12546 0.01236 0.36993 0.0
C613 C 0.11945 0.01587 0.38591 0.0
C614 C 0.15324 0.03664 0.36245 0.0
C615 C 0.17523 0.06507 0.37081 0.0
C616 C 0.16965 0.06754 0.38685 0.0
C617 C 0.14249 0.04313 0.39428 0.0
C618 C 0.25901 0.13848 0.36366 0.0
C619 C 0.24846 0.15418 0.34922 0.0
C620 C 0.23628 0.10837 0.37037 0.0
C621 C 0.20203 0.09385 0.36293 0.0
C622 C 0.1921 0.10922 0.34834 0.0
C623 C 0.21518 0.13874 0.34153 0.0
H624 H 0.92939 0.03255 0.38635 0.0
H625 H 0.01313 0.12879 0.3821 0.0
H626 H 0.88 0.07228 0.37224 0.0
H627 H 0.96442 0.16786 0.36858 0.0
H628 H 0.89024 0.21741 0.33193 0.0
H629 H 0.93252 0.16762 0.34358 0.0
H630 H 0.83894 0.13568 0.37516 0.0
H631 H 0.79557 0.18545 0.36299 0.0
C632 C 0.93738 0.0619 0.38236 0.0
C633 C 0.97539 0.07729 0.38534 0.0
C634 C 0.90901 0.08473 0.3744 0.0
C635 C 0.91837 0.12311 0.36914 0.0
C636 C 0.95635 0.13817 0.37215 0.0
C637 C 0.98435 0.11568 0.38005 0.0
C638 C 0.87841 0.19963 0.34128 0.0
C639 C 0.83981 0.20596 0.34676 0.0
C640 C 0.90272 0.17105 0.34798 0.0
C641 C 0.88948 0.14828 0.36055 0.0
C642 C 0.85003 0.1528 0.3655 0.0
C643 C 0.82528 0.18135 0.3586 0.0
H644 H 0.51903 0.11251 0.11517 0.0
H645 H 0.61225 0.04041 0.09596 0.0
H646 H 0.568 0.15577 0.12693 0.0
H647 H 0.66183 0.08475 0.10744 0.0
H648 H 0.73525 0.16518 0.14228 0.0
H649 H 0.69208 0.11372 0.13137 0.0
H650 H 0.6115 0.20439 0.11541 0.0
H651 H 0.6537 0.25512 0.12649 0.0
C652 C 0.5501 0.10568 0.11362 0.0
C653 C 0.56183 0.07339 0.10451 0.0
C654 C 0.57821 0.13067 0.12023 0.0
C655 C 0.61883 0.12443 0.11772 0.0
C656 C 0.63076 0.09048 0.10952 0.0
C657 C 0.60241 0.06504 0.10299 0.0
C658 C 0.70864 0.17398 0.13618 0.0
C659 C 0.69755 0.21413 0.13542 0.0
C660 C 0.68388 0.14455 0.12999 0.0
C661 C 0.64779 0.15491 0.12291 0.0
C662 C 0.63837 0.19526 0.12125 0.0
C663 C 0.66277 0.22442 0.12749 0.0
H664 H 0.72668 0.79722 0.87312 0.0
H665 H 0.66501 0.8302 0.83137 0.0
H666 H 0.68669 0.84525 0.88776 0.0
H667 H 0.626 0.8786 0.84577 0.0
H668 H 0.57711 0.97909 0.87568 0.0
H669 H 0.63061 0.94269 0.86273 0.0
H670 H 0.61027 0.84248 0.8927 0.0
H671 H 0.55673 0.87818 0.90537 0.0
C672 C 0.70537 0.81551 0.86705 0.0
C673 C 0.69866 0.81009 0.85119 0.0
C674 C 0.68246 0.8428 0.87538 0.0
C675 C 0.65329 0.86563 0.86787 0.0
C676 C 0.64849 0.86174 0.85183 0.0
C677 C 0.67062 0.83393 0.84362 0.0
C678 C 0.5844 0.94946 0.87957 0.0
C679 C 0.56239 0.93131 0.89138 0.0
C680 C 0.61496 0.92869 0.87219 0.0
C681 C 0.62466 0.88986 0.87678 0.0
C682 C 0.60378 0.8725 0.88904 0.0
C683 C 0.57281 0.89283 0.89617 0.0
H684 H 0.78714 0.84497 0.63961 0.0
H685 H 0.88226 0.76002 0.6355 0.0
H686 H 0.82629 0.89316 0.62473 0.0
H687 H 0.92092 0.80767 0.62112 0.0
H688 H 0.96691 0.88042 0.58302 0.0
H689 H 0.91883 0.83862 0.59578 0.0
H690 H 0.8904 0.93375 0.62721 0.0
H691 H 0.93866 0.97669 0.61397 0.0
C692 C 0.8161 0.83644 0.63543 0.0
C693 C 0.83148 0.79856 0.63872 0.0
C694 C 0.83863 0.86415 0.62707 0.0
C695 C 0.87663 0.8542 0.62169 0.0
C696 C 0.89155 0.81619 0.62487 0.0
C697 C 0.86936 0.78883 0.63321 0.0
C698 C 0.95043 0.89269 0.59262 0.0
C699 C 0.95729 0.93165 0.59771 0.0
C700 C 0.92278 0.86864 0.59994 0.0
C701 C 0.90137 0.88253 0.61272 0.0
C702 C 0.9065 0.92221 0.61738 0.0
C703 C 0.9342 0.9467 0.60987 0.0
H704 H 0.71527 0.3723 0.15812 0.0
H705 H 0.7819 0.35726 0.11598 0.0
H706 H 0.6725 0.41976 0.14541 0.0
H707 H 0.74004 0.40671 0.1033 0.0
H708 H 0.62657 0.45377 0.08088 0.0
H709 H 0.67547 0.41252 0.09353 0.0
H710 H 0.66506 0.48347 0.13493 0.0
H711 H 0.61419 0.52377 0.12236 0.0
C712 C 0.72113 0.37953 0.14614 0.0
C713 C 0.75175 0.36064 0.138 0.0
C714 C 0.69676 0.40722 0.13888 0.0
C715 C 0.70261 0.41724 0.12328 0.0
C716 C 0.73416 0.39926 0.11525 0.0
C717 C 0.75835 0.37109 0.12251 0.0
C718 C 0.63467 0.46069 0.09269 0.0
C719 C 0.61614 0.49181 0.10068 0.0
C720 C 0.66319 0.4372 0.09991 0.0
C721 C 0.67441 0.44446 0.11529 0.0
C722 C 0.65672 0.47649 0.12315 0.0
C723 C 0.62772 0.49979 0.11595 0.0
H724 H 0.77819 0.39542 0.3368 0.0
H725 H 0.78224 0.32125 0.37741 0.0
H726 H 0.82118 0.44342 0.34923 0.0
H727 H 0.8273 0.36843 0.38976 0.0
H728 H 0.88682 0.47351 0.41234 0.0
H729 H 0.83669 0.43097 0.40089 0.0
H730 H 0.88754 0.45161 0.35573 0.0
H731 H 0.93648 0.49589 0.36725 0.0
C732 C 0.78825 0.38955 0.34849 0.0
C733 C 0.77692 0.3547 0.35618 0.0
C734 C 0.81333 0.41687 0.35556 0.0
C735 C 0.82846 0.40971 0.37043 0.0
C736 C 0.816 0.37528 0.37835 0.0
C737 C 0.79018 0.34816 0.37132 0.0
C738 C 0.887 0.46921 0.39993 0.0
C739 C 0.91547 0.48806 0.39066 0.0
C740 C 0.85843 0.44449 0.39337 0.0
C741 C 0.85796 0.43747 0.37737 0.0
C742 C 0.88637 0.45677 0.36807 0.0
C743 C 0.9146 0.48208 0.37464 0.0
H744 H 0.89813 0.55874 0.58775 0.0
H745 H 0.92008 0.49262 0.62969 0.0
H746 H 0.85023 0.59915 0.60092 0.0
H747 H 0.8698 0.53257 0.64298 0.0
H748 H 0.8153 0.64595 0.66464 0.0
H749 H 0.85875 0.59763 0.65265 0.0
H750 H 0.78661 0.60068 0.61134 0.0
H751 H 0.74431 0.65078 0.62314 0.0
C752 C 0.89247 0.55251 0.59983 0.0
C753 C 0.91324 0.52252 0.6077 0.0
C754 C 0.86438 0.57553 0.60737 0.0
C755 C 0.85559 0.56903 0.62301 0.0
C756 C 0.87601 0.53865 0.63094 0.0
C757 C 0.90469 0.51563 0.62335 0.0
C758 C 0.80863 0.63628 0.653 0.0
C759 C 0.77673 0.65273 0.64472 0.0
C760 C 0.83339 0.60815 0.64617 0.0
C761 C 0.8266 0.5954 0.63095 0.0
C762 C 0.79341 0.61047 0.62296 0.0
C763 C 0.76895 0.63905 0.62973 0.0
H764 H 0.78508 0.6434 0.8687 0.0
H765 H 0.70228 0.65111 0.83077 0.0
H766 H 0.74583 0.5903 0.88009 0.0
H767 H 0.66177 0.59983 0.84251 0.0
H768 H 0.60481 0.48985 0.86278 0.0
H769 H 0.65241 0.53273 0.8494 0.0
H770 H 0.68679 0.58358 0.89328 0.0
H771 H 0.64165 0.53994 0.90641 0.0
C772 C 0.75833 0.63392 0.86286 0.0
C773 C 0.74658 0.65174 0.84895 0.0
C774 C 0.73564 0.60356 0.8694 0.0
C775 C 0.70019 0.59085 0.86234 0.0
C776 C 0.68902 0.60825 0.84822 0.0
C777 C 0.71209 0.6381 0.84156 0.0
C778 C 0.62312 0.50979 0.86949 0.0
C779 C 0.61927 0.51159 0.88563 0.0
C780 C 0.65016 0.53463 0.86185 0.0
C781 C 0.67363 0.56183 0.87022 0.0
C782 C 0.67009 0.56268 0.88638 0.0
C783 C 0.64363 0.53778 0.89395 0.0
H784 H 0.51424 0.61753 0.87902 0.0
H785 H 0.42676 0.53258 0.89408 0.0
H786 H 0.4624 0.65918 0.86847 0.0
H787 H 0.37414 0.57522 0.88366 0.0
H788 H 0.30019 0.65351 0.8476 0.0
H789 H 0.34499 0.6051 0.85962 0.0
H790 H 0.41212 0.70097 0.87979 0.0
H791 H 0.36843 0.7488 0.86752 0.0
C792 C 0.48385 0.60766 0.88005 0.0
C793 C 0.47465 0.57195 0.88757 0.0
C794 C 0.45402 0.63175 0.8741 0.0
C795 C 0.414 0.6211 0.8756 0.0
C796 C 0.40468 0.58436 0.8824 0.0
C797 C 0.4348 0.55994 0.88833 0.0
C798 C 0.324 0.66403 0.85492 0.0
C799 C 0.33122 0.70489 0.85646 0.0
C800 C 0.34971 0.63635 0.86176 0.0
C801 C 0.3828 0.64922 0.8703 0.0
C802 C 0.38772 0.69006 0.87287 0.0
C803 C 0.36247 0.7175 0.86595 0.0
H804 H 0.06324 0.54059 0.62361 0.0
H805 H 0.08222 0.6108 0.58261 0.0
H806 H 0.11317 0.58022 0.63739 0.0
H807 H 0.13282 0.64943 0.59613 0.0
H808 H 0.2389 0.69659 0.62477 0.0
H809 H 0.20224 0.64356 0.61146 0.0
H810 H 0.10581 0.65743 0.64364 0.0
H811 H 0.14156 0.71064 0.65657 0.0
C812 C 0.07901 0.56365 0.61745 0.0
C813 C 0.06901 0.57287 0.60212 0.0
C814 C 0.10739 0.58632 0.6253 0.0
C815 C 0.12681 0.6178 0.61778 0.0
C816 C 0.11858 0.62513 0.60214 0.0
C817 C 0.08956 0.6032 0.59444 0.0
C818 C 0.21006 0.68795 0.62904 0.0
C819 C 0.19288 0.70802 0.64158 0.0
C820 C 0.18916 0.6577 0.62147 0.0
C821 C 0.15136 0.64631 0.62662 0.0
C822 C 0.13507 0.66527 0.63955 0.0
C823 C 0.1554 0.696 0.64684 0.0
H824 H 0.07501 0.47987 0.37332 0.0
H825 H 0.07537 0.38905 0.4085 0.0
H826 H 0.12548 0.44269 0.35886 0.0
H827 H 0.12623 0.35279 0.39436 0.0
H828 H 0.23796 0.31097 0.36899 0.0
H829 H 0.20048 0.36076 0.38374 0.0
H830 H 0.11672 0.37058 0.34623 0.0
H831 H 0.15319 0.32037 0.33181 0.0
C832 C 0.08644 0.45245 0.37809 0.0
C833 C 0.07105 0.43706 0.39191 0.0
C834 C 0.11521 0.43126 0.36985 0.0
C835 C 0.1298 0.39502 0.37557 0.0
C836 C 0.11583 0.38083 0.38979 0.0
C837 C 0.08647 0.4014 0.39779 0.0
C838 C 0.21189 0.3243 0.36387 0.0
C839 C 0.19816 0.31164 0.34937 0.0
C840 C 0.19051 0.35266 0.37227 0.0
C841 C 0.15585 0.36953 0.36606 0.0
C842 C 0.14353 0.35837 0.35121 0.0
C843 C 0.1642 0.32942 0.34303 0.0
H844 H 0.4236 0.4768 0.10248 0.0
H845 H 0.51325 0.38773 0.11041 0.0
H846 H 0.37562 0.43605 0.11677 0.0
H847 H 0.46594 0.34727 0.12403 0.0
H848 H 0.38832 0.2917 0.15788 0.0
H849 H 0.42977 0.3438 0.1474 0.0
H850 H 0.33907 0.37236 0.11393 0.0
H851 H 0.29641 0.32069 0.12507 0.0
C852 C 0.4332 0.44889 0.10741 0.0
C853 C 0.47227 0.43553 0.10527 0.0
C854 C 0.40566 0.42539 0.11545 0.0
C855 C 0.41689 0.38839 0.12161 0.0
C856 C 0.45623 0.37582 0.11973 0.0
C857 C 0.48344 0.39902 0.11176 0.0
C858 C 0.37702 0.30925 0.14835 0.0
C859 C 0.33948 0.30156 0.14207 0.0
C860 C 0.40084 0.33914 0.14231 0.0
C861 C 0.38822 0.36171 0.12957 0.0
C862 C 0.3497 0.35556 0.12377 0.0
C863 C 0.32538 0.32585 0.13006 0.0
loop_
_geom_bond_atom_site_label_1
_geom_bond_atom_site_label_2
_geom_bond_distance
_geom_bond_site_symmetry_2
_ccdc_geom_bond_type
Co0 O1 2.216 . S
Co0 O2 2.091 1_455 S
Co0 O4 2.004 1_455 S
Co0 O10 2.021 1_455 S
Co0 O12 2.137 . S
Co0 O13 2.244 1_545 S
O1 Co0 2.216 . S
O1 C8 1.247 . S
O2 Co0 2.091 1_655 S
O2 C8 1.261 1_655 S
C3 O12 1.247 . S
C3 O13 1.272 1_545 S
O4 Co0 2.004 1_655 S
O4 C9 1.259 1_545 S
Co5 O6 2.061 1_455 S
Co5 O11 2.052 . S
Co5 O13 2.135 . S
O6 Co5 2.061 1_655 S
O6 C9 1.235 . S
C7 O10 1.238 1_455 S
C7 O11 1.241 1_545 S
C8 O1 1.247 . S
C8 O2 1.261 1_455 S
C9 O4 1.259 1_565 S
C9 O6 1.235 . S
O10 Co0 2.021 1_655 S
O10 C7 1.238 1_655 S
O11 Co5 2.052 . S
O11 C7 1.241 1_565 S
O12 Co0 2.137 . S
O12 C3 1.247 . S
O13 Co0 2.244 1_565 S
O13 C3 1.272 1_565 S
O13 Co5 2.135 . S
Co14 O15 2.216 . S
Co14 O16 2.091 . S
Co14 O18 2.004 . S
Co14 O24 2.021 . S
Co14 O26 2.137 . S
Co14 O27 2.244 . S
O15 Co14 2.216 . S
O15 C22 1.247 . S
O16 Co14 2.091 . S
O16 C22 1.261 . S
C17 O26 1.247 . S
C17 O27 1.272 . S
O18 Co14 2.004 . S
O18 C23 1.259 . S
Co19 O20 2.061 . S
Co19 O25 2.052 . S
Co19 O27 2.135 . S
O20 Co19 2.061 . S
O20 C23 1.235 . S
C21 O24 1.238 . S
C21 O25 1.241 . S
C22 O15 1.247 . S
C22 O16 1.261 . S
C23 O18 1.259 . S
C23 O20 1.235 . S
O24 Co14 2.021 . S
O24 C21 1.238 . S
O25 Co19 2.052 . S
O25 C21 1.241 . S
O26 Co14 2.137 . S
O26 C17 1.247 . S
O27 Co14 2.244 . S
O27 C17 1.272 . S
O27 Co19 2.135 . S
Co28 O29 2.216 . S
Co28 O30 2.091 . S
Co28 O32 2.004 . S
Co28 O38 2.021 . S
Co28 O40 2.137 . S
Co28 O41 2.244 1_565 S
O29 Co28 2.216 . S
O29 C36 1.247 . S
O30 Co28 2.091 . S
O30 C36 1.261 . S
C31 O40 1.247 . S
C31 O41 1.272 1_565 S
O32 Co28 2.004 . S
O32 C37 1.259 1_565 S
Co33 O34 2.061 . S
Co33 O39 2.052 . S
Co33 O41 2.135 . S
O34 Co33 2.061 . S
O34 C37 1.235 . S
C35 O38 1.238 . S
C35 O39 1.241 1_565 S
C36 O29 1.247 . S
C36 O30 1.261 . S
C37 O32 1.259 1_545 S
C37 O34 1.235 . S
O38 Co28 2.021 . S
O38 C35 1.238 . S
O39 Co33 2.052 . S
O39 C35 1.241 1_545 S
O40 Co28 2.137 . S
O40 C31 1.247 . S
O41 Co28 2.244 1_545 S
O41 C31 1.272 1_545 S
O41 Co33 2.135 . S
Co42 O43 2.216 . S
Co42 O44 2.091 . S
Co42 O46 2.004 . S
Co42 O52 2.021 . S
Co42 O54 2.137 . S
Co42 O55 2.244 . S
O43 Co42 2.216 . S
O43 C50 1.247 . S
O44 Co42 2.091 . S
O44 C50 1.261 . S
C45 O54 1.247 . S
C45 O55 1.272 . S
O46 Co42 2.004 . S
O46 C51 1.259 . S
Co47 O48 2.061 . S
Co47 O53 2.052 . S
Co47 O55 2.135 . S
O48 Co47 2.061 . S
O48 C51 1.235 . S
C49 O52 1.238 . S
C49 O53 1.241 . S
C50 O43 1.247 . S
C50 O44 1.261 . S
C51 O46 1.259 . S
C51 O48 1.235 . S
O52 Co42 2.021 . S
O52 C49 1.238 . S
O53 Co47 2.052 . S
O53 C49 1.241 . S
O54 Co42 2.137 . S
O54 C45 1.247 . S
O55 Co42 2.244 . S
O55 C45 1.272 . S
O55 Co47 2.135 . S
Co56 O57 2.216 . S
Co56 O58 2.091 1_455 S
Co56 O60 2.004 1_455 S
Co56 O66 2.021 1_455 S
Co56 O68 2.137 . S
Co56 O69 2.244 1_565 S
O57 Co56 2.216 . S
O57 C64 1.247 . S
O58 Co56 2.091 1_655 S
O58 C64 1.261 1_655 S
C59 O68 1.247 . S
C59 O69 1.272 1_565 S
O60 Co56 2.004 1_655 S
O60 C65 1.259 1_565 S
Co61 O62 2.061 1_455 S
Co61 O67 2.052 . S
Co61 O69 2.135 . S
O62 Co61 2.061 1_655 S
O62 C65 1.235 . S
C63 O66 1.238 1_455 S
C63 O67 1.241 1_565 S
C64 O57 1.247 . S
C64 O58 1.261 1_455 S
C65 O60 1.259 1_545 S
C65 O62 1.235 . S
O66 Co56 2.021 1_655 S
O66 C63 1.238 1_655 S
O67 Co61 2.052 . S
O67 C63 1.241 1_545 S
O68 Co56 2.137 . S
O68 C59 1.247 . S
O69 Co56 2.244 1_545 S
O69 C59 1.272 1_545 S
O69 Co61 2.135 . S
Co70 O71 2.216 . S
Co70 O72 2.091 . S
Co70 O74 2.004 . S
Co70 O80 2.021 . S
Co70 O82 2.137 . S
Co70 O83 2.244 . S
O71 Co70 2.216 . S
O71 C78 1.247 . S
O72 Co70 2.091 . S
O72 C78 1.261 . S
C73 O82 1.247 . S
C73 O83 1.272 . S
O74 Co70 2.004 . S
O74 C79 1.259 . S
Co75 O76 2.061 . S
Co75 O81 2.052 . S
Co75 O83 2.135 . S
O76 Co75 2.061 . S
O76 C79 1.235 . S
C77 O80 1.238 . S
C77 O81 1.241 . S
C78 O71 1.247 . S
C78 O72 1.261 . S
C79 O74 1.259 . S
C79 O76 1.235 . S
O80 Co70 2.021 . S
O80 C77 1.238 . S
O81 Co75 2.052 . S
O81 C77 1.241 . S
O82 Co70 2.137 . S
O82 C73 1.247 . S
O83 Co70 2.244 . S
O83 C73 1.272 . S
O83 Co75 2.135 . S
Co84 O85 2.216 . S
Co84 O86 2.091 . S
Co84 O88 2.004 . S
Co84 O94 2.021 . S
Co84 O96 2.137 . S
Co84 O97 2.244 1_545 S
O85 Co84 2.216 . S
O85 C92 1.247 . S
O86 Co84 2.091 . S
O86 C92 1.261 . S
C87 O96 1.247 . S
C87 O97 1.272 1_545 S
O88 Co84 2.004 . S
O88 C93 1.259 1_545 S
Co89 O90 2.061 . S
Co89 O95 2.052 . S
Co89 O97 2.135 . S
O90 Co89 2.061 . S
O90 C93 1.235 . S
C91 O94 1.238 . S
C91 O95 1.241 1_545 S
C92 O85 1.247 . S
C92 O86 1.261 . S
C93 O88 1.259 1_565 S
C93 O90 1.235 . S
O94 Co84 2.021 . S
O94 C91 1.238 . S
O95 Co89 2.052 . S
O95 C91 1.241 1_565 S
O96 Co84 2.137 . S
O96 C87 1.247 . S
O97 Co84 2.244 1_565 S
O97 C87 1.272 1_565 S
O97 Co89 2.135 . S
Co98 O99 2.216 . S
Co98 O100 2.091 . S
Co98 O102 2.004 . S
Co98 O108 2.021 . S
Co98 O110 2.137 . S
Co98 O111 2.244 . S
O99 Co98 2.216 . S
O99 C106 1.247 . S
O100 Co98 2.091 . S
O100 C106 1.261 . S
C101 O110 1.247 . S
C101 O111 1.272 . S
O102 Co98 2.004 . S
O102 C107 1.259 . S
Co103 O104 2.061 . S
Co103 O109 2.052 . S
Co103 O111 2.135 . S
O104 Co103 2.061 . S
O104 C107 1.235 . S
C105 O108 1.238 . S
C105 O109 1.241 . S
C106 O99 1.247 . S
C106 O100 1.261 . S
C107 O102 1.259 . S
C107 O104 1.235 . S
O108 Co98 2.021 . S
O108 C105 1.238 . S
O109 Co103 2.052 . S
O109 C105 1.241 . S
O110 Co98 2.137 . S
O110 C101 1.247 . S
O111 Co98 2.244 . S
O111 C101 1.272 . S
O111 Co103 2.135 . S
Co112 O113 2.216 . S
Co112 O114 2.091 . S
Co112 O116 2.004 . S
Co112 O122 2.021 . S
Co112 O124 2.137 . S
Co112 O125 2.244 . S
O113 Co112 2.216 . S
O113 C120 1.247 . S
O114 Co112 2.091 . S
O114 C120 1.261 . S
C115 O124 1.247 . S
C115 O125 1.272 . S
O116 Co112 2.004 . S
O116 C121 1.259 . S
Co117 O118 2.061 . S
Co117 O123 2.052 . S
Co117 O125 2.135 . S
O118 Co117 2.061 . S
O118 C121 1.235 . S
C119 O122 1.238 . S
C119 O123 1.241 . S
C120 O113 1.247 . S
C120 O114 1.261 . S
C121 O116 1.259 . S
C121 O118 1.235 . S
O122 Co112 2.021 . S
O122 C119 1.238 . S
O123 Co117 2.052 . S
O123 C119 1.241 . S
O124 Co112 2.137 . S
O124 C115 1.247 . S
O125 Co112 2.244 . S
O125 C115 1.272 . S
O125 Co117 2.135 . S
Co126 O127 2.216 . S
Co126 O128 2.091 . S
Co126 O130 2.004 . S
Co126 O136 2.021 . S
Co126 O138 2.137 . S
Co126 O139 2.244 . S
O127 Co126 2.216 . S
O127 C134 1.247 . S
O128 Co126 2.091 . S
O128 C134 1.261 . S
C129 O138 1.247 . S
C129 O139 1.272 . S
O130 Co126 2.004 . S
O130 C135 1.259 . S
Co131 O132 2.061 . S
Co131 O137 2.052 . S
Co131 O139 2.135 . S
O132 Co131 2.061 . S
O132 C135 1.235 . S
C133 O136 1.238 . S
C133 O137 1.241 . S
C134 O127 1.247 . S
C134 O128 1.261 . S
C135 O130 1.259 . S
C135 O132 1.235 . S
O136 Co126 2.021 . S
O136 C133 1.238 . S
O137 Co131 2.052 . S
O137 C133 1.241 . S
O138 Co126 2.137 . S
O138 C129 1.247 . S
O139 Co126 2.244 . S
O139 C129 1.272 . S
O139 Co131 2.135 . S
Co140 O141 2.216 . S
Co140 O142 2.091 . S
Co140 O144 2.004 . S
Co140 O150 2.021 . S
Co140 O152 2.137 . S
Co140 O153 2.244 . S
O141 Co140 2.216 . S
O141 C148 1.247 . S
O142 Co140 2.091 . S
O142 C148 1.261 . S
C143 O152 1.247 . S
C143 O153 1.272 . S
O144 Co140 2.004 . S
O144 C149 1.259 . S
Co145 O146 2.061 . S
Co145 O151 2.052 . S
Co145 O153 2.135 . S
O146 Co145 2.061 . S
O146 C149 1.235 . S
C147 O150 1.238 . S
C147 O151 1.241 . S
C148 O141 1.247 . S
C148 O142 1.261 . S
C149 O144 1.259 . S
C149 O146 1.235 . S
O150 Co140 2.021 . S
O150 C147 1.238 . S
O151 Co145 2.052 . S
O151 C147 1.241 . S
O152 Co140 2.137 . S
O152 C143 1.247 . S
O153 Co140 2.244 . S
O153 C143 1.272 . S
O153 Co145 2.135 . S
Co154 O155 2.216 . S
Co154 O156 2.091 . S
Co154 O158 2.004 . S
Co154 O164 2.021 . S
Co154 O166 2.137 . S
Co154 O167 2.244 . S
O155 Co154 2.216 . S
O155 C162 1.247 . S
O156 Co154 2.091 . S
O156 C162 1.261 . S
C157 O166 1.247 . S
C157 O167 1.272 . S
O158 Co154 2.004 . S
O158 C163 1.259 . S
Co159 O160 2.061 . S
Co159 O165 2.052 . S
Co159 O167 2.135 . S
O160 Co159 2.061 . S
O160 C163 1.235 . S
C161 O164 1.238 . S
C161 O165 1.241 . S
C162 O155 1.247 . S
C162 O156 1.261 . S
C163 O158 1.259 . S
C163 O160 1.235 . S
O164 Co154 2.021 . S
O164 C161 1.238 . S
O165 Co159 2.052 . S
O165 C161 1.241 . S
O166 Co154 2.137 . S
O166 C157 1.247 . S
O167 Co154 2.244 . S
O167 C157 1.272 . S
O167 Co159 2.135 . S
Co168 O169 2.216 . S
Co168 O170 2.091 . S
Co168 O172 2.004 . S
Co168 O178 2.021 . S
Co168 O180 2.137 . S
Co168 O181 2.244 . S
O169 Co168 2.216 . S
O169 C176 1.247 . S
O170 Co168 2.091 . S
O170 C176 1.261 . S
C171 O180 1.247 . S
C171 O181 1.272 . S
O172 Co168 2.004 . S
O172 C177 1.259 . S
Co173 O174 2.061 . S
Co173 O179 2.052 . S
Co173 O181 2.135 . S
O174 Co173 2.061 . S
O174 C177 1.235 . S
C175 O178 1.238 . S
C175 O179 1.241 . S
C176 O169 1.247 . S
C176 O170 1.261 . S
C177 O172 1.259 . S
C177 O174 1.235 . S
O178 Co168 2.021 . S
O178 C175 1.238 . S
O179 Co173 2.052 . S
O179 C175 1.241 . S
O180 Co168 2.137 . S
O180 C171 1.247 . S
O181 Co168 2.244 . S
O181 C171 1.272 . S
O181 Co173 2.135 . S
Co182 O183 2.216 1_455 S
Co182 O184 2.091 . S
Co182 O186 2.004 . S
Co182 O192 2.021 . S
Co182 O194 2.137 1_455 S
Co182 O195 2.244 1_455 S
O183 Co182 2.216 1_655 S
O183 C190 1.247 . S
O184 Co182 2.091 . S
O184 C190 1.261 1_455 S
C185 O194 1.247 . S
C185 O195 1.272 . S
O186 Co182 2.004 . S
O186 C191 1.259 . S
Co187 O188 2.061 1_655 S
Co187 O193 2.052 . S
Co187 O195 2.135 . S
O188 Co187 2.061 1_455 S
O188 C191 1.235 . S
C189 O192 1.238 . S
C189 O193 1.241 1_455 S
C190 O183 1.247 . S
C190 O184 1.261 1_655 S
C191 O186 1.259 . S
C191 O188 1.235 . S
O192 Co182 2.021 . S
O192 C189 1.238 . S
O193 Co187 2.052 . S
O193 C189 1.241 1_655 S
O194 Co182 2.137 1_655 S
O194 C185 1.247 . S
O195 Co182 2.244 1_655 S
O195 C185 1.272 . S
O195 Co187 2.135 . S
Co196 O197 2.216 . S
Co196 O198 2.091 . S
Co196 O200 2.004 . S
Co196 O206 2.021 . S
Co196 O208 2.137 . S
Co196 O209 2.244 . S
O197 Co196 2.216 . S
O197 C204 1.247 . S
O198 Co196 2.091 . S
O198 C204 1.261 . S
C199 O208 1.247 . S
C199 O209 1.272 . S
O200 Co196 2.004 . S
O200 C205 1.259 . S
Co201 O202 2.061 . S
Co201 O207 2.052 . S
Co201 O209 2.135 . S
O202 Co201 2.061 . S
O202 C205 1.235 . S
C203 O206 1.238 . S
C203 O207 1.241 . S
C204 O197 1.247 . S
C204 O198 1.261 . S
C205 O200 1.259 . S
C205 O202 1.235 . S
O206 Co196 2.021 . S
O206 C203 1.238 . S
O207 Co201 2.052 . S
O207 C203 1.241 . S
O208 Co196 2.137 . S
O208 C199 1.247 . S
O209 Co196 2.244 . S
O209 C199 1.272 . S
O209 Co201 2.135 . S
Co210 O211 2.216 1_455 S
Co210 O212 2.091 . S
Co210 O214 2.004 . S
Co210 O220 2.021 . S
Co210 O222 2.137 1_455 S
Co210 O223 2.244 1_455 S
O211 Co210 2.216 1_655 S
O211 C218 1.247 . S
O212 Co210 2.091 . S
O212 C218 1.261 1_455 S
C213 O222 1.247 . S
C213 O223 1.272 . S
O214 Co210 2.004 . S
O214 C219 1.259 . S
Co215 O216 2.061 1_655 S
Co215 O221 2.052 . S
Co215 O223 2.135 . S
O216 Co215 2.061 1_455 S
O216 C219 1.235 . S
C217 O220 1.238 . S
C217 O221 1.241 1_455 S
C218 O211 1.247 . S
C218 O212 1.261 1_655 S
C219 O214 1.259 . S
C219 O216 1.235 . S
O220 Co210 2.021 . S
O220 C217 1.238 . S
O221 Co215 2.052 . S
O221 C217 1.241 1_655 S
O222 Co210 2.137 1_655 S
O222 C213 1.247 . S
O223 Co210 2.244 1_655 S
O223 C213 1.272 . S
O223 Co215 2.135 . S
H224 C232 0.950 1_655 S
H225 C237 0.950 . S
H226 C234 0.950 . S
H227 C236 0.950 . S
H228 C238 0.950 . S
H229 C240 0.950 . S
H230 C242 0.950 . S
H231 C243 0.950 . S
C232 H224 0.950 1_455 S
C232 C233 1.386 . S
C232 C234 1.391 1_455 S
C233 C232 1.386 . S
C233 C237 1.393 . S
C234 H226 0.950 . S
C234 C232 1.391 1_655 S
C234 C235 1.400 1_655 S
C235 C234 1.400 1_455 S
C235 C236 1.398 . S
C235 C241 1.491 . S
C236 H227 0.950 . S
C236 C235 1.398 . S
C236 C237 1.391 . S
C237 H225 0.950 . S
C237 C233 1.393 . S
C237 C236 1.391 . S
C238 H228 0.950 . S
C238 C239 1.386 1_455 S
C238 C240 1.391 . S
C239 C238 1.386 1_655 S
C239 C243 1.393 . S
C240 H229 0.950 . S
C240 C238 1.391 . S
C240 C241 1.400 . S
C241 C235 1.491 . S
C241 C240 1.400 . S
C241 C242 1.398 1_455 S
C242 H230 0.950 . S
C242 C241 1.398 1_655 S
C242 C243 1.391 . S
C243 H231 0.950 . S
C243 C239 1.393 . S
C243 C242 1.391 . S
H244 C252 0.950 . S
H245 C257 0.950 . S
H246 C254 0.950 . S
H247 C256 0.950 . S
H248 C258 0.950 . S
H249 C260 0.950 . S
H250 C262 0.950 . S
H251 C263 0.950 . S
C252 H244 0.950 . S
C252 C253 1.386 . S
C252 C254 1.391 . S
C253 C252 1.386 . S
C253 C257 1.393 . S
C254 H246 0.950 . S
C254 C252 1.391 . S
C254 C255 1.400 . S
C255 C254 1.400 . S
C255 C256 1.398 . S
C255 C261 1.491 1_655 S
C256 H247 0.950 . S
C256 C255 1.398 . S
C256 C257 1.391 . S
C257 H245 0.950 . S
C257 C253 1.393 . S
C257 C256 1.391 . S
C258 H248 0.950 . S
C258 C259 1.386 . S
C258 C260 1.391 . S
C259 C258 1.386 . S
C259 C263 1.393 . S
C260 H249 0.950 . S
C260 C258 1.391 . S
C260 C261 1.400 . S
C261 C255 1.491 1_455 S
C261 C260 1.400 . S
C261 C262 1.398 . S
C262 H250 0.950 . S
C262 C261 1.398 . S
C262 C263 1.391 . S
C263 H251 0.950 . S
C263 C259 1.393 . S
C263 C262 1.391 . S
H264 C272 0.950 . S
H265 C277 0.950 . S
H266 C274 0.950 . S
H267 C276 0.950 . S
H268 C278 0.950 . S
H269 C280 0.950 . S
H270 C282 0.950 . S
H271 C283 0.950 . S
C272 H264 0.950 . S
C272 C273 1.386 . S
C272 C274 1.391 . S
C273 C272 1.386 . S
C273 C277 1.393 . S
C274 H266 0.950 . S
C274 C272 1.391 . S
C274 C275 1.400 . S
C275 C274 1.400 . S
C275 C276 1.398 . S
C275 C281 1.491 . S
C276 H267 0.950 . S
C276 C275 1.398 . S
C276 C277 1.391 . S
C277 H265 0.950 . S
C277 C273 1.393 . S
C277 C276 1.391 . S
C278 H268 0.950 . S
C278 C279 1.386 . S
C278 C280 1.391 . S
C279 C278 1.386 . S
C279 C283 1.393 . S
C280 H269 0.950 . S
C280 C278 1.391 . S
C280 C281 1.400 . S
C281 C275 1.491 . S
C281 C280 1.400 . S
C281 C282 1.398 . S
C282 H270 0.950 . S
C282 C281 1.398 . S
C282 C283 1.391 . S
C283 H271 0.950 . S
C283 C279 1.393 . S
C283 C282 1.391 . S
H284 C292 0.950 . S
H285 C297 0.950 . S
H286 C294 0.950 . S
H287 C296 0.950 . S
H288 C298 0.950 . S
H289 C300 0.950 . S
H290 C302 0.950 . S
H291 C303 0.950 . S
C292 H284 0.950 . S
C292 C293 1.386 . S
C292 C294 1.391 . S
C293 C292 1.386 . S
C293 C297 1.393 . S
C294 H286 0.950 . S
C294 C292 1.391 . S
C294 C295 1.400 . S
C295 C294 1.400 . S
C295 C296 1.398 . S
C295 C301 1.491 . S
C296 H287 0.950 . S
C296 C295 1.398 . S
C296 C297 1.391 . S
C297 H285 0.950 . S
C297 C293 1.393 . S
C297 C296 1.391 . S
C298 H288 0.950 . S
C298 C299 1.386 . S
C298 C300 1.391 . S
C299 C298 1.386 . S
C299 C303 1.393 . S
C300 H289 0.950 . S
C300 C298 1.391 . S
C300 C301 1.400 . S
C301 C295 1.491 . S
C301 C300 1.400 . S
C301 C302 1.398 . S
C302 H290 0.950 . S
C302 C301 1.398 . S
C302 C303 1.391 . S
C303 H291 0.950 . S
C303 C299 1.393 . S
C303 C302 1.391 . S
H304 C312 0.950 . S
H305 C317 0.950 . S
H306 C314 0.950 . S
H307 C316 0.950 . S
H308 C318 0.950 . S
H309 C320 0.950 . S
H310 C322 0.950 . S
H311 C323 0.950 . S
C312 H304 0.950 . S
C312 C313 1.386 . S
C312 C314 1.391 . S
C313 C312 1.386 . S
C313 C317 1.393 1_455 S
C314 H306 0.950 . S
C314 C312 1.391 . S
C314 C315 1.400 . S
C315 C314 1.400 . S
C315 C316 1.398 1_455 S
C315 C321 1.491 . S
C316 H307 0.950 . S
C316 C315 1.398 1_655 S
C316 C317 1.391 . S
C317 H305 0.950 . S
C317 C313 1.393 1_655 S
C317 C316 1.391 . S
C318 H308 0.950 . S
C318 C319 1.386 . S
C318 C320 1.391 . S
C319 C318 1.386 . S
C319 C323 1.393 1_655 S
C320 H309 0.950 . S
C320 C318 1.391 . S
C320 C321 1.400 1_655 S
C321 C315 1.491 . S
C321 C320 1.400 1_455 S
C321 C322 1.398 . S
C322 H310 0.950 . S
C322 C321 1.398 . S
C322 C323 1.391 . S
C323 H311 0.950 . S
C323 C319 1.393 1_455 S
C323 C322 1.391 . S
H324 C332 0.950 . S
H325 C337 0.950 . S
H326 C334 0.950 . S
H327 C336 0.950 . S
H328 C338 0.950 . S
H329 C340 0.950 . S
H330 C342 0.950 . S
H331 C343 0.950 . S
C332 H324 0.950 . S
C332 C333 1.386 . S
C332 C334 1.391 . S
C333 C332 1.386 . S
C333 C337 1.393 . S
C334 H326 0.950 . S
C334 C332 1.391 . S
C334 C335 1.400 . S
C335 C334 1.400 . S
C335 C336 1.398 . S
C335 C341 1.491 . S
C336 H327 0.950 . S
C336 C335 1.398 . S
C336 C337 1.391 . S
C337 H325 0.950 . S
C337 C333 1.393 . S
C337 C336 1.391 . S
C338 H328 0.950 . S
C338 C339 1.386 . S
C338 C340 1.391 . S
C339 C338 1.386 . S
C339 C343 1.393 . S
C340 H329 0.950 . S
C340 C338 1.391 . S
C340 C341 1.400 . S
C341 C335 1.491 . S
C341 C340 1.400 . S
C341 C342 1.398 . S
C342 H330 0.950 . S
C342 C341 1.398 . S
C342 C343 1.391 . S
C343 H331 0.950 . S
C343 C339 1.393 . S
C343 C342 1.391 . S
H344 C352 0.950 . S
H345 C357 0.950 . S
H346 C354 0.950 . S
H347 C356 0.950 . S
H348 C358 0.950 . S
H349 C360 0.950 . S
H350 C362 0.950 . S
H351 C363 0.950 . S
C352 H344 0.950 . S
C352 C353 1.386 . S
C352 C354 1.391 . S
C353 C352 1.386 . S
C353 C357 1.393 . S
C354 H346 0.950 . S
C354 C352 1.391 . S
C354 C355 1.400 . S
C355 C354 1.400 . S
C355 C356 1.398 . S
C355 C361 1.491 . S
C356 H347 0.950 . S
C356 C355 1.398 . S
C356 C357 1.391 . S
C357 H345 0.950 . S
C357 C353 1.393 . S
C357 C356 1.391 . S
C358 H348 0.950 . S
C358 C359 1.386 . S
C358 C360 1.391 . S
C359 C358 1.386 . S
C359 C363 1.393 . S
C360 H349 0.950 . S
C360 C358 1.391 . S
C360 C361 1.400 . S
C361 C355 1.491 . S
C361 C360 1.400 . S
C361 C362 1.398 . S
C362 H350 0.950 . S
C362 C361 1.398 . S
C362 C363 1.391 . S
C363 H351 0.950 . S
C363 C359 1.393 . S
C363 C362 1.391 . S
H364 C372 0.950 . S
H365 C377 0.950 . S
H366 C374 0.950 . S
H367 C376 0.950 . S
H368 C378 0.950 . S
H369 C380 0.950 . S
H370 C382 0.950 . S
H371 C383 0.950 . S
C372 H364 0.950 . S
C372 C373 1.386 . S
C372 C374 1.391 . S
C373 C372 1.386 . S
C373 C377 1.393 . S
C374 H366 0.950 . S
C374 C372 1.391 . S
C374 C375 1.400 . S
C375 C374 1.400 . S
C375 C376 1.398 . S
C375 C381 1.491 1_455 S
C376 H367 0.950 . S
C376 C375 1.398 . S
C376 C377 1.391 . S
C377 H365 0.950 . S
C377 C373 1.393 . S
C377 C376 1.391 . S
C378 H368 0.950 . S
C378 C379 1.386 . S
C378 C380 1.391 . S
C379 C378 1.386 . S
C379 C383 1.393 . S
C380 H369 0.950 . S
C380 C378 1.391 . S
C380 C381 1.400 . S
C381 C375 1.491 1_655 S
C381 C380 1.400 . S
C381 C382 1.398 . S
C382 H370 0.950 . S
C382 C381 1.398 . S
C382 C383 1.391 . S
C383 H371 0.950 . S
C383 C379 1.393 . S
C383 C382 1.391 . S
H384 C392 0.950 . S
H385 C397 0.950 . S
H386 C394 0.950 . S
H387 C396 0.950 . S
H388 C398 0.950 . S
H389 C400 0.950 . S
H390 C402 0.950 . S
H391 C403 0.950 . S
C392 H384 0.950 . S
C392 C393 1.386 1_655 S
C392 C394 1.391 . S
C393 C392 1.386 1_455 S
C393 C397 1.393 1_565 S
C394 H386 0.950 . S
C394 C392 1.391 . S
C394 C395 1.389 1_655 S
C395 C394 1.389 1_455 S
C395 C396 1.410 1_565 S
C395 C401 1.490 1_465 S
C396 H387 0.950 . S
C396 C395 1.410 1_545 S
C396 C397 1.391 . S
C397 H385 0.950 . S
C397 C393 1.393 1_545 S
C397 C396 1.391 . S
C398 H388 0.950 . S
C398 C399 1.368 1_455 S
C398 C400 1.391 . S
C399 C398 1.368 1_655 S
C399 C403 1.411 1_545 S
C400 H389 0.950 . S
C400 C398 1.391 . S
C400 C401 1.393 1_455 S
C401 C395 1.490 1_645 S
C401 C400 1.393 1_655 S
C401 C402 1.405 1_545 S
C402 H390 0.950 . S
C402 C401 1.405 1_565 S
C402 C403 1.391 . S
C403 H391 0.950 . S
C403 C399 1.411 1_565 S
C403 C402 1.391 . S
H404 C412 0.950 . S
H405 C417 0.950 . S
H406 C414 0.950 . S
H407 C416 0.950 . S
H408 C418 0.950 . S
H409 C420 0.950 . S
H410 C422 0.950 . S
H411 C423 0.950 . S
C412 H404 0.950 . S
C412 C413 1.386 . S
C412 C414 1.391 . S
C413 C412 1.386 . S
C413 C417 1.393 . S
C414 H406 0.950 . S
C414 C412 1.391 . S
C414 C415 1.400 . S
C415 C414 1.400 . S
C415 C416 1.398 . S
C415 C421 1.491 . S
C416 H407 0.950 . S
C416 C415 1.398 . S
C416 C417 1.391 . S
C417 H405 0.950 . S
C417 C413 1.393 . S
C417 C416 1.391 . S
C418 H408 0.950 . S
C418 C419 1.386 . S
C418 C420 1.391 . S
C419 C418 1.386 . S
C419 C423 1.393 . S
C420 H409 0.950 . S
C420 C418 1.391 . S
C420 C421 1.400 . S
C421 C415 1.491 . S
C421 C420 1.400 . S
C421 C422 1.398 . S
C422 H410 0.950 . S
C422 C421 1.398 . S
C422 C423 1.391 . S
C423 H411 0.950 . S
C423 C419 1.393 . S
C423 C422 1.391 . S
H424 C432 0.950 . S
H425 C437 0.950 . S
H426 C434 0.950 . S
H427 C436 0.950 . S
H428 C438 0.950 . S
H429 C440 0.950 . S
H430 C442 0.950 . S
H431 C443 0.950 . S
C432 H424 0.950 . S
C432 C433 1.386 . S
C432 C434 1.391 . S
C433 C432 1.386 . S
C433 C437 1.393 1_565 S
C434 H426 0.950 . S
C434 C432 1.391 . S
C434 C435 1.400 . S
C435 C434 1.400 . S
C435 C436 1.398 1_565 S
C435 C441 1.491 1_564 S
C436 H427 0.950 . S
C436 C435 1.398 1_545 S
C436 C437 1.391 . S
C437 H425 0.950 . S
C437 C433 1.393 1_545 S
C437 C436 1.391 . S
C438 H428 0.950 . S
C438 C439 1.386 . S
C438 C440 1.391 . S
C439 C438 1.386 . S
C439 C443 1.393 1_545 S
C440 H429 0.950 . S
C440 C438 1.391 . S
C440 C441 1.400 . S
C441 C435 1.491 1_546 S
C441 C440 1.400 . S
C441 C442 1.398 1_545 S
C442 H430 0.950 . S
C442 C441 1.398 1_565 S
C442 C443 1.391 . S
C443 H431 0.950 . S
C443 C439 1.393 1_565 S
C443 C442 1.391 . S
H444 C452 0.950 . S
H445 C457 0.950 . S
H446 C454 0.950 . S
H447 C456 0.950 . S
H448 C458 0.950 . S
H449 C460 0.950 . S
H450 C462 0.950 . S
H451 C463 0.950 . S
C452 H444 0.950 . S
C452 C453 1.386 . S
C452 C454 1.391 . S
C453 C452 1.386 . S
C453 C457 1.393 . S
C454 H446 0.950 . S
C454 C452 1.391 . S
C454 C455 1.400 . S
C455 C454 1.400 . S
C455 C456 1.398 . S
C455 C461 1.491 . S
C456 H447 0.950 . S
C456 C455 1.398 . S
C456 C457 1.391 . S
C457 H445 0.950 . S
C457 C453 1.393 . S
C457 C456 1.391 . S
C458 H448 0.950 . S
C458 C459 1.386 . S
C458 C460 1.391 . S
C459 C458 1.386 . S
C459 C463 1.393 . S
C460 H449 0.950 . S
C460 C458 1.391 . S
C460 C461 1.400 . S
C461 C455 1.491 . S
C461 C460 1.400 . S
C461 C462 1.398 . S
C462 H450 0.950 . S
C462 C461 1.398 . S
C462 C463 1.391 . S
C463 H451 0.950 . S
C463 C459 1.393 . S
C463 C462 1.391 . S
H464 C472 0.950 . S
H465 C477 0.950 . S
H466 C474 0.950 . S
H467 C476 0.950 . S
H468 C478 0.950 . S
H469 C480 0.950 . S
H470 C482 0.950 . S
H471 C483 0.950 . S
C472 H464 0.950 . S
C472 C473 1.386 . S
C472 C474 1.391 . S
C473 C472 1.386 . S
C473 C477 1.393 . S
C474 H466 0.950 . S
C474 C472 1.391 . S
C474 C475 1.400 . S
C475 C474 1.400 . S
C475 C476 1.398 . S
C475 C481 1.491 . S
C476 H467 0.950 . S
C476 C475 1.398 . S
C476 C477 1.391 . S
C477 H465 0.950 . S
C477 C473 1.393 . S
C477 C476 1.391 . S
C478 H468 0.950 . S
C478 C479 1.386 . S
C478 C480 1.391 . S
C479 C478 1.386 . S
C479 C483 1.393 . S
C480 H469 0.950 . S
C480 C478 1.391 . S
C480 C481 1.400 . S
C481 C475 1.491 . S
C481 C480 1.400 . S
C481 C482 1.398 . S
C482 H470 0.950 . S
C482 C481 1.398 . S
C482 C483 1.391 . S
C483 H471 0.950 . S
C483 C479 1.393 . S
C483 C482 1.391 . S
H484 C492 0.950 . S
H485 C497 0.950 . S
H486 C494 0.950 . S
H487 C496 0.950 . S
H488 C498 0.950 . S
H489 C500 0.950 . S
H490 C502 0.950 . S
H491 C503 0.950 . S
C492 H484 0.950 . S
C492 C493 1.386 . S
C492 C494 1.391 . S
C493 C492 1.386 . S
C493 C497 1.393 . S
C494 H486 0.950 . S
C494 C492 1.391 . S
C494 C495 1.400 . S
C495 C494 1.400 . S
C495 C496 1.398 . S
C495 C501 1.491 . S
C496 H487 0.950 . S
C496 C495 1.398 . S
C496 C497 1.391 . S
C497 H485 0.950 . S
C497 C493 1.393 . S
C497 C496 1.391 . S
C498 H488 0.950 . S
C498 C499 1.386 . S
C498 C500 1.391 . S
C499 C498 1.386 . S
C499 C503 1.393 . S
C500 H489 0.950 . S
C500 C498 1.391 . S
C500 C501 1.400 . S
C501 C495 1.491 . S
C501 C500 1.400 . S
C501 C502 1.398 . S
C502 H490 0.950 . S
C502 C501 1.398 . S
C502 C503 1.391 . S
C503 H491 0.950 . S
C503 C499 1.393 . S
C503 C502 1.391 . S
H504 C512 0.950 . S
H505 C517 0.950 . S
H506 C514 0.950 . S
H507 C516 0.950 . S
H508 C518 0.950 . S
H509 C520 0.950 . S
H510 C522 0.950 . S
H511 C523 0.950 . S
C512 H504 0.950 . S
C512 C513 1.386 . S
C512 C514 1.391 . S
C513 C512 1.386 . S
C513 C517 1.393 . S
C514 H506 0.950 . S
C514 C512 1.391 . S
C514 C515 1.400 . S
C515 C514 1.400 . S
C515 C516 1.398 . S
C515 C521 1.491 1_556 S
C516 H507 0.950 . S
C516 C515 1.398 . S
C516 C517 1.391 . S
C517 H505 0.950 . S
C517 C513 1.393 . S
C517 C516 1.391 . S
C518 H508 0.950 . S
C518 C519 1.386 . S
C518 C520 1.391 . S
C519 C518 1.386 . S
C519 C523 1.393 . S
C520 H509 0.950 . S
C520 C518 1.391 . S
C520 C521 1.400 . S
C521 C515 1.491 1_554 S
C521 C520 1.400 . S
C521 C522 1.398 . S
C522 H510 0.950 . S
C522 C521 1.398 . S
C522 C523 1.391 . S
C523 H511 0.950 . S
C523 C519 1.393 . S
C523 C522 1.391 . S
H524 C532 0.950 . S
H525 C537 0.950 . S
H526 C534 0.950 . S
H527 C536 0.950 . S
H528 C538 0.950 . S
H529 C540 0.950 . S
H530 C542 0.950 . S
H531 C543 0.950 . S
C532 H524 0.950 . S
C532 C533 1.386 1_655 S
C532 C534 1.391 . S
C533 C532 1.386 1_455 S
C533 C537 1.393 . S
C534 H526 0.950 . S
C534 C532 1.391 . S
C534 C535 1.400 1_655 S
C535 C534 1.400 1_455 S
C535 C536 1.398 . S
C535 C541 1.491 . S
C536 H527 0.950 . S
C536 C535 1.398 . S
C536 C537 1.391 . S
C537 H525 0.950 . S
C537 C533 1.393 . S
C537 C536 1.391 . S
C538 H528 0.950 . S
C538 C539 1.386 . S
C538 C540 1.391 . S
C539 C538 1.386 . S
C539 C543 1.393 1_455 S
C540 H529 0.950 . S
C540 C538 1.391 . S
C540 C541 1.400 . S
C541 C535 1.491 . S
C541 C540 1.400 . S
C541 C542 1.398 1_455 S
C542 H530 0.950 . S
C542 C541 1.398 1_655 S
C542 C543 1.391 . S
C543 H531 0.950 . S
C543 C539 1.393 1_655 S
C543 C542 1.391 . S
H544 C552 0.950 . S
H545 C557 0.950 . S
H546 C554 0.950 . S
H547 C556 0.950 . S
H548 C558 0.950 . S
H549 C560 0.950 . S
H550 C562 0.950 . S
H551 C563 0.950 1_545 S
C552 H544 0.950 . S
C552 C553 1.386 . S
C552 C554 1.391 . S
C553 C552 1.386 . S
C553 C557 1.393 . S
C554 H546 0.950 . S
C554 C552 1.391 . S
C554 C555 1.400 . S
C555 C554 1.400 . S
C555 C556 1.398 . S
C555 C561 1.491 . S
C556 H547 0.950 . S
C556 C555 1.398 . S
C556 C557 1.391 . S
C557 H545 0.950 . S
C557 C553 1.393 . S
C557 C556 1.391 . S
C558 H548 0.950 . S
C558 C559 1.386 . S
C558 C560 1.391 . S
C559 C558 1.386 . S
C559 C563 1.393 . S
C560 H549 0.950 . S
C560 C558 1.391 . S
C560 C561 1.400 . S
C561 C555 1.491 . S
C561 C560 1.400 . S
C561 C562 1.398 . S
C562 H550 0.950 . S
C562 C561 1.398 . S
C562 C563 1.391 . S
C563 H551 0.950 1_565 S
C563 C559 1.393 . S
C563 C562 1.391 . S
H564 C572 0.950 . S
H565 C577 0.950 . S
H566 C574 0.950 . S
H567 C576 0.950 . S
H568 C578 0.950 . S
H569 C580 0.950 . S
H570 C582 0.950 . S
H571 C583 0.950 1_545 S
C572 H564 0.950 . S
C572 C573 1.386 . S
C572 C574 1.391 . S
C573 C572 1.386 . S
C573 C577 1.393 . S
C574 H566 0.950 . S
C574 C572 1.391 . S
C574 C575 1.400 . S
C575 C574 1.400 . S
C575 C576 1.398 . S
C575 C581 1.491 . S
C576 H567 0.950 . S
C576 C575 1.398 . S
C576 C577 1.391 . S
C577 H565 0.950 . S
C577 C573 1.393 . S
C577 C576 1.391 . S
C578 H568 0.950 . S
C578 C579 1.386 . S
C578 C580 1.391 . S
C579 C578 1.386 . S
C579 C583 1.393 . S
C580 H569 0.950 . S
C580 C578 1.391 . S
C580 C581 1.400 . S
C581 C575 1.491 . S
C581 C580 1.400 . S
C581 C582 1.398 . S
C582 H570 0.950 . S
C582 C581 1.398 . S
C582 C583 1.391 . S
C583 H571 0.950 1_565 S
C583 C579 1.393 . S
C583 C582 1.391 . S
H584 C592 0.950 . S
H585 C597 0.950 1_565 S
H586 C594 0.950 . S
H587 C596 0.950 . S
H588 C598 0.950 . S
H589 C600 0.950 . S
H590 C602 0.950 . S
H591 C603 0.950 . S
C592 H584 0.950 . S
C592 C593 1.386 . S
C592 C594 1.391 . S
C593 C592 1.386 . S
C593 C597 1.393 . S
C594 H586 0.950 . S
C594 C592 1.391 . S
C594 C595 1.400 . S
C595 C594 1.400 . S
C595 C596 1.398 . S
C595 C601 1.491 . S
C596 H587 0.950 . S
C596 C595 1.398 . S
C596 C597 1.391 . S
C597 H585 0.950 1_545 S
C597 C593 1.393 . S
C597 C596 1.391 . S
C598 H588 0.950 . S
C598 C599 1.386 . S
C598 C600 1.391 . S
C599 C598 1.386 . S
C599 C603 1.393 . S
C600 H589 0.950 . S
C600 C598 1.391 . S
C600 C601 1.400 . S
C601 C595 1.491 . S
C601 C600 1.400 . S
C601 C602 1.398 . S
C602 H590 0.950 . S
C602 C601 1.398 . S
C602 C603 1.391 . S
C603 H591 0.950 . S
C603 C599 1.393 . S
C603 C602 1.391 . S
H604 C612 0.950 1_565 S
H605 C617 0.950 . S
H606 C614 0.950 . S
H607 C616 0.950 . S
H608 C618 0.950 . S
H609 C620 0.950 . S
H610 C622 0.950 . S
H611 C623 0.950 . S
C612 H604 0.950 1_545 S
C612 C613 1.386 . S
C612 C614 1.391 . S
C613 C612 1.386 . S
C613 C617 1.393 . S
C614 H606 0.950 . S
C614 C612 1.391 . S
C614 C615 1.400 . S
C615 C614 1.400 . S
C615 C616 1.398 . S
C615 C621 1.491 . S
C616 H607 0.950 . S
C616 C615 1.398 . S
C616 C617 1.391 . S
C617 H605 0.950 . S
C617 C613 1.393 . S
C617 C616 1.391 . S
C618 H608 0.950 . S
C618 C619 1.386 . S
C618 C620 1.391 . S
C619 C618 1.386 . S
C619 C623 1.393 . S
C620 H609 0.950 . S
C620 C618 1.391 . S
C620 C621 1.400 . S
C621 C615 1.491 . S
C621 C620 1.400 . S
C621 C622 1.398 . S
C622 H610 0.950 . S
C622 C621 1.398 . S
C622 C623 1.391 . S
C623 H611 0.950 . S
C623 C619 1.393 . S
C623 C622 1.391 . S
H624 C632 0.950 . S
H625 C637 0.950 . S
H626 C634 0.950 . S
H627 C636 0.950 . S
H628 C638 0.950 . S
H629 C640 0.950 . S
H630 C642 0.950 . S
H631 C643 0.950 . S
C632 H624 0.950 . S
C632 C633 1.386 . S
C632 C634 1.391 . S
C633 C632 1.386 . S
C633 C637 1.393 . S
C634 H626 0.950 . S
C634 C632 1.391 . S
C634 C635 1.400 . S
C635 C634 1.400 . S
C635 C636 1.398 . S
C635 C641 1.491 . S
C636 H627 0.950 . S
C636 C635 1.398 . S
C636 C637 1.391 . S
C637 H625 0.950 . S
C637 C633 1.393 . S
C637 C636 1.391 . S
C638 H628 0.950 . S
C638 C639 1.386 . S
C638 C640 1.391 . S
C639 C638 1.386 . S
C639 C643 1.393 . S
C640 H629 0.950 . S
C640 C638 1.391 . S
C640 C641 1.400 . S
C641 C635 1.491 . S
C641 C640 1.400 . S
C641 C642 1.398 . S
C642 H630 0.950 . S
C642 C641 1.398 . S
C642 C643 1.391 . S
C643 H631 0.950 . S
C643 C639 1.393 . S
C643 C642 1.391 . S
H644 C652 0.950 . S
H645 C657 0.950 . S
H646 C654 0.950 . S
H647 C656 0.950 . S
H648 C658 0.950 . S
H649 C660 0.950 . S
H650 C662 0.950 . S
H651 C663 0.950 . S
C652 H644 0.950 . S
C652 C653 1.386 . S
C652 C654 1.391 . S
C653 C652 1.386 . S
C653 C657 1.393 . S
C654 H646 0.950 . S
C654 C652 1.391 . S
C654 C655 1.400 . S
C655 C654 1.400 . S
C655 C656 1.398 . S
C655 C661 1.491 . S
C656 H647 0.950 . S
C656 C655 1.398 . S
C656 C657 1.391 . S
C657 H645 0.950 . S
C657 C653 1.393 . S
C657 C656 1.391 . S
C658 H648 0.950 . S
C658 C659 1.386 . S
C658 C660 1.391 . S
C659 C658 1.386 . S
C659 C663 1.393 . S
C660 H649 0.950 . S
C660 C658 1.391 . S
C660 C661 1.400 . S
C661 C655 1.491 . S
C661 C660 1.400 . S
C661 C662 1.398 . S
C662 H650 0.950 . S
C662 C661 1.398 . S
C662 C663 1.391 . S
C663 H651 0.950 . S
C663 C659 1.393 . S
C663 C662 1.391 . S
H664 C672 0.950 . S
H665 C677 0.950 . S
H666 C674 0.950 . S
H667 C676 0.950 . S
H668 C678 0.973 . S
H669 C680 0.950 . S
H670 C682 0.950 . S
H671 C683 0.950 . S
C672 H664 0.950 . S
C672 C673 1.386 . S
C672 C674 1.391 . S
C673 C672 1.386 . S
C673 C677 1.393 . S
C674 H666 0.950 . S
C674 C672 1.391 . S
C674 C675 1.400 . S
C675 C674 1.400 . S
C675 C676 1.398 . S
C675 C681 1.491 . S
C676 H667 0.950 . S
C676 C675 1.398 . S
C676 C677 1.391 . S
C677 H665 0.950 . S
C677 C673 1.393 . S
C677 C676 1.391 . S
C678 H668 0.973 . S
C678 C679 1.386 . S
C678 C680 1.391 . S
C679 C678 1.386 . S
C679 C683 1.393 . S
C680 H669 0.950 . S
C680 C678 1.391 . S
C680 C681 1.400 . S
C681 C675 1.491 . S
C681 C680 1.400 . S
C681 C682 1.398 . S
C682 H670 0.950 . S
C682 C681 1.398 . S
C682 C683 1.391 . S
C683 H671 0.950 . S
C683 C679 1.393 . S
C683 C682 1.391 . S
H684 C692 0.950 . S
H685 C697 0.950 . S
H686 C694 0.950 . S
H687 C696 0.950 . S
H688 C698 0.950 . S
H689 C700 0.950 . S
H690 C702 0.950 . S
H691 C703 0.962 . S
C692 H684 0.950 . S
C692 C693 1.386 . S
C692 C694 1.391 . S
C693 C692 1.386 . S
C693 C697 1.393 . S
C694 H686 0.950 . S
C694 C692 1.391 . S
C694 C695 1.400 . S
C695 C694 1.400 . S
C695 C696 1.398 . S
C695 C701 1.491 . S
C696 H687 0.950 . S
C696 C695 1.398 . S
C696 C697 1.391 . S
C697 H685 0.950 . S
C697 C693 1.393 . S
C697 C696 1.391 . S
C698 H688 0.950 . S
C698 C699 1.386 . S
C698 C700 1.391 . S
C699 C698 1.386 . S
C699 C703 1.393 . S
C700 H689 0.950 . S
C700 C698 1.391 . S
C700 C701 1.400 . S
C701 C695 1.491 . S
C701 C700 1.400 . S
C701 C702 1.398 . S
C702 H690 0.950 . S
C702 C701 1.398 . S
C702 C703 1.391 . S
C703 H691 0.962 . S
C703 C699 1.393 . S
C703 C702 1.391 . S
H704 C712 0.950 . S
H705 C717 0.950 . S
H706 C714 0.950 . S
H707 C716 0.950 . S
H708 C718 0.950 . S
H709 C720 0.950 . S
H710 C722 0.950 . S
H711 C723 0.950 . S
C712 H704 0.950 . S
C712 C713 1.386 . S
C712 C714 1.391 . S
C713 C712 1.386 . S
C713 C717 1.393 . S
C714 H706 0.950 . S
C714 C712 1.391 . S
C714 C715 1.400 . S
C715 C714 1.400 . S
C715 C716 1.398 . S
C715 C721 1.491 . S
C716 H707 0.950 . S
C716 C715 1.398 . S
C716 C717 1.391 . S
C717 H705 0.950 . S
C717 C713 1.393 . S
C717 C716 1.391 . S
C718 H708 0.950 . S
C718 C719 1.386 . S
C718 C720 1.391 . S
C719 C718 1.386 . S
C719 C723 1.393 . S
C720 H709 0.950 . S
C720 C718 1.391 . S
C720 C721 1.400 . S
C721 C715 1.491 . S
C721 C720 1.400 . S
C721 C722 1.398 . S
C722 H710 0.950 . S
C722 C721 1.398 . S
C722 C723 1.391 . S
C723 H711 0.950 . S
C723 C719 1.393 . S
C723 C722 1.391 . S
H724 C732 0.950 . S
H725 C737 0.950 . S
H726 C734 0.950 . S
H727 C736 0.950 . S
H728 C738 0.950 . S
H729 C740 0.950 . S
H730 C742 0.950 . S
H731 C743 0.950 . S
C732 H724 0.950 . S
C732 C733 1.386 . S
C732 C734 1.391 . S
C733 C732 1.386 . S
C733 C737 1.393 . S
C734 H726 0.950 . S
C734 C732 1.391 . S
C734 C735 1.400 . S
C735 C734 1.400 . S
C735 C736 1.398 . S
C735 C741 1.491 . S
C736 H727 0.950 . S
C736 C735 1.398 . S
C736 C737 1.391 . S
C737 H725 0.950 . S
C737 C733 1.393 . S
C737 C736 1.391 . S
C738 H728 0.950 . S
C738 C739 1.386 . S
C738 C740 1.391 . S
C739 C738 1.386 . S
C739 C743 1.393 . S
C740 H729 0.950 . S
C740 C738 1.391 . S
C740 C741 1.400 . S
C741 C735 1.491 . S
C741 C740 1.400 . S
C741 C742 1.398 . S
C742 H730 0.950 . S
C742 C741 1.398 . S
C742 C743 1.391 . S
C743 H731 0.950 . S
C743 C739 1.393 . S
C743 C742 1.391 . S
H744 C752 0.950 . S
H745 C757 0.950 . S
H746 C754 0.950 . S
H747 C756 0.950 . S
H748 C758 0.950 . S
H749 C760 0.950 . S
H750 C762 0.950 . S
H751 C763 0.950 . S
C752 H744 0.950 . S
C752 C753 1.386 . S
C752 C754 1.391 . S
C753 C752 1.386 . S
C753 C757 1.393 . S
C754 H746 0.950 . S
C754 C752 1.391 . S
C754 C755 1.400 . S
C755 C754 1.400 . S
C755 C756 1.398 . S
C755 C761 1.491 . S
C756 H747 0.950 . S
C756 C755 1.398 . S
C756 C757 1.391 . S
C757 H745 0.950 . S
C757 C753 1.393 . S
C757 C756 1.391 . S
C758 H748 0.950 . S
C758 C759 1.386 . S
C758 C760 1.391 . S
C759 C758 1.386 . S
C759 C763 1.393 . S
C760 H749 0.950 . S
C760 C758 1.391 . S
C760 C761 1.400 . S
C761 C755 1.491 . S
C761 C760 1.400 . S
C761 C762 1.398 . S
C762 H750 0.950 . S
C762 C761 1.398 . S
C762 C763 1.391 . S
C763 H751 0.950 . S
C763 C759 1.393 . S
C763 C762 1.391 . S
H764 C772 0.950 . S
H765 C777 0.950 . S
H766 C774 0.950 . S
H767 C776 0.950 . S
H768 C778 0.950 . S
H769 C780 0.950 . S
H770 C782 0.950 . S
H771 C783 0.950 . S
C772 H764 0.950 . S
C772 C773 1.386 . S
C772 C774 1.391 . S
C773 C772 1.386 . S
C773 C777 1.393 . S
C774 H766 0.950 . S
C774 C772 1.391 . S
C774 C775 1.400 . S
C775 C774 1.400 . S
C775 C776 1.398 . S
C775 C781 1.491 . S
C776 H767 0.950 . S
C776 C775 1.398 . S
C776 C777 1.391 . S
C777 H765 0.950 . S
C777 C773 1.393 . S
C777 C776 1.391 . S
C778 H768 0.950 . S
C778 C779 1.386 . S
C778 C780 1.391 . S
C779 C778 1.386 . S
C779 C783 1.393 . S
C780 H769 0.950 . S
C780 C778 1.391 . S
C780 C781 1.400 . S
C781 C775 1.491 . S
C781 C780 1.400 . S
C781 C782 1.398 . S
C782 H770 0.950 . S
C782 C781 1.398 . S
C782 C783 1.391 . S
C783 H771 0.950 . S
C783 C779 1.393 . S
C783 C782 1.391 . S
H784 C792 0.950 . S
H785 C797 0.950 . S
H786 C794 0.950 . S
H787 C796 0.950 . S
H788 C798 0.950 . S
H789 C800 0.950 . S
H790 C802 0.950 . S
H791 C803 0.950 . S
C792 H784 0.950 . S
C792 C793 1.386 . S
C792 C794 1.391 . S
C793 C792 1.386 . S
C793 C797 1.393 . S
C794 H786 0.950 . S
C794 C792 1.391 . S
C794 C795 1.400 . S
C795 C794 1.400 . S
C795 C796 1.398 . S
C795 C801 1.491 . S
C796 H787 0.950 . S
C796 C795 1.398 . S
C796 C797 1.391 . S
C797 H785 0.950 . S
C797 C793 1.393 . S
C797 C796 1.391 . S
C798 H788 0.950 . S
C798 C799 1.386 . S
C798 C800 1.391 . S
C799 C798 1.386 . S
C799 C803 1.393 . S
C800 H789 0.950 . S
C800 C798 1.391 . S
C800 C801 1.400 . S
C801 C795 1.491 . S
C801 C800 1.400 . S
C801 C802 1.398 . S
C802 H790 0.950 . S
C802 C801 1.398 . S
C802 C803 1.391 . S
C803 H791 0.950 . S
C803 C799 1.393 . S
C803 C802 1.391 . S
H804 C812 0.950 . S
H805 C817 0.950 . S
H806 C814 0.950 . S
H807 C816 0.950 . S
H808 C818 0.950 . S
H809 C820 0.950 . S
H810 C822 0.950 . S
H811 C823 0.950 . S
C812 H804 0.950 . S
C812 C813 1.386 . S
C812 C814 1.391 . S
C813 C812 1.386 . S
C813 C817 1.393 . S
C814 H806 0.950 . S
C814 C812 1.391 . S
C814 C815 1.400 . S
C815 C814 1.400 . S
C815 C816 1.398 . S
C815 C821 1.491 . S
C816 H807 0.950 . S
C816 C815 1.398 . S
C816 C817 1.391 . S
C817 H805 0.950 . S
C817 C813 1.393 . S
C817 C816 1.391 . S
C818 H808 0.950 . S
C818 C819 1.386 . S
C818 C820 1.391 . S
C819 C818 1.386 . S
C819 C823 1.393 . S
C820 H809 0.950 . S
C820 C818 1.391 . S
C820 C821 1.400 . S
C821 C815 1.491 . S
C821 C820 1.400 . S
C821 C822 1.398 . S
C822 H810 0.950 . S
C822 C821 1.398 . S
C822 C823 1.391 . S
C823 H811 0.950 . S
C823 C819 1.393 . S
C823 C822 1.391 . S
H824 C832 0.950 . S
H825 C837 0.950 . S
H826 C834 0.950 . S
H827 C836 0.950 . S
H828 C838 0.950 . S
H829 C840 0.950 . S
H830 C842 0.950 . S
H831 C843 0.950 . S
C832 H824 0.950 . S
C832 C833 1.386 . S
C832 C834 1.391 . S
C833 C832 1.386 . S
C833 C837 1.393 . S
C834 H826 0.950 . S
C834 C832 1.391 . S
C834 C835 1.400 . S
C835 C834 1.400 . S
C835 C836 1.398 . S
C835 C841 1.491 . S
C836 H827 0.950 . S
C836 C835 1.398 . S
C836 C837 1.391 . S
C837 H825 0.950 . S
C837 C833 1.393 . S
C837 C836 1.391 . S
C838 H828 0.950 . S
C838 C839 1.386 . S
C838 C840 1.391 . S
C839 C838 1.386 . S
C839 C843 1.393 . S
C840 H829 0.950 . S
C840 C838 1.391 . S
C840 C841 1.400 . S
C841 C835 1.491 . S
C841 C840 1.400 . S
C841 C842 1.398 . S
C842 H830 0.950 . S
C842 C841 1.398 . S
C842 C843 1.391 . S
C843 H831 0.950 . S
C843 C839 1.393 . S
C843 C842 1.391 . S
H844 C852 0.950 . S
H845 C857 0.950 . S
H846 C854 0.950 . S
H847 C856 0.950 . S
H848 C858 0.950 . S
H849 C860 0.950 . S
H850 C862 0.950 . S
H851 C863 0.950 . S
C852 H844 0.950 . S
C852 C853 1.386 . S
C852 C854 1.391 . S
C853 C852 1.386 . S
C853 C857 1.393 . S
C854 H846 0.950 . S
C854 C852 1.391 . S
C854 C855 1.400 . S
C855 C854 1.400 . S
C855 C856 1.398 . S
C855 C861 1.491 . S
C856 H847 0.950 . S
C856 C855 1.398 . S
C856 C857 1.391 . S
C857 H845 0.950 . S
C857 C853 1.393 . S
C857 C856 1.391 . S
C858 H848 0.950 . S
C858 C859 1.386 . S
C858 C860 1.391 . S
C859 C858 1.386 . S
C859 C863 1.393 . S
C860 H849 0.950 . S
C860 C858 1.391 . S
C860 C861 1.400 . S
C861 C855 1.491 . S
C861 C860 1.400 . S
C861 C862 1.398 . S
C862 H850 0.950 . S
C862 C861 1.398 . S
C862 C863 1.391 . S
C863 H851 0.950 . S
C863 C859 1.393 . S
C863 C862 1.391 . S
C233 C8 1.302 . S
C239 C190 1.302 . S
C253 C162 1.286 . S
C259 C22 1.286 . S
C273 C176 1.295 . S
C279 C36 1.296 . S
C293 C148 1.288 . S
C299 C50 1.288 . S
C313 C64 1.291 . S
C319 C218 1.291 . S
C333 C78 1.302 . S
C339 C134 1.302 . S
C353 C204 1.291 . S
C359 C92 1.291 . S
C373 C106 1.285 . S
C379 C120 1.285 . S
C393 C63 1.593 . S
C399 C7 1.596 1_655 S
C413 C21 1.576 . S
C419 C77 1.579 . S
C433 C35 1.577 . S
C439 C91 1.583 . S
C453 C105 1.590 . S
C459 C49 1.597 . S
C473 C119 1.577 . S
C479 C147 1.577 . S
C493 C133 1.579 . S
C499 C161 1.586 . S
C513 C203 1.579 . S
C519 C175 1.576 . S
C533 C189 1.583 . S
C539 C217 1.577 . S
C553 C73 1.442 . S
C559 C3 1.434 1_565 S
C573 C17 1.442 . S
C579 C87 1.433 1_565 S
C593 C31 1.430 1_545 S
C599 C101 1.430 . S
C613 C59 1.431 1_545 S
C619 C45 1.442 . S
C633 C65 1.204 . S
C639 C149 1.217 . S
C653 C37 1.210 . S
C659 C121 1.200 . S
C673 C163 1.212 . S
C679 C93 1.199 . S
C693 C135 1.204 . S
C699 C9 1.217 . S
C713 C115 1.435 . S
C719 C171 1.427 . S
C733 C143 1.438 . S
C739 C213 1.427 . S
C753 C185 1.435 . S
C759 C129 1.427 . S
C773 C157 1.431 . S
C779 C199 1.442 . S
C793 C205 1.207 . S
C799 C23 1.203 . S
C813 C191 1.211 . S
C819 C79 1.199 . S
C833 C219 1.219 . S
C839 C51 1.200 . S
C853 C177 1.204 . S
C859 C107 1.217 . S
