# Generated by pormake.
# Topology ulg, (4)-cn, num edge types: 1
# Building blocks:
#     Node 0, Type 0, BuildingBlock: GALJAG_clean_sbu_0, # of connection points: 4
#     Node 1, Type 0, BuildingBlock: GALJAG_clean_sbu_0, # of connection points: 4
#     Node 2, Type 0, BuildingBlock: GALJAG_clean_sbu_0, # of connection points: 4
#     Node 3, Type 0, BuildingBlock: GALJAG_clean_sbu_0, # of connection points: 4
#     Node 4, Type 0, BuildingBlock: GALJAG_clean_sbu_0, # of connection points: 4
#     Node 5, Type 0, BuildingBlock: GALJAG_clean_sbu_0, # of connection points: 4
#     Node 6, Type 0, BuildingBlock: GALJAG_clean_sbu_0, # of connection points: 4
#     Node 7, Type 0, BuildingBlock: GALJAG_clean_sbu_0, # of connection points: 4
#     Node 8, Type 0, BuildingBlock: GALJAG_clean_sbu_0, # of connection points: 4
#     Node 9, Type 0, BuildingBlock: GALJAG_clean_sbu_0, # of connection points: 4
#     Node 10, Type 0, BuildingBlock: GALJAG_clean_sbu_0, # of connection points: 4
#     Node 11, Type 0, BuildingBlock: GALJAG_clean_sbu_0, # of connection points: 4
#     Node 12, Type 0, BuildingBlock: GALJAG_clean_sbu_0, # of connection points: 4
#     Node 13, Type 0, BuildingBlock: GALJAG_clean_sbu_0, # of connection points: 4
#     Node 14, Type 0, BuildingBlock: GALJAG_clean_sbu_0, # of connection points: 4
#     Node 15, Type 0, BuildingBlock: GALJAG_clean_sbu_0, # of connection points: 4
#     Node 16, Type 0, BuildingBlock: GALJAG_clean_sbu_0, # of connection points: 4
#     Node 17, Type 0, BuildingBlock: GALJAG_clean_sbu_0, # of connection points: 4
#     Node 18, Type 0, BuildingBlock: GALJAG_clean_sbu_0, # of connection points: 4
#     Node 19, Type 0, BuildingBlock: GALJAG_clean_sbu_0, # of connection points: 4
#     Node 20, Type 0, BuildingBlock: GALJAG_clean_sbu_0, # of connection points: 4
#     Node 21, Type 0, BuildingBlock: GALJAG_clean_sbu_0, # of connection points: 4
#     Node 22, Type 0, BuildingBlock: GALJAG_clean_sbu_0, # of connection points: 4
#     Node 23, Type 0, BuildingBlock: GALJAG_clean_sbu_0, # of connection points: 4
#     Node 24, Type 0, BuildingBlock: GALJAG_clean_sbu_0, # of connection points: 4
#     Node 25, Type 0, BuildingBlock: GALJAG_clean_sbu_0, # of connection points: 4
#     Node 26, Type 0, BuildingBlock: GALJAG_clean_sbu_0, # of connection points: 4
#     Node 27, Type 0, BuildingBlock: GALJAG_clean_sbu_0, # of connection points: 4
#     Node 28, Type 0, BuildingBlock: GALJAG_clean_sbu_0, # of connection points: 4
#     Node 29, Type 0, BuildingBlock: GALJAG_clean_sbu_0, # of connection points: 4
#     Node 30, Type 0, BuildingBlock: GALJAG_clean_sbu_0, # of connection points: 4
#     Node 31, Type 0, BuildingBlock: GALJAG_clean_sbu_0, # of connection points: 4
#     Node 32, Type 0, BuildingBlock: GALJAG_clean_sbu_0, # of connection points: 4
#     Node 33, Type 0, BuildingBlock: GALJAG_clean_sbu_0, # of connection points: 4
#     Node 34, Type 0, BuildingBlock: GALJAG_clean_sbu_0, # of connection points: 4
#     Node 35, Type 0, BuildingBlock: GALJAG_clean_sbu_0, # of connection points: 4
#     Node 36, Type 0, BuildingBlock: GALJAG_clean_sbu_0, # of connection points: 4
#     Node 37, Type 0, BuildingBlock: GALJAG_clean_sbu_0, # of connection points: 4
#     Node 38, Type 0, BuildingBlock: GALJAG_clean_sbu_0, # of connection points: 4
#     Node 39, Type 0, BuildingBlock: GALJAG_clean_sbu_0, # of connection points: 4
#     Node 40, Type 0, BuildingBlock: GALJAG_clean_sbu_0, # of connection points: 4
#     Node 41, Type 0, BuildingBlock: GALJAG_clean_sbu_0, # of connection points: 4
#     Node 42, Type 0, BuildingBlock: GALJAG_clean_sbu_0, # of connection points: 4
#     Node 43, Type 0, BuildingBlock: GALJAG_clean_sbu_0, # of connection points: 4
#     Node 44, Type 0, BuildingBlock: GALJAG_clean_sbu_0, # of connection points: 4
#     Node 45, Type 0, BuildingBlock: GALJAG_clean_sbu_0, # of connection points: 4
#     Node 46, Type 0, BuildingBlock: GALJAG_clean_sbu_0, # of connection points: 4
#     Node 47, Type 0, BuildingBlock: GALJAG_clean_sbu_0, # of connection points: 4
#     Node 48, Type 0, BuildingBlock: GALJAG_clean_sbu_0, # of connection points: 4
#     Node 49, Type 0, BuildingBlock: GALJAG_clean_sbu_0, # of connection points: 4
#     Node 50, Type 0, BuildingBlock: GALJAG_clean_sbu_0, # of connection points: 4
#     Node 51, Type 0, BuildingBlock: GALJAG_clean_sbu_0, # of connection points: 4
#     Node 52, Type 0, BuildingBlock: GALJAG_clean_sbu_0, # of connection points: 4
#     Node 53, Type 0, BuildingBlock: GALJAG_clean_sbu_0, # of connection points: 4
#     Node 54, Type 0, BuildingBlock: GALJAG_clean_sbu_0, # of connection points: 4
#     Node 55, Type 0, BuildingBlock: GALJAG_clean_sbu_0, # of connection points: 4
#     Node 56, Type 0, BuildingBlock: GALJAG_clean_sbu_0, # of connection points: 4
#     Node 57, Type 0, BuildingBlock: GALJAG_clean_sbu_0, # of connection points: 4
#     Node 58, Type 0, BuildingBlock: GALJAG_clean_sbu_0, # of connection points: 4
#     Node 59, Type 0, BuildingBlock: GALJAG_clean_sbu_0, # of connection points: 4
#     Node 60, Type 0, BuildingBlock: GALJAG_clean_sbu_0, # of connection points: 4
#     Node 61, Type 0, BuildingBlock: GALJAG_clean_sbu_0, # of connection points: 4
#     Node 62, Type 0, BuildingBlock: GALJAG_clean_sbu_0, # of connection points: 4
#     Node 63, Type 0, BuildingBlock: GALJAG_clean_sbu_0, # of connection points: 4
#     Node 64, Type 0, BuildingBlock: GALJAG_clean_sbu_0, # of connection points: 4
#     Node 65, Type 0, BuildingBlock: GALJAG_clean_sbu_0, # of connection points: 4
#     Node 66, Type 0, BuildingBlock: GALJAG_clean_sbu_0, # of connection points: 4
#     Node 67, Type 0, BuildingBlock: GALJAG_clean_sbu_0, # of connection points: 4
#     Node 68, Type 0, BuildingBlock: GALJAG_clean_sbu_0, # of connection points: 4
#     Node 69, Type 0, BuildingBlock: GALJAG_clean_sbu_0, # of connection points: 4
#     Node 70, Type 0, BuildingBlock: GALJAG_clean_sbu_0, # of connection points: 4
#     Node 71, Type 0, BuildingBlock: GALJAG_clean_sbu_0, # of connection points: 4
#     Node 72, Type 0, BuildingBlock: GALJAG_clean_sbu_0, # of connection points: 4
#     Node 73, Type 0, BuildingBlock: GALJAG_clean_sbu_0, # of connection points: 4
#     Node 74, Type 0, BuildingBlock: GALJAG_clean_sbu_0, # of connection points: 4
#     Node 75, Type 0, BuildingBlock: GALJAG_clean_sbu_0, # of connection points: 4
#     Node 76, Type 0, BuildingBlock: GALJAG_clean_sbu_0, # of connection points: 4
#     Node 77, Type 0, BuildingBlock: GALJAG_clean_sbu_0, # of connection points: 4
#     Node 78, Type 0, BuildingBlock: GALJAG_clean_sbu_0, # of connection points: 4
#     Node 79, Type 0, BuildingBlock: GALJAG_clean_sbu_0, # of connection points: 4
#     Node 80, Type 0, BuildingBlock: GALJAG_clean_sbu_0, # of connection points: 4
#     Node 81, Type 0, BuildingBlock: GALJAG_clean_sbu_0, # of connection points: 4
#     Node 82, Type 0, BuildingBlock: GALJAG_clean_sbu_0, # of connection points: 4
#     Node 83, Type 0, BuildingBlock: GALJAG_clean_sbu_0, # of connection points: 4
#     Node 84, Type 0, BuildingBlock: GALJAG_clean_sbu_0, # of connection points: 4
#     Node 85, Type 0, BuildingBlock: GALJAG_clean_sbu_0, # of connection points: 4
#     Node 86, Type 0, BuildingBlock: GALJAG_clean_sbu_0, # of connection points: 4
#     Node 87, Type 0, BuildingBlock: GALJAG_clean_sbu_0, # of connection points: 4
#     Node 88, Type 0, BuildingBlock: GALJAG_clean_sbu_0, # of connection points: 4
#     Node 89, Type 0, BuildingBlock: GALJAG_clean_sbu_0, # of connection points: 4
#     Node 90, Type 0, BuildingBlock: GALJAG_clean_sbu_0, # of connection points: 4
#     Node 91, Type 0, BuildingBlock: GALJAG_clean_sbu_0, # of connection points: 4
#     Node 92, Type 0, BuildingBlock: GALJAG_clean_sbu_0, # of connection points: 4
#     Node 93, Type 0, BuildingBlock: GALJAG_clean_sbu_0, # of connection points: 4
#     Node 94, Type 0, BuildingBlock: GALJAG_clean_sbu_0, # of connection points: 4
#     Node 95, Type 0, BuildingBlock: GALJAG_clean_sbu_0, # of connection points: 4
#     Edge 96, Type (0, 0), BuildingBlock: AJUNOK_clean_linker_0, # of connection points: 2
#     Edge 97, Type (0, 0), BuildingBlock: AJUNOK_clean_linker_0, # of connection points: 2
#     Edge 98, Type (0, 0), BuildingBlock: AJUNOK_clean_linker_0, # of connection points: 2
#     Edge 99, Type (0, 0), BuildingBlock: AJUNOK_clean_linker_0, # of connection points: 2
#     Edge 100, Type (0, 0), BuildingBlock: AJUNOK_clean_linker_0, # of connection points: 2
#     Edge 101, Type (0, 0), BuildingBlock: AJUNOK_clean_linker_0, # of connection points: 2
#     Edge 102, Type (0, 0), BuildingBlock: AJUNOK_clean_linker_0, # of connection points: 2
#     Edge 103, Type (0, 0), BuildingBlock: AJUNOK_clean_linker_0, # of connection points: 2
#     Edge 104, Type (0, 0), BuildingBlock: AJUNOK_clean_linker_0, # of connection points: 2
#     Edge 105, Type (0, 0), BuildingBlock: AJUNOK_clean_linker_0, # of connection points: 2
#     Edge 106, Type (0, 0), BuildingBlock: AJUNOK_clean_linker_0, # of connection points: 2
#     Edge 107, Type (0, 0), BuildingBlock: AJUNOK_clean_linker_0, # of connection points: 2
#     Edge 108, Type (0, 0), BuildingBlock: AJUNOK_clean_linker_0, # of connection points: 2
#     Edge 109, Type (0, 0), BuildingBlock: AJUNOK_clean_linker_0, # of connection points: 2
#     Edge 110, Type (0, 0), BuildingBlock: AJUNOK_clean_linker_0, # of connection points: 2
#     Edge 111, Type (0, 0), BuildingBlock: AJUNOK_clean_linker_0, # of connection points: 2
#     Edge 112, Type (0, 0), BuildingBlock: AJUNOK_clean_linker_0, # of connection points: 2
#     Edge 113, Type (0, 0), BuildingBlock: AJUNOK_clean_linker_0, # of connection points: 2
#     Edge 114, Type (0, 0), BuildingBlock: AJUNOK_clean_linker_0, # of connection points: 2
#     Edge 115, Type (0, 0), BuildingBlock: AJUNOK_clean_linker_0, # of connection points: 2
#     Edge 116, Type (0, 0), BuildingBlock: AJUNOK_clean_linker_0, # of connection points: 2
#     Edge 117, Type (0, 0), BuildingBlock: AJUNOK_clean_linker_0, # of connection points: 2
#     Edge 118, Type (0, 0), BuildingBlock: AJUNOK_clean_linker_0, # of connection points: 2
#     Edge 119, Type (0, 0), BuildingBlock: AJUNOK_clean_linker_0, # of connection points: 2
#     Edge 120, Type (0, 0), BuildingBlock: AJUNOK_clean_linker_0, # of connection points: 2
#     Edge 121, Type (0, 0), BuildingBlock: AJUNOK_clean_linker_0, # of connection points: 2
#     Edge 122, Type (0, 0), BuildingBlock: AJUNOK_clean_linker_0, # of connection points: 2
#     Edge 123, Type (0, 0), BuildingBlock: AJUNOK_clean_linker_0, # of connection points: 2
#     Edge 124, Type (0, 0), BuildingBlock: AJUNOK_clean_linker_0, # of connection points: 2
#     Edge 125, Type (0, 0), BuildingBlock: AJUNOK_clean_linker_0, # of connection points: 2
#     Edge 126, Type (0, 0), BuildingBlock: AJUNOK_clean_linker_0, # of connection points: 2
#     Edge 127, Type (0, 0), BuildingBlock: AJUNOK_clean_linker_0, # of connection points: 2
#     Edge 128, Type (0, 0), BuildingBlock: AJUNOK_clean_linker_0, # of connection points: 2
#     Edge 129, Type (0, 0), BuildingBlock: AJUNOK_clean_linker_0, # of connection points: 2
#     Edge 130, Type (0, 0), BuildingBlock: AJUNOK_clean_linker_0, # of connection points: 2
#     Edge 131, Type (0, 0), BuildingBlock: AJUNOK_clean_linker_0, # of connection points: 2
#     Edge 132, Type (0, 0), BuildingBlock: AJUNOK_clean_linker_0, # of connection points: 2
#     Edge 133, Type (0, 0), BuildingBlock: AJUNOK_clean_linker_0, # of connection points: 2
#     Edge 134, Type (0, 0), BuildingBlock: AJUNOK_clean_linker_0, # of connection points: 2
#     Edge 135, Type (0, 0), BuildingBlock: AJUNOK_clean_linker_0, # of connection points: 2
#     Edge 136, Type (0, 0), BuildingBlock: AJUNOK_clean_linker_0, # of connection points: 2
#     Edge 137, Type (0, 0), BuildingBlock: AJUNOK_clean_linker_0, # of connection points: 2
#     Edge 138, Type (0, 0), BuildingBlock: AJUNOK_clean_linker_0, # of connection points: 2
#     Edge 139, Type (0, 0), BuildingBlock: AJUNOK_clean_linker_0, # of connection points: 2
#     Edge 140, Type (0, 0), BuildingBlock: AJUNOK_clean_linker_0, # of connection points: 2
#     Edge 141, Type (0, 0), BuildingBlock: AJUNOK_clean_linker_0, # of connection points: 2
#     Edge 142, Type (0, 0), BuildingBlock: AJUNOK_clean_linker_0, # of connection points: 2
#     Edge 143, Type (0, 0), BuildingBlock: AJUNOK_clean_linker_0, # of connection points: 2
#     Edge 144, Type (0, 0), BuildingBlock: AJUNOK_clean_linker_0, # of connection points: 2
#     Edge 145, Type (0, 0), BuildingBlock: AJUNOK_clean_linker_0, # of connection points: 2
#     Edge 146, Type (0, 0), BuildingBlock: AJUNOK_clean_linker_0, # of connection points: 2
#     Edge 147, Type (0, 0), BuildingBlock: AJUNOK_clean_linker_0, # of connection points: 2
#     Edge 148, Type (0, 0), BuildingBlock: AJUNOK_clean_linker_0, # of connection points: 2
#     Edge 149, Type (0, 0), BuildingBlock: AJUNOK_clean_linker_0, # of connection points: 2
#     Edge 150, Type (0, 0), BuildingBlock: AJUNOK_clean_linker_0, # of connection points: 2
#     Edge 151, Type (0, 0), BuildingBlock: AJUNOK_clean_linker_0, # of connection points: 2
#     Edge 152, Type (0, 0), BuildingBlock: AJUNOK_clean_linker_0, # of connection points: 2
#     Edge 153, Type (0, 0), BuildingBlock: AJUNOK_clean_linker_0, # of connection points: 2
#     Edge 154, Type (0, 0), BuildingBlock: AJUNOK_clean_linker_0, # of connection points: 2
#     Edge 155, Type (0, 0), BuildingBlock: AJUNOK_clean_linker_0, # of connection points: 2
#     Edge 156, Type (0, 0), BuildingBlock: AJUNOK_clean_linker_0, # of connection points: 2
#     Edge 157, Type (0, 0), BuildingBlock: AJUNOK_clean_linker_0, # of connection points: 2
#     Edge 158, Type (0, 0), BuildingBlock: AJUNOK_clean_linker_0, # of connection points: 2
#     Edge 159, Type (0, 0), BuildingBlock: AJUNOK_clean_linker_0, # of connection points: 2
#     Edge 160, Type (0, 0), BuildingBlock: AJUNOK_clean_linker_0, # of connection points: 2
#     Edge 161, Type (0, 0), BuildingBlock: AJUNOK_clean_linker_0, # of connection points: 2
#     Edge 162, Type (0, 0), BuildingBlock: AJUNOK_clean_linker_0, # of connection points: 2
#     Edge 163, Type (0, 0), BuildingBlock: AJUNOK_clean_linker_0, # of connection points: 2
#     Edge 164, Type (0, 0), BuildingBlock: AJUNOK_clean_linker_0, # of connection points: 2
#     Edge 165, Type (0, 0), BuildingBlock: AJUNOK_clean_linker_0, # of connection points: 2
#     Edge 166, Type (0, 0), BuildingBlock: AJUNOK_clean_linker_0, # of connection points: 2
#     Edge 167, Type (0, 0), BuildingBlock: AJUNOK_clean_linker_0, # of connection points: 2
#     Edge 168, Type (0, 0), BuildingBlock: AJUNOK_clean_linker_0, # of connection points: 2
#     Edge 169, Type (0, 0), BuildingBlock: AJUNOK_clean_linker_0, # of connection points: 2
#     Edge 170, Type (0, 0), BuildingBlock: AJUNOK_clean_linker_0, # of connection points: 2
#     Edge 171, Type (0, 0), BuildingBlock: AJUNOK_clean_linker_0, # of connection points: 2
#     Edge 172, Type (0, 0), BuildingBlock: AJUNOK_clean_linker_0, # of connection points: 2
#     Edge 173, Type (0, 0), BuildingBlock: AJUNOK_clean_linker_0, # of connection points: 2
#     Edge 174, Type (0, 0), BuildingBlock: AJUNOK_clean_linker_0, # of connection points: 2
#     Edge 175, Type (0, 0), BuildingBlock: AJUNOK_clean_linker_0, # of connection points: 2
#     Edge 176, Type (0, 0), BuildingBlock: AJUNOK_clean_linker_0, # of connection points: 2
#     Edge 177, Type (0, 0), BuildingBlock: AJUNOK_clean_linker_0, # of connection points: 2
#     Edge 178, Type (0, 0), BuildingBlock: AJUNOK_clean_linker_0, # of connection points: 2
#     Edge 179, Type (0, 0), BuildingBlock: AJUNOK_clean_linker_0, # of connection points: 2
#     Edge 180, Type (0, 0), BuildingBlock: AJUNOK_clean_linker_0, # of connection points: 2
#     Edge 181, Type (0, 0), BuildingBlock: AJUNOK_clean_linker_0, # of connection points: 2
#     Edge 182, Type (0, 0), BuildingBlock: AJUNOK_clean_linker_0, # of connection points: 2
#     Edge 183, Type (0, 0), BuildingBlock: AJUNOK_clean_linker_0, # of connection points: 2
#     Edge 184, Type (0, 0), BuildingBlock: AJUNOK_clean_linker_0, # of connection points: 2
#     Edge 185, Type (0, 0), BuildingBlock: AJUNOK_clean_linker_0, # of connection points: 2
#     Edge 186, Type (0, 0), BuildingBlock: AJUNOK_clean_linker_0, # of connection points: 2
#     Edge 187, Type (0, 0), BuildingBlock: AJUNOK_clean_linker_0, # of connection points: 2
#     Edge 188, Type (0, 0), BuildingBlock: AJUNOK_clean_linker_0, # of connection points: 2
#     Edge 189, Type (0, 0), BuildingBlock: AJUNOK_clean_linker_0, # of connection points: 2
#     Edge 190, Type (0, 0), BuildingBlock: AJUNOK_clean_linker_0, # of connection points: 2
#     Edge 191, Type (0, 0), BuildingBlock: AJUNOK_clean_linker_0, # of connection points: 2
#     Edge 192, Type (0, 0), BuildingBlock: AJUNOK_clean_linker_0, # of connection points: 2
#     Edge 193, Type (0, 0), BuildingBlock: AJUNOK_clean_linker_0, # of connection points: 2
#     Edge 194, Type (0, 0), BuildingBlock: AJUNOK_clean_linker_0, # of connection points: 2
#     Edge 195, Type (0, 0), BuildingBlock: AJUNOK_clean_linker_0, # of connection points: 2
#     Edge 196, Type (0, 0), BuildingBlock: AJUNOK_clean_linker_0, # of connection points: 2
#     Edge 197, Type (0, 0), BuildingBlock: AJUNOK_clean_linker_0, # of connection points: 2
#     Edge 198, Type (0, 0), BuildingBlock: AJUNOK_clean_linker_0, # of connection points: 2
#     Edge 199, Type (0, 0), BuildingBlock: AJUNOK_clean_linker_0, # of connection points: 2
#     Edge 200, Type (0, 0), BuildingBlock: AJUNOK_clean_linker_0, # of connection points: 2
#     Edge 201, Type (0, 0), BuildingBlock: AJUNOK_clean_linker_0, # of connection points: 2
#     Edge 202, Type (0, 0), BuildingBlock: AJUNOK_clean_linker_0, # of connection points: 2
#     Edge 203, Type (0, 0), BuildingBlock: AJUNOK_clean_linker_0, # of connection points: 2
#     Edge 204, Type (0, 0), BuildingBlock: AJUNOK_clean_linker_0, # of connection points: 2
#     Edge 205, Type (0, 0), BuildingBlock: AJUNOK_clean_linker_0, # of connection points: 2
#     Edge 206, Type (0, 0), BuildingBlock: AJUNOK_clean_linker_0, # of connection points: 2
#     Edge 207, Type (0, 0), BuildingBlock: AJUNOK_clean_linker_0, # of connection points: 2
#     Edge 208, Type (0, 0), BuildingBlock: AJUNOK_clean_linker_0, # of connection points: 2
#     Edge 209, Type (0, 0), BuildingBlock: AJUNOK_clean_linker_0, # of connection points: 2
#     Edge 210, Type (0, 0), BuildingBlock: AJUNOK_clean_linker_0, # of connection points: 2
#     Edge 211, Type (0, 0), BuildingBlock: AJUNOK_clean_linker_0, # of connection points: 2
#     Edge 212, Type (0, 0), BuildingBlock: AJUNOK_clean_linker_0, # of connection points: 2
#     Edge 213, Type (0, 0), BuildingBlock: AJUNOK_clean_linker_0, # of connection points: 2
#     Edge 214, Type (0, 0), BuildingBlock: AJUNOK_clean_linker_0, # of connection points: 2
#     Edge 215, Type (0, 0), BuildingBlock: AJUNOK_clean_linker_0, # of connection points: 2
#     Edge 216, Type (0, 0), BuildingBlock: AJUNOK_clean_linker_0, # of connection points: 2
#     Edge 217, Type (0, 0), BuildingBlock: AJUNOK_clean_linker_0, # of connection points: 2
#     Edge 218, Type (0, 0), BuildingBlock: AJUNOK_clean_linker_0, # of connection points: 2
#     Edge 219, Type (0, 0), BuildingBlock: AJUNOK_clean_linker_0, # of connection points: 2
#     Edge 220, Type (0, 0), BuildingBlock: AJUNOK_clean_linker_0, # of connection points: 2
#     Edge 221, Type (0, 0), BuildingBlock: AJUNOK_clean_linker_0, # of connection points: 2
#     Edge 222, Type (0, 0), BuildingBlock: AJUNOK_clean_linker_0, # of connection points: 2
#     Edge 223, Type (0, 0), BuildingBlock: AJUNOK_clean_linker_0, # of connection points: 2
#     Edge 224, Type (0, 0), BuildingBlock: AJUNOK_clean_linker_0, # of connection points: 2
#     Edge 225, Type (0, 0), BuildingBlock: AJUNOK_clean_linker_0, # of connection points: 2
#     Edge 226, Type (0, 0), BuildingBlock: AJUNOK_clean_linker_0, # of connection points: 2
#     Edge 227, Type (0, 0), BuildingBlock: AJUNOK_clean_linker_0, # of connection points: 2
#     Edge 228, Type (0, 0), BuildingBlock: AJUNOK_clean_linker_0, # of connection points: 2
#     Edge 229, Type (0, 0), BuildingBlock: AJUNOK_clean_linker_0, # of connection points: 2
#     Edge 230, Type (0, 0), BuildingBlock: AJUNOK_clean_linker_0, # of connection points: 2
#     Edge 231, Type (0, 0), BuildingBlock: AJUNOK_clean_linker_0, # of connection points: 2
#     Edge 232, Type (0, 0), BuildingBlock: AJUNOK_clean_linker_0, # of connection points: 2
#     Edge 233, Type (0, 0), BuildingBlock: AJUNOK_clean_linker_0, # of connection points: 2
#     Edge 234, Type (0, 0), BuildingBlock: AJUNOK_clean_linker_0, # of connection points: 2
#     Edge 235, Type (0, 0), BuildingBlock: AJUNOK_clean_linker_0, # of connection points: 2
#     Edge 236, Type (0, 0), BuildingBlock: AJUNOK_clean_linker_0, # of connection points: 2
#     Edge 237, Type (0, 0), BuildingBlock: AJUNOK_clean_linker_0, # of connection points: 2
#     Edge 238, Type (0, 0), BuildingBlock: AJUNOK_clean_linker_0, # of connection points: 2
#     Edge 239, Type (0, 0), BuildingBlock: AJUNOK_clean_linker_0, # of connection points: 2
#     Edge 240, Type (0, 0), BuildingBlock: AJUNOK_clean_linker_0, # of connection points: 2
#     Edge 241, Type (0, 0), BuildingBlock: AJUNOK_clean_linker_0, # of connection points: 2
#     Edge 242, Type (0, 0), BuildingBlock: AJUNOK_clean_linker_0, # of connection points: 2
#     Edge 243, Type (0, 0), BuildingBlock: AJUNOK_clean_linker_0, # of connection points: 2
#     Edge 244, Type (0, 0), BuildingBlock: AJUNOK_clean_linker_0, # of connection points: 2
#     Edge 245, Type (0, 0), BuildingBlock: AJUNOK_clean_linker_0, # of connection points: 2
#     Edge 246, Type (0, 0), BuildingBlock: AJUNOK_clean_linker_0, # of connection points: 2
#     Edge 247, Type (0, 0), BuildingBlock: AJUNOK_clean_linker_0, # of connection points: 2
#     Edge 248, Type (0, 0), BuildingBlock: AJUNOK_clean_linker_0, # of connection points: 2
#     Edge 249, Type (0, 0), BuildingBlock: AJUNOK_clean_linker_0, # of connection points: 2
#     Edge 250, Type (0, 0), BuildingBlock: AJUNOK_clean_linker_0, # of connection points: 2
#     Edge 251, Type (0, 0), BuildingBlock: AJUNOK_clean_linker_0, # of connection points: 2
#     Edge 252, Type (0, 0), BuildingBlock: AJUNOK_clean_linker_0, # of connection points: 2
#     Edge 253, Type (0, 0), BuildingBlock: AJUNOK_clean_linker_0, # of connection points: 2
#     Edge 254, Type (0, 0), BuildingBlock: AJUNOK_clean_linker_0, # of connection points: 2
#     Edge 255, Type (0, 0), BuildingBlock: AJUNOK_clean_linker_0, # of connection points: 2
#     Edge 256, Type (0, 0), BuildingBlock: AJUNOK_clean_linker_0, # of connection points: 2
#     Edge 257, Type (0, 0), BuildingBlock: AJUNOK_clean_linker_0, # of connection points: 2
#     Edge 258, Type (0, 0), BuildingBlock: AJUNOK_clean_linker_0, # of connection points: 2
#     Edge 259, Type (0, 0), BuildingBlock: AJUNOK_clean_linker_0, # of connection points: 2
#     Edge 260, Type (0, 0), BuildingBlock: AJUNOK_clean_linker_0, # of connection points: 2
#     Edge 261, Type (0, 0), BuildingBlock: AJUNOK_clean_linker_0, # of connection points: 2
#     Edge 262, Type (0, 0), BuildingBlock: AJUNOK_clean_linker_0, # of connection points: 2
#     Edge 263, Type (0, 0), BuildingBlock: AJUNOK_clean_linker_0, # of connection points: 2
#     Edge 264, Type (0, 0), BuildingBlock: AJUNOK_clean_linker_0, # of connection points: 2
#     Edge 265, Type (0, 0), BuildingBlock: AJUNOK_clean_linker_0, # of connection points: 2
#     Edge 266, Type (0, 0), BuildingBlock: AJUNOK_clean_linker_0, # of connection points: 2
#     Edge 267, Type (0, 0), BuildingBlock: AJUNOK_clean_linker_0, # of connection points: 2
#     Edge 268, Type (0, 0), BuildingBlock: AJUNOK_clean_linker_0, # of connection points: 2
#     Edge 269, Type (0, 0), BuildingBlock: AJUNOK_clean_linker_0, # of connection points: 2
#     Edge 270, Type (0, 0), BuildingBlock: AJUNOK_clean_linker_0, # of connection points: 2
#     Edge 271, Type (0, 0), BuildingBlock: AJUNOK_clean_linker_0, # of connection points: 2
#     Edge 272, Type (0, 0), BuildingBlock: AJUNOK_clean_linker_0, # of connection points: 2
#     Edge 273, Type (0, 0), BuildingBlock: AJUNOK_clean_linker_0, # of connection points: 2
#     Edge 274, Type (0, 0), BuildingBlock: AJUNOK_clean_linker_0, # of connection points: 2
#     Edge 275, Type (0, 0), BuildingBlock: AJUNOK_clean_linker_0, # of connection points: 2
#     Edge 276, Type (0, 0), BuildingBlock: AJUNOK_clean_linker_0, # of connection points: 2
#     Edge 277, Type (0, 0), BuildingBlock: AJUNOK_clean_linker_0, # of connection points: 2
#     Edge 278, Type (0, 0), BuildingBlock: AJUNOK_clean_linker_0, # of connection points: 2
#     Edge 279, Type (0, 0), BuildingBlock: AJUNOK_clean_linker_0, # of connection points: 2
#     Edge 280, Type (0, 0), BuildingBlock: AJUNOK_clean_linker_0, # of connection points: 2
#     Edge 281, Type (0, 0), BuildingBlock: AJUNOK_clean_linker_0, # of connection points: 2
#     Edge 282, Type (0, 0), BuildingBlock: AJUNOK_clean_linker_0, # of connection points: 2
#     Edge 283, Type (0, 0), BuildingBlock: AJUNOK_clean_linker_0, # of connection points: 2
#     Edge 284, Type (0, 0), BuildingBlock: AJUNOK_clean_linker_0, # of connection points: 2
#     Edge 285, Type (0, 0), BuildingBlock: AJUNOK_clean_linker_0, # of connection points: 2
#     Edge 286, Type (0, 0), BuildingBlock: AJUNOK_clean_linker_0, # of connection points: 2
#     Edge 287, Type (0, 0), BuildingBlock: AJUNOK_clean_linker_0, # of connection points: 2
# Relax obj value: 0.599
# Max RMSD: 0.185
# Mean RMSD: 0.185
data_MOF--net-ulg--node1-GALJAG_clean_sbu_0--edge1-AJUNOK_clean_linker_0
_symmetry_space_group_name_H-M    P1
_symmetry_Int_Tables_number       1
_symmetry_cell_setting            triclinic
loop_
_symmetry_equiv_pos_as_xyz
'x, y, z'
_cell_length_a     69.315873
_cell_length_b     69.265492
_cell_length_c     69.160544
_cell_angle_alpha  89.968051
_cell_angle_beta   90.006751
_cell_angle_gamma 90.008479
loop_
_atom_site_label
_atom_site_type_symbol
_atom_site_fract_x
_atom_site_fract_y
_atom_site_fract_z
_atom_type_partial_charge
In0 In 0.06615 0.5319 0.15883 0.0
O1 O 0.06446 0.565 0.15995 0.0
O2 O 0.04723 0.55002 0.13945 0.0
C3 C 0.08717 0.52229 0.18971 0.0
C4 C 0.03316 0.51313 0.16427 0.0
C5 C 0.0936 0.52806 0.13171 0.0
O6 O 0.07774 0.53791 0.18871 0.0
O7 O 0.08462 0.51092 0.17567 0.0
O8 O 0.07861 0.51764 0.13178 0.0
O9 O 0.0947 0.54006 0.14535 0.0
C10 C 0.05253 0.56604 0.14616 0.0
O11 O 0.04416 0.5096 0.15012 0.0
O12 O 0.03933 0.52546 0.17622 0.0
In13 In 0.70853 0.31655 0.40121 0.0
O14 O 0.73159 0.29599 0.39094 0.0
O15 O 0.71647 0.28927 0.41704 0.0
C16 C 0.70916 0.34493 0.37479 0.0
C17 C 0.67493 0.30133 0.38923 0.0
C18 C 0.71857 0.33649 0.43272 0.0
O19 O 0.72156 0.33151 0.37485 0.0
O20 O 0.69696 0.34413 0.38829 0.0
O21 O 0.70329 0.32653 0.43185 0.0
O22 O 0.72918 0.33559 0.4179 0.0
C23 C 0.72875 0.28416 0.40458 0.0
O24 O 0.67582 0.31223 0.40388 0.0
O25 O 0.69091 0.29785 0.38131 0.0
In26 In 0.92467 0.96043 0.65736 0.0
O27 O 0.93035 0.92788 0.65937 0.0
O28 O 0.94274 0.94376 0.63613 0.0
C29 C 0.90391 0.96881 0.68877 0.0
C30 C 0.95719 0.98038 0.66052 0.0
C31 C 0.89566 0.96167 0.63171 0.0
O32 O 0.91398 0.95363 0.68745 0.0
O33 O 0.90569 0.98044 0.67481 0.0
O34 O 0.90864 0.97453 0.63217 0.0
O35 O 0.89737 0.94856 0.64425 0.0
C36 C 0.94057 0.92762 0.6442 0.0
O37 O 0.94527 0.98332 0.647 0.0
O38 O 0.95195 0.96843 0.67327 0.0
In39 In 0.27798 0.16783 0.90651 0.0
O40 O 0.31013 0.1756 0.90799 0.0
O41 O 0.2931 0.18722 0.88518 0.0
C42 C 0.27066 0.14585 0.93728 0.0
C43 C 0.25622 0.19879 0.9123 0.0
C44 C 0.27744 0.13904 0.88059 0.0
O45 O 0.28574 0.1561 0.93594 0.0
O46 O 0.25871 0.14793 0.92365 0.0
O47 O 0.2643 0.15173 0.88117 0.0
O48 O 0.29056 0.141 0.89307 0.0
C49 C 0.30948 0.18601 0.89295 0.0
O50 O 0.25386 0.18783 0.89786 0.0
O51 O 0.26893 0.19353 0.92426 0.0
In52 In 0.06345 0.46153 0.84128 0.0
O53 O 0.04415 0.48607 0.85094 0.0
O54 O 0.03975 0.47408 0.82291 0.0
C55 C 0.09321 0.46112 0.86615 0.0
C56 C 0.04504 0.43007 0.85471 0.0
C57 C 0.08562 0.4617 0.81001 0.0
O58 O 0.08208 0.47559 0.86497 0.0
O59 O 0.08903 0.44728 0.85516 0.0
O60 O 0.0713 0.45056 0.81189 0.0
O61 O 0.08683 0.47481 0.82266 0.0
C62 C 0.03408 0.48568 0.83572 0.0
O63 O 0.05428 0.43003 0.83901 0.0
O64 O 0.04458 0.44614 0.86322 0.0
In65 In 0.78805 0.31412 0.07961 0.0
O66 O 0.76391 0.29549 0.09053 0.0
O67 O 0.77742 0.28776 0.06377 0.0
C68 C 0.78856 0.34361 0.10469 0.0
C69 C 0.81955 0.29589 0.09301 0.0
C70 C 0.77991 0.3351 0.04826 0.0
O71 O 0.77486 0.33154 0.10427 0.0
O72 O 0.80176 0.34064 0.09253 0.0
O73 O 0.79504 0.32488 0.04948 0.0
O74 O 0.7684 0.33334 0.06228 0.0
C75 C 0.76513 0.2837 0.07664 0.0
O76 O 0.82021 0.30627 0.07795 0.0
O77 O 0.80314 0.29456 0.10069 0.0
In78 In 0.92185 0.02714 0.33431 0.0
O79 O 0.92308 0.06005 0.33059 0.0
O80 O 0.93977 0.04691 0.3528 0.0
C81 C 0.90119 0.01453 0.30439 0.0
C82 C 0.95552 0.0095 0.33005 0.0
C83 C 0.89398 0.02487 0.36107 0.0
O84 O 0.91022 0.03042 0.30411 0.0
O85 O 0.90403 0.00432 0.31927 0.0
O86 O 0.90909 0.01466 0.36214 0.0
O87 O 0.89309 0.0359 0.3466 0.0
C88 C 0.93456 0.06228 0.34463 0.0
O89 O 0.94472 0.00639 0.34447 0.0
O90 O 0.94879 0.02069 0.31731 0.0
In91 In 0.20739 0.18096 0.59231 0.0
O92 O 0.17587 0.19076 0.59158 0.0
O93 O 0.19309 0.19853 0.6158 0.0
C94 C 0.21257 0.16055 0.55998 0.0
C95 C 0.23061 0.21115 0.58778 0.0
C96 C 0.20762 0.15029 0.61598 0.0
O97 O 0.1979 0.17114 0.5626 0.0
O98 O 0.22509 0.16131 0.57324 0.0
O99 O 0.2211 0.16263 0.61612 0.0
O100 O 0.19425 0.15364 0.6041 0.0
C101 C 0.17677 0.19915 0.60781 0.0
O102 O 0.23265 0.19933 0.60156 0.0
O103 O 0.21747 0.20716 0.57581 0.0
In104 In 0.15858 0.06659 0.53037 0.0
O105 O 0.16022 0.04887 0.50284 0.0
O106 O 0.17585 0.0392 0.52759 0.0
C107 C 0.12869 0.09061 0.52472 0.0
C108 C 0.14302 0.04986 0.56182 0.0
C109 C 0.188 0.09149 0.52804 0.0
O110 O 0.1309 0.07554 0.51461 0.0
O111 O 0.14167 0.0935 0.53714 0.0
O112 O 0.1856 0.08043 0.54239 0.0
O113 O 0.1762 0.08905 0.51437 0.0
C114 C 0.17092 0.03611 0.51033 0.0
O115 O 0.15703 0.06152 0.56298 0.0
O116 O 0.13718 0.04662 0.54487 0.0
In117 In 0.18143 0.40094 0.78311 0.0
O118 O 0.18324 0.39828 0.81584 0.0
O119 O 0.2002 0.37921 0.79883 0.0
C120 C 0.15955 0.43217 0.78768 0.0
C121 C 0.21154 0.41256 0.76208 0.0
C122 C 0.15494 0.37327 0.77499 0.0
O123 O 0.17004 0.42539 0.80101 0.0
O124 O 0.16161 0.42416 0.77138 0.0
O125 O 0.17285 0.37012 0.77404 0.0
O126 O 0.1507 0.39052 0.7785 0.0
C127 C 0.19511 0.38447 0.8155 0.0
O128 O 0.19787 0.40304 0.75466 0.0
O129 O 0.20951 0.41662 0.77968 0.0
In130 In 0.83584 0.42768 0.03495 0.0
O131 O 0.83348 0.43661 0.06687 0.0
O132 O 0.85735 0.44648 0.0502 0.0
C133 C 0.8055 0.40572 0.02608 0.0
C134 C 0.83053 0.45875 0.01314 0.0
C135 C 0.86199 0.39914 0.03546 0.0
O136 O 0.80644 0.41527 0.04169 0.0
O137 O 0.81951 0.40813 0.01466 0.0
O138 O 0.86146 0.41159 0.02206 0.0
O139 O 0.84922 0.4011 0.04832 0.0
C140 C 0.84903 0.44623 0.0664 0.0
O141 O 0.84477 0.44757 0.01078 0.0
O142 O 0.81846 0.45361 0.0258 0.0
In143 In 0.81427 0.07629 0.28565 0.0
O144 O 0.80978 0.07768 0.31836 0.0
O145 O 0.7957 0.09843 0.30053 0.0
C146 C 0.8332 0.04291 0.28101 0.0
C147 C 0.78298 0.06961 0.2645 0.0
C148 C 0.84152 0.10367 0.28165 0.0
O149 O 0.8237 0.04676 0.29613 0.0
O150 O 0.83261 0.05577 0.2681 0.0
O151 O 0.82663 0.10315 0.2711 0.0
O152 O 0.84289 0.08998 0.29359 0.0
C153 C 0.79897 0.09238 0.31741 0.0
O154 O 0.7975 0.07833 0.25769 0.0
O155 O 0.78449 0.06401 0.28179 0.0
In156 In 0.16107 0.92902 0.45754 0.0
O157 O 0.15907 0.93294 0.42478 0.0
O158 O 0.13919 0.94806 0.44274 0.0
C159 C 0.19127 0.90541 0.46201 0.0
C160 C 0.17217 0.96108 0.47557 0.0
C161 C 0.13198 0.9041 0.46339 0.0
O162 O 0.18855 0.91508 0.44672 0.0
O163 O 0.17934 0.90865 0.47541 0.0
O164 O 0.13374 0.91927 0.47344 0.0
O165 O 0.14506 0.90153 0.451 0.0
C166 C 0.14486 0.94438 0.42582 0.0
O167 O 0.16182 0.9485 0.48385 0.0
O168 O 0.17756 0.95696 0.45866 0.0
In169 In 0.31867 0.41081 0.70709 0.0
O170 O 0.3157 0.41044 0.67416 0.0
O171 O 0.30087 0.38913 0.69077 0.0
C172 C 0.33743 0.4436 0.71494 0.0
C173 C 0.28561 0.41683 0.72536 0.0
C174 C 0.34649 0.38408 0.71134 0.0
O175 O 0.32882 0.44074 0.69906 0.0
O176 O 0.33585 0.4301 0.72708 0.0
O177 O 0.33147 0.38418 0.72175 0.0
O178 O 0.3475 0.39767 0.69925 0.0
C179 C 0.30464 0.39588 0.67427 0.0
O180 O 0.2991 0.40712 0.73294 0.0
O181 O 0.28914 0.42397 0.70897 0.0
In182 In 0.82732 0.56526 0.95633 0.0
O183 O 0.82661 0.55589 0.92446 0.0
O184 O 0.85021 0.54718 0.94204 0.0
C185 C 0.79468 0.58529 0.96132 0.0
C186 C 0.825 0.5345 0.97918 0.0
C187 C 0.85215 0.59504 0.95754 0.0
O188 O 0.79776 0.57513 0.94644 0.0
O189 O 0.8076 0.58419 0.97414 0.0
O190 O 0.85029 0.58333 0.97144 0.0
O191 O 0.84132 0.59175 0.94326 0.0
C192 C 0.84247 0.5469 0.92558 0.0
O193 O 0.83777 0.54732 0.98129 0.0
O194 O 0.81246 0.53792 0.96639 0.0
In195 In 0.67921 0.07945 0.20374 0.0
O196 O 0.69771 0.08303 0.23036 0.0
O197 O 0.70747 0.06424 0.20777 0.0
C198 C 0.65058 0.10534 0.20502 0.0
C199 C 0.69552 0.09555 0.17255 0.0
C200 C 0.65749 0.04852 0.2111 0.0
O201 O 0.66441 0.1058 0.21701 0.0
O202 O 0.65138 0.09185 0.19282 0.0
O203 O 0.66656 0.05053 0.19531 0.0
O204 O 0.66062 0.06151 0.22349 0.0
C205 C 0.71072 0.0719 0.224 0.0
O206 O 0.68654 0.07963 0.17153 0.0
O207 O 0.69655 0.10276 0.18928 0.0
In208 In 0.52738 0.158 0.06823 0.0
O209 O 0.56006 0.16096 0.0633 0.0
O210 O 0.54475 0.13909 0.04821 0.0
C211 C 0.51813 0.18758 0.09107 0.0
C212 C 0.50597 0.16348 0.0369 0.0
C213 C 0.52603 0.13068 0.09568 0.0
O214 O 0.53322 0.1875 0.08075 0.0
O215 O 0.50698 0.17341 0.08844 0.0
O216 O 0.51469 0.13053 0.08134 0.0
O217 O 0.53788 0.14447 0.09599 0.0
C218 C 0.56074 0.147 0.05154 0.0
O219 O 0.504 0.14886 0.04766 0.0
O220 O 0.5181 0.17586 0.04254 0.0
In221 In 0.03296 0.84311 0.43211 0.0
O222 O 0.0074 0.85046 0.45088 0.0
O223 O 0.02207 0.82404 0.45645 0.0
C224 C 0.02884 0.86814 0.40266 0.0
C225 C 0.06369 0.85891 0.45026 0.0
C226 C 0.03468 0.81191 0.40949 0.0
O227 O 0.01591 0.86626 0.41542 0.0
O228 O 0.04356 0.85783 0.40509 0.0
O229 O 0.04733 0.81583 0.42203 0.0
O230 O 0.02002 0.82273 0.40983 0.0
C231 C 0.00894 0.83563 0.46133 0.0
O232 O 0.06436 0.84265 0.44209 0.0
O233 O 0.04741 0.86694 0.44961 0.0
In234 In 0.40802 0.28598 0.68012 0.0
O235 O 0.39667 0.26207 0.69912 0.0
O236 O 0.4234 0.27539 0.7069 0.0
C237 C 0.3843 0.28675 0.64948 0.0
C238 C 0.39438 0.31781 0.69763 0.0
C239 C 0.43937 0.27777 0.65926 0.0
O240 O 0.38388 0.27314 0.66171 0.0
O241 O 0.39647 0.2998 0.65297 0.0
O242 O 0.4381 0.29295 0.66941 0.0
O243 O 0.42544 0.26615 0.66108 0.0
C244 C 0.41042 0.26327 0.71107 0.0
O245 O 0.41041 0.31789 0.68884 0.0
O246 O 0.38577 0.3018 0.6977 0.0
In247 In 0.95133 0.65526 0.92941 0.0
O248 O 0.9186 0.65801 0.93334 0.0
O249 O 0.93356 0.63644 0.94925 0.0
C250 C 0.96058 0.68667 0.90887 0.0
C251 C 0.97293 0.65733 0.96111 0.0
C252 C 0.95192 0.62916 0.90073 0.0
O253 O 0.94587 0.68597 0.91968 0.0
O254 O 0.97128 0.67194 0.90964 0.0
O255 O 0.96455 0.62928 0.91394 0.0
O256 O 0.93929 0.64216 0.90212 0.0
C257 C 0.91762 0.64411 0.94514 0.0
O258 O 0.97425 0.64351 0.94927 0.0
O259 O 0.96145 0.67068 0.95637 0.0
In260 In 0.08365 0.70724 0.17327 0.0
O261 O 0.08297 0.67476 0.17999 0.0
O262 O 0.10669 0.69154 0.18992 0.0
C263 C 0.05102 0.71494 0.15431 0.0
C264 C 0.08096 0.72714 0.2059 0.0
C265 C 0.10714 0.70956 0.14255 0.0
O266 O 0.05347 0.69951 0.16383 0.0
O267 O 0.06464 0.72701 0.15557 0.0
O268 O 0.10752 0.72201 0.15594 0.0
O269 O 0.09502 0.69617 0.14482 0.0
C270 C 0.09885 0.67517 0.18902 0.0
O271 O 0.09405 0.73037 0.19358 0.0
O272 O 0.06841 0.71485 0.20107 0.0
In273 In 0.45757 0.83231 0.06475 0.0
O274 O 0.4842 0.83657 0.04617 0.0
O275 O 0.46139 0.81881 0.03542 0.0
C276 C 0.46026 0.85861 0.09316 0.0
C277 C 0.42528 0.84738 0.04951 0.0
C278 C 0.46372 0.80052 0.08587 0.0
O279 O 0.47179 0.85847 0.07896 0.0
O280 O 0.4477 0.84545 0.09292 0.0
O281 O 0.44857 0.80297 0.07597 0.0
O282 O 0.47626 0.81357 0.08393 0.0
C283 C 0.47757 0.82656 0.0324 0.0
O284 O 0.42521 0.83147 0.05853 0.0
O285 O 0.44159 0.85536 0.04813 0.0
In286 In 0.40172 0.20523 0.81759 0.0
O287 O 0.39186 0.22824 0.79657 0.0
O288 O 0.41892 0.21437 0.79145 0.0
C289 C 0.37478 0.20569 0.84554 0.0
C290 C 0.39066 0.17137 0.80221 0.0
C291 C 0.43247 0.21491 0.83877 0.0
O292 O 0.37497 0.21809 0.83208 0.0
O293 O 0.38831 0.19356 0.84492 0.0
O294 O 0.43198 0.19987 0.82841 0.0
O295 O 0.4177 0.22553 0.83761 0.0
C296 C 0.4065 0.22644 0.78581 0.0
O297 O 0.4048 0.17256 0.81369 0.0
O298 O 0.38286 0.18725 0.79803 0.0
In299 In 0.58273 0.28635 0.31269 0.0
O300 O 0.58169 0.31822 0.30399 0.0
O301 O 0.60534 0.30098 0.29446 0.0
C302 C 0.55191 0.2794 0.33486 0.0
C303 C 0.57657 0.26377 0.28228 0.0
C304 C 0.60888 0.28626 0.34127 0.0
O305 O 0.55366 0.29485 0.3252 0.0
O306 O 0.565 0.2671 0.33199 0.0
O307 O 0.60923 0.27391 0.32778 0.0
O308 O 0.5954 0.29842 0.34016 0.0
C309 C 0.59745 0.31739 0.29474 0.0
O310 O 0.58762 0.2588 0.29596 0.0
O311 O 0.56833 0.2799 0.28423 0.0
In312 In 0.06649 0.02976 0.65344 0.0
O313 O 0.0473 0.00492 0.64488 0.0
O314 O 0.04033 0.02079 0.67048 0.0
C315 C 0.09461 0.03034 0.62677 0.0
C316 C 0.04763 0.06076 0.63981 0.0
C317 C 0.08782 0.0231 0.68492 0.0
O318 O 0.08251 0.01667 0.62769 0.0
O319 O 0.09262 0.04322 0.63949 0.0
O320 O 0.07711 0.03781 0.68325 0.0
O321 O 0.08683 0.01127 0.67106 0.0
C322 C 0.03561 0.00776 0.65863 0.0
O323 O 0.05887 0.06196 0.65419 0.0
O324 O 0.0459 0.04409 0.6328 0.0
In325 In 0.70178 0.81752 0.91463 0.0
O326 O 0.67019 0.80725 0.91642 0.0
O327 O 0.68778 0.79812 0.89289 0.0
C328 C 0.70951 0.84007 0.94501 0.0
C329 C 0.72482 0.78715 0.91792 0.0
C330 C 0.70031 0.84574 0.8881 0.0
O331 O 0.6942 0.8301 0.94397 0.0
O332 O 0.72132 0.83732 0.93142 0.0
O333 O 0.7145 0.83433 0.88941 0.0
O334 O 0.6871 0.84294 0.90033 0.0
C335 C 0.67143 0.79769 0.90083 0.0
O336 O 0.72691 0.7997 0.90482 0.0
O337 O 0.71193 0.79073 0.93035 0.0
In338 In 0.92313 0.46476 0.15903 0.0
O339 O 0.94358 0.48857 0.15037 0.0
O340 O 0.94927 0.47323 0.17657 0.0
C341 C 0.89531 0.46642 0.1321 0.0
C342 C 0.93949 0.43175 0.14658 0.0
C343 C 0.90094 0.47269 0.18955 0.0
O344 O 0.90937 0.47808 0.13213 0.0
O345 O 0.89538 0.4542 0.14561 0.0
O346 O 0.91141 0.45774 0.18864 0.0
O347 O 0.90287 0.48429 0.17558 0.0
C348 C 0.9547 0.48586 0.1646 0.0
O349 O 0.92871 0.43215 0.16133 0.0
O350 O 0.94215 0.44789 0.13867 0.0
In351 In 0.28278 0.67215 0.40141 0.0
O352 O 0.26004 0.69375 0.39245 0.0
O353 O 0.27518 0.69841 0.41898 0.0
C354 C 0.27964 0.64328 0.37565 0.0
C355 C 0.31545 0.68806 0.38773 0.0
C356 C 0.27512 0.65249 0.43374 0.0
O357 O 0.26733 0.65675 0.3766 0.0
O358 O 0.29315 0.64441 0.38782 0.0
O359 O 0.29048 0.6621 0.43145 0.0
O360 O 0.2633 0.65342 0.41986 0.0
C361 C 0.26294 0.70449 0.40695 0.0
O362 O 0.31548 0.67707 0.40235 0.0
O363 O 0.29909 0.69092 0.38037 0.0
In364 In 0.06454 0.96079 0.33667 0.0
O365 O 0.05481 0.92923 0.33606 0.0
O366 O 0.04535 0.94716 0.35914 0.0
C367 C 0.08613 0.96547 0.3051 0.0
C368 C 0.03421 0.98333 0.33041 0.0
C369 C 0.09347 0.96076 0.36242 0.0
O370 O 0.07538 0.95089 0.30757 0.0
O371 O 0.08508 0.97815 0.31819 0.0
O372 O 0.08171 0.97471 0.36119 0.0
O373 O 0.09061 0.94723 0.35057 0.0
C374 C 0.04528 0.93061 0.35161 0.0
O375 O 0.04543 0.98598 0.34458 0.0
O376 O 0.03902 0.97006 0.31889 0.0
In377 In 0.78251 0.8134 0.58677 0.0
O378 O 0.81479 0.80637 0.58431 0.0
O379 O 0.79864 0.79459 0.6077 0.0
C380 C 0.77296 0.8356 0.55678 0.0
C381 C 0.76155 0.78187 0.58115 0.0
C382 C 0.78268 0.8419 0.61292 0.0
O383 O 0.78845 0.82588 0.5572 0.0
O384 O 0.76184 0.83304 0.57103 0.0
O385 O 0.77001 0.82871 0.6132 0.0
O386 O 0.79496 0.84054 0.59954 0.0
C387 C 0.81481 0.79623 0.59956 0.0
O388 O 0.75901 0.79274 0.59562 0.0
O389 O 0.77404 0.78747 0.5691 0.0
In390 In 0.92229 0.53057 0.83787 0.0
O391 O 0.94387 0.50797 0.84694 0.0
O392 O 0.94959 0.52442 0.82138 0.0
C393 C 0.89296 0.52808 0.86288 0.0
C394 C 0.93673 0.5636 0.85209 0.0
C395 C 0.90151 0.52192 0.80663 0.0
O396 O 0.90691 0.51627 0.86338 0.0
O397 O 0.89402 0.54083 0.84991 0.0
O398 O 0.91124 0.53734 0.808 0.0
O399 O 0.90366 0.51018 0.82047 0.0
C400 C 0.95543 0.51196 0.83336 0.0
O401 O 0.92731 0.56324 0.83642 0.0
O402 O 0.93894 0.54742 0.86009 0.0
In403 In 0.20053 0.6762 0.07592 0.0
O404 O 0.22464 0.69477 0.08711 0.0
O405 O 0.21087 0.70315 0.0607 0.0
C406 C 0.19995 0.64606 0.10029 0.0
C407 C 0.16918 0.69401 0.09019 0.0
C408 C 0.20839 0.65556 0.04429 0.0
O409 O 0.21385 0.65791 0.09988 0.0
O410 O 0.18659 0.64956 0.08842 0.0
O411 O 0.19315 0.66554 0.04586 0.0
O412 O 0.22018 0.6574 0.05809 0.0
C413 C 0.22317 0.707 0.07362 0.0
O414 O 0.16858 0.68495 0.07429 0.0
O415 O 0.18548 0.69433 0.09821 0.0
In416 In 0.15366 0.56229 0.03281 0.0
O417 O 0.14447 0.54143 0.00968 0.0
O418 O 0.1705 0.53546 0.02522 0.0
C419 C 0.12818 0.59136 0.03136 0.0
C420 C 0.13967 0.54557 0.06498 0.0
C421 C 0.18401 0.58399 0.0233 0.0
O422 O 0.12853 0.57817 0.01869 0.0
O423 O 0.1407 0.58976 0.04452 0.0
O424 O 0.18283 0.57537 0.03943 0.0
O425 O 0.17049 0.58039 0.01161 0.0
C426 C 0.15832 0.52996 0.01281 0.0
O427 O 0.15579 0.55422 0.06504 0.0
O428 O 0.13116 0.54544 0.04888 0.0
In429 In 0.17734 0.90671 0.28329 0.0
O430 O 0.18127 0.90611 0.31607 0.0
O431 O 0.19512 0.8845 0.29911 0.0
C432 C 0.15504 0.93766 0.27777 0.0
C433 C 0.20949 0.91606 0.26457 0.0
C434 C 0.15108 0.87866 0.27863 0.0
O435 O 0.1647 0.93514 0.29309 0.0
O436 O 0.15766 0.92509 0.26482 0.0
O437 O 0.16656 0.87894 0.26891 0.0
O438 O 0.14898 0.89257 0.29017 0.0
C439 C 0.19174 0.89115 0.31574 0.0
O440 O 0.19645 0.90597 0.25673 0.0
O441 O 0.20589 0.92191 0.28144 0.0
In442 In 0.82807 0.92793 0.53796 0.0
O443 O 0.82884 0.93528 0.57013 0.0
O444 O 0.85123 0.94597 0.55184 0.0
C445 C 0.79641 0.90663 0.53234 0.0
C446 C 0.82079 0.95943 0.51733 0.0
C447 C 0.8543 0.89945 0.53602 0.0
O448 O 0.79927 0.91599 0.54781 0.0
O449 O 0.80895 0.90923 0.51938 0.0
O450 O 0.85404 0.91317 0.5239 0.0
O451 O 0.84127 0.90018 0.54871 0.0
C452 C 0.84431 0.94493 0.56868 0.0
O453 O 0.83107 0.94584 0.51074 0.0
O454 O 0.8137 0.9567 0.53391 0.0
In455 In 0.8114 0.58322 0.7872 0.0
O456 O 0.79447 0.58519 0.75924 0.0
O457 O 0.78261 0.56891 0.78266 0.0
C458 C 0.83955 0.60977 0.78474 0.0
C459 C 0.7943 0.60001 0.8177 0.0
C460 C 0.83247 0.55117 0.78277 0.0
O461 O 0.82549 0.60949 0.77305 0.0
O462 O 0.83944 0.59646 0.79719 0.0
O463 O 0.82294 0.55454 0.79802 0.0
O464 O 0.8305 0.56357 0.76956 0.0
C465 C 0.78067 0.57507 0.76561 0.0
O466 O 0.8033 0.58417 0.81924 0.0
O467 O 0.79376 0.60691 0.80081 0.0
In468 In 0.15715 0.42177 0.9599 0.0
O469 O 0.15851 0.42995 0.92774 0.0
O470 O 0.13584 0.44137 0.945 0.0
C471 C 0.18842 0.40002 0.96627 0.0
C472 C 0.16085 0.45262 0.98239 0.0
C473 C 0.13077 0.39337 0.96052 0.0
O474 O 0.18668 0.41057 0.95141 0.0
O475 O 0.17497 0.40171 0.97844 0.0
O476 O 0.13248 0.40534 0.97421 0.0
O477 O 0.14249 0.39572 0.94678 0.0
C478 C 0.14347 0.44029 0.92852 0.0
O479 O 0.1475 0.44042 0.98464 0.0
O480 O 0.17323 0.44847 0.96964 0.0
In481 In 0.31431 0.9091 0.20634 0.0
O482 O 0.30543 0.9082 0.17449 0.0
O483 O 0.29633 0.88549 0.19321 0.0
C484 C 0.33646 0.94032 0.21101 0.0
C485 C 0.28345 0.91772 0.22738 0.0
C486 C 0.34201 0.8821 0.20855 0.0
O487 O 0.32701 0.93727 0.19563 0.0
O488 O 0.33372 0.92813 0.22428 0.0
O489 O 0.32841 0.883 0.22075 0.0
O490 O 0.34164 0.89498 0.19565 0.0
C491 C 0.29635 0.89241 0.17633 0.0
O492 O 0.29679 0.90706 0.23385 0.0
O493 O 0.28606 0.9244 0.21061 0.0
In494 In 0.82602 0.06212 0.4537 0.0
O495 O 0.82698 0.05212 0.42217 0.0
O496 O 0.85064 0.0454 0.44069 0.0
C497 C 0.79361 0.08256 0.45813 0.0
C498 C 0.81965 0.03151 0.47604 0.0
C499 C 0.85106 0.09166 0.45496 0.0
O500 O 0.79715 0.07307 0.44289 0.0
O501 O 0.80598 0.08073 0.47139 0.0
O502 O 0.85099 0.07844 0.46761 0.0
O503 O 0.83839 0.08994 0.44197 0.0
C504 C 0.84341 0.04429 0.42398 0.0
O505 O 0.82973 0.04563 0.48172 0.0
O506 O 0.81246 0.03315 0.45936 0.0
In507 In 0.67665 0.57803 0.70425 0.0
O508 O 0.69452 0.58113 0.73148 0.0
O509 O 0.7061 0.56481 0.70796 0.0
C510 C 0.64857 0.60455 0.70754 0.0
C511 C 0.69156 0.59382 0.67212 0.0
C512 C 0.65604 0.54588 0.70989 0.0
O513 O 0.66333 0.60475 0.71832 0.0
O514 O 0.64805 0.59092 0.69551 0.0
O515 O 0.66571 0.54877 0.69465 0.0
O516 O 0.65785 0.55874 0.72268 0.0
C517 C 0.70854 0.57164 0.72468 0.0
O518 O 0.68194 0.57829 0.67164 0.0
O519 O 0.69388 0.6009 0.68876 0.0
In520 In 0.53621 0.65678 0.56561 0.0
O521 O 0.56843 0.65798 0.55792 0.0
O522 O 0.55127 0.63542 0.5462 0.0
C523 C 0.52997 0.68815 0.58728 0.0
C524 C 0.51365 0.66154 0.53486 0.0
C525 C 0.53512 0.63032 0.59401 0.0
O526 O 0.54471 0.68637 0.57663 0.0
O527 O 0.51794 0.67452 0.58603 0.0
O528 O 0.52167 0.63201 0.58176 0.0
O529 O 0.54881 0.64214 0.59196 0.0
C530 C 0.56777 0.64289 0.54763 0.0
O531 O 0.51164 0.64757 0.54644 0.0
O532 O 0.52648 0.67367 0.53936 0.0
In533 In 0.02997 0.33664 0.92938 0.0
O534 O 0.0626 0.33329 0.93387 0.0
O535 O 0.04783 0.35561 0.94888 0.0
C536 C 0.02106 0.30658 0.90692 0.0
C537 C 0.00928 0.33348 0.96155 0.0
C538 C 0.02901 0.3638 0.9018 0.0
O539 O 0.03564 0.30663 0.91792 0.0
O540 O 0.0101 0.32103 0.9087 0.0
O541 O 0.01648 0.36312 0.91507 0.0
O542 O 0.04183 0.35093 0.90266 0.0
C543 C 0.06364 0.3474 0.94542 0.0
O544 O 0.00718 0.34733 0.94985 0.0
O545 O 0.02075 0.32036 0.95621 0.0
In546 In 0.40439 0.78372 0.17756 0.0
O547 O 0.40507 0.81616 0.18355 0.0
O548 O 0.38247 0.79932 0.19592 0.0
C549 C 0.43556 0.77693 0.15578 0.0
C550 C 0.41181 0.76252 0.2088 0.0
C551 C 0.37714 0.78169 0.14999 0.0
O552 O 0.4336 0.79229 0.16549 0.0
O553 O 0.42228 0.7647 0.15807 0.0
O554 O 0.3773 0.77033 0.16434 0.0
O555 O 0.39081 0.79369 0.14962 0.0
C556 C 0.38991 0.8158 0.19376 0.0
O557 O 0.40107 0.75647 0.19532 0.0
O558 O 0.41896 0.77909 0.20632 0.0
In559 In 0.94778 0.15372 0.42186 0.0
O560 O 0.97027 0.14173 0.44188 0.0
O561 O 0.95695 0.16864 0.44933 0.0
C562 C 0.94739 0.12891 0.3921 0.0
C563 C 0.91529 0.14121 0.43875 0.0
C564 C 0.95864 0.18494 0.40204 0.0
O565 O 0.96083 0.12904 0.4045 0.0
O566 O 0.93441 0.14137 0.39479 0.0
O567 O 0.94286 0.18423 0.41127 0.0
O568 O 0.96936 0.17036 0.40411 0.0
C569 C 0.96837 0.15522 0.45404 0.0
O570 O 0.91538 0.15634 0.42843 0.0
O571 O 0.93136 0.13293 0.44044 0.0
In572 In 0.08222 0.20436 0.68164 0.0
O573 O 0.08429 0.17251 0.68911 0.0
O574 O 0.10631 0.19116 0.69958 0.0
C575 C 0.05279 0.20145 0.65668 0.0
C576 C 0.07 0.22449 0.71215 0.0
C577 C 0.11059 0.21112 0.65591 0.0
O578 O 0.05736 0.18818 0.66832 0.0
O579 O 0.06186 0.21707 0.65909 0.0
O580 O 0.10837 0.22187 0.67053 0.0
O581 O 0.09868 0.19752 0.65462 0.0
C582 C 0.09984 0.17417 0.69848 0.0
O583 O 0.07918 0.23236 0.69848 0.0
O584 O 0.06611 0.2069 0.70975 0.0
In585 In 0.45372 0.33175 0.56445 0.0
O586 O 0.42183 0.32939 0.55562 0.0
O587 O 0.4389 0.35222 0.5441 0.0
C588 C 0.46223 0.30196 0.58746 0.0
C589 C 0.47716 0.32712 0.53443 0.0
C590 C 0.45185 0.35817 0.5927 0.0
O591 O 0.44718 0.30221 0.57703 0.0
O592 O 0.47344 0.31612 0.58504 0.0
O593 O 0.46557 0.35785 0.58062 0.0
O594 O 0.4393 0.3452 0.59039 0.0
C595 C 0.42257 0.34432 0.54504 0.0
O596 O 0.47851 0.34135 0.5458 0.0
O597 O 0.46447 0.31474 0.53874 0.0
In598 In 0.40919 0.70153 0.31333 0.0
O599 O 0.40856 0.66903 0.30778 0.0
O600 O 0.38634 0.68653 0.29565 0.0
C601 C 0.4416 0.70666 0.33375 0.0
C602 C 0.41537 0.72206 0.28139 0.0
C603 C 0.38239 0.70423 0.34127 0.0
O604 O 0.43851 0.69162 0.32384 0.0
O605 O 0.42872 0.71946 0.33239 0.0
O606 O 0.38282 0.71578 0.32709 0.0
O607 O 0.39574 0.69188 0.34144 0.0
C608 C 0.39315 0.66981 0.29798 0.0
O609 O 0.40607 0.72887 0.29556 0.0
O610 O 0.42215 0.70533 0.28375 0.0
In611 In 0.58714 0.77821 0.81832 0.0
O612 O 0.58646 0.80976 0.80808 0.0
O613 O 0.61131 0.79285 0.8021 0.0
C614 C 0.55456 0.77378 0.83837 0.0
C615 C 0.58339 0.7554 0.78762 0.0
C616 C 0.61046 0.77702 0.84925 0.0
O617 O 0.55766 0.78831 0.82769 0.0
O618 O 0.56739 0.76084 0.83769 0.0
O619 O 0.61114 0.76429 0.83614 0.0
O620 O 0.59816 0.79017 0.84661 0.0
C621 C 0.6031 0.80899 0.8006 0.0
O622 O 0.59642 0.75281 0.80012 0.0
O623 O 0.57151 0.76868 0.79133 0.0
In624 In 0.56339 0.53018 0.65461 0.0
O625 O 0.5598 0.56299 0.6562 0.0
O626 O 0.54515 0.54749 0.63399 0.0
C627 C 0.58537 0.52154 0.68511 0.0
C628 C 0.53143 0.51031 0.66162 0.0
C629 C 0.59007 0.52747 0.62672 0.0
O630 O 0.57615 0.53728 0.68388 0.0
O631 O 0.58219 0.50972 0.67161 0.0
O632 O 0.57436 0.51821 0.62585 0.0
O633 O 0.59217 0.53775 0.64159 0.0
C634 C 0.54881 0.56361 0.64159 0.0
O635 O 0.54469 0.50373 0.65094 0.0
O636 O 0.53463 0.52658 0.66917 0.0
In637 In 0.20499 0.30795 0.90881 0.0
O638 O 0.22817 0.28721 0.89959 0.0
O639 O 0.2131 0.28134 0.92591 0.0
C640 C 0.20733 0.33549 0.88171 0.0
C641 C 0.17198 0.29235 0.89547 0.0
C642 C 0.21308 0.32989 0.93958 0.0
O643 O 0.21997 0.32241 0.88328 0.0
O644 O 0.19391 0.3347 0.894 0.0
O645 O 0.19802 0.31961 0.93857 0.0
O646 O 0.22454 0.3281 0.92551 0.0
C647 C 0.22548 0.27592 0.91368 0.0
O648 O 0.1723 0.30288 0.91042 0.0
O649 O 0.18825 0.28938 0.88796 0.0
In650 In 0.42803 0.95574 0.15494 0.0
O651 O 0.43556 0.92357 0.15749 0.0
O652 O 0.44699 0.93983 0.13399 0.0
C653 C 0.40678 0.96506 0.18568 0.0
C654 C 0.45921 0.97752 0.15822 0.0
C655 C 0.39884 0.95471 0.12964 0.0
O656 O 0.4169 0.94984 0.18509 0.0
O657 O 0.40859 0.9761 0.17125 0.0
O658 O 0.41133 0.96805 0.12931 0.0
O659 O 0.40126 0.94218 0.14265 0.0
C660 C 0.4457 0.92368 0.14225 0.0
O661 O 0.44748 0.97941 0.14434 0.0
O662 O 0.45452 0.96545 0.17108 0.0
In663 In 0.77917 0.17455 0.40394 0.0
O664 O 0.75635 0.1946 0.39257 0.0
O665 O 0.7699 0.20152 0.41956 0.0
C666 C 0.78073 0.14482 0.37931 0.0
C667 C 0.8116 0.19158 0.3915 0.0
C668 C 0.76846 0.15316 0.43411 0.0
O669 O 0.76746 0.15737 0.37834 0.0
O670 O 0.79295 0.14751 0.39255 0.0
O671 O 0.78398 0.16286 0.43408 0.0
O672 O 0.75769 0.15587 0.41963 0.0
C673 C 0.75835 0.20647 0.40632 0.0
O674 O 0.81134 0.18192 0.40707 0.0
O675 O 0.79568 0.19266 0.38281 0.0
In676 In 0.56433 0.45597 0.33723 0.0
O677 O 0.56021 0.4232 0.33473 0.0
O678 O 0.5459 0.43832 0.35733 0.0
C679 C 0.58469 0.46618 0.30608 0.0
C680 C 0.53185 0.47606 0.33398 0.0
C681 C 0.59297 0.45651 0.36333 0.0
O682 O 0.57472 0.45087 0.30669 0.0
O683 O 0.58329 0.47684 0.32082 0.0
O684 O 0.57968 0.46905 0.36338 0.0
O685 O 0.59186 0.44422 0.34994 0.0
C686 C 0.54953 0.4223 0.34954 0.0
O687 O 0.54346 0.47856 0.34786 0.0
O688 O 0.53718 0.46419 0.32121 0.0
In689 In 0.28909 0.31723 0.58398 0.0
O690 O 0.32187 0.31262 0.58218 0.0
O691 O 0.30595 0.29791 0.60394 0.0
C692 C 0.27969 0.33583 0.55138 0.0
C693 C 0.26752 0.28555 0.58336 0.0
C694 C 0.28863 0.34669 0.60924 0.0
O695 O 0.29482 0.3257 0.55286 0.0
O696 O 0.26891 0.33559 0.56608 0.0
O697 O 0.27548 0.33405 0.60882 0.0
O698 O 0.30163 0.34458 0.59667 0.0
C699 C 0.3222 0.30146 0.59666 0.0
O700 O 0.26601 0.29813 0.59649 0.0
O701 O 0.27921 0.28949 0.5699 0.0
In702 In 0.43128 0.03819 0.83044 0.0
O703 O 0.45056 0.01221 0.83377 0.0
O704 O 0.4601 0.03558 0.81584 0.0
C705 C 0.40268 0.03467 0.85622 0.0
C706 C 0.44648 0.06958 0.84721 0.0
C707 C 0.41027 0.03025 0.79913 0.0
O708 O 0.41737 0.0238 0.85665 0.0
O709 O 0.40258 0.04702 0.84281 0.0
O710 O 0.41808 0.04661 0.80169 0.0
O711 O 0.4143 0.01775 0.81176 0.0
C712 C 0.46367 0.01929 0.8232 0.0
O713 O 0.43797 0.07059 0.831 0.0
O714 O 0.44737 0.05286 0.85442 0.0
In715 In 0.70697 0.17806 0.08541 0.0
O716 O 0.67431 0.18335 0.08487 0.0
O717 O 0.69101 0.19653 0.10699 0.0
C718 C 0.7146 0.15923 0.05265 0.0
C719 C 0.72828 0.20944 0.08034 0.0
C720 C 0.70974 0.1481 0.10988 0.0
O721 O 0.69932 0.16894 0.05507 0.0
O722 O 0.72637 0.15978 0.06659 0.0
O723 O 0.72137 0.16218 0.11053 0.0
O724 O 0.69698 0.14927 0.09695 0.0
C725 C 0.67454 0.1939 0.0998 0.0
O726 O 0.73095 0.19813 0.09445 0.0
O727 O 0.71521 0.20459 0.06862 0.0
In728 In 0.65443 0.07328 0.03375 0.0
O729 O 0.64329 0.05329 0.01061 0.0
O730 O 0.67065 0.04702 0.0235 0.0
C731 C 0.62783 0.10157 0.03376 0.0
C732 C 0.64323 0.05574 0.06653 0.0
C733 C 0.68616 0.09325 0.02472 0.0
O734 O 0.62878 0.08912 0.02042 0.0
O735 O 0.64051 0.09984 0.04672 0.0
O736 O 0.685 0.08285 0.03972 0.0
O737 O 0.67152 0.09273 0.01387 0.0
C738 C 0.6575 0.04192 0.01195 0.0
O739 O 0.6567 0.06806 0.06644 0.0
O740 O 0.63591 0.05229 0.05025 0.0
In741 In 0.67333 0.40978 0.27914 0.0
O742 O 0.68017 0.40903 0.31145 0.0
O743 O 0.69188 0.38708 0.29335 0.0
C744 C 0.6525 0.44207 0.27519 0.0
C745 C 0.70442 0.41722 0.25779 0.0
C746 C 0.64544 0.38286 0.27705 0.0
O747 O 0.66301 0.43885 0.28979 0.0
O748 O 0.6534 0.42936 0.26215 0.0
O749 O 0.65939 0.38324 0.26523 0.0
O750 O 0.64551 0.39625 0.28938 0.0
C751 C 0.69032 0.39389 0.31018 0.0
O752 O 0.69056 0.40724 0.25132 0.0
O753 O 0.70215 0.42386 0.27461 0.0
In754 In 0.33453 0.42485 0.53013 0.0
O755 O 0.33285 0.43176 0.56256 0.0
O756 O 0.35603 0.44332 0.54604 0.0
C757 C 0.30317 0.40394 0.52217 0.0
C758 C 0.32971 0.45676 0.50933 0.0
C759 C 0.35972 0.39542 0.52865 0.0
O760 O 0.30484 0.41368 0.53757 0.0
O761 O 0.31683 0.40599 0.51025 0.0
O762 O 0.3593 0.40845 0.5158 0.0
O763 O 0.34749 0.39739 0.542 0.0
C764 C 0.34802 0.44193 0.56232 0.0
O765 O 0.34396 0.44564 0.50683 0.0
O766 O 0.31744 0.45119 0.52161 0.0
In767 In 0.31518 0.07858 0.78476 0.0
O768 O 0.30672 0.07559 0.81672 0.0
O769 O 0.29508 0.09878 0.80015 0.0
C770 C 0.33792 0.04902 0.77541 0.0
C771 C 0.2845 0.07399 0.76248 0.0
C772 C 0.34341 0.10495 0.78643 0.0
O773 O 0.32805 0.04922 0.79084 0.0
O774 O 0.33506 0.06315 0.76422 0.0
O775 O 0.33145 0.10452 0.77259 0.0
O776 O 0.34094 0.09215 0.79917 0.0
C777 C 0.29606 0.09046 0.8163 0.0
O778 O 0.29551 0.08848 0.76097 0.0
O779 O 0.28963 0.06128 0.77455 0.0
In780 In 0.65685 0.93428 0.95691 0.0
O781 O 0.66023 0.94291 0.92499 0.0
O782 O 0.63521 0.95184 0.94043 0.0
C783 C 0.68714 0.91257 0.96676 0.0
C784 C 0.65922 0.96567 0.97873 0.0
C785 C 0.63175 0.90492 0.95552 0.0
O786 O 0.68673 0.92229 0.95123 0.0
O787 O 0.67289 0.91515 0.97783 0.0
O788 O 0.63141 0.91727 0.969 0.0
O789 O 0.64471 0.90753 0.94299 0.0
C790 C 0.64419 0.95168 0.9246 0.0
O791 O 0.64585 0.95342 0.98071 0.0
O792 O 0.6721 0.9614 0.96653 0.0
In793 In 0.81204 0.40993 0.20274 0.0
O794 O 0.81099 0.40982 0.16974 0.0
O795 O 0.79506 0.38847 0.1852 0.0
C796 C 0.83188 0.44219 0.21045 0.0
C797 C 0.77871 0.41644 0.22066 0.0
C798 C 0.83871 0.38216 0.20747 0.0
O799 O 0.82289 0.43973 0.19472 0.0
O800 O 0.82993 0.42871 0.22257 0.0
O801 O 0.82302 0.38211 0.21682 0.0
O802 O 0.84103 0.39652 0.19652 0.0
C803 C 0.80022 0.39507 0.16902 0.0
O804 O 0.7923 0.40726 0.2287 0.0
O805 O 0.78223 0.42276 0.20394 0.0
In806 In 0.33336 0.56569 0.45729 0.0
O807 O 0.33188 0.56028 0.42461 0.0
O808 O 0.35313 0.54553 0.44114 0.0
C809 C 0.30148 0.58616 0.4645 0.0
C810 C 0.32912 0.53417 0.47885 0.0
C811 C 0.35968 0.59422 0.45854 0.0
O812 O 0.30321 0.57549 0.44976 0.0
O813 O 0.3155 0.58549 0.47615 0.0
O814 O 0.35833 0.58168 0.47179 0.0
O815 O 0.34762 0.59237 0.44502 0.0
C816 C 0.34589 0.54859 0.42474 0.0
O817 O 0.34345 0.54531 0.48069 0.0
O818 O 0.3165 0.53952 0.46684 0.0
In819 In 0.17656 0.08192 0.70975 0.0
O820 O 0.19644 0.08918 0.73443 0.0
O821 O 0.20287 0.06432 0.71728 0.0
C822 C 0.14916 0.10902 0.71305 0.0
C823 C 0.19265 0.09663 0.67752 0.0
C824 C 0.15522 0.05027 0.71529 0.0
O825 O 0.1628 0.10769 0.72513 0.0
O826 O 0.14928 0.0965 0.69984 0.0
O827 O 0.16614 0.05237 0.7008 0.0
O828 O 0.15592 0.0638 0.72751 0.0
C829 C 0.20782 0.07537 0.73091 0.0
O830 O 0.18126 0.08238 0.67695 0.0
O831 O 0.19625 0.10277 0.69425 0.0
In832 In 0.02854 0.1473 0.55807 0.0
O833 O 0.00276 0.13771 0.54062 0.0
O834 O 0.0159 0.1646 0.53348 0.0
C835 C 0.02897 0.12217 0.58766 0.0
C836 C 0.05921 0.13342 0.53855 0.0
C837 C 0.02844 0.1785 0.58072 0.0
O838 O 0.01424 0.12415 0.57703 0.0
O839 O 0.04313 0.13261 0.58313 0.0
O840 O 0.04045 0.17611 0.5672 0.0
O841 O 0.01491 0.1663 0.58107 0.0
C842 C 0.00336 0.15206 0.5294 0.0
O843 O 0.05941 0.14963 0.5469 0.0
O844 O 0.04339 0.12454 0.53968 0.0
In845 In 0.53553 0.83821 0.92653 0.0
O846 O 0.56827 0.83833 0.93022 0.0
O847 O 0.55173 0.86025 0.94412 0.0
C848 C 0.52918 0.80628 0.90584 0.0
C849 C 0.51548 0.83077 0.95848 0.0
C850 C 0.53255 0.86522 0.89888 0.0
O851 O 0.54438 0.80869 0.91569 0.0
O852 O 0.51681 0.81955 0.90743 0.0
O853 O 0.52282 0.86624 0.91434 0.0
O854 O 0.54312 0.8505 0.89743 0.0
C855 C 0.56821 0.85345 0.9405 0.0
O856 O 0.50841 0.8405 0.94471 0.0
O857 O 0.53241 0.82464 0.9559 0.0
In858 In 0.90491 0.28535 0.17661 0.0
O859 O 0.90319 0.31748 0.18374 0.0
O860 O 0.87979 0.2993 0.192 0.0
C861 C 0.93921 0.28115 0.15939 0.0
C862 C 0.90947 0.265 0.20885 0.0
C863 C 0.88156 0.28186 0.14579 0.0
O864 O 0.93453 0.29632 0.16841 0.0
O865 O 0.92683 0.2678 0.15991 0.0
O866 O 0.88092 0.27017 0.15986 0.0
O867 O 0.8941 0.29496 0.14733 0.0
C868 C 0.88683 0.3161 0.19177 0.0
O869 O 0.90084 0.25807 0.19431 0.0
O870 O 0.91629 0.28173 0.20673 0.0
In871 In 0.45936 0.65343 0.42702 0.0
O872 O 0.48274 0.64488 0.44789 0.0
O873 O 0.46783 0.67145 0.45292 0.0
C874 C 0.46137 0.62645 0.39931 0.0
C875 C 0.42611 0.64148 0.44325 0.0
C876 C 0.46848 0.68312 0.4042 0.0
O877 O 0.47253 0.62622 0.41379 0.0
O878 O 0.44936 0.6401 0.39903 0.0
O879 O 0.45312 0.68276 0.41413 0.0
O880 O 0.47986 0.6692 0.40718 0.0
C881 C 0.48026 0.65942 0.45865 0.0
O882 O 0.42664 0.65583 0.43193 0.0
O883 O 0.44219 0.63368 0.4464 0.0
In884 In 0.588 0.70444 0.67771 0.0
O885 O 0.59835 0.72693 0.69883 0.0
O886 O 0.57183 0.71239 0.70492 0.0
C887 C 0.61298 0.70665 0.64815 0.0
C888 C 0.60165 0.67146 0.69302 0.0
C889 C 0.55663 0.7131 0.65703 0.0
O890 O 0.61254 0.71923 0.66141 0.0
O891 O 0.6008 0.69324 0.6499 0.0
O892 O 0.55817 0.69751 0.66648 0.0
O893 O 0.57037 0.72485 0.65933 0.0
C894 C 0.58454 0.72421 0.71044 0.0
O895 O 0.58581 0.67197 0.68392 0.0
O896 O 0.61009 0.6875 0.69448 0.0
In897 In 0.95114 0.83537 0.56755 0.0
O898 O 0.91844 0.83495 0.56213 0.0
O899 O 0.93544 0.85626 0.54808 0.0
C900 C 0.95817 0.80309 0.58761 0.0
C901 C 0.97281 0.83159 0.53611 0.0
C902 C 0.95379 0.8614 0.5962 0.0
O903 O 0.94312 0.80526 0.57746 0.0
O904 O 0.97001 0.8169 0.58675 0.0
O905 O 0.96646 0.85999 0.58314 0.0
O906 O 0.94011 0.84948 0.59488 0.0
C907 C 0.91888 0.84942 0.55097 0.0
O908 O 0.97502 0.84526 0.54798 0.0
O909 O 0.96019 0.81923 0.54057 0.0
In910 In 0.90214 0.2034 0.31309 0.0
O911 O 0.89738 0.23048 0.29547 0.0
O912 O 0.91523 0.20822 0.28371 0.0
C913 C 0.87642 0.20576 0.34208 0.0
C914 C 0.88716 0.17141 0.29712 0.0
C915 C 0.93461 0.21035 0.33283 0.0
O916 O 0.87613 0.21719 0.3278 0.0
O917 O 0.88975 0.19338 0.34166 0.0
O918 O 0.93185 0.19479 0.32366 0.0
O919 O 0.92132 0.22267 0.33112 0.0
C920 C 0.90758 0.22459 0.28152 0.0
O921 O 0.90289 0.17108 0.30644 0.0
O922 O 0.8793 0.18779 0.29593 0.0
In923 In 0.08246 0.28484 0.81551 0.0
O924 O 0.08601 0.31588 0.80482 0.0
O925 O 0.10843 0.2956 0.79907 0.0
C926 C 0.05045 0.28283 0.83689 0.0
C927 C 0.07227 0.26395 0.78494 0.0
C928 C 0.10722 0.28099 0.84503 0.0
O929 O 0.05523 0.29807 0.82792 0.0
O930 O 0.06132 0.26849 0.83407 0.0
O931 O 0.10676 0.26899 0.83121 0.0
O932 O 0.09526 0.29467 0.84376 0.0
C933 C 0.10241 0.31271 0.79733 0.0
O934 O 0.08257 0.25703 0.79837 0.0
O935 O 0.06696 0.28122 0.78719 0.0
In936 In 0.56542 0.03449 0.15589 0.0
O937 O 0.55516 0.06595 0.15847 0.0
O938 O 0.54724 0.0495 0.13371 0.0
C939 C 0.58647 0.02581 0.18697 0.0
C940 C 0.53483 0.01175 0.15887 0.0
C941 C 0.59491 0.03613 0.13087 0.0
O942 O 0.57684 0.04132 0.18575 0.0
O943 O 0.58437 0.01432 0.17297 0.0
O944 O 0.58301 0.02226 0.13096 0.0
O945 O 0.59189 0.04891 0.14351 0.0
C946 C 0.54639 0.06546 0.1424 0.0
O947 O 0.54703 0.0099 0.14541 0.0
O948 O 0.53876 0.02434 0.17147 0.0
In949 In 0.20982 0.8122 0.40595 0.0
O950 O 0.23448 0.79339 0.39622 0.0
O951 O 0.22016 0.78626 0.42266 0.0
C952 C 0.20853 0.84101 0.38008 0.0
C953 C 0.17862 0.79317 0.39297 0.0
C954 C 0.21683 0.83444 0.43667 0.0
O955 O 0.22224 0.82893 0.38035 0.0
O956 O 0.19573 0.8384 0.39276 0.0
O957 O 0.20209 0.8237 0.43554 0.0
O958 O 0.22863 0.83278 0.42285 0.0
C959 C 0.23271 0.78178 0.41021 0.0
O960 O 0.17818 0.8029 0.40845 0.0
O961 O 0.19474 0.79291 0.38457 0.0
In962 In 0.42287 0.45764 0.655 0.0
O963 O 0.42575 0.42479 0.65605 0.0
O964 O 0.43968 0.44032 0.63332 0.0
C965 C 0.40419 0.46775 0.6872 0.0
C966 C 0.45633 0.47532 0.66045 0.0
C967 C 0.39466 0.46028 0.62854 0.0
O968 O 0.41233 0.45151 0.68528 0.0
O969 O 0.40627 0.4791 0.67308 0.0
O970 O 0.40954 0.47089 0.62789 0.0
O971 O 0.39394 0.44898 0.64282 0.0
C972 C 0.43594 0.42414 0.64086 0.0
O973 O 0.4432 0.48275 0.65012 0.0
O974 O 0.45228 0.45939 0.6683 0.0
In975 In 0.77773 0.67891 0.90754 0.0
O976 O 0.81014 0.68524 0.91031 0.0
O977 O 0.79466 0.69709 0.88657 0.0
C978 C 0.76859 0.6559 0.93709 0.0
C979 C 0.75703 0.71064 0.91324 0.0
C980 C 0.77655 0.65092 0.88087 0.0
O981 O 0.78402 0.6657 0.93675 0.0
O982 O 0.75715 0.65909 0.92323 0.0
O983 O 0.7649 0.665 0.88046 0.0
O984 O 0.78857 0.6512 0.89455 0.0
C985 C 0.81067 0.69518 0.89495 0.0
O986 O 0.75406 0.69945 0.89912 0.0
O987 O 0.7697 0.70517 0.92515 0.0
In988 In 0.56833 0.96042 0.83243 0.0
O989 O 0.56122 0.92826 0.83416 0.0
O990 O 0.55167 0.94657 0.85692 0.0
C991 C 0.5881 0.9631 0.79937 0.0
C992 C 0.53711 0.98113 0.82413 0.0
C993 C 0.59694 0.96555 0.85812 0.0
O994 O 0.57867 0.94817 0.80402 0.0
O995 O 0.5868 0.97696 0.81113 0.0
O996 O 0.58186 0.97586 0.85823 0.0
O997 O 0.59752 0.95294 0.84499 0.0
C998 C 0.55238 0.9297 0.8501 0.0
O999 O 0.55112 0.98824 0.83342 0.0
O1000 O 0.53914 0.96386 0.81883 0.0
In1001 In 0.27909 0.81324 0.08758 0.0
O1002 O 0.31164 0.80725 0.08656 0.0
O1003 O 0.2949 0.79429 0.10881 0.0
C1004 C 0.27139 0.83531 0.05698 0.0
C1005 C 0.25794 0.78214 0.08032 0.0
C1006 C 0.27701 0.84169 0.1137 0.0
O1007 O 0.28665 0.8253 0.05825 0.0
O1008 O 0.25951 0.83305 0.07065 0.0
O1009 O 0.26568 0.82736 0.11427 0.0
O1010 O 0.28912 0.84148 0.1001 0.0
C1011 C 0.31134 0.79664 0.10145 0.0
O1012 O 0.25482 0.7928 0.09483 0.0
O1013 O 0.27127 0.78761 0.06917 0.0
In1014 In 0.42463 0.53147 0.33529 0.0
O1015 O 0.44294 0.50647 0.34523 0.0
O1016 O 0.45162 0.52169 0.31979 0.0
C1017 C 0.39498 0.53141 0.36024 0.0
C1018 C 0.44298 0.56222 0.35035 0.0
C1019 C 0.4038 0.5254 0.30332 0.0
O1020 O 0.40692 0.51762 0.35935 0.0
O1021 O 0.39798 0.54493 0.34838 0.0
O1022 O 0.41411 0.54034 0.30557 0.0
O1023 O 0.40517 0.51307 0.31669 0.0
C1024 C 0.4554 0.50875 0.3321 0.0
O1025 O 0.4345 0.56316 0.33416 0.0
O1026 O 0.44226 0.54592 0.3584 0.0
In1027 In 0.70776 0.67415 0.5831 0.0
O1028 O 0.67553 0.68158 0.58176 0.0
O1029 O 0.69261 0.6934 0.60443 0.0
C1030 C 0.7151 0.65307 0.5517 0.0
C1031 C 0.72988 0.70511 0.57882 0.0
C1032 C 0.70765 0.64486 0.60843 0.0
O1033 O 0.70025 0.66362 0.55314 0.0
O1034 O 0.72681 0.65431 0.56564 0.0
O1035 O 0.72093 0.65741 0.60837 0.0
O1036 O 0.69474 0.64726 0.59582 0.0
C1037 C 0.67617 0.69193 0.59683 0.0
O1038 O 0.73205 0.69347 0.59275 0.0
O1039 O 0.71722 0.70051 0.56652 0.0
In1040 In 0.65594 0.56298 0.53167 0.0
O1041 O 0.65519 0.55414 0.56348 0.0
O1042 O 0.63129 0.54695 0.54542 0.0
C1043 C 0.68784 0.58376 0.52603 0.0
C1044 C 0.66329 0.53112 0.51163 0.0
C1045 C 0.63119 0.59265 0.52981 0.0
O1046 O 0.68464 0.57478 0.54167 0.0
O1047 O 0.67548 0.58109 0.51289 0.0
O1048 O 0.63044 0.57878 0.51787 0.0
O1049 O 0.64437 0.59138 0.54233 0.0
C1050 C 0.63871 0.54631 0.56208 0.0
O1051 O 0.65262 0.54437 0.50491 0.0
O1052 O 0.67056 0.53437 0.52803 0.0
In1053 In 0.67621 0.90274 0.78417 0.0
O1054 O 0.69647 0.89903 0.75873 0.0
O1055 O 0.70564 0.91629 0.78266 0.0
C1056 C 0.64984 0.8746 0.78041 0.0
C1057 C 0.68729 0.89081 0.81933 0.0
C1058 C 0.6558 0.93382 0.77401 0.0
O1059 O 0.6662 0.87354 0.77235 0.0
O1060 O 0.64689 0.8899 0.78979 0.0
O1061 O 0.6648 0.93273 0.78989 0.0
O1062 O 0.6582 0.91964 0.76282 0.0
C1063 C 0.70962 0.90911 0.7664 0.0
O1064 O 0.6762 0.90515 0.81713 0.0
O1065 O 0.69302 0.88305 0.80387 0.0
In1066 In 0.33261 0.92269 0.03392 0.0
O1067 O 0.33268 0.92803 0.06648 0.0
O1068 O 0.35514 0.94032 0.04942 0.0
C1069 C 0.29953 0.90334 0.02917 0.0
C1070 C 0.3273 0.95402 0.01226 0.0
C1071 C 0.35893 0.89426 0.03182 0.0
O1072 O 0.30279 0.91379 0.04379 0.0
O1073 O 0.31262 0.90361 0.01649 0.0
O1074 O 0.35956 0.90884 0.02079 0.0
O1075 O 0.34485 0.89398 0.04332 0.0
C1076 C 0.34806 0.93786 0.06603 0.0
O1077 O 0.33608 0.93934 0.00589 0.0
O1078 O 0.32081 0.95256 0.02923 0.0
In1079 In 0.31267 0.58128 0.27906 0.0
O1080 O 0.30408 0.57883 0.311 0.0
O1081 O 0.29279 0.60205 0.29439 0.0
C1082 C 0.33495 0.55043 0.27275 0.0
C1083 C 0.28322 0.57727 0.25473 0.0
C1084 C 0.34161 0.60693 0.28062 0.0
O1085 O 0.32322 0.55132 0.28675 0.0
O1086 O 0.33423 0.56454 0.2612 0.0
O1087 O 0.32962 0.60687 0.26681 0.0
O1088 O 0.33877 0.59423 0.29336 0.0
C1089 C 0.29383 0.59394 0.31065 0.0
O1090 O 0.29463 0.59148 0.25391 0.0
O1091 O 0.28722 0.56466 0.26729 0.0
In1092 In 0.66042 0.42281 0.45824 0.0
O1093 O 0.65744 0.44201 0.48465 0.0
O1094 O 0.67341 0.45237 0.46027 0.0
C1095 C 0.63493 0.39383 0.46224 0.0
C1096 C 0.64313 0.43808 0.42714 0.0
C1097 C 0.69349 0.40351 0.46302 0.0
O1098 O 0.63531 0.40803 0.47377 0.0
O1099 O 0.6476 0.39426 0.44917 0.0
O1100 O 0.68956 0.41271 0.44771 0.0
O1101 O 0.68116 0.40516 0.47633 0.0
C1102 C 0.66661 0.45576 0.47683 0.0
O1103 O 0.65858 0.42841 0.42574 0.0
O1104 O 0.63659 0.43979 0.44407 0.0
In1105 In 0.81592 0.90719 0.70918 0.0
O1106 O 0.8098 0.90718 0.6767 0.0
O1107 O 0.79869 0.88421 0.69391 0.0
C1108 C 0.83575 0.9399 0.71477 0.0
C1109 C 0.78414 0.9129 0.72998 0.0
C1110 C 0.84432 0.88091 0.71146 0.0
O1111 O 0.82586 0.93687 0.6997 0.0
O1112 O 0.83478 0.92674 0.72736 0.0
O1113 O 0.82999 0.8806 0.7228 0.0
O1114 O 0.84433 0.89462 0.69946 0.0
C1115 C 0.80039 0.89152 0.67729 0.0
O1116 O 0.79831 0.90347 0.73657 0.0
O1117 O 0.78638 0.91989 0.71329 0.0
In1118 In 0.33516 0.05986 0.9532 0.0
O1119 O 0.33568 0.05483 0.92058 0.0
O1120 O 0.35911 0.04437 0.9376 0.0
C1121 C 0.30181 0.07802 0.96003 0.0
C1122 C 0.32999 0.027 0.97242 0.0
C1123 C 0.35981 0.08962 0.95661 0.0
O1124 O 0.30519 0.0693 0.94432 0.0
O1125 O 0.31503 0.0768 0.97251 0.0
O1126 O 0.36055 0.0751 0.96773 0.0
O1127 O 0.34645 0.0891 0.94424 0.0
C1128 C 0.35182 0.04627 0.92098 0.0
O1129 O 0.33937 0.04093 0.97962 0.0
O1130 O 0.32294 0.02994 0.95587 0.0
In1131 In 0.17529 0.58272 0.19943 0.0
O1132 O 0.17615 0.58136 0.16632 0.0
O1133 O 0.19392 0.60182 0.18071 0.0
C1134 C 0.15627 0.55069 0.20962 0.0
C1135 C 0.20837 0.57876 0.21856 0.0
C1136 C 0.14727 0.6093 0.20324 0.0
O1137 O 0.1654 0.55213 0.19384 0.0
O1138 O 0.15753 0.56522 0.22057 0.0
O1139 O 0.16175 0.60883 0.21437 0.0
O1140 O 0.14686 0.59613 0.19069 0.0
C1141 C 0.18804 0.59512 0.16486 0.0
O1142 O 0.19717 0.59289 0.22133 0.0
O1143 O 0.20257 0.56634 0.20654 0.0
In1144 In 0.03343 0.6549 0.06603 0.0
O1145 O 0.00884 0.64364 0.04792 0.0
O1146 O 0.02232 0.67015 0.03949 0.0
C1147 C 0.03614 0.63031 0.09594 0.0
C1148 C 0.06465 0.64188 0.04717 0.0
C1149 C 0.02503 0.68657 0.08639 0.0
O1150 O 0.02185 0.63013 0.08453 0.0
O1151 O 0.0487 0.64293 0.0922 0.0
O1152 O 0.03984 0.68547 0.0757 0.0
O1153 O 0.01401 0.67208 0.08569 0.0
C1154 C 0.01 0.65724 0.03576 0.0
O1155 O 0.06525 0.65712 0.05726 0.0
O1156 O 0.04839 0.6338 0.04641 0.0
In1157 In 0.53774 0.33228 0.42953 0.0
O1158 O 0.56984 0.32985 0.43747 0.0
O1159 O 0.55351 0.35343 0.44848 0.0
C1160 C 0.5291 0.30207 0.40723 0.0
C1161 C 0.51539 0.3277 0.46043 0.0
C1162 C 0.53759 0.35778 0.40033 0.0
O1163 O 0.54445 0.30276 0.41719 0.0
O1164 O 0.51764 0.316 0.40981 0.0
O1165 O 0.52442 0.35747 0.41302 0.0
O1166 O 0.55075 0.34543 0.40267 0.0
C1167 C 0.56966 0.34517 0.44748 0.0
O1168 O 0.51397 0.34216 0.44935 0.0
O1169 O 0.52761 0.31512 0.45544 0.0
In1170 In 0.90428 0.78158 0.67844 0.0
O1171 O 0.89459 0.75823 0.69895 0.0
O1172 O 0.92119 0.77267 0.70489 0.0
C1173 C 0.87916 0.78002 0.64897 0.0
C1174 C 0.89088 0.81423 0.69471 0.0
C1175 C 0.93515 0.77367 0.65682 0.0
O1176 O 0.8791 0.76758 0.66239 0.0
O1177 O 0.89174 0.79307 0.65064 0.0
O1178 O 0.93385 0.78891 0.66685 0.0
O1179 O 0.92153 0.76178 0.65913 0.0
C1180 C 0.90879 0.76042 0.71019 0.0
O1181 O 0.90661 0.81388 0.68543 0.0
O1182 O 0.88243 0.79819 0.69595 0.0
In1183 In 0.45456 0.15833 0.92785 0.0
O1184 O 0.47887 0.15074 0.948 0.0
O1185 O 0.46134 0.17519 0.95494 0.0
C1186 C 0.4593 0.13323 0.8987 0.0
C1187 C 0.42264 0.14232 0.94332 0.0
C1188 C 0.46065 0.1906 0.90763 0.0
O1189 O 0.4702 0.1332 0.91337 0.0
O1190 O 0.44623 0.14588 0.89883 0.0
O1191 O 0.44535 0.18777 0.91724 0.0
O1192 O 0.47335 0.17765 0.90949 0.0
C1193 C 0.475 0.16414 0.95977 0.0
O1194 O 0.42176 0.1572 0.93275 0.0
O1195 O 0.43942 0.13599 0.9461 0.0
In1196 In 0.58331 0.20229 0.1779 0.0
O1197 O 0.58413 0.16957 0.18183 0.0
O1198 O 0.60662 0.18646 0.1943 0.0
C1199 C 0.54975 0.20814 0.15963 0.0
C1200 C 0.57774 0.22202 0.21043 0.0
C1201 C 0.60903 0.20675 0.14913 0.0
O1202 O 0.55348 0.19265 0.16858 0.0
O1203 O 0.56276 0.22084 0.16059 0.0
O1204 O 0.6093 0.21719 0.16413 0.0
O1205 O 0.59552 0.19457 0.1486 0.0
C1206 C 0.59975 0.16986 0.19131 0.0
O1207 O 0.58636 0.22933 0.19607 0.0
O1208 O 0.57165 0.20502 0.20814 0.0
In1209 In 0.95961 0.33948 0.07147 0.0
O1210 O 0.92724 0.33689 0.06495 0.0
O1211 O 0.94337 0.35948 0.05171 0.0
C1212 C 0.96893 0.30884 0.09289 0.0
C1213 C 0.98087 0.33531 0.03984 0.0
C1214 C 0.95872 0.36567 0.10003 0.0
O1215 O 0.95386 0.30938 0.08253 0.0
O1216 O 0.97986 0.32334 0.0913 0.0
O1217 O 0.9718 0.36578 0.08724 0.0
O1218 O 0.94644 0.35235 0.09832 0.0
C1219 C 0.92722 0.35146 0.05388 0.0
O1220 O 0.9833 0.34925 0.05141 0.0
O1221 O 0.96858 0.32287 0.04498 0.0
In1222 In 0.90258 0.70691 0.8184 0.0
O1223 O 0.9031 0.67447 0.81151 0.0
O1224 O 0.8807 0.69174 0.79964 0.0
C1225 C 0.93412 0.7133 0.83971 0.0
C1226 C 0.90822 0.72833 0.787 0.0
C1227 C 0.87684 0.70951 0.84728 0.0
O1228 O 0.93195 0.69816 0.82967 0.0
O1229 O 0.92086 0.72567 0.83787 0.0
O1230 O 0.87757 0.72187 0.83382 0.0
O1231 O 0.88905 0.69607 0.84605 0.0
C1232 C 0.88801 0.67519 0.80123 0.0
O1233 O 0.89421 0.73116 0.79835 0.0
O1234 O 0.91991 0.7153 0.79205 0.0
In1235 In 0.0905 0.78025 0.31346 0.0
O1236 O 0.08947 0.8116 0.30341 0.0
O1237 O 0.1142 0.79516 0.29618 0.0
C1238 C 0.05912 0.78245 0.3358 0.0
C1239 C 0.08457 0.75651 0.28365 0.0
C1240 C 0.11528 0.77692 0.34316 0.0
O1241 O 0.06251 0.79413 0.3222 0.0
O1242 O 0.07033 0.76808 0.33639 0.0
O1243 O 0.11265 0.76318 0.3314 0.0
O1244 O 0.10584 0.79201 0.33959 0.0
C1245 C 0.10578 0.81126 0.29537 0.0
O1246 O 0.09905 0.75506 0.29458 0.0
O1247 O 0.07234 0.76897 0.28869 0.0
C1248 C 0.10062 0.52453 0.09672 0.0
C1249 C 0.10728 0.52858 0.11542 0.0
C1250 C 0.11181 0.52911 0.08053 0.0
C1251 C 0.13011 0.53778 0.08246 0.0
H1252 H 0.08618 0.51897 0.09448 0.0
H1253 H 0.1056 0.52665 0.06637 0.0
S1254 S 0.15571 0.54703 0.12863 0.0
N1255 N 0.13434 0.53883 0.13525 0.0
N1256 N 0.15559 0.54726 0.10473 0.0
C1257 C 0.13764 0.54022 0.10117 0.0
C1258 C 0.12614 0.53568 0.11768 0.0
C1259 C 0.68968 0.38665 0.34546 0.0
C1260 C 0.69799 0.38359 0.3272 0.0
C1261 C 0.69424 0.37466 0.36111 0.0
C1262 C 0.70742 0.35932 0.35911 0.0
H1263 H 0.67879 0.3977 0.34745 0.0
H1264 H 0.68676 0.37698 0.37467 0.0
S1265 S 0.7353 0.34715 0.31499 0.0
N1266 N 0.72156 0.3655 0.30847 0.0
N1267 N 0.73027 0.34307 0.33797 0.0
C1268 C 0.7169 0.35703 0.34131 0.0
C1269 C 0.71213 0.36914 0.32531 0.0
C1270 C 0.85246 0.94372 0.60372 0.0
C1271 C 0.855 0.95238 0.58554 0.0
C1272 C 0.86513 0.94767 0.61897 0.0
C1273 C 0.88061 0.96063 0.61664 0.0
H1274 H 0.84136 0.93294 0.60586 0.0
H1275 H 0.86324 0.93989 0.63243 0.0
S1276 S 0.89146 0.98949 0.57278 0.0
N1277 N 0.87266 0.97618 0.56667 0.0
N1278 N 0.89636 0.98382 0.59545 0.0
C1279 C 0.88232 0.97059 0.59902 0.0
C1280 C 0.86954 0.96639 0.58342 0.0
C1281 C 0.29255 0.10926 0.86723 0.0
C1282 C 0.27877 0.1241 0.86541 0.0
C1283 C 0.29689 0.09708 0.85167 0.0
C1284 C 0.28778 0.09951 0.83372 0.0
H1285 H 0.30074 0.10762 0.88047 0.0
H1286 H 0.30841 0.08668 0.85333 0.0
S1287 S 0.24831 0.1339 0.82242 0.0
N1288 N 0.25418 0.13875 0.84504 0.0
N1289 N 0.26254 0.116 0.81571 0.0
C1290 C 0.27283 0.11316 0.8322 0.0
C1291 C 0.26826 0.12544 0.8481 0.0
C1292 C 0.10678 0.46766 0.89884 0.0
C1293 C 0.10879 0.45924 0.88052 0.0
C1294 C 0.11902 0.46235 0.91407 0.0
C1295 C 0.13382 0.44865 0.9114 0.0
H1296 H 0.09488 0.47736 0.90181 0.0
H1297 H 0.11623 0.46831 0.92828 0.0
S1298 S 0.14705 0.42506 0.86513 0.0
N1299 N 0.1281 0.43848 0.85979 0.0
N1300 N 0.15125 0.42867 0.88836 0.0
C1301 C 0.13704 0.44147 0.89269 0.0
C1302 C 0.12444 0.44671 0.87725 0.0
C1303 C 0.77726 0.35908 0.13518 0.0
C1304 C 0.78998 0.35901 0.11937 0.0
C1305 C 0.78009 0.37165 0.15075 0.0
C1306 C 0.79563 0.38472 0.15098 0.0
H1307 H 0.76553 0.34877 0.13599 0.0
H1308 H 0.77044 0.37063 0.16303 0.0
S1309 S 0.83197 0.39156 0.11222 0.0
N1310 N 0.81779 0.37421 0.10412 0.0
N1311 N 0.82316 0.39769 0.13353 0.0
C1312 C 0.80777 0.38561 0.13476 0.0
C1313 C 0.80494 0.37277 0.11891 0.0
C1314 C 0.88532 0.02344 0.39591 0.0
C1315 C 0.87955 0.026 0.37664 0.0
C1316 C 0.87303 0.02847 0.41115 0.0
C1317 C 0.85449 0.03605 0.40765 0.0
H1318 H 0.89983 0.01869 0.39926 0.0
H1319 H 0.8785 0.02719 0.42577 0.0
S1320 S 0.83132 0.04167 0.3596 0.0
N1321 N 0.85334 0.034 0.35473 0.0
N1322 N 0.83001 0.04312 0.38341 0.0
C1323 C 0.84797 0.03707 0.38843 0.0
C1324 C 0.86059 0.03214 0.3729 0.0
C1325 C 0.21668 0.13515 0.64737 0.0
C1326 C 0.20641 0.13419 0.62991 0.0
C1327 C 0.21303 0.122 0.6623 0.0
C1328 C 0.19912 0.10732 0.66021 0.0
H1329 H 0.22678 0.1468 0.64999 0.0
H1330 H 0.22051 0.12396 0.67592 0.0
S1331 S 0.17073 0.0967 0.61601 0.0
N1332 N 0.18353 0.11601 0.61039 0.0
N1333 N 0.17676 0.09119 0.63845 0.0
C1334 C 0.18995 0.10522 0.64222 0.0
C1335 C 0.19355 0.11872 0.62707 0.0
C1336 C 0.09498 0.13172 0.53617 0.0
C1337 C 0.07688 0.12423 0.53094 0.0
C1338 C 0.11188 0.12121 0.53287 0.0
C1339 C 0.11133 0.10293 0.52402 0.0
H1340 H 0.09605 0.14524 0.54396 0.0
H1341 H 0.1254 0.12706 0.53814 0.0
S1342 S 0.06788 0.07833 0.50478 0.0
N1343 N 0.05958 0.09849 0.51441 0.0
N1344 N 0.09148 0.0788 0.50804 0.0
C1345 C 0.09354 0.09602 0.51721 0.0
C1346 C 0.07625 0.10666 0.52074 0.0
C1347 C 0.13385 0.32381 0.78373 0.0
C1348 C 0.11453 0.32795 0.7885 0.0
C1349 C 0.14655 0.33838 0.77783 0.0
C1350 C 0.14042 0.35766 0.77639 0.0
H1351 H 0.13951 0.30933 0.78543 0.0
H1352 H 0.16154 0.33464 0.77544 0.0
S1353 S 0.09047 0.37557 0.78404 0.0
N1354 N 0.0893 0.35232 0.78916 0.0
N1355 N 0.11309 0.37972 0.77782 0.0
C1356 C 0.12076 0.36175 0.77963 0.0
C1357 C 0.10784 0.3469 0.78578 0.0
C1358 C 0.87635 0.37059 0.05213 0.0
C1359 C 0.87742 0.3845 0.03729 0.0
C1360 C 0.89211 0.35867 0.05647 0.0
C1361 C 0.9095 0.36042 0.04623 0.0
H1362 H 0.86357 0.36948 0.06108 0.0
H1363 H 0.89105 0.34897 0.06872 0.0
S1364 S 0.91877 0.39232 0.00413 0.0
N1365 N 0.89652 0.39758 0.01083 0.0
N1366 N 0.92619 0.37533 0.01914 0.0
C1367 C 0.91028 0.3732 0.03044 0.0
C1368 C 0.8942 0.38521 0.02591 0.0
C1369 C 0.87183 0.11917 0.29338 0.0
C1370 C 0.85494 0.12027 0.28211 0.0
C1371 C 0.883 0.13562 0.29709 0.0
C1372 C 0.87749 0.15379 0.28995 0.0
H1373 H 0.87605 0.10567 0.30007 0.0
H1374 H 0.89545 0.13425 0.30643 0.0
S1375 S 0.83616 0.16393 0.25734 0.0
N1376 N 0.83456 0.1406 0.26196 0.0
N1377 N 0.85538 0.17155 0.26919 0.0
C1378 C 0.86143 0.15484 0.27754 0.0
C1379 C 0.85019 0.13806 0.27356 0.0
C1380 C 0.09941 0.86201 0.45201 0.0
C1381 C 0.08112 0.86891 0.4574 0.0
C1382 C 0.11601 0.87305 0.45519 0.0
C1383 C 0.11497 0.89129 0.46409 0.0
H1384 H 0.10086 0.84851 0.44425 0.0
H1385 H 0.12966 0.86761 0.44984 0.0
S1386 S 0.07089 0.91455 0.48356 0.0
N1387 N 0.06315 0.89413 0.474 0.0
N1388 N 0.09447 0.91481 0.48015 0.0
C1389 C 0.097 0.89766 0.47097 0.0
C1390 C 0.08002 0.88648 0.46756 0.0
C1391 C 0.37731 0.36948 0.69969 0.0
C1392 C 0.36072 0.36815 0.71141 0.0
C1393 C 0.3892 0.35343 0.69653 0.0
C1394 C 0.38479 0.33545 0.70479 0.0
H1395 H 0.38064 0.38278 0.69213 0.0
H1396 H 0.40118 0.35483 0.68657 0.0
S1397 S 0.34497 0.32507 0.73912 0.0
N1398 N 0.34201 0.34799 0.73328 0.0
N1399 N 0.36423 0.31778 0.72715 0.0
C1400 C 0.36917 0.3343 0.71774 0.0
C1401 C 0.35717 0.35068 0.72111 0.0
C1402 C 0.8678 0.62296 0.94109 0.0
C1403 C 0.86714 0.61021 0.95694 0.0
C1404 C 0.88361 0.63519 0.9382 0.0
C1405 C 0.89932 0.63504 0.951 0.0
H1406 H 0.85649 0.62283 0.93028 0.0
H1407 H 0.88416 0.64371 0.92511 0.0
S1408 S 0.90347 0.60651 -0.00382 0.0
N1409 N 0.88261 0.59983 0.98679 0.0
N1410 N 0.91242 0.62276 0.98118 0.0
C1411 C 0.89824 0.62343 0.96763 0.0
C1412 C 0.88208 0.61104 0.97067 0.0
C1413 C 0.62591 0.15375 0.21005 0.0
C1414 C 0.61043 0.15227 0.19695 0.0
C1415 C 0.63823 0.1381 0.21351 0.0
C1416 C 0.6356 0.12047 0.20386 0.0
H1417 H 0.62897 0.16733 0.2172 0.0
H1418 H 0.65042 0.14017 0.2231 0.0
S1419 S 0.59612 0.10847 0.16961 0.0
N1420 N 0.59229 0.13127 0.17543 0.0
N1421 N 0.61538 0.10183 0.18195 0.0
C1422 C 0.61951 0.11843 0.19159 0.0
C1423 C 0.60693 0.13434 0.18813 0.0
C1424 C 0.52836 0.08001 0.11496 0.0
C1425 C 0.53763 0.08248 0.13294 0.0
C1426 C 0.52321 0.09586 0.10355 0.0
C1427 C 0.52731 0.11471 0.10964 0.0
H1428 H 0.52592 0.0657 0.10915 0.0
H1429 H 0.51719 0.09324 0.08933 0.0
S1430 S 0.54726 0.12927 0.15716 0.0
N1431 N 0.54766 0.10542 0.15763 0.0
N1432 N 0.53825 0.13527 0.13589 0.0
C1433 C 0.53497 0.11751 0.12824 0.0
C1434 C 0.54004 0.10135 0.14 0.0
C1435 C 0.02241 0.90166 0.39177 0.0
C1436 C 0.02832 0.88283 0.38735 0.0
C1437 C 0.02673 0.91698 0.37928 0.0
C1438 C 0.03695 0.91389 0.36193 0.0
H1439 H 0.0158 0.90481 0.40561 0.0
H1440 H 0.02305 0.93148 0.38386 0.0
S1441 S 0.05152 0.8664 0.34197 0.0
N1442 N 0.04193 0.86131 0.36323 0.0
N1443 N 0.04994 0.89007 0.33959 0.0
C1444 C 0.04108 0.8948 0.35646 0.0
C1445 C 0.03682 0.87926 0.36927 0.0
C1446 C 0.33895 0.28005 0.62003 0.0
C1447 C 0.34 0.29527 0.60657 0.0
C1448 C 0.35395 0.27657 0.6331 0.0
C1449 C 0.37045 0.28832 0.63332 0.0
H1450 H 0.326 0.27136 0.62115 0.0
H1451 H 0.35207 0.2653 0.64381 0.0
S1452 S 0.38145 0.32835 0.5993 0.0
N1453 N 0.35977 0.32084 0.59284 0.0
N1454 N 0.38802 0.31436 0.61748 0.0
C1455 C 0.37235 0.30265 0.61897 0.0
C1456 C 0.3571 0.3061 0.60554 0.0
C1457 C 0.95999 0.59614 0.8891 0.0
C1458 C 0.95061 0.61382 0.886 0.0
C1459 C 0.9562 0.58022 0.87725 0.0
C1460 C 0.94308 0.58148 0.86177 0.0
H1461 H 0.96951 0.59423 0.90138 0.0
H1462 H 0.96304 0.56659 0.88077 0.0
S1463 S 0.91692 0.62541 0.84595 0.0
N1464 N 0.92923 0.63235 0.86515 0.0
N1465 N 0.92221 0.60239 0.84277 0.0
C1466 C 0.93472 0.59948 0.85762 0.0
C1467 C 0.93845 0.61567 0.8698 0.0
C1468 C 0.15465 0.71368 0.11646 0.0
C1469 C 0.152 0.70146 0.1004 0.0
C1470 C 0.13955 0.71753 0.12931 0.0
C1471 C 0.12134 0.7091 0.12667 0.0
H1472 H 0.16879 0.71951 0.11973 0.0
H1473 H 0.14256 0.72608 0.14208 0.0
S1474 S 0.1059 0.67902 0.08513 0.0
N1475 N 0.12902 0.68317 0.08114 0.0
N1476 N 0.10062 0.6903 0.10547 0.0
C1477 C 0.11802 0.69824 0.10982 0.0
C1478 C 0.13336 0.69446 0.0966 0.0
C1479 C 0.44339 0.88841 0.13572 0.0
C1480 C 0.45293 0.90604 0.13279 0.0
C1481 C 0.44676 0.87268 0.12346 0.0
C1482 C 0.45989 0.87401 0.10796 0.0
H1483 H 0.43229 0.88713 0.14668 0.0
H1484 H 0.43828 0.85971 0.12559 0.0
S1485 S 0.4911 0.916 0.09652 0.0
N1486 N 0.47789 0.9232 0.11502 0.0
N1487 N 0.48435 0.89358 0.09205 0.0
C1488 C 0.47077 0.89101 0.106 0.0
C1489 C 0.46725 0.90706 0.11841 0.0
C1490 C 0.34489 0.18564 0.88667 0.0
C1491 C 0.32677 0.19413 0.8835 0.0
C1492 C 0.36069 0.19036 0.87495 0.0
C1493 C 0.35897 0.20385 0.85979 0.0
H1494 H 0.34663 0.17444 0.89747 0.0
H1495 H 0.37413 0.1827 0.87728 0.0
S1496 S 0.31535 0.23241 0.84771 0.0
N1497 N 0.30851 0.2183 0.8657 0.0
N1498 N 0.33827 0.22728 0.84379 0.0
C1499 C 0.34133 0.21357 0.85752 0.0
C1500 C 0.3252 0.20865 0.86935 0.0
C1501 C 0.65735 0.28091 0.36555 0.0
C1502 C 0.65671 0.29504 0.38015 0.0
C1503 C 0.64135 0.27727 0.35378 0.0
C1504 C 0.62417 0.28775 0.35608 0.0
H1505 H 0.67061 0.27318 0.36257 0.0
H1506 H 0.64285 0.26691 0.34214 0.0
S1507 S 0.61414 0.32442 0.39392 0.0
N1508 N 0.63682 0.31811 0.39763 0.0
N1509 N 0.60668 0.31131 0.37545 0.0
C1510 C 0.62285 0.30092 0.37154 0.0
C1511 C 0.63915 0.30455 0.38362 0.0
C1512 C 0.12341 0.04661 0.61267 0.0
C1513 C 0.10887 0.03249 0.61103 0.0
C1514 C 0.13523 0.05132 0.59696 0.0
C1515 C 0.1328 0.04227 0.57896 0.0
H1516 H 0.12523 0.0546 0.62601 0.0
H1517 H 0.14565 0.06284 0.59869 0.0
S1518 S 0.09846 0.00269 0.56773 0.0
N1519 N 0.09399 0.00819 0.59052 0.0
N1520 N 0.1161 0.01719 0.56088 0.0
C1521 C 0.11913 0.02731 0.57744 0.0
C1522 C 0.10721 0.02237 0.59352 0.0
C1523 C 0.70821 0.87029 0.84 0.0
C1524 C 0.69193 0.88228 0.83829 0.0
C1525 C 0.71142 0.85936 0.85669 0.0
C1526 C 0.69834 0.85986 0.87221 0.0
H1527 H 0.71822 0.86881 0.82806 0.0
H1528 H 0.72376 0.84978 0.85703 0.0
S1529 S 0.65428 0.89017 0.87555 0.0
N1530 N 0.66323 0.89499 0.85395 0.0
N1531 N 0.66926 0.87451 0.88546 0.0
C1532 C 0.68255 0.87262 0.87113 0.0
C1533 C 0.67935 0.88383 0.85413 0.0
C1534 C 0.87606 0.46455 0.08132 0.0
C1535 C 0.85838 0.45476 0.08362 0.0
C1536 C 0.88733 0.4697 0.09727 0.0
C1537 C 0.88138 0.46511 0.11609 0.0
H1538 H 0.88178 0.46743 0.06702 0.0
H1539 H 0.90135 0.47614 0.09475 0.0
S1540 S 0.8345 0.44366 0.13031 0.0
N1541 N 0.83405 0.44362 0.10642 0.0
N1542 N 0.85548 0.45312 0.13648 0.0
C1543 C 0.86303 0.45689 0.11875 0.0
C1544 C 0.85144 0.45178 0.10248 0.0
C1545 C 0.29268 0.61277 0.36171 0.0
C1546 C 0.27974 0.62839 0.36033 0.0
C1547 C 0.29593 0.60046 0.34598 0.0
C1548 C 0.28653 0.60351 0.32826 0.0
H1549 H 0.30108 0.61057 0.37474 0.0
H1550 H 0.30689 0.58939 0.34734 0.0
S1551 S 0.249 0.64032 0.31808 0.0
N1552 N 0.25564 0.64464 0.34059 0.0
N1553 N 0.26196 0.62165 0.31093 0.0
C1554 C 0.27242 0.61807 0.32716 0.0
C1555 C 0.26896 0.63048 0.34325 0.0
C1556 C 0.12255 0.94461 0.37606 0.0
C1557 C 0.10851 0.95924 0.37749 0.0
C1558 C 0.13519 0.94072 0.39134 0.0
C1559 C 0.1341 0.95115 0.4087 0.0
H1560 H 0.12334 0.9356 0.36328 0.0
H1561 H 0.14515 0.92876 0.38992 0.0
S1562 S 0.10167 0.99254 0.4189 0.0
N1563 N 0.09561 0.98549 0.39692 0.0
N1564 N 0.11928 0.97803 0.42578 0.0
C1565 C 0.12097 0.9666 0.4099 0.0
C1566 C 0.1082 0.9707 0.39424 0.0
C1567 C 0.78111 0.86521 0.66218 0.0
C1568 C 0.79338 0.88126 0.65992 0.0
C1569 C 0.77664 0.85319 0.64656 0.0
C1570 C 0.78446 0.85667 0.62817 0.0
H1571 H 0.77549 0.86143 0.6763 0.0
H1572 H 0.76788 0.8405 0.64917 0.0
S1573 S 0.81513 0.89824 0.61395 0.0
N1574 N 0.81157 0.90117 0.63737 0.0
N1575 N 0.80328 0.87844 0.608 0.0
C1576 C 0.7957 0.87337 0.6254 0.0
C1577 C 0.80012 0.88573 0.64129 0.0
C1578 C 0.88197 0.52295 0.8967 0.0
C1579 C 0.8778 0.52886 0.87777 0.0
C1580 C 0.86965 0.52779 0.91198 0.0
C1581 C 0.85268 0.53854 0.9088 0.0
H1582 H 0.89545 0.51574 0.89997 0.0
H1583 H 0.87401 0.52392 0.92652 0.0
S1584 S 0.83352 0.55384 0.86111 0.0
N1585 N 0.85434 0.54342 0.8561 0.0
N1586 N 0.83101 0.55236 0.88483 0.0
C1587 C 0.84746 0.54287 0.88965 0.0
C1588 C 0.86011 0.53809 0.87411 0.0
C1589 C 0.209 0.61694 0.14558 0.0
C1590 C 0.19274 0.60481 0.14647 0.0
C1591 C 0.21185 0.62947 0.12996 0.0
C1592 C 0.19846 0.63042 0.11475 0.0
H1593 H 0.21918 0.61739 0.15747 0.0
H1594 H 0.22414 0.63913 0.13034 0.0
S1595 S 0.15448 0.60026 0.10925 0.0
N1596 N 0.16382 0.59351 0.13015 0.0
N1597 N 0.16926 0.61685 0.10061 0.0
C1598 C 0.18279 0.61746 0.11483 0.0
C1599 C 0.17992 0.60468 0.13075 0.0
C1600 C 0.09964 0.63422 0.0493 0.0
C1601 C 0.08198 0.63212 0.03962 0.0
C1602 C 0.11499 0.6216 0.04567 0.0
C1603 C 0.11323 0.60655 0.0321 0.0
H1604 H 0.10119 0.64471 0.06075 0.0
H1605 H 0.12797 0.62308 0.05427 0.0
S1606 S 0.07096 0.5971 0.00059 0.0
N1607 N 0.0643 0.61548 0.01425 0.0
N1608 N 0.09323 0.59184 0.00722 0.0
C1609 C 0.09621 0.60538 0.02112 0.0
C1610 C 0.08054 0.61814 0.02495 0.0
C1611 C 0.14454 0.84354 0.27439 0.0
C1612 C 0.13772 0.86209 0.2789 0.0
C1613 C 0.13357 0.82712 0.27879 0.0
C1614 C 0.11536 0.82872 0.28767 0.0
H1615 H 0.15893 0.8416 0.2686 0.0
H1616 H 0.13982 0.81306 0.27603 0.0
S1617 S 0.08979 0.87434 0.29938 0.0
N1618 N 0.11077 0.88133 0.29051 0.0
N1619 N 0.09007 0.85051 0.29864 0.0
C1620 C 0.10774 0.84729 0.29076 0.0
C1621 C 0.11897 0.86398 0.28641 0.0
C1622 C 0.88395 0.85731 0.55412 0.0
C1623 C 0.90142 0.85952 0.5441 0.0
C1624 C 0.86836 0.86968 0.55059 0.0
C1625 C 0.86965 0.88463 0.53683 0.0
H1626 H 0.88266 0.84675 0.56559 0.0
H1627 H 0.85552 0.86802 0.55937 0.0
S1628 S 0.91123 0.89438 0.50451 0.0
N1629 N 0.91838 0.87622 0.51823 0.0
N1630 N 0.88903 0.89943 0.51153 0.0
C1631 C 0.88651 0.886 0.52564 0.0
C1632 C 0.90242 0.87346 0.52931 0.0
C1633 C 0.88179 0.63973 0.80198 0.0
C1634 C 0.87804 0.65787 0.79374 0.0
C1635 C 0.86986 0.62388 0.79806 0.0
C1636 C 0.85389 0.62557 0.78557 0.0
H1637 H 0.8933 0.63801 0.81238 0.0
H1638 H 0.8727 0.61044 0.80556 0.0
S1639 S 0.83992 0.66919 0.75777 0.0
N1640 N 0.85873 0.67608 0.77069 0.0
N1641 N 0.83641 0.64624 0.76317 0.0
C1642 C 0.85098 0.64321 0.77598 0.0
C1643 C 0.86303 0.6594 0.78012 0.0
C1644 C 0.11477 0.36567 0.94405 0.0
C1645 C 0.11507 0.37898 0.95943 0.0
C1646 C 0.09852 0.3542 0.94048 0.0
C1647 C 0.08199 0.35577 0.95209 0.0
H1648 H 0.12679 0.36475 0.93409 0.0
H1649 H 0.09843 0.34509 0.92778 0.0
S1650 S 0.0765 0.38607 -0.00406 0.0
N1651 N 0.09828 0.39126 0.98778 0.0
N1652 N 0.06766 0.36981 0.98091 0.0
C1653 C 0.08264 0.3679 0.96837 0.0
C1654 C 0.09923 0.37947 0.97211 0.0
C1655 C 0.38344 0.85111 0.19116 0.0
C1656 C 0.38005 0.83344 0.20055 0.0
C1657 C 0.37164 0.86714 0.19467 0.0
C1658 C 0.35617 0.86614 0.20784 0.0
H1659 H 0.39455 0.85228 0.18021 0.0
H1660 H 0.3742 0.88017 0.18639 0.0
S1661 S 0.34325 0.82404 0.23838 0.0
N1662 N 0.36158 0.81646 0.22516 0.0
N1663 N 0.33952 0.84668 0.2319 0.0
C1664 C 0.35359 0.84901 0.21842 0.0
C1665 C 0.3655 0.83263 0.21472 0.0
C1666 C 0.88028 0.13364 0.43572 0.0
C1667 C 0.8976 0.13196 0.44609 0.0
C1668 C 0.86477 0.12123 0.43952 0.0
C1669 C 0.86602 0.10685 0.45391 0.0
H1670 H 0.87916 0.14365 0.42373 0.0
H1671 H 0.85207 0.12229 0.43043 0.0
S1672 S 0.90718 0.09904 0.48732 0.0
N1673 N 0.91434 0.11665 0.47292 0.0
N1674 N 0.88513 0.09345 0.48021 0.0
C1675 C 0.88267 0.10623 0.46549 0.0
C1676 C 0.89849 0.11876 0.46152 0.0
C1677 C 0.63924 0.6385 0.71475 0.0
C1678 C 0.63434 0.62041 0.70704 0.0
C1679 C 0.62784 0.65475 0.71106 0.0
C1680 C 0.61104 0.65348 0.69967 0.0
H1681 H 0.65256 0.64039 0.72272 0.0
H1682 H 0.63274 0.66859 0.71648 0.0
S1683 S 0.59022 0.60871 0.67898 0.0
N1684 N 0.61035 0.6016 0.68958 0.0
N1685 N 0.58883 0.63221 0.68273 0.0
C1686 C 0.60513 0.63518 0.69323 0.0
C1687 C 0.61683 0.61862 0.69689 0.0
C1688 C 0.55431 0.59828 0.6339 0.0
C1689 C 0.54268 0.58177 0.63233 0.0
C1690 C 0.55108 0.61441 0.62212 0.0
C1691 C 0.536 0.61462 0.60847 0.0
H1692 H 0.56673 0.59831 0.64339 0.0
H1693 H 0.56101 0.62644 0.62315 0.0
S1694 S 0.49964 0.57602 0.60098 0.0
N1695 N 0.51423 0.56733 0.61773 0.0
N1696 N 0.50799 0.59771 0.59568 0.0
C1697 C 0.52336 0.59876 0.60784 0.0
C1698 C 0.52677 0.58229 0.61973 0.0
C1699 C 0.02192 0.3976 0.89189 0.0
C1700 C 0.03002 0.37954 0.88752 0.0
C1701 C 0.02589 0.41376 0.8804 0.0
C1702 C 0.03785 0.41232 0.86402 0.0
H1703 H 0.01345 0.39955 0.90491 0.0
H1704 H 0.02027 0.42764 0.8849 0.0
S1705 S 0.06002 0.36751 0.84475 0.0
N1706 N 0.04867 0.36058 0.86456 0.0
N1707 N 0.05594 0.39092 0.8428 0.0
C1708 C 0.04471 0.394 0.85861 0.0
C1709 C 0.04086 0.3776 0.87044 0.0
C1710 C 0.3466 0.7991 0.10812 0.0
C1711 C 0.32892 0.78972 0.11132 0.0
C1712 C 0.36249 0.79558 0.12012 0.0
C1713 C 0.36131 0.78247 0.13567 0.0
H1714 H 0.34785 0.81007 0.09703 0.0
H1715 H 0.37553 0.80387 0.11769 0.0
S1716 S 0.31916 0.75187 0.14806 0.0
N1717 N 0.3118 0.76507 0.1296 0.0
N1718 N 0.34171 0.7584 0.1521 0.0
C1719 C 0.34418 0.77189 0.13804 0.0
C1720 C 0.32797 0.77554 0.12588 0.0
C1721 C 0.95601 0.0825 0.36493 0.0
C1722 C 0.93968 0.08118 0.35293 0.0
C1723 C 0.95909 0.09865 0.37664 0.0
C1724 C 0.94582 0.11398 0.37693 0.0
H1725 H 0.96603 0.07053 0.36599 0.0
H1726 H 0.9714 0.0986 0.38629 0.0
S1727 S 0.90185 0.11844 0.34656 0.0
N1728 N 0.91102 0.09725 0.34066 0.0
N1729 N 0.9167 0.12769 0.36275 0.0
C1730 C 0.93015 0.11346 0.36395 0.0
C1731 C 0.92711 0.09702 0.3519 0.0
C1732 C 0.12507 0.20329 0.62407 0.0
C1733 C 0.12676 0.21254 0.64212 0.0
C1734 C 0.14116 0.20038 0.61223 0.0
C1735 C 0.15958 0.20643 0.61813 0.0
H1736 H 0.11135 0.19737 0.61946 0.0
H1737 H 0.13932 0.19222 0.599 0.0
S1738 S 0.1712 0.23404 0.66265 0.0
N1739 N 0.1478 0.22983 0.66422 0.0
N1740 N 0.17821 0.22429 0.64203 0.0
C1741 C 0.16121 0.21712 0.63539 0.0
C1742 C 0.14473 0.22022 0.64738 0.0
C1743 C 0.45649 0.40661 0.61726 0.0
C1744 C 0.44179 0.40604 0.63128 0.0
C1745 C 0.4604 0.39063 0.60555 0.0
C1746 C 0.44958 0.37357 0.60728 0.0
H1747 H 0.46463 0.41975 0.61484 0.0
H1748 H 0.47135 0.39202 0.59447 0.0
S1749 S 0.41087 0.36396 0.64313 0.0
N1750 N 0.41747 0.38647 0.64738 0.0
N1751 N 0.4247 0.3564 0.62523 0.0
C1752 C 0.43557 0.37241 0.62198 0.0
C1753 C 0.43172 0.38866 0.63405 0.0
C1754 C 0.35089 0.68589 0.38194 0.0
C1755 C 0.33323 0.69517 0.37837 0.0
C1756 C 0.36712 0.68983 0.37055 0.0
C1757 C 0.36631 0.70329 0.35528 0.0
H1758 H 0.35192 0.67471 0.39285 0.0
H1759 H 0.38014 0.68159 0.37319 0.0
S1760 S 0.32429 0.73379 0.34223 0.0
N1761 N 0.31646 0.7201 0.36013 0.0
N1762 N 0.34702 0.72757 0.33878 0.0
C1763 C 0.34917 0.71379 0.35261 0.0
C1764 C 0.3326 0.70969 0.36414 0.0
C1765 C 0.65854 0.7773 0.87429 0.0
C1766 C 0.6549 0.78865 0.8908 0.0
C1767 C 0.64369 0.77211 0.86163 0.0
C1768 C 0.62471 0.77825 0.86497 0.0
H1769 H 0.67316 0.77329 0.87046 0.0
H1770 H 0.64735 0.76449 0.84846 0.0
S1771 S 0.60675 0.80407 0.90828 0.0
N1772 N 0.63034 0.80286 0.91152 0.0
N1773 N 0.60238 0.79328 0.88746 0.0
C1774 C 0.62053 0.78794 0.88232 0.0
C1775 C 0.63565 0.79307 0.89536 0.0
C1776 C 0.609 0.53152 0.57588 0.0
C1777 C 0.62791 0.53843 0.57874 0.0
C1778 C 0.5972 0.52659 0.59153 0.0
C1779 C 0.60385 0.52854 0.61058 0.0
H1780 H 0.60291 0.53068 0.56148 0.0
H1781 H 0.58241 0.52237 0.5887 0.0
S1782 S 0.65321 0.54239 0.62586 0.0
N1783 N 0.65357 0.5443 0.60205 0.0
N1784 N 0.6312 0.53527 0.63151 0.0
C1785 C 0.62313 0.53403 0.61364 0.0
C1786 C 0.63523 0.53891 0.59769 0.0
C1787 C 0.19041 0.37669 0.85028 0.0
C1788 C 0.20084 0.37389 0.8331 0.0
C1789 C 0.19336 0.36475 0.86631 0.0
C1790 C 0.20695 0.34967 0.86579 0.0
H1791 H 0.17922 0.38758 0.85111 0.0
H1792 H 0.18438 0.36693 0.87894 0.0
S1793 S 0.23988 0.3381 0.82514 0.0
N1794 N 0.22668 0.35625 0.81712 0.0
N1795 N 0.23232 0.33384 0.84738 0.0
C1796 C 0.21843 0.34757 0.84918 0.0
C1797 C 0.21533 0.35967 0.83278 0.0
C1798 C 0.37295 0.95838 0.08176 0.0
C1799 C 0.35839 0.94434 0.0835 0.0
C1800 C 0.3853 0.96257 0.09721 0.0
C1801 C 0.38364 0.95266 0.11486 0.0
H1802 H 0.37532 0.96571 0.06812 0.0
H1803 H 0.39682 0.97289 0.09495 0.0
S1804 S 0.34663 0.91604 0.1275 0.0
N1805 N 0.34199 0.92169 0.10477 0.0
N1806 N 0.36523 0.9295 0.13384 0.0
C1807 C 0.36841 0.93943 0.11718 0.0
C1808 C 0.35574 0.93528 0.10148 0.0
C1809 C 0.7736 0.13042 0.3471 0.0
C1810 C 0.78308 0.12922 0.365 0.0
C1811 C 0.77813 0.11766 0.33209 0.0
C1812 C 0.79216 0.10317 0.3345 0.0
H1813 H 0.76333 0.14188 0.3443 0.0
H1814 H 0.77109 0.11969 0.31825 0.0
S1815 S 0.8192 0.0924 0.37953 0.0
N1816 N 0.80565 0.11119 0.38504 0.0
N1817 N 0.81419 0.08725 0.35676 0.0
C1818 C 0.80076 0.10097 0.35276 0.0
C1819 C 0.79621 0.11402 0.36803 0.0
C1820 C 0.63487 0.43665 0.39212 0.0
C1821 C 0.63243 0.44542 0.41024 0.0
C1822 C 0.62262 0.44115 0.37667 0.0
C1823 C 0.60762 0.45472 0.37876 0.0
H1824 H 0.64564 0.4255 0.39011 0.0
H1825 H 0.62446 0.43335 0.36323 0.0
S1826 S 0.59724 0.4839 0.42249 0.0
N1827 N 0.6154 0.46985 0.42887 0.0
N1828 N 0.59244 0.47842 0.39976 0.0
C1829 C 0.60597 0.46463 0.39639 0.0
C1830 C 0.61835 0.45992 0.41218 0.0
C1831 C 0.30542 0.37496 0.62393 0.0
C1832 C 0.29014 0.36156 0.62449 0.0
C1833 C 0.30929 0.38708 0.63966 0.0
C1834 C 0.29811 0.38606 0.65655 0.0
H1835 H 0.31502 0.37554 0.61158 0.0
H1836 H 0.32178 0.39647 0.639 0.0
S1837 S 0.25464 0.35575 0.66423 0.0
N1838 N 0.26236 0.34974 0.64247 0.0
N1839 N 0.26976 0.3724 0.67211 0.0
C1840 C 0.28198 0.37375 0.65679 0.0
C1841 C 0.27793 0.36153 0.64072 0.0
C1842 C 0.39205 0.02681 0.8897 0.0
C1843 C 0.38781 0.03467 0.87147 0.0
C1844 C 0.3797 0.02979 0.90542 0.0
C1845 C 0.36259 0.04057 0.90344 0.0
H1846 H 0.4055 0.01923 0.89213 0.0
H1847 H 0.38403 0.02424 0.91941 0.0
S1848 S 0.34353 0.06157 0.85792 0.0
N1849 N 0.36432 0.05175 0.85171 0.0
N1850 N 0.34101 0.05727 0.88127 0.0
C1851 C 0.35746 0.04724 0.88494 0.0
C1852 C 0.37012 0.04432 0.86895 0.0
C1853 C 0.71696 0.13608 0.14301 0.0
C1854 C 0.70942 0.1326 0.12451 0.0
C1855 C 0.71339 0.12326 0.15825 0.0
C1856 C 0.70233 0.10642 0.15547 0.0
H1857 H 0.72464 0.14935 0.14607 0.0
H1858 H 0.71859 0.12708 0.17252 0.0
S1859 S 0.68248 0.08907 0.10879 0.0
N1860 N 0.69264 0.10998 0.10353 0.0
N1861 N 0.68606 0.08574 0.13217 0.0
C1862 C 0.69615 0.10196 0.13664 0.0
C1863 C 0.69965 0.11512 0.12115 0.0
C1864 C 0.59595 0.14052 0.05503 0.0
C1865 C 0.5789 0.13859 0.04425 0.0
C1866 C 0.61218 0.12922 0.05079 0.0
C1867 C 0.61196 0.11575 0.03552 0.0
H1868 H 0.5964 0.14988 0.06757 0.0
H1869 H 0.62467 0.13042 0.06013 0.0
S1870 S 0.57182 0.10779 0.00094 0.0
N1871 N 0.56346 0.12406 0.01623 0.0
N1872 N 0.59401 0.10297 0.00813 0.0
C1873 C 0.59552 0.11491 0.02365 0.0
C1874 C 0.57896 0.12629 0.02807 0.0
C1875 C 0.61513 0.36877 0.2904 0.0
C1876 C 0.63127 0.36693 0.27815 0.0
C1877 C 0.60331 0.35291 0.29461 0.0
C1878 C 0.60736 0.33459 0.28693 0.0
H1879 H 0.61206 0.38238 0.29747 0.0
H1880 H 0.59164 0.35479 0.30486 0.0
S1881 S 0.64617 0.32268 0.25194 0.0
N1882 N 0.64933 0.34582 0.25667 0.0
N1883 N 0.62724 0.31595 0.26478 0.0
C1884 C 0.62261 0.33285 0.27361 0.0
C1885 C 0.63453 0.34905 0.26915 0.0
C1886 C 0.37228 0.36469 0.5426 0.0
C1887 C 0.37444 0.37999 0.52934 0.0
C1888 C 0.38745 0.35183 0.54631 0.0
C1889 C 0.40536 0.35405 0.5371 0.0
H1890 H 0.3591 0.36315 0.55088 0.0
H1891 H 0.38555 0.341 0.55743 0.0
S1892 S 0.41732 0.38957 0.49875 0.0
N1893 N 0.39497 0.39491 0.50505 0.0
N1894 N 0.42358 0.37094 0.51225 0.0
C1895 C 0.40715 0.36822 0.52262 0.0
C1896 C 0.39164 0.38116 0.51868 0.0
C1897 C 0.369 0.15275 0.78047 0.0
C1898 C 0.38185 0.15294 0.79622 0.0
C1899 C 0.35739 0.13666 0.77667 0.0
C1900 C 0.35808 0.12027 0.78862 0.0
H1901 H 0.36729 0.16545 0.77148 0.0
H1902 H 0.34712 0.1375 0.76489 0.0
S1903 S 0.39066 0.11275 0.83059 0.0
N1904 N 0.39562 0.1348 0.82296 0.0
N1905 N 0.37393 0.10446 0.81578 0.0
C1906 C 0.37174 0.11979 0.80368 0.0
C1907 C 0.38363 0.13616 0.80749 0.0
C1908 C 0.60026 0.89021 0.96477 0.0
C1909 C 0.6171 0.88958 0.95349 0.0
C1910 C 0.58487 0.87766 0.9611 0.0
C1911 C 0.58585 0.86391 0.94617 0.0
H1912 H 0.59856 0.90104 0.97593 0.0
H1913 H 0.57183 0.87922 0.9696 0.0
S1914 S 0.62755 0.85511 0.91374 0.0
N1915 N 0.63453 0.87304 0.9278 0.0
N1916 N 0.6055 0.84956 0.92087 0.0
C1917 C 0.60304 0.86235 0.93555 0.0
C1918 C 0.6187 0.87519 0.93921 0.0
C1919 C 0.88166 0.35169 0.19339 0.0
C1920 C 0.87592 0.33302 0.19884 0.0
C1921 C 0.87 0.36771 0.19732 0.0
C1922 C 0.85226 0.36569 0.20703 0.0
H1923 H 0.8948 0.35387 0.18523 0.0
H1924 H 0.8746 0.38169 0.19198 0.0
S1925 S 0.83208 0.32023 0.22691 0.0
N1926 N 0.85236 0.31363 0.2163 0.0
N1927 N 0.83051 0.34381 0.2238 0.0
C1928 C 0.84704 0.3473 0.21383 0.0
C1929 C 0.85885 0.33093 0.20968 0.0
C1930 C 0.39105 0.63456 0.4392 0.0
C1931 C 0.40803 0.63252 0.45008 0.0
C1932 C 0.375 0.6228 0.44281 0.0
C1933 C 0.37531 0.60873 0.45754 0.0
H1934 H 0.39056 0.6444 0.42703 0.0
H1935 H 0.36258 0.62416 0.43339 0.0
S1936 S 0.41524 0.6001 0.4922 0.0
N1937 N 0.42345 0.61714 0.47766 0.0
N1938 N 0.39321 0.59517 0.48458 0.0
C1939 C 0.39163 0.60772 0.46955 0.0
C1940 C 0.40803 0.61958 0.46576 0.0
C1941 C 0.11818 0.12304 0.70182 0.0
C1942 C 0.13512 0.125 0.71283 0.0
C1943 C 0.10616 0.13885 0.6983 0.0
C1944 C 0.11079 0.15727 0.70544 0.0
H1945 H 0.11454 0.10933 0.69521 0.0
H1946 H 0.09372 0.13679 0.68904 0.0
S1947 S 0.15229 0.16958 0.737 0.0
N1948 N 0.15495 0.14633 0.73244 0.0
N1949 N 0.13243 0.17622 0.72561 0.0
C1950 C 0.12703 0.1592 0.71748 0.0
C1951 C 0.13918 0.143 0.72126 0.0
C1952 C 0.04507 0.11019 0.61745 0.0
C1953 C 0.03052 0.10791 0.60342 0.0
C1954 C 0.04944 0.09538 0.63051 0.0
C1955 C 0.03958 0.0777 0.62975 0.0
H1956 H 0.05375 0.1232 0.61779 0.0
H1957 H 0.0615 0.09733 0.64028 0.0
S1958 S -0.00159 0.06551 0.59771 0.0
N1959 N 0.00474 0.08754 0.59111 0.0
N1960 N 0.01315 0.05951 0.61549 0.0
C1961 C 0.02403 0.07578 0.61681 0.0
C1962 C 0.01942 0.09097 0.60367 0.0
C1963 C 0.53586 0.91584 0.87901 0.0
C1964 C 0.54458 0.91293 0.86084 0.0
C1965 C 0.5306 0.90022 0.89077 0.0
C1966 C 0.53399 0.88116 0.8848 0.0
H1967 H 0.53376 0.93029 0.8846 0.0
H1968 H 0.52491 0.90315 0.90506 0.0
S1969 S 0.55349 0.8656 0.83737 0.0
N1970 N 0.55421 0.88942 0.83655 0.0
N1971 N 0.54439 0.86008 0.85872 0.0
C1972 C 0.54143 0.878 0.86615 0.0
C1973 C 0.54672 0.89389 0.85414 0.0
C1974 C 0.86934 0.2954 0.11468 0.0
C1975 C 0.86736 0.28192 0.12982 0.0
C1976 C 0.85435 0.29864 0.10148 0.0
C1977 C 0.83682 0.28861 0.1031 0.0
H1978 H 0.88215 0.3043 0.11361 0.0
H1979 H 0.85599 0.31006 0.09089 0.0
S1980 S 0.82562 0.24935 0.13784 0.0
N1981 N 0.84751 0.25656 0.14388 0.0
N1982 N 0.81927 0.2628 0.11918 0.0
C1983 C 0.8353 0.27391 0.11705 0.0
C1984 C 0.8506 0.27051 0.1304 0.0
C1985 C 0.46466 0.59181 0.39071 0.0
C1986 C 0.46056 0.61078 0.38498 0.0
C1987 C 0.45999 0.57622 0.37875 0.0
C1988 C 0.4512 0.57907 0.36059 0.0
H1989 H 0.47033 0.58889 0.40502 0.0
H1990 H 0.46243 0.56177 0.38426 0.0
S1991 S 0.44163 0.6264 0.33736 0.0
N1992 N 0.45007 0.63192 0.35898 0.0
N1993 N 0.44151 0.60256 0.33627 0.0
C1994 C 0.44875 0.5981 0.35397 0.0
C1995 C 0.45334 0.61399 0.36626 0.0
C1996 C 0.64125 0.68939 0.60478 0.0
C1997 C 0.65886 0.69917 0.60685 0.0
C1998 C 0.62598 0.69279 0.61757 0.0
C1999 C 0.62775 0.70624 0.63275 0.0
H2000 H 0.6397 0.67807 0.5941 0.0
H2001 H 0.61304 0.68413 0.61611 0.0
S2002 S 0.66978 0.73803 0.6421 0.0
N2003 N 0.67641 0.72459 0.62355 0.0
N2004 N 0.64762 0.73115 0.6475 0.0
C2005 C 0.64466 0.71734 0.63386 0.0
C2006 C 0.66027 0.71375 0.62093 0.0
C2007 C 0.9369 0.89248 0.63774 0.0
C2008 C 0.94715 0.9097 0.63481 0.0
C2009 C 0.94 0.87643 0.62584 0.0
C2010 C 0.95358 0.87703 0.61072 0.0
H2011 H 0.92551 0.89181 0.6484 0.0
H2012 H 0.93102 0.8638 0.62796 0.0
S2013 S 0.98628 0.91784 0.59912 0.0
N2014 N 0.97296 0.92578 0.61724 0.0
N2015 N 0.97893 0.89555 0.59494 0.0
C2016 C 0.96504 0.89365 0.60868 0.0
C2017 C 0.96176 0.91003 0.6207 0.0
C2018 C 0.86239 0.19173 0.37224 0.0
C2019 C 0.86124 0.20534 0.35711 0.0
C2020 C 0.84674 0.18848 0.38465 0.0
C2021 C 0.82939 0.19864 0.38223 0.0
H2022 H 0.87511 0.18279 0.37391 0.0
H2023 H 0.84778 0.177 0.39525 0.0
S2024 S 0.82008 0.23814 0.34722 0.0
N2025 N 0.84221 0.23086 0.34223 0.0
N2026 N 0.81276 0.2246 0.36544 0.0
C2027 C 0.82861 0.21338 0.36827 0.0
C2028 C 0.84456 0.21679 0.35573 0.0
C2029 C 0.13969 0.27122 0.85696 0.0
C2030 C 0.12208 0.28065 0.86031 0.0
C2031 C 0.15543 0.27404 0.86932 0.0
C2032 C 0.15409 0.28626 0.88554 0.0
H2033 H 0.14173 0.26259 0.84406 0.0
H2034 H 0.16905 0.26737 0.86552 0.0
S2035 S 0.10996 0.31128 0.90259 0.0
N2036 N 0.1033 0.30048 0.88239 0.0
N2037 N 0.13292 0.30573 0.9057 0.0
C2038 C 0.13605 0.29436 0.89 0.0
C2039 C 0.12003 0.29158 0.87733 0.0
C2040 C 0.6344 0.05932 0.1012 0.0
C2041 C 0.63442 0.04808 0.08432 0.0
C2042 C 0.62235 0.05463 0.11675 0.0
C2043 C 0.60998 0.03851 0.11595 0.0
H2044 H 0.64266 0.07256 0.10188 0.0
H2045 H 0.62203 0.0643 0.12906 0.0
S2046 S 0.60719 0.00272 0.07615 0.0
N2047 N 0.62296 0.0189 0.06855 0.0
N2048 N 0.60035 0.00998 0.09783 0.0
C2049 C 0.61109 0.02628 0.09978 0.0
C2050 C 0.6233 0.03112 0.08392 0.0
C2051 C 0.21175 0.86585 0.3316 0.0
C2052 C 0.19812 0.88082 0.3333 0.0
C2053 C 0.21594 0.85369 0.34721 0.0
C2054 C 0.20647 0.85594 0.36501 0.0
H2055 H 0.21875 0.86302 0.31789 0.0
H2056 H 0.22591 0.84186 0.34499 0.0
S2057 S 0.17144 0.8944 0.37776 0.0
N2058 N 0.17661 0.89841 0.3548 0.0
N2059 N 0.18436 0.87542 0.38414 0.0
C2060 C 0.1937 0.87156 0.36729 0.0
C2061 C 0.18957 0.88407 0.35143 0.0
C2062 C 0.35365 0.4412 0.59794 0.0
C2063 C 0.35723 0.44977 0.57989 0.0
C2064 C 0.36511 0.44568 0.61401 0.0
C2065 C 0.38045 0.45897 0.61261 0.0
H2066 H 0.34274 0.43009 0.5994 0.0
H2067 H 0.36251 0.43791 0.62736 0.0
S2068 S 0.3933 0.48796 0.56937 0.0
N2069 N 0.37538 0.47403 0.56211 0.0
N2070 N 0.39686 0.48253 0.59235 0.0
C2071 C 0.38306 0.46885 0.59506 0.0
C2072 C 0.37146 0.4642 0.57868 0.0
C2073 C 0.77284 0.64116 0.84647 0.0
C2074 C 0.77763 0.63624 0.86555 0.0
C2075 C 0.77737 0.62877 0.83114 0.0
C2076 C 0.78669 0.61097 0.8344 0.0
H2077 H 0.76662 0.65514 0.84322 0.0
H2078 H 0.77431 0.63361 0.81656 0.0
S2079 S 0.79882 0.59004 0.88229 0.0
N2080 N 0.78977 0.6115 0.88728 0.0
N2081 N 0.79809 0.58802 0.8585 0.0
C2082 C 0.79006 0.60523 0.85361 0.0
C2083 C 0.7856 0.61795 0.86919 0.0
C2084 C 0.60584 0.97266 0.89217 0.0
C2085 C 0.61133 0.96599 0.87383 0.0
C2086 C 0.6174 0.96916 0.90836 0.0
C2087 C 0.63494 0.959 0.90678 0.0
H2088 H 0.59192 0.97944 0.89431 0.0
H2089 H 0.61199 0.97354 0.92238 0.0
S2090 S 0.65776 0.9426 0.86117 0.0
N2091 N 0.63678 0.95164 0.85438 0.0
N2092 N 0.65869 0.94518 0.8849 0.0
C2093 C 0.6415 0.95401 0.88822 0.0
C2094 C 0.62962 0.95745 0.87171 0.0
C2095 C 0.27942 0.86343 0.16344 0.0
C2096 C 0.28806 0.88152 0.15992 0.0
C2097 C 0.27441 0.8511 0.14823 0.0
C2098 C 0.27801 0.85638 0.129 0.0
H2099 H 0.27735 0.85829 0.17809 0.0
H2100 H 0.26888 0.83686 0.15164 0.0
S2101 S 0.29646 0.90355 0.11173 0.0
N2102 N 0.29713 0.90523 0.13555 0.0
N2103 N 0.28796 0.88181 0.10695 0.0
C2104 C 0.28513 0.87498 0.12516 0.0
C2105 C 0.29008 0.88765 0.14064 0.0
C2106 C 0.35405 0.55201 0.38985 0.0
C2107 C 0.35521 0.54129 0.40704 0.0
C2108 C 0.36627 0.54795 0.37425 0.0
C2109 C 0.37989 0.53289 0.37525 0.0
H2110 H 0.34458 0.56442 0.38888 0.0
H2111 H 0.36564 0.55727 0.36168 0.0
S2112 S 0.38616 0.4985 0.41591 0.0
N2113 N 0.36924 0.51353 0.42335 0.0
N2114 N 0.39206 0.50572 0.39394 0.0
C2115 C 0.37998 0.52102 0.39174 0.0
C2116 C 0.36767 0.52528 0.40768 0.0
C2117 C 0.71144 0.61941 0.65656 0.0
C2118 C 0.69801 0.60427 0.65467 0.0
C2119 C 0.71548 0.6318 0.64109 0.0
C2120 C 0.70604 0.62963 0.62326 0.0
H2121 H 0.71835 0.62218 0.67033 0.0
H2122 H 0.72525 0.64378 0.64346 0.0
S2123 S 0.67142 0.59094 0.61008 0.0
N2124 N 0.67668 0.5867 0.63298 0.0
N2125 N 0.68418 0.61009 0.60391 0.0
C2126 C 0.69352 0.61383 0.62078 0.0
C2127 C 0.68953 0.60109 0.63649 0.0
C2128 C 0.59793 0.60458 0.52324 0.0
C2129 C 0.61637 0.60792 0.53092 0.0
C2130 C 0.58251 0.61684 0.52772 0.0
C2131 C 0.58501 0.63295 0.5399 0.0
H2132 H 0.59507 0.59176 0.51475 0.0
H2133 H 0.56831 0.61307 0.52236 0.0
S2134 S 0.63134 0.6499 0.56069 0.0
N2135 N 0.63695 0.62987 0.54906 0.0
N2136 N 0.60794 0.65298 0.55742 0.0
C2137 C 0.60375 0.6374 0.54623 0.0
C2138 C 0.61944 0.62484 0.54177 0.0
C2139 C 0.63196 0.82341 0.78472 0.0
C2140 C 0.61322 0.82585 0.79223 0.0
C2141 C 0.6433 0.83929 0.77945 0.0
C2142 C 0.63633 0.85819 0.7816 0.0
H2143 H 0.63832 0.80916 0.78369 0.0
H2144 H 0.658 0.83675 0.7748 0.0
S2145 S 0.58713 0.87235 0.79718 0.0
N2146 N 0.58733 0.84857 0.79907 0.0
N2147 N 0.60872 0.87846 0.78921 0.0
C2148 C 0.61712 0.8608 0.78763 0.0
C2149 C 0.60553 0.84461 0.79293 0.0
C2150 C 0.40928 0.8736 0.03076 0.0
C2151 C 0.4076 0.85703 0.04245 0.0
C2152 C 0.39316 0.88488 0.02619 0.0
C2153 C 0.37479 0.88011 0.03331 0.0
H2154 H 0.42329 0.87835 0.02568 0.0
H2155 H 0.39532 0.898 0.01794 0.0
S2156 S 0.36218 0.83678 0.06231 0.0
N2157 N 0.38577 0.8353 0.05934 0.0
N2158 N 0.35544 0.8566 0.05088 0.0
C2159 C 0.37268 0.86289 0.04393 0.0
C2160 C 0.3891 0.85131 0.04846 0.0
C2161 C 0.35525 0.6394 0.27319 0.0
C2162 C 0.35685 0.62162 0.2828 0.0
C2163 C 0.36778 0.65466 0.2775 0.0
C2164 C 0.3825 0.65257 0.29138 0.0
H2165 H 0.34363 0.6419 0.26301 0.0
H2166 H 0.36547 0.66841 0.2704 0.0
S2167 S 0.39417 0.60804 0.3188 0.0
N2168 N 0.37534 0.60212 0.30547 0.0
N2169 N 0.39896 0.63079 0.31348 0.0
C2170 C 0.38506 0.63445 0.30012 0.0
C2171 C 0.37219 0.61897 0.29587 0.0
C2172 C 0.60511 0.35108 0.44606 0.0
C2173 C 0.58726 0.35458 0.45496 0.0
C2174 C 0.62095 0.36317 0.44952 0.0
C2175 C 0.61952 0.37905 0.46219 0.0
H2176 H 0.60653 0.33976 0.43536 0.0
H2177 H 0.63409 0.36063 0.44144 0.0
S2178 S 0.57691 0.39203 0.49189 0.0
N2179 N 0.56976 0.3733 0.47898 0.0
N2180 N 0.59958 0.39591 0.48567 0.0
C2181 C 0.60228 0.38155 0.47256 0.0
C2182 C 0.58611 0.36934 0.46889 0.0
C2183 C 0.86533 0.83072 0.71388 0.0
C2184 C 0.88165 0.83211 0.70183 0.0
C2185 C 0.85404 0.84692 0.71812 0.0
C2186 C 0.85856 0.86508 0.71031 0.0
H2187 H 0.86071 0.81683 0.71941 0.0
H2188 H 0.84107 0.84494 0.72663 0.0
S2189 S 0.90132 0.87703 0.68034 0.0
N2190 N 0.90299 0.85353 0.68398 0.0
N2191 N 0.88168 0.88403 0.69185 0.0
C2192 C 0.87561 0.86696 0.69941 0.0
C2193 C 0.8872 0.85046 0.69521 0.0
C2194 C 0.37278 0.12037 0.94301 0.0
C2195 C 0.37458 0.10505 0.95632 0.0
C2196 C 0.38796 0.13336 0.93985 0.0
C2197 C 0.40551 0.13141 0.9498 0.0
H2198 H 0.35989 0.12185 0.93428 0.0
H2199 H 0.38631 0.14425 0.92872 0.0
S2200 S 0.41646 0.0958 0.9884 0.0
N2201 N 0.39445 0.09021 0.98121 0.0
N2202 N 0.42301 0.11456 0.97521 0.0
C2203 C 0.40697 0.11709 0.96418 0.0
C2204 C 0.39148 0.10393 0.96747 0.0
C2205 C 0.11643 0.62365 0.19145 0.0
C2206 C 0.13303 0.62519 0.20311 0.0
C2207 C 0.10447 0.63962 0.18813 0.0
C2208 C 0.10889 0.65773 0.19606 0.0
H2209 H 0.11307 0.61023 0.18415 0.0
H2210 H 0.09233 0.63802 0.17842 0.0
S2211 S 0.14885 0.6687 0.23006 0.0
N2212 N 0.15183 0.64569 0.22456 0.0
N2213 N 0.12952 0.67577 0.21806 0.0
C2214 C 0.12458 0.65912 0.20891 0.0
C2215 C 0.13662 0.64281 0.2125 0.0
C2216 C 0.03005 0.58463 0.12527 0.0
C2217 C 0.04688 0.58423 0.13663 0.0
C2218 C 0.0261 0.60016 0.11293 0.0
C2219 C 0.03897 0.61575 0.11135 0.0
H2220 H 0.02022 0.57246 0.12531 0.0
H2221 H 0.01333 0.59946 0.10392 0.0
S2222 S 0.08443 0.62225 0.13905 0.0
N2223 N 0.07589 0.60127 0.1465 0.0
N2224 N 0.0686 0.63049 0.12325 0.0
C2225 C 0.05533 0.61604 0.12345 0.0
C2226 C 0.05925 0.60026 0.13615 0.0
C2227 C 0.52965 0.4046 0.37355 0.0
C2228 C 0.54399 0.40411 0.35916 0.0
C2229 C 0.52687 0.38902 0.38611 0.0
C2230 C 0.53848 0.37246 0.38487 0.0
H2231 H 0.52109 0.4175 0.37576 0.0
H2232 H 0.51626 0.39043 0.39753 0.0
S2233 S 0.57621 0.36285 0.34797 0.0
N2234 N 0.56851 0.38487 0.343 0.0
N2235 N 0.56337 0.35552 0.3667 0.0
C2236 C 0.55193 0.37119 0.36964 0.0
C2237 C 0.55464 0.38703 0.35672 0.0
C2238 C 0.84623 0.77226 0.63703 0.0
C2239 C 0.86427 0.78084 0.63377 0.0
C2240 C 0.83057 0.77628 0.62491 0.0
C2241 C 0.83246 0.78887 0.60902 0.0
H2242 H 0.84381 0.7634 0.64972 0.0
H2243 H 0.81664 0.77024 0.62866 0.0
S2244 S 0.87775 0.81187 0.59217 0.0
N2245 N 0.88397 0.80017 0.61202 0.0
N2246 N 0.85449 0.80768 0.58914 0.0
C2247 C 0.85087 0.79607 0.60456 0.0
C2248 C 0.86681 0.79208 0.61701 0.0
C2249 C 0.46492 0.09919 0.88914 0.0
C2250 C 0.45981 0.11805 0.88385 0.0
C2251 C 0.46155 0.08372 0.87661 0.0
C2252 C 0.45312 0.08659 0.85828 0.0
H2253 H 0.47037 0.09617 0.90351 0.0
H2254 H 0.46475 0.0693 0.88176 0.0
S2255 S 0.4414 0.13396 0.83614 0.0
N2256 N 0.44879 0.13931 0.85819 0.0
N2257 N 0.4427 0.1102 0.83437 0.0
C2258 C 0.44963 0.10564 0.85217 0.0
C2259 C 0.4529 0.12139 0.86505 0.0
C2260 C 0.63934 0.19086 0.10654 0.0
C2261 C 0.6569 0.20043 0.10981 0.0
C2262 C 0.62346 0.19394 0.11868 0.0
C2263 C 0.62456 0.20678 0.13444 0.0
H2264 H 0.63817 0.18005 0.09528 0.0
H2265 H 0.61056 0.18546 0.11623 0.0
S2266 S 0.66627 0.23791 0.14699 0.0
N2267 N 0.67374 0.2251 0.12831 0.0
N2268 N 0.64386 0.23095 0.15107 0.0
C2269 C 0.64152 0.21763 0.13684 0.0
C2270 C 0.65771 0.21442 0.12454 0.0
C2271 C 0.96075 0.41509 0.12289 0.0
C2272 C 0.94681 0.41381 0.13765 0.0
C2273 C 0.96554 0.39904 0.11158 0.0
C2274 C 0.95641 0.38118 0.11449 0.0
H2275 H 0.96745 0.4288 0.11947 0.0
H2276 H 0.97564 0.40096 0.09978 0.0
S2277 S 0.92094 0.36951 0.15298 0.0
N2278 N 0.9255 0.39272 0.15594 0.0
N2279 N 0.93442 0.36252 0.13459 0.0
C2280 C 0.94347 0.37934 0.13008 0.0
C2281 C 0.9387 0.39567 0.14171 0.0
C2282 C 0.8274 0.71409 0.86937 0.0
C2283 C 0.82866 0.70202 0.88573 0.0
C2284 C 0.8435 0.71768 0.85772 0.0
C2285 C 0.86139 0.70918 0.86192 0.0
H2286 H 0.81364 0.72004 0.86493 0.0
H2287 H 0.84159 0.72614 0.84468 0.0
S2288 S 0.87326 0.67958 0.90499 0.0
N2289 N 0.84991 0.68388 0.90703 0.0
N2290 N 0.88022 0.69054 0.88497 0.0
C2291 C 0.86327 0.69846 0.87909 0.0
C2292 C 0.84688 0.69493 0.89108 0.0
C2293 C 0.16364 0.773 0.36725 0.0
C2294 C 0.16133 0.78503 0.38352 0.0
C2295 C 0.14809 0.76878 0.35504 0.0
C2296 C 0.12981 0.77665 0.35863 0.0
H2297 H 0.17781 0.76775 0.36323 0.0
H2298 H 0.15075 0.76063 0.34194 0.0
S2299 S 0.11524 0.80556 0.40129 0.0
N2300 N 0.13864 0.80215 0.40415 0.0
N2301 N 0.10944 0.79435 0.38103 0.0
C2302 C 0.12688 0.78711 0.37579 0.0
C2303 C 0.14266 0.79124 0.38834 0.0
C2304 C 0.12427 0.54162 0.22251 0.0
C2305 C 0.14086 0.53627 0.21208 0.0
C2306 C 0.10621 0.53417 0.21745 0.0
C2307 C 0.10443 0.52103 0.20209 0.0
H2308 H 0.12473 0.55357 0.23261 0.0
H2309 H 0.09347 0.54071 0.22374 0.0
S2310 S 0.14455 0.49678 0.17625 0.0
N2311 N 0.15519 0.513 0.19012 0.0
N2312 N 0.12126 0.49849 0.18097 0.0
C2313 C 0.12133 0.51253 0.1947 0.0
C2314 C 0.13967 0.52037 0.1996 0.0
C2315 C 0.72809 0.36997 0.44024 0.0
C2316 C 0.72041 0.35233 0.44675 0.0
C2317 C 0.72154 0.38742 0.44799 0.0
C2318 C 0.70751 0.38755 0.46265 0.0
H2319 H 0.73695 0.37052 0.42735 0.0
H2320 H 0.72557 0.40073 0.4408 0.0
S2321 S 0.68912 0.34499 0.48947 0.0
N2322 N 0.70259 0.33583 0.47205 0.0
N2323 N 0.69076 0.36867 0.48717 0.0
C2324 C 0.703 0.37002 0.47188 0.0
C2325 C 0.70935 0.35227 0.46372 0.0
C2326 C 0.88647 0.95659 0.71748 0.0
C2327 C 0.88703 0.96937 0.70171 0.0
C2328 C 0.86889 0.9492 0.72411 0.0
C2329 C 0.85151 0.95414 0.71483 0.0
H2330 H 0.89971 0.95048 0.72315 0.0
H2331 H 0.86928 0.93767 0.73469 0.0
S2332 S 0.84487 0.99192 0.67757 0.0
N2333 N 0.86845 0.99068 0.68075 0.0
N2334 N 0.83543 0.97618 0.69281 0.0
C2335 C 0.85166 0.96937 0.70148 0.0
C2336 C 0.86952 0.97722 0.69502 0.0
C2337 C 0.28339 0.12782 0.96535 0.0
C2338 C 0.27049 0.12859 0.94971 0.0
C2339 C 0.29138 0.11021 0.97118 0.0
C2340 C 0.28694 0.0931 0.96117 0.0
H2341 H 0.28917 0.14101 0.97146 0.0
H2342 H 0.30302 0.11054 0.98163 0.0
S2343 S 0.24894 0.08676 0.92414 0.0
N2344 N 0.24947 0.11023 0.92829 0.0
N2345 N 0.26516 0.07721 0.93879 0.0
C2346 C 0.27153 0.09329 0.94806 0.0
C2347 C 0.26305 0.11114 0.94244 0.0
C2348 C 0.13459 0.45841 0.78594 0.0
C2349 C 0.14086 0.44037 0.79277 0.0
C2350 C 0.11616 0.46536 0.79088 0.0
C2351 C 0.10343 0.4539 0.8018 0.0
H2352 H 0.14409 0.46727 0.77722 0.0
H2353 H 0.11192 0.47972 0.78635 0.0
S2354 S 0.11332 0.40547 0.82265 0.0
N2355 N 0.13326 0.4114 0.81109 0.0
N2356 N 0.09845 0.42371 0.81919 0.0
C2357 C 0.10951 0.4356 0.8081 0.0
C2358 C 0.12831 0.429 0.80384 0.0
C2359 C 0.7933 0.35396 0.02096 0.0
C2360 C 0.77919 0.35209 0.03542 0.0
C2361 C 0.79984 0.37221 0.01532 0.0
C2362 C 0.79262 0.38895 0.02427 0.0
H2363 H 0.801 0.34137 0.01578 0.0
H2364 H 0.81236 0.37296 0.00596 0.0
S2365 S 0.75069 0.39187 0.05722 0.0
N2366 N 0.75421 0.36851 0.054 0.0
N2367 N 0.76717 0.40283 0.04392 0.0
C2368 C 0.77617 0.38734 0.03592 0.0
C2369 C 0.76921 0.36879 0.04134 0.0
C2370 C 0.88242 0.02305 0.27535 0.0
C2371 C 0.88383 0.01212 0.2924 0.0
C2372 C 0.86467 0.03066 0.26951 0.0
C2373 C 0.84805 0.02772 0.28082 0.0
H2374 H 0.89537 0.02797 0.26806 0.0
H2375 H 0.86462 0.04103 0.25777 0.0
S2376 S 0.8431 0.99401 0.32206 0.0
N2377 N 0.86634 0.99378 0.31681 0.0
N2378 N 0.83301 0.00864 0.30614 0.0
C2379 C 0.84868 0.01375 0.29548 0.0
C2380 C 0.86668 0.00568 0.30118 0.0
C2381 C 0.2211 0.127 0.55126 0.0
C2382 C 0.21221 0.1445 0.54603 0.0
C2383 C 0.21479 0.1095 0.54341 0.0
C2384 C 0.19978 0.10909 0.52978 0.0
H2385 H 0.23132 0.12648 0.56311 0.0
H2386 H 0.22036 0.09617 0.54943 0.0
S2387 S 0.17595 0.1515 0.50734 0.0
N2388 N 0.19067 0.16079 0.52365 0.0
N2389 N 0.17921 0.12791 0.50834 0.0
C2390 C 0.19305 0.1267 0.52221 0.0
C2391 C 0.19919 0.14449 0.53051 0.0
C2392 C 0.21839 0.88679 0.44801 0.0
C2393 C 0.20371 0.88818 0.46193 0.0
C2394 C 0.22509 0.86876 0.44189 0.0
C2395 C 0.21689 0.85164 0.44917 0.0
H2396 H 0.22332 0.89956 0.44042 0.0
H2397 H 0.2349 0.86834 0.4297 0.0
S2398 S 0.18217 0.84768 0.48965 0.0
N2399 N 0.18455 0.87113 0.48602 0.0
N2400 N 0.19669 0.83718 0.47392 0.0
C2401 C 0.20441 0.85291 0.46508 0.0
C2402 C 0.1979 0.87128 0.47163 0.0
C2403 C 0.37044 0.45178 0.72495 0.0
C2404 C 0.35311 0.45778 0.71624 0.0
C2405 C 0.38815 0.45789 0.71747 0.0
C2406 C 0.38877 0.47045 0.70154 0.0
H2407 H 0.37051 0.44005 0.73532 0.0
H2408 H 0.40115 0.4507 0.72236 0.0
S2409 S 0.34736 0.49662 0.68 0.0
N2410 N 0.33755 0.48136 0.69551 0.0
N2411 N 0.37092 0.49361 0.68196 0.0
C2412 C 0.37168 0.47992 0.69603 0.0
C2413 C 0.35366 0.47334 0.70332 0.0
C2414 C 0.78547 0.61829 0.97145 0.0
C2415 C 0.78091 0.60149 0.96093 0.0
C2416 C 0.77899 0.63638 0.96522 0.0
C2417 C 0.76741 0.63808 0.94866 0.0
H2418 H 0.79606 0.61785 0.98296 0.0
H2419 H 0.78483 0.64917 0.97209 0.0
S2420 S 0.74641 0.59781 0.92022 0.0
N2421 N 0.76056 0.58718 0.93622 0.0
N2422 N 0.74778 0.62114 0.92486 0.0
C2423 C 0.75994 0.62112 0.94029 0.0
C2424 C 0.76688 0.60274 0.94637 0.0
C2425 C 0.61994 0.01513 0.19275 0.0
C2426 C 0.6033 0.02438 0.19984 0.0
C2427 C 0.63827 0.02108 0.19872 0.0
C2428 C 0.64035 0.03602 0.21226 0.0
H2429 H 0.61902 0.00524 0.18065 0.0
H2430 H 0.65075 0.01558 0.19105 0.0
S2431 S 0.60104 0.05934 0.24019 0.0
N2432 N 0.58984 0.04524 0.22457 0.0
N2433 N 0.62432 0.0559 0.23649 0.0
C2434 C 0.62381 0.04248 0.22217 0.0
C2435 C 0.60516 0.03675 0.21575 0.0
C2436 C 0.53779 0.22034 0.12822 0.0
C2437 C 0.53454 0.20901 0.14481 0.0
C2438 C 0.52955 0.21522 0.1105 0.0
C2439 C 0.5176 0.1989 0.10906 0.0
H2440 H 0.54872 0.23153 0.12826 0.0
H2441 H 0.5345 0.22251 0.09755 0.0
S2442 S 0.49912 0.16933 0.14979 0.0
N2443 N 0.5147 0.18432 0.15983 0.0
N2444 N 0.4986 0.17504 0.12661 0.0
C2445 C 0.51124 0.19005 0.12625 0.0
C2446 C 0.51996 0.195 0.1442 0.0
C2447 C 0.03104 0.78758 0.3827 0.0
C2448 C 0.04075 0.80325 0.39119 0.0
C2449 C 0.03669 0.78065 0.36439 0.0
C2450 C 0.05133 0.79006 0.35392 0.0
H2451 H 0.01932 0.78055 0.39031 0.0
H2452 H 0.02958 0.76809 0.35837 0.0
S2453 S 0.08052 0.83206 0.36984 0.0
N2454 N 0.06582 0.82758 0.38803 0.0
N2455 N 0.07505 0.81593 0.35322 0.0
C2456 C 0.06064 0.80604 0.36219 0.0
C2457 C 0.05566 0.81233 0.38096 0.0
C2458 C 0.44481 0.26797 0.62534 0.0
C2459 C 0.45191 0.27711 0.64207 0.0
C2460 C 0.45035 0.27433 0.60695 0.0
C2461 C 0.46345 0.28966 0.60485 0.0
H2462 H 0.43306 0.2577 0.62628 0.0
H2463 H 0.44273 0.2687 0.59449 0.0
S2464 S 0.49127 0.31315 0.64422 0.0
N2465 N 0.47622 0.29848 0.65547 0.0
N2466 N 0.48729 0.30998 0.62089 0.0
C2467 C 0.47332 0.29621 0.62141 0.0
C2468 C 0.46737 0.29002 0.64012 0.0
C2469 C 0.9623 0.69971 0.85704 0.0
C2470 C 0.94754 0.71358 0.85625 0.0
C2471 C 0.96928 0.69312 0.87483 0.0
C2472 C 0.96133 0.69996 0.89226 0.0
H2473 H 0.96685 0.6923 0.84402 0.0
H2474 H 0.97893 0.68082 0.8748 0.0
S2475 S 0.92751 0.74094 0.89775 0.0
N2476 N 0.92928 0.73773 0.87416 0.0
N2477 N 0.94199 0.72479 0.90765 0.0
C2478 C 0.94922 0.71616 0.89157 0.0
C2479 C 0.94238 0.72314 0.87345 0.0
C2480 C 0.04378 0.7234 0.12046 0.0
C2481 C 0.03736 0.71547 0.13805 0.0
C2482 C 0.03735 0.71585 0.10284 0.0
C2483 C 0.02407 0.70053 0.10246 0.0
H2484 H 0.05581 0.73339 0.12018 0.0
H2485 H 0.04457 0.72038 0.0897 0.0
S2486 S -0.00253 0.68058 0.14453 0.0
N2487 N 0.01326 0.6957 0.15403 0.0
N2488 N 0.00048 0.682 0.12088 0.0
C2489 C 0.01468 0.69549 0.1198 0.0
C2490 C 0.02154 0.70289 0.13773 0.0
C2491 C 0.47156 0.79499 0.1202 0.0
C2492 C 0.46356 0.78785 0.10292 0.0
C2493 C 0.4641 0.78932 0.13812 0.0
C2494 C 0.44885 0.77602 0.13918 0.0
H2495 H 0.48171 0.80689 0.11993 0.0
H2496 H 0.46883 0.79694 0.15095 0.0
S2497 S 0.42794 0.74834 0.0983 0.0
N2498 N 0.44319 0.76355 0.08807 0.0
N2499 N 0.42968 0.75216 0.12181 0.0
C2500 C 0.4434 0.76618 0.12222 0.0
C2501 C 0.45067 0.77231 0.10397 0.0
C2502 C 0.43927 0.2247 0.87244 0.0
C2503 C 0.44599 0.21647 0.8551 0.0
C2504 C 0.44644 0.2184 0.89026 0.0
C2505 C 0.46072 0.20403 0.89111 0.0
H2506 H 0.42667 0.23395 0.87246 0.0
H2507 H 0.43912 0.223 0.90331 0.0
S2508 S 0.48785 0.18377 0.84957 0.0
N2509 N 0.47108 0.19751 0.83966 0.0
N2510 N 0.48508 0.18608 0.87317 0.0
C2511 C 0.47014 0.19878 0.87387 0.0
C2512 C 0.46259 0.20492 0.85574 0.0
C2513 C 0.52516 0.29259 0.35463 0.0
C2514 C 0.53958 0.27857 0.35222 0.0
C2515 C 0.51922 0.29814 0.37314 0.0
C2516 C 0.52793 0.29011 0.38969 0.0
H2517 H 0.52 0.30081 0.34233 0.0
H2518 H 0.50971 0.31049 0.37436 0.0
S2519 S 0.56154 0.24864 0.39096 0.0
N2520 N 0.55848 0.25322 0.36772 0.0
N2521 N 0.54788 0.26435 0.40255 0.0
C2522 C 0.53989 0.27397 0.38741 0.0
C2523 C 0.54559 0.26799 0.36856 0.0
C2524 C 0.12104 0.0429 0.72212 0.0
C2525 C 0.13887 0.03674 0.71464 0.0
C2526 C 0.10375 0.03616 0.71418 0.0
C2527 C 0.1039 0.02285 0.69886 0.0
H2528 H 0.12034 0.05482 0.73224 0.0
H2529 H 0.0904 0.04305 0.71853 0.0
S2530 S 0.14674 -0.00272 0.67946 0.0
N2531 N 0.15562 0.01309 0.69494 0.0
N2532 N 0.12307 -0.00013 0.68038 0.0
C2533 C 0.12148 0.01392 0.694 0.0
C2534 C 0.13908 0.02106 0.70183 0.0
C2535 C 0.69658 0.86016 0.9717 0.0
C2536 C 0.71054 0.8575 0.95723 0.0
C2537 C 0.69111 0.87874 0.9774 0.0
C2538 C 0.69916 0.89512 0.96842 0.0
H2539 H 0.68832 0.84799 0.97705 0.0
H2540 H 0.67877 0.88013 0.98691 0.0
S2541 S 0.74073 0.89575 0.93487 0.0
N2542 N 0.73601 0.87262 0.93819 0.0
N2543 N 0.72504 0.90758 0.94837 0.0
C2544 C 0.71532 0.8926 0.95653 0.0
C2545 C 0.72122 0.87369 0.95105 0.0
C2546 C 0.8485 0.47141 0.19821 0.0
C2547 C 0.84749 0.45656 0.21202 0.0
C2548 C 0.86626 0.47959 0.19321 0.0
C2549 C 0.88345 0.47273 0.20158 0.0
H2550 H 0.83594 0.47513 0.18966 0.0
H2551 H 0.86669 0.4892 0.18085 0.0
S2552 S 0.88758 0.43918 0.24302 0.0
N2553 N 0.86433 0.43943 0.23776 0.0
N2554 N 0.89785 0.45433 0.22771 0.0
C2555 C 0.88216 0.46054 0.21771 0.0
C2556 C 0.86403 0.45251 0.2231 0.0
C2557 C 0.26578 0.61938 0.44294 0.0
C2558 C 0.27405 0.63711 0.44834 0.0
C2559 C 0.27261 0.60211 0.45089 0.0
C2560 C 0.28762 0.60228 0.46456 0.0
H2561 H 0.2561 0.61853 0.43066 0.0
H2562 H 0.26794 0.58863 0.44446 0.0
S2563 S 0.30795 0.64547 0.4888 0.0
N2564 N 0.29353 0.65421 0.47193 0.0
N2565 N 0.30599 0.62175 0.48739 0.0
C2566 C 0.29284 0.62004 0.47291 0.0
C2567 C 0.28615 0.63759 0.46457 0.0
C2568 C 0.12005 0.97327 0.29739 0.0
C2569 C 0.10255 0.96473 0.29165 0.0
C2570 C 0.13765 0.96607 0.29066 0.0
C2571 C 0.13815 0.95051 0.27766 0.0
H2572 H 0.12035 0.98381 0.30896 0.0
H2573 H 0.15085 0.97129 0.29722 0.0
S2574 S 0.0961 0.92751 0.2538 0.0
N2575 N 0.08659 0.94313 0.2691 0.0
N2576 N 0.1197 0.92996 0.25588 0.0
C2577 C 0.12073 0.94426 0.2693 0.0
C2578 C 0.10283 0.95131 0.27647 0.0
C2579 C 0.76339 0.86967 0.55274 0.0
C2580 C 0.77132 0.85287 0.54453 0.0
C2581 C 0.76953 0.88793 0.54669 0.0
C2582 C 0.7834 0.88981 0.53201 0.0
H2583 H 0.75449 0.8688 0.5656 0.0
H2584 H 0.76512 0.90041 0.55503 0.0
S2585 S 0.80287 0.85032 0.50146 0.0
N2586 N 0.78965 0.83925 0.51795 0.0
N2587 N 0.80065 0.87363 0.50592 0.0
C2588 C 0.78843 0.87327 0.52129 0.0
C2589 C 0.78251 0.85468 0.52776 0.0
C2590 C 0.8492 0.52301 0.79723 0.0
C2591 C 0.84839 0.53707 0.78262 0.0
C2592 C 0.86687 0.51506 0.80289 0.0
C2593 C 0.8842 0.52142 0.79439 0.0
H2594 H 0.8365 0.5197 0.80575 0.0
H2595 H 0.86712 0.50608 0.81572 0.0
S2596 S 0.88904 0.55311 0.75161 0.0
N2597 N 0.86571 0.55305 0.75644 0.0
N2598 N 0.89905 0.5387 0.76778 0.0
C2599 C 0.88318 0.53291 0.77776 0.0
C2600 C 0.86515 0.54066 0.77168 0.0
C2601 C 0.21863 0.6219 0.03854 0.0
C2602 C 0.20903 0.63846 0.03166 0.0
C2603 C 0.21218 0.60345 0.03349 0.0
C2604 C 0.19639 0.60113 0.02101 0.0
H2605 H 0.22931 0.62304 0.04993 0.0
H2606 H 0.21811 0.59113 0.0411 0.0
S2607 S 0.17148 0.63991 0.99365 0.0
N2608 N 0.18667 0.65142 0.00797 0.0
N2609 N 0.17502 0.61669 -0.00224 0.0
C2610 C 0.18937 0.61747 0.01113 0.0
C2611 C 0.19563 0.63626 0.01664 0.0
C2612 C 0.22212 0.36394 0.94529 0.0
C2613 C 0.21396 0.34677 0.95248 0.0
C2614 C 0.21576 0.38191 0.95197 0.0
C2615 C 0.20138 0.38312 0.96624 0.0
H2616 H 0.23149 0.36366 0.93275 0.0
H2617 H 0.22049 0.39476 0.94439 0.0
S2618 S 0.18101 0.34226 0.99433 0.0
N2619 N 0.19479 0.33196 0.97781 0.0
N2620 N 0.1833 0.36575 0.99096 0.0
C2621 C 0.196 0.3661 0.97599 0.0
C2622 C 0.20218 0.34782 0.9689 0.0
C2623 C 0.37271 0.97413 0.19049 0.0
C2624 C 0.38974 0.96627 0.19829 0.0
C2625 C 0.35466 0.96755 0.19666 0.0
C2626 C 0.35322 0.95338 0.21111 0.0
H2627 H 0.37323 0.98333 0.17782 0.0
H2628 H 0.34198 0.97196 0.18862 0.0
S2629 S 0.39342 0.93383 0.24065 0.0
N2630 N 0.40403 0.94759 0.2243 0.0
N2631 N 0.37003 0.93577 0.23656 0.0
C2632 C 0.36998 0.94835 0.22146 0.0
C2633 C 0.38837 0.9547 0.21486 0.0
C2634 C 0.77856 0.13376 0.46242 0.0
C2635 C 0.76676 0.13559 0.44602 0.0
C2636 C 0.78494 0.11559 0.46851 0.0
C2637 C 0.78001 0.09888 0.45804 0.0
H2638 H 0.78472 0.14647 0.46914 0.0
H2639 H 0.79578 0.11502 0.47978 0.0
S2640 S 0.74446 0.09553 0.41827 0.0
N2641 N 0.74621 0.11886 0.42284 0.0
N2642 N 0.75893 0.08475 0.43387 0.0
C2643 C 0.76568 0.10026 0.44382 0.0
C2644 C 0.7588 0.11871 0.43791 0.0
C2645 C 0.60446 0.53237 0.71333 0.0
C2646 C 0.60273 0.5201 0.69728 0.0
C2647 C 0.62262 0.53836 0.71977 0.0
C2648 C 0.63945 0.53262 0.70993 0.0
H2649 H 0.59176 0.53908 0.71953 0.0
H2650 H 0.62321 0.54952 0.73073 0.0
S2651 S 0.64278 0.49605 0.67109 0.0
N2652 N 0.61942 0.49858 0.675 0.0
N2653 N 0.65356 0.51054 0.68666 0.0
C2654 C 0.63802 0.51796 0.69605 0.0
C2655 C 0.61955 0.51149 0.6898 0.0
C2656 C 0.52114 0.69512 0.6212 0.0
C2657 C 0.52998 0.70135 0.60397 0.0
C2658 C 0.528 0.7014 0.63915 0.0
C2659 C 0.54356 0.71435 0.64027 0.0
H2660 H 0.51072 0.68346 0.62102 0.0
H2661 H 0.52266 0.69436 0.65208 0.0
S2662 S 0.56647 0.74007 0.59919 0.0
N2663 N 0.55131 0.72478 0.58897 0.0
N2664 N 0.56381 0.73717 0.62274 0.0
C2665 C 0.54979 0.72344 0.62316 0.0
C2666 C 0.54308 0.71674 0.6049 0.0
C2667 C 0.01531 0.30407 0.87181 0.0
C2668 C 0.0211 0.29502 0.88909 0.0
C2669 C 0.02323 0.2985 0.85407 0.0
C2670 C 0.03667 0.28338 0.85309 0.0
H2671 H 0.00666 0.3171 0.87218 0.0
H2672 H 0.02027 0.30727 0.84143 0.0
S2673 S 0.05169 0.25146 0.8935 0.0
N2674 N 0.03761 0.26778 0.90367 0.0
N2675 N 0.05192 0.25666 0.87019 0.0
C2676 C 0.03993 0.27219 0.86978 0.0
C2677 C 0.03222 0.27817 0.88789 0.0
C2678 C 0.94249 0.22075 0.36599 0.0
C2679 C 0.94834 0.21122 0.34901 0.0
C2680 C 0.9486 0.21412 0.38408 0.0
C2681 C 0.96099 0.19814 0.3855 0.0
H2682 H 0.93103 0.23138 0.36558 0.0
H2683 H 0.94163 0.21984 0.39688 0.0
S2684 S 0.9864 0.17402 0.34496 0.0
N2685 N 0.97135 0.18923 0.33442 0.0
N2686 N 0.98358 0.17725 0.36845 0.0
C2687 C 0.97012 0.19151 0.36857 0.0
C2688 C 0.96354 0.19795 0.35018 0.0
C2689 C 0.02922 0.20431 0.62911 0.0
C2690 C 0.0459 0.19624 0.63738 0.0
C2691 C 0.02355 0.19914 0.61023 0.0
C2692 C 0.03511 0.18676 0.59902 0.0
H2693 H 0.02036 0.21419 0.63738 0.0
H2694 H 0.01013 0.20469 0.60445 0.0
S2695 S 0.08027 0.16233 0.61423 0.0
N2696 N 0.07347 0.17499 0.63322 0.0
N2697 N 0.06396 0.16683 0.59749 0.0
C2698 C 0.0521 0.17924 0.60706 0.0
C2699 C 0.05723 0.18362 0.62634 0.0
C2700 C 0.45086 0.71709 0.36667 0.0
C2701 C 0.45549 0.70661 0.34987 0.0
C2702 C 0.45763 0.71109 0.38476 0.0
C2703 C 0.46953 0.69477 0.38641 0.0
H2704 H 0.44002 0.72835 0.36627 0.0
H2705 H 0.45175 0.71787 0.39759 0.0
S2706 S 0.49088 0.66678 0.34599 0.0
N2707 N 0.47627 0.68238 0.33542 0.0
N2708 N 0.4896 0.67145 0.36936 0.0
C2709 C 0.47707 0.68655 0.3694 0.0
C2710 C 0.46985 0.6924 0.35103 0.0
C2711 C 0.54754 0.76801 0.87286 0.0
C2712 C 0.5413 0.77526 0.8549 0.0
C2713 C 0.54147 0.7766 0.89011 0.0
C2714 C 0.52861 0.79226 0.88985 0.0
H2715 H 0.55911 0.75751 0.87359 0.0
H2716 H 0.54844 0.77233 0.90347 0.0
S2717 S 0.50344 0.81205 0.84684 0.0
N2718 N 0.51837 0.7957 0.83805 0.0
N2719 N 0.50627 0.8114 0.87054 0.0
C2720 C 0.51968 0.79718 0.87224 0.0
C2721 C 0.52621 0.78872 0.85466 0.0
C2722 C 0.60108 0.45612 0.27593 0.0
C2723 C 0.60082 0.46808 0.29233 0.0
C2724 C 0.61858 0.45011 0.26788 0.0
C2725 C 0.6362 0.45562 0.27634 0.0
H2726 H 0.58787 0.44953 0.27076 0.0
H2727 H 0.61817 0.43905 0.25682 0.0
S2728 S 0.64307 0.49212 0.31479 0.0
N2729 N 0.61944 0.48956 0.31306 0.0
N2730 N 0.65239 0.47764 0.29829 0.0
C2731 C 0.63605 0.47025 0.29034 0.0
C2732 C 0.61823 0.47668 0.29829 0.0
C2733 C 0.26874 0.36851 0.54218 0.0
C2734 C 0.27817 0.35132 0.53685 0.0
C2735 C 0.27484 0.38626 0.5347 0.0
C2736 C 0.29018 0.38713 0.52146 0.0
H2737 H 0.25864 0.36867 0.55412 0.0
H2738 H 0.26927 0.39936 0.54118 0.0
S2739 S 0.31365 0.34551 0.49729 0.0
N2740 N 0.29924 0.33571 0.51358 0.0
N2741 N 0.31029 0.36906 0.49896 0.0
C2742 C 0.29663 0.3698 0.51304 0.0
C2743 C 0.2907 0.35176 0.52095 0.0
C2744 C 0.39054 0.04163 0.77156 0.0
C2745 C 0.39341 0.02808 0.78637 0.0
C2746 C 0.37191 0.04611 0.76524 0.0
C2747 C 0.35571 0.03753 0.77404 0.0
H2748 H 0.40245 0.05037 0.76643 0.0
H2749 H 0.37021 0.05822 0.75547 0.0
S2750 S 0.35605 -0.00326 0.80859 0.0
N2751 N 0.37901 0.00239 0.80569 0.0
N2752 N 0.3439 0.01153 0.79437 0.0
C2753 C 0.35862 0.02168 0.78629 0.0
C2754 C 0.37761 0.01677 0.79237 0.0
C2755 C 0.7236 0.12605 0.04358 0.0
C2756 C 0.71541 0.14381 0.0381 0.0
C2757 C 0.71606 0.10874 0.03644 0.0
C2758 C 0.70047 0.10892 0.02346 0.0
H2759 H 0.73371 0.12529 0.05551 0.0
H2760 H 0.72067 0.09535 0.04309 0.0
S2761 S 0.68029 0.15187 -0.00137 0.0
N2762 N 0.69552 0.16073 0.0147 0.0
N2763 N 0.68175 0.12815 0.00068 0.0
C2764 C 0.69539 0.12655 0.01472 0.0
C2765 C 0.7028 0.14415 0.02226 0.0
C2766 C 0.95846 0.27914 0.10969 0.0
C2767 C 0.97 0.2958 0.10966 0.0
C2768 C 0.9509 0.27194 0.12699 0.0
C2769 C 0.9544 0.28156 0.14456 0.0
H2770 H 0.95326 0.27314 0.09618 0.0
H2771 H 0.94014 0.26062 0.12614 0.0
S2772 S 0.98916 0.32126 0.15274 0.0
N2773 N 0.98908 0.31808 0.12908 0.0
N2774 N 0.9742 0.30493 0.16157 0.0
C2775 C 0.9687 0.29585 0.14505 0.0
C2776 C 0.97675 0.30291 0.12748 0.0
C2777 C 0.96297 0.78624 0.6383 0.0
C2778 C 0.94741 0.77331 0.63942 0.0
C2779 C 0.9688 0.79378 0.62046 0.0
C2780 C 0.95892 0.78882 0.6034 0.0
H2781 H 0.96908 0.79235 0.65136 0.0
H2782 H 0.97928 0.80538 0.62049 0.0
S2783 S 0.92184 0.75073 0.59808 0.0
N2784 N 0.92595 0.7519 0.62156 0.0
N2785 N 0.93653 0.76662 0.58808 0.0
C2786 C 0.94578 0.77344 0.60401 0.0
C2787 C 0.94011 0.76547 0.62212 0.0
C2788 C 0.62131 0.97139 0.78966 0.0
C2789 C 0.60385 0.96202 0.78522 0.0
C2790 C 0.63887 0.96379 0.78328 0.0
C2791 C 0.6393 0.94698 0.77195 0.0
H2792 H 0.62169 0.98288 0.80028 0.0
H2793 H 0.65211 0.96965 0.78918 0.0
S2794 S 0.59711 0.92161 0.75091 0.0
N2795 N 0.58771 0.93841 0.76497 0.0
N2796 N 0.62072 0.9245 0.75228 0.0
C2797 C 0.62183 0.93995 0.76434 0.0
C2798 C 0.60398 0.94741 0.77121 0.0
C2799 C 0.28264 0.85264 0.02781 0.0
C2800 C 0.27069 0.85227 0.04419 0.0
C2801 C 0.28964 0.87016 0.02059 0.0
C2802 C 0.28522 0.88766 0.02992 0.0
H2803 H 0.28838 0.83932 0.02195 0.0
H2804 H 0.30055 0.86964 0.00939 0.0
S2805 S 0.24976 0.89468 0.06932 0.0
N2806 N 0.25078 0.87106 0.06627 0.0
N2807 N 0.26452 0.90397 0.05305 0.0
C2808 C 0.27076 0.88765 0.04411 0.0
C2809 C 0.26332 0.86986 0.05121 0.0
C2810 C 0.3697 0.54516 0.26667 0.0
C2811 C 0.35208 0.53787 0.27367 0.0
C2812 C 0.38723 0.53907 0.27463 0.0
C2813 C 0.38761 0.52523 0.28948 0.0
H2814 H 0.36994 0.55736 0.25685 0.0
H2815 H 0.40027 0.5467 0.27061 0.0
S2816 S 0.34581 0.49717 0.3078 0.0
N2817 N 0.33632 0.51295 0.29264 0.0
N2818 N 0.36933 0.50091 0.30718 0.0
C2819 C 0.37039 0.51541 0.29397 0.0
C2820 C 0.35252 0.52191 0.28614 0.0
C2821 C 0.72326 0.61892 0.54557 0.0
C2822 C 0.71528 0.63629 0.53866 0.0
C2823 C 0.71609 0.60113 0.53929 0.0
C2824 C 0.70119 0.60028 0.52558 0.0
H2825 H 0.73313 0.61897 0.55773 0.0
H2826 H 0.72071 0.58816 0.54675 0.0
S2827 S 0.68043 0.64158 0.49847 0.0
N2828 N 0.69531 0.65155 0.51421 0.0
N2829 N 0.68231 0.61804 0.50176 0.0
C2830 C 0.6958 0.6174 0.51603 0.0
C2831 C 0.70277 0.63552 0.52275 0.0
C2832 C 0.98395 0.49737 0.14778 0.0
C2833 C 0.97417 0.49409 0.16525 0.0
C2834 C 0.00331 0.5029 0.14769 0.0
C2835 C 0.01336 0.50579 0.16508 0.0
H2836 H 0.97679 0.49507 0.13404 0.0
H2837 H 0.01034 0.50526 0.1339 0.0
S2838 S 0.99408 0.49967 0.21466 0.0
N2839 N 0.9758 0.49412 0.20036 0.0
N2840 N 0.01216 0.50542 0.2002 0.0
C2841 C 0.00367 0.50296 0.18266 0.0
C2842 C 0.98405 0.49685 0.18275 0.0
C2843 C 0.73865 0.2546 0.42236 0.0
C2844 C 0.73724 0.26477 0.40482 0.0
C2845 C 0.74532 0.23554 0.42276 0.0
C2846 C 0.75018 0.22595 0.40558 0.0
H2847 H 0.73463 0.26142 0.43586 0.0
H2848 H 0.74653 0.22823 0.43656 0.0
S2849 S 0.74924 0.24625 0.35597 0.0
N2850 N 0.74157 0.264 0.36991 0.0
N2851 N 0.75365 0.22798 0.37065 0.0
C2852 C 0.74879 0.23591 0.38795 0.0
C2853 C 0.74246 0.25543 0.38758 0.0
C2854 C 0.98717 0.99114 0.67707 0.0
C2855 C 0.97698 0.98779 0.65985 0.0
C2856 C 0.00645 -0.00287 0.67663 0.0
C2857 C 0.01625 -0.00075 0.65897 0.0
H2858 H 0.98012 0.98936 0.69095 0.0
H2859 H 0.01371 0.00017 0.69016 0.0
S2860 S -0.00385 0.99133 0.60991 0.0
N2861 N 0.97809 0.98658 0.62472 0.0
N2862 N 0.0145 -0.00268 0.62389 0.0
C2863 C 0.00634 -0.00452 0.64168 0.0
C2864 C 0.98661 0.9899 0.64211 0.0
C2865 C 0.23715 0.24699 0.89646 0.0
C2866 C 0.2338 0.2565 0.91406 0.0
C2867 C 0.24358 0.22792 0.89611 0.0
C2868 C 0.24729 0.21791 0.91336 0.0
H2869 H 0.23444 0.25421 0.88282 0.0
H2870 H 0.24617 0.22117 0.88222 0.0
S2871 S 0.24094 0.23645 0.96321 0.0
N2872 N 0.23434 0.25458 0.94915 0.0
N2873 N 0.24728 0.21876 0.94851 0.0
C2874 C 0.24414 0.22726 0.93108 0.0
C2875 C 0.23714 0.24659 0.93143 0.0
C2876 C 0.00401 0.49619 0.85173 0.0
C2877 C 0.0149 0.49448 0.83469 0.0
C2878 C 0.98453 0.50122 0.85103 0.0
C2879 C 0.97543 0.50512 0.83331 0.0
H2880 H 0.01036 0.49287 0.86566 0.0
H2881 H 0.97662 0.50232 0.8645 0.0
S2882 S -0.00214 0.50351 0.7847 0.0
N2883 N 0.01539 0.49735 0.79966 0.0
N2884 N 0.97877 0.50759 0.7984 0.0
C2885 C 0.98626 0.50401 0.81621 0.0
C2886 C 0.00603 0.49848 0.81688 0.0
C2887 C 0.75135 0.25631 0.09484 0.0
C2888 C 0.75502 0.26518 0.07695 0.0
C2889 C 0.74324 0.2379 0.09575 0.0
C2890 C 0.73816 0.22802 0.0788 0.0
H2891 H 0.75517 0.26345 0.10825 0.0
H2892 H 0.74059 0.23154 0.10982 0.0
S2893 S 0.7446 0.24512 0.02842 0.0
N2894 N 0.75318 0.26281 0.04194 0.0
N2895 N 0.73717 0.2283 0.04365 0.0
C2896 C 0.74154 0.23679 0.06081 0.0
C2897 C 0.75021 0.25538 0.05988 0.0
C2898 C 0.9858 0.00106 0.34692 0.0
C2899 C 0.97557 0.00289 0.32949 0.0
C2900 C 0.00527 -0.00407 0.34695 0.0
C2901 C 0.01497 0.99202 0.32957 0.0
H2902 H 0.97878 0.00383 0.36064 0.0
H2903 H 0.01252 0.99425 0.36073 0.0
S2904 S -0.00529 -0.00483 0.28008 0.0
N2905 N 0.97659 0.00112 0.2944 0.0
N2906 N 0.01318 0.99064 0.29449 0.0
C2907 C 0.00498 0.99397 0.31203 0.0
C2908 C 0.98524 -0.00038 0.31198 0.0
C2909 C 0.24443 0.23837 0.56891 0.0
C2910 C 0.24111 0.2295 0.58688 0.0
C2911 C 0.25305 0.25661 0.56783 0.0
C2912 C 0.258 0.26671 0.58471 0.0
H2913 H 0.24034 0.23118 0.55562 0.0
H2914 H 0.25559 0.26295 0.55374 0.0
S2915 S 0.25223 0.2497 0.63524 0.0
N2916 N 0.24361 0.23195 0.62186 0.0
N2917 N 0.25933 0.26649 0.61986 0.0
C2918 C 0.25472 0.258 0.60276 0.0
C2919 C 0.2464 0.23927 0.60383 0.0
C2920 C 0.17644 0.00084 0.51238 0.0
C2921 C 0.17467 0.01752 0.5009 0.0
C2922 C 0.17643 0.98248 0.50401 0.0
C2923 C 0.17524 0.98029 0.48389 0.0
H2924 H 0.17666 0.00189 0.52801 0.0
H2925 H 0.17678 0.96992 0.51335 0.0
S2926 S 0.17224 0.01949 0.44743 0.0
N2927 N 0.17286 0.03081 0.46844 0.0
N2928 N 0.17353 -0.00376 0.45257 0.0
C2929 C 0.17472 -0.00312 0.47218 0.0
C2930 C 0.17425 0.01555 0.48073 0.0
C2931 C 0.26482 0.41894 0.75432 0.0
C2932 C 0.2665 0.41814 0.73417 0.0
C2933 C 0.24674 0.41825 0.76314 0.0
C2934 C 0.22983 0.41619 0.75207 0.0
H2935 H 0.27759 0.41977 0.76334 0.0
H2936 H 0.24612 0.41841 0.77879 0.0
S2937 S 0.22663 0.41408 0.69864 0.0
N2938 N 0.24993 0.41608 0.70321 0.0
N2939 N 0.2158 0.41414 0.71991 0.0
C2940 C 0.23128 0.41589 0.73185 0.0
C2941 C 0.2497 0.41704 0.72285 0.0
C2942 C 0.81122 0.48616 0.00028 0.0
C2943 C 0.82931 0.47767 0.00374 0.0
C2944 C 0.80984 0.50475 0.99247 0.0
C2945 C 0.82651 0.51559 0.98856 0.0
H2946 H 0.79808 0.47832 0.00351 0.0
H2947 H 0.79569 0.51074 0.98961 0.0
S2948 S 0.87724 0.49992 0.99536 0.0
N2949 N 0.86418 0.48137 0.00267 0.0
N2950 N 0.86161 0.51655 0.98853 0.0
C2951 C 0.84467 0.50733 0.99216 0.0
C2952 C 0.84607 0.48826 -0.0004 0.0
C2953 C 0.7473 0.06913 0.26411 0.0
C2954 C 0.76479 0.06805 0.25389 0.0
C2955 C 0.7297 0.07002 0.25431 0.0
C2956 C 0.7291 0.0693 0.23406 0.0
H2957 H 0.74724 0.07012 0.27975 0.0
H2958 H 0.71653 0.07151 0.2626 0.0
S2959 S 0.77085 0.06522 0.20077 0.0
N2960 N 0.78051 0.06563 0.2226 0.0
N2961 N 0.7473 0.06663 0.20408 0.0
C2962 C 0.74644 0.06738 0.2237 0.0
C2963 C 0.76437 0.06695 0.23367 0.0
C2964 C 0.49472 0.14709 0.00734 0.0
C2965 C 0.49727 0.16435 0.01765 0.0
C2966 C 0.4882 0.14732 0.98827 0.0
C2967 C 0.48356 0.16478 0.97908 0.0
H2968 H 0.49823 0.13331 0.01388 0.0
H2969 H 0.48634 0.13367 0.98084 0.0
S2970 S 0.48749 0.21388 -7e-05 0.0
N2971 N 0.49493 0.19937 0.01738 0.0
N2972 N 0.48174 0.19974 0.98158 0.0
C2973 C 0.48581 0.18215 0.98927 0.0
C2974 C 0.49294 0.18195 0.00858 0.0
C2975 C 0.98588 0.84969 0.50834 0.0
C2976 C 0.98215 0.83181 0.51713 0.0
C2977 C 0.99375 0.85066 0.48982 0.0
C2978 C -0.00141 0.83379 0.47969 0.0
H2979 H 0.98243 0.86306 0.51569 0.0
H2980 H -0.00341 0.86477 0.48366 0.0
S2981 S 0.99154 0.78343 0.49636 0.0
N2982 N 0.98333 0.79685 0.51432 0.0
N2983 N -0.00098 0.79869 0.47958 0.0
C2984 C -0.00504 0.81579 0.48829 0.0
C2985 C 0.98647 0.8148 0.50702 0.0
C2986 C 0.39119 0.24082 0.75679 0.0
C2987 C 0.40807 0.23621 0.76703 0.0
C2988 C 0.39217 0.24896 0.73833 0.0
C2989 C 0.41004 0.25315 0.72971 0.0
H2990 H 0.37713 0.23781 0.76292 0.0
H2991 H 0.37881 0.2524 0.73095 0.0
S2992 S 0.4584 0.24402 0.75066 0.0
N2993 N 0.44315 0.23621 0.76727 0.0
N2994 N 0.44497 0.2522 0.73271 0.0
C2995 C 0.42703 0.24876 0.73985 0.0
C2996 C 0.42604 0.24009 0.7585 0.0
C2997 C -0.00442 0.67441 0.0077 0.0
C2998 C -0.00048 0.65698 0.01733 0.0
C2999 C 0.98695 0.67443 0.98942 0.0
C3000 C 0.98254 0.65702 0.98 0.0
H3001 H -0.00081 0.68811 0.01435 0.0
H3002 H 0.98394 0.68814 0.9825 0.0
S3003 S 0.99008 0.60753 -0.0009 0.0
N3004 N -0.00176 0.62191 0.01629 0.0
N3005 N 0.98244 0.62193 0.98168 0.0
C3006 C 0.98646 0.6395 0.98946 0.0
C3007 C -0.00518 0.63949 0.00824 0.0
C3008 C 0.06591 0.74561 0.25492 0.0
C3009 C 0.08368 0.74717 0.26462 0.0
C3010 C 0.06506 0.73911 0.23578 0.0
C3011 C 0.08201 0.73463 0.22564 0.0
H3012 H 0.05262 0.74962 0.26211 0.0
H3013 H 0.05113 0.73794 0.22877 0.0
S3014 S 0.13198 0.73538 0.24469 0.0
N3015 N 0.11851 0.74282 0.2629 0.0
N3016 N 0.11688 0.73114 0.22674 0.0
C3017 C 0.09981 0.73585 0.23521 0.0
C3018 C 0.10065 0.74196 0.2548 0.0
C3019 C 0.50715 0.82658 0.01216 0.0
C3020 C 0.48697 0.82576 0.01344 0.0
C3021 C 0.51628 0.82743 0.99416 0.0
C3022 C 0.50547 0.82809 0.97696 0.0
H3023 H 0.5159 0.82673 0.02514 0.0
H3024 H 0.53189 0.82829 0.99374 0.0
S3025 S 0.45226 0.82609 0.97261 0.0
N3026 N 0.45642 0.8251 -0.0039 0.0
N3027 N 0.47367 0.82741 0.96222 0.0
C3028 C 0.48531 0.82707 0.97804 0.0
C3029 C 0.47602 0.8257 -0.00367 0.0
C3030 C 0.57393 0.25232 0.22915 0.0
C3031 C 0.57592 0.23217 0.22891 0.0
C3032 C 0.57323 0.26237 0.24666 0.0
C3033 C 0.57506 0.25259 0.26437 0.0
H3034 H 0.57303 0.26037 0.21574 0.0
H3035 H 0.57201 0.27797 0.24628 0.0
S3036 S 0.58024 0.19984 0.27144 0.0
N3037 N 0.57908 0.20267 0.24776 0.0
N3038 N 0.57848 0.22173 0.28073 0.0
C3039 C 0.57682 0.23243 0.26433 0.0
C3040 C 0.57705 0.22215 0.24654 0.0
C3041 C 0.73783 0.75747 0.93352 0.0
C3042 C 0.73406 0.76817 0.91669 0.0
C3043 C 0.74523 0.73869 0.93236 0.0
C3044 C 0.74836 0.7299 0.91433 0.0
H3045 H 0.73511 0.76368 0.94764 0.0
H3046 H 0.74829 0.73093 0.94562 0.0
S3047 S 0.74038 0.75174 0.86602 0.0
N3048 N 0.73397 0.76869 0.8815 0.0
N3049 N 0.7473 0.73321 0.87934 0.0
C3050 C 0.74446 0.74039 0.89742 0.0
C3051 C 0.73746 0.75962 0.89859 0.0
C3052 C 0.24533 0.75368 0.39222 0.0
C3053 C 0.24177 0.76268 0.41007 0.0
C3054 C 0.25154 0.73453 0.39139 0.0
C3055 C 0.2548 0.72394 0.40838 0.0
H3056 H 0.24274 0.76128 0.37877 0.0
H3057 H 0.25414 0.72811 0.37735 0.0
S3058 S 0.24813 0.7411 0.45868 0.0
N3059 N 0.24196 0.75972 0.44509 0.0
N3060 N 0.25443 0.72378 0.44353 0.0
C3061 C 0.25167 0.73286 0.42633 0.0
C3062 C 0.24493 0.75225 0.42717 0.0
C3063 C 0.74913 0.75243 0.59703 0.0
C3064 C 0.75281 0.76267 0.5799 0.0
C3065 C 0.7425 0.73342 0.59645 0.0
C3066 C 0.73893 0.72421 0.57873 0.0
H3067 H 0.75177 0.759 0.611 0.0
H3068 H 0.73968 0.72607 0.61 0.0
S3069 S 0.74608 0.74488 0.52983 0.0
N3070 N 0.75267 0.7623 0.54475 0.0
N3071 N 0.73939 0.72662 0.54367 0.0
C3072 C 0.74238 0.73432 0.56149 0.0
C3073 C 0.74956 0.75356 0.56207 0.0
C3074 C 0.23604 0.73412 0.09285 0.0
C3075 C 0.23279 0.72578 0.07463 0.0
C3076 C 0.24356 0.75273 0.09448 0.0
C3077 C 0.2485 0.76339 0.07795 0.0
H3078 H 0.23233 0.72639 0.10596 0.0
H3079 H 0.24591 0.75863 0.1088 0.0
S3080 S 0.24307 0.74791 0.02696 0.0
N3081 N 0.23487 0.7295 0.03975 0.0
N3082 N 0.24986 0.76438 0.04283 0.0
C3083 C 0.24557 0.75516 0.05964 0.0
C3084 C 0.23746 0.73635 0.05797 0.0
C3085 C 0.17721 0.48222 0.99451 0.0
C3086 C 0.16013 0.47178 0.99132 0.0
C3087 C 0.17657 0.50121 0.00143 0.0
C3088 C 0.15883 0.51046 0.00466 0.0
H3089 H 0.19111 0.47567 0.99167 0.0
H3090 H 0.19001 0.50877 0.00403 0.0
S3091 S 0.11006 0.4894 -0.00171 0.0
N3092 N 0.12502 0.47196 0.99201 0.0
N3093 N 0.12385 0.50783 0.00444 0.0
C3094 C 0.14167 0.50021 0.0014 0.0
C3095 C 0.14232 0.48078 0.99489 0.0
C3096 C 0.24791 0.92099 0.22644 0.0
C3097 C 0.26497 0.91996 0.23739 0.0
C3098 C 0.22986 0.92023 0.23539 0.0
C3099 C 0.22838 0.91899 0.25557 0.0
H3100 H 0.24849 0.92141 0.21078 0.0
H3101 H 0.21701 0.92025 0.22647 0.0
S3102 S 0.26877 0.9174 0.29073 0.0
N3103 N 0.27937 0.91847 0.26937 0.0
N3104 N 0.24535 0.91776 0.28637 0.0
C3105 C 0.24532 0.91896 0.26675 0.0
C3106 C 0.26369 0.91924 0.25759 0.0
C3107 C 0.81682 -0.00414 0.47709 0.0
C3108 C 0.81811 0.0135 0.48707 0.0
C3109 C 0.81743 0.97829 0.48702 0.0
C3110 C 0.81875 0.97789 0.50724 0.0
H3111 H 0.8161 -0.0044 0.46144 0.0
H3112 H 0.81701 0.96496 0.47884 0.0
S3113 S 0.82168 0.02007 0.5401 0.0
N3114 N 0.82042 0.02955 0.51822 0.0
N3115 N 0.82086 -0.00356 0.53702 0.0
C3116 C 0.81936 -0.00459 0.51745 0.0
C3117 C 0.81924 0.01328 0.50731 0.0
C3118 C 0.72761 0.57031 0.75501 0.0
C3119 C 0.72711 0.57035 0.73474 0.0
C3120 C 0.74518 0.57094 0.76489 0.0
C3121 C 0.76273 0.57222 0.75477 0.0
H3122 H 0.71433 0.57004 0.76328 0.0
H3123 H 0.74497 0.57125 0.78056 0.0
S3124 S 0.76915 0.57224 0.70161 0.0
N3125 N 0.74558 0.57093 0.70481 0.0
N3126 N 0.77866 0.57281 0.7235 0.0
C3127 C 0.76245 0.57191 0.73451 0.0
C3128 C 0.74459 0.57077 0.72444 0.0
C3129 C 0.49275 0.6436 0.48809 0.0
C3130 C 0.48912 0.66071 0.47784 0.0
C3131 C 0.49991 0.64414 0.50693 0.0
C3132 C 0.50412 0.66179 0.51595 0.0
H3133 H 0.48972 0.62966 0.48165 0.0
H3134 H 0.50267 0.63058 0.51426 0.0
S3135 S 0.49716 0.71065 0.49524 0.0
N3136 N 0.48982 0.6958 0.47805 0.0
N3137 N 0.50416 0.6968 0.5134 0.0
C3138 C 0.50065 0.67903 0.50586 0.0
C3139 C 0.49289 0.67849 0.48679 0.0
C3140 C 0.99157 0.31739 0.0106 0.0
C3141 C 0.98934 0.33502 0.02041 0.0
C3142 C -0.00212 0.31694 0.99138 0.0
C3143 C 0.00153 0.33414 0.98126 0.0
H3144 H 0.98841 0.30387 0.01782 0.0
H3145 H -0.00027 0.30309 0.98435 0.0
S3146 S -0.00213 0.384 0.00048 0.0
N3147 N 0.99147 0.37003 0.01873 0.0
N3148 N 0.00286 0.36922 0.98246 0.0
C3149 C -0.0007 0.35185 0.9909 0.0
C3150 C 0.99335 0.35228 0.01056 0.0
C3151 C 0.41622 0.76202 0.24437 0.0
C3152 C 0.41448 0.75182 0.22689 0.0
C3153 C 0.41687 0.75226 0.26206 0.0
C3154 C 0.41641 0.73203 0.26272 0.0
H3155 H 0.4163 0.77767 0.24444 0.0
H3156 H 0.41754 0.76059 0.27531 0.0
S3157 S 0.41302 0.69872 0.22087 0.0
N3158 N 0.41285 0.72051 0.21118 0.0
N3159 N 0.41478 0.70205 0.24444 0.0
C3160 C 0.41543 0.72165 0.24528 0.0
C3161 C 0.41427 0.7316 0.22733 0.0
C3162 C 0.98203 0.17124 0.48309 0.0
C3163 C 0.97697 0.15423 0.47333 0.0
C3164 C 0.99001 0.17049 0.50164 0.0
C3165 C 0.99261 0.15274 0.51115 0.0
H3166 H 0.98019 0.18517 0.47618 0.0
H3167 H 0.99439 0.18386 0.50849 0.0
S3168 S 0.98009 0.10422 0.49221 0.0
N3169 N 0.97414 0.11926 0.47469 0.0
N3170 N 0.98873 0.11783 0.50978 0.0
C3171 C 0.98689 0.13568 0.50179 0.0
C3172 C 0.97919 0.13642 0.48277 0.0
C3173 C 0.06652 0.25436 0.73169 0.0
C3174 C 0.06705 0.23413 0.73082 0.0
C3175 C 0.06701 0.26391 0.74949 0.0
C3176 C 0.06858 0.2535 0.76688 0.0
H3177 H 0.06635 0.26287 0.71854 0.0
H3178 H 0.06725 0.27955 0.74954 0.0
S3179 S 0.069 0.20033 0.77246 0.0
N3180 N 0.06774 0.20393 0.7489 0.0
N3181 N 0.06929 0.22203 0.78234 0.0
C3182 C 0.06828 0.23329 0.76627 0.0
C3183 C 0.06733 0.22355 0.74819 0.0
C3184 C 0.49255 0.344 0.50696 0.0
C3185 C 0.48766 0.32652 0.51603 0.0
C3186 C 0.50102 0.34416 0.48867 0.0
C3187 C 0.5053 0.32684 0.47903 0.0
H3188 H 0.48939 0.35769 0.51384 0.0
H3189 H 0.50457 0.35796 0.48219 0.0
S3190 S 0.49571 0.27727 0.49677 0.0
N3191 N 0.4876 0.29148 0.51413 0.0
N3192 N 0.5043 0.29177 0.47985 0.0
C3193 C 0.50076 0.30925 0.48803 0.0
C3194 C 0.49171 0.30909 0.50652 0.0
C3195 C 0.56657 0.74339 0.75824 0.0
C3196 C 0.58379 0.74599 0.76864 0.0
C3197 C 0.56688 0.73631 0.73929 0.0
C3198 C 0.58445 0.7323 0.73001 0.0
H3199 H 0.55281 0.74691 0.76477 0.0
H3200 H 0.55333 0.73426 0.73175 0.0
S3201 S 0.63347 0.7367 0.75104 0.0
N3202 N 0.61881 0.74376 0.76847 0.0
N3203 N 0.61941 0.73101 0.73263 0.0
C3204 C 0.60175 0.73485 0.74025 0.0
C3205 C 0.60141 0.74154 0.75967 0.0
C3206 C 0.47757 0.50401 0.66285 0.0
C3207 C 0.47552 0.48389 0.66219 0.0
C3208 C 0.49587 0.51243 0.66363 0.0
C3209 C 0.51259 0.50095 0.66317 0.0
H3210 H 0.46497 0.51328 0.66269 0.0
H3211 H 0.49694 0.52804 0.66381 0.0
S3212 S 0.51482 0.44757 0.66162 0.0
N3213 N 0.49153 0.45263 0.66166 0.0
N3214 N 0.52605 0.46859 0.66235 0.0
C3215 C 0.51072 0.48082 0.66268 0.0
C3216 C 0.4921 0.47223 0.66241 0.0
C3217 C 0.48724 0.99144 0.17566 0.0
C3218 C 0.47822 0.98667 0.15814 0.0
C3219 C 0.50583 -0.00073 0.17584 0.0
C3220 C 0.51611 0.00196 0.15854 0.0
H3221 H 0.4798 0.9893 0.18928 0.0
H3222 H 0.51219 0.00324 0.18959 0.0
S3223 S 0.49906 0.9908 0.10894 0.0
N3224 N 0.48091 0.98469 0.12314 0.0
N3225 N 0.5161 -0.00104 0.12348 0.0
C3226 C 0.50737 -0.00317 0.14096 0.0
C3227 C 0.48831 0.98931 0.14075 0.0
C3228 C 0.48472 0.49629 0.31555 0.0
C3229 C 0.47429 0.49923 0.33271 0.0
C3230 C 0.50346 0.48878 0.31604 0.0
C3231 C 0.51251 0.48464 0.33373 0.0
H3232 H 0.47835 0.49981 0.30168 0.0
H3233 H 0.51101 0.48646 0.30252 0.0
S3234 S 0.49137 0.4899 0.38269 0.0
N3235 N 0.47423 0.49726 0.36784 0.0
N3236 N 0.50969 0.48369 0.36876 0.0
C3237 C 0.50227 0.48759 0.35098 0.0
C3238 C 0.48305 0.49473 0.35047 0.0
C3239 C 0.50157 0.98056 0.82125 0.0
C3240 C 0.51878 0.9913 0.82163 0.0
C3241 C 0.48367 0.98977 0.82126 0.0
C3242 C 0.48247 0.00997 0.8211 0.0
H3243 H 0.50191 0.96493 0.82181 0.0
H3244 H 0.47069 0.98105 0.82171 0.0
S3245 S 0.5233 0.04457 0.82067 0.0
N3246 N 0.53362 0.02308 0.82109 0.0
N3247 N 0.49982 0.04051 0.82044 0.0
C3248 C 0.49955 0.02089 0.82056 0.0
C3249 C 0.51779 0.01151 0.82103 0.0
C3250 C 0.67567 -0.00462 0.99033 0.0
C3251 C 0.6586 0.98469 0.98804 0.0
C3252 C 0.67522 0.01409 -0.00208 0.0
C3253 C 0.65762 0.02284 0.00286 0.0
H3254 H 0.68947 0.98923 0.98632 0.0
H3255 H 0.68868 0.02182 -0.00021 0.0
S3256 S 0.60892 0.00093 -0.00036 0.0
N3257 N 0.62366 0.98407 0.9915 0.0
N3258 N 0.62279 0.01945 0.00532 0.0
C3259 C 0.64045 0.01236 0.00054 0.0
C3260 C 0.64095 0.99318 0.99326 0.0
C3261 C 0.74 0.42016 0.25868 0.0
C3262 C 0.72295 0.41893 0.24771 0.0
C3263 C 0.75808 0.41962 0.24977 0.0
C3264 C 0.75964 0.41839 0.2296 0.0
H3265 H 0.73941 0.42076 0.27432 0.0
H3266 H 0.7709 0.42001 0.25873 0.0
S3267 S 0.71936 0.41586 0.19437 0.0
N3268 N 0.70868 0.41692 0.21569 0.0
N3269 N 0.74277 0.4166 0.19879 0.0
C3270 C 0.74272 0.4179 0.2184 0.0
C3271 C 0.72431 0.41797 0.22751 0.0
C3272 C 0.34626 0.48596 0.49708 0.0
C3273 C 0.32893 0.47614 0.50085 0.0
C3274 C 0.34613 0.5051 0.49075 0.0
C3275 C 0.32867 0.51489 0.48758 0.0
H3276 H 0.36004 0.47895 0.49944 0.0
H3277 H 0.35981 0.51211 0.48785 0.0
S3278 S 0.27941 0.49551 0.49516 0.0
N3279 N 0.29389 0.47755 0.50121 0.0
N3280 N 0.29364 0.51347 0.48856 0.0
C3281 C 0.31124 0.50521 0.49114 0.0
C3282 C 0.31137 0.48582 0.49798 0.0
C3283 C 0.23641 0.09142 0.74476 0.0
C3284 C 0.22696 0.07422 0.73973 0.0
C3285 C 0.25541 0.09117 0.75135 0.0
C3286 C 0.26539 0.07367 0.75355 0.0
H3287 H 0.22925 0.10523 0.74316 0.0
H3288 H 0.26216 0.10475 0.75521 0.0
S3289 S 0.24692 0.02468 0.74268 0.0
N3290 N 0.22886 0.03926 0.73719 0.0
N3291 N 0.26455 0.03873 0.75047 0.0
C3292 C 0.25606 0.05634 0.74882 0.0
C3293 C 0.23682 0.05663 0.74165 0.0
C3294 C 0.91101 0.2251 0.24586 0.0
C3295 C 0.90927 0.2353 0.26334 0.0
C3296 C 0.91117 0.23483 0.22815 0.0
C3297 C 0.91016 0.25504 0.2275 0.0
H3298 H 0.91165 0.20947 0.24582 0.0
H3299 H 0.91207 0.22651 0.21491 0.0
S3300 S 0.90612 0.28834 0.26929 0.0
N3301 N 0.90676 0.26657 0.27902 0.0
N3302 N 0.9077 0.285 0.2457 0.0
C3303 C 0.90894 0.26542 0.2449 0.0
C3304 C 0.90831 0.2555 0.26288 0.0
C3305 C 0.66861 0.49579 0.51359 0.0
C3306 C 0.66559 0.51233 0.50215 0.0
C3307 C 0.66916 0.47741 0.50528 0.0
C3308 C 0.6673 0.47511 0.48525 0.0
H3309 H 0.66988 0.49698 0.52916 0.0
H3310 H 0.67096 0.46493 0.51457 0.0
S3311 S 0.65965 0.5138 0.44894 0.0
N3312 N 0.66087 0.52528 0.46983 0.0
N3313 N 0.66257 0.4907 0.45406 0.0
C3314 C 0.66482 0.49155 0.47357 0.0
C3315 C 0.66378 0.51021 0.48208 0.0
C3316 C 0.73035 0.91241 0.73739 0.0
C3317 C 0.72866 0.91146 0.75756 0.0
C3318 C 0.74847 0.91376 0.72864 0.0
C3319 C 0.76543 0.91364 0.7398 0.0
H3320 H 0.71761 0.91204 0.72832 0.0
H3321 H 0.74921 0.91418 0.71299 0.0
S3322 S 0.76863 0.91155 0.79321 0.0
N3323 N 0.74527 0.91101 0.78856 0.0
N3324 N 0.77947 0.91282 0.77198 0.0
C3325 C 0.76393 0.91286 0.75999 0.0
C3326 C 0.74546 0.91198 0.76893 0.0
C3327 C 0.32675 0.98977 0.01203 0.0
C3328 C 0.32653 0.97232 0.00164 0.0
C3329 C 0.32781 0.0075 0.00244 0.0
C3330 C 0.32815 0.00831 0.98218 0.0
H3331 H 0.32675 0.98972 0.0277 0.0
H3332 H 0.32839 0.02063 0.01092 0.0
S3333 S 0.32701 0.96675 0.94839 0.0
N3334 N 0.32638 0.95687 0.97012 0.0
N3335 N 0.32771 0.99031 0.95197 0.0
C3336 C 0.32735 0.991 0.97161 0.0
C3337 C 0.32673 0.97294 0.98139 0.0
C3338 C 0.23732 0.59497 0.23179 0.0
C3339 C 0.22755 0.57776 0.22743 0.0
C3340 C 0.25583 0.5946 0.23976 0.0
C3341 C 0.26495 0.577 0.24405 0.0
H3342 H 0.2307 0.60884 0.22889 0.0
H3343 H 0.26274 0.6082 0.24319 0.0
S3344 S 0.24555 0.52795 0.23512 0.0
N3345 N 0.22844 0.54266 0.2274 0.0
N3346 N 0.2631 0.54197 0.24313 0.0
C3347 C 0.2554 0.55968 0.23967 0.0
C3348 C 0.2367 0.56006 0.23113 0.0
C3349 C 0.89177 0.74145 0.75817 0.0
C3350 C 0.90909 0.73731 0.76785 0.0
C3351 C 0.89188 0.74825 0.73918 0.0
C3352 C 0.90933 0.75157 0.72943 0.0
H3353 H 0.87799 0.73897 0.76515 0.0
H3354 H 0.8782 0.75133 0.73225 0.0
S3355 S 0.95859 0.74331 0.74854 0.0
N3356 N 0.94412 0.73682 0.76638 0.0
N3357 N 0.94436 0.75046 0.73075 0.0
C3358 C 0.92677 0.74774 0.739 0.0
C3359 C 0.92665 0.74036 0.75821 0.0
loop_
_geom_bond_atom_site_label_1
_geom_bond_atom_site_label_2
_geom_bond_distance
_geom_bond_site_symmetry_2
_ccdc_geom_bond_type
In0 O1 2.294 . S
In0 O2 2.326 . S
In0 O6 2.266 . S
In0 O7 2.326 . S
In0 O8 2.266 . S
In0 O9 2.326 . S
In0 O11 2.294 . S
In0 O12 2.326 . S
O1 In0 2.294 . S
O1 C10 1.240 . S
O2 In0 2.326 . S
O2 C10 1.252 . S
C3 O6 1.252 . S
C3 O7 1.260 . S
C4 O11 1.240 . S
C4 O12 1.252 . S
C5 O8 1.252 . S
C5 O9 1.260 . S
O6 In0 2.266 . S
O6 C3 1.252 . S
O7 In0 2.326 . S
O7 C3 1.260 . S
O8 In0 2.266 . S
O8 C5 1.252 . S
O9 In0 2.326 . S
O9 C5 1.260 . S
C10 O1 1.240 . S
C10 O2 1.252 . S
O11 In0 2.294 . S
O11 C4 1.240 . S
O12 In0 2.326 . S
O12 C4 1.252 . S
In13 O14 2.294 . S
In13 O15 2.326 . S
In13 O19 2.266 . S
In13 O20 2.326 . S
In13 O21 2.266 . S
In13 O22 2.326 . S
In13 O24 2.294 . S
In13 O25 2.326 . S
O14 In13 2.294 . S
O14 C23 1.240 . S
O15 In13 2.326 . S
O15 C23 1.252 . S
C16 O19 1.252 . S
C16 O20 1.260 . S
C17 O24 1.240 . S
C17 O25 1.252 . S
C18 O21 1.252 . S
C18 O22 1.260 . S
O19 In13 2.266 . S
O19 C16 1.252 . S
O20 In13 2.326 . S
O20 C16 1.260 . S
O21 In13 2.266 . S
O21 C18 1.252 . S
O22 In13 2.326 . S
O22 C18 1.260 . S
C23 O14 1.240 . S
C23 O15 1.252 . S
O24 In13 2.294 . S
O24 C17 1.240 . S
O25 In13 2.326 . S
O25 C17 1.252 . S
In26 O27 2.294 . S
In26 O28 2.326 . S
In26 O32 2.266 . S
In26 O33 2.326 . S
In26 O34 2.266 . S
In26 O35 2.326 . S
In26 O37 2.294 1_565 S
In26 O38 2.326 . S
O27 In26 2.294 . S
O27 C36 1.240 . S
O28 In26 2.326 . S
O28 C36 1.252 . S
C29 O32 1.252 . S
C29 O33 1.260 . S
C30 O37 1.240 1_565 S
C30 O38 1.252 . S
C31 O34 1.252 . S
C31 O35 1.260 . S
O32 In26 2.266 . S
O32 C29 1.252 . S
O33 In26 2.326 . S
O33 C29 1.260 . S
O34 In26 2.266 . S
O34 C31 1.252 . S
O35 In26 2.326 . S
O35 C31 1.260 . S
C36 O27 1.240 . S
C36 O28 1.252 . S
O37 In26 2.294 1_545 S
O37 C30 1.240 1_545 S
O38 In26 2.326 . S
O38 C30 1.252 . S
In39 O40 2.294 . S
In39 O41 2.326 . S
In39 O45 2.266 . S
In39 O46 2.326 . S
In39 O47 2.266 . S
In39 O48 2.326 . S
In39 O50 2.294 . S
In39 O51 2.326 . S
O40 In39 2.294 . S
O40 C49 1.240 . S
O41 In39 2.326 . S
O41 C49 1.252 . S
C42 O45 1.252 . S
C42 O46 1.260 . S
C43 O50 1.240 . S
C43 O51 1.252 . S
C44 O47 1.252 . S
C44 O48 1.260 . S
O45 In39 2.266 . S
O45 C42 1.252 . S
O46 In39 2.326 . S
O46 C42 1.260 . S
O47 In39 2.266 . S
O47 C44 1.252 . S
O48 In39 2.326 . S
O48 C44 1.260 . S
C49 O40 1.240 . S
C49 O41 1.252 . S
O50 In39 2.294 . S
O50 C43 1.240 . S
O51 In39 2.326 . S
O51 C43 1.252 . S
In52 O53 2.294 . S
In52 O54 2.326 . S
In52 O58 2.266 . S
In52 O59 2.326 . S
In52 O60 2.266 . S
In52 O61 2.326 . S
In52 O63 2.294 . S
In52 O64 2.326 . S
O53 In52 2.294 . S
O53 C62 1.240 . S
O54 In52 2.326 . S
O54 C62 1.252 . S
C55 O58 1.252 . S
C55 O59 1.260 . S
C56 O63 1.240 . S
C56 O64 1.252 . S
C57 O60 1.252 . S
C57 O61 1.260 . S
O58 In52 2.266 . S
O58 C55 1.252 . S
O59 In52 2.326 . S
O59 C55 1.260 . S
O60 In52 2.266 . S
O60 C57 1.252 . S
O61 In52 2.326 . S
O61 C57 1.260 . S
C62 O53 1.240 . S
C62 O54 1.252 . S
O63 In52 2.294 . S
O63 C56 1.240 . S
O64 In52 2.326 . S
O64 C56 1.252 . S
In65 O66 2.294 . S
In65 O67 2.326 . S
In65 O71 2.266 . S
In65 O72 2.326 . S
In65 O73 2.266 . S
In65 O74 2.326 . S
In65 O76 2.294 . S
In65 O77 2.326 . S
O66 In65 2.294 . S
O66 C75 1.240 . S
O67 In65 2.326 . S
O67 C75 1.252 . S
C68 O71 1.252 . S
C68 O72 1.260 . S
C69 O76 1.240 . S
C69 O77 1.252 . S
C70 O73 1.252 . S
C70 O74 1.260 . S
O71 In65 2.266 . S
O71 C68 1.252 . S
O72 In65 2.326 . S
O72 C68 1.260 . S
O73 In65 2.266 . S
O73 C70 1.252 . S
O74 In65 2.326 . S
O74 C70 1.260 . S
C75 O66 1.240 . S
C75 O67 1.252 . S
O76 In65 2.294 . S
O76 C69 1.240 . S
O77 In65 2.326 . S
O77 C69 1.252 . S
In78 O79 2.294 . S
In78 O80 2.326 . S
In78 O84 2.266 . S
In78 O85 2.326 . S
In78 O86 2.266 . S
In78 O87 2.326 . S
In78 O89 2.294 1_545 S
In78 O90 2.326 . S
O79 In78 2.294 . S
O79 C88 1.240 . S
O80 In78 2.326 . S
O80 C88 1.252 . S
C81 O84 1.252 . S
C81 O85 1.260 . S
C82 O89 1.240 1_545 S
C82 O90 1.252 . S
C83 O86 1.252 . S
C83 O87 1.260 . S
O84 In78 2.266 . S
O84 C81 1.252 . S
O85 In78 2.326 . S
O85 C81 1.260 . S
O86 In78 2.266 . S
O86 C83 1.252 . S
O87 In78 2.326 . S
O87 C83 1.260 . S
C88 O79 1.240 . S
C88 O80 1.252 . S
O89 In78 2.294 1_565 S
O89 C82 1.240 1_565 S
O90 In78 2.326 . S
O90 C82 1.252 . S
In91 O92 2.294 . S
In91 O93 2.326 . S
In91 O97 2.266 . S
In91 O98 2.326 . S
In91 O99 2.266 . S
In91 O100 2.326 . S
In91 O102 2.294 . S
In91 O103 2.326 . S
O92 In91 2.294 . S
O92 C101 1.240 . S
O93 In91 2.326 . S
O93 C101 1.252 . S
C94 O97 1.252 . S
C94 O98 1.260 . S
C95 O102 1.240 . S
C95 O103 1.252 . S
C96 O99 1.252 . S
C96 O100 1.260 . S
O97 In91 2.266 . S
O97 C94 1.252 . S
O98 In91 2.326 . S
O98 C94 1.260 . S
O99 In91 2.266 . S
O99 C96 1.252 . S
O100 In91 2.326 . S
O100 C96 1.260 . S
C101 O92 1.240 . S
C101 O93 1.252 . S
O102 In91 2.294 . S
O102 C95 1.240 . S
O103 In91 2.326 . S
O103 C95 1.252 . S
In104 O105 2.294 . S
In104 O106 2.326 . S
In104 O110 2.266 . S
In104 O111 2.326 . S
In104 O112 2.266 . S
In104 O113 2.326 . S
In104 O115 2.294 . S
In104 O116 2.326 . S
O105 In104 2.294 . S
O105 C114 1.240 . S
O106 In104 2.326 . S
O106 C114 1.252 . S
C107 O110 1.252 . S
C107 O111 1.260 . S
C108 O115 1.240 . S
C108 O116 1.252 . S
C109 O112 1.252 . S
C109 O113 1.260 . S
O110 In104 2.266 . S
O110 C107 1.252 . S
O111 In104 2.326 . S
O111 C107 1.260 . S
O112 In104 2.266 . S
O112 C109 1.252 . S
O113 In104 2.326 . S
O113 C109 1.260 . S
C114 O105 1.240 . S
C114 O106 1.252 . S
O115 In104 2.294 . S
O115 C108 1.240 . S
O116 In104 2.326 . S
O116 C108 1.252 . S
In117 O118 2.294 . S
In117 O119 2.326 . S
In117 O123 2.266 . S
In117 O124 2.326 . S
In117 O125 2.266 . S
In117 O126 2.326 . S
In117 O128 2.294 . S
In117 O129 2.326 . S
O118 In117 2.294 . S
O118 C127 1.240 . S
O119 In117 2.326 . S
O119 C127 1.252 . S
C120 O123 1.252 . S
C120 O124 1.260 . S
C121 O128 1.240 . S
C121 O129 1.252 . S
C122 O125 1.252 . S
C122 O126 1.260 . S
O123 In117 2.266 . S
O123 C120 1.252 . S
O124 In117 2.326 . S
O124 C120 1.260 . S
O125 In117 2.266 . S
O125 C122 1.252 . S
O126 In117 2.326 . S
O126 C122 1.260 . S
C127 O118 1.240 . S
C127 O119 1.252 . S
O128 In117 2.294 . S
O128 C121 1.240 . S
O129 In117 2.326 . S
O129 C121 1.252 . S
In130 O131 2.294 . S
In130 O132 2.326 . S
In130 O136 2.266 . S
In130 O137 2.326 . S
In130 O138 2.266 . S
In130 O139 2.326 . S
In130 O141 2.294 1_554 S
In130 O142 2.326 . S
O131 In130 2.294 . S
O131 C140 1.240 . S
O132 In130 2.326 . S
O132 C140 1.252 . S
C133 O136 1.252 . S
C133 O137 1.260 . S
C134 O141 1.240 1_554 S
C134 O142 1.252 . S
C135 O138 1.252 . S
C135 O139 1.260 . S
O136 In130 2.266 . S
O136 C133 1.252 . S
O137 In130 2.326 . S
O137 C133 1.260 . S
O138 In130 2.266 . S
O138 C135 1.252 . S
O139 In130 2.326 . S
O139 C135 1.260 . S
C140 O131 1.240 . S
C140 O132 1.252 . S
O141 In130 2.294 1_556 S
O141 C134 1.240 1_556 S
O142 In130 2.326 . S
O142 C134 1.252 . S
In143 O144 2.294 . S
In143 O145 2.326 . S
In143 O149 2.266 . S
In143 O150 2.326 . S
In143 O151 2.266 . S
In143 O152 2.326 . S
In143 O154 2.294 . S
In143 O155 2.326 . S
O144 In143 2.294 . S
O144 C153 1.240 . S
O145 In143 2.326 . S
O145 C153 1.252 . S
C146 O149 1.252 . S
C146 O150 1.260 . S
C147 O154 1.240 . S
C147 O155 1.252 . S
C148 O151 1.252 . S
C148 O152 1.260 . S
O149 In143 2.266 . S
O149 C146 1.252 . S
O150 In143 2.326 . S
O150 C146 1.260 . S
O151 In143 2.266 . S
O151 C148 1.252 . S
O152 In143 2.326 . S
O152 C148 1.260 . S
C153 O144 1.240 . S
C153 O145 1.252 . S
O154 In143 2.294 . S
O154 C147 1.240 . S
O155 In143 2.326 . S
O155 C147 1.252 . S
In156 O157 2.294 . S
In156 O158 2.326 . S
In156 O162 2.266 . S
In156 O163 2.326 . S
In156 O164 2.266 . S
In156 O165 2.326 . S
In156 O167 2.294 . S
In156 O168 2.326 . S
O157 In156 2.294 . S
O157 C166 1.240 . S
O158 In156 2.326 . S
O158 C166 1.252 . S
C159 O162 1.252 . S
C159 O163 1.260 . S
C160 O167 1.240 . S
C160 O168 1.252 . S
C161 O164 1.252 . S
C161 O165 1.260 . S
O162 In156 2.266 . S
O162 C159 1.252 . S
O163 In156 2.326 . S
O163 C159 1.260 . S
O164 In156 2.266 . S
O164 C161 1.252 . S
O165 In156 2.326 . S
O165 C161 1.260 . S
C166 O157 1.240 . S
C166 O158 1.252 . S
O167 In156 2.294 . S
O167 C160 1.240 . S
O168 In156 2.326 . S
O168 C160 1.252 . S
In169 O170 2.294 . S
In169 O171 2.326 . S
In169 O175 2.266 . S
In169 O176 2.326 . S
In169 O177 2.266 . S
In169 O178 2.326 . S
In169 O180 2.294 . S
In169 O181 2.326 . S
O170 In169 2.294 . S
O170 C179 1.240 . S
O171 In169 2.326 . S
O171 C179 1.252 . S
C172 O175 1.252 . S
C172 O176 1.260 . S
C173 O180 1.240 . S
C173 O181 1.252 . S
C174 O177 1.252 . S
C174 O178 1.260 . S
O175 In169 2.266 . S
O175 C172 1.252 . S
O176 In169 2.326 . S
O176 C172 1.260 . S
O177 In169 2.266 . S
O177 C174 1.252 . S
O178 In169 2.326 . S
O178 C174 1.260 . S
C179 O170 1.240 . S
C179 O171 1.252 . S
O180 In169 2.294 . S
O180 C173 1.240 . S
O181 In169 2.326 . S
O181 C173 1.252 . S
In182 O183 2.294 . S
In182 O184 2.326 . S
In182 O188 2.266 . S
In182 O189 2.326 . S
In182 O190 2.266 . S
In182 O191 2.326 . S
In182 O193 2.294 1_556 S
In182 O194 2.326 . S
O183 In182 2.294 . S
O183 C192 1.240 . S
O184 In182 2.326 . S
O184 C192 1.252 . S
C185 O188 1.252 . S
C185 O189 1.260 . S
C186 O193 1.240 1_556 S
C186 O194 1.252 . S
C187 O190 1.252 . S
C187 O191 1.260 . S
O188 In182 2.266 . S
O188 C185 1.252 . S
O189 In182 2.326 . S
O189 C185 1.260 . S
O190 In182 2.266 . S
O190 C187 1.252 . S
O191 In182 2.326 . S
O191 C187 1.260 . S
C192 O183 1.240 . S
C192 O184 1.252 . S
O193 In182 2.294 1_554 S
O193 C186 1.240 1_554 S
O194 In182 2.326 . S
O194 C186 1.252 . S
In195 O196 2.294 . S
In195 O197 2.326 . S
In195 O201 2.266 . S
In195 O202 2.326 . S
In195 O203 2.266 . S
In195 O204 2.326 . S
In195 O206 2.294 . S
In195 O207 2.326 . S
O196 In195 2.294 . S
O196 C205 1.240 . S
O197 In195 2.326 . S
O197 C205 1.252 . S
C198 O201 1.252 . S
C198 O202 1.260 . S
C199 O206 1.240 . S
C199 O207 1.252 . S
C200 O203 1.252 . S
C200 O204 1.260 . S
O201 In195 2.266 . S
O201 C198 1.252 . S
O202 In195 2.326 . S
O202 C198 1.260 . S
O203 In195 2.266 . S
O203 C200 1.252 . S
O204 In195 2.326 . S
O204 C200 1.260 . S
C205 O196 1.240 . S
C205 O197 1.252 . S
O206 In195 2.294 . S
O206 C199 1.240 . S
O207 In195 2.326 . S
O207 C199 1.252 . S
In208 O209 2.294 . S
In208 O210 2.326 . S
In208 O214 2.266 . S
In208 O215 2.326 . S
In208 O216 2.266 . S
In208 O217 2.326 . S
In208 O219 2.294 . S
In208 O220 2.326 . S
O209 In208 2.294 . S
O209 C218 1.240 . S
O210 In208 2.326 . S
O210 C218 1.252 . S
C211 O214 1.252 . S
C211 O215 1.260 . S
C212 O219 1.240 . S
C212 O220 1.252 . S
C213 O216 1.252 . S
C213 O217 1.260 . S
O214 In208 2.266 . S
O214 C211 1.252 . S
O215 In208 2.326 . S
O215 C211 1.260 . S
O216 In208 2.266 . S
O216 C213 1.252 . S
O217 In208 2.326 . S
O217 C213 1.260 . S
C218 O209 1.240 . S
C218 O210 1.252 . S
O219 In208 2.294 . S
O219 C212 1.240 . S
O220 In208 2.326 . S
O220 C212 1.252 . S
In221 O222 2.294 1_455 S
In221 O223 2.326 . S
In221 O227 2.266 . S
In221 O228 2.326 . S
In221 O229 2.266 . S
In221 O230 2.326 . S
In221 O232 2.294 . S
In221 O233 2.326 . S
O222 In221 2.294 1_655 S
O222 C231 1.240 1_655 S
O223 In221 2.326 . S
O223 C231 1.252 . S
C224 O227 1.252 . S
C224 O228 1.260 . S
C225 O232 1.240 . S
C225 O233 1.252 . S
C226 O229 1.252 . S
C226 O230 1.260 . S
O227 In221 2.266 . S
O227 C224 1.252 . S
O228 In221 2.326 . S
O228 C224 1.260 . S
O229 In221 2.266 . S
O229 C226 1.252 . S
O230 In221 2.326 . S
O230 C226 1.260 . S
C231 O222 1.240 1_455 S
C231 O223 1.252 . S
O232 In221 2.294 . S
O232 C225 1.240 . S
O233 In221 2.326 . S
O233 C225 1.252 . S
In234 O235 2.294 . S
In234 O236 2.326 . S
In234 O240 2.266 . S
In234 O241 2.326 . S
In234 O242 2.266 . S
In234 O243 2.326 . S
In234 O245 2.294 . S
In234 O246 2.326 . S
O235 In234 2.294 . S
O235 C244 1.240 . S
O236 In234 2.326 . S
O236 C244 1.252 . S
C237 O240 1.252 . S
C237 O241 1.260 . S
C238 O245 1.240 . S
C238 O246 1.252 . S
C239 O242 1.252 . S
C239 O243 1.260 . S
O240 In234 2.266 . S
O240 C237 1.252 . S
O241 In234 2.326 . S
O241 C237 1.260 . S
O242 In234 2.266 . S
O242 C239 1.252 . S
O243 In234 2.326 . S
O243 C239 1.260 . S
C244 O235 1.240 . S
C244 O236 1.252 . S
O245 In234 2.294 . S
O245 C238 1.240 . S
O246 In234 2.326 . S
O246 C238 1.252 . S
In247 O248 2.294 . S
In247 O249 2.326 . S
In247 O253 2.266 . S
In247 O254 2.326 . S
In247 O255 2.266 . S
In247 O256 2.326 . S
In247 O258 2.294 1_655 S
In247 O259 2.326 . S
O248 In247 2.294 . S
O248 C257 1.240 . S
O249 In247 2.326 . S
O249 C257 1.252 . S
C250 O253 1.252 . S
C250 O254 1.260 . S
C251 O258 1.240 1_655 S
C251 O259 1.252 . S
C252 O255 1.252 . S
C252 O256 1.260 . S
O253 In247 2.266 . S
O253 C250 1.252 . S
O254 In247 2.326 . S
O254 C250 1.260 . S
O255 In247 2.266 . S
O255 C252 1.252 . S
O256 In247 2.326 . S
O256 C252 1.260 . S
C257 O248 1.240 . S
C257 O249 1.252 . S
O258 In247 2.294 1_455 S
O258 C251 1.240 1_455 S
O259 In247 2.326 . S
O259 C251 1.252 . S
In260 O261 2.294 . S
In260 O262 2.326 . S
In260 O266 2.266 . S
In260 O267 2.326 . S
In260 O268 2.266 . S
In260 O269 2.326 . S
In260 O271 2.294 . S
In260 O272 2.326 . S
O261 In260 2.294 . S
O261 C270 1.240 . S
O262 In260 2.326 . S
O262 C270 1.252 . S
C263 O266 1.252 . S
C263 O267 1.260 . S
C264 O271 1.240 . S
C264 O272 1.252 . S
C265 O268 1.252 . S
C265 O269 1.260 . S
O266 In260 2.266 . S
O266 C263 1.252 . S
O267 In260 2.326 . S
O267 C263 1.260 . S
O268 In260 2.266 . S
O268 C265 1.252 . S
O269 In260 2.326 . S
O269 C265 1.260 . S
C270 O261 1.240 . S
C270 O262 1.252 . S
O271 In260 2.294 . S
O271 C264 1.240 . S
O272 In260 2.326 . S
O272 C264 1.252 . S
In273 O274 2.294 . S
In273 O275 2.326 . S
In273 O279 2.266 . S
In273 O280 2.326 . S
In273 O281 2.266 . S
In273 O282 2.326 . S
In273 O284 2.294 . S
In273 O285 2.326 . S
O274 In273 2.294 . S
O274 C283 1.240 . S
O275 In273 2.326 . S
O275 C283 1.252 . S
C276 O279 1.252 . S
C276 O280 1.260 . S
C277 O284 1.240 . S
C277 O285 1.252 . S
C278 O281 1.252 . S
C278 O282 1.260 . S
O279 In273 2.266 . S
O279 C276 1.252 . S
O280 In273 2.326 . S
O280 C276 1.260 . S
O281 In273 2.266 . S
O281 C278 1.252 . S
O282 In273 2.326 . S
O282 C278 1.260 . S
C283 O274 1.240 . S
C283 O275 1.252 . S
O284 In273 2.294 . S
O284 C277 1.240 . S
O285 In273 2.326 . S
O285 C277 1.252 . S
In286 O287 2.294 . S
In286 O288 2.326 . S
In286 O292 2.266 . S
In286 O293 2.326 . S
In286 O294 2.266 . S
In286 O295 2.326 . S
In286 O297 2.294 . S
In286 O298 2.326 . S
O287 In286 2.294 . S
O287 C296 1.240 . S
O288 In286 2.326 . S
O288 C296 1.252 . S
C289 O292 1.252 . S
C289 O293 1.260 . S
C290 O297 1.240 . S
C290 O298 1.252 . S
C291 O294 1.252 . S
C291 O295 1.260 . S
O292 In286 2.266 . S
O292 C289 1.252 . S
O293 In286 2.326 . S
O293 C289 1.260 . S
O294 In286 2.266 . S
O294 C291 1.252 . S
O295 In286 2.326 . S
O295 C291 1.260 . S
C296 O287 1.240 . S
C296 O288 1.252 . S
O297 In286 2.294 . S
O297 C290 1.240 . S
O298 In286 2.326 . S
O298 C290 1.252 . S
In299 O300 2.294 . S
In299 O301 2.326 . S
In299 O305 2.266 . S
In299 O306 2.326 . S
In299 O307 2.266 . S
In299 O308 2.326 . S
In299 O310 2.294 . S
In299 O311 2.326 . S
O300 In299 2.294 . S
O300 C309 1.240 . S
O301 In299 2.326 . S
O301 C309 1.252 . S
C302 O305 1.252 . S
C302 O306 1.260 . S
C303 O310 1.240 . S
C303 O311 1.252 . S
C304 O307 1.252 . S
C304 O308 1.260 . S
O305 In299 2.266 . S
O305 C302 1.252 . S
O306 In299 2.326 . S
O306 C302 1.260 . S
O307 In299 2.266 . S
O307 C304 1.252 . S
O308 In299 2.326 . S
O308 C304 1.260 . S
C309 O300 1.240 . S
C309 O301 1.252 . S
O310 In299 2.294 . S
O310 C303 1.240 . S
O311 In299 2.326 . S
O311 C303 1.252 . S
In312 O313 2.294 1_545 S
In312 O314 2.326 . S
In312 O318 2.266 . S
In312 O319 2.326 . S
In312 O320 2.266 . S
In312 O321 2.326 . S
In312 O323 2.294 . S
In312 O324 2.326 . S
O313 In312 2.294 1_565 S
O313 C322 1.240 1_565 S
O314 In312 2.326 . S
O314 C322 1.252 . S
C315 O318 1.252 . S
C315 O319 1.260 . S
C316 O323 1.240 . S
C316 O324 1.252 . S
C317 O320 1.252 . S
C317 O321 1.260 . S
O318 In312 2.266 . S
O318 C315 1.252 . S
O319 In312 2.326 . S
O319 C315 1.260 . S
O320 In312 2.266 . S
O320 C317 1.252 . S
O321 In312 2.326 . S
O321 C317 1.260 . S
C322 O313 1.240 1_545 S
C322 O314 1.252 . S
O323 In312 2.294 . S
O323 C316 1.240 . S
O324 In312 2.326 . S
O324 C316 1.252 . S
In325 O326 2.294 . S
In325 O327 2.326 . S
In325 O331 2.266 . S
In325 O332 2.326 . S
In325 O333 2.266 . S
In325 O334 2.326 . S
In325 O336 2.294 . S
In325 O337 2.326 . S
O326 In325 2.294 . S
O326 C335 1.240 . S
O327 In325 2.326 . S
O327 C335 1.252 . S
C328 O331 1.252 . S
C328 O332 1.260 . S
C329 O336 1.240 . S
C329 O337 1.252 . S
C330 O333 1.252 . S
C330 O334 1.260 . S
O331 In325 2.266 . S
O331 C328 1.252 . S
O332 In325 2.326 . S
O332 C328 1.260 . S
O333 In325 2.266 . S
O333 C330 1.252 . S
O334 In325 2.326 . S
O334 C330 1.260 . S
C335 O326 1.240 . S
C335 O327 1.252 . S
O336 In325 2.294 . S
O336 C329 1.240 . S
O337 In325 2.326 . S
O337 C329 1.252 . S
In338 O339 2.294 . S
In338 O340 2.326 . S
In338 O344 2.266 . S
In338 O345 2.326 . S
In338 O346 2.266 . S
In338 O347 2.326 . S
In338 O349 2.294 . S
In338 O350 2.326 . S
O339 In338 2.294 . S
O339 C348 1.240 . S
O340 In338 2.326 . S
O340 C348 1.252 . S
C341 O344 1.252 . S
C341 O345 1.260 . S
C342 O349 1.240 . S
C342 O350 1.252 . S
C343 O346 1.252 . S
C343 O347 1.260 . S
O344 In338 2.266 . S
O344 C341 1.252 . S
O345 In338 2.326 . S
O345 C341 1.260 . S
O346 In338 2.266 . S
O346 C343 1.252 . S
O347 In338 2.326 . S
O347 C343 1.260 . S
C348 O339 1.240 . S
C348 O340 1.252 . S
O349 In338 2.294 . S
O349 C342 1.240 . S
O350 In338 2.326 . S
O350 C342 1.252 . S
In351 O352 2.294 . S
In351 O353 2.326 . S
In351 O357 2.266 . S
In351 O358 2.326 . S
In351 O359 2.266 . S
In351 O360 2.326 . S
In351 O362 2.294 . S
In351 O363 2.326 . S
O352 In351 2.294 . S
O352 C361 1.240 . S
O353 In351 2.326 . S
O353 C361 1.252 . S
C354 O357 1.252 . S
C354 O358 1.260 . S
C355 O362 1.240 . S
C355 O363 1.252 . S
C356 O359 1.252 . S
C356 O360 1.260 . S
O357 In351 2.266 . S
O357 C354 1.252 . S
O358 In351 2.326 . S
O358 C354 1.260 . S
O359 In351 2.266 . S
O359 C356 1.252 . S
O360 In351 2.326 . S
O360 C356 1.260 . S
C361 O352 1.240 . S
C361 O353 1.252 . S
O362 In351 2.294 . S
O362 C355 1.240 . S
O363 In351 2.326 . S
O363 C355 1.252 . S
In364 O365 2.294 . S
In364 O366 2.326 . S
In364 O370 2.266 . S
In364 O371 2.326 . S
In364 O372 2.266 . S
In364 O373 2.326 . S
In364 O375 2.294 1_565 S
In364 O376 2.326 . S
O365 In364 2.294 . S
O365 C374 1.240 . S
O366 In364 2.326 . S
O366 C374 1.252 . S
C367 O370 1.252 . S
C367 O371 1.260 . S
C368 O375 1.240 1_565 S
C368 O376 1.252 . S
C369 O372 1.252 . S
C369 O373 1.260 . S
O370 In364 2.266 . S
O370 C367 1.252 . S
O371 In364 2.326 . S
O371 C367 1.260 . S
O372 In364 2.266 . S
O372 C369 1.252 . S
O373 In364 2.326 . S
O373 C369 1.260 . S
C374 O365 1.240 . S
C374 O366 1.252 . S
O375 In364 2.294 1_545 S
O375 C368 1.240 1_545 S
O376 In364 2.326 . S
O376 C368 1.252 . S
In377 O378 2.294 . S
In377 O379 2.326 . S
In377 O383 2.266 . S
In377 O384 2.326 . S
In377 O385 2.266 . S
In377 O386 2.326 . S
In377 O388 2.294 . S
In377 O389 2.326 . S
O378 In377 2.294 . S
O378 C387 1.240 . S
O379 In377 2.326 . S
O379 C387 1.252 . S
C380 O383 1.252 . S
C380 O384 1.260 . S
C381 O388 1.240 . S
C381 O389 1.252 . S
C382 O385 1.252 . S
C382 O386 1.260 . S
O383 In377 2.266 . S
O383 C380 1.252 . S
O384 In377 2.326 . S
O384 C380 1.260 . S
O385 In377 2.266 . S
O385 C382 1.252 . S
O386 In377 2.326 . S
O386 C382 1.260 . S
C387 O378 1.240 . S
C387 O379 1.252 . S
O388 In377 2.294 . S
O388 C381 1.240 . S
O389 In377 2.326 . S
O389 C381 1.252 . S
In390 O391 2.294 . S
In390 O392 2.326 . S
In390 O396 2.266 . S
In390 O397 2.326 . S
In390 O398 2.266 . S
In390 O399 2.326 . S
In390 O401 2.294 . S
In390 O402 2.326 . S
O391 In390 2.294 . S
O391 C400 1.240 . S
O392 In390 2.326 . S
O392 C400 1.252 . S
C393 O396 1.252 . S
C393 O397 1.260 . S
C394 O401 1.240 . S
C394 O402 1.252 . S
C395 O398 1.252 . S
C395 O399 1.260 . S
O396 In390 2.266 . S
O396 C393 1.252 . S
O397 In390 2.326 . S
O397 C393 1.260 . S
O398 In390 2.266 . S
O398 C395 1.252 . S
O399 In390 2.326 . S
O399 C395 1.260 . S
C400 O391 1.240 . S
C400 O392 1.252 . S
O401 In390 2.294 . S
O401 C394 1.240 . S
O402 In390 2.326 . S
O402 C394 1.252 . S
In403 O404 2.294 . S
In403 O405 2.326 . S
In403 O409 2.266 . S
In403 O410 2.326 . S
In403 O411 2.266 . S
In403 O412 2.326 . S
In403 O414 2.294 . S
In403 O415 2.326 . S
O404 In403 2.294 . S
O404 C413 1.240 . S
O405 In403 2.326 . S
O405 C413 1.252 . S
C406 O409 1.252 . S
C406 O410 1.260 . S
C407 O414 1.240 . S
C407 O415 1.252 . S
C408 O411 1.252 . S
C408 O412 1.260 . S
O409 In403 2.266 . S
O409 C406 1.252 . S
O410 In403 2.326 . S
O410 C406 1.260 . S
O411 In403 2.266 . S
O411 C408 1.252 . S
O412 In403 2.326 . S
O412 C408 1.260 . S
C413 O404 1.240 . S
C413 O405 1.252 . S
O414 In403 2.294 . S
O414 C407 1.240 . S
O415 In403 2.326 . S
O415 C407 1.252 . S
In416 O417 2.294 1_554 S
In416 O418 2.326 . S
In416 O422 2.266 . S
In416 O423 2.326 . S
In416 O424 2.266 . S
In416 O425 2.326 . S
In416 O427 2.294 . S
In416 O428 2.326 . S
O417 In416 2.294 1_556 S
O417 C426 1.240 1_556 S
O418 In416 2.326 . S
O418 C426 1.252 . S
C419 O422 1.252 . S
C419 O423 1.260 . S
C420 O427 1.240 . S
C420 O428 1.252 . S
C421 O424 1.252 . S
C421 O425 1.260 . S
O422 In416 2.266 . S
O422 C419 1.252 . S
O423 In416 2.326 . S
O423 C419 1.260 . S
O424 In416 2.266 . S
O424 C421 1.252 . S
O425 In416 2.326 . S
O425 C421 1.260 . S
C426 O417 1.240 1_554 S
C426 O418 1.252 . S
O427 In416 2.294 . S
O427 C420 1.240 . S
O428 In416 2.326 . S
O428 C420 1.252 . S
In429 O430 2.294 . S
In429 O431 2.326 . S
In429 O435 2.266 . S
In429 O436 2.326 . S
In429 O437 2.266 . S
In429 O438 2.326 . S
In429 O440 2.294 . S
In429 O441 2.326 . S
O430 In429 2.294 . S
O430 C439 1.240 . S
O431 In429 2.326 . S
O431 C439 1.252 . S
C432 O435 1.252 . S
C432 O436 1.260 . S
C433 O440 1.240 . S
C433 O441 1.252 . S
C434 O437 1.252 . S
C434 O438 1.260 . S
O435 In429 2.266 . S
O435 C432 1.252 . S
O436 In429 2.326 . S
O436 C432 1.260 . S
O437 In429 2.266 . S
O437 C434 1.252 . S
O438 In429 2.326 . S
O438 C434 1.260 . S
C439 O430 1.240 . S
C439 O431 1.252 . S
O440 In429 2.294 . S
O440 C433 1.240 . S
O441 In429 2.326 . S
O441 C433 1.252 . S
In442 O443 2.294 . S
In442 O444 2.326 . S
In442 O448 2.266 . S
In442 O449 2.326 . S
In442 O450 2.266 . S
In442 O451 2.326 . S
In442 O453 2.294 . S
In442 O454 2.326 . S
O443 In442 2.294 . S
O443 C452 1.240 . S
O444 In442 2.326 . S
O444 C452 1.252 . S
C445 O448 1.252 . S
C445 O449 1.260 . S
C446 O453 1.240 . S
C446 O454 1.252 . S
C447 O450 1.252 . S
C447 O451 1.260 . S
O448 In442 2.266 . S
O448 C445 1.252 . S
O449 In442 2.326 . S
O449 C445 1.260 . S
O450 In442 2.266 . S
O450 C447 1.252 . S
O451 In442 2.326 . S
O451 C447 1.260 . S
C452 O443 1.240 . S
C452 O444 1.252 . S
O453 In442 2.294 . S
O453 C446 1.240 . S
O454 In442 2.326 . S
O454 C446 1.252 . S
In455 O456 2.294 . S
In455 O457 2.326 . S
In455 O461 2.266 . S
In455 O462 2.326 . S
In455 O463 2.266 . S
In455 O464 2.326 . S
In455 O466 2.294 . S
In455 O467 2.326 . S
O456 In455 2.294 . S
O456 C465 1.240 . S
O457 In455 2.326 . S
O457 C465 1.252 . S
C458 O461 1.252 . S
C458 O462 1.260 . S
C459 O466 1.240 . S
C459 O467 1.252 . S
C460 O463 1.252 . S
C460 O464 1.260 . S
O461 In455 2.266 . S
O461 C458 1.252 . S
O462 In455 2.326 . S
O462 C458 1.260 . S
O463 In455 2.266 . S
O463 C460 1.252 . S
O464 In455 2.326 . S
O464 C460 1.260 . S
C465 O456 1.240 . S
C465 O457 1.252 . S
O466 In455 2.294 . S
O466 C459 1.240 . S
O467 In455 2.326 . S
O467 C459 1.252 . S
In468 O469 2.294 . S
In468 O470 2.326 . S
In468 O474 2.266 . S
In468 O475 2.326 . S
In468 O476 2.266 . S
In468 O477 2.326 . S
In468 O479 2.294 1_556 S
In468 O480 2.326 . S
O469 In468 2.294 . S
O469 C478 1.240 . S
O470 In468 2.326 . S
O470 C478 1.252 . S
C471 O474 1.252 . S
C471 O475 1.260 . S
C472 O479 1.240 1_556 S
C472 O480 1.252 . S
C473 O476 1.252 . S
C473 O477 1.260 . S
O474 In468 2.266 . S
O474 C471 1.252 . S
O475 In468 2.326 . S
O475 C471 1.260 . S
O476 In468 2.266 . S
O476 C473 1.252 . S
O477 In468 2.326 . S
O477 C473 1.260 . S
C478 O469 1.240 . S
C478 O470 1.252 . S
O479 In468 2.294 1_554 S
O479 C472 1.240 1_554 S
O480 In468 2.326 . S
O480 C472 1.252 . S
In481 O482 2.294 . S
In481 O483 2.326 . S
In481 O487 2.266 . S
In481 O488 2.326 . S
In481 O489 2.266 . S
In481 O490 2.326 . S
In481 O492 2.294 . S
In481 O493 2.326 . S
O482 In481 2.294 . S
O482 C491 1.240 . S
O483 In481 2.326 . S
O483 C491 1.252 . S
C484 O487 1.252 . S
C484 O488 1.260 . S
C485 O492 1.240 . S
C485 O493 1.252 . S
C486 O489 1.252 . S
C486 O490 1.260 . S
O487 In481 2.266 . S
O487 C484 1.252 . S
O488 In481 2.326 . S
O488 C484 1.260 . S
O489 In481 2.266 . S
O489 C486 1.252 . S
O490 In481 2.326 . S
O490 C486 1.260 . S
C491 O482 1.240 . S
C491 O483 1.252 . S
O492 In481 2.294 . S
O492 C485 1.240 . S
O493 In481 2.326 . S
O493 C485 1.252 . S
In494 O495 2.294 . S
In494 O496 2.326 . S
In494 O500 2.266 . S
In494 O501 2.326 . S
In494 O502 2.266 . S
In494 O503 2.326 . S
In494 O505 2.294 . S
In494 O506 2.326 . S
O495 In494 2.294 . S
O495 C504 1.240 . S
O496 In494 2.326 . S
O496 C504 1.252 . S
C497 O500 1.252 . S
C497 O501 1.260 . S
C498 O505 1.240 . S
C498 O506 1.252 . S
C499 O502 1.252 . S
C499 O503 1.260 . S
O500 In494 2.266 . S
O500 C497 1.252 . S
O501 In494 2.326 . S
O501 C497 1.260 . S
O502 In494 2.266 . S
O502 C499 1.252 . S
O503 In494 2.326 . S
O503 C499 1.260 . S
C504 O495 1.240 . S
C504 O496 1.252 . S
O505 In494 2.294 . S
O505 C498 1.240 . S
O506 In494 2.326 . S
O506 C498 1.252 . S
In507 O508 2.294 . S
In507 O509 2.326 . S
In507 O513 2.266 . S
In507 O514 2.326 . S
In507 O515 2.266 . S
In507 O516 2.326 . S
In507 O518 2.294 . S
In507 O519 2.326 . S
O508 In507 2.294 . S
O508 C517 1.240 . S
O509 In507 2.326 . S
O509 C517 1.252 . S
C510 O513 1.252 . S
C510 O514 1.260 . S
C511 O518 1.240 . S
C511 O519 1.252 . S
C512 O515 1.252 . S
C512 O516 1.260 . S
O513 In507 2.266 . S
O513 C510 1.252 . S
O514 In507 2.326 . S
O514 C510 1.260 . S
O515 In507 2.266 . S
O515 C512 1.252 . S
O516 In507 2.326 . S
O516 C512 1.260 . S
C517 O508 1.240 . S
C517 O509 1.252 . S
O518 In507 2.294 . S
O518 C511 1.240 . S
O519 In507 2.326 . S
O519 C511 1.252 . S
In520 O521 2.294 . S
In520 O522 2.326 . S
In520 O526 2.266 . S
In520 O527 2.326 . S
In520 O528 2.266 . S
In520 O529 2.326 . S
In520 O531 2.294 . S
In520 O532 2.326 . S
O521 In520 2.294 . S
O521 C530 1.240 . S
O522 In520 2.326 . S
O522 C530 1.252 . S
C523 O526 1.252 . S
C523 O527 1.260 . S
C524 O531 1.240 . S
C524 O532 1.252 . S
C525 O528 1.252 . S
C525 O529 1.260 . S
O526 In520 2.266 . S
O526 C523 1.252 . S
O527 In520 2.326 . S
O527 C523 1.260 . S
O528 In520 2.266 . S
O528 C525 1.252 . S
O529 In520 2.326 . S
O529 C525 1.260 . S
C530 O521 1.240 . S
C530 O522 1.252 . S
O531 In520 2.294 . S
O531 C524 1.240 . S
O532 In520 2.326 . S
O532 C524 1.252 . S
In533 O534 2.294 . S
In533 O535 2.326 . S
In533 O539 2.266 . S
In533 O540 2.326 . S
In533 O541 2.266 . S
In533 O542 2.326 . S
In533 O544 2.294 1_455 S
In533 O545 2.326 . S
O534 In533 2.294 . S
O534 C543 1.240 . S
O535 In533 2.326 . S
O535 C543 1.252 . S
C536 O539 1.252 . S
C536 O540 1.260 . S
C537 O544 1.240 1_455 S
C537 O545 1.252 . S
C538 O541 1.252 . S
C538 O542 1.260 . S
O539 In533 2.266 . S
O539 C536 1.252 . S
O540 In533 2.326 . S
O540 C536 1.260 . S
O541 In533 2.266 . S
O541 C538 1.252 . S
O542 In533 2.326 . S
O542 C538 1.260 . S
C543 O534 1.240 . S
C543 O535 1.252 . S
O544 In533 2.294 1_655 S
O544 C537 1.240 1_655 S
O545 In533 2.326 . S
O545 C537 1.252 . S
In546 O547 2.294 . S
In546 O548 2.326 . S
In546 O552 2.266 . S
In546 O553 2.326 . S
In546 O554 2.266 . S
In546 O555 2.326 . S
In546 O557 2.294 . S
In546 O558 2.326 . S
O547 In546 2.294 . S
O547 C556 1.240 . S
O548 In546 2.326 . S
O548 C556 1.252 . S
C549 O552 1.252 . S
C549 O553 1.260 . S
C550 O557 1.240 . S
C550 O558 1.252 . S
C551 O554 1.252 . S
C551 O555 1.260 . S
O552 In546 2.266 . S
O552 C549 1.252 . S
O553 In546 2.326 . S
O553 C549 1.260 . S
O554 In546 2.266 . S
O554 C551 1.252 . S
O555 In546 2.326 . S
O555 C551 1.260 . S
C556 O547 1.240 . S
C556 O548 1.252 . S
O557 In546 2.294 . S
O557 C550 1.240 . S
O558 In546 2.326 . S
O558 C550 1.252 . S
In559 O560 2.294 1_655 S
In559 O561 2.326 . S
In559 O565 2.266 . S
In559 O566 2.326 . S
In559 O567 2.266 . S
In559 O568 2.326 . S
In559 O570 2.294 . S
In559 O571 2.326 . S
O560 In559 2.294 1_455 S
O560 C569 1.240 1_455 S
O561 In559 2.326 . S
O561 C569 1.252 . S
C562 O565 1.252 . S
C562 O566 1.260 . S
C563 O570 1.240 . S
C563 O571 1.252 . S
C564 O567 1.252 . S
C564 O568 1.260 . S
O565 In559 2.266 . S
O565 C562 1.252 . S
O566 In559 2.326 . S
O566 C562 1.260 . S
O567 In559 2.266 . S
O567 C564 1.252 . S
O568 In559 2.326 . S
O568 C564 1.260 . S
C569 O560 1.240 1_655 S
C569 O561 1.252 . S
O570 In559 2.294 . S
O570 C563 1.240 . S
O571 In559 2.326 . S
O571 C563 1.252 . S
In572 O573 2.294 . S
In572 O574 2.326 . S
In572 O578 2.266 . S
In572 O579 2.326 . S
In572 O580 2.266 . S
In572 O581 2.326 . S
In572 O583 2.294 . S
In572 O584 2.326 . S
O573 In572 2.294 . S
O573 C582 1.240 . S
O574 In572 2.326 . S
O574 C582 1.252 . S
C575 O578 1.252 . S
C575 O579 1.260 . S
C576 O583 1.240 . S
C576 O584 1.252 . S
C577 O580 1.252 . S
C577 O581 1.260 . S
O578 In572 2.266 . S
O578 C575 1.252 . S
O579 In572 2.326 . S
O579 C575 1.260 . S
O580 In572 2.266 . S
O580 C577 1.252 . S
O581 In572 2.326 . S
O581 C577 1.260 . S
C582 O573 1.240 . S
C582 O574 1.252 . S
O583 In572 2.294 . S
O583 C576 1.240 . S
O584 In572 2.326 . S
O584 C576 1.252 . S
In585 O586 2.294 . S
In585 O587 2.326 . S
In585 O591 2.266 . S
In585 O592 2.326 . S
In585 O593 2.266 . S
In585 O594 2.326 . S
In585 O596 2.294 . S
In585 O597 2.326 . S
O586 In585 2.294 . S
O586 C595 1.240 . S
O587 In585 2.326 . S
O587 C595 1.252 . S
C588 O591 1.252 . S
C588 O592 1.260 . S
C589 O596 1.240 . S
C589 O597 1.252 . S
C590 O593 1.252 . S
C590 O594 1.260 . S
O591 In585 2.266 . S
O591 C588 1.252 . S
O592 In585 2.326 . S
O592 C588 1.260 . S
O593 In585 2.266 . S
O593 C590 1.252 . S
O594 In585 2.326 . S
O594 C590 1.260 . S
C595 O586 1.240 . S
C595 O587 1.252 . S
O596 In585 2.294 . S
O596 C589 1.240 . S
O597 In585 2.326 . S
O597 C589 1.252 . S
In598 O599 2.294 . S
In598 O600 2.326 . S
In598 O604 2.266 . S
In598 O605 2.326 . S
In598 O606 2.266 . S
In598 O607 2.326 . S
In598 O609 2.294 . S
In598 O610 2.326 . S
O599 In598 2.294 . S
O599 C608 1.240 . S
O600 In598 2.326 . S
O600 C608 1.252 . S
C601 O604 1.252 . S
C601 O605 1.260 . S
C602 O609 1.240 . S
C602 O610 1.252 . S
C603 O606 1.252 . S
C603 O607 1.260 . S
O604 In598 2.266 . S
O604 C601 1.252 . S
O605 In598 2.326 . S
O605 C601 1.260 . S
O606 In598 2.266 . S
O606 C603 1.252 . S
O607 In598 2.326 . S
O607 C603 1.260 . S
C608 O599 1.240 . S
C608 O600 1.252 . S
O609 In598 2.294 . S
O609 C602 1.240 . S
O610 In598 2.326 . S
O610 C602 1.252 . S
In611 O612 2.294 . S
In611 O613 2.326 . S
In611 O617 2.266 . S
In611 O618 2.326 . S
In611 O619 2.266 . S
In611 O620 2.326 . S
In611 O622 2.294 . S
In611 O623 2.326 . S
O612 In611 2.294 . S
O612 C621 1.240 . S
O613 In611 2.326 . S
O613 C621 1.252 . S
C614 O617 1.252 . S
C614 O618 1.260 . S
C615 O622 1.240 . S
C615 O623 1.252 . S
C616 O619 1.252 . S
C616 O620 1.260 . S
O617 In611 2.266 . S
O617 C614 1.252 . S
O618 In611 2.326 . S
O618 C614 1.260 . S
O619 In611 2.266 . S
O619 C616 1.252 . S
O620 In611 2.326 . S
O620 C616 1.260 . S
C621 O612 1.240 . S
C621 O613 1.252 . S
O622 In611 2.294 . S
O622 C615 1.240 . S
O623 In611 2.326 . S
O623 C615 1.252 . S
In624 O625 2.294 . S
In624 O626 2.326 . S
In624 O630 2.266 . S
In624 O631 2.326 . S
In624 O632 2.266 . S
In624 O633 2.326 . S
In624 O635 2.294 . S
In624 O636 2.326 . S
O625 In624 2.294 . S
O625 C634 1.240 . S
O626 In624 2.326 . S
O626 C634 1.252 . S
C627 O630 1.252 . S
C627 O631 1.260 . S
C628 O635 1.240 . S
C628 O636 1.252 . S
C629 O632 1.252 . S
C629 O633 1.260 . S
O630 In624 2.266 . S
O630 C627 1.252 . S
O631 In624 2.326 . S
O631 C627 1.260 . S
O632 In624 2.266 . S
O632 C629 1.252 . S
O633 In624 2.326 . S
O633 C629 1.260 . S
C634 O625 1.240 . S
C634 O626 1.252 . S
O635 In624 2.294 . S
O635 C628 1.240 . S
O636 In624 2.326 . S
O636 C628 1.252 . S
In637 O638 2.294 . S
In637 O639 2.326 . S
In637 O643 2.266 . S
In637 O644 2.326 . S
In637 O645 2.266 . S
In637 O646 2.326 . S
In637 O648 2.294 . S
In637 O649 2.326 . S
O638 In637 2.294 . S
O638 C647 1.240 . S
O639 In637 2.326 . S
O639 C647 1.252 . S
C640 O643 1.252 . S
C640 O644 1.260 . S
C641 O648 1.240 . S
C641 O649 1.252 . S
C642 O645 1.252 . S
C642 O646 1.260 . S
O643 In637 2.266 . S
O643 C640 1.252 . S
O644 In637 2.326 . S
O644 C640 1.260 . S
O645 In637 2.266 . S
O645 C642 1.252 . S
O646 In637 2.326 . S
O646 C642 1.260 . S
C647 O638 1.240 . S
C647 O639 1.252 . S
O648 In637 2.294 . S
O648 C641 1.240 . S
O649 In637 2.326 . S
O649 C641 1.252 . S
In650 O651 2.294 . S
In650 O652 2.326 . S
In650 O656 2.266 . S
In650 O657 2.326 . S
In650 O658 2.266 . S
In650 O659 2.326 . S
In650 O661 2.294 1_565 S
In650 O662 2.326 . S
O651 In650 2.294 . S
O651 C660 1.240 . S
O652 In650 2.326 . S
O652 C660 1.252 . S
C653 O656 1.252 . S
C653 O657 1.260 . S
C654 O661 1.240 1_565 S
C654 O662 1.252 . S
C655 O658 1.252 . S
C655 O659 1.260 . S
O656 In650 2.266 . S
O656 C653 1.252 . S
O657 In650 2.326 . S
O657 C653 1.260 . S
O658 In650 2.266 . S
O658 C655 1.252 . S
O659 In650 2.326 . S
O659 C655 1.260 . S
C660 O651 1.240 . S
C660 O652 1.252 . S
O661 In650 2.294 1_545 S
O661 C654 1.240 1_545 S
O662 In650 2.326 . S
O662 C654 1.252 . S
In663 O664 2.294 . S
In663 O665 2.326 . S
In663 O669 2.266 . S
In663 O670 2.326 . S
In663 O671 2.266 . S
In663 O672 2.326 . S
In663 O674 2.294 . S
In663 O675 2.326 . S
O664 In663 2.294 . S
O664 C673 1.240 . S
O665 In663 2.326 . S
O665 C673 1.252 . S
C666 O669 1.252 . S
C666 O670 1.260 . S
C667 O674 1.240 . S
C667 O675 1.252 . S
C668 O671 1.252 . S
C668 O672 1.260 . S
O669 In663 2.266 . S
O669 C666 1.252 . S
O670 In663 2.326 . S
O670 C666 1.260 . S
O671 In663 2.266 . S
O671 C668 1.252 . S
O672 In663 2.326 . S
O672 C668 1.260 . S
C673 O664 1.240 . S
C673 O665 1.252 . S
O674 In663 2.294 . S
O674 C667 1.240 . S
O675 In663 2.326 . S
O675 C667 1.252 . S
In676 O677 2.294 . S
In676 O678 2.326 . S
In676 O682 2.266 . S
In676 O683 2.326 . S
In676 O684 2.266 . S
In676 O685 2.326 . S
In676 O687 2.294 . S
In676 O688 2.326 . S
O677 In676 2.294 . S
O677 C686 1.240 . S
O678 In676 2.326 . S
O678 C686 1.252 . S
C679 O682 1.252 . S
C679 O683 1.260 . S
C680 O687 1.240 . S
C680 O688 1.252 . S
C681 O684 1.252 . S
C681 O685 1.260 . S
O682 In676 2.266 . S
O682 C679 1.252 . S
O683 In676 2.326 . S
O683 C679 1.260 . S
O684 In676 2.266 . S
O684 C681 1.252 . S
O685 In676 2.326 . S
O685 C681 1.260 . S
C686 O677 1.240 . S
C686 O678 1.252 . S
O687 In676 2.294 . S
O687 C680 1.240 . S
O688 In676 2.326 . S
O688 C680 1.252 . S
In689 O690 2.294 . S
In689 O691 2.326 . S
In689 O695 2.266 . S
In689 O696 2.326 . S
In689 O697 2.266 . S
In689 O698 2.326 . S
In689 O700 2.294 . S
In689 O701 2.326 . S
O690 In689 2.294 . S
O690 C699 1.240 . S
O691 In689 2.326 . S
O691 C699 1.252 . S
C692 O695 1.252 . S
C692 O696 1.260 . S
C693 O700 1.240 . S
C693 O701 1.252 . S
C694 O697 1.252 . S
C694 O698 1.260 . S
O695 In689 2.266 . S
O695 C692 1.252 . S
O696 In689 2.326 . S
O696 C692 1.260 . S
O697 In689 2.266 . S
O697 C694 1.252 . S
O698 In689 2.326 . S
O698 C694 1.260 . S
C699 O690 1.240 . S
C699 O691 1.252 . S
O700 In689 2.294 . S
O700 C693 1.240 . S
O701 In689 2.326 . S
O701 C693 1.252 . S
In702 O703 2.294 1_545 S
In702 O704 2.326 . S
In702 O708 2.266 . S
In702 O709 2.326 . S
In702 O710 2.266 . S
In702 O711 2.326 . S
In702 O713 2.294 . S
In702 O714 2.326 . S
O703 In702 2.294 1_565 S
O703 C712 1.240 1_565 S
O704 In702 2.326 . S
O704 C712 1.252 . S
C705 O708 1.252 . S
C705 O709 1.260 . S
C706 O713 1.240 . S
C706 O714 1.252 . S
C707 O710 1.252 . S
C707 O711 1.260 . S
O708 In702 2.266 . S
O708 C705 1.252 . S
O709 In702 2.326 . S
O709 C705 1.260 . S
O710 In702 2.266 . S
O710 C707 1.252 . S
O711 In702 2.326 . S
O711 C707 1.260 . S
C712 O703 1.240 1_545 S
C712 O704 1.252 . S
O713 In702 2.294 . S
O713 C706 1.240 . S
O714 In702 2.326 . S
O714 C706 1.252 . S
In715 O716 2.294 . S
In715 O717 2.326 . S
In715 O721 2.266 . S
In715 O722 2.326 . S
In715 O723 2.266 . S
In715 O724 2.326 . S
In715 O726 2.294 . S
In715 O727 2.326 . S
O716 In715 2.294 . S
O716 C725 1.240 . S
O717 In715 2.326 . S
O717 C725 1.252 . S
C718 O721 1.252 . S
C718 O722 1.260 . S
C719 O726 1.240 . S
C719 O727 1.252 . S
C720 O723 1.252 . S
C720 O724 1.260 . S
O721 In715 2.266 . S
O721 C718 1.252 . S
O722 In715 2.326 . S
O722 C718 1.260 . S
O723 In715 2.266 . S
O723 C720 1.252 . S
O724 In715 2.326 . S
O724 C720 1.260 . S
C725 O716 1.240 . S
C725 O717 1.252 . S
O726 In715 2.294 . S
O726 C719 1.240 . S
O727 In715 2.326 . S
O727 C719 1.252 . S
In728 O729 2.294 1_554 S
In728 O730 2.326 . S
In728 O734 2.266 . S
In728 O735 2.326 . S
In728 O736 2.266 . S
In728 O737 2.326 . S
In728 O739 2.294 . S
In728 O740 2.326 . S
O729 In728 2.294 1_556 S
O729 C738 1.240 1_556 S
O730 In728 2.326 . S
O730 C738 1.252 . S
C731 O734 1.252 . S
C731 O735 1.260 . S
C732 O739 1.240 . S
C732 O740 1.252 . S
C733 O736 1.252 . S
C733 O737 1.260 . S
O734 In728 2.266 . S
O734 C731 1.252 . S
O735 In728 2.326 . S
O735 C731 1.260 . S
O736 In728 2.266 . S
O736 C733 1.252 . S
O737 In728 2.326 . S
O737 C733 1.260 . S
C738 O729 1.240 1_554 S
C738 O730 1.252 . S
O739 In728 2.294 . S
O739 C732 1.240 . S
O740 In728 2.326 . S
O740 C732 1.252 . S
In741 O742 2.294 . S
In741 O743 2.326 . S
In741 O747 2.266 . S
In741 O748 2.326 . S
In741 O749 2.266 . S
In741 O750 2.326 . S
In741 O752 2.294 . S
In741 O753 2.326 . S
O742 In741 2.294 . S
O742 C751 1.240 . S
O743 In741 2.326 . S
O743 C751 1.252 . S
C744 O747 1.252 . S
C744 O748 1.260 . S
C745 O752 1.240 . S
C745 O753 1.252 . S
C746 O749 1.252 . S
C746 O750 1.260 . S
O747 In741 2.266 . S
O747 C744 1.252 . S
O748 In741 2.326 . S
O748 C744 1.260 . S
O749 In741 2.266 . S
O749 C746 1.252 . S
O750 In741 2.326 . S
O750 C746 1.260 . S
C751 O742 1.240 . S
C751 O743 1.252 . S
O752 In741 2.294 . S
O752 C745 1.240 . S
O753 In741 2.326 . S
O753 C745 1.252 . S
In754 O755 2.294 . S
In754 O756 2.326 . S
In754 O760 2.266 . S
In754 O761 2.326 . S
In754 O762 2.266 . S
In754 O763 2.326 . S
In754 O765 2.294 . S
In754 O766 2.326 . S
O755 In754 2.294 . S
O755 C764 1.240 . S
O756 In754 2.326 . S
O756 C764 1.252 . S
C757 O760 1.252 . S
C757 O761 1.260 . S
C758 O765 1.240 . S
C758 O766 1.252 . S
C759 O762 1.252 . S
C759 O763 1.260 . S
O760 In754 2.266 . S
O760 C757 1.252 . S
O761 In754 2.326 . S
O761 C757 1.260 . S
O762 In754 2.266 . S
O762 C759 1.252 . S
O763 In754 2.326 . S
O763 C759 1.260 . S
C764 O755 1.240 . S
C764 O756 1.252 . S
O765 In754 2.294 . S
O765 C758 1.240 . S
O766 In754 2.326 . S
O766 C758 1.252 . S
In767 O768 2.294 . S
In767 O769 2.326 . S
In767 O773 2.266 . S
In767 O774 2.326 . S
In767 O775 2.266 . S
In767 O776 2.326 . S
In767 O778 2.294 . S
In767 O779 2.326 . S
O768 In767 2.294 . S
O768 C777 1.240 . S
O769 In767 2.326 . S
O769 C777 1.252 . S
C770 O773 1.252 . S
C770 O774 1.260 . S
C771 O778 1.240 . S
C771 O779 1.252 . S
C772 O775 1.252 . S
C772 O776 1.260 . S
O773 In767 2.266 . S
O773 C770 1.252 . S
O774 In767 2.326 . S
O774 C770 1.260 . S
O775 In767 2.266 . S
O775 C772 1.252 . S
O776 In767 2.326 . S
O776 C772 1.260 . S
C777 O768 1.240 . S
C777 O769 1.252 . S
O778 In767 2.294 . S
O778 C771 1.240 . S
O779 In767 2.326 . S
O779 C771 1.252 . S
In780 O781 2.294 . S
In780 O782 2.326 . S
In780 O786 2.266 . S
In780 O787 2.326 . S
In780 O788 2.266 . S
In780 O789 2.326 . S
In780 O791 2.294 1_556 S
In780 O792 2.326 . S
O781 In780 2.294 . S
O781 C790 1.240 . S
O782 In780 2.326 . S
O782 C790 1.252 . S
C783 O786 1.252 . S
C783 O787 1.260 . S
C784 O791 1.240 1_556 S
C784 O792 1.252 . S
C785 O788 1.252 . S
C785 O789 1.260 . S
O786 In780 2.266 . S
O786 C783 1.252 . S
O787 In780 2.326 . S
O787 C783 1.260 . S
O788 In780 2.266 . S
O788 C785 1.252 . S
O789 In780 2.326 . S
O789 C785 1.260 . S
C790 O781 1.240 . S
C790 O782 1.252 . S
O791 In780 2.294 1_554 S
O791 C784 1.240 1_554 S
O792 In780 2.326 . S
O792 C784 1.252 . S
In793 O794 2.294 . S
In793 O795 2.326 . S
In793 O799 2.266 . S
In793 O800 2.326 . S
In793 O801 2.266 . S
In793 O802 2.326 . S
In793 O804 2.294 . S
In793 O805 2.326 . S
O794 In793 2.294 . S
O794 C803 1.240 . S
O795 In793 2.326 . S
O795 C803 1.252 . S
C796 O799 1.252 . S
C796 O800 1.260 . S
C797 O804 1.240 . S
C797 O805 1.252 . S
C798 O801 1.252 . S
C798 O802 1.260 . S
O799 In793 2.266 . S
O799 C796 1.252 . S
O800 In793 2.326 . S
O800 C796 1.260 . S
O801 In793 2.266 . S
O801 C798 1.252 . S
O802 In793 2.326 . S
O802 C798 1.260 . S
C803 O794 1.240 . S
C803 O795 1.252 . S
O804 In793 2.294 . S
O804 C797 1.240 . S
O805 In793 2.326 . S
O805 C797 1.252 . S
In806 O807 2.294 . S
In806 O808 2.326 . S
In806 O812 2.266 . S
In806 O813 2.326 . S
In806 O814 2.266 . S
In806 O815 2.326 . S
In806 O817 2.294 . S
In806 O818 2.326 . S
O807 In806 2.294 . S
O807 C816 1.240 . S
O808 In806 2.326 . S
O808 C816 1.252 . S
C809 O812 1.252 . S
C809 O813 1.260 . S
C810 O817 1.240 . S
C810 O818 1.252 . S
C811 O814 1.252 . S
C811 O815 1.260 . S
O812 In806 2.266 . S
O812 C809 1.252 . S
O813 In806 2.326 . S
O813 C809 1.260 . S
O814 In806 2.266 . S
O814 C811 1.252 . S
O815 In806 2.326 . S
O815 C811 1.260 . S
C816 O807 1.240 . S
C816 O808 1.252 . S
O817 In806 2.294 . S
O817 C810 1.240 . S
O818 In806 2.326 . S
O818 C810 1.252 . S
In819 O820 2.294 . S
In819 O821 2.326 . S
In819 O825 2.266 . S
In819 O826 2.326 . S
In819 O827 2.266 . S
In819 O828 2.326 . S
In819 O830 2.294 . S
In819 O831 2.326 . S
O820 In819 2.294 . S
O820 C829 1.240 . S
O821 In819 2.326 . S
O821 C829 1.252 . S
C822 O825 1.252 . S
C822 O826 1.260 . S
C823 O830 1.240 . S
C823 O831 1.252 . S
C824 O827 1.252 . S
C824 O828 1.260 . S
O825 In819 2.266 . S
O825 C822 1.252 . S
O826 In819 2.326 . S
O826 C822 1.260 . S
O827 In819 2.266 . S
O827 C824 1.252 . S
O828 In819 2.326 . S
O828 C824 1.260 . S
C829 O820 1.240 . S
C829 O821 1.252 . S
O830 In819 2.294 . S
O830 C823 1.240 . S
O831 In819 2.326 . S
O831 C823 1.252 . S
In832 O833 2.294 1_455 S
In832 O834 2.326 . S
In832 O838 2.266 . S
In832 O839 2.326 . S
In832 O840 2.266 . S
In832 O841 2.326 . S
In832 O843 2.294 . S
In832 O844 2.326 . S
O833 In832 2.294 1_655 S
O833 C842 1.240 1_655 S
O834 In832 2.326 . S
O834 C842 1.252 . S
C835 O838 1.252 . S
C835 O839 1.260 . S
C836 O843 1.240 . S
C836 O844 1.252 . S
C837 O840 1.252 . S
C837 O841 1.260 . S
O838 In832 2.266 . S
O838 C835 1.252 . S
O839 In832 2.326 . S
O839 C835 1.260 . S
O840 In832 2.266 . S
O840 C837 1.252 . S
O841 In832 2.326 . S
O841 C837 1.260 . S
C842 O833 1.240 1_455 S
C842 O834 1.252 . S
O843 In832 2.294 . S
O843 C836 1.240 . S
O844 In832 2.326 . S
O844 C836 1.252 . S
In845 O846 2.294 . S
In845 O847 2.326 . S
In845 O851 2.266 . S
In845 O852 2.326 . S
In845 O853 2.266 . S
In845 O854 2.326 . S
In845 O856 2.294 . S
In845 O857 2.326 . S
O846 In845 2.294 . S
O846 C855 1.240 . S
O847 In845 2.326 . S
O847 C855 1.252 . S
C848 O851 1.252 . S
C848 O852 1.260 . S
C849 O856 1.240 . S
C849 O857 1.252 . S
C850 O853 1.252 . S
C850 O854 1.260 . S
O851 In845 2.266 . S
O851 C848 1.252 . S
O852 In845 2.326 . S
O852 C848 1.260 . S
O853 In845 2.266 . S
O853 C850 1.252 . S
O854 In845 2.326 . S
O854 C850 1.260 . S
C855 O846 1.240 . S
C855 O847 1.252 . S
O856 In845 2.294 . S
O856 C849 1.240 . S
O857 In845 2.326 . S
O857 C849 1.252 . S
In858 O859 2.294 . S
In858 O860 2.326 . S
In858 O864 2.266 . S
In858 O865 2.326 . S
In858 O866 2.266 . S
In858 O867 2.326 . S
In858 O869 2.294 . S
In858 O870 2.326 . S
O859 In858 2.294 . S
O859 C868 1.240 . S
O860 In858 2.326 . S
O860 C868 1.252 . S
C861 O864 1.252 . S
C861 O865 1.260 . S
C862 O869 1.240 . S
C862 O870 1.252 . S
C863 O866 1.252 . S
C863 O867 1.260 . S
O864 In858 2.266 . S
O864 C861 1.252 . S
O865 In858 2.326 . S
O865 C861 1.260 . S
O866 In858 2.266 . S
O866 C863 1.252 . S
O867 In858 2.326 . S
O867 C863 1.260 . S
C868 O859 1.240 . S
C868 O860 1.252 . S
O869 In858 2.294 . S
O869 C862 1.240 . S
O870 In858 2.326 . S
O870 C862 1.252 . S
In871 O872 2.294 . S
In871 O873 2.326 . S
In871 O877 2.266 . S
In871 O878 2.326 . S
In871 O879 2.266 . S
In871 O880 2.326 . S
In871 O882 2.294 . S
In871 O883 2.326 . S
O872 In871 2.294 . S
O872 C881 1.240 . S
O873 In871 2.326 . S
O873 C881 1.252 . S
C874 O877 1.252 . S
C874 O878 1.260 . S
C875 O882 1.240 . S
C875 O883 1.252 . S
C876 O879 1.252 . S
C876 O880 1.260 . S
O877 In871 2.266 . S
O877 C874 1.252 . S
O878 In871 2.326 . S
O878 C874 1.260 . S
O879 In871 2.266 . S
O879 C876 1.252 . S
O880 In871 2.326 . S
O880 C876 1.260 . S
C881 O872 1.240 . S
C881 O873 1.252 . S
O882 In871 2.294 . S
O882 C875 1.240 . S
O883 In871 2.326 . S
O883 C875 1.252 . S
In884 O885 2.294 . S
In884 O886 2.326 . S
In884 O890 2.266 . S
In884 O891 2.326 . S
In884 O892 2.266 . S
In884 O893 2.326 . S
In884 O895 2.294 . S
In884 O896 2.326 . S
O885 In884 2.294 . S
O885 C894 1.240 . S
O886 In884 2.326 . S
O886 C894 1.252 . S
C887 O890 1.252 . S
C887 O891 1.260 . S
C888 O895 1.240 . S
C888 O896 1.252 . S
C889 O892 1.252 . S
C889 O893 1.260 . S
O890 In884 2.266 . S
O890 C887 1.252 . S
O891 In884 2.326 . S
O891 C887 1.260 . S
O892 In884 2.266 . S
O892 C889 1.252 . S
O893 In884 2.326 . S
O893 C889 1.260 . S
C894 O885 1.240 . S
C894 O886 1.252 . S
O895 In884 2.294 . S
O895 C888 1.240 . S
O896 In884 2.326 . S
O896 C888 1.252 . S
In897 O898 2.294 . S
In897 O899 2.326 . S
In897 O903 2.266 . S
In897 O904 2.326 . S
In897 O905 2.266 . S
In897 O906 2.326 . S
In897 O908 2.294 1_655 S
In897 O909 2.326 . S
O898 In897 2.294 . S
O898 C907 1.240 . S
O899 In897 2.326 . S
O899 C907 1.252 . S
C900 O903 1.252 . S
C900 O904 1.260 . S
C901 O908 1.240 1_655 S
C901 O909 1.252 . S
C902 O905 1.252 . S
C902 O906 1.260 . S
O903 In897 2.266 . S
O903 C900 1.252 . S
O904 In897 2.326 . S
O904 C900 1.260 . S
O905 In897 2.266 . S
O905 C902 1.252 . S
O906 In897 2.326 . S
O906 C902 1.260 . S
C907 O898 1.240 . S
C907 O899 1.252 . S
O908 In897 2.294 1_455 S
O908 C901 1.240 1_455 S
O909 In897 2.326 . S
O909 C901 1.252 . S
In910 O911 2.294 . S
In910 O912 2.326 . S
In910 O916 2.266 . S
In910 O917 2.326 . S
In910 O918 2.266 . S
In910 O919 2.326 . S
In910 O921 2.294 . S
In910 O922 2.326 . S
O911 In910 2.294 . S
O911 C920 1.240 . S
O912 In910 2.326 . S
O912 C920 1.252 . S
C913 O916 1.252 . S
C913 O917 1.260 . S
C914 O921 1.240 . S
C914 O922 1.252 . S
C915 O918 1.252 . S
C915 O919 1.260 . S
O916 In910 2.266 . S
O916 C913 1.252 . S
O917 In910 2.326 . S
O917 C913 1.260 . S
O918 In910 2.266 . S
O918 C915 1.252 . S
O919 In910 2.326 . S
O919 C915 1.260 . S
C920 O911 1.240 . S
C920 O912 1.252 . S
O921 In910 2.294 . S
O921 C914 1.240 . S
O922 In910 2.326 . S
O922 C914 1.252 . S
In923 O924 2.294 . S
In923 O925 2.326 . S
In923 O929 2.266 . S
In923 O930 2.326 . S
In923 O931 2.266 . S
In923 O932 2.326 . S
In923 O934 2.294 . S
In923 O935 2.326 . S
O924 In923 2.294 . S
O924 C933 1.240 . S
O925 In923 2.326 . S
O925 C933 1.252 . S
C926 O929 1.252 . S
C926 O930 1.260 . S
C927 O934 1.240 . S
C927 O935 1.252 . S
C928 O931 1.252 . S
C928 O932 1.260 . S
O929 In923 2.266 . S
O929 C926 1.252 . S
O930 In923 2.326 . S
O930 C926 1.260 . S
O931 In923 2.266 . S
O931 C928 1.252 . S
O932 In923 2.326 . S
O932 C928 1.260 . S
C933 O924 1.240 . S
C933 O925 1.252 . S
O934 In923 2.294 . S
O934 C927 1.240 . S
O935 In923 2.326 . S
O935 C927 1.252 . S
In936 O937 2.294 . S
In936 O938 2.326 . S
In936 O942 2.266 . S
In936 O943 2.326 . S
In936 O944 2.266 . S
In936 O945 2.326 . S
In936 O947 2.294 1_545 S
In936 O948 2.326 . S
O937 In936 2.294 . S
O937 C946 1.240 . S
O938 In936 2.326 . S
O938 C946 1.252 . S
C939 O942 1.252 . S
C939 O943 1.260 . S
C940 O947 1.240 1_545 S
C940 O948 1.252 . S
C941 O944 1.252 . S
C941 O945 1.260 . S
O942 In936 2.266 . S
O942 C939 1.252 . S
O943 In936 2.326 . S
O943 C939 1.260 . S
O944 In936 2.266 . S
O944 C941 1.252 . S
O945 In936 2.326 . S
O945 C941 1.260 . S
C946 O937 1.240 . S
C946 O938 1.252 . S
O947 In936 2.294 1_565 S
O947 C940 1.240 1_565 S
O948 In936 2.326 . S
O948 C940 1.252 . S
In949 O950 2.294 . S
In949 O951 2.326 . S
In949 O955 2.266 . S
In949 O956 2.326 . S
In949 O957 2.266 . S
In949 O958 2.326 . S
In949 O960 2.294 . S
In949 O961 2.326 . S
O950 In949 2.294 . S
O950 C959 1.240 . S
O951 In949 2.326 . S
O951 C959 1.252 . S
C952 O955 1.252 . S
C952 O956 1.260 . S
C953 O960 1.240 . S
C953 O961 1.252 . S
C954 O957 1.252 . S
C954 O958 1.260 . S
O955 In949 2.266 . S
O955 C952 1.252 . S
O956 In949 2.326 . S
O956 C952 1.260 . S
O957 In949 2.266 . S
O957 C954 1.252 . S
O958 In949 2.326 . S
O958 C954 1.260 . S
C959 O950 1.240 . S
C959 O951 1.252 . S
O960 In949 2.294 . S
O960 C953 1.240 . S
O961 In949 2.326 . S
O961 C953 1.252 . S
In962 O963 2.294 . S
In962 O964 2.326 . S
In962 O968 2.266 . S
In962 O969 2.326 . S
In962 O970 2.266 . S
In962 O971 2.326 . S
In962 O973 2.294 . S
In962 O974 2.326 . S
O963 In962 2.294 . S
O963 C972 1.240 . S
O964 In962 2.326 . S
O964 C972 1.252 . S
C965 O968 1.252 . S
C965 O969 1.260 . S
C966 O973 1.240 . S
C966 O974 1.252 . S
C967 O970 1.252 . S
C967 O971 1.260 . S
O968 In962 2.266 . S
O968 C965 1.252 . S
O969 In962 2.326 . S
O969 C965 1.260 . S
O970 In962 2.266 . S
O970 C967 1.252 . S
O971 In962 2.326 . S
O971 C967 1.260 . S
C972 O963 1.240 . S
C972 O964 1.252 . S
O973 In962 2.294 . S
O973 C966 1.240 . S
O974 In962 2.326 . S
O974 C966 1.252 . S
In975 O976 2.294 . S
In975 O977 2.326 . S
In975 O981 2.266 . S
In975 O982 2.326 . S
In975 O983 2.266 . S
In975 O984 2.326 . S
In975 O986 2.294 . S
In975 O987 2.326 . S
O976 In975 2.294 . S
O976 C985 1.240 . S
O977 In975 2.326 . S
O977 C985 1.252 . S
C978 O981 1.252 . S
C978 O982 1.260 . S
C979 O986 1.240 . S
C979 O987 1.252 . S
C980 O983 1.252 . S
C980 O984 1.260 . S
O981 In975 2.266 . S
O981 C978 1.252 . S
O982 In975 2.326 . S
O982 C978 1.260 . S
O983 In975 2.266 . S
O983 C980 1.252 . S
O984 In975 2.326 . S
O984 C980 1.260 . S
C985 O976 1.240 . S
C985 O977 1.252 . S
O986 In975 2.294 . S
O986 C979 1.240 . S
O987 In975 2.326 . S
O987 C979 1.252 . S
In988 O989 2.294 . S
In988 O990 2.326 . S
In988 O994 2.266 . S
In988 O995 2.326 . S
In988 O996 2.266 . S
In988 O997 2.326 . S
In988 O999 2.294 1_565 S
In988 O1000 2.326 . S
O989 In988 2.294 . S
O989 C998 1.240 . S
O990 In988 2.326 . S
O990 C998 1.252 . S
C991 O994 1.252 . S
C991 O995 1.260 . S
C992 O999 1.240 1_565 S
C992 O1000 1.252 . S
C993 O996 1.252 . S
C993 O997 1.260 . S
O994 In988 2.266 . S
O994 C991 1.252 . S
O995 In988 2.326 . S
O995 C991 1.260 . S
O996 In988 2.266 . S
O996 C993 1.252 . S
O997 In988 2.326 . S
O997 C993 1.260 . S
C998 O989 1.240 . S
C998 O990 1.252 . S
O999 In988 2.294 1_545 S
O999 C992 1.240 1_545 S
O1000 In988 2.326 . S
O1000 C992 1.252 . S
In1001 O1002 2.294 . S
In1001 O1003 2.326 . S
In1001 O1007 2.266 . S
In1001 O1008 2.326 . S
In1001 O1009 2.266 . S
In1001 O1010 2.326 . S
In1001 O1012 2.294 . S
In1001 O1013 2.326 . S
O1002 In1001 2.294 . S
O1002 C1011 1.240 . S
O1003 In1001 2.326 . S
O1003 C1011 1.252 . S
C1004 O1007 1.252 . S
C1004 O1008 1.260 . S
C1005 O1012 1.240 . S
C1005 O1013 1.252 . S
C1006 O1009 1.252 . S
C1006 O1010 1.260 . S
O1007 In1001 2.266 . S
O1007 C1004 1.252 . S
O1008 In1001 2.326 . S
O1008 C1004 1.260 . S
O1009 In1001 2.266 . S
O1009 C1006 1.252 . S
O1010 In1001 2.326 . S
O1010 C1006 1.260 . S
C1011 O1002 1.240 . S
C1011 O1003 1.252 . S
O1012 In1001 2.294 . S
O1012 C1005 1.240 . S
O1013 In1001 2.326 . S
O1013 C1005 1.252 . S
In1014 O1015 2.294 . S
In1014 O1016 2.326 . S
In1014 O1020 2.266 . S
In1014 O1021 2.326 . S
In1014 O1022 2.266 . S
In1014 O1023 2.326 . S
In1014 O1025 2.294 . S
In1014 O1026 2.326 . S
O1015 In1014 2.294 . S
O1015 C1024 1.240 . S
O1016 In1014 2.326 . S
O1016 C1024 1.252 . S
C1017 O1020 1.252 . S
C1017 O1021 1.260 . S
C1018 O1025 1.240 . S
C1018 O1026 1.252 . S
C1019 O1022 1.252 . S
C1019 O1023 1.260 . S
O1020 In1014 2.266 . S
O1020 C1017 1.252 . S
O1021 In1014 2.326 . S
O1021 C1017 1.260 . S
O1022 In1014 2.266 . S
O1022 C1019 1.252 . S
O1023 In1014 2.326 . S
O1023 C1019 1.260 . S
C1024 O1015 1.240 . S
C1024 O1016 1.252 . S
O1025 In1014 2.294 . S
O1025 C1018 1.240 . S
O1026 In1014 2.326 . S
O1026 C1018 1.252 . S
In1027 O1028 2.294 . S
In1027 O1029 2.326 . S
In1027 O1033 2.266 . S
In1027 O1034 2.326 . S
In1027 O1035 2.266 . S
In1027 O1036 2.326 . S
In1027 O1038 2.294 . S
In1027 O1039 2.326 . S
O1028 In1027 2.294 . S
O1028 C1037 1.240 . S
O1029 In1027 2.326 . S
O1029 C1037 1.252 . S
C1030 O1033 1.252 . S
C1030 O1034 1.260 . S
C1031 O1038 1.240 . S
C1031 O1039 1.252 . S
C1032 O1035 1.252 . S
C1032 O1036 1.260 . S
O1033 In1027 2.266 . S
O1033 C1030 1.252 . S
O1034 In1027 2.326 . S
O1034 C1030 1.260 . S
O1035 In1027 2.266 . S
O1035 C1032 1.252 . S
O1036 In1027 2.326 . S
O1036 C1032 1.260 . S
C1037 O1028 1.240 . S
C1037 O1029 1.252 . S
O1038 In1027 2.294 . S
O1038 C1031 1.240 . S
O1039 In1027 2.326 . S
O1039 C1031 1.252 . S
In1040 O1041 2.294 . S
In1040 O1042 2.326 . S
In1040 O1046 2.266 . S
In1040 O1047 2.326 . S
In1040 O1048 2.266 . S
In1040 O1049 2.326 . S
In1040 O1051 2.294 . S
In1040 O1052 2.326 . S
O1041 In1040 2.294 . S
O1041 C1050 1.240 . S
O1042 In1040 2.326 . S
O1042 C1050 1.252 . S
C1043 O1046 1.252 . S
C1043 O1047 1.260 . S
C1044 O1051 1.240 . S
C1044 O1052 1.252 . S
C1045 O1048 1.252 . S
C1045 O1049 1.260 . S
O1046 In1040 2.266 . S
O1046 C1043 1.252 . S
O1047 In1040 2.326 . S
O1047 C1043 1.260 . S
O1048 In1040 2.266 . S
O1048 C1045 1.252 . S
O1049 In1040 2.326 . S
O1049 C1045 1.260 . S
C1050 O1041 1.240 . S
C1050 O1042 1.252 . S
O1051 In1040 2.294 . S
O1051 C1044 1.240 . S
O1052 In1040 2.326 . S
O1052 C1044 1.252 . S
In1053 O1054 2.294 . S
In1053 O1055 2.326 . S
In1053 O1059 2.266 . S
In1053 O1060 2.326 . S
In1053 O1061 2.266 . S
In1053 O1062 2.326 . S
In1053 O1064 2.294 . S
In1053 O1065 2.326 . S
O1054 In1053 2.294 . S
O1054 C1063 1.240 . S
O1055 In1053 2.326 . S
O1055 C1063 1.252 . S
C1056 O1059 1.252 . S
C1056 O1060 1.260 . S
C1057 O1064 1.240 . S
C1057 O1065 1.252 . S
C1058 O1061 1.252 . S
C1058 O1062 1.260 . S
O1059 In1053 2.266 . S
O1059 C1056 1.252 . S
O1060 In1053 2.326 . S
O1060 C1056 1.260 . S
O1061 In1053 2.266 . S
O1061 C1058 1.252 . S
O1062 In1053 2.326 . S
O1062 C1058 1.260 . S
C1063 O1054 1.240 . S
C1063 O1055 1.252 . S
O1064 In1053 2.294 . S
O1064 C1057 1.240 . S
O1065 In1053 2.326 . S
O1065 C1057 1.252 . S
In1066 O1067 2.294 . S
In1066 O1068 2.326 . S
In1066 O1072 2.266 . S
In1066 O1073 2.326 . S
In1066 O1074 2.266 . S
In1066 O1075 2.326 . S
In1066 O1077 2.294 1_554 S
In1066 O1078 2.326 . S
O1067 In1066 2.294 . S
O1067 C1076 1.240 . S
O1068 In1066 2.326 . S
O1068 C1076 1.252 . S
C1069 O1072 1.252 . S
C1069 O1073 1.260 . S
C1070 O1077 1.240 1_554 S
C1070 O1078 1.252 . S
C1071 O1074 1.252 . S
C1071 O1075 1.260 . S
O1072 In1066 2.266 . S
O1072 C1069 1.252 . S
O1073 In1066 2.326 . S
O1073 C1069 1.260 . S
O1074 In1066 2.266 . S
O1074 C1071 1.252 . S
O1075 In1066 2.326 . S
O1075 C1071 1.260 . S
C1076 O1067 1.240 . S
C1076 O1068 1.252 . S
O1077 In1066 2.294 1_556 S
O1077 C1070 1.240 1_556 S
O1078 In1066 2.326 . S
O1078 C1070 1.252 . S
In1079 O1080 2.294 . S
In1079 O1081 2.326 . S
In1079 O1085 2.266 . S
In1079 O1086 2.326 . S
In1079 O1087 2.266 . S
In1079 O1088 2.326 . S
In1079 O1090 2.294 . S
In1079 O1091 2.326 . S
O1080 In1079 2.294 . S
O1080 C1089 1.240 . S
O1081 In1079 2.326 . S
O1081 C1089 1.252 . S
C1082 O1085 1.252 . S
C1082 O1086 1.260 . S
C1083 O1090 1.240 . S
C1083 O1091 1.252 . S
C1084 O1087 1.252 . S
C1084 O1088 1.260 . S
O1085 In1079 2.266 . S
O1085 C1082 1.252 . S
O1086 In1079 2.326 . S
O1086 C1082 1.260 . S
O1087 In1079 2.266 . S
O1087 C1084 1.252 . S
O1088 In1079 2.326 . S
O1088 C1084 1.260 . S
C1089 O1080 1.240 . S
C1089 O1081 1.252 . S
O1090 In1079 2.294 . S
O1090 C1083 1.240 . S
O1091 In1079 2.326 . S
O1091 C1083 1.252 . S
In1092 O1093 2.294 . S
In1092 O1094 2.326 . S
In1092 O1098 2.266 . S
In1092 O1099 2.326 . S
In1092 O1100 2.266 . S
In1092 O1101 2.326 . S
In1092 O1103 2.294 . S
In1092 O1104 2.326 . S
O1093 In1092 2.294 . S
O1093 C1102 1.240 . S
O1094 In1092 2.326 . S
O1094 C1102 1.252 . S
C1095 O1098 1.252 . S
C1095 O1099 1.260 . S
C1096 O1103 1.240 . S
C1096 O1104 1.252 . S
C1097 O1100 1.252 . S
C1097 O1101 1.260 . S
O1098 In1092 2.266 . S
O1098 C1095 1.252 . S
O1099 In1092 2.326 . S
O1099 C1095 1.260 . S
O1100 In1092 2.266 . S
O1100 C1097 1.252 . S
O1101 In1092 2.326 . S
O1101 C1097 1.260 . S
C1102 O1093 1.240 . S
C1102 O1094 1.252 . S
O1103 In1092 2.294 . S
O1103 C1096 1.240 . S
O1104 In1092 2.326 . S
O1104 C1096 1.252 . S
In1105 O1106 2.294 . S
In1105 O1107 2.326 . S
In1105 O1111 2.266 . S
In1105 O1112 2.326 . S
In1105 O1113 2.266 . S
In1105 O1114 2.326 . S
In1105 O1116 2.294 . S
In1105 O1117 2.326 . S
O1106 In1105 2.294 . S
O1106 C1115 1.240 . S
O1107 In1105 2.326 . S
O1107 C1115 1.252 . S
C1108 O1111 1.252 . S
C1108 O1112 1.260 . S
C1109 O1116 1.240 . S
C1109 O1117 1.252 . S
C1110 O1113 1.252 . S
C1110 O1114 1.260 . S
O1111 In1105 2.266 . S
O1111 C1108 1.252 . S
O1112 In1105 2.326 . S
O1112 C1108 1.260 . S
O1113 In1105 2.266 . S
O1113 C1110 1.252 . S
O1114 In1105 2.326 . S
O1114 C1110 1.260 . S
C1115 O1106 1.240 . S
C1115 O1107 1.252 . S
O1116 In1105 2.294 . S
O1116 C1109 1.240 . S
O1117 In1105 2.326 . S
O1117 C1109 1.252 . S
In1118 O1119 2.294 . S
In1118 O1120 2.326 . S
In1118 O1124 2.266 . S
In1118 O1125 2.326 . S
In1118 O1126 2.266 . S
In1118 O1127 2.326 . S
In1118 O1129 2.294 1_556 S
In1118 O1130 2.326 . S
O1119 In1118 2.294 . S
O1119 C1128 1.240 . S
O1120 In1118 2.326 . S
O1120 C1128 1.252 . S
C1121 O1124 1.252 . S
C1121 O1125 1.260 . S
C1122 O1129 1.240 1_556 S
C1122 O1130 1.252 . S
C1123 O1126 1.252 . S
C1123 O1127 1.260 . S
O1124 In1118 2.266 . S
O1124 C1121 1.252 . S
O1125 In1118 2.326 . S
O1125 C1121 1.260 . S
O1126 In1118 2.266 . S
O1126 C1123 1.252 . S
O1127 In1118 2.326 . S
O1127 C1123 1.260 . S
C1128 O1119 1.240 . S
C1128 O1120 1.252 . S
O1129 In1118 2.294 1_554 S
O1129 C1122 1.240 1_554 S
O1130 In1118 2.326 . S
O1130 C1122 1.252 . S
In1131 O1132 2.294 . S
In1131 O1133 2.326 . S
In1131 O1137 2.266 . S
In1131 O1138 2.326 . S
In1131 O1139 2.266 . S
In1131 O1140 2.326 . S
In1131 O1142 2.294 . S
In1131 O1143 2.326 . S
O1132 In1131 2.294 . S
O1132 C1141 1.240 . S
O1133 In1131 2.326 . S
O1133 C1141 1.252 . S
C1134 O1137 1.252 . S
C1134 O1138 1.260 . S
C1135 O1142 1.240 . S
C1135 O1143 1.252 . S
C1136 O1139 1.252 . S
C1136 O1140 1.260 . S
O1137 In1131 2.266 . S
O1137 C1134 1.252 . S
O1138 In1131 2.326 . S
O1138 C1134 1.260 . S
O1139 In1131 2.266 . S
O1139 C1136 1.252 . S
O1140 In1131 2.326 . S
O1140 C1136 1.260 . S
C1141 O1132 1.240 . S
C1141 O1133 1.252 . S
O1142 In1131 2.294 . S
O1142 C1135 1.240 . S
O1143 In1131 2.326 . S
O1143 C1135 1.252 . S
In1144 O1145 2.294 1_455 S
In1144 O1146 2.326 . S
In1144 O1150 2.266 . S
In1144 O1151 2.326 . S
In1144 O1152 2.266 . S
In1144 O1153 2.326 . S
In1144 O1155 2.294 . S
In1144 O1156 2.326 . S
O1145 In1144 2.294 1_655 S
O1145 C1154 1.240 1_655 S
O1146 In1144 2.326 . S
O1146 C1154 1.252 . S
C1147 O1150 1.252 . S
C1147 O1151 1.260 . S
C1148 O1155 1.240 . S
C1148 O1156 1.252 . S
C1149 O1152 1.252 . S
C1149 O1153 1.260 . S
O1150 In1144 2.266 . S
O1150 C1147 1.252 . S
O1151 In1144 2.326 . S
O1151 C1147 1.260 . S
O1152 In1144 2.266 . S
O1152 C1149 1.252 . S
O1153 In1144 2.326 . S
O1153 C1149 1.260 . S
C1154 O1145 1.240 1_455 S
C1154 O1146 1.252 . S
O1155 In1144 2.294 . S
O1155 C1148 1.240 . S
O1156 In1144 2.326 . S
O1156 C1148 1.252 . S
In1157 O1158 2.294 . S
In1157 O1159 2.326 . S
In1157 O1163 2.266 . S
In1157 O1164 2.326 . S
In1157 O1165 2.266 . S
In1157 O1166 2.326 . S
In1157 O1168 2.294 . S
In1157 O1169 2.326 . S
O1158 In1157 2.294 . S
O1158 C1167 1.240 . S
O1159 In1157 2.326 . S
O1159 C1167 1.252 . S
C1160 O1163 1.252 . S
C1160 O1164 1.260 . S
C1161 O1168 1.240 . S
C1161 O1169 1.252 . S
C1162 O1165 1.252 . S
C1162 O1166 1.260 . S
O1163 In1157 2.266 . S
O1163 C1160 1.252 . S
O1164 In1157 2.326 . S
O1164 C1160 1.260 . S
O1165 In1157 2.266 . S
O1165 C1162 1.252 . S
O1166 In1157 2.326 . S
O1166 C1162 1.260 . S
C1167 O1158 1.240 . S
C1167 O1159 1.252 . S
O1168 In1157 2.294 . S
O1168 C1161 1.240 . S
O1169 In1157 2.326 . S
O1169 C1161 1.252 . S
In1170 O1171 2.294 . S
In1170 O1172 2.326 . S
In1170 O1176 2.266 . S
In1170 O1177 2.326 . S
In1170 O1178 2.266 . S
In1170 O1179 2.326 . S
In1170 O1181 2.294 . S
In1170 O1182 2.326 . S
O1171 In1170 2.294 . S
O1171 C1180 1.240 . S
O1172 In1170 2.326 . S
O1172 C1180 1.252 . S
C1173 O1176 1.252 . S
C1173 O1177 1.260 . S
C1174 O1181 1.240 . S
C1174 O1182 1.252 . S
C1175 O1178 1.252 . S
C1175 O1179 1.260 . S
O1176 In1170 2.266 . S
O1176 C1173 1.252 . S
O1177 In1170 2.326 . S
O1177 C1173 1.260 . S
O1178 In1170 2.266 . S
O1178 C1175 1.252 . S
O1179 In1170 2.326 . S
O1179 C1175 1.260 . S
C1180 O1171 1.240 . S
C1180 O1172 1.252 . S
O1181 In1170 2.294 . S
O1181 C1174 1.240 . S
O1182 In1170 2.326 . S
O1182 C1174 1.252 . S
In1183 O1184 2.294 . S
In1183 O1185 2.326 . S
In1183 O1189 2.266 . S
In1183 O1190 2.326 . S
In1183 O1191 2.266 . S
In1183 O1192 2.326 . S
In1183 O1194 2.294 . S
In1183 O1195 2.326 . S
O1184 In1183 2.294 . S
O1184 C1193 1.240 . S
O1185 In1183 2.326 . S
O1185 C1193 1.252 . S
C1186 O1189 1.252 . S
C1186 O1190 1.260 . S
C1187 O1194 1.240 . S
C1187 O1195 1.252 . S
C1188 O1191 1.252 . S
C1188 O1192 1.260 . S
O1189 In1183 2.266 . S
O1189 C1186 1.252 . S
O1190 In1183 2.326 . S
O1190 C1186 1.260 . S
O1191 In1183 2.266 . S
O1191 C1188 1.252 . S
O1192 In1183 2.326 . S
O1192 C1188 1.260 . S
C1193 O1184 1.240 . S
C1193 O1185 1.252 . S
O1194 In1183 2.294 . S
O1194 C1187 1.240 . S
O1195 In1183 2.326 . S
O1195 C1187 1.252 . S
In1196 O1197 2.294 . S
In1196 O1198 2.326 . S
In1196 O1202 2.266 . S
In1196 O1203 2.326 . S
In1196 O1204 2.266 . S
In1196 O1205 2.326 . S
In1196 O1207 2.294 . S
In1196 O1208 2.326 . S
O1197 In1196 2.294 . S
O1197 C1206 1.240 . S
O1198 In1196 2.326 . S
O1198 C1206 1.252 . S
C1199 O1202 1.252 . S
C1199 O1203 1.260 . S
C1200 O1207 1.240 . S
C1200 O1208 1.252 . S
C1201 O1204 1.252 . S
C1201 O1205 1.260 . S
O1202 In1196 2.266 . S
O1202 C1199 1.252 . S
O1203 In1196 2.326 . S
O1203 C1199 1.260 . S
O1204 In1196 2.266 . S
O1204 C1201 1.252 . S
O1205 In1196 2.326 . S
O1205 C1201 1.260 . S
C1206 O1197 1.240 . S
C1206 O1198 1.252 . S
O1207 In1196 2.294 . S
O1207 C1200 1.240 . S
O1208 In1196 2.326 . S
O1208 C1200 1.252 . S
In1209 O1210 2.294 . S
In1209 O1211 2.326 . S
In1209 O1215 2.266 . S
In1209 O1216 2.326 . S
In1209 O1217 2.266 . S
In1209 O1218 2.326 . S
In1209 O1220 2.294 1_655 S
In1209 O1221 2.326 . S
O1210 In1209 2.294 . S
O1210 C1219 1.240 . S
O1211 In1209 2.326 . S
O1211 C1219 1.252 . S
C1212 O1215 1.252 . S
C1212 O1216 1.260 . S
C1213 O1220 1.240 1_655 S
C1213 O1221 1.252 . S
C1214 O1217 1.252 . S
C1214 O1218 1.260 . S
O1215 In1209 2.266 . S
O1215 C1212 1.252 . S
O1216 In1209 2.326 . S
O1216 C1212 1.260 . S
O1217 In1209 2.266 . S
O1217 C1214 1.252 . S
O1218 In1209 2.326 . S
O1218 C1214 1.260 . S
C1219 O1210 1.240 . S
C1219 O1211 1.252 . S
O1220 In1209 2.294 1_455 S
O1220 C1213 1.240 1_455 S
O1221 In1209 2.326 . S
O1221 C1213 1.252 . S
In1222 O1223 2.294 . S
In1222 O1224 2.326 . S
In1222 O1228 2.266 . S
In1222 O1229 2.326 . S
In1222 O1230 2.266 . S
In1222 O1231 2.326 . S
In1222 O1233 2.294 . S
In1222 O1234 2.326 . S
O1223 In1222 2.294 . S
O1223 C1232 1.240 . S
O1224 In1222 2.326 . S
O1224 C1232 1.252 . S
C1225 O1228 1.252 . S
C1225 O1229 1.260 . S
C1226 O1233 1.240 . S
C1226 O1234 1.252 . S
C1227 O1230 1.252 . S
C1227 O1231 1.260 . S
O1228 In1222 2.266 . S
O1228 C1225 1.252 . S
O1229 In1222 2.326 . S
O1229 C1225 1.260 . S
O1230 In1222 2.266 . S
O1230 C1227 1.252 . S
O1231 In1222 2.326 . S
O1231 C1227 1.260 . S
C1232 O1223 1.240 . S
C1232 O1224 1.252 . S
O1233 In1222 2.294 . S
O1233 C1226 1.240 . S
O1234 In1222 2.326 . S
O1234 C1226 1.252 . S
In1235 O1236 2.294 . S
In1235 O1237 2.326 . S
In1235 O1241 2.266 . S
In1235 O1242 2.326 . S
In1235 O1243 2.266 . S
In1235 O1244 2.326 . S
In1235 O1246 2.294 . S
In1235 O1247 2.326 . S
O1236 In1235 2.294 . S
O1236 C1245 1.240 . S
O1237 In1235 2.326 . S
O1237 C1245 1.252 . S
C1238 O1241 1.252 . S
C1238 O1242 1.260 . S
C1239 O1246 1.240 . S
C1239 O1247 1.252 . S
C1240 O1243 1.252 . S
C1240 O1244 1.260 . S
O1241 In1235 2.266 . S
O1241 C1238 1.252 . S
O1242 In1235 2.326 . S
O1242 C1238 1.260 . S
O1243 In1235 2.266 . S
O1243 C1240 1.252 . S
O1244 In1235 2.326 . S
O1244 C1240 1.260 . S
C1245 O1236 1.240 . S
C1245 O1237 1.252 . S
O1246 In1235 2.294 . S
O1246 C1239 1.240 . S
O1247 In1235 2.326 . S
O1247 C1239 1.252 . S
C1248 C1249 1.369 . S
C1248 C1250 1.419 . S
C1248 H1252 0.930 . S
C1249 C1248 1.369 . S
C1249 C1258 1.429 . S
C1250 C1248 1.419 . S
C1250 C1251 1.363 . S
C1250 H1253 0.929 . S
C1251 C1250 1.363 . S
C1251 C1257 1.428 . S
H1252 C1248 0.930 . S
H1253 C1250 0.929 . S
S1254 N1255 1.613 . S
S1254 N1256 1.610 . S
N1255 S1254 1.613 . S
N1255 C1258 1.350 . S
N1256 S1254 1.610 . S
N1256 C1257 1.351 . S
C1257 C1251 1.428 . S
C1257 N1256 1.351 . S
C1257 C1258 1.434 . S
C1258 C1249 1.429 . S
C1258 N1255 1.350 . S
C1258 C1257 1.434 . S
C1259 C1260 1.369 . S
C1259 C1261 1.419 . S
C1259 H1263 0.930 . S
C1260 C1259 1.369 . S
C1260 C1269 1.429 . S
C1261 C1259 1.419 . S
C1261 C1262 1.363 . S
C1261 H1264 0.929 . S
C1262 C1261 1.363 . S
C1262 C1268 1.428 . S
H1263 C1259 0.930 . S
H1264 C1261 0.929 . S
S1265 N1266 1.613 . S
S1265 N1267 1.610 . S
N1266 S1265 1.613 . S
N1266 C1269 1.350 . S
N1267 S1265 1.610 . S
N1267 C1268 1.351 . S
C1268 C1262 1.428 . S
C1268 N1267 1.351 . S
C1268 C1269 1.434 . S
C1269 C1260 1.429 . S
C1269 N1266 1.350 . S
C1269 C1268 1.434 . S
C1270 C1271 1.369 . S
C1270 C1272 1.419 . S
C1270 H1274 0.930 . S
C1271 C1270 1.369 . S
C1271 C1280 1.429 . S
C1272 C1270 1.419 . S
C1272 C1273 1.363 . S
C1272 H1275 0.929 . S
C1273 C1272 1.363 . S
C1273 C1279 1.428 . S
H1274 C1270 0.930 . S
H1275 C1272 0.929 . S
S1276 N1277 1.613 . S
S1276 N1278 1.610 . S
N1277 S1276 1.613 . S
N1277 C1280 1.350 . S
N1278 S1276 1.610 . S
N1278 C1279 1.351 . S
C1279 C1273 1.428 . S
C1279 N1278 1.351 . S
C1279 C1280 1.434 . S
C1280 C1271 1.429 . S
C1280 N1277 1.350 . S
C1280 C1279 1.434 . S
C1281 C1282 1.369 . S
C1281 C1283 1.419 . S
C1281 H1285 0.930 . S
C1282 C1281 1.369 . S
C1282 C1291 1.429 . S
C1283 C1281 1.419 . S
C1283 C1284 1.363 . S
C1283 H1286 0.929 . S
C1284 C1283 1.363 . S
C1284 C1290 1.428 . S
H1285 C1281 0.930 . S
H1286 C1283 0.929 . S
S1287 N1288 1.613 . S
S1287 N1289 1.610 . S
N1288 S1287 1.613 . S
N1288 C1291 1.350 . S
N1289 S1287 1.610 . S
N1289 C1290 1.351 . S
C1290 C1284 1.428 . S
C1290 N1289 1.351 . S
C1290 C1291 1.434 . S
C1291 C1282 1.429 . S
C1291 N1288 1.350 . S
C1291 C1290 1.434 . S
C1292 C1293 1.369 . S
C1292 C1294 1.419 . S
C1292 H1296 0.930 . S
C1293 C1292 1.369 . S
C1293 C1302 1.429 . S
C1294 C1292 1.419 . S
C1294 C1295 1.363 . S
C1294 H1297 0.929 . S
C1295 C1294 1.363 . S
C1295 C1301 1.428 . S
H1296 C1292 0.930 . S
H1297 C1294 0.929 . S
S1298 N1299 1.613 . S
S1298 N1300 1.610 . S
N1299 S1298 1.613 . S
N1299 C1302 1.350 . S
N1300 S1298 1.610 . S
N1300 C1301 1.351 . S
C1301 C1295 1.428 . S
C1301 N1300 1.351 . S
C1301 C1302 1.434 . S
C1302 C1293 1.429 . S
C1302 N1299 1.350 . S
C1302 C1301 1.434 . S
C1303 C1304 1.369 . S
C1303 C1305 1.419 . S
C1303 H1307 0.930 . S
C1304 C1303 1.369 . S
C1304 C1313 1.429 . S
C1305 C1303 1.419 . S
C1305 C1306 1.363 . S
C1305 H1308 0.929 . S
C1306 C1305 1.363 . S
C1306 C1312 1.428 . S
H1307 C1303 0.930 . S
H1308 C1305 0.929 . S
S1309 N1310 1.613 . S
S1309 N1311 1.610 . S
N1310 S1309 1.613 . S
N1310 C1313 1.350 . S
N1311 S1309 1.610 . S
N1311 C1312 1.351 . S
C1312 C1306 1.428 . S
C1312 N1311 1.351 . S
C1312 C1313 1.434 . S
C1313 C1304 1.429 . S
C1313 N1310 1.350 . S
C1313 C1312 1.434 . S
C1314 C1315 1.369 . S
C1314 C1316 1.419 . S
C1314 H1318 0.930 . S
C1315 C1314 1.369 . S
C1315 C1324 1.429 . S
C1316 C1314 1.419 . S
C1316 C1317 1.363 . S
C1316 H1319 0.929 . S
C1317 C1316 1.363 . S
C1317 C1323 1.428 . S
H1318 C1314 0.930 . S
H1319 C1316 0.929 . S
S1320 N1321 1.613 . S
S1320 N1322 1.610 . S
N1321 S1320 1.613 . S
N1321 C1324 1.350 . S
N1322 S1320 1.610 . S
N1322 C1323 1.351 . S
C1323 C1317 1.428 . S
C1323 N1322 1.351 . S
C1323 C1324 1.434 . S
C1324 C1315 1.429 . S
C1324 N1321 1.350 . S
C1324 C1323 1.434 . S
C1325 C1326 1.369 . S
C1325 C1327 1.419 . S
C1325 H1329 0.930 . S
C1326 C1325 1.369 . S
C1326 C1335 1.429 . S
C1327 C1325 1.419 . S
C1327 C1328 1.363 . S
C1327 H1330 0.929 . S
C1328 C1327 1.363 . S
C1328 C1334 1.428 . S
H1329 C1325 0.930 . S
H1330 C1327 0.929 . S
S1331 N1332 1.613 . S
S1331 N1333 1.610 . S
N1332 S1331 1.613 . S
N1332 C1335 1.350 . S
N1333 S1331 1.610 . S
N1333 C1334 1.351 . S
C1334 C1328 1.428 . S
C1334 N1333 1.351 . S
C1334 C1335 1.434 . S
C1335 C1326 1.429 . S
C1335 N1332 1.350 . S
C1335 C1334 1.434 . S
C1336 C1337 1.369 . S
C1336 C1338 1.419 . S
C1336 H1340 0.930 . S
C1337 C1336 1.369 . S
C1337 C1346 1.429 . S
C1338 C1336 1.419 . S
C1338 C1339 1.363 . S
C1338 H1341 0.929 . S
C1339 C1338 1.363 . S
C1339 C1345 1.428 . S
H1340 C1336 0.930 . S
H1341 C1338 0.929 . S
S1342 N1343 1.613 . S
S1342 N1344 1.610 . S
N1343 S1342 1.613 . S
N1343 C1346 1.350 . S
N1344 S1342 1.610 . S
N1344 C1345 1.351 . S
C1345 C1339 1.428 . S
C1345 N1344 1.351 . S
C1345 C1346 1.434 . S
C1346 C1337 1.429 . S
C1346 N1343 1.350 . S
C1346 C1345 1.434 . S
C1347 C1348 1.369 . S
C1347 C1349 1.419 . S
C1347 H1351 0.930 . S
C1348 C1347 1.369 . S
C1348 C1357 1.429 . S
C1349 C1347 1.419 . S
C1349 C1350 1.363 . S
C1349 H1352 0.929 . S
C1350 C1349 1.363 . S
C1350 C1356 1.428 . S
H1351 C1347 0.930 . S
H1352 C1349 0.929 . S
S1353 N1354 1.613 . S
S1353 N1355 1.610 . S
N1354 S1353 1.613 . S
N1354 C1357 1.350 . S
N1355 S1353 1.610 . S
N1355 C1356 1.351 . S
C1356 C1350 1.428 . S
C1356 N1355 1.351 . S
C1356 C1357 1.434 . S
C1357 C1348 1.429 . S
C1357 N1354 1.350 . S
C1357 C1356 1.434 . S
C1358 C1359 1.369 . S
C1358 C1360 1.419 . S
C1358 H1362 0.930 . S
C1359 C1358 1.369 . S
C1359 C1368 1.429 . S
C1360 C1358 1.419 . S
C1360 C1361 1.363 . S
C1360 H1363 0.929 . S
C1361 C1360 1.363 . S
C1361 C1367 1.428 . S
H1362 C1358 0.930 . S
H1363 C1360 0.929 . S
S1364 N1365 1.614 1_556 S
S1364 N1366 1.610 1_556 S
N1365 S1364 1.614 1_554 S
N1365 C1368 1.347 . S
N1366 S1364 1.610 1_554 S
N1366 C1367 1.351 . S
C1367 C1361 1.428 . S
C1367 N1366 1.351 . S
C1367 C1368 1.434 . S
C1368 C1359 1.429 . S
C1368 N1365 1.347 . S
C1368 C1367 1.434 . S
C1369 C1370 1.369 . S
C1369 C1371 1.419 . S
C1369 H1373 0.930 . S
C1370 C1369 1.369 . S
C1370 C1379 1.429 . S
C1371 C1369 1.419 . S
C1371 C1372 1.363 . S
C1371 H1374 0.929 . S
C1372 C1371 1.363 . S
C1372 C1378 1.428 . S
H1373 C1369 0.930 . S
H1374 C1371 0.929 . S
S1375 N1376 1.613 . S
S1375 N1377 1.610 . S
N1376 S1375 1.613 . S
N1376 C1379 1.350 . S
N1377 S1375 1.610 . S
N1377 C1378 1.351 . S
C1378 C1372 1.428 . S
C1378 N1377 1.351 . S
C1378 C1379 1.434 . S
C1379 C1370 1.429 . S
C1379 N1376 1.350 . S
C1379 C1378 1.434 . S
C1380 C1381 1.369 . S
C1380 C1382 1.419 . S
C1380 H1384 0.930 . S
C1381 C1380 1.369 . S
C1381 C1390 1.429 . S
C1382 C1380 1.419 . S
C1382 C1383 1.363 . S
C1382 H1385 0.929 . S
C1383 C1382 1.363 . S
C1383 C1389 1.428 . S
H1384 C1380 0.930 . S
H1385 C1382 0.929 . S
S1386 N1387 1.613 . S
S1386 N1388 1.610 . S
N1387 S1386 1.613 . S
N1387 C1390 1.350 . S
N1388 S1386 1.610 . S
N1388 C1389 1.351 . S
C1389 C1383 1.428 . S
C1389 N1388 1.351 . S
C1389 C1390 1.434 . S
C1390 C1381 1.429 . S
C1390 N1387 1.350 . S
C1390 C1389 1.434 . S
C1391 C1392 1.369 . S
C1391 C1393 1.419 . S
C1391 H1395 0.930 . S
C1392 C1391 1.369 . S
C1392 C1401 1.429 . S
C1393 C1391 1.419 . S
C1393 C1394 1.363 . S
C1393 H1396 0.929 . S
C1394 C1393 1.363 . S
C1394 C1400 1.428 . S
H1395 C1391 0.930 . S
H1396 C1393 0.929 . S
S1397 N1398 1.613 . S
S1397 N1399 1.610 . S
N1398 S1397 1.613 . S
N1398 C1401 1.350 . S
N1399 S1397 1.610 . S
N1399 C1400 1.351 . S
C1400 C1394 1.428 . S
C1400 N1399 1.351 . S
C1400 C1401 1.434 . S
C1401 C1392 1.429 . S
C1401 N1398 1.350 . S
C1401 C1400 1.434 . S
C1402 C1403 1.369 . S
C1402 C1404 1.419 . S
C1402 H1406 0.930 . S
C1403 C1402 1.369 . S
C1403 C1412 1.429 . S
C1404 C1402 1.419 . S
C1404 C1405 1.363 . S
C1404 H1407 0.929 . S
C1405 C1404 1.363 . S
C1405 C1411 1.428 . S
H1406 C1402 0.930 . S
H1407 C1404 0.929 . S
S1408 N1409 1.613 . S
S1408 N1410 1.610 1_554 S
N1409 S1408 1.613 . S
N1409 C1412 1.350 1_554 S
N1410 S1408 1.610 1_556 S
N1410 C1411 1.351 . S
C1411 C1405 1.428 . S
C1411 N1410 1.351 . S
C1411 C1412 1.434 . S
C1412 C1403 1.429 . S
C1412 N1409 1.350 1_556 S
C1412 C1411 1.434 . S
C1413 C1414 1.369 . S
C1413 C1415 1.419 . S
C1413 H1417 0.930 . S
C1414 C1413 1.369 . S
C1414 C1423 1.429 . S
C1415 C1413 1.419 . S
C1415 C1416 1.363 . S
C1415 H1418 0.929 . S
C1416 C1415 1.363 . S
C1416 C1422 1.428 . S
H1417 C1413 0.930 . S
H1418 C1415 0.929 . S
S1419 N1420 1.613 . S
S1419 N1421 1.610 . S
N1420 S1419 1.613 . S
N1420 C1423 1.350 . S
N1421 S1419 1.610 . S
N1421 C1422 1.351 . S
C1422 C1416 1.428 . S
C1422 N1421 1.351 . S
C1422 C1423 1.434 . S
C1423 C1414 1.429 . S
C1423 N1420 1.350 . S
C1423 C1422 1.434 . S
C1424 C1425 1.369 . S
C1424 C1426 1.419 . S
C1424 H1428 0.930 . S
C1425 C1424 1.369 . S
C1425 C1434 1.429 . S
C1426 C1424 1.419 . S
C1426 C1427 1.363 . S
C1426 H1429 0.929 . S
C1427 C1426 1.363 . S
C1427 C1433 1.428 . S
H1428 C1424 0.930 . S
H1429 C1426 0.929 . S
S1430 N1431 1.613 . S
S1430 N1432 1.610 . S
N1431 S1430 1.613 . S
N1431 C1434 1.350 . S
N1432 S1430 1.610 . S
N1432 C1433 1.351 . S
C1433 C1427 1.428 . S
C1433 N1432 1.351 . S
C1433 C1434 1.434 . S
C1434 C1425 1.429 . S
C1434 N1431 1.350 . S
C1434 C1433 1.434 . S
C1435 C1436 1.369 . S
C1435 C1437 1.419 . S
C1435 H1439 0.930 1_455 S
C1436 C1435 1.369 . S
C1436 C1445 1.429 . S
C1437 C1435 1.419 . S
C1437 C1438 1.363 . S
C1437 H1440 0.929 . S
C1438 C1437 1.363 . S
C1438 C1444 1.428 . S
H1439 C1435 0.930 1_655 S
H1440 C1437 0.929 . S
S1441 N1442 1.613 . S
S1441 N1443 1.610 . S
N1442 S1441 1.613 . S
N1442 C1445 1.350 . S
N1443 S1441 1.610 . S
N1443 C1444 1.351 . S
C1444 C1438 1.428 . S
C1444 N1443 1.351 . S
C1444 C1445 1.434 . S
C1445 C1436 1.429 . S
C1445 N1442 1.350 . S
C1445 C1444 1.434 . S
C1446 C1447 1.369 . S
C1446 C1448 1.419 . S
C1446 H1450 0.930 . S
C1447 C1446 1.369 . S
C1447 C1456 1.429 . S
C1448 C1446 1.419 . S
C1448 C1449 1.363 . S
C1448 H1451 0.929 . S
C1449 C1448 1.363 . S
C1449 C1455 1.428 . S
H1450 C1446 0.930 . S
H1451 C1448 0.929 . S
S1452 N1453 1.613 . S
S1452 N1454 1.610 . S
N1453 S1452 1.613 . S
N1453 C1456 1.350 . S
N1454 S1452 1.610 . S
N1454 C1455 1.351 . S
C1455 C1449 1.428 . S
C1455 N1454 1.351 . S
C1455 C1456 1.434 . S
C1456 C1447 1.429 . S
C1456 N1453 1.350 . S
C1456 C1455 1.434 . S
C1457 C1458 1.369 . S
C1457 C1459 1.419 . S
C1457 H1461 0.930 . S
C1458 C1457 1.369 . S
C1458 C1467 1.429 . S
C1459 C1457 1.419 . S
C1459 C1460 1.363 . S
C1459 H1462 0.929 . S
C1460 C1459 1.363 . S
C1460 C1466 1.428 . S
H1461 C1457 0.930 . S
H1462 C1459 0.929 . S
S1463 N1464 1.611 1_455 S
S1463 N1465 1.610 1_455 S
N1464 S1463 1.611 1_655 S
N1464 C1467 1.364 . S
N1465 S1463 1.610 1_655 S
N1465 C1466 1.351 . S
C1466 C1460 1.428 . S
C1466 N1465 1.351 . S
C1466 C1467 1.434 . S
C1467 C1458 1.429 . S
C1467 N1464 1.364 . S
C1467 C1466 1.434 . S
C1468 C1469 1.369 . S
C1468 C1470 1.419 . S
C1468 H1472 0.930 . S
C1469 C1468 1.369 . S
C1469 C1478 1.429 . S
C1470 C1468 1.419 . S
C1470 C1471 1.363 . S
C1470 H1473 0.929 . S
C1471 C1470 1.363 . S
C1471 C1477 1.428 . S
H1472 C1468 0.930 . S
H1473 C1470 0.929 . S
S1474 N1475 1.613 . S
S1474 N1476 1.610 . S
N1475 S1474 1.613 . S
N1475 C1478 1.350 . S
N1476 S1474 1.610 . S
N1476 C1477 1.351 . S
C1477 C1471 1.428 . S
C1477 N1476 1.351 . S
C1477 C1478 1.434 . S
C1478 C1469 1.429 . S
C1478 N1475 1.350 . S
C1478 C1477 1.434 . S
C1479 C1480 1.369 . S
C1479 C1481 1.419 . S
C1479 H1483 0.930 . S
C1480 C1479 1.369 . S
C1480 C1489 1.429 . S
C1481 C1479 1.419 . S
C1481 C1482 1.363 . S
C1481 H1484 0.929 . S
C1482 C1481 1.363 . S
C1482 C1488 1.428 . S
H1483 C1479 0.930 . S
H1484 C1481 0.929 . S
S1485 N1486 1.613 . S
S1485 N1487 1.610 . S
N1486 S1485 1.613 . S
N1486 C1489 1.350 . S
N1487 S1485 1.610 . S
N1487 C1488 1.351 . S
C1488 C1482 1.428 . S
C1488 N1487 1.351 . S
C1488 C1489 1.434 . S
C1489 C1480 1.429 . S
C1489 N1486 1.350 . S
C1489 C1488 1.434 . S
C1490 C1491 1.369 . S
C1490 C1492 1.419 . S
C1490 H1494 0.930 . S
C1491 C1490 1.369 . S
C1491 C1500 1.429 . S
C1492 C1490 1.419 . S
C1492 C1493 1.363 . S
C1492 H1495 0.929 . S
C1493 C1492 1.363 . S
C1493 C1499 1.428 . S
H1494 C1490 0.930 . S
H1495 C1492 0.929 . S
S1496 N1497 1.613 . S
S1496 N1498 1.610 . S
N1497 S1496 1.613 . S
N1497 C1500 1.350 . S
N1498 S1496 1.610 . S
N1498 C1499 1.351 . S
C1499 C1493 1.428 . S
C1499 N1498 1.351 . S
C1499 C1500 1.434 . S
C1500 C1491 1.429 . S
C1500 N1497 1.350 . S
C1500 C1499 1.434 . S
C1501 C1502 1.369 . S
C1501 C1503 1.419 . S
C1501 H1505 0.930 . S
C1502 C1501 1.369 . S
C1502 C1511 1.429 . S
C1503 C1501 1.419 . S
C1503 C1504 1.363 . S
C1503 H1506 0.929 . S
C1504 C1503 1.363 . S
C1504 C1510 1.428 . S
H1505 C1501 0.930 . S
H1506 C1503 0.929 . S
S1507 N1508 1.613 . S
S1507 N1509 1.610 . S
N1508 S1507 1.613 . S
N1508 C1511 1.350 . S
N1509 S1507 1.610 . S
N1509 C1510 1.351 . S
C1510 C1504 1.428 . S
C1510 N1509 1.351 . S
C1510 C1511 1.434 . S
C1511 C1502 1.429 . S
C1511 N1508 1.350 . S
C1511 C1510 1.434 . S
C1512 C1513 1.369 . S
C1512 C1514 1.419 . S
C1512 H1516 0.930 . S
C1513 C1512 1.369 . S
C1513 C1522 1.429 . S
C1514 C1512 1.419 . S
C1514 C1515 1.363 . S
C1514 H1517 0.929 . S
C1515 C1514 1.363 . S
C1515 C1521 1.428 . S
H1516 C1512 0.930 . S
H1517 C1514 0.929 . S
S1518 N1519 1.613 . S
S1518 N1520 1.610 1_565 S
N1519 S1518 1.613 . S
N1519 C1522 1.350 1_565 S
N1520 S1518 1.610 1_545 S
N1520 C1521 1.351 . S
C1521 C1515 1.428 . S
C1521 N1520 1.351 . S
C1521 C1522 1.434 . S
C1522 C1513 1.429 . S
C1522 N1519 1.350 1_545 S
C1522 C1521 1.434 . S
C1523 C1524 1.369 . S
C1523 C1525 1.419 . S
C1523 H1527 0.930 . S
C1524 C1523 1.369 . S
C1524 C1533 1.429 . S
C1525 C1523 1.419 . S
C1525 C1526 1.363 . S
C1525 H1528 0.929 . S
C1526 C1525 1.363 . S
C1526 C1532 1.428 . S
H1527 C1523 0.930 . S
H1528 C1525 0.929 . S
S1529 N1530 1.613 . S
S1529 N1531 1.610 . S
N1530 S1529 1.613 . S
N1530 C1533 1.350 . S
N1531 S1529 1.610 . S
N1531 C1532 1.351 . S
C1532 C1526 1.428 . S
C1532 N1531 1.351 . S
C1532 C1533 1.434 . S
C1533 C1524 1.429 . S
C1533 N1530 1.350 . S
C1533 C1532 1.434 . S
C1534 C1535 1.369 . S
C1534 C1536 1.419 . S
C1534 H1538 0.930 . S
C1535 C1534 1.369 . S
C1535 C1544 1.429 . S
C1536 C1534 1.419 . S
C1536 C1537 1.363 . S
C1536 H1539 0.929 . S
C1537 C1536 1.363 . S
C1537 C1543 1.428 . S
H1538 C1534 0.930 . S
H1539 C1536 0.929 . S
S1540 N1541 1.613 . S
S1540 N1542 1.610 . S
N1541 S1540 1.613 . S
N1541 C1544 1.350 . S
N1542 S1540 1.610 . S
N1542 C1543 1.351 . S
C1543 C1537 1.428 . S
C1543 N1542 1.351 . S
C1543 C1544 1.434 . S
C1544 C1535 1.429 . S
C1544 N1541 1.350 . S
C1544 C1543 1.434 . S
C1545 C1546 1.369 . S
C1545 C1547 1.419 . S
C1545 H1549 0.930 . S
C1546 C1545 1.369 . S
C1546 C1555 1.429 . S
C1547 C1545 1.419 . S
C1547 C1548 1.363 . S
C1547 H1550 0.929 . S
C1548 C1547 1.363 . S
C1548 C1554 1.428 . S
H1549 C1545 0.930 . S
H1550 C1547 0.929 . S
S1551 N1552 1.613 . S
S1551 N1553 1.610 . S
N1552 S1551 1.613 . S
N1552 C1555 1.350 . S
N1553 S1551 1.610 . S
N1553 C1554 1.351 . S
C1554 C1548 1.428 . S
C1554 N1553 1.351 . S
C1554 C1555 1.434 . S
C1555 C1546 1.429 . S
C1555 N1552 1.350 . S
C1555 C1554 1.434 . S
C1556 C1557 1.369 . S
C1556 C1558 1.419 . S
C1556 H1560 0.930 . S
C1557 C1556 1.369 . S
C1557 C1566 1.429 . S
C1558 C1556 1.419 . S
C1558 C1559 1.363 . S
C1558 H1561 0.929 . S
C1559 C1558 1.363 . S
C1559 C1565 1.428 . S
H1560 C1556 0.930 . S
H1561 C1558 0.929 . S
S1562 N1563 1.613 . S
S1562 N1564 1.610 1_545 S
N1563 S1562 1.613 . S
N1563 C1566 1.350 1_545 S
N1564 S1562 1.610 1_565 S
N1564 C1565 1.351 . S
C1565 C1559 1.428 . S
C1565 N1564 1.351 . S
C1565 C1566 1.434 . S
C1566 C1557 1.429 . S
C1566 N1563 1.350 1_565 S
C1566 C1565 1.434 . S
C1567 C1568 1.369 . S
C1567 C1569 1.419 . S
C1567 H1571 0.930 . S
C1568 C1567 1.369 . S
C1568 C1577 1.429 . S
C1569 C1567 1.419 . S
C1569 C1570 1.363 . S
C1569 H1572 0.929 . S
C1570 C1569 1.363 . S
C1570 C1576 1.428 . S
H1571 C1567 0.930 . S
H1572 C1569 0.929 . S
S1573 N1574 1.613 . S
S1573 N1575 1.610 . S
N1574 S1573 1.613 . S
N1574 C1577 1.350 . S
N1575 S1573 1.610 . S
N1575 C1576 1.351 . S
C1576 C1570 1.428 . S
C1576 N1575 1.351 . S
C1576 C1577 1.434 . S
C1577 C1568 1.429 . S
C1577 N1574 1.350 . S
C1577 C1576 1.434 . S
C1578 C1579 1.369 . S
C1578 C1580 1.419 . S
C1578 H1582 0.930 . S
C1579 C1578 1.369 . S
C1579 C1588 1.429 . S
C1580 C1578 1.419 . S
C1580 C1581 1.363 . S
C1580 H1583 0.929 . S
C1581 C1580 1.363 . S
C1581 C1587 1.428 . S
H1582 C1578 0.930 . S
H1583 C1580 0.929 . S
S1584 N1585 1.613 . S
S1584 N1586 1.610 . S
N1585 S1584 1.613 . S
N1585 C1588 1.350 . S
N1586 S1584 1.610 . S
N1586 C1587 1.351 . S
C1587 C1581 1.428 . S
C1587 N1586 1.351 . S
C1587 C1588 1.434 . S
C1588 C1579 1.429 . S
C1588 N1585 1.350 . S
C1588 C1587 1.434 . S
C1589 C1590 1.369 . S
C1589 C1591 1.419 . S
C1589 H1593 0.930 . S
C1590 C1589 1.369 . S
C1590 C1599 1.429 . S
C1591 C1589 1.419 . S
C1591 C1592 1.363 . S
C1591 H1594 0.929 . S
C1592 C1591 1.363 . S
C1592 C1598 1.428 . S
H1593 C1589 0.930 . S
H1594 C1591 0.929 . S
S1595 N1596 1.613 . S
S1595 N1597 1.610 . S
N1596 S1595 1.613 . S
N1596 C1599 1.350 . S
N1597 S1595 1.610 . S
N1597 C1598 1.351 . S
C1598 C1592 1.428 . S
C1598 N1597 1.351 . S
C1598 C1599 1.434 . S
C1599 C1590 1.429 . S
C1599 N1596 1.350 . S
C1599 C1598 1.434 . S
C1600 C1601 1.369 . S
C1600 C1602 1.419 . S
C1600 H1604 0.930 . S
C1601 C1600 1.369 . S
C1601 C1610 1.429 . S
C1602 C1600 1.419 . S
C1602 C1603 1.363 . S
C1602 H1605 0.929 . S
C1603 C1602 1.363 . S
C1603 C1609 1.428 . S
H1604 C1600 0.930 . S
H1605 C1602 0.929 . S
S1606 N1607 1.613 . S
S1606 N1608 1.610 . S
N1607 S1606 1.613 . S
N1607 C1610 1.350 . S
N1608 S1606 1.610 . S
N1608 C1609 1.351 . S
C1609 C1603 1.428 . S
C1609 N1608 1.351 . S
C1609 C1610 1.434 . S
C1610 C1601 1.429 . S
C1610 N1607 1.350 . S
C1610 C1609 1.434 . S
C1611 C1612 1.369 . S
C1611 C1613 1.419 . S
C1611 H1615 0.930 . S
C1612 C1611 1.369 . S
C1612 C1621 1.429 . S
C1613 C1611 1.419 . S
C1613 C1614 1.363 . S
C1613 H1616 0.929 . S
C1614 C1613 1.363 . S
C1614 C1620 1.428 . S
H1615 C1611 0.930 . S
H1616 C1613 0.929 . S
S1617 N1618 1.613 . S
S1617 N1619 1.610 . S
N1618 S1617 1.613 . S
N1618 C1621 1.350 . S
N1619 S1617 1.610 . S
N1619 C1620 1.351 . S
C1620 C1614 1.428 . S
C1620 N1619 1.351 . S
C1620 C1621 1.434 . S
C1621 C1612 1.429 . S
C1621 N1618 1.350 . S
C1621 C1620 1.434 . S
C1622 C1623 1.369 . S
C1622 C1624 1.419 . S
C1622 H1626 0.930 . S
C1623 C1622 1.369 . S
C1623 C1632 1.429 . S
C1624 C1622 1.419 . S
C1624 C1625 1.363 . S
C1624 H1627 0.929 . S
C1625 C1624 1.363 . S
C1625 C1631 1.428 . S
H1626 C1622 0.930 . S
H1627 C1624 0.929 . S
S1628 N1629 1.613 . S
S1628 N1630 1.610 . S
N1629 S1628 1.613 . S
N1629 C1632 1.350 . S
N1630 S1628 1.610 . S
N1630 C1631 1.351 . S
C1631 C1625 1.428 . S
C1631 N1630 1.351 . S
C1631 C1632 1.434 . S
C1632 C1623 1.429 . S
C1632 N1629 1.350 . S
C1632 C1631 1.434 . S
C1633 C1634 1.369 . S
C1633 C1635 1.419 . S
C1633 H1637 0.930 . S
C1634 C1633 1.369 . S
C1634 C1643 1.429 . S
C1635 C1633 1.419 . S
C1635 C1636 1.363 . S
C1635 H1638 0.929 . S
C1636 C1635 1.363 . S
C1636 C1642 1.428 . S
H1637 C1633 0.930 . S
H1638 C1635 0.929 . S
S1639 N1640 1.613 . S
S1639 N1641 1.610 . S
N1640 S1639 1.613 . S
N1640 C1643 1.350 . S
N1641 S1639 1.610 . S
N1641 C1642 1.351 . S
C1642 C1636 1.428 . S
C1642 N1641 1.351 . S
C1642 C1643 1.434 . S
C1643 C1634 1.429 . S
C1643 N1640 1.350 . S
C1643 C1642 1.434 . S
C1644 C1645 1.369 . S
C1644 C1646 1.419 . S
C1644 H1648 0.930 . S
C1645 C1644 1.369 . S
C1645 C1654 1.429 . S
C1646 C1644 1.419 . S
C1646 C1647 1.363 . S
C1646 H1649 0.929 . S
C1647 C1646 1.363 . S
C1647 C1653 1.428 . S
H1648 C1644 0.930 . S
H1649 C1646 0.929 . S
S1650 N1651 1.613 . S
S1650 N1652 1.610 1_554 S
N1651 S1650 1.613 . S
N1651 C1654 1.350 1_554 S
N1652 S1650 1.610 1_556 S
N1652 C1653 1.351 . S
C1653 C1647 1.428 . S
C1653 N1652 1.351 . S
C1653 C1654 1.434 . S
C1654 C1645 1.429 . S
C1654 N1651 1.350 1_556 S
C1654 C1653 1.434 . S
C1655 C1656 1.369 . S
C1655 C1657 1.419 . S
C1655 H1659 0.930 . S
C1656 C1655 1.369 . S
C1656 C1665 1.429 . S
C1657 C1655 1.419 . S
C1657 C1658 1.363 . S
C1657 H1660 0.929 . S
C1658 C1657 1.363 . S
C1658 C1664 1.428 . S
H1659 C1655 0.930 . S
H1660 C1657 0.929 . S
S1661 N1662 1.613 . S
S1661 N1663 1.610 . S
N1662 S1661 1.613 . S
N1662 C1665 1.350 . S
N1663 S1661 1.610 . S
N1663 C1664 1.351 . S
C1664 C1658 1.428 . S
C1664 N1663 1.351 . S
C1664 C1665 1.434 . S
C1665 C1656 1.429 . S
C1665 N1662 1.350 . S
C1665 C1664 1.434 . S
C1666 C1667 1.369 . S
C1666 C1668 1.419 . S
C1666 H1670 0.930 . S
C1667 C1666 1.369 . S
C1667 C1676 1.429 . S
C1668 C1666 1.419 . S
C1668 C1669 1.363 . S
C1668 H1671 0.929 . S
C1669 C1668 1.363 . S
C1669 C1675 1.428 . S
H1670 C1666 0.930 . S
H1671 C1668 0.929 . S
S1672 N1673 1.613 . S
S1672 N1674 1.610 . S
N1673 S1672 1.613 . S
N1673 C1676 1.350 . S
N1674 S1672 1.610 . S
N1674 C1675 1.351 . S
C1675 C1669 1.428 . S
C1675 N1674 1.351 . S
C1675 C1676 1.434 . S
C1676 C1667 1.429 . S
C1676 N1673 1.350 . S
C1676 C1675 1.434 . S
C1677 C1678 1.369 . S
C1677 C1679 1.419 . S
C1677 H1681 0.930 . S
C1678 C1677 1.369 . S
C1678 C1687 1.429 . S
C1679 C1677 1.419 . S
C1679 C1680 1.363 . S
C1679 H1682 0.929 . S
C1680 C1679 1.363 . S
C1680 C1686 1.428 . S
H1681 C1677 0.930 . S
H1682 C1679 0.929 . S
S1683 N1684 1.613 . S
S1683 N1685 1.610 . S
N1684 S1683 1.613 . S
N1684 C1687 1.350 . S
N1685 S1683 1.610 . S
N1685 C1686 1.351 . S
C1686 C1680 1.428 . S
C1686 N1685 1.351 . S
C1686 C1687 1.434 . S
C1687 C1678 1.429 . S
C1687 N1684 1.350 . S
C1687 C1686 1.434 . S
C1688 C1689 1.369 . S
C1688 C1690 1.419 . S
C1688 H1692 0.930 . S
C1689 C1688 1.369 . S
C1689 C1698 1.429 . S
C1690 C1688 1.419 . S
C1690 C1691 1.363 . S
C1690 H1693 0.929 . S
C1691 C1690 1.363 . S
C1691 C1697 1.428 . S
H1692 C1688 0.930 . S
H1693 C1690 0.929 . S
S1694 N1695 1.613 . S
S1694 N1696 1.610 . S
N1695 S1694 1.613 . S
N1695 C1698 1.350 . S
N1696 S1694 1.610 . S
N1696 C1697 1.351 . S
C1697 C1691 1.428 . S
C1697 N1696 1.351 . S
C1697 C1698 1.434 . S
C1698 C1689 1.429 . S
C1698 N1695 1.350 . S
C1698 C1697 1.434 . S
C1699 C1700 1.369 . S
C1699 C1701 1.419 . S
C1699 H1703 0.930 1_455 S
C1700 C1699 1.369 . S
C1700 C1709 1.429 . S
C1701 C1699 1.419 . S
C1701 C1702 1.363 . S
C1701 H1704 0.929 . S
C1702 C1701 1.363 . S
C1702 C1708 1.428 . S
H1703 C1699 0.930 1_655 S
H1704 C1701 0.929 . S
S1705 N1706 1.613 . S
S1705 N1707 1.610 . S
N1706 S1705 1.613 . S
N1706 C1709 1.350 . S
N1707 S1705 1.610 . S
N1707 C1708 1.351 . S
C1708 C1702 1.428 . S
C1708 N1707 1.351 . S
C1708 C1709 1.434 . S
C1709 C1700 1.429 . S
C1709 N1706 1.350 . S
C1709 C1708 1.434 . S
C1710 C1711 1.369 . S
C1710 C1712 1.419 . S
C1710 H1714 0.930 . S
C1711 C1710 1.369 . S
C1711 C1720 1.429 . S
C1712 C1710 1.419 . S
C1712 C1713 1.363 . S
C1712 H1715 0.929 . S
C1713 C1712 1.363 . S
C1713 C1719 1.428 . S
H1714 C1710 0.930 . S
H1715 C1712 0.929 . S
S1716 N1717 1.613 . S
S1716 N1718 1.610 . S
N1717 S1716 1.613 . S
N1717 C1720 1.350 . S
N1718 S1716 1.610 . S
N1718 C1719 1.351 . S
C1719 C1713 1.428 . S
C1719 N1718 1.351 . S
C1719 C1720 1.434 . S
C1720 C1711 1.429 . S
C1720 N1717 1.350 . S
C1720 C1719 1.434 . S
C1721 C1722 1.369 . S
C1721 C1723 1.419 . S
C1721 H1725 0.930 . S
C1722 C1721 1.369 . S
C1722 C1731 1.429 . S
C1723 C1721 1.419 . S
C1723 C1724 1.363 . S
C1723 H1726 0.929 1_655 S
C1724 C1723 1.363 . S
C1724 C1730 1.428 . S
H1725 C1721 0.930 . S
H1726 C1723 0.929 1_455 S
S1727 N1728 1.613 . S
S1727 N1729 1.610 . S
N1728 S1727 1.613 . S
N1728 C1731 1.350 . S
N1729 S1727 1.610 . S
N1729 C1730 1.351 . S
C1730 C1724 1.428 . S
C1730 N1729 1.351 . S
C1730 C1731 1.434 . S
C1731 C1722 1.429 . S
C1731 N1728 1.350 . S
C1731 C1730 1.434 . S
C1732 C1733 1.369 . S
C1732 C1734 1.419 . S
C1732 H1736 0.930 . S
C1733 C1732 1.369 . S
C1733 C1742 1.429 . S
C1734 C1732 1.419 . S
C1734 C1735 1.363 . S
C1734 H1737 0.929 . S
C1735 C1734 1.363 . S
C1735 C1741 1.428 . S
H1736 C1732 0.930 . S
H1737 C1734 0.929 . S
S1738 N1739 1.613 . S
S1738 N1740 1.610 . S
N1739 S1738 1.613 . S
N1739 C1742 1.350 . S
N1740 S1738 1.610 . S
N1740 C1741 1.351 . S
C1741 C1735 1.428 . S
C1741 N1740 1.351 . S
C1741 C1742 1.434 . S
C1742 C1733 1.429 . S
C1742 N1739 1.350 . S
C1742 C1741 1.434 . S
C1743 C1744 1.369 . S
C1743 C1745 1.419 . S
C1743 H1747 0.930 . S
C1744 C1743 1.369 . S
C1744 C1753 1.429 . S
C1745 C1743 1.419 . S
C1745 C1746 1.363 . S
C1745 H1748 0.929 . S
C1746 C1745 1.363 . S
C1746 C1752 1.428 . S
H1747 C1743 0.930 . S
H1748 C1745 0.929 . S
S1749 N1750 1.613 . S
S1749 N1751 1.610 . S
N1750 S1749 1.613 . S
N1750 C1753 1.350 . S
N1751 S1749 1.610 . S
N1751 C1752 1.351 . S
C1752 C1746 1.428 . S
C1752 N1751 1.351 . S
C1752 C1753 1.434 . S
C1753 C1744 1.429 . S
C1753 N1750 1.350 . S
C1753 C1752 1.434 . S
C1754 C1755 1.369 . S
C1754 C1756 1.419 . S
C1754 H1758 0.930 . S
C1755 C1754 1.369 . S
C1755 C1764 1.429 . S
C1756 C1754 1.419 . S
C1756 C1757 1.363 . S
C1756 H1759 0.929 . S
C1757 C1756 1.363 . S
C1757 C1763 1.428 . S
H1758 C1754 0.930 . S
H1759 C1756 0.929 . S
S1760 N1761 1.613 . S
S1760 N1762 1.610 . S
N1761 S1760 1.613 . S
N1761 C1764 1.350 . S
N1762 S1760 1.610 . S
N1762 C1763 1.351 . S
C1763 C1757 1.428 . S
C1763 N1762 1.351 . S
C1763 C1764 1.434 . S
C1764 C1755 1.429 . S
C1764 N1761 1.350 . S
C1764 C1763 1.434 . S
C1765 C1766 1.369 . S
C1765 C1767 1.419 . S
C1765 H1769 0.930 . S
C1766 C1765 1.369 . S
C1766 C1775 1.429 . S
C1767 C1765 1.419 . S
C1767 C1768 1.363 . S
C1767 H1770 0.929 . S
C1768 C1767 1.363 . S
C1768 C1774 1.428 . S
H1769 C1765 0.930 . S
H1770 C1767 0.929 . S
S1771 N1772 1.613 . S
S1771 N1773 1.610 . S
N1772 S1771 1.613 . S
N1772 C1775 1.350 . S
N1773 S1771 1.610 . S
N1773 C1774 1.351 . S
C1774 C1768 1.428 . S
C1774 N1773 1.351 . S
C1774 C1775 1.434 . S
C1775 C1766 1.429 . S
C1775 N1772 1.350 . S
C1775 C1774 1.434 . S
C1776 C1777 1.369 . S
C1776 C1778 1.419 . S
C1776 H1780 0.930 . S
C1777 C1776 1.369 . S
C1777 C1786 1.429 . S
C1778 C1776 1.419 . S
C1778 C1779 1.363 . S
C1778 H1781 0.929 . S
C1779 C1778 1.363 . S
C1779 C1785 1.428 . S
H1780 C1776 0.930 . S
H1781 C1778 0.929 . S
S1782 N1783 1.613 . S
S1782 N1784 1.610 . S
N1783 S1782 1.613 . S
N1783 C1786 1.350 . S
N1784 S1782 1.610 . S
N1784 C1785 1.351 . S
C1785 C1779 1.428 . S
C1785 N1784 1.351 . S
C1785 C1786 1.434 . S
C1786 C1777 1.429 . S
C1786 N1783 1.350 . S
C1786 C1785 1.434 . S
C1787 C1788 1.369 . S
C1787 C1789 1.419 . S
C1787 H1791 0.930 . S
C1788 C1787 1.369 . S
C1788 C1797 1.429 . S
C1789 C1787 1.419 . S
C1789 C1790 1.363 . S
C1789 H1792 0.929 . S
C1790 C1789 1.363 . S
C1790 C1796 1.428 . S
H1791 C1787 0.930 . S
H1792 C1789 0.929 . S
S1793 N1794 1.613 . S
S1793 N1795 1.610 . S
N1794 S1793 1.613 . S
N1794 C1797 1.350 . S
N1795 S1793 1.610 . S
N1795 C1796 1.351 . S
C1796 C1790 1.428 . S
C1796 N1795 1.351 . S
C1796 C1797 1.434 . S
C1797 C1788 1.429 . S
C1797 N1794 1.350 . S
C1797 C1796 1.434 . S
C1798 C1799 1.369 . S
C1798 C1800 1.419 . S
C1798 H1802 0.930 . S
C1799 C1798 1.369 . S
C1799 C1808 1.429 . S
C1800 C1798 1.419 . S
C1800 C1801 1.363 . S
C1800 H1803 0.929 1_565 S
C1801 C1800 1.363 . S
C1801 C1807 1.428 . S
H1802 C1798 0.930 . S
H1803 C1800 0.929 1_545 S
S1804 N1805 1.613 . S
S1804 N1806 1.610 . S
N1805 S1804 1.613 . S
N1805 C1808 1.350 . S
N1806 S1804 1.610 . S
N1806 C1807 1.351 . S
C1807 C1801 1.428 . S
C1807 N1806 1.351 . S
C1807 C1808 1.434 . S
C1808 C1799 1.429 . S
C1808 N1805 1.350 . S
C1808 C1807 1.434 . S
C1809 C1810 1.369 . S
C1809 C1811 1.419 . S
C1809 H1813 0.930 . S
C1810 C1809 1.369 . S
C1810 C1819 1.429 . S
C1811 C1809 1.419 . S
C1811 C1812 1.363 . S
C1811 H1814 0.929 . S
C1812 C1811 1.363 . S
C1812 C1818 1.428 . S
H1813 C1809 0.930 . S
H1814 C1811 0.929 . S
S1815 N1816 1.613 . S
S1815 N1817 1.610 . S
N1816 S1815 1.613 . S
N1816 C1819 1.350 . S
N1817 S1815 1.610 . S
N1817 C1818 1.351 . S
C1818 C1812 1.428 . S
C1818 N1817 1.351 . S
C1818 C1819 1.434 . S
C1819 C1810 1.429 . S
C1819 N1816 1.350 . S
C1819 C1818 1.434 . S
C1820 C1821 1.369 . S
C1820 C1822 1.419 . S
C1820 H1824 0.930 . S
C1821 C1820 1.369 . S
C1821 C1830 1.429 . S
C1822 C1820 1.419 . S
C1822 C1823 1.363 . S
C1822 H1825 0.929 . S
C1823 C1822 1.363 . S
C1823 C1829 1.428 . S
H1824 C1820 0.930 . S
H1825 C1822 0.929 . S
S1826 N1827 1.613 . S
S1826 N1828 1.610 . S
N1827 S1826 1.613 . S
N1827 C1830 1.350 . S
N1828 S1826 1.610 . S
N1828 C1829 1.351 . S
C1829 C1823 1.428 . S
C1829 N1828 1.351 . S
C1829 C1830 1.434 . S
C1830 C1821 1.429 . S
C1830 N1827 1.350 . S
C1830 C1829 1.434 . S
C1831 C1832 1.369 . S
C1831 C1833 1.419 . S
C1831 H1835 0.930 . S
C1832 C1831 1.369 . S
C1832 C1841 1.429 . S
C1833 C1831 1.419 . S
C1833 C1834 1.363 . S
C1833 H1836 0.929 . S
C1834 C1833 1.363 . S
C1834 C1840 1.428 . S
H1835 C1831 0.930 . S
H1836 C1833 0.929 . S
S1837 N1838 1.613 . S
S1837 N1839 1.610 . S
N1838 S1837 1.613 . S
N1838 C1841 1.350 . S
N1839 S1837 1.610 . S
N1839 C1840 1.351 . S
C1840 C1834 1.428 . S
C1840 N1839 1.351 . S
C1840 C1841 1.434 . S
C1841 C1832 1.429 . S
C1841 N1838 1.350 . S
C1841 C1840 1.434 . S
C1842 C1843 1.369 . S
C1842 C1844 1.419 . S
C1842 H1846 0.930 . S
C1843 C1842 1.369 . S
C1843 C1852 1.429 . S
C1844 C1842 1.419 . S
C1844 C1845 1.363 . S
C1844 H1847 0.929 . S
C1845 C1844 1.363 . S
C1845 C1851 1.428 . S
H1846 C1842 0.930 . S
H1847 C1844 0.929 . S
S1848 N1849 1.613 . S
S1848 N1850 1.610 . S
N1849 S1848 1.613 . S
N1849 C1852 1.350 . S
N1850 S1848 1.610 . S
N1850 C1851 1.351 . S
C1851 C1845 1.428 . S
C1851 N1850 1.351 . S
C1851 C1852 1.434 . S
C1852 C1843 1.429 . S
C1852 N1849 1.350 . S
C1852 C1851 1.434 . S
C1853 C1854 1.369 . S
C1853 C1855 1.419 . S
C1853 H1857 0.930 . S
C1854 C1853 1.369 . S
C1854 C1863 1.429 . S
C1855 C1853 1.419 . S
C1855 C1856 1.363 . S
C1855 H1858 0.929 . S
C1856 C1855 1.363 . S
C1856 C1862 1.428 . S
H1857 C1853 0.930 . S
H1858 C1855 0.929 . S
S1859 N1860 1.613 . S
S1859 N1861 1.610 . S
N1860 S1859 1.613 . S
N1860 C1863 1.350 . S
N1861 S1859 1.610 . S
N1861 C1862 1.351 . S
C1862 C1856 1.428 . S
C1862 N1861 1.351 . S
C1862 C1863 1.434 . S
C1863 C1854 1.429 . S
C1863 N1860 1.350 . S
C1863 C1862 1.434 . S
C1864 C1865 1.369 . S
C1864 C1866 1.419 . S
C1864 H1868 0.930 . S
C1865 C1864 1.369 . S
C1865 C1874 1.429 . S
C1866 C1864 1.419 . S
C1866 C1867 1.363 . S
C1866 H1869 0.929 . S
C1867 C1866 1.363 . S
C1867 C1873 1.428 . S
H1868 C1864 0.930 . S
H1869 C1866 0.929 . S
S1870 N1871 1.613 1_556 S
S1870 N1872 1.610 . S
N1871 S1870 1.613 1_554 S
N1871 C1874 1.350 . S
N1872 S1870 1.610 . S
N1872 C1873 1.351 1_556 S
C1873 C1867 1.428 . S
C1873 N1872 1.351 1_554 S
C1873 C1874 1.434 . S
C1874 C1865 1.429 . S
C1874 N1871 1.350 . S
C1874 C1873 1.434 . S
C1875 C1876 1.369 . S
C1875 C1877 1.419 . S
C1875 H1879 0.930 . S
C1876 C1875 1.369 . S
C1876 C1885 1.429 . S
C1877 C1875 1.419 . S
C1877 C1878 1.363 . S
C1877 H1880 0.929 . S
C1878 C1877 1.363 . S
C1878 C1884 1.428 . S
H1879 C1875 0.930 . S
H1880 C1877 0.929 . S
S1881 N1882 1.613 . S
S1881 N1883 1.610 . S
N1882 S1881 1.613 . S
N1882 C1885 1.350 . S
N1883 S1881 1.610 . S
N1883 C1884 1.351 . S
C1884 C1878 1.428 . S
C1884 N1883 1.351 . S
C1884 C1885 1.434 . S
C1885 C1876 1.429 . S
C1885 N1882 1.350 . S
C1885 C1884 1.434 . S
C1886 C1887 1.369 . S
C1886 C1888 1.419 . S
C1886 H1890 0.930 . S
C1887 C1886 1.369 . S
C1887 C1896 1.429 . S
C1888 C1886 1.419 . S
C1888 C1889 1.363 . S
C1888 H1891 0.929 . S
C1889 C1888 1.363 . S
C1889 C1895 1.428 . S
H1890 C1886 0.930 . S
H1891 C1888 0.929 . S
S1892 N1893 1.613 . S
S1892 N1894 1.610 . S
N1893 S1892 1.613 . S
N1893 C1896 1.350 . S
N1894 S1892 1.610 . S
N1894 C1895 1.351 . S
C1895 C1889 1.428 . S
C1895 N1894 1.351 . S
C1895 C1896 1.434 . S
C1896 C1887 1.429 . S
C1896 N1893 1.350 . S
C1896 C1895 1.434 . S
C1897 C1898 1.369 . S
C1897 C1899 1.419 . S
C1897 H1901 0.930 . S
C1898 C1897 1.369 . S
C1898 C1907 1.429 . S
C1899 C1897 1.419 . S
C1899 C1900 1.363 . S
C1899 H1902 0.929 . S
C1900 C1899 1.363 . S
C1900 C1906 1.428 . S
H1901 C1897 0.930 . S
H1902 C1899 0.929 . S
S1903 N1904 1.613 . S
S1903 N1905 1.610 . S
N1904 S1903 1.613 . S
N1904 C1907 1.350 . S
N1905 S1903 1.610 . S
N1905 C1906 1.351 . S
C1906 C1900 1.428 . S
C1906 N1905 1.351 . S
C1906 C1907 1.434 . S
C1907 C1898 1.429 . S
C1907 N1904 1.350 . S
C1907 C1906 1.434 . S
C1908 C1909 1.369 . S
C1908 C1910 1.419 . S
C1908 H1912 0.890 1_556 S
C1909 C1908 1.369 . S
C1909 C1918 1.429 . S
C1910 C1908 1.419 . S
C1910 C1911 1.363 . S
C1910 H1913 0.929 . S
C1911 C1910 1.363 . S
C1911 C1917 1.428 . S
H1912 C1908 0.890 1_554 S
H1913 C1910 0.929 . S
S1914 N1915 1.613 . S
S1914 N1916 1.610 . S
N1915 S1914 1.613 . S
N1915 C1918 1.350 . S
N1916 S1914 1.610 . S
N1916 C1917 1.351 . S
C1917 C1911 1.428 . S
C1917 N1916 1.351 . S
C1917 C1918 1.434 . S
C1918 C1909 1.429 . S
C1918 N1915 1.350 . S
C1918 C1917 1.434 . S
C1919 C1920 1.369 . S
C1919 C1921 1.419 . S
C1919 H1923 0.930 . S
C1920 C1919 1.369 . S
C1920 C1929 1.429 . S
C1921 C1919 1.419 . S
C1921 C1922 1.363 . S
C1921 H1924 0.929 . S
C1922 C1921 1.363 . S
C1922 C1928 1.428 . S
H1923 C1919 0.930 . S
H1924 C1921 0.929 . S
S1925 N1926 1.613 . S
S1925 N1927 1.610 . S
N1926 S1925 1.613 . S
N1926 C1929 1.350 . S
N1927 S1925 1.610 . S
N1927 C1928 1.351 . S
C1928 C1922 1.428 . S
C1928 N1927 1.351 . S
C1928 C1929 1.434 . S
C1929 C1920 1.429 . S
C1929 N1926 1.350 . S
C1929 C1928 1.434 . S
C1930 C1931 1.369 . S
C1930 C1932 1.419 . S
C1930 H1934 0.930 . S
C1931 C1930 1.369 . S
C1931 C1940 1.429 . S
C1932 C1930 1.419 . S
C1932 C1933 1.363 . S
C1932 H1935 0.929 . S
C1933 C1932 1.363 . S
C1933 C1939 1.428 . S
H1934 C1930 0.930 . S
H1935 C1932 0.929 . S
S1936 N1937 1.613 . S
S1936 N1938 1.610 . S
N1937 S1936 1.613 . S
N1937 C1940 1.350 . S
N1938 S1936 1.610 . S
N1938 C1939 1.351 . S
C1939 C1933 1.428 . S
C1939 N1938 1.351 . S
C1939 C1940 1.434 . S
C1940 C1931 1.429 . S
C1940 N1937 1.350 . S
C1940 C1939 1.434 . S
C1941 C1942 1.369 . S
C1941 C1943 1.419 . S
C1941 H1945 0.930 . S
C1942 C1941 1.369 . S
C1942 C1951 1.429 . S
C1943 C1941 1.419 . S
C1943 C1944 1.363 . S
C1943 H1946 0.929 . S
C1944 C1943 1.363 . S
C1944 C1950 1.428 . S
H1945 C1941 0.930 . S
H1946 C1943 0.929 . S
S1947 N1948 1.613 . S
S1947 N1949 1.610 . S
N1948 S1947 1.613 . S
N1948 C1951 1.350 . S
N1949 S1947 1.610 . S
N1949 C1950 1.351 . S
C1950 C1944 1.428 . S
C1950 N1949 1.351 . S
C1950 C1951 1.434 . S
C1951 C1942 1.429 . S
C1951 N1948 1.350 . S
C1951 C1950 1.434 . S
C1952 C1953 1.369 . S
C1952 C1954 1.419 . S
C1952 H1956 0.930 . S
C1953 C1952 1.369 . S
C1953 C1962 1.429 . S
C1954 C1952 1.419 . S
C1954 C1955 1.363 . S
C1954 H1957 0.929 . S
C1955 C1954 1.363 . S
C1955 C1961 1.428 . S
H1956 C1952 0.930 . S
H1957 C1954 0.929 . S
S1958 N1959 1.613 . S
S1958 N1960 1.610 . S
N1959 S1958 1.613 . S
N1959 C1962 1.350 . S
N1960 S1958 1.610 . S
N1960 C1961 1.351 . S
C1961 C1955 1.428 . S
C1961 N1960 1.351 . S
C1961 C1962 1.434 . S
C1962 C1953 1.429 . S
C1962 N1959 1.350 . S
C1962 C1961 1.434 . S
C1963 C1964 1.369 . S
C1963 C1965 1.419 . S
C1963 H1967 0.930 . S
C1964 C1963 1.369 . S
C1964 C1973 1.429 . S
C1965 C1963 1.419 . S
C1965 C1966 1.363 . S
C1965 H1968 0.929 . S
C1966 C1965 1.363 . S
C1966 C1972 1.428 . S
H1967 C1963 0.930 . S
H1968 C1965 0.929 . S
S1969 N1970 1.613 . S
S1969 N1971 1.610 . S
N1970 S1969 1.613 . S
N1970 C1973 1.350 . S
N1971 S1969 1.610 . S
N1971 C1972 1.351 . S
C1972 C1966 1.428 . S
C1972 N1971 1.351 . S
C1972 C1973 1.434 . S
C1973 C1964 1.429 . S
C1973 N1970 1.350 . S
C1973 C1972 1.434 . S
C1974 C1975 1.369 . S
C1974 C1976 1.419 . S
C1974 H1978 0.930 . S
C1975 C1974 1.369 . S
C1975 C1984 1.429 . S
C1976 C1974 1.419 . S
C1976 C1977 1.363 . S
C1976 H1979 0.929 . S
C1977 C1976 1.363 . S
C1977 C1983 1.428 . S
H1978 C1974 0.930 . S
H1979 C1976 0.929 . S
S1980 N1981 1.613 . S
S1980 N1982 1.610 . S
N1981 S1980 1.613 . S
N1981 C1984 1.350 . S
N1982 S1980 1.610 . S
N1982 C1983 1.351 . S
C1983 C1977 1.428 . S
C1983 N1982 1.351 . S
C1983 C1984 1.434 . S
C1984 C1975 1.429 . S
C1984 N1981 1.350 . S
C1984 C1983 1.434 . S
C1985 C1986 1.369 . S
C1985 C1987 1.419 . S
C1985 H1989 0.930 . S
C1986 C1985 1.369 . S
C1986 C1995 1.429 . S
C1987 C1985 1.419 . S
C1987 C1988 1.363 . S
C1987 H1990 0.929 . S
C1988 C1987 1.363 . S
C1988 C1994 1.428 . S
H1989 C1985 0.930 . S
H1990 C1987 0.929 . S
S1991 N1992 1.613 . S
S1991 N1993 1.610 . S
N1992 S1991 1.613 . S
N1992 C1995 1.350 . S
N1993 S1991 1.610 . S
N1993 C1994 1.351 . S
C1994 C1988 1.428 . S
C1994 N1993 1.351 . S
C1994 C1995 1.434 . S
C1995 C1986 1.429 . S
C1995 N1992 1.350 . S
C1995 C1994 1.434 . S
C1996 C1997 1.369 . S
C1996 C1998 1.419 . S
C1996 H2000 0.930 . S
C1997 C1996 1.369 . S
C1997 C2006 1.429 . S
C1998 C1996 1.419 . S
C1998 C1999 1.363 . S
C1998 H2001 0.929 . S
C1999 C1998 1.363 . S
C1999 C2005 1.428 . S
H2000 C1996 0.930 . S
H2001 C1998 0.929 . S
S2002 N2003 1.613 . S
S2002 N2004 1.610 . S
N2003 S2002 1.613 . S
N2003 C2006 1.350 . S
N2004 S2002 1.610 . S
N2004 C2005 1.351 . S
C2005 C1999 1.428 . S
C2005 N2004 1.351 . S
C2005 C2006 1.434 . S
C2006 C1997 1.429 . S
C2006 N2003 1.350 . S
C2006 C2005 1.434 . S
C2007 C2008 1.369 . S
C2007 C2009 1.419 . S
C2007 H2011 0.930 . S
C2008 C2007 1.369 . S
C2008 C2017 1.429 . S
C2009 C2007 1.419 . S
C2009 C2010 1.363 . S
C2009 H2012 0.929 . S
C2010 C2009 1.363 . S
C2010 C2016 1.428 . S
H2011 C2007 0.930 . S
H2012 C2009 0.929 . S
S2013 N2014 1.613 . S
S2013 N2015 1.610 . S
N2014 S2013 1.613 . S
N2014 C2017 1.350 . S
N2015 S2013 1.610 . S
N2015 C2016 1.351 . S
C2016 C2010 1.428 . S
C2016 N2015 1.351 . S
C2016 C2017 1.434 . S
C2017 C2008 1.429 . S
C2017 N2014 1.350 . S
C2017 C2016 1.434 . S
C2018 C2019 1.369 . S
C2018 C2020 1.419 . S
C2018 H2022 0.930 . S
C2019 C2018 1.369 . S
C2019 C2028 1.429 . S
C2020 C2018 1.419 . S
C2020 C2021 1.363 . S
C2020 H2023 0.929 . S
C2021 C2020 1.363 . S
C2021 C2027 1.428 . S
H2022 C2018 0.930 . S
H2023 C2020 0.929 . S
S2024 N2025 1.613 . S
S2024 N2026 1.610 . S
N2025 S2024 1.613 . S
N2025 C2028 1.350 . S
N2026 S2024 1.610 . S
N2026 C2027 1.351 . S
C2027 C2021 1.428 . S
C2027 N2026 1.351 . S
C2027 C2028 1.434 . S
C2028 C2019 1.429 . S
C2028 N2025 1.350 . S
C2028 C2027 1.434 . S
C2029 C2030 1.369 . S
C2029 C2031 1.419 . S
C2029 H2033 0.930 . S
C2030 C2029 1.369 . S
C2030 C2039 1.429 . S
C2031 C2029 1.419 . S
C2031 C2032 1.363 . S
C2031 H2034 0.929 . S
C2032 C2031 1.363 . S
C2032 C2038 1.428 . S
H2033 C2029 0.930 . S
H2034 C2031 0.929 . S
S2035 N2036 1.613 . S
S2035 N2037 1.610 . S
N2036 S2035 1.613 . S
N2036 C2039 1.350 . S
N2037 S2035 1.610 . S
N2037 C2038 1.351 . S
C2038 C2032 1.428 . S
C2038 N2037 1.351 . S
C2038 C2039 1.434 . S
C2039 C2030 1.429 . S
C2039 N2036 1.350 . S
C2039 C2038 1.434 . S
C2040 C2041 1.369 . S
C2040 C2042 1.419 . S
C2040 H2044 0.930 . S
C2041 C2040 1.369 . S
C2041 C2050 1.429 . S
C2042 C2040 1.419 . S
C2042 C2043 1.363 . S
C2042 H2045 0.929 . S
C2043 C2042 1.363 . S
C2043 C2049 1.428 . S
H2044 C2040 0.930 . S
H2045 C2042 0.929 . S
S2046 N2047 1.613 1_565 S
S2046 N2048 1.610 . S
N2047 S2046 1.613 1_545 S
N2047 C2050 1.350 . S
N2048 S2046 1.610 . S
N2048 C2049 1.351 1_565 S
C2049 C2043 1.428 . S
C2049 N2048 1.351 1_545 S
C2049 C2050 1.434 . S
C2050 C2041 1.429 . S
C2050 N2047 1.350 . S
C2050 C2049 1.434 . S
C2051 C2052 1.369 . S
C2051 C2053 1.419 . S
C2051 H2055 0.930 . S
C2052 C2051 1.369 . S
C2052 C2061 1.429 . S
C2053 C2051 1.419 . S
C2053 C2054 1.363 . S
C2053 H2056 0.929 . S
C2054 C2053 1.363 . S
C2054 C2060 1.428 . S
H2055 C2051 0.930 . S
H2056 C2053 0.929 . S
S2057 N2058 1.613 . S
S2057 N2059 1.610 . S
N2058 S2057 1.613 . S
N2058 C2061 1.350 . S
N2059 S2057 1.610 . S
N2059 C2060 1.351 . S
C2060 C2054 1.428 . S
C2060 N2059 1.351 . S
C2060 C2061 1.434 . S
C2061 C2052 1.429 . S
C2061 N2058 1.350 . S
C2061 C2060 1.434 . S
C2062 C2063 1.369 . S
C2062 C2064 1.419 . S
C2062 H2066 0.930 . S
C2063 C2062 1.369 . S
C2063 C2072 1.429 . S
C2064 C2062 1.419 . S
C2064 C2065 1.363 . S
C2064 H2067 0.929 . S
C2065 C2064 1.363 . S
C2065 C2071 1.428 . S
H2066 C2062 0.930 . S
H2067 C2064 0.929 . S
S2068 N2069 1.613 . S
S2068 N2070 1.610 . S
N2069 S2068 1.613 . S
N2069 C2072 1.350 . S
N2070 S2068 1.610 . S
N2070 C2071 1.351 . S
C2071 C2065 1.428 . S
C2071 N2070 1.351 . S
C2071 C2072 1.434 . S
C2072 C2063 1.429 . S
C2072 N2069 1.350 . S
C2072 C2071 1.434 . S
C2073 C2074 1.369 . S
C2073 C2075 1.419 . S
C2073 H2077 0.930 . S
C2074 C2073 1.369 . S
C2074 C2083 1.429 . S
C2075 C2073 1.419 . S
C2075 C2076 1.363 . S
C2075 H2078 0.929 . S
C2076 C2075 1.363 . S
C2076 C2082 1.428 . S
H2077 C2073 0.930 . S
H2078 C2075 0.929 . S
S2079 N2080 1.613 . S
S2079 N2081 1.610 . S
N2080 S2079 1.613 . S
N2080 C2083 1.350 . S
N2081 S2079 1.610 . S
N2081 C2082 1.351 . S
C2082 C2076 1.428 . S
C2082 N2081 1.351 . S
C2082 C2083 1.434 . S
C2083 C2074 1.429 . S
C2083 N2080 1.350 . S
C2083 C2082 1.434 . S
C2084 C2085 1.369 . S
C2084 C2086 1.419 . S
C2084 H2088 0.930 . S
C2085 C2084 1.369 . S
C2085 C2094 1.429 . S
C2086 C2084 1.419 . S
C2086 C2087 1.363 . S
C2086 H2089 0.929 . S
C2087 C2086 1.363 . S
C2087 C2093 1.428 . S
H2088 C2084 0.930 . S
H2089 C2086 0.929 . S
S2090 N2091 1.613 . S
S2090 N2092 1.610 1_545 S
N2091 S2090 1.613 . S
N2091 C2094 1.350 1_545 S
N2092 S2090 1.610 1_565 S
N2092 C2093 1.351 . S
C2093 C2087 1.428 . S
C2093 N2092 1.351 . S
C2093 C2094 1.434 . S
C2094 C2085 1.429 . S
C2094 N2091 1.350 1_565 S
C2094 C2093 1.434 . S
C2095 C2096 1.369 . S
C2095 C2097 1.419 . S
C2095 H2099 0.930 . S
C2096 C2095 1.369 . S
C2096 C2105 1.429 . S
C2097 C2095 1.419 . S
C2097 C2098 1.363 . S
C2097 H2100 0.929 . S
C2098 C2097 1.363 . S
C2098 C2104 1.428 . S
H2099 C2095 0.930 . S
H2100 C2097 0.929 . S
S2101 N2102 1.613 . S
S2101 N2103 1.610 . S
N2102 S2101 1.613 . S
N2102 C2105 1.350 . S
N2103 S2101 1.610 . S
N2103 C2104 1.351 . S
C2104 C2098 1.428 . S
C2104 N2103 1.351 . S
C2104 C2105 1.434 . S
C2105 C2096 1.429 . S
C2105 N2102 1.350 . S
C2105 C2104 1.434 . S
C2106 C2107 1.369 . S
C2106 C2108 1.419 . S
C2106 H2110 0.930 . S
C2107 C2106 1.369 . S
C2107 C2116 1.429 . S
C2108 C2106 1.419 . S
C2108 C2109 1.363 . S
C2108 H2111 0.929 . S
C2109 C2108 1.363 . S
C2109 C2115 1.428 . S
H2110 C2106 0.930 . S
H2111 C2108 0.929 . S
S2112 N2113 1.613 . S
S2112 N2114 1.610 . S
N2113 S2112 1.613 . S
N2113 C2116 1.350 . S
N2114 S2112 1.610 . S
N2114 C2115 1.351 . S
C2115 C2109 1.428 . S
C2115 N2114 1.351 . S
C2115 C2116 1.434 . S
C2116 C2107 1.429 . S
C2116 N2113 1.350 . S
C2116 C2115 1.434 . S
C2117 C2118 1.369 . S
C2117 C2119 1.419 . S
C2117 H2121 0.930 . S
C2118 C2117 1.369 . S
C2118 C2127 1.429 . S
C2119 C2117 1.419 . S
C2119 C2120 1.363 . S
C2119 H2122 0.929 . S
C2120 C2119 1.363 . S
C2120 C2126 1.428 . S
H2121 C2117 0.930 . S
H2122 C2119 0.929 . S
S2123 N2124 1.613 . S
S2123 N2125 1.610 . S
N2124 S2123 1.613 . S
N2124 C2127 1.350 . S
N2125 S2123 1.610 . S
N2125 C2126 1.351 . S
C2126 C2120 1.428 . S
C2126 N2125 1.351 . S
C2126 C2127 1.434 . S
C2127 C2118 1.429 . S
C2127 N2124 1.350 . S
C2127 C2126 1.434 . S
C2128 C2129 1.369 . S
C2128 C2130 1.419 . S
C2128 H2132 0.930 . S
C2129 C2128 1.369 . S
C2129 C2138 1.429 . S
C2130 C2128 1.419 . S
C2130 C2131 1.363 . S
C2130 H2133 0.929 . S
C2131 C2130 1.363 . S
C2131 C2137 1.428 . S
H2132 C2128 0.930 . S
H2133 C2130 0.929 . S
S2134 N2135 1.613 . S
S2134 N2136 1.610 . S
N2135 S2134 1.613 . S
N2135 C2138 1.350 . S
N2136 S2134 1.610 . S
N2136 C2137 1.351 . S
C2137 C2131 1.428 . S
C2137 N2136 1.351 . S
C2137 C2138 1.434 . S
C2138 C2129 1.429 . S
C2138 N2135 1.350 . S
C2138 C2137 1.434 . S
C2139 C2140 1.369 . S
C2139 C2141 1.419 . S
C2139 H2143 0.930 . S
C2140 C2139 1.369 . S
C2140 C2149 1.429 . S
C2141 C2139 1.419 . S
C2141 C2142 1.363 . S
C2141 H2144 0.929 . S
C2142 C2141 1.363 . S
C2142 C2148 1.428 . S
H2143 C2139 0.930 . S
H2144 C2141 0.929 . S
S2145 N2146 1.613 . S
S2145 N2147 1.610 . S
N2146 S2145 1.613 . S
N2146 C2149 1.350 . S
N2147 S2145 1.610 . S
N2147 C2148 1.351 . S
C2148 C2142 1.428 . S
C2148 N2147 1.351 . S
C2148 C2149 1.434 . S
C2149 C2140 1.429 . S
C2149 N2146 1.350 . S
C2149 C2148 1.434 . S
C2150 C2151 1.369 . S
C2150 C2152 1.419 . S
C2150 H2154 0.930 . S
C2151 C2150 1.369 . S
C2151 C2160 1.429 . S
C2152 C2150 1.419 . S
C2152 C2153 1.363 . S
C2152 H2155 0.929 . S
C2153 C2152 1.363 . S
C2153 C2159 1.428 . S
H2154 C2150 0.930 . S
H2155 C2152 0.929 . S
S2156 N2157 1.613 . S
S2156 N2158 1.610 . S
N2157 S2156 1.613 . S
N2157 C2160 1.350 . S
N2158 S2156 1.610 . S
N2158 C2159 1.351 . S
C2159 C2153 1.428 . S
C2159 N2158 1.351 . S
C2159 C2160 1.434 . S
C2160 C2151 1.429 . S
C2160 N2157 1.350 . S
C2160 C2159 1.434 . S
C2161 C2162 1.369 . S
C2161 C2163 1.419 . S
C2161 H2165 0.930 . S
C2162 C2161 1.369 . S
C2162 C2171 1.429 . S
C2163 C2161 1.419 . S
C2163 C2164 1.363 . S
C2163 H2166 0.929 . S
C2164 C2163 1.363 . S
C2164 C2170 1.428 . S
H2165 C2161 0.930 . S
H2166 C2163 0.929 . S
S2167 N2168 1.613 . S
S2167 N2169 1.610 . S
N2168 S2167 1.613 . S
N2168 C2171 1.350 . S
N2169 S2167 1.610 . S
N2169 C2170 1.351 . S
C2170 C2164 1.428 . S
C2170 N2169 1.351 . S
C2170 C2171 1.434 . S
C2171 C2162 1.429 . S
C2171 N2168 1.350 . S
C2171 C2170 1.434 . S
C2172 C2173 1.369 . S
C2172 C2174 1.419 . S
C2172 H2176 0.930 . S
C2173 C2172 1.369 . S
C2173 C2182 1.429 . S
C2174 C2172 1.419 . S
C2174 C2175 1.363 . S
C2174 H2177 0.929 . S
C2175 C2174 1.363 . S
C2175 C2181 1.428 . S
H2176 C2172 0.930 . S
H2177 C2174 0.929 . S
S2178 N2179 1.613 . S
S2178 N2180 1.610 . S
N2179 S2178 1.613 . S
N2179 C2182 1.350 . S
N2180 S2178 1.610 . S
N2180 C2181 1.351 . S
C2181 C2175 1.428 . S
C2181 N2180 1.351 . S
C2181 C2182 1.434 . S
C2182 C2173 1.429 . S
C2182 N2179 1.350 . S
C2182 C2181 1.434 . S
C2183 C2184 1.369 . S
C2183 C2185 1.419 . S
C2183 H2187 0.930 . S
C2184 C2183 1.369 . S
C2184 C2193 1.429 . S
C2185 C2183 1.419 . S
C2185 C2186 1.363 . S
C2185 H2188 0.929 . S
C2186 C2185 1.363 . S
C2186 C2192 1.428 . S
H2187 C2183 0.930 . S
H2188 C2185 0.929 . S
S2189 N2190 1.613 . S
S2189 N2191 1.610 . S
N2190 S2189 1.613 . S
N2190 C2193 1.350 . S
N2191 S2189 1.610 . S
N2191 C2192 1.351 . S
C2192 C2186 1.428 . S
C2192 N2191 1.351 . S
C2192 C2193 1.434 . S
C2193 C2184 1.429 . S
C2193 N2190 1.350 . S
C2193 C2192 1.434 . S
C2194 C2195 1.369 . S
C2194 C2196 1.419 . S
C2194 H2198 0.930 . S
C2195 C2194 1.369 . S
C2195 C2204 1.429 . S
C2196 C2194 1.419 . S
C2196 C2197 1.363 . S
C2196 H2199 0.929 . S
C2197 C2196 1.363 . S
C2197 C2203 1.428 . S
H2198 C2194 0.930 . S
H2199 C2196 0.929 . S
S2200 N2201 1.613 . S
S2200 N2202 1.610 1_554 S
N2201 S2200 1.613 . S
N2201 C2204 1.350 1_554 S
N2202 S2200 1.610 1_556 S
N2202 C2203 1.351 . S
C2203 C2197 1.428 . S
C2203 N2202 1.351 . S
C2203 C2204 1.434 . S
C2204 C2195 1.429 . S
C2204 N2201 1.350 1_556 S
C2204 C2203 1.434 . S
C2205 C2206 1.369 . S
C2205 C2207 1.419 . S
C2205 H2209 0.930 . S
C2206 C2205 1.369 . S
C2206 C2215 1.429 . S
C2207 C2205 1.419 . S
C2207 C2208 1.363 . S
C2207 H2210 0.929 . S
C2208 C2207 1.363 . S
C2208 C2214 1.428 . S
H2209 C2205 0.930 . S
H2210 C2207 0.929 . S
S2211 N2212 1.613 . S
S2211 N2213 1.610 . S
N2212 S2211 1.613 . S
N2212 C2215 1.350 . S
N2213 S2211 1.610 . S
N2213 C2214 1.351 . S
C2214 C2208 1.428 . S
C2214 N2213 1.351 . S
C2214 C2215 1.434 . S
C2215 C2206 1.429 . S
C2215 N2212 1.350 . S
C2215 C2214 1.434 . S
C2216 C2217 1.369 . S
C2216 C2218 1.419 . S
C2216 H2220 0.930 . S
C2217 C2216 1.369 . S
C2217 C2226 1.429 . S
C2218 C2216 1.419 . S
C2218 C2219 1.363 . S
C2218 H2221 0.929 1_455 S
C2219 C2218 1.363 . S
C2219 C2225 1.428 . S
H2220 C2216 0.930 . S
H2221 C2218 0.929 1_655 S
S2222 N2223 1.613 . S
S2222 N2224 1.610 . S
N2223 S2222 1.613 . S
N2223 C2226 1.350 . S
N2224 S2222 1.610 . S
N2224 C2225 1.351 . S
C2225 C2219 1.428 . S
C2225 N2224 1.351 . S
C2225 C2226 1.434 . S
C2226 C2217 1.429 . S
C2226 N2223 1.350 . S
C2226 C2225 1.434 . S
C2227 C2228 1.369 . S
C2227 C2229 1.419 . S
C2227 H2231 0.930 . S
C2228 C2227 1.369 . S
C2228 C2237 1.429 . S
C2229 C2227 1.419 . S
C2229 C2230 1.363 . S
C2229 H2232 0.929 . S
C2230 C2229 1.363 . S
C2230 C2236 1.428 . S
H2231 C2227 0.930 . S
H2232 C2229 0.929 . S
S2233 N2234 1.613 . S
S2233 N2235 1.610 . S
N2234 S2233 1.613 . S
N2234 C2237 1.350 . S
N2235 S2233 1.610 . S
N2235 C2236 1.351 . S
C2236 C2230 1.428 . S
C2236 N2235 1.351 . S
C2236 C2237 1.434 . S
C2237 C2228 1.429 . S
C2237 N2234 1.350 . S
C2237 C2236 1.434 . S
C2238 C2239 1.369 . S
C2238 C2240 1.419 . S
C2238 H2242 0.930 . S
C2239 C2238 1.369 . S
C2239 C2248 1.429 . S
C2240 C2238 1.419 . S
C2240 C2241 1.363 . S
C2240 H2243 0.929 . S
C2241 C2240 1.363 . S
C2241 C2247 1.428 . S
H2242 C2238 0.930 . S
H2243 C2240 0.929 . S
S2244 N2245 1.613 . S
S2244 N2246 1.610 . S
N2245 S2244 1.613 . S
N2245 C2248 1.350 . S
N2246 S2244 1.610 . S
N2246 C2247 1.351 . S
C2247 C2241 1.428 . S
C2247 N2246 1.351 . S
C2247 C2248 1.434 . S
C2248 C2239 1.429 . S
C2248 N2245 1.350 . S
C2248 C2247 1.434 . S
C2249 C2250 1.369 . S
C2249 C2251 1.419 . S
C2249 H2253 0.930 . S
C2250 C2249 1.369 . S
C2250 C2259 1.429 . S
C2251 C2249 1.419 . S
C2251 C2252 1.363 . S
C2251 H2254 0.929 . S
C2252 C2251 1.363 . S
C2252 C2258 1.428 . S
H2253 C2249 0.930 . S
H2254 C2251 0.929 . S
S2255 N2256 1.613 . S
S2255 N2257 1.610 . S
N2256 S2255 1.613 . S
N2256 C2259 1.350 . S
N2257 S2255 1.610 . S
N2257 C2258 1.351 . S
C2258 C2252 1.428 . S
C2258 N2257 1.351 . S
C2258 C2259 1.434 . S
C2259 C2250 1.429 . S
C2259 N2256 1.350 . S
C2259 C2258 1.434 . S
C2260 C2261 1.369 . S
C2260 C2262 1.419 . S
C2260 H2264 0.930 . S
C2261 C2260 1.369 . S
C2261 C2270 1.429 . S
C2262 C2260 1.419 . S
C2262 C2263 1.363 . S
C2262 H2265 0.929 . S
C2263 C2262 1.363 . S
C2263 C2269 1.428 . S
H2264 C2260 0.930 . S
H2265 C2262 0.929 . S
S2266 N2267 1.613 . S
S2266 N2268 1.610 . S
N2267 S2266 1.613 . S
N2267 C2270 1.350 . S
N2268 S2266 1.610 . S
N2268 C2269 1.351 . S
C2269 C2263 1.428 . S
C2269 N2268 1.351 . S
C2269 C2270 1.434 . S
C2270 C2261 1.429 . S
C2270 N2267 1.350 . S
C2270 C2269 1.434 . S
C2271 C2272 1.369 . S
C2271 C2273 1.419 . S
C2271 H2275 0.930 . S
C2272 C2271 1.369 . S
C2272 C2281 1.429 . S
C2273 C2271 1.419 . S
C2273 C2274 1.363 . S
C2273 H2276 0.929 . S
C2274 C2273 1.363 . S
C2274 C2280 1.428 . S
H2275 C2271 0.930 . S
H2276 C2273 0.929 . S
S2277 N2278 1.613 . S
S2277 N2279 1.610 . S
N2278 S2277 1.613 . S
N2278 C2281 1.350 . S
N2279 S2277 1.610 . S
N2279 C2280 1.351 . S
C2280 C2274 1.428 . S
C2280 N2279 1.351 . S
C2280 C2281 1.434 . S
C2281 C2272 1.429 . S
C2281 N2278 1.350 . S
C2281 C2280 1.434 . S
C2282 C2283 1.369 . S
C2282 C2284 1.419 . S
C2282 H2286 0.930 . S
C2283 C2282 1.369 . S
C2283 C2292 1.429 . S
C2284 C2282 1.419 . S
C2284 C2285 1.363 . S
C2284 H2287 0.929 . S
C2285 C2284 1.363 . S
C2285 C2291 1.428 . S
H2286 C2282 0.930 . S
H2287 C2284 0.929 . S
S2288 N2289 1.613 . S
S2288 N2290 1.610 . S
N2289 S2288 1.613 . S
N2289 C2292 1.350 . S
N2290 S2288 1.610 . S
N2290 C2291 1.351 . S
C2291 C2285 1.428 . S
C2291 N2290 1.351 . S
C2291 C2292 1.434 . S
C2292 C2283 1.429 . S
C2292 N2289 1.350 . S
C2292 C2291 1.434 . S
C2293 C2294 1.369 . S
C2293 C2295 1.419 . S
C2293 H2297 0.930 . S
C2294 C2293 1.369 . S
C2294 C2303 1.429 . S
C2295 C2293 1.419 . S
C2295 C2296 1.363 . S
C2295 H2298 0.929 . S
C2296 C2295 1.363 . S
C2296 C2302 1.428 . S
H2297 C2293 0.930 . S
H2298 C2295 0.929 . S
S2299 N2300 1.613 . S
S2299 N2301 1.610 . S
N2300 S2299 1.613 . S
N2300 C2303 1.350 . S
N2301 S2299 1.610 . S
N2301 C2302 1.351 . S
C2302 C2296 1.428 . S
C2302 N2301 1.351 . S
C2302 C2303 1.434 . S
C2303 C2294 1.429 . S
C2303 N2300 1.350 . S
C2303 C2302 1.434 . S
C2304 C2305 1.369 . S
C2304 C2306 1.419 . S
C2304 H2308 0.930 . S
C2305 C2304 1.369 . S
C2305 C2314 1.429 . S
C2306 C2304 1.419 . S
C2306 C2307 1.363 . S
C2306 H2309 0.929 . S
C2307 C2306 1.363 . S
C2307 C2313 1.428 . S
H2308 C2304 0.930 . S
H2309 C2306 0.929 . S
S2310 N2311 1.613 . S
S2310 N2312 1.610 . S
N2311 S2310 1.613 . S
N2311 C2314 1.350 . S
N2312 S2310 1.610 . S
N2312 C2313 1.351 . S
C2313 C2307 1.428 . S
C2313 N2312 1.351 . S
C2313 C2314 1.434 . S
C2314 C2305 1.429 . S
C2314 N2311 1.350 . S
C2314 C2313 1.434 . S
C2315 C2316 1.369 . S
C2315 C2317 1.419 . S
C2315 H2319 0.930 . S
C2316 C2315 1.369 . S
C2316 C2325 1.429 . S
C2317 C2315 1.419 . S
C2317 C2318 1.363 . S
C2317 H2320 0.929 . S
C2318 C2317 1.363 . S
C2318 C2324 1.428 . S
H2319 C2315 0.930 . S
H2320 C2317 0.929 . S
S2321 N2322 1.613 . S
S2321 N2323 1.610 . S
N2322 S2321 1.613 . S
N2322 C2325 1.350 . S
N2323 S2321 1.610 . S
N2323 C2324 1.351 . S
C2324 C2318 1.428 . S
C2324 N2323 1.351 . S
C2324 C2325 1.434 . S
C2325 C2316 1.429 . S
C2325 N2322 1.350 . S
C2325 C2324 1.434 . S
C2326 C2327 1.369 . S
C2326 C2328 1.419 . S
C2326 H2330 0.930 . S
C2327 C2326 1.369 . S
C2327 C2336 1.429 . S
C2328 C2326 1.419 . S
C2328 C2329 1.363 . S
C2328 H2331 0.929 . S
C2329 C2328 1.363 . S
C2329 C2335 1.428 . S
H2330 C2326 0.930 . S
H2331 C2328 0.929 . S
S2332 N2333 1.613 . S
S2332 N2334 1.610 . S
N2333 S2332 1.613 . S
N2333 C2336 1.350 . S
N2334 S2332 1.610 . S
N2334 C2335 1.351 . S
C2335 C2329 1.428 . S
C2335 N2334 1.351 . S
C2335 C2336 1.434 . S
C2336 C2327 1.429 . S
C2336 N2333 1.350 . S
C2336 C2335 1.434 . S
C2337 C2338 1.369 . S
C2337 C2339 1.419 . S
C2337 H2341 0.930 . S
C2338 C2337 1.369 . S
C2338 C2347 1.429 . S
C2339 C2337 1.419 . S
C2339 C2340 1.363 . S
C2339 H2342 0.929 . S
C2340 C2339 1.363 . S
C2340 C2346 1.428 . S
H2341 C2337 0.930 . S
H2342 C2339 0.929 . S
S2343 N2344 1.613 . S
S2343 N2345 1.610 . S
N2344 S2343 1.613 . S
N2344 C2347 1.350 . S
N2345 S2343 1.610 . S
N2345 C2346 1.351 . S
C2346 C2340 1.428 . S
C2346 N2345 1.351 . S
C2346 C2347 1.434 . S
C2347 C2338 1.429 . S
C2347 N2344 1.350 . S
C2347 C2346 1.434 . S
C2348 C2349 1.369 . S
C2348 C2350 1.419 . S
C2348 H2352 0.930 . S
C2349 C2348 1.369 . S
C2349 C2358 1.429 . S
C2350 C2348 1.419 . S
C2350 C2351 1.363 . S
C2350 H2353 0.929 . S
C2351 C2350 1.363 . S
C2351 C2357 1.428 . S
H2352 C2348 0.930 . S
H2353 C2350 0.929 . S
S2354 N2355 1.613 . S
S2354 N2356 1.610 . S
N2355 S2354 1.613 . S
N2355 C2358 1.350 . S
N2356 S2354 1.610 . S
N2356 C2357 1.351 . S
C2357 C2351 1.428 . S
C2357 N2356 1.351 . S
C2357 C2358 1.434 . S
C2358 C2349 1.429 . S
C2358 N2355 1.350 . S
C2358 C2357 1.434 . S
C2359 C2360 1.369 . S
C2359 C2361 1.419 . S
C2359 H2363 0.930 . S
C2360 C2359 1.369 . S
C2360 C2369 1.429 . S
C2361 C2359 1.419 . S
C2361 C2362 1.363 . S
C2361 H2364 0.929 . S
C2362 C2361 1.363 . S
C2362 C2368 1.428 . S
H2363 C2359 0.930 . S
H2364 C2361 0.929 . S
S2365 N2366 1.613 . S
S2365 N2367 1.610 . S
N2366 S2365 1.613 . S
N2366 C2369 1.350 . S
N2367 S2365 1.610 . S
N2367 C2368 1.351 . S
C2368 C2362 1.428 . S
C2368 N2367 1.351 . S
C2368 C2369 1.434 . S
C2369 C2360 1.429 . S
C2369 N2366 1.350 . S
C2369 C2368 1.434 . S
C2370 C2371 1.369 . S
C2370 C2372 1.419 . S
C2370 H2374 0.930 . S
C2371 C2370 1.369 . S
C2371 C2380 1.429 . S
C2372 C2370 1.419 . S
C2372 C2373 1.363 . S
C2372 H2375 0.929 . S
C2373 C2372 1.363 . S
C2373 C2379 1.428 . S
H2374 C2370 0.930 . S
H2375 C2372 0.929 . S
S2376 N2377 1.613 . S
S2376 N2378 1.610 . S
N2377 S2376 1.613 . S
N2377 C2380 1.350 . S
N2378 S2376 1.610 . S
N2378 C2379 1.351 . S
C2379 C2373 1.428 . S
C2379 N2378 1.351 . S
C2379 C2380 1.434 . S
C2380 C2371 1.429 . S
C2380 N2377 1.350 . S
C2380 C2379 1.434 . S
C2381 C2382 1.369 . S
C2381 C2383 1.419 . S
C2381 H2385 0.930 . S
C2382 C2381 1.369 . S
C2382 C2391 1.429 . S
C2383 C2381 1.419 . S
C2383 C2384 1.363 . S
C2383 H2386 0.929 . S
C2384 C2383 1.363 . S
C2384 C2390 1.428 . S
H2385 C2381 0.930 . S
H2386 C2383 0.929 . S
S2387 N2388 1.613 . S
S2387 N2389 1.610 . S
N2388 S2387 1.613 . S
N2388 C2391 1.350 . S
N2389 S2387 1.610 . S
N2389 C2390 1.351 . S
C2390 C2384 1.428 . S
C2390 N2389 1.351 . S
C2390 C2391 1.434 . S
C2391 C2382 1.429 . S
C2391 N2388 1.350 . S
C2391 C2390 1.434 . S
C2392 C2393 1.369 . S
C2392 C2394 1.419 . S
C2392 H2396 0.930 . S
C2393 C2392 1.369 . S
C2393 C2402 1.429 . S
C2394 C2392 1.419 . S
C2394 C2395 1.363 . S
C2394 H2397 0.929 . S
C2395 C2394 1.363 . S
C2395 C2401 1.428 . S
H2396 C2392 0.930 . S
H2397 C2394 0.929 . S
S2398 N2399 1.613 . S
S2398 N2400 1.610 . S
N2399 S2398 1.613 . S
N2399 C2402 1.350 . S
N2400 S2398 1.610 . S
N2400 C2401 1.351 . S
C2401 C2395 1.428 . S
C2401 N2400 1.351 . S
C2401 C2402 1.434 . S
C2402 C2393 1.429 . S
C2402 N2399 1.350 . S
C2402 C2401 1.434 . S
C2403 C2404 1.369 . S
C2403 C2405 1.419 . S
C2403 H2407 0.930 . S
C2404 C2403 1.369 . S
C2404 C2413 1.429 . S
C2405 C2403 1.419 . S
C2405 C2406 1.363 . S
C2405 H2408 0.929 . S
C2406 C2405 1.363 . S
C2406 C2412 1.428 . S
H2407 C2403 0.930 . S
H2408 C2405 0.929 . S
S2409 N2410 1.613 . S
S2409 N2411 1.610 . S
N2410 S2409 1.613 . S
N2410 C2413 1.350 . S
N2411 S2409 1.610 . S
N2411 C2412 1.351 . S
C2412 C2406 1.428 . S
C2412 N2411 1.351 . S
C2412 C2413 1.434 . S
C2413 C2404 1.429 . S
C2413 N2410 1.350 . S
C2413 C2412 1.434 . S
C2414 C2415 1.369 . S
C2414 C2416 1.419 . S
C2414 H2418 0.930 . S
C2415 C2414 1.369 . S
C2415 C2424 1.429 . S
C2416 C2414 1.419 . S
C2416 C2417 1.363 . S
C2416 H2419 0.929 . S
C2417 C2416 1.363 . S
C2417 C2423 1.428 . S
H2418 C2414 0.930 . S
H2419 C2416 0.929 . S
S2420 N2421 1.613 . S
S2420 N2422 1.610 . S
N2421 S2420 1.613 . S
N2421 C2424 1.350 . S
N2422 S2420 1.610 . S
N2422 C2423 1.351 . S
C2423 C2417 1.428 . S
C2423 N2422 1.351 . S
C2423 C2424 1.434 . S
C2424 C2415 1.429 . S
C2424 N2421 1.350 . S
C2424 C2423 1.434 . S
C2425 C2426 1.369 . S
C2425 C2427 1.419 . S
C2425 H2429 0.930 . S
C2426 C2425 1.369 . S
C2426 C2435 1.429 . S
C2427 C2425 1.419 . S
C2427 C2428 1.363 . S
C2427 H2430 0.929 . S
C2428 C2427 1.363 . S
C2428 C2434 1.428 . S
H2429 C2425 0.930 . S
H2430 C2427 0.929 . S
S2431 N2432 1.613 . S
S2431 N2433 1.610 . S
N2432 S2431 1.613 . S
N2432 C2435 1.350 . S
N2433 S2431 1.610 . S
N2433 C2434 1.351 . S
C2434 C2428 1.428 . S
C2434 N2433 1.351 . S
C2434 C2435 1.434 . S
C2435 C2426 1.429 . S
C2435 N2432 1.350 . S
C2435 C2434 1.434 . S
C2436 C2437 1.369 . S
C2436 C2438 1.419 . S
C2436 H2440 0.930 . S
C2437 C2436 1.369 . S
C2437 C2446 1.429 . S
C2438 C2436 1.419 . S
C2438 C2439 1.363 . S
C2438 H2441 0.929 . S
C2439 C2438 1.363 . S
C2439 C2445 1.428 . S
H2440 C2436 0.930 . S
H2441 C2438 0.929 . S
S2442 N2443 1.613 . S
S2442 N2444 1.610 . S
N2443 S2442 1.613 . S
N2443 C2446 1.350 . S
N2444 S2442 1.610 . S
N2444 C2445 1.351 . S
C2445 C2439 1.428 . S
C2445 N2444 1.351 . S
C2445 C2446 1.434 . S
C2446 C2437 1.429 . S
C2446 N2443 1.350 . S
C2446 C2445 1.434 . S
C2447 C2448 1.369 . S
C2447 C2449 1.419 . S
C2447 H2451 0.930 . S
C2448 C2447 1.369 . S
C2448 C2457 1.429 . S
C2449 C2447 1.419 . S
C2449 C2450 1.363 . S
C2449 H2452 0.929 . S
C2450 C2449 1.363 . S
C2450 C2456 1.428 . S
H2451 C2447 0.930 . S
H2452 C2449 0.929 . S
S2453 N2454 1.613 . S
S2453 N2455 1.610 . S
N2454 S2453 1.613 . S
N2454 C2457 1.350 . S
N2455 S2453 1.610 . S
N2455 C2456 1.351 . S
C2456 C2450 1.428 . S
C2456 N2455 1.351 . S
C2456 C2457 1.434 . S
C2457 C2448 1.429 . S
C2457 N2454 1.350 . S
C2457 C2456 1.434 . S
C2458 C2459 1.369 . S
C2458 C2460 1.419 . S
C2458 H2462 0.930 . S
C2459 C2458 1.369 . S
C2459 C2468 1.429 . S
C2460 C2458 1.419 . S
C2460 C2461 1.363 . S
C2460 H2463 0.929 . S
C2461 C2460 1.363 . S
C2461 C2467 1.428 . S
H2462 C2458 0.930 . S
H2463 C2460 0.929 . S
S2464 N2465 1.613 . S
S2464 N2466 1.610 . S
N2465 S2464 1.613 . S
N2465 C2468 1.350 . S
N2466 S2464 1.610 . S
N2466 C2467 1.351 . S
C2467 C2461 1.428 . S
C2467 N2466 1.351 . S
C2467 C2468 1.434 . S
C2468 C2459 1.429 . S
C2468 N2465 1.350 . S
C2468 C2467 1.434 . S
C2469 C2470 1.369 . S
C2469 C2471 1.419 . S
C2469 H2473 0.930 . S
C2470 C2469 1.369 . S
C2470 C2479 1.429 . S
C2471 C2469 1.419 . S
C2471 C2472 1.363 . S
C2471 H2474 0.929 . S
C2472 C2471 1.363 . S
C2472 C2478 1.428 . S
H2473 C2469 0.930 . S
H2474 C2471 0.929 . S
S2475 N2476 1.613 . S
S2475 N2477 1.610 . S
N2476 S2475 1.613 . S
N2476 C2479 1.350 . S
N2477 S2475 1.610 . S
N2477 C2478 1.351 . S
C2478 C2472 1.428 . S
C2478 N2477 1.351 . S
C2478 C2479 1.434 . S
C2479 C2470 1.429 . S
C2479 N2476 1.350 . S
C2479 C2478 1.434 . S
C2480 C2481 1.369 . S
C2480 C2482 1.419 . S
C2480 H2484 0.930 . S
C2481 C2480 1.369 . S
C2481 C2490 1.429 . S
C2482 C2480 1.419 . S
C2482 C2483 1.363 . S
C2482 H2485 0.929 . S
C2483 C2482 1.363 . S
C2483 C2489 1.428 . S
H2484 C2480 0.930 . S
H2485 C2482 0.929 . S
S2486 N2487 1.613 . S
S2486 N2488 1.610 . S
N2487 S2486 1.613 . S
N2487 C2490 1.350 . S
N2488 S2486 1.610 . S
N2488 C2489 1.351 . S
C2489 C2483 1.428 . S
C2489 N2488 1.351 . S
C2489 C2490 1.434 . S
C2490 C2481 1.429 . S
C2490 N2487 1.350 . S
C2490 C2489 1.434 . S
C2491 C2492 1.369 . S
C2491 C2493 1.419 . S
C2491 H2495 0.930 . S
C2492 C2491 1.369 . S
C2492 C2501 1.429 . S
C2493 C2491 1.419 . S
C2493 C2494 1.363 . S
C2493 H2496 0.929 . S
C2494 C2493 1.363 . S
C2494 C2500 1.428 . S
H2495 C2491 0.930 . S
H2496 C2493 0.929 . S
S2497 N2498 1.613 . S
S2497 N2499 1.610 . S
N2498 S2497 1.613 . S
N2498 C2501 1.350 . S
N2499 S2497 1.610 . S
N2499 C2500 1.351 . S
C2500 C2494 1.428 . S
C2500 N2499 1.351 . S
C2500 C2501 1.434 . S
C2501 C2492 1.429 . S
C2501 N2498 1.350 . S
C2501 C2500 1.434 . S
C2502 C2503 1.369 . S
C2502 C2504 1.419 . S
C2502 H2506 0.930 . S
C2503 C2502 1.369 . S
C2503 C2512 1.429 . S
C2504 C2502 1.419 . S
C2504 C2505 1.363 . S
C2504 H2507 0.929 . S
C2505 C2504 1.363 . S
C2505 C2511 1.428 . S
H2506 C2502 0.930 . S
H2507 C2504 0.929 . S
S2508 N2509 1.613 . S
S2508 N2510 1.610 . S
N2509 S2508 1.613 . S
N2509 C2512 1.350 . S
N2510 S2508 1.610 . S
N2510 C2511 1.351 . S
C2511 C2505 1.428 . S
C2511 N2510 1.351 . S
C2511 C2512 1.434 . S
C2512 C2503 1.429 . S
C2512 N2509 1.350 . S
C2512 C2511 1.434 . S
C2513 C2514 1.369 . S
C2513 C2515 1.419 . S
C2513 H2517 0.930 . S
C2514 C2513 1.369 . S
C2514 C2523 1.429 . S
C2515 C2513 1.419 . S
C2515 C2516 1.363 . S
C2515 H2518 0.929 . S
C2516 C2515 1.363 . S
C2516 C2522 1.428 . S
H2517 C2513 0.930 . S
H2518 C2515 0.929 . S
S2519 N2520 1.613 . S
S2519 N2521 1.610 . S
N2520 S2519 1.613 . S
N2520 C2523 1.350 . S
N2521 S2519 1.610 . S
N2521 C2522 1.351 . S
C2522 C2516 1.428 . S
C2522 N2521 1.351 . S
C2522 C2523 1.434 . S
C2523 C2514 1.429 . S
C2523 N2520 1.350 . S
C2523 C2522 1.434 . S
C2524 C2525 1.369 . S
C2524 C2526 1.419 . S
C2524 H2528 0.930 . S
C2525 C2524 1.369 . S
C2525 C2534 1.429 . S
C2526 C2524 1.419 . S
C2526 C2527 1.363 . S
C2526 H2529 0.929 . S
C2527 C2526 1.363 . S
C2527 C2533 1.428 . S
H2528 C2524 0.930 . S
H2529 C2526 0.929 . S
S2530 N2531 1.613 . S
S2530 N2532 1.610 . S
N2531 S2530 1.613 . S
N2531 C2534 1.350 . S
N2532 S2530 1.610 . S
N2532 C2533 1.351 . S
C2533 C2527 1.428 . S
C2533 N2532 1.351 . S
C2533 C2534 1.434 . S
C2534 C2525 1.429 . S
C2534 N2531 1.350 . S
C2534 C2533 1.434 . S
C2535 C2536 1.369 . S
C2535 C2537 1.419 . S
C2535 H2539 0.930 . S
C2536 C2535 1.369 . S
C2536 C2545 1.429 . S
C2537 C2535 1.419 . S
C2537 C2538 1.363 . S
C2537 H2540 0.929 . S
C2538 C2537 1.363 . S
C2538 C2544 1.428 . S
H2539 C2535 0.930 . S
H2540 C2537 0.929 . S
S2541 N2542 1.613 . S
S2541 N2543 1.610 . S
N2542 S2541 1.613 . S
N2542 C2545 1.350 . S
N2543 S2541 1.610 . S
N2543 C2544 1.351 . S
C2544 C2538 1.428 . S
C2544 N2543 1.351 . S
C2544 C2545 1.434 . S
C2545 C2536 1.429 . S
C2545 N2542 1.350 . S
C2545 C2544 1.434 . S
C2546 C2547 1.369 . S
C2546 C2548 1.419 . S
C2546 H2550 0.930 . S
C2547 C2546 1.369 . S
C2547 C2556 1.429 . S
C2548 C2546 1.419 . S
C2548 C2549 1.363 . S
C2548 H2551 0.929 . S
C2549 C2548 1.363 . S
C2549 C2555 1.428 . S
H2550 C2546 0.930 . S
H2551 C2548 0.929 . S
S2552 N2553 1.613 . S
S2552 N2554 1.610 . S
N2553 S2552 1.613 . S
N2553 C2556 1.350 . S
N2554 S2552 1.610 . S
N2554 C2555 1.351 . S
C2555 C2549 1.428 . S
C2555 N2554 1.351 . S
C2555 C2556 1.434 . S
C2556 C2547 1.429 . S
C2556 N2553 1.350 . S
C2556 C2555 1.434 . S
C2557 C2558 1.369 . S
C2557 C2559 1.419 . S
C2557 H2561 0.930 . S
C2558 C2557 1.369 . S
C2558 C2567 1.429 . S
C2559 C2557 1.419 . S
C2559 C2560 1.363 . S
C2559 H2562 0.929 . S
C2560 C2559 1.363 . S
C2560 C2566 1.428 . S
H2561 C2557 0.930 . S
H2562 C2559 0.929 . S
S2563 N2564 1.613 . S
S2563 N2565 1.610 . S
N2564 S2563 1.613 . S
N2564 C2567 1.350 . S
N2565 S2563 1.610 . S
N2565 C2566 1.351 . S
C2566 C2560 1.428 . S
C2566 N2565 1.351 . S
C2566 C2567 1.434 . S
C2567 C2558 1.429 . S
C2567 N2564 1.350 . S
C2567 C2566 1.434 . S
C2568 C2569 1.369 . S
C2568 C2570 1.419 . S
C2568 H2572 0.930 . S
C2569 C2568 1.369 . S
C2569 C2578 1.429 . S
C2570 C2568 1.419 . S
C2570 C2571 1.363 . S
C2570 H2573 0.929 . S
C2571 C2570 1.363 . S
C2571 C2577 1.428 . S
H2572 C2568 0.930 . S
H2573 C2570 0.929 . S
S2574 N2575 1.613 . S
S2574 N2576 1.610 . S
N2575 S2574 1.613 . S
N2575 C2578 1.350 . S
N2576 S2574 1.610 . S
N2576 C2577 1.351 . S
C2577 C2571 1.428 . S
C2577 N2576 1.351 . S
C2577 C2578 1.434 . S
C2578 C2569 1.429 . S
C2578 N2575 1.350 . S
C2578 C2577 1.434 . S
C2579 C2580 1.369 . S
C2579 C2581 1.419 . S
C2579 H2583 0.930 . S
C2580 C2579 1.369 . S
C2580 C2589 1.429 . S
C2581 C2579 1.419 . S
C2581 C2582 1.363 . S
C2581 H2584 0.929 . S
C2582 C2581 1.363 . S
C2582 C2588 1.428 . S
H2583 C2579 0.930 . S
H2584 C2581 0.929 . S
S2585 N2586 1.613 . S
S2585 N2587 1.610 . S
N2586 S2585 1.613 . S
N2586 C2589 1.350 . S
N2587 S2585 1.610 . S
N2587 C2588 1.351 . S
C2588 C2582 1.428 . S
C2588 N2587 1.351 . S
C2588 C2589 1.434 . S
C2589 C2580 1.429 . S
C2589 N2586 1.350 . S
C2589 C2588 1.434 . S
C2590 C2591 1.369 . S
C2590 C2592 1.419 . S
C2590 H2594 0.930 . S
C2591 C2590 1.369 . S
C2591 C2600 1.429 . S
C2592 C2590 1.419 . S
C2592 C2593 1.363 . S
C2592 H2595 0.929 . S
C2593 C2592 1.363 . S
C2593 C2599 1.428 . S
H2594 C2590 0.930 . S
H2595 C2592 0.929 . S
S2596 N2597 1.613 . S
S2596 N2598 1.610 . S
N2597 S2596 1.613 . S
N2597 C2600 1.350 . S
N2598 S2596 1.610 . S
N2598 C2599 1.351 . S
C2599 C2593 1.428 . S
C2599 N2598 1.351 . S
C2599 C2600 1.434 . S
C2600 C2591 1.429 . S
C2600 N2597 1.350 . S
C2600 C2599 1.434 . S
C2601 C2602 1.369 . S
C2601 C2603 1.419 . S
C2601 H2605 0.930 . S
C2602 C2601 1.369 . S
C2602 C2611 1.429 . S
C2603 C2601 1.419 . S
C2603 C2604 1.363 . S
C2603 H2606 0.929 . S
C2604 C2603 1.363 . S
C2604 C2610 1.428 . S
H2605 C2601 0.930 . S
H2606 C2603 0.929 . S
S2607 N2608 1.613 . S
S2607 N2609 1.610 . S
N2608 S2607 1.613 . S
N2608 C2611 1.350 . S
N2609 S2607 1.610 . S
N2609 C2610 1.351 . S
C2610 C2604 1.428 . S
C2610 N2609 1.351 . S
C2610 C2611 1.434 . S
C2611 C2602 1.429 . S
C2611 N2608 1.350 . S
C2611 C2610 1.434 . S
C2612 C2613 1.369 . S
C2612 C2614 1.419 . S
C2612 H2616 0.930 . S
C2613 C2612 1.369 . S
C2613 C2622 1.429 . S
C2614 C2612 1.419 . S
C2614 C2615 1.363 . S
C2614 H2617 0.929 . S
C2615 C2614 1.363 . S
C2615 C2621 1.428 . S
H2616 C2612 0.930 . S
H2617 C2614 0.929 . S
S2618 N2619 1.613 . S
S2618 N2620 1.610 . S
N2619 S2618 1.613 . S
N2619 C2622 1.350 . S
N2620 S2618 1.610 . S
N2620 C2621 1.351 . S
C2621 C2615 1.428 . S
C2621 N2620 1.351 . S
C2621 C2622 1.434 . S
C2622 C2613 1.429 . S
C2622 N2619 1.350 . S
C2622 C2621 1.434 . S
C2623 C2624 1.369 . S
C2623 C2625 1.419 . S
C2623 H2627 0.930 . S
C2624 C2623 1.369 . S
C2624 C2633 1.429 . S
C2625 C2623 1.419 . S
C2625 C2626 1.363 . S
C2625 H2628 0.929 . S
C2626 C2625 1.363 . S
C2626 C2632 1.428 . S
H2627 C2623 0.930 . S
H2628 C2625 0.929 . S
S2629 N2630 1.613 . S
S2629 N2631 1.610 . S
N2630 S2629 1.613 . S
N2630 C2633 1.350 . S
N2631 S2629 1.610 . S
N2631 C2632 1.351 . S
C2632 C2626 1.428 . S
C2632 N2631 1.351 . S
C2632 C2633 1.434 . S
C2633 C2624 1.429 . S
C2633 N2630 1.350 . S
C2633 C2632 1.434 . S
C2634 C2635 1.369 . S
C2634 C2636 1.419 . S
C2634 H2638 0.930 . S
C2635 C2634 1.369 . S
C2635 C2644 1.429 . S
C2636 C2634 1.419 . S
C2636 C2637 1.363 . S
C2636 H2639 0.929 . S
C2637 C2636 1.363 . S
C2637 C2643 1.428 . S
H2638 C2634 0.930 . S
H2639 C2636 0.929 . S
S2640 N2641 1.613 . S
S2640 N2642 1.610 . S
N2641 S2640 1.613 . S
N2641 C2644 1.350 . S
N2642 S2640 1.610 . S
N2642 C2643 1.351 . S
C2643 C2637 1.428 . S
C2643 N2642 1.351 . S
C2643 C2644 1.434 . S
C2644 C2635 1.429 . S
C2644 N2641 1.350 . S
C2644 C2643 1.434 . S
C2645 C2646 1.369 . S
C2645 C2647 1.419 . S
C2645 H2649 0.930 . S
C2646 C2645 1.369 . S
C2646 C2655 1.429 . S
C2647 C2645 1.419 . S
C2647 C2648 1.363 . S
C2647 H2650 0.929 . S
C2648 C2647 1.363 . S
C2648 C2654 1.428 . S
H2649 C2645 0.930 . S
H2650 C2647 0.929 . S
S2651 N2652 1.613 . S
S2651 N2653 1.610 . S
N2652 S2651 1.613 . S
N2652 C2655 1.350 . S
N2653 S2651 1.610 . S
N2653 C2654 1.351 . S
C2654 C2648 1.428 . S
C2654 N2653 1.351 . S
C2654 C2655 1.434 . S
C2655 C2646 1.429 . S
C2655 N2652 1.350 . S
C2655 C2654 1.434 . S
C2656 C2657 1.369 . S
C2656 C2658 1.419 . S
C2656 H2660 0.930 . S
C2657 C2656 1.369 . S
C2657 C2666 1.429 . S
C2658 C2656 1.419 . S
C2658 C2659 1.363 . S
C2658 H2661 0.929 . S
C2659 C2658 1.363 . S
C2659 C2665 1.428 . S
H2660 C2656 0.930 . S
H2661 C2658 0.929 . S
S2662 N2663 1.613 . S
S2662 N2664 1.610 . S
N2663 S2662 1.613 . S
N2663 C2666 1.350 . S
N2664 S2662 1.610 . S
N2664 C2665 1.351 . S
C2665 C2659 1.428 . S
C2665 N2664 1.351 . S
C2665 C2666 1.434 . S
C2666 C2657 1.429 . S
C2666 N2663 1.350 . S
C2666 C2665 1.434 . S
C2667 C2668 1.369 . S
C2667 C2669 1.419 . S
C2667 H2671 0.930 . S
C2668 C2667 1.369 . S
C2668 C2677 1.429 . S
C2669 C2667 1.419 . S
C2669 C2670 1.363 . S
C2669 H2672 0.929 . S
C2670 C2669 1.363 . S
C2670 C2676 1.428 . S
H2671 C2667 0.930 . S
H2672 C2669 0.929 . S
S2673 N2674 1.613 . S
S2673 N2675 1.610 . S
N2674 S2673 1.613 . S
N2674 C2677 1.350 . S
N2675 S2673 1.610 . S
N2675 C2676 1.351 . S
C2676 C2670 1.428 . S
C2676 N2675 1.351 . S
C2676 C2677 1.434 . S
C2677 C2668 1.429 . S
C2677 N2674 1.350 . S
C2677 C2676 1.434 . S
C2678 C2679 1.369 . S
C2678 C2680 1.419 . S
C2678 H2682 0.930 . S
C2679 C2678 1.369 . S
C2679 C2688 1.429 . S
C2680 C2678 1.419 . S
C2680 C2681 1.363 . S
C2680 H2683 0.929 . S
C2681 C2680 1.363 . S
C2681 C2687 1.428 . S
H2682 C2678 0.930 . S
H2683 C2680 0.929 . S
S2684 N2685 1.613 . S
S2684 N2686 1.610 . S
N2685 S2684 1.613 . S
N2685 C2688 1.350 . S
N2686 S2684 1.610 . S
N2686 C2687 1.351 . S
C2687 C2681 1.428 . S
C2687 N2686 1.351 . S
C2687 C2688 1.434 . S
C2688 C2679 1.429 . S
C2688 N2685 1.350 . S
C2688 C2687 1.434 . S
C2689 C2690 1.369 . S
C2689 C2691 1.419 . S
C2689 H2693 0.930 . S
C2690 C2689 1.369 . S
C2690 C2699 1.429 . S
C2691 C2689 1.419 . S
C2691 C2692 1.363 . S
C2691 H2694 0.929 . S
C2692 C2691 1.363 . S
C2692 C2698 1.428 . S
H2693 C2689 0.930 . S
H2694 C2691 0.929 . S
S2695 N2696 1.613 . S
S2695 N2697 1.610 . S
N2696 S2695 1.613 . S
N2696 C2699 1.350 . S
N2697 S2695 1.610 . S
N2697 C2698 1.351 . S
C2698 C2692 1.428 . S
C2698 N2697 1.351 . S
C2698 C2699 1.434 . S
C2699 C2690 1.429 . S
C2699 N2696 1.350 . S
C2699 C2698 1.434 . S
C2700 C2701 1.369 . S
C2700 C2702 1.419 . S
C2700 H2704 0.930 . S
C2701 C2700 1.369 . S
C2701 C2710 1.429 . S
C2702 C2700 1.419 . S
C2702 C2703 1.363 . S
C2702 H2705 0.929 . S
C2703 C2702 1.363 . S
C2703 C2709 1.428 . S
H2704 C2700 0.930 . S
H2705 C2702 0.929 . S
S2706 N2707 1.613 . S
S2706 N2708 1.610 . S
N2707 S2706 1.613 . S
N2707 C2710 1.350 . S
N2708 S2706 1.610 . S
N2708 C2709 1.351 . S
C2709 C2703 1.428 . S
C2709 N2708 1.351 . S
C2709 C2710 1.434 . S
C2710 C2701 1.429 . S
C2710 N2707 1.350 . S
C2710 C2709 1.434 . S
C2711 C2712 1.369 . S
C2711 C2713 1.419 . S
C2711 H2715 0.930 . S
C2712 C2711 1.369 . S
C2712 C2721 1.429 . S
C2713 C2711 1.419 . S
C2713 C2714 1.363 . S
C2713 H2716 0.929 . S
C2714 C2713 1.363 . S
C2714 C2720 1.428 . S
H2715 C2711 0.930 . S
H2716 C2713 0.929 . S
S2717 N2718 1.613 . S
S2717 N2719 1.610 . S
N2718 S2717 1.613 . S
N2718 C2721 1.350 . S
N2719 S2717 1.610 . S
N2719 C2720 1.351 . S
C2720 C2714 1.428 . S
C2720 N2719 1.351 . S
C2720 C2721 1.434 . S
C2721 C2712 1.429 . S
C2721 N2718 1.350 . S
C2721 C2720 1.434 . S
C2722 C2723 1.369 . S
C2722 C2724 1.419 . S
C2722 H2726 0.930 . S
C2723 C2722 1.369 . S
C2723 C2732 1.429 . S
C2724 C2722 1.419 . S
C2724 C2725 1.363 . S
C2724 H2727 0.929 . S
C2725 C2724 1.363 . S
C2725 C2731 1.428 . S
H2726 C2722 0.930 . S
H2727 C2724 0.929 . S
S2728 N2729 1.613 . S
S2728 N2730 1.610 . S
N2729 S2728 1.613 . S
N2729 C2732 1.350 . S
N2730 S2728 1.610 . S
N2730 C2731 1.351 . S
C2731 C2725 1.428 . S
C2731 N2730 1.351 . S
C2731 C2732 1.434 . S
C2732 C2723 1.429 . S
C2732 N2729 1.350 . S
C2732 C2731 1.434 . S
C2733 C2734 1.369 . S
C2733 C2735 1.419 . S
C2733 H2737 0.930 . S
C2734 C2733 1.369 . S
C2734 C2743 1.429 . S
C2735 C2733 1.419 . S
C2735 C2736 1.363 . S
C2735 H2738 0.929 . S
C2736 C2735 1.363 . S
C2736 C2742 1.428 . S
H2737 C2733 0.930 . S
H2738 C2735 0.929 . S
S2739 N2740 1.613 . S
S2739 N2741 1.610 . S
N2740 S2739 1.613 . S
N2740 C2743 1.350 . S
N2741 S2739 1.610 . S
N2741 C2742 1.351 . S
C2742 C2736 1.428 . S
C2742 N2741 1.351 . S
C2742 C2743 1.434 . S
C2743 C2734 1.429 . S
C2743 N2740 1.350 . S
C2743 C2742 1.434 . S
C2744 C2745 1.369 . S
C2744 C2746 1.419 . S
C2744 H2748 0.930 . S
C2745 C2744 1.369 . S
C2745 C2754 1.429 . S
C2746 C2744 1.419 . S
C2746 C2747 1.363 . S
C2746 H2749 0.929 . S
C2747 C2746 1.363 . S
C2747 C2753 1.428 . S
H2748 C2744 0.930 . S
H2749 C2746 0.929 . S
S2750 N2751 1.613 . S
S2750 N2752 1.610 . S
N2751 S2750 1.613 . S
N2751 C2754 1.350 . S
N2752 S2750 1.610 . S
N2752 C2753 1.351 . S
C2753 C2747 1.428 . S
C2753 N2752 1.351 . S
C2753 C2754 1.434 . S
C2754 C2745 1.429 . S
C2754 N2751 1.350 . S
C2754 C2753 1.434 . S
C2755 C2756 1.369 . S
C2755 C2757 1.419 . S
C2755 H2759 0.930 . S
C2756 C2755 1.369 . S
C2756 C2765 1.429 . S
C2757 C2755 1.419 . S
C2757 C2758 1.363 . S
C2757 H2760 0.929 . S
C2758 C2757 1.363 . S
C2758 C2764 1.428 . S
H2759 C2755 0.930 . S
H2760 C2757 0.929 . S
S2761 N2762 1.613 . S
S2761 N2763 1.610 . S
N2762 S2761 1.613 . S
N2762 C2765 1.350 . S
N2763 S2761 1.610 . S
N2763 C2764 1.351 . S
C2764 C2758 1.428 . S
C2764 N2763 1.351 . S
C2764 C2765 1.434 . S
C2765 C2756 1.429 . S
C2765 N2762 1.350 . S
C2765 C2764 1.434 . S
C2766 C2767 1.369 . S
C2766 C2768 1.419 . S
C2766 H2770 0.930 . S
C2767 C2766 1.369 . S
C2767 C2776 1.429 . S
C2768 C2766 1.419 . S
C2768 C2769 1.363 . S
C2768 H2771 0.929 . S
C2769 C2768 1.363 . S
C2769 C2775 1.428 . S
H2770 C2766 0.930 . S
H2771 C2768 0.929 . S
S2772 N2773 1.613 . S
S2772 N2774 1.610 . S
N2773 S2772 1.613 . S
N2773 C2776 1.350 . S
N2774 S2772 1.610 . S
N2774 C2775 1.351 . S
C2775 C2769 1.428 . S
C2775 N2774 1.351 . S
C2775 C2776 1.434 . S
C2776 C2767 1.429 . S
C2776 N2773 1.350 . S
C2776 C2775 1.434 . S
C2777 C2778 1.369 . S
C2777 C2779 1.419 . S
C2777 H2781 0.930 . S
C2778 C2777 1.369 . S
C2778 C2787 1.429 . S
C2779 C2777 1.419 . S
C2779 C2780 1.363 . S
C2779 H2782 0.929 . S
C2780 C2779 1.363 . S
C2780 C2786 1.428 . S
H2781 C2777 0.930 . S
H2782 C2779 0.929 . S
S2783 N2784 1.613 . S
S2783 N2785 1.610 . S
N2784 S2783 1.613 . S
N2784 C2787 1.350 . S
N2785 S2783 1.610 . S
N2785 C2786 1.351 . S
C2786 C2780 1.428 . S
C2786 N2785 1.351 . S
C2786 C2787 1.434 . S
C2787 C2778 1.429 . S
C2787 N2784 1.350 . S
C2787 C2786 1.434 . S
C2788 C2789 1.369 . S
C2788 C2790 1.419 . S
C2788 H2792 0.930 . S
C2789 C2788 1.369 . S
C2789 C2798 1.429 . S
C2790 C2788 1.419 . S
C2790 C2791 1.363 . S
C2790 H2793 0.929 . S
C2791 C2790 1.363 . S
C2791 C2797 1.428 . S
H2792 C2788 0.930 . S
H2793 C2790 0.929 . S
S2794 N2795 1.613 . S
S2794 N2796 1.610 . S
N2795 S2794 1.613 . S
N2795 C2798 1.350 . S
N2796 S2794 1.610 . S
N2796 C2797 1.351 . S
C2797 C2791 1.428 . S
C2797 N2796 1.351 . S
C2797 C2798 1.434 . S
C2798 C2789 1.429 . S
C2798 N2795 1.350 . S
C2798 C2797 1.434 . S
C2799 C2800 1.369 . S
C2799 C2801 1.419 . S
C2799 H2803 0.930 . S
C2800 C2799 1.369 . S
C2800 C2809 1.429 . S
C2801 C2799 1.419 . S
C2801 C2802 1.363 . S
C2801 H2804 0.929 . S
C2802 C2801 1.363 . S
C2802 C2808 1.428 . S
H2803 C2799 0.930 . S
H2804 C2801 0.929 . S
S2805 N2806 1.613 . S
S2805 N2807 1.610 . S
N2806 S2805 1.613 . S
N2806 C2809 1.350 . S
N2807 S2805 1.610 . S
N2807 C2808 1.351 . S
C2808 C2802 1.428 . S
C2808 N2807 1.351 . S
C2808 C2809 1.434 . S
C2809 C2800 1.429 . S
C2809 N2806 1.350 . S
C2809 C2808 1.434 . S
C2810 C2811 1.369 . S
C2810 C2812 1.419 . S
C2810 H2814 0.930 . S
C2811 C2810 1.369 . S
C2811 C2820 1.429 . S
C2812 C2810 1.419 . S
C2812 C2813 1.363 . S
C2812 H2815 0.929 . S
C2813 C2812 1.363 . S
C2813 C2819 1.428 . S
H2814 C2810 0.930 . S
H2815 C2812 0.929 . S
S2816 N2817 1.613 . S
S2816 N2818 1.610 . S
N2817 S2816 1.613 . S
N2817 C2820 1.350 . S
N2818 S2816 1.610 . S
N2818 C2819 1.351 . S
C2819 C2813 1.428 . S
C2819 N2818 1.351 . S
C2819 C2820 1.434 . S
C2820 C2811 1.429 . S
C2820 N2817 1.350 . S
C2820 C2819 1.434 . S
C2821 C2822 1.369 . S
C2821 C2823 1.419 . S
C2821 H2825 0.930 . S
C2822 C2821 1.369 . S
C2822 C2831 1.429 . S
C2823 C2821 1.419 . S
C2823 C2824 1.363 . S
C2823 H2826 0.929 . S
C2824 C2823 1.363 . S
C2824 C2830 1.428 . S
H2825 C2821 0.930 . S
H2826 C2823 0.929 . S
S2827 N2828 1.613 . S
S2827 N2829 1.610 . S
N2828 S2827 1.613 . S
N2828 C2831 1.350 . S
N2829 S2827 1.610 . S
N2829 C2830 1.351 . S
C2830 C2824 1.428 . S
C2830 N2829 1.351 . S
C2830 C2831 1.434 . S
C2831 C2822 1.429 . S
C2831 N2828 1.350 . S
C2831 C2830 1.434 . S
C2832 C2833 1.369 . S
C2832 C2834 1.419 1_655 S
C2832 H2836 0.930 . S
C2833 C2832 1.369 . S
C2833 C2842 1.429 . S
C2834 C2832 1.419 1_455 S
C2834 C2835 1.363 . S
C2834 H2837 0.929 . S
C2835 C2834 1.363 . S
C2835 C2841 1.428 . S
H2836 C2832 0.930 . S
H2837 C2834 0.929 . S
S2838 N2839 1.571 1_455 S
S2838 N2840 1.652 . S
N2839 S2838 1.571 1_655 S
N2839 C2842 1.350 . S
N2840 S2838 1.652 . S
N2840 C2841 1.351 . S
C2841 C2835 1.428 . S
C2841 N2840 1.351 . S
C2841 C2842 1.434 1_455 S
C2842 C2833 1.429 . S
C2842 N2839 1.350 . S
C2842 C2841 1.434 1_655 S
C2843 C2844 1.369 . S
C2843 C2845 1.419 . S
C2843 H2847 0.930 . S
C2844 C2843 1.369 . S
C2844 C2853 1.429 . S
C2845 C2843 1.419 . S
C2845 C2846 1.363 . S
C2845 H2848 0.929 . S
C2846 C2845 1.363 . S
C2846 C2852 1.428 . S
H2847 C2843 0.930 . S
H2848 C2845 0.929 . S
S2849 N2850 1.613 . S
S2849 N2851 1.610 . S
N2850 S2849 1.613 . S
N2850 C2853 1.350 . S
N2851 S2849 1.610 . S
N2851 C2852 1.351 . S
C2852 C2846 1.428 . S
C2852 N2851 1.351 . S
C2852 C2853 1.434 . S
C2853 C2844 1.429 . S
C2853 N2850 1.350 . S
C2853 C2852 1.434 . S
C2854 C2855 1.369 . S
C2854 C2856 1.419 1_655 S
C2854 H2858 0.930 . S
C2855 C2854 1.369 . S
C2855 C2864 1.429 1_545 S
C2856 C2854 1.419 1_455 S
C2856 C2857 1.363 1_545 S
C2856 H2859 0.929 . S
C2857 C2856 1.363 1_565 S
C2857 C2863 1.428 . S
H2858 C2854 0.930 . S
H2859 C2856 0.929 . S
S2860 N2861 1.613 . S
S2860 N2862 1.610 1_655 S
N2861 S2860 1.613 . S
N2861 C2864 1.350 . S
N2862 S2860 1.610 1_455 S
N2862 C2863 1.351 . S
C2863 C2857 1.428 . S
C2863 N2862 1.351 . S
C2863 C2864 1.434 1_455 S
C2864 C2855 1.429 1_565 S
C2864 N2861 1.350 . S
C2864 C2863 1.434 1_655 S
C2865 C2866 1.369 . S
C2865 C2867 1.419 . S
C2865 H2869 0.930 . S
C2866 C2865 1.369 . S
C2866 C2875 1.429 . S
C2867 C2865 1.419 . S
C2867 C2868 1.363 . S
C2867 H2870 0.929 . S
C2868 C2867 1.363 . S
C2868 C2874 1.428 . S
H2869 C2865 0.930 . S
H2870 C2867 0.929 . S
S2871 N2872 1.613 . S
S2871 N2873 1.610 . S
N2872 S2871 1.613 . S
N2872 C2875 1.350 . S
N2873 S2871 1.610 . S
N2873 C2874 1.351 . S
C2874 C2868 1.428 . S
C2874 N2873 1.351 . S
C2874 C2875 1.434 . S
C2875 C2866 1.429 . S
C2875 N2872 1.350 . S
C2875 C2874 1.434 . S
C2876 C2877 1.369 . S
C2876 C2878 1.419 1_455 S
C2876 H2880 0.930 . S
C2877 C2876 1.369 . S
C2877 C2886 1.429 . S
C2878 C2876 1.419 1_655 S
C2878 C2879 1.363 . S
C2878 H2881 0.929 . S
C2879 C2878 1.363 . S
C2879 C2885 1.428 . S
H2880 C2876 0.930 . S
H2881 C2878 0.929 . S
S2882 N2883 1.613 . S
S2882 N2884 1.610 1_455 S
N2883 S2882 1.613 . S
N2883 C2886 1.350 . S
N2884 S2882 1.610 1_655 S
N2884 C2885 1.351 . S
C2885 C2879 1.428 . S
C2885 N2884 1.351 . S
C2885 C2886 1.434 1_655 S
C2886 C2877 1.429 . S
C2886 N2883 1.350 . S
C2886 C2885 1.434 1_455 S
C2887 C2888 1.369 . S
C2887 C2889 1.419 . S
C2887 H2891 0.930 . S
C2888 C2887 1.369 . S
C2888 C2897 1.429 . S
C2889 C2887 1.419 . S
C2889 C2890 1.363 . S
C2889 H2892 0.929 . S
C2890 C2889 1.363 . S
C2890 C2896 1.428 . S
H2891 C2887 0.930 . S
H2892 C2889 0.929 . S
S2893 N2894 1.613 . S
S2893 N2895 1.610 . S
N2894 S2893 1.613 . S
N2894 C2897 1.350 . S
N2895 S2893 1.610 . S
N2895 C2896 1.351 . S
C2896 C2890 1.428 . S
C2896 N2895 1.351 . S
C2896 C2897 1.434 . S
C2897 C2888 1.429 . S
C2897 N2894 1.350 . S
C2897 C2896 1.434 . S
C2898 C2899 1.369 1_545 S
C2898 C2900 1.419 1_655 S
C2898 H2902 0.930 . S
C2899 C2898 1.369 1_565 S
C2899 C2908 1.429 . S
C2900 C2898 1.419 1_455 S
C2900 C2901 1.363 . S
C2900 H2903 0.929 . S
C2901 C2900 1.363 . S
C2901 C2907 1.428 1_545 S
H2902 C2898 0.930 . S
H2903 C2900 0.929 . S
S2904 N2905 1.613 1_455 S
S2904 N2906 1.610 . S
N2905 S2904 1.613 1_655 S
N2905 C2908 1.350 . S
N2906 S2904 1.610 . S
N2906 C2907 1.351 . S
C2907 C2901 1.428 1_565 S
C2907 N2906 1.351 . S
C2907 C2908 1.434 1_455 S
C2908 C2899 1.429 . S
C2908 N2905 1.350 . S
C2908 C2907 1.434 1_655 S
C2909 C2910 1.369 . S
C2909 C2911 1.419 . S
C2909 H2913 0.930 . S
C2910 C2909 1.369 . S
C2910 C2919 1.429 . S
C2911 C2909 1.419 . S
C2911 C2912 1.363 . S
C2911 H2914 0.929 . S
C2912 C2911 1.363 . S
C2912 C2918 1.428 . S
H2913 C2909 0.930 . S
H2914 C2911 0.929 . S
S2915 N2916 1.613 . S
S2915 N2917 1.610 . S
N2916 S2915 1.613 . S
N2916 C2919 1.350 . S
N2917 S2915 1.610 . S
N2917 C2918 1.351 . S
C2918 C2912 1.428 . S
C2918 N2917 1.351 . S
C2918 C2919 1.434 . S
C2919 C2910 1.429 . S
C2919 N2916 1.350 . S
C2919 C2918 1.434 . S
C2920 C2921 1.369 . S
C2920 C2922 1.419 1_545 S
C2920 H2924 0.930 . S
C2921 C2920 1.369 . S
C2921 C2930 1.429 . S
C2922 C2920 1.419 1_565 S
C2922 C2923 1.363 . S
C2922 H2925 0.929 . S
C2923 C2922 1.363 . S
C2923 C2929 1.428 . S
H2924 C2920 0.930 . S
H2925 C2922 0.929 . S
S2926 N2927 1.613 1_565 S
S2926 N2928 1.610 . S
N2927 S2926 1.613 1_545 S
N2927 C2930 1.350 . S
N2928 S2926 1.610 . S
N2928 C2929 1.351 . S
C2929 C2923 1.428 . S
C2929 N2928 1.351 . S
C2929 C2930 1.434 1_565 S
C2930 C2921 1.429 . S
C2930 N2927 1.350 . S
C2930 C2929 1.434 1_545 S
C2931 C2932 1.369 . S
C2931 C2933 1.419 . S
C2931 H2935 0.930 . S
C2932 C2931 1.369 . S
C2932 C2941 1.429 . S
C2933 C2931 1.419 . S
C2933 C2934 1.363 . S
C2933 H2936 0.929 . S
C2934 C2933 1.363 . S
C2934 C2940 1.428 . S
H2935 C2931 0.930 . S
H2936 C2933 0.929 . S
S2937 N2938 1.613 . S
S2937 N2939 1.610 . S
N2938 S2937 1.613 . S
N2938 C2941 1.350 . S
N2939 S2937 1.610 . S
N2939 C2940 1.351 . S
C2940 C2934 1.428 . S
C2940 N2939 1.351 . S
C2940 C2941 1.434 . S
C2941 C2932 1.429 . S
C2941 N2938 1.350 . S
C2941 C2940 1.434 . S
C2942 C2943 1.369 . S
C2942 C2944 1.419 . S
C2942 H2946 0.930 . S
C2943 C2942 1.369 . S
C2943 C2952 1.429 1_556 S
C2944 C2942 1.419 . S
C2944 C2945 1.363 1_556 S
C2944 H2947 0.929 . S
C2945 C2944 1.363 1_554 S
C2945 C2951 1.428 . S
H2946 C2942 0.930 . S
H2947 C2944 0.929 . S
S2948 N2949 1.613 . S
S2948 N2950 1.610 . S
N2949 S2948 1.613 . S
N2949 C2952 1.350 . S
N2950 S2948 1.610 . S
N2950 C2951 1.351 . S
C2951 C2945 1.428 . S
C2951 N2950 1.351 . S
C2951 C2952 1.434 . S
C2952 C2943 1.429 1_554 S
C2952 N2949 1.350 . S
C2952 C2951 1.434 . S
C2953 C2954 1.369 . S
C2953 C2955 1.419 . S
C2953 H2957 0.930 . S
C2954 C2953 1.369 . S
C2954 C2963 1.429 . S
C2955 C2953 1.419 . S
C2955 C2956 1.363 . S
C2955 H2958 0.929 . S
C2956 C2955 1.363 . S
C2956 C2962 1.428 . S
H2957 C2953 0.930 . S
H2958 C2955 0.929 . S
S2959 N2960 1.613 . S
S2959 N2961 1.610 . S
N2960 S2959 1.613 . S
N2960 C2963 1.350 . S
N2961 S2959 1.610 . S
N2961 C2962 1.351 . S
C2962 C2956 1.428 . S
C2962 N2961 1.351 . S
C2962 C2963 1.434 . S
C2963 C2954 1.429 . S
C2963 N2960 1.350 . S
C2963 C2962 1.434 . S
C2964 C2965 1.369 . S
C2964 C2966 1.419 1_554 S
C2964 H2968 0.930 . S
C2965 C2964 1.369 . S
C2965 C2974 1.429 . S
C2966 C2964 1.419 1_556 S
C2966 C2967 1.363 . S
C2966 H2969 0.929 . S
C2967 C2966 1.363 . S
C2967 C2973 1.428 . S
H2968 C2964 0.930 . S
H2969 C2966 0.929 . S
S2970 N2971 1.613 . S
S2970 N2972 1.610 1_554 S
N2971 S2970 1.613 . S
N2971 C2974 1.350 . S
N2972 S2970 1.610 1_556 S
N2972 C2973 1.351 . S
C2973 C2967 1.428 . S
C2973 N2972 1.351 . S
C2973 C2974 1.434 1_556 S
C2974 C2965 1.429 . S
C2974 N2971 1.350 . S
C2974 C2973 1.434 1_554 S
C2975 C2976 1.369 1_655 S
C2975 C2977 1.419 . S
C2975 H2979 0.930 . S
C2976 C2975 1.369 1_455 S
C2976 C2985 1.429 . S
C2977 C2975 1.419 . S
C2977 C2978 1.363 . S
C2977 H2980 0.929 . S
C2978 C2977 1.363 . S
C2978 C2984 1.428 1_655 S
H2979 C2975 0.930 . S
H2980 C2977 0.929 . S
S2981 N2982 1.613 . S
S2981 N2983 1.610 . S
N2982 S2981 1.613 . S
N2982 C2985 1.350 . S
N2983 S2981 1.610 . S
N2983 C2984 1.351 . S
C2984 C2978 1.428 1_455 S
C2984 N2983 1.351 . S
C2984 C2985 1.434 . S
C2985 C2976 1.429 . S
C2985 N2982 1.350 . S
C2985 C2984 1.434 . S
C2986 C2987 1.369 . S
C2986 C2988 1.419 . S
C2986 H2990 0.930 . S
C2987 C2986 1.369 . S
C2987 C2996 1.429 . S
C2988 C2986 1.419 . S
C2988 C2989 1.363 . S
C2988 H2991 0.929 . S
C2989 C2988 1.363 . S
C2989 C2995 1.428 . S
H2990 C2986 0.930 . S
H2991 C2988 0.929 . S
S2992 N2993 1.613 . S
S2992 N2994 1.610 . S
N2993 S2992 1.613 . S
N2993 C2996 1.350 . S
N2994 S2992 1.610 . S
N2994 C2995 1.351 . S
C2995 C2989 1.428 . S
C2995 N2994 1.351 . S
C2995 C2996 1.434 . S
C2996 C2987 1.429 . S
C2996 N2993 1.350 . S
C2996 C2995 1.434 . S
C2997 C2998 1.369 1_455 S
C2997 C2999 1.419 1_554 S
C2997 H3001 0.930 . S
C2998 C2997 1.369 1_655 S
C2998 C3007 1.429 . S
C2999 C2997 1.419 1_556 S
C2999 C3000 1.363 . S
C2999 H3002 0.929 . S
C3000 C2999 1.363 . S
C3000 C3006 1.428 1_455 S
H3001 C2997 0.930 . S
H3002 C2999 0.929 . S
S3003 N3004 1.613 1_556 S
S3003 N3005 1.610 . S
N3004 S3003 1.613 1_554 S
N3004 C3007 1.350 . S
N3005 S3003 1.610 . S
N3005 C3006 1.351 . S
C3006 C3000 1.428 1_655 S
C3006 N3005 1.351 . S
C3006 C3007 1.434 1_556 S
C3007 C2998 1.429 . S
C3007 N3004 1.350 . S
C3007 C3006 1.434 1_554 S
C3008 C3009 1.369 . S
C3008 C3010 1.419 . S
C3008 H3012 0.930 . S
C3009 C3008 1.369 . S
C3009 C3018 1.429 . S
C3010 C3008 1.419 . S
C3010 C3011 1.363 . S
C3010 H3013 0.929 . S
C3011 C3010 1.363 . S
C3011 C3017 1.428 . S
H3012 C3008 0.930 . S
H3013 C3010 0.929 . S
S3014 N3015 1.613 . S
S3014 N3016 1.610 . S
N3015 S3014 1.613 . S
N3015 C3018 1.350 . S
N3016 S3014 1.610 . S
N3016 C3017 1.351 . S
C3017 C3011 1.428 . S
C3017 N3016 1.351 . S
C3017 C3018 1.434 . S
C3018 C3009 1.429 . S
C3018 N3015 1.350 . S
C3018 C3017 1.434 . S
C3019 C3020 1.369 . S
C3019 C3021 1.419 1_554 S
C3019 H3023 0.930 . S
C3020 C3019 1.369 . S
C3020 C3029 1.429 . S
C3021 C3019 1.419 1_556 S
C3021 C3022 1.363 . S
C3021 H3024 0.929 . S
C3022 C3021 1.363 . S
C3022 C3028 1.428 . S
H3023 C3019 0.930 . S
H3024 C3021 0.929 . S
S3025 N3026 1.613 . S
S3025 N3027 1.610 1_554 S
N3026 S3025 1.613 . S
N3026 C3029 1.350 . S
N3027 S3025 1.610 1_556 S
N3027 C3028 1.351 . S
C3028 C3022 1.428 . S
C3028 N3027 1.351 . S
C3028 C3029 1.434 1_556 S
C3029 C3020 1.429 . S
C3029 N3026 1.350 . S
C3029 C3028 1.434 1_554 S
C3030 C3031 1.369 . S
C3030 C3032 1.419 . S
C3030 H3034 0.930 . S
C3031 C3030 1.369 . S
C3031 C3040 1.429 . S
C3032 C3030 1.419 . S
C3032 C3033 1.363 . S
C3032 H3035 0.929 . S
C3033 C3032 1.363 . S
C3033 C3039 1.428 . S
H3034 C3030 0.930 . S
H3035 C3032 0.929 . S
S3036 N3037 1.613 . S
S3036 N3038 1.610 . S
N3037 S3036 1.613 . S
N3037 C3040 1.350 . S
N3038 S3036 1.610 . S
N3038 C3039 1.351 . S
C3039 C3033 1.428 . S
C3039 N3038 1.351 . S
C3039 C3040 1.434 . S
C3040 C3031 1.429 . S
C3040 N3037 1.350 . S
C3040 C3039 1.434 . S
C3041 C3042 1.369 . S
C3041 C3043 1.419 . S
C3041 H3045 0.930 . S
C3042 C3041 1.369 . S
C3042 C3051 1.429 . S
C3043 C3041 1.419 . S
C3043 C3044 1.363 . S
C3043 H3046 0.929 . S
C3044 C3043 1.363 . S
C3044 C3050 1.428 . S
H3045 C3041 0.930 . S
H3046 C3043 0.929 . S
S3047 N3048 1.613 . S
S3047 N3049 1.610 . S
N3048 S3047 1.613 . S
N3048 C3051 1.350 . S
N3049 S3047 1.610 . S
N3049 C3050 1.351 . S
C3050 C3044 1.428 . S
C3050 N3049 1.351 . S
C3050 C3051 1.434 . S
C3051 C3042 1.429 . S
C3051 N3048 1.350 . S
C3051 C3050 1.434 . S
C3052 C3053 1.369 . S
C3052 C3054 1.419 . S
C3052 H3056 0.930 . S
C3053 C3052 1.369 . S
C3053 C3062 1.429 . S
C3054 C3052 1.419 . S
C3054 C3055 1.363 . S
C3054 H3057 0.929 . S
C3055 C3054 1.363 . S
C3055 C3061 1.428 . S
H3056 C3052 0.930 . S
H3057 C3054 0.929 . S
S3058 N3059 1.613 . S
S3058 N3060 1.610 . S
N3059 S3058 1.613 . S
N3059 C3062 1.350 . S
N3060 S3058 1.610 . S
N3060 C3061 1.351 . S
C3061 C3055 1.428 . S
C3061 N3060 1.351 . S
C3061 C3062 1.434 . S
C3062 C3053 1.429 . S
C3062 N3059 1.350 . S
C3062 C3061 1.434 . S
C3063 C3064 1.369 . S
C3063 C3065 1.419 . S
C3063 H3067 0.930 . S
C3064 C3063 1.369 . S
C3064 C3073 1.429 . S
C3065 C3063 1.419 . S
C3065 C3066 1.363 . S
C3065 H3068 0.929 . S
C3066 C3065 1.363 . S
C3066 C3072 1.428 . S
H3067 C3063 0.930 . S
H3068 C3065 0.929 . S
S3069 N3070 1.613 . S
S3069 N3071 1.610 . S
N3070 S3069 1.613 . S
N3070 C3073 1.350 . S
N3071 S3069 1.610 . S
N3071 C3072 1.351 . S
C3072 C3066 1.428 . S
C3072 N3071 1.351 . S
C3072 C3073 1.434 . S
C3073 C3064 1.429 . S
C3073 N3070 1.350 . S
C3073 C3072 1.434 . S
C3074 C3075 1.369 . S
C3074 C3076 1.419 . S
C3074 H3078 0.930 . S
C3075 C3074 1.369 . S
C3075 C3084 1.429 . S
C3076 C3074 1.419 . S
C3076 C3077 1.363 . S
C3076 H3079 0.929 . S
C3077 C3076 1.363 . S
C3077 C3083 1.428 . S
H3078 C3074 0.930 . S
H3079 C3076 0.929 . S
S3080 N3081 1.613 . S
S3080 N3082 1.610 . S
N3081 S3080 1.613 . S
N3081 C3084 1.350 . S
N3082 S3080 1.610 . S
N3082 C3083 1.351 . S
C3083 C3077 1.428 . S
C3083 N3082 1.351 . S
C3083 C3084 1.434 . S
C3084 C3075 1.429 . S
C3084 N3081 1.350 . S
C3084 C3083 1.434 . S
C3085 C3086 1.369 . S
C3085 C3087 1.419 . S
C3085 H3089 0.930 . S
C3086 C3085 1.369 . S
C3086 C3095 1.429 1_554 S
C3087 C3085 1.419 . S
C3087 C3088 1.363 1_554 S
C3087 H3090 0.929 . S
C3088 C3087 1.363 1_556 S
C3088 C3094 1.428 . S
H3089 C3085 0.930 . S
H3090 C3087 0.929 . S
S3091 N3092 1.613 . S
S3091 N3093 1.610 . S
N3092 S3091 1.613 . S
N3092 C3095 1.350 . S
N3093 S3091 1.610 . S
N3093 C3094 1.351 . S
C3094 C3088 1.428 . S
C3094 N3093 1.351 . S
C3094 C3095 1.434 . S
C3095 C3086 1.429 1_556 S
C3095 N3092 1.350 . S
C3095 C3094 1.434 . S
C3096 C3097 1.369 . S
C3096 C3098 1.419 . S
C3096 H3100 0.930 . S
C3097 C3096 1.369 . S
C3097 C3106 1.429 . S
C3098 C3096 1.419 . S
C3098 C3099 1.363 . S
C3098 H3101 0.929 . S
C3099 C3098 1.363 . S
C3099 C3105 1.428 . S
H3100 C3096 0.930 . S
H3101 C3098 0.929 . S
S3102 N3103 1.613 . S
S3102 N3104 1.610 . S
N3103 S3102 1.613 . S
N3103 C3106 1.350 . S
N3104 S3102 1.610 . S
N3104 C3105 1.351 . S
C3105 C3099 1.428 . S
C3105 N3104 1.351 . S
C3105 C3106 1.434 . S
C3106 C3097 1.429 . S
C3106 N3103 1.350 . S
C3106 C3105 1.434 . S
C3107 C3108 1.369 . S
C3107 C3109 1.419 1_545 S
C3107 H3111 0.930 . S
C3108 C3107 1.369 . S
C3108 C3117 1.429 . S
C3109 C3107 1.419 1_565 S
C3109 C3110 1.363 . S
C3109 H3112 0.929 . S
C3110 C3109 1.363 . S
C3110 C3116 1.428 . S
H3111 C3107 0.930 . S
H3112 C3109 0.929 . S
S3113 N3114 1.613 1_565 S
S3113 N3115 1.610 . S
N3114 S3113 1.613 1_545 S
N3114 C3117 1.350 . S
N3115 S3113 1.610 . S
N3115 C3116 1.351 . S
C3116 C3110 1.428 . S
C3116 N3115 1.351 . S
C3116 C3117 1.434 1_565 S
C3117 C3108 1.429 . S
C3117 N3114 1.350 . S
C3117 C3116 1.434 1_545 S
C3118 C3119 1.369 . S
C3118 C3120 1.419 . S
C3118 H3122 0.930 . S
C3119 C3118 1.369 . S
C3119 C3128 1.429 . S
C3120 C3118 1.419 . S
C3120 C3121 1.363 . S
C3120 H3123 0.929 . S
C3121 C3120 1.363 . S
C3121 C3127 1.428 . S
H3122 C3118 0.930 . S
H3123 C3120 0.929 . S
S3124 N3125 1.613 . S
S3124 N3126 1.610 . S
N3125 S3124 1.613 . S
N3125 C3128 1.350 . S
N3126 S3124 1.610 . S
N3126 C3127 1.351 . S
C3127 C3121 1.428 . S
C3127 N3126 1.351 . S
C3127 C3128 1.434 . S
C3128 C3119 1.429 . S
C3128 N3125 1.350 . S
C3128 C3127 1.434 . S
C3129 C3130 1.369 . S
C3129 C3131 1.419 . S
C3129 H3133 0.930 . S
C3130 C3129 1.369 . S
C3130 C3139 1.429 . S
C3131 C3129 1.419 . S
C3131 C3132 1.363 . S
C3131 H3134 0.929 . S
C3132 C3131 1.363 . S
C3132 C3138 1.428 . S
H3133 C3129 0.930 . S
H3134 C3131 0.929 . S
S3135 N3136 1.613 . S
S3135 N3137 1.610 . S
N3136 S3135 1.613 . S
N3136 C3139 1.350 . S
N3137 S3135 1.610 . S
N3137 C3138 1.351 . S
C3138 C3132 1.428 . S
C3138 N3137 1.351 . S
C3138 C3139 1.434 . S
C3139 C3130 1.429 . S
C3139 N3136 1.350 . S
C3139 C3138 1.434 . S
C3140 C3141 1.369 1_655 S
C3140 C3142 1.419 1_554 S
C3140 H3144 0.930 . S
C3141 C3140 1.369 1_455 S
C3141 C3150 1.429 . S
C3142 C3140 1.419 1_556 S
C3142 C3143 1.363 . S
C3142 H3145 0.929 . S
C3143 C3142 1.363 . S
C3143 C3149 1.428 1_655 S
H3144 C3140 0.930 . S
H3145 C3142 0.929 . S
S3146 N3147 1.613 1_556 S
S3146 N3148 1.610 . S
N3147 S3146 1.613 1_554 S
N3147 C3150 1.350 . S
N3148 S3146 1.610 . S
N3148 C3149 1.351 . S
C3149 C3143 1.428 1_455 S
C3149 N3148 1.351 . S
C3149 C3150 1.434 1_556 S
C3150 C3141 1.429 . S
C3150 N3147 1.350 . S
C3150 C3149 1.434 1_554 S
C3151 C3152 1.369 . S
C3151 C3153 1.419 . S
C3151 H3155 0.930 . S
C3152 C3151 1.369 . S
C3152 C3161 1.429 . S
C3153 C3151 1.419 . S
C3153 C3154 1.363 . S
C3153 H3156 0.929 . S
C3154 C3153 1.363 . S
C3154 C3160 1.428 . S
H3155 C3151 0.930 . S
H3156 C3153 0.929 . S
S3157 N3158 1.613 . S
S3157 N3159 1.610 . S
N3158 S3157 1.613 . S
N3158 C3161 1.350 . S
N3159 S3157 1.610 . S
N3159 C3160 1.351 . S
C3160 C3154 1.428 . S
C3160 N3159 1.351 . S
C3160 C3161 1.434 . S
C3161 C3152 1.429 . S
C3161 N3158 1.350 . S
C3161 C3160 1.434 . S
C3162 C3163 1.369 1_655 S
C3162 C3164 1.419 . S
C3162 H3166 0.930 . S
C3163 C3162 1.369 1_455 S
C3163 C3172 1.429 . S
C3164 C3162 1.419 . S
C3164 C3165 1.363 . S
C3164 H3167 0.929 . S
C3165 C3164 1.363 . S
C3165 C3171 1.428 1_655 S
H3166 C3162 0.930 . S
H3167 C3164 0.929 . S
S3168 N3169 1.613 . S
S3168 N3170 1.610 . S
N3169 S3168 1.613 . S
N3169 C3172 1.350 . S
N3170 S3168 1.610 . S
N3170 C3171 1.351 . S
C3171 C3165 1.428 1_455 S
C3171 N3170 1.351 . S
C3171 C3172 1.434 . S
C3172 C3163 1.429 . S
C3172 N3169 1.350 . S
C3172 C3171 1.434 . S
C3173 C3174 1.369 . S
C3173 C3175 1.419 . S
C3173 H3177 0.930 . S
C3174 C3173 1.369 . S
C3174 C3183 1.429 . S
C3175 C3173 1.419 . S
C3175 C3176 1.363 . S
C3175 H3178 0.929 . S
C3176 C3175 1.363 . S
C3176 C3182 1.428 . S
H3177 C3173 0.930 . S
H3178 C3175 0.929 . S
S3179 N3180 1.613 . S
S3179 N3181 1.610 . S
N3180 S3179 1.613 . S
N3180 C3183 1.350 . S
N3181 S3179 1.610 . S
N3181 C3182 1.351 . S
C3182 C3176 1.428 . S
C3182 N3181 1.351 . S
C3182 C3183 1.434 . S
C3183 C3174 1.429 . S
C3183 N3180 1.350 . S
C3183 C3182 1.434 . S
C3184 C3185 1.369 . S
C3184 C3186 1.419 . S
C3184 H3188 0.930 . S
C3185 C3184 1.369 . S
C3185 C3194 1.429 . S
C3186 C3184 1.419 . S
C3186 C3187 1.363 . S
C3186 H3189 0.929 . S
C3187 C3186 1.363 . S
C3187 C3193 1.428 . S
H3188 C3184 0.930 . S
H3189 C3186 0.929 . S
S3190 N3191 1.613 . S
S3190 N3192 1.610 . S
N3191 S3190 1.613 . S
N3191 C3194 1.350 . S
N3192 S3190 1.610 . S
N3192 C3193 1.351 . S
C3193 C3187 1.428 . S
C3193 N3192 1.351 . S
C3193 C3194 1.434 . S
C3194 C3185 1.429 . S
C3194 N3191 1.350 . S
C3194 C3193 1.434 . S
C3195 C3196 1.369 . S
C3195 C3197 1.419 . S
C3195 H3199 0.930 . S
C3196 C3195 1.369 . S
C3196 C3205 1.429 . S
C3197 C3195 1.419 . S
C3197 C3198 1.363 . S
C3197 H3200 0.929 . S
C3198 C3197 1.363 . S
C3198 C3204 1.428 . S
H3199 C3195 0.930 . S
H3200 C3197 0.929 . S
S3201 N3202 1.613 . S
S3201 N3203 1.610 . S
N3202 S3201 1.613 . S
N3202 C3205 1.350 . S
N3203 S3201 1.610 . S
N3203 C3204 1.351 . S
C3204 C3198 1.428 . S
C3204 N3203 1.351 . S
C3204 C3205 1.434 . S
C3205 C3196 1.429 . S
C3205 N3202 1.350 . S
C3205 C3204 1.434 . S
C3206 C3207 1.369 . S
C3206 C3208 1.419 . S
C3206 H3210 0.930 . S
C3207 C3206 1.369 . S
C3207 C3216 1.429 . S
C3208 C3206 1.419 . S
C3208 C3209 1.363 . S
C3208 H3211 0.929 . S
C3209 C3208 1.363 . S
C3209 C3215 1.428 . S
H3210 C3206 0.930 . S
H3211 C3208 0.929 . S
S3212 N3213 1.613 . S
S3212 N3214 1.610 . S
N3213 S3212 1.613 . S
N3213 C3216 1.350 . S
N3214 S3212 1.610 . S
N3214 C3215 1.351 . S
C3215 C3209 1.428 . S
C3215 N3214 1.351 . S
C3215 C3216 1.434 . S
C3216 C3207 1.429 . S
C3216 N3213 1.350 . S
C3216 C3215 1.434 . S
C3217 C3218 1.369 1_565 S
C3217 C3219 1.419 . S
C3217 H3221 0.930 . S
C3218 C3217 1.369 1_545 S
C3218 C3227 1.429 . S
C3219 C3217 1.419 . S
C3219 C3220 1.363 . S
C3219 H3222 0.929 . S
C3220 C3219 1.363 . S
C3220 C3226 1.428 1_565 S
H3221 C3217 0.930 . S
H3222 C3219 0.929 . S
S3223 N3224 1.613 . S
S3223 N3225 1.610 . S
N3224 S3223 1.613 . S
N3224 C3227 1.350 . S
N3225 S3223 1.610 . S
N3225 C3226 1.351 . S
C3226 C3220 1.428 1_545 S
C3226 N3225 1.351 . S
C3226 C3227 1.434 . S
C3227 C3218 1.429 . S
C3227 N3224 1.350 . S
C3227 C3226 1.434 . S
C3228 C3229 1.369 . S
C3228 C3230 1.419 . S
C3228 H3232 0.930 . S
C3229 C3228 1.369 . S
C3229 C3238 1.429 . S
C3230 C3228 1.419 . S
C3230 C3231 1.363 . S
C3230 H3233 0.929 . S
C3231 C3230 1.363 . S
C3231 C3237 1.428 . S
H3232 C3228 0.930 . S
H3233 C3230 0.929 . S
S3234 N3235 1.613 . S
S3234 N3236 1.610 . S
N3235 S3234 1.613 . S
N3235 C3238 1.350 . S
N3236 S3234 1.610 . S
N3236 C3237 1.351 . S
C3237 C3231 1.428 . S
C3237 N3236 1.351 . S
C3237 C3238 1.434 . S
C3238 C3229 1.429 . S
C3238 N3235 1.350 . S
C3238 C3237 1.434 . S
C3239 C3240 1.369 1_565 S
C3239 C3241 1.419 . S
C3239 H3243 0.930 . S
C3240 C3239 1.369 1_545 S
C3240 C3249 1.429 . S
C3241 C3239 1.419 . S
C3241 C3242 1.363 . S
C3241 H3244 0.929 . S
C3242 C3241 1.363 . S
C3242 C3248 1.428 1_565 S
H3243 C3239 0.930 . S
H3244 C3241 0.929 . S
S3245 N3246 1.613 . S
S3245 N3247 1.610 . S
N3246 S3245 1.613 . S
N3246 C3249 1.350 . S
N3247 S3245 1.610 . S
N3247 C3248 1.351 . S
C3248 C3242 1.428 1_545 S
C3248 N3247 1.351 . S
C3248 C3249 1.434 . S
C3249 C3240 1.429 . S
C3249 N3246 1.350 . S
C3249 C3248 1.434 . S
C3250 C3251 1.369 . S
C3250 C3252 1.419 1_565 S
C3250 H3254 0.930 . S
C3251 C3250 1.369 . S
C3251 C3260 1.429 1_554 S
C3252 C3250 1.419 1_545 S
C3252 C3253 1.363 1_554 S
C3252 H3255 0.929 . S
C3253 C3252 1.363 1_556 S
C3253 C3259 1.428 . S
H3254 C3250 0.930 . S
H3255 C3252 0.929 . S
S3256 N3257 1.613 . S
S3256 N3258 1.610 1_565 S
N3257 S3256 1.613 . S
N3257 C3260 1.350 . S
N3258 S3256 1.610 1_545 S
N3258 C3259 1.351 . S
C3259 C3253 1.428 . S
C3259 N3258 1.351 . S
C3259 C3260 1.434 1_545 S
C3260 C3251 1.429 1_556 S
C3260 N3257 1.350 . S
C3260 C3259 1.434 1_565 S
C3261 C3262 1.369 . S
C3261 C3263 1.419 . S
C3261 H3265 0.930 . S
C3262 C3261 1.369 . S
C3262 C3271 1.429 . S
C3263 C3261 1.419 . S
C3263 C3264 1.363 . S
C3263 H3266 0.929 . S
C3264 C3263 1.363 . S
C3264 C3270 1.428 . S
H3265 C3261 0.930 . S
H3266 C3263 0.929 . S
S3267 N3268 1.613 . S
S3267 N3269 1.610 . S
N3268 S3267 1.613 . S
N3268 C3271 1.350 . S
N3269 S3267 1.610 . S
N3269 C3270 1.351 . S
C3270 C3264 1.428 . S
C3270 N3269 1.351 . S
C3270 C3271 1.434 . S
C3271 C3262 1.429 . S
C3271 N3268 1.350 . S
C3271 C3270 1.434 . S
C3272 C3273 1.369 . S
C3272 C3274 1.419 . S
C3272 H3276 0.930 . S
C3273 C3272 1.369 . S
C3273 C3282 1.429 . S
C3274 C3272 1.419 . S
C3274 C3275 1.363 . S
C3274 H3277 0.929 . S
C3275 C3274 1.363 . S
C3275 C3281 1.428 . S
H3276 C3272 0.930 . S
H3277 C3274 0.929 . S
S3278 N3279 1.613 . S
S3278 N3280 1.610 . S
N3279 S3278 1.613 . S
N3279 C3282 1.350 . S
N3280 S3278 1.610 . S
N3280 C3281 1.351 . S
C3281 C3275 1.428 . S
C3281 N3280 1.351 . S
C3281 C3282 1.434 . S
C3282 C3273 1.429 . S
C3282 N3279 1.350 . S
C3282 C3281 1.434 . S
C3283 C3284 1.369 . S
C3283 C3285 1.419 . S
C3283 H3287 0.930 . S
C3284 C3283 1.369 . S
C3284 C3293 1.429 . S
C3285 C3283 1.419 . S
C3285 C3286 1.363 . S
C3285 H3288 0.929 . S
C3286 C3285 1.363 . S
C3286 C3292 1.428 . S
H3287 C3283 0.930 . S
H3288 C3285 0.929 . S
S3289 N3290 1.613 . S
S3289 N3291 1.610 . S
N3290 S3289 1.613 . S
N3290 C3293 1.350 . S
N3291 S3289 1.610 . S
N3291 C3292 1.351 . S
C3292 C3286 1.428 . S
C3292 N3291 1.351 . S
C3292 C3293 1.434 . S
C3293 C3284 1.429 . S
C3293 N3290 1.350 . S
C3293 C3292 1.434 . S
C3294 C3295 1.369 . S
C3294 C3296 1.419 . S
C3294 H3298 0.930 . S
C3295 C3294 1.369 . S
C3295 C3304 1.429 . S
C3296 C3294 1.419 . S
C3296 C3297 1.363 . S
C3296 H3299 0.929 . S
C3297 C3296 1.363 . S
C3297 C3303 1.428 . S
H3298 C3294 0.930 . S
H3299 C3296 0.929 . S
S3300 N3301 1.613 . S
S3300 N3302 1.610 . S
N3301 S3300 1.613 . S
N3301 C3304 1.350 . S
N3302 S3300 1.610 . S
N3302 C3303 1.351 . S
C3303 C3297 1.428 . S
C3303 N3302 1.351 . S
C3303 C3304 1.434 . S
C3304 C3295 1.429 . S
C3304 N3301 1.350 . S
C3304 C3303 1.434 . S
C3305 C3306 1.369 . S
C3305 C3307 1.419 . S
C3305 H3309 0.930 . S
C3306 C3305 1.369 . S
C3306 C3315 1.429 . S
C3307 C3305 1.419 . S
C3307 C3308 1.363 . S
C3307 H3310 0.929 . S
C3308 C3307 1.363 . S
C3308 C3314 1.428 . S
H3309 C3305 0.930 . S
H3310 C3307 0.929 . S
S3311 N3312 1.613 . S
S3311 N3313 1.610 . S
N3312 S3311 1.613 . S
N3312 C3315 1.350 . S
N3313 S3311 1.610 . S
N3313 C3314 1.351 . S
C3314 C3308 1.428 . S
C3314 N3313 1.351 . S
C3314 C3315 1.434 . S
C3315 C3306 1.429 . S
C3315 N3312 1.350 . S
C3315 C3314 1.434 . S
C3316 C3317 1.369 . S
C3316 C3318 1.419 . S
C3316 H3320 0.930 . S
C3317 C3316 1.369 . S
C3317 C3326 1.429 . S
C3318 C3316 1.419 . S
C3318 C3319 1.363 . S
C3318 H3321 0.929 . S
C3319 C3318 1.363 . S
C3319 C3325 1.428 . S
H3320 C3316 0.930 . S
H3321 C3318 0.929 . S
S3322 N3323 1.613 . S
S3322 N3324 1.610 . S
N3323 S3322 1.613 . S
N3323 C3326 1.350 . S
N3324 S3322 1.610 . S
N3324 C3325 1.351 . S
C3325 C3319 1.428 . S
C3325 N3324 1.351 . S
C3325 C3326 1.434 . S
C3326 C3317 1.429 . S
C3326 N3323 1.350 . S
C3326 C3325 1.434 . S
C3327 C3328 1.369 1_554 S
C3327 C3329 1.419 1_565 S
C3327 H3331 0.930 . S
C3328 C3327 1.369 1_556 S
C3328 C3337 1.429 . S
C3329 C3327 1.419 1_545 S
C3329 C3330 1.363 . S
C3329 H3332 0.929 . S
C3330 C3329 1.363 . S
C3330 C3336 1.428 1_554 S
H3331 C3327 0.930 . S
H3332 C3329 0.929 . S
S3333 N3334 1.613 1_545 S
S3333 N3335 1.610 . S
N3334 S3333 1.613 1_565 S
N3334 C3337 1.350 . S
N3335 S3333 1.610 . S
N3335 C3336 1.351 . S
C3336 C3330 1.428 1_556 S
C3336 N3335 1.351 . S
C3336 C3337 1.434 1_545 S
C3337 C3328 1.429 . S
C3337 N3334 1.350 . S
C3337 C3336 1.434 1_565 S
C3338 C3339 1.369 . S
C3338 C3340 1.419 . S
C3338 H3342 0.930 . S
C3339 C3338 1.369 . S
C3339 C3348 1.429 . S
C3340 C3338 1.419 . S
C3340 C3341 1.363 . S
C3340 H3343 0.929 . S
C3341 C3340 1.363 . S
C3341 C3347 1.428 . S
H3342 C3338 0.930 . S
H3343 C3340 0.929 . S
S3344 N3345 1.613 . S
S3344 N3346 1.610 . S
N3345 S3344 1.613 . S
N3345 C3348 1.350 . S
N3346 S3344 1.610 . S
N3346 C3347 1.351 . S
C3347 C3341 1.428 . S
C3347 N3346 1.351 . S
C3347 C3348 1.434 . S
C3348 C3339 1.429 . S
C3348 N3345 1.350 . S
C3348 C3347 1.434 . S
C3349 C3350 1.369 . S
C3349 C3351 1.419 . S
C3349 H3353 0.930 . S
C3350 C3349 1.369 . S
C3350 C3359 1.429 . S
C3351 C3349 1.419 . S
C3351 C3352 1.363 . S
C3351 H3354 0.929 . S
C3352 C3351 1.363 . S
C3352 C3358 1.428 . S
H3353 C3349 0.930 . S
H3354 C3351 0.929 . S
S3355 N3356 1.613 . S
S3355 N3357 1.610 . S
N3356 S3355 1.613 . S
N3356 C3359 1.350 . S
N3357 S3355 1.610 . S
N3357 C3358 1.351 . S
C3358 C3352 1.428 . S
C3358 N3357 1.351 . S
C3358 C3359 1.434 . S
C3359 C3350 1.429 . S
C3359 N3356 1.350 . S
C3359 C3358 1.434 . S
C1249 C5 1.426 . S
C1251 C420 1.505 . S
C1260 C751 1.507 . S
C1262 C16 1.422 . S
C1271 C452 1.507 . S
C1273 C31 1.422 . S
C1282 C44 1.421 . S
C1284 C777 1.509 . S
C1293 C55 1.423 . S
C1295 C478 1.506 . S
C1304 C68 1.420 . S
C1306 C803 1.507 . S
C1315 C83 1.432 . S
C1317 C504 1.507 . S
C1326 C96 1.427 . S
C1328 C823 1.505 . S
C1337 C836 1.511 . S
C1339 C107 1.428 . S
C1348 C933 1.505 . S
C1350 C122 1.427 . S
C1359 C135 1.428 . S
C1361 C1219 1.510 . S
C1370 C148 1.424 . S
C1372 C914 1.510 . S
C1381 C225 1.511 . S
C1383 C161 1.428 . S
C1392 C174 1.424 . S
C1394 C238 1.510 . S
C1403 C187 1.433 . S
C1405 C257 1.508 . S
C1414 C1206 1.505 . S
C1416 C198 1.423 . S
C1425 C946 1.506 . S
C1427 C213 1.430 . S
C1436 C224 1.422 . S
C1438 C374 1.506 . S
C1447 C699 1.505 . S
C1449 C237 1.425 . S
C1458 C252 1.433 . S
C1460 C394 1.507 . S
C1469 C407 1.505 . S
C1471 C265 1.428 . S
C1480 C660 1.511 . S
C1482 C276 1.428 . S
C1491 C49 1.510 . S
C1493 C289 1.424 . S
C1502 C17 1.505 . S
C1504 C304 1.429 . S
C1513 C315 1.429 . S
C1515 C108 1.510 . S
C1524 C1057 1.505 . S
C1526 C330 1.426 . S
C1535 C140 1.506 . S
C1537 C341 1.431 . S
C1546 C354 1.424 . S
C1548 C1089 1.510 . S
C1557 C369 1.429 . S
C1559 C166 1.510 . S
C1568 C1115 1.505 . S
C1570 C382 1.428 . S
C1579 C393 1.429 . S
C1581 C192 1.506 . S
C1590 C1141 1.505 . S
C1592 C406 1.428 . S
C1601 C1148 1.506 . S
C1603 C419 1.422 . S
C1612 C434 1.427 . S
C1614 C1245 1.505 . S
C1623 C907 1.510 . S
C1625 C447 1.424 . S
C1634 C1232 1.506 . S
C1636 C458 1.422 . S
C1645 C473 1.433 . S
C1647 C543 1.508 . S
C1656 C556 1.511 . S
C1658 C486 1.428 . S
C1667 C563 1.510 . S
C1669 C499 1.425 . S
C1678 C510 1.426 . S
C1680 C888 1.505 . S
C1689 C634 1.510 . S
C1691 C525 1.430 . S
C1700 C538 1.421 . S
C1702 C56 1.507 . S
C1711 C1011 1.510 . S
C1713 C551 1.424 . S
C1722 C88 1.505 . S
C1724 C562 1.426 . S
C1733 C577 1.432 . S
C1735 C101 1.509 . S
C1744 C972 1.506 . S
C1746 C590 1.430 . S
C1755 C355 1.509 . S
C1757 C603 1.422 . S
C1766 C335 1.505 . S
C1768 C616 1.425 . S
C1777 C1050 1.510 . S
C1779 C629 1.431 . S
C1788 C127 1.509 . S
C1790 C640 1.423 . S
C1799 C1076 1.505 . S
C1801 C655 1.426 . S
C1810 C666 1.432 . S
C1812 C153 1.507 . S
C1821 C1096 1.507 . S
C1823 C681 1.422 . S
C1832 C694 1.433 . S
C1834 C179 1.509 . S
C1843 C705 1.428 . S
C1845 C1128 1.505 . S
C1854 C720 1.429 . S
C1856 C199 1.506 . S
C1865 C218 1.510 . S
C1867 C731 1.429 . S
C1876 C746 1.425 . S
C1878 C309 1.510 . S
C1887 C759 1.432 . S
C1889 C595 1.509 . S
C1898 C290 1.506 . S
C1900 C772 1.423 . S
C1909 C785 1.420 . S
C1911 C855 1.507 . S
C1920 C868 1.506 . S
C1922 C798 1.422 . S
C1931 C875 1.511 . S
C1933 C811 1.428 . S
C1942 C822 1.421 . S
C1944 C582 1.508 . S
C1953 C835 1.423 . S
C1955 C316 1.509 . S
C1964 C998 1.505 . S
C1966 C850 1.430 . S
C1975 C863 1.421 . S
C1977 C69 1.508 . S
C1986 C874 1.430 . S
C1988 C1018 1.506 . S
C1997 C1037 1.506 . S
C1999 C887 1.423 . S
C2008 C36 1.506 . S
C2010 C902 1.422 . S
C2019 C913 1.420 . S
C2021 C667 1.508 . S
C2030 C928 1.428 . S
C2032 C641 1.506 . S
C2041 C732 1.510 . S
C2043 C941 1.429 . S
C2052 C439 1.506 . S
C2054 C952 1.431 . S
C2063 C764 1.510 . S
C2065 C967 1.429 . S
C2074 C980 1.432 . S
C2076 C459 1.507 . S
C2085 C993 1.433 . S
C2087 C790 1.508 . S
C2096 C491 1.506 . S
C2098 C1006 1.431 . S
C2107 C816 1.507 . S
C2109 C1017 1.422 . S
C2118 C511 1.506 . S
C2120 C1032 1.430 . S
C2129 C1045 1.431 . S
C2131 C530 1.506 . S
C2140 C621 1.510 . S
C2142 C1056 1.430 . S
C2151 C277 1.508 . S
C2153 C1071 1.431 . S
C2162 C1084 1.423 . S
C2164 C608 1.506 . S
C2173 C1167 1.511 . S
C2175 C1095 1.426 . S
C2184 C1174 1.505 . S
C2186 C1110 1.429 . S
C2195 C1123 1.429 . S
C2197 C1187 1.510 . S
C2206 C1136 1.420 . S
C2208 C270 1.507 . S
C2217 C10 1.505 . S
C2219 C1147 1.424 . S
C2228 C686 1.505 . S
C2230 C1162 1.424 . S
C2239 C1173 1.433 . S
C2241 C387 1.508 . S
C2250 C1186 1.426 . S
C2252 C706 1.505 . S
C2261 C725 1.511 . S
C2263 C1201 1.427 . S
C2272 C342 1.506 . S
C2274 C1214 1.430 . S
C2283 C985 1.505 . S
C2285 C1227 1.426 . S
C2294 C953 1.505 . S
C2296 C1240 1.429 . S
C2305 C1134 1.585 . S
C2307 C3 1.589 . S
C2316 C18 1.586 . S
C2318 C1097 1.589 . S
C2327 C29 1.591 . S
C2329 C1108 1.588 . S
C2338 C42 1.590 . S
C2340 C1121 1.585 . S
C2349 C120 1.584 . S
C2351 C57 1.583 . S
C2360 C70 1.590 . S
C2362 C133 1.590 . S
C2371 C81 1.591 . S
C2373 C146 1.589 . S
C2382 C94 1.588 . S
C2384 C109 1.590 . S
C2393 C159 1.591 . S
C2395 C954 1.589 . S
C2404 C172 1.582 . S
C2406 C965 1.584 . S
C2415 C185 1.582 . S
C2417 C978 1.585 . S
C2426 C939 1.582 . S
C2428 C200 1.585 . S
C2437 C1199 1.586 . S
C2439 C211 1.590 . S
C2448 C226 1.583 . S
C2450 C1238 1.583 . S
C2459 C239 1.582 . S
C2461 C588 1.587 . S
C2470 C1225 1.590 . S
C2472 C250 1.585 . S
C2481 C263 1.582 . S
C2483 C1149 1.586 . S
C2492 C278 1.586 . S
C2494 C549 1.589 . S
C2503 C291 1.588 . S
C2505 C1188 1.590 . S
C2514 C302 1.591 . S
C2516 C1160 1.587 . S
C2525 C824 1.582 . S
C2527 C317 1.583 . S
C2536 C328 1.591 . S
C2538 C783 1.588 . S
C2547 C796 1.590 . S
C2549 C343 1.585 . S
C2558 C356 1.582 . S
C2560 C809 1.583 . S
C2569 C367 1.582 . S
C2571 C432 1.584 . S
C2580 C380 1.586 . S
C2582 C445 1.589 . S
C2591 C460 1.588 . S
C2593 C395 1.584 . S
C2602 C408 1.582 . S
C2604 C421 1.583 . S
C2613 C642 1.586 . S
C2615 C471 1.589 . S
C2624 C653 1.586 . S
C2626 C484 1.589 . S
C2635 C668 1.591 . S
C2637 C497 1.588 . S
C2646 C627 1.584 . S
C2648 C512 1.583 . S
C2657 C523 1.582 . S
C2659 C889 1.583 . S
C2668 C536 1.581 . S
C2670 C926 1.585 . S
C2679 C915 1.583 . S
C2681 C564 1.587 . S
C2690 C575 1.583 . S
C2692 C837 1.583 . S
C2701 C601 1.588 . S
C2703 C876 1.590 . S
C2712 C614 1.582 . S
C2714 C848 1.584 . S
C2723 C679 1.586 . S
C2725 C744 1.583 . S
C2734 C692 1.582 . S
C2736 C757 1.586 . S
C2745 C707 1.590 . S
C2747 C770 1.585 . S
C2756 C718 1.583 . S
C2758 C733 1.588 . S
C2767 C1212 1.590 . S
C2769 C861 1.586 . S
C2778 C1175 1.591 . S
C2780 C900 1.587 . S
C2789 C991 1.584 . S
C2791 C1058 1.588 . S
C2800 C1004 1.589 . S
C2802 C1069 1.585 . S
C2811 C1082 1.584 . S
C2813 C1019 1.583 . S
C2822 C1030 1.582 . S
C2824 C1043 1.583 . S
C2833 C348 1.554 . S
C2835 C4 1.549 . S
C2844 C23 1.549 . S
C2846 C673 1.545 . S
C2855 C30 1.543 1_545 S
C2857 C322 1.551 1_565 S
C2866 C647 1.555 . S
C2868 C43 1.548 . S
C2877 C62 1.551 . S
C2879 C400 1.552 . S
C2888 C75 1.552 . S
C2890 C719 1.551 . S
C2899 C82 1.554 1_565 S
C2901 C368 1.548 1_545 S
C2910 C95 1.545 . S
C2912 C693 1.547 . S
C2921 C114 1.554 . S
C2923 C160 1.545 . S
C2932 C173 1.545 . S
C2934 C121 1.554 . S
C2943 C134 1.542 1_556 S
C2945 C186 1.551 1_554 S
C2954 C147 1.553 . S
C2956 C205 1.544 . S
C2965 C212 1.551 . S
C2967 C1193 1.552 . S
C2976 C901 1.555 1_455 S
C2978 C231 1.546 1_655 S
C2987 C296 1.554 . S
C2989 C244 1.548 . S
C2998 C1154 1.550 1_655 S
C3000 C251 1.544 1_455 S
C3009 C1239 1.549 . S
C3011 C264 1.545 . S
C3020 C283 1.547 . S
C3022 C849 1.554 . S
C3031 C1200 1.545 . S
C3033 C303 1.554 . S
C3042 C329 1.543 . S
C3044 C979 1.550 . S
C3053 C959 1.549 . S
C3055 C361 1.553 . S
C3064 C381 1.555 . S
C3066 C1031 1.545 . S
C3075 C413 1.553 . S
C3077 C1005 1.550 . S
C3086 C472 1.543 1_554 S
C3088 C426 1.550 1_556 S
C3097 C485 1.554 . S
C3099 C433 1.544 . S
C3108 C498 1.553 . S
C3110 C446 1.545 . S
C3119 C517 1.546 . S
C3121 C465 1.554 . S
C3130 C881 1.552 . S
C3132 C524 1.551 . S
C3141 C1213 1.546 1_455 S
C3143 C537 1.546 1_655 S
C3152 C550 1.552 . S
C3154 C602 1.544 . S
C3163 C569 1.546 1_455 S
C3165 C842 1.546 1_655 S
C3174 C576 1.544 . S
C3176 C927 1.553 . S
C3185 C589 1.553 . S
C3187 C1161 1.550 . S
C3196 C615 1.543 . S
C3198 C894 1.552 . S
C3207 C966 1.546 . S
C3209 C628 1.554 . S
C3218 C654 1.550 1_545 S
C3220 C940 1.544 1_565 S
C3229 C1024 1.549 . S
C3231 C680 1.545 . S
C3240 C992 1.552 1_545 S
C3242 C712 1.544 1_565 S
C3251 C784 1.543 1_554 S
C3253 C738 1.551 1_556 S
C3262 C745 1.553 . S
C3264 C797 1.544 . S
C3273 C758 1.555 . S
C3275 C810 1.546 . S
C3284 C829 1.549 . S
C3286 C771 1.553 . S
C3295 C920 1.554 . S
C3297 C862 1.545 . S
C3306 C1044 1.554 . S
C3308 C1102 1.545 . S
C3317 C1063 1.543 . S
C3319 C1109 1.553 . S
C3328 C1070 1.554 1_556 S
C3330 C1122 1.544 1_554 S
C3339 C1135 1.551 . S
C3341 C1083 1.552 . S
C3350 C1226 1.555 . S
C3352 C1180 1.545 . S
