# Generated by pormake.
# Topology wjl, (5)-cn, num edge types: 1
# Building blocks:
#     Node 0, Type 0, BuildingBlock: XOMCOT_clean_sbu_1, # of connection points: 5
#     Node 1, Type 0, BuildingBlock: XOMCOT_clean_sbu_1, # of connection points: 5
#     Node 2, Type 0, BuildingBlock: XOMCOT_clean_sbu_1, # of connection points: 5
#     Node 3, Type 0, BuildingBlock: XOMCOT_clean_sbu_1, # of connection points: 5
#     Node 4, Type 0, BuildingBlock: XOMCOT_clean_sbu_1, # of connection points: 5
#     Node 5, Type 0, BuildingBlock: XOMCOT_clean_sbu_1, # of connection points: 5
#     Node 6, Type 0, BuildingBlock: XOMCOT_clean_sbu_1, # of connection points: 5
#     Node 7, Type 0, BuildingBlock: XOMCOT_clean_sbu_1, # of connection points: 5
#     Node 8, Type 0, BuildingBlock: XOMCOT_clean_sbu_1, # of connection points: 5
#     Node 9, Type 0, BuildingBlock: XOMCOT_clean_sbu_1, # of connection points: 5
#     Node 10, Type 0, BuildingBlock: XOMCOT_clean_sbu_1, # of connection points: 5
#     Node 11, Type 0, BuildingBlock: XOMCOT_clean_sbu_1, # of connection points: 5
#     Edge 12, Type (0, 0), BuildingBlock: AJUNOK_clean_linker_0, # of connection points: 2
#     Edge 13, Type (0, 0), BuildingBlock: AJUNOK_clean_linker_0, # of connection points: 2
#     Edge 14, Type (0, 0), BuildingBlock: AJUNOK_clean_linker_0, # of connection points: 2
#     Edge 15, Type (0, 0), BuildingBlock: AJUNOK_clean_linker_0, # of connection points: 2
#     Edge 16, Type (0, 0), BuildingBlock: AJUNOK_clean_linker_0, # of connection points: 2
#     Edge 17, Type (0, 0), BuildingBlock: AJUNOK_clean_linker_0, # of connection points: 2
#     Edge 18, Type (0, 0), BuildingBlock: AJUNOK_clean_linker_0, # of connection points: 2
#     Edge 19, Type (0, 0), BuildingBlock: AJUNOK_clean_linker_0, # of connection points: 2
#     Edge 20, Type (0, 0), BuildingBlock: AJUNOK_clean_linker_0, # of connection points: 2
#     Edge 21, Type (0, 0), BuildingBlock: AJUNOK_clean_linker_0, # of connection points: 2
#     Edge 22, Type (0, 0), BuildingBlock: AJUNOK_clean_linker_0, # of connection points: 2
#     Edge 23, Type (0, 0), BuildingBlock: AJUNOK_clean_linker_0, # of connection points: 2
#     Edge 24, Type (0, 0), BuildingBlock: AJUNOK_clean_linker_0, # of connection points: 2
#     Edge 25, Type (0, 0), BuildingBlock: AJUNOK_clean_linker_0, # of connection points: 2
#     Edge 26, Type (0, 0), BuildingBlock: AJUNOK_clean_linker_0, # of connection points: 2
#     Edge 27, Type (0, 0), BuildingBlock: AJUNOK_clean_linker_0, # of connection points: 2
#     Edge 28, Type (0, 0), BuildingBlock: AJUNOK_clean_linker_0, # of connection points: 2
#     Edge 29, Type (0, 0), BuildingBlock: AJUNOK_clean_linker_0, # of connection points: 2
#     Edge 30, Type (0, 0), BuildingBlock: AJUNOK_clean_linker_0, # of connection points: 2
#     Edge 31, Type (0, 0), BuildingBlock: AJUNOK_clean_linker_0, # of connection points: 2
#     Edge 32, Type (0, 0), BuildingBlock: AJUNOK_clean_linker_0, # of connection points: 2
#     Edge 33, Type (0, 0), BuildingBlock: AJUNOK_clean_linker_0, # of connection points: 2
#     Edge 34, Type (0, 0), BuildingBlock: AJUNOK_clean_linker_0, # of connection points: 2
#     Edge 35, Type (0, 0), BuildingBlock: AJUNOK_clean_linker_0, # of connection points: 2
#     Edge 36, Type (0, 0), BuildingBlock: AJUNOK_clean_linker_0, # of connection points: 2
#     Edge 37, Type (0, 0), BuildingBlock: AJUNOK_clean_linker_0, # of connection points: 2
#     Edge 38, Type (0, 0), BuildingBlock: AJUNOK_clean_linker_0, # of connection points: 2
#     Edge 39, Type (0, 0), BuildingBlock: AJUNOK_clean_linker_0, # of connection points: 2
#     Edge 40, Type (0, 0), BuildingBlock: AJUNOK_clean_linker_0, # of connection points: 2
#     Edge 41, Type (0, 0), BuildingBlock: AJUNOK_clean_linker_0, # of connection points: 2
# Relax obj value: 0.465
# Max RMSD: 0.227
# Mean RMSD: 0.227
data_MOF--net-wjl--node1-XOMCOT_clean_sbu_1--edge1-AJUNOK_clean_linker_0
_symmetry_space_group_name_H-M    P1
_symmetry_Int_Tables_number       1
_symmetry_cell_setting            triclinic
loop_
_symmetry_equiv_pos_as_xyz
'x, y, z'
_cell_length_a     19.424256
_cell_length_b     19.412023
_cell_length_c     69.688083
_cell_angle_alpha  90.113459
_cell_angle_beta   89.91057
_cell_angle_gamma 120.07231
loop_
_atom_site_label
_atom_site_type_symbol
_atom_site_fract_x
_atom_site_fract_y
_atom_site_fract_z
_atom_type_partial_charge
C0 C 0.37678 0.26364 0.35637 0.0
C1 C 0.42111 0.28333 0.37295 0.0
N2 N 0.48182 0.35862 0.3712 0.0
N3 N 0.40907 0.32666 0.34444 0.0
C4 C 0.47304 0.38344 0.35382 0.0
H5 H 0.32379 0.20749 0.35326 0.0
Co6 Co 0.37048 0.32926 0.32047 0.0
C7 C 0.42594 0.50239 0.31409 0.0
O8 O 0.35382 0.48186 0.30842 0.0
N9 N 0.32999 0.3291 0.29546 0.0
C10 C 0.25358 0.32321 0.27078 0.0
C11 C 0.26547 0.3344 0.29021 0.0
C12 C 0.35651 0.31585 0.27864 0.0
N13 N 0.31134 0.31224 0.26361 0.0
O14 O 0.45248 0.31119 0.31007 0.0
H15 H 0.22771 0.34477 0.29971 0.0
H16 H 0.40553 0.30475 0.27731 0.0
O17 O 0.44163 0.44783 0.31897 0.0
C18 C 0.43227 0.23742 0.30986 0.0
O19 O 0.35691 0.18441 0.31255 0.0
N20 N 0.28859 0.33799 0.33253 0.0
C21 C 0.16923 0.32193 0.35769 0.0
C22 C 0.24574 0.38913 0.35839 0.0
C23 C 0.30451 0.39574 0.34586 0.0
C24 C 0.21469 0.27197 0.33164 0.0
C25 C 0.15328 0.26407 0.3436 0.0
H26 H 0.36439 0.44406 0.3481 0.0
H27 H 0.20398 0.22401 0.32194 0.0
H28 H 0.51071 0.44288 0.34836 0.0
H29 H 0.40922 0.24568 0.38539 0.0
H30 H 0.20459 0.32003 0.26266 0.0
H31 H 0.26211 0.43392 0.36946 0.0
H32 H 0.09502 0.21161 0.34229 0.0
C33 C 0.15952 0.3707 0.51757 0.0
C34 C 0.18772 0.41432 0.53425 0.0
N35 N 0.16158 0.46679 0.53494 0.0
N36 N 0.11628 0.39603 0.50792 0.0
C37 C 0.11873 0.45439 0.51885 0.0
H38 H 0.1709 0.3245 0.51262 0.0
Co39 Co 0.07102 0.36214 0.48401 0.0
C40 C 0.99918 0.46404 0.47315 0.0
O41 O 1.00754 0.45757 0.45465 0.0
N42 N 1.02527 0.32625 0.45957 0.0
C43 C 0.93874 0.26709 0.43562 0.0
C44 C 0.94694 0.28261 0.45503 0.0
C45 C 0.06308 0.33706 0.44263 0.0
N46 N 1.01196 0.30213 0.42801 0.0
O47 O 0.17041 0.44454 0.47339 0.0
H48 H 0.8984 0.26357 0.4651 0.0
H49 H 0.12693 0.36929 0.44086 0.0
O50 O 1.02526 0.43302 0.48519 0.0
C51 C 0.22259 0.42267 0.47225 0.0
O52 O 0.19791 0.34612 0.473 0.0
N53 N 0.98068 0.28033 0.49571 0.0
C54 C 0.874 0.15726 0.51922 0.0
C55 C 0.88073 0.23255 0.52016 0.0
C56 C 0.93469 0.29352 0.50834 0.0
C57 C 0.97182 0.20645 0.49378 0.0
C58 C 0.91776 0.14348 0.50524 0.0
H59 H 0.94329 0.35236 0.5105 0.0
H60 H 1.00989 0.1975 0.48398 0.0
H61 H 0.08911 0.48719 0.51529 0.0
H62 H 0.22558 0.40874 0.54475 0.0
H63 H 0.88379 0.23336 0.4277 0.0
H64 H 0.84899 0.24607 0.53095 0.0
H65 H 0.91332 0.08581 0.50386 0.0
C66 C 0.78896 0.08145 0.68102 0.0
C67 C 0.77313 0.10291 0.69858 0.0
N68 N 0.70294 0.10052 0.69725 0.0
N69 N 0.72799 0.06414 0.66901 0.0
C70 C 0.677 0.07747 0.67924 0.0
H71 H 0.8402 0.07602 0.67741 0.0
Co72 Co 0.71899 0.02544 0.64451 0.0
C73 C 0.5481 0.95984 0.63184 0.0
O74 O 0.56439 0.95854 0.61361 0.0
N75 N 0.71349 0.98641 0.61941 0.0
C76 C 0.70043 0.90952 0.59417 0.0
C77 C 0.68913 0.91078 0.61364 0.0
C78 C 0.73863 0.02949 0.60308 0.0
N79 N 0.73064 0.98414 0.5877 0.0
O80 O 0.74654 0.13025 0.63537 0.0
H81 H 0.66534 0.85928 0.62289 0.0
H82 H 0.76446 0.09333 0.60235 0.0
O83 O 0.60419 0.99015 0.64423 0.0
C84 C 0.82075 0.18223 0.63596 0.0
O85 O 0.87184 0.15743 0.63846 0.0
N86 N 0.69761 0.92767 0.65511 0.0
C87 C 0.69422 0.82026 0.68188 0.0
C88 C 0.62465 0.82108 0.67728 0.0
C89 C 0.62747 0.87549 0.66389 0.0
C90 C 0.76373 0.92139 0.65782 0.0
C91 C 0.76344 0.86781 0.67124 0.0
H92 H 0.57443 0.87923 0.66219 0.0
H93 H 0.81901 0.96372 0.65099 0.0
H94 H 0.6201 0.06686 0.67401 0.0
H95 H 0.80866 0.11641 0.71147 0.0
H96 H 0.68871 0.85844 0.58549 0.0
H97 H 0.57016 0.78495 0.68523 0.0
H98 H 0.81861 0.8693 0.67459 0.0
C99 C 0.70712 0.78036 0.8488 0.0
C100 C 0.66522 0.75959 0.86578 0.0
N101 N 0.61467 0.68059 0.86536 0.0
N102 N 0.68205 0.7146 0.83788 0.0
C103 C 0.62603 0.65474 0.84843 0.0
H104 H 0.75184 0.83969 0.84448 0.0
Co105 Co 0.71424 0.7133 0.81314 0.0
C106 C 0.64802 0.54243 0.80304 0.0
O107 O 0.71545 0.56315 0.79424 0.0
N108 N 0.74741 0.7149 0.78745 0.0
C109 C 0.81561 0.73078 0.76044 0.0
C110 C 0.81754 0.72777 0.78013 0.0
C111 C 0.7039 0.70909 0.77175 0.0
N112 N 0.74401 0.719 0.75524 0.0
O113 O 0.63514 0.73944 0.80496 0.0
H114 H 0.86835 0.73652 0.78831 0.0
H115 H 0.64445 0.70046 0.77229 0.0
O116 O 0.63776 0.59668 0.81083 0.0
C117 C 0.66195 0.81449 0.80412 0.0
O118 O 0.73932 0.86217 0.80513 0.0
N119 N 0.7945 0.6966 0.82319 0.0
C120 C 0.90567 0.71205 0.85077 0.0
C121 C 0.83365 0.6403 0.84867 0.0
C122 C 0.77875 0.63383 0.83489 0.0
C123 C 0.866 0.76533 0.82437 0.0
C124 C 0.92329 0.77356 0.83768 0.0
H125 H 0.72018 0.58219 0.83565 0.0
H126 H 0.87591 0.81667 0.81612 0.0
H127 H 0.59257 0.59347 0.84378 0.0
H128 H 0.67118 0.79902 0.87747 0.0
H129 H 0.86481 0.74593 0.75076 0.0
H130 H 0.81554 0.59249 0.85894 0.0
H131 H 0.97792 0.83025 0.83884 0.0
C132 C 0.89315 0.65332 0.01565 0.0
C133 C 0.87601 0.61036 0.03239 0.0
N134 N 0.92326 0.57829 0.0332 0.0
N135 N 0.9498 0.64682 0.00596 0.0
C136 C 0.96707 0.60075 0.01704 0.0
H137 H 0.86601 0.68708 0.01081 0.0
Co138 Co 0.99006 0.69362 0.98259 0.0
C139 C 0.09374 0.63052 0.96859 0.0
O140 O 0.13649 0.69795 0.95946 0.0
N141 N 0.02886 0.74316 0.95852 0.0
C142 C 0.09063 0.83139 0.93515 0.0
C143 C 0.085 0.81934 0.95463 0.0
C144 C 1.00175 0.71033 0.94102 0.0
N145 N 0.03833 0.76273 0.92662 0.0
O146 O 0.8876 0.61959 0.97158 0.0
H147 H 0.11951 0.86472 0.96505 0.0
H148 H 0.95364 0.65001 0.93885 0.0
O149 O 0.03133 0.61908 0.97775 0.0
C150 C 0.8389 0.64538 0.96972 0.0
O151 O 0.86681 0.72242 0.97107 0.0
N152 N 0.0844 0.76744 -0.00476 0.0
C153 C 0.19012 0.86852 0.02301 0.0
C154 C 0.19272 0.80122 0.01694 0.0
C155 C 0.13868 0.75077 0.00327 0.0
C156 C 0.08267 0.8341 0.00069 0.0
C157 C 0.13599 0.88635 0.01433 0.0
H158 H 0.13651 0.69508 0.00094 0.0
H159 H 0.03642 0.84422 -0.00481 0.0
H160 H 1.01025 0.58322 0.01337 0.0
H161 H 0.83313 0.60386 0.04321 0.0
H162 H 0.12859 0.88701 0.92783 0.0
H163 H 0.2321 0.78436 0.02382 0.0
H164 H 0.1305 0.93647 0.01915 0.0
C165 C 0.27352 0.90684 0.18732 0.0
C166 C 0.29883 0.88549 0.20352 0.0
N167 N 0.37868 0.92058 0.20272 0.0
N168 N 0.33732 0.95537 0.17656 0.0
C169 C 0.4004 0.96344 0.18643 0.0
H170 H 0.21253 0.88685 0.18337 0.0
Co171 Co 0.33378 0.99194 0.15248 0.0
C172 C 0.50255 0.10256 0.1413 0.0
O173 O 0.47823 0.14697 0.13288 0.0
N174 N 0.32725 0.02675 0.12748 0.0
C175 C 0.30409 0.08106 0.10189 0.0
C176 C 0.31192 0.08414 0.12153 0.0
C177 C 0.33009 0.99123 0.11103 0.0
N178 N 0.315 0.02205 0.09537 0.0
O179 O 0.31013 0.88909 0.14287 0.0
H180 H 0.30451 0.12486 0.13065 0.0
H181 H 0.33987 0.94114 0.11045 0.0
O182 O 0.45077 0.03683 0.14911 0.0
C183 C 0.23557 0.84023 0.14103 0.0
O184 O 0.18662 0.86835 0.14197 0.0
N185 N 0.34782 0.08562 0.16387 0.0
C186 C 0.33378 0.18184 0.19147 0.0
C187 C 0.40696 0.18606 0.18827 0.0
C188 C 0.41252 0.1365 0.17461 0.0
C189 C 0.27717 0.08365 0.16625 0.0
C190 C 0.26932 0.13274 0.17963 0.0
H191 H 0.46634 0.13345 0.17443 0.0
H192 H 0.22508 0.03963 0.15861 0.0
H193 H 0.46132 1.00079 0.18192 0.0
H194 H 0.26151 0.846 0.21478 0.0
H195 H 0.28616 0.11574 0.09327 0.0
H196 H 0.45747 0.22158 0.1975 0.0
H197 H 0.21179 0.12799 0.18166 0.0
C198 C 0.79535 0.64652 0.44707 0.0
C199 C 0.77306 0.60163 0.43058 0.0
N200 N 0.69323 0.56532 0.42906 0.0
N201 N 0.72987 0.63744 0.45603 0.0
C202 C 0.66868 0.58826 0.44468 0.0
H203 H 0.85524 0.68144 0.45255 0.0
Co204 Co 0.73158 0.68111 0.47958 0.0
C205 C 0.56126 0.62091 0.49098 0.0
O206 O 0.58518 0.68589 0.50115 0.0
N207 N 0.73748 0.72767 0.50389 0.0
C208 C 0.76231 0.81457 0.52755 0.0
C209 C 0.75479 0.80289 0.50806 0.0
C210 C 0.73365 0.69485 0.52126 0.0
N211 N 0.74905 0.74654 0.53581 0.0
O212 O 0.75322 0.60239 0.49067 0.0
H213 H 0.76402 0.84817 0.49779 0.0
H214 H 0.72486 0.63572 0.52324 0.0
O215 O 0.61353 0.60961 0.48239 0.0
C216 C 0.82703 0.62708 0.49361 0.0
O217 O 0.87655 0.70427 0.49392 0.0
N218 N 0.71933 0.75944 0.46692 0.0
C219 C 0.72978 0.86494 0.4386 0.0
C220 C 0.65588 0.8009 0.4439 0.0
C221 C 0.652 0.74771 0.4578 0.0
C222 C 0.79125 0.82424 0.46261 0.0
C223 C 0.79778 0.87857 0.44861 0.0
H224 H 0.59601 0.69373 0.45942 0.0
H225 H 0.84459 0.83056 0.46916 0.0
H226 H 0.60722 0.56949 0.44777 0.0
H227 H 0.81254 0.59393 0.42099 0.0
H228 H 0.78022 0.87 0.53502 0.0
H229 H 0.60251 0.78789 0.43608 0.0
H230 H 0.85606 0.92657 0.44452 0.0
C231 C 0.14203 0.76365 0.60804 0.0
C232 C 0.17166 0.74585 0.59201 0.0
N233 N 0.14657 0.66735 0.59231 0.0
N234 N 0.09809 0.69649 0.61818 0.0
C235 C 0.10103 0.63879 0.60814 0.0
H236 H 0.15468 0.82222 0.61254 0.0
Co237 Co 0.06178 0.69308 0.64268 0.0
C238 C 0.94968 0.5224 0.6512 0.0
O239 O 0.90563 0.54588 0.66021 0.0
N240 N 0.02798 0.69255 0.66827 0.0
C241 C 0.97994 0.71325 0.6954 0.0
C242 C 0.97446 0.71058 0.67572 0.0
C243 C 0.06306 0.68226 0.68389 0.0
N244 N 0.03598 0.69569 0.70048 0.0
O245 O 0.16515 0.71466 0.65132 0.0
H246 H 0.93572 0.72456 0.6677 0.0
H247 H 0.11126 0.66963 0.68324 0.0
O248 O 1.01655 0.57517 0.64402 0.0
C249 C 0.21414 0.78862 0.65419 0.0
O250 O 0.18565 0.83712 0.65577 0.0
N251 N 0.96742 0.68148 0.63224 0.0
C252 C 0.86475 0.69884 0.60725 0.0
C253 C 0.86663 0.62763 0.60783 0.0
C254 C 0.91901 0.62048 0.62021 0.0
C255 C 0.96567 0.75081 0.63198 0.0
C256 C 0.91319 0.75993 0.62005 0.0
H257 H 0.92622 0.56932 0.6184 0.0
H258 H 1.00892 0.80127 0.64023 0.0
H259 H 0.07095 0.57706 0.6124 0.0
H260 H 0.21076 0.78769 0.58135 0.0
H261 H 0.95033 0.7337 0.7051 0.0
H262 H 0.83392 0.58065 0.5975 0.0
H263 H 0.91486 0.81655 0.61982 0.0
C264 C 0.38165 0.08569 0.76676 0.0
C265 C 0.42471 0.10063 0.75006 0.0
N266 N 0.49059 0.09689 0.75401 0.0
N267 N 0.42045 0.07245 0.78099 0.0
C268 C 0.4873 0.0814 0.77289 0.0
H269 H 0.32459 0.0822 0.76834 0.0
Co270 Co 0.38361 0.04287 0.80556 0.0
C271 C 0.45693 0.9492 0.81997 0.0
O272 O 0.39224 0.90508 0.83002 0.0
N273 N 0.34424 1.01446 0.83085 0.0
C274 C 0.26628 0.96717 0.85664 0.0
C275 C 0.27209 0.95752 0.83729 0.0
C276 C 0.38159 0.05612 0.84678 0.0
N277 N 0.33483 0.03018 0.8625 0.0
O278 O 0.45849 0.15072 0.81348 0.0
H279 H 0.22473 0.91278 0.82868 0.0
H280 H 0.4415 0.10632 0.84682 0.0
O281 O 0.46276 1.00832 0.81038 0.0
C282 C 0.43306 0.20006 0.81353 0.0
O283 O 0.35666 0.17244 0.81092 0.0
N284 N 0.3089 0.94197 0.79586 0.0
C285 C 0.20358 0.8241 0.7708 0.0
C286 C 0.27716 0.83121 0.77506 0.0
C287 C 0.3298 0.89177 0.78717 0.0
C288 C 0.23601 0.9337 0.7924 0.0
C289 C 0.18181 0.87431 0.78014 0.0
H290 H 0.38979 0.90275 0.78754 0.0
H291 H 0.22224 0.97731 0.7981 0.0
H292 H 0.5325 0.07608 0.7806 0.0
H293 H 0.40744 0.1102 0.73599 0.0
H294 H 0.21383 0.93366 0.86544 0.0
H295 H 0.29699 0.79517 0.76762 0.0
H296 H 0.1267 0.8727 0.77664 0.0
C297 C 0.27586 0.40861 0.93705 0.0
C298 C 0.30509 0.45157 0.92039 0.0
N299 N 0.38369 0.4783 0.91978 0.0
N300 N 0.33632 0.4098 0.94684 0.0
C301 C 0.40099 0.45156 0.93577 0.0
H302 H 0.21491 0.38016 0.94198 0.0
Co303 Co 0.32944 0.36933 0.97098 0.0
C304 C 0.49844 0.4439 -0.01443 0.0
O305 O 0.47797 0.38367 -0.00274 0.0
N306 N 0.31875 0.32695 -0.00443 0.0
C307 C 0.27544 0.24385 0.02037 0.0
C308 C 0.28681 0.24993 0.00085 0.0
C309 C 0.32732 0.36635 0.01218 0.0
N310 N 0.30044 0.31709 0.02741 0.0
O311 O 0.30183 0.44625 0.98027 0.0
H312 H 0.26748 0.20013 -0.00881 0.0
H313 H 0.34903 0.42963 0.01297 0.0
O314 O 0.44483 0.44568 0.97518 0.0
C315 C 0.22801 0.42343 0.98229 0.0
O316 O 0.17643 0.34672 0.98211 0.0
N317 N 0.34943 0.29216 0.96028 0.0
C318 C 0.35475 0.18752 0.93386 0.0
C319 C 0.42503 0.25006 0.94139 0.0
C320 C 0.42125 0.30265 0.95436 0.0
C321 C 0.2805 0.22809 0.95404 0.0
C322 C 0.28172 0.17429 0.94094 0.0
H323 H 0.47636 0.35508 0.95776 0.0
H324 H 0.2241 0.22226 0.95818 0.0
H325 H 0.46025 0.46436 0.93953 0.0
H326 H 0.27167 0.46287 0.90968 0.0
H327 H 0.24456 0.18915 0.0285 0.0
H328 H 0.4824 0.26245 0.93593 0.0
H329 H 0.22622 0.12723 0.93513 0.0
C330 C 0.89925 0.27113 0.10936 0.0
C331 C 0.88241 0.29671 0.09256 0.0
N332 N 0.92921 0.37634 0.09167 0.0
N333 N 0.95533 0.33462 0.11906 0.0
C334 C 0.97281 0.39776 0.10786 0.0
H335 H 0.87224 0.2102 0.11423 0.0
Co336 Co 0.99654 0.33028 0.14249 0.0
C337 C 0.0931 0.50004 0.15684 0.0
O338 O 0.1304 0.47973 0.16929 0.0
N339 N 0.03728 0.32193 0.16643 0.0
C340 C 0.10501 0.2997 0.18903 0.0
C341 C 0.10034 0.31175 0.1698 0.0
C342 C 1.00532 0.31651 0.18401 0.0
N343 N 0.04513 0.30264 0.19788 0.0
O344 O 0.89553 0.3046 0.15371 0.0
H345 H 0.13981 0.31054 0.15907 0.0
H346 H 0.95145 0.31852 0.18662 0.0
O347 O 0.03815 0.44626 0.14633 0.0
C348 C 0.84336 0.23066 0.15491 0.0
O349 O 0.867 0.17824 0.1533 0.0
N350 N 0.08905 0.34847 0.12978 0.0
C351 C 0.19014 0.35081 0.10126 0.0
C352 C 0.20154 0.42201 0.10921 0.0
C353 C 0.14955 0.41972 0.12331 0.0
C354 C 0.08128 0.2787 0.12325 0.0
C355 C 0.13169 0.27844 0.10903 0.0
H356 H 0.15491 0.4754 0.12749 0.0
H357 H 0.0318 0.22287 0.12813 0.0
H358 H 1.01606 0.45831 0.11155 0.0
H359 H 0.83954 0.25976 0.0818 0.0
H360 H 0.1469 0.28628 0.1959 0.0
H361 H 0.24621 0.47897 0.10348 0.0
H362 H 0.12064 0.22223 0.10306 0.0
C363 C 0.6896 0.92018 0.27498 0.0
C364 C 0.64613 0.8979 0.2583 0.0
N365 N 0.59559 0.92643 0.25879 0.0
N366 N 0.66592 0.96173 0.28594 0.0
C367 C 0.60851 0.96442 0.27575 0.0
H368 H 0.73483 0.90606 0.27904 0.0
Co369 Co 0.70502 0.99904 0.31004 0.0
C370 C 0.64984 0.11301 0.32003 0.0
O371 O 0.71969 0.15812 0.32792 0.0
N372 N 0.74666 0.03477 0.33512 0.0
C373 C 0.82745 0.08842 0.36035 0.0
C374 C 0.81811 0.09536 0.34101 0.0
C375 C 0.71313 0.99416 0.35144 0.0
N376 N 0.7618 0.02358 0.36672 0.0
O377 O 0.62424 0.89628 0.31977 0.0
H378 H 0.86259 0.14104 0.33197 0.0
H379 H 0.65499 0.94153 0.35215 0.0
O380 O 0.63381 0.04542 0.3129 0.0
C381 C 0.64836 0.84581 0.3204 0.0
O382 O 0.72447 0.8723 0.31757 0.0
N383 N 0.78572 0.0919 0.29858 0.0
C384 C 0.89805 0.18687 0.27122 0.0
C385 C 0.82723 0.18859 0.27334 0.0
C386 C 0.77126 0.13982 0.28691 0.0
C387 C 0.85596 0.09228 0.29724 0.0
C388 C 0.91404 0.14117 0.28406 0.0
H389 H 0.71338 0.1345 0.28631 0.0
H390 H 0.86474 0.0504 0.3056 0.0
H391 H 0.57716 0.99426 0.28052 0.0
H392 H 0.65024 0.86191 0.24699 0.0
H393 H 0.88036 0.12498 0.36876 0.0
H394 H 0.81161 0.22124 0.26334 0.0
H395 H 0.9683 0.13854 0.28295 0.0
C396 C 0.46801 0.13011 0.30634 0.0
C397 C 0.49194 0.21032 0.31042 0.0
C398 C 0.51911 0.09922 0.30931 0.0
C399 C 0.59621 0.14683 0.31678 0.0
H400 H 0.4085 0.09018 0.30108 0.0
H401 H 0.49736 0.03712 0.30601 0.0
S402 S 0.6887 0.36172 0.32949 0.0
N403 N 0.59883 0.33716 0.32191 0.0
N404 N 0.69457 0.28004 0.32767 0.0
C405 C 0.62137 0.22776 0.32061 0.0
C406 C 0.56953 0.25925 0.31735 0.0
C407 C 0.36566 0.45864 0.46902 0.0
C408 C 0.30919 0.47945 0.47518 0.0
C409 C 0.44649 0.50396 0.47421 0.0
C410 C 0.47445 0.57149 0.48611 0.0
H411 H 0.34693 0.40586 0.46033 0.0
H412 H 0.48708 0.48516 0.46901 0.0
S413 S 0.34989 0.64993 0.50669 0.0
N414 N 0.28692 0.57189 0.49394 0.0
N415 N 0.43727 0.65612 0.50405 0.0
C416 C 0.41823 0.59294 0.49235 0.0
C417 C 0.33627 0.54742 0.48678 0.0
C418 C 0.96176 0.40702 0.63823 0.0
C419 C 0.91505 0.43562 0.64672 0.0
C420 C 0.92986 0.32553 0.63407 0.0
C421 C 0.84948 0.26913 0.63787 0.0
H422 H 1.0239 0.44759 0.63505 0.0
H423 H 0.96901 0.30637 0.62806 0.0
S424 S 0.70043 0.31236 0.65944 0.0
N425 N 0.78272 0.39982 0.65839 0.0
N426 N 0.72364 0.24812 0.65033 0.0
C427 C 0.80153 0.29706 0.64585 0.0
C428 C 0.83407 0.37971 0.65036 0.0
C429 C 0.48428 0.83566 0.81867 0.0
C430 C 0.5112 0.91727 0.81575 0.0
C431 C 0.53164 0.80208 0.814 0.0
C432 C 0.60851 0.84865 0.80635 0.0
H433 H 0.4256 0.79676 0.82452 0.0
H434 H 0.50849 0.73949 0.81695 0.0
S435 S 0.70752 0.06527 0.79573 0.0
N436 N 0.62 0.04355 0.80455 0.0
N437 N 0.70898 0.98095 0.79575 0.0
C438 C 0.63599 0.93021 0.80316 0.0
C439 C 0.58749 0.96431 0.80785 0.0
C440 C 0.72196 0.52109 0.98261 0.0
C441 C 0.75135 0.59073 0.97154 0.0
C442 C 0.64079 0.47545 -0.01271 0.0
C443 C 0.58484 0.49668 0.98096 0.0
H444 H 0.76239 0.50313 -0.01165 0.0
H445 H 0.62197 0.4228 -0.00401 0.0
S446 S 0.63065 0.6715 0.95056 0.0
N447 N 0.71772 0.67742 0.95375 0.0
N448 N 0.56534 0.59136 0.96234 0.0
C449 C 0.61326 0.56522 0.96945 0.0
C450 C 0.69623 0.61216 0.96482 0.0
C451 C 0.24195 0.72288 0.15375 0.0
C452 C 0.20219 0.75274 0.14273 0.0
C453 C 0.20555 0.64165 0.15839 0.0
C454 C 0.12795 0.58631 0.15208 0.0
H455 H 0.30052 0.76299 0.15951 0.0
H456 H 0.23895 0.62231 0.16705 0.0
S457 S 0.99999 0.63373 0.12183 0.0
N458 N 0.08217 0.72027 0.12489 0.0
N459 N 1.01373 0.56797 0.13366 0.0
C460 C 0.08832 0.61524 0.14062 0.0
C461 C 0.12538 0.69816 0.13595 0.0
C462 C 0.97835 0.55717 0.49435 0.0
C463 C 0.9503 0.49863 0.47992 0.0
C464 C 0.93536 0.59507 0.4996 0.0
C465 C 0.86131 0.57388 0.49114 0.0
H466 H 0.03565 0.57652 0.50096 0.0
H467 H 0.96161 0.64328 0.50992 0.0
S468 S 0.75749 0.41651 0.45436 0.0
N469 N 0.84163 0.41705 0.45824 0.0
N470 N 0.75913 0.48493 0.46878 0.0
C471 C 0.83025 0.51138 0.47766 0.0
C472 C 0.87524 0.47476 0.47186 0.0
C473 C 0.35514 0.89805 0.65904 0.0
C474 C 0.30108 0.82407 0.65068 0.0
C475 C 0.43544 0.94093 0.65329 0.0
C476 C 0.46408 0.91283 0.63844 0.0
H477 H 0.33471 0.92401 0.66982 0.0
H478 H 0.47455 0.9978 0.66 0.0
S479 S 0.34909 0.72017 0.61276 0.0
N480 N 0.28419 0.7223 0.62773 0.0
N481 N 0.43357 0.80391 0.61642 0.0
C482 C 0.4114 0.83792 0.63037 0.0
C483 C 0.33039 0.79325 0.63662 0.0
C484 C 0.61577 0.39983 0.80214 0.0
C485 C 0.59177 0.45576 0.80659 0.0
C486 C 0.56578 0.31792 0.80534 0.0
C487 C 0.48895 0.28774 0.81295 0.0
H488 H 0.67391 0.41918 0.79601 0.0
H489 H 0.58668 0.27773 0.80117 0.0
S490 S 0.39807 0.40791 0.82825 0.0
N491 N 0.48644 0.47432 0.81993 0.0
N492 N 0.39239 0.32056 0.82579 0.0
C493 C 0.46457 0.34279 0.8179 0.0
C494 C 0.51585 0.42653 0.81478 0.0
C495 C 0.121 0.45922 -0.01344 0.0
C496 C 0.19815 0.48043 0.98023 0.0
C497 C 0.08729 0.50727 0.98265 0.0
C498 C 0.12873 0.57803 0.97194 0.0
H499 H 0.08592 0.40448 -0.00552 0.0
H500 H 0.02805 0.48839 -0.01202 0.0
S501 S 0.33278 0.65968 0.95177 0.0
N502 N 0.31511 0.57725 0.96276 0.0
N503 N 0.25225 0.66645 0.95506 0.0
C504 C 0.20626 0.59985 0.96556 0.0
C505 C 0.24085 0.55157 0.96982 0.0
C506 C 0.69976 0.12444 0.1586 0.0
C507 C 0.75669 0.20255 0.15308 0.0
C508 C 0.61815 0.09236 0.1547 0.0
C509 C 0.58986 0.13652 0.14482 0.0
H510 H 0.71855 0.08723 0.16581 0.0
H511 H 0.57715 0.0321 0.15929 0.0
S512 S 0.71522 0.34337 0.12654 0.0
N513 N 0.77898 0.32286 0.13698 0.0
N514 N 0.62706 0.26317 0.12936 0.0
C515 C 0.64653 0.21491 0.1392 0.0
C516 C 0.72933 0.24777 0.14343 0.0
C517 C 0.45778 0.64491 0.3157 0.0
C518 C 0.48422 0.58914 0.31688 0.0
C519 C 0.51022 0.72718 0.31775 0.0
C520 C 0.59187 0.75791 0.321 0.0
H521 H 0.39575 0.62515 0.31296 0.0
H522 H 0.48674 0.76705 0.31618 0.0
S523 S 0.69183 0.63805 0.32613 0.0
N524 N 0.59773 0.57119 0.32219 0.0
N525 N 0.69629 0.72521 0.32611 0.0
C526 C 0.61894 0.70278 0.32276 0.0
C527 C 0.56531 0.6188 0.32069 0.0
C528 C 0.56559 0.45007 0.41907 0.0
C529 C 0.64313 0.51075 0.41443 0.0
C530 C 0.51409 0.3989 0.40498 0.0
C531 C 0.53817 0.40639 0.38572 0.0
H532 H 0.5442 0.44223 0.4337 0.0
H533 H 0.45415 0.35479 0.4091 0.0
S534 S 0.73684 0.55051 0.36623 0.0
N535 N 0.7423 0.57314 0.38922 0.0
N536 N 0.64628 0.4745 0.36291 0.0
C537 C 0.61636 0.46461 0.38097 0.0
C538 C 0.66872 0.51726 0.39528 0.0
C539 C 0.17393 0.59403 0.54488 0.0
C540 C 0.17185 0.52269 0.54978 0.0
C541 C 0.16927 0.64293 0.55892 0.0
C542 C 0.16285 0.62257 0.57841 0.0
H543 H 0.17628 0.61077 0.52998 0.0
H544 H 0.1667 0.69491 0.5544 0.0
S545 S 0.1685 0.44927 0.59906 0.0
N546 N 0.17081 0.43817 0.57561 0.0
N547 N 0.1665 0.53255 0.60215 0.0
C548 C 0.16728 0.55485 0.58364 0.0
C549 C 0.17101 0.50441 0.56929 0.0
C550 C 0.62432 0.15514 0.71105 0.0
C551 C 0.65646 0.10484 0.71257 0.0
C552 C 0.57134 0.15354 0.72491 0.0
C553 C 0.54829 0.10076 0.74052 0.0
H554 H 0.63965 0.19503 0.69892 0.0
H555 H 0.54762 0.19318 0.72334 0.0
S556 S 0.61004 0.95094 0.74949 0.0
N557 N 0.65939 0.9985 0.73002 0.0
N558 N 0.55774 0.99307 0.75585 0.0
C559 C 0.57979 0.04958 0.74202 0.0
C560 C 0.63445 0.05219 0.72806 0.0
C561 C 0.55355 0.56089 0.88531 0.0
C562 C 0.55787 0.6322 0.87954 0.0
C563 C 0.49604 0.51056 0.89846 0.0
C564 C 0.43996 0.52915 0.9058 0.0
H565 H 0.59534 0.54447 0.87966 0.0
H566 H 0.49469 0.4564 0.90284 0.0
S567 S 0.42571 0.70822 0.89492 0.0
N568 N 0.50184 0.71905 0.88196 0.0
N569 N 0.39222 0.62327 0.90657 0.0
C570 C 0.44325 0.59991 0.90003 0.0
C571 C 0.50282 0.65193 0.88692 0.0
C572 C 0.857 0.41243 0.06858 0.0
C573 C 0.9292 0.42809 0.07699 0.0
C574 C 0.85526 0.46262 0.05445 0.0
C575 C 0.92577 0.52912 0.0481 0.0
H576 H 0.80144 0.36165 0.07315 0.0
H577 H 0.79875 0.44888 0.04821 0.0
S578 S 0.12963 0.59796 0.06581 0.0
N579 N 0.07281 0.51603 0.07814 0.0
N580 N 0.06896 0.61011 0.05146 0.0
C581 C 0.99819 0.54585 0.0564 0.0
C582 C 1.00005 0.49541 0.07092 0.0
C583 C 0.46729 0.91416 0.24989 0.0
C584 C 0.53941 0.91914 0.2444 0.0
C585 C 0.41388 0.91227 0.23618 0.0
C586 C 0.43074 0.91535 0.21651 0.0
H587 H 0.45229 0.91239 0.26492 0.0
H588 H 0.3602 0.91086 0.24102 0.0
S589 S 0.60889 0.92342 0.19456 0.0
N590 N 0.62394 0.92526 0.2179 0.0
N591 N 0.52153 0.91735 0.19212 0.0
C592 C 0.50116 0.91724 0.21079 0.0
C593 C 0.55596 0.92006 0.22474 0.0
C594 C 0.37791 0.29706 0.21412 0.0
C595 C 0.32219 0.21804 0.20903 0.0
C596 C 0.37327 0.32858 0.2319 0.0
C597 C 0.3125 0.28222 0.24495 0.0
H598 H 0.4263 0.334 0.20448 0.0
H599 H 0.41785 0.38891 0.23564 0.0
S600 S 0.15613 0.07151 0.23941 0.0
N601 N 0.207 0.09339 0.21916 0.0
N602 N 0.19771 0.15423 0.25223 0.0
C603 C 0.25618 0.204 0.24004 0.0
C604 C 0.26109 0.17149 0.22213 0.0
C605 C 0.10837 0.37606 0.3805 0.0
C606 C 0.1113 0.30978 0.37318 0.0
C607 C 0.07129 0.37198 0.39803 0.0
C608 C 0.03352 0.30091 0.40847 0.0
H609 H 0.13913 0.43294 0.37322 0.0
H610 H 0.0752 0.42547 0.40394 0.0
S611 S 1.01342 0.10763 0.3949 0.0
N612 N 0.06651 0.1686 0.37741 0.0
N613 N 0.99311 0.16122 0.40983 0.0
C614 C 0.02917 0.23249 0.40065 0.0
C615 C 0.06864 0.2367 0.38304 0.0
C616 C 0.721 0.04467 0.55778 0.0
C617 C 0.75874 1.01294 0.56881 0.0
C618 C 0.75569 0.08612 0.54079 0.0
C619 C 0.82999 0.09833 0.53453 0.0
H620 H 0.66601 0.03999 0.56279 0.0
H621 H 0.72609 0.11214 0.53299 0.0
S622 S 0.95206 0.02653 0.55893 0.0
N623 N 0.87181 0.99377 0.57246 0.0
N624 N 0.93931 0.07395 0.54087 0.0
C625 C 0.86657 0.06384 0.5452 0.0
C626 C 0.83044 0.02076 0.56232 0.0
C627 C 0.68967 0.78411 0.73513 0.0
C628 C 0.72306 0.73477 0.73667 0.0
C629 C 0.67779 0.80859 0.71723 0.0
C630 C 0.69864 0.78446 0.70019 0.0
H631 H 0.67606 0.80695 0.7479 0.0
H632 H 0.65513 0.84946 0.71675 0.0
S633 S 0.77576 0.64509 0.69636 0.0
N634 N 0.76875 0.65562 0.71971 0.0
N635 N 0.74636 0.70214 0.68582 0.0
C636 C 0.72856 0.73219 0.70145 0.0
C637 C 0.74071 0.70715 0.71975 0.0
C638 C 1.007 0.81178 0.89733 0.0
C639 C 1.01525 0.75248 0.90677 0.0
C640 C 0.97586 0.79978 0.87877 0.0
C641 C 0.95259 0.72826 0.86877 0.0
H642 H 1.02076 0.86627 0.90475 0.0
H643 H 0.96587 0.84537 0.87271 0.0
S644 S 0.97484 0.55979 0.88613 0.0
N645 N 1.00593 0.62341 0.90423 0.0
N646 N 0.94921 0.60119 0.86897 0.0
C647 C 0.96548 0.67052 0.87762 0.0
C648 C 0.9963 0.6825 0.8967 0.0
C649 C 0.24746 0.90203 0.07529 0.0
C650 C 0.29316 0.9854 0.07675 0.0
C651 C 0.21726 0.86498 0.05765 0.0
C652 C 0.23157 0.90987 0.0408 0.0
H653 H 0.23179 0.86522 0.08801 0.0
H654 H 0.17954 0.80078 0.05734 0.0
S655 S 0.35716 0.12876 0.03647 0.0
N656 N 0.35809 0.11123 0.05964 0.0
N657 N 0.30036 0.04116 0.02627 0.0
C658 C 0.27994 0.99294 0.04186 0.0
C659 C 0.31101 0.03081 0.05989 0.0
C660 C 0.84175 0.79739 0.56294 0.0
C661 C 0.76974 0.73807 0.55508 0.0
C662 C 0.8694 0.78609 0.58047 0.0
C663 C 0.82584 0.71486 0.59088 0.0
H664 H 0.87941 0.85085 0.55486 0.0
H665 H 0.92777 0.83164 0.58524 0.0
S666 S 0.62773 0.54582 0.57763 0.0
N667 N 0.65156 0.6091 0.55963 0.0
N668 N 0.7025 0.58771 0.59297 0.0
C669 C 0.75116 0.65698 0.58371 0.0
C670 C 0.72341 0.66851 0.56571 0.0
C671 C 0.20049 0.79312 0.73616 0.0
C672 C 0.15927 0.77868 0.75365 0.0
C673 C 0.15995 0.76174 0.71897 0.0
C674 C 0.07661 0.71501 0.71859 0.0
H675 H 0.26433 0.83265 0.73556 0.0
H676 H 0.19382 0.77821 0.70575 0.0
S677 S 0.94227 0.64883 0.76074 0.0
N678 N 0.03161 0.70713 0.76988 0.0
N679 N 0.95485 0.64807 0.73729 0.0
C680 C 0.03492 0.69625 0.73606 0.0
C681 C 0.07638 0.72817 0.75366 0.0
C682 C 0.31541 0.02627 0.89756 0.0
C683 C 0.3478 0.07042 0.88063 0.0
C684 C 0.31972 0.06425 0.91503 0.0
C685 C 0.35728 0.14757 0.9161 0.0
H686 H 0.28522 0.96188 0.89719 0.0
H687 H 0.29251 0.02839 0.92769 0.0
S688 S 0.44601 0.29026 0.87581 0.0
N689 N 0.41473 0.20205 0.866 0.0
N690 N 0.42438 0.27306 0.89884 0.0
C691 C 0.39044 0.19243 0.89937 0.0
C692 C 0.38547 0.15397 0.88161 0.0
C693 C 0.29241 0.29766 0.06242 0.0
C694 C 0.28237 0.3345 0.04615 0.0
C695 C 0.26572 0.30592 0.08052 0.0
C696 C 0.22827 0.35137 0.08287 0.0
H697 H 0.3193 0.26069 0.06099 0.0
H698 H 0.27254 0.27502 0.09265 0.0
S699 S 0.18232 0.45449 0.0445 0.0
N700 N 0.22941 0.41498 0.03341 0.0
N701 N 0.17958 0.43083 0.06733 0.0
C702 C 0.21877 0.38921 0.06673 0.0
C703 C 0.2458 0.38074 0.04838 0.0
C704 C 1.00003 0.32479 0.2291 0.0
C705 C 1.01795 0.27775 0.2171 0.0
C706 C 0.96553 0.29711 0.2472 0.0
C707 C 0.94691 0.22101 0.2537 0.0
H708 H 1.01139 0.38253 0.22424 0.0
H709 H 0.95099 0.33436 0.25591 0.0
S710 S 0.97703 0.07318 0.22665 0.0
N711 N 1.01331 0.15175 0.21249 0.0
N712 N 0.94619 0.0981 0.24614 0.0
C713 C 0.96555 0.17395 0.24178 0.0
C714 C 1.00155 0.2027 0.22354 0.0
C715 C 0.77803 0.02756 0.40194 0.0
C716 C 0.75288 0.9839 0.38471 0.0
C717 C 0.77047 0.98917 0.41954 0.0
C718 C 0.73732 0.90614 0.42031 0.0
H719 H 0.80318 0.09152 0.40177 0.0
H720 H 0.79005 0.0243 0.43257 0.0
S721 S 0.6741 0.76676 0.37903 0.0
N722 N 0.70197 0.8545 0.36941 0.0
N723 N 0.6866 0.78266 0.40237 0.0
C724 C 0.71446 0.86239 0.40314 0.0
C725 C 0.72245 0.9012 0.38534 0.0
loop_
_geom_bond_atom_site_label_1
_geom_bond_atom_site_label_2
_geom_bond_distance
_geom_bond_site_symmetry_2
_ccdc_geom_bond_type
C0 C1 1.351 . S
C0 N3 1.368 . S
C0 H5 0.931 . S
C1 C0 1.351 . S
C1 N2 1.373 . S
C1 H29 0.930 . S
N2 C1 1.373 . S
N2 C4 1.340 . S
N3 C0 1.368 . S
N3 C4 1.321 . S
N3 Co6 2.135 . S
C4 N2 1.340 . S
C4 N3 1.321 . S
C4 H28 0.930 . S
H5 C0 0.931 . S
Co6 N3 2.135 . S
Co6 N9 2.121 . S
Co6 O14 2.055 . S
Co6 O17 2.039 . S
Co6 N20 2.140 . S
C7 O8 1.227 . S
C7 O17 1.265 . S
O8 C7 1.227 . S
N9 Co6 2.121 . S
N9 C11 1.375 . S
N9 C12 1.313 . S
C10 C11 1.338 . S
C10 N13 1.377 . S
C10 H30 0.930 . S
C11 N9 1.375 . S
C11 C10 1.338 . S
C11 H15 0.931 . S
C12 N9 1.313 . S
C12 N13 1.344 . S
C12 H16 0.930 . S
N13 C10 1.377 . S
N13 C12 1.344 . S
O14 Co6 2.055 . S
O14 C18 1.253 . S
H15 C11 0.931 . S
H16 C12 0.930 . S
O17 Co6 2.039 . S
O17 C7 1.265 . S
C18 O14 1.253 . S
C18 O19 1.227 . S
O19 C18 1.227 . S
N20 Co6 2.140 . S
N20 C23 1.346 . S
N20 C24 1.345 . S
C21 C22 1.387 . S
C21 C25 1.391 . S
C22 C21 1.387 . S
C22 C23 1.369 . S
C22 H31 0.929 . S
C23 N20 1.346 . S
C23 C22 1.369 . S
C23 H26 0.928 . S
C24 N20 1.345 . S
C24 C25 1.371 . S
C24 H27 0.931 . S
C25 C21 1.391 . S
C25 C24 1.371 . S
C25 H32 0.930 . S
H26 C23 0.928 . S
H27 C24 0.931 . S
H28 C4 0.930 . S
H29 C1 0.930 . S
H30 C10 0.930 . S
H31 C22 0.929 . S
H32 C25 0.930 . S
C33 C34 1.351 . S
C33 N36 1.368 . S
C33 H38 0.931 . S
C34 C33 1.351 . S
C34 N35 1.373 . S
C34 H62 0.930 . S
N35 C34 1.373 . S
N35 C37 1.340 . S
N36 C33 1.368 . S
N36 C37 1.321 . S
N36 Co39 2.135 . S
C37 N35 1.340 . S
C37 N36 1.321 . S
C37 H61 0.930 1_455 S
H38 C33 0.931 . S
Co39 N36 2.135 . S
Co39 N42 2.121 . S
Co39 O47 2.055 . S
Co39 O50 2.039 1_455 S
Co39 N53 2.140 1_455 S
C40 O41 1.227 . S
C40 O50 1.265 . S
O41 C40 1.227 . S
N42 Co39 2.121 . S
N42 C44 1.375 1_455 S
N42 C45 1.313 . S
C43 C44 1.338 . S
C43 N46 1.377 1_655 S
C43 H63 0.930 . S
C44 N42 1.375 1_655 S
C44 C43 1.338 . S
C44 H48 0.931 . S
C45 N42 1.313 . S
C45 N46 1.344 . S
C45 H49 0.930 . S
N46 C43 1.377 1_455 S
N46 C45 1.344 . S
O47 Co39 2.055 . S
O47 C51 1.253 . S
H48 C44 0.931 . S
H49 C45 0.930 . S
O50 Co39 2.039 1_655 S
O50 C40 1.265 . S
C51 O47 1.253 . S
C51 O52 1.227 . S
O52 C51 1.227 . S
N53 Co39 2.140 1_655 S
N53 C56 1.346 . S
N53 C57 1.345 . S
C54 C55 1.387 . S
C54 C58 1.391 . S
C55 C54 1.387 . S
C55 C56 1.369 . S
C55 H64 0.929 . S
C56 N53 1.346 . S
C56 C55 1.369 . S
C56 H59 0.928 . S
C57 N53 1.345 . S
C57 C58 1.371 . S
C57 H60 0.931 1_655 S
C58 C54 1.391 . S
C58 C57 1.371 . S
C58 H65 0.930 . S
H59 C56 0.928 . S
H60 C57 0.931 1_455 S
H61 C37 0.930 1_655 S
H62 C34 0.930 . S
H63 C43 0.930 . S
H64 C55 0.929 . S
H65 C58 0.930 . S
C66 C67 1.351 . S
C66 N69 1.368 . S
C66 H71 0.931 . S
C67 C66 1.351 . S
C67 N68 1.373 . S
C67 H95 0.930 . S
N68 C67 1.373 . S
N68 C70 1.340 . S
N69 C66 1.368 . S
N69 C70 1.321 . S
N69 Co72 2.135 . S
C70 N68 1.340 . S
C70 N69 1.321 . S
C70 H94 0.930 1_545 S
H71 C66 0.931 . S
Co72 N69 2.135 . S
Co72 N75 2.121 . S
Co72 O80 2.055 . S
Co72 O83 2.039 1_545 S
Co72 N86 2.140 1_545 S
C73 O74 1.227 . S
C73 O83 1.265 . S
O74 C73 1.227 . S
N75 Co72 2.121 . S
N75 C77 1.375 1_545 S
N75 C78 1.313 . S
C76 C77 1.338 . S
C76 N79 1.377 1_565 S
C76 H96 0.930 . S
C77 N75 1.375 1_565 S
C77 C76 1.338 . S
C77 H81 0.931 . S
C78 N75 1.313 . S
C78 N79 1.344 . S
C78 H82 0.930 . S
N79 C76 1.377 1_545 S
N79 C78 1.344 . S
O80 Co72 2.055 . S
O80 C84 1.253 . S
H81 C77 0.931 . S
H82 C78 0.930 . S
O83 Co72 2.039 1_565 S
O83 C73 1.265 . S
C84 O80 1.253 . S
C84 O85 1.227 . S
O85 C84 1.227 . S
N86 Co72 2.140 1_565 S
N86 C89 1.346 . S
N86 C90 1.345 . S
C87 C88 1.387 . S
C87 C91 1.391 . S
C88 C87 1.387 . S
C88 C89 1.369 . S
C88 H97 0.929 . S
C89 N86 1.346 . S
C89 C88 1.369 . S
C89 H92 0.928 . S
C90 N86 1.345 . S
C90 C91 1.371 . S
C90 H93 0.931 1_565 S
C91 C87 1.391 . S
C91 C90 1.371 . S
C91 H98 0.930 . S
H92 C89 0.928 . S
H93 C90 0.931 1_545 S
H94 C70 0.930 1_565 S
H95 C67 0.930 . S
H96 C76 0.930 . S
H97 C88 0.929 . S
H98 C91 0.930 . S
C99 C100 1.351 . S
C99 N102 1.368 . S
C99 H104 0.931 . S
C100 C99 1.351 . S
C100 N101 1.373 . S
C100 H128 0.930 . S
N101 C100 1.373 . S
N101 C103 1.340 . S
N102 C99 1.368 . S
N102 C103 1.321 . S
N102 Co105 2.135 . S
C103 N101 1.340 . S
C103 N102 1.321 . S
C103 H127 0.930 . S
H104 C99 0.931 . S
Co105 N102 2.135 . S
Co105 N108 2.121 . S
Co105 O113 2.055 . S
Co105 O116 2.039 . S
Co105 N119 2.140 . S
C106 O107 1.227 . S
C106 O116 1.265 . S
O107 C106 1.227 . S
N108 Co105 2.121 . S
N108 C110 1.375 . S
N108 C111 1.313 . S
C109 C110 1.338 . S
C109 N112 1.377 . S
C109 H129 0.930 . S
C110 N108 1.375 . S
C110 C109 1.338 . S
C110 H114 0.931 . S
C111 N108 1.313 . S
C111 N112 1.344 . S
C111 H115 0.930 . S
N112 C109 1.377 . S
N112 C111 1.344 . S
O113 Co105 2.055 . S
O113 C117 1.253 . S
H114 C110 0.931 . S
H115 C111 0.930 . S
O116 Co105 2.039 . S
O116 C106 1.265 . S
C117 O113 1.253 . S
C117 O118 1.227 . S
O118 C117 1.227 . S
N119 Co105 2.140 . S
N119 C122 1.346 . S
N119 C123 1.345 . S
C120 C121 1.387 . S
C120 C124 1.391 . S
C121 C120 1.387 . S
C121 C122 1.369 . S
C121 H130 0.929 . S
C122 N119 1.346 . S
C122 C121 1.369 . S
C122 H125 0.928 . S
C123 N119 1.345 . S
C123 C124 1.371 . S
C123 H126 0.931 . S
C124 C120 1.391 . S
C124 C123 1.371 . S
C124 H131 0.930 . S
H125 C122 0.928 . S
H126 C123 0.931 . S
H127 C103 0.930 . S
H128 C100 0.930 . S
H129 C109 0.930 . S
H130 C121 0.929 . S
H131 C124 0.930 . S
C132 C133 1.351 . S
C132 N135 1.368 . S
C132 H137 0.931 . S
C133 C132 1.351 . S
C133 N134 1.373 . S
C133 H161 0.930 . S
N134 C133 1.373 . S
N134 C136 1.340 . S
N135 C132 1.368 . S
N135 C136 1.321 . S
N135 Co138 2.135 . S
C136 N134 1.340 . S
C136 N135 1.321 . S
C136 H160 0.930 1_655 S
H137 C132 0.931 . S
Co138 N135 2.135 . S
Co138 N141 2.121 1_554 S
Co138 O146 2.055 1_554 S
Co138 O149 2.039 1_654 S
Co138 N152 2.140 1_655 S
C139 O140 1.227 1_556 S
C139 O149 1.265 . S
O140 C139 1.227 1_554 S
N141 Co138 2.121 1_556 S
N141 C143 1.375 1_655 S
N141 C144 1.313 . S
C142 C143 1.338 . S
C142 N145 1.377 1_455 S
C142 H162 0.930 . S
C143 N141 1.375 1_455 S
C143 C142 1.338 . S
C143 H147 0.931 . S
C144 N141 1.313 . S
C144 N145 1.344 . S
C144 H148 0.930 . S
N145 C142 1.377 1_655 S
N145 C144 1.344 . S
O146 Co138 2.055 1_556 S
O146 C150 1.253 1_556 S
H147 C143 0.931 . S
H148 C144 0.930 . S
O149 Co138 2.039 1_456 S
O149 C139 1.265 . S
C150 O146 1.253 1_554 S
C150 O151 1.227 . S
O151 C150 1.227 . S
N152 Co138 2.140 1_455 S
N152 C155 1.346 . S
N152 C156 1.345 . S
C153 C154 1.387 . S
C153 C157 1.391 . S
C154 C153 1.387 . S
C154 C155 1.369 . S
C154 H163 0.929 . S
C155 N152 1.346 . S
C155 C154 1.369 . S
C155 H158 0.928 . S
C156 N152 1.345 . S
C156 C157 1.371 . S
C156 H159 0.931 1_455 S
C157 C153 1.391 . S
C157 C156 1.371 . S
C157 H164 0.930 . S
H158 C155 0.928 . S
H159 C156 0.931 1_655 S
H160 C136 0.930 1_455 S
H161 C133 0.930 . S
H162 C142 0.930 . S
H163 C154 0.929 . S
H164 C157 0.930 . S
C165 C166 1.351 . S
C165 N168 1.368 . S
C165 H170 0.931 . S
C166 C165 1.351 . S
C166 N167 1.373 . S
C166 H194 0.930 . S
N167 C166 1.373 . S
N167 C169 1.340 . S
N168 C165 1.368 . S
N168 C169 1.321 . S
N168 Co171 2.135 . S
C169 N167 1.340 . S
C169 N168 1.321 . S
C169 H193 0.930 1_565 S
H170 C165 0.931 . S
Co171 N168 2.135 . S
Co171 N174 2.121 . S
Co171 O179 2.055 . S
Co171 O182 2.039 1_565 S
Co171 N185 2.140 1_565 S
C172 O173 1.227 . S
C172 O182 1.265 . S
O173 C172 1.227 . S
N174 Co171 2.121 . S
N174 C176 1.375 1_565 S
N174 C177 1.313 . S
C175 C176 1.338 . S
C175 N178 1.377 1_545 S
C175 H195 0.930 . S
C176 N174 1.375 1_545 S
C176 C175 1.338 . S
C176 H180 0.931 . S
C177 N174 1.313 . S
C177 N178 1.344 . S
C177 H181 0.930 . S
N178 C175 1.377 1_565 S
N178 C177 1.344 . S
O179 Co171 2.055 . S
O179 C183 1.253 . S
H180 C176 0.931 . S
H181 C177 0.930 . S
O182 Co171 2.039 1_545 S
O182 C172 1.265 . S
C183 O179 1.253 . S
C183 O184 1.227 . S
O184 C183 1.227 . S
N185 Co171 2.140 1_545 S
N185 C188 1.346 . S
N185 C189 1.345 . S
C186 C187 1.387 . S
C186 C190 1.391 . S
C187 C186 1.387 . S
C187 C188 1.369 . S
C187 H196 0.929 . S
C188 N185 1.346 . S
C188 C187 1.369 . S
C188 H191 0.928 . S
C189 N185 1.345 . S
C189 C190 1.371 . S
C189 H192 0.931 1_545 S
C190 C186 1.391 . S
C190 C189 1.371 . S
C190 H197 0.930 . S
H191 C188 0.928 . S
H192 C189 0.931 1_565 S
H193 C169 0.930 1_545 S
H194 C166 0.930 . S
H195 C175 0.930 . S
H196 C187 0.929 . S
H197 C190 0.930 . S
C198 C199 1.351 . S
C198 N201 1.368 . S
C198 H203 0.931 . S
C199 C198 1.351 . S
C199 N200 1.373 . S
C199 H227 0.930 . S
N200 C199 1.373 . S
N200 C202 1.340 . S
N201 C198 1.368 . S
N201 C202 1.321 . S
N201 Co204 2.135 . S
C202 N200 1.340 . S
C202 N201 1.321 . S
C202 H226 0.930 . S
H203 C198 0.931 . S
Co204 N201 2.135 . S
Co204 N207 2.121 . S
Co204 O212 2.055 . S
Co204 O215 2.039 . S
Co204 N218 2.140 . S
C205 O206 1.227 . S
C205 O215 1.265 . S
O206 C205 1.227 . S
N207 Co204 2.121 . S
N207 C209 1.375 . S
N207 C210 1.313 . S
C208 C209 1.338 . S
C208 N211 1.377 . S
C208 H228 0.930 . S
C209 N207 1.375 . S
C209 C208 1.338 . S
C209 H213 0.931 . S
C210 N207 1.313 . S
C210 N211 1.344 . S
C210 H214 0.930 . S
N211 C208 1.377 . S
N211 C210 1.344 . S
O212 Co204 2.055 . S
O212 C216 1.253 . S
H213 C209 0.931 . S
H214 C210 0.930 . S
O215 Co204 2.039 . S
O215 C205 1.265 . S
C216 O212 1.253 . S
C216 O217 1.227 . S
O217 C216 1.227 . S
N218 Co204 2.140 . S
N218 C221 1.346 . S
N218 C222 1.345 . S
C219 C220 1.387 . S
C219 C223 1.391 . S
C220 C219 1.387 . S
C220 C221 1.369 . S
C220 H229 0.929 . S
C221 N218 1.346 . S
C221 C220 1.369 . S
C221 H224 0.928 . S
C222 N218 1.345 . S
C222 C223 1.371 . S
C222 H225 0.931 . S
C223 C219 1.391 . S
C223 C222 1.371 . S
C223 H230 0.930 . S
H224 C221 0.928 . S
H225 C222 0.931 . S
H226 C202 0.930 . S
H227 C199 0.930 . S
H228 C208 0.930 . S
H229 C220 0.929 . S
H230 C223 0.930 . S
C231 C232 1.351 . S
C231 N234 1.368 . S
C231 H236 0.931 . S
C232 C231 1.351 . S
C232 N233 1.373 . S
C232 H260 0.930 . S
N233 C232 1.373 . S
N233 C235 1.340 . S
N234 C231 1.368 . S
N234 C235 1.321 . S
N234 Co237 2.135 . S
C235 N233 1.340 . S
C235 N234 1.321 . S
C235 H259 0.930 1_455 S
H236 C231 0.931 . S
Co237 N234 2.135 . S
Co237 N240 2.121 . S
Co237 O245 2.055 . S
Co237 O248 2.039 1_455 S
Co237 N251 2.140 1_455 S
C238 O239 1.227 . S
C238 O248 1.265 . S
O239 C238 1.227 . S
N240 Co237 2.121 . S
N240 C242 1.375 1_455 S
N240 C243 1.313 . S
C241 C242 1.338 . S
C241 N244 1.377 1_655 S
C241 H261 0.930 . S
C242 N240 1.375 1_655 S
C242 C241 1.338 . S
C242 H246 0.931 . S
C243 N240 1.313 . S
C243 N244 1.344 . S
C243 H247 0.930 . S
N244 C241 1.377 1_455 S
N244 C243 1.344 . S
O245 Co237 2.055 . S
O245 C249 1.253 . S
H246 C242 0.931 . S
H247 C243 0.930 . S
O248 Co237 2.039 1_655 S
O248 C238 1.265 . S
C249 O245 1.253 . S
C249 O250 1.227 . S
O250 C249 1.227 . S
N251 Co237 2.140 1_655 S
N251 C254 1.346 . S
N251 C255 1.345 . S
C252 C253 1.387 . S
C252 C256 1.391 . S
C253 C252 1.387 . S
C253 C254 1.369 . S
C253 H262 0.929 . S
C254 N251 1.346 . S
C254 C253 1.369 . S
C254 H257 0.928 . S
C255 N251 1.345 . S
C255 C256 1.371 . S
C255 H258 0.931 1_655 S
C256 C252 1.391 . S
C256 C255 1.371 . S
C256 H263 0.930 . S
H257 C254 0.928 . S
H258 C255 0.931 1_455 S
H259 C235 0.930 1_655 S
H260 C232 0.930 . S
H261 C241 0.930 . S
H262 C253 0.929 . S
H263 C256 0.930 . S
C264 C265 1.351 . S
C264 N267 1.368 . S
C264 H269 0.931 . S
C265 C264 1.351 . S
C265 N266 1.373 . S
C265 H293 0.930 . S
N266 C265 1.373 . S
N266 C268 1.340 . S
N267 C264 1.368 . S
N267 C268 1.321 . S
N267 Co270 2.135 . S
C268 N266 1.340 . S
C268 N267 1.321 . S
C268 H292 0.930 1_545 S
H269 C264 0.931 . S
Co270 N267 2.135 . S
Co270 N273 2.121 . S
Co270 O278 2.055 . S
Co270 O281 2.039 1_545 S
Co270 N284 2.140 1_545 S
C271 O272 1.227 . S
C271 O281 1.265 . S
O272 C271 1.227 . S
N273 Co270 2.121 . S
N273 C275 1.375 1_545 S
N273 C276 1.313 . S
C274 C275 1.338 . S
C274 N277 1.377 1_565 S
C274 H294 0.930 . S
C275 N273 1.375 1_565 S
C275 C274 1.338 . S
C275 H279 0.931 . S
C276 N273 1.313 . S
C276 N277 1.344 . S
C276 H280 0.930 . S
N277 C274 1.377 1_545 S
N277 C276 1.344 . S
O278 Co270 2.055 . S
O278 C282 1.253 . S
H279 C275 0.931 . S
H280 C276 0.930 . S
O281 Co270 2.039 1_565 S
O281 C271 1.265 . S
C282 O278 1.253 . S
C282 O283 1.227 . S
O283 C282 1.227 . S
N284 Co270 2.140 1_565 S
N284 C287 1.346 . S
N284 C288 1.345 . S
C285 C286 1.387 . S
C285 C289 1.391 . S
C286 C285 1.387 . S
C286 C287 1.369 . S
C286 H295 0.929 . S
C287 N284 1.346 . S
C287 C286 1.369 . S
C287 H290 0.928 . S
C288 N284 1.345 . S
C288 C289 1.371 . S
C288 H291 0.931 1_565 S
C289 C285 1.391 . S
C289 C288 1.371 . S
C289 H296 0.930 . S
H290 C287 0.928 . S
H291 C288 0.931 1_545 S
H292 C268 0.930 1_565 S
H293 C265 0.930 . S
H294 C274 0.930 . S
H295 C286 0.929 . S
H296 C289 0.930 . S
C297 C298 1.351 . S
C297 N300 1.368 . S
C297 H302 0.931 . S
C298 C297 1.351 . S
C298 N299 1.373 . S
C298 H326 0.930 . S
N299 C298 1.373 . S
N299 C301 1.340 . S
N300 C297 1.368 . S
N300 C301 1.321 . S
N300 Co303 2.135 . S
C301 N299 1.340 . S
C301 N300 1.321 . S
C301 H325 0.930 . S
H302 C297 0.931 . S
Co303 N300 2.135 . S
Co303 N306 2.121 1_556 S
Co303 O311 2.055 . S
Co303 O314 2.041 . S
Co303 N317 2.140 . S
C304 O305 1.227 . S
C304 O314 1.266 . S
O305 C304 1.227 . S
N306 Co303 2.121 1_554 S
N306 C308 1.375 . S
N306 C309 1.313 . S
C307 C308 1.338 . S
C307 N310 1.377 . S
C307 H327 0.930 . S
C308 N306 1.375 . S
C308 C307 1.338 . S
C308 H312 0.931 . S
C309 N306 1.313 . S
C309 N310 1.344 . S
C309 H313 0.930 . S
N310 C307 1.377 . S
N310 C309 1.344 . S
O311 Co303 2.055 . S
O311 C315 1.253 . S
H312 C308 0.931 . S
H313 C309 0.930 . S
O314 Co303 2.041 . S
O314 C304 1.266 . S
C315 O311 1.253 . S
C315 O316 1.227 . S
O316 C315 1.227 . S
N317 Co303 2.140 . S
N317 C320 1.346 . S
N317 C321 1.345 . S
C318 C319 1.387 . S
C318 C322 1.391 . S
C319 C318 1.387 . S
C319 C320 1.369 . S
C319 H328 0.929 . S
C320 N317 1.346 . S
C320 C319 1.369 . S
C320 H323 0.928 . S
C321 N317 1.345 . S
C321 C322 1.371 . S
C321 H324 0.931 . S
C322 C318 1.391 . S
C322 C321 1.371 . S
C322 H329 0.930 . S
H323 C320 0.928 . S
H324 C321 0.931 . S
H325 C301 0.930 . S
H326 C298 0.930 . S
H327 C307 0.930 . S
H328 C319 0.929 . S
H329 C322 0.930 . S
C330 C331 1.351 . S
C330 N333 1.368 . S
C330 H335 0.931 . S
C331 C330 1.351 . S
C331 N332 1.373 . S
C331 H359 0.930 . S
N332 C331 1.373 . S
N332 C334 1.340 . S
N333 C330 1.368 . S
N333 C334 1.321 . S
N333 Co336 2.135 . S
C334 N332 1.340 . S
C334 N333 1.321 . S
C334 H358 0.930 1_655 S
H335 C330 0.931 . S
Co336 N333 2.135 . S
Co336 N339 2.121 . S
Co336 O344 2.055 . S
Co336 O347 2.039 1_655 S
Co336 N350 2.140 1_655 S
C337 O338 1.227 . S
C337 O347 1.265 . S
O338 C337 1.227 . S
N339 Co336 2.121 . S
N339 C341 1.375 1_655 S
N339 C342 1.313 . S
C340 C341 1.338 . S
C340 N343 1.377 1_455 S
C340 H360 0.930 . S
C341 N339 1.375 1_455 S
C341 C340 1.338 . S
C341 H345 0.931 . S
C342 N339 1.313 . S
C342 N343 1.344 . S
C342 H346 0.930 . S
N343 C340 1.377 1_655 S
N343 C342 1.344 . S
O344 Co336 2.055 . S
O344 C348 1.253 . S
H345 C341 0.931 . S
H346 C342 0.930 . S
O347 Co336 2.039 1_455 S
O347 C337 1.265 . S
C348 O344 1.253 . S
C348 O349 1.227 . S
O349 C348 1.227 . S
N350 Co336 2.140 1_455 S
N350 C353 1.346 . S
N350 C354 1.345 . S
C351 C352 1.387 . S
C351 C355 1.391 . S
C352 C351 1.387 . S
C352 C353 1.369 . S
C352 H361 0.929 . S
C353 N350 1.346 . S
C353 C352 1.369 . S
C353 H356 0.928 . S
C354 N350 1.345 . S
C354 C355 1.371 . S
C354 H357 0.931 1_455 S
C355 C351 1.391 . S
C355 C354 1.371 . S
C355 H362 0.930 . S
H356 C353 0.928 . S
H357 C354 0.931 1_655 S
H358 C334 0.930 1_455 S
H359 C331 0.930 . S
H360 C340 0.930 . S
H361 C352 0.929 . S
H362 C355 0.930 . S
C363 C364 1.351 . S
C363 N366 1.368 . S
C363 H368 0.931 . S
C364 C363 1.351 . S
C364 N365 1.373 . S
C364 H392 0.930 . S
N365 C364 1.373 . S
N365 C367 1.340 . S
N366 C363 1.368 . S
N366 C367 1.321 . S
N366 Co369 2.135 . S
C367 N365 1.340 . S
C367 N366 1.321 . S
C367 H391 0.930 1_565 S
H368 C363 0.931 . S
Co369 N366 2.135 . S
Co369 N372 2.121 . S
Co369 O377 2.055 . S
Co369 O380 2.039 1_565 S
Co369 N383 2.140 1_565 S
C370 O371 1.227 . S
C370 O380 1.265 . S
O371 C370 1.227 . S
N372 Co369 2.121 . S
N372 C374 1.375 1_565 S
N372 C375 1.313 . S
C373 C374 1.338 . S
C373 N376 1.377 1_545 S
C373 H393 0.930 . S
C374 N372 1.375 1_545 S
C374 C373 1.338 . S
C374 H378 0.931 . S
C375 N372 1.313 . S
C375 N376 1.344 . S
C375 H379 0.930 . S
N376 C373 1.377 1_565 S
N376 C375 1.344 . S
O377 Co369 2.055 . S
O377 C381 1.253 . S
H378 C374 0.931 . S
H379 C375 0.930 . S
O380 Co369 2.039 1_545 S
O380 C370 1.265 . S
C381 O377 1.253 . S
C381 O382 1.227 . S
O382 C381 1.227 . S
N383 Co369 2.140 1_545 S
N383 C386 1.346 . S
N383 C387 1.345 . S
C384 C385 1.387 . S
C384 C388 1.391 . S
C385 C384 1.387 . S
C385 C386 1.369 . S
C385 H394 0.929 . S
C386 N383 1.346 . S
C386 C385 1.369 . S
C386 H389 0.928 . S
C387 N383 1.345 . S
C387 C388 1.371 . S
C387 H390 0.931 1_545 S
C388 C384 1.391 . S
C388 C387 1.371 . S
C388 H395 0.930 . S
H389 C386 0.928 . S
H390 C387 0.931 1_565 S
H391 C367 0.930 1_545 S
H392 C364 0.930 . S
H393 C373 0.930 . S
H394 C385 0.929 . S
H395 C388 0.930 . S
C396 C397 1.369 . S
C396 C398 1.419 . S
C396 H400 0.930 . S
C397 C396 1.369 . S
C397 C406 1.429 . S
C398 C396 1.419 . S
C398 C399 1.363 . S
C398 H401 0.929 . S
C399 C398 1.363 . S
C399 C405 1.428 . S
H400 C396 0.930 . S
H401 C398 0.929 . S
S402 N403 1.613 . S
S402 N404 1.610 . S
N403 S402 1.613 . S
N403 C406 1.350 . S
N404 S402 1.610 . S
N404 C405 1.351 . S
C405 C399 1.428 . S
C405 N404 1.351 . S
C405 C406 1.434 . S
C406 C397 1.429 . S
C406 N403 1.350 . S
C406 C405 1.434 . S
C407 C408 1.369 . S
C407 C409 1.419 . S
C407 H411 0.930 . S
C408 C407 1.369 . S
C408 C417 1.429 . S
C409 C407 1.419 . S
C409 C410 1.363 . S
C409 H412 0.929 . S
C410 C409 1.363 . S
C410 C416 1.428 . S
H411 C407 0.930 . S
H412 C409 0.929 . S
S413 N414 1.613 . S
S413 N415 1.610 . S
N414 S413 1.613 . S
N414 C417 1.350 . S
N415 S413 1.610 . S
N415 C416 1.351 . S
C416 C410 1.428 . S
C416 N415 1.351 . S
C416 C417 1.434 . S
C417 C408 1.429 . S
C417 N414 1.350 . S
C417 C416 1.434 . S
C418 C419 1.369 . S
C418 C420 1.419 . S
C418 H422 0.930 . S
C419 C418 1.369 . S
C419 C428 1.429 . S
C420 C418 1.419 . S
C420 C421 1.363 . S
C420 H423 0.929 . S
C421 C420 1.363 . S
C421 C427 1.428 . S
H422 C418 0.930 . S
H423 C420 0.929 . S
S424 N425 1.613 . S
S424 N426 1.610 . S
N425 S424 1.613 . S
N425 C428 1.350 . S
N426 S424 1.610 . S
N426 C427 1.351 . S
C427 C421 1.428 . S
C427 N426 1.351 . S
C427 C428 1.434 . S
C428 C419 1.429 . S
C428 N425 1.350 . S
C428 C427 1.434 . S
C429 C430 1.369 . S
C429 C431 1.419 . S
C429 H433 0.930 . S
C430 C429 1.369 . S
C430 C439 1.429 . S
C431 C429 1.419 . S
C431 C432 1.363 . S
C431 H434 0.929 . S
C432 C431 1.363 . S
C432 C438 1.428 . S
H433 C429 0.930 . S
H434 C431 0.929 . S
S435 N436 1.613 1_545 S
S435 N437 1.610 1_545 S
N436 S435 1.613 1_565 S
N436 C439 1.350 . S
N437 S435 1.610 1_565 S
N437 C438 1.351 . S
C438 C432 1.428 . S
C438 N437 1.351 . S
C438 C439 1.434 . S
C439 C430 1.429 . S
C439 N436 1.350 . S
C439 C438 1.434 . S
C440 C441 1.369 . S
C440 C442 1.419 . S
C440 H444 0.930 . S
C441 C440 1.369 . S
C441 C450 1.429 1_554 S
C442 C440 1.419 . S
C442 C443 1.363 . S
C442 H445 0.929 . S
C443 C442 1.363 . S
C443 C449 1.428 1_554 S
H444 C440 0.930 . S
H445 C442 0.929 . S
S446 N447 1.613 . S
S446 N448 1.610 . S
N447 S446 1.613 . S
N447 C450 1.350 . S
N448 S446 1.610 . S
N448 C449 1.351 . S
C449 C443 1.428 1_556 S
C449 N448 1.351 . S
C449 C450 1.434 . S
C450 C441 1.429 1_556 S
C450 N447 1.350 . S
C450 C449 1.434 . S
C451 C452 1.369 . S
C451 C453 1.419 . S
C451 H455 0.930 . S
C452 C451 1.369 . S
C452 C461 1.429 . S
C453 C451 1.419 . S
C453 C454 1.363 . S
C453 H456 0.929 . S
C454 C453 1.363 . S
C454 C460 1.428 . S
H455 C451 0.930 . S
H456 C453 0.929 . S
S457 N458 1.613 1_655 S
S457 N459 1.610 1_655 S
N458 S457 1.613 1_455 S
N458 C461 1.350 . S
N459 S457 1.610 1_455 S
N459 C460 1.351 . S
C460 C454 1.428 . S
C460 N459 1.351 . S
C460 C461 1.434 . S
C461 C452 1.429 . S
C461 N458 1.350 . S
C461 C460 1.434 . S
C462 C463 1.369 . S
C462 C464 1.419 . S
C462 H466 0.930 . S
C463 C462 1.369 . S
C463 C472 1.429 . S
C464 C462 1.419 . S
C464 C465 1.363 . S
C464 H467 0.929 . S
C465 C464 1.363 . S
C465 C471 1.428 . S
H466 C462 0.930 . S
H467 C464 0.929 . S
S468 N469 1.613 . S
S468 N470 1.610 . S
N469 S468 1.613 . S
N469 C472 1.350 . S
N470 S468 1.610 . S
N470 C471 1.351 . S
C471 C465 1.428 . S
C471 N470 1.351 . S
C471 C472 1.434 . S
C472 C463 1.429 . S
C472 N469 1.350 . S
C472 C471 1.434 . S
C473 C474 1.369 . S
C473 C475 1.419 . S
C473 H477 0.930 . S
C474 C473 1.369 . S
C474 C483 1.429 . S
C475 C473 1.419 . S
C475 C476 1.363 . S
C475 H478 0.929 . S
C476 C475 1.363 . S
C476 C482 1.428 . S
H477 C473 0.930 . S
H478 C475 0.929 . S
S479 N480 1.613 . S
S479 N481 1.610 . S
N480 S479 1.613 . S
N480 C483 1.350 . S
N481 S479 1.610 . S
N481 C482 1.351 . S
C482 C476 1.428 . S
C482 N481 1.351 . S
C482 C483 1.434 . S
C483 C474 1.429 . S
C483 N480 1.350 . S
C483 C482 1.434 . S
C484 C485 1.369 . S
C484 C486 1.419 . S
C484 H488 0.930 . S
C485 C484 1.369 . S
C485 C494 1.429 . S
C486 C484 1.419 . S
C486 C487 1.363 . S
C486 H489 0.929 . S
C487 C486 1.363 . S
C487 C493 1.428 . S
H488 C484 0.930 . S
H489 C486 0.929 . S
S490 N491 1.613 . S
S490 N492 1.610 . S
N491 S490 1.613 . S
N491 C494 1.350 . S
N492 S490 1.610 . S
N492 C493 1.351 . S
C493 C487 1.428 . S
C493 N492 1.351 . S
C493 C494 1.434 . S
C494 C485 1.429 . S
C494 N491 1.350 . S
C494 C493 1.434 . S
C495 C496 1.369 1_554 S
C495 C497 1.419 1_554 S
C495 H499 0.931 . S
C496 C495 1.369 1_556 S
C496 C505 1.429 . S
C497 C495 1.419 1_556 S
C497 C498 1.364 . S
C497 H500 0.929 1_556 S
C498 C497 1.364 . S
C498 C504 1.428 . S
H499 C495 0.931 . S
H500 C497 0.929 1_554 S
S501 N502 1.613 . S
S501 N503 1.610 . S
N502 S501 1.613 . S
N502 C505 1.350 . S
N503 S501 1.610 . S
N503 C504 1.351 . S
C504 C498 1.428 . S
C504 N503 1.351 . S
C504 C505 1.434 . S
C505 C496 1.429 . S
C505 N502 1.350 . S
C505 C504 1.434 . S
C506 C507 1.369 . S
C506 C508 1.419 . S
C506 H510 0.930 . S
C507 C506 1.369 . S
C507 C516 1.429 . S
C508 C506 1.419 . S
C508 C509 1.363 . S
C508 H511 0.929 . S
C509 C508 1.363 . S
C509 C515 1.428 . S
H510 C506 0.930 . S
H511 C508 0.929 . S
S512 N513 1.613 . S
S512 N514 1.610 . S
N513 S512 1.613 . S
N513 C516 1.350 . S
N514 S512 1.610 . S
N514 C515 1.351 . S
C515 C509 1.428 . S
C515 N514 1.351 . S
C515 C516 1.434 . S
C516 C507 1.429 . S
C516 N513 1.350 . S
C516 C515 1.434 . S
C517 C518 1.369 . S
C517 C519 1.419 . S
C517 H521 0.930 . S
C518 C517 1.369 . S
C518 C527 1.429 . S
C519 C517 1.419 . S
C519 C520 1.363 . S
C519 H522 0.929 . S
C520 C519 1.363 . S
C520 C526 1.428 . S
H521 C517 0.930 . S
H522 C519 0.929 . S
S523 N524 1.613 . S
S523 N525 1.610 . S
N524 S523 1.613 . S
N524 C527 1.350 . S
N525 S523 1.610 . S
N525 C526 1.351 . S
C526 C520 1.428 . S
C526 N525 1.351 . S
C526 C527 1.434 . S
C527 C518 1.429 . S
C527 N524 1.350 . S
C527 C526 1.434 . S
C528 C529 1.369 . S
C528 C530 1.419 . S
C528 H532 0.930 . S
C529 C528 1.369 . S
C529 C538 1.429 . S
C530 C528 1.419 . S
C530 C531 1.363 . S
C530 H533 0.929 . S
C531 C530 1.363 . S
C531 C537 1.428 . S
H532 C528 0.930 . S
H533 C530 0.929 . S
S534 N535 1.613 . S
S534 N536 1.610 . S
N535 S534 1.613 . S
N535 C538 1.350 . S
N536 S534 1.610 . S
N536 C537 1.351 . S
C537 C531 1.428 . S
C537 N536 1.351 . S
C537 C538 1.434 . S
C538 C529 1.429 . S
C538 N535 1.350 . S
C538 C537 1.434 . S
C539 C540 1.369 . S
C539 C541 1.419 . S
C539 H543 0.930 . S
C540 C539 1.369 . S
C540 C549 1.429 . S
C541 C539 1.419 . S
C541 C542 1.363 . S
C541 H544 0.929 . S
C542 C541 1.363 . S
C542 C548 1.428 . S
H543 C539 0.930 . S
H544 C541 0.929 . S
S545 N546 1.613 . S
S545 N547 1.610 . S
N546 S545 1.613 . S
N546 C549 1.350 1_655 S
N547 S545 1.610 . S
N547 C548 1.351 1_655 S
C548 C542 1.428 . S
C548 N547 1.351 1_455 S
C548 C549 1.434 . S
C549 C540 1.429 . S
C549 N546 1.350 1_455 S
C549 C548 1.434 . S
C550 C551 1.369 . S
C550 C552 1.419 . S
C550 H554 0.930 . S
C551 C550 1.369 . S
C551 C560 1.429 1_545 S
C552 C550 1.419 . S
C552 C553 1.363 . S
C552 H555 0.929 . S
C553 C552 1.363 . S
C553 C559 1.428 1_545 S
H554 C550 0.930 . S
H555 C552 0.929 . S
S556 N557 1.613 . S
S556 N558 1.610 . S
N557 S556 1.613 . S
N557 C560 1.350 . S
N558 S556 1.610 . S
N558 C559 1.351 . S
C559 C553 1.428 1_565 S
C559 N558 1.351 . S
C559 C560 1.434 . S
C560 C551 1.429 1_565 S
C560 N557 1.350 . S
C560 C559 1.434 . S
C561 C562 1.369 . S
C561 C563 1.419 . S
C561 H565 0.930 . S
C562 C561 1.369 . S
C562 C571 1.429 . S
C563 C561 1.419 . S
C563 C564 1.363 . S
C563 H566 0.929 . S
C564 C563 1.363 . S
C564 C570 1.428 . S
H565 C561 0.930 . S
H566 C563 0.929 . S
S567 N568 1.613 . S
S567 N569 1.610 . S
N568 S567 1.613 . S
N568 C571 1.350 . S
N569 S567 1.610 . S
N569 C570 1.351 . S
C570 C564 1.428 . S
C570 N569 1.351 . S
C570 C571 1.434 . S
C571 C562 1.429 . S
C571 N568 1.350 . S
C571 C570 1.434 . S
C572 C573 1.369 . S
C572 C574 1.419 . S
C572 H576 0.930 . S
C573 C572 1.369 . S
C573 C582 1.429 1_655 S
C574 C572 1.419 . S
C574 C575 1.363 . S
C574 H577 0.929 . S
C575 C574 1.363 . S
C575 C581 1.428 1_655 S
H576 C572 0.930 . S
H577 C574 0.929 . S
S578 N579 1.613 . S
S578 N580 1.610 . S
N579 S578 1.613 . S
N579 C582 1.350 . S
N580 S578 1.610 . S
N580 C581 1.351 . S
C581 C575 1.428 1_455 S
C581 N580 1.351 . S
C581 C582 1.434 . S
C582 C573 1.429 1_455 S
C582 N579 1.350 . S
C582 C581 1.434 . S
C583 C584 1.369 . S
C583 C585 1.419 . S
C583 H587 0.930 . S
C584 C583 1.369 . S
C584 C593 1.429 1_565 S
C585 C583 1.419 . S
C585 C586 1.363 . S
C585 H588 0.929 . S
C586 C585 1.363 . S
C586 C592 1.428 1_565 S
H587 C583 0.930 . S
H588 C585 0.929 . S
S589 N590 1.613 . S
S589 N591 1.610 . S
N590 S589 1.613 . S
N590 C593 1.350 . S
N591 S589 1.610 . S
N591 C592 1.351 . S
C592 C586 1.428 1_545 S
C592 N591 1.351 . S
C592 C593 1.434 . S
C593 C584 1.429 1_545 S
C593 N590 1.350 . S
C593 C592 1.434 . S
C594 C595 1.369 . S
C594 C596 1.419 . S
C594 H598 0.930 . S
C595 C594 1.369 . S
C595 C604 1.429 . S
C596 C594 1.419 . S
C596 C597 1.363 . S
C596 H599 0.929 . S
C597 C596 1.363 . S
C597 C603 1.428 . S
H598 C594 0.930 . S
H599 C596 0.929 . S
S600 N601 1.613 . S
S600 N602 1.610 1_565 S
N601 S600 1.613 . S
N601 C604 1.350 1_565 S
N602 S600 1.610 1_545 S
N602 C603 1.351 . S
C603 C597 1.428 . S
C603 N602 1.351 . S
C603 C604 1.434 . S
C604 C595 1.429 . S
C604 N601 1.350 1_545 S
C604 C603 1.434 . S
C605 C606 1.369 . S
C605 C607 1.419 . S
C605 H609 0.930 . S
C606 C605 1.369 . S
C606 C615 1.429 . S
C607 C605 1.419 . S
C607 C608 1.363 . S
C607 H610 0.929 1_455 S
C608 C607 1.363 . S
C608 C614 1.428 . S
H609 C605 0.930 . S
H610 C607 0.929 1_655 S
S611 N612 1.613 . S
S611 N613 1.610 . S
N612 S611 1.613 . S
N612 C615 1.350 . S
N613 S611 1.610 . S
N613 C614 1.351 . S
C614 C608 1.428 . S
C614 N613 1.351 . S
C614 C615 1.434 . S
C615 C606 1.429 . S
C615 N612 1.350 . S
C615 C614 1.434 . S
C616 C617 1.369 . S
C616 C618 1.419 . S
C616 H620 0.930 . S
C617 C616 1.369 . S
C617 C626 1.429 . S
C618 C616 1.419 . S
C618 C619 1.363 . S
C618 H621 0.929 . S
C619 C618 1.363 . S
C619 C625 1.428 . S
H620 C616 0.930 . S
H621 C618 0.929 . S
S622 N623 1.605 1_455 S
S622 N624 1.610 . S
N623 S622 1.605 1_655 S
N623 C626 1.361 . S
N624 S622 1.610 . S
N624 C625 1.351 1_455 S
C625 C619 1.428 . S
C625 N624 1.351 1_655 S
C625 C626 1.434 . S
C626 C617 1.429 . S
C626 N623 1.361 . S
C626 C625 1.434 . S
C627 C628 1.369 . S
C627 C629 1.419 . S
C627 H631 0.930 . S
C628 C627 1.369 . S
C628 C637 1.429 . S
C629 C627 1.419 . S
C629 C630 1.363 . S
C629 H632 0.929 . S
C630 C629 1.363 . S
C630 C636 1.428 . S
H631 C627 0.930 . S
H632 C629 0.929 . S
S633 N634 1.613 . S
S633 N635 1.610 . S
N634 S633 1.613 . S
N634 C637 1.350 . S
N635 S633 1.610 . S
N635 C636 1.351 . S
C636 C630 1.428 . S
C636 N635 1.351 . S
C636 C637 1.434 . S
C637 C628 1.429 . S
C637 N634 1.350 . S
C637 C636 1.434 . S
C638 C639 1.369 . S
C638 C640 1.419 . S
C638 H642 0.930 . S
C639 C638 1.369 . S
C639 C648 1.429 . S
C640 C638 1.419 . S
C640 C641 1.363 . S
C640 H643 0.929 . S
C641 C640 1.363 . S
C641 C647 1.428 . S
H642 C638 0.930 . S
H643 C640 0.929 . S
S644 N645 1.613 . S
S644 N646 1.610 . S
N645 S644 1.613 . S
N645 C648 1.350 1_455 S
N646 S644 1.610 . S
N646 C647 1.351 1_455 S
C647 C641 1.428 . S
C647 N646 1.351 1_655 S
C647 C648 1.434 . S
C648 C639 1.429 . S
C648 N645 1.350 1_655 S
C648 C647 1.434 . S
C649 C650 1.369 . S
C649 C651 1.419 . S
C649 H653 0.930 . S
C650 C649 1.369 . S
C650 C659 1.429 1_565 S
C651 C649 1.419 . S
C651 C652 1.363 . S
C651 H654 0.929 . S
C652 C651 1.363 . S
C652 C658 1.428 1_565 S
H653 C649 0.930 . S
H654 C651 0.929 . S
S655 N656 1.613 . S
S655 N657 1.610 . S
N656 S655 1.613 . S
N656 C659 1.350 . S
N657 S655 1.610 . S
N657 C658 1.351 . S
C658 C652 1.428 1_545 S
C658 N657 1.351 . S
C658 C659 1.434 . S
C659 C650 1.429 1_545 S
C659 N656 1.350 . S
C659 C658 1.434 . S
C660 C661 1.369 . S
C660 C662 1.419 . S
C660 H664 0.930 . S
C661 C660 1.369 . S
C661 C670 1.429 . S
C662 C660 1.419 . S
C662 C663 1.363 . S
C662 H665 0.929 . S
C663 C662 1.363 . S
C663 C669 1.428 . S
H664 C660 0.930 . S
H665 C662 0.929 . S
S666 N667 1.613 . S
S666 N668 1.610 . S
N667 S666 1.613 . S
N667 C670 1.350 . S
N668 S666 1.610 . S
N668 C669 1.351 . S
C669 C663 1.428 . S
C669 N668 1.351 . S
C669 C670 1.434 . S
C670 C661 1.429 . S
C670 N667 1.350 . S
C670 C669 1.434 . S
C671 C672 1.369 . S
C671 C673 1.419 . S
C671 H675 0.930 . S
C672 C671 1.369 . S
C672 C681 1.429 . S
C673 C671 1.419 . S
C673 C674 1.363 . S
C673 H676 0.929 . S
C674 C673 1.363 . S
C674 C680 1.428 . S
H675 C671 0.930 . S
H676 C673 0.929 . S
S677 N678 1.613 . S
S677 N679 1.610 . S
N678 S677 1.613 . S
N678 C681 1.350 1_655 S
N679 S677 1.610 . S
N679 C680 1.351 1_655 S
C680 C674 1.428 . S
C680 N679 1.351 1_455 S
C680 C681 1.434 . S
C681 C672 1.429 . S
C681 N678 1.350 1_455 S
C681 C680 1.434 . S
C682 C683 1.369 1_565 S
C682 C684 1.419 1_565 S
C682 H686 0.930 . S
C683 C682 1.369 1_545 S
C683 C692 1.429 . S
C684 C682 1.419 1_545 S
C684 C685 1.363 . S
C684 H687 0.929 1_545 S
C685 C684 1.363 . S
C685 C691 1.428 . S
H686 C682 0.930 . S
H687 C684 0.929 1_565 S
S688 N689 1.613 . S
S688 N690 1.610 . S
N689 S688 1.613 . S
N689 C692 1.350 . S
N690 S688 1.610 . S
N690 C691 1.351 . S
C691 C685 1.428 . S
C691 N690 1.351 . S
C691 C692 1.434 . S
C692 C683 1.429 . S
C692 N689 1.350 . S
C692 C691 1.434 . S
C693 C694 1.369 . S
C693 C695 1.419 . S
C693 H697 0.930 . S
C694 C693 1.369 . S
C694 C703 1.429 . S
C695 C693 1.419 . S
C695 C696 1.363 . S
C695 H698 0.929 . S
C696 C695 1.363 . S
C696 C702 1.428 . S
H697 C693 0.930 . S
H698 C695 0.929 . S
S699 N700 1.613 . S
S699 N701 1.610 . S
N700 S699 1.613 . S
N700 C703 1.350 . S
N701 S699 1.610 . S
N701 C702 1.351 . S
C702 C696 1.428 . S
C702 N701 1.351 . S
C702 C703 1.434 . S
C703 C694 1.429 . S
C703 N700 1.350 . S
C703 C702 1.434 . S
C704 C705 1.369 . S
C704 C706 1.419 . S
C704 H708 0.930 . S
C705 C704 1.369 . S
C705 C714 1.429 . S
C706 C704 1.419 . S
C706 C707 1.363 . S
C706 H709 0.929 . S
C707 C706 1.363 . S
C707 C713 1.428 . S
H708 C704 0.930 . S
H709 C706 0.929 . S
S710 N711 1.613 1_565 S
S710 N712 1.610 1_565 S
N711 S710 1.613 1_545 S
N711 C714 1.350 . S
N712 S710 1.610 1_545 S
N712 C713 1.351 . S
C713 C707 1.428 . S
C713 N712 1.351 . S
C713 C714 1.434 . S
C714 C705 1.429 . S
C714 N711 1.350 . S
C714 C713 1.434 . S
C715 C716 1.369 1_545 S
C715 C717 1.419 . S
C715 H719 0.930 . S
C716 C715 1.369 1_565 S
C716 C725 1.429 . S
C717 C715 1.419 . S
C717 C718 1.363 1_545 S
C717 H720 0.929 . S
C718 C717 1.363 1_565 S
C718 C724 1.428 . S
H719 C715 0.930 . S
H720 C717 0.929 . S
S721 N722 1.613 . S
S721 N723 1.610 . S
N722 S721 1.613 . S
N722 C725 1.350 . S
N723 S721 1.610 . S
N723 C724 1.351 . S
C724 C718 1.428 . S
C724 N723 1.351 . S
C724 C725 1.434 . S
C725 C716 1.429 . S
C725 N722 1.350 . S
C725 C724 1.434 . S
C397 C18 1.898 . S
C399 C370 1.811 . S
C408 C51 1.898 . S
C410 C205 1.812 . S
C419 C238 1.818 . S
C421 C84 1.897 . S
C430 C271 1.810 . S
C432 C117 1.899 . S
C441 C150 1.900 . S
C443 C304 1.812 1_554 S
C452 C183 1.897 . S
C454 C337 1.816 . S
C463 C40 1.818 . S
C465 C216 1.895 . S
C474 C249 1.895 . S
C476 C73 1.818 . S
C485 C106 1.810 . S
C487 C282 1.898 . S
C496 C315 1.895 . S
C498 C139 1.818 . S
C507 C348 1.896 . S
C509 C172 1.815 . S
C518 C7 1.816 . S
C520 C381 1.898 . S
C529 N200 0.554 . S
C531 N2 0.559 . S
C540 N35 0.564 . S
C542 N233 0.566 . S
C551 N68 0.568 . S
C553 N266 0.567 . S
C562 N101 0.549 . S
C564 N299 0.552 . S
C573 N332 0.569 . S
C575 N134 0.565 . S
C584 N365 0.566 . S
C586 N167 0.566 . S
C595 C186 1.299 . S
C597 N13 1.346 . S
C606 C21 1.297 . S
C608 N46 1.346 . S
C617 N79 1.348 . S
C619 C54 1.294 . S
C628 N112 1.336 . S
C630 C87 1.304 . S
C639 N145 1.335 . S
C641 C120 1.303 . S
C650 N178 1.337 . S
C652 C153 1.305 . S
C661 N211 1.335 . S
C663 C252 1.299 . S
C672 C285 1.301 . S
C674 N244 1.337 . S
C683 N277 1.346 . S
C685 C318 1.293 . S
C694 N310 1.340 . S
C696 C351 1.294 . S
C705 N343 1.348 . S
C707 C384 1.298 . S
C716 N376 1.342 . S
C718 C219 1.293 . S
