# Generated by pormake.
# Topology wjo, (5)-cn, num edge types: 1
# Building blocks:
#     Node 0, Type 0, BuildingBlock: XOMCOT_clean_sbu_0, # of connection points: 5
#     Node 1, Type 0, BuildingBlock: XOMCOT_clean_sbu_0, # of connection points: 5
#     Node 2, Type 0, BuildingBlock: XOMCOT_clean_sbu_0, # of connection points: 5
#     Node 3, Type 0, BuildingBlock: XOMCOT_clean_sbu_0, # of connection points: 5
#     Node 4, Type 0, BuildingBlock: XOMCOT_clean_sbu_0, # of connection points: 5
#     Node 5, Type 0, BuildingBlock: XOMCOT_clean_sbu_0, # of connection points: 5
#     Node 6, Type 0, BuildingBlock: XOMCOT_clean_sbu_0, # of connection points: 5
#     Node 7, Type 0, BuildingBlock: XOMCOT_clean_sbu_0, # of connection points: 5
#     Node 8, Type 0, BuildingBlock: XOMCOT_clean_sbu_0, # of connection points: 5
#     Node 9, Type 0, BuildingBlock: XOMCOT_clean_sbu_0, # of connection points: 5
#     Node 10, Type 0, BuildingBlock: XOMCOT_clean_sbu_0, # of connection points: 5
#     Node 11, Type 0, BuildingBlock: XOMCOT_clean_sbu_0, # of connection points: 5
#     Edge 12, Type (0, 0), BuildingBlock: MIFKUJ_clean_linker_0, # of connection points: 2
#     Edge 13, Type (0, 0), BuildingBlock: MIFKUJ_clean_linker_0, # of connection points: 2
#     Edge 14, Type (0, 0), BuildingBlock: MIFKUJ_clean_linker_0, # of connection points: 2
#     Edge 15, Type (0, 0), BuildingBlock: MIFKUJ_clean_linker_0, # of connection points: 2
#     Edge 16, Type (0, 0), BuildingBlock: MIFKUJ_clean_linker_0, # of connection points: 2
#     Edge 17, Type (0, 0), BuildingBlock: MIFKUJ_clean_linker_0, # of connection points: 2
#     Edge 18, Type (0, 0), BuildingBlock: MIFKUJ_clean_linker_0, # of connection points: 2
#     Edge 19, Type (0, 0), BuildingBlock: MIFKUJ_clean_linker_0, # of connection points: 2
#     Edge 20, Type (0, 0), BuildingBlock: MIFKUJ_clean_linker_0, # of connection points: 2
#     Edge 21, Type (0, 0), BuildingBlock: MIFKUJ_clean_linker_0, # of connection points: 2
#     Edge 22, Type (0, 0), BuildingBlock: MIFKUJ_clean_linker_0, # of connection points: 2
#     Edge 23, Type (0, 0), BuildingBlock: MIFKUJ_clean_linker_0, # of connection points: 2
#     Edge 24, Type (0, 0), BuildingBlock: MIFKUJ_clean_linker_0, # of connection points: 2
#     Edge 25, Type (0, 0), BuildingBlock: MIFKUJ_clean_linker_0, # of connection points: 2
#     Edge 26, Type (0, 0), BuildingBlock: MIFKUJ_clean_linker_0, # of connection points: 2
#     Edge 27, Type (0, 0), BuildingBlock: MIFKUJ_clean_linker_0, # of connection points: 2
#     Edge 28, Type (0, 0), BuildingBlock: MIFKUJ_clean_linker_0, # of connection points: 2
#     Edge 29, Type (0, 0), BuildingBlock: MIFKUJ_clean_linker_0, # of connection points: 2
#     Edge 30, Type (0, 0), BuildingBlock: MIFKUJ_clean_linker_0, # of connection points: 2
#     Edge 31, Type (0, 0), BuildingBlock: MIFKUJ_clean_linker_0, # of connection points: 2
#     Edge 32, Type (0, 0), BuildingBlock: MIFKUJ_clean_linker_0, # of connection points: 2
#     Edge 33, Type (0, 0), BuildingBlock: MIFKUJ_clean_linker_0, # of connection points: 2
#     Edge 34, Type (0, 0), BuildingBlock: MIFKUJ_clean_linker_0, # of connection points: 2
#     Edge 35, Type (0, 0), BuildingBlock: MIFKUJ_clean_linker_0, # of connection points: 2
#     Edge 36, Type (0, 0), BuildingBlock: MIFKUJ_clean_linker_0, # of connection points: 2
#     Edge 37, Type (0, 0), BuildingBlock: MIFKUJ_clean_linker_0, # of connection points: 2
#     Edge 38, Type (0, 0), BuildingBlock: MIFKUJ_clean_linker_0, # of connection points: 2
#     Edge 39, Type (0, 0), BuildingBlock: MIFKUJ_clean_linker_0, # of connection points: 2
#     Edge 40, Type (0, 0), BuildingBlock: MIFKUJ_clean_linker_0, # of connection points: 2
#     Edge 41, Type (0, 0), BuildingBlock: MIFKUJ_clean_linker_0, # of connection points: 2
# Relax obj value: 0.367
# Max RMSD: 0.206
# Mean RMSD: 0.205
data_MOF--net-wjo--node1-XOMCOT_clean_sbu_0--edge1-MIFKUJ_clean_linker_0
_symmetry_space_group_name_H-M    P1
_symmetry_Int_Tables_number       1
_symmetry_cell_setting            triclinic
loop_
_symmetry_equiv_pos_as_xyz
'x, y, z'
_cell_length_a     58.863603
_cell_length_b     58.822733
_cell_length_c     37.092269
_cell_angle_alpha  90.025613
_cell_angle_beta   90.018764
_cell_angle_gamma 120.01796
loop_
_atom_site_label
_atom_site_type_symbol
_atom_site_fract_x
_atom_site_fract_y
_atom_site_fract_z
_atom_type_partial_charge
Co0 Co 0.26217 0.37334 0.97212 0.0
C1 C 0.27469 0.33945 0.92609 0.0
C2 C 0.24825 0.34884 0.89919 0.0
C3 C 0.25403 0.33392 0.87633 0.0
N4 N 0.26119 0.35235 0.93056 0.0
N5 N 0.27071 0.32803 0.89327 0.0
H6 H 0.28802 0.33917 0.94584 0.0
H7 H 0.23586 0.35688 0.89272 0.0
C8 C 0.21212 0.37222 0.94328 0.0
O9 O 0.22384 0.38956 0.91756 0.0
N10 N 0.26305 0.39348 0.01387 0.0
C11 C 0.28364 0.41601 0.026 0.0
C12 C 0.27706 0.42222 0.05868 0.0
C13 C 0.24459 0.38582 0.03976 0.0
N14 N 0.25262 0.40314 0.06727 0.0
C15 C 0.30109 0.41006 0.92536 0.0
C16 C 0.29217 0.45121 0.93857 0.0
C17 C 0.31625 0.45656 0.92371 0.0
C18 C 0.31997 0.43544 0.9154 0.0
C19 C 0.27369 0.42536 0.9483 0.0
N20 N 0.27886 0.40533 0.94318 0.0
H21 H 0.30575 0.39461 0.92208 0.0
H22 H 0.25662 0.42204 0.96347 0.0
H23 H 0.30243 0.42669 0.0126 0.0
H24 H 0.22608 0.36754 0.03909 0.0
O25 O 0.29376 0.3749 0.9898 0.0
O26 O 0.25311 0.34403 0.0035 0.0
O27 O 0.2249 0.36481 0.96318 0.0
C28 C 0.27821 0.35414 0.00862 0.0
H29 H 0.2465 0.32796 0.84927 0.0
H30 H 0.28974 0.43867 0.07578 0.0
H31 H 0.28865 0.46705 0.94566 0.0
H32 H 0.33825 0.43875 0.90371 0.0
Co33 Co 0.88927 0.25766 0.13829 0.0
C34 C 0.93686 0.27295 0.09322 0.0
C35 C 0.90196 0.24507 0.06566 0.0
C36 C 0.92324 0.25127 0.04384 0.0
N37 N 0.9104 0.25853 0.09689 0.0
N38 N 0.94519 0.26885 0.06119 0.0
H39 H 0.94998 0.28616 0.11353 0.0
H40 H 0.88184 0.2318 0.05857 0.0
C41 C 0.84245 0.20764 0.10573 0.0
O42 O 0.83706 0.21988 0.0805 0.0
N43 N 0.86902 0.25687 0.17994 0.0
C44 C 0.86773 0.27747 0.19337 0.0
C45 C 0.85396 0.27006 0.22517 0.0
C46 C 0.85652 0.23732 0.20416 0.0
N47 N 0.84696 0.24485 0.23205 0.0
C48 C 0.88972 0.29632 0.09189 0.0
C49 C 0.83875 0.28448 0.10522 0.0
C50 C 0.85619 0.30869 0.08925 0.0
C51 C 0.88161 0.31391 0.0811 0.0
C52 C 0.84758 0.26725 0.11523 0.0
N53 N 0.87313 0.27376 0.10988 0.0
H54 H 0.91014 0.30211 0.08869 0.0
H55 H 0.83446 0.24979 0.13024 0.0
H56 H 0.87688 0.29681 0.18134 0.0
H57 H 0.85507 0.2183 0.20184 0.0
O58 O 0.91832 0.28948 0.15735 0.0
O59 O 0.90992 0.24899 0.16947 0.0
O60 O 0.86169 0.22023 0.1273 0.0
C61 C 0.92412 0.27409 0.17553 0.0
H62 H 0.92251 0.24374 0.01698 0.0
H63 H 0.8505 0.2827 0.24275 0.0
H64 H 0.81887 0.27954 0.11179 0.0
H65 H 0.89588 0.33246 0.06926 0.0
Co66 Co 0.64207 0.89222 0.30605 0.0
C67 C 0.66964 0.93384 0.25097 0.0
C68 C 0.67167 0.89957 0.23729 0.0
C69 C 0.68635 0.9191 0.21271 0.0
N70 N 0.66107 0.90875 0.26147 0.0
N71 N 0.68508 0.94068 0.22142 0.0
H72 H 0.66555 0.94735 0.2654 0.0
H73 H 0.66992 0.88045 0.23775 0.0
C74 C 0.64168 0.84161 0.28238 0.0
O75 O 0.62456 0.83583 0.2563 0.0
N76 N 0.62414 0.87688 0.35091 0.0
C77 C 0.60225 0.87624 0.36319 0.0
C78 C 0.59706 0.86586 0.39739 0.0
C79 C 0.63254 0.86783 0.37826 0.0
N80 N 0.61617 0.86077 0.40677 0.0
C81 C 0.60238 0.88965 0.25926 0.0
C82 C 0.56307 0.84058 0.28077 0.0
C83 C 0.55632 0.85667 0.26104 0.0
C84 C 0.57649 0.88098 0.24889 0.0
C85 C 0.58938 0.84973 0.28979 0.0
N86 N 0.60857 0.8745 0.28039 0.0
H87 H 0.61706 0.90953 0.2528 0.0
H88 H 0.59392 0.83781 0.30721 0.0
H89 H 0.59117 0.88338 0.34854 0.0
H90 H 0.65047 0.86695 0.37761 0.0
O91 O 0.64174 0.92379 0.31952 0.0
O92 O 0.67316 0.91471 0.33302 0.0
O93 O 0.64963 0.86245 0.30112 0.0
C94 C 0.66378 0.93047 0.33603 0.0
H95 H 0.69746 0.91759 0.19051 0.0
H96 H 0.5811 0.86324 0.41468 0.0
H97 H 0.54802 0.82166 0.29068 0.0
H98 H 0.57207 0.89415 0.23402 0.0
Co99 Co 0.76076 0.63993 0.47755 0.0
C100 C 0.74611 0.66789 0.42373 0.0
C101 C 0.78686 0.67989 0.42005 0.0
C102 C 0.78199 0.69591 0.39819 0.0
N103 N 0.7643 0.66203 0.43605 0.0
N104 N 0.75635 0.68836 0.4006 0.0
H105 H 0.72613 0.65874 0.43345 0.0
H106 H 0.80608 0.68273 0.42566 0.0
C107 C 0.81203 0.64378 0.4511 0.0
O108 O 0.80144 0.63029 0.42155 0.0
N109 N 0.75736 0.61903 0.51956 0.0
C110 C 0.73573 0.59691 0.5303 0.0
C111 C 0.74101 0.58913 0.56271 0.0
C112 C 0.77528 0.62476 0.54579 0.0
N113 N 0.76584 0.60668 0.5724 0.0
C114 C 0.72514 0.60202 0.42729 0.0
C115 C 0.73708 0.56347 0.44444 0.0
C116 C 0.71369 0.55638 0.42596 0.0
C117 C 0.70852 0.57626 0.41577 0.0
C118 C 0.75356 0.58964 0.45473 0.0
N119 N 0.74681 0.60836 0.44774 0.0
H120 H 0.71898 0.61618 0.42269 0.0
H121 H 0.77029 0.59424 0.47162 0.0
H122 H 0.71731 0.58737 0.51581 0.0
H123 H 0.79467 0.64197 0.54561 0.0
O124 O 0.7279 0.63758 0.49061 0.0
O125 O 0.7673 0.66856 0.50895 0.0
O126 O 0.79847 0.6487 0.47329 0.0
C127 C 0.74194 0.65829 0.51041 0.0
H128 H 0.79647 0.71264 0.38304 0.0
H129 H 0.72732 0.5724 0.57858 0.0
H130 H 0.74179 0.54866 0.45281 0.0
H131 H 0.69048 0.57159 0.40191 0.0
Co132 Co 0.1301 0.75442 0.64488 0.0
C133 C 0.09004 0.74293 0.58793 0.0
C134 C 0.11724 0.78406 0.59264 0.0
C135 C 0.09713 0.78062 0.5702 0.0
N136 N 0.11325 0.76041 0.60338 0.0
N137 N 0.07993 0.75472 0.5674 0.0
H138 H 0.07908 0.72235 0.59475 0.0
H139 H 0.1322 0.80276 0.60308 0.0
C140 C 0.17717 0.80292 0.61273 0.0
O141 O 0.17166 0.79346 0.57979 0.0
N142 N 0.14597 0.74878 0.687 0.0
C143 C 0.14572 0.72659 0.69679 0.0
C144 C 0.15625 0.73005 0.73091 0.0
C145 C 0.15613 0.76519 0.71534 0.0
N146 N 0.16257 0.75425 0.74256 0.0
C147 C 0.12521 0.71202 0.60205 0.0
C148 C 0.17695 0.72428 0.6076 0.0
C149 C 0.15801 0.69895 0.59654 0.0
C150 C 0.13213 0.69343 0.59219 0.0
C151 C 0.16915 0.74247 0.61731 0.0
N152 N 0.14331 0.73584 0.61579 0.0
H153 H 0.10473 0.70599 0.60209 0.0
H154 H 0.18348 0.76071 0.62964 0.0
H155 H 0.13753 0.7088 0.68089 0.0
H156 H 0.15799 0.78444 0.71638 0.0
O157 O 0.097 0.72482 0.65938 0.0
O158 O 0.11181 0.76619 0.67579 0.0
O159 O 0.16291 0.78958 0.63919 0.0
C160 C 0.09375 0.74161 0.67833 0.0
H161 H 0.09449 0.79609 0.55886 0.0
H162 H 0.15787 0.71543 0.74664 0.0
H163 H 0.19713 0.72924 0.61168 0.0
H164 H 0.11692 0.67414 0.58358 0.0
Co165 Co 0.38179 0.12211 0.81029 0.0
C166 C 0.35274 0.07862 0.75813 0.0
C167 C 0.34215 0.10826 0.75163 0.0
C168 C 0.32686 0.08765 0.7288 0.0
N169 N 0.35897 0.10298 0.76955 0.0
N170 N 0.33346 0.06896 0.73313 0.0
H171 H 0.36132 0.06755 0.76887 0.0
H172 H 0.33952 0.12487 0.75633 0.0
C173 C 0.3795 0.16919 0.77817 0.0
O174 O 0.38722 0.16676 0.74589 0.0
N175 N 0.40362 0.14016 0.85137 0.0
C176 C 0.42616 0.14121 0.86105 0.0
C177 C 0.43402 0.15378 0.89379 0.0
C178 C 0.39777 0.15156 0.87854 0.0
N179 N 0.41607 0.16019 0.90497 0.0
C180 C 0.41882 0.11891 0.76411 0.0
C181 C 0.45764 0.1709 0.7704 0.0
C182 C 0.46416 0.15281 0.756 0.0
C183 C 0.44403 0.12674 0.75158 0.0
C184 C 0.43197 0.16228 0.78222 0.0
N185 N 0.41313 0.13633 0.7802 0.0
H186 H 0.40459 0.09829 0.76374 0.0
H187 H 0.428 0.17604 0.79616 0.0
H188 H 0.43591 0.1329 0.84575 0.0
H189 H 0.37979 0.1523 0.87951 0.0
O190 O 0.38093 0.09051 0.82682 0.0
O191 O 0.3526 0.1033 0.84223 0.0
O192 O 0.37666 0.15319 0.80329 0.0
C193 C 0.36073 0.08656 0.84601 0.0
H194 H 0.31092 0.08581 0.71213 0.0
H195 H 0.45147 0.15747 0.90831 0.0
H196 H 0.47254 0.19126 0.77426 0.0
H197 H 0.44812 0.11193 0.74126 0.0
Co198 Co 0.63878 0.75506 0.85701 0.0
C199 C 0.67415 0.74329 0.90107 0.0
C200 C 0.66256 0.76724 0.93026 0.0
C201 C 0.67784 0.76153 0.95245 0.0
N202 N 0.6602 0.75585 0.89788 0.0
N203 N 0.68511 0.74641 0.9341 0.0
H204 H 0.67551 0.73122 0.88021 0.0
H205 H 0.6533 0.77832 0.93792 0.0
C206 C 0.64185 0.80603 0.8866 0.0
O207 O 0.625 0.79492 0.91302 0.0
N208 N 0.6181 0.75422 0.81596 0.0
C209 C 0.59574 0.7334 0.8042 0.0
C210 C 0.5899 0.73914 0.77076 0.0
C211 C 0.62585 0.77214 0.78929 0.0
N212 N 0.60897 0.76348 0.76106 0.0
C213 C 0.60214 0.71663 0.90457 0.0
C214 C 0.56234 0.728 0.8947 0.0
C215 C 0.55622 0.70382 0.91035 0.0
C216 C 0.57687 0.69885 0.9165 0.0
C217 C 0.58796 0.74523 0.88289 0.0
N218 N 0.60732 0.73903 0.88685 0.0
H219 H 0.61706 0.71112 0.90661 0.0
H220 H 0.5916 0.7624 0.86767 0.0
H221 H 0.58506 0.71487 0.81826 0.0
H222 H 0.64432 0.7904 0.78991 0.0
O223 O 0.63649 0.72312 0.83915 0.0
O224 O 0.66732 0.76366 0.82451 0.0
O225 O 0.64807 0.79257 0.86605 0.0
C226 C 0.65669 0.73851 0.81929 0.0
H227 H 0.68303 0.76798 0.98008 0.0
H228 H 0.57324 0.72578 0.75458 0.0
H229 H 0.54722 0.73296 0.88972 0.0
H230 H 0.57333 0.68038 0.92775 0.0
Co231 Co 0.8954 0.63917 0.02269 0.0
C232 C 0.93519 0.66834 0.0794 0.0
C233 C 0.90666 0.68064 0.0768 0.0
C234 C 0.9266 0.69736 0.09953 0.0
N235 N 0.91167 0.66197 0.06449 0.0
N236 N 0.94458 0.68961 0.10106 0.0
H237 H 0.94666 0.65939 0.07183 0.0
H238 H 0.89102 0.68369 0.06751 0.0
C239 C 0.84691 0.64034 0.04998 0.0
O240 O 0.84926 0.63347 0.08286 0.0
N241 N 0.8803 0.61768 0.98035 0.0
C242 C 0.88219 0.59669 0.97023 0.0
C243 C 0.87139 0.58902 0.93638 0.0
C244 C 0.86888 0.6228 0.95249 0.0
N245 N 0.86312 0.60553 0.92522 0.0
C246 C 0.89657 0.60232 0.07182 0.0
C247 C 0.84688 0.56167 0.05568 0.0
C248 C 0.86462 0.55581 0.07294 0.0
C249 C 0.8891 0.57692 0.08307 0.0
C250 C 0.8549 0.58767 0.04589 0.0
N251 N 0.88004 0.6074 0.05214 0.0
H252 H 0.91656 0.61731 0.07623 0.0
H253 H 0.84181 0.59134 0.02968 0.0
H254 H 0.89151 0.58812 0.9859 0.0
H255 H 0.86555 0.63929 0.95191 0.0
O256 O 0.92822 0.64105 0.01065 0.0
O257 O 0.91553 0.66886 0.99195 0.0
O258 O 0.86337 0.6431 0.02561 0.0
C259 C 0.93284 0.66129 0.99103 0.0
H260 H 0.92847 0.7148 0.11218 0.0
H261 H 0.87078 0.57325 0.9206 0.0
H262 H 0.82773 0.54621 0.04718 0.0
H263 H 0.90324 0.57374 0.09757 0.0
Co264 Co 0.2635 0.89193 0.19219 0.0
C265 C 0.27696 0.93264 0.24867 0.0
C266 C 0.23658 0.90273 0.25192 0.0
C267 C 0.24072 0.92298 0.27469 0.0
N268 N 0.25936 0.90859 0.23552 0.0
N269 N 0.26612 0.94181 0.2725 0.0
H270 H 0.29684 0.94431 0.23887 0.0
H271 H 0.21761 0.8861 0.24584 0.0
C272 C 0.21303 0.84272 0.21684 0.0
O273 O 0.22399 0.83881 0.2452 0.0
N274 N 0.26756 0.87638 0.14839 0.0
C275 C 0.28991 0.87794 0.13649 0.0
C276 C 0.28523 0.86594 0.10335 0.0
C277 C 0.24969 0.86391 0.12211 0.0
N278 N 0.25995 0.85712 0.09428 0.0
C279 C 0.29982 0.88929 0.24078 0.0
C280 C 0.28965 0.84 0.21967 0.0
C281 C 0.31269 0.85613 0.23905 0.0
C282 C 0.31696 0.88051 0.25115 0.0
C283 C 0.27263 0.84929 0.21058 0.0
N284 N 0.27847 0.8742 0.21964 0.0
H285 H 0.30527 0.90924 0.247 0.0
H286 H 0.25612 0.83738 0.1932 0.0
H287 H 0.30844 0.88753 0.15073 0.0
H288 H 0.22974 0.86017 0.12321 0.0
O289 O 0.29575 0.92355 0.18033 0.0
O290 O 0.25582 0.91436 0.16339 0.0
O291 O 0.22621 0.86209 0.19576 0.0
C292 C 0.28105 0.93026 0.16221 0.0
H293 H 0.22585 0.92436 0.29011 0.0
H294 H 0.29964 0.86467 0.08666 0.0
H295 H 0.2856 0.82098 0.20986 0.0
H296 H 0.33467 0.89373 0.26578 0.0
Co297 Co 0.38614 0.26379 0.35536 0.0
C298 C 0.35011 0.27237 0.40248 0.0
C299 C 0.36556 0.2513 0.4306 0.0
C300 C 0.35008 0.25594 0.45404 0.0
N301 N 0.36564 0.26164 0.39812 0.0
N302 N 0.34035 0.2692 0.43623 0.0
H303 H 0.34674 0.28334 0.38197 0.0
H304 H 0.37663 0.24184 0.43743 0.0
C305 C 0.38418 0.21265 0.38083 0.0
O306 O 0.40225 0.22393 0.40581 0.0
N307 N 0.406 0.26643 0.31233 0.0
C308 C 0.42743 0.28856 0.30108 0.0
C309 C 0.43281 0.28515 0.26616 0.0
C310 C 0.39838 0.2499 0.28387 0.0
N311 N 0.41444 0.26096 0.25523 0.0
C312 C 0.42398 0.30031 0.40447 0.0
C313 C 0.46392 0.29077 0.38575 0.0
C314 C 0.47012 0.31371 0.4049 0.0
C315 C 0.44961 0.31772 0.41578 0.0
C316 C 0.4379 0.2735 0.37567 0.0
N317 N 0.41845 0.27899 0.38364 0.0
H318 H 0.40897 0.30533 0.40976 0.0
H319 H 0.43389 0.2571 0.35839 0.0
H320 H 0.43763 0.3065 0.3166 0.0
H321 H 0.38047 0.23104 0.28329 0.0
O322 O 0.38793 0.29617 0.34074 0.0
O323 O 0.35665 0.256 0.32517 0.0
O324 O 0.37705 0.22599 0.36157 0.0
C325 C 0.36704 0.28127 0.32165 0.0
H326 H 0.34651 0.2502 0.4821 0.0
H327 H 0.44855 0.2997 0.2497 0.0
H328 H 0.47925 0.287 0.37683 0.0
H329 H 0.45363 0.33537 0.4302 0.0
Co330 Co 0.12833 0.37598 0.51898 0.0
C331 C 0.08386 0.34673 0.56972 0.0
C332 C 0.11434 0.33783 0.5799 0.0
C333 C 0.09353 0.32274 0.60247 0.0
N334 N 0.10859 0.35339 0.55965 0.0
N335 N 0.07433 0.32826 0.59583 0.0
H336 H 0.07263 0.35472 0.5577 0.0
H337 H 0.13155 0.33598 0.57738 0.0
C338 C 0.175 0.37186 0.549 0.0
O339 O 0.17503 0.38217 0.58044 0.0
N340 N 0.14698 0.39756 0.47803 0.0
C341 C 0.14935 0.42077 0.46879 0.0
C342 C 0.16107 0.42786 0.43548 0.0
C343 C 0.15677 0.39058 0.45003 0.0
N344 N 0.16557 0.40876 0.42343 0.0
C345 C 0.12734 0.41319 0.56678 0.0
C346 C 0.17942 0.45136 0.55921 0.0
C347 C 0.1619 0.45844 0.57427 0.0
C348 C 0.13576 0.43856 0.57927 0.0
C349 C 0.17013 0.42561 0.54698 0.0
N350 N 0.14412 0.40711 0.54965 0.0
H351 H 0.10667 0.39912 0.56789 0.0
H352 H 0.18339 0.42131 0.5323 0.0
H353 H 0.14227 0.43139 0.48465 0.0
H354 H 0.15598 0.37184 0.44848 0.0
O355 O 0.09789 0.37763 0.50338 0.0
O356 O 0.10776 0.34737 0.48657 0.0
O357 O 0.15792 0.36834 0.52512 0.0
C358 C 0.09229 0.35713 0.48372 0.0
H359 H 0.09206 0.30776 0.62082 0.0
H360 H 0.16524 0.4455 0.42105 0.0
H361 H 0.19985 0.46587 0.55509 0.0
H362 H 0.12125 0.44287 0.59005 0.0
Co363 Co 0.75973 0.12278 0.68599 0.0
C364 C 0.74787 0.08348 0.74399 0.0
C365 C 0.78913 0.10792 0.73538 0.0
C366 C 0.78513 0.08753 0.75768 0.0
N367 N 0.76579 0.10576 0.72707 0.0
N368 N 0.75916 0.07217 0.76301 0.0
H369 H 0.72703 0.07377 0.73914 0.0
H370 H 0.80767 0.12175 0.72324 0.0
C371 C 0.80919 0.16891 0.71804 0.0
O372 O 0.80069 0.16264 0.75132 0.0
N373 N 0.75398 0.13886 0.64425 0.0
C374 C 0.73211 0.13953 0.63538 0.0
C375 C 0.73517 0.14973 0.60113 0.0
C376 C 0.7698 0.14817 0.61525 0.0
N377 N 0.75877 0.15491 0.5885 0.0
C378 C 0.7173 0.11844 0.72851 0.0
C379 C 0.73224 0.17105 0.72713 0.0
C380 C 0.70683 0.15282 0.73885 0.0
C381 C 0.69989 0.12634 0.74064 0.0
C382 C 0.7493 0.16233 0.71564 0.0
N383 N 0.74151 0.13616 0.71554 0.0
H384 H 0.71006 0.09774 0.7263 0.0
H385 H 0.76774 0.17645 0.70365 0.0
H386 H 0.71472 0.13211 0.65194 0.0
H387 H 0.78861 0.14914 0.61335 0.0
O388 O 0.73009 0.08964 0.67121 0.0
O389 O 0.77142 0.10467 0.65474 0.0
O390 O 0.79497 0.15544 0.6916 0.0
C391 C 0.74691 0.0866 0.65198 0.0
H392 H 0.80003 0.0833 0.76713 0.0
H393 H 0.72062 0.15184 0.58595 0.0
H394 H 0.73841 0.19171 0.7251 0.0
H395 H 0.68028 0.11141 0.74846 0.0
H396 H 0.1701 0.43774 0.36366 0.0
H397 H 0.1836 0.43296 0.30384 0.0
H398 H 0.19486 0.36987 0.34113 0.0
H399 H 0.18268 0.3754 0.40206 0.0
H400 H 0.23276 0.40017 0.29492 0.0
H401 H 0.13976 0.35645 0.29429 0.0
H402 H 0.09696 0.35246 0.30836 0.0
H403 H 0.11402 0.41638 0.2368 0.0
H404 H 0.15715 0.42109 0.22272 0.0
H405 H 0.22828 0.35947 0.10815 0.0
H406 H 0.21072 0.35626 0.16931 0.0
H407 H 0.23029 0.43727 0.16359 0.0
H408 H 0.24857 0.44071 0.10296 0.0
H409 H 0.17363 0.39101 0.19342 0.0
H410 H 0.27079 0.43878 0.20788 0.0
H411 H 0.31327 0.44169 0.19466 0.0
H412 H 0.28468 0.36457 0.23826 0.0
H413 H 0.24205 0.36119 0.25183 0.0
C414 C 0.17576 0.42306 0.35969 0.0
C415 C 0.17489 0.40676 0.3881 0.0
C416 C 0.18325 0.42017 0.32511 0.0
C417 C 0.18961 0.40061 0.31774 0.0
C418 C 0.18974 0.38491 0.3461 0.0
C419 C 0.18249 0.38796 0.38094 0.0
C420 C 0.19557 0.39647 0.2802 0.0
C421 C 0.21959 0.39774 0.2729 0.0
C422 C 0.17838 0.39311 0.25127 0.0
C423 C 0.15181 0.3893 0.25774 0.0
C424 C 0.1344 0.36968 0.28156 0.0
C425 C 0.11012 0.36731 0.28958 0.0
C426 C 0.10294 0.3843 0.27369 0.0
C427 C 0.11973 0.40334 0.24919 0.0
C428 C 0.14408 0.40584 0.24113 0.0
C429 C 0.22839 0.37639 0.11985 0.0
C430 C 0.2397 0.40034 0.10112 0.0
C431 C 0.2185 0.37458 0.15466 0.0
C432 C 0.21925 0.39654 0.17072 0.0
C433 C 0.22951 0.42014 0.15146 0.0
C434 C 0.23996 0.42211 0.11705 0.0
C435 C 0.21095 0.39551 0.20851 0.0
C436 C 0.1865 0.39311 0.21569 0.0
C437 C 0.22745 0.39736 0.23733 0.0
C438 C 0.25331 0.39971 0.2307 0.0
C439 C 0.27362 0.42246 0.21465 0.0
C440 C 0.29771 0.42419 0.20716 0.0
C441 C 0.30168 0.4033 0.21569 0.0
C442 C 0.28161 0.38072 0.23188 0.0
C443 C 0.25751 0.37891 0.23955 0.0
H444 H 0.3203 0.40459 0.20975 0.0
H445 H 0.08443 0.3828 0.28056 0.0
H446 H 0.85285 0.20656 0.26449 0.0
H447 H 0.83527 0.1864 0.32343 0.0
H448 H 0.79574 0.23113 0.33252 0.0
H449 H 0.8125 0.25069 0.27348 0.0
H450 H 0.83182 0.23834 0.38976 0.0
H451 H 0.75529 0.16977 0.32993 0.0
H452 H 0.72839 0.13282 0.28897 0.0
H453 H 0.76544 0.09094 0.32923 0.0
H454 H 0.7923 0.12752 0.3708 0.0
H455 H 0.75274 0.18899 0.5466 0.0
H456 H 0.76833 0.20181 0.48458 0.0
H457 H 0.80225 0.15163 0.48682 0.0
H458 H 0.78679 0.13887 0.54894 0.0
H459 H 0.77122 0.14573 0.42425 0.0
H460 H 0.84257 0.21331 0.49149 0.0
H461 H 0.86323 0.24828 0.53721 0.0
H462 H 0.83327 0.29247 0.48343 0.0
H463 H 0.8121 0.25758 0.43764 0.0
C464 C 0.83993 0.21163 0.27865 0.0
C465 C 0.83434 0.23051 0.26447 0.0
C466 C 0.82989 0.20009 0.31231 0.0
C467 C 0.81426 0.20734 0.33229 0.0
C468 C 0.80779 0.2253 0.31751 0.0
C469 C 0.81757 0.23662 0.2839 0.0
C470 C 0.80729 0.19887 0.37025 0.0
C471 C 0.81841 0.21811 0.39728 0.0
C472 C 0.79032 0.17242 0.38008 0.0
C473 C 0.77608 0.15153 0.35299 0.0
C474 C 0.75793 0.15282 0.32969 0.0
C475 C 0.74246 0.13181 0.30671 0.0
C476 C 0.7452 0.10955 0.30651 0.0
C477 C 0.76337 0.10821 0.32937 0.0
C478 C 0.77865 0.12903 0.35273 0.0
C479 C 0.76358 0.18078 0.53383 0.0
C480 C 0.7687 0.16309 0.55256 0.0
C481 C 0.77255 0.18816 0.49855 0.0
C482 C 0.78655 0.17775 0.48126 0.0
C483 C 0.79156 0.15993 0.49979 0.0
C484 C 0.78291 0.15284 0.53529 0.0
C485 C 0.79553 0.18524 0.4436 0.0
C486 C 0.78491 0.16589 0.41671 0.0
C487 C 0.81281 0.21164 0.43384 0.0
C488 C 0.82555 0.2327 0.4613 0.0
C489 C 0.84019 0.23037 0.48958 0.0
C490 C 0.85204 0.25021 0.51547 0.0
C491 C 0.84952 0.27256 0.51327 0.0
C492 C 0.83519 0.27514 0.48512 0.0
C493 C 0.82328 0.25535 0.45916 0.0
H494 H 0.85871 0.28789 0.53334 0.0
H495 H 0.73333 0.09338 0.28853 0.0
H496 H 0.57979 0.81834 0.44185 0.0
H497 H 0.5827 0.80496 0.50332 0.0
H498 H 0.6615 0.87085 0.51232 0.0
H499 H 0.65893 0.88313 0.44966 0.0
H500 H 0.65983 0.83272 0.54741 0.0
H501 H 0.6064 0.87157 0.54925 0.0
H502 H 0.57096 0.87988 0.53079 0.0
H503 H 0.51337 0.80094 0.55941 0.0
H504 H 0.54847 0.79202 0.57755 0.0
H505 H 0.64569 0.81372 0.74185 0.0
H506 H 0.65107 0.83426 0.68299 0.0
H507 H 0.58442 0.76371 0.64266 0.0
H508 H 0.57906 0.74267 0.70051 0.0
H509 H 0.5843 0.81156 0.62752 0.0
H510 H 0.64317 0.77614 0.62712 0.0
H511 H 0.68115 0.77298 0.64851 0.0
H512 H 0.73252 0.85398 0.62169 0.0
H513 H 0.69472 0.85771 0.60084 0.0
C514 C 0.59779 0.82964 0.45694 0.0
C515 C 0.61909 0.85171 0.4414 0.0
C516 C 0.59942 0.82222 0.49212 0.0
C517 C 0.62203 0.83738 0.51302 0.0
C518 C 0.64378 0.85893 0.49693 0.0
C519 C 0.64236 0.86593 0.46124 0.0
C520 C 0.62244 0.83094 0.55178 0.0
C521 C 0.64352 0.82855 0.56508 0.0
C522 C 0.60136 0.82579 0.57518 0.0
C523 C 0.5801 0.83108 0.56453 0.0
C524 C 0.58618 0.85593 0.55141 0.0
C525 C 0.56615 0.86075 0.54102 0.0
C526 C 0.53993 0.84094 0.54387 0.0
C527 C 0.53369 0.81627 0.5572 0.0
C528 C 0.55365 0.81133 0.56758 0.0
C529 C 0.63218 0.80234 0.72063 0.0
C530 C 0.61192 0.77625 0.72656 0.0
C531 C 0.63532 0.81426 0.68691 0.0
C532 C 0.61817 0.80046 0.65854 0.0
C533 C 0.59779 0.77472 0.66433 0.0
C534 C 0.59478 0.76271 0.69776 0.0
C535 C 0.62114 0.81248 0.62252 0.0
C536 C 0.60073 0.81607 0.60987 0.0
C537 C 0.64326 0.81957 0.60031 0.0
C538 C 0.666 0.81721 0.61271 0.0
C539 C 0.66251 0.79329 0.626 0.0
C540 C 0.68402 0.7914 0.63801 0.0
C541 C 0.70923 0.81326 0.63647 0.0
C542 C 0.71297 0.83706 0.6229 0.0
C543 C 0.69149 0.83906 0.61101 0.0
H544 H 0.72587 0.81177 0.64576 0.0
H545 H 0.52445 0.84471 0.5358 0.0
H546 H 0.75927 0.56462 0.61027 0.0
H547 H 0.77772 0.5649 0.66941 0.0
H548 H 0.81915 0.64956 0.6695 0.0
H549 H 0.80131 0.64936 0.60987 0.0
H550 H 0.84859 0.63467 0.70004 0.0
H551 H 0.75989 0.61286 0.71526 0.0
H552 H 0.7122 0.58908 0.70408 0.0
H553 H 0.70723 0.51727 0.7397 0.0
H554 H 0.75501 0.54061 0.75057 0.0
H555 H 0.86614 0.64765 0.89052 0.0
H556 H 0.8497 0.6483 0.83028 0.0
H557 H 0.82018 0.56513 0.8198 0.0
H558 H 0.83587 0.56415 0.8805 0.0
H559 H 0.78516 0.5807 0.79525 0.0
H560 H 0.87828 0.6094 0.78386 0.0
H561 H 0.92395 0.63921 0.80273 0.0
H562 H 0.91903 0.70539 0.76404 0.0
H563 H 0.87301 0.67606 0.74599 0.0
C564 C 0.77242 0.58328 0.62286 0.0
C565 C 0.77856 0.60695 0.60567 0.0
C566 C 0.78294 0.58344 0.65667 0.0
C567 C 0.79933 0.60729 0.67436 0.0
C568 C 0.80653 0.63094 0.65642 0.0
C569 C 0.7963 0.63081 0.62235 0.0
C570 C 0.80794 0.60754 0.71213 0.0
C571 C 0.83466 0.623 0.72086 0.0
C572 C 0.78982 0.59256 0.73955 0.0
C573 C 0.76106 0.57842 0.73333 0.0
C574 C 0.74865 0.59196 0.72043 0.0
C575 C 0.7216 0.57857 0.71419 0.0
C576 C 0.7067 0.55166 0.72107 0.0
C577 C 0.71881 0.53811 0.73432 0.0
C578 C 0.74588 0.55141 0.74055 0.0
C579 C 0.85582 0.62941 0.8757 0.0
C580 C 0.85247 0.60584 0.89032 0.0
C581 C 0.84662 0.62986 0.84112 0.0
C582 C 0.83406 0.60682 0.82041 0.0
C583 C 0.82997 0.58315 0.83529 0.0
C584 C 0.83915 0.58267 0.86985 0.0
C585 C 0.82573 0.60741 0.78287 0.0
C586 C 0.79904 0.59217 0.77427 0.0
C587 C 0.84377 0.62327 0.75594 0.0
C588 C 0.87208 0.64055 0.76397 0.0
C589 C 0.88692 0.63031 0.7794 0.0
C590 C 0.91285 0.64714 0.79005 0.0
C591 C 0.92433 0.67419 0.78479 0.0
C592 C 0.91006 0.68443 0.76827 0.0
C593 C 0.88403 0.66772 0.75786 0.0
H594 H 0.94425 0.68725 0.79359 0.0
H595 H 0.68576 0.54131 0.71623 0.0
H596 H 0.19532 0.74651 0.7851 0.0
H597 H 0.2099 0.7636 0.846 0.0
H598 H 0.16441 0.80266 0.84162 0.0
H599 H 0.15038 0.78611 0.78033 0.0
H600 H 0.2094 0.83394 0.87129 0.0
H601 H 0.14384 0.74456 0.8906 0.0
H602 H 0.12148 0.69654 0.88245 0.0
H603 H 0.18978 0.69575 0.92144 0.0
H604 H 0.21268 0.74383 0.92939 0.0
H605 H 0.21943 0.85852 0.06117 0.0
H606 H 0.20123 0.84089 0.00155 0.0
H607 H 0.25385 0.81027 0.99136 0.0
H608 H 0.27224 0.82787 0.05073 0.0
H609 H 0.20236 0.7744 0.9708 0.0
H610 H 0.26926 0.8651 0.94014 0.0
H611 H 0.29117 0.91334 0.94602 0.0
H612 H 0.2173 0.91026 0.93185 0.0
H613 H 0.19512 0.86208 0.92462 0.0
C614 C 0.18842 0.7587 0.79721 0.0
C615 C 0.17171 0.76495 0.77801 0.0
C616 C 0.19666 0.76839 0.83206 0.0
C617 C 0.18787 0.78405 0.84876 0.0
C618 C 0.17145 0.79061 0.82939 0.0
C619 C 0.1635 0.78121 0.79432 0.0
C620 C 0.19605 0.79377 0.88625 0.0
C621 C 0.20742 0.82079 0.89309 0.0
C622 C 0.1938 0.77677 0.91484 0.0
C623 C 0.18005 0.74783 0.9103 0.0
C624 C 0.15415 0.73417 0.89721 0.0
C625 C 0.14137 0.70694 0.89266 0.0
C626 C 0.15422 0.69311 0.90134 0.0
C627 C 0.17986 0.70649 0.91469 0.0
C628 C 0.19274 0.73373 0.91927 0.0
C629 C 0.2269 0.84774 0.0465 0.0
C630 C 0.24749 0.84482 0.06066 0.0
C631 C 0.21664 0.8379 0.01231 0.0
C632 C 0.22637 0.82452 0.99195 0.0
C633 C 0.24617 0.82069 0.00654 0.0
C634 C 0.25673 0.83086 0.04043 0.0
C635 C 0.21593 0.81444 0.95543 0.0
C636 C 0.2041 0.78739 0.94889 0.0
C637 C 0.21743 0.83129 0.92725 0.0
C638 C 0.23056 0.86009 0.93213 0.0
C639 C 0.25772 0.87475 0.93839 0.0
C640 C 0.27019 0.90205 0.94179 0.0
C641 C 0.25561 0.91483 0.93969 0.0
C642 C 0.22856 0.90034 0.9336 0.0
C643 C 0.21607 0.87307 0.92953 0.0
H644 H 0.26529 0.93595 0.94265 0.0
H645 H 0.1443 0.67203 0.89779 0.0
H646 H 0.38592 0.1817 0.92315 0.0
H647 H 0.38351 0.19917 0.98176 0.0
H648 H 0.4423 0.18292 0.02333 0.0
H649 H 0.44464 0.16504 0.96535 0.0
H650 H 0.37033 0.17601 0.04847 0.0
H651 H 0.48141 0.23188 0.08113 0.0
H652 H 0.52372 0.25482 0.04895 0.0
H653 H 0.48672 0.27104 0.96072 0.0
H654 H 0.4443 0.24853 0.99258 0.0
H655 H 0.39482 0.21019 0.23615 0.0
H656 H 0.3927 0.19307 0.17491 0.0
H657 H 0.42461 0.27133 0.1321 0.0
H658 H 0.42716 0.28834 0.19283 0.0
H659 H 0.44976 0.24881 0.10535 0.0
H660 H 0.36011 0.22484 0.12305 0.0
H661 H 0.31674 0.20389 0.15233 0.0
H662 H 0.30859 0.12791 0.1357 0.0
H663 H 0.35222 0.14843 0.10713 0.0
C664 C 0.39828 0.18164 0.94465 0.0
C665 C 0.41548 0.17181 0.9391 0.0
C666 C 0.39687 0.19171 0.97821 0.0
C667 C 0.41281 0.19246 0.00682 0.0
C668 C 0.43005 0.18283 0.00146 0.0
C669 C 0.43146 0.17272 0.96801 0.0
C670 C 0.41159 0.2034 0.04233 0.0
C671 C 0.38766 0.19191 0.061 0.0
C672 C 0.43413 0.22442 0.05831 0.0
C673 C 0.45964 0.23829 0.03911 0.0
C674 C 0.48234 0.24044 0.05492 0.0
C675 C 0.50633 0.25334 0.03673 0.0
C676 C 0.50789 0.2643 0.00276 0.0
C677 C 0.48547 0.26245 0.98697 0.0
C678 C 0.46144 0.24959 0.00506 0.0
C679 C 0.40109 0.22355 0.21352 0.0
C680 C 0.41144 0.25055 0.21928 0.0
C681 C 0.39981 0.21382 0.17864 0.0
C682 C 0.40838 0.23091 0.14891 0.0
C683 C 0.41806 0.25779 0.15461 0.0
C684 C 0.4196 0.26751 0.18938 0.0
C685 C 0.40852 0.22118 0.11199 0.0
C686 C 0.43235 0.23287 0.093 0.0
C687 C 0.38575 0.2006 0.09559 0.0
C688 C 0.35965 0.18824 0.11334 0.0
C689 C 0.34925 0.20369 0.12605 0.0
C690 C 0.32457 0.19188 0.14245 0.0
C691 C 0.30993 0.16459 0.14592 0.0
C692 C 0.31994 0.14905 0.13297 0.0
C693 C 0.34468 0.16077 0.11676 0.0
H694 H 0.29083 0.15548 0.15862 0.0
H695 H 0.52648 0.27427 0.98872 0.0
H696 H 0.29025 0.30203 0.93122 0.0
H697 H 0.31116 0.27839 0.90724 0.0
H698 H 0.29905 0.29677 0.79893 0.0
H699 H 0.27826 0.32068 0.82272 0.0
H700 H 0.28698 0.2464 0.8036 0.0
H701 H 0.35907 0.3292 0.83888 0.0
H702 H 0.38575 0.36641 0.87943 0.0
H703 H 0.39642 0.31514 0.95096 0.0
H704 H 0.36913 0.27745 0.91144 0.0
H705 H 0.36773 0.19785 0.73037 0.0
H706 H 0.35168 0.22815 0.74514 0.0
H707 H 0.35792 0.21588 0.8585 0.0
H708 H 0.37403 0.1861 0.84411 0.0
H709 H 0.37525 0.26665 0.84529 0.0
H710 H 0.29924 0.18359 0.81435 0.0
H711 H 0.27221 0.14584 0.77474 0.0
H712 H 0.26949 0.19763 0.6955 0.0
H713 H 0.29684 0.23575 0.73447 0.0
C714 C 0.29222 0.30134 0.90231 0.0
C715 C 0.28263 0.31351 0.87901 0.0
C716 C 0.30419 0.28772 0.88859 0.0
C717 C 0.30704 0.28605 0.85123 0.0
C718 C 0.29712 0.29778 0.82785 0.0
C719 C 0.28513 0.31141 0.84155 0.0
C720 C 0.3202 0.27191 0.83668 0.0
C721 C 0.30648 0.25116 0.81225 0.0
C722 C 0.34552 0.27779 0.84828 0.0
C723 C 0.3618 0.30042 0.87232 0.0
C724 C 0.36683 0.32578 0.86348 0.0
C725 C 0.38206 0.34696 0.88631 0.0
C726 C 0.39263 0.34311 0.91788 0.0
C727 C 0.38804 0.31806 0.92665 0.0
C728 C 0.37268 0.29677 0.90404 0.0
C729 C 0.36595 0.20188 0.7584 0.0
C730 C 0.37198 0.18936 0.78601 0.0
C731 C 0.35663 0.21907 0.76683 0.0
C732 C 0.35329 0.2241 0.80299 0.0
C733 C 0.36025 0.21234 0.83044 0.0
C734 C 0.36936 0.19516 0.82209 0.0
C735 C 0.34184 0.24088 0.8128 0.0
C736 C 0.35588 0.26213 0.83635 0.0
C737 C 0.31682 0.23541 0.80051 0.0
C738 C 0.30035 0.21253 0.77711 0.0
C739 C 0.29307 0.18694 0.78834 0.0
C740 C 0.27766 0.16548 0.76603 0.0
C741 C 0.26921 0.16934 0.73257 0.0
C742 C 0.2761 0.19468 0.72139 0.0
C743 C 0.29155 0.21622 0.74358 0.0
H744 H 0.25727 0.1527 0.71534 0.0
H745 H 0.40448 0.35954 0.93548 0.0
H746 H 0.17872 0.38797 0.91543 0.0
H747 H 0.13333 0.37305 0.93379 0.0
H748 H 0.1363 0.31818 0.00798 0.0
H749 H 0.18144 0.33314 0.99041 0.0
H750 H 0.0883 0.32776 0.9319 0.0
H751 H 0.10243 0.31344 0.08423 0.0
H752 H 0.13714 0.33278 0.13053 0.0
H753 H 0.17647 0.4046 0.07031 0.0
H754 H 0.14176 0.38594 0.024 0.0
H755 H 0.96511 0.2477 0.01467 0.0
H756 H 1.01017 0.26763 0.9927 0.0
H757 H 0.03114 0.33703 0.05577 0.0
H758 H 0.98611 0.31695 0.07826 0.0
H759 H 0.06798 0.32592 0.06205 0.0
H760 H 0.02292 0.33501 0.96161 0.0
H761 H 0.98859 0.3209 0.915 0.0
H762 H 0.01226 0.26855 0.87049 0.0
H763 H 0.04652 0.28208 0.91715 0.0
C764 C 0.16963 0.37261 0.93547 0.0
C765 C 0.18388 0.36193 0.95157 0.0
C766 C 0.14367 0.36409 0.94596 0.0
C767 C 0.13148 0.3448 0.97279 0.0
C768 C 0.14538 0.33348 0.98784 0.0
C769 C 0.17124 0.34201 0.97755 0.0
C770 C 0.1044 0.33658 0.98555 0.0
C771 C 0.08387 0.32739 0.96035 0.0
C772 C 0.0986 0.33671 0.02263 0.0
C773 C 0.11956 0.34816 0.05045 0.0
C774 C 0.11842 0.3334 0.08092 0.0
C775 C 0.13809 0.34424 0.10716 0.0
C776 C 0.15898 0.36987 0.1033 0.0
C777 C 0.16028 0.38473 0.07319 0.0
C778 C 0.14062 0.37402 0.04693 0.0
C779 C 0.97923 0.26729 0.02364 0.0
C780 C 0.9719 0.28073 0.04816 0.0
C781 C 1.00506 0.27873 0.01098 0.0
C782 C 0.02413 0.30408 0.02205 0.0
C783 C 0.01689 0.31747 0.04675 0.0
C784 C 0.9911 0.30593 0.05969 0.0
C785 C 0.0517 0.31633 0.00849 0.0
C786 C 0.07236 0.32631 0.03358 0.0
C787 C 0.05769 0.31757 0.97125 0.0
C788 C 0.03715 0.30941 0.94308 0.0
C789 C 0.02069 0.32035 0.94204 0.0
C790 C 1.00126 0.31248 0.91558 0.0
C791 C 0.99821 0.2938 0.88985 0.0
C792 C 0.01463 0.283 0.89046 0.0
C793 C 0.03407 0.29079 0.91689 0.0
H794 H 0.98315 0.28773 0.86938 0.0
H795 H 0.17408 0.37827 0.1237 0.0
H796 H 0.79608 0.17332 0.07146 0.0
H797 H 0.76726 0.12639 0.08453 0.0
H798 H 0.82253 0.12994 0.16374 0.0
H799 H 0.8511 0.17642 0.15135 0.0
H800 H 0.77531 0.08057 0.08604 0.0
H801 H 0.79345 0.10682 0.23351 0.0
H802 H 0.80548 0.14607 0.27087 0.0
H803 H 0.75837 0.16573 0.20375 0.0
H804 H 0.74652 0.12694 0.16567 0.0
H805 H 0.73127 0.96212 0.18486 0.0
H806 H 0.75575 1.00634 0.15969 0.0
H807 H 0.69529 0.02218 0.19536 0.0
H808 H 0.67078 0.97799 0.22073 0.0
H809 H 0.74122 0.06235 0.21145 0.0
H810 H 0.70326 0.01102 0.10451 0.0
H811 H 0.69285 0.97564 0.0605 0.0
H812 H 0.77497 1.00648 0.04066 0.0
H813 H 0.7859 0.04183 0.08485 0.0
C814 C 0.80222 0.16402 0.09135 0.0
C815 C 0.82581 0.17878 0.11059 0.0
C816 C 0.78579 0.13719 0.09865 0.0
C817 C 0.79269 0.12476 0.12529 0.0
C818 C 0.81672 0.13919 0.1433 0.0
C819 C 0.83303 0.16585 0.13616 0.0
C820 C 0.77409 0.09742 0.13691 0.0
C821 C 0.76773 0.07645 0.11335 0.0
C822 C 0.76385 0.09217 0.17228 0.0
C823 C 0.76896 0.11396 0.19704 0.0
C824 C 0.78547 0.1194 0.22702 0.0
C825 C 0.79253 0.14174 0.24799 0.0
C826 C 0.78274 0.15839 0.23957 0.0
C827 C 0.76595 0.15283 0.21017 0.0
C828 C 0.75914 0.13075 0.18885 0.0
C829 C 0.72296 0.97484 0.18692 0.0
C830 C 0.69899 0.96639 0.20488 0.0
C831 C 0.73703 1.0002 0.17249 0.0
C832 C 0.72731 0.01765 0.17525 0.0
C833 C 0.70329 0.00919 0.19292 0.0
C834 C 0.68929 0.98388 0.20751 0.0
C835 C 0.74255 0.04493 0.16074 0.0
C836 C 0.74845 0.06612 0.18395 0.0
C837 C 0.75195 0.05025 0.12471 0.0
C838 C 0.74539 0.02895 0.09821 0.0
C839 C 0.7191 0.01014 0.09096 0.0
C840 C 0.71311 0.99011 0.06595 0.0
C841 C 0.73325 0.98881 0.04788 0.0
C842 C 0.75941 0.00752 0.05471 0.0
C843 C 0.76551 0.02756 0.0797 0.0
H844 H 0.72862 0.97334 0.02854 0.0
H845 H 0.78782 0.17543 0.25606 0.0
H846 H 0.77729 0.74078 0.39201 0.0
H847 H 0.75502 0.7638 0.37001 0.0
H848 H 0.68396 0.68972 0.35445 0.0
H849 H 0.70616 0.66651 0.37708 0.0
H850 H 0.70021 0.72905 0.29418 0.0
H851 H 0.68286 0.71929 0.42167 0.0
H852 H 0.69485 0.72242 0.48591 0.0
H853 H 0.74421 0.80593 0.47582 0.0
H854 H 0.73287 0.80324 0.41131 0.0
H855 H 0.62142 0.78942 0.26508 0.0
H856 H 0.63836 0.76058 0.28332 0.0
H857 H 0.70387 0.82597 0.33597 0.0
H858 H 0.68656 0.85438 0.31915 0.0
H859 H 0.68676 0.78692 0.37816 0.0
H860 H 0.70785 0.79795 0.25177 0.0
H861 H 0.6989 0.79649 0.18659 0.0
H862 H 0.64609 0.71332 0.193 0.0
H863 H 0.65449 0.71435 0.25834 0.0
C864 C 0.75701 0.72936 0.38355 0.0
C865 C 0.74348 0.70181 0.38619 0.0
C866 C 0.74427 0.74255 0.37115 0.0
C867 C 0.71783 0.72848 0.36063 0.0
C868 C 0.70438 0.70094 0.36239 0.0
C869 C 0.71701 0.68773 0.37547 0.0
C870 C 0.70424 0.74278 0.34884 0.0
C871 C 0.69684 0.7414 0.31258 0.0
C872 C 0.70044 0.75933 0.37271 0.0
C873 C 0.70721 0.76102 0.41155 0.0
C874 C 0.69647 0.73829 0.43305 0.0
C875 C 0.70311 0.73999 0.46953 0.0
C876 C 0.72033 0.76435 0.48492 0.0
C877 C 0.7309 0.78707 0.46385 0.0
C878 C 0.72436 0.78547 0.42733 0.0
C879 C 0.63954 0.79764 0.28029 0.0
C880 C 0.6526 0.82421 0.29065 0.0
C881 C 0.64929 0.78115 0.29064 0.0
C882 C 0.67259 0.79103 0.3109 0.0
C883 C 0.6858 0.81769 0.32061 0.0
C884 C 0.6759 0.834 0.3108 0.0
C885 C 0.68307 0.77377 0.32305 0.0
C886 C 0.6899 0.77451 0.35957 0.0
C887 C 0.68667 0.75694 0.29924 0.0
C888 C 0.68156 0.75629 0.26 0.0
C889 C 0.69417 0.77939 0.23933 0.0
C890 C 0.68923 0.77863 0.20235 0.0
C891 C 0.67187 0.75484 0.18569 0.0
C892 C 0.65948 0.73174 0.20595 0.0
C893 C 0.66434 0.7324 0.24295 0.0
H894 H 0.66808 0.75429 0.15705 0.0
H895 H 0.72543 0.76563 0.51317 0.0
H896 H 0.05273 0.70662 0.53632 0.0
H897 H 1.00763 0.68553 0.51258 0.0
H898 H 1.00295 0.75413 0.54103 0.0
H899 H 0.04775 0.77521 0.56436 0.0
H900 H 0.96064 0.70594 0.56638 0.0
H901 H 1.00931 0.7442 0.4568 0.0
H902 H 0.04107 0.75135 0.40866 0.0
H903 H 0.99865 0.6692 0.38271 0.0
H904 H 0.96687 0.66146 0.43117 0.0
H905 H 0.84405 0.68728 0.49025 0.0
H906 H 0.88971 0.70393 0.50684 0.0
H907 H 0.8895 0.64022 0.44878 0.0
H908 H 0.84385 0.62423 0.4304 0.0
H909 H 0.93421 0.6813 0.43896 0.0
H910 H 0.88426 0.6424 0.54566 0.0
H911 H 0.85276 0.63396 0.59484 0.0
H912 H 0.89748 0.71456 0.628 0.0
H913 H 0.92895 0.72364 0.5787 0.0
C914 C 0.04207 0.71719 0.53726 0.0
C915 C 0.05387 0.74263 0.55204 0.0
C916 C 0.0164 0.7052 0.52355 0.0
C917 C 1.00196 0.71831 0.52489 0.0
C918 C 0.01375 0.74369 0.53957 0.0
C919 C 0.03945 0.7558 0.5527 0.0
C920 C 0.97412 0.70533 0.51277 0.0
C921 C 0.95483 0.70074 0.53847 0.0
C922 C 0.96648 0.69762 0.4766 0.0
C923 C 0.98591 0.70219 0.44798 0.0
C924 C 1.00695 0.72759 0.44119 0.0
C925 C 0.02491 0.73177 0.41375 0.0
C926 C 0.02193 0.71073 0.39272 0.0
C927 C 1.00098 0.68546 0.39909 0.0
C928 C 0.98299 0.68118 0.42654 0.0
C929 C 0.85372 0.67683 0.48087 0.0
C930 C 0.84025 0.65431 0.45921 0.0
C931 C 0.87986 0.68626 0.49066 0.0
C932 C 0.89303 0.67294 0.48011 0.0
C933 C 0.87982 0.65079 0.4576 0.0
C934 C 0.85372 0.64165 0.44706 0.0
C935 C 0.92053 0.68237 0.49252 0.0
C936 C 0.93981 0.68621 0.46698 0.0
C937 C 0.92819 0.68909 0.52905 0.0
C938 C 0.9089 0.68373 0.55829 0.0
C939 C 0.88725 0.65838 0.56322 0.0
C940 C 0.86941 0.65348 0.59115 0.0
C941 C 0.87317 0.67372 0.61449 0.0
C942 C 0.89463 0.69892 0.60989 0.0
C943 C 0.91246 0.70395 0.58197 0.0
H944 H 0.85954 0.66993 0.63626 0.0
H945 H 0.03581 0.71401 0.37141 0.0
H946 H 0.31325 0.05528 0.66588 0.0
H947 H 0.29026 0.01107 0.63987 0.0
H948 H 0.30027 0.97939 0.73968 0.0
H949 H 0.32405 0.02364 0.76511 0.0
H950 H 0.30748 0.95496 0.68814 0.0
H951 H 0.24033 0.97637 0.7127 0.0
H952 H 0.21828 1.0026 0.70957 0.0
H953 H 0.21234 0.99356 0.59448 0.0
H954 H 0.23467 0.96754 0.59689 0.0
H955 H 0.20195 0.82363 0.67636 0.0
H956 H 0.23209 0.86964 0.69079 0.0
H957 H 0.22922 0.89101 0.5804 0.0
H958 H 0.19893 0.84465 0.5656 0.0
H959 H 0.22018 0.92129 0.63115 0.0
H960 H 0.2841 0.89484 0.61045 0.0
H961 H 0.3037 0.86661 0.61786 0.0
H962 H 0.31285 0.8831 0.73139 0.0
H963 H 0.29297 0.91114 0.72476 0.0
C964 C 0.31053 0.03884 0.68218 0.0
C965 C 0.32045 0.04296 0.71753 0.0
C966 C 0.29729 0.01352 0.66737 0.0
C967 C 0.29302 0.99162 0.68792 0.0
C968 C 0.30327 0.99582 0.72311 0.0
C969 C 0.31691 0.02118 0.73768 0.0
C970 C 0.27774 0.96434 0.6731 0.0
C971 C 0.28829 0.94761 0.67599 0.0
C972 C 0.25286 0.95465 0.65647 0.0
C973 C 0.23944 0.97028 0.65494 0.0
C974 C 0.2345 0.98015 0.6867 0.0
C975 C 0.22192 0.99495 0.68506 0.0
C976 C 0.21399 0.99982 0.65184 0.0
C977 C 0.21855 0.98982 0.62019 0.0
C978 C 0.23114 0.97504 0.62168 0.0
C979 C 0.20799 0.83803 0.65495 0.0
C980 C 0.19803 0.83044 0.61978 0.0
C981 C 0.2253 0.86436 0.66326 0.0
C982 C 0.23303 0.88382 0.63668 0.0
C983 C 0.22357 0.87631 0.60133 0.0
C984 C 0.20641 0.84981 0.59284 0.0
C985 C 0.24984 0.91201 0.64663 0.0
C986 C 0.23952 0.92884 0.64291 0.0
C987 C 0.27468 0.92162 0.66312 0.0
C988 C 0.28688 0.90496 0.66713 0.0
C989 C 0.29013 0.89231 0.63704 0.0
C990 C 0.30132 0.87636 0.64109 0.0
C991 C 0.30948 0.87303 0.67508 0.0
C992 C 0.30652 0.88569 0.70508 0.0
C993 C 0.29533 0.90165 0.70118 0.0
H994 H 0.31812 0.86066 0.67816 0.0
H995 H 0.20425 0.01127 0.65062 0.0
H996 H 0.83121 0.64573 0.98306 0.0
H997 H 0.80221 0.66242 0.96688 0.0
H998 H 0.78815 0.66914 0.07941 0.0
H999 H 0.81721 0.65196 0.09601 0.0
H1000 H 0.74311 0.6513 0.03867 0.0
H1001 H 0.83148 0.72293 0.03324 0.0
H1002 H 0.87803 0.74528 0.01522 0.0
H1003 H 0.85566 0.73735 0.90371 0.0
H1004 H 0.80894 0.71459 0.92105 0.0
H1005 H 0.69154 0.73631 0.00389 0.0
H1006 H 0.71764 0.71752 0.02613 0.0
H1007 H 0.73917 0.71111 0.91708 0.0
H1008 H 0.71381 0.7307 0.89468 0.0
H1009 H 0.78092 0.73 0.95989 0.0
H1010 H 0.6928 0.65712 0.96473 0.0
H1011 H 0.64611 0.63384 0.9821 0.0
H1012 H 0.66775 0.64371 0.09399 0.0
H1013 H 0.71461 0.66738 0.07728 0.0
C1014 C 0.82188 0.65057 0.00452 0.0
C1015 C 0.82685 0.64778 0.04092 0.0
C1016 C 0.80529 0.6602 0.99516 0.0
C1017 C 0.79341 0.66763 0.02188 0.0
C1018 C 0.79725 0.66372 0.05829 0.0
C1019 C 0.81385 0.65389 0.06775 0.0
C1020 C 0.77787 0.68032 0.0114 0.0
C1021 C 0.75148 0.66876 0.02195 0.0
C1022 C 0.7886 0.70284 0.98897 0.0
C1023 C 0.8167 0.71688 0.97845 0.0
C1024 C 0.83648 0.72581 0.00487 0.0
C1025 C 0.8629 0.73857 0.99478 0.0
C1026 C 0.8698 0.74269 0.95834 0.0
C1027 C 0.85029 0.73413 0.93193 0.0
C1028 C 0.82384 0.72133 0.94187 0.0
C1029 C 0.70197 0.73113 0.98457 0.0
C1030 C 0.70044 0.73507 0.94737 0.0
C1031 C 0.7167 0.72009 0.99736 0.0
C1032 C 0.73018 0.71254 0.97332 0.0
C1033 C 0.72889 0.71664 0.93623 0.0
C1034 C 0.71416 0.72768 0.9234 0.0
C1035 C 0.746 0.70081 0.98673 0.0
C1036 C 0.77252 0.71261 0.97677 0.0
C1037 C 0.73535 0.67853 0.00964 0.0
C1038 C 0.70721 0.66427 0.01975 0.0
C1039 C 0.6876 0.65452 0.99304 0.0
C1040 C 0.66111 0.64122 0.00277 0.0
C1041 C 0.65397 0.63737 0.03913 0.0
C1042 C 0.67331 0.64675 0.06584 0.0
C1043 C 0.69984 0.66009 0.05626 0.0
H1044 H 0.63344 0.62706 0.04661 0.0
H1045 H 0.89026 0.75256 0.95058 0.0
H1046 H 0.97273 0.66877 0.12885 0.0
H1047 H 0.01775 0.69278 0.15255 0.0
H1048 H 0.02025 0.76614 0.13207 0.0
H1049 H 0.97541 0.74232 0.1086 0.0
H1050 H 0.06333 0.76374 0.10414 0.0
H1051 H 0.01512 0.74593 0.21544 0.0
H1052 H 0.98369 0.71843 0.26236 0.0
H1053 H 0.02671 0.67805 0.27861 0.0
H1054 H 0.05819 0.70504 0.23134 0.0
H1055 H 0.18041 0.85675 0.18495 0.0
H1056 H 0.13439 0.82891 0.16904 0.0
H1057 H 0.13539 0.76176 0.21406 0.0
H1058 H 0.18146 0.79016 0.23194 0.0
H1059 H 0.09059 0.75763 0.22864 0.0
H1060 H 0.13972 0.77576 0.1192 0.0
H1061 H 0.17171 0.80328 0.07277 0.0
H1062 H 0.12712 0.84144 0.05163 0.0
H1063 H 0.0951 0.81447 0.09829 0.0
C1064 C 0.98287 0.69001 0.12964 0.0
C1065 C 0.97046 0.70362 0.11694 0.0
C1066 C 1.00851 0.70369 0.14335 0.0
C1067 C 0.02234 0.73127 0.14421 0.0
C1068 C 1.00993 0.74487 0.13178 0.0
C1069 C 0.98422 0.73122 0.11858 0.0
C1070 C 0.05018 0.74611 0.15635 0.0
C1071 C 0.06928 0.76262 0.13147 0.0
C1072 C 0.05807 0.7439 0.19162 0.0
C1073 C 0.03882 0.72729 0.2195 0.0
C1074 C 0.01769 0.73096 0.22867 0.0
C1075 C 0.99991 0.71552 0.25542 0.0
C1076 C 1.00316 0.69645 0.27339 0.0
C1077 C 0.02419 0.69279 0.26462 0.0
C1078 C 0.042 0.70815 0.23785 0.0
C1079 C 0.17082 0.83606 0.19163 0.0
C1080 C 0.18463 0.82558 0.2094 0.0
C1081 C 0.14449 0.82007 0.18225 0.0
C1082 C 0.13145 0.79296 0.18921 0.0
C1083 C 0.14498 0.78255 0.20804 0.0
C1084 C 0.17131 0.79876 0.21826 0.0
C1085 C 0.10385 0.77572 0.17656 0.0
C1086 C 0.08477 0.75866 0.20121 0.0
C1087 C 0.09596 0.77715 0.14085 0.0
C1088 C 0.1151 0.79321 0.11247 0.0
C1089 C 0.13682 0.79013 0.1048 0.0
C1090 C 0.15496 0.80563 0.07843 0.0
C1091 C 0.15147 0.82414 0.05935 0.0
C1092 C 0.1298 0.82712 0.06647 0.0
C1093 C 0.11165 0.81171 0.09285 0.0
H1094 H 0.1655 0.83618 0.03902 0.0
H1095 H 0.98942 0.68458 0.29417 0.0
H1096 H 0.31611 0.97179 0.29604 0.0
H1097 H 0.33688 0.01728 0.31826 0.0
H1098 H 0.26416 0.01701 0.30284 0.0
H1099 H 0.24331 0.97159 0.28129 0.0
H1100 H 0.31117 0.06121 0.27092 0.0
H1101 H 0.27916 0.01407 0.38337 0.0
H1102 H 0.27493 0.98226 0.42988 0.0
H1103 H 0.35837 0.02454 0.44594 0.0
H1104 H 0.36313 0.05642 0.3991 0.0
H1105 H 0.33769 0.18071 0.34713 0.0
H1106 H 0.31851 0.13438 0.33215 0.0
H1107 H 0.38446 0.13337 0.38124 0.0
H1108 H 0.40324 0.17974 0.39787 0.0
H1109 H 0.34302 0.08942 0.39587 0.0
H1110 H 0.37765 0.13385 0.2844 0.0
H1111 H 0.3859 0.16551 0.23573 0.0
H1112 H 0.30311 0.12924 0.21564 0.0
H1113 H 0.29443 0.09698 0.26389 0.0
C1114 C 0.30458 0.98144 0.29766 0.0
C1115 C 0.27806 0.96808 0.28712 0.0
C1116 C 0.3164 1.00734 0.31044 0.0
C1117 C 0.30203 0.02049 0.31229 0.0
C1118 C 0.27558 1.0072 0.30176 0.0
C1119 C 0.26364 0.98119 0.28967 0.0
C1120 C 0.31474 0.04843 0.32387 0.0
C1121 C 0.31784 0.06735 0.29835 0.0
C1122 C 0.32439 0.05658 0.35927 0.0
C1123 C 0.32153 0.03745 0.38744 0.0
C1124 C 0.29664 0.01644 0.39655 0.0
C1125 C 0.29414 0.99843 0.42304 0.0
C1126 C 0.31638 1.00133 0.44078 0.0
C1127 C 0.34117 0.02229 0.43214 0.0
C1128 C 0.34377 0.04034 0.40564 0.0
C1129 C 0.34813 0.17066 0.3549 0.0
C1130 C 0.37213 0.18404 0.37351 0.0
C1131 C 0.3372 0.14411 0.34603 0.0
C1132 C 0.3503 0.13033 0.35459 0.0
C1133 C 0.37397 0.14347 0.37407 0.0
C1134 C 0.38472 0.17002 0.38357 0.0
C1135 C 0.33922 0.10237 0.34298 0.0
C1136 C 0.33645 0.08339 0.3684 0.0
C1137 C 0.3304 0.09415 0.3072 0.0
C1138 C 0.3354 0.11324 0.27796 0.0
C1139 C 0.36121 0.13271 0.26967 0.0
C1140 C 0.36596 0.15073 0.24213 0.0
C1141 C 0.34502 0.14961 0.22286 0.0
C1142 C 0.3193 0.13016 0.23069 0.0
C1143 C 0.31446 0.11189 0.25798 0.0
H1144 H 0.34871 0.16378 0.20185 0.0
H1145 H 0.3144 0.98737 0.46129 0.0
H1146 H 0.30649 0.27903 0.39892 0.0
H1147 H 0.28078 0.29798 0.42194 0.0
H1148 H 0.31146 0.30148 0.52867 0.0
H1149 H 0.33728 0.28242 0.50573 0.0
H1150 H 0.26057 0.28515 0.53243 0.0
H1151 H 0.33405 0.35586 0.4739 0.0
H1152 H 0.36524 0.38008 0.42502 0.0
H1153 H 0.30254 0.37577 0.36066 0.0
H1154 H 0.27083 0.35063 0.4085 0.0
H1155 H 0.20948 0.3673 0.595 0.0
H1156 H 0.23965 0.35115 0.5802 0.0
H1157 H 0.21337 0.33976 0.4697 0.0
H1158 H 0.18361 0.35587 0.48402 0.0
H1159 H 0.26571 0.36313 0.47312 0.0
H1160 H 0.19197 0.28829 0.52848 0.0
H1161 H 0.16052 0.26478 0.57745 0.0
H1162 H 0.224 0.27853 0.64804 0.0
H1163 H 0.25587 0.30246 0.59959 0.0
C1164 C 0.30797 0.28398 0.42725 0.0
C1165 C 0.32423 0.27937 0.45034 0.0
C1166 C 0.2932 0.29484 0.44042 0.0
C1167 C 0.29447 0.30167 0.47699 0.0
C1168 C 0.31016 0.2965 0.50034 0.0
C1169 C 0.32489 0.2855 0.48718 0.0
C1170 C 0.27939 0.31413 0.49069 0.0
C1171 C 0.26205 0.30247 0.51978 0.0
C1172 C 0.28096 0.33657 0.47402 0.0
C1173 C 0.29998 0.35108 0.44473 0.0
C1174 C 0.32683 0.35971 0.44911 0.0
C1175 C 0.34462 0.3736 0.42155 0.0
C1176 C 0.33587 0.37933 0.38966 0.0
C1177 C 0.3093 0.37116 0.38526 0.0
C1178 C 0.29139 0.35702 0.41255 0.0
C1179 C 0.21021 0.36143 0.56756 0.0
C1180 C 0.19399 0.36283 0.5408 0.0
C1181 C 0.22738 0.35207 0.55915 0.0
C1182 C 0.22868 0.34403 0.52384 0.0
C1183 C 0.21278 0.34582 0.49711 0.0
C1184 C 0.19564 0.35499 0.50546 0.0
C1185 C 0.2465 0.33377 0.51412 0.0
C1186 C 0.26443 0.34593 0.48586 0.0
C1187 C 0.24544 0.31182 0.53147 0.0
C1188 C 0.22631 0.29743 0.56056 0.0
C1189 C 0.19924 0.2865 0.55455 0.0
C1190 C 0.18133 0.27306 0.58218 0.0
C1191 C 0.19026 0.27024 0.61587 0.0
C1192 C 0.21712 0.28078 0.62195 0.0
C1193 C 0.23511 0.29427 0.59442 0.0
H1194 H 0.17637 0.25982 0.63723 0.0
H1195 H 0.34968 0.39018 0.36841 0.0
H1196 H 0.02893 0.3155 0.56129 0.0
H1197 H 0.98453 0.29155 0.58601 0.0
H1198 H 0.01606 0.28767 0.68944 0.0
H1199 H 0.06047 0.31077 0.66417 0.0
H1200 H 0.97582 0.24287 0.6768 0.0
H1201 H 0.99033 0.33061 0.66944 0.0
H1202 H 1.00219 0.37267 0.63991 0.0
H1203 H 0.93931 0.33247 0.56404 0.0
H1204 H 0.92729 0.29012 0.59282 0.0
H1205 H 0.85159 0.19227 0.76411 0.0
H1206 H 0.89745 0.22307 0.74797 0.0
H1207 H 0.87419 0.22347 0.6378 0.0
H1208 H 0.82864 0.19306 0.65365 0.0
H1209 H 0.91094 0.27221 0.6589 0.0
H1210 H 0.89877 0.18478 0.66326 0.0
H1211 H 0.88667 0.14244 0.69209 0.0
H1212 H 0.94523 0.18245 0.77365 0.0
H1213 H 0.95742 0.22509 0.74555 0.0
C1214 C 0.02639 0.3098 0.5894 0.0
C1215 C 0.0482 0.31517 0.61088 0.0
C1216 C 1.00096 0.29615 0.60361 0.0
C1217 C 0.99677 0.28815 0.63993 0.0
C1218 C 0.01862 0.2936 0.6614 0.0
C1219 C 0.04402 0.30683 0.64699 0.0
C1220 C 0.96961 0.27335 0.65515 0.0
C1221 C 0.96186 0.24964 0.67345 0.0
C1222 C 0.95099 0.2817 0.6503 0.0
C1223 C 0.95804 0.30717 0.63314 0.0
C1224 C 0.97913 0.33072 0.64634 0.0
C1225 C 0.98587 0.35462 0.62974 0.0
C1226 C 0.97155 0.35523 0.60008 0.0
C1227 C 0.9504 0.33196 0.587 0.0
C1228 C 0.94359 0.30801 0.60348 0.0
C1229 C 0.85622 0.19927 0.73661 0.0
C1230 C 0.83645 0.19004 0.71016 0.0
C1231 C 0.88246 0.21675 0.72734 0.0
C1232 C 0.88936 0.22535 0.69152 0.0
C1233 C 0.86944 0.21711 0.66556 0.0
C1234 C 0.84335 0.1996 0.6747 0.0
C1235 C 0.91731 0.24186 0.68033 0.0
C1236 C 0.92512 0.26576 0.66267 0.0
C1237 C 0.936 0.23374 0.68578 0.0
C1238 C 0.92879 0.20813 0.70256 0.0
C1239 C 0.90892 0.18456 0.6875 0.0
C1240 C 0.90207 0.16051 0.70368 0.0
C1241 C 0.91512 0.15976 0.73475 0.0
C1242 C 0.9351 0.18306 0.74963 0.0
C1243 C 0.942 0.20718 0.73359 0.0
H1244 H 0.90979 0.14112 0.74723 0.0
H1245 H 0.97681 0.37375 0.58726 0.0
H1246 H 0.77282 0.03478 0.75711 0.0
H1247 H 0.74933 0.99013 0.78165 0.0
H1248 H 0.69218 1.00624 0.82967 0.0
H1249 H 0.71538 0.05092 0.80417 0.0
H1250 H 0.71474 0.9792 0.87634 0.0
H1251 H 0.67068 0.97293 0.7659 0.0
H1252 H 0.66556 0.97828 0.70107 0.0
H1253 H 0.70054 0.93136 0.67549 0.0
H1254 H 0.70664 0.92643 0.74018 0.0
H1255 H 0.62957 0.8414 0.91703 0.0
H1256 H 0.64664 0.88742 0.89977 0.0
H1257 H 0.6967 0.88083 0.8206 0.0
H1258 H 0.67958 0.83512 0.83707 0.0
H1259 H 0.67246 0.90383 0.79185 0.0
H1260 H 0.72024 0.91383 0.90261 0.0
H1261 H 0.72363 0.90695 0.96753 0.0
H1262 H 0.67995 0.94549 0.99251 0.0
H1263 H 0.67605 0.95234 0.92766 0.0
C1264 C 0.7554 0.02889 0.77317 0.0
C1265 C 0.74596 0.04632 0.77891 0.0
C1266 C 0.74194 1.00336 0.78704 0.0
C1267 C 0.71904 0.99489 0.80749 0.0
C1268 C 0.70986 0.01243 0.81403 0.0
C1269 C 0.72301 0.03783 0.7994 0.0
C1270 C 0.70453 0.96744 0.821 0.0
C1271 C 0.7051 0.96267 0.85799 0.0
C1272 C 0.69222 0.94593 0.797 0.0
C1273 C 0.68946 0.94963 0.75797 0.0
C1274 C 0.67775 0.96416 0.74648 0.0
C1275 C 0.67459 0.96706 0.70972 0.0
C1276 C 0.68279 0.95525 0.68416 0.0
C1277 C 0.69428 0.94061 0.6953 0.0
C1278 C 0.69764 0.9378 0.73202 0.0
C1279 C 0.64436 0.84983 0.89616 0.0
C1280 C 0.65315 0.83446 0.87849 0.0
C1281 C 0.65416 0.87619 0.88634 0.0
C1282 C 0.67308 0.88772 0.85891 0.0
C1283 C 0.68205 0.87244 0.84169 0.0
C1284 C 0.67226 0.84623 0.85132 0.0
C1285 C 0.68329 0.91542 0.84713 0.0
C1286 C 0.68191 0.92028 0.81034 0.0
C1287 C 0.69482 0.93695 0.87134 0.0
C1288 C 0.69759 0.93331 0.9103 0.0
C1289 C 0.71122 0.92069 0.92195 0.0
C1290 C 0.71325 0.91681 0.95872 0.0
C1291 C 0.70188 0.92564 0.98411 0.0
C1292 C 0.68864 0.93856 0.97279 0.0
C1293 C 0.68656 0.94248 0.93604 0.0
H1294 H 0.70342 0.92257 0.01257 0.0
H1295 H 0.68012 0.95735 0.65573 0.0
H1296 H 0.32913 0.37405 0.02956 0.0
H1297 H 0.34489 0.36213 0.08328 0.0
H1298 H 0.26592 0.30077 0.10695 0.0
H1299 H 0.24997 0.31282 0.05359 0.0
H1300 H 0.2884 0.33059 0.16499 0.0
H1301 H 0.31154 0.28627 0.077 0.0
H1302 H 0.33178 0.28116 0.02168 0.0
H1303 H 0.40806 0.33836 0.06053 0.0
H1304 H 0.38823 0.34414 0.11587 0.0
H1305 H 0.31796 0.25836 0.29337 0.0
H1306 H 0.3038 0.27292 0.24046 0.0
H1307 H 0.38037 0.34217 0.23339 0.0
H1308 H 0.39453 0.32794 0.28681 0.0
H1309 H 0.36055 0.31009 0.16792 0.0
H1310 H 0.33611 0.35177 0.25813 0.0
H1311 H 0.31513 0.35297 0.31477 0.0
H1312 H 0.23953 0.29756 0.27185 0.0
H1313 H 0.26024 0.29534 0.21513 0.0
C1314 C 0.3152 0.35771 0.04584 0.0
C1315 C 0.28833 0.34437 0.03742 0.0
C1316 C 0.32423 0.35093 0.07653 0.0
C1317 C 0.30655 0.33057 0.09908 0.0
C1318 C 0.27985 0.31662 0.08997 0.0
C1319 C 0.27081 0.32341 0.05935 0.0
C1320 C 0.31568 0.32468 0.1331 0.0
C1321 C 0.30395 0.32577 0.16555 0.0
C1322 C 0.33639 0.31904 0.13388 0.0
C1323 C 0.34836 0.31585 0.10042 0.0
C1324 C 0.3326 0.29797 0.07359 0.0
C1325 C 0.344 0.29491 0.04226 0.0
C1326 C 0.37117 0.30947 0.03758 0.0
C1327 C 0.38701 0.32713 0.06419 0.0
C1328 C 0.3757 0.3303 0.09555 0.0
C1329 C 0.33156 0.27696 0.28097 0.0
C1330 C 0.35724 0.29214 0.29413 0.0
C1331 C 0.32351 0.28518 0.25078 0.0
C1332 C 0.34114 0.3085 0.23311 0.0
C1333 C 0.36658 0.32408 0.24678 0.0
C1334 C 0.37451 0.31609 0.27741 0.0
C1335 C 0.33318 0.31589 0.19946 0.0
C1336 C 0.34511 0.31505 0.16718 0.0
C1337 C 0.31247 0.32145 0.19879 0.0
C1338 C 0.29979 0.32315 0.23249 0.0
C1339 C 0.31504 0.33958 0.26087 0.0
C1340 C 0.30318 0.34046 0.29304 0.0
C1341 C 0.27598 0.32531 0.29703 0.0
C1342 C 0.2606 0.30924 0.26878 0.0
C1343 C 0.27241 0.30814 0.2366 0.0
H1344 H 0.26684 0.3261 0.32196 0.0
H1345 H 0.37997 0.30697 0.01341 0.0
H1346 H 0.94779 0.32286 0.20558 0.0
H1347 H 0.97578 0.33755 0.25899 0.0
H1348 H 0.97328 0.26302 0.26402 0.0
H1349 H 0.94452 0.2479 0.21125 0.0
H1350 H 0.96374 0.2756 0.32802 0.0
H1351 H 0.03123 0.32098 0.2382 0.0
H1352 H 0.05148 0.34968 0.18544 0.0
H1353 H 0.04975 0.41307 0.24037 0.0
H1354 H 0.02936 0.38467 0.2934 0.0
H1355 H 0.07145 0.31095 0.44688 0.0
H1356 H 0.04117 0.29746 0.39576 0.0
H1357 H 0.03663 0.36809 0.40647 0.0
H1358 H 0.06673 0.38163 0.45793 0.0
H1359 H 0.04885 0.35887 0.33598 0.0
H1360 H 0.98546 0.31404 0.4286 0.0
H1361 H 0.96636 0.2852 0.48142 0.0
H1362 H 0.96015 0.22005 0.42096 0.0
H1363 H 0.97963 0.24862 0.36791 0.0
C1364 C 0.9536 0.30979 0.21768 0.0
C1365 C 0.94405 0.28427 0.20426 0.0
C1366 C 0.96962 0.31821 0.2482 0.0
C1367 C 0.97678 0.30144 0.26538 0.0
C1368 C 0.96792 0.27624 0.25126 0.0
C1369 C 0.95164 0.26769 0.221 0.0
C1370 C 0.99247 0.3097 0.29901 0.0
C1371 C 0.98252 0.29363 0.32961 0.0
C1372 C 0.01654 0.33361 0.30142 0.0
C1373 C 0.02865 0.35068 0.2696 0.0
C1374 C 0.03503 0.34099 0.2389 0.0
C1375 C 0.04656 0.35721 0.209 0.0
C1376 C 0.05183 0.38316 0.20953 0.0
C1377 C 0.0456 0.39296 0.23998 0.0
C1378 C 0.0341 0.37683 0.26998 0.0
C1379 C 0.06364 0.32338 0.43873 0.0
C1380 C 0.07138 0.3473 0.45636 0.0
C1381 C 0.04638 0.31566 0.40956 0.0
C1382 C 0.03675 0.33183 0.39742 0.0
C1383 C 0.04392 0.35541 0.41551 0.0
C1384 C 0.06093 0.36299 0.445 0.0
C1385 C 0.02023 0.3246 0.36473 0.0
C1386 C 0.03002 0.34088 0.33436 0.0
C1387 C 0.99604 0.30084 0.36253 0.0
C1388 C 0.98425 0.28355 0.39436 0.0
C1389 C 0.98025 0.29362 0.42665 0.0
C1390 C 0.96931 0.27731 0.45662 0.0
C1391 C 0.9621 0.25083 0.45457 0.0
C1392 C 0.96577 0.24059 0.42252 0.0
C1393 C 0.97674 0.25683 0.39247 0.0
H1394 H 0.95363 0.23822 0.4778 0.0
H1395 H 0.06081 0.3957 0.18638 0.0
H1396 H 0.64005 0.95388 0.37033 0.0
H1397 H 0.65722 0.98341 0.42204 0.0
H1398 H 0.73184 0.98681 0.41005 0.0
H1399 H 0.7143 0.95636 0.35925 0.0
H1400 H 0.71684 0.97481 0.47477 0.0
H1401 H 0.72367 0.04107 0.39652 0.0
H1402 H 0.71044 0.06251 0.35074 0.0
H1403 H 0.65081 0.05826 0.42161 0.0
H1404 H 0.66315 0.03608 0.46754 0.0
H1405 H 0.77782 0.0746 0.61107 0.0
H1406 H 0.76518 0.04847 0.55584 0.0
H1407 H 0.68461 0.02795 0.57247 0.0
H1408 H 0.6971 0.05414 0.62782 0.0
H1409 H 0.70545 0.05066 0.50464 0.0
H1410 H 0.70296 0.98325 0.58335 0.0
H1411 H 0.72228 0.96592 0.62672 0.0
H1412 H 0.78223 0.97852 0.55049 0.0
H1413 H 0.76377 0.99656 0.50689 0.0
C1414 C 0.66034 0.96155 0.37811 0.0
C1415 C 0.67585 0.9528 0.36105 0.0
C1416 C 0.67017 0.97846 0.40766 0.0
C1417 C 0.69584 0.98733 0.42001 0.0
C1418 C 0.71191 0.98005 0.40121 0.0
C1419 C 0.70194 0.96278 0.3721 0.0
C1420 C 0.70483 1.00163 0.45471 0.0
C1421 C 0.71476 0.9917 0.48099 0.0
C1422 C 0.70188 0.02349 0.46305 0.0
C1423 C 0.69419 0.03665 0.4354 0.0
C1424 C 0.70755 0.04445 0.40225 0.0
C1425 C 0.70026 0.05681 0.37628 0.0
C1426 C 0.67984 0.0618 0.38326 0.0
C1427 C 0.66663 0.05438 0.41623 0.0
C1428 C 0.67374 0.04188 0.44224 0.0
C1429 C 0.75731 0.06401 0.60345 0.0
C1430 C 0.73844 0.06646 0.62363 0.0
C1431 C 0.75014 0.04913 0.57188 0.0
C1432 C 0.72402 0.03645 0.5601 0.0
C1433 C 0.7049 0.03772 0.58118 0.0
C1434 C 0.71203 0.05249 0.61289 0.0
C1435 C 0.71699 0.02353 0.52448 0.0
C1436 C 0.70751 0.0338 0.49812 0.0
C1437 C 0.72118 1.00255 0.51566 0.0
C1438 C 0.73209 0.9915 0.54194 0.0
C1439 C 0.7204 0.98256 0.57592 0.0
C1440 C 0.73116 0.97256 0.60054 0.0
C1441 C 0.75342 0.9711 0.5914 0.0
C1442 C 0.76499 0.97966 0.55757 0.0
C1443 C 0.7544 0.98979 0.53289 0.0
H1444 H 0.76168 0.96332 0.61053 0.0
H1445 H 0.67428 0.07144 0.36314 0.0
H1446 H 0.7665 0.70111 0.55408 0.0
H1447 H 0.74762 0.71167 0.60555 0.0
H1448 H 0.67132 0.64617 0.5798 0.0
H1449 H 0.69002 0.63565 0.52782 0.0
H1450 H 0.66795 0.68799 0.60301 0.0
H1451 H 0.70808 0.63899 0.64296 0.0
H1452 H 0.74285 0.62771 0.65173 0.0
H1453 H 0.79085 0.70136 0.70525 0.0
H1454 H 0.75665 0.7133 0.69625 0.0
H1455 H 0.64946 0.68921 0.81067 0.0
H1456 H 0.65899 0.67147 0.75638 0.0
H1457 H 0.68938 0.74657 0.70391 0.0
H1458 H 0.68064 0.76456 0.75815 0.0
H1459 H 0.70894 0.69154 0.72137 0.0
H1460 H 0.66114 0.72579 0.60957 0.0
H1461 H 0.62348 0.73276 0.60291 0.0
H1462 H 0.58711 0.68517 0.69618 0.0
H1463 H 0.62346 0.6761 0.70181 0.0
C1464 C 0.74561 0.68923 0.55895 0.0
C1465 C 0.72977 0.66741 0.53715 0.0
C1466 C 0.7349 0.69519 0.58849 0.0
C1467 C 0.70822 0.6793 0.59692 0.0
C1468 C 0.692 0.65853 0.57387 0.0
C1469 C 0.7027 0.65259 0.54417 0.0
C1470 C 0.6977 0.68373 0.63075 0.0
C1471 C 0.67688 0.68888 0.62893 0.0
C1472 C 0.70887 0.68391 0.6646 0.0
C1473 C 0.72984 0.6771 0.66875 0.0
C1474 C 0.72617 0.65291 0.65621 0.0
C1475 C 0.74576 0.64638 0.66129 0.0
C1476 C 0.76898 0.66382 0.67909 0.0
C1477 C 0.77282 0.68789 0.69151 0.0
C1478 C 0.75336 0.69454 0.68642 0.0
C1479 C 0.65848 0.70194 0.78768 0.0
C1480 C 0.66462 0.72826 0.78863 0.0
C1481 C 0.66377 0.69181 0.75676 0.0
C1482 C 0.67449 0.70768 0.72616 0.0
C1483 C 0.68081 0.73401 0.72719 0.0
C1484 C 0.67611 0.74429 0.7583 0.0
C1485 C 0.68013 0.69718 0.69342 0.0
C1486 C 0.69996 0.69072 0.69548 0.0
C1487 C 0.66783 0.69562 0.65996 0.0
C1488 C 0.64556 0.70076 0.65667 0.0
C1489 C 0.64508 0.71662 0.62859 0.0
C1490 C 0.62386 0.72087 0.62489 0.0
C1491 C 0.60315 0.70982 0.64948 0.0
C1492 C 0.60332 0.69398 0.67737 0.0
C1493 C 0.62421 0.68916 0.68072 0.0
H1494 H 0.58686 0.71334 0.64673 0.0
H1495 H 0.78396 0.65869 0.68358 0.0
H1496 H 0.0625 0.69198 0.70339 0.0
H1497 H 0.03454 0.67915 0.75668 0.0
H1498 H 0.05028 0.75875 0.76868 0.0
H1499 H 0.07905 0.77189 0.71601 0.0
H1500 H 0.05816 0.7423 0.82971 0.0
H1501 H 0.9894 0.70719 0.74276 0.0
H1502 H 0.96333 0.68137 0.69057 0.0
H1503 H 0.94975 0.6103 0.74207 0.0
H1504 H 0.97604 0.63572 0.79443 0.0
H1505 H 0.95432 0.7092 0.95889 0.0
H1506 H 0.98334 0.72396 0.90624 0.0
H1507 H 0.98681 0.65247 0.90874 0.0
H1508 H 0.95829 0.63783 0.96189 0.0
H1509 H 0.96875 0.66505 0.84104 0.0
H1510 H 0.03903 0.702 0.92782 0.0
H1511 H 0.0632 0.72879 0.9805 0.0
H1512 H 0.07201 0.79788 0.92828 0.0
H1513 H 0.04753 0.77141 0.87546 0.0
C1514 C 0.05951 0.70662 0.71688 0.0
C1515 C 0.07296 0.73294 0.70566 0.0
C1516 C 0.0435 0.69926 0.74735 0.0
C1517 C 0.04026 0.71799 0.76664 0.0
C1518 C 0.05262 0.74402 0.7543 0.0
C1519 C 0.0689 0.75146 0.72411 0.0
C1520 C 0.02567 0.71085 0.80116 0.0
C1521 C 0.03843 0.72565 0.832 0.0
C1522 C 1.00019 0.68875 0.80433 0.0
C1523 C 0.98494 0.67342 0.77242 0.0
C1524 C 0.98118 0.68609 0.74277 0.0
C1525 C 0.96626 0.67152 0.71321 0.0
C1526 C 0.95495 0.64422 0.71296 0.0
C1527 C 0.95856 0.63145 0.74228 0.0
C1528 C 0.97345 0.64594 0.77193 0.0
C1529 C 0.96185 0.69697 0.94876 0.0
C1530 C 0.95416 0.67243 0.96439 0.0
C1531 C 0.97833 0.70538 0.91873 0.0
C1532 C 0.98699 0.68918 0.90369 0.0
C1533 C 0.98024 0.66516 0.92011 0.0
C1534 C 0.96416 0.65696 0.95057 0.0
C1535 C 1.00133 0.69644 0.8692 0.0
C1536 C 0.98848 0.68167 0.83848 0.0
C1537 C 0.02656 0.71872 0.86603 0.0
C1538 C 0.04117 0.73465 0.89785 0.0
C1539 C 0.04586 0.72285 0.92772 0.0
C1540 C 0.05968 0.73799 0.95757 0.0
C1541 C 0.06907 0.76501 0.95779 0.0
C1542 C 0.06469 0.77694 0.92811 0.0
C1543 C 0.05086 0.76188 0.89819 0.0
H1544 H 0.07979 0.7767 0.98092 0.0
H1545 H 0.94333 0.63296 0.6901 0.0
H1546 H 0.25655 0.95426 0.13151 0.0
H1547 H 0.2723 0.98437 0.08012 0.0
H1548 H 0.34624 0.98582 0.08404 0.0
H1549 H 0.3308 0.95603 0.13576 0.0
H1550 H 0.31951 0.03522 0.06327 0.0
H1551 H 0.35357 0.96967 0.99573 0.0
H1552 H 0.34573 0.92448 0.00172 0.0
H1553 H 0.26752 0.8985 0.03919 0.0
H1554 H 0.27457 0.94304 0.03238 0.0
H1555 H 0.38193 0.05824 0.87344 0.0
H1556 H 0.36922 0.03286 0.92943 0.0
H1557 H 0.30312 0.04513 0.93996 0.0
H1558 H 0.31604 0.07097 0.88455 0.0
H1559 H 0.32768 0.98992 0.95515 0.0
H1560 H 0.29639 0.05766 0.0278 0.0
H1561 H 0.3065 0.10375 0.02624 0.0
H1562 H 0.38223 0.12721 0.9813 0.0
H1563 H 0.37282 0.08153 0.98302 0.0
C1564 C 0.27644 0.96163 0.12207 0.0
C1565 C 0.2924 0.95267 0.13728 0.0
C1566 C 0.28541 0.97887 0.09287 0.0
C1567 C 0.31024 0.98694 0.0782 0.0
C1568 C 0.32696 0.97963 0.09504 0.0
C1569 C 0.31814 0.96269 0.12458 0.0
C1570 C 0.31717 0.99994 0.04272 0.0
C1571 C 0.3211 0.02535 0.0395 0.0
C1572 C 0.31969 0.98705 0.01208 0.0
C1573 C 0.31476 0.95978 0.01408 0.0
C1574 C 0.33464 0.95421 0.00499 0.0
C1575 C 0.33032 0.92867 0.00855 0.0
C1576 C 0.30618 0.90857 0.02109 0.0
C1577 C 0.28625 0.91394 0.02974 0.0
C1578 C 0.29037 0.93933 0.02594 0.0
C1579 C 0.36437 0.05504 0.8873 0.0
C1580 C 0.35011 0.06678 0.8749 0.0
C1581 C 0.35719 0.04062 0.91932 0.0
C1582 C 0.33563 0.03772 0.93928 0.0
C1583 C 0.32022 0.04773 0.92542 0.0
C1584 C 0.3275 0.06231 0.89363 0.0
C1585 C 0.33002 0.02541 0.9754 0.0
C1586 C 0.32625 1.0 0.9788 0.0
C1587 C 0.32788 0.03845 0.00629 0.0
C1588 C 0.33373 0.06608 0.0051 0.0
C1589 C 0.31522 0.0727 0.01762 0.0
C1590 C 0.32085 0.09878 0.01671 0.0
C1591 C 0.34497 0.11843 0.00346 0.0
C1592 C 0.36353 0.11204 0.9913 0.0
C1593 C 0.35805 0.08604 0.9922 0.0
H1594 H 0.34928 0.13859 0.00267 0.0
H1595 H 0.30285 0.88881 0.02381 0.0
H1596 H 0.5364 0.66633 0.96388 0.0
H1597 H 0.49315 0.62683 0.96585 0.0
H1598 H 0.46917 0.65345 0.87288 0.0
H1599 H 0.51276 0.69239 0.86933 0.0
H1600 H 0.42928 0.62723 0.9347 0.0
H1601 H 0.4865 0.61542 0.8519 0.0
H1602 H 0.52806 0.61745 0.83546 0.0
H1603 H 0.5181 0.56488 0.92215 0.0
H1604 H 0.47667 0.56292 0.93949 0.0
H1605 H 0.31909 0.50029 0.89194 0.0
H1606 H 0.35754 0.54478 0.88922 0.0
H1607 H 0.40214 0.51849 0.95132 0.0
H1608 H 0.36439 0.47423 0.95264 0.0
H1609 H 0.43121 0.54658 0.90095 0.0
H1610 H 0.37607 0.55784 0.98615 0.0
H1611 H 0.33579 0.55645 0.00782 0.0
H1612 H 0.34223 0.60952 0.92375 0.0
H1613 H 0.38239 0.61096 0.90129 0.0
C1614 C 0.52198 0.66397 0.94387 0.0
C1615 C 0.52842 0.68255 0.91611 0.0
C1616 C 0.49715 0.64144 0.94528 0.0
C1617 C 0.47805 0.63718 0.91938 0.0
C1618 C 0.48363 0.65647 0.89322 0.0
C1619 C 0.50861 0.67884 0.89141 0.0
C1620 C 0.45345 0.61141 0.91745 0.0
C1621 C 0.42952 0.60958 0.92689 0.0
C1622 C 0.45396 0.5884 0.90794 0.0
C1623 C 0.47864 0.58925 0.89721 0.0
C1624 C 0.49329 0.60449 0.86765 0.0
C1625 C 0.5168 0.60559 0.85814 0.0
C1626 C 0.52575 0.59136 0.87781 0.0
C1627 C 0.51116 0.57593 0.90697 0.0
C1628 C 0.48766 0.5748 0.91664 0.0
C1629 C 0.33718 0.50416 0.9049 0.0
C1630 C 0.33889 0.48378 0.92208 0.0
C1631 C 0.3591 0.52959 0.90357 0.0
C1632 C 0.38287 0.5352 0.92028 0.0
C1633 C 0.38425 0.5148 0.9379 0.0
C1634 C 0.36263 0.48945 0.93864 0.0
C1635 C 0.40666 0.56194 0.91897 0.0
C1636 C 0.43064 0.56408 0.9087 0.0
C1637 C 0.40617 0.58509 0.92835 0.0
C1638 C 0.38205 0.58426 0.94179 0.0
C1639 C 0.36878 0.56905 0.97211 0.0
C1640 C 0.34599 0.56828 0.98457 0.0
C1641 C 0.33641 0.58283 0.9671 0.0
C1642 C 0.34965 0.59823 0.93721 0.0
C1643 C 0.37243 0.59904 0.92461 0.0
H1644 H 0.31877 0.58221 0.97679 0.0
H1645 H 0.54396 0.59224 0.8704 0.0
H1646 H 0.83092 0.32301 0.13812 0.0
H1647 H 0.82509 0.36132 0.13615 0.0
H1648 H 0.86128 0.38141 0.03116 0.0
H1649 H 0.86696 0.34288 0.03279 0.0
H1650 H 0.86469 0.41214 0.13299 0.0
H1651 H 0.83544 0.41421 0.98458 0.0
H1652 H 0.81035 0.38304 0.93594 0.0
H1653 H 0.76392 0.32435 0.01443 0.0
H1654 H 0.78848 0.35527 0.06353 0.0
H1655 H 0.89952 0.53796 0.0674 0.0
H1656 H 0.89126 0.49334 0.07281 0.0
H1657 H 0.80898 0.46519 0.08937 0.0
H1658 H 0.81716 0.51036 0.08574 0.0
H1659 H 0.82181 0.43577 0.03647 0.0
H1660 H 0.83966 0.46601 0.15908 0.0
H1661 H 0.86474 0.49724 0.20765 0.0
H1662 H 0.93209 0.49012 0.18231 0.0
H1663 H 0.90752 0.45914 0.13322 0.0
C1664 C 0.83702 0.33516 0.11416 0.0
C1665 C 0.84933 0.32979 0.08553 0.0
C1666 C 0.83388 0.35721 0.11324 0.0
C1667 C 0.84269 0.37425 0.08351 0.0
C1668 C 0.85411 0.36844 0.05427 0.0
C1669 C 0.85745 0.34647 0.05529 0.0
C1670 C 0.84173 0.39908 0.08427 0.0
C1671 C 0.85514 0.41718 0.11199 0.0
C1672 C 0.82913 0.40566 0.05705 0.0
C1673 C 0.81397 0.38702 0.02773 0.0
C1674 C 0.81979 0.3947 0.99146 0.0
C1675 C 0.80568 0.37707 0.96381 0.0
C1676 C 0.7856 0.35171 0.97209 0.0
C1677 C 0.77954 0.34397 0.00805 0.0
C1678 C 0.79358 0.36153 0.0358 0.0
C1679 C 0.87968 0.52257 0.07313 0.0
C1680 C 0.85911 0.52814 0.07685 0.0
C1681 C 0.87499 0.4969 0.07576 0.0
C1682 C 0.84956 0.47596 0.08168 0.0
C1683 C 0.82878 0.48112 0.08475 0.0
C1684 C 0.83352 0.50698 0.0826 0.0
C1685 C 0.84515 0.44885 0.08479 0.0
C1686 C 0.83099 0.43048 0.05769 0.0
C1687 C 0.85703 0.44194 0.11259 0.0
C1688 C 0.87179 0.46039 0.14231 0.0
C1689 C 0.85988 0.47125 0.16369 0.0
C1690 C 0.87399 0.48889 0.19135 0.0
C1691 C 0.9 0.49569 0.19802 0.0
C1692 C 0.91194 0.48483 0.17711 0.0
C1693 C 0.89792 0.46721 0.14939 0.0
H1694 H 0.9109 0.50935 0.21944 0.0
H1695 H 0.77471 0.33808 0.95064 0.0
H1696 H 0.53048 0.85624 0.19939 0.0
H1697 H 0.48644 0.85061 0.19449 0.0
H1698 H 0.47642 0.83882 0.30956 0.0
H1699 H 0.51982 0.84301 0.31405 0.0
H1700 H 0.43206 0.80943 0.28128 0.0
H1701 H 0.49546 0.90009 0.26547 0.0
H1702 H 0.53372 0.93861 0.23881 0.0
H1703 H 0.4951 0.921 0.13593 0.0
H1704 H 0.45673 0.88213 0.16187 0.0
H1705 H 0.34051 0.85789 0.29942 0.0
H1706 H 0.37927 0.85247 0.30237 0.0
H1707 H 0.37262 0.83591 0.18842 0.0
H1708 H 0.33364 0.84075 0.18547 0.0
H1709 H 0.42405 0.87843 0.21528 0.0
H1710 H 0.3586 0.7878 0.23726 0.0
H1711 H 0.32086 0.75227 0.26936 0.0
H1712 H 0.36474 0.77448 0.36823 0.0
H1713 H 0.40263 0.81042 0.33679 0.0
C1714 C 0.51863 0.85198 0.22347 0.0
C1715 C 0.52853 0.85002 0.25707 0.0
C1716 C 0.49354 0.84902 0.22077 0.0
C1717 C 0.47819 0.84496 0.25179 0.0
C1718 C 0.48774 0.84197 0.28517 0.0
C1719 C 0.51257 0.84433 0.28774 0.0
C1720 C 0.45274 0.84487 0.24979 0.0
C1721 C 0.43049 0.82471 0.2671 0.0
C1722 C 0.45034 0.86466 0.23121 0.0
C1723 C 0.47335 0.88804 0.21552 0.0
C1724 C 0.4952 0.90433 0.2371 0.0
C1725 C 0.5169 0.92623 0.22213 0.0
C1726 C 0.51687 0.9322 0.18568 0.0
C1727 C 0.49511 0.91632 0.16414 0.0
C1728 C 0.47338 0.89435 0.17897 0.0
C1729 C 0.34706 0.85261 0.27519 0.0
C1730 C 0.33392 0.84952 0.24229 0.0
C1731 C 0.36917 0.84953 0.27688 0.0
C1732 C 0.3788 0.8438 0.24559 0.0
C1733 C 0.36546 0.84026 0.21288 0.0
C1734 C 0.34308 0.84282 0.2113 0.0
C1735 C 0.40366 0.84303 0.24654 0.0
C1736 C 0.42576 0.86313 0.22921 0.0
C1737 C 0.40606 0.82364 0.26588 0.0
C1738 C 0.38335 0.80196 0.28474 0.0
C1739 C 0.36012 0.78527 0.26591 0.0
C1740 C 0.33872 0.76502 0.28397 0.0
C1741 C 0.34038 0.76117 0.32083 0.0
C1742 C 0.36347 0.77751 0.33968 0.0
C1743 C 0.38492 0.79781 0.32175 0.0
H1744 H 0.32379 0.74548 0.33477 0.0
H1745 H 0.53368 0.94918 0.17414 0.0
H1746 H 0.5068 0.3361 0.35225 0.0
H1747 H 0.5504 0.3748 0.35668 0.0
H1748 H 0.53971 0.37841 0.47129 0.0
H1749 H 0.4953 0.3404 0.46634 0.0
H1750 H 0.55954 0.42427 0.44784 0.0
H1751 H 0.58369 0.35895 0.43022 0.0
H1752 H 0.58384 0.32123 0.40146 0.0
H1753 H 0.61322 0.36522 0.30345 0.0
H1754 H 0.61292 0.40311 0.33147 0.0
H1755 H 0.69409 0.51913 0.47842 0.0
H1756 H 0.65514 0.47529 0.47521 0.0
H1757 H 0.64671 0.48675 0.36231 0.0
H1758 H 0.68544 0.531 0.36554 0.0
H1759 H 0.63858 0.43291 0.3871 0.0
H1760 H 0.61125 0.49751 0.40798 0.0
H1761 H 0.61293 0.53478 0.4408 0.0
H1762 H 0.59136 0.49002 0.53886 0.0
H1763 H 0.59001 0.45262 0.50669 0.0
C1764 C 0.51398 0.34487 0.3785 0.0
C1765 C 0.49779 0.33508 0.40904 0.0
C1766 C 0.53901 0.36701 0.38108 0.0
C1767 C 0.54881 0.37947 0.41446 0.0
C1768 C 0.53278 0.36927 0.44518 0.0
C1769 C 0.50745 0.34746 0.44244 0.0
C1770 C 0.57501 0.40398 0.41686 0.0
C1771 C 0.57683 0.42582 0.43504 0.0
C1772 C 0.59777 0.40651 0.3998 0.0
C1773 C 0.59808 0.3838 0.38287 0.0
C1774 C 0.59002 0.36053 0.40245 0.0
C1775 C 0.59015 0.33912 0.3863 0.0
C1776 C 0.59848 0.3408 0.35063 0.0
C1777 C 0.60675 0.36393 0.33107 0.0
C1778 C 0.60664 0.38539 0.34709 0.0
C1779 C 0.68433 0.51207 0.4527 0.0
C1780 C 0.69288 0.52842 0.42215 0.0
C1781 C 0.66201 0.48709 0.45097 0.0
C1782 C 0.64806 0.47783 0.41855 0.0
C1783 C 0.65729 0.49353 0.38753 0.0
C1784 C 0.67934 0.51876 0.38941 0.0
C1785 C 0.62271 0.45271 0.41783 0.0
C1786 C 0.62116 0.43097 0.40001 0.0
C1787 C 0.60033 0.45004 0.43579 0.0
C1788 C 0.60084 0.4724 0.45502 0.0
C1789 C 0.60712 0.49571 0.43661 0.0
C1790 C 0.60797 0.51684 0.45508 0.0
C1791 C 0.60233 0.5148 0.49192 0.0
C1792 C 0.59577 0.49159 0.51034 0.0
C1793 C 0.59495 0.47042 0.492 0.0
H1794 H 0.60299 0.53118 0.50618 0.0
H1795 H 0.59856 0.3242 0.33817 0.0
H1796 H 0.13189 0.6516 0.6296 0.0
H1797 H 0.14047 0.61511 0.62649 0.0
H1798 H 0.20615 0.66028 0.55594 0.0
H1799 H 0.19773 0.69732 0.5593 0.0
H1800 H 0.16933 0.60644 0.53263 0.0
H1801 H 0.22054 0.65276 0.63608 0.0
H1802 H 0.22837 0.67531 0.69466 0.0
H1803 H 0.16752 0.60457 0.74286 0.0
H1804 H 0.15904 0.58169 0.68442 0.0
H1805 H 0.19594 0.50198 0.53484 0.0
H1806 H 0.2034 0.54653 0.54014 0.0
H1807 H 0.15119 0.52298 0.63153 0.0
H1808 H 0.14509 0.47889 0.62801 0.0
H1809 H 0.18806 0.57032 0.6423 0.0
H1810 H 0.13157 0.52588 0.54157 0.0
H1811 H 0.11907 0.50183 0.48383 0.0
H1812 H 0.18429 0.5668 0.43151 0.0
H1813 H 0.19738 0.5911 0.4891 0.0
C1814 C 0.14813 0.65378 0.6133 0.0
C1815 C 0.16401 0.67724 0.59441 0.0
C1816 C 0.15311 0.63297 0.61176 0.0
C1817 C 0.174 0.63499 0.59112 0.0
C1818 C 0.18995 0.65835 0.57208 0.0
C1819 C 0.18519 0.67947 0.57408 0.0
C1820 C 0.17848 0.61227 0.5892 0.0
C1821 C 0.17406 0.59885 0.55638 0.0
C1822 C 0.18379 0.60194 0.62047 0.0
C1823 C 0.18905 0.61555 0.65578 0.0
C1824 C 0.2087 0.64205 0.65911 0.0
C1825 C 0.21327 0.65489 0.6923 0.0
C1826 C 0.19842 0.64139 0.72245 0.0
C1827 C 0.17901 0.61501 0.71948 0.0
C1828 C 0.17434 0.60208 0.68633 0.0
C1829 C 0.18663 0.50637 0.55679 0.0
C1830 C 0.16961 0.48653 0.58074 0.0
C1831 C 0.19062 0.53188 0.55943 0.0
C1832 C 0.17728 0.53808 0.58559 0.0
C1833 C 0.16154 0.51876 0.61082 0.0
C1834 C 0.15785 0.49337 0.60854 0.0
C1835 C 0.17853 0.5641 0.58573 0.0
C1836 C 0.18387 0.5781 0.61829 0.0
C1837 C 0.1735 0.57469 0.55435 0.0
C1838 C 0.16564 0.56016 0.51971 0.0
C1839 C 0.14335 0.53495 0.5178 0.0
C1840 C 0.13615 0.52129 0.48511 0.0
C1841 C 0.15093 0.53274 0.45405 0.0
C1842 C 0.1729 0.55792 0.45561 0.0
C1843 C 0.18022 0.57165 0.48826 0.0
H1844 H 0.14532 0.52213 0.42876 0.0
H1845 H 0.20198 0.65137 0.74812 0.0
H1846 H 0.66936 0.13588 0.79183 0.0
H1847 H 0.631 0.14161 0.79423 0.0
H1848 H 0.659 0.19183 0.70081 0.0
H1849 H 0.69739 0.18612 0.69816 0.0
H1850 H 0.63521 0.20883 0.74871 0.0
H1851 H 0.61561 0.12831 0.6901 0.0
H1852 H 0.61386 0.08568 0.68468 0.0
H1853 H 0.5638 0.05704 0.77758 0.0
H1854 H 0.5656 0.09968 0.78389 0.0
H1855 H 0.48432 0.13791 0.69998 0.0
H1856 H 0.52837 0.14374 0.69511 0.0
H1857 H 0.55079 0.18863 0.79376 0.0
H1858 H 0.50683 0.1829 0.79873 0.0
H1859 H 0.55032 0.12547 0.73889 0.0
H1860 H 0.6172 0.23053 0.79504 0.0
H1861 H 0.61942 0.27354 0.7954 0.0
H1862 H 0.57475 0.25363 0.69729 0.0
H1863 H 0.57257 0.21067 0.69608 0.0
C1864 C 0.66756 0.14846 0.77211 0.0
C1865 C 0.68637 0.16034 0.74462 0.0
C1866 C 0.64561 0.15172 0.77351 0.0
C1867 C 0.64185 0.16677 0.7473 0.0
C1868 C 0.66144 0.1801 0.72129 0.0
C1869 C 0.68347 0.17689 0.71992 0.0
C1870 C 0.61655 0.16673 0.74522 0.0
C1871 C 0.61663 0.19062 0.74669 0.0
C1872 C 0.59231 0.14303 0.74164 0.0
C1873 C 0.59093 0.11726 0.73766 0.0
C1874 C 0.60437 0.11298 0.70951 0.0
C1875 C 0.60336 0.08881 0.70627 0.0
C1876 C 0.58878 0.06869 0.73082 0.0
C1877 C 0.57512 0.07267 0.75861 0.0
C1878 C 0.57611 0.09682 0.76202 0.0
C1879 C 0.49874 0.14933 0.72038 0.0
C1880 C 0.49199 0.15992 0.74975 0.0
C1881 C 0.52393 0.15264 0.71759 0.0
C1882 C 0.543 0.16664 0.74404 0.0
C1883 C 0.53662 0.17808 0.77268 0.0
C1884 C 0.51144 0.17486 0.77543 0.0
C1885 C 0.5688 0.16757 0.74305 0.0
C1886 C 0.56884 0.14375 0.74099 0.0
C1887 C 0.59309 0.19138 0.74543 0.0
C1888 C 0.59452 0.21728 0.74569 0.0
C1889 C 0.60794 0.23538 0.77348 0.0
C1890 C 0.60918 0.25974 0.77384 0.0
C1891 C 0.59716 0.26628 0.74645 0.0
C1892 C 0.58396 0.2485 0.71857 0.0
C1893 C 0.58268 0.22413 0.71806 0.0
H1894 H 0.59813 0.28514 0.74679 0.0
H1895 H 0.58802 0.04999 0.72826 0.0
loop_
_geom_bond_atom_site_label_1
_geom_bond_atom_site_label_2
_geom_bond_distance
_geom_bond_site_symmetry_2
_ccdc_geom_bond_type
Co0 N4 2.148 1_554 S
Co0 N10 2.128 . S
Co0 N20 2.194 1_554 S
Co0 O25 2.351 . S
Co0 O26 2.155 . S
Co0 O27 2.096 . S
C1 N4 1.301 . S
C1 N5 1.328 . S
C1 H6 0.930 . S
C2 C3 1.333 . S
C2 N4 1.317 . S
C2 H7 0.930 . S
C3 C2 1.333 . S
C3 N5 1.350 . S
C3 H29 0.931 . S
N4 Co0 2.148 1_556 S
N4 C1 1.301 . S
N4 C2 1.317 . S
N5 C1 1.328 . S
N5 C3 1.350 . S
H6 C1 0.930 . S
H7 C2 0.930 . S
C8 O9 1.224 . S
C8 O27 1.247 1_556 S
O9 C8 1.224 . S
N10 Co0 2.128 . S
N10 C11 1.355 . S
N10 C13 1.311 . S
C11 N10 1.355 . S
C11 C12 1.363 . S
C11 H23 0.929 . S
C12 C11 1.363 . S
C12 N14 1.375 . S
C12 H30 0.931 . S
C13 N10 1.311 . S
C13 N14 1.347 . S
C13 H24 0.929 . S
N14 C12 1.375 . S
N14 C13 1.347 . S
C15 C18 1.365 . S
C15 N20 1.328 . S
C15 H21 0.929 . S
C16 C17 1.362 . S
C16 C19 1.378 . S
C16 H31 0.929 . S
C17 C16 1.362 . S
C17 C18 1.366 . S
C18 C15 1.365 . S
C18 C17 1.366 . S
C18 H32 0.930 . S
C19 C16 1.378 . S
C19 N20 1.315 . S
C19 H22 0.930 . S
N20 Co0 2.194 1_556 S
N20 C15 1.328 . S
N20 C19 1.315 . S
H21 C15 0.929 . S
H22 C19 0.930 . S
H23 C11 0.929 . S
H24 C13 0.929 . S
O25 Co0 2.351 . S
O25 C28 1.244 . S
O26 Co0 2.155 . S
O26 C28 1.240 . S
O27 Co0 2.096 . S
O27 C8 1.247 1_554 S
C28 O25 1.244 . S
C28 O26 1.240 . S
H29 C3 0.931 . S
H30 C12 0.931 . S
H31 C16 0.929 . S
H32 C18 0.930 . S
Co33 N37 2.148 . S
Co33 N43 2.128 . S
Co33 N53 2.194 . S
Co33 O58 2.351 . S
Co33 O59 2.155 . S
Co33 O60 2.096 . S
C34 N37 1.301 . S
C34 N38 1.328 . S
C34 H39 0.930 . S
C35 C36 1.333 . S
C35 N37 1.317 . S
C35 H40 0.930 . S
C36 C35 1.333 . S
C36 N38 1.350 . S
C36 H62 0.931 . S
N37 Co33 2.148 . S
N37 C34 1.301 . S
N37 C35 1.317 . S
N38 C34 1.328 . S
N38 C36 1.350 . S
H39 C34 0.930 . S
H40 C35 0.930 . S
C41 O42 1.224 . S
C41 O60 1.247 . S
O42 C41 1.224 . S
N43 Co33 2.128 . S
N43 C44 1.355 . S
N43 C46 1.311 . S
C44 N43 1.355 . S
C44 C45 1.363 . S
C44 H56 0.929 . S
C45 C44 1.363 . S
C45 N47 1.375 . S
C45 H63 0.931 . S
C46 N43 1.311 . S
C46 N47 1.347 . S
C46 H57 0.929 . S
N47 C45 1.375 . S
N47 C46 1.347 . S
C48 C51 1.365 . S
C48 N53 1.328 . S
C48 H54 0.929 . S
C49 C50 1.362 . S
C49 C52 1.378 . S
C49 H64 0.929 . S
C50 C49 1.362 . S
C50 C51 1.366 . S
C51 C48 1.365 . S
C51 C50 1.366 . S
C51 H65 0.930 . S
C52 C49 1.378 . S
C52 N53 1.315 . S
C52 H55 0.930 . S
N53 Co33 2.194 . S
N53 C48 1.328 . S
N53 C52 1.315 . S
H54 C48 0.929 . S
H55 C52 0.930 . S
H56 C44 0.929 . S
H57 C46 0.929 . S
O58 Co33 2.351 . S
O58 C61 1.244 . S
O59 Co33 2.155 . S
O59 C61 1.240 . S
O60 Co33 2.096 . S
O60 C41 1.247 . S
C61 O58 1.244 . S
C61 O59 1.240 . S
H62 C36 0.931 . S
H63 C45 0.931 . S
H64 C49 0.929 . S
H65 C51 0.930 . S
Co66 N70 2.148 . S
Co66 N76 2.128 . S
Co66 N86 2.194 . S
Co66 O91 2.351 . S
Co66 O92 2.155 . S
Co66 O93 2.096 . S
C67 N70 1.301 . S
C67 N71 1.328 . S
C67 H72 0.930 . S
C68 C69 1.333 . S
C68 N70 1.317 . S
C68 H73 0.930 . S
C69 C68 1.333 . S
C69 N71 1.350 . S
C69 H95 0.931 . S
N70 Co66 2.148 . S
N70 C67 1.301 . S
N70 C68 1.317 . S
N71 C67 1.328 . S
N71 C69 1.350 . S
H72 C67 0.930 . S
H73 C68 0.930 . S
C74 O75 1.224 . S
C74 O93 1.247 . S
O75 C74 1.224 . S
N76 Co66 2.128 . S
N76 C77 1.355 . S
N76 C79 1.311 . S
C77 N76 1.355 . S
C77 C78 1.363 . S
C77 H89 0.929 . S
C78 C77 1.363 . S
C78 N80 1.375 . S
C78 H96 0.931 . S
C79 N76 1.311 . S
C79 N80 1.347 . S
C79 H90 0.929 . S
N80 C78 1.375 . S
N80 C79 1.347 . S
C81 C84 1.365 . S
C81 N86 1.328 . S
C81 H87 0.929 . S
C82 C83 1.362 . S
C82 C85 1.378 . S
C82 H97 0.929 . S
C83 C82 1.362 . S
C83 C84 1.366 . S
C84 C81 1.365 . S
C84 C83 1.366 . S
C84 H98 0.930 . S
C85 C82 1.378 . S
C85 N86 1.315 . S
C85 H88 0.930 . S
N86 Co66 2.194 . S
N86 C81 1.328 . S
N86 C85 1.315 . S
H87 C81 0.929 . S
H88 C85 0.930 . S
H89 C77 0.929 . S
H90 C79 0.929 . S
O91 Co66 2.351 . S
O91 C94 1.244 . S
O92 Co66 2.155 . S
O92 C94 1.240 . S
O93 Co66 2.096 . S
O93 C74 1.247 . S
C94 O91 1.244 . S
C94 O92 1.240 . S
H95 C69 0.931 . S
H96 C78 0.931 . S
H97 C82 0.929 . S
H98 C84 0.930 . S
Co99 N103 2.148 . S
Co99 N109 2.128 . S
Co99 N119 2.194 . S
Co99 O124 2.351 . S
Co99 O125 2.155 . S
Co99 O126 2.096 . S
C100 N103 1.301 . S
C100 N104 1.328 . S
C100 H105 0.930 . S
C101 C102 1.333 . S
C101 N103 1.317 . S
C101 H106 0.930 . S
C102 C101 1.333 . S
C102 N104 1.350 . S
C102 H128 0.931 . S
N103 Co99 2.148 . S
N103 C100 1.301 . S
N103 C101 1.317 . S
N104 C100 1.328 . S
N104 C102 1.350 . S
H105 C100 0.930 . S
H106 C101 0.930 . S
C107 O108 1.224 . S
C107 O126 1.247 . S
O108 C107 1.224 . S
N109 Co99 2.128 . S
N109 C110 1.355 . S
N109 C112 1.311 . S
C110 N109 1.355 . S
C110 C111 1.363 . S
C110 H122 0.929 . S
C111 C110 1.363 . S
C111 N113 1.375 . S
C111 H129 0.931 . S
C112 N109 1.311 . S
C112 N113 1.347 . S
C112 H123 0.929 . S
N113 C111 1.375 . S
N113 C112 1.347 . S
C114 C117 1.365 . S
C114 N119 1.328 . S
C114 H120 0.929 . S
C115 C116 1.362 . S
C115 C118 1.378 . S
C115 H130 0.929 . S
C116 C115 1.362 . S
C116 C117 1.366 . S
C117 C114 1.365 . S
C117 C116 1.366 . S
C117 H131 0.930 . S
C118 C115 1.378 . S
C118 N119 1.315 . S
C118 H121 0.930 . S
N119 Co99 2.194 . S
N119 C114 1.328 . S
N119 C118 1.315 . S
H120 C114 0.929 . S
H121 C118 0.930 . S
H122 C110 0.929 . S
H123 C112 0.929 . S
O124 Co99 2.351 . S
O124 C127 1.244 . S
O125 Co99 2.155 . S
O125 C127 1.240 . S
O126 Co99 2.096 . S
O126 C107 1.247 . S
C127 O124 1.244 . S
C127 O125 1.240 . S
H128 C102 0.931 . S
H129 C111 0.931 . S
H130 C115 0.929 . S
H131 C117 0.930 . S
Co132 N136 2.148 . S
Co132 N142 2.128 . S
Co132 N152 2.194 . S
Co132 O157 2.351 . S
Co132 O158 2.155 . S
Co132 O159 2.096 . S
C133 N136 1.301 . S
C133 N137 1.328 . S
C133 H138 0.930 . S
C134 C135 1.333 . S
C134 N136 1.317 . S
C134 H139 0.930 . S
C135 C134 1.333 . S
C135 N137 1.350 . S
C135 H161 0.931 . S
N136 Co132 2.148 . S
N136 C133 1.301 . S
N136 C134 1.317 . S
N137 C133 1.328 . S
N137 C135 1.350 . S
H138 C133 0.930 . S
H139 C134 0.930 . S
C140 O141 1.224 . S
C140 O159 1.247 . S
O141 C140 1.224 . S
N142 Co132 2.128 . S
N142 C143 1.355 . S
N142 C145 1.311 . S
C143 N142 1.355 . S
C143 C144 1.363 . S
C143 H155 0.929 . S
C144 C143 1.363 . S
C144 N146 1.375 . S
C144 H162 0.931 . S
C145 N142 1.311 . S
C145 N146 1.347 . S
C145 H156 0.929 . S
N146 C144 1.375 . S
N146 C145 1.347 . S
C147 C150 1.365 . S
C147 N152 1.328 . S
C147 H153 0.929 . S
C148 C149 1.362 . S
C148 C151 1.378 . S
C148 H163 0.929 . S
C149 C148 1.362 . S
C149 C150 1.366 . S
C150 C147 1.365 . S
C150 C149 1.366 . S
C150 H164 0.930 . S
C151 C148 1.378 . S
C151 N152 1.315 . S
C151 H154 0.930 . S
N152 Co132 2.194 . S
N152 C147 1.328 . S
N152 C151 1.315 . S
H153 C147 0.929 . S
H154 C151 0.930 . S
H155 C143 0.929 . S
H156 C145 0.929 . S
O157 Co132 2.351 . S
O157 C160 1.244 . S
O158 Co132 2.155 . S
O158 C160 1.240 . S
O159 Co132 2.096 . S
O159 C140 1.247 . S
C160 O157 1.244 . S
C160 O158 1.240 . S
H161 C135 0.931 . S
H162 C144 0.931 . S
H163 C148 0.929 . S
H164 C150 0.930 . S
Co165 N169 2.148 . S
Co165 N175 2.128 . S
Co165 N185 2.194 . S
Co165 O190 2.351 . S
Co165 O191 2.155 . S
Co165 O192 2.096 . S
C166 N169 1.301 . S
C166 N170 1.328 . S
C166 H171 0.930 . S
C167 C168 1.333 . S
C167 N169 1.317 . S
C167 H172 0.930 . S
C168 C167 1.333 . S
C168 N170 1.350 . S
C168 H194 0.931 . S
N169 Co165 2.148 . S
N169 C166 1.301 . S
N169 C167 1.317 . S
N170 C166 1.328 . S
N170 C168 1.350 . S
H171 C166 0.930 . S
H172 C167 0.930 . S
C173 O174 1.224 . S
C173 O192 1.247 . S
O174 C173 1.224 . S
N175 Co165 2.128 . S
N175 C176 1.355 . S
N175 C178 1.311 . S
C176 N175 1.355 . S
C176 C177 1.363 . S
C176 H188 0.929 . S
C177 C176 1.363 . S
C177 N179 1.375 . S
C177 H195 0.931 . S
C178 N175 1.311 . S
C178 N179 1.347 . S
C178 H189 0.929 . S
N179 C177 1.375 . S
N179 C178 1.347 . S
C180 C183 1.365 . S
C180 N185 1.328 . S
C180 H186 0.929 . S
C181 C182 1.362 . S
C181 C184 1.378 . S
C181 H196 0.929 . S
C182 C181 1.362 . S
C182 C183 1.366 . S
C183 C180 1.365 . S
C183 C182 1.366 . S
C183 H197 0.930 . S
C184 C181 1.378 . S
C184 N185 1.315 . S
C184 H187 0.930 . S
N185 Co165 2.194 . S
N185 C180 1.328 . S
N185 C184 1.315 . S
H186 C180 0.929 . S
H187 C184 0.930 . S
H188 C176 0.929 . S
H189 C178 0.929 . S
O190 Co165 2.351 . S
O190 C193 1.244 . S
O191 Co165 2.155 . S
O191 C193 1.240 . S
O192 Co165 2.096 . S
O192 C173 1.247 . S
C193 O190 1.244 . S
C193 O191 1.240 . S
H194 C168 0.931 . S
H195 C177 0.931 . S
H196 C181 0.929 . S
H197 C183 0.930 . S
Co198 N202 2.148 . S
Co198 N208 2.128 . S
Co198 N218 2.194 . S
Co198 O223 2.351 . S
Co198 O224 2.155 . S
Co198 O225 2.096 . S
C199 N202 1.301 . S
C199 N203 1.328 . S
C199 H204 0.930 . S
C200 C201 1.333 . S
C200 N202 1.317 . S
C200 H205 0.930 . S
C201 C200 1.333 . S
C201 N203 1.350 . S
C201 H227 0.931 . S
N202 Co198 2.148 . S
N202 C199 1.301 . S
N202 C200 1.317 . S
N203 C199 1.328 . S
N203 C201 1.350 . S
H204 C199 0.930 . S
H205 C200 0.930 . S
C206 O207 1.224 . S
C206 O225 1.247 . S
O207 C206 1.224 . S
N208 Co198 2.128 . S
N208 C209 1.355 . S
N208 C211 1.311 . S
C209 N208 1.355 . S
C209 C210 1.363 . S
C209 H221 0.929 . S
C210 C209 1.363 . S
C210 N212 1.375 . S
C210 H228 0.931 . S
C211 N208 1.311 . S
C211 N212 1.347 . S
C211 H222 0.929 . S
N212 C210 1.375 . S
N212 C211 1.347 . S
C213 C216 1.365 . S
C213 N218 1.328 . S
C213 H219 0.929 . S
C214 C215 1.362 . S
C214 C217 1.378 . S
C214 H229 0.929 . S
C215 C214 1.362 . S
C215 C216 1.366 . S
C216 C213 1.365 . S
C216 C215 1.366 . S
C216 H230 0.930 . S
C217 C214 1.378 . S
C217 N218 1.315 . S
C217 H220 0.930 . S
N218 Co198 2.194 . S
N218 C213 1.328 . S
N218 C217 1.315 . S
H219 C213 0.929 . S
H220 C217 0.930 . S
H221 C209 0.929 . S
H222 C211 0.929 . S
O223 Co198 2.351 . S
O223 C226 1.244 . S
O224 Co198 2.155 . S
O224 C226 1.240 . S
O225 Co198 2.096 . S
O225 C206 1.247 . S
C226 O223 1.244 . S
C226 O224 1.240 . S
H227 C201 0.931 . S
H228 C210 0.931 . S
H229 C214 0.929 . S
H230 C216 0.930 . S
Co231 N235 2.148 1_556 S
Co231 N241 2.128 . S
Co231 N251 2.194 1_556 S
Co231 O256 2.351 . S
Co231 O257 2.155 . S
Co231 O258 2.096 . S
C232 N235 1.301 . S
C232 N236 1.328 . S
C232 H237 0.930 . S
C233 C234 1.333 . S
C233 N235 1.317 . S
C233 H238 0.930 . S
C234 C233 1.333 . S
C234 N236 1.350 . S
C234 H260 0.931 . S
N235 Co231 2.148 1_554 S
N235 C232 1.301 . S
N235 C233 1.317 . S
N236 C232 1.328 . S
N236 C234 1.350 . S
H237 C232 0.930 . S
H238 C233 0.930 . S
C239 O240 1.224 . S
C239 O258 1.247 1_554 S
O240 C239 1.224 . S
N241 Co231 2.128 . S
N241 C242 1.355 . S
N241 C244 1.311 . S
C242 N241 1.355 . S
C242 C243 1.363 . S
C242 H254 0.929 . S
C243 C242 1.363 . S
C243 N245 1.375 . S
C243 H261 0.931 . S
C244 N241 1.311 . S
C244 N245 1.347 . S
C244 H255 0.929 . S
N245 C243 1.375 . S
N245 C244 1.347 . S
C246 C249 1.365 . S
C246 N251 1.328 . S
C246 H252 0.929 . S
C247 C248 1.362 . S
C247 C250 1.378 . S
C247 H262 0.929 . S
C248 C247 1.362 . S
C248 C249 1.366 . S
C249 C246 1.365 . S
C249 C248 1.366 . S
C249 H263 0.930 . S
C250 C247 1.378 . S
C250 N251 1.315 . S
C250 H253 0.930 . S
N251 Co231 2.194 1_554 S
N251 C246 1.328 . S
N251 C250 1.315 . S
H252 C246 0.929 . S
H253 C250 0.930 . S
H254 C242 0.929 . S
H255 C244 0.929 . S
O256 Co231 2.351 . S
O256 C259 1.244 . S
O257 Co231 2.155 . S
O257 C259 1.240 . S
O258 Co231 2.096 . S
O258 C239 1.247 1_556 S
C259 O256 1.244 . S
C259 O257 1.240 . S
H260 C234 0.931 . S
H261 C243 0.931 . S
H262 C247 0.929 . S
H263 C249 0.930 . S
Co264 N268 2.148 . S
Co264 N274 2.128 . S
Co264 N284 2.194 . S
Co264 O289 2.351 . S
Co264 O290 2.155 . S
Co264 O291 2.096 . S
C265 N268 1.301 . S
C265 N269 1.328 . S
C265 H270 0.930 . S
C266 C267 1.333 . S
C266 N268 1.317 . S
C266 H271 0.930 . S
C267 C266 1.333 . S
C267 N269 1.350 . S
C267 H293 0.931 . S
N268 Co264 2.148 . S
N268 C265 1.301 . S
N268 C266 1.317 . S
N269 C265 1.328 . S
N269 C267 1.350 . S
H270 C265 0.930 . S
H271 C266 0.930 . S
C272 O273 1.224 . S
C272 O291 1.247 . S
O273 C272 1.224 . S
N274 Co264 2.128 . S
N274 C275 1.355 . S
N274 C277 1.311 . S
C275 N274 1.355 . S
C275 C276 1.363 . S
C275 H287 0.929 . S
C276 C275 1.363 . S
C276 N278 1.375 . S
C276 H294 0.931 . S
C277 N274 1.311 . S
C277 N278 1.347 . S
C277 H288 0.929 . S
N278 C276 1.375 . S
N278 C277 1.347 . S
C279 C282 1.365 . S
C279 N284 1.328 . S
C279 H285 0.929 . S
C280 C281 1.362 . S
C280 C283 1.378 . S
C280 H295 0.929 . S
C281 C280 1.362 . S
C281 C282 1.366 . S
C282 C279 1.365 . S
C282 C281 1.366 . S
C282 H296 0.930 . S
C283 C280 1.378 . S
C283 N284 1.315 . S
C283 H286 0.930 . S
N284 Co264 2.194 . S
N284 C279 1.328 . S
N284 C283 1.315 . S
H285 C279 0.929 . S
H286 C283 0.930 . S
H287 C275 0.929 . S
H288 C277 0.929 . S
O289 Co264 2.351 . S
O289 C292 1.244 . S
O290 Co264 2.155 . S
O290 C292 1.240 . S
O291 Co264 2.096 . S
O291 C272 1.247 . S
C292 O289 1.244 . S
C292 O290 1.240 . S
H293 C267 0.931 . S
H294 C276 0.931 . S
H295 C280 0.929 . S
H296 C282 0.930 . S
Co297 N301 2.148 . S
Co297 N307 2.128 . S
Co297 N317 2.194 . S
Co297 O322 2.351 . S
Co297 O323 2.155 . S
Co297 O324 2.096 . S
C298 N301 1.301 . S
C298 N302 1.328 . S
C298 H303 0.930 . S
C299 C300 1.333 . S
C299 N301 1.317 . S
C299 H304 0.930 . S
C300 C299 1.333 . S
C300 N302 1.350 . S
C300 H326 0.931 . S
N301 Co297 2.148 . S
N301 C298 1.301 . S
N301 C299 1.317 . S
N302 C298 1.328 . S
N302 C300 1.350 . S
H303 C298 0.930 . S
H304 C299 0.930 . S
C305 O306 1.224 . S
C305 O324 1.247 . S
O306 C305 1.224 . S
N307 Co297 2.128 . S
N307 C308 1.355 . S
N307 C310 1.311 . S
C308 N307 1.355 . S
C308 C309 1.363 . S
C308 H320 0.929 . S
C309 C308 1.363 . S
C309 N311 1.375 . S
C309 H327 0.931 . S
C310 N307 1.311 . S
C310 N311 1.347 . S
C310 H321 0.929 . S
N311 C309 1.375 . S
N311 C310 1.347 . S
C312 C315 1.365 . S
C312 N317 1.328 . S
C312 H318 0.929 . S
C313 C314 1.362 . S
C313 C316 1.378 . S
C313 H328 0.929 . S
C314 C313 1.362 . S
C314 C315 1.366 . S
C315 C312 1.365 . S
C315 C314 1.366 . S
C315 H329 0.930 . S
C316 C313 1.378 . S
C316 N317 1.315 . S
C316 H319 0.930 . S
N317 Co297 2.194 . S
N317 C312 1.328 . S
N317 C316 1.315 . S
H318 C312 0.929 . S
H319 C316 0.930 . S
H320 C308 0.929 . S
H321 C310 0.929 . S
O322 Co297 2.351 . S
O322 C325 1.244 . S
O323 Co297 2.155 . S
O323 C325 1.240 . S
O324 Co297 2.096 . S
O324 C305 1.247 . S
C325 O322 1.244 . S
C325 O323 1.240 . S
H326 C300 0.931 . S
H327 C309 0.931 . S
H328 C313 0.929 . S
H329 C315 0.930 . S
Co330 N334 2.148 . S
Co330 N340 2.128 . S
Co330 N350 2.194 . S
Co330 O355 2.351 . S
Co330 O356 2.155 . S
Co330 O357 2.096 . S
C331 N334 1.301 . S
C331 N335 1.328 . S
C331 H336 0.930 . S
C332 C333 1.333 . S
C332 N334 1.317 . S
C332 H337 0.930 . S
C333 C332 1.333 . S
C333 N335 1.350 . S
C333 H359 0.931 . S
N334 Co330 2.148 . S
N334 C331 1.301 . S
N334 C332 1.317 . S
N335 C331 1.328 . S
N335 C333 1.350 . S
H336 C331 0.930 . S
H337 C332 0.930 . S
C338 O339 1.224 . S
C338 O357 1.247 . S
O339 C338 1.224 . S
N340 Co330 2.128 . S
N340 C341 1.355 . S
N340 C343 1.311 . S
C341 N340 1.355 . S
C341 C342 1.363 . S
C341 H353 0.929 . S
C342 C341 1.363 . S
C342 N344 1.375 . S
C342 H360 0.931 . S
C343 N340 1.311 . S
C343 N344 1.347 . S
C343 H354 0.929 . S
N344 C342 1.375 . S
N344 C343 1.347 . S
C345 C348 1.365 . S
C345 N350 1.328 . S
C345 H351 0.929 . S
C346 C347 1.362 . S
C346 C349 1.378 . S
C346 H361 0.929 . S
C347 C346 1.362 . S
C347 C348 1.366 . S
C348 C345 1.365 . S
C348 C347 1.366 . S
C348 H362 0.930 . S
C349 C346 1.378 . S
C349 N350 1.315 . S
C349 H352 0.930 . S
N350 Co330 2.194 . S
N350 C345 1.328 . S
N350 C349 1.315 . S
H351 C345 0.929 . S
H352 C349 0.930 . S
H353 C341 0.929 . S
H354 C343 0.929 . S
O355 Co330 2.351 . S
O355 C358 1.244 . S
O356 Co330 2.155 . S
O356 C358 1.240 . S
O357 Co330 2.096 . S
O357 C338 1.247 . S
C358 O355 1.244 . S
C358 O356 1.240 . S
H359 C333 0.931 . S
H360 C342 0.931 . S
H361 C346 0.929 . S
H362 C348 0.930 . S
Co363 N367 2.148 . S
Co363 N373 2.128 . S
Co363 N383 2.194 . S
Co363 O388 2.351 . S
Co363 O389 2.155 . S
Co363 O390 2.096 . S
C364 N367 1.301 . S
C364 N368 1.328 . S
C364 H369 0.930 . S
C365 C366 1.333 . S
C365 N367 1.317 . S
C365 H370 0.930 . S
C366 C365 1.333 . S
C366 N368 1.350 . S
C366 H392 0.931 . S
N367 Co363 2.148 . S
N367 C364 1.301 . S
N367 C365 1.317 . S
N368 C364 1.328 . S
N368 C366 1.350 . S
H369 C364 0.930 . S
H370 C365 0.930 . S
C371 O372 1.224 . S
C371 O390 1.247 . S
O372 C371 1.224 . S
N373 Co363 2.128 . S
N373 C374 1.355 . S
N373 C376 1.311 . S
C374 N373 1.355 . S
C374 C375 1.363 . S
C374 H386 0.929 . S
C375 C374 1.363 . S
C375 N377 1.375 . S
C375 H393 0.931 . S
C376 N373 1.311 . S
C376 N377 1.347 . S
C376 H387 0.929 . S
N377 C375 1.375 . S
N377 C376 1.347 . S
C378 C381 1.365 . S
C378 N383 1.328 . S
C378 H384 0.929 . S
C379 C380 1.362 . S
C379 C382 1.378 . S
C379 H394 0.929 . S
C380 C379 1.362 . S
C380 C381 1.366 . S
C381 C378 1.365 . S
C381 C380 1.366 . S
C381 H395 0.930 . S
C382 C379 1.378 . S
C382 N383 1.315 . S
C382 H385 0.930 . S
N383 Co363 2.194 . S
N383 C378 1.328 . S
N383 C382 1.315 . S
H384 C378 0.929 . S
H385 C382 0.930 . S
H386 C374 0.929 . S
H387 C376 0.929 . S
O388 Co363 2.351 . S
O388 C391 1.244 . S
O389 Co363 2.155 . S
O389 C391 1.240 . S
O390 Co363 2.096 . S
O390 C371 1.247 . S
C391 O388 1.244 . S
C391 O389 1.240 . S
H392 C366 0.931 . S
H393 C375 0.931 . S
H394 C379 0.929 . S
H395 C381 0.930 . S
H396 C414 0.951 . S
H397 C416 0.951 . S
H398 C418 0.950 . S
H399 C419 0.950 . S
H400 C421 0.950 . S
H401 C424 0.950 . S
H402 C425 0.950 . S
H403 C427 0.950 . S
H404 C428 0.950 . S
H405 C429 0.951 . S
H406 C431 0.951 . S
H407 C433 0.950 . S
H408 C434 0.950 . S
H409 C436 0.950 . S
H410 C439 0.950 . S
H411 C440 0.950 . S
H412 C442 0.950 . S
H413 C443 0.950 . S
C414 H396 0.951 . S
C414 C415 1.366 . S
C414 C416 1.388 . S
C415 C414 1.366 . S
C415 C419 1.385 . S
C416 H397 0.951 . S
C416 C414 1.388 . S
C416 C417 1.366 . S
C417 C416 1.366 . S
C417 C418 1.414 . S
C417 C420 1.499 . S
C418 H398 0.950 . S
C418 C417 1.414 . S
C418 C419 1.374 . S
C419 H399 0.950 . S
C419 C415 1.385 . S
C419 C418 1.374 . S
C420 C417 1.499 . S
C420 C421 1.373 . S
C420 C422 1.389 . S
C421 H400 0.950 . S
C421 C420 1.373 . S
C421 C437 1.377 . S
C422 C420 1.389 . S
C422 C423 1.524 . S
C422 C436 1.377 . S
C423 C422 1.524 . S
C423 C424 1.397 . S
C423 C428 1.363 . S
C424 H401 0.950 . S
C424 C423 1.397 . S
C424 C425 1.334 . S
C425 H402 0.950 . S
C425 C424 1.334 . S
C425 C426 1.287 . S
C426 C425 1.287 . S
C426 C427 1.524 . S
C426 H445 0.913 . S
C427 H403 0.950 . S
C427 C426 1.524 . S
C427 C428 1.415 . S
C428 H404 0.950 . S
C428 C423 1.363 . S
C428 C427 1.415 . S
C429 H405 0.951 . S
C429 C430 1.366 . S
C429 C431 1.388 . S
C430 C429 1.366 . S
C430 C434 1.385 . S
C431 H406 0.951 . S
C431 C429 1.388 . S
C431 C432 1.366 . S
C432 C431 1.366 . S
C432 C433 1.414 . S
C432 C435 1.499 . S
C433 H407 0.950 . S
C433 C432 1.414 . S
C433 C434 1.374 . S
C434 H408 0.950 . S
C434 C430 1.385 . S
C434 C433 1.374 . S
C435 C432 1.499 . S
C435 C436 1.373 . S
C435 C437 1.389 . S
C436 H409 0.950 . S
C436 C422 1.377 . S
C436 C435 1.373 . S
C437 C421 1.377 . S
C437 C435 1.389 . S
C437 C438 1.524 . S
C438 C437 1.524 . S
C438 C439 1.397 . S
C438 C443 1.363 . S
C439 H410 0.950 . S
C439 C438 1.397 . S
C439 C440 1.334 . S
C440 H411 0.950 . S
C440 C439 1.334 . S
C440 C441 1.287 . S
C441 C440 1.287 . S
C441 C442 1.524 . S
C441 H444 0.999 . S
C442 H412 0.950 . S
C442 C441 1.524 . S
C442 C443 1.415 . S
C443 H413 0.950 . S
C443 C438 1.363 . S
C443 C442 1.415 . S
H444 C441 0.999 . S
H445 C426 0.913 . S
H446 C464 0.951 . S
H447 C466 0.951 . S
H448 C468 0.950 . S
H449 C469 0.950 . S
H450 C471 0.950 . S
H451 C474 0.950 . S
H452 C475 0.950 . S
H453 C477 0.950 . S
H454 C478 0.950 . S
H455 C479 0.951 . S
H456 C481 0.951 . S
H457 C483 0.950 . S
H458 C484 0.950 . S
H459 C486 0.950 . S
H460 C489 0.950 . S
H461 C490 0.950 . S
H462 C492 0.950 . S
H463 C493 0.950 . S
C464 H446 0.951 . S
C464 C465 1.366 . S
C464 C466 1.388 . S
C465 C464 1.366 . S
C465 C469 1.385 . S
C466 H447 0.951 . S
C466 C464 1.388 . S
C466 C467 1.366 . S
C467 C466 1.366 . S
C467 C468 1.414 . S
C467 C470 1.499 . S
C468 H448 0.950 . S
C468 C467 1.414 . S
C468 C469 1.374 . S
C469 H449 0.950 . S
C469 C465 1.385 . S
C469 C468 1.374 . S
C470 C467 1.499 . S
C470 C471 1.373 . S
C470 C472 1.389 . S
C471 H450 0.950 . S
C471 C470 1.373 . S
C471 C487 1.377 . S
C472 C470 1.389 . S
C472 C473 1.524 . S
C472 C486 1.377 . S
C473 C472 1.524 . S
C473 C474 1.397 . S
C473 C478 1.363 . S
C474 H451 0.950 . S
C474 C473 1.397 . S
C474 C475 1.334 . S
C475 H452 0.950 . S
C475 C474 1.334 . S
C475 C476 1.287 . S
C476 C475 1.287 . S
C476 C477 1.524 . S
C476 H495 0.913 . S
C477 H453 0.950 . S
C477 C476 1.524 . S
C477 C478 1.415 . S
C478 H454 0.950 . S
C478 C473 1.363 . S
C478 C477 1.415 . S
C479 H455 0.951 . S
C479 C480 1.366 . S
C479 C481 1.388 . S
C480 C479 1.366 . S
C480 C484 1.385 . S
C481 H456 0.951 . S
C481 C479 1.388 . S
C481 C482 1.366 . S
C482 C481 1.366 . S
C482 C483 1.414 . S
C482 C485 1.499 . S
C483 H457 0.950 . S
C483 C482 1.414 . S
C483 C484 1.374 . S
C484 H458 0.950 . S
C484 C480 1.385 . S
C484 C483 1.374 . S
C485 C482 1.499 . S
C485 C486 1.373 . S
C485 C487 1.389 . S
C486 H459 0.950 . S
C486 C472 1.377 . S
C486 C485 1.373 . S
C487 C471 1.377 . S
C487 C485 1.389 . S
C487 C488 1.524 . S
C488 C487 1.524 . S
C488 C489 1.397 . S
C488 C493 1.363 . S
C489 H460 0.950 . S
C489 C488 1.397 . S
C489 C490 1.334 . S
C490 H461 0.950 . S
C490 C489 1.334 . S
C490 C491 1.287 . S
C491 C490 1.287 . S
C491 C492 1.524 . S
C491 H494 0.999 . S
C492 H462 0.950 . S
C492 C491 1.524 . S
C492 C493 1.415 . S
C493 H463 0.950 . S
C493 C488 1.363 . S
C493 C492 1.415 . S
H494 C491 0.999 . S
H495 C476 0.913 . S
H496 C514 0.951 . S
H497 C516 0.951 . S
H498 C518 0.950 . S
H499 C519 0.950 . S
H500 C521 0.950 . S
H501 C524 0.950 . S
H502 C525 0.950 . S
H503 C527 0.950 . S
H504 C528 0.950 . S
H505 C529 0.951 . S
H506 C531 0.951 . S
H507 C533 0.950 . S
H508 C534 0.950 . S
H509 C536 0.950 . S
H510 C539 0.950 . S
H511 C540 0.950 . S
H512 C542 0.950 . S
H513 C543 0.950 . S
C514 H496 0.951 . S
C514 C515 1.366 . S
C514 C516 1.388 . S
C515 C514 1.366 . S
C515 C519 1.385 . S
C516 H497 0.951 . S
C516 C514 1.388 . S
C516 C517 1.366 . S
C517 C516 1.366 . S
C517 C518 1.414 . S
C517 C520 1.499 . S
C518 H498 0.950 . S
C518 C517 1.414 . S
C518 C519 1.374 . S
C519 H499 0.950 . S
C519 C515 1.385 . S
C519 C518 1.374 . S
C520 C517 1.499 . S
C520 C521 1.373 . S
C520 C522 1.389 . S
C521 H500 0.950 . S
C521 C520 1.373 . S
C521 C537 1.377 . S
C522 C520 1.389 . S
C522 C523 1.524 . S
C522 C536 1.377 . S
C523 C522 1.524 . S
C523 C524 1.397 . S
C523 C528 1.363 . S
C524 H501 0.950 . S
C524 C523 1.397 . S
C524 C525 1.334 . S
C525 H502 0.950 . S
C525 C524 1.334 . S
C525 C526 1.287 . S
C526 C525 1.287 . S
C526 C527 1.524 . S
C526 H545 0.913 . S
C527 H503 0.950 . S
C527 C526 1.524 . S
C527 C528 1.415 . S
C528 H504 0.950 . S
C528 C523 1.363 . S
C528 C527 1.415 . S
C529 H505 0.951 . S
C529 C530 1.366 . S
C529 C531 1.388 . S
C530 C529 1.366 . S
C530 C534 1.385 . S
C531 H506 0.951 . S
C531 C529 1.388 . S
C531 C532 1.366 . S
C532 C531 1.366 . S
C532 C533 1.414 . S
C532 C535 1.499 . S
C533 H507 0.950 . S
C533 C532 1.414 . S
C533 C534 1.374 . S
C534 H508 0.950 . S
C534 C530 1.385 . S
C534 C533 1.374 . S
C535 C532 1.499 . S
C535 C536 1.373 . S
C535 C537 1.389 . S
C536 H509 0.950 . S
C536 C522 1.377 . S
C536 C535 1.373 . S
C537 C521 1.377 . S
C537 C535 1.389 . S
C537 C538 1.524 . S
C538 C537 1.524 . S
C538 C539 1.397 . S
C538 C543 1.363 . S
C539 H510 0.950 . S
C539 C538 1.397 . S
C539 C540 1.334 . S
C540 H511 0.950 . S
C540 C539 1.334 . S
C540 C541 1.287 . S
C541 C540 1.287 . S
C541 C542 1.524 . S
C541 H544 0.999 . S
C542 H512 0.950 . S
C542 C541 1.524 . S
C542 C543 1.415 . S
C543 H513 0.950 . S
C543 C538 1.363 . S
C543 C542 1.415 . S
H544 C541 0.999 . S
H545 C526 0.913 . S
H546 C564 0.951 . S
H547 C566 0.951 . S
H548 C568 0.950 . S
H549 C569 0.950 . S
H550 C571 0.950 . S
H551 C574 0.950 . S
H552 C575 0.950 . S
H553 C577 0.950 . S
H554 C578 0.950 . S
H555 C579 0.951 . S
H556 C581 0.951 . S
H557 C583 0.950 . S
H558 C584 0.950 . S
H559 C586 0.950 . S
H560 C589 0.950 . S
H561 C590 0.950 . S
H562 C592 0.950 . S
H563 C593 0.950 . S
C564 H546 0.951 . S
C564 C565 1.366 . S
C564 C566 1.388 . S
C565 C564 1.366 . S
C565 C569 1.385 . S
C566 H547 0.951 . S
C566 C564 1.388 . S
C566 C567 1.366 . S
C567 C566 1.366 . S
C567 C568 1.414 . S
C567 C570 1.499 . S
C568 H548 0.950 . S
C568 C567 1.414 . S
C568 C569 1.374 . S
C569 H549 0.950 . S
C569 C565 1.385 . S
C569 C568 1.374 . S
C570 C567 1.499 . S
C570 C571 1.373 . S
C570 C572 1.389 . S
C571 H550 0.950 . S
C571 C570 1.373 . S
C571 C587 1.377 . S
C572 C570 1.389 . S
C572 C573 1.524 . S
C572 C586 1.377 . S
C573 C572 1.524 . S
C573 C574 1.397 . S
C573 C578 1.363 . S
C574 H551 0.950 . S
C574 C573 1.397 . S
C574 C575 1.334 . S
C575 H552 0.950 . S
C575 C574 1.334 . S
C575 C576 1.287 . S
C576 C575 1.287 . S
C576 C577 1.524 . S
C576 H595 0.913 . S
C577 H553 0.950 . S
C577 C576 1.524 . S
C577 C578 1.415 . S
C578 H554 0.950 . S
C578 C573 1.363 . S
C578 C577 1.415 . S
C579 H555 0.951 . S
C579 C580 1.366 . S
C579 C581 1.388 . S
C580 C579 1.366 . S
C580 C584 1.385 . S
C581 H556 0.951 . S
C581 C579 1.388 . S
C581 C582 1.366 . S
C582 C581 1.366 . S
C582 C583 1.414 . S
C582 C585 1.499 . S
C583 H557 0.950 . S
C583 C582 1.414 . S
C583 C584 1.374 . S
C584 H558 0.950 . S
C584 C580 1.385 . S
C584 C583 1.374 . S
C585 C582 1.499 . S
C585 C586 1.373 . S
C585 C587 1.389 . S
C586 H559 0.950 . S
C586 C572 1.377 . S
C586 C585 1.373 . S
C587 C571 1.377 . S
C587 C585 1.389 . S
C587 C588 1.524 . S
C588 C587 1.524 . S
C588 C589 1.397 . S
C588 C593 1.363 . S
C589 H560 0.950 . S
C589 C588 1.397 . S
C589 C590 1.334 . S
C590 H561 0.950 . S
C590 C589 1.334 . S
C590 C591 1.287 . S
C591 C590 1.287 . S
C591 C592 1.524 . S
C591 H594 0.999 . S
C592 H562 0.950 . S
C592 C591 1.524 . S
C592 C593 1.415 . S
C593 H563 0.950 . S
C593 C588 1.363 . S
C593 C592 1.415 . S
H594 C591 0.999 . S
H595 C576 0.913 . S
H596 C614 0.951 . S
H597 C616 0.951 . S
H598 C618 0.950 . S
H599 C619 0.950 . S
H600 C621 0.950 . S
H601 C624 0.950 . S
H602 C625 0.950 . S
H603 C627 0.950 . S
H604 C628 0.950 . S
H605 C629 0.951 . S
H606 C631 0.940 1_556 S
H607 C633 0.950 1_556 S
H608 C634 0.950 . S
H609 C636 0.950 . S
H610 C639 0.950 . S
H611 C640 0.950 . S
H612 C642 0.950 . S
H613 C643 0.950 . S
C614 H596 0.951 . S
C614 C615 1.366 . S
C614 C616 1.388 . S
C615 C614 1.366 . S
C615 C619 1.385 . S
C616 H597 0.951 . S
C616 C614 1.388 . S
C616 C617 1.366 . S
C617 C616 1.366 . S
C617 C618 1.414 . S
C617 C620 1.499 . S
C618 H598 0.950 . S
C618 C617 1.414 . S
C618 C619 1.374 . S
C619 H599 0.950 . S
C619 C615 1.385 . S
C619 C618 1.374 . S
C620 C617 1.499 . S
C620 C621 1.373 . S
C620 C622 1.389 . S
C621 H600 0.950 . S
C621 C620 1.373 . S
C621 C637 1.377 . S
C622 C620 1.389 . S
C622 C623 1.524 . S
C622 C636 1.377 . S
C623 C622 1.524 . S
C623 C624 1.397 . S
C623 C628 1.363 . S
C624 H601 0.950 . S
C624 C623 1.397 . S
C624 C625 1.334 . S
C625 H602 0.950 . S
C625 C624 1.334 . S
C625 C626 1.287 . S
C626 C625 1.287 . S
C626 C627 1.524 . S
C626 H645 0.913 . S
C627 H603 0.950 . S
C627 C626 1.524 . S
C627 C628 1.415 . S
C628 H604 0.950 . S
C628 C623 1.363 . S
C628 C627 1.415 . S
C629 H605 0.951 . S
C629 C630 1.366 . S
C629 C631 1.388 . S
C630 C629 1.366 . S
C630 C634 1.385 . S
C631 H606 0.940 1_554 S
C631 C629 1.388 . S
C631 C632 1.366 1_554 S
C632 C631 1.366 1_556 S
C632 C633 1.414 1_556 S
C632 C635 1.499 . S
C633 H607 0.950 1_554 S
C633 C632 1.414 1_554 S
C633 C634 1.374 . S
C634 H608 0.950 . S
C634 C630 1.385 . S
C634 C633 1.374 . S
C635 C632 1.499 . S
C635 C636 1.373 . S
C635 C637 1.389 . S
C636 H609 0.950 . S
C636 C622 1.377 . S
C636 C635 1.373 . S
C637 C621 1.377 . S
C637 C635 1.389 . S
C637 C638 1.524 . S
C638 C637 1.524 . S
C638 C639 1.397 . S
C638 C643 1.363 . S
C639 H610 0.950 . S
C639 C638 1.397 . S
C639 C640 1.334 . S
C640 H611 0.950 . S
C640 C639 1.334 . S
C640 C641 1.287 . S
C641 C640 1.287 . S
C641 C642 1.524 . S
C641 H644 0.999 . S
C642 H612 0.950 . S
C642 C641 1.524 . S
C642 C643 1.415 . S
C643 H613 0.950 . S
C643 C638 1.363 . S
C643 C642 1.415 . S
H644 C641 0.999 . S
H645 C626 0.913 . S
H646 C664 0.951 . S
H647 C666 0.951 . S
H648 C668 0.950 1_554 S
H649 C669 0.950 . S
H650 C671 0.950 . S
H651 C674 0.950 . S
H652 C675 0.950 . S
H653 C677 0.950 . S
H654 C678 0.950 . S
H655 C679 0.951 . S
H656 C681 0.951 . S
H657 C683 0.950 . S
H658 C684 0.950 . S
H659 C686 0.950 . S
H660 C689 0.950 . S
H661 C690 0.950 . S
H662 C692 0.950 . S
H663 C693 0.950 . S
C664 H646 0.951 . S
C664 C665 1.366 . S
C664 C666 1.388 . S
C665 C664 1.366 . S
C665 C669 1.385 . S
C666 H647 0.951 . S
C666 C664 1.388 . S
C666 C667 1.366 1_556 S
C667 C666 1.366 1_554 S
C667 C668 1.414 1_554 S
C667 C670 1.499 . S
C668 H648 0.950 1_556 S
C668 C667 1.414 1_556 S
C668 C669 1.374 . S
C669 H649 0.950 . S
C669 C665 1.385 . S
C669 C668 1.374 . S
C670 C667 1.499 . S
C670 C671 1.373 . S
C670 C672 1.389 . S
C671 H650 0.950 . S
C671 C670 1.373 . S
C671 C687 1.377 . S
C672 C670 1.389 . S
C672 C673 1.524 . S
C672 C686 1.377 . S
C673 C672 1.524 . S
C673 C674 1.397 . S
C673 C678 1.363 . S
C674 H651 0.950 . S
C674 C673 1.397 . S
C674 C675 1.334 . S
C675 H652 0.950 . S
C675 C674 1.334 . S
C675 C676 1.287 . S
C676 C675 1.287 . S
C676 C677 1.524 . S
C676 H695 0.913 . S
C677 H653 0.950 . S
C677 C676 1.524 . S
C677 C678 1.415 . S
C678 H654 0.950 . S
C678 C673 1.363 . S
C678 C677 1.415 . S
C679 H655 0.951 . S
C679 C680 1.366 . S
C679 C681 1.388 . S
C680 C679 1.366 . S
C680 C684 1.385 . S
C681 H656 0.951 . S
C681 C679 1.388 . S
C681 C682 1.366 . S
C682 C681 1.366 . S
C682 C683 1.414 . S
C682 C685 1.499 . S
C683 H657 0.950 . S
C683 C682 1.414 . S
C683 C684 1.374 . S
C684 H658 0.950 . S
C684 C680 1.385 . S
C684 C683 1.374 . S
C685 C682 1.499 . S
C685 C686 1.373 . S
C685 C687 1.389 . S
C686 H659 0.950 . S
C686 C672 1.377 . S
C686 C685 1.373 . S
C687 C671 1.377 . S
C687 C685 1.389 . S
C687 C688 1.524 . S
C688 C687 1.524 . S
C688 C689 1.397 . S
C688 C693 1.363 . S
C689 H660 0.950 . S
C689 C688 1.397 . S
C689 C690 1.334 . S
C690 H661 0.950 . S
C690 C689 1.334 . S
C690 C691 1.287 . S
C691 C690 1.287 . S
C691 C692 1.524 . S
C691 H694 0.999 . S
C692 H662 0.950 . S
C692 C691 1.524 . S
C692 C693 1.415 . S
C693 H663 0.950 . S
C693 C688 1.363 . S
C693 C692 1.415 . S
H694 C691 0.999 . S
H695 C676 0.913 . S
H696 C714 0.951 . S
H697 C716 0.951 . S
H698 C718 0.950 . S
H699 C719 0.950 . S
H700 C721 0.950 . S
H701 C724 0.950 . S
H702 C725 0.950 . S
H703 C727 0.950 . S
H704 C728 0.950 . S
H705 C729 0.951 . S
H706 C731 0.951 . S
H707 C733 0.950 . S
H708 C734 0.950 . S
H709 C736 0.950 . S
H710 C739 0.950 . S
H711 C740 0.950 . S
H712 C742 0.950 . S
H713 C743 0.950 . S
C714 H696 0.951 . S
C714 C715 1.366 . S
C714 C716 1.388 . S
C715 C714 1.366 . S
C715 C719 1.385 . S
C716 H697 0.951 . S
C716 C714 1.388 . S
C716 C717 1.366 . S
C717 C716 1.366 . S
C717 C718 1.414 . S
C717 C720 1.499 . S
C718 H698 0.950 . S
C718 C717 1.414 . S
C718 C719 1.374 . S
C719 H699 0.950 . S
C719 C715 1.385 . S
C719 C718 1.374 . S
C720 C717 1.499 . S
C720 C721 1.373 . S
C720 C722 1.389 . S
C721 H700 0.950 . S
C721 C720 1.373 . S
C721 C737 1.377 . S
C722 C720 1.389 . S
C722 C723 1.524 . S
C722 C736 1.377 . S
C723 C722 1.524 . S
C723 C724 1.397 . S
C723 C728 1.363 . S
C724 H701 0.950 . S
C724 C723 1.397 . S
C724 C725 1.334 . S
C725 H702 0.950 . S
C725 C724 1.334 . S
C725 C726 1.287 . S
C726 C725 1.287 . S
C726 C727 1.524 . S
C726 H745 0.913 . S
C727 H703 0.950 . S
C727 C726 1.524 . S
C727 C728 1.415 . S
C728 H704 0.950 . S
C728 C723 1.363 . S
C728 C727 1.415 . S
C729 H705 0.951 . S
C729 C730 1.366 . S
C729 C731 1.388 . S
C730 C729 1.366 . S
C730 C734 1.385 . S
C731 H706 0.951 . S
C731 C729 1.388 . S
C731 C732 1.366 . S
C732 C731 1.366 . S
C732 C733 1.414 . S
C732 C735 1.499 . S
C733 H707 0.950 . S
C733 C732 1.414 . S
C733 C734 1.374 . S
C734 H708 0.950 . S
C734 C730 1.385 . S
C734 C733 1.374 . S
C735 C732 1.499 . S
C735 C736 1.373 . S
C735 C737 1.389 . S
C736 H709 0.950 . S
C736 C722 1.377 . S
C736 C735 1.373 . S
C737 C721 1.377 . S
C737 C735 1.389 . S
C737 C738 1.524 . S
C738 C737 1.524 . S
C738 C739 1.397 . S
C738 C743 1.363 . S
C739 H710 0.950 . S
C739 C738 1.397 . S
C739 C740 1.334 . S
C740 H711 0.950 . S
C740 C739 1.334 . S
C740 C741 1.287 . S
C741 C740 1.287 . S
C741 C742 1.524 . S
C741 H744 0.999 . S
C742 H712 0.950 . S
C742 C741 1.524 . S
C742 C743 1.415 . S
C743 H713 0.950 . S
C743 C738 1.363 . S
C743 C742 1.415 . S
H744 C741 0.999 . S
H745 C726 0.913 . S
H746 C764 0.951 . S
H747 C766 0.951 . S
H748 C768 0.950 . S
H749 C769 0.950 . S
H750 C771 0.950 . S
H751 C774 0.950 . S
H752 C775 0.950 . S
H753 C777 0.950 . S
H754 C778 0.950 . S
H755 C779 0.951 . S
H756 C781 0.951 1_455 S
H757 C783 0.950 . S
H758 C784 0.950 . S
H759 C786 0.950 . S
H760 C789 0.950 . S
H761 C790 0.950 1_655 S
H762 C792 0.950 . S
H763 C793 0.950 . S
C764 H746 0.951 . S
C764 C765 1.366 1_554 S
C764 C766 1.388 . S
C765 C764 1.366 1_556 S
C765 C769 1.385 . S
C766 H747 0.951 . S
C766 C764 1.388 . S
C766 C767 1.366 . S
C767 C766 1.366 . S
C767 C768 1.414 1_554 S
C767 C770 1.499 . S
C768 H748 0.950 . S
C768 C767 1.414 1_556 S
C768 C769 1.374 . S
C769 H749 0.950 . S
C769 C765 1.385 . S
C769 C768 1.374 . S
C770 C767 1.499 . S
C770 C771 1.373 1_554 S
C770 C772 1.389 . S
C771 H750 0.950 . S
C771 C770 1.373 1_556 S
C771 C787 1.377 1_556 S
C772 C770 1.389 . S
C772 C773 1.524 . S
C772 C786 1.377 . S
C773 C772 1.524 . S
C773 C774 1.397 . S
C773 C778 1.363 . S
C774 H751 0.950 . S
C774 C773 1.397 . S
C774 C775 1.334 . S
C775 H752 0.950 . S
C775 C774 1.334 . S
C775 C776 1.287 . S
C776 C775 1.287 . S
C776 C777 1.524 . S
C776 H795 0.913 . S
C777 H753 0.950 . S
C777 C776 1.524 . S
C777 C778 1.415 . S
C778 H754 0.950 . S
C778 C773 1.363 . S
C778 C777 1.415 . S
C779 H755 0.951 . S
C779 C780 1.366 . S
C779 C781 1.388 . S
C780 C779 1.366 . S
C780 C784 1.385 . S
C781 H756 0.951 1_655 S
C781 C779 1.388 . S
C781 C782 1.366 1_655 S
C782 C781 1.366 1_455 S
C782 C783 1.414 . S
C782 C785 1.499 . S
C783 H757 0.950 . S
C783 C782 1.414 . S
C783 C784 1.374 1_455 S
C784 H758 0.950 . S
C784 C780 1.385 . S
C784 C783 1.374 1_655 S
C785 C782 1.499 . S
C785 C786 1.373 . S
C785 C787 1.389 . S
C786 H759 0.950 . S
C786 C772 1.377 . S
C786 C785 1.373 . S
C787 C771 1.377 1_554 S
C787 C785 1.389 . S
C787 C788 1.524 1_554 S
C788 C787 1.524 1_556 S
C788 C789 1.397 . S
C788 C793 1.363 . S
C789 H760 0.950 . S
C789 C788 1.397 . S
C789 C790 1.334 . S
C790 H761 0.950 1_455 S
C790 C789 1.334 . S
C790 C791 1.287 . S
C791 C790 1.287 . S
C791 C792 1.524 . S
C791 H794 0.999 1_455 S
C792 H762 0.950 . S
C792 C791 1.524 . S
C792 C793 1.415 . S
C793 H763 0.950 . S
C793 C788 1.363 . S
C793 C792 1.415 . S
H794 C791 0.999 1_655 S
H795 C776 0.913 . S
H796 C814 0.951 . S
H797 C816 0.951 . S
H798 C818 0.950 . S
H799 C819 0.950 . S
H800 C821 0.950 . S
H801 C824 0.950 . S
H802 C825 0.950 . S
H803 C827 0.950 . S
H804 C828 0.950 . S
H805 C829 0.951 . S
H806 C831 0.951 1_545 S
H807 C833 0.950 . S
H808 C834 0.950 . S
H809 C836 0.950 . S
H810 C839 0.950 . S
H811 C840 0.950 1_565 S
H812 C842 0.950 . S
H813 C843 0.950 . S
C814 H796 0.951 . S
C814 C815 1.366 . S
C814 C816 1.388 . S
C815 C814 1.366 . S
C815 C819 1.385 . S
C816 H797 0.951 . S
C816 C814 1.388 . S
C816 C817 1.366 . S
C817 C816 1.366 . S
C817 C818 1.414 . S
C817 C820 1.499 . S
C818 H798 0.950 . S
C818 C817 1.414 . S
C818 C819 1.374 . S
C819 H799 0.950 . S
C819 C815 1.385 . S
C819 C818 1.374 . S
C820 C817 1.499 . S
C820 C821 1.373 . S
C820 C822 1.389 . S
C821 H800 0.950 . S
C821 C820 1.373 . S
C821 C837 1.377 . S
C822 C820 1.389 . S
C822 C823 1.524 . S
C822 C836 1.377 . S
C823 C822 1.524 . S
C823 C824 1.397 . S
C823 C828 1.363 . S
C824 H801 0.950 . S
C824 C823 1.397 . S
C824 C825 1.334 . S
C825 H802 0.950 . S
C825 C824 1.334 . S
C825 C826 1.287 . S
C826 C825 1.287 . S
C826 C827 1.524 . S
C826 H845 0.913 . S
C827 H803 0.950 . S
C827 C826 1.524 . S
C827 C828 1.415 . S
C828 H804 0.950 . S
C828 C823 1.363 . S
C828 C827 1.415 . S
C829 H805 0.951 . S
C829 C830 1.366 . S
C829 C831 1.388 . S
C830 C829 1.366 . S
C830 C834 1.385 . S
C831 H806 0.951 1_565 S
C831 C829 1.388 . S
C831 C832 1.366 1_565 S
C832 C831 1.366 1_545 S
C832 C833 1.414 . S
C832 C835 1.499 . S
C833 H807 0.950 . S
C833 C832 1.414 . S
C833 C834 1.374 1_545 S
C834 H808 0.950 . S
C834 C830 1.385 . S
C834 C833 1.374 1_565 S
C835 C832 1.499 . S
C835 C836 1.373 . S
C835 C837 1.389 . S
C836 H809 0.950 . S
C836 C822 1.377 . S
C836 C835 1.373 . S
C837 C821 1.377 . S
C837 C835 1.389 . S
C837 C838 1.524 . S
C838 C837 1.524 . S
C838 C839 1.397 . S
C838 C843 1.363 . S
C839 H810 0.950 . S
C839 C838 1.397 . S
C839 C840 1.334 . S
C840 H811 0.950 1_545 S
C840 C839 1.334 . S
C840 C841 1.287 . S
C841 C840 1.287 . S
C841 C842 1.524 . S
C841 H844 0.998 1_545 S
C842 H812 0.950 . S
C842 C841 1.524 . S
C842 C843 1.415 . S
C843 H813 0.950 . S
C843 C838 1.363 . S
C843 C842 1.415 . S
H844 C841 0.998 1_565 S
H845 C826 0.913 . S
H846 C864 0.951 . S
H847 C866 0.951 . S
H848 C868 0.950 . S
H849 C869 0.950 . S
H850 C871 0.950 . S
H851 C874 0.950 . S
H852 C875 0.950 . S
H853 C877 0.950 . S
H854 C878 0.950 . S
H855 C879 0.951 . S
H856 C881 0.951 . S
H857 C883 0.950 . S
H858 C884 0.950 . S
H859 C886 0.950 . S
H860 C889 0.950 . S
H861 C890 0.950 . S
H862 C892 0.950 . S
H863 C893 0.950 . S
C864 H846 0.951 . S
C864 C865 1.366 . S
C864 C866 1.388 . S
C865 C864 1.366 . S
C865 C869 1.385 . S
C866 H847 0.951 . S
C866 C864 1.388 . S
C866 C867 1.366 . S
C867 C866 1.366 . S
C867 C868 1.414 . S
C867 C870 1.499 . S
C868 H848 0.950 . S
C868 C867 1.414 . S
C868 C869 1.374 . S
C869 H849 0.950 . S
C869 C865 1.385 . S
C869 C868 1.374 . S
C870 C867 1.499 . S
C870 C871 1.373 . S
C870 C872 1.389 . S
C871 H850 0.950 . S
C871 C870 1.373 . S
C871 C887 1.377 . S
C872 C870 1.389 . S
C872 C873 1.524 . S
C872 C886 1.377 . S
C873 C872 1.524 . S
C873 C874 1.397 . S
C873 C878 1.363 . S
C874 H851 0.950 . S
C874 C873 1.397 . S
C874 C875 1.334 . S
C875 H852 0.950 . S
C875 C874 1.334 . S
C875 C876 1.287 . S
C876 C875 1.287 . S
C876 C877 1.524 . S
C876 H895 0.913 . S
C877 H853 0.950 . S
C877 C876 1.524 . S
C877 C878 1.415 . S
C878 H854 0.950 . S
C878 C873 1.363 . S
C878 C877 1.415 . S
C879 H855 0.951 . S
C879 C880 1.366 . S
C879 C881 1.388 . S
C880 C879 1.366 . S
C880 C884 1.385 . S
C881 H856 0.951 . S
C881 C879 1.388 . S
C881 C882 1.366 . S
C882 C881 1.366 . S
C882 C883 1.414 . S
C882 C885 1.499 . S
C883 H857 0.950 . S
C883 C882 1.414 . S
C883 C884 1.374 . S
C884 H858 0.950 . S
C884 C880 1.385 . S
C884 C883 1.374 . S
C885 C882 1.499 . S
C885 C886 1.373 . S
C885 C887 1.389 . S
C886 H859 0.950 . S
C886 C872 1.377 . S
C886 C885 1.373 . S
C887 C871 1.377 . S
C887 C885 1.389 . S
C887 C888 1.524 . S
C888 C887 1.524 . S
C888 C889 1.397 . S
C888 C893 1.363 . S
C889 H860 0.950 . S
C889 C888 1.397 . S
C889 C890 1.334 . S
C890 H861 0.950 . S
C890 C889 1.334 . S
C890 C891 1.287 . S
C891 C890 1.287 . S
C891 C892 1.524 . S
C891 H894 0.999 . S
C892 H862 0.950 . S
C892 C891 1.524 . S
C892 C893 1.415 . S
C893 H863 0.950 . S
C893 C888 1.363 . S
C893 C892 1.415 . S
H894 C891 0.999 . S
H895 C876 0.913 . S
H896 C914 0.951 . S
H897 C916 0.951 . S
H898 C918 0.964 . S
H899 C919 0.950 . S
H900 C921 0.950 . S
H901 C924 0.950 . S
H902 C925 0.950 . S
H903 C927 0.950 . S
H904 C928 0.950 . S
H905 C929 0.951 . S
H906 C931 0.951 . S
H907 C933 0.950 . S
H908 C934 0.950 . S
H909 C936 0.950 . S
H910 C939 0.950 . S
H911 C940 0.950 . S
H912 C942 0.950 . S
H913 C943 0.950 . S
C914 H896 0.951 . S
C914 C915 1.366 . S
C914 C916 1.388 1_455 S
C915 C914 1.366 . S
C915 C919 1.385 . S
C916 H897 0.951 . S
C916 C914 1.388 1_655 S
C916 C917 1.366 . S
C917 C916 1.366 . S
C917 C918 1.416 . S
C917 C920 1.499 . S
C918 H898 0.964 . S
C918 C917 1.416 . S
C918 C919 1.358 1_655 S
C919 H899 0.950 . S
C919 C915 1.385 . S
C919 C918 1.358 1_455 S
C920 C917 1.499 . S
C920 C921 1.373 . S
C920 C922 1.389 . S
C921 H900 0.950 . S
C921 C920 1.373 . S
C921 C937 1.377 . S
C922 C920 1.389 . S
C922 C923 1.524 . S
C922 C936 1.377 . S
C923 C922 1.524 . S
C923 C924 1.397 . S
C923 C928 1.363 . S
C924 H901 0.950 . S
C924 C923 1.397 . S
C924 C925 1.334 1_655 S
C925 H902 0.950 . S
C925 C924 1.334 1_455 S
C925 C926 1.287 1_455 S
C926 C925 1.287 1_655 S
C926 C927 1.524 . S
C926 H945 0.913 1_655 S
C927 H903 0.950 . S
C927 C926 1.524 . S
C927 C928 1.415 . S
C928 H904 0.950 . S
C928 C923 1.363 . S
C928 C927 1.415 . S
C929 H905 0.951 . S
C929 C930 1.366 . S
C929 C931 1.388 . S
C930 C929 1.366 . S
C930 C934 1.385 . S
C931 H906 0.951 . S
C931 C929 1.388 . S
C931 C932 1.366 . S
C932 C931 1.366 . S
C932 C933 1.414 . S
C932 C935 1.499 . S
C933 H907 0.950 . S
C933 C932 1.414 . S
C933 C934 1.374 . S
C934 H908 0.950 . S
C934 C930 1.385 . S
C934 C933 1.374 . S
C935 C932 1.499 . S
C935 C936 1.373 . S
C935 C937 1.389 . S
C936 H909 0.950 . S
C936 C922 1.377 . S
C936 C935 1.373 . S
C937 C921 1.377 . S
C937 C935 1.389 . S
C937 C938 1.524 . S
C938 C937 1.524 . S
C938 C939 1.397 . S
C938 C943 1.363 . S
C939 H910 0.950 . S
C939 C938 1.397 . S
C939 C940 1.334 . S
C940 H911 0.950 . S
C940 C939 1.334 . S
C940 C941 1.287 . S
C941 C940 1.287 . S
C941 C942 1.524 . S
C941 H944 0.999 . S
C942 H912 0.950 . S
C942 C941 1.524 . S
C942 C943 1.415 . S
C943 H913 0.950 . S
C943 C938 1.363 . S
C943 C942 1.415 . S
H944 C941 0.999 . S
H945 C926 0.913 1_455 S
H946 C964 0.951 . S
H947 C966 0.951 . S
H948 C968 0.950 . S
H949 C969 0.950 . S
H950 C971 0.950 . S
H951 C974 0.950 . S
H952 C975 0.950 1_545 S
H953 C977 0.950 . S
H954 C978 0.950 . S
H955 C979 0.951 . S
H956 C981 0.951 . S
H957 C983 0.950 . S
H958 C984 0.950 . S
H959 C986 0.950 . S
H960 C989 0.950 . S
H961 C990 0.950 . S
H962 C992 0.950 . S
H963 C993 0.950 . S
C964 H946 0.951 . S
C964 C965 1.366 . S
C964 C966 1.388 . S
C965 C964 1.366 . S
C965 C969 1.385 . S
C966 H947 0.951 . S
C966 C964 1.388 . S
C966 C967 1.366 1_545 S
C967 C966 1.366 1_565 S
C967 C968 1.414 . S
C967 C970 1.499 . S
C968 H948 0.950 . S
C968 C967 1.414 . S
C968 C969 1.374 1_565 S
C969 H949 0.950 . S
C969 C965 1.385 . S
C969 C968 1.374 1_545 S
C970 C967 1.499 . S
C970 C971 1.373 . S
C970 C972 1.389 . S
C971 H950 0.950 . S
C971 C970 1.373 . S
C971 C987 1.377 . S
C972 C970 1.389 . S
C972 C973 1.524 . S
C972 C986 1.377 . S
C973 C972 1.524 . S
C973 C974 1.397 . S
C973 C978 1.363 . S
C974 H951 0.950 . S
C974 C973 1.397 . S
C974 C975 1.334 . S
C975 H952 0.950 1_565 S
C975 C974 1.334 . S
C975 C976 1.287 . S
C976 C975 1.287 . S
C976 C977 1.524 . S
C976 H995 0.913 1_565 S
C977 H953 0.950 . S
C977 C976 1.524 . S
C977 C978 1.415 . S
C978 H954 0.950 . S
C978 C973 1.363 . S
C978 C977 1.415 . S
C979 H955 0.951 . S
C979 C980 1.366 . S
C979 C981 1.388 . S
C980 C979 1.366 . S
C980 C984 1.385 . S
C981 H956 0.951 . S
C981 C979 1.388 . S
C981 C982 1.366 . S
C982 C981 1.366 . S
C982 C983 1.414 . S
C982 C985 1.499 . S
C983 H957 0.950 . S
C983 C982 1.414 . S
C983 C984 1.374 . S
C984 H958 0.950 . S
C984 C980 1.385 . S
C984 C983 1.374 . S
C985 C982 1.499 . S
C985 C986 1.373 . S
C985 C987 1.389 . S
C986 H959 0.950 . S
C986 C972 1.377 . S
C986 C985 1.373 . S
C987 C971 1.377 . S
C987 C985 1.389 . S
C987 C988 1.524 . S
C988 C987 1.524 . S
C988 C989 1.397 . S
C988 C993 1.363 . S
C989 H960 0.950 . S
C989 C988 1.397 . S
C989 C990 1.334 . S
C990 H961 0.950 . S
C990 C989 1.334 . S
C990 C991 1.287 . S
C991 C990 1.287 . S
C991 C992 1.524 . S
C991 H994 0.999 . S
C992 H962 0.950 . S
C992 C991 1.524 . S
C992 C993 1.415 . S
C993 H963 0.950 . S
C993 C988 1.363 . S
C993 C992 1.415 . S
H994 C991 0.999 . S
H995 C976 0.913 1_545 S
H996 C1014 0.951 . S
H997 C1016 0.951 . S
H998 C1018 0.950 . S
H999 C1019 0.950 . S
H1000 C1021 0.950 . S
H1001 C1024 0.950 1_554 S
H1002 C1025 0.950 1_554 S
H1003 C1027 0.950 . S
H1004 C1028 0.950 . S
H1005 C1029 0.951 . S
H1006 C1031 0.951 . S
H1007 C1033 0.950 . S
H1008 C1034 0.950 . S
H1009 C1036 0.950 . S
H1010 C1039 0.950 . S
H1011 C1040 0.950 . S
H1012 C1042 0.950 . S
H1013 C1043 0.950 . S
C1014 H996 0.951 . S
C1014 C1015 1.366 1_556 S
C1014 C1016 1.388 . S
C1015 C1014 1.366 1_554 S
C1015 C1019 1.385 . S
C1016 H997 0.951 . S
C1016 C1014 1.388 . S
C1016 C1017 1.366 . S
C1017 C1016 1.366 . S
C1017 C1018 1.414 1_556 S
C1017 C1020 1.499 . S
C1018 H998 0.950 . S
C1018 C1017 1.414 1_554 S
C1018 C1019 1.374 . S
C1019 H999 0.950 . S
C1019 C1015 1.385 . S
C1019 C1018 1.374 . S
C1020 C1017 1.499 . S
C1020 C1021 1.373 . S
C1020 C1022 1.389 . S
C1021 H1000 0.950 . S
C1021 C1020 1.373 . S
C1021 C1037 1.377 . S
C1022 C1020 1.389 . S
C1022 C1023 1.524 . S
C1022 C1036 1.377 . S
C1023 C1022 1.524 . S
C1023 C1024 1.397 . S
C1023 C1028 1.363 . S
C1024 H1001 0.950 1_556 S
C1024 C1023 1.397 . S
C1024 C1025 1.334 . S
C1025 H1002 0.950 1_556 S
C1025 C1024 1.334 . S
C1025 C1026 1.287 . S
C1026 C1025 1.287 . S
C1026 C1027 1.524 . S
C1026 H1045 0.913 . S
C1027 H1003 0.950 . S
C1027 C1026 1.524 . S
C1027 C1028 1.415 . S
C1028 H1004 0.950 . S
C1028 C1023 1.363 . S
C1028 C1027 1.415 . S
C1029 H1005 0.951 . S
C1029 C1030 1.366 . S
C1029 C1031 1.388 . S
C1030 C1029 1.366 . S
C1030 C1034 1.385 . S
C1031 H1006 0.951 . S
C1031 C1029 1.388 . S
C1031 C1032 1.366 . S
C1032 C1031 1.366 . S
C1032 C1033 1.414 . S
C1032 C1035 1.499 . S
C1033 H1007 0.950 . S
C1033 C1032 1.414 . S
C1033 C1034 1.374 . S
C1034 H1008 0.950 . S
C1034 C1030 1.385 . S
C1034 C1033 1.374 . S
C1035 C1032 1.499 . S
C1035 C1036 1.373 . S
C1035 C1037 1.389 . S
C1036 H1009 0.950 . S
C1036 C1022 1.377 . S
C1036 C1035 1.373 . S
C1037 C1021 1.377 . S
C1037 C1035 1.389 . S
C1037 C1038 1.524 . S
C1038 C1037 1.524 . S
C1038 C1039 1.397 . S
C1038 C1043 1.363 1_556 S
C1039 H1010 0.950 . S
C1039 C1038 1.397 . S
C1039 C1040 1.334 . S
C1040 H1011 0.950 . S
C1040 C1039 1.334 . S
C1040 C1041 1.287 . S
C1041 C1040 1.287 . S
C1041 C1042 1.524 1_556 S
C1041 H1044 0.999 . S
C1042 H1012 0.950 . S
C1042 C1041 1.524 1_554 S
C1042 C1043 1.415 . S
C1043 H1013 0.950 . S
C1043 C1038 1.363 1_554 S
C1043 C1042 1.415 . S
H1044 C1041 0.999 . S
H1045 C1026 0.913 . S
H1046 C1064 0.951 . S
H1047 C1066 0.951 . S
H1048 C1068 0.957 1_455 S
H1049 C1069 0.950 . S
H1050 C1071 0.950 . S
H1051 C1074 0.950 . S
H1052 C1075 0.978 . S
H1053 C1077 0.950 . S
H1054 C1078 0.950 . S
H1055 C1079 0.951 . S
H1056 C1081 0.951 . S
H1057 C1083 0.950 . S
H1058 C1084 0.950 . S
H1059 C1086 0.950 . S
H1060 C1089 0.950 . S
H1061 C1090 0.950 . S
H1062 C1092 0.950 . S
H1063 C1093 0.950 . S
C1064 H1046 0.951 . S
C1064 C1065 1.366 . S
C1064 C1066 1.388 1_655 S
C1065 C1064 1.366 . S
C1065 C1069 1.385 . S
C1066 H1047 0.951 . S
C1066 C1064 1.388 1_455 S
C1066 C1067 1.366 . S
C1067 C1066 1.366 . S
C1067 C1068 1.414 1_455 S
C1067 C1070 1.499 . S
C1068 H1048 0.957 1_655 S
C1068 C1067 1.414 1_655 S
C1068 C1069 1.374 . S
C1069 H1049 0.950 . S
C1069 C1065 1.385 . S
C1069 C1068 1.374 . S
C1070 C1067 1.499 . S
C1070 C1071 1.373 . S
C1070 C1072 1.389 . S
C1071 H1050 0.950 . S
C1071 C1070 1.373 . S
C1071 C1087 1.377 . S
C1072 C1070 1.389 . S
C1072 C1073 1.524 . S
C1072 C1086 1.377 . S
C1073 C1072 1.524 . S
C1073 C1074 1.397 . S
C1073 C1078 1.363 . S
C1074 H1051 0.950 . S
C1074 C1073 1.397 . S
C1074 C1075 1.334 . S
C1075 H1052 0.978 . S
C1075 C1074 1.334 . S
C1075 C1076 1.287 . S
C1076 C1075 1.287 . S
C1076 C1077 1.524 . S
C1076 H1095 0.913 . S
C1077 H1053 0.950 . S
C1077 C1076 1.524 . S
C1077 C1078 1.415 . S
C1078 H1054 0.950 . S
C1078 C1073 1.363 . S
C1078 C1077 1.415 . S
C1079 H1055 0.951 . S
C1079 C1080 1.366 . S
C1079 C1081 1.388 . S
C1080 C1079 1.366 . S
C1080 C1084 1.385 . S
C1081 H1056 0.951 . S
C1081 C1079 1.388 . S
C1081 C1082 1.366 . S
C1082 C1081 1.366 . S
C1082 C1083 1.414 . S
C1082 C1085 1.499 . S
C1083 H1057 0.950 . S
C1083 C1082 1.414 . S
C1083 C1084 1.374 . S
C1084 H1058 0.950 . S
C1084 C1080 1.385 . S
C1084 C1083 1.374 . S
C1085 C1082 1.499 . S
C1085 C1086 1.373 . S
C1085 C1087 1.389 . S
C1086 H1059 0.950 . S
C1086 C1072 1.377 . S
C1086 C1085 1.373 . S
C1087 C1071 1.377 . S
C1087 C1085 1.389 . S
C1087 C1088 1.524 . S
C1088 C1087 1.524 . S
C1088 C1089 1.397 . S
C1088 C1093 1.363 . S
C1089 H1060 0.950 . S
C1089 C1088 1.397 . S
C1089 C1090 1.334 . S
C1090 H1061 0.950 . S
C1090 C1089 1.334 . S
C1090 C1091 1.287 . S
C1091 C1090 1.287 . S
C1091 C1092 1.524 . S
C1091 H1094 0.999 . S
C1092 H1062 0.950 . S
C1092 C1091 1.524 . S
C1092 C1093 1.415 . S
C1093 H1063 0.950 . S
C1093 C1088 1.363 . S
C1093 C1092 1.415 . S
H1094 C1091 0.999 . S
H1095 C1076 0.913 . S
H1096 C1114 0.951 . S
H1097 C1116 0.951 . S
H1098 C1118 0.950 . S
H1099 C1119 0.950 . S
H1100 C1121 0.950 . S
H1101 C1124 0.950 . S
H1102 C1125 0.950 . S
H1103 C1127 0.950 . S
H1104 C1128 0.950 . S
H1105 C1129 0.951 . S
H1106 C1131 0.951 . S
H1107 C1133 0.950 . S
H1108 C1134 0.950 . S
H1109 C1136 0.950 . S
H1110 C1139 0.950 . S
H1111 C1140 0.950 . S
H1112 C1142 0.950 . S
H1113 C1143 0.950 . S
C1114 H1096 0.951 . S
C1114 C1115 1.366 . S
C1114 C1116 1.388 1_565 S
C1115 C1114 1.366 . S
C1115 C1119 1.385 . S
C1116 H1097 0.951 . S
C1116 C1114 1.388 1_545 S
C1116 C1117 1.366 . S
C1117 C1116 1.366 . S
C1117 C1118 1.414 . S
C1117 C1120 1.499 . S
C1118 H1098 0.950 . S
C1118 C1117 1.414 . S
C1118 C1119 1.374 1_545 S
C1119 H1099 0.950 . S
C1119 C1115 1.385 . S
C1119 C1118 1.374 1_565 S
C1120 C1117 1.499 . S
C1120 C1121 1.373 . S
C1120 C1122 1.389 . S
C1121 H1100 0.950 . S
C1121 C1120 1.373 . S
C1121 C1137 1.377 . S
C1122 C1120 1.389 . S
C1122 C1123 1.524 . S
C1122 C1136 1.377 . S
C1123 C1122 1.524 . S
C1123 C1124 1.397 . S
C1123 C1128 1.363 . S
C1124 H1101 0.950 . S
C1124 C1123 1.397 . S
C1124 C1125 1.334 1_545 S
C1125 H1102 0.950 . S
C1125 C1124 1.334 1_565 S
C1125 C1126 1.282 . S
C1126 C1125 1.282 . S
C1126 C1127 1.516 1_565 S
C1126 H1145 0.930 . S
C1127 H1103 0.950 . S
C1127 C1126 1.516 1_545 S
C1127 C1128 1.415 . S
C1128 H1104 0.950 . S
C1128 C1123 1.363 . S
C1128 C1127 1.415 . S
C1129 H1105 0.951 . S
C1129 C1130 1.366 . S
C1129 C1131 1.388 . S
C1130 C1129 1.366 . S
C1130 C1134 1.385 . S
C1131 H1106 0.951 . S
C1131 C1129 1.388 . S
C1131 C1132 1.366 . S
C1132 C1131 1.366 . S
C1132 C1133 1.414 . S
C1132 C1135 1.499 . S
C1133 H1107 0.950 . S
C1133 C1132 1.414 . S
C1133 C1134 1.374 . S
C1134 H1108 0.950 . S
C1134 C1130 1.385 . S
C1134 C1133 1.374 . S
C1135 C1132 1.499 . S
C1135 C1136 1.373 . S
C1135 C1137 1.389 . S
C1136 H1109 0.950 . S
C1136 C1122 1.377 . S
C1136 C1135 1.373 . S
C1137 C1121 1.377 . S
C1137 C1135 1.389 . S
C1137 C1138 1.524 . S
C1138 C1137 1.524 . S
C1138 C1139 1.397 . S
C1138 C1143 1.363 . S
C1139 H1110 0.950 . S
C1139 C1138 1.397 . S
C1139 C1140 1.334 . S
C1140 H1111 0.950 . S
C1140 C1139 1.334 . S
C1140 C1141 1.287 . S
C1141 C1140 1.287 . S
C1141 C1142 1.524 . S
C1141 H1144 0.999 . S
C1142 H1112 0.950 . S
C1142 C1141 1.524 . S
C1142 C1143 1.415 . S
C1143 H1113 0.950 . S
C1143 C1138 1.363 . S
C1143 C1142 1.415 . S
H1144 C1141 0.999 . S
H1145 C1126 0.930 . S
H1146 C1164 0.951 . S
H1147 C1166 0.951 . S
H1148 C1168 0.950 . S
H1149 C1169 0.950 . S
H1150 C1171 0.950 . S
H1151 C1174 0.950 . S
H1152 C1175 0.950 . S
H1153 C1177 0.950 . S
H1154 C1178 0.950 . S
H1155 C1179 0.951 . S
H1156 C1181 0.951 . S
H1157 C1183 0.950 . S
H1158 C1184 0.950 . S
H1159 C1186 0.950 . S
H1160 C1189 0.950 . S
H1161 C1190 0.950 . S
H1162 C1192 0.950 . S
H1163 C1193 0.950 . S
C1164 H1146 0.951 . S
C1164 C1165 1.366 . S
C1164 C1166 1.388 . S
C1165 C1164 1.366 . S
C1165 C1169 1.385 . S
C1166 H1147 0.951 . S
C1166 C1164 1.388 . S
C1166 C1167 1.366 . S
C1167 C1166 1.366 . S
C1167 C1168 1.414 . S
C1167 C1170 1.499 . S
C1168 H1148 0.950 . S
C1168 C1167 1.414 . S
C1168 C1169 1.374 . S
C1169 H1149 0.950 . S
C1169 C1165 1.385 . S
C1169 C1168 1.374 . S
C1170 C1167 1.499 . S
C1170 C1171 1.373 . S
C1170 C1172 1.389 . S
C1171 H1150 0.950 . S
C1171 C1170 1.373 . S
C1171 C1187 1.377 . S
C1172 C1170 1.389 . S
C1172 C1173 1.524 . S
C1172 C1186 1.377 . S
C1173 C1172 1.524 . S
C1173 C1174 1.397 . S
C1173 C1178 1.363 . S
C1174 H1151 0.950 . S
C1174 C1173 1.397 . S
C1174 C1175 1.334 . S
C1175 H1152 0.950 . S
C1175 C1174 1.334 . S
C1175 C1176 1.287 . S
C1176 C1175 1.287 . S
C1176 C1177 1.524 . S
C1176 H1195 0.913 . S
C1177 H1153 0.950 . S
C1177 C1176 1.524 . S
C1177 C1178 1.415 . S
C1178 H1154 0.950 . S
C1178 C1173 1.363 . S
C1178 C1177 1.415 . S
C1179 H1155 0.951 . S
C1179 C1180 1.366 . S
C1179 C1181 1.388 . S
C1180 C1179 1.366 . S
C1180 C1184 1.385 . S
C1181 H1156 0.951 . S
C1181 C1179 1.388 . S
C1181 C1182 1.366 . S
C1182 C1181 1.366 . S
C1182 C1183 1.414 . S
C1182 C1185 1.499 . S
C1183 H1157 0.950 . S
C1183 C1182 1.414 . S
C1183 C1184 1.374 . S
C1184 H1158 0.950 . S
C1184 C1180 1.385 . S
C1184 C1183 1.374 . S
C1185 C1182 1.499 . S
C1185 C1186 1.373 . S
C1185 C1187 1.389 . S
C1186 H1159 0.950 . S
C1186 C1172 1.377 . S
C1186 C1185 1.373 . S
C1187 C1171 1.377 . S
C1187 C1185 1.389 . S
C1187 C1188 1.524 . S
C1188 C1187 1.524 . S
C1188 C1189 1.397 . S
C1188 C1193 1.363 . S
C1189 H1160 0.950 . S
C1189 C1188 1.397 . S
C1189 C1190 1.334 . S
C1190 H1161 0.950 . S
C1190 C1189 1.334 . S
C1190 C1191 1.287 . S
C1191 C1190 1.287 . S
C1191 C1192 1.524 . S
C1191 H1194 0.999 . S
C1192 H1162 0.950 . S
C1192 C1191 1.524 . S
C1192 C1193 1.415 . S
C1193 H1163 0.950 . S
C1193 C1188 1.363 . S
C1193 C1192 1.415 . S
H1194 C1191 0.999 . S
H1195 C1176 0.913 . S
H1196 C1214 0.951 . S
H1197 C1216 0.951 . S
H1198 C1218 0.950 . S
H1199 C1219 0.950 . S
H1200 C1221 0.950 . S
H1201 C1224 0.950 . S
H1202 C1225 0.950 . S
H1203 C1227 0.950 . S
H1204 C1228 0.950 . S
H1205 C1229 0.951 . S
H1206 C1231 0.951 . S
H1207 C1233 0.950 . S
H1208 C1234 0.950 . S
H1209 C1236 0.950 . S
H1210 C1239 0.950 . S
H1211 C1240 0.950 . S
H1212 C1242 0.950 . S
H1213 C1243 0.950 . S
C1214 H1196 0.951 . S
C1214 C1215 1.366 . S
C1214 C1216 1.388 1_455 S
C1215 C1214 1.366 . S
C1215 C1219 1.385 . S
C1216 H1197 0.951 . S
C1216 C1214 1.388 1_655 S
C1216 C1217 1.366 . S
C1217 C1216 1.366 . S
C1217 C1218 1.414 1_655 S
C1217 C1220 1.499 . S
C1218 H1198 0.950 . S
C1218 C1217 1.414 1_455 S
C1218 C1219 1.374 . S
C1219 H1199 0.950 . S
C1219 C1215 1.385 . S
C1219 C1218 1.374 . S
C1220 C1217 1.499 . S
C1220 C1221 1.373 . S
C1220 C1222 1.389 . S
C1221 H1200 0.950 . S
C1221 C1220 1.373 . S
C1221 C1237 1.377 . S
C1222 C1220 1.389 . S
C1222 C1223 1.524 . S
C1222 C1236 1.377 . S
C1223 C1222 1.524 . S
C1223 C1224 1.397 . S
C1223 C1228 1.363 . S
C1224 H1201 0.950 . S
C1224 C1223 1.397 . S
C1224 C1225 1.334 . S
C1225 H1202 0.950 . S
C1225 C1224 1.334 . S
C1225 C1226 1.287 . S
C1226 C1225 1.287 . S
C1226 C1227 1.524 . S
C1226 H1245 0.913 . S
C1227 H1203 0.950 . S
C1227 C1226 1.524 . S
C1227 C1228 1.415 . S
C1228 H1204 0.950 . S
C1228 C1223 1.363 . S
C1228 C1227 1.415 . S
C1229 H1205 0.951 . S
C1229 C1230 1.366 . S
C1229 C1231 1.388 . S
C1230 C1229 1.366 . S
C1230 C1234 1.385 . S
C1231 H1206 0.951 . S
C1231 C1229 1.388 . S
C1231 C1232 1.366 . S
C1232 C1231 1.366 . S
C1232 C1233 1.414 . S
C1232 C1235 1.499 . S
C1233 H1207 0.950 . S
C1233 C1232 1.414 . S
C1233 C1234 1.374 . S
C1234 H1208 0.950 . S
C1234 C1230 1.385 . S
C1234 C1233 1.374 . S
C1235 C1232 1.499 . S
C1235 C1236 1.373 . S
C1235 C1237 1.389 . S
C1236 H1209 0.950 . S
C1236 C1222 1.377 . S
C1236 C1235 1.373 . S
C1237 C1221 1.377 . S
C1237 C1235 1.389 . S
C1237 C1238 1.524 . S
C1238 C1237 1.524 . S
C1238 C1239 1.397 . S
C1238 C1243 1.363 . S
C1239 H1210 0.950 . S
C1239 C1238 1.397 . S
C1239 C1240 1.334 . S
C1240 H1211 0.950 . S
C1240 C1239 1.334 . S
C1240 C1241 1.287 . S
C1241 C1240 1.287 . S
C1241 C1242 1.524 . S
C1241 H1244 0.999 . S
C1242 H1212 0.950 . S
C1242 C1241 1.524 . S
C1242 C1243 1.415 . S
C1243 H1213 0.950 . S
C1243 C1238 1.363 . S
C1243 C1242 1.415 . S
H1244 C1241 0.999 . S
H1245 C1226 0.913 . S
H1246 C1264 0.951 . S
H1247 C1266 0.972 . S
H1248 C1268 0.950 . S
H1249 C1269 0.950 . S
H1250 C1271 0.950 . S
H1251 C1274 0.950 . S
H1252 C1275 0.950 . S
H1253 C1277 0.950 . S
H1254 C1278 0.950 . S
H1255 C1279 0.951 . S
H1256 C1281 0.951 . S
H1257 C1283 0.950 . S
H1258 C1284 0.950 . S
H1259 C1286 0.950 . S
H1260 C1289 0.950 . S
H1261 C1290 0.950 . S
H1262 C1292 0.950 . S
H1263 C1293 0.950 . S
C1264 H1246 0.951 . S
C1264 C1265 1.366 . S
C1264 C1266 1.363 1_545 S
C1265 C1264 1.366 . S
C1265 C1269 1.385 . S
C1266 H1247 0.972 . S
C1266 C1264 1.363 1_565 S
C1266 C1267 1.371 . S
C1267 C1266 1.371 . S
C1267 C1268 1.414 . S
C1267 C1270 1.499 . S
C1268 H1248 0.950 . S
C1268 C1267 1.414 . S
C1268 C1269 1.374 1_565 S
C1269 H1249 0.950 . S
C1269 C1265 1.385 . S
C1269 C1268 1.374 1_545 S
C1270 C1267 1.499 . S
C1270 C1271 1.373 . S
C1270 C1272 1.389 . S
C1271 H1250 0.950 . S
C1271 C1270 1.373 . S
C1271 C1287 1.377 . S
C1272 C1270 1.389 . S
C1272 C1273 1.524 . S
C1272 C1286 1.377 . S
C1273 C1272 1.524 . S
C1273 C1274 1.397 . S
C1273 C1278 1.363 . S
C1274 H1251 0.950 . S
C1274 C1273 1.397 . S
C1274 C1275 1.334 . S
C1275 H1252 0.950 . S
C1275 C1274 1.334 . S
C1275 C1276 1.287 . S
C1276 C1275 1.287 . S
C1276 C1277 1.524 . S
C1276 H1295 0.913 . S
C1277 H1253 0.950 . S
C1277 C1276 1.524 . S
C1277 C1278 1.415 . S
C1278 H1254 0.950 . S
C1278 C1273 1.363 . S
C1278 C1277 1.415 . S
C1279 H1255 0.951 . S
C1279 C1280 1.366 . S
C1279 C1281 1.388 . S
C1280 C1279 1.366 . S
C1280 C1284 1.385 . S
C1281 H1256 0.951 . S
C1281 C1279 1.388 . S
C1281 C1282 1.366 . S
C1282 C1281 1.366 . S
C1282 C1283 1.414 . S
C1282 C1285 1.499 . S
C1283 H1257 0.950 . S
C1283 C1282 1.414 . S
C1283 C1284 1.374 . S
C1284 H1258 0.950 . S
C1284 C1280 1.385 . S
C1284 C1283 1.374 . S
C1285 C1282 1.499 . S
C1285 C1286 1.373 . S
C1285 C1287 1.389 . S
C1286 H1259 0.950 . S
C1286 C1272 1.377 . S
C1286 C1285 1.373 . S
C1287 C1271 1.377 . S
C1287 C1285 1.389 . S
C1287 C1288 1.524 . S
C1288 C1287 1.524 . S
C1288 C1289 1.397 . S
C1288 C1293 1.363 . S
C1289 H1260 0.950 . S
C1289 C1288 1.397 . S
C1289 C1290 1.334 . S
C1290 H1261 0.950 . S
C1290 C1289 1.334 . S
C1290 C1291 1.287 . S
C1291 C1290 1.287 . S
C1291 C1292 1.524 . S
C1291 H1294 0.999 . S
C1292 H1262 0.950 . S
C1292 C1291 1.524 . S
C1292 C1293 1.415 . S
C1293 H1263 0.950 . S
C1293 C1288 1.363 . S
C1293 C1292 1.415 . S
H1294 C1291 0.999 . S
H1295 C1276 0.913 . S
H1296 C1314 0.951 . S
H1297 C1316 0.951 . S
H1298 C1318 0.950 . S
H1299 C1319 0.950 . S
H1300 C1321 0.950 . S
H1301 C1324 0.950 . S
H1302 C1325 0.950 . S
H1303 C1327 0.950 . S
H1304 C1328 0.950 . S
H1305 C1329 0.951 . S
H1306 C1331 0.951 . S
H1307 C1333 0.950 . S
H1308 C1334 0.950 . S
H1309 C1336 0.950 . S
H1310 C1339 0.950 . S
H1311 C1340 0.950 . S
H1312 C1342 0.950 . S
H1313 C1343 0.950 . S
C1314 H1296 0.951 . S
C1314 C1315 1.366 . S
C1314 C1316 1.388 . S
C1315 C1314 1.366 . S
C1315 C1319 1.385 . S
C1316 H1297 0.951 . S
C1316 C1314 1.388 . S
C1316 C1317 1.366 . S
C1317 C1316 1.366 . S
C1317 C1318 1.414 . S
C1317 C1320 1.499 . S
C1318 H1298 0.950 . S
C1318 C1317 1.414 . S
C1318 C1319 1.374 . S
C1319 H1299 0.950 . S
C1319 C1315 1.385 . S
C1319 C1318 1.374 . S
C1320 C1317 1.499 . S
C1320 C1321 1.373 . S
C1320 C1322 1.389 . S
C1321 H1300 0.950 . S
C1321 C1320 1.373 . S
C1321 C1337 1.377 . S
C1322 C1320 1.389 . S
C1322 C1323 1.524 . S
C1322 C1336 1.377 . S
C1323 C1322 1.524 . S
C1323 C1324 1.397 . S
C1323 C1328 1.363 . S
C1324 H1301 0.950 . S
C1324 C1323 1.397 . S
C1324 C1325 1.334 . S
C1325 H1302 0.950 . S
C1325 C1324 1.334 . S
C1325 C1326 1.287 . S
C1326 C1325 1.287 . S
C1326 C1327 1.524 . S
C1326 H1345 0.913 . S
C1327 H1303 0.950 . S
C1327 C1326 1.524 . S
C1327 C1328 1.415 . S
C1328 H1304 0.950 . S
C1328 C1323 1.363 . S
C1328 C1327 1.415 . S
C1329 H1305 0.951 . S
C1329 C1330 1.366 . S
C1329 C1331 1.388 . S
C1330 C1329 1.366 . S
C1330 C1334 1.385 . S
C1331 H1306 0.951 . S
C1331 C1329 1.388 . S
C1331 C1332 1.366 . S
C1332 C1331 1.366 . S
C1332 C1333 1.414 . S
C1332 C1335 1.499 . S
C1333 H1307 0.950 . S
C1333 C1332 1.414 . S
C1333 C1334 1.374 . S
C1334 H1308 0.950 . S
C1334 C1330 1.385 . S
C1334 C1333 1.374 . S
C1335 C1332 1.499 . S
C1335 C1336 1.373 . S
C1335 C1337 1.389 . S
C1336 H1309 0.950 . S
C1336 C1322 1.377 . S
C1336 C1335 1.373 . S
C1337 C1321 1.377 . S
C1337 C1335 1.389 . S
C1337 C1338 1.524 . S
C1338 C1337 1.524 . S
C1338 C1339 1.397 . S
C1338 C1343 1.363 . S
C1339 H1310 0.950 . S
C1339 C1338 1.397 . S
C1339 C1340 1.334 . S
C1340 H1311 0.950 . S
C1340 C1339 1.334 . S
C1340 C1341 1.287 . S
C1341 C1340 1.287 . S
C1341 C1342 1.524 . S
C1341 H1344 0.999 . S
C1342 H1312 0.950 . S
C1342 C1341 1.524 . S
C1342 C1343 1.415 . S
C1343 H1313 0.950 . S
C1343 C1338 1.363 . S
C1343 C1342 1.415 . S
H1344 C1341 0.999 . S
H1345 C1326 0.913 . S
H1346 C1364 0.951 . S
H1347 C1366 0.951 . S
H1348 C1368 0.950 . S
H1349 C1369 0.950 . S
H1350 C1371 0.950 . S
H1351 C1374 0.950 . S
H1352 C1375 0.950 . S
H1353 C1377 0.950 . S
H1354 C1378 0.950 . S
H1355 C1379 0.951 . S
H1356 C1381 0.951 . S
H1357 C1383 0.950 . S
H1358 C1384 0.950 . S
H1359 C1386 0.950 . S
H1360 C1389 0.950 . S
H1361 C1390 0.950 . S
H1362 C1392 0.950 . S
H1363 C1393 0.950 . S
C1364 H1346 0.951 . S
C1364 C1365 1.366 . S
C1364 C1366 1.388 . S
C1365 C1364 1.366 . S
C1365 C1369 1.385 . S
C1366 H1347 0.951 . S
C1366 C1364 1.388 . S
C1366 C1367 1.366 . S
C1367 C1366 1.366 . S
C1367 C1368 1.414 . S
C1367 C1370 1.499 . S
C1368 H1348 0.950 . S
C1368 C1367 1.414 . S
C1368 C1369 1.374 . S
C1369 H1349 0.950 . S
C1369 C1365 1.385 . S
C1369 C1368 1.374 . S
C1370 C1367 1.499 . S
C1370 C1371 1.373 . S
C1370 C1372 1.389 1_655 S
C1371 H1350 0.950 . S
C1371 C1370 1.373 . S
C1371 C1387 1.377 . S
C1372 C1370 1.389 1_455 S
C1372 C1373 1.524 . S
C1372 C1386 1.377 . S
C1373 C1372 1.524 . S
C1373 C1374 1.397 . S
C1373 C1378 1.363 . S
C1374 H1351 0.950 . S
C1374 C1373 1.397 . S
C1374 C1375 1.334 . S
C1375 H1352 0.950 . S
C1375 C1374 1.334 . S
C1375 C1376 1.287 . S
C1376 C1375 1.287 . S
C1376 C1377 1.524 . S
C1376 H1395 0.913 . S
C1377 H1353 0.950 . S
C1377 C1376 1.524 . S
C1377 C1378 1.415 . S
C1378 H1354 0.950 . S
C1378 C1373 1.363 . S
C1378 C1377 1.415 . S
C1379 H1355 0.951 . S
C1379 C1380 1.366 . S
C1379 C1381 1.388 . S
C1380 C1379 1.366 . S
C1380 C1384 1.385 . S
C1381 H1356 0.951 . S
C1381 C1379 1.388 . S
C1381 C1382 1.366 . S
C1382 C1381 1.366 . S
C1382 C1383 1.414 . S
C1382 C1385 1.499 . S
C1383 H1357 0.950 . S
C1383 C1382 1.414 . S
C1383 C1384 1.374 . S
C1384 H1358 0.950 . S
C1384 C1380 1.385 . S
C1384 C1383 1.374 . S
C1385 C1382 1.499 . S
C1385 C1386 1.373 . S
C1385 C1387 1.389 1_455 S
C1386 H1359 0.950 . S
C1386 C1372 1.377 . S
C1386 C1385 1.373 . S
C1387 C1371 1.377 . S
C1387 C1385 1.389 1_655 S
C1387 C1388 1.524 . S
C1388 C1387 1.524 . S
C1388 C1389 1.397 . S
C1388 C1393 1.363 . S
C1389 H1360 0.950 . S
C1389 C1388 1.397 . S
C1389 C1390 1.334 . S
C1390 H1361 0.950 . S
C1390 C1389 1.334 . S
C1390 C1391 1.287 . S
C1391 C1390 1.287 . S
C1391 C1392 1.524 . S
C1391 H1394 0.999 . S
C1392 H1362 0.950 . S
C1392 C1391 1.524 . S
C1392 C1393 1.415 . S
C1393 H1363 0.950 . S
C1393 C1388 1.363 . S
C1393 C1392 1.415 . S
H1394 C1391 0.999 . S
H1395 C1376 0.913 . S
H1396 C1414 0.951 . S
H1397 C1416 0.951 . S
H1398 C1418 0.950 . S
H1399 C1419 0.950 . S
H1400 C1421 0.966 . S
H1401 C1424 0.950 . S
H1402 C1425 0.950 . S
H1403 C1427 0.950 . S
H1404 C1428 0.950 . S
H1405 C1429 0.951 . S
H1406 C1431 0.951 . S
H1407 C1433 0.950 . S
H1408 C1434 0.950 . S
H1409 C1436 0.966 . S
H1410 C1439 0.950 . S
H1411 C1440 0.950 . S
H1412 C1442 0.950 . S
H1413 C1443 0.950 . S
C1414 H1396 0.951 . S
C1414 C1415 1.366 . S
C1414 C1416 1.388 . S
C1415 C1414 1.366 . S
C1415 C1419 1.385 . S
C1416 H1397 0.951 . S
C1416 C1414 1.388 . S
C1416 C1417 1.366 . S
C1417 C1416 1.366 . S
C1417 C1418 1.414 . S
C1417 C1420 1.499 . S
C1418 H1398 0.950 . S
C1418 C1417 1.414 . S
C1418 C1419 1.374 . S
C1419 H1399 0.950 . S
C1419 C1415 1.385 . S
C1419 C1418 1.374 . S
C1420 C1417 1.499 . S
C1420 C1421 1.377 . S
C1420 C1422 1.389 . S
C1421 H1400 0.966 . S
C1421 C1420 1.377 . S
C1421 C1437 1.358 1_565 S
C1422 C1420 1.389 . S
C1422 C1423 1.524 . S
C1422 C1436 1.358 1_565 S
C1423 C1422 1.524 . S
C1423 C1424 1.397 . S
C1423 C1428 1.363 . S
C1424 H1401 0.950 . S
C1424 C1423 1.397 . S
C1424 C1425 1.334 . S
C1425 H1402 0.950 . S
C1425 C1424 1.334 . S
C1425 C1426 1.287 . S
C1426 C1425 1.287 . S
C1426 C1427 1.524 . S
C1426 H1445 0.913 . S
C1427 H1403 0.950 . S
C1427 C1426 1.524 . S
C1427 C1428 1.415 . S
C1428 H1404 0.950 . S
C1428 C1423 1.363 . S
C1428 C1427 1.415 . S
C1429 H1405 0.951 . S
C1429 C1430 1.366 . S
C1429 C1431 1.388 . S
C1430 C1429 1.366 . S
C1430 C1434 1.385 . S
C1431 H1406 0.951 . S
C1431 C1429 1.388 . S
C1431 C1432 1.366 . S
C1432 C1431 1.366 . S
C1432 C1433 1.414 . S
C1432 C1435 1.499 . S
C1433 H1407 0.950 . S
C1433 C1432 1.414 . S
C1433 C1434 1.374 . S
C1434 H1408 0.950 . S
C1434 C1430 1.385 . S
C1434 C1433 1.374 . S
C1435 C1432 1.499 . S
C1435 C1436 1.377 . S
C1435 C1437 1.389 . S
C1436 H1409 0.966 . S
C1436 C1422 1.358 1_545 S
C1436 C1435 1.377 . S
C1437 C1421 1.358 1_545 S
C1437 C1435 1.389 . S
C1437 C1438 1.524 . S
C1438 C1437 1.524 . S
C1438 C1439 1.397 . S
C1438 C1443 1.363 . S
C1439 H1410 0.950 . S
C1439 C1438 1.397 . S
C1439 C1440 1.334 . S
C1440 H1411 0.950 . S
C1440 C1439 1.334 . S
C1440 C1441 1.287 . S
C1441 C1440 1.287 . S
C1441 C1442 1.524 . S
C1441 H1444 0.999 . S
C1442 H1412 0.950 . S
C1442 C1441 1.524 . S
C1442 C1443 1.415 . S
C1443 H1413 0.950 . S
C1443 C1438 1.363 . S
C1443 C1442 1.415 . S
H1444 C1441 0.999 . S
H1445 C1426 0.913 . S
H1446 C1464 0.951 . S
H1447 C1466 0.951 . S
H1448 C1468 0.950 . S
H1449 C1469 0.950 . S
H1450 C1471 0.950 . S
H1451 C1474 0.950 . S
H1452 C1475 0.950 . S
H1453 C1477 0.950 . S
H1454 C1478 0.950 . S
H1455 C1479 0.951 . S
H1456 C1481 0.951 . S
H1457 C1483 0.950 . S
H1458 C1484 0.950 . S
H1459 C1486 0.950 . S
H1460 C1489 0.950 . S
H1461 C1490 0.950 . S
H1462 C1492 0.950 . S
H1463 C1493 0.950 . S
C1464 H1446 0.951 . S
C1464 C1465 1.366 . S
C1464 C1466 1.388 . S
C1465 C1464 1.366 . S
C1465 C1469 1.385 . S
C1466 H1447 0.951 . S
C1466 C1464 1.388 . S
C1466 C1467 1.366 . S
C1467 C1466 1.366 . S
C1467 C1468 1.414 . S
C1467 C1470 1.499 . S
C1468 H1448 0.950 . S
C1468 C1467 1.414 . S
C1468 C1469 1.374 . S
C1469 H1449 0.950 . S
C1469 C1465 1.385 . S
C1469 C1468 1.374 . S
C1470 C1467 1.499 . S
C1470 C1471 1.373 . S
C1470 C1472 1.389 . S
C1471 H1450 0.950 . S
C1471 C1470 1.373 . S
C1471 C1487 1.377 . S
C1472 C1470 1.389 . S
C1472 C1473 1.524 . S
C1472 C1486 1.377 . S
C1473 C1472 1.524 . S
C1473 C1474 1.397 . S
C1473 C1478 1.363 . S
C1474 H1451 0.950 . S
C1474 C1473 1.397 . S
C1474 C1475 1.334 . S
C1475 H1452 0.950 . S
C1475 C1474 1.334 . S
C1475 C1476 1.287 . S
C1476 C1475 1.287 . S
C1476 C1477 1.524 . S
C1476 H1495 0.913 . S
C1477 H1453 0.950 . S
C1477 C1476 1.524 . S
C1477 C1478 1.415 . S
C1478 H1454 0.950 . S
C1478 C1473 1.363 . S
C1478 C1477 1.415 . S
C1479 H1455 0.951 . S
C1479 C1480 1.366 . S
C1479 C1481 1.388 . S
C1480 C1479 1.366 . S
C1480 C1484 1.385 . S
C1481 H1456 0.951 . S
C1481 C1479 1.388 . S
C1481 C1482 1.366 . S
C1482 C1481 1.366 . S
C1482 C1483 1.414 . S
C1482 C1485 1.499 . S
C1483 H1457 0.950 . S
C1483 C1482 1.414 . S
C1483 C1484 1.374 . S
C1484 H1458 0.950 . S
C1484 C1480 1.385 . S
C1484 C1483 1.374 . S
C1485 C1482 1.499 . S
C1485 C1486 1.373 . S
C1485 C1487 1.389 . S
C1486 H1459 0.950 . S
C1486 C1472 1.377 . S
C1486 C1485 1.373 . S
C1487 C1471 1.377 . S
C1487 C1485 1.389 . S
C1487 C1488 1.524 . S
C1488 C1487 1.524 . S
C1488 C1489 1.397 . S
C1488 C1493 1.363 . S
C1489 H1460 0.950 . S
C1489 C1488 1.397 . S
C1489 C1490 1.334 . S
C1490 H1461 0.950 . S
C1490 C1489 1.334 . S
C1490 C1491 1.287 . S
C1491 C1490 1.287 . S
C1491 C1492 1.524 . S
C1491 H1494 0.999 . S
C1492 H1462 0.950 . S
C1492 C1491 1.524 . S
C1492 C1493 1.415 . S
C1493 H1463 0.950 . S
C1493 C1488 1.363 . S
C1493 C1492 1.415 . S
H1494 C1491 0.999 . S
H1495 C1476 0.913 . S
H1496 C1514 0.951 . S
H1497 C1516 0.951 . S
H1498 C1518 0.950 . S
H1499 C1519 0.950 . S
H1500 C1521 0.950 . S
H1501 C1524 0.950 . S
H1502 C1525 0.950 . S
H1503 C1527 0.950 . S
H1504 C1528 0.950 . S
H1505 C1529 0.951 . S
H1506 C1531 0.951 . S
H1507 C1533 0.950 . S
H1508 C1534 0.950 . S
H1509 C1536 0.950 . S
H1510 C1539 0.950 . S
H1511 C1540 0.950 . S
H1512 C1542 0.950 . S
H1513 C1543 0.950 . S
C1514 H1496 0.951 . S
C1514 C1515 1.366 . S
C1514 C1516 1.388 . S
C1515 C1514 1.366 . S
C1515 C1519 1.385 . S
C1516 H1497 0.951 . S
C1516 C1514 1.388 . S
C1516 C1517 1.366 . S
C1517 C1516 1.366 . S
C1517 C1518 1.414 . S
C1517 C1520 1.499 . S
C1518 H1498 0.950 . S
C1518 C1517 1.414 . S
C1518 C1519 1.374 . S
C1519 H1499 0.950 . S
C1519 C1515 1.385 . S
C1519 C1518 1.374 . S
C1520 C1517 1.499 . S
C1520 C1521 1.373 . S
C1520 C1522 1.389 . S
C1521 H1500 0.950 . S
C1521 C1520 1.373 . S
C1521 C1537 1.377 1_455 S
C1522 C1520 1.389 . S
C1522 C1523 1.524 . S
C1522 C1536 1.377 1_455 S
C1523 C1522 1.524 . S
C1523 C1524 1.397 1_455 S
C1523 C1528 1.363 . S
C1524 H1501 0.950 . S
C1524 C1523 1.397 1_655 S
C1524 C1525 1.334 . S
C1525 H1502 0.950 . S
C1525 C1524 1.334 . S
C1525 C1526 1.258 1_655 S
C1526 C1525 1.258 1_455 S
C1526 C1527 1.541 . S
C1526 H1545 0.935 . S
C1527 H1503 0.950 . S
C1527 C1526 1.541 . S
C1527 C1528 1.415 . S
C1528 H1504 0.950 . S
C1528 C1523 1.363 . S
C1528 C1527 1.415 . S
C1529 H1505 0.951 . S
C1529 C1530 1.366 . S
C1529 C1531 1.388 . S
C1530 C1529 1.366 . S
C1530 C1534 1.385 . S
C1531 H1506 0.951 . S
C1531 C1529 1.388 . S
C1531 C1532 1.366 . S
C1532 C1531 1.366 . S
C1532 C1533 1.414 . S
C1532 C1535 1.499 . S
C1533 H1507 0.950 . S
C1533 C1532 1.414 . S
C1533 C1534 1.374 . S
C1534 H1508 0.950 . S
C1534 C1530 1.385 . S
C1534 C1533 1.374 . S
C1535 C1532 1.499 . S
C1535 C1536 1.373 . S
C1535 C1537 1.389 . S
C1536 H1509 0.950 . S
C1536 C1522 1.377 1_655 S
C1536 C1535 1.373 . S
C1537 C1521 1.377 1_655 S
C1537 C1535 1.389 . S
C1537 C1538 1.524 . S
C1538 C1537 1.524 . S
C1538 C1539 1.397 1_655 S
C1538 C1543 1.363 . S
C1539 H1510 0.950 . S
C1539 C1538 1.397 1_455 S
C1539 C1540 1.334 . S
C1540 H1511 0.950 . S
C1540 C1539 1.334 . S
C1540 C1541 1.299 . S
C1541 C1540 1.299 . S
C1541 C1542 1.517 1_455 S
C1541 H1544 0.997 . S
C1542 H1512 0.950 . S
C1542 C1541 1.517 1_655 S
C1542 C1543 1.415 . S
C1543 H1513 0.950 . S
C1543 C1538 1.363 . S
C1543 C1542 1.415 . S
H1544 C1541 0.997 . S
H1545 C1526 0.935 . S
H1546 C1564 0.951 . S
H1547 C1566 0.951 . S
H1548 C1568 0.950 . S
H1549 C1569 0.950 . S
H1550 C1571 0.950 . S
H1551 C1574 0.950 . S
H1552 C1575 0.950 1_554 S
H1553 C1577 0.950 . S
H1554 C1578 0.950 . S
H1555 C1579 0.951 . S
H1556 C1581 0.951 . S
H1557 C1583 0.950 . S
H1558 C1584 0.950 . S
H1559 C1586 0.950 . S
H1560 C1589 0.950 . S
H1561 C1590 0.950 1_556 S
H1562 C1592 0.950 . S
H1563 C1593 0.950 . S
C1564 H1546 0.951 . S
C1564 C1565 1.366 . S
C1564 C1566 1.388 . S
C1565 C1564 1.366 . S
C1565 C1569 1.385 . S
C1566 H1547 0.951 . S
C1566 C1564 1.388 . S
C1566 C1567 1.366 . S
C1567 C1566 1.366 . S
C1567 C1568 1.414 . S
C1567 C1570 1.499 . S
C1568 H1548 0.950 . S
C1568 C1567 1.414 . S
C1568 C1569 1.374 . S
C1569 H1549 0.950 . S
C1569 C1565 1.385 . S
C1569 C1568 1.374 . S
C1570 C1567 1.499 . S
C1570 C1571 1.373 1_565 S
C1570 C1572 1.389 1_554 S
C1571 H1550 0.950 . S
C1571 C1570 1.373 1_545 S
C1571 C1587 1.377 . S
C1572 C1570 1.389 1_556 S
C1572 C1573 1.524 . S
C1572 C1586 1.377 . S
C1573 C1572 1.524 . S
C1573 C1574 1.397 1_556 S
C1573 C1578 1.363 . S
C1574 H1551 0.950 . S
C1574 C1573 1.397 1_554 S
C1574 C1575 1.334 1_554 S
C1575 H1552 0.950 1_556 S
C1575 C1574 1.334 1_556 S
C1575 C1576 1.287 . S
C1576 C1575 1.287 . S
C1576 C1577 1.524 . S
C1576 H1595 0.913 . S
C1577 H1553 0.950 . S
C1577 C1576 1.524 . S
C1577 C1578 1.415 . S
C1578 H1554 0.950 . S
C1578 C1573 1.363 . S
C1578 C1577 1.415 . S
C1579 H1555 0.951 . S
C1579 C1580 1.366 . S
C1579 C1581 1.388 . S
C1580 C1579 1.366 . S
C1580 C1584 1.385 . S
C1581 H1556 0.951 . S
C1581 C1579 1.388 . S
C1581 C1582 1.366 . S
C1582 C1581 1.366 . S
C1582 C1583 1.414 . S
C1582 C1585 1.499 . S
C1583 H1557 0.950 . S
C1583 C1582 1.414 . S
C1583 C1584 1.374 . S
C1584 H1558 0.950 . S
C1584 C1580 1.385 . S
C1584 C1583 1.374 . S
C1585 C1582 1.499 . S
C1585 C1586 1.373 1_545 S
C1585 C1587 1.389 1_556 S
C1586 H1559 0.950 . S
C1586 C1572 1.377 . S
C1586 C1585 1.373 1_565 S
C1587 C1571 1.377 . S
C1587 C1585 1.389 1_554 S
C1587 C1588 1.524 . S
C1588 C1587 1.524 . S
C1588 C1589 1.397 1_554 S
C1588 C1593 1.363 . S
C1589 H1560 0.950 . S
C1589 C1588 1.397 1_556 S
C1589 C1590 1.334 1_556 S
C1590 H1561 0.950 1_554 S
C1590 C1589 1.334 1_554 S
C1590 C1591 1.287 . S
C1591 C1590 1.287 . S
C1591 C1592 1.524 . S
C1591 H1594 0.999 . S
C1592 H1562 0.950 . S
C1592 C1591 1.524 . S
C1592 C1593 1.415 . S
C1593 H1563 0.950 . S
C1593 C1588 1.363 . S
C1593 C1592 1.415 . S
H1594 C1591 0.999 . S
H1595 C1576 0.913 . S
H1596 C1614 0.951 . S
H1597 C1616 0.951 . S
H1598 C1618 0.950 . S
H1599 C1619 0.950 . S
H1600 C1621 0.950 . S
H1601 C1624 0.950 . S
H1602 C1625 0.950 . S
H1603 C1627 0.950 . S
H1604 C1628 0.950 . S
H1605 C1629 0.951 . S
H1606 C1631 0.951 . S
H1607 C1633 0.950 . S
H1608 C1634 0.950 . S
H1609 C1636 0.950 . S
H1610 C1639 0.950 . S
H1611 C1640 0.950 . S
H1612 C1642 0.950 . S
H1613 C1643 0.950 . S
C1614 H1596 0.951 . S
C1614 C1615 1.366 . S
C1614 C1616 1.388 . S
C1615 C1614 1.366 . S
C1615 C1619 1.385 . S
C1616 H1597 0.951 . S
C1616 C1614 1.388 . S
C1616 C1617 1.366 . S
C1617 C1616 1.366 . S
C1617 C1618 1.414 . S
C1617 C1620 1.499 . S
C1618 H1598 0.950 . S
C1618 C1617 1.414 . S
C1618 C1619 1.374 . S
C1619 H1599 0.950 . S
C1619 C1615 1.385 . S
C1619 C1618 1.374 . S
C1620 C1617 1.499 . S
C1620 C1621 1.373 . S
C1620 C1622 1.389 . S
C1621 H1600 0.950 . S
C1621 C1620 1.373 . S
C1621 C1637 1.377 . S
C1622 C1620 1.389 . S
C1622 C1623 1.524 . S
C1622 C1636 1.377 . S
C1623 C1622 1.524 . S
C1623 C1624 1.397 . S
C1623 C1628 1.363 . S
C1624 H1601 0.950 . S
C1624 C1623 1.397 . S
C1624 C1625 1.334 . S
C1625 H1602 0.950 . S
C1625 C1624 1.334 . S
C1625 C1626 1.287 . S
C1626 C1625 1.287 . S
C1626 C1627 1.524 . S
C1626 H1645 0.913 . S
C1627 H1603 0.950 . S
C1627 C1626 1.524 . S
C1627 C1628 1.415 . S
C1628 H1604 0.950 . S
C1628 C1623 1.363 . S
C1628 C1627 1.415 . S
C1629 H1605 0.951 . S
C1629 C1630 1.366 . S
C1629 C1631 1.388 . S
C1630 C1629 1.366 . S
C1630 C1634 1.385 . S
C1631 H1606 0.951 . S
C1631 C1629 1.388 . S
C1631 C1632 1.366 . S
C1632 C1631 1.366 . S
C1632 C1633 1.414 . S
C1632 C1635 1.499 . S
C1633 H1607 0.950 . S
C1633 C1632 1.414 . S
C1633 C1634 1.374 . S
C1634 H1608 0.950 . S
C1634 C1630 1.385 . S
C1634 C1633 1.374 . S
C1635 C1632 1.499 . S
C1635 C1636 1.373 . S
C1635 C1637 1.389 . S
C1636 H1609 0.950 . S
C1636 C1622 1.377 . S
C1636 C1635 1.373 . S
C1637 C1621 1.377 . S
C1637 C1635 1.389 . S
C1637 C1638 1.524 . S
C1638 C1637 1.524 . S
C1638 C1639 1.397 . S
C1638 C1643 1.363 . S
C1639 H1610 0.950 . S
C1639 C1638 1.397 . S
C1639 C1640 1.334 . S
C1640 H1611 0.950 . S
C1640 C1639 1.334 . S
C1640 C1641 1.287 . S
C1641 C1640 1.287 . S
C1641 C1642 1.524 . S
C1641 H1644 0.999 . S
C1642 H1612 0.950 . S
C1642 C1641 1.524 . S
C1642 C1643 1.415 . S
C1643 H1613 0.950 . S
C1643 C1638 1.363 . S
C1643 C1642 1.415 . S
H1644 C1641 0.999 . S
H1645 C1626 0.913 . S
H1646 C1664 0.951 . S
H1647 C1666 0.951 . S
H1648 C1668 0.950 . S
H1649 C1669 0.950 . S
H1650 C1671 0.950 . S
H1651 C1674 0.950 . S
H1652 C1675 0.950 . S
H1653 C1677 0.950 . S
H1654 C1678 0.950 . S
H1655 C1679 0.951 . S
H1656 C1681 0.951 . S
H1657 C1683 0.950 . S
H1658 C1684 0.950 . S
H1659 C1686 0.950 . S
H1660 C1689 0.950 . S
H1661 C1690 0.950 . S
H1662 C1692 0.950 . S
H1663 C1693 0.950 . S
C1664 H1646 0.951 . S
C1664 C1665 1.366 . S
C1664 C1666 1.388 . S
C1665 C1664 1.366 . S
C1665 C1669 1.385 . S
C1666 H1647 0.951 . S
C1666 C1664 1.388 . S
C1666 C1667 1.366 . S
C1667 C1666 1.366 . S
C1667 C1668 1.414 . S
C1667 C1670 1.499 . S
C1668 H1648 0.950 . S
C1668 C1667 1.414 . S
C1668 C1669 1.374 . S
C1669 H1649 0.950 . S
C1669 C1665 1.385 . S
C1669 C1668 1.374 . S
C1670 C1667 1.499 . S
C1670 C1671 1.373 . S
C1670 C1672 1.389 . S
C1671 H1650 0.950 . S
C1671 C1670 1.373 . S
C1671 C1687 1.377 . S
C1672 C1670 1.389 . S
C1672 C1673 1.524 . S
C1672 C1686 1.377 . S
C1673 C1672 1.524 . S
C1673 C1674 1.397 . S
C1673 C1678 1.363 . S
C1674 H1651 0.950 . S
C1674 C1673 1.397 . S
C1674 C1675 1.334 1_554 S
C1675 H1652 0.950 . S
C1675 C1674 1.334 1_556 S
C1675 C1676 1.287 . S
C1676 C1675 1.287 . S
C1676 C1677 1.524 . S
C1676 H1695 0.913 . S
C1677 H1653 0.950 . S
C1677 C1676 1.524 . S
C1677 C1678 1.415 1_556 S
C1678 H1654 0.950 . S
C1678 C1673 1.363 . S
C1678 C1677 1.415 1_554 S
C1679 H1655 0.951 . S
C1679 C1680 1.366 . S
C1679 C1681 1.388 . S
C1680 C1679 1.366 . S
C1680 C1684 1.385 . S
C1681 H1656 0.951 . S
C1681 C1679 1.388 . S
C1681 C1682 1.366 . S
C1682 C1681 1.366 . S
C1682 C1683 1.414 . S
C1682 C1685 1.499 . S
C1683 H1657 0.950 . S
C1683 C1682 1.414 . S
C1683 C1684 1.374 . S
C1684 H1658 0.950 . S
C1684 C1680 1.385 . S
C1684 C1683 1.374 . S
C1685 C1682 1.499 . S
C1685 C1686 1.373 . S
C1685 C1687 1.389 . S
C1686 H1659 0.950 . S
C1686 C1672 1.377 . S
C1686 C1685 1.373 . S
C1687 C1671 1.377 . S
C1687 C1685 1.389 . S
C1687 C1688 1.524 . S
C1688 C1687 1.524 . S
C1688 C1689 1.397 . S
C1688 C1693 1.363 . S
C1689 H1660 0.950 . S
C1689 C1688 1.397 . S
C1689 C1690 1.334 . S
C1690 H1661 0.950 . S
C1690 C1689 1.334 . S
C1690 C1691 1.287 . S
C1691 C1690 1.287 . S
C1691 C1692 1.524 . S
C1691 H1694 0.999 . S
C1692 H1662 0.950 . S
C1692 C1691 1.524 . S
C1692 C1693 1.415 . S
C1693 H1663 0.950 . S
C1693 C1688 1.363 . S
C1693 C1692 1.415 . S
H1694 C1691 0.999 . S
H1695 C1676 0.913 . S
H1696 C1714 0.951 . S
H1697 C1716 0.951 . S
H1698 C1718 0.950 . S
H1699 C1719 0.950 . S
H1700 C1721 0.950 . S
H1701 C1724 0.950 . S
H1702 C1725 0.950 . S
H1703 C1727 0.950 . S
H1704 C1728 0.950 . S
H1705 C1729 0.951 . S
H1706 C1731 0.951 . S
H1707 C1733 0.950 . S
H1708 C1734 0.950 . S
H1709 C1736 0.950 . S
H1710 C1739 0.950 . S
H1711 C1740 0.950 . S
H1712 C1742 0.950 . S
H1713 C1743 0.950 . S
C1714 H1696 0.951 . S
C1714 C1715 1.366 . S
C1714 C1716 1.388 . S
C1715 C1714 1.366 . S
C1715 C1719 1.385 . S
C1716 H1697 0.951 . S
C1716 C1714 1.388 . S
C1716 C1717 1.366 . S
C1717 C1716 1.366 . S
C1717 C1718 1.414 . S
C1717 C1720 1.499 . S
C1718 H1698 0.950 . S
C1718 C1717 1.414 . S
C1718 C1719 1.374 . S
C1719 H1699 0.950 . S
C1719 C1715 1.385 . S
C1719 C1718 1.374 . S
C1720 C1717 1.499 . S
C1720 C1721 1.373 . S
C1720 C1722 1.389 . S
C1721 H1700 0.950 . S
C1721 C1720 1.373 . S
C1721 C1737 1.377 . S
C1722 C1720 1.389 . S
C1722 C1723 1.524 . S
C1722 C1736 1.377 . S
C1723 C1722 1.524 . S
C1723 C1724 1.397 . S
C1723 C1728 1.363 . S
C1724 H1701 0.950 . S
C1724 C1723 1.397 . S
C1724 C1725 1.334 . S
C1725 H1702 0.950 . S
C1725 C1724 1.334 . S
C1725 C1726 1.287 . S
C1726 C1725 1.287 . S
C1726 C1727 1.524 . S
C1726 H1745 0.913 . S
C1727 H1703 0.950 . S
C1727 C1726 1.524 . S
C1727 C1728 1.415 . S
C1728 H1704 0.950 . S
C1728 C1723 1.363 . S
C1728 C1727 1.415 . S
C1729 H1705 0.951 . S
C1729 C1730 1.366 . S
C1729 C1731 1.388 . S
C1730 C1729 1.366 . S
C1730 C1734 1.385 . S
C1731 H1706 0.951 . S
C1731 C1729 1.388 . S
C1731 C1732 1.366 . S
C1732 C1731 1.366 . S
C1732 C1733 1.414 . S
C1732 C1735 1.499 . S
C1733 H1707 0.950 . S
C1733 C1732 1.414 . S
C1733 C1734 1.374 . S
C1734 H1708 0.950 . S
C1734 C1730 1.385 . S
C1734 C1733 1.374 . S
C1735 C1732 1.499 . S
C1735 C1736 1.373 . S
C1735 C1737 1.389 . S
C1736 H1709 0.950 . S
C1736 C1722 1.377 . S
C1736 C1735 1.373 . S
C1737 C1721 1.377 . S
C1737 C1735 1.389 . S
C1737 C1738 1.524 . S
C1738 C1737 1.524 . S
C1738 C1739 1.397 . S
C1738 C1743 1.363 . S
C1739 H1710 0.950 . S
C1739 C1738 1.397 . S
C1739 C1740 1.334 . S
C1740 H1711 0.950 . S
C1740 C1739 1.334 . S
C1740 C1741 1.287 . S
C1741 C1740 1.287 . S
C1741 C1742 1.524 . S
C1741 H1744 0.999 . S
C1742 H1712 0.950 . S
C1742 C1741 1.524 . S
C1742 C1743 1.415 . S
C1743 H1713 0.950 . S
C1743 C1738 1.363 . S
C1743 C1742 1.415 . S
H1744 C1741 0.999 . S
H1745 C1726 0.913 . S
H1746 C1764 0.951 . S
H1747 C1766 0.951 . S
H1748 C1768 0.950 . S
H1749 C1769 0.950 . S
H1750 C1771 0.950 . S
H1751 C1774 0.950 . S
H1752 C1775 0.950 . S
H1753 C1777 0.950 . S
H1754 C1778 0.950 . S
H1755 C1779 0.951 . S
H1756 C1781 0.951 . S
H1757 C1783 0.950 . S
H1758 C1784 0.950 . S
H1759 C1786 0.950 . S
H1760 C1789 0.950 . S
H1761 C1790 0.950 . S
H1762 C1792 0.950 . S
H1763 C1793 0.950 . S
C1764 H1746 0.951 . S
C1764 C1765 1.366 . S
C1764 C1766 1.388 . S
C1765 C1764 1.366 . S
C1765 C1769 1.385 . S
C1766 H1747 0.951 . S
C1766 C1764 1.388 . S
C1766 C1767 1.366 . S
C1767 C1766 1.366 . S
C1767 C1768 1.414 . S
C1767 C1770 1.499 . S
C1768 H1748 0.950 . S
C1768 C1767 1.414 . S
C1768 C1769 1.374 . S
C1769 H1749 0.950 . S
C1769 C1765 1.385 . S
C1769 C1768 1.374 . S
C1770 C1767 1.499 . S
C1770 C1771 1.373 . S
C1770 C1772 1.389 . S
C1771 H1750 0.950 . S
C1771 C1770 1.373 . S
C1771 C1787 1.377 . S
C1772 C1770 1.389 . S
C1772 C1773 1.524 . S
C1772 C1786 1.377 . S
C1773 C1772 1.524 . S
C1773 C1774 1.397 . S
C1773 C1778 1.363 . S
C1774 H1751 0.950 . S
C1774 C1773 1.397 . S
C1774 C1775 1.334 . S
C1775 H1752 0.950 . S
C1775 C1774 1.334 . S
C1775 C1776 1.287 . S
C1776 C1775 1.287 . S
C1776 C1777 1.524 . S
C1776 H1795 0.913 . S
C1777 H1753 0.950 . S
C1777 C1776 1.524 . S
C1777 C1778 1.415 . S
C1778 H1754 0.950 . S
C1778 C1773 1.363 . S
C1778 C1777 1.415 . S
C1779 H1755 0.951 . S
C1779 C1780 1.366 . S
C1779 C1781 1.388 . S
C1780 C1779 1.366 . S
C1780 C1784 1.385 . S
C1781 H1756 0.951 . S
C1781 C1779 1.388 . S
C1781 C1782 1.366 . S
C1782 C1781 1.366 . S
C1782 C1783 1.414 . S
C1782 C1785 1.499 . S
C1783 H1757 0.950 . S
C1783 C1782 1.414 . S
C1783 C1784 1.374 . S
C1784 H1758 0.950 . S
C1784 C1780 1.385 . S
C1784 C1783 1.374 . S
C1785 C1782 1.499 . S
C1785 C1786 1.373 . S
C1785 C1787 1.389 . S
C1786 H1759 0.950 . S
C1786 C1772 1.377 . S
C1786 C1785 1.373 . S
C1787 C1771 1.377 . S
C1787 C1785 1.389 . S
C1787 C1788 1.524 . S
C1788 C1787 1.524 . S
C1788 C1789 1.397 . S
C1788 C1793 1.363 . S
C1789 H1760 0.950 . S
C1789 C1788 1.397 . S
C1789 C1790 1.334 . S
C1790 H1761 0.950 . S
C1790 C1789 1.334 . S
C1790 C1791 1.287 . S
C1791 C1790 1.287 . S
C1791 C1792 1.524 . S
C1791 H1794 0.999 . S
C1792 H1762 0.950 . S
C1792 C1791 1.524 . S
C1792 C1793 1.415 . S
C1793 H1763 0.950 . S
C1793 C1788 1.363 . S
C1793 C1792 1.415 . S
H1794 C1791 0.999 . S
H1795 C1776 0.913 . S
H1796 C1814 0.951 . S
H1797 C1816 0.951 . S
H1798 C1818 0.950 . S
H1799 C1819 0.950 . S
H1800 C1821 0.950 . S
H1801 C1824 0.950 . S
H1802 C1825 0.950 . S
H1803 C1827 0.950 . S
H1804 C1828 0.950 . S
H1805 C1829 0.951 . S
H1806 C1831 0.951 . S
H1807 C1833 0.950 . S
H1808 C1834 0.950 . S
H1809 C1836 0.950 . S
H1810 C1839 0.950 . S
H1811 C1840 0.950 . S
H1812 C1842 0.950 . S
H1813 C1843 0.950 . S
C1814 H1796 0.951 . S
C1814 C1815 1.366 . S
C1814 C1816 1.388 . S
C1815 C1814 1.366 . S
C1815 C1819 1.385 . S
C1816 H1797 0.951 . S
C1816 C1814 1.388 . S
C1816 C1817 1.366 . S
C1817 C1816 1.366 . S
C1817 C1818 1.414 . S
C1817 C1820 1.499 . S
C1818 H1798 0.950 . S
C1818 C1817 1.414 . S
C1818 C1819 1.374 . S
C1819 H1799 0.950 . S
C1819 C1815 1.385 . S
C1819 C1818 1.374 . S
C1820 C1817 1.499 . S
C1820 C1821 1.373 . S
C1820 C1822 1.389 . S
C1821 H1800 0.950 . S
C1821 C1820 1.373 . S
C1821 C1837 1.377 . S
C1822 C1820 1.389 . S
C1822 C1823 1.524 . S
C1822 C1836 1.377 . S
C1823 C1822 1.524 . S
C1823 C1824 1.397 . S
C1823 C1828 1.363 . S
C1824 H1801 0.950 . S
C1824 C1823 1.397 . S
C1824 C1825 1.334 . S
C1825 H1802 0.950 . S
C1825 C1824 1.334 . S
C1825 C1826 1.287 . S
C1826 C1825 1.287 . S
C1826 C1827 1.524 . S
C1826 H1845 0.913 . S
C1827 H1803 0.950 . S
C1827 C1826 1.524 . S
C1827 C1828 1.415 . S
C1828 H1804 0.950 . S
C1828 C1823 1.363 . S
C1828 C1827 1.415 . S
C1829 H1805 0.951 . S
C1829 C1830 1.366 . S
C1829 C1831 1.388 . S
C1830 C1829 1.366 . S
C1830 C1834 1.385 . S
C1831 H1806 0.951 . S
C1831 C1829 1.388 . S
C1831 C1832 1.366 . S
C1832 C1831 1.366 . S
C1832 C1833 1.414 . S
C1832 C1835 1.499 . S
C1833 H1807 0.950 . S
C1833 C1832 1.414 . S
C1833 C1834 1.374 . S
C1834 H1808 0.950 . S
C1834 C1830 1.385 . S
C1834 C1833 1.374 . S
C1835 C1832 1.499 . S
C1835 C1836 1.373 . S
C1835 C1837 1.389 . S
C1836 H1809 0.950 . S
C1836 C1822 1.377 . S
C1836 C1835 1.373 . S
C1837 C1821 1.377 . S
C1837 C1835 1.389 . S
C1837 C1838 1.524 . S
C1838 C1837 1.524 . S
C1838 C1839 1.397 . S
C1838 C1843 1.363 . S
C1839 H1810 0.950 . S
C1839 C1838 1.397 . S
C1839 C1840 1.334 . S
C1840 H1811 0.950 . S
C1840 C1839 1.334 . S
C1840 C1841 1.287 . S
C1841 C1840 1.287 . S
C1841 C1842 1.524 . S
C1841 H1844 0.999 . S
C1842 H1812 0.950 . S
C1842 C1841 1.524 . S
C1842 C1843 1.415 . S
C1843 H1813 0.950 . S
C1843 C1838 1.363 . S
C1843 C1842 1.415 . S
H1844 C1841 0.999 . S
H1845 C1826 0.913 . S
H1846 C1864 0.951 . S
H1847 C1866 0.951 . S
H1848 C1868 0.950 . S
H1849 C1869 0.950 . S
H1850 C1871 0.950 . S
H1851 C1874 0.950 . S
H1852 C1875 0.950 . S
H1853 C1877 0.950 . S
H1854 C1878 0.950 . S
H1855 C1879 0.951 . S
H1856 C1881 0.951 . S
H1857 C1883 0.950 . S
H1858 C1884 0.950 . S
H1859 C1886 0.950 . S
H1860 C1889 0.950 . S
H1861 C1890 0.950 . S
H1862 C1892 0.950 . S
H1863 C1893 0.950 . S
C1864 H1846 0.951 . S
C1864 C1865 1.366 . S
C1864 C1866 1.388 . S
C1865 C1864 1.366 . S
C1865 C1869 1.385 . S
C1866 H1847 0.951 . S
C1866 C1864 1.388 . S
C1866 C1867 1.366 . S
C1867 C1866 1.366 . S
C1867 C1868 1.414 . S
C1867 C1870 1.499 . S
C1868 H1848 0.950 . S
C1868 C1867 1.414 . S
C1868 C1869 1.374 . S
C1869 H1849 0.950 . S
C1869 C1865 1.385 . S
C1869 C1868 1.374 . S
C1870 C1867 1.499 . S
C1870 C1871 1.373 . S
C1870 C1872 1.389 . S
C1871 H1850 0.950 . S
C1871 C1870 1.373 . S
C1871 C1887 1.377 . S
C1872 C1870 1.389 . S
C1872 C1873 1.524 . S
C1872 C1886 1.377 . S
C1873 C1872 1.524 . S
C1873 C1874 1.397 . S
C1873 C1878 1.363 . S
C1874 H1851 0.950 . S
C1874 C1873 1.397 . S
C1874 C1875 1.334 . S
C1875 H1852 0.950 . S
C1875 C1874 1.334 . S
C1875 C1876 1.287 . S
C1876 C1875 1.287 . S
C1876 C1877 1.524 . S
C1876 H1895 0.913 . S
C1877 H1853 0.950 . S
C1877 C1876 1.524 . S
C1877 C1878 1.415 . S
C1878 H1854 0.950 . S
C1878 C1873 1.363 . S
C1878 C1877 1.415 . S
C1879 H1855 0.951 . S
C1879 C1880 1.366 . S
C1879 C1881 1.388 . S
C1880 C1879 1.366 . S
C1880 C1884 1.385 . S
C1881 H1856 0.951 . S
C1881 C1879 1.388 . S
C1881 C1882 1.366 . S
C1882 C1881 1.366 . S
C1882 C1883 1.414 . S
C1882 C1885 1.499 . S
C1883 H1857 0.950 . S
C1883 C1882 1.414 . S
C1883 C1884 1.374 . S
C1884 H1858 0.950 . S
C1884 C1880 1.385 . S
C1884 C1883 1.374 . S
C1885 C1882 1.499 . S
C1885 C1886 1.373 . S
C1885 C1887 1.389 . S
C1886 H1859 0.950 . S
C1886 C1872 1.377 . S
C1886 C1885 1.373 . S
C1887 C1871 1.377 . S
C1887 C1885 1.389 . S
C1887 C1888 1.524 . S
C1888 C1887 1.524 . S
C1888 C1889 1.397 . S
C1888 C1893 1.363 . S
C1889 H1860 0.950 . S
C1889 C1888 1.397 . S
C1889 C1890 1.334 . S
C1890 H1861 0.950 . S
C1890 C1889 1.334 . S
C1890 C1891 1.287 . S
C1891 C1890 1.287 . S
C1891 C1892 1.524 . S
C1891 H1894 0.999 . S
C1892 H1862 0.950 . S
C1892 C1891 1.524 . S
C1892 C1893 1.415 . S
C1893 H1863 0.950 . S
C1893 C1888 1.363 . S
C1893 C1892 1.415 . S
H1894 C1891 0.999 . S
H1895 C1876 0.913 . S
C415 N344 0.927 . S
C430 N14 0.925 . S
C465 N47 0.975 . S
C480 N377 0.975 . S
C515 N80 0.976 . S
C530 N212 0.977 . S
C565 N113 0.927 . S
C580 N245 0.925 . S
C615 N146 0.977 . S
C630 N278 0.978 . S
C665 N179 0.977 . S
C680 N311 0.977 . S
C715 N5 1.661 . S
C730 C173 1.673 . S
C765 C8 1.678 . S
C780 N38 1.659 . S
C815 C41 1.690 . S
C830 N71 1.673 . S
C865 N104 1.671 . S
C880 C74 1.687 . S
C915 N137 1.700 . S
C930 C107 1.715 . S
C965 N170 1.676 . S
C980 C140 1.688 . S
C1015 C239 1.678 . S
C1030 N203 1.659 . S
C1065 N236 1.661 . S
C1080 C272 1.673 . S
C1115 N269 1.676 . S
C1130 C305 1.689 . S
C1165 N302 1.699 . S
C1180 C338 1.715 . S
C1215 N335 1.670 . S
C1230 C371 1.687 . S
C1265 N368 1.674 . S
C1280 C206 1.689 . S
C1315 C28 0.419 . S
C1330 C325 0.420 . S
C1365 C61 0.484 . S
C1380 C358 0.485 . S
C1415 C94 0.469 . S
C1430 C391 0.469 . S
C1465 C127 0.487 . S
C1480 C226 0.486 . S
C1515 C160 0.420 . S
C1530 C259 0.418 . S
C1565 C292 0.453 . S
C1580 C193 0.453 . S
C1615 C215 1.249 . S
C1630 C17 1.250 . S
C1665 C50 1.248 . S
C1680 C248 1.250 . S
C1715 C83 1.256 . S
C1730 C281 1.255 . S
C1765 C314 1.263 . S
C1780 C116 1.265 . S
C1815 C149 1.264 . S
C1830 C347 1.265 . S
C1865 C380 1.256 . S
C1880 C182 1.254 . S
