# Generated by pormake.
# Topology wgr, (5)-cn, num edge types: 1
# Building blocks:
#     Node 0, Type 0, BuildingBlock: BEQFEK_clean_sbu_0, # of connection points: 5
#     Node 1, Type 0, BuildingBlock: BEQFEK_clean_sbu_0, # of connection points: 5
#     Node 2, Type 0, BuildingBlock: BEQFEK_clean_sbu_0, # of connection points: 5
#     Node 3, Type 0, BuildingBlock: BEQFEK_clean_sbu_0, # of connection points: 5
#     Node 4, Type 0, BuildingBlock: BEQFEK_clean_sbu_0, # of connection points: 5
#     Node 5, Type 0, BuildingBlock: BEQFEK_clean_sbu_0, # of connection points: 5
#     Node 6, Type 0, BuildingBlock: BEQFEK_clean_sbu_0, # of connection points: 5
#     Node 7, Type 0, BuildingBlock: BEQFEK_clean_sbu_0, # of connection points: 5
#     Node 8, Type 0, BuildingBlock: BEQFEK_clean_sbu_0, # of connection points: 5
#     Node 9, Type 0, BuildingBlock: BEQFEK_clean_sbu_0, # of connection points: 5
#     Node 10, Type 0, BuildingBlock: BEQFEK_clean_sbu_0, # of connection points: 5
#     Node 11, Type 0, BuildingBlock: BEQFEK_clean_sbu_0, # of connection points: 5
#     Node 12, Type 0, BuildingBlock: BEQFEK_clean_sbu_0, # of connection points: 5
#     Node 13, Type 0, BuildingBlock: BEQFEK_clean_sbu_0, # of connection points: 5
#     Node 14, Type 0, BuildingBlock: BEQFEK_clean_sbu_0, # of connection points: 5
#     Node 15, Type 0, BuildingBlock: BEQFEK_clean_sbu_0, # of connection points: 5
#     Node 16, Type 0, BuildingBlock: BEQFEK_clean_sbu_0, # of connection points: 5
#     Node 17, Type 0, BuildingBlock: BEQFEK_clean_sbu_0, # of connection points: 5
#     Node 18, Type 0, BuildingBlock: BEQFEK_clean_sbu_0, # of connection points: 5
#     Node 19, Type 0, BuildingBlock: BEQFEK_clean_sbu_0, # of connection points: 5
#     Node 20, Type 0, BuildingBlock: BEQFEK_clean_sbu_0, # of connection points: 5
#     Node 21, Type 0, BuildingBlock: BEQFEK_clean_sbu_0, # of connection points: 5
#     Node 22, Type 0, BuildingBlock: BEQFEK_clean_sbu_0, # of connection points: 5
#     Node 23, Type 0, BuildingBlock: BEQFEK_clean_sbu_0, # of connection points: 5
#     Node 24, Type 0, BuildingBlock: BEQFEK_clean_sbu_0, # of connection points: 5
#     Node 25, Type 0, BuildingBlock: BEQFEK_clean_sbu_0, # of connection points: 5
#     Node 26, Type 0, BuildingBlock: BEQFEK_clean_sbu_0, # of connection points: 5
#     Node 27, Type 0, BuildingBlock: BEQFEK_clean_sbu_0, # of connection points: 5
#     Node 28, Type 0, BuildingBlock: BEQFEK_clean_sbu_0, # of connection points: 5
#     Node 29, Type 0, BuildingBlock: BEQFEK_clean_sbu_0, # of connection points: 5
#     Node 30, Type 0, BuildingBlock: BEQFEK_clean_sbu_0, # of connection points: 5
#     Node 31, Type 0, BuildingBlock: BEQFEK_clean_sbu_0, # of connection points: 5
#     Edge 32, Type (0, 0), BuildingBlock: XUDNAN_clean_linker_2, # of connection points: 2
#     Edge 33, Type (0, 0), BuildingBlock: XUDNAN_clean_linker_2, # of connection points: 2
#     Edge 34, Type (0, 0), BuildingBlock: XUDNAN_clean_linker_2, # of connection points: 2
#     Edge 35, Type (0, 0), BuildingBlock: XUDNAN_clean_linker_2, # of connection points: 2
#     Edge 36, Type (0, 0), BuildingBlock: XUDNAN_clean_linker_2, # of connection points: 2
#     Edge 37, Type (0, 0), BuildingBlock: XUDNAN_clean_linker_2, # of connection points: 2
#     Edge 38, Type (0, 0), BuildingBlock: XUDNAN_clean_linker_2, # of connection points: 2
#     Edge 39, Type (0, 0), BuildingBlock: XUDNAN_clean_linker_2, # of connection points: 2
#     Edge 40, Type (0, 0), BuildingBlock: XUDNAN_clean_linker_2, # of connection points: 2
#     Edge 41, Type (0, 0), BuildingBlock: XUDNAN_clean_linker_2, # of connection points: 2
#     Edge 42, Type (0, 0), BuildingBlock: XUDNAN_clean_linker_2, # of connection points: 2
#     Edge 43, Type (0, 0), BuildingBlock: XUDNAN_clean_linker_2, # of connection points: 2
#     Edge 44, Type (0, 0), BuildingBlock: XUDNAN_clean_linker_2, # of connection points: 2
#     Edge 45, Type (0, 0), BuildingBlock: XUDNAN_clean_linker_2, # of connection points: 2
#     Edge 46, Type (0, 0), BuildingBlock: XUDNAN_clean_linker_2, # of connection points: 2
#     Edge 47, Type (0, 0), BuildingBlock: XUDNAN_clean_linker_2, # of connection points: 2
#     Edge 48, Type (0, 0), BuildingBlock: XUDNAN_clean_linker_2, # of connection points: 2
#     Edge 49, Type (0, 0), BuildingBlock: XUDNAN_clean_linker_2, # of connection points: 2
#     Edge 50, Type (0, 0), BuildingBlock: XUDNAN_clean_linker_2, # of connection points: 2
#     Edge 51, Type (0, 0), BuildingBlock: XUDNAN_clean_linker_2, # of connection points: 2
#     Edge 52, Type (0, 0), BuildingBlock: XUDNAN_clean_linker_2, # of connection points: 2
#     Edge 53, Type (0, 0), BuildingBlock: XUDNAN_clean_linker_2, # of connection points: 2
#     Edge 54, Type (0, 0), BuildingBlock: XUDNAN_clean_linker_2, # of connection points: 2
#     Edge 55, Type (0, 0), BuildingBlock: XUDNAN_clean_linker_2, # of connection points: 2
#     Edge 56, Type (0, 0), BuildingBlock: XUDNAN_clean_linker_2, # of connection points: 2
#     Edge 57, Type (0, 0), BuildingBlock: XUDNAN_clean_linker_2, # of connection points: 2
#     Edge 58, Type (0, 0), BuildingBlock: XUDNAN_clean_linker_2, # of connection points: 2
#     Edge 59, Type (0, 0), BuildingBlock: XUDNAN_clean_linker_2, # of connection points: 2
#     Edge 60, Type (0, 0), BuildingBlock: XUDNAN_clean_linker_2, # of connection points: 2
#     Edge 61, Type (0, 0), BuildingBlock: XUDNAN_clean_linker_2, # of connection points: 2
#     Edge 62, Type (0, 0), BuildingBlock: XUDNAN_clean_linker_2, # of connection points: 2
#     Edge 63, Type (0, 0), BuildingBlock: XUDNAN_clean_linker_2, # of connection points: 2
#     Edge 64, Type (0, 0), BuildingBlock: XUDNAN_clean_linker_2, # of connection points: 2
#     Edge 65, Type (0, 0), BuildingBlock: XUDNAN_clean_linker_2, # of connection points: 2
#     Edge 66, Type (0, 0), BuildingBlock: XUDNAN_clean_linker_2, # of connection points: 2
#     Edge 67, Type (0, 0), BuildingBlock: XUDNAN_clean_linker_2, # of connection points: 2
#     Edge 68, Type (0, 0), BuildingBlock: XUDNAN_clean_linker_2, # of connection points: 2
#     Edge 69, Type (0, 0), BuildingBlock: XUDNAN_clean_linker_2, # of connection points: 2
#     Edge 70, Type (0, 0), BuildingBlock: XUDNAN_clean_linker_2, # of connection points: 2
#     Edge 71, Type (0, 0), BuildingBlock: XUDNAN_clean_linker_2, # of connection points: 2
#     Edge 72, Type (0, 0), BuildingBlock: XUDNAN_clean_linker_2, # of connection points: 2
#     Edge 73, Type (0, 0), BuildingBlock: XUDNAN_clean_linker_2, # of connection points: 2
#     Edge 74, Type (0, 0), BuildingBlock: XUDNAN_clean_linker_2, # of connection points: 2
#     Edge 75, Type (0, 0), BuildingBlock: XUDNAN_clean_linker_2, # of connection points: 2
#     Edge 76, Type (0, 0), BuildingBlock: XUDNAN_clean_linker_2, # of connection points: 2
#     Edge 77, Type (0, 0), BuildingBlock: XUDNAN_clean_linker_2, # of connection points: 2
#     Edge 78, Type (0, 0), BuildingBlock: XUDNAN_clean_linker_2, # of connection points: 2
#     Edge 79, Type (0, 0), BuildingBlock: XUDNAN_clean_linker_2, # of connection points: 2
#     Edge 80, Type (0, 0), BuildingBlock: XUDNAN_clean_linker_2, # of connection points: 2
#     Edge 81, Type (0, 0), BuildingBlock: XUDNAN_clean_linker_2, # of connection points: 2
#     Edge 82, Type (0, 0), BuildingBlock: XUDNAN_clean_linker_2, # of connection points: 2
#     Edge 83, Type (0, 0), BuildingBlock: XUDNAN_clean_linker_2, # of connection points: 2
#     Edge 84, Type (0, 0), BuildingBlock: XUDNAN_clean_linker_2, # of connection points: 2
#     Edge 85, Type (0, 0), BuildingBlock: XUDNAN_clean_linker_2, # of connection points: 2
#     Edge 86, Type (0, 0), BuildingBlock: XUDNAN_clean_linker_2, # of connection points: 2
#     Edge 87, Type (0, 0), BuildingBlock: XUDNAN_clean_linker_2, # of connection points: 2
#     Edge 88, Type (0, 0), BuildingBlock: XUDNAN_clean_linker_2, # of connection points: 2
#     Edge 89, Type (0, 0), BuildingBlock: XUDNAN_clean_linker_2, # of connection points: 2
#     Edge 90, Type (0, 0), BuildingBlock: XUDNAN_clean_linker_2, # of connection points: 2
#     Edge 91, Type (0, 0), BuildingBlock: XUDNAN_clean_linker_2, # of connection points: 2
#     Edge 92, Type (0, 0), BuildingBlock: XUDNAN_clean_linker_2, # of connection points: 2
#     Edge 93, Type (0, 0), BuildingBlock: XUDNAN_clean_linker_2, # of connection points: 2
#     Edge 94, Type (0, 0), BuildingBlock: XUDNAN_clean_linker_2, # of connection points: 2
#     Edge 95, Type (0, 0), BuildingBlock: XUDNAN_clean_linker_2, # of connection points: 2
#     Edge 96, Type (0, 0), BuildingBlock: XUDNAN_clean_linker_2, # of connection points: 2
#     Edge 97, Type (0, 0), BuildingBlock: XUDNAN_clean_linker_2, # of connection points: 2
#     Edge 98, Type (0, 0), BuildingBlock: XUDNAN_clean_linker_2, # of connection points: 2
#     Edge 99, Type (0, 0), BuildingBlock: XUDNAN_clean_linker_2, # of connection points: 2
#     Edge 100, Type (0, 0), BuildingBlock: XUDNAN_clean_linker_2, # of connection points: 2
#     Edge 101, Type (0, 0), BuildingBlock: XUDNAN_clean_linker_2, # of connection points: 2
#     Edge 102, Type (0, 0), BuildingBlock: XUDNAN_clean_linker_2, # of connection points: 2
#     Edge 103, Type (0, 0), BuildingBlock: XUDNAN_clean_linker_2, # of connection points: 2
#     Edge 104, Type (0, 0), BuildingBlock: XUDNAN_clean_linker_2, # of connection points: 2
#     Edge 105, Type (0, 0), BuildingBlock: XUDNAN_clean_linker_2, # of connection points: 2
#     Edge 106, Type (0, 0), BuildingBlock: XUDNAN_clean_linker_2, # of connection points: 2
#     Edge 107, Type (0, 0), BuildingBlock: XUDNAN_clean_linker_2, # of connection points: 2
#     Edge 108, Type (0, 0), BuildingBlock: XUDNAN_clean_linker_2, # of connection points: 2
#     Edge 109, Type (0, 0), BuildingBlock: XUDNAN_clean_linker_2, # of connection points: 2
#     Edge 110, Type (0, 0), BuildingBlock: XUDNAN_clean_linker_2, # of connection points: 2
#     Edge 111, Type (0, 0), BuildingBlock: XUDNAN_clean_linker_2, # of connection points: 2
# Relax obj value: 0.175
# Max RMSD: 0.224
# Mean RMSD: 0.224
data_MOF--net-wgr--node1-BEQFEK_clean_sbu_0--edge1-XUDNAN_clean_linker_2
_symmetry_space_group_name_H-M    P1
_symmetry_Int_Tables_number       1
_symmetry_cell_setting            triclinic
loop_
_symmetry_equiv_pos_as_xyz
'x, y, z'
_cell_length_a     27.581477
_cell_length_b     27.54717
_cell_length_c     153.27952
_cell_angle_alpha  90.031426
_cell_angle_beta   89.988515
_cell_angle_gamma 89.922223
loop_
_atom_site_label
_atom_site_type_symbol
_atom_site_fract_x
_atom_site_fract_y
_atom_site_fract_z
_atom_type_partial_charge
Co0 Co 0.36936 0.03759 0.20746 0.0
Co1 Co 0.35153 0.02424 0.18737 0.0
C2 C 0.27956 0.07613 0.19791 0.0
O3 O 0.30612 0.07055 0.20467 0.0
O4 O 0.29136 0.05788 0.19057 0.0
C5 C 0.34247 0.03095 0.22565 0.0
O6 O 0.29784 0.03278 0.22268 0.0
C7 C 0.31956 0.00796 0.16908 0.0
C8 C 0.3861 0.97536 0.16354 0.0
C9 C 0.33931 0.9893 0.16143 0.0
N10 N 0.35344 0.00539 0.17538 0.0
N11 N 0.39305 0.98594 0.17201 0.0
C12 C 0.26855 0.02446 0.17061 0.0
H13 H 0.26732 0.06472 0.17044 0.0
H14 H 0.25618 0.01248 0.17714 0.0
H15 H 0.24359 0.0098 0.16558 0.0
C16 C 0.38142 0.9309 0.20621 0.0
N17 N 0.37356 0.97462 0.20255 0.0
N18 N 0.36035 0.96864 0.19441 0.0
C19 C 0.35553 0.92087 0.19276 0.0
C20 C 0.36949 0.89465 0.20017 0.0
C21 C 0.40228 0.92494 0.21516 0.0
H22 H 0.42732 0.95537 0.21662 0.0
H23 H 0.37257 0.92577 0.22004 0.0
H24 H 0.42249 0.89023 0.21574 0.0
O25 O 0.41974 0.08043 0.20289 0.0
O26 O 0.40439 0.07335 0.18874 0.0
H27 H 0.35883 0.89223 0.17979 0.0
H28 H 0.30884 0.86942 0.18622 0.0
C29 C 0.33103 0.90193 0.18473 0.0
H30 H 0.30686 0.93004 0.18193 0.0
H31 H 0.42482 0.97964 0.17553 0.0
O32 O 0.37764 0.03319 0.22031 0.0
C33 C 0.42773 0.09268 0.19502 0.0
Co34 Co 0.22348 0.08452 0.45862 0.0
Co35 Co 0.20279 0.08455 0.43831 0.0
C36 C 0.16533 0.00588 0.44977 0.0
O37 O 0.18384 0.02754 0.45627 0.0
O38 O 0.17066 0.0224 0.44206 0.0
C39 C 0.24775 0.0385 0.4746 0.0
O40 O 0.24259 -5e-05 0.46964 0.0
C41 C 0.20977 0.05954 0.41945 0.0
C42 C 0.17611 0.12469 0.4136 0.0
C43 C 0.19634 0.08015 0.41151 0.0
N44 N 0.19796 0.09071 0.42589 0.0
N45 N 0.17805 0.12958 0.42232 0.0
C46 C 0.23064 0.01015 0.42098 0.0
H47 H 0.22488 0.99875 0.42784 0.0
H48 H 0.27023 0.01108 0.41972 0.0
H49 H 0.21411 0.98339 0.41645 0.0
C50 C 0.32529 0.08778 0.45192 0.0
N51 N 0.27693 0.08648 0.45069 0.0
N52 N 0.26768 0.09163 0.44233 0.0
C53 C 0.30927 0.10132 0.43808 0.0
C54 C 0.34796 0.09808 0.44395 0.0
C55 C 0.34869 0.07421 0.46039 0.0
H56 H 0.32462 0.05014 0.46417 0.0
H57 H 0.38325 0.0545 0.45929 0.0
H58 H 0.35564 0.10747 0.46428 0.0
O59 O 0.17961 0.14228 0.4573 0.0
O60 O 0.16517 0.13834 0.44304 0.0
H61 H 0.27733 0.14158 0.42755 0.0
H62 H 0.34237 0.14368 0.4278 0.0
C63 C 0.31043 0.12003 0.42891 0.0
H64 H 0.31157 0.08906 0.42429 0.0
H65 H 0.16518 0.15932 0.42584 0.0
O66 O 0.24355 0.08035 0.47116 0.0
C67 C 0.15879 0.15811 0.45044 0.0
Co68 Co 0.14178 0.97425 0.70691 0.0
Co69 Co 0.15477 0.97354 0.6863 0.0
C70 C 0.22862 0.92951 0.6984 0.0
O71 O 0.20424 0.94034 0.7052 0.0
O72 O 0.21457 0.94173 0.69079 0.0
C73 C 0.14538 0.96442 0.72621 0.0
O74 O 0.16576 0.92183 0.72498 0.0
C75 C 0.19499 0.00017 0.66903 0.0
C76 C 0.13382 0.98109 0.66038 0.0
C77 C 0.17997 0.00096 0.66034 0.0
N78 N 0.15895 0.98156 0.67391 0.0
N79 N 0.12274 0.96986 0.66868 0.0
C80 C 0.24314 0.01488 0.67267 0.0
H81 H 0.25057 0.99547 0.67885 0.0
H82 H 0.24281 0.05433 0.67411 0.0
H83 H 0.27255 0.00722 0.66792 0.0
C84 C 0.13503 0.08031 0.70313 0.0
N85 N 0.13967 0.03381 0.70049 0.0
N86 N 0.14122 0.03284 0.69192 0.0
C87 C 0.13462 0.07809 0.68882 0.0
C88 C 0.13123 0.11006 0.69581 0.0
C89 C 0.13913 0.09598 0.71245 0.0
H90 H 0.16517 0.0723 0.71595 0.0
H91 H 0.15178 0.13404 0.713 0.0
H92 H 0.10311 0.09273 0.71562 0.0
O93 O 0.09103 0.92676 0.70287 0.0
O94 O 0.10216 0.92819 0.68849 0.0
H95 H 0.10805 0.12476 0.67852 0.0
H96 H 0.16357 0.09281 0.67614 0.0
C97 C 0.12773 0.08992 0.67936 0.0
H98 H 0.1067 0.0608 0.67613 0.0
H99 H 0.09007 0.95485 0.6708 0.0
O100 O 0.13246 0.98953 0.71963 0.0
C101 C 0.08053 0.9119 0.6952 0.0
Co102 Co 0.26729 0.90627 0.95867 0.0
Co103 Co 0.27982 0.88458 0.93843 0.0
C104 C 0.32299 0.97304 0.94738 0.0
O105 O 0.30479 0.96296 0.95479 0.0
O106 O 0.31611 0.94581 0.94077 0.0
C107 C 0.24722 0.95749 0.97461 0.0
O108 O 0.25376 0.99509 0.96948 0.0
C109 C 0.26923 0.91102 0.91995 0.0
C110 C 0.27279 0.84006 0.91327 0.0
C111 C 0.26664 0.88928 0.91179 0.0
N112 N 0.27646 0.8763 0.92598 0.0
N113 N 0.2791 0.83399 0.92193 0.0
C114 C 0.26187 0.9635 0.92207 0.0
H115 H 0.24513 0.96733 0.92862 0.0
H116 H 0.23874 0.98139 0.91709 0.0
H117 H 0.29765 0.98187 0.92218 0.0
C118 C 0.1627 0.90396 0.95297 0.0
N119 N 0.21075 0.89889 0.9515 0.0
N120 N 0.21711 0.88485 0.94338 0.0
C121 C 0.17382 0.87641 0.93967 0.0
C122 C 0.13732 0.88962 0.94549 0.0
C123 C 0.14234 0.92706 0.96101 0.0
H124 H 0.16945 0.95142 0.964 0.0
H125 H 0.10954 0.94878 0.95949 0.0
H126 H 0.13274 0.89839 0.96579 0.0
O127 O 0.31239 0.84848 0.95777 0.0
O128 O 0.31686 0.83175 0.94354 0.0
H129 H 0.13225 0.83324 0.93053 0.0
H130 H 0.17264 0.87752 0.9257 0.0
C131 C 0.16817 0.85103 0.93108 0.0
H132 H 0.19645 0.82267 0.93043 0.0
H133 H 0.28425 0.80081 0.92509 0.0
O134 O 0.25024 0.91501 0.97137 0.0
C135 C 0.32811 0.82276 0.95142 0.0
Co136 Co 0.35797 0.9595 0.30706 0.0
Co137 Co 0.32913 0.96046 0.32701 0.0
C138 C 0.26207 0.91963 0.31406 0.0
O139 O 0.29314 0.92912 0.30814 0.0
O140 O 0.26941 0.93151 0.32199 0.0
C141 C 0.33793 0.98176 0.28918 0.0
O142 O 0.29364 0.98776 0.29214 0.0
C143 C 0.28637 0.97099 0.3448 0.0
C144 C 0.35184 0.99059 0.35232 0.0
C145 C 0.30227 0.98394 0.35312 0.0
N146 N 0.32476 0.97107 0.33937 0.0
N147 N 0.36375 0.98229 0.34394 0.0
C148 C 0.23636 0.95632 0.3421 0.0
H149 H 0.23835 0.92552 0.33747 0.0
H150 H 0.21854 0.98723 0.33874 0.0
H151 H 0.21419 0.94516 0.34779 0.0
C152 C 0.36903 0.06456 0.31052 0.0
N153 N 0.36018 0.01886 0.3132 0.0
N154 N 0.34567 0.01976 0.32137 0.0
C155 C 0.34382 0.06627 0.3241 0.0
C156 C 0.35893 0.09626 0.31733 0.0
C157 C 0.386 0.07761 0.30155 0.0
H158 H 0.41254 0.0503 0.2992 0.0
H159 H 0.35453 0.07777 0.29705 0.0
H160 H 0.40302 0.1141 0.30148 0.0
O161 O 0.40446 0.9113 0.31163 0.0
O162 O 0.38006 0.91032 0.32543 0.0
H163 H 0.35009 0.07901 0.3378 0.0
H164 H 0.30896 0.11987 0.33235 0.0
C165 C 0.32218 0.08186 0.33262 0.0
H166 H 0.29142 0.05786 0.33434 0.0
H167 H 0.3985 0.98512 0.3413 0.0
O168 O 0.37143 0.96981 0.29446 0.0
C169 C 0.40666 0.8938 0.31931 0.0
Co170 Co 0.28799 0.10382 0.55437 0.0
Co171 Co 0.28366 0.10311 0.57505 0.0
C172 C 0.33078 0.02316 0.56567 0.0
O173 O 0.32293 0.04585 0.55858 0.0
O174 O 0.31478 0.03901 0.57293 0.0
C175 C 0.27725 0.05262 0.53854 0.0
O176 O 0.27603 0.01646 0.54412 0.0
C177 C 0.26783 0.0864 0.5942 0.0
C178 C 0.27547 0.16183 0.5989 0.0
C179 C 0.26808 0.11472 0.60175 0.0
N180 N 0.27484 0.11576 0.58727 0.0
N181 N 0.27909 0.16074 0.59017 0.0
C182 C 0.26384 0.03234 0.5936 0.0
H183 H 0.27805 0.01892 0.5873 0.0
H184 H 0.22509 0.02191 0.59405 0.0
H185 H 0.28376 0.01482 0.59905 0.0
C186 C 0.18117 0.11182 0.55698 0.0
N187 N 0.22684 0.11003 0.5601 0.0
N188 N 0.22543 0.11124 0.56868 0.0
C189 C 0.17908 0.11566 0.5713 0.0
C190 C 0.14912 0.11562 0.56399 0.0
C191 C 0.16912 0.10386 0.54756 0.0
H192 H 0.18532 0.13337 0.54359 0.0
H193 H 0.18544 0.06914 0.54539 0.0
H194 H 0.12966 0.10198 0.54632 0.0
O195 O 0.33237 0.1592 0.55689 0.0
O196 O 0.33103 0.15164 0.57129 0.0
H197 H 0.18693 0.14916 0.58381 0.0
H198 H 0.12574 0.13224 0.5813 0.0
C199 C 0.16421 0.1211 0.58065 0.0
H200 H 0.17017 0.08624 0.58411 0.0
H201 H 0.2853 0.19071 0.58617 0.0
O202 O 0.28053 0.09578 0.54145 0.0
C203 C 0.3475 0.17156 0.56443 0.0
Co204 Co 0.1586 0.02527 0.80666 0.0
Co205 Co 0.14994 0.02327 0.82728 0.0
C206 C 0.23881 0.06151 0.81745 0.0
O207 O 0.22257 0.05227 0.80984 0.0
O208 O 0.21457 0.05078 0.82428 0.0
C209 C 0.14837 0.05187 0.78873 0.0
O210 O 0.14448 0.09502 0.79232 0.0
C211 C 0.18227 0.00058 0.84525 0.0
C212 C 0.11371 0.00567 0.85264 0.0
C213 C 0.16271 0.99603 0.85356 0.0
N214 N 0.14645 0.01236 0.83967 0.0
N215 N 0.10564 0.01567 0.84416 0.0
C216 C 0.23358 0.99138 0.84258 0.0
H217 H 0.23504 0.97901 0.83569 0.0
H218 H 0.25064 0.96386 0.84689 0.0
H219 H 0.25439 0.02564 0.84316 0.0
C220 C 0.15316 0.91763 0.81036 0.0
N221 N 0.14837 0.9648 0.81267 0.0
N222 N 0.1366 0.96669 0.82096 0.0
C223 C 0.12893 0.92176 0.82399 0.0
C224 C 0.14136 0.88827 0.81754 0.0
C225 C 0.17489 0.90191 0.80187 0.0
H226 H 0.19268 0.93291 0.79856 0.0
H227 H 0.20204 0.87275 0.80294 0.0
H228 H 0.14584 0.88766 0.79757 0.0
O229 O 0.11095 0.07928 0.80997 0.0
O230 O 0.10463 0.07362 0.82438 0.0
H231 H 0.08839 0.87596 0.83284 0.0
H232 H 0.13416 0.91383 0.83788 0.0
C233 C 0.10619 0.91205 0.8327 0.0
H234 H 0.07848 0.94019 0.83409 0.0
H235 H 0.07213 0.02448 0.84142 0.0
O236 O 0.15518 0.0153 0.79366 0.0
C237 C 0.09433 0.09467 0.81726 0.0
Co238 Co 0.20689 0.9164 0.05513 0.0
Co239 Co 0.21883 0.8997 0.07549 0.0
C240 C 0.16591 0.98617 0.06824 0.0
O241 O 0.1728 0.97394 0.06031 0.0
O242 O 0.1826 0.9607 0.07447 0.0
C243 C 0.19763 0.96319 0.03838 0.0
O244 O 0.18089 0.99869 0.04325 0.0
C245 C 0.2436 0.92478 0.09347 0.0
C246 C 0.2394 0.85389 0.10015 0.0
C247 C 0.24754 0.9029 0.1016 0.0
N248 N 0.23313 0.89041 0.08754 0.0
N249 N 0.23067 0.8481 0.09157 0.0
C250 C 0.25204 0.9769 0.0912 0.0
H251 H 0.26418 0.98013 0.08432 0.0
H252 H 0.27954 0.99319 0.0956 0.0
H253 H 0.21759 0.99731 0.09193 0.0
C254 C 0.31539 0.91073 0.05662 0.0
N255 N 0.27044 0.90872 0.06009 0.0
N256 N 0.27437 0.89968 0.0685 0.0
C257 C 0.32127 0.89391 0.07059 0.0
C258 C 0.34914 0.90141 0.06318 0.0
C259 C 0.32548 0.92517 0.04739 0.0
H260 H 0.30046 0.95472 0.04541 0.0
H261 H 0.36342 0.93755 0.04654 0.0
H262 H 0.31883 0.89358 0.04306 0.0
O263 O 0.16481 0.85829 0.05765 0.0
O264 O 0.1763 0.84768 0.07189 0.0
H265 H 0.37653 0.86559 0.07928 0.0
H266 H 0.33679 0.91106 0.08391 0.0
C267 C 0.33872 0.87933 0.07947 0.0
H268 H 0.31514 0.85032 0.08211 0.0
H269 H 0.22251 0.81533 0.08848 0.0
O270 O 0.21131 0.92407 0.04206 0.0
C271 C 0.15666 0.83526 0.06473 0.0
Co272 Co 0.649 0.95949 0.80533 0.0
Co273 Co 0.6425 0.96299 0.82592 0.0
C274 C 0.73007 0.92373 0.81641 0.0
O275 O 0.71275 0.93338 0.8089 0.0
O276 O 0.70715 0.93425 0.8234 0.0
C277 C 0.646 0.93098 0.78752 0.0
O278 O 0.644 0.8876 0.79106 0.0
C279 C 0.67203 0.98478 0.84401 0.0
C280 C 0.60171 0.98612 0.8509 0.0
C281 C 0.65106 0.99219 0.85214 0.0
N282 N 0.6367 0.97482 0.83823 0.0
N283 N 0.59478 0.97531 0.84242 0.0
C284 C 0.72433 0.99002 0.84162 0.0
H285 H 0.72762 0.00537 0.83495 0.0
H286 H 0.74363 0.01365 0.84634 0.0
H287 H 0.74161 0.95361 0.84163 0.0
C288 C 0.63564 0.06495 0.80774 0.0
N289 N 0.6364 0.01938 0.81092 0.0
N290 N 0.63149 0.02082 0.81945 0.0
C291 C 0.6257 0.06739 0.82195 0.0
C292 C 0.62856 0.09716 0.81463 0.0
C293 C 0.64877 0.07712 0.79851 0.0
H294 H 0.6783 0.05285 0.79624 0.0
H295 H 0.66103 0.11522 0.79782 0.0
H296 H 0.61673 0.07114 0.79427 0.0
O297 O 0.60113 0.90768 0.80826 0.0
O298 O 0.59753 0.9104 0.82275 0.0
H299 H 0.6062 0.12139 0.83163 0.0
H300 H 0.65254 0.07844 0.83489 0.0
C301 C 0.61821 0.08302 0.83121 0.0
H302 H 0.59015 0.05994 0.83427 0.0
H303 H 0.56134 0.96894 0.83946 0.0
O304 O 0.64853 0.96794 0.79246 0.0
C305 C 0.58576 0.89105 0.8155 0.0
Co306 Co 0.78491 0.90079 0.55451 0.0
Co307 Co 0.7809 0.90513 0.57526 0.0
C308 C 0.82675 0.98394 0.56539 0.0
O309 O 0.81784 0.96224 0.55822 0.0
O310 O 0.81308 0.96674 0.57269 0.0
C311 C 0.75871 0.9477 0.53895 0.0
O312 O 0.74959 0.98129 0.54482 0.0
C313 C 0.77016 0.93042 0.59406 0.0
C314 C 0.76207 0.85733 0.59981 0.0
C315 C 0.76472 0.90609 0.60195 0.0
N316 N 0.77047 0.89735 0.58757 0.0
N317 N 0.76533 0.85384 0.59107 0.0
C318 C 0.77908 0.98342 0.59269 0.0
H319 H 0.8168 0.98853 0.59034 0.0
H320 H 0.75443 0.99724 0.58753 0.0
H321 H 0.77404 0.00463 0.59877 0.0
C322 C 0.6791 0.88461 0.55745 0.0
N323 N 0.72445 0.8925 0.56042 0.0
N324 N 0.72282 0.89789 0.56894 0.0
C325 C 0.67652 0.89533 0.57165 0.0
C326 C 0.64703 0.8861 0.56448 0.0
C327 C 0.6671 0.87472 0.5481 0.0
H328 H 0.69695 0.85405 0.54497 0.0
H329 H 0.66289 0.90972 0.5446 0.0
H330 H 0.6328 0.85394 0.54753 0.0
O331 O 0.83146 0.8474 0.55745 0.0
O332 O 0.82729 0.85404 0.57189 0.0
H333 H 0.66335 0.87392 0.58484 0.0
H334 H 0.62313 0.92101 0.58096 0.0
C335 C 0.66085 0.90711 0.58077 0.0
H336 H 0.68495 0.93516 0.58358 0.0
H337 H 0.76502 0.82162 0.5875 0.0
O338 O 0.77435 0.90664 0.54154 0.0
C339 C 0.84498 0.83441 0.56507 0.0
Co340 Co 0.83665 0.01465 0.3069 0.0
Co341 Co 0.85662 0.02657 0.3272 0.0
C342 C 0.76341 0.06044 0.31793 0.0
O343 O 0.77462 0.04278 0.31051 0.0
O344 O 0.79142 0.05599 0.32454 0.0
C345 C 0.84013 0.03591 0.28889 0.0
O346 O 0.84024 0.07972 0.29228 0.0
C347 C 0.8403 0.00313 0.3461 0.0
C348 C 0.90399 0.03927 0.35186 0.0
C349 C 0.86361 0.01185 0.35408 0.0
N350 N 0.86626 0.02414 0.33965 0.0
N351 N 0.90405 0.04583 0.34319 0.0
C352 C 0.79556 0.97403 0.34441 0.0
H353 H 0.79111 0.96734 0.33731 0.0
H354 H 0.79755 0.93882 0.34791 0.0
H355 H 0.76345 0.9944 0.34679 0.0
C356 C 0.8476 0.91131 0.31195 0.0
N357 N 0.85061 0.95904 0.31375 0.0
N358 N 0.86495 0.96473 0.32185 0.0
C359 C 0.87589 0.92104 0.32524 0.0
C360 C 0.86384 0.88485 0.3192 0.0
C361 C 0.82321 0.89263 0.30389 0.0
H362 H 0.80102 0.92158 0.30083 0.0
H363 H 0.79924 0.86151 0.30546 0.0
H364 H 0.85111 0.88073 0.29913 0.0
O365 O 0.88471 0.06854 0.30863 0.0
O366 O 0.90338 0.07372 0.32267 0.0
H367 H 0.92469 0.88214 0.33376 0.0
H368 H 0.87483 0.91229 0.33914 0.0
C369 C 0.90162 0.91518 0.33379 0.0
H370 H 0.92468 0.94736 0.33509 0.0
H371 H 0.9302 0.06494 0.33967 0.0
O372 O 0.83683 -0.00035 0.29401 0.0
C373 C 0.90784 0.08862 0.31487 0.0
Co374 Co 0.72543 0.09374 0.05608 0.0
Co375 Co 0.70565 0.11551 0.07606 0.0
C376 C 0.67349 0.02265 0.06673 0.0
O377 O 0.69353 0.03337 0.05951 0.0
O378 O 0.67609 0.05095 0.07332 0.0
C379 C 0.72294 0.09419 0.03707 0.0
O380 O 0.67743 0.10719 0.03805 0.0
C381 C 0.71636 0.09546 0.09503 0.0
C382 C 0.68545 0.16236 0.1007 0.0
C383 C 0.70536 0.11784 0.10295 0.0
N384 N 0.70355 0.12554 0.08848 0.0
N385 N 0.68533 0.1655 0.09194 0.0
C386 C 0.73611 0.04544 0.09364 0.0
H387 H 0.77585 0.04579 0.09473 0.0
H388 H 0.71955 0.01963 0.09833 0.0
H389 H 0.72946 0.03313 0.08686 0.0
C390 C 0.82627 0.10338 0.06238 0.0
N391 N 0.77811 0.10673 0.06364 0.0
N392 N 0.7697 0.12098 0.07168 0.0
C393 C 0.8122 0.1309 0.0756 0.0
C394 C 0.85008 0.11928 0.06991 0.0
C395 C 0.84791 0.07849 0.05459 0.0
H396 H 0.82146 0.05286 0.0517 0.0
H397 H 0.88088 0.05772 0.0564 0.0
H398 H 0.85752 0.10601 0.0496 0.0
O399 O 0.67385 0.14512 0.05654 0.0
O400 O 0.6623 0.16304 0.07053 0.0
H401 H 0.84977 0.17473 0.08513 0.0
H402 H 0.81484 0.12491 0.08951 0.0
C403 C 0.81573 0.15365 0.08445 0.0
H404 H 0.78443 0.17821 0.08555 0.0
H405 H 0.67207 0.19472 0.08832 0.0
O406 O 0.74902 0.08715 0.0438 0.0
C407 C 0.65183 0.16886 0.06251 0.0
Co408 Co 0.64918 0.02643 0.70671 0.0
Co409 Co 0.65832 0.04342 0.68636 0.0
C410 C 0.7346 0.07822 0.69872 0.0
O411 O 0.71134 0.06057 0.70516 0.0
O412 O 0.719 0.07369 0.69093 0.0
C413 C 0.65108 0.02904 0.72579 0.0
O414 O 0.6609 0.0755 0.72502 0.0
C415 C 0.69679 0.0357 0.66831 0.0
C416 C 0.62899 0.03093 0.6607 0.0
C417 C 0.67897 0.02809 0.65991 0.0
N418 N 0.65901 0.0413 0.6738 0.0
N419 N 0.61867 0.03929 0.66916 0.0
C420 C 0.74873 0.03906 0.67109 0.0
H421 H 0.75894 0.00602 0.6748 0.0
H422 H 0.77331 0.04342 0.66542 0.0
H423 H 0.75344 0.07068 0.67548 0.0
C424 C 0.63871 0.92585 0.70109 0.0
N425 N 0.64379 0.97315 0.69919 0.0
N426 N 0.65031 0.9785 0.69075 0.0
C427 C 0.65123 0.93392 0.68703 0.0
C428 C 0.6441 0.89902 0.6935 0.0
C429 C 0.62858 0.90686 0.71006 0.0
H430 H 0.60029 0.92949 0.71321 0.0
H431 H 0.66214 0.90901 0.71403 0.0
H432 H 0.61581 0.86869 0.70988 0.0
O433 O 0.59791 0.07336 0.70441 0.0
O434 O 0.60363 0.08774 0.69016 0.0
H435 H 0.63461 0.93959 0.67346 0.0
H436 H 0.66883 0.88581 0.67624 0.0
C437 C 0.66381 0.9249 0.67767 0.0
H438 H 0.69786 0.9441 0.67607 0.0
H439 H 0.58393 0.04166 0.67183 0.0
O440 O 0.64489 0.00356 0.71896 0.0
C441 C 0.58416 0.09591 0.6976 0.0
Co442 Co 0.70429 0.91946 0.45856 0.0
Co443 Co 0.71348 0.90261 0.43808 0.0
C444 C 0.66866 0.99279 0.44547 0.0
O445 O 0.67587 0.98043 0.45339 0.0
O446 O 0.68213 0.96569 0.43921 0.0
C447 C 0.71729 0.96856 0.47503 0.0
O448 O 0.71965 0.00696 0.46997 0.0
C449 C 0.74032 0.92566 0.4198 0.0
C450 C 0.73725 0.85398 0.41342 0.0
C451 C 0.74728 0.90244 0.41186 0.0
N452 N 0.72701 0.8925 0.42581 0.0
N453 N 0.72461 0.84979 0.42189 0.0
C454 C 0.74629 0.97873 0.42164 0.0
H455 H 0.7126 0.99793 0.41971 0.0
H456 H 0.75281 0.98509 0.42869 0.0
H457 H 0.77652 0.99429 0.41779 0.0
C458 C 0.80671 0.89229 0.4577 0.0
N459 N 0.7646 0.90156 0.45365 0.0
N460 N 0.7711 0.90097 0.44517 0.0
C461 C 0.81914 0.89676 0.44356 0.0
C462 C 0.84404 0.89077 0.45151 0.0
C463 C 0.80861 0.87857 0.46716 0.0
H464 H 0.7744 0.86027 0.46906 0.0
H465 H 0.8123 0.91176 0.47121 0.0
H466 H 0.83913 0.85337 0.4685 0.0
O467 O 0.65816 0.86817 0.45628 0.0
O468 O 0.66313 0.85323 0.44204 0.0
H469 H 0.85094 0.86806 0.4319 0.0
H470 H 0.87281 0.92775 0.43501 0.0
C471 C 0.84059 0.90377 0.43469 0.0
H472 H 0.81438 0.92113 0.4303 0.0
H473 H 0.71519 0.81756 0.42504 0.0
O474 O 0.71059 0.92717 0.47156 0.0
C475 C 0.64448 0.84499 0.44955 0.0
Co476 Co 0.85705 0.96445 0.2071 0.0
Co477 Co 0.83186 0.96823 0.18677 0.0
C478 C 0.76293 0.9254 0.19948 0.0
O479 O 0.79214 0.93494 0.2057 0.0
O480 O 0.7726 0.93716 0.19161 0.0
C481 C 0.85112 0.95279 0.22626 0.0
O482 O 0.82533 0.91366 0.22472 0.0
C483 C 0.78906 0.98826 0.16912 0.0
C484 C 0.8561 0.99777 0.16143 0.0
C485 C 0.80604 2e-05 0.1608 0.0
N486 N 0.82747 0.98065 0.1744 0.0
N487 N 0.86728 0.98586 0.1697 0.0
C488 C 0.73749 0.98264 0.17198 0.0
H489 H 0.73462 0.9538 0.17698 0.0
H490 H 0.72477 0.01719 0.17493 0.0
H491 H 0.71375 0.97321 0.16639 0.0
C492 C 0.87059 0.0694 0.2039 0.0
N493 N 0.86032 0.02433 0.20103 0.0
N494 N 0.8476 0.02654 0.19277 0.0
C495 C 0.84864 0.07329 0.19016 0.0
C496 C 0.86358 0.10202 0.19712 0.0
C497 C 0.88696 0.08079 0.21298 0.0
H498 H 0.9148 0.05407 0.21504 0.0
H499 H 0.85558 0.07786 0.21748 0.0
H500 H 0.9024 0.11788 0.21343 0.0
O501 O 0.9042 0.91643 0.20234 0.0
O502 O 0.88455 0.91986 0.18827 0.0
H503 H 0.8587 0.08247 0.17644 0.0
H504 H 0.823 0.12987 0.18145 0.0
C505 C 0.83083 0.09039 0.18146 0.0
H506 H 0.79723 0.07068 0.17972 0.0
H507 H 0.90231 0.9823 0.1722 0.0
O508 O 0.86814 0.97691 0.21986 0.0
C509 C 0.90959 0.902 0.19448 0.0
Co510 Co 0.77702 0.08713 0.95695 0.0
Co511 Co 0.77678 0.10841 0.93662 0.0
C512 C 0.81849 0.0161 0.94463 0.0
O513 O 0.80696 0.02662 0.95246 0.0
O514 O 0.80836 0.04456 0.93833 0.0
C515 C 0.8036 0.06977 0.97456 0.0
O516 O 0.84498 0.05925 0.97074 0.0
C517 C 0.75649 0.0824 0.91838 0.0
C518 C 0.75922 0.15316 0.91165 0.0
C519 C 0.75203 0.10402 0.91025 0.0
N520 N 0.76618 0.11701 0.92432 0.0
N521 N 0.76784 0.15927 0.92024 0.0
C522 C 0.74845 0.03011 0.92055 0.0
H523 H 0.73627 0.02625 0.92741 0.0
H524 H 0.72112 0.01394 0.9161 0.0
H525 H 0.78297 0.01003 0.9197 0.0
C526 C 0.67173 0.10039 0.95422 0.0
N527 N 0.71767 0.10101 0.95126 0.0
N528 N 0.71754 0.1116 0.94288 0.0
C529 C 0.67143 0.11875 0.94028 0.0
C530 C 0.64077 0.11181 0.94736 0.0
C531 C 0.65799 0.08399 0.9632 0.0
H532 H 0.6819 0.05371 0.96526 0.0
H533 H 0.61973 0.07181 0.9635 0.0
H534 H 0.66317 0.11453 0.96783 0.0
O535 O 0.82506 0.13932 0.95495 0.0
O536 O 0.82445 0.15711 0.94081 0.0
H537 H 0.61889 0.14442 0.93084 0.0
H538 H 0.6613 0.09936 0.9269 0.0
C539 C 0.65703 0.13168 0.93116 0.0
H540 H 0.68102 0.16077 0.92867 0.0
H541 H 0.77476 0.19233 0.92333 0.0
O542 O 0.76778 0.08231 0.96984 0.0
C543 C 0.84111 0.16352 0.94848 0.0
Co544 Co 0.86759 0.53853 0.70578 0.0
Co545 Co 0.84956 0.5225 0.68586 0.0
C546 C 0.77745 0.57501 0.69594 0.0
O547 O 0.80472 0.57095 0.70264 0.0
O548 O 0.7884 0.55484 0.68873 0.0
C549 C 0.83925 0.52074 0.7234 0.0
O550 O 0.79946 0.50438 0.71973 0.0
C551 C 0.81801 0.50567 0.66766 0.0
C552 C 0.88594 0.47803 0.66182 0.0
C553 C 0.83839 0.49004 0.65985 0.0
N554 N 0.85227 0.50355 0.6739 0.0
N555 N 0.89267 0.48686 0.67036 0.0
C556 C 0.76628 0.5191 0.66938 0.0
H557 H 0.75499 0.50537 0.67586 0.0
H558 H 0.74182 0.50379 0.66434 0.0
H559 H 0.7628 0.55924 0.66941 0.0
C560 C 0.88158 0.43212 0.70505 0.0
N561 N 0.87296 0.47509 0.70119 0.0
N562 N 0.85944 0.4677 0.69311 0.0
C563 C 0.85506 0.41961 0.69172 0.0
C564 C 0.86945 0.39478 0.69926 0.0
C565 C 0.90408 0.42778 0.71391 0.0
H566 H 0.92779 0.45949 0.7152 0.0
H567 H 0.87524 0.42728 0.71895 0.0
H568 H 0.92586 0.39399 0.71444 0.0
O569 O 0.91818 0.58087 0.70132 0.0
O570 O 0.90046 0.57394 0.68727 0.0
H571 H 0.85916 0.38773 0.67901 0.0
H572 H 0.80816 0.3674 0.68545 0.0
C573 C 0.83103 0.39914 0.68376 0.0
H574 H 0.80769 0.42692 0.68065 0.0
H575 H 0.92497 0.48181 0.67379 0.0
O576 O 0.87311 0.53706 0.71862 0.0
C577 C 0.92437 0.59372 0.69345 0.0
Co578 Co 0.71599 0.59864 0.95546 0.0
Co579 Co 0.69978 0.60433 0.93516 0.0
C580 C 0.67162 0.51655 0.94566 0.0
O581 O 0.68595 0.53586 0.95276 0.0
O582 O 0.67748 0.53742 0.9383 0.0
C583 C 0.72357 0.57203 0.97368 0.0
O584 O 0.69769 0.53402 0.97144 0.0
C585 C 0.71193 0.58443 0.91621 0.0
C586 C 0.68385 0.653 0.9107 0.0
C587 C 0.70345 0.6085 0.90835 0.0
N588 N 0.69823 0.61376 0.92281 0.0
N589 N 0.68143 0.65457 0.91944 0.0
C590 C 0.73101 0.53409 0.91753 0.0
H591 H 0.77113 0.53455 0.917 0.0
H592 H 0.71635 0.50921 0.91248 0.0
H593 H 0.72151 0.5204 0.9241 0.0
C594 C 0.81812 0.60899 0.94941 0.0
N595 N 0.76985 0.61029 0.94803 0.0
N596 N 0.76171 0.61942 0.93976 0.0
C597 C 0.80409 0.62865 0.93575 0.0
C598 C 0.84211 0.62089 0.94164 0.0
C599 C 0.83987 0.58932 0.95764 0.0
H600 H 0.81293 0.5673 0.96125 0.0
H601 H 0.87172 0.56604 0.95619 0.0
H602 H 0.85146 0.61992 0.96186 0.0
O603 O 0.661 0.6459 0.95426 0.0
O604 O 0.64867 0.64533 0.93996 0.0
H605 H 0.77568 0.67178 0.92528 0.0
H606 H 0.84088 0.66907 0.92564 0.0
C607 C 0.80715 0.64786 0.92663 0.0
H608 H 0.80623 0.61726 0.92193 0.0
H609 H 0.66837 0.68361 0.92313 0.0
O610 O 0.73592 0.60255 0.96788 0.0
C611 C 0.63633 0.65825 0.9476 0.0
Co612 Co 0.65351 0.46328 0.20818 0.0
Co613 Co 0.67352 0.47464 0.18807 0.0
C614 C 0.74537 0.42643 0.19894 0.0
O615 O 0.71699 0.43143 0.20546 0.0
O616 O 0.7351 0.44471 0.19155 0.0
C617 C 0.63992 0.45282 0.22769 0.0
O618 O 0.61924 0.41015 0.22684 0.0
C619 C 0.7069 0.48311 0.16975 0.0
C620 C 0.64349 0.5183 0.16361 0.0
C621 C 0.6896 0.50086 0.16185 0.0
N622 N 0.67273 0.49034 0.17589 0.0
N623 N 0.63488 0.51116 0.17215 0.0
C624 C 0.75341 0.45655 0.17137 0.0
H625 H 0.74621 0.42387 0.17539 0.0
H626 H 0.77844 0.48042 0.17507 0.0
H627 H 0.77093 0.44499 0.1652 0.0
C628 C 0.63404 0.5675 0.20625 0.0
N629 N 0.6461 0.52443 0.20275 0.0
N630 N 0.66115 0.53092 0.19474 0.0
C631 C 0.66298 0.57893 0.19306 0.0
C632 C 0.6455 0.60431 0.20034 0.0
C633 C 0.60863 0.57213 0.21485 0.0
H634 H 0.58586 0.53961 0.21604 0.0
H635 H 0.63582 0.57438 0.22015 0.0
H636 H 0.58538 0.60503 0.21501 0.0
O637 O 0.60399 0.41765 0.20408 0.0
O638 O 0.62237 0.42395 0.18997 0.0
H639 H 0.65831 0.60914 0.18023 0.0
H640 H 0.70792 0.63229 0.18669 0.0
C641 C 0.68662 0.59936 0.18507 0.0
H642 H 0.71123 0.57217 0.18208 0.0
H643 H 0.60317 0.52064 0.17545 0.0
O644 O 0.65381 0.47586 0.22095 0.0
C645 C 0.59824 0.40447 0.19616 0.0
Co646 Co 0.78608 0.3995 0.45748 0.0
Co647 Co 0.7843 0.39339 0.43704 0.0
C648 C 0.82229 0.48037 0.44526 0.0
O649 O 0.81541 0.46083 0.45271 0.0
O650 O 0.80876 0.45969 0.43824 0.0
C651 C 0.7626 0.45145 0.47281 0.0
O652 O 0.7564 0.48646 0.4671 0.0
C653 C 0.77673 0.40112 0.41784 0.0
C654 C 0.76259 0.32451 0.41435 0.0
C655 C 0.76806 0.37041 0.41082 0.0
N656 N 0.77579 0.37449 0.42519 0.0
N657 N 0.76756 0.32876 0.42305 0.0
C658 C 0.78856 0.45412 0.41761 0.0
H659 H 0.82106 0.46113 0.42167 0.0
H660 H 0.7579 0.475 0.42043 0.0
H661 H 0.79591 0.46695 0.41088 0.0
C662 C 0.68098 0.37842 0.45476 0.0
N663 N 0.72669 0.38405 0.4518 0.0
N664 N 0.72593 0.38476 0.44323 0.0
C665 C 0.67979 0.38146 0.44044 0.0
C666 C 0.64941 0.37667 0.44764 0.0
C667 C 0.66806 0.37545 0.46422 0.0
H668 H 0.69689 0.35588 0.46784 0.0
H669 H 0.66523 0.4127 0.46693 0.0
H670 H 0.63294 0.35655 0.46516 0.0
O671 O 0.8371 0.34925 0.4559 0.0
O672 O 0.83771 0.35293 0.44145 0.0
H673 H 0.66575 0.35549 0.42754 0.0
H674 H 0.6281 0.40612 0.43075 0.0
C675 C 0.66503 0.39035 0.43117 0.0
H676 H 0.69068 0.41582 0.42802 0.0
H677 H 0.76514 0.30048 0.42754 0.0
O678 O 0.77501 0.40957 0.47013 0.0
C679 C 0.85584 0.3379 0.44859 0.0
Co680 Co 0.85256 0.46347 0.80517 0.0
Co681 Co 0.85149 0.46448 0.82567 0.0
C682 C 0.77393 0.41491 0.81467 0.0
O683 O 0.79081 0.42955 0.80741 0.0
O684 O 0.79451 0.42542 0.82187 0.0
C685 C 0.83089 0.46364 0.78664 0.0
O686 O 0.79088 0.44085 0.78882 0.0
C687 C 0.80936 0.49207 0.84259 0.0
C688 C 0.87138 0.48182 0.85152 0.0
C689 C 0.82353 0.49737 0.85128 0.0
N690 N 0.84734 0.47519 0.83799 0.0
N691 N 0.88416 0.46878 0.84337 0.0
C692 C 0.76047 0.50134 0.83868 0.0
H693 H 0.75707 0.54038 0.83702 0.0
H694 H 0.73132 0.49148 0.84335 0.0
H695 H 0.75572 0.48043 0.83259 0.0
C696 C 0.85457 0.57005 0.8082 0.0
N697 N 0.85448 0.52394 0.81114 0.0
N698 N 0.8566 0.52434 0.81971 0.0
C699 C 0.86046 0.57061 0.82248 0.0
C700 C 0.85869 0.60137 0.8153 0.0
C701 C 0.84625 0.58344 0.79885 0.0
H702 H 0.81989 0.55803 0.79587 0.0
H703 H 0.83206 0.62093 0.7982 0.0
H704 H 0.88098 0.58043 0.79523 0.0
O705 O 0.90625 0.41845 0.80878 0.0
O706 O 0.90835 0.42436 0.82324 0.0
H707 H 0.88642 0.62122 0.8322 0.0
H708 H 0.83414 0.58612 0.83532 0.0
C709 C 0.86917 0.58493 0.83178 0.0
H710 H 0.89311 0.55802 0.83499 0.0
H711 H 0.91826 0.45621 0.84146 0.0
O712 O 0.86101 0.47554 0.79253 0.0
C713 C 0.9247 0.40696 0.81613 0.0
Co714 Co 0.7843 0.60619 0.05508 0.0
Co715 Co 0.78341 0.58159 0.07511 0.0
C716 C 0.82076 0.50988 0.06294 0.0
O717 O 0.81238 0.54075 0.05692 0.0
O718 O 0.80924 0.51852 0.07085 0.0
C719 C 0.76122 0.58152 0.03741 0.0
O720 O 0.75023 0.53914 0.04079 0.0
C721 C 0.77474 0.55 0.09367 0.0
C722 C 0.77077 0.62191 0.10006 0.0
C723 C 0.77196 0.57267 0.10174 0.0
N724 N 0.77524 0.58457 0.08747 0.0
N725 N 0.77246 0.62736 0.09135 0.0
C726 C 0.77972 0.49689 0.0919 0.0
H727 H 0.81847 0.48839 0.09067 0.0
H728 H 0.75898 0.48712 0.08595 0.0
H729 H 0.76697 0.47509 0.09754 0.0
C730 C 0.68065 0.62415 0.0586 0.0
N731 N 0.72577 0.61288 0.06124 0.0
N732 N 0.72462 0.59966 0.06948 0.0
C733 C 0.67837 0.60094 0.0723 0.0
C734 C 0.6488 0.61678 0.0655 0.0
C735 C 0.66855 0.64128 0.04959 0.0
H736 H 0.69792 0.66497 0.0471 0.0
H737 H 0.66547 0.60943 0.04519 0.0
H738 H 0.63374 0.66154 0.04952 0.0
O739 O 0.83359 0.65259 0.059 0.0
O740 O 0.83605 0.6287 0.07279 0.0
H741 H 0.66561 0.61139 0.08591 0.0
H742 H 0.62457 0.56896 0.08083 0.0
C743 C 0.6626 0.58195 0.081 0.0
H744 H 0.68644 0.55159 0.08304 0.0
H745 H 0.77278 0.66043 0.08804 0.0
O746 O 0.77531 0.61557 0.04239 0.0
C747 C 0.85255 0.65426 0.06654 0.0
Co748 Co 0.65189 0.527 0.30716 0.0
Co749 Co 0.64551 0.51696 0.32752 0.0
C750 C 0.72916 0.56746 0.31833 0.0
O751 O 0.71388 0.55904 0.31063 0.0
O752 O 0.70571 0.55275 0.32497 0.0
C753 C 0.66717 0.55231 0.28926 0.0
O754 O 0.68613 0.59155 0.29274 0.0
C755 C 0.68004 0.48145 0.34443 0.0
C756 C 0.61791 0.49822 0.35304 0.0
C757 C 0.66391 0.4779 0.35299 0.0
N758 N 0.64488 0.50228 0.33965 0.0
N759 N 0.60791 0.51235 0.34483 0.0
C760 C 0.72884 0.46769 0.34091 0.0
H761 H 0.72955 0.42829 0.33945 0.0
H762 H 0.75754 0.47548 0.34579 0.0
H763 H 0.73667 0.48728 0.33478 0.0
C764 C 0.64605 0.41868 0.30887 0.0
N765 N 0.64573 0.46388 0.31229 0.0
N766 N 0.63959 0.46058 0.32077 0.0
C767 C 0.63344 0.41376 0.32298 0.0
C768 C 0.63831 0.3853 0.31556 0.0
C769 C 0.65765 0.40788 0.29953 0.0
H770 H 0.68513 0.43388 0.29708 0.0
H771 H 0.67156 0.37036 0.29871 0.0
H772 H 0.62429 0.41224 0.29556 0.0
O773 O 0.59792 0.57258 0.31077 0.0
O774 O 0.59248 0.56113 0.32508 0.0
H775 H 0.60057 0.36142 0.33164 0.0
H776 H 0.65289 0.39205 0.33593 0.0
C777 C 0.61979 0.39676 0.33193 0.0
H778 H 0.59595 0.42383 0.33514 0.0
H779 H 0.57586 0.52892 0.34276 0.0
O780 O 0.64983 0.5199 0.29425 0.0
C781 C 0.57843 0.58204 0.31814 0.0
Co782 Co 0.71608 0.40843 0.55253 0.0
Co783 Co 0.72439 0.41799 0.57289 0.0
C784 C 0.67651 0.49464 0.56313 0.0
O785 O 0.68251 0.4692 0.55626 0.0
O786 O 0.69431 0.48142 0.57041 0.0
C787 C 0.73563 0.45438 0.53672 0.0
O788 O 0.7439 0.48995 0.54223 0.0
C789 C 0.7409 0.44357 0.59139 0.0
C790 C 0.74913 0.37064 0.59721 0.0
C791 C 0.74876 0.41965 0.59925 0.0
N792 N 0.73655 0.41007 0.58505 0.0
N793 N 0.7414 0.36661 0.58858 0.0
C794 C 0.74112 0.49711 0.58973 0.0
H795 H 0.75424 0.50475 0.58303 0.0
H796 H 0.76455 0.51617 0.59451 0.0
H797 H 0.70358 0.51126 0.59032 0.0
C798 C 0.82218 0.39136 0.55462 0.0
N799 N 0.7778 0.40097 0.55789 0.0
N800 N 0.7814 0.40734 0.56636 0.0
C801 C 0.82815 0.40296 0.56876 0.0
C802 C 0.85569 0.39208 0.56141 0.0
C803 C 0.83191 0.38057 0.54522 0.0
H804 H 0.80131 0.35974 0.54239 0.0
H805 H 0.83519 0.41526 0.54159 0.0
H806 H 0.86605 0.35965 0.54442 0.0
O807 O 0.6711 0.35539 0.55573 0.0
O808 O 0.67494 0.3688 0.56999 0.0
H809 H 0.84143 0.38056 0.58189 0.0
H810 H 0.88515 0.42357 0.57776 0.0
C811 C 0.84628 0.41333 0.57777 0.0
H812 H 0.82519 0.44347 0.58069 0.0
H813 H 0.73955 0.33418 0.58508 0.0
O814 O 0.7234 0.41307 0.53968 0.0
C815 C 0.65677 0.34663 0.56348 0.0
Co816 Co 0.13827 0.45786 0.30436 0.0
Co817 Co 0.14616 0.4656 0.32494 0.0
C818 C 0.22191 0.41469 0.31459 0.0
O819 O 0.19945 0.42306 0.30747 0.0
O820 O 0.20609 0.4303 0.32189 0.0
C821 C 0.16822 0.47051 0.28627 0.0
O822 O 0.21248 0.47288 0.2894 0.0
C823 C 0.18167 0.48128 0.34311 0.0
C824 C 0.11635 0.51124 0.34948 0.0
C825 C 0.16462 0.50005 0.35098 0.0
N826 N 0.14536 0.48218 0.33722 0.0
N827 N 0.10635 0.49976 0.34112 0.0
C828 C 0.23083 0.46065 0.34126 0.0
H829 H 0.25035 0.4849 0.33667 0.0
H830 H 0.25244 0.45585 0.3473 0.0
H831 H 0.2268 0.42472 0.33808 0.0
C832 C 0.1273 0.56288 0.30606 0.0
N833 N 0.13318 0.51899 0.3097 0.0
N834 N 0.14226 0.52378 0.31806 0.0
C835 C 0.1471 0.57158 0.31986 0.0
C836 C 0.13745 0.59848 0.31228 0.0
C837 C 0.10813 0.56959 0.29699 0.0
H838 H 0.08233 0.54002 0.2954 0.0
H839 H 0.13852 0.56782 0.29226 0.0
H840 H 0.08907 0.60488 0.29631 0.0
O841 O 0.08532 0.41765 0.30814 0.0
O842 O 0.09034 0.4186 0.32262 0.0
H843 H 0.13634 0.60017 0.33269 0.0
H844 H 0.19021 0.62231 0.32729 0.0
C845 C 0.16686 0.59008 0.32833 0.0
H846 H 0.18882 0.56166 0.33157 0.0
H847 H 0.07305 0.5048 0.33802 0.0
O848 O 0.1329 0.46406 0.29147 0.0
C849 C 0.07055 0.40365 0.31556 0.0
Co850 Co 0.28374 0.41485 0.04986 0.0
Co851 Co 0.27929 0.41371 0.0705 0.0
C852 C 0.3268 0.49432 0.06145 0.0
O853 O 0.31889 0.47364 0.05414 0.0
O854 O 0.31106 0.47647 0.06855 0.0
C855 C 0.26117 0.46535 0.03444 0.0
O856 O 0.25387 0.49952 0.04028 0.0
C857 C 0.28214 0.43274 0.08957 0.0
C858 C 0.22733 0.38127 0.09446 0.0
C859 C 0.25774 0.41852 0.09715 0.0
N860 N 0.26544 0.40636 0.0828 0.0
N861 N 0.23346 0.37496 0.08583 0.0
C862 C 0.32353 0.46754 0.0888 0.0
H863 H 0.3476 0.45673 0.08333 0.0
H864 H 0.30921 0.50445 0.08745 0.0
H865 H 0.34526 0.46829 0.09488 0.0
C866 C 0.1798 0.39808 0.052 0.0
N867 N 0.22389 0.40521 0.05545 0.0
N868 N 0.22014 0.4117 0.0639 0.0
C869 C 0.1726 0.41424 0.06598 0.0
C870 C 0.14479 0.40474 0.0585 0.0
C871 C 0.17303 0.38083 0.04281 0.0
H872 H 0.20531 0.35988 0.04067 0.0
H873 H 0.16917 0.41253 0.0384 0.0
H874 H 0.14054 0.35732 0.04224 0.0
O875 O 0.32587 0.3604 0.05222 0.0
O876 O 0.32784 0.36135 0.06675 0.0
H877 H 0.14345 0.40243 0.07876 0.0
H878 H 0.12353 0.45786 0.07364 0.0
C879 C 0.15493 0.43317 0.07458 0.0
H880 H 0.18411 0.45344 0.07796 0.0
H881 H 0.21503 0.34988 0.08196 0.0
O882 O 0.27426 0.42346 0.03702 0.0
C883 C 0.3422 0.3442 0.05941 0.0
Co884 Co 0.34346 0.51828 0.80428 0.0
Co885 Co 0.36774 0.52154 0.82449 0.0
C886 C 0.27764 0.56777 0.81674 0.0
O887 O 0.28743 0.55561 0.80892 0.0
O888 O 0.30522 0.55562 0.82305 0.0
C889 C 0.28988 0.50472 0.78836 0.0
O890 O 0.25302 0.51028 0.7937 0.0
C891 C 0.35174 0.49808 0.84316 0.0
C892 C 0.42001 0.52435 0.84895 0.0
C893 C 0.37604 0.50297 0.85116 0.0
N894 N 0.38032 0.51561 0.83676 0.0
N895 N 0.42098 0.5313 0.84029 0.0
C896 C 0.30318 0.4762 0.84137 0.0
H897 H 0.29693 0.47324 0.83423 0.0
H898 H 0.301 0.43947 0.84431 0.0
H899 H 0.27441 0.49951 0.84422 0.0
C900 C 0.34638 0.41056 0.80883 0.0
N901 N 0.3521 0.4582 0.81073 0.0
N902 N 0.36849 0.46157 0.81875 0.0
C903 C 0.37814 0.41725 0.82191 0.0
C904 C 0.36273 0.38256 0.8159 0.0
C905 C 0.32121 0.3929 0.80079 0.0
H906 H 0.29848 0.42201 0.79797 0.0
H907 H 0.29766 0.36138 0.8023 0.0
H908 H 0.34866 0.38177 0.79588 0.0
O909 O 0.40171 0.56337 0.80532 0.0
O910 O 0.41744 0.5623 0.81955 0.0
H911 H 0.42756 0.37463 0.82975 0.0
H912 H 0.38261 0.40859 0.8358 0.0
C913 C 0.40709 0.40931 0.83007 0.0
H914 H 0.43317 0.4395 0.83098 0.0
H915 H 0.44938 0.54695 0.83678 0.0
O916 O 0.33268 0.50578 0.79146 0.0
C917 C 0.42683 0.57697 0.81189 0.0
Co918 Co 0.21645 0.59883 0.55394 0.0
Co919 Co 0.22056 0.57949 0.57445 0.0
C920 C 0.17791 0.5068 0.5628 0.0
O921 O 0.18515 0.53529 0.55638 0.0
O922 O 0.19275 0.51728 0.57044 0.0
C923 C 0.25129 0.5644 0.53805 0.0
O924 O 0.26616 0.53117 0.54359 0.0
C925 C 0.2404 0.54363 0.59262 0.0
C926 C 0.24485 0.61324 0.59972 0.0
C927 C 0.24956 0.56356 0.60083 0.0
N928 N 0.23173 0.58005 0.58694 0.0
N929 N 0.23399 0.62143 0.59129 0.0
C930 C 0.23804 0.49094 0.59027 0.0
H931 H 0.27258 0.47987 0.58713 0.0
H932 H 0.23179 0.46811 0.59612 0.0
H933 H 0.20831 0.48461 0.58555 0.0
C934 C 0.32116 0.61801 0.55724 0.0
N935 N 0.27637 0.60584 0.56001 0.0
N936 N 0.27847 0.59486 0.56836 0.0
C937 C 0.32479 0.59818 0.57108 0.0
C938 C 0.35347 0.61338 0.56414 0.0
C939 C 0.33263 0.6354 0.54822 0.0
H940 H 0.30106 0.65486 0.54542 0.0
H941 H 0.34127 0.60379 0.54401 0.0
H942 H 0.36459 0.65985 0.5483 0.0
O943 O 0.16845 0.64778 0.55784 0.0
O944 O 0.16973 0.62924 0.57198 0.0
H945 H 0.33415 0.61137 0.58472 0.0
H946 H 0.38092 0.57368 0.57999 0.0
C947 C 0.34164 0.58219 0.57991 0.0
H948 H 0.32157 0.54927 0.5819 0.0
H949 H 0.22895 0.65548 0.58845 0.0
O950 O 0.22732 0.60041 0.54098 0.0
C951 C 0.15217 0.65316 0.56557 0.0
Co952 Co 0.14823 0.5348 0.20453 0.0
Co953 Co 0.17271 0.53213 0.18433 0.0
C954 C 0.24164 0.57608 0.19672 0.0
O955 O 0.21203 0.56582 0.20284 0.0
O956 O 0.23287 0.56434 0.1888 0.0
C957 C 0.17142 0.51872 0.22264 0.0
O958 O 0.21624 0.51738 0.21975 0.0
C959 C 0.20862 0.52069 0.16588 0.0
C960 C 0.14244 0.49034 0.15986 0.0
C961 C 0.18994 0.50286 0.15807 0.0
N962 N 0.17357 0.51838 0.17201 0.0
N963 N 0.1341 0.50069 0.1683 0.0
C964 C 0.25949 0.53648 0.16767 0.0
H965 H 0.26098 0.57673 0.16761 0.0
H966 H 0.27083 0.52398 0.17424 0.0
H967 H 0.28488 0.52214 0.16267 0.0
C968 C 0.13882 0.42941 0.20164 0.0
N969 N 0.14633 0.47481 0.19868 0.0
N970 N 0.15951 0.47301 0.19044 0.0
C971 C 0.16183 0.42605 0.18795 0.0
C972 C 0.14832 0.39688 0.19494 0.0
C973 C 0.12343 0.41755 0.21075 0.0
H974 H 0.09615 0.44432 0.21303 0.0
H975 H 0.1554 0.41962 0.21513 0.0
H976 H 0.10781 0.38051 0.21115 0.0
O977 O 0.09982 0.581 0.2 0.0
O978 O 0.11963 0.58071 0.18596 0.0
H979 H 0.15277 0.40762 0.17451 0.0
H980 H 0.1984 0.37239 0.18001 0.0
C981 C 0.18226 0.40915 0.17942 0.0
H982 H 0.21055 0.43465 0.17711 0.0
H983 H 0.1016 0.49463 0.17161 0.0
O984 O 0.13698 0.52574 0.21726 0.0
C985 C 0.09432 0.59706 0.19228 0.0
Co986 Co 0.20652 0.42694 0.95458 0.0
Co987 Co 0.20777 0.40405 0.93432 0.0
C988 C 0.1629 0.49537 0.94167 0.0
O989 O 0.17371 0.48542 0.94955 0.0
O990 O 0.17499 0.46712 0.93547 0.0
C991 C 0.22125 0.4793 0.97058 0.0
O992 O 0.22106 0.51688 0.96531 0.0
C993 C 0.23628 0.42684 0.91638 0.0
C994 C 0.22635 0.35734 0.90945 0.0
C995 C 0.24193 0.40471 0.90831 0.0
N996 N 0.21869 0.39405 0.92205 0.0
N997 N 0.21218 0.3527 0.91783 0.0
C998 C 0.24594 0.47882 0.91866 0.0
H999 H 0.21265 0.5003 0.91737 0.0
H1000 H 0.25483 0.48233 0.9257 0.0
H1001 H 0.27557 0.49426 0.91466 0.0
C1002 C 0.3115 0.40818 0.95235 0.0
N1003 N 0.26633 0.41172 0.94908 0.0
N1004 N 0.26756 0.40298 0.94064 0.0
C1005 C 0.314 0.39488 0.93822 0.0
C1006 C 0.34361 0.39794 0.94558 0.0
C1007 C 0.32311 0.41253 0.96186 0.0
H1008 H 0.29616 0.3919 0.96573 0.0
H1009 H 0.32093 0.45124 0.96383 0.0
H1010 H 0.35981 0.39829 0.96336 0.0
O1011 O 0.16119 0.37262 0.95309 0.0
O1012 O 0.1608 0.35474 0.93892 0.0
H1013 H 0.30812 0.36029 0.92574 0.0
H1014 H 0.36859 0.381 0.92818 0.0
C1015 C 0.32965 0.3893 0.92891 0.0
H1016 H 0.32289 0.42379 0.92543 0.0
H1017 H 0.19921 0.32096 0.92073 0.0
O1018 O 0.21582 0.43704 0.96739 0.0
C1019 C 0.1455 0.34767 0.94669 0.0
Co1020 Co 0.32824 0.46953 0.70756 0.0
Co1021 Co 0.34566 0.46825 0.68695 0.0
C1022 C 0.25399 0.43111 0.69488 0.0
O1023 O 0.26737 0.44277 0.70255 0.0
O1024 O 0.28069 0.43928 0.68826 0.0
C1025 C 0.2835 0.46029 0.72445 0.0
O1026 O 0.2523 0.43471 0.7199 0.0
C1027 C 0.32967 0.47941 0.66781 0.0
C1028 C 0.40509 0.48286 0.66301 0.0
C1029 C 0.35729 0.48307 0.66024 0.0
N1030 N 0.35993 0.47739 0.67472 0.0
N1031 N 0.40491 0.47978 0.67178 0.0
C1032 C 0.27588 0.47361 0.6685 0.0
H1033 H 0.26765 0.43604 0.67064 0.0
H1034 H 0.26158 0.49872 0.67355 0.0
H1035 H 0.25738 0.4803 0.6622 0.0
C1036 C 0.35008 0.57289 0.70491 0.0
N1037 N 0.34597 0.52743 0.70182 0.0
N1038 N 0.35015 0.52802 0.69326 0.0
C1039 C 0.35507 0.57445 0.69061 0.0
C1040 C 0.35544 0.60465 0.69792 0.0
C1041 C 0.34905 0.58507 0.71443 0.0
H1042 H 0.36999 0.55756 0.71814 0.0
H1043 H 0.31101 0.58413 0.71679 0.0
H1044 H 0.36469 0.62147 0.71571 0.0
O1045 O 0.37772 0.41924 0.70581 0.0
O1046 O 0.39183 0.41787 0.69152 0.0
H1047 H 0.38901 0.58374 0.67819 0.0
H1048 H 0.34238 0.62814 0.68049 0.0
C1049 C 0.35296 0.58954 0.68123 0.0
H1050 H 0.32616 0.56694 0.67771 0.0
H1051 H 0.43556 0.47835 0.67576 0.0
O1052 O 0.31951 0.47933 0.72053 0.0
C1053 C 0.39938 0.40146 0.69919 0.0
Co1054 Co 0.27644 0.58446 0.45697 0.0
Co1055 Co 0.28426 0.5945 0.43633 0.0
C1056 C 0.32695 0.50967 0.44591 0.0
O1057 O 0.31258 0.52645 0.45321 0.0
O1058 O 0.31697 0.53088 0.43873 0.0
C1059 C 0.30193 0.56735 0.47431 0.0
O1060 O 0.34276 0.55888 0.47015 0.0
C1061 C 0.26656 0.57421 0.4174 0.0
C1062 C 0.29173 0.64311 0.41161 0.0
C1063 C 0.27366 0.59778 0.40946 0.0
N1064 N 0.27986 0.60443 0.4239 0.0
N1065 N 0.29444 0.64563 0.42036 0.0
C1066 C 0.25088 0.52282 0.41874 0.0
H1067 H 0.21211 0.51914 0.41694 0.0
H1068 H 0.27209 0.49835 0.41442 0.0
H1069 H 0.25545 0.5119 0.42565 0.0
C1070 C 0.17252 0.59464 0.45289 0.0
N1071 N 0.21922 0.59295 0.45038 0.0
N1072 N 0.22195 0.59915 0.44188 0.0
C1073 C 0.17675 0.6063 0.43874 0.0
C1074 C 0.1438 0.6036 0.44562 0.0
C1075 C 0.15599 0.58364 0.46199 0.0
H1076 H 0.17993 0.55587 0.46496 0.0
H1077 H 0.11816 0.57006 0.46208 0.0
H1078 H 0.15821 0.61718 0.46598 0.0
O1079 O 0.32115 0.6389 0.45521 0.0
O1080 O 0.32996 0.64502 0.44085 0.0
H1081 H 0.12925 0.63451 0.42872 0.0
H1082 H 0.16623 0.58332 0.42557 0.0
C1083 C 0.16553 0.61746 0.4294 0.0
H1084 H 0.19324 0.64239 0.42671 0.0
H1085 H 0.30731 0.67522 0.42392 0.0
O1086 O 0.26493 0.57992 0.46989 0.0
C1087 C 0.34101 0.65826 0.44857 0.0
H1088 H 0.35146 0.91476 0.15002 0.0
H1089 H 0.27997 0.05414 0.15293 0.0
H1090 H 0.24786 0.04722 0.13791 0.0
H1091 H 0.3879 0.93037 0.12795 0.0
H1092 H 0.37768 0.86796 0.12494 0.0
H1093 H 0.3932 0.88306 0.13602 0.0
H1094 H 0.31569 0.83971 0.14155 0.0
H1095 H 0.3001 0.82415 0.13048 0.0
H1096 H 0.25749 0.85699 0.13718 0.0
H1097 H 0.22574 0.0257 0.12236 0.0
H1098 H 0.21279 0.99009 0.10776 0.0
H1099 H 0.29996 0.86538 0.11505 0.0
C1100 C 0.3287 0.94364 0.14751 0.0
C1101 C 0.31735 0.98453 0.15268 0.0
C1102 C 0.28787 0.02182 0.14917 0.0
C1103 C 0.2699 0.01842 0.14062 0.0
C1104 C 0.28187 0.97754 0.13569 0.0
C1105 C 0.31037 0.9407 0.13904 0.0
C1106 C 0.31835 0.90078 0.1324 0.0
C1107 C 0.37249 0.89525 0.1302 0.0
C1108 C 0.29659 0.85256 0.13559 0.0
C1109 C 0.2902 0.92104 0.12476 0.0
C1110 C 0.26952 0.9654 0.12677 0.0
C1111 C 0.24202 0.99114 0.1207 0.0
C1112 C 0.23536 0.97089 0.11239 0.0
C1113 C 0.25631 0.92549 0.11021 0.0
C1114 C 0.28377 0.90029 0.11652 0.0
H1115 H 0.27124 0.02719 0.40419 0.0
H1116 H 0.13141 0.09186 0.39841 0.0
H1117 H 0.14002 0.0678 0.38298 0.0
H1118 H 0.32916 0.06566 0.38528 0.0
H1119 H 0.36504 0.01161 0.38372 0.0
H1120 H 0.34569 0.02861 0.39451 0.0
H1121 H 0.30511 0.94461 0.39653 0.0
H1122 H 0.32466 0.92715 0.38576 0.0
H1123 H 0.26138 0.92386 0.38863 0.0
H1124 H 0.16725 0.04491 0.36803 0.0
H1125 H 0.21089 0.02351 0.35455 0.0
H1126 H 0.33191 0.97054 0.36994 0.0
C1127 C 0.24169 0.03473 0.39975 0.0
C1128 C 0.20019 0.06059 0.40254 0.0
C1129 C 0.16336 0.07179 0.39642 0.0
C1130 C 0.16782 0.05813 0.38765 0.0
C1131 C 0.2094 0.03327 0.38508 0.0
C1132 C 0.24564 0.02142 0.39095 0.0
C1133 C 0.28818 0.99769 0.38635 0.0
C1134 C 0.33475 0.0277 0.38754 0.0
C1135 C 0.29523 0.9452 0.3895 0.0
C1136 C 0.2706 0.99911 0.37698 0.0
C1137 C 0.22491 0.01941 0.37641 0.0
C1138 C 0.20245 0.02763 0.3684 0.0
C1139 C 0.22734 0.01477 0.36076 0.0
C1140 C 0.27404 0.99345 0.36118 0.0
C1141 C 0.29577 0.98569 0.36942 0.0
H1142 H 0.16762 0.97205 0.64344 0.0
H1143 H 0.24417 0.07782 0.65927 0.0
H1144 H 0.28013 0.1129 0.64605 0.0
H1145 H 0.2602 0.95688 0.62644 0.0
H1146 H 0.21608 0.95347 0.61779 0.0
H1147 H 0.20071 0.93261 0.62858 0.0
H1148 H 0.12656 0.99048 0.62882 0.0
H1149 H 0.14165 0.01144 0.61804 0.0
H1150 H 0.13541 0.05437 0.62685 0.0
H1151 H 0.30356 0.14026 0.63111 0.0
H1152 H 0.31154 0.15917 0.61548 0.0
H1153 H 0.2154 0.03943 0.60922 0.0
C1154 C 0.19264 0.00206 0.64415 0.0
C1155 C 0.20447 0.02078 0.65248 0.0
C1156 C 0.23635 0.06093 0.65308 0.0
C1157 C 0.25656 0.08164 0.64556 0.0
C1158 C 0.24415 0.06221 0.63747 0.0
C1159 C 0.21279 0.02343 0.6367 0.0
C1160 C 0.20262 0.01173 0.62721 0.0
C1161 C 0.22101 0.96064 0.62487 0.0
C1162 C 0.14835 0.01736 0.62511 0.0
C1163 C 0.23258 0.05055 0.62276 0.0
C1164 C 0.25661 0.07891 0.6288 0.0
C1165 C 0.28525 0.11804 0.62631 0.0
C1166 C 0.28936 0.12859 0.61741 0.0
C1167 C 0.26488 0.10028 0.61106 0.0
C1168 C 0.23607 0.06075 0.61382 0.0
H1169 H 0.13661 0.92894 0.86576 0.0
H1170 H 0.24414 0.03906 0.86012 0.0
H1171 H 0.2823 0.0246 0.87452 0.0
H1172 H 0.12257 0.953 0.88846 0.0
H1173 H 0.11742 0.89012 0.89156 0.0
H1174 H 0.09868 0.90924 0.88085 0.0
H1175 H 0.15656 0.84614 0.87383 0.0
H1176 H 0.1752 0.82654 0.88453 0.0
H1177 H 0.2199 0.84637 0.87673 0.0
H1178 H 0.30487 0.00172 0.89005 0.0
H1179 H 0.31644 0.96515 0.90468 0.0
H1180 H 0.19851 0.86528 0.89964 0.0
C1181 C 0.16838 0.94973 0.86757 0.0
C1182 C 0.18766 0.985 0.86186 0.0
C1183 C 0.2293 0.01148 0.86438 0.0
C1184 C 0.25094 0.00372 0.87256 0.0
C1185 C 0.23088 0.96882 0.87807 0.0
C1186 C 0.19106 0.94162 0.87561 0.0
C1187 C 0.17745 0.90529 0.88262 0.0
C1188 C 0.12598 0.91502 0.88607 0.0
C1189 C 0.1826 0.85299 0.87922 0.0
C1190 C 0.21541 0.91666 0.88946 0.0
C1191 C 0.24549 0.95389 0.88677 0.0
C1192 C 0.28189 0.97218 0.89217 0.0
C1193 C 0.28805 0.95145 0.90047 0.0
C1194 C 0.25849 0.91243 0.90322 0.0
C1195 C 0.22186 0.89482 0.89763 0.0
H1196 H 0.68574 0.1288 0.89775 0.0
H1197 H 0.80059 0.02624 0.90353 0.0
H1198 H 0.78896 0.98771 0.88909 0.0
H1199 H 0.60826 0.04239 0.88681 0.0
H1200 H 0.58645 0.08562 0.8789 0.0
H1201 H 0.60512 0.10596 0.88955 0.0
H1202 H 0.66556 0.16596 0.88241 0.0
H1203 H 0.64726 0.1456 0.87174 0.0
H1204 H 0.71026 0.14334 0.87484 0.0
H1205 H 0.76659 0.96238 0.87377 0.0
H1206 H 0.72953 0.94671 0.85933 0.0
H1207 H 0.62552 0.062 0.86393 0.0
C1208 C 0.70838 0.09825 0.89595 0.0
C1209 C 0.74396 0.08027 0.90172 0.0
C1210 C 0.77275 0.04007 0.89921 0.0
C1211 C 0.76662 0.01823 0.89101 0.0
C1212 C 0.73113 0.03672 0.88545 0.0
C1213 C 0.70202 0.07539 0.88785 0.0
C1214 C 0.66514 0.0869 0.88082 0.0
C1215 C 0.61317 0.07977 0.88422 0.0
C1216 C 0.67252 0.13851 0.87724 0.0
C1217 C 0.67823 0.04888 0.87407 0.0
C1218 C 0.71685 0.02074 0.87681 0.0
C1219 C 0.73621 0.98406 0.87158 0.0
C1220 C 0.7152 0.97561 0.86337 0.0
C1221 C 0.67494 0.0033 0.86054 0.0
C1222 C 0.65624 0.04026 0.86598 0.0
H1223 H 0.65741 0.04965 0.64291 0.0
H1224 H 0.75594 0.96513 0.65891 0.0
H1225 H 0.79378 0.93148 0.64568 0.0
H1226 H 0.63579 0.95823 0.6275 0.0
H1227 H 0.63248 0.99806 0.61819 0.0
H1228 H 0.61705 0.0205 0.62887 0.0
H1229 H 0.6805 0.08915 0.62724 0.0
H1230 H 0.6961 0.06694 0.61654 0.0
H1231 H 0.74253 0.07392 0.62472 0.0
H1232 H 0.81516 0.90021 0.63089 0.0
H1233 H 0.8196 0.87462 0.61545 0.0
H1234 H 0.70739 0.97848 0.60882 0.0
C1235 C 0.68775 0.02496 0.64361 0.0
C1236 C 0.70496 0.01157 0.65196 0.0
C1237 C 0.74366 0.97792 0.65262 0.0
C1238 C 0.76506 0.9581 0.64512 0.0
C1239 C 0.74724 0.97204 0.63699 0.0
C1240 C 0.70956 0.00482 0.63617 0.0
C1241 C 0.69508 0.01105 0.62668 0.0
C1242 C 0.64196 0.99605 0.62523 0.0
C1243 C 0.70411 0.06338 0.62361 0.0
C1244 C 0.72978 0.97584 0.62232 0.0
C1245 C 0.75969 0.95393 0.6284 0.0
C1246 C 0.79257 0.91775 0.62606 0.0
C1247 C 0.79479 0.90339 0.61729 0.0
C1248 C 0.76467 0.9254 0.61095 0.0
C1249 C 0.73195 0.96228 0.6135 0.0
H1250 H 0.71058 0.90918 0.39518 0.0
H1251 H 0.83838 0.93796 0.41079 0.0
H1252 H 0.88129 0.96772 0.39769 0.0
H1253 H 0.7724 0.86898 0.37576 0.0
H1254 H 0.73127 0.89818 0.36828 0.0
H1255 H 0.71008 0.87888 0.37884 0.0
H1256 H 0.68048 0.9662 0.38218 0.0
H1257 H 0.70123 0.98565 0.3716 0.0
H1258 H 0.72242 0.01609 0.38129 0.0
H1259 H 0.91105 0.99171 0.38306 0.0
H1260 H 0.92567 0.01368 0.36783 0.0
H1261 H 0.77692 0.97474 0.36147 0.0
C1262 C 0.74751 0.92203 0.3958 0.0
C1263 C 0.77123 0.9219 0.40398 0.0
C1264 C 0.81954 0.9386 0.40459 0.0
C1265 C 0.84421 0.95527 0.39718 0.0
C1266 C 0.81993 0.95521 0.38921 0.0
C1267 C 0.77255 0.93954 0.38845 0.0
C1268 C 0.75494 0.94444 0.37909 0.0
C1269 C 0.74138 0.89465 0.37527 0.0
C1270 C 0.71224 0.98023 0.37851 0.0
C1271 C 0.80002 0.96484 0.37472 0.0
C1272 C 0.83698 0.97035 0.38071 0.0
C1273 C 0.88227 0.98782 0.37831 0.0
C1274 C 0.89008 0.00033 0.36958 0.0
C1275 C 0.8528 0.99585 0.36323 0.0
C1276 C 0.80696 0.97785 0.36592 0.0
H1277 H 0.83292 0.98802 0.14375 0.0
H1278 H 0.72091 0.05276 0.1599 0.0
H1279 H 0.68021 0.08375 0.14676 0.0
H1280 H 0.84206 0.08692 0.12917 0.0
H1281 H 0.85307 0.05026 0.11963 0.0
H1282 H 0.87062 0.0283 0.13022 0.0
H1283 H 0.81965 0.95054 0.12779 0.0
H1284 H 0.8019 0.97232 0.11717 0.0
H1285 H 0.75629 0.95594 0.12506 0.0
H1286 H 0.65448 0.11264 0.13196 0.0
H1287 H 0.64589 0.13793 0.11661 0.0
H1288 H 0.77684 0.05836 0.11004 0.0
C1289 C 0.79932 0.00797 0.14451 0.0
C1290 C 0.77917 0.01613 0.15289 0.0
C1291 C 0.73589 0.04363 0.1536 0.0
C1292 C 0.71277 0.06204 0.14614 0.0
C1293 C 0.73357 0.05319 0.13801 0.0
C1294 C 0.77596 0.0269 0.13714 0.0
C1295 C 0.79244 0.02528 0.12769 0.0
C1296 C 0.84251 0.04912 0.12662 0.0
C1297 C 0.79256 0.9729 0.12423 0.0
C1298 C 0.75298 0.05528 0.12339 0.0
C1299 C 0.71926 0.07074 0.12946 0.0
C1300 C 0.68043 0.10037 0.12714 0.0
C1301 C 0.67598 0.11468 0.1184 0.0
C1302 C 0.71008 0.09945 0.11204 0.0
C1303 C 0.74911 0.0693 0.11462 0.0
H1304 H 0.85647 0.42217 0.64739 0.0
H1305 H 0.77356 0.55334 0.65226 0.0
H1306 H 0.74045 0.54948 0.63729 0.0
H1307 H 0.88912 0.45091 0.62548 0.0
H1308 H 0.8847 0.38919 0.62166 0.0
H1309 H 0.89998 0.40118 0.63287 0.0
H1310 H 0.82778 0.34812 0.63798 0.0
H1311 H 0.81244 0.33573 0.62678 0.0
H1312 H 0.76765 0.36133 0.63401 0.0
H1313 H 0.71731 0.53137 0.62163 0.0
H1314 H 0.70564 0.5002 0.60666 0.0
H1315 H 0.80652 0.38297 0.61201 0.0
C1316 C 0.83105 0.44989 0.64533 0.0
C1317 C 0.81654 0.48729 0.65106 0.0
C1318 C 0.78376 0.52329 0.64809 0.0
C1319 C 0.7652 0.52172 0.63957 0.0
C1320 C 0.78014 0.48414 0.63409 0.0
C1321 C 0.81232 0.44888 0.63687 0.0
C1322 C 0.82335 0.4128 0.6297 0.0
C1323 C 0.87749 0.4136 0.62729 0.0
C1324 C 0.8068 0.36146 0.63227 0.0
C1325 C 0.79246 0.4333 0.62243 0.0
C1326 C 0.76781 0.47446 0.62507 0.0
C1327 C 0.73681 0.49944 0.61946 0.0
C1328 C 0.73085 0.4818 0.61093 0.0
C1329 C 0.75609 0.43985 0.6081 0.0
C1330 C 0.78699 0.41533 0.61397 0.0
H1331 H 0.83924 0.47771 0.86853 0.0
H1332 H 0.74877 0.5649 0.85143 0.0
H1333 H 0.70445 0.59606 0.86409 0.0
H1334 H 0.74931 0.4505 0.88515 0.0
H1335 H 0.79122 0.4581 0.89406 0.0
H1336 H 0.8129 0.43802 0.88357 0.0
H1337 H 0.87401 0.50937 0.88318 0.0
H1338 H 0.85275 0.52942 0.89368 0.0
H1339 H 0.8522 0.57063 0.88455 0.0
H1340 H 0.67102 0.61984 0.87859 0.0
H1341 H 0.65492 0.63952 0.89398 0.0
H1342 H 0.77284 0.54426 0.90179 0.0
C1343 C 0.80967 0.50288 0.86743 0.0
C1344 C 0.79605 0.51667 0.85887 0.0
C1345 C 0.75817 0.55096 0.85778 0.0
C1346 C 0.73308 0.56963 0.86499 0.0
C1347 C 0.74695 0.5546 0.87329 0.0
C1348 C 0.78481 0.52257 0.87457 0.0
C1349 C 0.79495 0.51543 0.8842 0.0
C1350 C 0.78658 0.46235 0.8869 0.0
C1351 C 0.84653 0.53223 0.88654 0.0
C1352 C 0.75692 0.54865 0.88813 0.0
C1353 C 0.72929 0.57037 0.88171 0.0
C1354 C 0.69235 0.60298 0.88368 0.0
C1355 C 0.68362 0.614 0.89246 0.0
C1356 C 0.71188 0.59283 0.89919 0.0
C1357 C 0.74913 0.55977 0.89694 0.0
H1358 H 0.69885 0.52593 0.11018 0.0
H1359 H 0.84662 0.57593 0.11314 0.0
H1360 H 0.84477 0.55372 0.12878 0.0
H1361 H 0.65658 0.5751 0.12936 0.0
H1362 H 0.61528 0.52678 0.1321 0.0
H1363 H 0.63087 0.53778 0.12088 0.0
H1364 H 0.65974 0.44872 0.11921 0.0
H1365 H 0.64373 0.43724 0.13043 0.0
H1366 H 0.70439 0.42479 0.12665 0.0
H1367 H 0.82343 0.53638 0.14431 0.0
H1368 H 0.78432 0.52496 0.15864 0.0
H1369 H 0.64953 0.48738 0.14577 0.0
C1370 C 0.73125 0.53031 0.11409 0.0
C1371 C 0.77333 0.5513 0.11051 0.0
C1372 C 0.81454 0.5588 0.11581 0.0
C1373 C 0.81374 0.54636 0.12467 0.0
C1374 C 0.77127 0.52678 0.12811 0.0
C1375 C 0.7308 0.51856 0.12299 0.0
C1376 C 0.68816 0.5021 0.12847 0.0
C1377 C 0.64522 0.53757 0.12765 0.0
C1378 C 0.67313 0.45011 0.12604 0.0
C1379 C 0.71049 0.50394 0.1375 0.0
C1380 C 0.75868 0.51747 0.13713 0.0
C1381 C 0.78609 0.52455 0.14467 0.0
C1382 C 0.76367 0.51765 0.15279 0.0
C1383 C 0.71434 0.50387 0.1533 0.0
C1384 C 0.68757 0.49701 0.14555 0.0
H1385 H 0.71918 0.44717 0.40362 0.0
H1386 H 0.80233 0.31854 0.39706 0.0
H1387 H 0.78866 0.33443 0.38137 0.0
H1388 H 0.62994 0.43278 0.38761 0.0
H1389 H 0.62358 0.49654 0.38522 0.0
H1390 H 0.64327 0.47741 0.39587 0.0
H1391 H 0.72057 0.53019 0.39442 0.0
H1392 H 0.70093 0.54981 0.38378 0.0
H1393 H 0.75973 0.52214 0.38511 0.0
H1394 H 0.76135 0.36124 0.36656 0.0
H1395 H 0.72236 0.39697 0.35361 0.0
H1396 H 0.65882 0.5096 0.36979 0.0
C1397 C 0.7358 0.42327 0.39887 0.0
C1398 C 0.76289 0.38235 0.4015 0.0
C1399 C 0.78199 0.35043 0.39513 0.0
C1400 C 0.77453 0.35923 0.38623 0.0
C1401 C 0.74766 0.39996 0.38384 0.0
C1402 C 0.72865 0.43152 0.38997 0.0
C1403 C 0.69884 0.47108 0.3857 0.0
C1404 C 0.64577 0.46931 0.38878 0.0
C1405 C 0.72138 0.52128 0.38735 0.0
C1406 C 0.70344 0.45639 0.37622 0.0
C1407 C 0.732 0.41548 0.37528 0.0
C1408 C 0.73978 0.3939 0.36718 0.0
C1409 C 0.71788 0.41481 0.35984 0.0
C1410 C 0.68883 0.45699 0.36065 0.0
C1411 C 0.68143 0.47774 0.36897 0.0
H1412 H 0.1331 0.49123 0.36789 0.0
H1413 H 0.25574 0.53871 0.35239 0.0
H1414 H 0.299 0.56233 0.36581 0.0
H1415 H 0.13756 0.58772 0.38315 0.0
H1416 H 0.12067 0.55145 0.39245 0.0
H1417 H 0.10085 0.53422 0.3817 0.0
H1418 H 0.13975 0.44934 0.38373 0.0
H1419 H 0.1598 0.46638 0.3945 0.0
H1420 H 0.20302 0.44476 0.38657 0.0
H1421 H 0.32645 0.58676 0.38068 0.0
H1422 H 0.3368 0.60988 0.39612 0.0
H1423 H 0.19688 0.54691 0.40226 0.0
C1424 C 0.16941 0.50585 0.36735 0.0
C1425 C 0.19174 0.51152 0.3591 0.0
C1426 C 0.23874 0.53198 0.35864 0.0
C1427 C 0.26342 0.54598 0.36623 0.0
C1428 C 0.24059 0.53955 0.37426 0.0
C1429 C 0.19467 0.51991 0.37489 0.0
C1430 C 0.17754 0.51914 0.38432 0.0
C1431 C 0.13143 0.54998 0.38547 0.0
C1432 C 0.16957 0.46679 0.38746 0.0
C1433 C 0.22069 0.54219 0.38886 0.0
C1434 C 0.25665 0.55352 0.38291 0.0
C1435 C 0.29885 0.57746 0.38541 0.0
C1436 C 0.30436 0.59053 0.39419 0.0
C1437 C 0.26813 0.57937 0.40042 0.0
C1438 C 0.22589 0.5545 0.39771 0.0
H1439 H 0.18525 0.42394 0.14746 0.0
H1440 H 0.24514 0.56897 0.14909 0.0
H1441 H 0.27422 0.56196 0.13382 0.0
H1442 H 0.28308 0.37224 0.13373 0.0
H1443 H 0.24138 0.33433 0.12777 0.0
H1444 H 0.22903 0.34989 0.13897 0.0
H1445 H 0.14526 0.38425 0.13443 0.0
H1446 H 0.15745 0.36921 0.12322 0.0
H1447 H 0.14209 0.43069 0.12617 0.0
H1448 H 0.28566 0.54268 0.1177 0.0
H1449 H 0.28677 0.51048 0.10278 0.0
H1450 H 0.2269 0.37441 0.11213 0.0
C1451 C 0.20538 0.45382 0.14465 0.0
C1452 C 0.21343 0.49684 0.14945 0.0
C1453 C 0.23944 0.5354 0.14556 0.0
C1454 C 0.25577 0.53179 0.13688 0.0
C1455 C 0.24647 0.48907 0.13226 0.0
C1456 C 0.22267 0.45041 0.13609 0.0
C1457 C 0.21611 0.40895 0.1297 0.0
C1458 C 0.24408 0.36368 0.13272 0.0
C1459 C 0.16203 0.39764 0.1283 0.0
C1460 C 0.23868 0.43073 0.12159 0.0
C1461 C 0.25583 0.47699 0.12318 0.0
C1462 C 0.2741 0.50578 0.11647 0.0
C1463 C 0.27529 0.48667 0.10796 0.0
C1464 C 0.25938 0.43864 0.10621 0.0
C1465 C 0.24072 0.4107 0.1132 0.0
H1466 H 0.28652 0.46941 0.85811 0.0
H1467 H 0.43425 0.50697 0.86547 0.0
H1468 H 0.41514 0.488 0.88067 0.0
H1469 H 0.22789 0.51588 0.87712 0.0
H1470 H 0.18457 0.46711 0.87783 0.0
H1471 H 0.2089 0.48447 0.86738 0.0
H1472 H 0.23777 0.39622 0.86471 0.0
H1473 H 0.21327 0.37848 0.87513 0.0
H1474 H 0.27617 0.36706 0.87266 0.0
H1475 H 0.38112 0.4659 0.89515 0.0
H1476 H 0.33429 0.43801 0.90794 0.0
H1477 H 0.20999 0.41084 0.89135 0.0
C1478 C 0.31545 0.47321 0.86275 0.0
C1479 C 0.36233 0.48968 0.86033 0.0
C1480 C 0.39796 0.49464 0.86698 0.0
C1481 C 0.38757 0.48389 0.87571 0.0
C1482 C 0.34132 0.46778 0.8778 0.0
C1483 C 0.30588 0.46204 0.87153 0.0
C1484 C 0.25927 0.44317 0.87558 0.0
C1485 C 0.21771 0.47986 0.87441 0.0
C1486 C 0.24584 0.39327 0.87179 0.0
C1487 C 0.27428 0.43926 0.88509 0.0
C1488 C 0.32171 0.45411 0.8862 0.0
C1489 C 0.3439 0.45434 0.89437 0.0
C1490 C 0.31697 0.43881 0.9016 0.0
C1491 C 0.26843 0.42325 0.90062 0.0
C1492 C 0.24696 0.42304 0.89225 0.0
H1493 H 0.28985 0.54297 0.65243 0.0
H1494 H 0.39177 0.42682 0.6471 0.0
H1495 H 0.37117 0.43077 0.63142 0.0
H1496 H 0.19839 0.50844 0.63599 0.0
H1497 H 0.18518 0.57055 0.63315 0.0
H1498 H 0.20484 0.55574 0.64404 0.0
H1499 H 0.27522 0.61742 0.64265 0.0
H1500 H 0.25591 0.63227 0.63175 0.0
H1501 H 0.31716 0.61206 0.63367 0.0
H1502 H 0.34319 0.45046 0.61623 0.0
H1503 H 0.31162 0.48593 0.6026 0.0
H1504 H 0.2274 0.58954 0.61762 0.0
C1505 C 0.30676 0.51754 0.64798 0.0
C1506 C 0.34158 0.48375 0.65098 0.0
C1507 C 0.36458 0.45251 0.64493 0.0
C1508 C 0.35303 0.45444 0.63602 0.0
C1509 C 0.31866 0.48818 0.63324 0.0
C1510 C 0.2959 0.51928 0.63903 0.0
C1511 C 0.26264 0.55424 0.63425 0.0
C1512 C 0.20961 0.54678 0.63702 0.0
C1513 C 0.27871 0.60712 0.63566 0.0
C1514 C 0.27073 0.5383 0.62487 0.0
C1515 C 0.30282 0.49984 0.62445 0.0
C1516 C 0.31732 0.47999 0.61649 0.0
C1517 C 0.29871 0.50007 0.60876 0.0
C1518 C 0.26577 0.53953 0.60902 0.0
C1519 C 0.25185 0.55882 0.61721 0.0
H1520 H 0.29778 0.63111 0.18551 0.0
H1521 H 0.27417 0.59945 0.21293 0.0
H1522 H 0.31866 0.67295 0.21696 0.0
H1523 H 0.42458 0.69202 0.18932 0.0
H1524 H 0.41247 0.73493 0.18072 0.0
H1525 H 0.38956 0.67378 0.17995 0.0
H1526 H 0.30303 0.70811 0.17779 0.0
H1527 H 0.32517 0.76913 0.17878 0.0
H1528 H 0.27776 0.74812 0.18593 0.0
H1529 H 0.33663 0.75973 0.21772 0.0
H1530 H 0.34736 0.84664 0.21543 0.0
H1531 H 0.37986 0.82017 0.18811 0.0
C1532 C 0.30428 0.63827 0.19236 0.0
C1533 C 0.28179 0.60978 0.19889 0.0
C1534 C 0.29048 0.62085 0.20779 0.0
C1535 C 0.31589 0.66261 0.21016 0.0
C1536 C 0.33414 0.69212 0.20359 0.0
C1537 C 0.33081 0.67954 0.19487 0.0
C1538 C 0.35016 0.72012 0.18914 0.0
C1539 C 0.39699 0.70426 0.18451 0.0
C1540 C 0.31172 0.73735 0.18253 0.0
C1541 C 0.3604 0.75877 0.19596 0.0
C1542 C 0.35078 0.74172 0.20424 0.0
C1543 C 0.3475 0.77293 0.21136 0.0
C1544 C 0.35424 0.82269 0.21 0.0
C1545 C 0.36621 0.84108 0.20164 0.0
C1546 C 0.37075 0.80798 0.1946 0.0
H1547 H 0.42411 0.12372 0.45499 0.0
H1548 H 0.39418 0.07493 0.42858 0.0
H1549 H 0.48059 0.07415 0.42547 0.0
H1550 H 0.5494 0.17678 0.45221 0.0
H1551 H 0.57148 0.14591 0.46178 0.0
H1552 H 0.50911 0.1655 0.46124 0.0
H1553 H 0.48028 0.07772 0.46441 0.0
H1554 H 0.54228 0.05835 0.4651 0.0
H1555 H 0.50157 0.02882 0.45758 0.0
H1556 H 0.56841 0.06615 0.42548 0.0
H1557 H 0.64353 0.0242 0.42926 0.0
H1558 H 0.61624 0.05133 0.45674 0.0
C1559 C 0.43524 0.11279 0.44853 0.0
C1560 C 0.40103 0.10095 0.44198 0.0
C1561 C 0.41842 0.08752 0.43361 0.0
C1562 C 0.46805 0.08653 0.43178 0.0
C1563 C 0.50058 0.09642 0.43848 0.0
C1564 C 0.48483 0.10733 0.44681 0.0
C1565 C 0.52554 0.10115 0.4534 0.0
C1566 C 0.53972 0.15027 0.45739 0.0
C1567 C 0.51159 0.0643 0.46053 0.0
C1568 C 0.56553 0.08192 0.44752 0.0
C1569 C 0.55121 0.08324 0.43888 0.0
C1570 C 0.5801 0.06491 0.43222 0.0
C1571 C 0.62288 0.04095 0.43446 0.0
C1572 C 0.63531 0.03334 0.44333 0.0
C1573 C 0.6078 0.05668 0.44991 0.0
H1574 H 0.24532 0.36046 0.68278 0.0
H1575 H 0.17439 0.4213 0.70552 0.0
H1576 H 0.12191 0.34877 0.70643 0.0
H1577 H 0.14036 0.28414 0.67406 0.0
H1578 H 0.18191 0.23585 0.67136 0.0
H1579 H 0.20134 0.29822 0.67067 0.0
H1580 H 0.27336 0.27859 0.68094 0.0
H1581 H 0.25388 0.21673 0.6818 0.0
H1582 H 0.26142 0.25272 0.69153 0.0
H1583 H 0.08842 0.26354 0.70651 0.0
H1584 H 0.08006 0.17405 0.70614 0.0
H1585 H 0.18281 0.16762 0.68478 0.0
C1586 C 0.21686 0.35983 0.68765 0.0
C1587 C 0.21318 0.39688 0.69397 0.0
C1588 C 0.17713 0.39364 0.70052 0.0
C1589 C 0.1472 0.35254 0.70108 0.0
C1590 C 0.15413 0.31497 0.69509 0.0
C1591 C 0.18809 0.31846 0.68847 0.0
C1592 C 0.19592 0.27015 0.68399 0.0
C1593 C 0.17884 0.27222 0.67445 0.0
C1594 C 0.24927 0.25361 0.68461 0.0
C1595 C 0.16306 0.23836 0.6894 0.0
C1596 C 0.13786 0.26495 0.69556 0.0
C1597 C 0.10758 0.24253 0.70164 0.0
C1598 C 0.10352 0.19169 0.70146 0.0
C1599 C 0.13085 0.16387 0.69544 0.0
C1600 C 0.16038 0.18782 0.68929 0.0
H1601 H 0.05878 0.88092 0.9568 0.0
H1602 H 0.09546 0.91305 0.92986 0.0
H1603 H 0.00982 0.92199 0.92639 0.0
H1604 H 0.93184 0.83344 0.95383 0.0
H1605 H 0.90925 0.86852 0.96289 0.0
H1606 H 0.97084 0.84639 0.96297 0.0
H1607 H 0.0027 0.93398 0.96531 0.0
H1608 H 0.94138 0.95594 0.96539 0.0
H1609 H 0.98459 0.98107 0.95782 0.0
H1610 H 0.92354 0.93832 0.92585 0.0
H1611 H 0.84882 0.98337 0.92877 0.0
H1612 H 0.8679 0.95976 0.95657 0.0
C1613 C 0.04894 0.88936 0.95015 0.0
C1614 C 0.0845 0.89385 0.94354 0.0
C1615 C 0.06944 0.90577 0.93496 0.0
C1616 C 0.02046 0.91138 0.93291 0.0
C1617 C 0.98653 0.9073 0.93957 0.0
C1618 C 0.00017 0.89828 0.94809 0.0
C1619 C 0.95852 0.90835 0.95432 0.0
C1620 C 0.94161 0.86136 0.95876 0.0
C1621 C 0.97264 0.94715 0.9611 0.0
C1622 C 0.92049 0.92701 0.94798 0.0
C1623 C 0.9367 0.92322 0.93947 0.0
C1624 C 0.91018 0.94122 0.93247 0.0
C1625 C 0.86759 0.96685 0.93421 0.0
C1626 C 0.85263 0.97567 0.9429 0.0
C1627 C 0.87806 0.95319 0.94984 0.0
H1628 H 0.31404 0.15185 0.30506 0.0
H1629 H 0.39583 0.16073 0.32912 0.0
H1630 H 0.38191 0.24953 0.32958 0.0
H1631 H 0.35131 0.27413 0.29604 0.0
H1632 H 0.29171 0.28396 0.29155 0.0
H1633 H 0.31592 0.22326 0.29229 0.0
H1634 H 0.24021 0.19637 0.30107 0.0
H1635 H 0.2159 0.2567 0.30035 0.0
H1636 H 0.2241 0.22877 0.31088 0.0
H1637 H 0.34715 0.33334 0.32874 0.0
H1638 H 0.29381 0.40461 0.3268 0.0
H1639 H 0.23754 0.34191 0.30291 0.0
C1640 C 0.33067 0.17285 0.31023 0.0
C1641 C 0.35644 0.14985 0.31701 0.0
C1642 C 0.37611 0.17801 0.32386 0.0
C1643 C 0.36867 0.22839 0.32413 0.0
C1644 C 0.34201 0.24997 0.31744 0.0
C1645 C 0.3237 0.22309 0.31056 0.0
C1646 C 0.2916 0.2537 0.30474 0.0
C1647 C 0.31399 0.25908 0.29561 0.0
C1648 C 0.23992 0.23264 0.30424 0.0
C1649 C 0.29258 0.30136 0.30966 0.0
C1650 C 0.32253 0.29878 0.31688 0.0
C1651 C 0.3246 0.33626 0.32299 0.0
C1652 C 0.29411 0.37657 0.32185 0.0
C1653 C 0.26198 0.37903 0.31466 0.0
C1654 C 0.26275 0.34175 0.30833 0.0
H1655 H 0.90105 0.99173 0.57658 0.0
H1656 H 0.83828 0.05848 0.55363 0.0
H1657 H 0.91124 0.11046 0.55211 0.0
H1658 H 0.97605 0.09591 0.58472 0.0
H1659 H 0.02529 0.05556 0.58742 0.0
H1660 H 0.96352 0.03456 0.58812 0.0
H1661 H 0.98465 0.9629 0.57782 0.0
H1662 H 0.04608 0.98385 0.577 0.0
H1663 H 0.0105 0.97542 0.56726 0.0
H1664 H 0.99542 0.149 0.55238 0.0
H1665 H 0.08401 0.16333 0.55337 0.0
H1666 H 0.09326 0.05838 0.57436 0.0
C1667 C 0.90162 0.01904 0.57149 0.0
C1668 C 0.86358 0.0225 0.5654 0.0
C1669 C 0.8667 0.05643 0.5585 0.0
C1670 C 0.90795 0.08598 0.5576 0.0
C1671 C 0.94592 0.08017 0.56354 0.0
C1672 C 0.9431 0.0471 0.57031 0.0
C1673 C 0.99144 0.04055 0.5748 0.0
C1674 C 0.9889 0.05768 0.58433 0.0
C1675 C 0.00918 0.98757 0.57417 0.0
C1676 C 0.02236 0.07408 0.56937 0.0
C1677 C 0.99537 0.09799 0.5631 0.0
C1678 C 0.0168 0.13034 0.55726 0.0
C1679 C 0.06713 0.13781 0.55779 0.0
C1680 C 0.09552 0.11158 0.56388 0.0
C1681 C 0.07252 0.07968 0.56975 0.0
H1682 H 0.13995 0.81156 0.80549 0.0
H1683 H 0.1713 0.84433 0.83263 0.0
H1684 H 0.18435 0.75899 0.83557 0.0
H1685 H 0.0981 0.68307 0.80759 0.0
H1686 H 0.13434 0.66281 0.7985 0.0
H1687 H 0.1107 0.72389 0.79869 0.0
H1688 H 0.19746 0.75837 0.79676 0.0
H1689 H 0.22098 0.69752 0.79641 0.0
H1690 H 0.2444 0.74017 0.80427 0.0
H1691 H 0.20126 0.67287 0.83577 0.0
H1692 H 0.24548 0.59771 0.83264 0.0
H1693 H 0.22399 0.62097 0.80486 0.0
C1694 C 0.14892 0.80093 0.81208 0.0
C1695 C 0.15067 0.83532 0.81895 0.0
C1696 C 0.16461 0.81918 0.82738 0.0
C1697 C 0.17294 0.77027 0.82913 0.0
C1698 C 0.17024 0.73745 0.82229 0.0
C1699 C 0.16071 0.75221 0.81385 0.0
C1700 C 0.17224 0.7117 0.80743 0.0
C1701 C 0.12608 0.69434 0.80278 0.0
C1702 C 0.21109 0.7279 0.80083 0.0
C1703 C 0.19148 0.673 0.81361 0.0
C1704 C 0.18735 0.68803 0.82217 0.0
C1705 C 0.20473 0.66047 0.8291 0.0
C1706 C 0.2299 0.61774 0.82724 0.0
C1707 C 0.23887 0.6037 0.8185 0.0
C1708 C 0.21738 0.63051 0.81161 0.0
H1709 H 0.40555 0.95123 0.0745 0.0
H1710 H 0.41265 0.86263 0.05118 0.0
H1711 H 0.5022 0.87213 0.05096 0.0
H1712 H 0.49183 0.03473 0.06897 0.0
H1713 H 0.5164 0.04105 0.07981 0.0
H1714 H 0.45452 0.02263 0.07838 0.0
H1715 H 0.47125 0.94554 0.08765 0.0
H1716 H 0.53363 0.96357 0.08898 0.0
H1717 H 0.51937 0.90477 0.08451 0.0
H1718 H 0.58918 0.90034 0.05246 0.0
H1719 H 0.66362 0.94811 0.05494 0.0
H1720 H 0.59902 0.01118 0.07814 0.0
C1721 C 0.42604 0.93265 0.06948 0.0
C1722 C 0.40251 0.90583 0.0629 0.0
C1723 C 0.43024 0.88351 0.05626 0.0
C1724 C 0.48101 0.88819 0.05616 0.0
C1725 C 0.50317 0.91453 0.06285 0.0
C1726 C 0.47638 0.93612 0.06941 0.0
C1727 C 0.50783 0.96552 0.07549 0.0
C1728 C 0.4917 0.01912 0.07566 0.0
C1729 C 0.50803 0.94352 0.0847 0.0
C1730 C 0.55645 0.95926 0.0711 0.0
C1731 C 0.55333 0.92917 0.06389 0.0
C1732 C 0.59232 0.92301 0.0582 0.0
C1733 C 0.63455 0.9502 0.05968 0.0
C1734 C 0.63727 0.98316 0.06677 0.0
C1735 C 0.59862 0.98551 0.07278 0.0
H1736 H 0.7625 0.34168 0.82623 0.0
H1737 H 0.70094 0.40284 0.80266 0.0
H1738 H 0.6463 0.33186 0.80137 0.0
H1739 H 0.77308 0.22794 0.81807 0.0
H1740 H 0.76079 0.19623 0.82811 0.0
H1741 H 0.78565 0.25641 0.82842 0.0
H1742 H 0.71406 0.2853 0.83809 0.0
H1743 H 0.68902 0.22488 0.83786 0.0
H1744 H 0.65265 0.27585 0.83444 0.0
H1745 H 0.60554 0.24943 0.80178 0.0
H1746 H 0.58725 0.16168 0.80319 0.0
H1747 H 0.68394 0.15293 0.82541 0.0
C1748 C 0.73605 0.34119 0.82101 0.0
C1749 C 0.73504 0.37818 0.81465 0.0
C1750 C 0.7016 0.37516 0.80767 0.0
C1751 C 0.67043 0.33507 0.80691 0.0
C1752 C 0.67366 0.2982 0.81313 0.0
C1753 C 0.70586 0.30096 0.82003 0.0
C1754 C 0.70833 0.25369 0.82502 0.0
C1755 C 0.76 0.23233 0.82489 0.0
C1756 C 0.6899 0.26035 0.83441 0.0
C1757 C 0.67366 0.2233 0.81971 0.0
C1758 C 0.65289 0.24983 0.81303 0.0
C1759 C 0.6213 0.2285 0.80704 0.0
C1760 C 0.61137 0.17869 0.80785 0.0
C1761 C 0.63397 0.15067 0.81444 0.0
C1762 C 0.66501 0.17359 0.82047 0.0
H1763 H 0.587 0.93122 0.55289 0.0
H1764 H 0.58603 0.84066 0.57598 0.0
H1765 H 0.49798 0.85484 0.57763 0.0
H1766 H 0.51395 0.0181 0.55968 0.0
H1767 H 0.48127 0.02804 0.54966 0.0
H1768 H 0.54129 0.00304 0.54934 0.0
H1769 H 0.50992 0.92837 0.54075 0.0
H1770 H 0.4495 0.95348 0.54095 0.0
H1771 H 0.46037 0.89315 0.54506 0.0
H1772 H 0.41632 0.89571 0.57868 0.0
H1773 H 0.34623 0.95199 0.57804 0.0
H1774 H 0.39818 0.00646 0.5532 0.0
C1775 C 0.56793 0.91231 0.55803 0.0
C1776 C 0.59331 0.88524 0.56435 0.0
C1777 C 0.56723 0.86228 0.57115 0.0
C1778 C 0.51718 0.86976 0.57209 0.0
C1779 C 0.49352 0.89876 0.56597 0.0
C1780 C 0.51786 0.91838 0.55891 0.0
C1781 C 0.48538 0.9516 0.55367 0.0
C1782 C 0.50675 0.00321 0.55307 0.0
C1783 C 0.47571 0.93036 0.54457 0.0
C1784 C 0.44015 0.95045 0.55924 0.0
C1785 C 0.44517 0.91951 0.56628 0.0
C1786 C 0.41109 0.91861 0.57303 0.0
C1787 C 0.37151 0.95077 0.57263 0.0
C1788 C 0.36627 0.98293 0.5655 0.0
C1789 C 0.40024 0.98127 0.55861 0.0
H1790 H 0.77951 0.62213 0.30619 0.0
H1791 H 0.76887 0.59239 0.33396 0.0
H1792 H 0.81662 0.66517 0.33709 0.0
H1793 H 0.90881 0.67981 0.30782 0.0
H1794 H 0.8937 0.72267 0.29936 0.0
H1795 H 0.86874 0.6622 0.29909 0.0
H1796 H 0.78245 0.69891 0.29827 0.0
H1797 H 0.8068 0.75929 0.29876 0.0
H1798 H 0.76257 0.74012 0.3067 0.0
H1799 H 0.83703 0.75123 0.33737 0.0
H1800 H 0.84821 0.8374 0.33478 0.0
H1801 H 0.86745 0.80916 0.3071 0.0
C1802 C 0.78928 0.62964 0.3129 0.0
C1803 C 0.76972 0.6018 0.31982 0.0
C1804 C 0.78286 0.61323 0.32852 0.0
C1805 C 0.8102 0.65457 0.33039 0.0
C1806 C 0.82584 0.68326 0.32348 0.0
C1807 C 0.81785 0.6704 0.31488 0.0
C1808 C 0.83544 0.71012 0.30878 0.0
C1809 C 0.8793 0.69265 0.30345 0.0
C1810 C 0.79435 0.72814 0.30278 0.0
C1811 C 0.85015 0.74877 0.31533 0.0
C1812 C 0.84418 0.73233 0.32376 0.0
C1813 C 0.84517 0.76385 0.33084 0.0
C1814 C 0.85231 0.81332 0.32929 0.0
C1815 C 0.86069 0.83122 0.32074 0.0
C1816 C 0.86109 0.79767 0.31372 0.0
H1817 H 0.11377 0.04465 0.05699 0.0
H1818 H 0.13775 0.015 0.08449 0.0
H1819 H 0.06534 0.06205 0.0882 0.0
H1820 H 0.0565 0.17273 0.06091 0.0
H1821 H 0.01521 0.16328 0.05196 0.0
H1822 H 0.07558 0.13813 0.05153 0.0
H1823 H 0.039 0.05302 0.04877 0.0
H1824 H 0.97873 0.07746 0.04937 0.0
H1825 H 0.99621 0.0284 0.05649 0.0
H1826 H 0.97986 0.08477 0.08846 0.0
H1827 H 0.89387 0.09768 0.08556 0.0
H1828 H 0.92699 0.13116 0.05853 0.0
C1829 C 0.10506 0.05003 0.06381 0.0
C1830 C 0.13131 0.0256 0.07042 0.0
C1831 C 0.11834 0.03305 0.07927 0.0
C1832 C 0.07715 0.05992 0.08147 0.0
C1833 C 0.05007 0.08062 0.07479 0.0
C1834 C 0.06436 0.07781 0.06615 0.0
C1835 C 0.02594 0.09937 0.06021 0.0
C1836 C 0.04441 0.14618 0.0559 0.0
C1837 C 0.009 0.06234 0.05331 0.0
C1838 C 0.98627 0.11025 0.06678 0.0
C1839 C 0.00115 0.0993 0.07516 0.0
C1840 C 0.96838 0.09644 0.08204 0.0
C1841 C 0.91919 0.10438 0.08033 0.0
C1842 C 0.90303 0.11683 0.07185 0.0
C1843 C 0.93769 0.12164 0.06509 0.0
H1844 H 0.70211 0.84454 0.70387 0.0
H1845 H 0.60317 0.83379 0.68201 0.0
H1846 H 0.61795 0.74484 0.68135 0.0
H1847 H 0.78746 0.76124 0.69698 0.0
H1848 H 0.79932 0.73689 0.70769 0.0
H1849 H 0.77805 0.79821 0.70655 0.0
H1850 H 0.70588 0.77901 0.71685 0.0
H1851 H 0.7268 0.71728 0.71793 0.0
H1852 H 0.66584 0.72934 0.71428 0.0
H1853 H 0.65169 0.65864 0.68227 0.0
H1854 H 0.70124 0.58472 0.68449 0.0
H1855 H 0.77016 0.6524 0.70682 0.0
C1856 C 0.68259 0.82336 0.69907 0.0
C1857 C 0.6514 0.84581 0.693 0.0
C1858 C 0.62758 0.81713 0.68666 0.0
C1859 C 0.63535 0.76666 0.68632 0.0
C1860 C 0.66618 0.74561 0.69248 0.0
C1861 C 0.689 0.77322 0.69879 0.0
C1862 C 0.72202 0.74287 0.70445 0.0
C1863 C 0.77481 0.76086 0.70387 0.0
C1864 C 0.70404 0.74208 0.71394 0.0
C1865 C 0.71586 0.69392 0.70015 0.0
C1866 C 0.68334 0.69594 0.69329 0.0
C1867 C 0.67627 0.65636 0.68776 0.0
C1868 C 0.70445 0.61445 0.68908 0.0
C1869 C 0.73899 0.61246 0.69592 0.0
C1870 C 0.74308 0.65209 0.70171 0.0
H1871 H 0.92149 0.86839 0.44016 0.0
H1872 H 0.89202 0.91759 0.46661 0.0
H1873 H 0.97776 0.92055 0.46949 0.0
H1874 H 0.04913 0.82289 0.44221 0.0
H1875 H 0.06871 0.85617 0.43272 0.0
H1876 H 0.00746 0.83351 0.43335 0.0
H1877 H 0.97399 0.9202 0.43069 0.0
H1878 H 0.03489 0.94276 0.42994 0.0
H1879 H 0.99332 0.96904 0.43771 0.0
H1880 H 0.06504 0.92933 0.46942 0.0
H1881 H 0.13916 0.97284 0.46577 0.0
H1882 H 0.11054 0.95093 0.43815 0.0
C1883 C 0.93212 0.88019 0.44656 0.0
C1884 C 0.89777 0.89029 0.45323 0.0
C1885 C 0.91564 0.90493 0.46151 0.0
C1886 C 0.96524 0.90758 0.46322 0.0
C1887 C 0.99751 0.89918 0.45643 0.0
C1888 C 0.98156 0.88828 0.44813 0.0
C1889 C 0.02135 0.8974 0.44146 0.0
C1890 C 0.03762 0.84964 0.43718 0.0
C1891 C 0.00491 0.93458 0.43455 0.0
C1892 C 0.06092 0.91774 0.44731 0.0
C1893 C 0.04735 0.91455 0.45596 0.0
C1894 C 0.07614 0.93227 0.46267 0.0
C1895 C 0.1183 0.9572 0.46049 0.0
C1896 C 0.13021 0.96651 0.45164 0.0
C1897 C 0.10239 0.94443 0.44496 0.0
H1898 H 0.81921 0.15998 0.20907 0.0
H1899 H 0.90855 0.16432 0.18586 0.0
H1900 H 0.90121 0.25393 0.18551 0.0
H1901 H 0.73685 0.2433 0.20266 0.0
H1902 H 0.72753 0.27106 0.21318 0.0
H1903 H 0.74786 0.20928 0.21251 0.0
H1904 H 0.82256 0.2305 0.22205 0.0
H1905 H 0.80239 0.29269 0.22271 0.0
H1906 H 0.86242 0.27896 0.21876 0.0
H1907 H 0.87172 0.33987 0.18619 0.0
H1908 H 0.82157 0.41376 0.18762 0.0
H1909 H 0.75503 0.3541 0.2109 0.0
C1910 C 0.83876 0.18005 0.20413 0.0
C1911 C 0.86476 0.15564 0.19753 0.0
C1912 C 0.88853 0.18269 0.19097 0.0
C1913 C 0.88485 0.2335 0.19077 0.0
C1914 C 0.85788 0.25659 0.19727 0.0
C1915 C 0.83564 0.23069 0.20388 0.0
C1916 C 0.80406 0.26315 0.20946 0.0
C1917 C 0.75097 0.24567 0.20944 0.0
C1918 C 0.82407 0.26653 0.2188 0.0
C1919 C 0.80978 0.31085 0.20468 0.0
C1920 C 0.84166 0.30663 0.19776 0.0
C1921 C 0.84774 0.34405 0.19173 0.0
C1922 C 0.8191 0.38595 0.19259 0.0
C1923 C 0.78476 0.39 0.19943 0.0
C1924 C 0.78188 0.3528 0.20575 0.0
H1925 H 0.39542 0.98274 0.93544 0.0
H1926 H 0.33398 0.05011 0.95851 0.0
H1927 H 0.40502 0.10424 0.95951 0.0
H1928 H 0.50786 0.9726 0.94336 0.0
H1929 H 0.54023 0.98407 0.93336 0.0
H1930 H 0.47983 0.96001 0.93298 0.0
H1931 H 0.45216 0.03164 0.92321 0.0
H1932 H 0.51289 0.05578 0.92346 0.0
H1933 H 0.46246 0.09315 0.92677 0.0
H1934 H 0.48844 0.13976 0.95962 0.0
H1935 H 0.57699 0.15395 0.95873 0.0
H1936 H 0.58489 0.06024 0.93607 0.0
C1937 C 0.39583 0.01037 0.94046 0.0
C1938 C 0.35897 0.0126 0.94684 0.0
C1939 C 0.36168 0.04808 0.95351 0.0
C1940 C 0.40184 0.07906 0.95412 0.0
C1941 C 0.43889 0.07415 0.94799 0.0
C1942 C 0.436 0.04094 0.94123 0.0
C1943 C 0.48342 0.03752 0.9363 0.0
C1944 C 0.50402 0.98549 0.93652 0.0
C1945 C 0.47736 0.05562 0.92688 0.0
C1946 C 0.51414 0.07209 0.94159 0.0
C1947 C 0.48758 0.09378 0.94818 0.0
C1948 C 0.50933 0.12383 0.95437 0.0
C1949 C 0.55954 0.13143 0.95386 0.0
C1950 C 0.58733 0.10855 0.94728 0.0
C1951 C 0.56415 0.07922 0.94101 0.0
H1952 H 0.87765 0.31696 0.68782 0.0
H1953 H 0.84768 0.35125 0.71495 0.0
H1954 H 0.83508 0.26558 0.71801 0.0
H1955 H 0.77445 0.24863 0.68645 0.0
H1956 H 0.79722 0.20514 0.67866 0.0
H1957 H 0.82235 0.26521 0.67903 0.0
H1958 H 0.90809 0.22849 0.6812 0.0
H1959 H 0.8829 0.1681 0.68095 0.0
H1960 H 0.91897 0.18728 0.69013 0.0
H1961 H 0.81398 0.17951 0.71805 0.0
H1962 H 0.76718 0.10634 0.71474 0.0
H1963 H 0.79098 0.12974 0.68704 0.0
C1964 C 0.86884 0.30669 0.69443 0.0
C1965 C 0.86549 0.34171 0.70118 0.0
C1966 C 0.85379 0.32582 0.70972 0.0
C1967 C 0.84597 0.27672 0.71153 0.0
C1968 C 0.84795 0.2436 0.70469 0.0
C1969 C 0.85771 0.25808 0.69625 0.0
C1970 C 0.8456 0.21803 0.6898 0.0
C1971 C 0.80764 0.23528 0.6831 0.0
C1972 C 0.89165 0.19937 0.68525 0.0
C1973 C 0.82502 0.17996 0.69592 0.0
C1974 C 0.82941 0.19458 0.70451 0.0
C1975 C 0.81055 0.16745 0.71136 0.0
C1976 C 0.78389 0.12577 0.70939 0.0
C1977 C 0.77474 0.11245 0.70061 0.0
C1978 C 0.79755 0.13872 0.69381 0.0
H1979 H 0.11194 0.55347 0.95322 0.0
H1980 H 0.13204 0.52408 0.92561 0.0
H1981 H 0.05665 0.56731 0.92234 0.0
H1982 H 0.99554 0.53274 0.95462 0.0
H1983 H 0.97708 0.58169 0.96169 0.0
H1984 H 0.03855 0.56017 0.96199 0.0
H1985 H 0.07076 0.64641 0.95872 0.0
H1986 H 0.00927 0.66879 0.95865 0.0
H1987 H 0.04815 0.67918 0.94939 0.0
H1988 H 0.96989 0.5835 0.92274 0.0
H1989 H 0.88446 0.59359 0.92612 0.0
H1990 H 0.92137 0.6341 0.9527 0.0
C1991 C 0.10177 0.55835 0.94645 0.0
C1992 C 0.12769 0.53464 0.93969 0.0
C1993 C 0.1128 0.54138 0.93093 0.0
C1994 C 0.06989 0.56604 0.92898 0.0
C1995 C 0.04309 0.58551 0.93583 0.0
C1996 C 0.05933 0.58416 0.94436 0.0
C1997 C 0.02113 0.6046 0.95051 0.0
C1998 C 0.00729 0.56757 0.95762 0.0
C1999 C 0.03836 0.65261 0.95456 0.0
C2000 C 0.97957 0.61305 0.94419 0.0
C2001 C 0.99324 0.60162 0.93577 0.0
C2002 C 0.95928 0.59607 0.92915 0.0
C2003 C 0.91027 0.60263 0.93114 0.0
C2004 C 0.89511 0.61709 0.9396 0.0
C2005 C 0.93091 0.62344 0.94614 0.0
H2006 H 0.63518 0.68027 0.18853 0.0
H2007 H 0.66227 0.65065 0.21592 0.0
H2008 H 0.66823 0.73721 0.21881 0.0
H2009 H 0.73268 0.75619 0.18749 0.0
H2010 H 0.70788 0.79719 0.17947 0.0
H2011 H 0.68722 0.73548 0.1799 0.0
H2012 H 0.59876 0.76612 0.18158 0.0
H2013 H 0.61954 0.82817 0.1813 0.0
H2014 H 0.58359 0.80702 0.19035 0.0
H2015 H 0.68417 0.82401 0.21874 0.0
H2016 H 0.72838 0.89891 0.21543 0.0
H2017 H 0.70879 0.87264 0.18772 0.0
C2018 C 0.64183 0.69178 0.19516 0.0
C2019 C 0.64618 0.65774 0.20204 0.0
C2020 C 0.65532 0.67516 0.21058 0.0
C2021 C 0.65929 0.72481 0.2123 0.0
C2022 C 0.656 0.75714 0.20537 0.0
C2023 C 0.64886 0.74128 0.19691 0.0
C2024 C 0.65901 0.78168 0.19043 0.0
C2025 C 0.69909 0.76675 0.18395 0.0
C2026 C 0.61243 0.79663 0.18563 0.0
C2027 C 0.67583 0.82159 0.19656 0.0
C2028 C 0.67107 0.80734 0.20517 0.0
C2029 C 0.68772 0.83583 0.21204 0.0
C2030 C 0.71291 0.87843 0.21008 0.0
C2031 C 0.72261 0.89142 0.20131 0.0
C2032 C 0.70144 0.86403 0.19449 0.0
H2033 H 0.58956 0.42932 0.45836 0.0
H2034 H 0.58761 0.32868 0.43663 0.0
H2035 H 0.49983 0.34367 0.4347 0.0
H2036 H 0.46514 0.3947 0.46685 0.0
H2037 H 0.45355 0.45639 0.47019 0.0
H2038 H 0.51447 0.43259 0.47046 0.0
H2039 H 0.54323 0.50388 0.46073 0.0
H2040 H 0.48259 0.52755 0.46035 0.0
H2041 H 0.5142 0.51403 0.45035 0.0
H2042 H 0.41715 0.38382 0.4333 0.0
H2043 H 0.34444 0.43705 0.43389 0.0
H2044 H 0.39814 0.50116 0.45782 0.0
C2045 C 0.57042 0.40863 0.45346 0.0
C2046 C 0.59553 0.37807 0.44761 0.0
C2047 C 0.56915 0.35291 0.4411 0.0
C2048 C 0.51925 0.36092 0.43999 0.0
C2049 C 0.49589 0.39284 0.44566 0.0
C2050 C 0.52042 0.4151 0.45245 0.0
C2051 C 0.48784 0.44977 0.45737 0.0
C2052 C 0.47977 0.4323 0.46678 0.0
C2053 C 0.50818 0.50185 0.45718 0.0
C2054 C 0.44194 0.44551 0.45203 0.0
C2055 C 0.44708 0.41262 0.44528 0.0
C2056 C 0.41192 0.40823 0.43875 0.0
C2057 C 0.37083 0.43855 0.43912 0.0
C2058 C 0.365 0.47195 0.44605 0.0
C2059 C 0.40057 0.47442 0.45266 0.0
H2060 H 0.80591 0.65854 0.82628 0.0
H2061 H 0.90443 0.66543 0.80429 0.0
H2062 H 0.89281 0.75453 0.80359 0.0
H2063 H 0.72331 0.74138 0.81924 0.0
H2064 H 0.71128 0.768 0.82977 0.0
H2065 H 0.73227 0.70643 0.82906 0.0
H2066 H 0.80442 0.72731 0.83925 0.0
H2067 H 0.78367 0.7893 0.83994 0.0
H2068 H 0.84468 0.77634 0.83641 0.0
H2069 H 0.85851 0.83971 0.80378 0.0
H2070 H 0.80681 0.91289 0.80514 0.0
H2071 H 0.73964 0.85165 0.82819 0.0
C2072 C 0.82649 0.67892 0.82152 0.0
C2073 C 0.85608 0.65515 0.81534 0.0
C2074 C 0.88108 0.68297 0.80902 0.0
C2075 C 0.87513 0.73359 0.80864 0.0
C2076 C 0.84505 0.75586 0.81478 0.0
C2077 C 0.82179 0.72936 0.82119 0.0
C2078 C 0.78871 0.76101 0.82663 0.0
C2079 C 0.7358 0.74315 0.82613 0.0
C2080 C 0.80645 0.76365 0.83612 0.0
C2081 C 0.79515 0.80914 0.82203 0.0
C2082 C 0.82795 0.80566 0.81523 0.0
C2083 C 0.83408 0.84343 0.80926 0.0
C2084 C 0.80473 0.88492 0.81009 0.0
C2085 C 0.77027 0.88846 0.81691 0.0
C2086 C 0.76712 0.8509 0.82314 0.0
H2087 H 0.39868 0.51263 0.04983 0.0
H2088 H 0.33901 0.5615 0.07449 0.0
H2089 H 0.4118 0.61186 0.07694 0.0
H2090 H 0.50896 0.49052 0.05756 0.0
H2091 H 0.54295 0.50829 0.04804 0.0
H2092 H 0.48146 0.48816 0.0469 0.0
H2093 H 0.45859 0.56846 0.03911 0.0
H2094 H 0.52048 0.58876 0.04012 0.0
H2095 H 0.47173 0.62572 0.04429 0.0
H2096 H 0.4967 0.64401 0.078 0.0
H2097 H 0.58592 0.65395 0.07764 0.0
H2098 H 0.59106 0.57782 0.05292 0.0
C2099 C 0.39976 0.53585 0.05553 0.0
C2100 C 0.3629 0.53379 0.0619 0.0
C2101 C 0.36662 0.56306 0.06947 0.0
C2102 C 0.40781 0.59183 0.0709 0.0
C2103 C 0.44491 0.59081 0.06472 0.0
C2104 C 0.44104 0.56376 0.05714 0.0
C2105 C 0.48871 0.56181 0.05226 0.0
C2106 C 0.50654 0.50909 0.05114 0.0
C2107 C 0.48462 0.58775 0.04342 0.0
C2108 C 0.52062 0.58989 0.05848 0.0
C2109 C 0.49455 0.60753 0.06551 0.0
C2110 C 0.51726 0.63116 0.07244 0.0
C2111 C 0.56788 0.63628 0.07223 0.0
C2112 C 0.59517 0.61699 0.06522 0.0
C2113 C 0.57101 0.59427 0.05822 0.0
H2114 H 0.69006 0.32852 0.32662 0.0
H2115 H 0.59737 0.32148 0.30384 0.0
H2116 H 0.60818 0.23202 0.3034 0.0
H2117 H 0.77378 0.24382 0.3202 0.0
H2118 H 0.78327 0.21852 0.33091 0.0
H2119 H 0.7634 0.28029 0.3298 0.0
H2120 H 0.6891 0.26178 0.33963 0.0
H2121 H 0.70861 0.19955 0.34068 0.0
H2122 H 0.64856 0.2131 0.33672 0.0
H2123 H 0.63807 0.14513 0.30453 0.0
H2124 H 0.68691 0.07076 0.3066 0.0
H2125 H 0.75403 0.13504 0.32942 0.0
C2126 C 0.67072 0.30807 0.3217 0.0
C2127 C 0.64247 0.3317 0.31532 0.0
C2128 C 0.61933 0.30391 0.30877 0.0
C2129 C 0.62484 0.25314 0.30854 0.0
C2130 C 0.65293 0.23092 0.31499 0.0
C2131 C 0.67524 0.25767 0.32147 0.0
C2132 C 0.70668 0.22621 0.32724 0.0
C2133 C 0.7599 0.24321 0.32701 0.0
C2134 C 0.68705 0.2251 0.33662 0.0
C2135 C 0.70033 0.17765 0.3228 0.0
C2136 C 0.66875 0.18082 0.31581 0.0
C2137 C 0.66192 0.14194 0.31011 0.0
C2138 C 0.6897 0.09973 0.31135 0.0
C2139 C 0.72386 0.09678 0.31824 0.0
C2140 C 0.72727 0.13546 0.32425 0.0
H2141 H 0.91635 0.43651 0.54988 0.0
H2142 H 0.91518 0.33945 0.57209 0.0
H2143 H 0.00448 0.34494 0.57304 0.0
H2144 H 0.03819 0.39298 0.54061 0.0
H2145 H 0.05284 0.45393 0.53726 0.0
H2146 H 0.99067 0.43373 0.53719 0.0
H2147 H 0.96678 0.50641 0.54706 0.0
H2148 H 0.02852 0.52664 0.54717 0.0
H2149 H 0.99767 0.51489 0.55732 0.0
H2150 H 0.08942 0.37636 0.57368 0.0
H2151 H 0.16248 0.42822 0.57353 0.0
H2152 H 0.11013 0.49879 0.55006 0.0
C2153 C 0.93513 0.41462 0.55468 0.0
C2154 C 0.90911 0.38763 0.56092 0.0
C2155 C 0.93466 0.36066 0.56729 0.0
C2156 C 0.98536 0.36323 0.56783 0.0
C2157 C 0.00999 0.39193 0.56179 0.0
C2158 C 0.98574 0.41635 0.55521 0.0
C2159 C 0.01963 0.4492 0.55019 0.0
C2160 C 0.02569 0.43137 0.54075 0.0
C2161 C 0.00211 0.50238 0.55046 0.0
C2162 C 0.06587 0.44216 0.55536 0.0
C2163 C 0.05994 0.40839 0.56194 0.0
C2164 C 0.09516 0.40159 0.56837 0.0
C2165 C 0.13656 0.43123 0.56825 0.0
C2166 C 0.1424 0.46704 0.56171 0.0
C2167 C 0.10756 0.47075 0.55499 0.0
H2168 H 0.20298 0.86798 0.32525 0.0
H2169 H 0.23411 0.89149 0.2978 0.0
H2170 H 0.19221 0.81582 0.29416 0.0
H2171 H 0.226 0.75225 0.3263 0.0
H2172 H 0.17712 0.7318 0.33318 0.0
H2173 H 0.19699 0.79378 0.33377 0.0
H2174 H 0.11042 0.82467 0.3304 0.0
H2175 H 0.08956 0.76265 0.33009 0.0
H2176 H 0.07882 0.80224 0.32093 0.0
H2177 H 0.17812 0.72875 0.29423 0.0
H2178 H 0.16831 0.64272 0.29723 0.0
H2179 H 0.12582 0.67594 0.32387 0.0
C2180 C 0.1986 0.8586 0.31844 0.0
C2181 C 0.22255 0.88539 0.31183 0.0
C2182 C 0.21659 0.87147 0.303 0.0
C2183 C 0.19274 0.82842 0.30085 0.0
C2184 C 0.17337 0.80058 0.30756 0.0
C2185 C 0.17373 0.81598 0.31614 0.0
C2186 C 0.15387 0.77668 0.32212 0.0
C2187 C 0.19071 0.76284 0.32926 0.0
C2188 C 0.10526 0.7925 0.32612 0.0
C2189 C 0.14683 0.73555 0.31565 0.0
C2190 C 0.15854 0.75037 0.3073 0.0
C2191 C 0.16522 0.71725 0.30057 0.0
C2192 C 0.1589 0.66796 0.30234 0.0
C2193 C 0.14346 0.6517 0.31067 0.0
C2194 C 0.13686 0.68651 0.31738 0.0
H2195 H 0.87771 0.45557 0.07408 0.0
H2196 H 0.84133 0.47528 0.04676 0.0
H2197 H 0.91739 0.43577 0.04254 0.0
H2198 H 0.99045 0.48421 0.07351 0.0
H2199 H 0.01707 0.43875 0.08048 0.0
H2200 H 0.95428 0.45453 0.08173 0.0
H2201 H 0.92843 0.36525 0.07945 0.0
H2202 H 0.99147 0.34848 0.07852 0.0
H2203 H 0.94945 0.33252 0.06999 0.0
H2204 H 0.00531 0.42977 0.04169 0.0
H2205 H 0.09249 0.42868 0.04375 0.0
H2206 H 0.07226 0.38887 0.07094 0.0
C2207 C 0.88433 0.44875 0.06722 0.0
C2208 C 0.85397 0.46934 0.06075 0.0
C2209 C 0.86425 0.46041 0.05184 0.0
C2210 C 0.9075 0.43793 0.04936 0.0
C2211 C 0.93909 0.42255 0.05587 0.0
C2212 C 0.92708 0.42492 0.06462 0.0
C2213 C 0.96985 0.40943 0.07024 0.0
C2214 C 0.98369 0.44912 0.07687 0.0
C2215 C 0.95916 0.36103 0.07482 0.0
C2216 C 0.00877 0.40327 0.06332 0.0
C2217 C 0.99008 0.41135 0.05509 0.0
C2218 C 0.02009 0.4193 0.04796 0.0
C2219 C 0.07026 0.41793 0.04919 0.0
C2220 C 0.09075 0.40589 0.0574 0.0
C2221 C 0.05891 0.39773 0.06452 0.0
H2222 H 0.28632 0.11341 0.80465 0.0
H2223 H 0.28293 0.08828 0.83261 0.0
H2224 H 0.32786 0.16371 0.83498 0.0
H2225 H 0.41262 0.17977 0.805 0.0
H2226 H 0.3926 0.21977 0.79641 0.0
H2227 H 0.37221 0.15759 0.79666 0.0
H2228 H 0.28348 0.18795 0.79621 0.0
H2229 H 0.30317 0.25007 0.79628 0.0
H2230 H 0.26212 0.22873 0.80458 0.0
H2231 H 0.34083 0.25079 0.83461 0.0
H2232 H 0.34673 0.33695 0.83152 0.0
H2233 H 0.36268 0.3058 0.80388 0.0
C2234 C 0.29745 0.12234 0.81123 0.0
C2235 C 0.28039 0.09512 0.81845 0.0
C2236 C 0.29511 0.10851 0.82697 0.0
C2237 C 0.32072 0.15147 0.82839 0.0
C2238 C 0.33303 0.17979 0.82121 0.0
C2239 C 0.32415 0.1649 0.81275 0.0
C2240 C 0.33743 0.20472 0.80631 0.0
C2241 C 0.38134 0.18956 0.80077 0.0
C2242 C 0.29395 0.21866 0.80051 0.0
C2243 C 0.35056 0.24555 0.81253 0.0
C2244 C 0.3475 0.23011 0.82108 0.0
C2245 C 0.34724 0.26276 0.82798 0.0
C2246 C 0.35131 0.31218 0.82614 0.0
C2247 C 0.35835 0.32913 0.81749 0.0
C2248 C 0.35831 0.2948 0.8106 0.0
H2249 H 0.6071 0.50943 0.55085 0.0
H2250 H 0.66114 0.56608 0.57539 0.0
H2251 H 0.58796 0.61744 0.57672 0.0
H2252 H 0.53516 0.62043 0.54359 0.0
H2253 H 0.48751 0.58201 0.53947 0.0
H2254 H 0.54965 0.56164 0.53911 0.0
H2255 H 0.52545 0.48391 0.54757 0.0
H2256 H 0.46368 0.50412 0.54804 0.0
H2257 H 0.4955 0.48963 0.55798 0.0
H2258 H 0.5029 0.64996 0.57679 0.0
H2259 H 0.41362 0.65786 0.5759 0.0
H2260 H 0.41386 0.57382 0.55201 0.0
C2261 C 0.60479 0.53437 0.5563 0.0
C2262 C 0.64019 0.53424 0.56296 0.0
C2263 C 0.63478 0.56605 0.57015 0.0
C2264 C 0.59333 0.59543 0.57095 0.0
C2265 C 0.55769 0.59249 0.5645 0.0
C2266 C 0.56324 0.56287 0.55728 0.0
C2267 C 0.51667 0.55916 0.55209 0.0
C2268 C 0.52262 0.5822 0.54303 0.0
C2269 C 0.49934 0.50609 0.55139 0.0
C2270 C 0.48325 0.58911 0.55777 0.0
C2271 C 0.50782 0.60934 0.56474 0.0
C2272 C 0.48354 0.635 0.57127 0.0
C2273 C 0.43288 0.639 0.57075 0.0
C2274 C 0.40705 0.61647 0.56388 0.0
C2275 C 0.43279 0.59245 0.55721 0.0
H2276 H 0.19477 0.34181 0.20712 0.0
H2277 H 0.10861 0.33183 0.18358 0.0
H2278 H 0.12031 0.24271 0.18342 0.0
H2279 H 0.28195 0.26171 0.20107 0.0
H2280 H 0.29146 0.23504 0.21167 0.0
H2281 H 0.26852 0.29586 0.21081 0.0
H2282 H 0.19395 0.27203 0.22018 0.0
H2283 H 0.21673 0.21082 0.22103 0.0
H2284 H 0.15656 0.22165 0.21687 0.0
H2285 H 0.15251 0.15811 0.18447 0.0
H2286 H 0.20462 0.08595 0.1863 0.0
H2287 H 0.26752 0.15018 0.20953 0.0
C2288 C 0.17686 0.32055 0.20214 0.0
C2289 C 0.15033 0.3433 0.19542 0.0
C2290 C 0.12892 0.31477 0.18879 0.0
C2291 C 0.13507 0.2642 0.1887 0.0
C2292 C 0.16232 0.24281 0.19533 0.0
C2293 C 0.18262 0.2701 0.20197 0.0
C2294 C 0.21506 0.23939 0.20772 0.0
C2295 C 0.26731 0.25917 0.20781 0.0
C2296 C 0.19432 0.23576 0.217 0.0
C2297 C 0.21192 0.19112 0.20302 0.0
C2298 C 0.18056 0.19355 0.19599 0.0
C2299 C 0.17619 0.15534 0.19007 0.0
C2300 C 0.20595 0.11445 0.19117 0.0
C2301 C 0.23973 0.11216 0.19812 0.0
C2302 C 0.24112 0.1502 0.2043 0.0
H2303 H 0.59382 0.52404 0.95578 0.0
H2304 H 0.65956 0.43153 0.93624 0.0
H2305 H 0.58444 0.38155 0.93582 0.0
H2306 H 0.51237 0.435 0.9667 0.0
H2307 H 0.4644 0.47933 0.96741 0.0
H2308 H 0.52682 0.49847 0.96788 0.0
H2309 H 0.51138 0.55725 0.95503 0.0
H2310 H 0.44934 0.53806 0.95435 0.0
H2311 H 0.48795 0.5339 0.94488 0.0
H2312 H 0.49855 0.34521 0.93716 0.0
H2313 H 0.40942 0.33468 0.93806 0.0
H2314 H 0.39952 0.46364 0.95417 0.0
C2315 C 0.59331 0.49177 0.95174 0.0
C2316 C 0.63299 0.48005 0.94634 0.0
C2317 C 0.62995 0.4398 0.94065 0.0
C2318 C 0.58749 0.41141 0.94038 0.0
C2319 C 0.54828 0.42494 0.94565 0.0
C2320 C 0.55086 0.4648 0.95112 0.0
C2321 C 0.50186 0.47813 0.95482 0.0
C2322 C 0.50135 0.47237 0.9648 0.0
C2323 C 0.48676 0.52985 0.9521 0.0
C2324 C 0.4708 0.44016 0.95048 0.0
C2325 C 0.4982 0.40859 0.94548 0.0
C2326 C 0.47683 0.37023 0.94096 0.0
C2327 C 0.42617 0.36495 0.9414 0.0
C2328 C 0.3974 0.39922 0.94596 0.0
C2329 C 0.42038 0.43665 0.95067 0.0
H2330 H 0.29471 0.66043 0.70776 0.0
H2331 H 0.40889 0.67025 0.68841 0.0
H2332 H 0.39713 0.75941 0.68776 0.0
H2333 H 0.21766 0.74441 0.69943 0.0
H2334 H 0.19872 0.76959 0.70974 0.0
H2335 H 0.21989 0.70803 0.7092 0.0
H2336 H 0.28487 0.72684 0.72095 0.0
H2337 H 0.26381 0.78876 0.72153 0.0
H2338 H 0.32672 0.77616 0.71927 0.0
H2339 H 0.36181 0.84474 0.68746 0.0
H2340 H 0.31036 0.91851 0.68831 0.0
H2341 H 0.22891 0.85359 0.70946 0.0
C2342 C 0.31868 0.68136 0.70364 0.0
C2343 C 0.35279 0.65844 0.69815 0.0
C2344 C 0.38212 0.68714 0.69261 0.0
C2345 C 0.37602 0.73777 0.69225 0.0
C2346 C 0.3415 0.75915 0.6977 0.0
C2347 C 0.31409 0.73178 0.70342 0.0
C2348 C 0.27765 0.76265 0.70827 0.0
C2349 C 0.22544 0.74514 0.70655 0.0
C2350 C 0.28896 0.76366 0.71809 0.0
C2351 C 0.28717 0.81141 0.70411 0.0
C2352 C 0.32409 0.8089 0.69801 0.0
C2353 C 0.33411 0.84768 0.69243 0.0
C2354 C 0.30486 0.88944 0.69296 0.0
C2355 C 0.26678 0.89222 0.69913 0.0
C2356 C 0.25916 0.85333 0.70495 0.0
H2357 H 0.89149 0.49141 0.433 0.0
H2358 H 0.83564 0.55553 0.45677 0.0
H2359 H 0.90836 0.60785 0.4577 0.0
H2360 H 0.00243 0.47432 0.44086 0.0
H2361 H 0.0356 0.48476 0.4309 0.0
H2362 H 0.97389 0.46441 0.43043 0.0
H2363 H 0.95063 0.53849 0.42089 0.0
H2364 H 0.01271 0.5589 0.42121 0.0
H2365 H 0.96457 0.59893 0.42463 0.0
H2366 H 0.99261 0.6421 0.45744 0.0
H2367 H 0.08167 0.65134 0.4566 0.0
H2368 H 0.08497 0.55693 0.43399 0.0
C2369 C 0.89327 0.51847 0.43812 0.0
C2370 C 0.85735 0.52062 0.44467 0.0
C2371 C 0.86226 0.55432 0.45158 0.0
C2372 C 0.90346 0.5841 0.45214 0.0
C2373 C 0.9396 0.57917 0.44582 0.0
C2374 C 0.93481 0.54709 0.43892 0.0
C2375 C 0.98205 0.54129 0.43399 0.0
C2376 C -0.00051 0.48808 0.43406 0.0
C2377 C 0.97719 0.56057 0.42462 0.0
C2378 C 0.01479 0.57344 0.43939 0.0
C2379 C 0.98936 0.59619 0.44601 0.0
C2380 C 0.01268 0.62495 0.45221 0.0
C2381 C 0.06326 0.62966 0.45173 0.0
C2382 C 0.09009 0.60475 0.44525 0.0
C2383 C 0.06529 0.57727 0.43889 0.0
H2384 H 0.27394 0.00393 0.27605 0.0
H2385 H 0.42644 0.9764 0.2811 0.0
H2386 H 0.44437 0.98781 0.26546 0.0
H2387 H 0.26793 0.94159 0.25567 0.0
H2388 H 0.2269 0.98452 0.25073 0.0
H2389 H 0.22627 0.97563 0.26237 0.0
H2390 H 0.24042 0.06771 0.26472 0.0
H2391 H 0.24109 0.07689 0.25308 0.0
H2392 H 0.29171 0.09662 0.25961 0.0
H2393 H 0.44556 0.00106 0.24924 0.0
H2394 H 0.42985 0.01416 0.23357 0.0
H2395 H 0.27644 0.03245 0.23908 0.0
C2396 C 0.31116 0.00046 0.27388 0.0
C2397 C 0.3488 0.98925 0.27981 0.0
C2398 C 0.39698 0.98492 0.27669 0.0
C2399 C 0.40755 0.9914 0.26782 0.0
C2400 C 0.36957 0.00224 0.26215 0.0
C2401 C 0.32235 0.00675 0.26505 0.0
C2402 C 0.28809 0.01786 0.25758 0.0
C2403 C 0.25007 0.97748 0.25653 0.0
C2404 C 0.26391 0.06774 0.25883 0.0
C2405 C 0.32337 0.01841 0.25001 0.0
C2406 C 0.37022 0.0096 0.25279 0.0
C2407 C 0.40905 0.00811 0.24699 0.0
C2408 C 0.39973 0.01566 0.2381 0.0
C2409 C 0.35192 0.0244 0.23509 0.0
C2410 C 0.31338 0.02586 0.24116 0.0
H2411 H 0.26693 0.11754 0.52488 0.0
H2412 H 0.28351 0.96411 0.53075 0.0
H2413 H 0.281 0.94514 0.51508 0.0
H2414 H 0.18289 0.10176 0.50721 0.0
H2415 H 0.20744 0.15032 0.50069 0.0
H2416 H 0.21216 0.15262 0.5124 0.0
H2417 H 0.30533 0.16214 0.51114 0.0
H2418 H 0.30089 0.15971 0.49942 0.0
H2419 H 0.3398 0.11772 0.50511 0.0
H2420 H 0.27563 0.94174 0.499 0.0
H2421 H 0.2649 0.95386 0.48323 0.0
H2422 H 0.25098 0.1093 0.48739 0.0
C2423 C 0.27024 0.08001 0.52286 0.0
C2424 C 0.27548 0.04233 0.52906 0.0
C2425 C 0.27935 0.99364 0.52615 0.0
C2426 C 0.27814 0.98243 0.51725 0.0
C2427 C 0.27294 0.02025 0.51131 0.0
C2428 C 0.26886 0.06805 0.51396 0.0
C2429 C 0.26221 0.10141 0.50616 0.0
C2430 C 0.21326 0.12809 0.50665 0.0
C2431 C 0.30459 0.13737 0.50542 0.0
C2432 C 0.26296 0.06475 0.49877 0.0
C2433 C 0.26946 0.01823 0.50192 0.0
C2434 C 0.27063 0.97799 0.49644 0.0
C2435 C 0.26448 0.98531 0.48747 0.0
C2436 C 0.25713 0.03253 0.48405 0.0
C2437 C 0.25681 0.0728 0.48979 0.0
H2438 H 0.16434 0.91967 0.74202 0.0
H2439 H 0.11486 0.05556 0.73073 0.0
H2440 H 0.10979 0.09151 0.7454 0.0
H2441 H 0.08698 0.92544 0.76133 0.0
H2442 H 0.13205 0.89932 0.76844 0.0
H2443 H 0.13122 0.88355 0.75703 0.0
H2444 H 0.22075 0.9106 0.75559 0.0
H2445 H 0.22181 0.92659 0.76698 0.0
H2446 H 0.23772 0.97111 0.75886 0.0
H2447 H 0.11308 0.11425 0.76113 0.0
H2448 H 0.12087 0.12139 0.77708 0.0
H2449 H 0.16591 0.97046 0.77855 0.0
C2450 C 0.15218 0.9569 0.74263 0.0
C2451 C 0.14015 0.98477 0.73516 0.0
C2452 C 0.12434 0.03336 0.73629 0.0
C2453 C 0.12135 0.0542 0.74462 0.0
C2454 C 0.13386 0.02597 0.75182 0.0
C2455 C 0.14857 0.97827 0.75094 0.0
C2456 C 0.15983 0.9561 0.75979 0.0
C2457 C 0.12546 0.91358 0.76176 0.0
C2458 C 0.2132 0.94017 0.76034 0.0
C2459 C 0.14973 0.99903 0.76575 0.0
C2460 C 0.13486 0.03891 0.76098 0.0
C2461 C 0.12439 0.08319 0.76495 0.0
C2462 C 0.12906 0.08688 0.77403 0.0
C2463 C 0.14388 0.04651 0.77911 0.0
C2464 C 0.15424 0.00194 0.77487 0.0
H2465 H 0.22906 0.8974 0.02586 0.0
H2466 H 0.17284 0.04373 0.02909 0.0
H2467 H 0.17781 0.0565 0.01325 0.0
H2468 H 0.31367 0.9256 0.00873 0.0
H2469 H 0.30382 0.87004 1.00278 0.0
H2470 H 0.29528 0.87143 0.01443 0.0
H2471 H 0.20773 0.83931 0.01251 0.0
H2472 H 0.216 0.83785 1.00085 0.0
H2473 H 0.16621 0.8715 1.0055 0.0
H2474 H 0.19115 0.05545 0.99727 0.0
H2475 H 0.2104 0.03974 0.98184 0.0
H2476 H 0.25595 0.89335 0.98844 0.0
C2477 C 0.21767 0.93204 0.02322 0.0
C2478 C 0.20059 0.96958 0.02876 0.0
C2479 C 0.18608 0.01438 0.02503 0.0
C2480 C 0.18872 0.02205 0.01602 0.0
C2481 C 0.20577 0.98455 0.01076 0.0
C2482 C 0.21986 0.94034 0.01418 0.0
C2483 C 0.23713 0.90643 0.00699 0.0
C2484 C 0.29066 0.89257 0.00831 0.0
C2485 C 0.20483 0.86109 0.00643 0.0
C2486 C 0.23068 0.93868 0.99903 0.0
C2487 C 0.21267 0.98362 1.0014 0.0
C2488 C 0.20499 0.02031 0.99531 0.0
C2489 C 0.21617 0.01105 0.98656 0.0
C2490 C 0.23451 0.9653 0.98391 0.0
C2491 C 0.24149 0.92851 0.99025 0.0
H2492 H 0.66068 0.07208 0.74195 0.0
H2493 H 0.63441 0.93327 0.72936 0.0
H2494 H 0.63023 0.89371 0.74372 0.0
H2495 H 0.73599 0.02629 0.75924 0.0
H2496 H 0.71192 0.06694 0.76739 0.0
H2497 H 0.71265 0.08487 0.75609 0.0
H2498 H 0.62006 0.1006 0.75666 0.0
H2499 H 0.61907 0.08273 0.76796 0.0
H2500 H 0.5801 0.05279 0.76021 0.0
H2501 H 0.63 0.86858 0.75935 0.0
H2502 H 0.63215 0.85983 0.77535 0.0
H2503 H 0.65741 0.01479 0.77796 0.0
C2504 C 0.65398 0.03339 0.74221 0.0
C2505 C 0.64795 0.00584 0.73449 0.0
C2506 C 0.6392 0.95526 0.73514 0.0
C2507 C 0.63676 0.93236 0.74328 0.0
C2508 C 0.64299 0.96048 0.75074 0.0
C2509 C 0.65127 0.00988 0.7503 0.0
C2510 C 0.65663 0.03155 0.75935 0.0
C2511 C 0.70732 0.05371 0.76059 0.0
C2512 C 0.61657 0.06913 0.76115 0.0
C2513 C 0.65012 0.98655 0.76492 0.0
C2514 C 0.64241 0.94598 0.75981 0.0
C2515 C 0.6359 0.90009 0.76343 0.0
C2516 C 0.63725 0.8955 0.77253 0.0
C2517 C 0.64489 0.93658 0.77792 0.0
C2518 C 0.65136 0.98269 0.77403 0.0
H2519 H 0.73194 0.89683 0.48742 0.0
H2520 H 0.71431 0.05261 0.4844 0.0
H2521 H 0.72261 0.06313 0.50028 0.0
H2522 H 0.66631 0.88578 0.50778 0.0
H2523 H 0.70674 0.84094 0.51231 0.0
H2524 H 0.69878 0.84497 0.50066 0.0
H2525 H 0.79144 0.85534 0.49869 0.0
H2526 H 0.79969 0.85131 0.51032 0.0
H2527 H 0.82237 0.90321 0.50445 0.0
H2528 H 0.73138 0.05752 0.51635 0.0
H2529 H 0.74319 0.0366 0.53179 0.0
H2530 H 0.75791 0.88444 0.52481 0.0
C2531 C 0.72963 0.93311 0.49011 0.0
C2532 C 0.72225 0.97393 0.48463 0.0
C2533 C 0.71995 0.0208 0.48842 0.0
C2534 C 0.72455 0.02717 0.49745 0.0
C2535 C 0.73179 0.98637 0.50265 0.0
C2536 C 0.73459 0.94024 0.49915 0.0
C2537 C 0.7435 0.9028 0.50627 0.0
C2538 C 0.70131 0.86648 0.50678 0.0
C2539 C 0.79215 0.87663 0.50485 0.0
C2540 C 0.74511 0.93519 0.51429 0.0
C2541 C 0.73799 0.98321 0.51202 0.0
C2542 C 0.73714 0.02007 0.51822 0.0
C2543 C 0.74381 0.00772 0.527 0.0
C2544 C 0.75161 0.95887 0.52955 0.0
C2545 C 0.75232 0.92213 0.52307 0.0
H2546 H 0.81745 0.95681 0.27843 0.0
H2547 H 0.87889 0.1018 0.27775 0.0
H2548 H 0.89156 0.09427 0.26191 0.0
H2549 H 0.89541 0.90314 0.26181 0.0
H2550 H 0.8477 0.8674 0.25699 0.0
H2551 H 0.84539 0.88267 0.26842 0.0
H2552 H 0.76051 0.92114 0.26626 0.0
H2553 H 0.76252 0.90591 0.25484 0.0
H2554 H 0.75245 0.96788 0.25816 0.0
H2555 H 0.89799 0.07198 0.24624 0.0
H2556 H 0.89244 0.03837 0.2314 0.0
H2557 H 0.82326 0.90899 0.24172 0.0
C2558 C 0.83384 0.98676 0.27494 0.0
C2559 C 0.84732 0.02987 0.27935 0.0
C2560 C 0.86811 0.06849 0.27453 0.0
C2561 C 0.87569 0.06451 0.26552 0.0
C2562 C 0.86191 0.02181 0.26136 0.0
C2563 C 0.84103 0.98371 0.26586 0.0
C2564 C 0.82751 0.94286 0.25965 0.0
C2565 C 0.85569 0.89626 0.26185 0.0
C2566 C 0.77248 0.93394 0.25974 0.0
C2567 C 0.84398 0.96413 0.251 0.0
C2568 C 0.86419 0.00949 0.25218 0.0
C2569 C 0.88212 0.03652 0.24522 0.0
C2570 C 0.87881 0.01704 0.23679 0.0
C2571 C 0.85722 0.97108 0.23533 0.0
C2572 C 0.83993 0.94422 0.24258 0.0
H2573 H 0.67925 0.11157 0.02121 0.0
H2574 H 0.81351 0.06058 0.03286 0.0
H2575 H 0.84787 0.04772 0.01818 0.0
H2576 H 0.67769 0.02846 1.00309 0.0
H2577 H 0.65416 0.07237 0.99546 0.0
H2578 H 0.63979 0.07747 0.00689 0.0
H2579 H 0.67372 0.16513 0.00708 0.0
H2580 H 0.68806 0.16033 0.99564 0.0
H2581 H 0.73475 0.17609 1.00336 0.0
H2582 H 0.86785 0.04038 1.00226 0.0
H2583 H 0.87274 0.04051 0.9862 0.0
H2584 H 0.72568 0.09652 0.98479 0.0
C2585 C 0.71586 0.09764 0.02069 0.0
C2586 C 0.74361 0.087 0.02822 0.0
C2587 C 0.79148 0.06902 0.02721 0.0
C2588 C 0.81133 0.06153 0.01889 0.0
C2589 C 0.78298 0.07228 0.01162 0.0
C2590 C 0.73634 0.09009 0.01242 0.0
C2591 C 0.71386 0.09928 1.00354 0.0
C2592 C 0.6687 0.06749 1.00217 0.0
C2593 C 0.70191 0.15342 1.00234 0.0
C2594 C 0.75508 0.08364 0.99762 0.0
C2595 C 0.79458 0.0682 1.00242 0.0
C2596 C 0.83714 0.05238 0.99843 0.0
C2597 C 0.83954 0.05259 0.98929 0.0
C2598 C 0.79963 0.06849 0.98421 0.0
C2599 C 0.75679 0.084 0.98847 0.0
H2600 H 0.7751 0.44307 0.77225 0.0
H2601 H 0.90846 0.51406 0.78024 0.0
H2602 H 0.92461 0.53669 0.76496 0.0
H2603 H 0.82069 0.39473 0.752 0.0
H2604 H 0.76482 0.40456 0.74616 0.0
H2605 H 0.76366 0.39377 0.75775 0.0
H2606 H 0.71641 0.47417 0.76005 0.0
H2607 H 0.7175 0.48524 0.74847 0.0
H2608 H 0.74121 0.5301 0.75589 0.0
H2609 H 0.92668 0.55136 0.74888 0.0
H2610 H 0.91443 0.55727 0.73298 0.0
H2611 H 0.77938 0.47745 0.73542 0.0
C2612 C 0.80772 0.46334 0.77079 0.0
C2613 C 0.84055 0.4767 0.77745 0.0
C2614 C 0.88282 0.50327 0.77526 0.0
C2615 C 0.89231 0.51636 0.7666 0.0
C2616 C 0.85921 0.50266 0.7602 0.0
C2617 C 0.81779 0.47675 0.76218 0.0
C2618 C 0.78818 0.46657 0.75406 0.0
C2619 C 0.78412 0.41165 0.7524 0.0
C2620 C 0.73785 0.49046 0.75466 0.0
C2621 C 0.81941 0.49095 0.74722 0.0
C2622 C 0.86025 0.51144 0.75091 0.0
C2623 C 0.89481 0.53554 0.74591 0.0
C2624 C 0.8875 0.53868 0.73689 0.0
C2625 C 0.84588 0.51795 0.73296 0.0
C2626 C 0.81142 0.49391 0.73823 0.0
H2627 H 0.72845 0.51815 0.02488 0.0
H2628 H 0.78928 0.66224 0.02834 0.0
H2629 H 0.78819 0.6744 0.0124 0.0
H2630 H 0.79356 0.48804 1.00526 0.0
H2631 H 0.74337 0.45626 1.00036 0.0
H2632 H 0.74917 0.45851 0.01206 0.0
H2633 H 0.66278 0.495 0.01329 0.0
H2634 H 0.65662 0.49264 1.0016 0.0
H2635 H 0.64802 0.54931 0.00729 0.0
H2636 H 0.78172 0.67064 0.99613 0.0
H2637 H 0.76595 0.65306 0.98062 0.0
H2638 H 0.70776 0.51205 0.98772 0.0
C2639 C 0.74151 0.55228 0.02229 0.0
C2640 C 0.75906 0.5892 0.02786 0.0
C2641 C 0.77565 0.63341 0.02421 0.0
C2642 C 0.77532 0.64064 0.01516 0.0
C2643 C 0.75813 0.6034 0.00986 0.0
C2644 C 0.74123 0.56021 0.01328 0.0
C2645 C 0.72395 0.52638 0.00613 0.0
C2646 C 0.75434 0.47953 1.00594 0.0
C2647 C 0.66962 0.5152 0.00714 0.0
C2648 C 0.73358 0.55742 0.99817 0.0
C2649 C 0.75365 0.60154 1.00046 0.0
C2650 C 0.76592 0.63626 0.99425 0.0
C2651 C 0.7569 0.62586 0.98545 0.0
C2652 C 0.73549 0.58122 0.98294 0.0
C2653 C 0.72406 0.54652 0.98941 0.0
H2654 H 0.61252 0.41771 0.24389 0.0
H2655 H 0.68679 0.53767 0.23127 0.0
H2656 H 0.70027 0.57596 0.24552 0.0
H2657 H 0.55338 0.48866 0.26063 0.0
H2658 H 0.56128 0.44358 0.26903 0.0
H2659 H 0.5565 0.42522 0.25778 0.0
H2660 H 0.63852 0.37978 0.259 0.0
H2661 H 0.64353 0.398 0.27025 0.0
H2662 H 0.69148 0.41214 0.26268 0.0
H2663 H 0.706 0.60199 0.261 0.0
H2664 H 0.70506 0.61313 0.27695 0.0
H2665 H 0.62886 0.47614 0.27985 0.0
C2666 C 0.63155 0.45204 0.24413 0.0
C2667 C 0.64806 0.47482 0.23641 0.0
C2668 C 0.67311 0.51965 0.23703 0.0
C2669 C 0.68117 0.54175 0.24512 0.0
C2670 C 0.66428 0.51857 0.25258 0.0
C2671 C 0.64018 0.47466 0.25219 0.0
C2672 C 0.62647 0.45741 0.26127 0.0
C2673 C 0.57112 0.4535 0.26223 0.0
C2674 C 0.6515 0.40896 0.26342 0.0
C2675 C 0.64663 0.49854 0.26677 0.0
C2676 C 0.66816 0.53343 0.2616 0.0
C2677 C 0.68928 0.57492 0.26513 0.0
C2678 C 0.68853 0.58092 0.27421 0.0
C2679 C 0.66691 0.54558 0.27967 0.0
C2680 C 0.64567 0.50386 0.27586 0.0
H2681 H 0.75731 0.38522 0.48619 0.0
H2682 H 0.75459 0.53987 0.48071 0.0
H2683 H 0.74733 0.55699 0.49645 0.0
H2684 H 0.66949 0.38879 0.50375 0.0
H2685 H 0.69983 0.34276 0.51008 0.0
H2686 H 0.70477 0.34249 0.49836 0.0
H2687 H 0.79845 0.34403 0.49962 0.0
H2688 H 0.7938 0.34448 0.51134 0.0
H2689 H 0.82722 0.39155 0.50583 0.0
H2690 H 0.74359 0.55772 0.5127 0.0
H2691 H 0.73868 0.54196 0.5285 0.0
H2692 H 0.74089 0.38676 0.52352 0.0
C2693 C 0.75514 0.42268 0.4883 0.0
C2694 C 0.75669 0.46125 0.48223 0.0
C2695 C 0.7534 0.50974 0.48524 0.0
C2696 C 0.74938 0.51986 0.49417 0.0
C2697 C 0.74828 0.48107 0.49999 0.0
C2698 C 0.75064 0.43344 0.49719 0.0
C2699 C 0.74818 0.39854 0.50482 0.0
C2700 C 0.70286 0.36625 0.50422 0.0
C2701 C 0.79469 0.36785 0.50544 0.0
C2702 C 0.74443 0.43407 0.51234 0.0
C2703 C 0.74482 0.48147 0.50939 0.0
C2704 C 0.74294 0.52077 0.51509 0.0
C2705 C 0.74032 0.51142 0.52406 0.0
C2706 C 0.7392 0.46316 0.52723 0.0
C2707 C 0.74127 0.42403 0.52128 0.0
H2708 H 0.23684 0.51027 0.23607 0.0
H2709 H 0.08251 0.51023 0.23046 0.0
H2710 H 0.06511 0.49755 0.24609 0.0
H2711 H 0.23436 0.41771 0.2526 0.0
H2712 H 0.2797 0.44648 0.2593 0.0
H2713 H 0.28009 0.4555 0.24767 0.0
H2714 H 0.2768 0.54865 0.24996 0.0
H2715 H 0.27643 0.53993 0.26161 0.0
H2716 H 0.22885 0.57455 0.25647 0.0
H2717 H 0.06441 0.48466 0.26231 0.0
H2718 H 0.08031 0.47336 0.278 0.0
H2719 H 0.23516 0.48228 0.27311 0.0
C2720 C 0.19936 0.50755 0.23812 0.0
C2721 C 0.16102 0.51126 0.23203 0.0
C2722 C 0.1125 0.50763 0.235 0.0
C2723 C 0.10224 0.50036 0.24386 0.0
C2724 C 0.14086 0.4969 0.24969 0.0
C2725 C 0.18845 0.50046 0.24695 0.0
C2726 C 0.22324 0.49583 0.25456 0.0
C2727 C 0.25629 0.45122 0.25347 0.0
C2728 C 0.25308 0.54253 0.25572 0.0
C2729 C 0.18778 0.48898 0.26201 0.0
C2730 C 0.14045 0.48967 0.25905 0.0
C2731 C 0.10132 0.48404 0.2647 0.0
C2732 C 0.11077 0.47758 0.27361 0.0
C2733 C 0.159 0.47683 0.27681 0.0
C2734 C 0.1979 0.48264 0.27089 0.0
H2735 H 0.23482 0.40951 0.98327 0.0
H2736 H 0.22137 0.56519 0.97947 0.0
H2737 H 0.23016 0.57788 0.99531 0.0
H2738 H 0.16851 0.40328 1.00346 0.0
H2739 H 0.20737 0.35788 0.00825 0.0
H2740 H 0.20011 0.3606 0.99658 0.0
H2741 H 0.29316 0.36801 0.99471 0.0
H2742 H 0.3007 0.36523 0.00637 0.0
H2743 H 0.32521 0.41567 1.00033 0.0
H2744 H 0.23842 0.5741 0.01148 0.0
H2745 H 0.24874 0.55441 0.02704 0.0
H2746 H 0.25891 0.40121 0.02056 0.0
C2747 C 0.23369 0.44626 0.98577 0.0
C2748 C 0.22724 0.48638 0.98011 0.0
C2749 C 0.22629 0.53388 0.98365 0.0
C2750 C 0.23118 0.54149 0.99265 0.0
C2751 C 0.23729 0.50126 0.99804 0.0
C2752 C 0.23884 0.45458 0.99476 0.0
C2753 C 0.24626 0.41781 1.00201 0.0
C2754 C 0.20298 0.38283 1.00261 0.0
C2755 C 0.29419 0.39005 1.00078 0.0
C2756 C 0.24843 0.45119 0.00988 0.0
C2757 C 0.24298 0.49914 0.00742 0.0
C2758 C 0.24292 0.53671 0.01349 0.0
C2759 C 0.24871 0.52509 0.02233 0.0
C2760 C 0.25479 0.47628 0.02504 0.0
C2761 C 0.25465 0.43889 0.0187 0.0
H2762 H 0.35409 0.51282 0.77453 0.0
H2763 H 0.20509 0.4763 0.78088 0.0
H2764 H 0.1881 0.46185 0.76534 0.0
H2765 H 0.32607 0.57678 0.75451 0.0
H2766 H 0.37903 0.55544 0.74877 0.0
H2767 H 0.3805 0.56206 0.76047 0.0
H2768 H 0.4064 0.4721 0.76205 0.0
H2769 H 0.40513 0.46525 0.75036 0.0
H2770 H 0.36978 0.42527 0.75715 0.0
H2771 H 0.18681 0.44982 0.74931 0.0
H2772 H 0.20058 0.44302 0.7335 0.0
H2773 H 0.34947 0.49034 0.737 0.0
C2774 C 0.31798 0.50157 0.77264 0.0
C2775 C 0.28093 0.49556 0.77895 0.0
C2776 C 0.23404 0.48127 0.7762 0.0
C2777 C 0.22401 0.47288 0.76737 0.0
C2778 C 0.26108 0.47936 0.76132 0.0
C2779 C 0.30708 0.49359 0.76379 0.0
C2780 C 0.33988 0.49873 0.75587 0.0
C2781 C 0.35739 0.55139 0.75485 0.0
C2782 C 0.38284 0.46321 0.75639 0.0
C2783 C 0.30512 0.4848 0.74859 0.0
C2784 C 0.25996 0.47361 0.75193 0.0
C2785 C 0.22194 0.45869 0.7466 0.0
C2786 C 0.2302 0.45488 0.73762 0.0
C2787 C 0.27604 0.46626 0.73398 0.0
C2788 C 0.31392 0.48176 0.73957 0.0
H2789 H 0.20848 0.60744 0.5236 0.0
H2790 H 0.32656 0.51269 0.53147 0.0
H2791 H 0.35129 0.50376 0.51614 0.0
H2792 H 0.17816 0.54094 0.504 0.0
H2793 H 0.16415 0.59418 0.49765 0.0
H2794 H 0.15599 0.59501 0.50931 0.0
H2795 H 0.21173 0.6703 0.51047 0.0
H2796 H 0.21994 0.6698 0.4988 0.0
H2797 H 0.27196 0.66783 0.50591 0.0
H2798 H 0.36464 0.50542 0.50021 0.0
H2799 H 0.36443 0.51533 0.48426 0.0
H2800 H 0.23571 0.60576 0.4861 0.0
C2801 C 0.23967 0.58508 0.52207 0.0
C2802 C 0.26564 0.56078 0.52875 0.0
C2803 C 0.30595 0.53145 0.52649 0.0
C2804 C 0.3204 0.52622 0.51779 0.0
C2805 C 0.29394 0.55015 0.51137 0.0
C2806 C 0.25429 0.57882 0.51335 0.0
C2807 C 0.23174 0.59937 0.50508 0.0
C2808 C 0.1794 0.58128 0.50394 0.0
C2809 C 0.23399 0.65514 0.50507 0.0
C2810 C 0.2651 0.57784 0.49818 0.0
C2811 C 0.30085 0.54987 0.50201 0.0
C2812 C 0.33673 0.52704 0.49712 0.0
C2813 C 0.33631 0.53298 0.48805 0.0
C2814 C 0.29999 0.56115 0.48391 0.0
C2815 C 0.26367 0.58363 0.48906 0.0
H2816 H 0.55966 0.33928 0.20777 0.0
H2817 H 0.57093 0.37064 0.18008 0.0
H2818 H 0.53175 0.29235 0.17671 0.0
H2819 H 0.58748 0.21435 0.20626 0.0
H2820 H 0.54546 0.19576 0.21462 0.0
H2821 H 0.5716 0.2556 0.21494 0.0
H2822 H 0.48586 0.29434 0.21521 0.0
H2823 H 0.45947 0.23459 0.21509 0.0
H2824 H 0.44263 0.27826 0.20687 0.0
H2825 H 0.49403 0.20905 0.17637 0.0
H2826 H 0.45406 0.13035 0.17912 0.0
H2827 H 0.46972 0.15326 0.20702 0.0
C2828 C 0.55307 0.33024 0.201 0.0
C2829 C 0.56824 0.3613 0.19419 0.0
C2830 C 0.55952 0.34757 0.18541 0.0
C2831 C 0.5375 0.30304 0.18343 0.0
C2832 C 0.5245 0.27262 0.19029 0.0
C2833 C 0.53146 0.28586 0.1989 0.0
C2834 C 0.51487 0.24632 0.20506 0.0
C2835 C 0.55739 0.22687 0.21054 0.0
C2836 C 0.47323 0.26446 0.2109 0.0
C2837 C 0.49747 0.20876 0.19857 0.0
C2838 C 0.50344 0.2245 0.19009 0.0
C2839 C 0.48914 0.19633 0.18299 0.0
C2840 C 0.46671 0.15154 0.18462 0.0
C2841 C 0.45885 0.13539 0.19328 0.0
C2842 C 0.47555 0.16413 0.20031 0.0
H2843 H 0.08375 0.17253 0.46198 0.0
H2844 H 0.15455 0.23252 0.43914 0.0
H2845 H 0.08633 0.28888 0.43702 0.0
H2846 H 0.9694 0.16992 0.45344 0.0
H2847 H 0.93642 0.18743 0.4631 0.0
H2848 H 0.99436 0.15782 0.4641 0.0
H2849 H 0.02712 0.22914 0.47337 0.0
H2850 H 0.96884 0.25856 0.4726 0.0
H2851 H 0.02283 0.29025 0.46924 0.0
H2852 H 0.00718 0.32668 0.43563 0.0
H2853 H 0.92302 0.35477 0.43618 0.0
H2854 H 0.90031 0.27417 0.46021 0.0
C2855 C 0.08568 0.19922 0.4568 0.0
C2856 C 0.12454 0.19895 0.45079 0.0
C2857 C 0.12526 0.23279 0.44386 0.0
C2858 C 0.08665 0.26478 0.44259 0.0
C2859 C 0.04766 0.26257 0.44833 0.0
C2860 C 0.04701 0.23155 0.45541 0.0
C2861 C 0.99843 0.23415 0.46009 0.0
C2862 C 0.97319 0.18436 0.46018 0.0
C2863 C 0.00469 0.25423 0.46938 0.0
C2864 C 0.97154 0.26993 0.45431 0.0
C2865 C 0.00098 0.28564 0.44758 0.0
C2866 C 0.98399 0.31553 0.44096 0.0
C2867 C 0.9358 0.33073 0.44128 0.0
C2868 C 0.90495 0.31651 0.44823 0.0
C2869 C 0.92316 0.28578 0.45486 0.0
H2870 H 0.97801 0.64749 0.70507 0.0
H2871 H 0.9321 0.64264 0.67796 0.0
H2872 H 0.96333 0.72553 0.67582 0.0
H2873 H 0.94578 0.76813 0.70917 0.0
H2874 H 0.99737 0.78225 0.71593 0.0
H2875 H 0.97538 0.72081 0.71531 0.0
H2876 H 0.0602 0.69038 0.71045 0.0
H2877 H 0.08282 0.7515 0.71131 0.0
H2878 H 0.08948 0.71843 0.70123 0.0
H2879 H 0.99288 0.81067 0.67688 0.0
H2880 H 0.03152 0.8888 0.68039 0.0
H2881 H 0.05886 0.83886 0.7068 0.0
C2882 C 0.97549 0.66333 0.69862 0.0
C2883 C 0.95244 0.63843 0.69168 0.0
C2884 C 0.94974 0.66074 0.68337 0.0
C2885 C 0.96701 0.70802 0.6821 0.0
C2886 C 0.98727 0.73231 0.68918 0.0
C2887 C 0.99269 0.71043 0.69723 0.0
C2888 C 0.01566 0.74476 0.70376 0.0
C2889 C 0.98149 0.75455 0.7115 0.0
C2890 C 0.06496 0.7251 0.70687 0.0
C2891 C 0.02166 0.78961 0.69816 0.0
C2892 C 0.00474 0.7816 0.68979 0.0
C2893 C 0.00657 0.81729 0.68339 0.0
C2894 C 0.02829 0.86166 0.68547 0.0
C2895 C 0.04804 0.86998 0.69388 0.0
C2896 C 0.04339 0.83389 0.70037 0.0
H2897 H 0.4133 0.82951 0.96042 0.0
H2898 H 0.3255 0.73188 0.9449 0.0
H2899 H 0.394 0.67458 0.94391 0.0
H2900 H 0.51511 0.81853 0.94826 0.0
H2901 H 0.5591 0.82019 0.95695 0.0
H2902 H 0.50094 0.84867 0.95839 0.0
H2903 H 0.48505 0.79724 0.97222 0.0
H2904 H 0.54377 0.76924 0.97096 0.0
H2905 H 0.49018 0.73206 0.97167 0.0
H2906 H 0.47312 0.63683 0.94208 0.0
H2907 H 0.55907 0.61516 0.94054 0.0
H2908 H 0.59945 0.73547 0.95731 0.0
C2909 C 0.40802 0.79484 0.95722 0.0
C2910 C 0.36399 0.78422 0.95291 0.0
C2911 C 0.35874 0.7399 0.94838 0.0
C2912 C 0.39745 0.70729 0.94777 0.0
C2913 C 0.4412 0.71973 0.95172 0.0
C2914 C 0.44676 0.76201 0.95647 0.0
C2915 C 0.49944 0.76912 0.95912 0.0
C2916 C 0.51981 0.81696 0.95546 0.0
C2917 C 0.50493 0.76676 0.96909 0.0
C2918 C 0.52276 0.72543 0.95477 0.0
C2919 C 0.48813 0.69742 0.95061 0.0
C2920 C 0.50046 0.65783 0.94545 0.0
C2921 C 0.54942 0.64622 0.94453 0.0
C2922 C 0.58569 0.67388 0.94877 0.0
C2923 C 0.57226 0.71362 0.95407 0.0
H2924 H 0.46459 0.84288 0.30775 0.0
H2925 H 0.41011 0.84116 0.33438 0.0
H2926 H 0.44353 0.75925 0.33639 0.0
H2927 H 0.4411 0.71945 0.30277 0.0
H2928 H 0.49598 0.70966 0.29662 0.0
H2929 H 0.4695 0.76941 0.29716 0.0
H2930 H 0.55005 0.80464 0.30311 0.0
H2931 H 0.5771 0.74522 0.30239 0.0
H2932 H 0.57758 0.77767 0.31261 0.0
H2933 H 0.47673 0.67632 0.33534 0.0
H2934 H 0.52142 0.60116 0.33221 0.0
H2935 H 0.55824 0.65592 0.30646 0.0
C2936 C 0.46042 0.82565 0.31406 0.0
C2937 C 0.43442 0.84857 0.32089 0.0
C2938 C 0.42978 0.82459 0.32903 0.0
C2939 C 0.44833 0.77781 0.33023 0.0
C2940 C 0.47195 0.75559 0.32327 0.0
C2941 C 0.47917 0.77894 0.31542 0.0
C2942 C 0.50695 0.74681 0.3091 0.0
C2943 C 0.47655 0.73569 0.30093 0.0
C2944 C 0.55582 0.76996 0.30666 0.0
C2945 C 0.51386 0.70174 0.31465 0.0
C2946 C 0.49271 0.7076 0.32275 0.0
C2947 C 0.49388 0.67137 0.32905 0.0
C2948 C 0.51922 0.62868 0.32718 0.0
C2949 C 0.5436 0.62262 0.3191 0.0
C2950 C 0.53968 0.65921 0.31266 0.0
H2951 H 0.59661 0.30248 0.55134 0.0
H2952 H 0.61863 0.32195 0.57923 0.0
H2953 H 0.53995 0.28407 0.58211 0.0
H2954 H 0.47056 0.32671 0.551 0.0
H2955 H 0.4552 0.2803 0.54319 0.0
H2956 H 0.51462 0.30738 0.54303 0.0
H2957 H 0.55456 0.22259 0.54453 0.0
H2958 H 0.4953 0.19516 0.54448 0.0
H2959 H 0.53653 0.18329 0.55335 0.0
H2960 H 0.45739 0.25193 0.58214 0.0
H2961 H 0.37997 0.21089 0.57958 0.0
H2962 H 0.41058 0.20607 0.55176 0.0
C2963 C 0.5853 0.29789 0.55806 0.0
C2964 C 0.6138 0.3157 0.56504 0.0
C2965 C 0.59753 0.30901 0.57374 0.0
C2966 C 0.55267 0.28774 0.57547 0.0
C2967 C 0.52464 0.27261 0.56845 0.0
C2968 C 0.54057 0.27604 0.55993 0.0
C2969 C 0.50309 0.25557 0.55367 0.0
C2970 C 0.4848 0.29484 0.54735 0.0
C2971 C 0.52359 0.21153 0.54872 0.0
C2972 C 0.46366 0.24061 0.56004 0.0
C2973 C 0.47688 0.25163 0.5685 0.0
C2974 C 0.44677 0.24242 0.57557 0.0
C2975 C 0.40268 0.21924 0.57401 0.0
C2976 C 0.38924 0.20475 0.56547 0.0
C2977 C 0.41967 0.2168 0.55835 0.0
H2978 H 0.94579 0.33543 0.80405 0.0
H2979 H 0.98573 0.38986 0.82966 0.0
H2980 H 0.03549 0.31721 0.83213 0.0
H2981 H 0.93214 0.21496 0.80994 0.0
H2982 H 0.95814 0.18827 0.80027 0.0
H2983 H 0.93045 0.24742 0.79974 0.0
H2984 H 0.00967 0.28392 0.79352 0.0
H2985 H 0.03743 0.22465 0.79387 0.0
H2986 H 0.06587 0.27514 0.79932 0.0
H2987 H 0.0692 0.23613 0.83296 0.0
H2988 H 0.09789 0.15285 0.83138 0.0
H2989 H 0.04196 0.14801 0.80486 0.0
C2990 C 0.96637 0.33275 0.81004 0.0
C2991 C 0.96188 0.36839 0.81667 0.0
C2992 C 0.98852 0.36309 0.82451 0.0
C2993 C 0.01688 0.32191 0.82598 0.0
C2994 C 0.01871 0.28649 0.81951 0.0
C2995 C 0.99523 0.29163 0.81162 0.0
C2996 C 0.00184 0.24639 0.80602 0.0
C2997 C 0.95271 0.22289 0.80387 0.0
C2998 C 0.03042 0.25824 0.79769 0.0
C2999 C 0.03136 0.21467 0.81216 0.0
C3000 C 0.04022 0.23892 0.8199 0.0
C3001 C 0.06341 0.21699 0.82688 0.0
C3002 C 0.07906 0.16923 0.82592 0.0
C3003 C 0.07212 0.14353 0.81799 0.0
C3004 C 0.04796 0.16671 0.81098 0.0
H3005 H 0.07976 0.8197 0.05357 0.0
H3006 H 0.14831 0.76585 0.07718 0.0
H3007 H 0.07752 0.71438 0.08008 0.0
H3008 H 0.96299 0.82841 0.06178 0.0
H3009 H 0.93177 0.80746 0.05216 0.0
H3010 H 0.98995 0.83648 0.05117 0.0
H3011 H 0.02424 0.76176 0.04294 0.0
H3012 H 0.96577 0.73295 0.04371 0.0
H3013 H 0.01897 0.70234 0.04777 0.0
H3014 H 0.99666 0.67813 0.08164 0.0
H3015 H 0.91397 0.64598 0.08038 0.0
H3016 H 0.89709 0.7194 0.05546 0.0
C3017 C 0.0805 0.79582 0.05918 0.0
C3018 C 0.11946 0.7969 0.06516 0.0
C3019 C 0.11876 0.76578 0.07252 0.0
C3020 C 0.07866 0.73648 0.07425 0.0
C3021 C 0.03978 0.7382 0.0685 0.0
C3022 C 0.04064 0.76595 0.061 0.0
C3023 C 0.99307 0.7618 0.05608 0.0
C3024 C 0.96799 0.8115 0.05525 0.0
C3025 C 0.00099 0.7383 0.04709 0.0
C3026 C 0.96522 0.72842 0.06214 0.0
C3027 C 0.99291 0.71566 0.06928 0.0
C3028 C 0.97478 0.68706 0.076 0.0
C3029 C 0.92751 0.66939 0.07526 0.0
C3030 C 0.89902 0.67995 0.0678 0.0
C3031 C 0.91801 0.71052 0.06122 0.0
H3032 H 0.51685 0.84872 0.80468 0.0
H3033 H 0.61279 0.82051 0.82656 0.0
H3034 H 0.59119 0.73409 0.82612 0.0
H3035 H 0.42245 0.76838 0.81235 0.0
H3036 H 0.40481 0.74864 0.8016 0.0
H3037 H 0.43092 0.8079 0.80311 0.0
H3038 H 0.49683 0.78694 0.79165 0.0
H3039 H 0.47146 0.72714 0.79027 0.0
H3040 H 0.53436 0.73402 0.7932 0.0
H3041 H 0.56098 0.65212 0.82353 0.0
H3042 H 0.50986 0.58042 0.82109 0.0
H3043 H 0.42734 0.65928 0.80159 0.0
C3044 C 0.53285 0.8242 0.8094 0.0
C3045 C 0.56622 0.84126 0.8157 0.0
C3046 C 0.58651 0.80835 0.82178 0.0
C3047 C 0.57508 0.75903 0.8215 0.0
C3048 C 0.54265 0.74312 0.81517 0.0
C3049 C 0.52063 0.77465 0.80939 0.0
C3050 C 0.48328 0.74812 0.80387 0.0
C3051 C 0.43235 0.76952 0.80532 0.0
C3052 C 0.49734 0.74913 0.79417 0.0
C3053 C 0.48745 0.69708 0.80758 0.0
C3054 C 0.52309 0.69513 0.81392 0.0
C3055 C 0.53301 0.65302 0.81858 0.0
C3056 C 0.50395 0.6124 0.81712 0.0
C3057 C 0.46493 0.61425 0.81112 0.0
C3058 C 0.45769 0.65654 0.80605 0.0
H3059 H 0.09649 0.70308 0.55349 0.0
H3060 H 0.10665 0.66899 0.58113 0.0
H3061 H 0.0274 0.70729 0.5836 0.0
H3062 H 0.03804 0.82144 0.55648 0.0
H3063 H 0.00023 0.81485 0.54697 0.0
H3064 H 0.05864 0.78562 0.54735 0.0
H3065 H 0.01756 0.703 0.54412 0.0
H3066 H 0.9589 0.73184 0.5439 0.0
H3067 H 0.96987 0.68169 0.55119 0.0
H3068 H 0.94603 0.74427 0.58312 0.0
H3069 H 0.87105 0.78937 0.58014 0.0
H3070 H 0.91256 0.80314 0.55289 0.0
C3071 C 0.08241 0.70432 0.56008 0.0
C3072 C 0.10796 0.68273 0.56711 0.0
C3073 C 0.088 0.68509 0.57562 0.0
C3074 C 0.04277 0.70656 0.5771 0.0
C3075 C 0.01793 0.72596 0.57002 0.0
C3076 C 0.03723 0.72602 0.56171 0.0
C3077 C 0.00288 0.75036 0.55531 0.0
C3078 C 0.02635 0.79577 0.55129 0.0
C3079 C 0.98633 0.71458 0.54821 0.0
C3080 C 0.96131 0.76374 0.56135 0.0
C3081 C 0.97078 0.74871 0.56978 0.0
C3082 C 0.93829 0.7566 0.57656 0.0
C3083 C 0.89564 0.78216 0.57478 0.0
C3084 C 0.88584 0.80005 0.56628 0.0
C3085 C 0.91872 0.78964 0.55943 0.0
H3086 H 0.05978 0.32734 0.32714 0.0
H3087 H 9e-05 0.39081 0.30355 0.0
H3088 H 0.95372 0.31626 0.3008 0.0
H3089 H 0.07625 0.21097 0.31915 0.0
H3090 H 0.0577 0.17853 0.3288 0.0
H3091 H 0.08234 0.23881 0.32975 0.0
H3092 H 0.00548 0.26797 0.33793 0.0
H3093 H 0.98117 0.20738 0.33725 0.0
H3094 H 0.94664 0.25802 0.33313 0.0
H3095 H 0.92433 0.23225 0.29926 0.0
H3096 H 0.89763 0.14759 0.30071 0.0
H3097 H 0.9714 0.13751 0.32569 0.0
C3098 C 0.03541 0.32617 0.3216 0.0
C3099 C 0.03353 0.36489 0.31555 0.0
C3100 C 0.00211 0.36158 0.30826 0.0
C3101 C 0.97581 0.31927 0.30661 0.0
C3102 C 0.98069 0.28068 0.31237 0.0
C3103 C 0.00836 0.284 0.31987 0.0
C3104 C 0.00772 0.23628 0.32484 0.0
C3105 C 0.05906 0.21491 0.32568 0.0
C3106 C 0.98382 0.24281 0.33382 0.0
C3107 C 0.97644 0.20563 0.31882 0.0
C3108 C 0.96181 0.232 0.31164 0.0
C3109 C 0.93471 0.21136 0.30494 0.0
C3110 C 0.92022 0.16294 0.30578 0.0
C3111 C 0.93222 0.13575 0.31332 0.0
C3112 C 0.96154 0.1573 0.31985 0.0
H3113 H 0.59584 0.22605 0.07334 0.0
H3114 H 0.60715 0.17458 0.04661 0.0
H3115 H 0.52694 0.20948 0.04339 0.0
H3116 H 0.47048 0.20298 0.07618 0.0
H3117 H 0.45819 0.25707 0.08243 0.0
H3118 H 0.51765 0.22995 0.08272 0.0
H3119 H 0.55638 0.31106 0.07778 0.0
H3120 H 0.49718 0.33873 0.07768 0.0
H3121 H 0.53453 0.3404 0.06803 0.0
H3122 H 0.44398 0.24419 0.04326 0.0
H3123 H 0.36804 0.28927 0.04541 0.0
H3124 H 0.41008 0.32152 0.07211 0.0
C3125 C 0.58188 0.22282 0.06677 0.0
C3126 C 0.60798 0.1974 0.06023 0.0
C3127 C 0.58818 0.19398 0.05172 0.0
C3128 C 0.54238 0.21334 0.04984 0.0
C3129 C 0.51695 0.23645 0.05651 0.0
C3130 C 0.53629 0.24231 0.06474 0.0
C3131 C 0.50143 0.26954 0.07066 0.0
C3132 C 0.48604 0.23798 0.07846 0.0
C3133 C 0.52371 0.3178 0.07372 0.0
C3134 C 0.45939 0.27787 0.06446 0.0
C3135 C 0.46909 0.25784 0.05637 0.0
C3136 C 0.43613 0.26045 0.04953 0.0
C3137 C 0.39293 0.28603 0.05085 0.0
C3138 C 0.38303 0.30922 0.05893 0.0
C3139 C 0.41628 0.30389 0.0659 0.0
H3140 H 0.55653 0.1669 0.68571 0.0
H3141 H 0.5331 0.11716 0.7123 0.0
H3142 H 0.48591 0.19053 0.71542 0.0
H3143 H 0.57083 0.29124 0.69054 0.0
H3144 H 0.5378 0.31383 0.68124 0.0
H3145 H 0.56788 0.25583 0.68066 0.0
H3146 H 0.48715 0.21419 0.67638 0.0
H3147 H 0.457 0.27223 0.67679 0.0
H3148 H 0.4345 0.2223 0.68321 0.0
H3149 H 0.4489 0.27125 0.71632 0.0
H3150 H 0.41099 0.35093 0.71432 0.0
H3151 H 0.45274 0.34952 0.68695 0.0
C3152 C 0.54057 0.17097 0.69212 0.0
C3153 C 0.54896 0.13618 0.69876 0.0
C3154 C 0.52762 0.14318 0.70709 0.0
C3155 C 0.50078 0.18491 0.70896 0.0
C3156 C 0.49486 0.21925 0.70242 0.0
C3157 C 0.51301 0.2125 0.6941 0.0
C3158 C 0.50081 0.25567 0.68832 0.0
C3159 C 0.5471 0.28061 0.68499 0.0
C3160 C 0.4679 0.24017 0.68073 0.0
C3161 C 0.47378 0.28779 0.69477 0.0
C3162 C 0.47138 0.26597 0.70286 0.0
C3163 C 0.44985 0.28854 0.70999 0.0
C3164 C 0.42867 0.33411 0.70877 0.0
C3165 C 0.42853 0.35668 0.70046 0.0
C3166 C 0.45213 0.33333 0.69338 0.0
H3167 H 0.40237 0.70007 0.43634 0.0
H3168 H 0.37486 0.6903 0.46423 0.0
H3169 H 0.45103 0.73299 0.46716 0.0
H3170 H 0.52947 0.68147 0.43721 0.0
H3171 H 0.54471 0.72524 0.42892 0.0
H3172 H 0.48657 0.69552 0.42871 0.0
H3173 H 0.44291 0.77881 0.42878 0.0
H3174 H 0.50092 0.80881 0.42882 0.0
H3175 H 0.45705 0.82233 0.43719 0.0
H3176 H 0.53183 0.769 0.46735 0.0
H3177 H 0.60842 0.81143 0.46486 0.0
H3178 H 0.58488 0.80411 0.43683 0.0
C3179 C 0.41192 0.70775 0.44305 0.0
C3180 C 0.38252 0.69143 0.45005 0.0
C3181 C 0.39656 0.70214 0.45874 0.0
C3182 C 0.44 0.72619 0.46049 0.0
C3183 C 0.46894 0.73997 0.4535 0.0
C3184 C 0.45523 0.73238 0.44495 0.0
C3185 C 0.49339 0.75197 0.43871 0.0
C3186 C 0.51479 0.7111 0.43305 0.0
C3187 C 0.47231 0.79292 0.43304 0.0
C3188 C 0.53066 0.77125 0.44513 0.0
C3189 C 0.51573 0.76313 0.45361 0.0
C3190 C 0.5437 0.7763 0.46075 0.0
C3191 C 0.58737 0.80031 0.45924 0.0
C3192 C 0.60267 0.81172 0.45064 0.0
C3193 C 0.57435 0.79589 0.44347 0.0
H3194 H 0.94922 0.83639 0.20603 0.0
H3195 H 0.94051 0.87149 0.17845 0.0
H3196 H 0.98419 0.79594 0.17489 0.0
H3197 H 0.06981 0.78148 0.20534 0.0
H3198 H 0.05455 0.73538 0.21321 0.0
H3199 H 0.02469 0.79353 0.21358 0.0
H3200 H 0.94139 0.75038 0.2127 0.0
H3201 H 0.97103 0.69215 0.21217 0.0
H3202 H 0.92909 0.70985 0.20373 0.0
H3203 H 0.02599 0.71529 0.17424 0.0
H3204 H 0.069 0.63787 0.17662 0.0
H3205 H 0.04962 0.65437 0.2046 0.0
C3206 C 0.95728 0.82867 0.19925 0.0
C3207 C 0.94151 0.86004 0.19252 0.0
C3208 C 0.95221 0.84812 0.18373 0.0
C3209 C 0.97688 0.80517 0.18163 0.0
C3210 C 0.99062 0.7744 0.18839 0.0
C3211 C 0.9817 0.78576 0.19703 0.0
C3212 C -0.00018 0.74597 0.20303 0.0
C3213 C 0.03959 0.76524 0.20915 0.0
C3214 C 0.95782 0.72325 0.20821 0.0
C3215 C 0.02024 0.71053 0.19641 0.0
C3216 C 0.01442 0.72759 0.188 0.0
C3217 C 0.03085 0.70155 0.18079 0.0
C3218 C 0.05507 0.65747 0.18221 0.0
C3219 C 0.06263 0.6398 0.19079 0.0
C3220 C 0.04408 0.66648 0.19795 0.0
H3221 H 0.89809 0.20829 0.93604 0.0
H3222 H 0.88287 0.18788 0.96403 0.0
H3223 H 0.9609 0.2289 0.96636 0.0
H3224 H 0.025 0.18702 0.93496 0.0
H3225 H 0.037 0.23302 0.92689 0.0
H3226 H 0.9786 0.20388 0.92725 0.0
H3227 H 0.93615 0.28744 0.92873 0.0
H3228 H 0.99434 0.31689 0.9282 0.0
H3229 H 0.95454 0.32831 0.93731 0.0
H3230 H 0.04161 0.26782 0.96577 0.0
H3231 H 0.11671 0.31205 0.96242 0.0
H3232 H 0.08078 0.30886 0.93483 0.0
C3233 C 0.91071 0.21321 0.94267 0.0
C3234 C 0.88418 0.19474 0.94985 0.0
C3235 C 0.90235 0.20162 0.95841 0.0
C3236 C 0.94683 0.22468 0.95982 0.0
C3237 C 0.97275 0.24091 0.9526 0.0
C3238 C 0.95519 0.23628 0.94421 0.0
C3239 C 0.99056 0.25729 0.93763 0.0
C3240 C 0.00886 0.21794 0.93131 0.0
C3241 C 0.96753 0.30003 0.93268 0.0
C3242 C 0.0307 0.27429 0.94366 0.0
C3243 C 0.01966 0.26404 0.95226 0.0
C3244 C 0.05061 0.27632 0.95907 0.0
C3245 C 0.09331 0.30131 0.95709 0.0
C3246 C 0.10472 0.31401 0.94836 0.0
C3247 C 0.0734 0.29926 0.94155 0.0
loop_
_geom_bond_atom_site_label_1
_geom_bond_atom_site_label_2
_geom_bond_distance
_geom_bond_site_symmetry_2
_ccdc_geom_bond_type
Co0 O3 1.970 . S
Co0 N17 1.989 . S
Co0 O25 1.967 . S
Co0 O32 1.920 . S
Co1 O4 1.966 . S
Co1 N10 2.022 . S
Co1 N18 1.993 . S
Co1 O26 1.941 . S
C2 O3 1.258 . S
C2 O4 1.263 . S
O3 Co0 1.970 . S
O3 C2 1.258 . S
O4 Co1 1.966 . S
O4 C2 1.263 . S
C5 O6 1.235 . S
C5 O32 1.289 . S
O6 C5 1.235 . S
C7 C9 1.400 . S
C7 N10 1.351 . S
C7 C12 1.501 . S
C8 C9 1.387 . S
C8 N11 1.341 . S
C9 C7 1.400 . S
C9 C8 1.387 . S
N10 Co1 2.022 . S
N10 C7 1.351 . S
N10 N11 1.365 . S
N11 C8 1.341 . S
N11 N10 1.365 . S
N11 H31 0.862 . S
C12 C7 1.501 . S
C12 H13 0.961 . S
C12 H14 0.961 . S
C12 H15 0.960 . S
H13 C12 0.961 . S
H14 C12 0.961 . S
H15 C12 0.960 . S
C16 N17 1.342 1_565 S
C16 C20 1.401 . S
C16 C21 1.499 . S
N17 Co0 1.989 . S
N17 C16 1.342 1_545 S
N17 N18 1.388 . S
N18 Co1 1.993 . S
N18 N17 1.388 . S
N18 C19 1.346 1_545 S
C19 N18 1.346 1_565 S
C19 C20 1.396 . S
C19 C29 1.510 . S
C20 C16 1.401 . S
C20 C19 1.396 . S
C21 C16 1.499 . S
C21 H22 0.959 . S
C21 H23 0.960 . S
C21 H24 0.961 . S
H22 C21 0.959 . S
H23 C21 0.960 . S
H24 C21 0.961 . S
O25 Co0 1.967 . S
O25 C33 1.258 . S
O26 Co1 1.941 . S
O26 C33 1.266 . S
H27 C29 0.959 . S
H28 C29 0.961 . S
C29 C19 1.510 . S
C29 H27 0.959 . S
C29 H28 0.961 . S
C29 H30 0.960 . S
H30 C29 0.960 . S
H31 N11 0.862 . S
O32 Co0 1.920 . S
O32 C5 1.289 . S
C33 O25 1.258 . S
C33 O26 1.266 . S
Co34 O37 1.970 . S
Co34 N51 1.989 . S
Co34 O59 1.967 . S
Co34 O66 1.920 . S
Co35 O38 1.966 . S
Co35 N44 2.022 . S
Co35 N52 1.993 . S
Co35 O60 1.941 . S
C36 O37 1.258 . S
C36 O38 1.263 . S
O37 Co34 1.970 . S
O37 C36 1.258 . S
O38 Co35 1.966 . S
O38 C36 1.263 . S
C39 O40 1.235 . S
C39 O66 1.289 . S
O40 C39 1.235 . S
C41 C43 1.400 . S
C41 N44 1.351 . S
C41 C46 1.501 1_545 S
C42 C43 1.387 . S
C42 N45 1.341 . S
C43 C41 1.400 . S
C43 C42 1.387 . S
N44 Co35 2.022 . S
N44 C41 1.351 . S
N44 N45 1.365 . S
N45 C42 1.341 . S
N45 N44 1.365 . S
N45 H65 0.862 . S
C46 C41 1.501 1_565 S
C46 H47 0.961 . S
C46 H48 0.961 . S
C46 H49 0.960 . S
H47 C46 0.961 . S
H48 C46 0.961 . S
H49 C46 0.960 . S
C50 N51 1.342 . S
C50 C54 1.401 . S
C50 C55 1.499 . S
N51 Co34 1.989 . S
N51 C50 1.342 . S
N51 N52 1.388 . S
N52 Co35 1.993 . S
N52 N51 1.388 . S
N52 C53 1.346 . S
C53 N52 1.346 . S
C53 C54 1.396 . S
C53 C63 1.510 . S
C54 C50 1.401 . S
C54 C53 1.396 . S
C55 C50 1.499 . S
C55 H56 0.959 . S
C55 H57 0.960 . S
C55 H58 0.961 . S
H56 C55 0.959 . S
H57 C55 0.960 . S
H58 C55 0.961 . S
O59 Co34 1.967 . S
O59 C67 1.258 . S
O60 Co35 1.941 . S
O60 C67 1.266 . S
H61 C63 0.959 . S
H62 C63 0.961 . S
C63 C53 1.510 . S
C63 H61 0.959 . S
C63 H62 0.961 . S
C63 H64 0.960 . S
H64 C63 0.960 . S
H65 N45 0.862 . S
O66 Co34 1.920 . S
O66 C39 1.289 . S
C67 O59 1.258 . S
C67 O60 1.266 . S
Co68 O71 1.970 . S
Co68 N85 1.989 . S
Co68 O93 1.967 . S
Co68 O100 1.920 . S
Co69 O72 1.966 . S
Co69 N78 2.022 . S
Co69 N86 1.993 . S
Co69 O94 1.941 . S
C70 O71 1.258 . S
C70 O72 1.263 . S
O71 Co68 1.970 . S
O71 C70 1.258 . S
O72 Co69 1.966 . S
O72 C70 1.263 . S
C73 O74 1.235 . S
C73 O100 1.289 . S
O74 C73 1.235 . S
C75 C77 1.400 . S
C75 N78 1.351 . S
C75 C80 1.501 . S
C76 C77 1.387 . S
C76 N79 1.341 . S
C77 C75 1.400 . S
C77 C76 1.387 . S
N78 Co69 2.022 . S
N78 C75 1.351 . S
N78 N79 1.365 . S
N79 C76 1.341 . S
N79 N78 1.365 . S
N79 H99 0.862 . S
C80 C75 1.501 . S
C80 H81 0.961 . S
C80 H82 0.961 . S
C80 H83 0.960 . S
H81 C80 0.961 . S
H82 C80 0.961 . S
H83 C80 0.960 . S
C84 N85 1.342 1_545 S
C84 C88 1.401 . S
C84 C89 1.499 . S
N85 Co68 1.989 . S
N85 C84 1.342 1_565 S
N85 N86 1.388 . S
N86 Co69 1.993 . S
N86 N85 1.388 . S
N86 C87 1.346 1_565 S
C87 N86 1.346 1_545 S
C87 C88 1.396 . S
C87 C97 1.510 . S
C88 C84 1.401 . S
C88 C87 1.396 . S
C89 C84 1.499 . S
C89 H90 0.959 . S
C89 H91 0.960 . S
C89 H92 0.961 . S
H90 C89 0.959 . S
H91 C89 0.960 . S
H92 C89 0.961 . S
O93 Co68 1.967 . S
O93 C101 1.258 . S
O94 Co69 1.941 . S
O94 C101 1.266 . S
H95 C97 0.959 . S
H96 C97 0.961 . S
C97 C87 1.510 . S
C97 H95 0.959 . S
C97 H96 0.961 . S
C97 H98 0.960 . S
H98 C97 0.960 . S
H99 N79 0.862 . S
O100 Co68 1.920 . S
O100 C73 1.289 . S
C101 O93 1.258 . S
C101 O94 1.266 . S
Co102 O105 1.970 . S
Co102 N119 1.989 . S
Co102 O127 1.967 . S
Co102 O134 1.920 . S
Co103 O106 1.966 . S
Co103 N112 2.022 . S
Co103 N120 1.993 . S
Co103 O128 1.941 . S
C104 O105 1.258 . S
C104 O106 1.263 . S
O105 Co102 1.970 . S
O105 C104 1.258 . S
O106 Co103 1.966 . S
O106 C104 1.263 . S
C107 O108 1.235 . S
C107 O134 1.289 . S
O108 C107 1.235 . S
C109 C111 1.400 . S
C109 N112 1.351 . S
C109 C114 1.501 1_565 S
C110 C111 1.387 . S
C110 N113 1.341 . S
C111 C109 1.400 . S
C111 C110 1.387 . S
N112 Co103 2.022 . S
N112 C109 1.351 . S
N112 N113 1.365 . S
N113 C110 1.341 . S
N113 N112 1.365 . S
N113 H133 0.862 . S
C114 C109 1.501 1_545 S
C114 H115 0.961 . S
C114 H116 0.961 . S
C114 H117 0.960 . S
H115 C114 0.961 . S
H116 C114 0.961 . S
H117 C114 0.960 . S
C118 N119 1.342 . S
C118 C122 1.401 . S
C118 C123 1.499 . S
N119 Co102 1.989 . S
N119 C118 1.342 . S
N119 N120 1.388 . S
N120 Co103 1.993 . S
N120 N119 1.388 . S
N120 C121 1.346 . S
C121 N120 1.346 . S
C121 C122 1.396 . S
C121 C131 1.510 . S
C122 C118 1.401 . S
C122 C121 1.396 . S
C123 C118 1.499 . S
C123 H124 0.959 . S
C123 H125 0.960 . S
C123 H126 0.961 . S
H124 C123 0.959 . S
H125 C123 0.960 . S
H126 C123 0.961 . S
O127 Co102 1.967 . S
O127 C135 1.258 . S
O128 Co103 1.941 . S
O128 C135 1.266 . S
H129 C131 0.959 . S
H130 C131 0.961 . S
C131 C121 1.510 . S
C131 H129 0.959 . S
C131 H130 0.961 . S
C131 H132 0.960 . S
H132 C131 0.960 . S
H133 N113 0.862 . S
O134 Co102 1.920 . S
O134 C107 1.289 . S
C135 O127 1.258 . S
C135 O128 1.266 . S
Co136 O139 1.970 . S
Co136 N153 1.989 . S
Co136 O161 1.967 . S
Co136 O168 1.920 . S
Co137 O140 1.966 . S
Co137 N146 2.022 . S
Co137 N154 1.993 . S
Co137 O162 1.941 . S
C138 O139 1.258 . S
C138 O140 1.263 . S
O139 Co136 1.970 . S
O139 C138 1.258 . S
O140 Co137 1.966 . S
O140 C138 1.263 . S
C141 O142 1.235 . S
C141 O168 1.289 . S
O142 C141 1.235 . S
C143 C145 1.400 . S
C143 N146 1.351 . S
C143 C148 1.501 . S
C144 C145 1.387 . S
C144 N147 1.341 . S
C145 C143 1.400 . S
C145 C144 1.387 . S
N146 Co137 2.022 . S
N146 C143 1.351 . S
N146 N147 1.365 . S
N147 C144 1.341 . S
N147 N146 1.365 . S
N147 H167 0.862 . S
C148 C143 1.501 . S
C148 H149 0.961 . S
C148 H150 0.961 . S
C148 H151 0.960 . S
H149 C148 0.961 . S
H150 C148 0.961 . S
H151 C148 0.960 . S
C152 N153 1.342 1_545 S
C152 C156 1.401 . S
C152 C157 1.499 . S
N153 Co136 1.989 . S
N153 C152 1.342 1_565 S
N153 N154 1.388 . S
N154 Co137 1.993 . S
N154 N153 1.388 . S
N154 C155 1.346 1_565 S
C155 N154 1.346 1_545 S
C155 C156 1.396 . S
C155 C165 1.510 . S
C156 C152 1.401 . S
C156 C155 1.396 . S
C157 C152 1.499 . S
C157 H158 0.959 . S
C157 H159 0.960 . S
C157 H160 0.961 . S
H158 C157 0.959 . S
H159 C157 0.960 . S
H160 C157 0.961 . S
O161 Co136 1.967 . S
O161 C169 1.258 . S
O162 Co137 1.941 . S
O162 C169 1.266 . S
H163 C165 0.959 . S
H164 C165 0.961 . S
C165 C155 1.510 . S
C165 H163 0.959 . S
C165 H164 0.961 . S
C165 H166 0.960 . S
H166 C165 0.960 . S
H167 N147 0.862 . S
O168 Co136 1.920 . S
O168 C141 1.289 . S
C169 O161 1.258 . S
C169 O162 1.266 . S
Co170 O173 1.970 . S
Co170 N187 1.989 . S
Co170 O195 1.967 . S
Co170 O202 1.920 . S
Co171 O174 1.966 . S
Co171 N180 2.022 . S
Co171 N188 1.993 . S
Co171 O196 1.941 . S
C172 O173 1.258 . S
C172 O174 1.263 . S
O173 Co170 1.970 . S
O173 C172 1.258 . S
O174 Co171 1.966 . S
O174 C172 1.263 . S
C175 O176 1.235 . S
C175 O202 1.289 . S
O176 C175 1.235 . S
C177 C179 1.400 . S
C177 N180 1.351 . S
C177 C182 1.501 1_545 S
C178 C179 1.387 . S
C178 N181 1.341 . S
C179 C177 1.400 . S
C179 C178 1.387 . S
N180 Co171 2.022 . S
N180 C177 1.351 . S
N180 N181 1.365 . S
N181 C178 1.341 . S
N181 N180 1.365 . S
N181 H201 0.862 . S
C182 C177 1.501 1_565 S
C182 H183 0.961 . S
C182 H184 0.961 . S
C182 H185 0.960 . S
H183 C182 0.961 . S
H184 C182 0.961 . S
H185 C182 0.960 . S
C186 N187 1.342 . S
C186 C190 1.401 . S
C186 C191 1.499 . S
N187 Co170 1.989 . S
N187 C186 1.342 . S
N187 N188 1.388 . S
N188 Co171 1.993 . S
N188 N187 1.388 . S
N188 C189 1.346 . S
C189 N188 1.346 . S
C189 C190 1.396 . S
C189 C199 1.510 . S
C190 C186 1.401 . S
C190 C189 1.396 . S
C191 C186 1.499 . S
C191 H192 0.959 . S
C191 H193 0.960 . S
C191 H194 0.961 . S
H192 C191 0.959 . S
H193 C191 0.960 . S
H194 C191 0.961 . S
O195 Co170 1.967 . S
O195 C203 1.258 . S
O196 Co171 1.941 . S
O196 C203 1.266 . S
H197 C199 0.959 . S
H198 C199 0.961 . S
C199 C189 1.510 . S
C199 H197 0.959 . S
C199 H198 0.961 . S
C199 H200 0.960 . S
H200 C199 0.960 . S
H201 N181 0.862 . S
O202 Co170 1.920 . S
O202 C175 1.289 . S
C203 O195 1.258 . S
C203 O196 1.266 . S
Co204 O207 1.970 . S
Co204 N221 1.989 . S
Co204 O229 1.967 . S
Co204 O236 1.920 . S
Co205 O208 1.966 . S
Co205 N214 2.022 . S
Co205 N222 1.993 . S
Co205 O230 1.941 . S
C206 O207 1.258 . S
C206 O208 1.263 . S
O207 Co204 1.970 . S
O207 C206 1.258 . S
O208 Co205 1.966 . S
O208 C206 1.263 . S
C209 O210 1.235 . S
C209 O236 1.289 . S
O210 C209 1.235 . S
C211 C213 1.400 . S
C211 N214 1.351 . S
C211 C216 1.501 . S
C212 C213 1.387 . S
C212 N215 1.341 . S
C213 C211 1.400 . S
C213 C212 1.387 . S
N214 Co205 2.022 . S
N214 C211 1.351 . S
N214 N215 1.365 . S
N215 C212 1.341 . S
N215 N214 1.365 . S
N215 H235 0.862 . S
C216 C211 1.501 . S
C216 H217 0.961 . S
C216 H218 0.961 . S
C216 H219 0.960 . S
H217 C216 0.961 . S
H218 C216 0.961 . S
H219 C216 0.960 . S
C220 N221 1.342 1_565 S
C220 C224 1.401 . S
C220 C225 1.499 . S
N221 Co204 1.989 . S
N221 C220 1.342 1_545 S
N221 N222 1.388 . S
N222 Co205 1.993 . S
N222 N221 1.388 . S
N222 C223 1.346 1_545 S
C223 N222 1.346 1_565 S
C223 C224 1.396 . S
C223 C233 1.510 . S
C224 C220 1.401 . S
C224 C223 1.396 . S
C225 C220 1.499 . S
C225 H226 0.959 . S
C225 H227 0.960 . S
C225 H228 0.961 . S
H226 C225 0.959 . S
H227 C225 0.960 . S
H228 C225 0.961 . S
O229 Co204 1.967 . S
O229 C237 1.258 . S
O230 Co205 1.941 . S
O230 C237 1.266 . S
H231 C233 0.959 . S
H232 C233 0.961 . S
C233 C223 1.510 . S
C233 H231 0.959 . S
C233 H232 0.961 . S
C233 H234 0.960 . S
H234 C233 0.960 . S
H235 N215 0.862 . S
O236 Co204 1.920 . S
O236 C209 1.289 . S
C237 O229 1.258 . S
C237 O230 1.266 . S
Co238 O241 1.970 . S
Co238 N255 1.989 . S
Co238 O263 1.967 . S
Co238 O270 1.920 . S
Co239 O242 1.966 . S
Co239 N248 2.022 . S
Co239 N256 1.993 . S
Co239 O264 1.941 . S
C240 O241 1.258 . S
C240 O242 1.263 . S
O241 Co238 1.970 . S
O241 C240 1.258 . S
O242 Co239 1.966 . S
O242 C240 1.263 . S
C243 O244 1.235 . S
C243 O270 1.289 . S
O244 C243 1.235 . S
C245 C247 1.400 . S
C245 N248 1.351 . S
C245 C250 1.501 1_565 S
C246 C247 1.387 . S
C246 N249 1.341 . S
C247 C245 1.400 . S
C247 C246 1.387 . S
N248 Co239 2.022 . S
N248 C245 1.351 . S
N248 N249 1.365 . S
N249 C246 1.341 . S
N249 N248 1.365 . S
N249 H269 0.862 . S
C250 C245 1.501 1_545 S
C250 H251 0.961 . S
C250 H252 0.961 . S
C250 H253 0.960 . S
H251 C250 0.961 . S
H252 C250 0.961 . S
H253 C250 0.960 . S
C254 N255 1.342 . S
C254 C258 1.401 . S
C254 C259 1.499 . S
N255 Co238 1.989 . S
N255 C254 1.342 . S
N255 N256 1.388 . S
N256 Co239 1.993 . S
N256 N255 1.388 . S
N256 C257 1.346 . S
C257 N256 1.346 . S
C257 C258 1.396 . S
C257 C267 1.510 . S
C258 C254 1.401 . S
C258 C257 1.396 . S
C259 C254 1.499 . S
C259 H260 0.959 . S
C259 H261 0.960 . S
C259 H262 0.961 . S
H260 C259 0.959 . S
H261 C259 0.960 . S
H262 C259 0.961 . S
O263 Co238 1.967 . S
O263 C271 1.258 . S
O264 Co239 1.941 . S
O264 C271 1.266 . S
H265 C267 0.959 . S
H266 C267 0.961 . S
C267 C257 1.510 . S
C267 H265 0.959 . S
C267 H266 0.961 . S
C267 H268 0.960 . S
H268 C267 0.960 . S
H269 N249 0.862 . S
O270 Co238 1.920 . S
O270 C243 1.289 . S
C271 O263 1.258 . S
C271 O264 1.266 . S
Co272 O275 1.970 . S
Co272 N289 1.989 . S
Co272 O297 1.967 . S
Co272 O304 1.920 . S
Co273 O276 1.966 . S
Co273 N282 2.022 . S
Co273 N290 1.993 . S
Co273 O298 1.941 . S
C274 O275 1.258 . S
C274 O276 1.263 . S
O275 Co272 1.970 . S
O275 C274 1.258 . S
O276 Co273 1.966 . S
O276 C274 1.263 . S
C277 O278 1.235 . S
C277 O304 1.289 . S
O278 C277 1.235 . S
C279 C281 1.400 . S
C279 N282 1.351 . S
C279 C284 1.501 . S
C280 C281 1.387 . S
C280 N283 1.341 . S
C281 C279 1.400 . S
C281 C280 1.387 . S
N282 Co273 2.022 . S
N282 C279 1.351 . S
N282 N283 1.365 . S
N283 C280 1.341 . S
N283 N282 1.365 . S
N283 H303 0.862 . S
C284 C279 1.501 . S
C284 H285 0.961 . S
C284 H286 0.961 . S
C284 H287 0.960 . S
H285 C284 0.961 . S
H286 C284 0.961 . S
H287 C284 0.960 . S
C288 N289 1.342 1_545 S
C288 C292 1.401 . S
C288 C293 1.499 . S
N289 Co272 1.989 . S
N289 C288 1.342 1_565 S
N289 N290 1.388 . S
N290 Co273 1.993 . S
N290 N289 1.388 . S
N290 C291 1.346 1_565 S
C291 N290 1.346 1_545 S
C291 C292 1.396 . S
C291 C301 1.510 . S
C292 C288 1.401 . S
C292 C291 1.396 . S
C293 C288 1.499 . S
C293 H294 0.959 . S
C293 H295 0.960 . S
C293 H296 0.961 . S
H294 C293 0.959 . S
H295 C293 0.960 . S
H296 C293 0.961 . S
O297 Co272 1.967 . S
O297 C305 1.258 . S
O298 Co273 1.941 . S
O298 C305 1.266 . S
H299 C301 0.959 . S
H300 C301 0.961 . S
C301 C291 1.510 . S
C301 H299 0.959 . S
C301 H300 0.961 . S
C301 H302 0.960 . S
H302 C301 0.960 . S
H303 N283 0.862 . S
O304 Co272 1.920 . S
O304 C277 1.289 . S
C305 O297 1.258 . S
C305 O298 1.266 . S
Co306 O309 1.970 . S
Co306 N323 1.989 . S
Co306 O331 1.967 . S
Co306 O338 1.920 . S
Co307 O310 1.966 . S
Co307 N316 2.022 . S
Co307 N324 1.993 . S
Co307 O332 1.941 . S
C308 O309 1.258 . S
C308 O310 1.263 . S
O309 Co306 1.970 . S
O309 C308 1.258 . S
O310 Co307 1.966 . S
O310 C308 1.263 . S
C311 O312 1.235 . S
C311 O338 1.289 . S
O312 C311 1.235 . S
C313 C315 1.400 . S
C313 N316 1.351 . S
C313 C318 1.501 1_565 S
C314 C315 1.387 . S
C314 N317 1.341 . S
C315 C313 1.400 . S
C315 C314 1.387 . S
N316 Co307 2.022 . S
N316 C313 1.351 . S
N316 N317 1.365 . S
N317 C314 1.341 . S
N317 N316 1.365 . S
N317 H337 0.862 . S
C318 C313 1.501 1_545 S
C318 H319 0.961 . S
C318 H320 0.961 . S
C318 H321 0.960 . S
H319 C318 0.961 . S
H320 C318 0.961 . S
H321 C318 0.960 . S
C322 N323 1.342 . S
C322 C326 1.401 . S
C322 C327 1.499 . S
N323 Co306 1.989 . S
N323 C322 1.342 . S
N323 N324 1.388 . S
N324 Co307 1.993 . S
N324 N323 1.388 . S
N324 C325 1.346 . S
C325 N324 1.346 . S
C325 C326 1.396 . S
C325 C335 1.510 . S
C326 C322 1.401 . S
C326 C325 1.396 . S
C327 C322 1.499 . S
C327 H328 0.959 . S
C327 H329 0.960 . S
C327 H330 0.961 . S
H328 C327 0.959 . S
H329 C327 0.960 . S
H330 C327 0.961 . S
O331 Co306 1.967 . S
O331 C339 1.258 . S
O332 Co307 1.941 . S
O332 C339 1.266 . S
H333 C335 0.959 . S
H334 C335 0.961 . S
C335 C325 1.510 . S
C335 H333 0.959 . S
C335 H334 0.961 . S
C335 H336 0.960 . S
H336 C335 0.960 . S
H337 N317 0.862 . S
O338 Co306 1.920 . S
O338 C311 1.289 . S
C339 O331 1.258 . S
C339 O332 1.266 . S
Co340 O343 1.970 . S
Co340 N357 1.989 . S
Co340 O365 1.967 . S
Co340 O372 1.920 . S
Co341 O344 1.966 . S
Co341 N350 2.022 . S
Co341 N358 1.993 . S
Co341 O366 1.941 . S
C342 O343 1.258 . S
C342 O344 1.263 . S
O343 Co340 1.970 . S
O343 C342 1.258 . S
O344 Co341 1.966 . S
O344 C342 1.263 . S
C345 O346 1.235 . S
C345 O372 1.289 . S
O346 C345 1.235 . S
C347 C349 1.400 . S
C347 N350 1.351 . S
C347 C352 1.501 . S
C348 C349 1.387 . S
C348 N351 1.341 . S
C349 C347 1.400 . S
C349 C348 1.387 . S
N350 Co341 2.022 . S
N350 C347 1.351 . S
N350 N351 1.365 . S
N351 C348 1.341 . S
N351 N350 1.365 . S
N351 H371 0.862 . S
C352 C347 1.501 . S
C352 H353 0.961 . S
C352 H354 0.961 . S
C352 H355 0.960 . S
H353 C352 0.961 . S
H354 C352 0.961 . S
H355 C352 0.960 . S
C356 N357 1.342 1_565 S
C356 C360 1.401 . S
C356 C361 1.499 . S
N357 Co340 1.989 . S
N357 C356 1.342 1_545 S
N357 N358 1.388 . S
N358 Co341 1.993 . S
N358 N357 1.388 . S
N358 C359 1.346 1_545 S
C359 N358 1.346 1_565 S
C359 C360 1.396 . S
C359 C369 1.510 . S
C360 C356 1.401 . S
C360 C359 1.396 . S
C361 C356 1.499 . S
C361 H362 0.959 . S
C361 H363 0.960 . S
C361 H364 0.961 . S
H362 C361 0.959 . S
H363 C361 0.960 . S
H364 C361 0.961 . S
O365 Co340 1.967 . S
O365 C373 1.258 . S
O366 Co341 1.941 . S
O366 C373 1.266 . S
H367 C369 0.959 . S
H368 C369 0.961 . S
C369 C359 1.510 . S
C369 H367 0.959 . S
C369 H368 0.961 . S
C369 H370 0.960 . S
H370 C369 0.960 . S
H371 N351 0.862 . S
O372 Co340 1.920 . S
O372 C345 1.289 . S
C373 O365 1.258 . S
C373 O366 1.266 . S
Co374 O377 1.970 . S
Co374 N391 1.989 . S
Co374 O399 1.967 . S
Co374 O406 1.920 . S
Co375 O378 1.966 . S
Co375 N384 2.022 . S
Co375 N392 1.993 . S
Co375 O400 1.941 . S
C376 O377 1.258 . S
C376 O378 1.263 . S
O377 Co374 1.970 . S
O377 C376 1.258 . S
O378 Co375 1.966 . S
O378 C376 1.263 . S
C379 O380 1.235 . S
C379 O406 1.289 . S
O380 C379 1.235 . S
C381 C383 1.400 . S
C381 N384 1.351 . S
C381 C386 1.501 1_545 S
C382 C383 1.387 . S
C382 N385 1.341 . S
C383 C381 1.400 . S
C383 C382 1.387 . S
N384 Co375 2.022 . S
N384 C381 1.351 . S
N384 N385 1.365 . S
N385 C382 1.341 . S
N385 N384 1.365 . S
N385 H405 0.862 . S
C386 C381 1.501 1_565 S
C386 H387 0.961 . S
C386 H388 0.961 . S
C386 H389 0.960 . S
H387 C386 0.961 . S
H388 C386 0.961 . S
H389 C386 0.960 . S
C390 N391 1.342 . S
C390 C394 1.401 . S
C390 C395 1.499 . S
N391 Co374 1.989 . S
N391 C390 1.342 . S
N391 N392 1.388 . S
N392 Co375 1.993 . S
N392 N391 1.388 . S
N392 C393 1.346 . S
C393 N392 1.346 . S
C393 C394 1.396 . S
C393 C403 1.510 . S
C394 C390 1.401 . S
C394 C393 1.396 . S
C395 C390 1.499 . S
C395 H396 0.959 . S
C395 H397 0.960 . S
C395 H398 0.961 . S
H396 C395 0.959 . S
H397 C395 0.960 . S
H398 C395 0.961 . S
O399 Co374 1.967 . S
O399 C407 1.258 . S
O400 Co375 1.941 . S
O400 C407 1.266 . S
H401 C403 0.959 . S
H402 C403 0.961 . S
C403 C393 1.510 . S
C403 H401 0.959 . S
C403 H402 0.961 . S
C403 H404 0.960 . S
H404 C403 0.960 . S
H405 N385 0.862 . S
O406 Co374 1.920 . S
O406 C379 1.289 . S
C407 O399 1.258 . S
C407 O400 1.266 . S
Co408 O411 1.970 . S
Co408 N425 1.989 . S
Co408 O433 1.967 . S
Co408 O440 1.920 . S
Co409 O412 1.966 . S
Co409 N418 2.022 . S
Co409 N426 1.993 . S
Co409 O434 1.941 . S
C410 O411 1.258 . S
C410 O412 1.263 . S
O411 Co408 1.970 . S
O411 C410 1.258 . S
O412 Co409 1.966 . S
O412 C410 1.263 . S
C413 O414 1.235 . S
C413 O440 1.289 . S
O414 C413 1.235 . S
C415 C417 1.400 . S
C415 N418 1.351 . S
C415 C420 1.501 . S
C416 C417 1.387 . S
C416 N419 1.341 . S
C417 C415 1.400 . S
C417 C416 1.387 . S
N418 Co409 2.022 . S
N418 C415 1.351 . S
N418 N419 1.365 . S
N419 C416 1.341 . S
N419 N418 1.365 . S
N419 H439 0.862 . S
C420 C415 1.501 . S
C420 H421 0.961 . S
C420 H422 0.961 . S
C420 H423 0.960 . S
H421 C420 0.961 . S
H422 C420 0.961 . S
H423 C420 0.960 . S
C424 N425 1.342 1_565 S
C424 C428 1.401 . S
C424 C429 1.499 . S
N425 Co408 1.989 . S
N425 C424 1.342 1_545 S
N425 N426 1.388 . S
N426 Co409 1.993 . S
N426 N425 1.388 . S
N426 C427 1.346 1_545 S
C427 N426 1.346 1_565 S
C427 C428 1.396 . S
C427 C437 1.510 . S
C428 C424 1.401 . S
C428 C427 1.396 . S
C429 C424 1.499 . S
C429 H430 0.959 . S
C429 H431 0.960 . S
C429 H432 0.961 . S
H430 C429 0.959 . S
H431 C429 0.960 . S
H432 C429 0.961 . S
O433 Co408 1.967 . S
O433 C441 1.258 . S
O434 Co409 1.941 . S
O434 C441 1.266 . S
H435 C437 0.959 . S
H436 C437 0.961 . S
C437 C427 1.510 . S
C437 H435 0.959 . S
C437 H436 0.961 . S
C437 H438 0.960 . S
H438 C437 0.960 . S
H439 N419 0.862 . S
O440 Co408 1.920 . S
O440 C413 1.289 . S
C441 O433 1.258 . S
C441 O434 1.266 . S
Co442 O445 1.970 . S
Co442 N459 1.989 . S
Co442 O467 1.967 . S
Co442 O474 1.920 . S
Co443 O446 1.966 . S
Co443 N452 2.022 . S
Co443 N460 1.993 . S
Co443 O468 1.941 . S
C444 O445 1.258 . S
C444 O446 1.263 . S
O445 Co442 1.970 . S
O445 C444 1.258 . S
O446 Co443 1.966 . S
O446 C444 1.263 . S
C447 O448 1.235 . S
C447 O474 1.289 . S
O448 C447 1.235 . S
C449 C451 1.400 . S
C449 N452 1.351 . S
C449 C454 1.501 1_565 S
C450 C451 1.387 . S
C450 N453 1.341 . S
C451 C449 1.400 . S
C451 C450 1.387 . S
N452 Co443 2.022 . S
N452 C449 1.351 . S
N452 N453 1.365 . S
N453 C450 1.341 . S
N453 N452 1.365 . S
N453 H473 0.862 . S
C454 C449 1.501 1_545 S
C454 H455 0.961 . S
C454 H456 0.961 . S
C454 H457 0.960 . S
H455 C454 0.961 . S
H456 C454 0.961 . S
H457 C454 0.960 . S
C458 N459 1.342 . S
C458 C462 1.401 . S
C458 C463 1.499 . S
N459 Co442 1.989 . S
N459 C458 1.342 . S
N459 N460 1.388 . S
N460 Co443 1.993 . S
N460 N459 1.388 . S
N460 C461 1.346 . S
C461 N460 1.346 . S
C461 C462 1.396 . S
C461 C471 1.510 . S
C462 C458 1.401 . S
C462 C461 1.396 . S
C463 C458 1.499 . S
C463 H464 0.959 . S
C463 H465 0.960 . S
C463 H466 0.961 . S
H464 C463 0.959 . S
H465 C463 0.960 . S
H466 C463 0.961 . S
O467 Co442 1.967 . S
O467 C475 1.258 . S
O468 Co443 1.941 . S
O468 C475 1.266 . S
H469 C471 0.959 . S
H470 C471 0.961 . S
C471 C461 1.510 . S
C471 H469 0.959 . S
C471 H470 0.961 . S
C471 H472 0.960 . S
H472 C471 0.960 . S
H473 N453 0.862 . S
O474 Co442 1.920 . S
O474 C447 1.289 . S
C475 O467 1.258 . S
C475 O468 1.266 . S
Co476 O479 1.970 . S
Co476 N493 1.989 . S
Co476 O501 1.967 . S
Co476 O508 1.920 . S
Co477 O480 1.966 . S
Co477 N486 2.022 . S
Co477 N494 1.993 . S
Co477 O502 1.941 . S
C478 O479 1.258 . S
C478 O480 1.263 . S
O479 Co476 1.970 . S
O479 C478 1.258 . S
O480 Co477 1.966 . S
O480 C478 1.263 . S
C481 O482 1.235 . S
C481 O508 1.289 . S
O482 C481 1.235 . S
C483 C485 1.400 . S
C483 N486 1.351 . S
C483 C488 1.501 . S
C484 C485 1.387 . S
C484 N487 1.341 . S
C485 C483 1.400 . S
C485 C484 1.387 . S
N486 Co477 2.022 . S
N486 C483 1.351 . S
N486 N487 1.365 . S
N487 C484 1.341 . S
N487 N486 1.365 . S
N487 H507 0.862 . S
C488 C483 1.501 . S
C488 H489 0.961 . S
C488 H490 0.961 . S
C488 H491 0.960 . S
H489 C488 0.961 . S
H490 C488 0.961 . S
H491 C488 0.960 . S
C492 N493 1.342 1_545 S
C492 C496 1.401 . S
C492 C497 1.499 . S
N493 Co476 1.989 . S
N493 C492 1.342 1_565 S
N493 N494 1.388 . S
N494 Co477 1.993 . S
N494 N493 1.388 . S
N494 C495 1.346 1_565 S
C495 N494 1.346 1_545 S
C495 C496 1.396 . S
C495 C505 1.510 . S
C496 C492 1.401 . S
C496 C495 1.396 . S
C497 C492 1.499 . S
C497 H498 0.959 . S
C497 H499 0.960 . S
C497 H500 0.961 . S
H498 C497 0.959 . S
H499 C497 0.960 . S
H500 C497 0.961 . S
O501 Co476 1.967 . S
O501 C509 1.258 . S
O502 Co477 1.941 . S
O502 C509 1.266 . S
H503 C505 0.959 . S
H504 C505 0.961 . S
C505 C495 1.510 . S
C505 H503 0.959 . S
C505 H504 0.961 . S
C505 H506 0.960 . S
H506 C505 0.960 . S
H507 N487 0.862 . S
O508 Co476 1.920 . S
O508 C481 1.289 . S
C509 O501 1.258 . S
C509 O502 1.266 . S
Co510 O513 1.970 . S
Co510 N527 1.989 . S
Co510 O535 1.967 . S
Co510 O542 1.920 . S
Co511 O514 1.966 . S
Co511 N520 2.022 . S
Co511 N528 1.993 . S
Co511 O536 1.941 . S
C512 O513 1.258 . S
C512 O514 1.263 . S
O513 Co510 1.970 . S
O513 C512 1.258 . S
O514 Co511 1.966 . S
O514 C512 1.263 . S
C515 O516 1.235 . S
C515 O542 1.289 . S
O516 C515 1.235 . S
C517 C519 1.400 . S
C517 N520 1.351 . S
C517 C522 1.501 1_545 S
C518 C519 1.387 . S
C518 N521 1.341 . S
C519 C517 1.400 . S
C519 C518 1.387 . S
N520 Co511 2.022 . S
N520 C517 1.351 . S
N520 N521 1.365 . S
N521 C518 1.341 . S
N521 N520 1.365 . S
N521 H541 0.862 . S
C522 C517 1.501 1_565 S
C522 H523 0.961 . S
C522 H524 0.961 . S
C522 H525 0.960 . S
H523 C522 0.961 . S
H524 C522 0.961 . S
H525 C522 0.960 . S
C526 N527 1.342 . S
C526 C530 1.401 . S
C526 C531 1.499 . S
N527 Co510 1.989 . S
N527 C526 1.342 . S
N527 N528 1.388 . S
N528 Co511 1.993 . S
N528 N527 1.388 . S
N528 C529 1.346 . S
C529 N528 1.346 . S
C529 C530 1.396 . S
C529 C539 1.510 . S
C530 C526 1.401 . S
C530 C529 1.396 . S
C531 C526 1.499 . S
C531 H532 0.959 . S
C531 H533 0.960 . S
C531 H534 0.961 . S
H532 C531 0.959 . S
H533 C531 0.960 . S
H534 C531 0.961 . S
O535 Co510 1.967 . S
O535 C543 1.258 . S
O536 Co511 1.941 . S
O536 C543 1.266 . S
H537 C539 0.959 . S
H538 C539 0.961 . S
C539 C529 1.510 . S
C539 H537 0.959 . S
C539 H538 0.961 . S
C539 H540 0.960 . S
H540 C539 0.960 . S
H541 N521 0.862 . S
O542 Co510 1.920 . S
O542 C515 1.289 . S
C543 O535 1.258 . S
C543 O536 1.266 . S
Co544 O547 1.970 . S
Co544 N561 1.989 . S
Co544 O569 1.967 . S
Co544 O576 1.920 . S
Co545 O548 1.966 . S
Co545 N554 2.022 . S
Co545 N562 1.993 . S
Co545 O570 1.941 . S
C546 O547 1.258 . S
C546 O548 1.263 . S
O547 Co544 1.970 . S
O547 C546 1.258 . S
O548 Co545 1.966 . S
O548 C546 1.263 . S
C549 O550 1.235 . S
C549 O576 1.289 . S
O550 C549 1.235 . S
C551 C553 1.400 . S
C551 N554 1.351 . S
C551 C556 1.501 . S
C552 C553 1.387 . S
C552 N555 1.341 . S
C553 C551 1.400 . S
C553 C552 1.387 . S
N554 Co545 2.022 . S
N554 C551 1.351 . S
N554 N555 1.365 . S
N555 C552 1.341 . S
N555 N554 1.365 . S
N555 H575 0.862 . S
C556 C551 1.501 . S
C556 H557 0.961 . S
C556 H558 0.961 . S
C556 H559 0.960 . S
H557 C556 0.961 . S
H558 C556 0.961 . S
H559 C556 0.960 . S
C560 N561 1.342 . S
C560 C564 1.401 . S
C560 C565 1.499 . S
N561 Co544 1.989 . S
N561 C560 1.342 . S
N561 N562 1.388 . S
N562 Co545 1.993 . S
N562 N561 1.388 . S
N562 C563 1.346 . S
C563 N562 1.346 . S
C563 C564 1.396 . S
C563 C573 1.510 . S
C564 C560 1.401 . S
C564 C563 1.396 . S
C565 C560 1.499 . S
C565 H566 0.959 . S
C565 H567 0.960 . S
C565 H568 0.961 . S
H566 C565 0.959 . S
H567 C565 0.960 . S
H568 C565 0.961 . S
O569 Co544 1.967 . S
O569 C577 1.258 . S
O570 Co545 1.941 . S
O570 C577 1.266 . S
H571 C573 0.959 . S
H572 C573 0.961 . S
C573 C563 1.510 . S
C573 H571 0.959 . S
C573 H572 0.961 . S
C573 H574 0.960 . S
H574 C573 0.960 . S
H575 N555 0.862 . S
O576 Co544 1.920 . S
O576 C549 1.289 . S
C577 O569 1.258 . S
C577 O570 1.266 . S
Co578 O581 1.970 . S
Co578 N595 1.989 . S
Co578 O603 1.967 . S
Co578 O610 1.920 . S
Co579 O582 1.966 . S
Co579 N588 2.022 . S
Co579 N596 1.993 . S
Co579 O604 1.941 . S
C580 O581 1.258 . S
C580 O582 1.263 . S
O581 Co578 1.970 . S
O581 C580 1.258 . S
O582 Co579 1.966 . S
O582 C580 1.263 . S
C583 O584 1.235 . S
C583 O610 1.289 . S
O584 C583 1.235 . S
C585 C587 1.400 . S
C585 N588 1.351 . S
C585 C590 1.501 . S
C586 C587 1.387 . S
C586 N589 1.341 . S
C587 C585 1.400 . S
C587 C586 1.387 . S
N588 Co579 2.022 . S
N588 C585 1.351 . S
N588 N589 1.365 . S
N589 C586 1.341 . S
N589 N588 1.365 . S
N589 H609 0.862 . S
C590 C585 1.501 . S
C590 H591 0.961 . S
C590 H592 0.961 . S
C590 H593 0.960 . S
H591 C590 0.961 . S
H592 C590 0.961 . S
H593 C590 0.960 . S
C594 N595 1.342 . S
C594 C598 1.401 . S
C594 C599 1.499 . S
N595 Co578 1.989 . S
N595 C594 1.342 . S
N595 N596 1.388 . S
N596 Co579 1.993 . S
N596 N595 1.388 . S
N596 C597 1.346 . S
C597 N596 1.346 . S
C597 C598 1.396 . S
C597 C607 1.510 . S
C598 C594 1.401 . S
C598 C597 1.396 . S
C599 C594 1.499 . S
C599 H600 0.959 . S
C599 H601 0.960 . S
C599 H602 0.961 . S
H600 C599 0.959 . S
H601 C599 0.960 . S
H602 C599 0.961 . S
O603 Co578 1.967 . S
O603 C611 1.258 . S
O604 Co579 1.941 . S
O604 C611 1.266 . S
H605 C607 0.959 . S
H606 C607 0.961 . S
C607 C597 1.510 . S
C607 H605 0.959 . S
C607 H606 0.961 . S
C607 H608 0.960 . S
H608 C607 0.960 . S
H609 N589 0.862 . S
O610 Co578 1.920 . S
O610 C583 1.289 . S
C611 O603 1.258 . S
C611 O604 1.266 . S
Co612 O615 1.970 . S
Co612 N629 1.989 . S
Co612 O637 1.967 . S
Co612 O644 1.920 . S
Co613 O616 1.966 . S
Co613 N622 2.022 . S
Co613 N630 1.993 . S
Co613 O638 1.941 . S
C614 O615 1.258 . S
C614 O616 1.263 . S
O615 Co612 1.970 . S
O615 C614 1.258 . S
O616 Co613 1.966 . S
O616 C614 1.263 . S
C617 O618 1.235 . S
C617 O644 1.289 . S
O618 C617 1.235 . S
C619 C621 1.400 . S
C619 N622 1.351 . S
C619 C624 1.501 . S
C620 C621 1.387 . S
C620 N623 1.341 . S
C621 C619 1.400 . S
C621 C620 1.387 . S
N622 Co613 2.022 . S
N622 C619 1.351 . S
N622 N623 1.365 . S
N623 C620 1.341 . S
N623 N622 1.365 . S
N623 H643 0.862 . S
C624 C619 1.501 . S
C624 H625 0.961 . S
C624 H626 0.961 . S
C624 H627 0.960 . S
H625 C624 0.961 . S
H626 C624 0.961 . S
H627 C624 0.960 . S
C628 N629 1.342 . S
C628 C632 1.401 . S
C628 C633 1.499 . S
N629 Co612 1.989 . S
N629 C628 1.342 . S
N629 N630 1.388 . S
N630 Co613 1.993 . S
N630 N629 1.388 . S
N630 C631 1.346 . S
C631 N630 1.346 . S
C631 C632 1.396 . S
C631 C641 1.510 . S
C632 C628 1.401 . S
C632 C631 1.396 . S
C633 C628 1.499 . S
C633 H634 0.959 . S
C633 H635 0.960 . S
C633 H636 0.961 . S
H634 C633 0.959 . S
H635 C633 0.960 . S
H636 C633 0.961 . S
O637 Co612 1.967 . S
O637 C645 1.258 . S
O638 Co613 1.941 . S
O638 C645 1.266 . S
H639 C641 0.959 . S
H640 C641 0.961 . S
C641 C631 1.510 . S
C641 H639 0.959 . S
C641 H640 0.961 . S
C641 H642 0.960 . S
H642 C641 0.960 . S
H643 N623 0.862 . S
O644 Co612 1.920 . S
O644 C617 1.289 . S
C645 O637 1.258 . S
C645 O638 1.266 . S
Co646 O649 1.970 . S
Co646 N663 1.989 . S
Co646 O671 1.967 . S
Co646 O678 1.920 . S
Co647 O650 1.966 . S
Co647 N656 2.022 . S
Co647 N664 1.993 . S
Co647 O672 1.941 . S
C648 O649 1.258 . S
C648 O650 1.263 . S
O649 Co646 1.970 . S
O649 C648 1.258 . S
O650 Co647 1.966 . S
O650 C648 1.263 . S
C651 O652 1.235 . S
C651 O678 1.289 . S
O652 C651 1.235 . S
C653 C655 1.400 . S
C653 N656 1.351 . S
C653 C658 1.501 . S
C654 C655 1.387 . S
C654 N657 1.341 . S
C655 C653 1.400 . S
C655 C654 1.387 . S
N656 Co647 2.022 . S
N656 C653 1.351 . S
N656 N657 1.365 . S
N657 C654 1.341 . S
N657 N656 1.365 . S
N657 H677 0.862 . S
C658 C653 1.501 . S
C658 H659 0.961 . S
C658 H660 0.961 . S
C658 H661 0.960 . S
H659 C658 0.961 . S
H660 C658 0.961 . S
H661 C658 0.960 . S
C662 N663 1.342 . S
C662 C666 1.401 . S
C662 C667 1.499 . S
N663 Co646 1.989 . S
N663 C662 1.342 . S
N663 N664 1.388 . S
N664 Co647 1.993 . S
N664 N663 1.388 . S
N664 C665 1.346 . S
C665 N664 1.346 . S
C665 C666 1.396 . S
C665 C675 1.510 . S
C666 C662 1.401 . S
C666 C665 1.396 . S
C667 C662 1.499 . S
C667 H668 0.959 . S
C667 H669 0.960 . S
C667 H670 0.961 . S
H668 C667 0.959 . S
H669 C667 0.960 . S
H670 C667 0.961 . S
O671 Co646 1.967 . S
O671 C679 1.258 . S
O672 Co647 1.941 . S
O672 C679 1.266 . S
H673 C675 0.959 . S
H674 C675 0.961 . S
C675 C665 1.510 . S
C675 H673 0.959 . S
C675 H674 0.961 . S
C675 H676 0.960 . S
H676 C675 0.960 . S
H677 N657 0.862 . S
O678 Co646 1.920 . S
O678 C651 1.289 . S
C679 O671 1.258 . S
C679 O672 1.266 . S
Co680 O683 1.970 . S
Co680 N697 1.989 . S
Co680 O705 1.967 . S
Co680 O712 1.920 . S
Co681 O684 1.966 . S
Co681 N690 2.022 . S
Co681 N698 1.993 . S
Co681 O706 1.941 . S
C682 O683 1.258 . S
C682 O684 1.263 . S
O683 Co680 1.970 . S
O683 C682 1.258 . S
O684 Co681 1.966 . S
O684 C682 1.263 . S
C685 O686 1.235 . S
C685 O712 1.289 . S
O686 C685 1.235 . S
C687 C689 1.400 . S
C687 N690 1.351 . S
C687 C692 1.501 . S
C688 C689 1.387 . S
C688 N691 1.341 . S
C689 C687 1.400 . S
C689 C688 1.387 . S
N690 Co681 2.022 . S
N690 C687 1.351 . S
N690 N691 1.365 . S
N691 C688 1.341 . S
N691 N690 1.365 . S
N691 H711 0.862 . S
C692 C687 1.501 . S
C692 H693 0.961 . S
C692 H694 0.961 . S
C692 H695 0.960 . S
H693 C692 0.961 . S
H694 C692 0.961 . S
H695 C692 0.960 . S
C696 N697 1.342 . S
C696 C700 1.401 . S
C696 C701 1.499 . S
N697 Co680 1.989 . S
N697 C696 1.342 . S
N697 N698 1.388 . S
N698 Co681 1.993 . S
N698 N697 1.388 . S
N698 C699 1.346 . S
C699 N698 1.346 . S
C699 C700 1.396 . S
C699 C709 1.510 . S
C700 C696 1.401 . S
C700 C699 1.396 . S
C701 C696 1.499 . S
C701 H702 0.959 . S
C701 H703 0.960 . S
C701 H704 0.961 . S
H702 C701 0.959 . S
H703 C701 0.960 . S
H704 C701 0.961 . S
O705 Co680 1.967 . S
O705 C713 1.258 . S
O706 Co681 1.941 . S
O706 C713 1.266 . S
H707 C709 0.959 . S
H708 C709 0.961 . S
C709 C699 1.510 . S
C709 H707 0.959 . S
C709 H708 0.961 . S
C709 H710 0.960 . S
H710 C709 0.960 . S
H711 N691 0.862 . S
O712 Co680 1.920 . S
O712 C685 1.289 . S
C713 O705 1.258 . S
C713 O706 1.266 . S
Co714 O717 1.970 . S
Co714 N731 1.989 . S
Co714 O739 1.967 . S
Co714 O746 1.920 . S
Co715 O718 1.966 . S
Co715 N724 2.022 . S
Co715 N732 1.993 . S
Co715 O740 1.941 . S
C716 O717 1.258 . S
C716 O718 1.263 . S
O717 Co714 1.970 . S
O717 C716 1.258 . S
O718 Co715 1.966 . S
O718 C716 1.263 . S
C719 O720 1.235 . S
C719 O746 1.289 . S
O720 C719 1.235 . S
C721 C723 1.400 . S
C721 N724 1.351 . S
C721 C726 1.501 . S
C722 C723 1.387 . S
C722 N725 1.341 . S
C723 C721 1.400 . S
C723 C722 1.387 . S
N724 Co715 2.022 . S
N724 C721 1.351 . S
N724 N725 1.365 . S
N725 C722 1.341 . S
N725 N724 1.365 . S
N725 H745 0.862 . S
C726 C721 1.501 . S
C726 H727 0.961 . S
C726 H728 0.961 . S
C726 H729 0.960 . S
H727 C726 0.961 . S
H728 C726 0.961 . S
H729 C726 0.960 . S
C730 N731 1.342 . S
C730 C734 1.401 . S
C730 C735 1.499 . S
N731 Co714 1.989 . S
N731 C730 1.342 . S
N731 N732 1.388 . S
N732 Co715 1.993 . S
N732 N731 1.388 . S
N732 C733 1.346 . S
C733 N732 1.346 . S
C733 C734 1.396 . S
C733 C743 1.510 . S
C734 C730 1.401 . S
C734 C733 1.396 . S
C735 C730 1.499 . S
C735 H736 0.959 . S
C735 H737 0.960 . S
C735 H738 0.961 . S
H736 C735 0.959 . S
H737 C735 0.960 . S
H738 C735 0.961 . S
O739 Co714 1.967 . S
O739 C747 1.258 . S
O740 Co715 1.941 . S
O740 C747 1.266 . S
H741 C743 0.959 . S
H742 C743 0.961 . S
C743 C733 1.510 . S
C743 H741 0.959 . S
C743 H742 0.961 . S
C743 H744 0.960 . S
H744 C743 0.960 . S
H745 N725 0.862 . S
O746 Co714 1.920 . S
O746 C719 1.289 . S
C747 O739 1.258 . S
C747 O740 1.266 . S
Co748 O751 1.970 . S
Co748 N765 1.989 . S
Co748 O773 1.967 . S
Co748 O780 1.920 . S
Co749 O752 1.966 . S
Co749 N758 2.022 . S
Co749 N766 1.993 . S
Co749 O774 1.941 . S
C750 O751 1.258 . S
C750 O752 1.263 . S
O751 Co748 1.970 . S
O751 C750 1.258 . S
O752 Co749 1.966 . S
O752 C750 1.263 . S
C753 O754 1.235 . S
C753 O780 1.289 . S
O754 C753 1.235 . S
C755 C757 1.400 . S
C755 N758 1.351 . S
C755 C760 1.501 . S
C756 C757 1.387 . S
C756 N759 1.341 . S
C757 C755 1.400 . S
C757 C756 1.387 . S
N758 Co749 2.022 . S
N758 C755 1.351 . S
N758 N759 1.365 . S
N759 C756 1.341 . S
N759 N758 1.365 . S
N759 H779 0.862 . S
C760 C755 1.501 . S
C760 H761 0.961 . S
C760 H762 0.961 . S
C760 H763 0.960 . S
H761 C760 0.961 . S
H762 C760 0.961 . S
H763 C760 0.960 . S
C764 N765 1.342 . S
C764 C768 1.401 . S
C764 C769 1.499 . S
N765 Co748 1.989 . S
N765 C764 1.342 . S
N765 N766 1.388 . S
N766 Co749 1.993 . S
N766 N765 1.388 . S
N766 C767 1.346 . S
C767 N766 1.346 . S
C767 C768 1.396 . S
C767 C777 1.510 . S
C768 C764 1.401 . S
C768 C767 1.396 . S
C769 C764 1.499 . S
C769 H770 0.959 . S
C769 H771 0.960 . S
C769 H772 0.961 . S
H770 C769 0.959 . S
H771 C769 0.960 . S
H772 C769 0.961 . S
O773 Co748 1.967 . S
O773 C781 1.258 . S
O774 Co749 1.941 . S
O774 C781 1.266 . S
H775 C777 0.959 . S
H776 C777 0.961 . S
C777 C767 1.510 . S
C777 H775 0.959 . S
C777 H776 0.961 . S
C777 H778 0.960 . S
H778 C777 0.960 . S
H779 N759 0.862 . S
O780 Co748 1.920 . S
O780 C753 1.289 . S
C781 O773 1.258 . S
C781 O774 1.266 . S
Co782 O785 1.970 . S
Co782 N799 1.989 . S
Co782 O807 1.967 . S
Co782 O814 1.920 . S
Co783 O786 1.966 . S
Co783 N792 2.022 . S
Co783 N800 1.993 . S
Co783 O808 1.941 . S
C784 O785 1.258 . S
C784 O786 1.263 . S
O785 Co782 1.970 . S
O785 C784 1.258 . S
O786 Co783 1.966 . S
O786 C784 1.263 . S
C787 O788 1.235 . S
C787 O814 1.289 . S
O788 C787 1.235 . S
C789 C791 1.400 . S
C789 N792 1.351 . S
C789 C794 1.501 . S
C790 C791 1.387 . S
C790 N793 1.341 . S
C791 C789 1.400 . S
C791 C790 1.387 . S
N792 Co783 2.022 . S
N792 C789 1.351 . S
N792 N793 1.365 . S
N793 C790 1.341 . S
N793 N792 1.365 . S
N793 H813 0.862 . S
C794 C789 1.501 . S
C794 H795 0.961 . S
C794 H796 0.961 . S
C794 H797 0.960 . S
H795 C794 0.961 . S
H796 C794 0.961 . S
H797 C794 0.960 . S
C798 N799 1.342 . S
C798 C802 1.401 . S
C798 C803 1.499 . S
N799 Co782 1.989 . S
N799 C798 1.342 . S
N799 N800 1.388 . S
N800 Co783 1.993 . S
N800 N799 1.388 . S
N800 C801 1.346 . S
C801 N800 1.346 . S
C801 C802 1.396 . S
C801 C811 1.510 . S
C802 C798 1.401 . S
C802 C801 1.396 . S
C803 C798 1.499 . S
C803 H804 0.959 . S
C803 H805 0.960 . S
C803 H806 0.961 . S
H804 C803 0.959 . S
H805 C803 0.960 . S
H806 C803 0.961 . S
O807 Co782 1.967 . S
O807 C815 1.258 . S
O808 Co783 1.941 . S
O808 C815 1.266 . S
H809 C811 0.959 . S
H810 C811 0.961 . S
C811 C801 1.510 . S
C811 H809 0.959 . S
C811 H810 0.961 . S
C811 H812 0.960 . S
H812 C811 0.960 . S
H813 N793 0.862 . S
O814 Co782 1.920 . S
O814 C787 1.289 . S
C815 O807 1.258 . S
C815 O808 1.266 . S
Co816 O819 1.970 . S
Co816 N833 1.989 . S
Co816 O841 1.967 . S
Co816 O848 1.920 . S
Co817 O820 1.966 . S
Co817 N826 2.022 . S
Co817 N834 1.993 . S
Co817 O842 1.941 . S
C818 O819 1.258 . S
C818 O820 1.263 . S
O819 Co816 1.970 . S
O819 C818 1.258 . S
O820 Co817 1.966 . S
O820 C818 1.263 . S
C821 O822 1.235 . S
C821 O848 1.289 . S
O822 C821 1.235 . S
C823 C825 1.400 . S
C823 N826 1.351 . S
C823 C828 1.501 . S
C824 C825 1.387 . S
C824 N827 1.341 . S
C825 C823 1.400 . S
C825 C824 1.387 . S
N826 Co817 2.022 . S
N826 C823 1.351 . S
N826 N827 1.365 . S
N827 C824 1.341 . S
N827 N826 1.365 . S
N827 H847 0.862 . S
C828 C823 1.501 . S
C828 H829 0.961 . S
C828 H830 0.961 . S
C828 H831 0.960 . S
H829 C828 0.961 . S
H830 C828 0.961 . S
H831 C828 0.960 . S
C832 N833 1.342 . S
C832 C836 1.401 . S
C832 C837 1.499 . S
N833 Co816 1.989 . S
N833 C832 1.342 . S
N833 N834 1.388 . S
N834 Co817 1.993 . S
N834 N833 1.388 . S
N834 C835 1.346 . S
C835 N834 1.346 . S
C835 C836 1.396 . S
C835 C845 1.510 . S
C836 C832 1.401 . S
C836 C835 1.396 . S
C837 C832 1.499 . S
C837 H838 0.959 . S
C837 H839 0.960 . S
C837 H840 0.961 . S
H838 C837 0.959 . S
H839 C837 0.960 . S
H840 C837 0.961 . S
O841 Co816 1.967 . S
O841 C849 1.258 . S
O842 Co817 1.941 . S
O842 C849 1.266 . S
H843 C845 0.959 . S
H844 C845 0.961 . S
C845 C835 1.510 . S
C845 H843 0.959 . S
C845 H844 0.961 . S
C845 H846 0.960 . S
H846 C845 0.960 . S
H847 N827 0.862 . S
O848 Co816 1.920 . S
O848 C821 1.289 . S
C849 O841 1.258 . S
C849 O842 1.266 . S
Co850 O853 1.970 . S
Co850 N867 1.989 . S
Co850 O875 1.967 . S
Co850 O882 1.920 . S
Co851 O854 1.966 . S
Co851 N860 2.022 . S
Co851 N868 1.993 . S
Co851 O876 1.941 . S
C852 O853 1.258 . S
C852 O854 1.263 . S
O853 Co850 1.970 . S
O853 C852 1.258 . S
O854 Co851 1.966 . S
O854 C852 1.263 . S
C855 O856 1.235 . S
C855 O882 1.289 . S
O856 C855 1.235 . S
C857 C859 1.400 . S
C857 N860 1.351 . S
C857 C862 1.501 . S
C858 C859 1.387 . S
C858 N861 1.341 . S
C859 C857 1.400 . S
C859 C858 1.387 . S
N860 Co851 2.022 . S
N860 C857 1.351 . S
N860 N861 1.365 . S
N861 C858 1.341 . S
N861 N860 1.365 . S
N861 H881 0.862 . S
C862 C857 1.501 . S
C862 H863 0.961 . S
C862 H864 0.961 . S
C862 H865 0.960 . S
H863 C862 0.961 . S
H864 C862 0.961 . S
H865 C862 0.960 . S
C866 N867 1.342 . S
C866 C870 1.401 . S
C866 C871 1.499 . S
N867 Co850 1.989 . S
N867 C866 1.342 . S
N867 N868 1.388 . S
N868 Co851 1.993 . S
N868 N867 1.388 . S
N868 C869 1.346 . S
C869 N868 1.346 . S
C869 C870 1.396 . S
C869 C879 1.510 . S
C870 C866 1.401 . S
C870 C869 1.396 . S
C871 C866 1.499 . S
C871 H872 0.959 . S
C871 H873 0.960 . S
C871 H874 0.961 . S
H872 C871 0.959 . S
H873 C871 0.960 . S
H874 C871 0.961 . S
O875 Co850 1.967 . S
O875 C883 1.258 . S
O876 Co851 1.941 . S
O876 C883 1.266 . S
H877 C879 0.959 . S
H878 C879 0.961 . S
C879 C869 1.510 . S
C879 H877 0.959 . S
C879 H878 0.961 . S
C879 H880 0.960 . S
H880 C879 0.960 . S
H881 N861 0.862 . S
O882 Co850 1.920 . S
O882 C855 1.289 . S
C883 O875 1.258 . S
C883 O876 1.266 . S
Co884 O887 1.970 . S
Co884 N901 1.989 . S
Co884 O909 1.967 . S
Co884 O916 1.920 . S
Co885 O888 1.966 . S
Co885 N894 2.022 . S
Co885 N902 1.993 . S
Co885 O910 1.941 . S
C886 O887 1.258 . S
C886 O888 1.263 . S
O887 Co884 1.970 . S
O887 C886 1.258 . S
O888 Co885 1.966 . S
O888 C886 1.263 . S
C889 O890 1.235 . S
C889 O916 1.289 . S
O890 C889 1.235 . S
C891 C893 1.400 . S
C891 N894 1.351 . S
C891 C896 1.501 . S
C892 C893 1.387 . S
C892 N895 1.341 . S
C893 C891 1.400 . S
C893 C892 1.387 . S
N894 Co885 2.022 . S
N894 C891 1.351 . S
N894 N895 1.365 . S
N895 C892 1.341 . S
N895 N894 1.365 . S
N895 H915 0.862 . S
C896 C891 1.501 . S
C896 H897 0.961 . S
C896 H898 0.961 . S
C896 H899 0.960 . S
H897 C896 0.961 . S
H898 C896 0.961 . S
H899 C896 0.960 . S
C900 N901 1.342 . S
C900 C904 1.401 . S
C900 C905 1.499 . S
N901 Co884 1.989 . S
N901 C900 1.342 . S
N901 N902 1.388 . S
N902 Co885 1.993 . S
N902 N901 1.388 . S
N902 C903 1.346 . S
C903 N902 1.346 . S
C903 C904 1.396 . S
C903 C913 1.510 . S
C904 C900 1.401 . S
C904 C903 1.396 . S
C905 C900 1.499 . S
C905 H906 0.959 . S
C905 H907 0.960 . S
C905 H908 0.961 . S
H906 C905 0.959 . S
H907 C905 0.960 . S
H908 C905 0.961 . S
O909 Co884 1.967 . S
O909 C917 1.258 . S
O910 Co885 1.941 . S
O910 C917 1.266 . S
H911 C913 0.959 . S
H912 C913 0.961 . S
C913 C903 1.510 . S
C913 H911 0.959 . S
C913 H912 0.961 . S
C913 H914 0.960 . S
H914 C913 0.960 . S
H915 N895 0.862 . S
O916 Co884 1.920 . S
O916 C889 1.289 . S
C917 O909 1.258 . S
C917 O910 1.266 . S
Co918 O921 1.970 . S
Co918 N935 1.989 . S
Co918 O943 1.967 . S
Co918 O950 1.920 . S
Co919 O922 1.966 . S
Co919 N928 2.022 . S
Co919 N936 1.993 . S
Co919 O944 1.941 . S
C920 O921 1.258 . S
C920 O922 1.263 . S
O921 Co918 1.970 . S
O921 C920 1.258 . S
O922 Co919 1.966 . S
O922 C920 1.263 . S
C923 O924 1.235 . S
C923 O950 1.289 . S
O924 C923 1.235 . S
C925 C927 1.400 . S
C925 N928 1.351 . S
C925 C930 1.501 . S
C926 C927 1.387 . S
C926 N929 1.341 . S
C927 C925 1.400 . S
C927 C926 1.387 . S
N928 Co919 2.022 . S
N928 C925 1.351 . S
N928 N929 1.365 . S
N929 C926 1.341 . S
N929 N928 1.365 . S
N929 H949 0.862 . S
C930 C925 1.501 . S
C930 H931 0.961 . S
C930 H932 0.961 . S
C930 H933 0.960 . S
H931 C930 0.961 . S
H932 C930 0.961 . S
H933 C930 0.960 . S
C934 N935 1.342 . S
C934 C938 1.401 . S
C934 C939 1.499 . S
N935 Co918 1.989 . S
N935 C934 1.342 . S
N935 N936 1.388 . S
N936 Co919 1.993 . S
N936 N935 1.388 . S
N936 C937 1.346 . S
C937 N936 1.346 . S
C937 C938 1.396 . S
C937 C947 1.510 . S
C938 C934 1.401 . S
C938 C937 1.396 . S
C939 C934 1.499 . S
C939 H940 0.959 . S
C939 H941 0.960 . S
C939 H942 0.961 . S
H940 C939 0.959 . S
H941 C939 0.960 . S
H942 C939 0.961 . S
O943 Co918 1.967 . S
O943 C951 1.258 . S
O944 Co919 1.941 . S
O944 C951 1.266 . S
H945 C947 0.959 . S
H946 C947 0.961 . S
C947 C937 1.510 . S
C947 H945 0.959 . S
C947 H946 0.961 . S
C947 H948 0.960 . S
H948 C947 0.960 . S
H949 N929 0.862 . S
O950 Co918 1.920 . S
O950 C923 1.289 . S
C951 O943 1.258 . S
C951 O944 1.266 . S
Co952 O955 1.970 . S
Co952 N969 1.989 . S
Co952 O977 1.967 . S
Co952 O984 1.920 . S
Co953 O956 1.966 . S
Co953 N962 2.022 . S
Co953 N970 1.993 . S
Co953 O978 1.941 . S
C954 O955 1.258 . S
C954 O956 1.263 . S
O955 Co952 1.970 . S
O955 C954 1.258 . S
O956 Co953 1.966 . S
O956 C954 1.263 . S
C957 O958 1.235 . S
C957 O984 1.289 . S
O958 C957 1.235 . S
C959 C961 1.400 . S
C959 N962 1.351 . S
C959 C964 1.501 . S
C960 C961 1.387 . S
C960 N963 1.341 . S
C961 C959 1.400 . S
C961 C960 1.387 . S
N962 Co953 2.022 . S
N962 C959 1.351 . S
N962 N963 1.365 . S
N963 C960 1.341 . S
N963 N962 1.365 . S
N963 H983 0.862 . S
C964 C959 1.501 . S
C964 H965 0.961 . S
C964 H966 0.961 . S
C964 H967 0.960 . S
H965 C964 0.961 . S
H966 C964 0.961 . S
H967 C964 0.960 . S
C968 N969 1.342 . S
C968 C972 1.401 . S
C968 C973 1.499 . S
N969 Co952 1.989 . S
N969 C968 1.342 . S
N969 N970 1.388 . S
N970 Co953 1.993 . S
N970 N969 1.388 . S
N970 C971 1.346 . S
C971 N970 1.346 . S
C971 C972 1.396 . S
C971 C981 1.510 . S
C972 C968 1.401 . S
C972 C971 1.396 . S
C973 C968 1.499 . S
C973 H974 0.959 . S
C973 H975 0.960 . S
C973 H976 0.961 . S
H974 C973 0.959 . S
H975 C973 0.960 . S
H976 C973 0.961 . S
O977 Co952 1.967 . S
O977 C985 1.258 . S
O978 Co953 1.941 . S
O978 C985 1.266 . S
H979 C981 0.959 . S
H980 C981 0.961 . S
C981 C971 1.510 . S
C981 H979 0.959 . S
C981 H980 0.961 . S
C981 H982 0.960 . S
H982 C981 0.960 . S
H983 N963 0.862 . S
O984 Co952 1.920 . S
O984 C957 1.289 . S
C985 O977 1.258 . S
C985 O978 1.266 . S
Co986 O989 1.970 . S
Co986 N1003 1.989 . S
Co986 O1011 1.967 . S
Co986 O1018 1.920 . S
Co987 O990 1.966 . S
Co987 N996 2.022 . S
Co987 N1004 1.993 . S
Co987 O1012 1.941 . S
C988 O989 1.258 . S
C988 O990 1.263 . S
O989 Co986 1.970 . S
O989 C988 1.258 . S
O990 Co987 1.966 . S
O990 C988 1.263 . S
C991 O992 1.235 . S
C991 O1018 1.289 . S
O992 C991 1.235 . S
C993 C995 1.400 . S
C993 N996 1.351 . S
C993 C998 1.501 . S
C994 C995 1.387 . S
C994 N997 1.341 . S
C995 C993 1.400 . S
C995 C994 1.387 . S
N996 Co987 2.022 . S
N996 C993 1.351 . S
N996 N997 1.365 . S
N997 C994 1.341 . S
N997 N996 1.365 . S
N997 H1017 0.862 . S
C998 C993 1.501 . S
C998 H999 0.961 . S
C998 H1000 0.961 . S
C998 H1001 0.960 . S
H999 C998 0.961 . S
H1000 C998 0.961 . S
H1001 C998 0.960 . S
C1002 N1003 1.342 . S
C1002 C1006 1.401 . S
C1002 C1007 1.499 . S
N1003 Co986 1.989 . S
N1003 C1002 1.342 . S
N1003 N1004 1.388 . S
N1004 Co987 1.993 . S
N1004 N1003 1.388 . S
N1004 C1005 1.346 . S
C1005 N1004 1.346 . S
C1005 C1006 1.396 . S
C1005 C1015 1.510 . S
C1006 C1002 1.401 . S
C1006 C1005 1.396 . S
C1007 C1002 1.499 . S
C1007 H1008 0.959 . S
C1007 H1009 0.960 . S
C1007 H1010 0.961 . S
H1008 C1007 0.959 . S
H1009 C1007 0.960 . S
H1010 C1007 0.961 . S
O1011 Co986 1.967 . S
O1011 C1019 1.258 . S
O1012 Co987 1.941 . S
O1012 C1019 1.266 . S
H1013 C1015 0.959 . S
H1014 C1015 0.961 . S
C1015 C1005 1.510 . S
C1015 H1013 0.959 . S
C1015 H1014 0.961 . S
C1015 H1016 0.960 . S
H1016 C1015 0.960 . S
H1017 N997 0.862 . S
O1018 Co986 1.920 . S
O1018 C991 1.289 . S
C1019 O1011 1.258 . S
C1019 O1012 1.266 . S
Co1020 O1023 1.970 . S
Co1020 N1037 1.989 . S
Co1020 O1045 1.967 . S
Co1020 O1052 1.920 . S
Co1021 O1024 1.966 . S
Co1021 N1030 2.022 . S
Co1021 N1038 1.993 . S
Co1021 O1046 1.941 . S
C1022 O1023 1.258 . S
C1022 O1024 1.263 . S
O1023 Co1020 1.970 . S
O1023 C1022 1.258 . S
O1024 Co1021 1.966 . S
O1024 C1022 1.263 . S
C1025 O1026 1.235 . S
C1025 O1052 1.289 . S
O1026 C1025 1.235 . S
C1027 C1029 1.400 . S
C1027 N1030 1.351 . S
C1027 C1032 1.501 . S
C1028 C1029 1.387 . S
C1028 N1031 1.341 . S
C1029 C1027 1.400 . S
C1029 C1028 1.387 . S
N1030 Co1021 2.022 . S
N1030 C1027 1.351 . S
N1030 N1031 1.365 . S
N1031 C1028 1.341 . S
N1031 N1030 1.365 . S
N1031 H1051 0.862 . S
C1032 C1027 1.501 . S
C1032 H1033 0.961 . S
C1032 H1034 0.961 . S
C1032 H1035 0.960 . S
H1033 C1032 0.961 . S
H1034 C1032 0.961 . S
H1035 C1032 0.960 . S
C1036 N1037 1.342 . S
C1036 C1040 1.401 . S
C1036 C1041 1.499 . S
N1037 Co1020 1.989 . S
N1037 C1036 1.342 . S
N1037 N1038 1.388 . S
N1038 Co1021 1.993 . S
N1038 N1037 1.388 . S
N1038 C1039 1.346 . S
C1039 N1038 1.346 . S
C1039 C1040 1.396 . S
C1039 C1049 1.510 . S
C1040 C1036 1.401 . S
C1040 C1039 1.396 . S
C1041 C1036 1.499 . S
C1041 H1042 0.959 . S
C1041 H1043 0.960 . S
C1041 H1044 0.961 . S
H1042 C1041 0.959 . S
H1043 C1041 0.960 . S
H1044 C1041 0.961 . S
O1045 Co1020 1.967 . S
O1045 C1053 1.258 . S
O1046 Co1021 1.941 . S
O1046 C1053 1.266 . S
H1047 C1049 0.959 . S
H1048 C1049 0.961 . S
C1049 C1039 1.510 . S
C1049 H1047 0.959 . S
C1049 H1048 0.961 . S
C1049 H1050 0.960 . S
H1050 C1049 0.960 . S
H1051 N1031 0.862 . S
O1052 Co1020 1.920 . S
O1052 C1025 1.289 . S
C1053 O1045 1.258 . S
C1053 O1046 1.266 . S
Co1054 O1057 1.970 . S
Co1054 N1071 1.989 . S
Co1054 O1079 1.967 . S
Co1054 O1086 1.920 . S
Co1055 O1058 1.966 . S
Co1055 N1064 2.022 . S
Co1055 N1072 1.993 . S
Co1055 O1080 1.941 . S
C1056 O1057 1.258 . S
C1056 O1058 1.263 . S
O1057 Co1054 1.970 . S
O1057 C1056 1.258 . S
O1058 Co1055 1.966 . S
O1058 C1056 1.263 . S
C1059 O1060 1.235 . S
C1059 O1086 1.289 . S
O1060 C1059 1.235 . S
C1061 C1063 1.400 . S
C1061 N1064 1.351 . S
C1061 C1066 1.501 . S
C1062 C1063 1.387 . S
C1062 N1065 1.341 . S
C1063 C1061 1.400 . S
C1063 C1062 1.387 . S
N1064 Co1055 2.022 . S
N1064 C1061 1.351 . S
N1064 N1065 1.365 . S
N1065 C1062 1.341 . S
N1065 N1064 1.365 . S
N1065 H1085 0.862 . S
C1066 C1061 1.501 . S
C1066 H1067 0.961 . S
C1066 H1068 0.961 . S
C1066 H1069 0.960 . S
H1067 C1066 0.961 . S
H1068 C1066 0.961 . S
H1069 C1066 0.960 . S
C1070 N1071 1.342 . S
C1070 C1074 1.401 . S
C1070 C1075 1.499 . S
N1071 Co1054 1.989 . S
N1071 C1070 1.342 . S
N1071 N1072 1.388 . S
N1072 Co1055 1.993 . S
N1072 N1071 1.388 . S
N1072 C1073 1.346 . S
C1073 N1072 1.346 . S
C1073 C1074 1.396 . S
C1073 C1083 1.510 . S
C1074 C1070 1.401 . S
C1074 C1073 1.396 . S
C1075 C1070 1.499 . S
C1075 H1076 0.959 . S
C1075 H1077 0.960 . S
C1075 H1078 0.961 . S
H1076 C1075 0.959 . S
H1077 C1075 0.960 . S
H1078 C1075 0.961 . S
O1079 Co1054 1.967 . S
O1079 C1087 1.258 . S
O1080 Co1055 1.941 . S
O1080 C1087 1.266 . S
H1081 C1083 0.959 . S
H1082 C1083 0.961 . S
C1083 C1073 1.510 . S
C1083 H1081 0.959 . S
C1083 H1082 0.961 . S
C1083 H1084 0.960 . S
H1084 C1083 0.960 . S
H1085 N1065 0.862 . S
O1086 Co1054 1.920 . S
O1086 C1059 1.289 . S
C1087 O1079 1.258 . S
C1087 O1080 1.266 . S
H1088 C1100 0.930 . S
H1089 C1102 0.930 . S
H1090 C1103 0.930 . S
H1091 C1107 0.959 . S
H1092 C1107 0.959 . S
H1093 C1107 0.961 . S
H1094 C1108 0.960 . S
H1095 C1108 0.961 . S
H1096 C1108 0.959 . S
H1097 C1111 0.929 . S
H1098 C1112 0.931 . S
H1099 C1114 0.930 . S
C1100 H1088 0.930 . S
C1100 C1101 1.399 1_565 S
C1100 C1105 1.399 . S
C1101 C1100 1.399 1_545 S
C1101 C1102 1.376 . S
C1102 H1089 0.930 . S
C1102 C1101 1.376 . S
C1102 C1103 1.388 . S
C1103 H1090 0.930 . S
C1103 C1102 1.388 . S
C1103 C1104 1.390 . S
C1104 C1103 1.390 . S
C1104 C1105 1.394 1_545 S
C1104 C1110 1.465 . S
C1105 C1100 1.399 . S
C1105 C1104 1.394 1_565 S
C1105 C1106 1.516 . S
C1106 C1105 1.516 . S
C1106 C1107 1.502 . S
C1106 C1108 1.561 . S
C1106 C1109 1.526 . S
C1107 H1091 0.959 . S
C1107 H1092 0.959 . S
C1107 H1093 0.961 . S
C1107 C1106 1.502 . S
C1108 H1094 0.960 . S
C1108 H1095 0.961 . S
C1108 H1096 0.959 . S
C1108 C1106 1.561 . S
C1109 C1106 1.526 . S
C1109 C1110 1.396 1_565 S
C1109 C1114 1.390 . S
C1110 C1104 1.465 . S
C1110 C1109 1.396 1_545 S
C1110 C1111 1.399 . S
C1111 H1097 0.929 . S
C1111 C1110 1.399 . S
C1111 C1112 1.385 . S
C1112 H1098 0.931 . S
C1112 C1111 1.385 . S
C1112 C1113 1.389 1_545 S
C1113 C1112 1.389 1_565 S
C1113 C1114 1.387 . S
C1114 H1099 0.930 . S
C1114 C1109 1.390 . S
C1114 C1113 1.387 . S
H1115 C1127 0.930 . S
H1116 C1129 0.930 . S
H1117 C1130 0.930 . S
H1118 C1134 0.959 . S
H1119 C1134 0.959 . S
H1120 C1134 0.961 . S
H1121 C1135 0.960 . S
H1122 C1135 0.961 . S
H1123 C1135 0.959 . S
H1124 C1138 0.929 . S
H1125 C1139 0.931 . S
H1126 C1141 0.930 . S
C1127 H1115 0.930 . S
C1127 C1128 1.399 1_565 S
C1127 C1132 1.399 . S
C1128 C1127 1.399 1_545 S
C1128 C1129 1.376 . S
C1129 H1116 0.930 . S
C1129 C1128 1.376 . S
C1129 C1130 1.388 . S
C1130 H1117 0.930 . S
C1130 C1129 1.388 . S
C1130 C1131 1.390 . S
C1131 C1130 1.390 . S
C1131 C1132 1.394 1_545 S
C1131 C1137 1.466 . S
C1132 C1127 1.399 . S
C1132 C1131 1.394 1_565 S
C1132 C1133 1.516 . S
C1133 C1132 1.516 . S
C1133 C1134 1.502 . S
C1133 C1135 1.561 . S
C1133 C1136 1.526 . S
C1134 H1118 0.959 . S
C1134 H1119 0.959 . S
C1134 H1120 0.961 . S
C1134 C1133 1.502 . S
C1135 H1121 0.960 . S
C1135 H1122 0.961 . S
C1135 H1123 0.959 . S
C1135 C1133 1.561 . S
C1136 C1133 1.526 . S
C1136 C1137 1.390 1_565 S
C1136 C1141 1.390 . S
C1137 C1131 1.466 . S
C1137 C1136 1.390 1_545 S
C1137 C1138 1.402 . S
C1138 H1124 0.929 . S
C1138 C1137 1.402 . S
C1138 C1139 1.385 . S
C1139 H1125 0.931 . S
C1139 C1138 1.385 . S
C1139 C1140 1.389 1_545 S
C1140 C1139 1.389 1_565 S
C1140 C1141 1.387 . S
C1141 H1126 0.930 . S
C1141 C1136 1.390 . S
C1141 C1140 1.387 . S
H1142 C1154 0.930 . S
H1143 C1156 0.930 . S
H1144 C1157 0.930 . S
H1145 C1161 0.959 . S
H1146 C1161 0.959 . S
H1147 C1161 0.961 . S
H1148 C1162 0.960 . S
H1149 C1162 0.961 . S
H1150 C1162 0.959 . S
H1151 C1165 0.929 . S
H1152 C1166 0.931 . S
H1153 C1168 0.930 . S
C1154 H1142 0.930 . S
C1154 C1155 1.399 . S
C1154 C1159 1.399 . S
C1155 C1154 1.399 . S
C1155 C1156 1.376 1_565 S
C1156 H1143 0.930 . S
C1156 C1155 1.376 1_545 S
C1156 C1157 1.388 . S
C1157 H1144 0.930 . S
C1157 C1156 1.388 . S
C1157 C1158 1.390 1_545 S
C1158 C1157 1.390 1_565 S
C1158 C1159 1.394 . S
C1158 C1164 1.465 1_565 S
C1159 C1154 1.399 . S
C1159 C1158 1.394 . S
C1159 C1160 1.516 . S
C1160 C1159 1.516 . S
C1160 C1161 1.502 . S
C1160 C1162 1.561 . S
C1160 C1163 1.526 . S
C1161 H1145 0.959 . S
C1161 H1146 0.959 . S
C1161 H1147 0.961 . S
C1161 C1160 1.502 . S
C1162 H1148 0.960 . S
C1162 H1149 0.961 . S
C1162 H1150 0.959 . S
C1162 C1160 1.561 . S
C1163 C1160 1.526 . S
C1163 C1164 1.396 1_565 S
C1163 C1168 1.390 . S
C1164 C1158 1.465 1_545 S
C1164 C1163 1.396 1_545 S
C1164 C1165 1.399 . S
C1165 H1151 0.929 . S
C1165 C1164 1.399 . S
C1165 C1166 1.385 . S
C1166 H1152 0.931 . S
C1166 C1165 1.385 . S
C1166 C1167 1.389 . S
C1167 C1166 1.389 . S
C1167 C1168 1.387 1_545 S
C1168 H1153 0.930 . S
C1168 C1163 1.390 . S
C1168 C1167 1.387 1_565 S
H1169 C1181 0.922 1_565 S
H1170 C1183 0.930 . S
H1171 C1184 0.930 . S
H1172 C1188 0.959 . S
H1173 C1188 0.959 . S
H1174 C1188 0.961 . S
H1175 C1189 0.960 . S
H1176 C1189 0.961 . S
H1177 C1189 0.959 . S
H1178 C1192 0.929 . S
H1179 C1193 0.931 . S
H1180 C1195 0.930 . S
C1181 H1169 0.922 1_545 S
C1181 C1182 1.407 . S
C1181 C1186 1.399 1_545 S
C1182 C1181 1.407 . S
C1182 C1183 1.376 . S
C1183 H1170 0.930 . S
C1183 C1182 1.376 . S
C1183 C1184 1.388 . S
C1184 H1171 0.930 . S
C1184 C1183 1.388 . S
C1184 C1185 1.390 . S
C1185 C1184 1.390 . S
C1185 C1186 1.383 1_545 S
C1185 C1191 1.465 . S
C1186 C1181 1.399 1_565 S
C1186 C1185 1.383 1_565 S
C1186 C1187 1.526 . S
C1187 C1186 1.526 . S
C1187 C1188 1.502 . S
C1187 C1189 1.561 . S
C1187 C1190 1.526 . S
C1188 H1172 0.959 . S
C1188 H1173 0.959 . S
C1188 H1174 0.961 . S
C1188 C1187 1.502 . S
C1189 H1175 0.960 . S
C1189 H1176 0.961 . S
C1189 H1177 0.959 . S
C1189 C1187 1.561 . S
C1190 C1187 1.526 . S
C1190 C1191 1.396 1_565 S
C1190 C1195 1.390 . S
C1191 C1185 1.465 . S
C1191 C1190 1.396 1_545 S
C1191 C1192 1.399 . S
C1192 H1178 0.929 . S
C1192 C1191 1.399 . S
C1192 C1193 1.385 . S
C1193 H1179 0.931 . S
C1193 C1192 1.385 . S
C1193 C1194 1.389 1_545 S
C1194 C1193 1.389 1_565 S
C1194 C1195 1.387 . S
C1195 H1180 0.930 . S
C1195 C1190 1.390 . S
C1195 C1194 1.387 . S
H1196 C1208 0.930 . S
H1197 C1210 0.930 . S
H1198 C1211 0.930 . S
H1199 C1215 0.959 . S
H1200 C1215 0.959 . S
H1201 C1215 0.961 . S
H1202 C1216 0.960 . S
H1203 C1216 0.961 . S
H1204 C1216 0.959 . S
H1205 C1219 0.929 . S
H1206 C1220 0.931 . S
H1207 C1222 0.930 1_545 S
C1208 H1196 0.930 . S
C1208 C1209 1.399 . S
C1208 C1213 1.399 . S
C1209 C1208 1.399 . S
C1209 C1210 1.376 1_545 S
C1210 H1197 0.930 . S
C1210 C1209 1.376 1_565 S
C1210 C1211 1.388 . S
C1211 H1198 0.930 . S
C1211 C1210 1.388 . S
C1211 C1212 1.390 . S
C1212 C1211 1.390 . S
C1212 C1213 1.394 1_565 S
C1212 C1218 1.465 . S
C1213 C1208 1.399 . S
C1213 C1212 1.394 1_545 S
C1213 C1214 1.516 . S
C1214 C1213 1.516 . S
C1214 C1215 1.502 . S
C1214 C1216 1.561 . S
C1214 C1217 1.509 1_545 S
C1215 H1199 0.959 . S
C1215 H1200 0.959 . S
C1215 H1201 0.961 . S
C1215 C1214 1.502 . S
C1216 H1202 0.960 . S
C1216 H1203 0.961 . S
C1216 H1204 0.959 . S
C1216 C1214 1.561 . S
C1217 C1214 1.509 1_565 S
C1217 C1218 1.413 . S
C1217 C1222 1.391 . S
C1218 C1212 1.465 . S
C1218 C1217 1.413 . S
C1218 C1219 1.399 . S
C1219 H1205 0.929 . S
C1219 C1218 1.399 . S
C1219 C1220 1.385 . S
C1220 H1206 0.931 . S
C1220 C1219 1.385 . S
C1220 C1221 1.389 . S
C1221 C1220 1.389 . S
C1221 C1222 1.387 . S
C1222 H1207 0.930 1_565 S
C1222 C1217 1.391 . S
C1222 C1221 1.387 . S
H1223 C1235 0.930 . S
H1224 C1237 0.930 . S
H1225 C1238 0.930 . S
H1226 C1242 0.959 . S
H1227 C1242 0.959 . S
H1228 C1242 0.961 . S
H1229 C1243 0.960 . S
H1230 C1243 0.961 . S
H1231 C1243 0.959 . S
H1232 C1246 0.929 . S
H1233 C1247 0.931 . S
H1234 C1249 0.930 . S
C1235 H1223 0.930 . S
C1235 C1236 1.399 . S
C1235 C1240 1.399 . S
C1236 C1235 1.399 . S
C1236 C1237 1.376 1_545 S
C1237 H1224 0.930 . S
C1237 C1236 1.376 1_565 S
C1237 C1238 1.388 . S
C1238 H1225 0.930 . S
C1238 C1237 1.388 . S
C1238 C1239 1.390 . S
C1239 C1238 1.390 . S
C1239 C1240 1.394 1_565 S
C1239 C1245 1.465 . S
C1240 C1235 1.399 . S
C1240 C1239 1.394 1_545 S
C1240 C1241 1.516 . S
C1241 C1240 1.516 . S
C1241 C1242 1.502 . S
C1241 C1243 1.561 . S
C1241 C1244 1.526 . S
C1242 H1226 0.959 . S
C1242 H1227 0.959 . S
C1242 H1228 0.961 . S
C1242 C1241 1.502 . S
C1243 H1229 0.960 . S
C1243 H1230 0.961 . S
C1243 H1231 0.959 . S
C1243 C1241 1.561 . S
C1244 C1241 1.526 . S
C1244 C1245 1.396 1_545 S
C1244 C1249 1.390 . S
C1245 C1239 1.465 . S
C1245 C1244 1.396 1_565 S
C1245 C1246 1.399 . S
C1246 H1232 0.929 . S
C1246 C1245 1.399 . S
C1246 C1247 1.385 . S
C1247 H1233 0.931 . S
C1247 C1246 1.385 . S
C1247 C1248 1.389 . S
C1248 C1247 1.389 . S
C1248 C1249 1.387 1_565 S
C1249 H1234 0.930 . S
C1249 C1244 1.390 . S
C1249 C1248 1.387 1_545 S
H1250 C1262 0.930 . S
H1251 C1264 0.930 . S
H1252 C1265 0.930 . S
H1253 C1269 0.959 1_565 S
H1254 C1269 0.959 . S
H1255 C1269 0.961 . S
H1256 C1270 0.960 . S
H1257 C1270 0.961 . S
H1258 C1270 0.959 . S
H1259 C1273 0.941 . S
H1260 C1274 0.931 . S
H1261 C1276 0.930 . S
C1262 H1250 0.930 . S
C1262 C1263 1.399 1_545 S
C1262 C1267 1.399 . S
C1263 C1262 1.399 1_565 S
C1263 C1264 1.376 . S
C1264 H1251 0.930 . S
C1264 C1263 1.376 . S
C1264 C1265 1.388 . S
C1265 H1252 0.930 . S
C1265 C1264 1.388 . S
C1265 C1266 1.390 1_565 S
C1266 C1265 1.390 1_545 S
C1266 C1267 1.394 . S
C1266 C1272 1.465 . S
C1267 C1262 1.399 . S
C1267 C1266 1.394 . S
C1267 C1268 1.516 . S
C1268 C1267 1.516 . S
C1268 C1269 1.502 . S
C1268 C1270 1.561 . S
C1268 C1271 1.526 . S
C1269 H1253 0.959 1_545 S
C1269 H1254 0.959 . S
C1269 H1255 0.961 . S
C1269 C1268 1.502 . S
C1270 H1256 0.960 . S
C1270 H1257 0.961 . S
C1270 H1258 0.959 . S
C1270 C1268 1.561 . S
C1271 C1268 1.526 . S
C1271 C1272 1.396 . S
C1271 C1276 1.390 . S
C1272 C1266 1.465 . S
C1272 C1271 1.396 . S
C1272 C1273 1.393 1_545 S
C1273 H1259 0.941 . S
C1273 C1272 1.393 1_565 S
C1273 C1274 1.380 1_565 S
C1274 H1260 0.931 . S
C1274 C1273 1.380 1_545 S
C1274 C1275 1.389 . S
C1275 C1274 1.389 . S
C1275 C1276 1.387 . S
C1276 H1261 0.930 . S
C1276 C1271 1.390 . S
C1276 C1275 1.387 . S
H1277 C1289 0.930 . S
H1278 C1291 0.930 . S
H1279 C1292 0.930 . S
H1280 C1296 0.959 . S
H1281 C1296 0.959 . S
H1282 C1296 0.961 . S
H1283 C1297 0.960 . S
H1284 C1297 0.961 . S
H1285 C1297 0.959 . S
H1286 C1300 0.929 . S
H1287 C1301 0.931 . S
H1288 C1303 0.930 . S
C1289 H1277 0.930 . S
C1289 C1290 1.399 . S
C1289 C1294 1.399 . S
C1290 C1289 1.399 . S
C1290 C1291 1.376 1_565 S
C1291 H1278 0.930 . S
C1291 C1290 1.376 1_545 S
C1291 C1292 1.388 . S
C1292 H1279 0.930 . S
C1292 C1291 1.388 . S
C1292 C1293 1.390 1_545 S
C1293 C1292 1.390 1_565 S
C1293 C1294 1.394 . S
C1293 C1299 1.465 1_565 S
C1294 C1289 1.399 . S
C1294 C1293 1.394 . S
C1294 C1295 1.516 . S
C1295 C1294 1.516 . S
C1295 C1296 1.502 . S
C1295 C1297 1.561 . S
C1295 C1298 1.526 . S
C1296 H1280 0.959 . S
C1296 H1281 0.959 . S
C1296 H1282 0.961 . S
C1296 C1295 1.502 . S
C1297 H1283 0.960 . S
C1297 H1284 0.961 . S
C1297 H1285 0.959 . S
C1297 C1295 1.561 . S
C1298 C1295 1.526 . S
C1298 C1299 1.396 1_565 S
C1298 C1303 1.390 . S
C1299 C1293 1.465 1_545 S
C1299 C1298 1.396 1_545 S
C1299 C1300 1.399 . S
C1300 H1286 0.929 . S
C1300 C1299 1.399 . S
C1300 C1301 1.385 . S
C1301 H1287 0.931 . S
C1301 C1300 1.385 . S
C1301 C1302 1.389 . S
C1302 C1301 1.389 . S
C1302 C1303 1.387 1_545 S
C1303 H1288 0.930 . S
C1303 C1298 1.390 . S
C1303 C1302 1.387 1_565 S
H1304 C1316 0.930 . S
H1305 C1318 0.930 . S
H1306 C1319 0.930 . S
H1307 C1323 0.959 . S
H1308 C1323 0.959 . S
H1309 C1323 0.961 . S
H1310 C1324 0.960 . S
H1311 C1324 0.961 . S
H1312 C1324 0.959 . S
H1313 C1327 0.929 . S
H1314 C1328 0.931 . S
H1315 C1330 0.930 . S
C1316 H1304 0.930 . S
C1316 C1317 1.399 . S
C1316 C1321 1.399 . S
C1317 C1316 1.399 . S
C1317 C1318 1.376 . S
C1318 H1305 0.930 . S
C1318 C1317 1.376 . S
C1318 C1319 1.388 . S
C1319 H1306 0.930 . S
C1319 C1318 1.388 . S
C1319 C1320 1.390 . S
C1320 C1319 1.390 . S
C1320 C1321 1.394 . S
C1320 C1326 1.465 . S
C1321 C1316 1.399 . S
C1321 C1320 1.394 . S
C1321 C1322 1.516 . S
C1322 C1321 1.516 . S
C1322 C1323 1.502 . S
C1322 C1324 1.561 . S
C1322 C1325 1.526 . S
C1323 H1307 0.959 . S
C1323 H1308 0.959 . S
C1323 H1309 0.961 . S
C1323 C1322 1.502 . S
C1324 H1310 0.960 . S
C1324 H1311 0.961 . S
C1324 H1312 0.959 . S
C1324 C1322 1.561 . S
C1325 C1322 1.526 . S
C1325 C1326 1.396 . S
C1325 C1330 1.390 . S
C1326 C1320 1.465 . S
C1326 C1325 1.396 . S
C1326 C1327 1.399 . S
C1327 H1313 0.929 . S
C1327 C1326 1.399 . S
C1327 C1328 1.385 . S
C1328 H1314 0.931 . S
C1328 C1327 1.385 . S
C1328 C1329 1.389 . S
C1329 C1328 1.389 . S
C1329 C1330 1.387 . S
C1330 H1315 0.930 . S
C1330 C1325 1.390 . S
C1330 C1329 1.387 . S
H1331 C1343 0.930 . S
H1332 C1345 0.930 . S
H1333 C1346 0.930 . S
H1334 C1350 0.959 . S
H1335 C1350 0.959 . S
H1336 C1350 0.961 . S
H1337 C1351 0.960 . S
H1338 C1351 0.961 . S
H1339 C1351 0.959 . S
H1340 C1354 0.929 . S
H1341 C1355 0.931 . S
H1342 C1357 0.930 . S
C1343 H1331 0.930 . S
C1343 C1344 1.399 . S
C1343 C1348 1.399 . S
C1344 C1343 1.399 . S
C1344 C1345 1.376 . S
C1345 H1332 0.930 . S
C1345 C1344 1.376 . S
C1345 C1346 1.388 . S
C1346 H1333 0.930 . S
C1346 C1345 1.388 . S
C1346 C1347 1.390 . S
C1347 C1346 1.390 . S
C1347 C1348 1.394 . S
C1347 C1353 1.465 . S
C1348 C1343 1.399 . S
C1348 C1347 1.394 . S
C1348 C1349 1.516 . S
C1349 C1348 1.516 . S
C1349 C1350 1.502 . S
C1349 C1351 1.561 . S
C1349 C1352 1.526 . S
C1350 H1334 0.959 . S
C1350 H1335 0.959 . S
C1350 H1336 0.961 . S
C1350 C1349 1.502 . S
C1351 H1337 0.960 . S
C1351 H1338 0.961 . S
C1351 H1339 0.959 . S
C1351 C1349 1.561 . S
C1352 C1349 1.526 . S
C1352 C1353 1.396 . S
C1352 C1357 1.390 . S
C1353 C1347 1.465 . S
C1353 C1352 1.396 . S
C1353 C1354 1.399 . S
C1354 H1340 0.929 . S
C1354 C1353 1.399 . S
C1354 C1355 1.385 . S
C1355 H1341 0.931 . S
C1355 C1354 1.385 . S
C1355 C1356 1.389 . S
C1356 C1355 1.389 . S
C1356 C1357 1.387 . S
C1357 H1342 0.930 . S
C1357 C1352 1.390 . S
C1357 C1356 1.387 . S
H1358 C1370 0.930 . S
H1359 C1372 0.930 . S
H1360 C1373 0.930 . S
H1361 C1377 0.959 . S
H1362 C1377 0.959 . S
H1363 C1377 0.961 . S
H1364 C1378 0.960 . S
H1365 C1378 0.961 . S
H1366 C1378 0.959 . S
H1367 C1381 0.929 . S
H1368 C1382 0.931 . S
H1369 C1384 0.930 . S
C1370 H1358 0.930 . S
C1370 C1371 1.399 . S
C1370 C1375 1.399 . S
C1371 C1370 1.399 . S
C1371 C1372 1.376 . S
C1372 H1359 0.930 . S
C1372 C1371 1.376 . S
C1372 C1373 1.388 . S
C1373 H1360 0.930 . S
C1373 C1372 1.388 . S
C1373 C1374 1.390 . S
C1374 C1373 1.390 . S
C1374 C1375 1.394 . S
C1374 C1380 1.465 . S
C1375 C1370 1.399 . S
C1375 C1374 1.394 . S
C1375 C1376 1.516 . S
C1376 C1375 1.516 . S
C1376 C1377 1.502 . S
C1376 C1378 1.561 . S
C1376 C1379 1.526 . S
C1377 H1361 0.959 . S
C1377 H1362 0.959 . S
C1377 H1363 0.961 . S
C1377 C1376 1.502 . S
C1378 H1364 0.960 . S
C1378 H1365 0.961 . S
C1378 H1366 0.959 . S
C1378 C1376 1.561 . S
C1379 C1376 1.526 . S
C1379 C1380 1.396 . S
C1379 C1384 1.390 . S
C1380 C1374 1.465 . S
C1380 C1379 1.396 . S
C1380 C1381 1.399 . S
C1381 H1367 0.929 . S
C1381 C1380 1.399 . S
C1381 C1382 1.385 . S
C1382 H1368 0.931 . S
C1382 C1381 1.385 . S
C1382 C1383 1.389 . S
C1383 C1382 1.389 . S
C1383 C1384 1.387 . S
C1384 H1369 0.930 . S
C1384 C1379 1.390 . S
C1384 C1383 1.387 . S
H1385 C1397 0.930 . S
H1386 C1399 0.930 . S
H1387 C1400 0.930 . S
H1388 C1404 0.959 . S
H1389 C1404 0.959 . S
H1390 C1404 0.961 . S
H1391 C1405 0.960 . S
H1392 C1405 0.961 . S
H1393 C1405 0.959 . S
H1394 C1408 0.929 . S
H1395 C1409 0.931 . S
H1396 C1411 0.930 . S
C1397 H1385 0.930 . S
C1397 C1398 1.399 . S
C1397 C1402 1.399 . S
C1398 C1397 1.399 . S
C1398 C1399 1.376 . S
C1399 H1386 0.930 . S
C1399 C1398 1.376 . S
C1399 C1400 1.388 . S
C1400 H1387 0.930 . S
C1400 C1399 1.388 . S
C1400 C1401 1.390 . S
C1401 C1400 1.390 . S
C1401 C1402 1.394 . S
C1401 C1407 1.465 . S
C1402 C1397 1.399 . S
C1402 C1401 1.394 . S
C1402 C1403 1.516 . S
C1403 C1402 1.516 . S
C1403 C1404 1.502 . S
C1403 C1405 1.561 . S
C1403 C1406 1.526 . S
C1404 H1388 0.959 . S
C1404 H1389 0.959 . S
C1404 H1390 0.961 . S
C1404 C1403 1.502 . S
C1405 H1391 0.960 . S
C1405 H1392 0.961 . S
C1405 H1393 0.959 . S
C1405 C1403 1.561 . S
C1406 C1403 1.526 . S
C1406 C1407 1.396 . S
C1406 C1411 1.390 . S
C1407 C1401 1.465 . S
C1407 C1406 1.396 . S
C1407 C1408 1.399 . S
C1408 H1394 0.929 . S
C1408 C1407 1.399 . S
C1408 C1409 1.385 . S
C1409 H1395 0.931 . S
C1409 C1408 1.385 . S
C1409 C1410 1.389 . S
C1410 C1409 1.389 . S
C1410 C1411 1.387 . S
C1411 H1396 0.930 . S
C1411 C1406 1.390 . S
C1411 C1410 1.387 . S
H1412 C1424 0.930 . S
H1413 C1426 0.930 . S
H1414 C1427 0.930 . S
H1415 C1431 0.959 . S
H1416 C1431 0.959 . S
H1417 C1431 0.961 . S
H1418 C1432 0.960 . S
H1419 C1432 0.961 . S
H1420 C1432 0.959 . S
H1421 C1435 0.929 . S
H1422 C1436 0.931 . S
H1423 C1438 0.930 . S
C1424 H1412 0.930 . S
C1424 C1425 1.399 . S
C1424 C1429 1.399 . S
C1425 C1424 1.399 . S
C1425 C1426 1.376 . S
C1426 H1413 0.930 . S
C1426 C1425 1.376 . S
C1426 C1427 1.388 . S
C1427 H1414 0.930 . S
C1427 C1426 1.388 . S
C1427 C1428 1.390 . S
C1428 C1427 1.390 . S
C1428 C1429 1.394 . S
C1428 C1434 1.465 . S
C1429 C1424 1.399 . S
C1429 C1428 1.394 . S
C1429 C1430 1.516 . S
C1430 C1429 1.516 . S
C1430 C1431 1.502 . S
C1430 C1432 1.561 . S
C1430 C1433 1.526 . S
C1431 H1415 0.959 . S
C1431 H1416 0.959 . S
C1431 H1417 0.961 . S
C1431 C1430 1.502 . S
C1432 H1418 0.960 . S
C1432 H1419 0.961 . S
C1432 H1420 0.959 . S
C1432 C1430 1.561 . S
C1433 C1430 1.526 . S
C1433 C1434 1.396 . S
C1433 C1438 1.390 . S
C1434 C1428 1.465 . S
C1434 C1433 1.396 . S
C1434 C1435 1.399 . S
C1435 H1421 0.929 . S
C1435 C1434 1.399 . S
C1435 C1436 1.385 . S
C1436 H1422 0.931 . S
C1436 C1435 1.385 . S
C1436 C1437 1.389 . S
C1437 C1436 1.389 . S
C1437 C1438 1.387 . S
C1438 H1423 0.930 . S
C1438 C1433 1.390 . S
C1438 C1437 1.387 . S
H1439 C1451 0.930 . S
H1440 C1453 0.930 . S
H1441 C1454 0.930 . S
H1442 C1458 0.959 . S
H1443 C1458 0.959 . S
H1444 C1458 0.961 . S
H1445 C1459 0.960 . S
H1446 C1459 0.961 . S
H1447 C1459 0.959 . S
H1448 C1462 0.929 . S
H1449 C1463 0.931 . S
H1450 C1465 0.930 . S
C1451 H1439 0.930 . S
C1451 C1452 1.399 . S
C1451 C1456 1.399 . S
C1452 C1451 1.399 . S
C1452 C1453 1.376 . S
C1453 H1440 0.930 . S
C1453 C1452 1.376 . S
C1453 C1454 1.388 . S
C1454 H1441 0.930 . S
C1454 C1453 1.388 . S
C1454 C1455 1.390 . S
C1455 C1454 1.390 . S
C1455 C1456 1.394 . S
C1455 C1461 1.465 . S
C1456 C1451 1.399 . S
C1456 C1455 1.394 . S
C1456 C1457 1.516 . S
C1457 C1456 1.516 . S
C1457 C1458 1.502 . S
C1457 C1459 1.561 . S
C1457 C1460 1.526 . S
C1458 H1442 0.959 . S
C1458 H1443 0.959 . S
C1458 H1444 0.961 . S
C1458 C1457 1.502 . S
C1459 H1445 0.960 . S
C1459 H1446 0.961 . S
C1459 H1447 0.959 . S
C1459 C1457 1.561 . S
C1460 C1457 1.526 . S
C1460 C1461 1.396 . S
C1460 C1465 1.390 . S
C1461 C1455 1.465 . S
C1461 C1460 1.396 . S
C1461 C1462 1.399 . S
C1462 H1448 0.929 . S
C1462 C1461 1.399 . S
C1462 C1463 1.385 . S
C1463 H1449 0.931 . S
C1463 C1462 1.385 . S
C1463 C1464 1.389 . S
C1464 C1463 1.389 . S
C1464 C1465 1.387 . S
C1465 H1450 0.930 . S
C1465 C1460 1.390 . S
C1465 C1464 1.387 . S
H1466 C1478 0.930 . S
H1467 C1480 0.930 . S
H1468 C1481 0.930 . S
H1469 C1485 0.959 . S
H1470 C1485 0.959 . S
H1471 C1485 0.961 . S
H1472 C1486 0.960 . S
H1473 C1486 0.961 . S
H1474 C1486 0.959 . S
H1475 C1489 0.929 . S
H1476 C1490 0.931 . S
H1477 C1492 0.930 . S
C1478 H1466 0.930 . S
C1478 C1479 1.399 . S
C1478 C1483 1.399 . S
C1479 C1478 1.399 . S
C1479 C1480 1.376 . S
C1480 H1467 0.930 . S
C1480 C1479 1.376 . S
C1480 C1481 1.388 . S
C1481 H1468 0.930 . S
C1481 C1480 1.388 . S
C1481 C1482 1.390 . S
C1482 C1481 1.390 . S
C1482 C1483 1.394 . S
C1482 C1488 1.465 . S
C1483 C1478 1.399 . S
C1483 C1482 1.394 . S
C1483 C1484 1.516 . S
C1484 C1483 1.516 . S
C1484 C1485 1.502 . S
C1484 C1486 1.561 . S
C1484 C1487 1.526 . S
C1485 H1469 0.959 . S
C1485 H1470 0.959 . S
C1485 H1471 0.961 . S
C1485 C1484 1.502 . S
C1486 H1472 0.960 . S
C1486 H1473 0.961 . S
C1486 H1474 0.959 . S
C1486 C1484 1.561 . S
C1487 C1484 1.526 . S
C1487 C1488 1.396 . S
C1487 C1492 1.390 . S
C1488 C1482 1.465 . S
C1488 C1487 1.396 . S
C1488 C1489 1.399 . S
C1489 H1475 0.929 . S
C1489 C1488 1.399 . S
C1489 C1490 1.385 . S
C1490 H1476 0.931 . S
C1490 C1489 1.385 . S
C1490 C1491 1.389 . S
C1491 C1490 1.389 . S
C1491 C1492 1.387 . S
C1492 H1477 0.930 . S
C1492 C1487 1.390 . S
C1492 C1491 1.387 . S
H1493 C1505 0.930 . S
H1494 C1507 0.930 . S
H1495 C1508 0.930 . S
H1496 C1512 0.959 . S
H1497 C1512 0.959 . S
H1498 C1512 0.961 . S
H1499 C1513 0.960 . S
H1500 C1513 0.961 . S
H1501 C1513 0.959 . S
H1502 C1516 0.929 . S
H1503 C1517 0.931 . S
H1504 C1519 0.930 . S
C1505 H1493 0.930 . S
C1505 C1506 1.399 . S
C1505 C1510 1.399 . S
C1506 C1505 1.399 . S
C1506 C1507 1.376 . S
C1507 H1494 0.930 . S
C1507 C1506 1.376 . S
C1507 C1508 1.388 . S
C1508 H1495 0.930 . S
C1508 C1507 1.388 . S
C1508 C1509 1.390 . S
C1509 C1508 1.390 . S
C1509 C1510 1.394 . S
C1509 C1515 1.465 . S
C1510 C1505 1.399 . S
C1510 C1509 1.394 . S
C1510 C1511 1.516 . S
C1511 C1510 1.516 . S
C1511 C1512 1.502 . S
C1511 C1513 1.561 . S
C1511 C1514 1.526 . S
C1512 H1496 0.959 . S
C1512 H1497 0.959 . S
C1512 H1498 0.961 . S
C1512 C1511 1.502 . S
C1513 H1499 0.960 . S
C1513 H1500 0.961 . S
C1513 H1501 0.959 . S
C1513 C1511 1.561 . S
C1514 C1511 1.526 . S
C1514 C1515 1.396 . S
C1514 C1519 1.390 . S
C1515 C1509 1.465 . S
C1515 C1514 1.396 . S
C1515 C1516 1.399 . S
C1516 H1502 0.929 . S
C1516 C1515 1.399 . S
C1516 C1517 1.385 . S
C1517 H1503 0.931 . S
C1517 C1516 1.385 . S
C1517 C1518 1.389 . S
C1518 C1517 1.389 . S
C1518 C1519 1.387 . S
C1519 H1504 0.930 . S
C1519 C1514 1.390 . S
C1519 C1518 1.387 . S
H1520 C1532 0.930 . S
H1521 C1534 0.930 . S
H1522 C1535 0.930 . S
H1523 C1539 0.959 . S
H1524 C1539 0.959 . S
H1525 C1539 0.961 . S
H1526 C1540 0.960 . S
H1527 C1540 0.961 . S
H1528 C1540 0.959 . S
H1529 C1543 0.929 . S
H1530 C1544 0.931 . S
H1531 C1546 0.930 . S
C1532 H1520 0.930 . S
C1532 C1533 1.399 . S
C1532 C1537 1.399 . S
C1533 C1532 1.399 . S
C1533 C1534 1.376 . S
C1534 H1521 0.930 . S
C1534 C1533 1.376 . S
C1534 C1535 1.388 . S
C1535 H1522 0.930 . S
C1535 C1534 1.388 . S
C1535 C1536 1.390 . S
C1536 C1535 1.390 . S
C1536 C1537 1.394 . S
C1536 C1542 1.465 . S
C1537 C1532 1.399 . S
C1537 C1536 1.394 . S
C1537 C1538 1.516 . S
C1538 C1537 1.516 . S
C1538 C1539 1.502 . S
C1538 C1540 1.561 . S
C1538 C1541 1.526 . S
C1539 H1523 0.959 . S
C1539 H1524 0.959 . S
C1539 H1525 0.961 . S
C1539 C1538 1.502 . S
C1540 H1526 0.960 . S
C1540 H1527 0.961 . S
C1540 H1528 0.959 . S
C1540 C1538 1.561 . S
C1541 C1538 1.526 . S
C1541 C1542 1.396 . S
C1541 C1546 1.390 . S
C1542 C1536 1.465 . S
C1542 C1541 1.396 . S
C1542 C1543 1.399 . S
C1543 H1529 0.929 . S
C1543 C1542 1.399 . S
C1543 C1544 1.385 . S
C1544 H1530 0.931 . S
C1544 C1543 1.385 . S
C1544 C1545 1.389 . S
C1545 C1544 1.389 . S
C1545 C1546 1.387 . S
C1546 H1531 0.930 . S
C1546 C1541 1.390 . S
C1546 C1545 1.387 . S
H1547 C1559 0.930 . S
H1548 C1561 0.930 . S
H1549 C1562 0.930 . S
H1550 C1566 0.959 . S
H1551 C1566 0.959 . S
H1552 C1566 0.961 . S
H1553 C1567 0.960 . S
H1554 C1567 0.961 . S
H1555 C1567 0.959 1_565 S
H1556 C1570 0.929 . S
H1557 C1571 0.931 . S
H1558 C1573 0.930 . S
C1559 H1547 0.930 . S
C1559 C1560 1.399 . S
C1559 C1564 1.399 . S
C1560 C1559 1.399 . S
C1560 C1561 1.376 . S
C1561 H1548 0.930 . S
C1561 C1560 1.376 . S
C1561 C1562 1.388 1_545 S
C1562 H1549 0.930 . S
C1562 C1561 1.388 1_565 S
C1562 C1563 1.390 1_565 S
C1563 C1562 1.390 1_545 S
C1563 C1564 1.394 . S
C1563 C1569 1.465 1_545 S
C1564 C1559 1.399 . S
C1564 C1563 1.394 . S
C1564 C1565 1.516 . S
C1565 C1564 1.516 . S
C1565 C1566 1.502 . S
C1565 C1567 1.561 . S
C1565 C1568 1.526 . S
C1566 H1550 0.959 . S
C1566 H1551 0.959 . S
C1566 H1552 0.961 . S
C1566 C1565 1.502 . S
C1567 H1553 0.960 . S
C1567 H1554 0.961 . S
C1567 H1555 0.959 1_545 S
C1567 C1565 1.561 . S
C1568 C1565 1.526 . S
C1568 C1569 1.396 1_545 S
C1568 C1573 1.390 . S
C1569 C1563 1.465 1_565 S
C1569 C1568 1.396 1_565 S
C1569 C1570 1.399 . S
C1570 H1556 0.929 . S
C1570 C1569 1.399 . S
C1570 C1571 1.385 . S
C1571 H1557 0.931 . S
C1571 C1570 1.385 . S
C1571 C1572 1.389 . S
C1572 C1571 1.389 . S
C1572 C1573 1.387 1_565 S
C1573 H1558 0.930 . S
C1573 C1568 1.390 . S
C1573 C1572 1.387 1_545 S
H1574 C1586 0.930 . S
H1575 C1588 0.930 . S
H1576 C1589 0.930 . S
H1577 C1593 0.959 . S
H1578 C1593 0.959 . S
H1579 C1593 0.961 . S
H1580 C1594 0.960 . S
H1581 C1594 0.961 . S
H1582 C1594 0.959 . S
H1583 C1597 0.929 . S
H1584 C1598 0.931 . S
H1585 C1600 0.930 . S
C1586 H1574 0.930 . S
C1586 C1587 1.399 . S
C1586 C1591 1.399 . S
C1587 C1586 1.399 . S
C1587 C1588 1.376 . S
C1588 H1575 0.930 . S
C1588 C1587 1.376 . S
C1588 C1589 1.388 . S
C1589 H1576 0.930 . S
C1589 C1588 1.388 . S
C1589 C1590 1.390 . S
C1590 C1589 1.390 . S
C1590 C1591 1.394 . S
C1590 C1596 1.465 . S
C1591 C1586 1.399 . S
C1591 C1590 1.394 . S
C1591 C1592 1.516 . S
C1592 C1591 1.516 . S
C1592 C1593 1.502 . S
C1592 C1594 1.561 . S
C1592 C1595 1.526 . S
C1593 H1577 0.959 . S
C1593 H1578 0.959 . S
C1593 H1579 0.961 . S
C1593 C1592 1.502 . S
C1594 H1580 0.960 . S
C1594 H1581 0.961 . S
C1594 H1582 0.959 . S
C1594 C1592 1.561 . S
C1595 C1592 1.526 . S
C1595 C1596 1.396 . S
C1595 C1600 1.390 . S
C1596 C1590 1.465 . S
C1596 C1595 1.396 . S
C1596 C1597 1.399 . S
C1597 H1583 0.929 . S
C1597 C1596 1.399 . S
C1597 C1598 1.385 . S
C1598 H1584 0.931 . S
C1598 C1597 1.385 . S
C1598 C1599 1.389 . S
C1599 C1598 1.389 . S
C1599 C1600 1.387 . S
C1600 H1585 0.930 . S
C1600 C1595 1.390 . S
C1600 C1599 1.387 . S
H1601 C1613 0.930 . S
H1602 C1615 0.930 . S
H1603 C1616 0.930 1_545 S
H1604 C1620 0.959 . S
H1605 C1620 0.959 1_655 S
H1606 C1620 0.961 . S
H1607 C1621 0.960 1_565 S
H1608 C1621 0.961 . S
H1609 C1621 0.959 . S
H1610 C1624 0.929 . S
H1611 C1625 0.931 . S
H1612 C1627 0.930 . S
C1613 H1601 0.930 . S
C1613 C1614 1.399 . S
C1613 C1618 1.399 . S
C1614 C1613 1.399 . S
C1614 C1615 1.376 . S
C1615 H1602 0.930 . S
C1615 C1614 1.376 . S
C1615 C1616 1.388 . S
C1616 H1603 0.930 1_565 S
C1616 C1615 1.388 . S
C1616 C1617 1.390 . S
C1617 C1616 1.390 . S
C1617 C1618 1.394 . S
C1617 C1623 1.465 . S
C1618 C1613 1.399 . S
C1618 C1617 1.394 . S
C1618 C1619 1.516 . S
C1619 C1618 1.516 . S
C1619 C1620 1.502 . S
C1619 C1621 1.561 1_565 S
C1619 C1622 1.526 1_455 S
C1620 H1604 0.959 . S
C1620 H1605 0.959 1_455 S
C1620 H1606 0.961 . S
C1620 C1619 1.502 . S
C1621 H1607 0.960 1_545 S
C1621 H1608 0.961 . S
C1621 H1609 0.959 . S
C1621 C1619 1.561 1_545 S
C1622 C1619 1.526 1_655 S
C1622 C1623 1.396 1_655 S
C1622 C1627 1.390 . S
C1623 C1617 1.465 . S
C1623 C1622 1.396 1_455 S
C1623 C1624 1.399 1_465 S
C1624 H1610 0.929 . S
C1624 C1623 1.399 1_645 S
C1624 C1625 1.385 . S
C1625 H1611 0.931 . S
C1625 C1624 1.385 . S
C1625 C1626 1.389 . S
C1626 C1625 1.389 . S
C1626 C1627 1.387 1_545 S
C1627 H1612 0.930 . S
C1627 C1622 1.390 . S
C1627 C1626 1.387 1_565 S
H1628 C1640 0.930 . S
H1629 C1642 0.930 . S
H1630 C1643 0.930 . S
H1631 C1647 0.959 . S
H1632 C1647 0.959 . S
H1633 C1647 0.961 . S
H1634 C1648 0.960 . S
H1635 C1648 0.961 . S
H1636 C1648 0.959 . S
H1637 C1651 0.929 . S
H1638 C1652 0.931 . S
H1639 C1654 0.930 . S
C1640 H1628 0.930 . S
C1640 C1641 1.399 . S
C1640 C1645 1.399 . S
C1641 C1640 1.399 . S
C1641 C1642 1.376 . S
C1642 H1629 0.930 . S
C1642 C1641 1.376 . S
C1642 C1643 1.388 . S
C1643 H1630 0.930 . S
C1643 C1642 1.388 . S
C1643 C1644 1.390 . S
C1644 C1643 1.390 . S
C1644 C1645 1.394 . S
C1644 C1650 1.465 . S
C1645 C1640 1.399 . S
C1645 C1644 1.394 . S
C1645 C1646 1.516 . S
C1646 C1645 1.516 . S
C1646 C1647 1.502 . S
C1646 C1648 1.561 . S
C1646 C1649 1.526 . S
C1647 H1631 0.959 . S
C1647 H1632 0.959 . S
C1647 H1633 0.961 . S
C1647 C1646 1.502 . S
C1648 H1634 0.960 . S
C1648 H1635 0.961 . S
C1648 H1636 0.959 . S
C1648 C1646 1.561 . S
C1649 C1646 1.526 . S
C1649 C1650 1.396 . S
C1649 C1654 1.390 . S
C1650 C1644 1.465 . S
C1650 C1649 1.396 . S
C1650 C1651 1.399 . S
C1651 H1637 0.929 . S
C1651 C1650 1.399 . S
C1651 C1652 1.385 . S
C1652 H1638 0.931 . S
C1652 C1651 1.385 . S
C1652 C1653 1.389 . S
C1653 C1652 1.389 . S
C1653 C1654 1.387 . S
C1654 H1639 0.930 . S
C1654 C1649 1.390 . S
C1654 C1653 1.387 . S
H1655 C1667 0.930 . S
H1656 C1669 0.930 . S
H1657 C1670 0.930 . S
H1658 C1674 0.959 . S
H1659 C1674 0.959 . S
H1660 C1674 0.961 . S
H1661 C1675 0.960 . S
H1662 C1675 0.961 . S
H1663 C1675 0.959 . S
H1664 C1678 0.929 . S
H1665 C1679 0.931 . S
H1666 C1681 0.930 1_565 S
C1667 H1655 0.930 . S
C1667 C1668 1.399 . S
C1667 C1672 1.399 . S
C1668 C1667 1.399 . S
C1668 C1669 1.376 1_565 S
C1669 H1656 0.930 . S
C1669 C1668 1.376 1_545 S
C1669 C1670 1.388 . S
C1670 H1657 0.930 . S
C1670 C1669 1.388 . S
C1670 C1671 1.388 1_655 S
C1671 C1670 1.388 1_455 S
C1671 C1672 1.393 1_445 S
C1671 C1677 1.467 . S
C1672 C1667 1.399 . S
C1672 C1671 1.393 1_665 S
C1672 C1673 1.516 1_655 S
C1673 C1672 1.516 1_455 S
C1673 C1674 1.502 . S
C1673 C1675 1.561 . S
C1673 C1676 1.526 1_565 S
C1674 H1658 0.959 . S
C1674 H1659 0.959 . S
C1674 H1660 0.961 . S
C1674 C1673 1.502 . S
C1675 H1661 0.960 . S
C1675 H1662 0.961 . S
C1675 H1663 0.959 . S
C1675 C1673 1.561 . S
C1676 C1673 1.526 1_545 S
C1676 C1677 1.396 . S
C1676 C1681 1.390 . S
C1677 C1671 1.467 . S
C1677 C1676 1.396 . S
C1677 C1678 1.399 . S
C1678 H1664 0.929 . S
C1678 C1677 1.399 . S
C1678 C1679 1.385 . S
C1679 H1665 0.931 . S
C1679 C1678 1.385 . S
C1679 C1680 1.389 . S
C1680 C1679 1.389 . S
C1680 C1681 1.387 . S
C1681 H1666 0.930 1_545 S
C1681 C1676 1.390 . S
C1681 C1680 1.387 . S
H1682 C1694 0.930 . S
H1683 C1696 0.930 . S
H1684 C1697 0.930 . S
H1685 C1701 0.959 . S
H1686 C1701 0.959 . S
H1687 C1701 0.961 . S
H1688 C1702 0.960 . S
H1689 C1702 0.961 . S
H1690 C1702 0.959 . S
H1691 C1705 0.929 . S
H1692 C1706 0.931 . S
H1693 C1708 0.930 . S
C1694 H1682 0.930 . S
C1694 C1695 1.399 . S
C1694 C1699 1.399 . S
C1695 C1694 1.399 . S
C1695 C1696 1.376 . S
C1696 H1683 0.930 . S
C1696 C1695 1.376 . S
C1696 C1697 1.388 . S
C1697 H1684 0.930 . S
C1697 C1696 1.388 . S
C1697 C1698 1.390 . S
C1698 C1697 1.390 . S
C1698 C1699 1.394 . S
C1698 C1704 1.465 . S
C1699 C1694 1.399 . S
C1699 C1698 1.394 . S
C1699 C1700 1.516 . S
C1700 C1699 1.516 . S
C1700 C1701 1.502 . S
C1700 C1702 1.561 . S
C1700 C1703 1.526 . S
C1701 H1685 0.959 . S
C1701 H1686 0.959 . S
C1701 H1687 0.961 . S
C1701 C1700 1.502 . S
C1702 H1688 0.960 . S
C1702 H1689 0.961 . S
C1702 H1690 0.959 . S
C1702 C1700 1.561 . S
C1703 C1700 1.526 . S
C1703 C1704 1.396 . S
C1703 C1708 1.390 . S
C1704 C1698 1.465 . S
C1704 C1703 1.396 . S
C1704 C1705 1.399 . S
C1705 H1691 0.929 . S
C1705 C1704 1.399 . S
C1705 C1706 1.385 . S
C1706 H1692 0.931 . S
C1706 C1705 1.385 . S
C1706 C1707 1.389 . S
C1707 C1706 1.389 . S
C1707 C1708 1.387 . S
C1708 H1693 0.930 . S
C1708 C1703 1.390 . S
C1708 C1707 1.387 . S
H1709 C1721 0.930 . S
H1710 C1723 0.930 . S
H1711 C1724 0.930 . S
H1712 C1728 0.959 . S
H1713 C1728 0.959 . S
H1714 C1728 0.961 . S
H1715 C1729 0.960 . S
H1716 C1729 0.961 . S
H1717 C1729 0.959 . S
H1718 C1732 0.929 . S
H1719 C1733 0.931 . S
H1720 C1735 0.930 . S
C1721 H1709 0.930 . S
C1721 C1722 1.399 . S
C1721 C1726 1.399 . S
C1722 C1721 1.399 . S
C1722 C1723 1.376 . S
C1723 H1710 0.930 . S
C1723 C1722 1.376 . S
C1723 C1724 1.388 . S
C1724 H1711 0.930 . S
C1724 C1723 1.388 . S
C1724 C1725 1.390 . S
C1725 C1724 1.390 . S
C1725 C1726 1.394 . S
C1725 C1731 1.465 . S
C1726 C1721 1.399 . S
C1726 C1725 1.394 . S
C1726 C1727 1.516 . S
C1727 C1726 1.516 . S
C1727 C1728 1.502 1_565 S
C1727 C1729 1.561 . S
C1727 C1730 1.526 . S
C1728 H1712 0.959 . S
C1728 H1713 0.959 . S
C1728 H1714 0.961 . S
C1728 C1727 1.502 1_545 S
C1729 H1715 0.960 . S
C1729 H1716 0.961 . S
C1729 H1717 0.959 . S
C1729 C1727 1.561 . S
C1730 C1727 1.526 . S
C1730 C1731 1.396 . S
C1730 C1735 1.390 1_565 S
C1731 C1725 1.465 . S
C1731 C1730 1.396 . S
C1731 C1732 1.399 . S
C1732 H1718 0.929 . S
C1732 C1731 1.399 . S
C1732 C1733 1.385 . S
C1733 H1719 0.931 . S
C1733 C1732 1.385 . S
C1733 C1734 1.389 1_565 S
C1734 C1733 1.389 1_545 S
C1734 C1735 1.387 . S
C1735 H1720 0.930 . S
C1735 C1730 1.390 1_545 S
C1735 C1734 1.387 . S
H1736 C1748 0.930 . S
H1737 C1750 0.930 . S
H1738 C1751 0.930 . S
H1739 C1755 0.959 . S
H1740 C1755 0.959 . S
H1741 C1755 0.961 . S
H1742 C1756 0.960 . S
H1743 C1756 0.961 . S
H1744 C1756 0.959 . S
H1745 C1759 0.929 . S
H1746 C1760 0.931 . S
H1747 C1762 0.930 . S
C1748 H1736 0.930 . S
C1748 C1749 1.399 . S
C1748 C1753 1.399 . S
C1749 C1748 1.399 . S
C1749 C1750 1.376 . S
C1750 H1737 0.930 . S
C1750 C1749 1.376 . S
C1750 C1751 1.388 . S
C1751 H1738 0.930 . S
C1751 C1750 1.388 . S
C1751 C1752 1.390 . S
C1752 C1751 1.390 . S
C1752 C1753 1.394 . S
C1752 C1758 1.465 . S
C1753 C1748 1.399 . S
C1753 C1752 1.394 . S
C1753 C1754 1.516 . S
C1754 C1753 1.516 . S
C1754 C1755 1.502 . S
C1754 C1756 1.561 . S
C1754 C1757 1.526 . S
C1755 H1739 0.959 . S
C1755 H1740 0.959 . S
C1755 H1741 0.961 . S
C1755 C1754 1.502 . S
C1756 H1742 0.960 . S
C1756 H1743 0.961 . S
C1756 H1744 0.959 . S
C1756 C1754 1.561 . S
C1757 C1754 1.526 . S
C1757 C1758 1.396 . S
C1757 C1762 1.390 . S
C1758 C1752 1.465 . S
C1758 C1757 1.396 . S
C1758 C1759 1.399 . S
C1759 H1745 0.929 . S
C1759 C1758 1.399 . S
C1759 C1760 1.385 . S
C1760 H1746 0.931 . S
C1760 C1759 1.385 . S
C1760 C1761 1.389 . S
C1761 C1760 1.389 . S
C1761 C1762 1.387 . S
C1762 H1747 0.930 . S
C1762 C1757 1.390 . S
C1762 C1761 1.387 . S
H1763 C1775 0.930 . S
H1764 C1777 0.930 . S
H1765 C1778 0.930 . S
H1766 C1782 0.959 . S
H1767 C1782 0.959 . S
H1768 C1782 0.961 . S
H1769 C1783 0.960 . S
H1770 C1783 0.961 . S
H1771 C1783 0.959 . S
H1772 C1786 0.929 . S
H1773 C1787 0.932 . S
H1774 C1789 0.930 1_545 S
C1775 H1763 0.930 . S
C1775 C1776 1.399 . S
C1775 C1780 1.399 . S
C1776 C1775 1.399 . S
C1776 C1777 1.376 . S
C1777 H1764 0.930 . S
C1777 C1776 1.376 . S
C1777 C1778 1.388 . S
C1778 H1765 0.930 . S
C1778 C1777 1.388 . S
C1778 C1779 1.390 . S
C1779 C1778 1.390 . S
C1779 C1780 1.394 . S
C1779 C1785 1.465 . S
C1780 C1775 1.399 . S
C1780 C1779 1.394 . S
C1780 C1781 1.516 . S
C1781 C1780 1.516 . S
C1781 C1782 1.502 1_565 S
C1781 C1783 1.561 . S
C1781 C1784 1.526 . S
C1782 H1766 0.959 . S
C1782 H1767 0.959 . S
C1782 H1768 0.961 . S
C1782 C1781 1.502 1_545 S
C1783 H1769 0.960 . S
C1783 H1770 0.961 . S
C1783 H1771 0.959 . S
C1783 C1781 1.561 . S
C1784 C1781 1.526 . S
C1784 C1785 1.396 . S
C1784 C1789 1.390 . S
C1785 C1779 1.465 . S
C1785 C1784 1.396 . S
C1785 C1786 1.399 . S
C1786 H1772 0.929 . S
C1786 C1785 1.399 . S
C1786 C1787 1.385 . S
C1787 H1773 0.932 . S
C1787 C1786 1.385 . S
C1787 C1788 1.389 1_565 S
C1788 C1787 1.389 1_545 S
C1788 C1789 1.387 1_545 S
C1789 H1774 0.930 1_565 S
C1789 C1784 1.390 . S
C1789 C1788 1.387 1_565 S
H1790 C1802 0.930 . S
H1791 C1804 0.930 . S
H1792 C1805 0.930 . S
H1793 C1809 0.959 . S
H1794 C1809 0.959 . S
H1795 C1809 0.961 . S
H1796 C1810 0.960 . S
H1797 C1810 0.961 . S
H1798 C1810 0.959 . S
H1799 C1813 0.929 . S
H1800 C1814 0.931 . S
H1801 C1816 0.930 . S
C1802 H1790 0.930 . S
C1802 C1803 1.399 . S
C1802 C1807 1.399 . S
C1803 C1802 1.399 . S
C1803 C1804 1.376 . S
C1804 H1791 0.930 . S
C1804 C1803 1.376 . S
C1804 C1805 1.388 . S
C1805 H1792 0.930 . S
C1805 C1804 1.388 . S
C1805 C1806 1.390 . S
C1806 C1805 1.390 . S
C1806 C1807 1.394 . S
C1806 C1812 1.465 . S
C1807 C1802 1.399 . S
C1807 C1806 1.394 . S
C1807 C1808 1.516 . S
C1808 C1807 1.516 . S
C1808 C1809 1.502 . S
C1808 C1810 1.561 . S
C1808 C1811 1.526 . S
C1809 H1793 0.959 . S
C1809 H1794 0.959 . S
C1809 H1795 0.961 . S
C1809 C1808 1.502 . S
C1810 H1796 0.960 . S
C1810 H1797 0.961 . S
C1810 H1798 0.959 . S
C1810 C1808 1.561 . S
C1811 C1808 1.526 . S
C1811 C1812 1.396 . S
C1811 C1816 1.390 . S
C1812 C1806 1.465 . S
C1812 C1811 1.396 . S
C1812 C1813 1.399 . S
C1813 H1799 0.929 . S
C1813 C1812 1.399 . S
C1813 C1814 1.385 . S
C1814 H1800 0.931 . S
C1814 C1813 1.385 . S
C1814 C1815 1.389 . S
C1815 C1814 1.389 . S
C1815 C1816 1.387 . S
C1816 H1801 0.930 . S
C1816 C1811 1.390 . S
C1816 C1815 1.387 . S
H1817 C1829 0.930 . S
H1818 C1831 0.930 . S
H1819 C1832 0.930 . S
H1820 C1836 0.959 . S
H1821 C1836 0.959 . S
H1822 C1836 0.961 1_455 S
H1823 C1837 0.961 . S
H1824 C1837 0.958 1_545 S
H1825 C1837 0.965 . S
H1826 C1840 0.929 1_565 S
H1827 C1841 0.931 . S
H1828 C1843 0.930 . S
C1829 H1817 0.930 . S
C1829 C1830 1.399 1_545 S
C1829 C1834 1.399 . S
C1830 C1829 1.399 1_565 S
C1830 C1831 1.376 . S
C1831 H1818 0.930 . S
C1831 C1830 1.376 . S
C1831 C1832 1.388 . S
C1832 H1819 0.930 . S
C1832 C1831 1.388 . S
C1832 C1833 1.390 1_465 S
C1833 C1832 1.390 1_645 S
C1833 C1834 1.394 1_655 S
C1833 C1839 1.465 . S
C1834 C1829 1.399 . S
C1834 C1833 1.394 1_455 S
C1834 C1835 1.516 1_455 S
C1835 C1834 1.516 1_655 S
C1835 C1836 1.502 . S
C1835 C1837 1.557 1_545 S
C1835 C1838 1.526 . S
C1836 H1820 0.959 . S
C1836 H1821 0.959 . S
C1836 H1822 0.961 1_655 S
C1836 C1835 1.502 . S
C1837 H1823 0.961 . S
C1837 H1824 0.958 1_565 S
C1837 H1825 0.965 . S
C1837 C1835 1.557 1_565 S
C1838 C1835 1.526 . S
C1838 C1839 1.396 . S
C1838 C1843 1.390 . S
C1839 C1833 1.465 . S
C1839 C1838 1.396 . S
C1839 C1840 1.399 . S
C1840 H1826 0.929 1_545 S
C1840 C1839 1.399 . S
C1840 C1841 1.385 . S
C1841 H1827 0.931 . S
C1841 C1840 1.385 . S
C1841 C1842 1.389 . S
C1842 C1841 1.389 . S
C1842 C1843 1.387 . S
C1843 H1828 0.930 . S
C1843 C1838 1.390 . S
C1843 C1842 1.387 . S
H1844 C1856 0.930 . S
H1845 C1858 0.930 . S
H1846 C1859 0.930 . S
H1847 C1863 0.959 . S
H1848 C1863 0.959 . S
H1849 C1863 0.961 . S
H1850 C1864 0.960 . S
H1851 C1864 0.961 . S
H1852 C1864 0.959 . S
H1853 C1867 0.929 . S
H1854 C1868 0.931 . S
H1855 C1870 0.930 . S
C1856 H1844 0.930 . S
C1856 C1857 1.399 . S
C1856 C1861 1.399 . S
C1857 C1856 1.399 . S
C1857 C1858 1.376 . S
C1858 H1845 0.930 . S
C1858 C1857 1.376 . S
C1858 C1859 1.388 . S
C1859 H1846 0.930 . S
C1859 C1858 1.388 . S
C1859 C1860 1.390 . S
C1860 C1859 1.390 . S
C1860 C1861 1.394 . S
C1860 C1866 1.465 . S
C1861 C1856 1.399 . S
C1861 C1860 1.394 . S
C1861 C1862 1.516 . S
C1862 C1861 1.516 . S
C1862 C1863 1.502 . S
C1862 C1864 1.561 . S
C1862 C1865 1.526 . S
C1863 H1847 0.959 . S
C1863 H1848 0.959 . S
C1863 H1849 0.961 . S
C1863 C1862 1.502 . S
C1864 H1850 0.960 . S
C1864 H1851 0.961 . S
C1864 H1852 0.959 . S
C1864 C1862 1.561 . S
C1865 C1862 1.526 . S
C1865 C1866 1.396 . S
C1865 C1870 1.390 . S
C1866 C1860 1.465 . S
C1866 C1865 1.396 . S
C1866 C1867 1.399 . S
C1867 H1853 0.929 . S
C1867 C1866 1.399 . S
C1867 C1868 1.385 . S
C1868 H1854 0.931 . S
C1868 C1867 1.385 . S
C1868 C1869 1.389 . S
C1869 C1868 1.389 . S
C1869 C1870 1.387 . S
C1870 H1855 0.930 . S
C1870 C1865 1.390 . S
C1870 C1869 1.387 . S
H1871 C1883 0.930 . S
H1872 C1885 0.930 . S
H1873 C1886 0.930 1_545 S
H1874 C1890 0.959 . S
H1875 C1890 0.959 1_455 S
H1876 C1890 0.961 . S
H1877 C1891 0.960 . S
H1878 C1891 0.961 . S
H1879 C1891 0.959 1_545 S
H1880 C1894 0.929 . S
H1881 C1895 0.931 . S
H1882 C1897 0.930 . S
C1883 H1871 0.930 . S
C1883 C1884 1.399 . S
C1883 C1888 1.399 . S
C1884 C1883 1.399 . S
C1884 C1885 1.376 . S
C1885 H1872 0.930 . S
C1885 C1884 1.376 . S
C1885 C1886 1.388 . S
C1886 H1873 0.930 1_565 S
C1886 C1885 1.388 . S
C1886 C1887 1.390 . S
C1887 C1886 1.390 . S
C1887 C1888 1.394 . S
C1887 C1893 1.465 . S
C1888 C1883 1.399 . S
C1888 C1887 1.394 . S
C1888 C1889 1.516 . S
C1889 C1888 1.516 . S
C1889 C1890 1.502 . S
C1889 C1891 1.561 . S
C1889 C1892 1.526 1_655 S
C1890 H1874 0.959 . S
C1890 H1875 0.959 1_655 S
C1890 H1876 0.961 . S
C1890 C1889 1.502 . S
C1891 H1877 0.960 . S
C1891 H1878 0.961 . S
C1891 H1879 0.959 1_565 S
C1891 C1889 1.561 . S
C1892 C1889 1.526 1_455 S
C1892 C1893 1.396 1_455 S
C1892 C1897 1.390 . S
C1893 C1887 1.465 . S
C1893 C1892 1.396 1_655 S
C1893 C1894 1.399 1_665 S
C1894 H1880 0.929 . S
C1894 C1893 1.399 1_445 S
C1894 C1895 1.385 . S
C1895 H1881 0.931 . S
C1895 C1894 1.385 . S
C1895 C1896 1.389 . S
C1896 C1895 1.389 . S
C1896 C1897 1.387 1_545 S
C1897 H1882 0.930 . S
C1897 C1892 1.390 . S
C1897 C1896 1.387 1_565 S
H1898 C1910 0.930 . S
H1899 C1912 0.930 . S
H1900 C1913 0.930 . S
H1901 C1917 0.959 . S
H1902 C1917 0.959 . S
H1903 C1917 0.961 . S
H1904 C1918 0.960 . S
H1905 C1918 0.961 . S
H1906 C1918 0.959 . S
H1907 C1921 0.929 . S
H1908 C1922 0.931 . S
H1909 C1924 0.930 . S
C1910 H1898 0.930 . S
C1910 C1911 1.399 . S
C1910 C1915 1.399 . S
C1911 C1910 1.399 . S
C1911 C1912 1.376 . S
C1912 H1899 0.930 . S
C1912 C1911 1.376 . S
C1912 C1913 1.388 . S
C1913 H1900 0.930 . S
C1913 C1912 1.388 . S
C1913 C1914 1.390 . S
C1914 C1913 1.390 . S
C1914 C1915 1.394 . S
C1914 C1920 1.465 . S
C1915 C1910 1.399 . S
C1915 C1914 1.394 . S
C1915 C1916 1.516 . S
C1916 C1915 1.516 . S
C1916 C1917 1.502 . S
C1916 C1918 1.561 . S
C1916 C1919 1.526 . S
C1917 H1901 0.959 . S
C1917 H1902 0.959 . S
C1917 H1903 0.961 . S
C1917 C1916 1.502 . S
C1918 H1904 0.960 . S
C1918 H1905 0.961 . S
C1918 H1906 0.959 . S
C1918 C1916 1.561 . S
C1919 C1916 1.526 . S
C1919 C1920 1.396 . S
C1919 C1924 1.390 . S
C1920 C1914 1.465 . S
C1920 C1919 1.396 . S
C1920 C1921 1.399 . S
C1921 H1907 0.929 . S
C1921 C1920 1.399 . S
C1921 C1922 1.385 . S
C1922 H1908 0.931 . S
C1922 C1921 1.385 . S
C1922 C1923 1.389 . S
C1923 C1922 1.389 . S
C1923 C1924 1.387 . S
C1924 H1909 0.930 . S
C1924 C1919 1.390 . S
C1924 C1923 1.387 . S
H1925 C1937 0.930 . S
H1926 C1939 0.930 . S
H1927 C1940 0.930 . S
H1928 C1944 0.959 . S
H1929 C1944 0.959 . S
H1930 C1944 0.961 . S
H1931 C1945 0.960 . S
H1932 C1945 0.961 . S
H1933 C1945 0.959 . S
H1934 C1948 0.929 . S
H1935 C1949 0.931 . S
H1936 C1951 0.930 . S
C1937 H1925 0.930 . S
C1937 C1938 1.399 . S
C1937 C1942 1.399 1_565 S
C1938 C1937 1.399 . S
C1938 C1939 1.376 1_565 S
C1939 H1926 0.930 . S
C1939 C1938 1.376 1_545 S
C1939 C1940 1.388 . S
C1940 H1927 0.930 . S
C1940 C1939 1.388 . S
C1940 C1941 1.390 . S
C1941 C1940 1.390 . S
C1941 C1942 1.394 . S
C1941 C1947 1.465 . S
C1942 C1937 1.399 1_545 S
C1942 C1941 1.394 . S
C1942 C1943 1.516 . S
C1943 C1942 1.516 . S
C1943 C1944 1.502 1_545 S
C1943 C1945 1.561 . S
C1943 C1946 1.526 . S
C1944 H1928 0.959 . S
C1944 H1929 0.959 . S
C1944 H1930 0.961 . S
C1944 C1943 1.502 1_565 S
C1945 H1931 0.960 . S
C1945 H1932 0.961 . S
C1945 H1933 0.959 . S
C1945 C1943 1.561 . S
C1946 C1943 1.526 . S
C1946 C1947 1.396 . S
C1946 C1951 1.390 . S
C1947 C1941 1.465 . S
C1947 C1946 1.396 . S
C1947 C1948 1.399 . S
C1948 H1934 0.929 . S
C1948 C1947 1.399 . S
C1948 C1949 1.385 . S
C1949 H1935 0.931 . S
C1949 C1948 1.385 . S
C1949 C1950 1.389 . S
C1950 C1949 1.389 . S
C1950 C1951 1.387 . S
C1951 H1936 0.930 . S
C1951 C1946 1.390 . S
C1951 C1950 1.387 . S
H1952 C1964 0.930 . S
H1953 C1966 0.930 . S
H1954 C1967 0.930 . S
H1955 C1971 0.959 . S
H1956 C1971 0.959 . S
H1957 C1971 0.961 . S
H1958 C1972 0.960 . S
H1959 C1972 0.961 . S
H1960 C1972 0.959 . S
H1961 C1975 0.929 . S
H1962 C1976 0.931 . S
H1963 C1978 0.930 . S
C1964 H1952 0.930 . S
C1964 C1965 1.399 . S
C1964 C1969 1.399 . S
C1965 C1964 1.399 . S
C1965 C1966 1.376 . S
C1966 H1953 0.930 . S
C1966 C1965 1.376 . S
C1966 C1967 1.388 . S
C1967 H1954 0.930 . S
C1967 C1966 1.388 . S
C1967 C1968 1.390 . S
C1968 C1967 1.390 . S
C1968 C1969 1.394 . S
C1968 C1974 1.465 . S
C1969 C1964 1.399 . S
C1969 C1968 1.394 . S
C1969 C1970 1.516 . S
C1970 C1969 1.516 . S
C1970 C1971 1.502 . S
C1970 C1972 1.561 . S
C1970 C1973 1.526 . S
C1971 H1955 0.959 . S
C1971 H1956 0.959 . S
C1971 H1957 0.961 . S
C1971 C1970 1.502 . S
C1972 H1958 0.960 . S
C1972 H1959 0.961 . S
C1972 H1960 0.959 . S
C1972 C1970 1.561 . S
C1973 C1970 1.526 . S
C1973 C1974 1.396 . S
C1973 C1978 1.390 . S
C1974 C1968 1.465 . S
C1974 C1973 1.396 . S
C1974 C1975 1.399 . S
C1975 H1961 0.929 . S
C1975 C1974 1.399 . S
C1975 C1976 1.385 . S
C1976 H1962 0.931 . S
C1976 C1975 1.385 . S
C1976 C1977 1.389 . S
C1977 C1976 1.389 . S
C1977 C1978 1.387 . S
C1978 H1963 0.930 . S
C1978 C1973 1.390 . S
C1978 C1977 1.387 . S
H1979 C1991 0.930 . S
H1980 C1993 0.930 . S
H1981 C1994 0.930 . S
H1982 C1998 0.959 . S
H1983 C1998 0.959 . S
H1984 C1998 0.961 1_455 S
H1985 C1999 0.960 1_455 S
H1986 C1999 0.961 . S
H1987 C1999 0.959 . S
H1988 C2002 0.929 . S
H1989 C2003 0.931 . S
H1990 C2005 0.930 . S
C1991 H1979 0.930 . S
C1991 C1992 1.399 . S
C1991 C1996 1.399 . S
C1992 C1991 1.399 . S
C1992 C1993 1.376 . S
C1993 H1980 0.930 . S
C1993 C1992 1.376 . S
C1993 C1994 1.388 . S
C1994 H1981 0.930 . S
C1994 C1993 1.388 . S
C1994 C1995 1.390 1_455 S
C1995 C1994 1.390 1_655 S
C1995 C1996 1.394 1_655 S
C1995 C2001 1.465 . S
C1996 C1991 1.399 . S
C1996 C1995 1.394 1_455 S
C1996 C1997 1.516 1_455 S
C1997 C1996 1.516 1_655 S
C1997 C1998 1.502 . S
C1997 C1999 1.561 . S
C1997 C2000 1.526 . S
C1998 H1982 0.959 . S
C1998 H1983 0.959 . S
C1998 H1984 0.961 1_655 S
C1998 C1997 1.502 . S
C1999 H1985 0.960 1_655 S
C1999 H1986 0.961 . S
C1999 H1987 0.959 . S
C1999 C1997 1.561 . S
C2000 C1997 1.526 . S
C2000 C2001 1.396 . S
C2000 C2005 1.390 . S
C2001 C1995 1.465 . S
C2001 C2000 1.396 . S
C2001 C2002 1.399 . S
C2002 H1988 0.929 . S
C2002 C2001 1.399 . S
C2002 C2003 1.385 . S
C2003 H1989 0.931 . S
C2003 C2002 1.385 . S
C2003 C2004 1.389 . S
C2004 C2003 1.389 . S
C2004 C2005 1.387 . S
C2005 H1990 0.930 . S
C2005 C2000 1.390 . S
C2005 C2004 1.387 . S
H2006 C2018 0.930 . S
H2007 C2020 0.930 . S
H2008 C2021 0.930 . S
H2009 C2025 0.959 . S
H2010 C2025 0.959 . S
H2011 C2025 0.961 . S
H2012 C2026 0.960 . S
H2013 C2026 0.961 . S
H2014 C2026 0.959 . S
H2015 C2029 0.929 . S
H2016 C2030 0.931 . S
H2017 C2032 0.930 . S
C2018 H2006 0.930 . S
C2018 C2019 1.399 . S
C2018 C2023 1.399 . S
C2019 C2018 1.399 . S
C2019 C2020 1.376 . S
C2020 H2007 0.930 . S
C2020 C2019 1.376 . S
C2020 C2021 1.388 . S
C2021 H2008 0.930 . S
C2021 C2020 1.388 . S
C2021 C2022 1.390 . S
C2022 C2021 1.390 . S
C2022 C2023 1.394 . S
C2022 C2028 1.465 . S
C2023 C2018 1.399 . S
C2023 C2022 1.394 . S
C2023 C2024 1.516 . S
C2024 C2023 1.516 . S
C2024 C2025 1.502 . S
C2024 C2026 1.561 . S
C2024 C2027 1.526 . S
C2025 H2009 0.959 . S
C2025 H2010 0.959 . S
C2025 H2011 0.961 . S
C2025 C2024 1.502 . S
C2026 H2012 0.960 . S
C2026 H2013 0.961 . S
C2026 H2014 0.959 . S
C2026 C2024 1.561 . S
C2027 C2024 1.526 . S
C2027 C2028 1.396 . S
C2027 C2032 1.390 . S
C2028 C2022 1.465 . S
C2028 C2027 1.396 . S
C2028 C2029 1.399 . S
C2029 H2015 0.929 . S
C2029 C2028 1.399 . S
C2029 C2030 1.385 . S
C2030 H2016 0.931 . S
C2030 C2029 1.385 . S
C2030 C2031 1.389 . S
C2031 C2030 1.389 . S
C2031 C2032 1.387 . S
C2032 H2017 0.930 . S
C2032 C2027 1.390 . S
C2032 C2031 1.387 . S
H2033 C2045 0.930 . S
H2034 C2047 0.930 . S
H2035 C2048 0.930 . S
H2036 C2052 0.959 . S
H2037 C2052 0.959 . S
H2038 C2052 0.961 . S
H2039 C2053 0.960 . S
H2040 C2053 0.961 . S
H2041 C2053 0.959 . S
H2042 C2056 0.929 . S
H2043 C2057 0.931 . S
H2044 C2059 0.930 . S
C2045 H2033 0.930 . S
C2045 C2046 1.399 . S
C2045 C2050 1.399 . S
C2046 C2045 1.399 . S
C2046 C2047 1.376 . S
C2047 H2034 0.930 . S
C2047 C2046 1.376 . S
C2047 C2048 1.388 . S
C2048 H2035 0.930 . S
C2048 C2047 1.388 . S
C2048 C2049 1.390 . S
C2049 C2048 1.390 . S
C2049 C2050 1.394 . S
C2049 C2055 1.465 . S
C2050 C2045 1.399 . S
C2050 C2049 1.394 . S
C2050 C2051 1.516 . S
C2051 C2050 1.516 . S
C2051 C2052 1.502 . S
C2051 C2053 1.561 . S
C2051 C2054 1.526 . S
C2052 H2036 0.959 . S
C2052 H2037 0.959 . S
C2052 H2038 0.961 . S
C2052 C2051 1.502 . S
C2053 H2039 0.960 . S
C2053 H2040 0.961 . S
C2053 H2041 0.959 . S
C2053 C2051 1.561 . S
C2054 C2051 1.526 . S
C2054 C2055 1.396 . S
C2054 C2059 1.390 . S
C2055 C2049 1.465 . S
C2055 C2054 1.396 . S
C2055 C2056 1.399 . S
C2056 H2042 0.929 . S
C2056 C2055 1.399 . S
C2056 C2057 1.385 . S
C2057 H2043 0.931 . S
C2057 C2056 1.385 . S
C2057 C2058 1.389 . S
C2058 C2057 1.389 . S
C2058 C2059 1.387 . S
C2059 H2044 0.930 . S
C2059 C2054 1.390 . S
C2059 C2058 1.387 . S
H2060 C2072 0.930 . S
H2061 C2074 0.930 . S
H2062 C2075 0.930 . S
H2063 C2079 0.959 . S
H2064 C2079 0.959 . S
H2065 C2079 0.961 . S
H2066 C2080 0.960 . S
H2067 C2080 0.961 . S
H2068 C2080 0.959 . S
H2069 C2083 0.929 . S
H2070 C2084 0.931 . S
H2071 C2086 0.930 . S
C2072 H2060 0.930 . S
C2072 C2073 1.399 . S
C2072 C2077 1.399 . S
C2073 C2072 1.399 . S
C2073 C2074 1.376 . S
C2074 H2061 0.930 . S
C2074 C2073 1.376 . S
C2074 C2075 1.388 . S
C2075 H2062 0.930 . S
C2075 C2074 1.388 . S
C2075 C2076 1.390 . S
C2076 C2075 1.390 . S
C2076 C2077 1.394 . S
C2076 C2082 1.465 . S
C2077 C2072 1.399 . S
C2077 C2076 1.394 . S
C2077 C2078 1.516 . S
C2078 C2077 1.516 . S
C2078 C2079 1.502 . S
C2078 C2080 1.561 . S
C2078 C2081 1.526 . S
C2079 H2063 0.959 . S
C2079 H2064 0.959 . S
C2079 H2065 0.961 . S
C2079 C2078 1.502 . S
C2080 H2066 0.960 . S
C2080 H2067 0.961 . S
C2080 H2068 0.959 . S
C2080 C2078 1.561 . S
C2081 C2078 1.526 . S
C2081 C2082 1.396 . S
C2081 C2086 1.390 . S
C2082 C2076 1.465 . S
C2082 C2081 1.396 . S
C2082 C2083 1.399 . S
C2083 H2069 0.929 . S
C2083 C2082 1.399 . S
C2083 C2084 1.385 . S
C2084 H2070 0.931 . S
C2084 C2083 1.385 . S
C2084 C2085 1.389 . S
C2085 C2084 1.389 . S
C2085 C2086 1.387 . S
C2086 H2071 0.930 . S
C2086 C2081 1.390 . S
C2086 C2085 1.387 . S
H2087 C2099 0.930 . S
H2088 C2101 0.930 . S
H2089 C2102 0.930 . S
H2090 C2106 0.959 . S
H2091 C2106 0.959 . S
H2092 C2106 0.961 . S
H2093 C2107 0.960 . S
H2094 C2107 0.961 . S
H2095 C2107 0.959 . S
H2096 C2110 0.929 . S
H2097 C2111 0.931 . S
H2098 C2113 0.930 . S
C2099 H2087 0.930 . S
C2099 C2100 1.399 . S
C2099 C2104 1.399 . S
C2100 C2099 1.399 . S
C2100 C2101 1.376 . S
C2101 H2088 0.930 . S
C2101 C2100 1.376 . S
C2101 C2102 1.388 . S
C2102 H2089 0.930 . S
C2102 C2101 1.388 . S
C2102 C2103 1.390 . S
C2103 C2102 1.390 . S
C2103 C2104 1.394 . S
C2103 C2109 1.465 . S
C2104 C2099 1.399 . S
C2104 C2103 1.394 . S
C2104 C2105 1.516 . S
C2105 C2104 1.516 . S
C2105 C2106 1.502 . S
C2105 C2107 1.561 . S
C2105 C2108 1.526 . S
C2106 H2090 0.959 . S
C2106 H2091 0.959 . S
C2106 H2092 0.961 . S
C2106 C2105 1.502 . S
C2107 H2093 0.960 . S
C2107 H2094 0.961 . S
C2107 H2095 0.959 . S
C2107 C2105 1.561 . S
C2108 C2105 1.526 . S
C2108 C2109 1.396 . S
C2108 C2113 1.390 . S
C2109 C2103 1.465 . S
C2109 C2108 1.396 . S
C2109 C2110 1.399 . S
C2110 H2096 0.929 . S
C2110 C2109 1.399 . S
C2110 C2111 1.385 . S
C2111 H2097 0.931 . S
C2111 C2110 1.385 . S
C2111 C2112 1.389 . S
C2112 C2111 1.389 . S
C2112 C2113 1.387 . S
C2113 H2098 0.930 . S
C2113 C2108 1.390 . S
C2113 C2112 1.387 . S
H2114 C2126 0.930 . S
H2115 C2128 0.930 . S
H2116 C2129 0.930 . S
H2117 C2133 0.959 . S
H2118 C2133 0.959 . S
H2119 C2133 0.961 . S
H2120 C2134 0.960 . S
H2121 C2134 0.961 . S
H2122 C2134 0.959 . S
H2123 C2137 0.929 . S
H2124 C2138 0.931 . S
H2125 C2140 0.930 . S
C2126 H2114 0.930 . S
C2126 C2127 1.399 . S
C2126 C2131 1.399 . S
C2127 C2126 1.399 . S
C2127 C2128 1.376 . S
C2128 H2115 0.930 . S
C2128 C2127 1.376 . S
C2128 C2129 1.388 . S
C2129 H2116 0.930 . S
C2129 C2128 1.388 . S
C2129 C2130 1.390 . S
C2130 C2129 1.390 . S
C2130 C2131 1.394 . S
C2130 C2136 1.465 . S
C2131 C2126 1.399 . S
C2131 C2130 1.394 . S
C2131 C2132 1.516 . S
C2132 C2131 1.516 . S
C2132 C2133 1.502 . S
C2132 C2134 1.561 . S
C2132 C2135 1.526 . S
C2133 H2117 0.959 . S
C2133 H2118 0.959 . S
C2133 H2119 0.961 . S
C2133 C2132 1.502 . S
C2134 H2120 0.960 . S
C2134 H2121 0.961 . S
C2134 H2122 0.959 . S
C2134 C2132 1.561 . S
C2135 C2132 1.526 . S
C2135 C2136 1.396 . S
C2135 C2140 1.390 . S
C2136 C2130 1.465 . S
C2136 C2135 1.396 . S
C2136 C2137 1.399 . S
C2137 H2123 0.929 . S
C2137 C2136 1.399 . S
C2137 C2138 1.385 . S
C2138 H2124 0.931 . S
C2138 C2137 1.385 . S
C2138 C2139 1.389 . S
C2139 C2138 1.389 . S
C2139 C2140 1.387 . S
C2140 H2125 0.930 . S
C2140 C2135 1.390 . S
C2140 C2139 1.387 . S
H2141 C2153 0.930 . S
H2142 C2155 0.930 . S
H2143 C2156 0.930 . S
H2144 C2160 0.959 . S
H2145 C2160 0.959 1_455 S
H2146 C2160 0.961 . S
H2147 C2161 0.960 . S
H2148 C2161 0.961 . S
H2149 C2161 0.959 . S
H2150 C2164 0.929 . S
H2151 C2165 0.931 . S
H2152 C2167 0.930 . S
C2153 H2141 0.930 . S
C2153 C2154 1.399 . S
C2153 C2158 1.399 . S
C2154 C2153 1.399 . S
C2154 C2155 1.376 . S
C2155 H2142 0.930 . S
C2155 C2154 1.376 . S
C2155 C2156 1.388 . S
C2156 H2143 0.930 . S
C2156 C2155 1.388 . S
C2156 C2157 1.390 . S
C2157 C2156 1.390 . S
C2157 C2158 1.394 . S
C2157 C2163 1.465 . S
C2158 C2153 1.399 . S
C2158 C2157 1.394 . S
C2158 C2159 1.516 . S
C2159 C2158 1.516 . S
C2159 C2160 1.502 . S
C2159 C2161 1.561 . S
C2159 C2162 1.526 1_655 S
C2160 H2144 0.959 . S
C2160 H2145 0.959 1_655 S
C2160 H2146 0.961 . S
C2160 C2159 1.502 . S
C2161 H2147 0.960 . S
C2161 H2148 0.961 . S
C2161 H2149 0.959 . S
C2161 C2159 1.561 . S
C2162 C2159 1.526 1_455 S
C2162 C2163 1.396 1_455 S
C2162 C2167 1.390 . S
C2163 C2157 1.465 . S
C2163 C2162 1.396 1_655 S
C2163 C2164 1.399 1_655 S
C2164 H2150 0.929 . S
C2164 C2163 1.399 1_455 S
C2164 C2165 1.385 . S
C2165 H2151 0.931 . S
C2165 C2164 1.385 . S
C2165 C2166 1.389 . S
C2166 C2165 1.389 . S
C2166 C2167 1.387 . S
C2167 H2152 0.930 . S
C2167 C2162 1.390 . S
C2167 C2166 1.387 . S
H2168 C2180 0.930 . S
H2169 C2182 0.930 . S
H2170 C2183 0.930 . S
H2171 C2187 0.959 . S
H2172 C2187 0.959 . S
H2173 C2187 0.961 . S
H2174 C2188 0.960 . S
H2175 C2188 0.961 . S
H2176 C2188 0.959 . S
H2177 C2191 0.929 . S
H2178 C2192 0.931 . S
H2179 C2194 0.930 . S
C2180 H2168 0.930 . S
C2180 C2181 1.399 . S
C2180 C2185 1.399 . S
C2181 C2180 1.399 . S
C2181 C2182 1.376 . S
C2182 H2169 0.930 . S
C2182 C2181 1.376 . S
C2182 C2183 1.388 . S
C2183 H2170 0.930 . S
C2183 C2182 1.388 . S
C2183 C2184 1.390 . S
C2184 C2183 1.390 . S
C2184 C2185 1.394 . S
C2184 C2190 1.465 . S
C2185 C2180 1.399 . S
C2185 C2184 1.394 . S
C2185 C2186 1.516 . S
C2186 C2185 1.516 . S
C2186 C2187 1.502 . S
C2186 C2188 1.561 . S
C2186 C2189 1.526 . S
C2187 H2171 0.959 . S
C2187 H2172 0.959 . S
C2187 H2173 0.961 . S
C2187 C2186 1.502 . S
C2188 H2174 0.960 . S
C2188 H2175 0.961 . S
C2188 H2176 0.959 . S
C2188 C2186 1.561 . S
C2189 C2186 1.526 . S
C2189 C2190 1.396 . S
C2189 C2194 1.390 . S
C2190 C2184 1.465 . S
C2190 C2189 1.396 . S
C2190 C2191 1.399 . S
C2191 H2177 0.929 . S
C2191 C2190 1.399 . S
C2191 C2192 1.385 . S
C2192 H2178 0.931 . S
C2192 C2191 1.385 . S
C2192 C2193 1.389 . S
C2193 C2192 1.389 . S
C2193 C2194 1.387 . S
C2194 H2179 0.930 . S
C2194 C2189 1.390 . S
C2194 C2193 1.387 . S
H2195 C2207 0.930 . S
H2196 C2209 0.930 . S
H2197 C2210 0.930 . S
H2198 C2214 0.959 . S
H2199 C2214 0.959 . S
H2200 C2214 0.961 1_655 S
H2201 C2215 0.960 1_655 S
H2202 C2215 0.961 . S
H2203 C2215 0.959 . S
H2204 C2218 0.929 . S
H2205 C2219 0.931 . S
H2206 C2221 0.930 . S
C2207 H2195 0.930 . S
C2207 C2208 1.399 . S
C2207 C2212 1.399 . S
C2208 C2207 1.399 . S
C2208 C2209 1.376 . S
C2209 H2196 0.930 . S
C2209 C2208 1.376 . S
C2209 C2210 1.388 . S
C2210 H2197 0.930 . S
C2210 C2209 1.388 . S
C2210 C2211 1.390 1_655 S
C2211 C2210 1.390 1_455 S
C2211 C2212 1.394 1_455 S
C2211 C2217 1.465 . S
C2212 C2207 1.399 . S
C2212 C2211 1.394 1_655 S
C2212 C2213 1.516 1_655 S
C2213 C2212 1.516 1_455 S
C2213 C2214 1.502 . S
C2213 C2215 1.561 . S
C2213 C2216 1.526 . S
C2214 H2198 0.959 . S
C2214 H2199 0.959 . S
C2214 H2200 0.961 1_455 S
C2214 C2213 1.502 . S
C2215 H2201 0.960 1_455 S
C2215 H2202 0.961 . S
C2215 H2203 0.959 . S
C2215 C2213 1.561 . S
C2216 C2213 1.526 . S
C2216 C2217 1.396 . S
C2216 C2221 1.390 . S
C2217 C2211 1.465 . S
C2217 C2216 1.396 . S
C2217 C2218 1.399 . S
C2218 H2204 0.929 . S
C2218 C2217 1.399 . S
C2218 C2219 1.385 . S
C2219 H2205 0.931 . S
C2219 C2218 1.385 . S
C2219 C2220 1.389 . S
C2220 C2219 1.389 . S
C2220 C2221 1.387 . S
C2221 H2206 0.930 . S
C2221 C2216 1.390 . S
C2221 C2220 1.387 . S
H2222 C2234 0.930 . S
H2223 C2236 0.930 . S
H2224 C2237 0.930 . S
H2225 C2241 0.959 . S
H2226 C2241 0.959 . S
H2227 C2241 0.961 . S
H2228 C2242 0.960 . S
H2229 C2242 0.961 . S
H2230 C2242 0.959 . S
H2231 C2245 0.929 . S
H2232 C2246 0.931 . S
H2233 C2248 0.930 . S
C2234 H2222 0.930 . S
C2234 C2235 1.399 . S
C2234 C2239 1.399 . S
C2235 C2234 1.399 . S
C2235 C2236 1.376 . S
C2236 H2223 0.930 . S
C2236 C2235 1.376 . S
C2236 C2237 1.388 . S
C2237 H2224 0.930 . S
C2237 C2236 1.388 . S
C2237 C2238 1.390 . S
C2238 C2237 1.390 . S
C2238 C2239 1.394 . S
C2238 C2244 1.465 . S
C2239 C2234 1.399 . S
C2239 C2238 1.394 . S
C2239 C2240 1.516 . S
C2240 C2239 1.516 . S
C2240 C2241 1.502 . S
C2240 C2242 1.561 . S
C2240 C2243 1.526 . S
C2241 H2225 0.959 . S
C2241 H2226 0.959 . S
C2241 H2227 0.961 . S
C2241 C2240 1.502 . S
C2242 H2228 0.960 . S
C2242 H2229 0.961 . S
C2242 H2230 0.959 . S
C2242 C2240 1.561 . S
C2243 C2240 1.526 . S
C2243 C2244 1.396 . S
C2243 C2248 1.390 . S
C2244 C2238 1.465 . S
C2244 C2243 1.396 . S
C2244 C2245 1.399 . S
C2245 H2231 0.929 . S
C2245 C2244 1.399 . S
C2245 C2246 1.385 . S
C2246 H2232 0.931 . S
C2246 C2245 1.385 . S
C2246 C2247 1.389 . S
C2247 C2246 1.389 . S
C2247 C2248 1.387 . S
C2248 H2233 0.930 . S
C2248 C2243 1.390 . S
C2248 C2247 1.387 . S
H2249 C2261 0.930 . S
H2250 C2263 0.930 . S
H2251 C2264 0.930 . S
H2252 C2268 0.959 . S
H2253 C2268 0.959 . S
H2254 C2268 0.961 . S
H2255 C2269 0.960 . S
H2256 C2269 0.961 . S
H2257 C2269 0.959 . S
H2258 C2272 0.929 . S
H2259 C2273 0.931 . S
H2260 C2275 0.930 . S
C2261 H2249 0.930 . S
C2261 C2262 1.399 . S
C2261 C2266 1.399 . S
C2262 C2261 1.399 . S
C2262 C2263 1.376 . S
C2263 H2250 0.930 . S
C2263 C2262 1.376 . S
C2263 C2264 1.388 . S
C2264 H2251 0.930 . S
C2264 C2263 1.388 . S
C2264 C2265 1.390 . S
C2265 C2264 1.390 . S
C2265 C2266 1.394 . S
C2265 C2271 1.465 . S
C2266 C2261 1.399 . S
C2266 C2265 1.394 . S
C2266 C2267 1.516 . S
C2267 C2266 1.516 . S
C2267 C2268 1.502 . S
C2267 C2269 1.561 . S
C2267 C2270 1.526 . S
C2268 H2252 0.959 . S
C2268 H2253 0.959 . S
C2268 H2254 0.961 . S
C2268 C2267 1.502 . S
C2269 H2255 0.960 . S
C2269 H2256 0.961 . S
C2269 H2257 0.959 . S
C2269 C2267 1.561 . S
C2270 C2267 1.526 . S
C2270 C2271 1.396 . S
C2270 C2275 1.390 . S
C2271 C2265 1.465 . S
C2271 C2270 1.396 . S
C2271 C2272 1.399 . S
C2272 H2258 0.929 . S
C2272 C2271 1.399 . S
C2272 C2273 1.385 . S
C2273 H2259 0.931 . S
C2273 C2272 1.385 . S
C2273 C2274 1.389 . S
C2274 C2273 1.389 . S
C2274 C2275 1.387 . S
C2275 H2260 0.930 . S
C2275 C2270 1.390 . S
C2275 C2274 1.387 . S
H2276 C2288 0.930 . S
H2277 C2290 0.930 . S
H2278 C2291 0.930 . S
H2279 C2295 0.959 . S
H2280 C2295 0.959 . S
H2281 C2295 0.961 . S
H2282 C2296 0.960 . S
H2283 C2296 0.961 . S
H2284 C2296 0.959 . S
H2285 C2299 0.929 . S
H2286 C2300 0.931 . S
H2287 C2302 0.930 . S
C2288 H2276 0.930 . S
C2288 C2289 1.399 . S
C2288 C2293 1.399 . S
C2289 C2288 1.399 . S
C2289 C2290 1.376 . S
C2290 H2277 0.930 . S
C2290 C2289 1.376 . S
C2290 C2291 1.388 . S
C2291 H2278 0.930 . S
C2291 C2290 1.388 . S
C2291 C2292 1.390 . S
C2292 C2291 1.390 . S
C2292 C2293 1.394 . S
C2292 C2298 1.465 . S
C2293 C2288 1.399 . S
C2293 C2292 1.394 . S
C2293 C2294 1.516 . S
C2294 C2293 1.516 . S
C2294 C2295 1.502 . S
C2294 C2296 1.561 . S
C2294 C2297 1.526 . S
C2295 H2279 0.959 . S
C2295 H2280 0.959 . S
C2295 H2281 0.961 . S
C2295 C2294 1.502 . S
C2296 H2282 0.960 . S
C2296 H2283 0.961 . S
C2296 H2284 0.959 . S
C2296 C2294 1.561 . S
C2297 C2294 1.526 . S
C2297 C2298 1.396 . S
C2297 C2302 1.390 . S
C2298 C2292 1.465 . S
C2298 C2297 1.396 . S
C2298 C2299 1.399 . S
C2299 H2285 0.929 . S
C2299 C2298 1.399 . S
C2299 C2300 1.385 . S
C2300 H2286 0.931 . S
C2300 C2299 1.385 . S
C2300 C2301 1.389 . S
C2301 C2300 1.389 . S
C2301 C2302 1.387 . S
C2302 H2287 0.930 . S
C2302 C2297 1.390 . S
C2302 C2301 1.387 . S
H2303 C2315 0.930 . S
H2304 C2317 0.930 . S
H2305 C2318 0.930 . S
H2306 C2322 0.959 . S
H2307 C2322 0.959 . S
H2308 C2322 0.961 . S
H2309 C2323 0.960 . S
H2310 C2323 0.961 . S
H2311 C2323 0.959 . S
H2312 C2326 0.929 . S
H2313 C2327 0.931 . S
H2314 C2329 0.930 . S
C2315 H2303 0.930 . S
C2315 C2316 1.399 . S
C2315 C2320 1.399 . S
C2316 C2315 1.399 . S
C2316 C2317 1.376 . S
C2317 H2304 0.930 . S
C2317 C2316 1.376 . S
C2317 C2318 1.388 . S
C2318 H2305 0.930 . S
C2318 C2317 1.388 . S
C2318 C2319 1.390 . S
C2319 C2318 1.390 . S
C2319 C2320 1.394 . S
C2319 C2325 1.465 . S
C2320 C2315 1.399 . S
C2320 C2319 1.394 . S
C2320 C2321 1.516 . S
C2321 C2320 1.516 . S
C2321 C2322 1.502 . S
C2321 C2323 1.561 . S
C2321 C2324 1.526 . S
C2322 H2306 0.959 . S
C2322 H2307 0.959 . S
C2322 H2308 0.961 . S
C2322 C2321 1.502 . S
C2323 H2309 0.960 . S
C2323 H2310 0.961 . S
C2323 H2311 0.959 . S
C2323 C2321 1.561 . S
C2324 C2321 1.526 . S
C2324 C2325 1.396 . S
C2324 C2329 1.390 . S
C2325 C2319 1.465 . S
C2325 C2324 1.396 . S
C2325 C2326 1.399 . S
C2326 H2312 0.929 . S
C2326 C2325 1.399 . S
C2326 C2327 1.385 . S
C2327 H2313 0.931 . S
C2327 C2326 1.385 . S
C2327 C2328 1.389 . S
C2328 C2327 1.389 . S
C2328 C2329 1.387 . S
C2329 H2314 0.930 . S
C2329 C2324 1.390 . S
C2329 C2328 1.387 . S
H2330 C2342 0.930 . S
H2331 C2344 0.930 . S
H2332 C2345 0.930 . S
H2333 C2349 0.959 . S
H2334 C2349 0.959 . S
H2335 C2349 0.961 . S
H2336 C2350 0.960 . S
H2337 C2350 0.961 . S
H2338 C2350 0.959 . S
H2339 C2353 0.929 . S
H2340 C2354 0.931 . S
H2341 C2356 0.930 . S
C2342 H2330 0.930 . S
C2342 C2343 1.399 . S
C2342 C2347 1.399 . S
C2343 C2342 1.399 . S
C2343 C2344 1.376 . S
C2344 H2331 0.930 . S
C2344 C2343 1.376 . S
C2344 C2345 1.388 . S
C2345 H2332 0.930 . S
C2345 C2344 1.388 . S
C2345 C2346 1.390 . S
C2346 C2345 1.390 . S
C2346 C2347 1.394 . S
C2346 C2352 1.465 . S
C2347 C2342 1.399 . S
C2347 C2346 1.394 . S
C2347 C2348 1.516 . S
C2348 C2347 1.516 . S
C2348 C2349 1.502 . S
C2348 C2350 1.561 . S
C2348 C2351 1.526 . S
C2349 H2333 0.959 . S
C2349 H2334 0.959 . S
C2349 H2335 0.961 . S
C2349 C2348 1.502 . S
C2350 H2336 0.960 . S
C2350 H2337 0.961 . S
C2350 H2338 0.959 . S
C2350 C2348 1.561 . S
C2351 C2348 1.526 . S
C2351 C2352 1.396 . S
C2351 C2356 1.390 . S
C2352 C2346 1.465 . S
C2352 C2351 1.396 . S
C2352 C2353 1.399 . S
C2353 H2339 0.929 . S
C2353 C2352 1.399 . S
C2353 C2354 1.385 . S
C2354 H2340 0.931 . S
C2354 C2353 1.385 . S
C2354 C2355 1.389 . S
C2355 C2354 1.389 . S
C2355 C2356 1.387 . S
C2356 H2341 0.930 . S
C2356 C2351 1.390 . S
C2356 C2355 1.387 . S
H2357 C2369 0.930 . S
H2358 C2371 0.930 . S
H2359 C2372 0.930 . S
H2360 C2376 0.959 . S
H2361 C2376 0.959 . S
H2362 C2376 0.961 . S
H2363 C2377 0.960 1_655 S
H2364 C2377 0.961 . S
H2365 C2377 0.959 . S
H2366 C2380 0.929 . S
H2367 C2381 0.931 . S
H2368 C2383 0.930 . S
C2369 H2357 0.930 . S
C2369 C2370 1.399 . S
C2369 C2374 1.399 . S
C2370 C2369 1.399 . S
C2370 C2371 1.376 . S
C2371 H2358 0.930 . S
C2371 C2370 1.376 . S
C2371 C2372 1.388 . S
C2372 H2359 0.930 . S
C2372 C2371 1.388 . S
C2372 C2373 1.390 1_655 S
C2373 C2372 1.390 1_455 S
C2373 C2374 1.394 1_455 S
C2373 C2379 1.465 . S
C2374 C2369 1.399 . S
C2374 C2373 1.394 1_655 S
C2374 C2375 1.516 1_655 S
C2375 C2374 1.516 1_455 S
C2375 C2376 1.502 . S
C2375 C2377 1.561 . S
C2375 C2378 1.526 . S
C2376 H2360 0.959 . S
C2376 H2361 0.959 . S
C2376 H2362 0.961 . S
C2376 C2375 1.502 . S
C2377 H2363 0.960 1_455 S
C2377 H2364 0.961 . S
C2377 H2365 0.959 . S
C2377 C2375 1.561 . S
C2378 C2375 1.526 . S
C2378 C2379 1.396 . S
C2378 C2383 1.390 . S
C2379 C2373 1.465 . S
C2379 C2378 1.396 . S
C2379 C2380 1.399 . S
C2380 H2366 0.929 . S
C2380 C2379 1.399 . S
C2380 C2381 1.385 . S
C2381 H2367 0.931 . S
C2381 C2380 1.385 . S
C2381 C2382 1.389 . S
C2382 C2381 1.389 . S
C2382 C2383 1.387 . S
C2383 H2368 0.930 . S
C2383 C2378 1.390 . S
C2383 C2382 1.387 . S
H2384 C2396 0.930 1_545 S
H2385 C2398 0.930 . S
H2386 C2399 0.930 . S
H2387 C2403 0.959 . S
H2388 C2403 0.959 . S
H2389 C2403 0.961 . S
H2390 C2404 0.960 . S
H2391 C2404 0.961 . S
H2392 C2404 0.959 . S
H2393 C2407 0.929 . S
H2394 C2408 0.931 . S
H2395 C2410 0.930 . S
C2396 H2384 0.930 1_565 S
C2396 C2397 1.399 . S
C2396 C2401 1.399 1_565 S
C2397 C2396 1.399 . S
C2397 C2398 1.376 . S
C2398 H2385 0.930 . S
C2398 C2397 1.376 . S
C2398 C2399 1.388 . S
C2399 H2386 0.930 . S
C2399 C2398 1.388 . S
C2399 C2400 1.390 . S
C2400 C2399 1.390 . S
C2400 C2401 1.394 1_565 S
C2400 C2406 1.465 . S
C2401 C2396 1.399 1_545 S
C2401 C2400 1.394 1_545 S
C2401 C2402 1.516 . S
C2402 C2401 1.516 . S
C2402 C2403 1.502 . S
C2402 C2404 1.561 . S
C2402 C2405 1.526 . S
C2403 H2387 0.959 . S
C2403 H2388 0.959 . S
C2403 H2389 0.961 . S
C2403 C2402 1.502 . S
C2404 H2390 0.960 . S
C2404 H2391 0.961 . S
C2404 H2392 0.959 . S
C2404 C2402 1.561 . S
C2405 C2402 1.526 . S
C2405 C2406 1.396 1_545 S
C2405 C2410 1.390 . S
C2406 C2400 1.465 . S
C2406 C2405 1.396 1_565 S
C2406 C2407 1.399 . S
C2407 H2393 0.929 . S
C2407 C2406 1.399 . S
C2407 C2408 1.385 . S
C2408 H2394 0.931 . S
C2408 C2407 1.385 . S
C2408 C2409 1.389 1_565 S
C2409 C2408 1.389 1_545 S
C2409 C2410 1.387 . S
C2410 H2395 0.930 . S
C2410 C2405 1.390 . S
C2410 C2409 1.387 . S
H2411 C2423 0.930 . S
H2412 C2425 0.930 1_565 S
H2413 C2426 0.930 . S
H2414 C2430 0.959 . S
H2415 C2430 0.959 . S
H2416 C2430 0.961 . S
H2417 C2431 0.960 . S
H2418 C2431 0.961 . S
H2419 C2431 0.959 . S
H2420 C2434 0.929 . S
H2421 C2435 0.931 1_565 S
H2422 C2437 0.930 . S
C2423 H2411 0.930 . S
C2423 C2424 1.399 . S
C2423 C2428 1.399 . S
C2424 C2423 1.399 . S
C2424 C2425 1.376 . S
C2425 H2412 0.930 1_545 S
C2425 C2424 1.376 . S
C2425 C2426 1.388 1_545 S
C2426 H2413 0.930 . S
C2426 C2425 1.388 1_565 S
C2426 C2427 1.390 1_565 S
C2427 C2426 1.390 1_545 S
C2427 C2428 1.394 . S
C2427 C2433 1.465 . S
C2428 C2423 1.399 . S
C2428 C2427 1.394 . S
C2428 C2429 1.516 . S
C2429 C2428 1.516 . S
C2429 C2430 1.502 . S
C2429 C2431 1.561 . S
C2429 C2432 1.526 . S
C2430 H2414 0.959 . S
C2430 H2415 0.959 . S
C2430 H2416 0.961 . S
C2430 C2429 1.502 . S
C2431 H2417 0.960 . S
C2431 H2418 0.961 . S
C2431 H2419 0.959 . S
C2431 C2429 1.561 . S
C2432 C2429 1.526 . S
C2432 C2433 1.396 . S
C2432 C2437 1.390 . S
C2433 C2427 1.465 . S
C2433 C2432 1.396 . S
C2433 C2434 1.399 1_545 S
C2434 H2420 0.929 . S
C2434 C2433 1.399 1_565 S
C2434 C2435 1.385 1_565 S
C2435 H2421 0.931 1_545 S
C2435 C2434 1.385 1_545 S
C2435 C2436 1.389 . S
C2436 C2435 1.389 . S
C2436 C2437 1.387 . S
C2437 H2422 0.930 . S
C2437 C2432 1.390 . S
C2437 C2436 1.387 . S
H2438 C2450 0.930 . S
H2439 C2452 0.930 . S
H2440 C2453 0.930 . S
H2441 C2457 0.959 . S
H2442 C2457 0.959 . S
H2443 C2457 0.961 . S
H2444 C2458 0.960 . S
H2445 C2458 0.961 . S
H2446 C2458 0.959 . S
H2447 C2461 0.929 . S
H2448 C2462 0.931 . S
H2449 C2464 0.930 1_565 S
C2450 H2438 0.930 . S
C2450 C2451 1.399 . S
C2450 C2455 1.399 . S
C2451 C2450 1.399 . S
C2451 C2452 1.376 1_565 S
C2452 H2439 0.930 . S
C2452 C2451 1.376 1_545 S
C2452 C2453 1.388 . S
C2453 H2440 0.930 . S
C2453 C2452 1.388 . S
C2453 C2454 1.390 . S
C2454 C2453 1.390 . S
C2454 C2455 1.394 1_545 S
C2454 C2460 1.465 . S
C2455 C2450 1.399 . S
C2455 C2454 1.394 1_565 S
C2455 C2456 1.516 . S
C2456 C2455 1.516 . S
C2456 C2457 1.502 . S
C2456 C2458 1.561 . S
C2456 C2459 1.526 . S
C2457 H2441 0.959 . S
C2457 H2442 0.959 . S
C2457 H2443 0.961 . S
C2457 C2456 1.502 . S
C2458 H2444 0.960 . S
C2458 H2445 0.961 . S
C2458 H2446 0.959 . S
C2458 C2456 1.561 . S
C2459 C2456 1.526 . S
C2459 C2460 1.396 1_565 S
C2459 C2464 1.390 1_565 S
C2460 C2454 1.465 . S
C2460 C2459 1.396 1_545 S
C2460 C2461 1.399 . S
C2461 H2447 0.929 . S
C2461 C2460 1.399 . S
C2461 C2462 1.385 . S
C2462 H2448 0.931 . S
C2462 C2461 1.385 . S
C2462 C2463 1.389 . S
C2463 C2462 1.389 . S
C2463 C2464 1.387 . S
C2464 H2449 0.930 1_545 S
C2464 C2459 1.390 1_545 S
C2464 C2463 1.387 . S
H2465 C2477 0.930 . S
H2466 C2479 0.930 1_545 S
H2467 C2480 0.912 1_545 S
H2468 C2484 0.959 . S
H2469 C2484 1.004 . S
H2470 C2484 0.961 . S
H2471 C2485 0.935 1_554 S
H2472 C2485 0.979 . S
H2473 C2485 0.971 . S
H2474 C2488 0.940 . S
H2475 C2489 0.931 1_545 S
H2476 C2491 0.930 . S
C2477 H2465 0.930 . S
C2477 C2478 1.399 . S
C2477 C2482 1.399 . S
C2478 C2477 1.399 . S
C2478 C2479 1.376 . S
C2479 H2466 0.930 1_565 S
C2479 C2478 1.376 . S
C2479 C2480 1.392 . S
C2480 H2467 0.912 1_565 S
C2480 C2479 1.392 . S
C2480 C2481 1.405 . S
C2481 C2480 1.405 . S
C2481 C2482 1.394 . S
C2481 C2487 1.465 1_554 S
C2482 C2477 1.399 . S
C2482 C2481 1.394 . S
C2482 C2483 1.516 . S
C2483 C2482 1.516 . S
C2483 C2484 1.502 . S
C2483 C2485 1.556 1_554 S
C2483 C2486 1.526 1_554 S
C2484 H2468 0.959 . S
C2484 H2469 1.004 . S
C2484 H2470 0.961 . S
C2484 C2483 1.502 . S
C2485 H2471 0.935 1_556 S
C2485 H2472 0.979 . S
C2485 H2473 0.971 . S
C2485 C2483 1.556 1_556 S
C2486 C2483 1.526 1_556 S
C2486 C2487 1.396 . S
C2486 C2491 1.390 . S
C2487 C2481 1.465 1_556 S
C2487 C2486 1.396 . S
C2487 C2488 1.390 1_565 S
C2488 H2474 0.940 . S
C2488 C2487 1.390 1_545 S
C2488 C2489 1.383 1_545 S
C2489 H2475 0.931 1_565 S
C2489 C2488 1.383 1_565 S
C2489 C2490 1.389 . S
C2490 C2489 1.389 . S
C2490 C2491 1.387 . S
C2491 H2476 0.930 . S
C2491 C2486 1.390 . S
C2491 C2490 1.387 . S
H2492 C2504 0.930 . S
H2493 C2506 0.930 . S
H2494 C2507 0.930 . S
H2495 C2511 0.959 . S
H2496 C2511 0.959 . S
H2497 C2511 0.961 . S
H2498 C2512 0.960 . S
H2499 C2512 0.961 . S
H2500 C2512 0.959 . S
H2501 C2515 0.929 . S
H2502 C2516 0.931 . S
H2503 C2518 0.930 1_545 S
C2504 H2492 0.930 . S
C2504 C2505 1.399 . S
C2504 C2509 1.399 . S
C2505 C2504 1.399 . S
C2505 C2506 1.376 1_545 S
C2506 H2493 0.930 . S
C2506 C2505 1.376 1_565 S
C2506 C2507 1.388 . S
C2507 H2494 0.930 . S
C2507 C2506 1.388 . S
C2507 C2508 1.390 . S
C2508 C2507 1.390 . S
C2508 C2509 1.394 1_565 S
C2508 C2514 1.465 . S
C2509 C2504 1.399 . S
C2509 C2508 1.394 1_545 S
C2509 C2510 1.516 . S
C2510 C2509 1.516 . S
C2510 C2511 1.502 . S
C2510 C2512 1.561 . S
C2510 C2513 1.526 . S
C2511 H2495 0.959 . S
C2511 H2496 0.959 . S
C2511 H2497 0.961 . S
C2511 C2510 1.502 . S
C2512 H2498 0.960 . S
C2512 H2499 0.961 . S
C2512 H2500 0.959 . S
C2512 C2510 1.561 . S
C2513 C2510 1.526 . S
C2513 C2514 1.396 1_545 S
C2513 C2518 1.390 1_545 S
C2514 C2508 1.465 . S
C2514 C2513 1.396 1_565 S
C2514 C2515 1.399 . S
C2515 H2501 0.929 . S
C2515 C2514 1.399 . S
C2515 C2516 1.385 . S
C2516 H2502 0.931 . S
C2516 C2515 1.385 . S
C2516 C2517 1.389 . S
C2517 C2516 1.389 . S
C2517 C2518 1.387 . S
C2518 H2503 0.930 1_565 S
C2518 C2513 1.390 1_565 S
C2518 C2517 1.387 . S
H2519 C2531 0.930 . S
H2520 C2533 0.930 1_545 S
H2521 C2534 0.930 . S
H2522 C2538 0.959 . S
H2523 C2538 0.959 . S
H2524 C2538 0.961 . S
H2525 C2539 0.960 . S
H2526 C2539 0.961 . S
H2527 C2539 0.959 . S
H2528 C2542 0.929 . S
H2529 C2543 0.931 1_545 S
H2530 C2545 0.930 . S
C2531 H2519 0.930 . S
C2531 C2532 1.399 . S
C2531 C2536 1.399 . S
C2532 C2531 1.399 . S
C2532 C2533 1.376 . S
C2533 H2520 0.930 1_565 S
C2533 C2532 1.376 . S
C2533 C2534 1.388 1_565 S
C2534 H2521 0.930 . S
C2534 C2533 1.388 1_545 S
C2534 C2535 1.390 1_545 S
C2535 C2534 1.390 1_565 S
C2535 C2536 1.394 . S
C2535 C2541 1.465 . S
C2536 C2531 1.399 . S
C2536 C2535 1.394 . S
C2536 C2537 1.516 . S
C2537 C2536 1.516 . S
C2537 C2538 1.502 . S
C2537 C2539 1.561 . S
C2537 C2540 1.526 . S
C2538 H2522 0.959 . S
C2538 H2523 0.959 . S
C2538 H2524 0.961 . S
C2538 C2537 1.502 . S
C2539 H2525 0.960 . S
C2539 H2526 0.961 . S
C2539 H2527 0.959 . S
C2539 C2537 1.561 . S
C2540 C2537 1.526 . S
C2540 C2541 1.396 . S
C2540 C2545 1.390 . S
C2541 C2535 1.465 . S
C2541 C2540 1.396 . S
C2541 C2542 1.399 1_565 S
C2542 H2528 0.929 . S
C2542 C2541 1.399 1_545 S
C2542 C2543 1.385 1_545 S
C2543 H2529 0.931 1_565 S
C2543 C2542 1.385 1_565 S
C2543 C2544 1.389 . S
C2544 C2543 1.389 . S
C2544 C2545 1.387 . S
C2545 H2530 0.930 . S
C2545 C2540 1.390 . S
C2545 C2544 1.387 . S
H2546 C2558 0.929 . S
H2547 C2560 0.930 . S
H2548 C2561 0.930 . S
H2549 C2565 0.959 . S
H2550 C2565 0.959 . S
H2551 C2565 0.961 . S
H2552 C2566 0.960 . S
H2553 C2566 0.961 . S
H2554 C2566 0.959 . S
H2555 C2569 0.929 . S
H2556 C2570 0.931 . S
H2557 C2572 0.930 . S
C2558 H2546 0.929 . S
C2558 C2559 1.400 1_565 S
C2558 C2563 1.399 . S
C2559 C2558 1.400 1_545 S
C2559 C2560 1.376 . S
C2560 H2547 0.930 . S
C2560 C2559 1.376 . S
C2560 C2561 1.388 . S
C2561 H2548 0.930 . S
C2561 C2560 1.388 . S
C2561 C2562 1.390 . S
C2562 C2561 1.390 . S
C2562 C2563 1.394 1_545 S
C2562 C2568 1.465 . S
C2563 C2558 1.399 . S
C2563 C2562 1.394 1_565 S
C2563 C2564 1.516 . S
C2564 C2563 1.516 . S
C2564 C2565 1.502 . S
C2564 C2566 1.561 . S
C2564 C2567 1.526 . S
C2565 H2549 0.959 . S
C2565 H2550 0.959 . S
C2565 H2551 0.961 . S
C2565 C2564 1.502 . S
C2566 H2552 0.960 . S
C2566 H2553 0.961 . S
C2566 H2554 0.959 . S
C2566 C2564 1.561 . S
C2567 C2564 1.526 . S
C2567 C2568 1.396 1_565 S
C2567 C2572 1.390 . S
C2568 C2562 1.465 . S
C2568 C2567 1.396 1_545 S
C2568 C2569 1.399 . S
C2569 H2555 0.929 . S
C2569 C2568 1.399 . S
C2569 C2570 1.385 . S
C2570 H2556 0.931 . S
C2570 C2569 1.385 . S
C2570 C2571 1.389 1_545 S
C2571 C2570 1.389 1_565 S
C2571 C2572 1.387 . S
C2572 H2557 0.930 . S
C2572 C2567 1.390 . S
C2572 C2571 1.387 . S
H2573 C2585 0.930 . S
H2574 C2587 0.930 1_565 S
H2575 C2588 0.930 . S
H2576 C2592 0.959 . S
H2577 C2592 0.959 . S
H2578 C2592 0.960 1_554 S
H2579 C2593 1.070 . S
H2580 C2593 0.853 1_556 S
H2581 C2593 1.002 . S
H2582 C2596 0.929 . S
H2583 C2597 0.931 1_565 S
H2584 C2599 0.930 . S
C2585 H2573 0.930 . S
C2585 C2586 1.399 . S
C2585 C2590 1.399 . S
C2586 C2585 1.399 . S
C2586 C2587 1.376 . S
C2587 H2574 0.930 1_545 S
C2587 C2586 1.376 . S
C2587 C2588 1.388 1_545 S
C2588 H2575 0.930 . S
C2588 C2587 1.388 1_565 S
C2588 C2589 1.390 1_565 S
C2589 C2588 1.390 1_545 S
C2589 C2590 1.394 . S
C2589 C2595 1.465 1_554 S
C2590 C2585 1.399 . S
C2590 C2589 1.394 . S
C2590 C2591 1.516 1_554 S
C2591 C2590 1.516 1_556 S
C2591 C2592 1.502 . S
C2591 C2593 1.538 1_556 S
C2591 C2594 1.526 . S
C2592 H2576 0.959 . S
C2592 H2577 0.959 . S
C2592 H2578 0.960 1_556 S
C2592 C2591 1.502 . S
C2593 H2579 1.070 . S
C2593 H2580 0.853 1_554 S
C2593 H2581 1.002 . S
C2593 C2591 1.538 1_554 S
C2594 C2591 1.526 . S
C2594 C2595 1.396 . S
C2594 C2599 1.390 . S
C2595 C2589 1.465 1_556 S
C2595 C2594 1.396 . S
C2595 C2596 1.399 1_545 S
C2596 H2582 0.929 . S
C2596 C2595 1.399 1_565 S
C2596 C2597 1.385 1_565 S
C2597 H2583 0.931 1_545 S
C2597 C2596 1.385 1_545 S
C2597 C2598 1.389 . S
C2598 C2597 1.389 . S
C2598 C2599 1.387 . S
C2599 H2584 0.930 . S
C2599 C2594 1.390 . S
C2599 C2598 1.387 . S
H2600 C2612 0.930 . S
H2601 C2614 0.930 . S
H2602 C2615 0.930 . S
H2603 C2619 0.959 . S
H2604 C2619 0.959 . S
H2605 C2619 0.961 . S
H2606 C2620 0.960 . S
H2607 C2620 0.961 . S
H2608 C2620 0.959 . S
H2609 C2623 0.929 . S
H2610 C2624 0.931 . S
H2611 C2626 0.930 . S
C2612 H2600 0.930 . S
C2612 C2613 1.399 . S
C2612 C2617 1.399 . S
C2613 C2612 1.399 . S
C2613 C2614 1.376 . S
C2614 H2601 0.930 . S
C2614 C2613 1.376 . S
C2614 C2615 1.388 . S
C2615 H2602 0.930 . S
C2615 C2614 1.388 . S
C2615 C2616 1.390 . S
C2616 C2615 1.390 . S
C2616 C2617 1.394 . S
C2616 C2622 1.465 . S
C2617 C2612 1.399 . S
C2617 C2616 1.394 . S
C2617 C2618 1.516 . S
C2618 C2617 1.516 . S
C2618 C2619 1.502 . S
C2618 C2620 1.561 . S
C2618 C2621 1.526 . S
C2619 H2603 0.959 . S
C2619 H2604 0.959 . S
C2619 H2605 0.961 . S
C2619 C2618 1.502 . S
C2620 H2606 0.960 . S
C2620 H2607 0.961 . S
C2620 H2608 0.959 . S
C2620 C2618 1.561 . S
C2621 C2618 1.526 . S
C2621 C2622 1.396 . S
C2621 C2626 1.390 . S
C2622 C2616 1.465 . S
C2622 C2621 1.396 . S
C2622 C2623 1.399 . S
C2623 H2609 0.929 . S
C2623 C2622 1.399 . S
C2623 C2624 1.385 . S
C2624 H2610 0.931 . S
C2624 C2623 1.385 . S
C2624 C2625 1.389 . S
C2625 C2624 1.389 . S
C2625 C2626 1.387 . S
C2626 H2611 0.930 . S
C2626 C2621 1.390 . S
C2626 C2625 1.387 . S
H2627 C2639 0.930 . S
H2628 C2641 0.930 . S
H2629 C2642 0.930 . S
H2630 C2646 0.959 . S
H2631 C2646 0.959 . S
H2632 C2646 0.889 1_554 S
H2633 C2647 0.960 . S
H2634 C2647 0.961 1_556 S
H2635 C2647 0.959 . S
H2636 C2650 0.929 . S
H2637 C2651 0.931 . S
H2638 C2653 0.930 . S
C2639 H2627 0.930 . S
C2639 C2640 1.399 . S
C2639 C2644 1.399 . S
C2640 C2639 1.399 . S
C2640 C2641 1.376 . S
C2641 H2628 0.930 . S
C2641 C2640 1.376 . S
C2641 C2642 1.388 . S
C2642 H2629 0.930 . S
C2642 C2641 1.388 . S
C2642 C2643 1.390 . S
C2643 C2642 1.390 . S
C2643 C2644 1.394 . S
C2643 C2649 1.465 1_554 S
C2644 C2639 1.399 . S
C2644 C2643 1.394 . S
C2644 C2645 1.440 1_554 S
C2645 C2644 1.440 1_556 S
C2645 C2646 1.537 . S
C2645 C2647 1.541 1_556 S
C2645 C2648 1.595 . S
C2646 H2630 0.959 . S
C2646 H2631 0.959 . S
C2646 H2632 0.889 1_556 S
C2646 C2645 1.537 . S
C2647 H2633 0.960 . S
C2647 H2634 0.961 1_554 S
C2647 H2635 0.959 . S
C2647 C2645 1.541 1_554 S
C2648 C2645 1.595 . S
C2648 C2649 1.396 . S
C2648 C2653 1.390 . S
C2649 C2643 1.465 1_556 S
C2649 C2648 1.396 . S
C2649 C2650 1.399 . S
C2650 H2636 0.929 . S
C2650 C2649 1.399 . S
C2650 C2651 1.385 . S
C2651 H2637 0.931 . S
C2651 C2650 1.385 . S
C2651 C2652 1.389 . S
C2652 C2651 1.389 . S
C2652 C2653 1.387 . S
C2653 H2638 0.930 . S
C2653 C2648 1.390 . S
C2653 C2652 1.387 . S
H2654 C2666 0.930 . S
H2655 C2668 0.930 . S
H2656 C2669 0.930 . S
H2657 C2673 0.959 . S
H2658 C2673 0.959 . S
H2659 C2673 0.961 . S
H2660 C2674 0.960 . S
H2661 C2674 0.961 . S
H2662 C2674 0.959 . S
H2663 C2677 0.929 . S
H2664 C2678 0.931 . S
H2665 C2680 0.930 . S
C2666 H2654 0.930 . S
C2666 C2667 1.399 . S
C2666 C2671 1.399 . S
C2667 C2666 1.399 . S
C2667 C2668 1.376 . S
C2668 H2655 0.930 . S
C2668 C2667 1.376 . S
C2668 C2669 1.388 . S
C2669 H2656 0.930 . S
C2669 C2668 1.388 . S
C2669 C2670 1.390 . S
C2670 C2669 1.390 . S
C2670 C2671 1.394 . S
C2670 C2676 1.465 . S
C2671 C2666 1.399 . S
C2671 C2670 1.394 . S
C2671 C2672 1.516 . S
C2672 C2671 1.516 . S
C2672 C2673 1.502 . S
C2672 C2674 1.561 . S
C2672 C2675 1.526 . S
C2673 H2657 0.959 . S
C2673 H2658 0.959 . S
C2673 H2659 0.961 . S
C2673 C2672 1.502 . S
C2674 H2660 0.960 . S
C2674 H2661 0.961 . S
C2674 H2662 0.959 . S
C2674 C2672 1.561 . S
C2675 C2672 1.526 . S
C2675 C2676 1.396 . S
C2675 C2680 1.390 . S
C2676 C2670 1.465 . S
C2676 C2675 1.396 . S
C2676 C2677 1.399 . S
C2677 H2663 0.929 . S
C2677 C2676 1.399 . S
C2677 C2678 1.385 . S
C2678 H2664 0.931 . S
C2678 C2677 1.385 . S
C2678 C2679 1.389 . S
C2679 C2678 1.389 . S
C2679 C2680 1.387 . S
C2680 H2665 0.930 . S
C2680 C2675 1.390 . S
C2680 C2679 1.387 . S
H2681 C2693 0.930 . S
H2682 C2695 0.930 . S
H2683 C2696 0.930 . S
H2684 C2700 0.959 . S
H2685 C2700 0.959 . S
H2686 C2700 0.961 . S
H2687 C2701 0.960 . S
H2688 C2701 0.961 . S
H2689 C2701 0.959 . S
H2690 C2704 0.929 . S
H2691 C2705 0.931 . S
H2692 C2707 0.930 . S
C2693 H2681 0.930 . S
C2693 C2694 1.399 . S
C2693 C2698 1.399 . S
C2694 C2693 1.399 . S
C2694 C2695 1.376 . S
C2695 H2682 0.930 . S
C2695 C2694 1.376 . S
C2695 C2696 1.388 . S
C2696 H2683 0.930 . S
C2696 C2695 1.388 . S
C2696 C2697 1.390 . S
C2697 C2696 1.390 . S
C2697 C2698 1.394 . S
C2697 C2703 1.465 . S
C2698 C2693 1.399 . S
C2698 C2697 1.394 . S
C2698 C2699 1.516 . S
C2699 C2698 1.516 . S
C2699 C2700 1.502 . S
C2699 C2701 1.561 . S
C2699 C2702 1.526 . S
C2700 H2684 0.959 . S
C2700 H2685 0.959 . S
C2700 H2686 0.961 . S
C2700 C2699 1.502 . S
C2701 H2687 0.960 . S
C2701 H2688 0.961 . S
C2701 H2689 0.959 . S
C2701 C2699 1.561 . S
C2702 C2699 1.526 . S
C2702 C2703 1.396 . S
C2702 C2707 1.390 . S
C2703 C2697 1.465 . S
C2703 C2702 1.396 . S
C2703 C2704 1.399 . S
C2704 H2690 0.929 . S
C2704 C2703 1.399 . S
C2704 C2705 1.385 . S
C2705 H2691 0.931 . S
C2705 C2704 1.385 . S
C2705 C2706 1.389 . S
C2706 C2705 1.389 . S
C2706 C2707 1.387 . S
C2707 H2692 0.930 . S
C2707 C2702 1.390 . S
C2707 C2706 1.387 . S
H2708 C2720 0.930 . S
H2709 C2722 0.930 . S
H2710 C2723 0.930 . S
H2711 C2727 0.959 . S
H2712 C2727 0.959 . S
H2713 C2727 0.961 . S
H2714 C2728 0.960 . S
H2715 C2728 0.961 . S
H2716 C2728 0.959 . S
H2717 C2731 0.929 . S
H2718 C2732 0.931 . S
H2719 C2734 0.930 . S
C2720 H2708 0.930 . S
C2720 C2721 1.399 . S
C2720 C2725 1.399 . S
C2721 C2720 1.399 . S
C2721 C2722 1.376 . S
C2722 H2709 0.930 . S
C2722 C2721 1.376 . S
C2722 C2723 1.388 . S
C2723 H2710 0.930 . S
C2723 C2722 1.388 . S
C2723 C2724 1.390 . S
C2724 C2723 1.390 . S
C2724 C2725 1.394 . S
C2724 C2730 1.465 . S
C2725 C2720 1.399 . S
C2725 C2724 1.394 . S
C2725 C2726 1.516 . S
C2726 C2725 1.516 . S
C2726 C2727 1.502 . S
C2726 C2728 1.561 . S
C2726 C2729 1.526 . S
C2727 H2711 0.959 . S
C2727 H2712 0.959 . S
C2727 H2713 0.961 . S
C2727 C2726 1.502 . S
C2728 H2714 0.960 . S
C2728 H2715 0.961 . S
C2728 H2716 0.959 . S
C2728 C2726 1.561 . S
C2729 C2726 1.526 . S
C2729 C2730 1.396 . S
C2729 C2734 1.390 . S
C2730 C2724 1.465 . S
C2730 C2729 1.396 . S
C2730 C2731 1.399 . S
C2731 H2717 0.929 . S
C2731 C2730 1.399 . S
C2731 C2732 1.385 . S
C2732 H2718 0.931 . S
C2732 C2731 1.385 . S
C2732 C2733 1.389 . S
C2733 C2732 1.389 . S
C2733 C2734 1.387 . S
C2734 H2719 0.930 . S
C2734 C2729 1.390 . S
C2734 C2733 1.387 . S
H2735 C2747 0.930 . S
H2736 C2749 0.930 . S
H2737 C2750 0.930 . S
H2738 C2754 0.959 . S
H2739 C2754 0.959 . S
H2740 C2754 0.961 1_556 S
H2741 C2755 0.960 . S
H2742 C2755 0.961 1_554 S
H2743 C2755 0.959 . S
H2744 C2758 0.929 . S
H2745 C2759 0.931 . S
H2746 C2761 0.930 . S
C2747 H2735 0.930 . S
C2747 C2748 1.399 . S
C2747 C2752 1.399 . S
C2748 C2747 1.399 . S
C2748 C2749 1.376 . S
C2749 H2736 0.930 . S
C2749 C2748 1.376 . S
C2749 C2750 1.388 . S
C2750 H2737 0.930 . S
C2750 C2749 1.388 . S
C2750 C2751 1.390 . S
C2751 C2750 1.390 . S
C2751 C2752 1.394 . S
C2751 C2757 1.465 1_556 S
C2752 C2747 1.399 . S
C2752 C2751 1.394 . S
C2752 C2753 1.460 1_556 S
C2753 C2752 1.460 1_554 S
C2753 C2754 1.527 . S
C2753 C2755 1.544 1_554 S
C2753 C2756 1.577 . S
C2754 H2738 0.959 . S
C2754 H2739 0.959 . S
C2754 H2740 0.961 1_554 S
C2754 C2753 1.527 . S
C2755 H2741 0.960 . S
C2755 H2742 0.961 1_556 S
C2755 H2743 0.959 . S
C2755 C2753 1.544 1_556 S
C2756 C2753 1.577 . S
C2756 C2757 1.396 . S
C2756 C2761 1.390 . S
C2757 C2751 1.465 1_554 S
C2757 C2756 1.396 . S
C2757 C2758 1.399 . S
C2758 H2744 0.929 . S
C2758 C2757 1.399 . S
C2758 C2759 1.385 . S
C2759 H2745 0.931 . S
C2759 C2758 1.385 . S
C2759 C2760 1.389 . S
C2760 C2759 1.389 . S
C2760 C2761 1.387 . S
C2761 H2746 0.930 . S
C2761 C2756 1.390 . S
C2761 C2760 1.387 . S
H2762 C2774 0.930 . S
H2763 C2776 0.930 . S
H2764 C2777 0.930 . S
H2765 C2781 0.959 . S
H2766 C2781 0.959 . S
H2767 C2781 0.961 . S
H2768 C2782 0.960 . S
H2769 C2782 0.961 . S
H2770 C2782 0.959 . S
H2771 C2785 0.929 . S
H2772 C2786 0.931 . S
H2773 C2788 0.930 . S
C2774 H2762 0.930 . S
C2774 C2775 1.399 . S
C2774 C2779 1.399 . S
C2775 C2774 1.399 . S
C2775 C2776 1.376 . S
C2776 H2763 0.930 . S
C2776 C2775 1.376 . S
C2776 C2777 1.388 . S
C2777 H2764 0.930 . S
C2777 C2776 1.388 . S
C2777 C2778 1.390 . S
C2778 C2777 1.390 . S
C2778 C2779 1.394 . S
C2778 C2784 1.465 . S
C2779 C2774 1.399 . S
C2779 C2778 1.394 . S
C2779 C2780 1.516 . S
C2780 C2779 1.516 . S
C2780 C2781 1.502 . S
C2780 C2782 1.561 . S
C2780 C2783 1.526 . S
C2781 H2765 0.959 . S
C2781 H2766 0.959 . S
C2781 H2767 0.961 . S
C2781 C2780 1.502 . S
C2782 H2768 0.960 . S
C2782 H2769 0.961 . S
C2782 H2770 0.959 . S
C2782 C2780 1.561 . S
C2783 C2780 1.526 . S
C2783 C2784 1.396 . S
C2783 C2788 1.390 . S
C2784 C2778 1.465 . S
C2784 C2783 1.396 . S
C2784 C2785 1.399 . S
C2785 H2771 0.929 . S
C2785 C2784 1.399 . S
C2785 C2786 1.385 . S
C2786 H2772 0.931 . S
C2786 C2785 1.385 . S
C2786 C2787 1.389 . S
C2787 C2786 1.389 . S
C2787 C2788 1.387 . S
C2788 H2773 0.930 . S
C2788 C2783 1.390 . S
C2788 C2787 1.387 . S
H2789 C2801 0.930 . S
H2790 C2803 0.930 . S
H2791 C2804 0.930 . S
H2792 C2808 0.959 . S
H2793 C2808 0.959 . S
H2794 C2808 0.961 . S
H2795 C2809 0.960 . S
H2796 C2809 0.961 . S
H2797 C2809 0.959 . S
H2798 C2812 0.929 . S
H2799 C2813 0.931 . S
H2800 C2815 0.930 . S
C2801 H2789 0.930 . S
C2801 C2802 1.399 . S
C2801 C2806 1.399 . S
C2802 C2801 1.399 . S
C2802 C2803 1.376 . S
C2803 H2790 0.930 . S
C2803 C2802 1.376 . S
C2803 C2804 1.388 . S
C2804 H2791 0.930 . S
C2804 C2803 1.388 . S
C2804 C2805 1.390 . S
C2805 C2804 1.390 . S
C2805 C2806 1.394 . S
C2805 C2811 1.465 . S
C2806 C2801 1.399 . S
C2806 C2805 1.394 . S
C2806 C2807 1.516 . S
C2807 C2806 1.516 . S
C2807 C2808 1.502 . S
C2807 C2809 1.561 . S
C2807 C2810 1.526 . S
C2808 H2792 0.959 . S
C2808 H2793 0.959 . S
C2808 H2794 0.961 . S
C2808 C2807 1.502 . S
C2809 H2795 0.960 . S
C2809 H2796 0.961 . S
C2809 H2797 0.959 . S
C2809 C2807 1.561 . S
C2810 C2807 1.526 . S
C2810 C2811 1.396 . S
C2810 C2815 1.390 . S
C2811 C2805 1.465 . S
C2811 C2810 1.396 . S
C2811 C2812 1.399 . S
C2812 H2798 0.929 . S
C2812 C2811 1.399 . S
C2812 C2813 1.385 . S
C2813 H2799 0.931 . S
C2813 C2812 1.385 . S
C2813 C2814 1.389 . S
C2814 C2813 1.389 . S
C2814 C2815 1.387 . S
C2815 H2800 0.930 . S
C2815 C2810 1.390 . S
C2815 C2814 1.387 . S
H2816 C2828 0.930 . S
H2817 C2830 0.930 . S
H2818 C2831 0.930 . S
H2819 C2835 0.959 . S
H2820 C2835 0.959 . S
H2821 C2835 0.961 . S
H2822 C2836 0.960 . S
H2823 C2836 0.961 . S
H2824 C2836 0.959 . S
H2825 C2839 0.929 . S
H2826 C2840 0.931 . S
H2827 C2842 0.930 . S
C2828 H2816 0.930 . S
C2828 C2829 1.399 . S
C2828 C2833 1.399 . S
C2829 C2828 1.399 . S
C2829 C2830 1.376 . S
C2830 H2817 0.930 . S
C2830 C2829 1.376 . S
C2830 C2831 1.388 . S
C2831 H2818 0.930 . S
C2831 C2830 1.388 . S
C2831 C2832 1.390 . S
C2832 C2831 1.390 . S
C2832 C2833 1.394 . S
C2832 C2838 1.465 . S
C2833 C2828 1.399 . S
C2833 C2832 1.394 . S
C2833 C2834 1.516 . S
C2834 C2833 1.516 . S
C2834 C2835 1.502 . S
C2834 C2836 1.561 . S
C2834 C2837 1.526 . S
C2835 H2819 0.959 . S
C2835 H2820 0.959 . S
C2835 H2821 0.961 . S
C2835 C2834 1.502 . S
C2836 H2822 0.960 . S
C2836 H2823 0.961 . S
C2836 H2824 0.959 . S
C2836 C2834 1.561 . S
C2837 C2834 1.526 . S
C2837 C2838 1.396 . S
C2837 C2842 1.390 . S
C2838 C2832 1.465 . S
C2838 C2837 1.396 . S
C2838 C2839 1.399 . S
C2839 H2825 0.929 . S
C2839 C2838 1.399 . S
C2839 C2840 1.385 . S
C2840 H2826 0.931 . S
C2840 C2839 1.385 . S
C2840 C2841 1.389 . S
C2841 C2840 1.389 . S
C2841 C2842 1.387 . S
C2842 H2827 0.930 . S
C2842 C2837 1.390 . S
C2842 C2841 1.387 . S
H2843 C2855 0.930 . S
H2844 C2857 0.930 . S
H2845 C2858 0.930 . S
H2846 C2862 0.959 . S
H2847 C2862 0.959 . S
H2848 C2862 0.961 . S
H2849 C2863 0.960 . S
H2850 C2863 0.961 1_655 S
H2851 C2863 0.959 . S
H2852 C2866 0.929 . S
H2853 C2867 0.931 . S
H2854 C2869 0.930 . S
C2855 H2843 0.930 . S
C2855 C2856 1.399 . S
C2855 C2860 1.399 . S
C2856 C2855 1.399 . S
C2856 C2857 1.376 . S
C2857 H2844 0.930 . S
C2857 C2856 1.376 . S
C2857 C2858 1.388 . S
C2858 H2845 0.930 . S
C2858 C2857 1.388 . S
C2858 C2859 1.390 . S
C2859 C2858 1.390 . S
C2859 C2860 1.394 . S
C2859 C2865 1.465 1_455 S
C2860 C2855 1.399 . S
C2860 C2859 1.394 . S
C2860 C2861 1.516 1_455 S
C2861 C2860 1.516 1_655 S
C2861 C2862 1.502 . S
C2861 C2863 1.561 1_655 S
C2861 C2864 1.526 . S
C2862 H2846 0.959 . S
C2862 H2847 0.959 . S
C2862 H2848 0.961 . S
C2862 C2861 1.502 . S
C2863 H2849 0.960 . S
C2863 H2850 0.961 1_455 S
C2863 H2851 0.959 . S
C2863 C2861 1.561 1_455 S
C2864 C2861 1.526 . S
C2864 C2865 1.396 . S
C2864 C2869 1.390 . S
C2865 C2859 1.465 1_655 S
C2865 C2864 1.396 . S
C2865 C2866 1.399 . S
C2866 H2852 0.929 . S
C2866 C2865 1.399 . S
C2866 C2867 1.385 . S
C2867 H2853 0.931 . S
C2867 C2866 1.385 . S
C2867 C2868 1.389 . S
C2868 C2867 1.389 . S
C2868 C2869 1.387 . S
C2869 H2854 0.930 . S
C2869 C2864 1.390 . S
C2869 C2868 1.387 . S
H2870 C2882 0.930 1_455 S
H2871 C2884 0.930 . S
H2872 C2885 0.930 . S
H2873 C2889 0.959 . S
H2874 C2889 0.959 . S
H2875 C2889 0.961 . S
H2876 C2890 0.960 . S
H2877 C2890 0.961 . S
H2878 C2890 0.959 . S
H2879 C2893 0.929 . S
H2880 C2894 0.931 1_655 S
H2881 C2896 0.930 . S
C2882 H2870 0.930 1_655 S
C2882 C2883 1.399 . S
C2882 C2887 1.399 1_655 S
C2883 C2882 1.399 . S
C2883 C2884 1.376 . S
C2884 H2871 0.930 . S
C2884 C2883 1.376 . S
C2884 C2885 1.388 . S
C2885 H2872 0.930 . S
C2885 C2884 1.388 . S
C2885 C2886 1.390 . S
C2886 C2885 1.390 . S
C2886 C2887 1.394 1_655 S
C2886 C2892 1.465 . S
C2887 C2882 1.399 1_455 S
C2887 C2886 1.394 1_455 S
C2887 C2888 1.516 . S
C2888 C2887 1.516 . S
C2888 C2889 1.502 . S
C2888 C2890 1.561 . S
C2888 C2891 1.526 . S
C2889 H2873 0.959 . S
C2889 H2874 0.959 . S
C2889 H2875 0.961 . S
C2889 C2888 1.502 . S
C2890 H2876 0.960 . S
C2890 H2877 0.961 . S
C2890 H2878 0.959 . S
C2890 C2888 1.561 . S
C2891 C2888 1.526 . S
C2891 C2892 1.396 1_455 S
C2891 C2896 1.390 . S
C2892 C2886 1.465 . S
C2892 C2891 1.396 1_655 S
C2892 C2893 1.399 . S
C2893 H2879 0.929 . S
C2893 C2892 1.399 . S
C2893 C2894 1.385 1_655 S
C2894 H2880 0.931 1_455 S
C2894 C2893 1.385 1_455 S
C2894 C2895 1.389 . S
C2895 C2894 1.389 . S
C2895 C2896 1.387 . S
C2896 H2881 0.930 . S
C2896 C2891 1.390 . S
C2896 C2895 1.387 . S
H2897 C2909 0.930 . S
H2898 C2911 0.930 . S
H2899 C2912 0.930 . S
H2900 C2916 0.959 . S
H2901 C2916 0.959 . S
H2902 C2916 0.961 . S
H2903 C2917 0.960 . S
H2904 C2917 0.961 . S
H2905 C2917 0.959 . S
H2906 C2920 0.929 . S
H2907 C2921 0.931 . S
H2908 C2923 0.930 . S
C2909 H2897 0.930 . S
C2909 C2910 1.399 . S
C2909 C2914 1.399 . S
C2910 C2909 1.399 . S
C2910 C2911 1.376 . S
C2911 H2898 0.930 . S
C2911 C2910 1.376 . S
C2911 C2912 1.388 . S
C2912 H2899 0.930 . S
C2912 C2911 1.388 . S
C2912 C2913 1.390 . S
C2913 C2912 1.390 . S
C2913 C2914 1.394 . S
C2913 C2919 1.465 . S
C2914 C2909 1.399 . S
C2914 C2913 1.394 . S
C2914 C2915 1.516 . S
C2915 C2914 1.516 . S
C2915 C2916 1.502 . S
C2915 C2917 1.561 . S
C2915 C2918 1.526 . S
C2916 H2900 0.959 . S
C2916 H2901 0.959 . S
C2916 H2902 0.961 . S
C2916 C2915 1.502 . S
C2917 H2903 0.960 . S
C2917 H2904 0.961 . S
C2917 H2905 0.959 . S
C2917 C2915 1.561 . S
C2918 C2915 1.526 . S
C2918 C2919 1.396 . S
C2918 C2923 1.390 . S
C2919 C2913 1.465 . S
C2919 C2918 1.396 . S
C2919 C2920 1.399 . S
C2920 H2906 0.929 . S
C2920 C2919 1.399 . S
C2920 C2921 1.385 . S
C2921 H2907 0.931 . S
C2921 C2920 1.385 . S
C2921 C2922 1.389 . S
C2922 C2921 1.389 . S
C2922 C2923 1.387 . S
C2923 H2908 0.930 . S
C2923 C2918 1.390 . S
C2923 C2922 1.387 . S
H2924 C2936 0.930 . S
H2925 C2938 0.930 . S
H2926 C2939 0.930 . S
H2927 C2943 0.959 . S
H2928 C2943 0.959 . S
H2929 C2943 0.961 . S
H2930 C2944 0.960 . S
H2931 C2944 0.961 . S
H2932 C2944 0.959 . S
H2933 C2947 0.929 . S
H2934 C2948 0.931 . S
H2935 C2950 0.930 . S
C2936 H2924 0.930 . S
C2936 C2937 1.399 . S
C2936 C2941 1.399 . S
C2937 C2936 1.399 . S
C2937 C2938 1.376 . S
C2938 H2925 0.930 . S
C2938 C2937 1.376 . S
C2938 C2939 1.388 . S
C2939 H2926 0.930 . S
C2939 C2938 1.388 . S
C2939 C2940 1.390 . S
C2940 C2939 1.390 . S
C2940 C2941 1.394 . S
C2940 C2946 1.465 . S
C2941 C2936 1.399 . S
C2941 C2940 1.394 . S
C2941 C2942 1.516 . S
C2942 C2941 1.516 . S
C2942 C2943 1.502 . S
C2942 C2944 1.561 . S
C2942 C2945 1.526 . S
C2943 H2927 0.959 . S
C2943 H2928 0.959 . S
C2943 H2929 0.961 . S
C2943 C2942 1.502 . S
C2944 H2930 0.960 . S
C2944 H2931 0.961 . S
C2944 H2932 0.959 . S
C2944 C2942 1.561 . S
C2945 C2942 1.526 . S
C2945 C2946 1.396 . S
C2945 C2950 1.390 . S
C2946 C2940 1.465 . S
C2946 C2945 1.396 . S
C2946 C2947 1.399 . S
C2947 H2933 0.929 . S
C2947 C2946 1.399 . S
C2947 C2948 1.385 . S
C2948 H2934 0.931 . S
C2948 C2947 1.385 . S
C2948 C2949 1.389 . S
C2949 C2948 1.389 . S
C2949 C2950 1.387 . S
C2950 H2935 0.930 . S
C2950 C2945 1.390 . S
C2950 C2949 1.387 . S
H2951 C2963 0.930 . S
H2952 C2965 0.930 . S
H2953 C2966 0.930 . S
H2954 C2970 0.959 . S
H2955 C2970 0.959 . S
H2956 C2970 0.961 . S
H2957 C2971 0.960 . S
H2958 C2971 0.961 . S
H2959 C2971 0.959 . S
H2960 C2974 0.929 . S
H2961 C2975 0.931 . S
H2962 C2977 0.930 . S
C2963 H2951 0.930 . S
C2963 C2964 1.399 . S
C2963 C2968 1.399 . S
C2964 C2963 1.399 . S
C2964 C2965 1.376 . S
C2965 H2952 0.930 . S
C2965 C2964 1.376 . S
C2965 C2966 1.388 . S
C2966 H2953 0.930 . S
C2966 C2965 1.388 . S
C2966 C2967 1.390 . S
C2967 C2966 1.390 . S
C2967 C2968 1.394 . S
C2967 C2973 1.465 . S
C2968 C2963 1.399 . S
C2968 C2967 1.394 . S
C2968 C2969 1.516 . S
C2969 C2968 1.516 . S
C2969 C2970 1.502 . S
C2969 C2971 1.561 . S
C2969 C2972 1.526 . S
C2970 H2954 0.959 . S
C2970 H2955 0.959 . S
C2970 H2956 0.961 . S
C2970 C2969 1.502 . S
C2971 H2957 0.960 . S
C2971 H2958 0.961 . S
C2971 H2959 0.959 . S
C2971 C2969 1.561 . S
C2972 C2969 1.526 . S
C2972 C2973 1.396 . S
C2972 C2977 1.390 . S
C2973 C2967 1.465 . S
C2973 C2972 1.396 . S
C2973 C2974 1.399 . S
C2974 H2960 0.929 . S
C2974 C2973 1.399 . S
C2974 C2975 1.385 . S
C2975 H2961 0.931 . S
C2975 C2974 1.385 . S
C2975 C2976 1.389 . S
C2976 C2975 1.389 . S
C2976 C2977 1.387 . S
C2977 H2962 0.930 . S
C2977 C2972 1.390 . S
C2977 C2976 1.387 . S
H2978 C2990 0.930 . S
H2979 C2992 0.930 . S
H2980 C2993 0.930 1_455 S
H2981 C2997 0.959 . S
H2982 C2997 0.959 . S
H2983 C2997 0.961 . S
H2984 C2998 0.960 . S
H2985 C2998 0.961 . S
H2986 C2998 0.959 . S
H2987 C3001 0.929 . S
H2988 C3002 0.931 . S
H2989 C3004 0.930 . S
C2990 H2978 0.930 . S
C2990 C2991 1.399 . S
C2990 C2995 1.399 . S
C2991 C2990 1.399 . S
C2991 C2992 1.376 . S
C2992 H2979 0.930 . S
C2992 C2991 1.376 . S
C2992 C2993 1.388 . S
C2993 H2980 0.930 1_655 S
C2993 C2992 1.388 . S
C2993 C2994 1.390 1_655 S
C2994 C2993 1.390 1_455 S
C2994 C2995 1.393 1_455 S
C2994 C3000 1.466 . S
C2995 C2990 1.399 . S
C2995 C2994 1.393 1_655 S
C2995 C2996 1.516 . S
C2996 C2995 1.516 . S
C2996 C2997 1.502 . S
C2996 C2998 1.561 1_655 S
C2996 C2999 1.526 1_655 S
C2997 H2981 0.959 . S
C2997 H2982 0.959 . S
C2997 H2983 0.961 . S
C2997 C2996 1.502 . S
C2998 H2984 0.960 . S
C2998 H2985 0.961 . S
C2998 H2986 0.959 . S
C2998 C2996 1.561 1_455 S
C2999 C2996 1.526 1_455 S
C2999 C3000 1.396 . S
C2999 C3004 1.390 . S
C3000 C2994 1.466 . S
C3000 C2999 1.396 . S
C3000 C3001 1.399 . S
C3001 H2987 0.929 . S
C3001 C3000 1.399 . S
C3001 C3002 1.385 . S
C3002 H2988 0.931 . S
C3002 C3001 1.385 . S
C3002 C3003 1.389 . S
C3003 C3002 1.389 . S
C3003 C3004 1.387 . S
C3004 H2989 0.930 . S
C3004 C2999 1.390 . S
C3004 C3003 1.387 . S
H3005 C3017 0.930 . S
H3006 C3019 0.930 . S
H3007 C3020 0.930 . S
H3008 C3024 0.959 . S
H3009 C3024 0.959 . S
H3010 C3024 0.961 1_455 S
H3011 C3025 0.960 . S
H3012 C3025 0.961 . S
H3013 C3025 0.959 . S
H3014 C3028 0.929 . S
H3015 C3029 0.931 . S
H3016 C3031 0.930 . S
C3017 H3005 0.930 . S
C3017 C3018 1.399 . S
C3017 C3022 1.399 . S
C3018 C3017 1.399 . S
C3018 C3019 1.376 . S
C3019 H3006 0.930 . S
C3019 C3018 1.376 . S
C3019 C3020 1.388 . S
C3020 H3007 0.930 . S
C3020 C3019 1.388 . S
C3020 C3021 1.390 . S
C3021 C3020 1.390 . S
C3021 C3022 1.394 . S
C3021 C3027 1.465 1_455 S
C3022 C3017 1.399 . S
C3022 C3021 1.394 . S
C3022 C3023 1.516 . S
C3023 C3022 1.516 . S
C3023 C3024 1.502 1_455 S
C3023 C3025 1.561 . S
C3023 C3026 1.526 1_455 S
C3024 H3008 0.959 . S
C3024 H3009 0.959 . S
C3024 H3010 0.961 1_655 S
C3024 C3023 1.502 1_655 S
C3025 H3011 0.960 . S
C3025 H3012 0.961 . S
C3025 H3013 0.959 . S
C3025 C3023 1.561 . S
C3026 C3023 1.526 1_655 S
C3026 C3027 1.396 . S
C3026 C3031 1.390 . S
C3027 C3021 1.465 1_655 S
C3027 C3026 1.396 . S
C3027 C3028 1.399 . S
C3028 H3014 0.929 . S
C3028 C3027 1.399 . S
C3028 C3029 1.385 . S
C3029 H3015 0.931 . S
C3029 C3028 1.385 . S
C3029 C3030 1.389 . S
C3030 C3029 1.389 . S
C3030 C3031 1.387 . S
C3031 H3016 0.930 . S
C3031 C3026 1.390 . S
C3031 C3030 1.387 . S
H3032 C3044 0.930 . S
H3033 C3046 0.930 . S
H3034 C3047 0.930 . S
H3035 C3051 0.959 . S
H3036 C3051 0.959 . S
H3037 C3051 0.961 . S
H3038 C3052 0.960 . S
H3039 C3052 0.961 . S
H3040 C3052 0.959 . S
H3041 C3055 0.929 . S
H3042 C3056 0.931 . S
H3043 C3058 0.930 . S
C3044 H3032 0.930 . S
C3044 C3045 1.399 . S
C3044 C3049 1.399 . S
C3045 C3044 1.399 . S
C3045 C3046 1.376 . S
C3046 H3033 0.930 . S
C3046 C3045 1.376 . S
C3046 C3047 1.388 . S
C3047 H3034 0.930 . S
C3047 C3046 1.388 . S
C3047 C3048 1.390 . S
C3048 C3047 1.390 . S
C3048 C3049 1.394 . S
C3048 C3054 1.465 . S
C3049 C3044 1.399 . S
C3049 C3048 1.394 . S
C3049 C3050 1.516 . S
C3050 C3049 1.516 . S
C3050 C3051 1.502 . S
C3050 C3052 1.561 . S
C3050 C3053 1.526 . S
C3051 H3035 0.959 . S
C3051 H3036 0.959 . S
C3051 H3037 0.961 . S
C3051 C3050 1.502 . S
C3052 H3038 0.960 . S
C3052 H3039 0.961 . S
C3052 H3040 0.959 . S
C3052 C3050 1.561 . S
C3053 C3050 1.526 . S
C3053 C3054 1.396 . S
C3053 C3058 1.390 . S
C3054 C3048 1.465 . S
C3054 C3053 1.396 . S
C3054 C3055 1.399 . S
C3055 H3041 0.929 . S
C3055 C3054 1.399 . S
C3055 C3056 1.385 . S
C3056 H3042 0.931 . S
C3056 C3055 1.385 . S
C3056 C3057 1.389 . S
C3057 C3056 1.389 . S
C3057 C3058 1.387 . S
C3058 H3043 0.930 . S
C3058 C3053 1.390 . S
C3058 C3057 1.387 . S
H3059 C3071 0.930 . S
H3060 C3073 0.930 . S
H3061 C3074 0.930 . S
H3062 C3078 0.959 . S
H3063 C3078 0.959 . S
H3064 C3078 0.961 . S
H3065 C3079 0.960 1_455 S
H3066 C3079 0.961 . S
H3067 C3079 0.959 . S
H3068 C3082 0.929 . S
H3069 C3083 0.931 . S
H3070 C3085 0.930 . S
C3071 H3059 0.930 . S
C3071 C3072 1.399 . S
C3071 C3076 1.399 . S
C3072 C3071 1.399 . S
C3072 C3073 1.376 . S
C3073 H3060 0.930 . S
C3073 C3072 1.376 . S
C3073 C3074 1.388 . S
C3074 H3061 0.930 . S
C3074 C3073 1.388 . S
C3074 C3075 1.390 . S
C3075 C3074 1.390 . S
C3075 C3076 1.394 . S
C3075 C3081 1.465 1_455 S
C3076 C3071 1.399 . S
C3076 C3075 1.394 . S
C3076 C3077 1.516 . S
C3077 C3076 1.516 . S
C3077 C3078 1.502 . S
C3077 C3079 1.561 1_455 S
C3077 C3080 1.526 1_455 S
C3078 H3062 0.959 . S
C3078 H3063 0.959 . S
C3078 H3064 0.961 . S
C3078 C3077 1.502 . S
C3079 H3065 0.960 1_655 S
C3079 H3066 0.961 . S
C3079 H3067 0.959 . S
C3079 C3077 1.561 1_655 S
C3080 C3077 1.526 1_655 S
C3080 C3081 1.396 . S
C3080 C3085 1.390 . S
C3081 C3075 1.465 1_655 S
C3081 C3080 1.396 . S
C3081 C3082 1.399 . S
C3082 H3068 0.929 . S
C3082 C3081 1.399 . S
C3082 C3083 1.385 . S
C3083 H3069 0.931 . S
C3083 C3082 1.385 . S
C3083 C3084 1.389 . S
C3084 C3083 1.389 . S
C3084 C3085 1.387 . S
C3085 H3070 0.930 . S
C3085 C3080 1.390 . S
C3085 C3084 1.387 . S
H3086 C3098 0.930 . S
H3087 C3100 0.930 . S
H3088 C3101 0.930 1_655 S
H3089 C3105 0.959 . S
H3090 C3105 0.959 . S
H3091 C3105 0.961 . S
H3092 C3106 0.960 . S
H3093 C3106 0.961 . S
H3094 C3106 0.959 . S
H3095 C3109 0.929 . S
H3096 C3110 0.931 . S
H3097 C3112 0.930 . S
C3098 H3086 0.930 . S
C3098 C3099 1.399 . S
C3098 C3103 1.399 . S
C3099 C3098 1.399 . S
C3099 C3100 1.376 . S
C3100 H3087 0.930 . S
C3100 C3099 1.376 . S
C3100 C3101 1.388 . S
C3101 H3088 0.930 1_455 S
C3101 C3100 1.388 . S
C3101 C3102 1.390 1_455 S
C3102 C3101 1.390 1_655 S
C3102 C3103 1.391 1_655 S
C3102 C3108 1.467 . S
C3103 C3098 1.399 . S
C3103 C3102 1.391 1_455 S
C3103 C3104 1.516 . S
C3104 C3103 1.516 . S
C3104 C3105 1.502 . S
C3104 C3106 1.561 1_455 S
C3104 C3107 1.526 1_455 S
C3105 H3089 0.959 . S
C3105 H3090 0.959 . S
C3105 H3091 0.961 . S
C3105 C3104 1.502 . S
C3106 H3092 0.960 . S
C3106 H3093 0.961 . S
C3106 H3094 0.959 . S
C3106 C3104 1.561 1_655 S
C3107 C3104 1.526 1_655 S
C3107 C3108 1.396 . S
C3107 C3112 1.390 . S
C3108 C3102 1.467 . S
C3108 C3107 1.396 . S
C3108 C3109 1.399 . S
C3109 H3095 0.929 . S
C3109 C3108 1.399 . S
C3109 C3110 1.385 . S
C3110 H3096 0.931 . S
C3110 C3109 1.385 . S
C3110 C3111 1.389 . S
C3111 C3110 1.389 . S
C3111 C3112 1.387 . S
C3112 H3097 0.930 . S
C3112 C3107 1.390 . S
C3112 C3111 1.387 . S
H3113 C3125 0.930 . S
H3114 C3127 0.930 . S
H3115 C3128 0.930 . S
H3116 C3132 0.959 . S
H3117 C3132 0.959 . S
H3118 C3132 0.961 . S
H3119 C3133 0.960 . S
H3120 C3133 0.961 . S
H3121 C3133 0.959 . S
H3122 C3136 0.929 . S
H3123 C3137 0.931 . S
H3124 C3139 0.930 . S
C3125 H3113 0.930 . S
C3125 C3126 1.399 . S
C3125 C3130 1.399 . S
C3126 C3125 1.399 . S
C3126 C3127 1.376 . S
C3127 H3114 0.930 . S
C3127 C3126 1.376 . S
C3127 C3128 1.388 . S
C3128 H3115 0.930 . S
C3128 C3127 1.388 . S
C3128 C3129 1.390 . S
C3129 C3128 1.390 . S
C3129 C3130 1.394 . S
C3129 C3135 1.465 . S
C3130 C3125 1.399 . S
C3130 C3129 1.394 . S
C3130 C3131 1.516 . S
C3131 C3130 1.516 . S
C3131 C3132 1.502 . S
C3131 C3133 1.561 . S
C3131 C3134 1.526 . S
C3132 H3116 0.959 . S
C3132 H3117 0.959 . S
C3132 H3118 0.961 . S
C3132 C3131 1.502 . S
C3133 H3119 0.960 . S
C3133 H3120 0.961 . S
C3133 H3121 0.959 . S
C3133 C3131 1.561 . S
C3134 C3131 1.526 . S
C3134 C3135 1.396 . S
C3134 C3139 1.390 . S
C3135 C3129 1.465 . S
C3135 C3134 1.396 . S
C3135 C3136 1.399 . S
C3136 H3122 0.929 . S
C3136 C3135 1.399 . S
C3136 C3137 1.385 . S
C3137 H3123 0.931 . S
C3137 C3136 1.385 . S
C3137 C3138 1.389 . S
C3138 C3137 1.389 . S
C3138 C3139 1.387 . S
C3139 H3124 0.930 . S
C3139 C3134 1.390 . S
C3139 C3138 1.387 . S
H3140 C3152 0.930 . S
H3141 C3154 0.930 . S
H3142 C3155 0.930 . S
H3143 C3159 0.959 . S
H3144 C3159 0.959 . S
H3145 C3159 0.961 . S
H3146 C3160 0.960 . S
H3147 C3160 0.961 . S
H3148 C3160 0.959 . S
H3149 C3163 0.929 . S
H3150 C3164 0.931 . S
H3151 C3166 0.930 . S
C3152 H3140 0.930 . S
C3152 C3153 1.399 . S
C3152 C3157 1.399 . S
C3153 C3152 1.399 . S
C3153 C3154 1.376 . S
C3154 H3141 0.930 . S
C3154 C3153 1.376 . S
C3154 C3155 1.388 . S
C3155 H3142 0.930 . S
C3155 C3154 1.388 . S
C3155 C3156 1.390 . S
C3156 C3155 1.390 . S
C3156 C3157 1.394 . S
C3156 C3162 1.465 . S
C3157 C3152 1.399 . S
C3157 C3156 1.394 . S
C3157 C3158 1.516 . S
C3158 C3157 1.516 . S
C3158 C3159 1.502 . S
C3158 C3160 1.561 . S
C3158 C3161 1.526 . S
C3159 H3143 0.959 . S
C3159 H3144 0.959 . S
C3159 H3145 0.961 . S
C3159 C3158 1.502 . S
C3160 H3146 0.960 . S
C3160 H3147 0.961 . S
C3160 H3148 0.959 . S
C3160 C3158 1.561 . S
C3161 C3158 1.526 . S
C3161 C3162 1.396 . S
C3161 C3166 1.390 . S
C3162 C3156 1.465 . S
C3162 C3161 1.396 . S
C3162 C3163 1.399 . S
C3163 H3149 0.929 . S
C3163 C3162 1.399 . S
C3163 C3164 1.385 . S
C3164 H3150 0.931 . S
C3164 C3163 1.385 . S
C3164 C3165 1.389 . S
C3165 C3164 1.389 . S
C3165 C3166 1.387 . S
C3166 H3151 0.930 . S
C3166 C3161 1.390 . S
C3166 C3165 1.387 . S
H3167 C3179 0.930 . S
H3168 C3181 0.930 . S
H3169 C3182 0.930 . S
H3170 C3186 0.959 . S
H3171 C3186 0.959 . S
H3172 C3186 0.961 . S
H3173 C3187 0.960 . S
H3174 C3187 0.961 . S
H3175 C3187 0.959 . S
H3176 C3190 0.929 . S
H3177 C3191 0.931 . S
H3178 C3193 0.930 . S
C3179 H3167 0.930 . S
C3179 C3180 1.399 . S
C3179 C3184 1.399 . S
C3180 C3179 1.399 . S
C3180 C3181 1.376 . S
C3181 H3168 0.930 . S
C3181 C3180 1.376 . S
C3181 C3182 1.388 . S
C3182 H3169 0.930 . S
C3182 C3181 1.388 . S
C3182 C3183 1.390 . S
C3183 C3182 1.390 . S
C3183 C3184 1.394 . S
C3183 C3189 1.465 . S
C3184 C3179 1.399 . S
C3184 C3183 1.394 . S
C3184 C3185 1.516 . S
C3185 C3184 1.516 . S
C3185 C3186 1.502 . S
C3185 C3187 1.561 . S
C3185 C3188 1.526 . S
C3186 H3170 0.959 . S
C3186 H3171 0.959 . S
C3186 H3172 0.961 . S
C3186 C3185 1.502 . S
C3187 H3173 0.960 . S
C3187 H3174 0.961 . S
C3187 H3175 0.959 . S
C3187 C3185 1.561 . S
C3188 C3185 1.526 . S
C3188 C3189 1.396 . S
C3188 C3193 1.390 . S
C3189 C3183 1.465 . S
C3189 C3188 1.396 . S
C3189 C3190 1.399 . S
C3190 H3176 0.929 . S
C3190 C3189 1.399 . S
C3190 C3191 1.385 . S
C3191 H3177 0.931 . S
C3191 C3190 1.385 . S
C3191 C3192 1.389 . S
C3192 C3191 1.389 . S
C3192 C3193 1.387 . S
C3193 H3178 0.930 . S
C3193 C3188 1.390 . S
C3193 C3192 1.387 . S
H3194 C3206 0.930 . S
H3195 C3208 0.930 . S
H3196 C3209 0.930 . S
H3197 C3213 0.959 . S
H3198 C3213 0.959 . S
H3199 C3213 0.961 . S
H3200 C3214 0.960 . S
H3201 C3214 0.961 . S
H3202 C3214 0.959 . S
H3203 C3217 0.929 1_655 S
H3204 C3218 0.931 . S
H3205 C3220 0.930 . S
C3206 H3194 0.930 . S
C3206 C3207 1.399 . S
C3206 C3211 1.399 . S
C3207 C3206 1.399 . S
C3207 C3208 1.376 . S
C3208 H3195 0.930 . S
C3208 C3207 1.376 . S
C3208 C3209 1.388 . S
C3209 H3196 0.930 . S
C3209 C3208 1.388 . S
C3209 C3210 1.390 . S
C3210 C3209 1.390 . S
C3210 C3211 1.394 . S
C3210 C3216 1.466 . S
C3211 C3206 1.399 . S
C3211 C3210 1.394 . S
C3211 C3212 1.516 1_655 S
C3212 C3211 1.516 1_455 S
C3212 C3213 1.502 . S
C3212 C3214 1.561 1_455 S
C3212 C3215 1.526 . S
C3213 H3197 0.959 . S
C3213 H3198 0.959 . S
C3213 H3199 0.961 . S
C3213 C3212 1.502 . S
C3214 H3200 0.960 . S
C3214 H3201 0.961 . S
C3214 H3202 0.959 . S
C3214 C3212 1.561 1_655 S
C3215 C3212 1.526 . S
C3215 C3216 1.395 1_455 S
C3215 C3220 1.390 . S
C3216 C3210 1.466 . S
C3216 C3215 1.395 1_655 S
C3216 C3217 1.399 1_655 S
C3217 H3203 0.929 1_455 S
C3217 C3216 1.399 1_455 S
C3217 C3218 1.385 . S
C3218 H3204 0.931 . S
C3218 C3217 1.385 . S
C3218 C3219 1.389 . S
C3219 C3218 1.389 . S
C3219 C3220 1.387 . S
C3220 H3205 0.930 . S
C3220 C3215 1.390 . S
C3220 C3219 1.387 . S
H3221 C3233 0.930 . S
H3222 C3235 0.930 . S
H3223 C3236 0.930 . S
H3224 C3240 0.959 . S
H3225 C3240 0.959 . S
H3226 C3240 0.961 . S
H3227 C3241 0.960 1_655 S
H3228 C3241 0.961 . S
H3229 C3241 0.959 . S
H3230 C3244 0.929 . S
H3231 C3245 0.931 . S
H3232 C3247 0.930 . S
C3233 H3221 0.930 . S
C3233 C3234 1.399 . S
C3233 C3238 1.399 . S
C3234 C3233 1.399 . S
C3234 C3235 1.376 . S
C3235 H3222 0.930 . S
C3235 C3234 1.376 . S
C3235 C3236 1.388 . S
C3236 H3223 0.930 . S
C3236 C3235 1.388 . S
C3236 C3237 1.390 . S
C3237 C3236 1.390 . S
C3237 C3238 1.394 . S
C3237 C3243 1.465 1_655 S
C3238 C3233 1.399 . S
C3238 C3237 1.394 . S
C3238 C3239 1.516 1_655 S
C3239 C3238 1.516 1_455 S
C3239 C3240 1.502 . S
C3239 C3241 1.561 . S
C3239 C3242 1.526 . S
C3240 H3224 0.959 . S
C3240 H3225 0.959 . S
C3240 H3226 0.961 . S
C3240 C3239 1.502 . S
C3241 H3227 0.960 1_455 S
C3241 H3228 0.961 . S
C3241 H3229 0.959 . S
C3241 C3239 1.561 . S
C3242 C3239 1.526 . S
C3242 C3243 1.396 . S
C3242 C3247 1.390 . S
C3243 C3237 1.465 1_455 S
C3243 C3242 1.396 . S
C3243 C3244 1.399 . S
C3244 H3230 0.929 . S
C3244 C3243 1.399 . S
C3244 C3245 1.385 . S
C3245 H3231 0.931 . S
C3245 C3244 1.385 . S
C3245 C3246 1.389 . S
C3246 C3245 1.389 . S
C3246 C3247 1.387 . S
C3247 H3232 0.930 . S
C3247 C3242 1.390 . S
C3247 C3246 1.387 . S
C1101 C9 1.541 . S
C1113 C247 1.547 . S
C1128 C43 1.492 . S
C1140 C145 1.521 . S
C1155 C77 1.467 . S
C1167 C179 1.472 . S
C1182 C213 1.545 . S
C1194 C111 1.545 . S
C1209 C519 1.536 . S
C1221 C281 1.541 . S
C1236 C417 1.513 . S
C1248 C315 1.470 . S
C1263 C451 1.495 . S
C1275 C349 1.467 . S
C1290 C485 1.532 . S
C1302 C383 1.482 . S
C1317 C553 1.545 . S
C1329 C791 1.545 . S
C1344 C689 1.476 . S
C1356 C587 1.467 . S
C1371 C723 1.486 . S
C1383 C621 1.515 . S
C1398 C655 1.488 . S
C1410 C757 1.517 . S
C1425 C825 1.525 . S
C1437 C1063 1.476 . S
C1452 C961 1.484 . S
C1464 C859 1.534 . S
C1479 C893 1.473 . S
C1491 C995 1.479 . S
C1506 C1029 1.479 . S
C1518 C927 1.529 . S
C1533 C954 0.653 . S
C1545 C20 0.670 . S
C1560 C54 0.667 . S
C1572 C444 0.662 . S
C1587 C1022 0.694 . S
C1599 C88 0.695 . S
C1614 C122 0.674 . S
C1626 C512 0.675 . S
C1641 C156 0.682 . S
C1653 C818 0.689 . S
C1668 C308 0.722 . S
C1680 C190 0.711 . S
C1695 C224 0.673 . S
C1707 C886 0.673 . S
C1722 C258 0.704 . S
C1734 C376 0.710 . S
C1749 C682 0.721 . S
C1761 C292 0.694 . S
C1776 C326 0.709 . S
C1788 C172 0.706 . S
C1803 C750 0.660 . S
C1815 C360 0.683 . S
C1830 C240 0.658 . S
C1842 C394 0.681 . S
C1857 C428 0.712 . S
C1869 C546 0.712 . S
C1884 C462 0.662 . S
C1896 C36 0.662 . S
C1911 C496 0.715 . S
C1923 C614 0.721 . S
C1938 C104 0.724 . S
C1950 C530 0.696 . S
C1965 C564 0.690 . S
C1977 C410 0.685 . S
C1992 C988 0.679 . S
C2004 C598 0.676 . S
C2019 C632 0.658 . S
C2031 C478 0.639 . S
C2046 C666 0.682 . S
C2058 C1056 0.688 . S
C2073 C700 0.707 . S
C2085 C274 0.714 . S
C2100 C852 0.733 . S
C2112 C734 0.710 . S
C2127 C768 0.705 . S
C2139 C342 0.711 . S
C2154 C802 0.680 . S
C2166 C920 0.685 . S
C2181 C138 0.680 . S
C2193 C836 0.670 . S
C2208 C716 0.667 . S
C2220 C870 0.664 . S
C2235 C206 0.653 . S
C2247 C904 0.677 . S
C2262 C784 0.678 . S
C2274 C938 0.694 . S
C2289 C972 0.717 . S
C2301 C2 0.726 . S
C2316 C580 0.678 . S
C2328 C1006 0.694 . S
C2343 C1040 0.711 . S
C2355 C70 0.711 . S
C2370 C648 0.726 . S
C2382 C1074 0.698 . S
C2397 C141 1.685 . S
C2409 C5 1.646 . S
C2424 C175 1.664 . S
C2436 C39 1.637 . S
C2451 C73 1.633 . S
C2463 C209 1.670 . S
C2478 C243 1.670 . S
C2490 C107 1.634 . S
C2505 C413 1.652 . S
C2517 C277 1.685 . S
C2532 C447 1.632 . S
C2544 C311 1.657 . S
C2559 C345 1.673 . S
C2571 C481 1.636 . S
C2586 C379 1.632 . S
C2598 C515 1.659 . S
C2613 C685 1.632 . S
C2625 C549 1.678 . S
C2640 C719 1.654 . S
C2652 C583 1.681 . S
C2667 C617 1.635 . S
C2679 C753 1.664 . S
C2694 C651 1.655 . S
C2706 C787 1.641 . S
C2721 C957 1.672 . S
C2733 C821 1.680 . S
C2748 C991 1.633 . S
C2760 C855 1.654 . S
C2775 C889 1.632 . S
C2787 C1025 1.666 . S
C2802 C923 1.633 . S
C2814 C1059 1.671 . S
C2829 C645 1.534 . S
C2841 C33 1.456 . S
C2856 C67 1.529 . S
C2868 C679 1.462 . S
C2883 C577 1.460 . S
C2895 C101 1.530 . S
C2910 C135 1.524 . S
C2922 C611 1.467 . S
C2937 C169 1.528 . S
C2949 C781 1.463 . S
C2964 C815 1.516 . S
C2976 C203 1.475 . S
C2991 C713 1.524 . S
C3003 C237 1.468 . S
C3018 C271 1.508 . S
C3030 C747 1.483 . S
C3045 C305 1.448 . S
C3057 C917 1.520 . S
C3072 C951 1.449 . S
C3084 C339 1.520 . S
C3099 C849 1.533 . S
C3111 C373 1.479 . S
C3126 C407 1.530 . S
C3138 C883 1.482 . S
C3153 C441 1.539 . S
C3165 C1053 1.469 . S
C3180 C1087 1.538 . S
C3192 C475 1.470 . S
C3207 C509 1.454 . S
C3219 C985 1.512 . S
C3234 C543 1.544 . S
C3246 C1019 1.454 . S
