# Generated by pormake.
# Topology zfv, (5)-cn, num edge types: 1
# Building blocks:
#     Node 0, Type 0, BuildingBlock: XOMCOT_clean_sbu_1, # of connection points: 5
#     Node 1, Type 0, BuildingBlock: XOMCOT_clean_sbu_1, # of connection points: 5
#     Node 2, Type 0, BuildingBlock: XOMCOT_clean_sbu_1, # of connection points: 5
#     Node 3, Type 0, BuildingBlock: XOMCOT_clean_sbu_1, # of connection points: 5
#     Node 4, Type 0, BuildingBlock: XOMCOT_clean_sbu_1, # of connection points: 5
#     Node 5, Type 0, BuildingBlock: XOMCOT_clean_sbu_1, # of connection points: 5
#     Node 6, Type 0, BuildingBlock: XOMCOT_clean_sbu_1, # of connection points: 5
#     Node 7, Type 0, BuildingBlock: XOMCOT_clean_sbu_1, # of connection points: 5
#     Node 8, Type 0, BuildingBlock: XOMCOT_clean_sbu_1, # of connection points: 5
#     Node 9, Type 0, BuildingBlock: XOMCOT_clean_sbu_1, # of connection points: 5
#     Node 10, Type 0, BuildingBlock: XOMCOT_clean_sbu_1, # of connection points: 5
#     Node 11, Type 0, BuildingBlock: XOMCOT_clean_sbu_1, # of connection points: 5
#     Node 12, Type 0, BuildingBlock: XOMCOT_clean_sbu_1, # of connection points: 5
#     Node 13, Type 0, BuildingBlock: XOMCOT_clean_sbu_1, # of connection points: 5
#     Node 14, Type 0, BuildingBlock: XOMCOT_clean_sbu_1, # of connection points: 5
#     Node 15, Type 0, BuildingBlock: XOMCOT_clean_sbu_1, # of connection points: 5
#     Edge 16, Type (0, 0), BuildingBlock: UVAHIK_clean_linker_0, # of connection points: 2
#     Edge 17, Type (0, 0), BuildingBlock: UVAHIK_clean_linker_0, # of connection points: 2
#     Edge 18, Type (0, 0), BuildingBlock: UVAHIK_clean_linker_0, # of connection points: 2
#     Edge 19, Type (0, 0), BuildingBlock: UVAHIK_clean_linker_0, # of connection points: 2
#     Edge 20, Type (0, 0), BuildingBlock: UVAHIK_clean_linker_0, # of connection points: 2
#     Edge 21, Type (0, 0), BuildingBlock: UVAHIK_clean_linker_0, # of connection points: 2
#     Edge 22, Type (0, 0), BuildingBlock: UVAHIK_clean_linker_0, # of connection points: 2
#     Edge 23, Type (0, 0), BuildingBlock: UVAHIK_clean_linker_0, # of connection points: 2
#     Edge 24, Type (0, 0), BuildingBlock: UVAHIK_clean_linker_0, # of connection points: 2
#     Edge 25, Type (0, 0), BuildingBlock: UVAHIK_clean_linker_0, # of connection points: 2
#     Edge 26, Type (0, 0), BuildingBlock: UVAHIK_clean_linker_0, # of connection points: 2
#     Edge 27, Type (0, 0), BuildingBlock: UVAHIK_clean_linker_0, # of connection points: 2
#     Edge 28, Type (0, 0), BuildingBlock: UVAHIK_clean_linker_0, # of connection points: 2
#     Edge 29, Type (0, 0), BuildingBlock: UVAHIK_clean_linker_0, # of connection points: 2
#     Edge 30, Type (0, 0), BuildingBlock: UVAHIK_clean_linker_0, # of connection points: 2
#     Edge 31, Type (0, 0), BuildingBlock: UVAHIK_clean_linker_0, # of connection points: 2
#     Edge 32, Type (0, 0), BuildingBlock: UVAHIK_clean_linker_0, # of connection points: 2
#     Edge 33, Type (0, 0), BuildingBlock: UVAHIK_clean_linker_0, # of connection points: 2
#     Edge 34, Type (0, 0), BuildingBlock: UVAHIK_clean_linker_0, # of connection points: 2
#     Edge 35, Type (0, 0), BuildingBlock: UVAHIK_clean_linker_0, # of connection points: 2
#     Edge 36, Type (0, 0), BuildingBlock: UVAHIK_clean_linker_0, # of connection points: 2
#     Edge 37, Type (0, 0), BuildingBlock: UVAHIK_clean_linker_0, # of connection points: 2
#     Edge 38, Type (0, 0), BuildingBlock: UVAHIK_clean_linker_0, # of connection points: 2
#     Edge 39, Type (0, 0), BuildingBlock: UVAHIK_clean_linker_0, # of connection points: 2
#     Edge 40, Type (0, 0), BuildingBlock: UVAHIK_clean_linker_0, # of connection points: 2
#     Edge 41, Type (0, 0), BuildingBlock: UVAHIK_clean_linker_0, # of connection points: 2
#     Edge 42, Type (0, 0), BuildingBlock: UVAHIK_clean_linker_0, # of connection points: 2
#     Edge 43, Type (0, 0), BuildingBlock: UVAHIK_clean_linker_0, # of connection points: 2
#     Edge 44, Type (0, 0), BuildingBlock: UVAHIK_clean_linker_0, # of connection points: 2
#     Edge 45, Type (0, 0), BuildingBlock: UVAHIK_clean_linker_0, # of connection points: 2
#     Edge 46, Type (0, 0), BuildingBlock: UVAHIK_clean_linker_0, # of connection points: 2
#     Edge 47, Type (0, 0), BuildingBlock: UVAHIK_clean_linker_0, # of connection points: 2
#     Edge 48, Type (0, 0), BuildingBlock: UVAHIK_clean_linker_0, # of connection points: 2
#     Edge 49, Type (0, 0), BuildingBlock: UVAHIK_clean_linker_0, # of connection points: 2
#     Edge 50, Type (0, 0), BuildingBlock: UVAHIK_clean_linker_0, # of connection points: 2
#     Edge 51, Type (0, 0), BuildingBlock: UVAHIK_clean_linker_0, # of connection points: 2
#     Edge 52, Type (0, 0), BuildingBlock: UVAHIK_clean_linker_0, # of connection points: 2
#     Edge 53, Type (0, 0), BuildingBlock: UVAHIK_clean_linker_0, # of connection points: 2
#     Edge 54, Type (0, 0), BuildingBlock: UVAHIK_clean_linker_0, # of connection points: 2
#     Edge 55, Type (0, 0), BuildingBlock: UVAHIK_clean_linker_0, # of connection points: 2
# Relax obj value: 0.104
# Max RMSD: 0.114
# Mean RMSD: 0.114
data_MOF--net-zfv--node1-XOMCOT_clean_sbu_1--edge1-UVAHIK_clean_linker_0
_symmetry_space_group_name_H-M    P1
_symmetry_Int_Tables_number       1
_symmetry_cell_setting            triclinic
loop_
_symmetry_equiv_pos_as_xyz
'x, y, z'
_cell_length_a     97.097696
_cell_length_b     97.054957
_cell_length_c     22.062867
_cell_angle_alpha  89.950379
_cell_angle_beta   90.040895
_cell_angle_gamma 89.986771
loop_
_atom_site_label
_atom_site_type_symbol
_atom_site_fract_x
_atom_site_fract_y
_atom_site_fract_z
_atom_type_partial_charge
C0 C 0.04687 0.58684 0.08647 0.0
C1 C 0.04482 0.58574 0.14795 0.0
N2 N 0.05619 0.59041 0.17641 0.0
N3 N 0.05944 0.5922 0.0762 0.0
C4 C 0.06493 0.5942 0.13175 0.0
H5 H 0.03964 0.58403 0.05128 0.0
Co6 Co 0.0664 0.59541 0.99947 0.0
C7 C 0.08576 0.61826 0.01227 0.0
O8 O 0.07933 0.62392 0.96602 0.0
N9 N 0.07365 0.59792 0.92026 0.0
C10 C 0.08946 0.59751 0.84695 0.0
C11 C 0.08731 0.5973 0.90829 0.0
C12 C 0.06773 0.59797 0.86456 0.0
N13 N 0.07713 0.59789 0.81934 0.0
O14 O 0.07718 0.57904 1.00666 0.0
H15 H 0.09529 0.59619 0.94215 0.0
H16 H 0.05684 0.59704 0.85647 0.0
O17 O 0.08178 0.60653 0.03251 0.0
C18 C 0.07192 0.56865 0.98018 0.0
O19 O 0.06042 0.57036 0.94957 0.0
N20 N 0.05467 0.61108 0.99403 0.0
C21 C 0.03494 0.63206 0.994 0.0
C22 C 0.04535 0.6318 0.03775 0.0
C23 C 0.05497 0.62113 0.03761 0.0
C24 C 0.04397 0.6107 0.95397 0.0
C25 C 0.03425 0.62134 0.95171 0.0
H26 H 0.0624 0.62078 0.07395 0.0
H27 H 0.04238 0.60173 0.92615 0.0
H28 H 0.07515 0.59827 0.13933 0.0
H29 H 0.03557 0.58204 0.16992 0.0
H30 H 0.09936 0.59707 0.82449 0.0
H31 H 0.04593 0.63966 0.07247 0.0
H32 H 0.02588 0.62082 0.91932 0.0
C33 C 0.7107 0.78687 0.50316 0.0
C34 C 0.71032 0.78863 0.56498 0.0
N35 N 0.7115 0.77617 0.59151 0.0
N36 N 0.71197 0.77334 0.49057 0.0
C37 C 0.7126 0.76709 0.5453 0.0
H38 H 0.71013 0.79498 0.46961 0.0
Co39 Co 0.71278 0.76513 0.41416 0.0
C40 C 0.69005 0.77976 0.35017 0.0
O41 O 0.68502 0.768 0.33051 0.0
N42 N 0.71441 0.75685 0.33675 0.0
C43 C 0.72217 0.74269 0.26494 0.0
C44 C 0.72102 0.74485 0.32625 0.0
C45 C 0.71249 0.76218 0.28048 0.0
N46 N 0.71677 0.75363 0.23586 0.0
O47 O 0.72873 0.77567 0.39538 0.0
H48 H 0.72561 0.73843 0.36078 0.0
H49 H 0.70897 0.77256 0.27216 0.0
O50 O 0.70108 0.77985 0.38183 0.0
C51 C 0.73995 0.77091 0.4165 0.0
O52 O 0.73947 0.75996 0.45158 0.0
N53 N 0.69724 0.75416 0.43499 0.0
C54 C 0.67558 0.73699 0.47189 0.0
C55 C 0.67435 0.75138 0.47524 0.0
C56 C 0.68536 0.75975 0.45755 0.0
C57 C 0.69887 0.74021 0.43522 0.0
C58 C 0.68813 0.73147 0.4519 0.0
H59 H 0.68439 0.77077 0.46306 0.0
H60 H 0.70865 0.73568 0.42437 0.0
H61 H 0.71357 0.75605 0.55097 0.0
H62 H 0.70945 0.79836 0.58858 0.0
H63 H 0.72701 0.73389 0.24382 0.0
H64 H 0.66509 0.75615 0.49272 0.0
H65 H 0.68973 0.72045 0.44921 0.0
C66 C 0.55681 0.40325 0.66669 0.0
C67 C 0.55852 0.40654 0.72658 0.0
N68 N 0.54627 0.4105 0.74927 0.0
N69 N 0.54347 0.40478 0.65097 0.0
C70 C 0.53737 0.40967 0.70195 0.0
H71 H 0.56483 0.3997 0.63653 0.0
Co72 Co 0.53753 0.40082 0.57137 0.0
C73 C 0.51227 0.38902 0.6412 0.0
O74 O 0.51696 0.38902 0.69701 0.0
N75 N 0.53212 0.39698 0.49102 0.0
C76 C 0.52492 0.38506 0.41099 0.0
C77 C 0.52599 0.38519 0.47302 0.0
C78 C 0.53467 0.40389 0.43874 0.0
N79 N 0.5304 0.3968 0.38931 0.0
O80 O 0.5294 0.41869 0.56598 0.0
H81 H 0.52301 0.37689 0.50299 0.0
H82 H 0.54017 0.41357 0.43659 0.0
O83 O 0.51988 0.39316 0.59759 0.0
C84 C 0.53819 0.42785 0.55162 0.0
O85 O 0.55104 0.42402 0.54333 0.0
N86 N 0.54638 0.38358 0.57523 0.0
C87 C 0.5635 0.36046 0.58127 0.0
C88 C 0.55194 0.36163 0.61917 0.0
C89 C 0.54355 0.37332 0.61569 0.0
C90 C 0.55741 0.38252 0.53734 0.0
C91 C 0.56606 0.37105 0.53941 0.0
H92 H 0.53517 0.37427 0.64717 0.0
H93 H 0.55978 0.39089 0.50672 0.0
H94 H 0.52664 0.41264 0.70439 0.0
H95 H 0.56801 0.40557 0.75197 0.0
H96 H 0.52071 0.3768 0.38375 0.0
H97 H 0.54951 0.3537 0.65201 0.0
H98 H 0.575 0.37079 0.51012 0.0
C99 C 0.8868 0.23601 0.92305 0.0
C100 C 0.88538 0.23353 0.98396 0.0
N101 N 0.89727 0.22822 1.00498 0.0
N102 N 0.89948 0.23216 0.90483 0.0
C103 C 0.90566 0.22747 0.95602 0.0
H104 H 0.87919 0.24096 0.89474 0.0
Co105 Co 0.90655 0.23533 0.82673 0.0
C106 C 0.92638 0.21254 0.80078 0.0
O107 O 0.9329 0.2202 0.76102 0.0
N108 N 0.9133 0.23901 0.74687 0.0
C109 C 0.92425 0.24837 0.66808 0.0
C110 C 0.92224 0.24897 0.72956 0.0
C111 C 0.90991 0.23265 0.694 0.0
N112 N 0.91651 0.2381 0.64555 0.0
O113 O 0.89069 0.22646 0.79252 0.0
H114 H 0.92716 0.25632 0.75899 0.0
H115 H 0.90293 0.22398 0.69109 0.0
O116 O 0.91611 0.2175 0.82987 0.0
C117 C 0.88145 0.23495 0.77569 0.0
O118 O 0.884 0.24821 0.78029 0.0
N119 N 0.92133 0.24495 0.86213 0.0
C120 C 0.94069 0.26287 0.91201 0.0
C121 C 0.94346 0.24873 0.90791 0.0
C122 C 0.93361 0.23989 0.88282 0.0
C123 C 0.91817 0.25853 0.86949 0.0
C124 C 0.9278 0.26773 0.89321 0.0
H125 H 0.93594 0.22907 0.88125 0.0
H126 H 0.90823 0.26229 0.85475 0.0
H127 H 0.91621 0.22392 0.95777 0.0
H128 H 0.87653 0.2362 1.01133 0.0
H129 H 0.93074 0.2552 0.64181 0.0
H130 H 0.95326 0.24459 0.92279 0.0
H131 H 0.9252 0.27856 0.89665 0.0
C132 C 0.05393 0.40546 0.98879 0.0
C133 C 0.05164 0.40588 0.92733 0.0
N134 N 0.06337 0.40221 0.89891 0.0
N135 N 0.06701 0.40152 0.99917 0.0
C136 C 0.07256 0.39967 0.94364 0.0
H137 H 0.04651 0.40774 0.02393 0.0
Co138 Co 0.07427 0.39946 0.07616 0.0
C139 C 0.09703 0.37973 0.06595 0.0
O140 O 0.09199 0.37371 0.11451 0.0
N141 N 0.08164 0.39812 0.15549 0.0
C142 C 0.09695 0.40118 0.22954 0.0
C143 C 0.09488 0.40136 0.16816 0.0
C144 C 0.07579 0.39636 0.21075 0.0
N145 N 0.08492 0.39811 0.2565 0.0
O146 O 0.08298 0.41701 0.06796 0.0
H147 H 0.10253 0.40412 0.13469 0.0
H148 H 0.06496 0.39466 0.21812 0.0
O149 O 0.0909 0.3903 0.04382 0.0
C150 C 0.07656 0.42689 0.09318 0.0
O151 O 0.06521 0.42411 0.12326 0.0
N152 N 0.06457 0.38256 0.08237 0.0
C153 C 0.04554 0.36103 0.07289 0.0
C154 C 0.05731 0.36129 0.03645 0.0
C155 C 0.06655 0.37221 0.04109 0.0
C156 C 0.053 0.38255 0.11747 0.0
C157 C 0.04353 0.37169 0.1147 0.0
H158 H 0.07466 0.37278 1.00787 0.0
H159 H 0.05043 0.39153 0.14393 0.0
H160 H 0.08313 0.3966 0.93613 0.0
H161 H 0.042 0.40843 0.90541 0.0
H162 H 0.10655 0.40341 0.25247 0.0
H163 H 0.059 0.35345 1.00232 0.0
H164 H 0.03422 0.37214 0.14167 0.0
C165 C 0.8967 0.78826 0.06511 0.0
C166 C 0.8962 0.79055 1.00362 0.0
N167 N 0.8966 0.77828 0.97504 0.0
N168 N 0.8975 0.7746 0.07565 0.0
C169 C 0.89726 0.76878 0.01993 0.0
H170 H 0.89646 0.79609 0.09996 0.0
Co171 Co 0.89867 0.76607 0.15164 0.0
C172 C 0.9206 0.78205 0.21546 0.0
O173 O 0.92569 0.77085 0.24045 0.0
N174 N 0.89941 0.75754 0.22916 0.0
C175 C 0.89915 0.74243 0.30527 0.0
C176 C 0.89992 0.74401 0.24353 0.0
C177 C 0.89794 0.76391 0.28357 0.0
N178 N 0.8979 0.75496 0.33067 0.0
O179 O 0.88272 0.77583 0.1776 0.0
H180 H 0.90041 0.73557 0.212 0.0
H181 H 0.89661 0.77492 0.28836 0.0
O182 O 0.91021 0.7812 0.18011 0.0
C183 C 0.87141 0.7705 0.16042 0.0
O184 O 0.87182 0.75954 0.12555 0.0
N185 N 0.91386 0.7558 0.12336 0.0
C186 C 0.93391 0.73799 0.0769 0.0
C187 C 0.93692 0.75195 0.08752 0.0
C188 C 0.92667 0.76075 0.10968 0.0
C189 C 0.91045 0.74267 0.10777 0.0
C190 C 0.92034 0.7335 0.08629 0.0
H191 H 0.92903 0.77156 0.11404 0.0
H192 H 0.89988 0.73929 0.11208 0.0
H193 H 0.89782 0.75779 0.01247 0.0
H194 H 0.89543 0.80051 0.9818 0.0
H195 H 0.89948 0.73273 0.32948 0.0
H196 H 0.94702 0.75611 0.07783 0.0
H197 H 0.91732 0.72293 0.078 0.0
C198 C 0.55967 0.5971 0.46407 0.0
C199 C 0.56167 0.59684 0.40241 0.0
N200 N 0.54936 0.59851 0.37504 0.0
N201 N 0.54618 0.59896 0.47563 0.0
C202 C 0.54013 0.59975 0.42056 0.0
H203 H 0.56754 0.59602 0.49845 0.0
Co204 Co 0.53858 0.59968 0.55278 0.0
C205 C 0.51609 0.61978 0.54445 0.0
O206 O 0.52061 0.62517 0.59539 0.0
N207 N 0.53077 0.59983 0.6315 0.0
C208 C 0.51506 0.59597 0.70323 0.0
C209 C 0.51756 0.59613 0.64205 0.0
C210 C 0.53613 0.60163 0.68771 0.0
N211 N 0.52677 0.59942 0.73201 0.0
O212 O 0.52989 0.58229 0.53871 0.0
H213 H 0.51018 0.59348 0.6072 0.0
H214 H 0.54678 0.60389 0.69695 0.0
O215 O 0.52229 0.60941 0.52129 0.0
C216 C 0.53821 0.57232 0.54691 0.0
O217 O 0.55089 0.5751 0.56373 0.0
N218 N 0.54833 0.6163 0.5656 0.0
C219 C 0.56748 0.63789 0.57177 0.0
C220 C 0.55613 0.6386 0.53244 0.0
C221 C 0.54686 0.62763 0.5292 0.0
C222 C 0.5596 0.6152 0.60211 0.0
C223 C 0.56903 0.626 0.60746 0.0
H224 H 0.53909 0.62793 0.49425 0.0
H225 H 0.56185 0.60553 0.62423 0.0
H226 H 0.52915 0.60096 0.41397 0.0
H227 H 0.57146 0.59568 0.37957 0.0
H228 H 0.50538 0.59342 0.72478 0.0
H229 H 0.55485 0.64717 0.5015 0.0
H230 H 0.57773 0.62476 0.63767 0.0
C231 C 0.71354 0.25443 0.54246 0.0
C232 C 0.7171 0.25593 0.48264 0.0
N233 N 0.72282 0.24409 0.46343 0.0
N234 N 0.71667 0.24157 0.56149 0.0
C235 C 0.72287 0.23572 0.51266 0.0
H236 H 0.70879 0.26228 0.57012 0.0
Co237 Co 0.71355 0.2354 0.64231 0.0
C238 C 0.7013 0.21133 0.56873 0.0
O239 O 0.70219 0.21719 0.51532 0.0
N240 N 0.71073 0.22984 0.7231 0.0
C241 C 0.70051 0.22128 0.80502 0.0
C242 C 0.69934 0.22343 0.74378 0.0
C243 C 0.71859 0.23179 0.77323 0.0
N244 N 0.71262 0.22654 0.82375 0.0
O245 O 0.73128 0.22674 0.64315 0.0
H246 H 0.69044 0.22101 0.7165 0.0
H247 H 0.72844 0.23702 0.77274 0.0
O248 O 0.70508 0.21781 0.61645 0.0
C249 C 0.74169 0.23469 0.64156 0.0
O250 O 0.73972 0.24807 0.63833 0.0
N251 N 0.69642 0.24454 0.64341 0.0
C252 C 0.67317 0.26148 0.64519 0.0
C253 C 0.67367 0.24984 0.60761 0.0
C254 C 0.68544 0.24155 0.60707 0.0
C255 C 0.696 0.25564 0.6812 0.0
C256 C 0.68448 0.26424 0.68286 0.0
H257 H 0.68579 0.23312 0.57564 0.0
H258 H 0.70485 0.25803 0.70907 0.0
H259 H 0.72707 0.22538 0.51281 0.0
H260 H 0.71509 0.26489 0.45476 0.0
H261 H 0.69279 0.21668 0.83408 0.0
H262 H 0.66528 0.24747 0.57698 0.0
H263 H 0.6845 0.27307 0.71286 0.0
C264 C 0.38644 0.24479 0.49389 0.0
C265 C 0.38353 0.24473 0.43299 0.0
N266 N 0.38717 0.25702 0.40944 0.0
N267 N 0.3919 0.25706 0.50925 0.0
C268 C 0.39212 0.26437 0.45691 0.0
H269 H 0.38523 0.23621 0.52473 0.0
Co270 Co 0.39859 0.26079 0.58731 0.0
C271 C 0.42006 0.28146 0.5418 0.0
O272 O 0.43028 0.2727 0.5377 0.0
N273 N 0.40501 0.26461 0.66636 0.0
C274 C 0.41854 0.27037 0.74364 0.0
C275 C 0.41791 0.26838 0.68217 0.0
C276 C 0.39801 0.26429 0.71949 0.0
N277 N 0.40601 0.26785 0.76734 0.0
O278 O 0.38261 0.27186 0.60254 0.0
H279 H 0.42648 0.26929 0.65142 0.0
H280 H 0.38723 0.26159 0.72293 0.0
O281 O 0.40814 0.27757 0.55959 0.0
C282 C 0.37172 0.26484 0.61155 0.0
O283 O 0.37256 0.25134 0.61226 0.0
N284 N 0.41371 0.24868 0.57281 0.0
C285 C 0.4336 0.22816 0.55432 0.0
C286 C 0.43028 0.23754 0.50818 0.0
C287 C 0.4201 0.24745 0.51781 0.0
C288 C 0.41628 0.23913 0.61691 0.0
C289 C 0.42632 0.22897 0.60906 0.0
H290 H 0.41754 0.2543 0.4809 0.0
H291 H 0.41034 0.23912 0.65829 0.0
H292 H 0.39627 0.27468 0.45329 0.0
H293 H 0.3797 0.236 0.40753 0.0
H294 H 0.42767 0.27312 0.76905 0.0
H295 H 0.43551 0.2373 0.46488 0.0
H296 H 0.42806 0.22159 0.64511 0.0
C297 C 0.2135 0.75161 0.05275 0.0
C298 C 0.21604 0.75391 0.99255 0.0
N299 N 0.2202 0.74201 0.96725 0.0
N300 N 0.21559 0.7382 0.06603 0.0
C301 C 0.22054 0.7328 0.0135 0.0
H302 H 0.20986 0.75926 0.0845 0.0
Co303 Co 0.21155 0.73126 0.14461 0.0
C304 C 0.19894 0.708 0.06612 0.0
O305 O 0.19979 0.71425 0.01355 0.0
N306 N 0.20783 0.72508 0.22411 0.0
C307 C 0.19584 0.71814 0.30446 0.0
C308 C 0.19587 0.71935 0.24241 0.0
C309 C 0.21495 0.72724 0.27623 0.0
N310 N 0.20784 0.72311 0.32581 0.0
O311 O 0.22895 0.72224 0.14606 0.0
H312 H 0.18727 0.7171 0.21293 0.0
H313 H 0.22472 0.73256 0.27836 0.0
O314 O 0.2029 0.7141 0.11452 0.0
C315 C 0.23885 0.72983 0.16356 0.0
O316 O 0.23624 0.74267 0.17856 0.0
N317 N 0.19461 0.74084 0.1443 0.0
C318 C 0.17219 0.75886 0.14036 0.0
C319 C 0.17293 0.74754 0.10107 0.0
C320 C 0.18425 0.73871 0.10352 0.0
C321 C 0.19386 0.75153 0.18427 0.0
C322 C 0.18273 0.76066 0.18314 0.0
H323 H 0.18489 0.73067 0.07038 0.0
H324 H 0.20225 0.75329 0.21563 0.0
H325 H 0.22361 0.72215 1.0083 0.0
H326 H 0.2144 0.7635 0.96853 0.0
H327 H 0.18741 0.71441 0.33204 0.0
H328 H 0.16518 0.7459 0.0665 0.0
H329 H 0.18255 0.76922 0.21459 0.0
C330 C 0.22957 0.26341 0.92121 0.0
C331 C 0.23101 0.26587 0.98213 0.0
N332 N 0.21914 0.2712 1.00314 0.0
N333 N 0.21689 0.26731 0.903 0.0
C334 C 0.21075 0.27201 0.95418 0.0
H335 H 0.23715 0.25845 0.89289 0.0
Co336 Co 0.2098 0.26418 0.82493 0.0
C337 C 0.19008 0.28708 0.79871 0.0
O338 O 0.18362 0.27959 0.75814 0.0
N339 N 0.20303 0.26051 0.74511 0.0
C340 C 0.19202 0.25117 0.66644 0.0
C341 C 0.19402 0.25061 0.72795 0.0
C342 C 0.20647 0.26681 0.69212 0.0
N343 N 0.19984 0.26137 0.64374 0.0
O344 O 0.22558 0.27317 0.7908 0.0
H345 H 0.18906 0.2433 0.75753 0.0
H346 H 0.2135 0.27543 0.68906 0.0
O347 O 0.20024 0.28197 0.82813 0.0
C348 C 0.23504 0.26495 0.77385 0.0
O349 O 0.23285 0.25162 0.77813 0.0
N350 N 0.19502 0.25454 0.86037 0.0
C351 C 0.17569 0.2368 0.91297 0.0
C352 C 0.173 0.25097 0.90727 0.0
C353 C 0.18279 0.25967 0.88097 0.0
C354 C 0.19812 0.24097 0.86836 0.0
C355 C 0.18855 0.23188 0.89346 0.0
H356 H 0.18051 0.2705 0.87902 0.0
H357 H 0.208 0.23712 0.85326 0.0
H358 H 0.2002 0.27559 0.95592 0.0
H359 H 0.23986 0.26315 1.00951 0.0
H360 H 0.18549 0.24437 0.64028 0.0
H361 H 0.16347 0.2554 0.92369 0.0
H362 H 0.19116 0.22106 0.89624 0.0
C363 C 0.38843 0.74278 0.31967 0.0
C364 C 0.38642 0.74328 0.3814 0.0
N365 N 0.39633 0.73575 0.40843 0.0
N366 N 0.39947 0.73483 0.30749 0.0
C367 C 0.40409 0.73075 0.36258 0.0
H368 H 0.38242 0.74823 0.28611 0.0
Co369 Co 0.4072 0.73169 0.23102 0.0
C370 C 0.41523 0.70253 0.2374 0.0
O371 O 0.40981 0.70021 0.18379 0.0
N372 N 0.41515 0.72877 0.15391 0.0
C373 C 0.43015 0.7235 0.08124 0.0
C374 C 0.42801 0.72412 0.14278 0.0
C375 C 0.40979 0.73112 0.09815 0.0
N376 N 0.41866 0.72791 0.05294 0.0
O377 O 0.39082 0.72212 0.20717 0.0
H378 H 0.43538 0.72121 0.17726 0.0
H379 H 0.39966 0.73533 0.09055 0.0
O380 O 0.41486 0.71456 0.26045 0.0
C381 C 0.38133 0.7292 0.18239 0.0
O382 O 0.38348 0.74237 0.17213 0.0
N383 N 0.42267 0.74176 0.25454 0.0
C384 C 0.44276 0.76024 0.29387 0.0
C385 C 0.44377 0.74615 0.3077 0.0
C386 C 0.4336 0.73704 0.28763 0.0
C387 C 0.42167 0.75532 0.23948 0.0
C388 C 0.4316 0.76475 0.25858 0.0
H389 H 0.43446 0.72632 0.29998 0.0
H390 H 0.41285 0.75886 0.21382 0.0
H391 H 0.41311 0.72436 0.36909 0.0
H392 H 0.37858 0.74919 0.40463 0.0
H393 H 0.43942 0.71986 0.05931 0.0
H394 H 0.4523 0.74219 0.33417 0.0
H395 H 0.43029 0.77554 0.24746 0.0
C396 C 0.55277 0.09486 0.63172 0.0
C397 C 0.55168 0.09635 0.69336 0.0
N398 N 0.56448 0.09689 0.71677 0.0
N399 N 0.56619 0.09465 0.61612 0.0
C400 C 0.57311 0.09578 0.66899 0.0
H401 H 0.54429 0.09368 0.60038 0.0
Co402 Co 0.57273 0.09212 0.5378 0.0
C403 C 0.59369 0.11323 0.51819 0.0
O404 O 0.58768 0.11553 0.46575 0.0
N405 N 0.5795 0.08901 0.45849 0.0
C406 C 0.59482 0.0835 0.38735 0.0
C407 C 0.59253 0.08466 0.44838 0.0
C408 C 0.57403 0.09022 0.40219 0.0
N409 N 0.58318 0.08702 0.35816 0.0
O410 O 0.58289 0.0763 0.56428 0.0
H411 H 0.60013 0.08283 0.48333 0.0
H412 H 0.56362 0.0934 0.39295 0.0
O413 O 0.58877 0.10409 0.55415 0.0
C414 C 0.57568 0.0657 0.5762 0.0
O415 O 0.56219 0.06661 0.57306 0.0
N416 N 0.5616 0.10714 0.51312 0.0
C417 C 0.54073 0.1266 0.49553 0.0
C418 C 0.55272 0.13004 0.52742 0.0
C419 C 0.56284 0.12007 0.53717 0.0
C420 C 0.54985 0.10356 0.48315 0.0
C421 C 0.53938 0.11317 0.47293 0.0
H422 H 0.57116 0.12257 0.56766 0.0
H423 H 0.5482 0.09294 0.47025 0.0
H424 H 0.58423 0.09561 0.67239 0.0
H425 H 0.54221 0.09647 0.71921 0.0
H426 H 0.60448 0.08071 0.36626 0.0
H427 H 0.55387 0.14008 0.54823 0.0
H428 H 0.53012 0.10997 0.44946 0.0
C429 C 0.06191 0.90014 0.14124 0.0
C430 C 0.0638 0.89973 0.20287 0.0
N431 N 0.05133 0.89919 0.22957 0.0
N432 N 0.04832 0.89977 0.12894 0.0
C433 C 0.0421 0.89922 0.18362 0.0
H434 H 0.06994 0.90083 0.10743 0.0
Co435 Co 0.04105 0.90091 0.05136 0.0
C436 C 0.01692 0.88274 0.04843 0.0
O437 O 0.02111 0.87863 0.99477 0.0
N438 N 0.03373 0.9027 0.97221 0.0
C439 C 0.0189 0.9089 0.89997 0.0
C440 C 0.02126 0.90841 0.96121 0.0
C441 C 0.03879 0.89995 0.91627 0.0
N442 N 0.02994 0.90358 0.87165 0.0
O443 O 0.03323 0.91846 0.07097 0.0
H444 H 0.01421 0.91193 0.9958 0.0
H445 H 0.04883 0.89566 0.90763 0.0
O446 O 0.02404 0.8916 0.07786 0.0
C447 C 0.04183 0.92834 0.07035 0.0
O448 O 0.0548 0.92566 0.05807 0.0
N449 N 0.04989 0.88405 0.03342 0.0
C450 C 0.06851 0.86207 0.02763 0.0
C451 C 0.05621 0.86088 0.06042 0.0
C452 C 0.04721 0.87206 0.06391 0.0
C453 C 0.06184 0.88538 1.00153 0.0
C454 C 0.07116 0.87446 0.99706 0.0
H455 H 0.03875 0.87134 0.09536 0.0
H456 H 0.06465 0.89531 0.98297 0.0
H457 H 0.03104 0.89926 0.18962 0.0
H458 H 0.07361 0.89981 0.22613 0.0
H459 H 0.0097 0.91276 0.8781 0.0
H460 H 0.05403 0.85175 0.08699 0.0
H461 H 0.08065 0.87595 0.97212 0.0
C462 C 0.55249 0.91038 0.429 0.0
C463 C 0.55066 0.91229 0.36772 0.0
N464 N 0.56204 0.90783 0.3387 0.0
N465 N 0.56494 0.9047 0.43883 0.0
C466 C 0.5706 0.90341 0.38312 0.0
H467 H 0.54505 0.91255 0.46418 0.0
Co468 Co 0.57111 0.89914 0.51494 0.0
C469 C 0.59083 0.87695 0.48834 0.0
O470 O 0.58445 0.86939 0.52904 0.0
N471 N 0.57743 0.8942 0.59374 0.0
C472 C 0.59203 0.89136 0.67094 0.0
C473 C 0.59082 0.89258 0.60928 0.0
C474 C 0.57083 0.89475 0.64793 0.0
N475 N 0.57944 0.89277 0.69541 0.0
O476 O 0.58176 0.9156 0.52095 0.0
H477 H 0.59942 0.89322 0.57834 0.0
H478 H 0.56013 0.89746 0.65319 0.0
O479 O 0.58684 0.88931 0.478 0.0
C480 C 0.57546 0.92479 0.55134 0.0
O481 O 0.56319 0.92186 0.5729 0.0
N482 N 0.55956 0.88335 0.5084 0.0
C483 C 0.54026 0.86218 0.49315 0.0
C484 C 0.55101 0.86399 0.45166 0.0
C485 C 0.5603 0.87479 0.45922 0.0
C486 C 0.5487 0.8822 0.54729 0.0
C487 C 0.53907 0.87156 0.5412 0.0
H488 H 0.56791 0.87639 0.42432 0.0
H489 H 0.54699 0.88992 0.58141 0.0
H490 H 0.58067 0.89903 0.37518 0.0
H491 H 0.54141 0.91615 0.34624 0.0
H492 H 0.60157 0.89051 0.69609 0.0
H493 H 0.55195 0.85743 0.41217 0.0
H494 H 0.53066 0.87084 0.57322 0.0
C495 C 0.06295 0.09361 0.98762 0.0
C496 C 0.0652 0.09308 0.92618 0.0
N497 N 0.05344 0.09662 0.89766 0.0
N498 N 0.04984 0.09748 0.99789 0.0
C499 C 0.04426 0.09919 0.9423 0.0
H500 H 0.07042 0.0915 0.0228 0.0
Co501 Co 0.04263 0.09983 0.07482 0.0
C502 C 0.01991 0.11953 0.06293 0.0
O503 O 0.02511 0.12573 0.11074 0.0
N504 N 0.0353 0.10148 0.1541 0.0
C505 C 0.01996 0.09855 0.22811 0.0
C506 C 0.02203 0.09836 0.16675 0.0
C507 C 0.04117 0.10314 0.20941 0.0
N508 N 0.03203 0.10148 0.2551 0.0
O509 O 0.03414 0.0821 0.06921 0.0
H510 H 0.01435 0.09562 0.13333 0.0
H511 H 0.05203 0.10462 0.21688 0.0
O512 O 0.02592 0.1088 0.04167 0.0
C513 C 0.04177 0.07298 0.09361 0.0
O514 O 0.05357 0.07692 0.11723 0.0
N515 N 0.05224 0.11679 0.07937 0.0
C516 C 0.07124 0.13835 0.07027 0.0
C517 C 0.05964 0.13794 0.03265 0.0
C518 C 0.0504 0.127 0.03723 0.0
C519 C 0.0637 0.11689 0.1152 0.0
C520 C 0.07313 0.12778 0.11269 0.0
H521 H 0.04234 0.12632 1.0037 0.0
H522 H 0.06621 0.10797 0.1422 0.0
H523 H 0.03368 0.10223 0.93468 0.0
H524 H 0.07486 0.09058 0.90432 0.0
H525 H 0.01035 0.09638 0.25101 0.0
H526 H 0.05807 0.14571 0.99803 0.0
H527 H 0.08231 0.12741 0.14052 0.0
C528 C 0.06267 0.60316 0.72977 0.0
C529 C 0.07459 0.59727 0.75499 0.0
C530 C 0.06044 0.60282 0.66708 0.0
C531 C 0.079 0.59825 0.52165 0.0
H532 H 0.04257 0.59106 0.45712 0.0
C533 C 0.0671 0.60152 0.26525 0.0
C534 C 0.05833 0.59141 0.24095 0.0
C535 C 0.06891 0.60266 0.32794 0.0
C536 C 0.05283 0.59299 0.4744 0.0
H537 H 0.09328 0.58598 0.73417 0.0
H538 H 0.08938 0.58531 0.62544 0.0
H539 H 0.04599 0.592 0.56653 0.0
H540 H 0.04484 0.57437 0.26356 0.0
H541 H 0.04808 0.57626 0.37267 0.0
H542 H 0.08593 0.59885 0.42969 0.0
C543 C 0.0819 0.5905 0.65375 0.0
C544 C 0.05475 0.5937 0.53714 0.0
C545 C 0.08413 0.59087 0.71622 0.0
C546 C 0.05149 0.58241 0.28079 0.0
C547 C 0.05333 0.58352 0.34341 0.0
C548 C 0.07708 0.59752 0.45897 0.0
C549 C 0.07008 0.59655 0.6283 0.0
C550 C 0.06788 0.59624 0.56155 0.0
C551 C 0.06203 0.59368 0.36781 0.0
C552 C 0.06399 0.59481 0.43454 0.0
H553 H 0.0552 0.60828 0.75837 0.0
H554 H 0.05129 0.6077 0.64892 0.0
H555 H 0.08922 0.60042 0.53885 0.0
H556 H 0.07236 0.60875 0.23591 0.0
H557 H 0.07553 0.61073 0.3452 0.0
C558 C 0.70723 0.7658 0.14595 0.0
C559 C 0.71628 0.75598 0.171 0.0
C560 C 0.70662 0.7679 0.08319 0.0
C561 C 0.71405 0.75099 0.9371 0.0
H562 H 0.71325 0.78813 0.87257 0.0
C563 C 0.71905 0.76222 0.67968 0.0
C564 C 0.71152 0.77334 0.65577 0.0
C565 C 0.71949 0.7599 0.74237 0.0
C566 C 0.71325 0.77767 0.88968 0.0
H567 H 0.73196 0.74085 0.14838 0.0
H568 H 0.73069 0.74438 0.03951 0.0
H569 H 0.71412 0.78458 0.98182 0.0
H570 H 0.69811 0.79038 0.6788 0.0
H571 H 0.69861 0.78622 0.78751 0.0
H572 H 0.71298 0.74403 0.84517 0.0
C573 C 0.72399 0.75037 0.06858 0.0
C574 C 0.71379 0.77565 0.95244 0.0
C575 C 0.72469 0.74834 0.13129 0.0
C576 C 0.70421 0.78189 0.69583 0.0
C577 C 0.70455 0.77951 0.75832 0.0
C578 C 0.71339 0.75299 0.8743 0.0
C579 C 0.71494 0.76016 0.04374 0.0
C580 C 0.71423 0.76229 0.97693 0.0
C581 C 0.71231 0.76858 0.78264 0.0
C582 C 0.71299 0.76637 0.84965 0.0
H583 H 0.70043 0.77174 0.17462 0.0
H584 H 0.69942 0.77542 0.06543 0.0
H585 H 0.7142 0.74055 0.95456 0.0
H586 H 0.72489 0.75554 0.65006 0.0
H587 H 0.72573 0.75149 0.75928 0.0
C588 C 0.5305 0.41367 0.30454 0.0
C589 C 0.53234 0.40016 0.3261 0.0
C590 C 0.53165 0.41658 0.24228 0.0
C591 C 0.54788 0.40399 0.10281 0.0
H592 H 0.51882 0.42293 0.01529 0.0
C593 C 0.55408 0.41767 0.85125 0.0
C594 C 0.54344 0.41318 0.81265 0.0
C595 C 0.55226 0.41802 0.91406 0.0
C596 C 0.52702 0.41765 0.0392 0.0
H597 H 0.53723 0.37923 0.29974 0.0
H598 H 0.53954 0.38433 0.19195 0.0
H599 H 0.51698 0.41978 0.12561 0.0
H600 H 0.52219 0.40639 0.81027 0.0
H601 H 0.51892 0.40724 0.92043 0.0
H602 H 0.55792 0.40175 0.01707 0.0
C603 C 0.53704 0.39265 0.22275 0.0
C604 C 0.52602 0.41595 0.10232 0.0
C605 C 0.53564 0.38972 0.28445 0.0
C606 C 0.53058 0.40995 0.83847 0.0
C607 C 0.52872 0.41041 0.90164 0.0
C608 C 0.54898 0.40588 0.04017 0.0
C609 C 0.53497 0.40609 0.20077 0.0
C610 C 0.53637 0.40893 0.13466 0.0
C611 C 0.5397 0.41402 0.94023 0.0
C612 C 0.53853 0.41262 1.00741 0.0
H613 H 0.52788 0.42189 0.33564 0.0
H614 H 0.53007 0.42705 0.22665 0.0
H615 H 0.55604 0.39859 0.12645 0.0
H616 H 0.56401 0.42056 0.83302 0.0
H617 H 0.56083 0.42113 0.94239 0.0
C618 C 0.90309 0.22916 0.55807 0.0
C619 C 0.91547 0.23426 0.58241 0.0
C620 C 0.90185 0.22669 0.49558 0.0
C621 C 0.91777 0.23708 0.34925 0.0
H622 H 0.89602 0.20716 0.28318 0.0
C623 C 0.91388 0.22822 0.09061 0.0
C624 C 0.90055 0.22582 0.06805 0.0
C625 C 0.9165 0.22762 0.1531 0.0
C626 C 0.90208 0.21562 0.3009 0.0
H627 H 0.93648 0.23991 0.56069 0.0
H628 H 0.93442 0.23547 0.45262 0.0
H629 H 0.89886 0.2092 0.39285 0.0
H630 H 0.87975 0.22012 0.09322 0.0
H631 H 0.88427 0.21917 0.20173 0.0
H632 H 0.92088 0.24359 0.25758 0.0
C633 C 0.92551 0.23376 0.48113 0.0
C634 C 0.90368 0.2168 0.36387 0.0
C635 C 0.92671 0.23628 0.54327 0.0
C636 C 0.89009 0.22218 0.10916 0.0
C637 C 0.89272 0.22151 0.17144 0.0
C638 C 0.9162 0.23587 0.28643 0.0
C639 C 0.91299 0.2292 0.4561 0.0
C640 C 0.9115 0.2276 0.38896 0.0
C641 C 0.90589 0.22451 0.19445 0.0
C642 C 0.90826 0.22518 0.26133 0.0
H643 H 0.89422 0.22758 0.58693 0.0
H644 H 0.89201 0.22329 0.47801 0.0
H645 H 0.92364 0.24569 0.3667 0.0
H646 H 0.92214 0.23113 0.06029 0.0
H647 H 0.92682 0.22981 0.16913 0.0
C648 C 0.07159 0.38978 0.34508 0.0
C649 C 0.08228 0.39785 0.32085 0.0
C650 C 0.0693 0.38939 0.40775 0.0
C651 C 0.0867 0.39635 0.55408 0.0
H652 H 0.04958 0.39792 0.61832 0.0
C653 C 0.07545 0.39204 0.81078 0.0
C654 C 0.06547 0.40106 0.83438 0.0
C655 C 0.0773 0.3908 0.74815 0.0
C656 C 0.06002 0.39754 0.60109 0.0
H657 H 0.0986 0.41223 0.34358 0.0
H658 H 0.09463 0.41154 0.45209 0.0
H659 H 0.05312 0.39749 0.50883 0.0
H660 H 0.04981 0.41604 0.81038 0.0
H661 H 0.05307 0.41394 0.70146 0.0
H662 H 0.09362 0.3968 0.64611 0.0
C663 C 0.08821 0.40525 0.42301 0.0
C664 C 0.06204 0.39713 0.53834 0.0
C665 C 0.09049 0.40564 0.36062 0.0
C666 C 0.05743 0.40883 0.79382 0.0
C667 C 0.05928 0.40761 0.73128 0.0
C668 C 0.08468 0.39675 0.61674 0.0
C669 C 0.07766 0.39706 0.44744 0.0
C670 C 0.07541 0.3967 0.5141 0.0
C671 C 0.06923 0.39857 0.70764 0.0
C672 C 0.07132 0.39749 0.64102 0.0
H673 H 0.06516 0.38357 0.31576 0.0
H674 H 0.06115 0.38289 0.42519 0.0
H675 H 0.09713 0.39583 0.53691 0.0
H676 H 0.08168 0.38575 0.84063 0.0
H677 H 0.08494 0.38362 0.73143 0.0
C678 C 0.89165 0.74796 0.43508 0.0
C679 C 0.89681 0.75794 0.39473 0.0
C680 C 0.8913 0.75043 0.49747 0.0
C681 C 0.89254 0.7781 0.6131 0.0
H682 H 0.9031 0.7482 0.72021 0.0
C683 C 0.90119 0.78628 0.87019 0.0
C684 C 0.89658 0.77596 0.91023 0.0
C685 C 0.90108 0.78416 0.80747 0.0
C686 C 0.89995 0.75662 0.69109 0.0
H687 H 0.90546 0.77848 0.38888 0.0
H688 H 0.90484 0.78281 0.498 0.0
H689 H 0.90305 0.7446 0.61097 0.0
H690 H 0.88815 0.75531 0.91495 0.0
H691 H 0.88792 0.75161 0.8056 0.0
H692 H 0.88944 0.79012 0.69331 0.0
C693 C 0.90096 0.77309 0.4811 0.0
C694 C 0.89993 0.75456 0.62831 0.0
C695 C 0.9013 0.77062 0.41847 0.0
C696 C 0.89193 0.76342 0.88571 0.0
C697 C 0.89181 0.7613 0.82286 0.0
C698 C 0.89255 0.78017 0.67595 0.0
C699 C 0.8961 0.76295 0.52149 0.0
C700 C 0.8962 0.76526 0.58842 0.0
C701 C 0.89636 0.77166 0.78286 0.0
C702 C 0.89625 0.76945 0.71584 0.0
H703 H 0.88782 0.7382 0.41848 0.0
H704 H 0.8872 0.7425 0.52694 0.0
H705 H 0.88943 0.78652 0.58387 0.0
H706 H 0.90509 0.79596 0.88725 0.0
H707 H 0.90491 0.79227 0.77828 0.0
C708 C 0.52108 0.59161 0.83573 0.0
C709 C 0.52897 0.59989 0.79666 0.0
C710 C 0.52316 0.59203 0.89836 0.0
C711 C 0.54879 0.60195 0.01447 0.0
H712 H 0.5175 0.59914 0.12295 0.0
C713 C 0.5555 0.59194 0.27026 0.0
C714 C 0.54674 0.59889 0.31068 0.0
C715 C 0.55319 0.59251 0.20782 0.0
C716 C 0.52635 0.60007 0.09337 0.0
H717 H 0.54511 0.61528 0.79304 0.0
H718 H 0.5487 0.61612 0.90251 0.0
H719 H 0.51374 0.59979 0.0138 0.0
H720 H 0.5287 0.61197 0.31694 0.0
H721 H 0.5247 0.61305 0.20781 0.0
H722 H 0.56138 0.6025 0.09403 0.0
C723 C 0.54104 0.60911 0.88457 0.0
C724 C 0.5242 0.60027 0.03069 0.0
C725 C 0.53899 0.60864 0.8218 0.0
C726 C 0.53554 0.60636 0.28712 0.0
C727 C 0.53325 0.60697 0.22453 0.0
C728 C 0.55093 0.60178 0.07714 0.0
C729 C 0.53315 0.6008 0.92364 0.0
C730 C 0.5354 0.6011 0.99042 0.0
C731 C 0.54209 0.60009 0.18407 0.0
C732 C 0.53975 0.60073 0.1174 0.0
H733 H 0.51344 0.58458 0.81788 0.0
H734 H 0.51708 0.58529 0.92688 0.0
H735 H 0.55766 0.60248 0.98488 0.0
H736 H 0.56407 0.5859 0.28691 0.0
H737 H 0.56004 0.58684 0.17817 0.0
C738 C 0.73012 0.25114 0.36045 0.0
C739 C 0.72595 0.24075 0.40102 0.0
C740 C 0.73104 0.24855 0.29813 0.0
C741 C 0.71599 0.22594 0.18195 0.0
H742 H 0.74366 0.24189 0.07645 0.0
C743 C 0.71431 0.21594 0.92516 0.0
C744 C 0.7173 0.22695 0.88592 0.0
C745 C 0.71717 0.21683 0.98714 0.0
C746 C 0.73576 0.23746 0.1051 0.0
H747 H 0.72007 0.21928 0.40777 0.0
H748 H 0.72175 0.2147 0.29898 0.0
H749 H 0.74565 0.24462 0.18626 0.0
H750 H 0.7261 0.24739 0.88076 0.0
H751 H 0.73089 0.24915 0.9896 0.0
H752 H 0.70583 0.21914 0.10149 0.0
C753 C 0.72419 0.22493 0.31544 0.0
C754 C 0.73694 0.23899 0.1682 0.0
C755 C 0.72338 0.22749 0.37794 0.0
C756 C 0.72377 0.2387 0.90984 0.0
C757 C 0.72651 0.23968 0.97231 0.0
C758 C 0.71476 0.22449 0.11906 0.0
C759 C 0.72773 0.23551 0.27453 0.0
C760 C 0.72704 0.23327 0.20748 0.0
C761 C 0.72296 0.22885 0.01212 0.0
C762 C 0.7246 0.23024 0.0795 0.0
H763 H 0.73229 0.26143 0.37678 0.0
H764 H 0.73374 0.25697 0.26817 0.0
H765 H 0.708 0.22164 0.21054 0.0
H766 H 0.70953 0.20667 0.90786 0.0
H767 H 0.71466 0.2081 0.01562 0.0
C768 C 0.37825 0.25399 0.3051 0.0
C769 C 0.38729 0.26057 0.34572 0.0
C770 C 0.37927 0.25621 0.24261 0.0
C771 C 0.40443 0.26728 0.12652 0.0
H772 H 0.37256 0.26743 0.02047 0.0
C773 C 0.40983 0.27715 0.87036 0.0
C774 C 0.40238 0.26855 0.83085 0.0
C775 C 0.40717 0.27715 0.93258 0.0
C776 C 0.38157 0.26729 0.04943 0.0
H777 H 0.40421 0.27508 0.35197 0.0
H778 H 0.40578 0.27921 0.24312 0.0
H779 H 0.36936 0.26622 0.13018 0.0
H780 H 0.38591 0.25352 0.82612 0.0
H781 H 0.38122 0.25353 0.93511 0.0
H782 H 0.41664 0.26827 0.04599 0.0
C783 C 0.39804 0.27211 0.25962 0.0
C784 C 0.37974 0.2666 0.1124 0.0
C785 C 0.39703 0.26988 0.32225 0.0
C786 C 0.3918 0.26032 0.85509 0.0
C787 C 0.38912 0.26033 0.91762 0.0
C788 C 0.40625 0.268 0.06371 0.0
C789 C 0.38934 0.26511 0.21884 0.0
C790 C 0.39116 0.26653 0.15184 0.0
C791 C 0.39695 0.26858 0.95727 0.0
C792 C 0.39485 0.26798 0.02427 0.0
H793 H 0.37049 0.24691 0.32152 0.0
H794 H 0.37245 0.25055 0.21283 0.0
H795 H 0.41349 0.26695 0.15516 0.0
H796 H 0.41781 0.28388 0.85326 0.0
H797 H 0.41317 0.28388 0.96145 0.0
C798 C 0.20107 0.72999 0.4292 0.0
C799 C 0.21122 0.72529 0.38884 0.0
C800 C 0.20404 0.73182 0.49067 0.0
C801 C 0.22465 0.71977 0.61612 0.0
H802 H 0.21584 0.75501 0.68884 0.0
C803 C 0.23062 0.73059 0.87696 0.0
C804 C 0.22071 0.73936 0.90279 0.0
C805 C 0.23116 0.72871 0.81363 0.0
C806 C 0.2182 0.74501 0.66974 0.0
H807 H 0.23244 0.71873 0.38129 0.0
H808 H 0.23759 0.72155 0.4902 0.0
H809 H 0.21359 0.75203 0.57985 0.0
H810 H 0.20304 0.75222 0.88291 0.0
H811 H 0.20363 0.74868 0.77451 0.0
H812 H 0.2286 0.71251 0.70646 0.0
C813 C 0.22737 0.72394 0.47361 0.0
C814 C 0.21702 0.74338 0.60701 0.0
C815 C 0.22446 0.72242 0.41146 0.0
C816 C 0.21107 0.74573 0.86437 0.0
C817 C 0.21147 0.74373 0.80182 0.0
C818 C 0.22562 0.72133 0.67939 0.0
C819 C 0.21717 0.72873 0.51374 0.0
C820 C 0.21999 0.73069 0.57955 0.0
C821 C 0.22166 0.73542 0.77504 0.0
C822 C 0.22209 0.73391 0.70731 0.0
H823 H 0.19082 0.73238 0.41298 0.0
H824 H 0.19598 0.73548 0.52051 0.0
H825 H 0.22696 0.70985 0.59609 0.0
H826 H 0.23813 0.7255 0.90555 0.0
H827 H 0.23916 0.72222 0.79494 0.0
C828 C 0.18967 0.26317 0.54131 0.0
C829 C 0.20091 0.26517 0.58054 0.0
C830 C 0.19089 0.26568 0.47916 0.0
C831 C 0.2128 0.28254 0.36196 0.0
H832 H 0.1955 0.25584 0.25569 0.0
C833 C 0.22637 0.27716 0.10737 0.0
C834 C 0.21589 0.27359 0.06621 0.0
C835 C 0.22375 0.27782 0.16963 0.0
C836 C 0.20021 0.26354 0.28453 0.0
H837 H 0.22219 0.27175 0.58516 0.0
H838 H 0.22443 0.276 0.47622 0.0
H839 H 0.19272 0.25374 0.36481 0.0
H840 H 0.19427 0.26838 0.05836 0.0
H841 H 0.18961 0.26968 0.16717 0.0
H842 H 0.22051 0.29216 0.28129 0.0
C843 C 0.21457 0.27264 0.49374 0.0
C844 C 0.19863 0.26233 0.34735 0.0
C845 C 0.21331 0.2702 0.55624 0.0
C846 C 0.20255 0.27124 0.08871 0.0
C847 C 0.19993 0.27183 0.15118 0.0
C848 C 0.21441 0.28373 0.299 0.0
C849 C 0.20343 0.27018 0.45419 0.0
C850 C 0.20494 0.27178 0.38706 0.0
C851 C 0.21057 0.27487 0.19258 0.0
C852 C 0.20819 0.2742 0.25944 0.0
H853 H 0.17988 0.2596 0.55869 0.0
H854 H 0.18197 0.264 0.45058 0.0
H855 H 0.21765 0.29012 0.39094 0.0
H856 H 0.23671 0.27918 0.09147 0.0
H857 H 0.23221 0.2801 0.19996 0.0
C858 C 0.41194 0.73231 0.49625 0.0
C859 C 0.39858 0.73417 0.47284 0.0
C860 C 0.41413 0.7314 0.5589 0.0
C861 C 0.39656 0.72382 0.704 0.0
H862 H 0.42675 0.74435 0.77513 0.0
C863 C 0.40291 0.72918 0.96412 0.0
C864 C 0.41634 0.72883 0.98814 0.0
C865 C 0.40072 0.72983 0.90139 0.0
C866 C 0.41838 0.73839 0.75608 0.0
H867 H 0.37705 0.73614 0.49709 0.0
H868 H 0.38087 0.73458 0.60622 0.0
H869 H 0.42315 0.74502 0.66585 0.0
H870 H 0.43801 0.72912 0.96386 0.0
H871 H 0.43421 0.72981 0.85519 0.0
H872 H 0.39185 0.71705 0.79399 0.0
C873 C 0.38965 0.73382 0.57616 0.0
C874 C 0.41631 0.7388 0.69329 0.0
C875 C 0.38747 0.73485 0.51359 0.0
C876 C 0.42751 0.72921 0.94748 0.0
C877 C 0.42532 0.72979 0.88482 0.0
C878 C 0.39868 0.72334 0.76677 0.0
C879 C 0.40302 0.73219 0.59966 0.0
C880 C 0.40536 0.73154 0.66644 0.0
C881 C 0.4119 0.7301 0.8608 0.0
C882 C 0.40961 0.73063 0.79378 0.0
H883 H 0.42074 0.73187 0.46626 0.0
H884 H 0.42455 0.73002 0.57543 0.0
H885 H 0.38813 0.71797 0.68474 0.0
H886 H 0.39402 0.72878 0.99359 0.0
H887 H 0.39023 0.73023 0.88479 0.0
C888 C 0.55927 0.10436 0.82093 0.0
C889 C 0.56792 0.09739 0.78016 0.0
C890 C 0.56182 0.1039 0.88313 0.0
C891 C 0.57777 0.08205 0.99818 0.0
H892 H 0.57392 0.11415 0.10136 0.0
C893 C 0.58977 0.08027 0.2541 0.0
C894 C 0.58129 0.08789 0.29338 0.0
C895 C 0.58848 0.08159 0.19136 0.0
C896 C 0.57486 0.10505 0.07329 0.0
H897 H 0.5862 0.08472 0.77236 0.0
H898 H 0.59071 0.0839 0.88149 0.0
H899 H 0.57165 0.11662 0.99176 0.0
H900 H 0.56467 0.10283 0.2969 0.0
H901 H 0.5621 0.10477 0.18752 0.0
H902 H 0.58067 0.07041 0.07947 0.0
C903 C 0.58191 0.08969 0.86512 0.0
C904 C 0.57363 0.10649 1.0105 0.0
C905 C 0.57942 0.09026 0.80272 0.0
C906 C 0.5713 0.09669 0.26821 0.0
C907 C 0.56996 0.09796 0.20537 0.0
C908 C 0.5789 0.08059 0.06096 0.0
C909 C 0.57303 0.09636 0.90597 0.0
C910 C 0.57503 0.095 0.97233 0.0
C911 C 0.57861 0.0905 0.16618 0.0
C912 C 0.57742 0.09207 0.09933 0.0
H913 H 0.55041 0.11005 0.80467 0.0
H914 H 0.55475 0.10907 0.91349 0.0
H915 H 0.57867 0.07297 0.96994 0.0
H916 H 0.59745 0.07325 0.27172 0.0
H917 H 0.59541 0.07578 0.16263 0.0
C918 C 0.02525 0.91141 0.76707 0.0
C919 C 0.03189 0.90229 0.80711 0.0
C920 C 0.02697 0.91015 0.70451 0.0
C921 C 0.05043 0.89576 0.58948 0.0
H922 H 0.01962 0.90246 0.48138 0.0
C923 C 0.05806 0.90495 0.33445 0.0
C924 C 0.0486 0.89905 0.2938 0.0
C925 C 0.0557 0.90458 0.39678 0.0
C926 C 0.02829 0.90042 0.51091 0.0
H927 H 0.04542 0.88457 0.81257 0.0
H928 H 0.04843 0.88234 0.70317 0.0
H929 H 0.01602 0.9028 0.59075 0.0
H930 H 0.02919 0.88815 0.28693 0.0
H931 H 0.02503 0.88746 0.39618 0.0
H932 H 0.06267 0.89322 0.50972 0.0
C933 C 0.04203 0.89059 0.72033 0.0
C934 C 0.02627 0.90077 0.57362 0.0
C935 C 0.04032 0.89188 0.78303 0.0
C936 C 0.03661 0.8929 0.317 0.0
C937 C 0.03424 0.8925 0.37958 0.0
C938 C 0.05245 0.8954 0.52681 0.0
C939 C 0.03537 0.89972 0.68032 0.0
C940 C 0.03735 0.8986 0.61367 0.0
C941 C 0.04381 0.89827 0.4202 0.0
C942 C 0.04144 0.89789 0.48676 0.0
H943 H 0.01887 0.91969 0.78408 0.0
H944 H 0.02192 0.91753 0.67513 0.0
H945 H 0.05921 0.89415 0.61894 0.0
H946 H 0.06726 0.91003 0.31811 0.0
H947 H 0.06312 0.90941 0.42661 0.0
C948 C 0.55634 0.91519 0.2339 0.0
C949 C 0.56403 0.90687 0.27383 0.0
C950 C 0.55776 0.91382 0.17107 0.0
C951 C 0.58136 0.90082 0.05294 0.0
H952 H 0.54869 0.90049 0.95168 0.0
C953 C 0.58437 0.88601 0.801 0.0
C954 C 0.57646 0.8936 0.75938 0.0
C955 C 0.58238 0.88753 0.86333 0.0
C956 C 0.55794 0.90073 0.97914 0.0
H957 H 0.57927 0.89053 0.27803 0.0
H958 H 0.58185 0.88829 0.16879 0.0
H959 H 0.54643 0.90367 0.06099 0.0
H960 H 0.56005 0.90861 0.75071 0.0
H961 H 0.55661 0.91139 0.85978 0.0
H962 H 0.59291 0.89801 0.97143 0.0
C963 C 0.57479 0.89597 0.18623 0.0
C964 C 0.55663 0.90254 0.04186 0.0
C965 C 0.57333 0.89728 0.24906 0.0
C966 C 0.56621 0.9025 0.78157 0.0
C967 C 0.56426 0.90409 0.84415 0.0
C968 C 0.58267 0.89907 0.99031 0.0
C969 C 0.56696 0.90415 0.14645 0.0
C970 C 0.56833 0.90253 0.07956 0.0
C971 C 0.57246 0.89676 0.88587 0.0
C972 C 0.57098 0.8989 0.95255 0.0
H973 H 0.54924 0.92283 0.2511 0.0
H974 H 0.55173 0.92045 0.14174 0.0
H975 H 0.5906 0.901 0.08049 0.0
H976 H 0.59218 0.8789 0.78526 0.0
H977 H 0.58865 0.88145 0.89389 0.0
C978 C 0.02646 0.09373 0.35892 0.0
C979 C 0.03469 0.10157 0.31943 0.0
C980 C 0.02875 0.09399 0.42131 0.0
C981 C 0.05491 0.10185 0.53716 0.0
H982 H 0.02327 0.10214 0.64443 0.0
C983 C 0.05939 0.08999 0.7927 0.0
C984 C 0.05133 0.09776 0.8331 0.0
C985 C 0.05756 0.09123 0.73013 0.0
C986 C 0.03223 0.1022 0.61521 0.0
H987 H 0.05187 0.11578 0.3148 0.0
H988 H 0.0559 0.11624 0.4243 0.0
H989 H 0.01982 0.10325 0.53522 0.0
H990 H 0.03513 0.11308 0.8391 0.0
H991 H 0.03192 0.11524 0.72987 0.0
H992 H 0.06732 0.10094 0.61733 0.0
C993 C 0.04772 0.10981 0.40662 0.0
C994 C 0.03024 0.10267 0.55253 0.0
C995 C 0.04542 0.10955 0.34394 0.0
C996 C 0.04136 0.10678 0.80936 0.0
C997 C 0.03954 0.10804 0.7467 0.0
C998 C 0.0569 0.10137 0.59993 0.0
C999 C 0.03933 0.10209 0.44604 0.0
C1000 C 0.04155 0.10235 0.51272 0.0
C1001 C 0.04763 0.10028 0.70633 0.0
C1002 C 0.04557 0.10141 0.63969 0.0
H1003 H 0.01832 0.08722 0.34163 0.0
H1004 H 0.0223 0.08767 0.45017 0.0
H1005 H 0.06383 0.1015 0.50778 0.0
H1006 H 0.067 0.08278 0.80939 0.0
H1007 H 0.06378 0.0849 0.7004 0.0
C1008 C 0.08778 0.55174 0.03132 0.0
C1009 C 0.07779 0.55466 0.98701 0.0
C1010 C 0.09201 0.53813 0.04176 0.0
C1011 C 0.08945 0.50824 0.08397 0.0
H1012 H 0.09106 0.48115 0.95506 0.0
C1013 C 0.07451 0.45181 0.11938 0.0
C1014 C 0.08114 0.44136 0.0864 0.0
C1015 C 0.07781 0.46562 0.10982 0.0
C1016 C 0.09091 0.48857 0.99169 0.0
H1017 H 0.06496 0.54572 0.91676 0.0
H1018 H 0.07219 0.52217 0.93509 0.0
H1019 H 0.09077 0.50561 0.93001 0.0
H1020 H 0.09685 0.4372 0.01908 0.0
H1021 H 0.10266 0.46147 1.00226 0.0
H1022 H 0.08932 0.4912 0.1456 0.0
C1023 C 0.07688 0.53029 0.96163 0.0
C1024 C 0.09059 0.5026 0.97729 0.0
C1025 C 0.07263 0.54382 0.95148 0.0
C1026 C 0.09153 0.44502 0.04508 0.0
C1027 C 0.09481 0.45891 0.03527 0.0
C1028 C 0.08978 0.49421 0.09837 0.0
C1029 C 0.0864 0.52722 1.00772 0.0
C1030 C 0.08937 0.51258 0.02316 0.0
C1031 C 0.08783 0.46938 0.06693 0.0
C1032 C 0.09003 0.4842 0.05233 0.0
H1033 H 0.09197 0.55988 0.05937 0.0
H1034 H 0.09945 0.53611 0.07726 0.0
H1035 H 0.08846 0.51563 0.12046 0.0
H1036 H 0.06648 0.44936 0.15172 0.0
H1037 H 0.07207 0.47339 0.13436 0.0
C1038 C 0.84573 0.77001 0.1602 0.0
C1039 C 0.85801 0.77574 0.18249 0.0
C1040 C 0.83304 0.77387 0.18441 0.0
C1041 C 0.81793 0.78694 0.32507 0.0
H1042 H 0.78461 0.78656 0.22814 0.0
C1043 C 0.75433 0.78639 0.35066 0.0
C1044 C 0.75343 0.77643 0.39678 0.0
C1045 C 0.76718 0.79024 0.32724 0.0
C1046 C 0.79378 0.78699 0.25598 0.0
H1047 H 0.86658 0.79044 0.24614 0.0
H1048 H 0.8443 0.79728 0.28841 0.0
H1049 H 0.80694 0.78664 0.17827 0.0
H1050 H 0.76532 0.76326 0.45669 0.0
H1051 H 0.78753 0.76974 0.41551 0.0
H1052 H 0.80476 0.78714 0.4028 0.0
C1053 C 0.84454 0.78968 0.25251 0.0
C1054 C 0.80661 0.78686 0.22733 0.0
C1055 C 0.85729 0.78582 0.2281 0.0
C1056 C 0.76563 0.77093 0.421 0.0
C1057 C 0.77842 0.77475 0.39768 0.0
C1058 C 0.8051 0.78714 0.35373 0.0
C1059 C 0.83228 0.78357 0.23156 0.0
C1060 C 0.81883 0.78632 0.26153 0.0
C1061 C 0.77936 0.78422 0.34957 0.0
C1062 C 0.79287 0.78665 0.31956 0.0
H1063 H 0.84591 0.76224 0.125 0.0
H1064 H 0.82387 0.76877 0.16778 0.0
H1065 H 0.82712 0.7865 0.35288 0.0
H1066 H 0.74512 0.79087 0.33119 0.0
H1067 H 0.76754 0.79768 0.29069 0.0
C1068 C 0.52058 0.5533 0.54449 0.0
C1069 C 0.53418 0.55787 0.536 0.0
C1070 C 0.51735 0.53926 0.53836 0.0
C1071 C 0.52963 0.50721 0.46832 0.0
H1072 H 0.51555 0.48798 0.60946 0.0
C1073 C 0.54396 0.45162 0.51783 0.0
C1074 C 0.53431 0.44247 0.54281 0.0
C1075 C 0.54076 0.4655 0.51007 0.0
C1076 C 0.51918 0.4932 0.5691 0.0
H1077 H 0.5549 0.55156 0.51227 0.0
H1078 H 0.54924 0.52733 0.50011 0.0
H1079 H 0.51534 0.51323 0.60683 0.0
H1080 H 0.51363 0.44071 0.57899 0.0
H1081 H 0.50802 0.46523 0.56573 0.0
H1082 H 0.53394 0.48733 0.43126 0.0
C1083 C 0.54109 0.53446 0.51198 0.0
C1084 C 0.51905 0.50764 0.56764 0.0
C1085 C 0.54435 0.54832 0.51935 0.0
C1086 C 0.52127 0.44752 0.55954 0.0
C1087 C 0.51809 0.46154 0.55214 0.0
C1088 C 0.52968 0.49284 0.46959 0.0
C1089 C 0.52762 0.52973 0.52205 0.0
C1090 C 0.5248 0.51475 0.51824 0.0
C1091 C 0.52782 0.47067 0.52717 0.0
C1092 C 0.52502 0.48567 0.52107 0.0
H1093 H 0.51257 0.56047 0.55766 0.0
H1094 H 0.5069 0.53584 0.54647 0.0
H1095 H 0.53395 0.51245 0.42935 0.0
H1096 H 0.5541 0.44811 0.5044 0.0
H1097 H 0.54861 0.47227 0.49188 0.0
C1098 C 0.85619 0.2388 0.7747 0.0
C1099 C 0.86742 0.23033 0.75988 0.0
C1100 C 0.8428 0.2348 0.76053 0.0
C1101 C 0.82231 0.2185 0.6511 0.0
H1102 H 0.7941 0.21795 0.77568 0.0
C1103 C 0.76667 0.23674 0.61821 0.0
C1104 C 0.75587 0.22927 0.64489 0.0
C1105 C 0.78032 0.23265 0.62645 0.0
C1106 C 0.80186 0.21778 0.74041 0.0
H1107 H 0.8735 0.21105 0.71839 0.0
H1108 H 0.84981 0.20427 0.69081 0.0
H1109 H 0.81843 0.21856 0.80464 0.0
H1110 H 0.75079 0.21143 0.69952 0.0
H1111 H 0.77487 0.20451 0.71586 0.0
H1112 H 0.8057 0.21885 0.58686 0.0
C1113 C 0.85151 0.21387 0.71465 0.0
C1114 C 0.81575 0.21817 0.75699 0.0
C1115 C 0.86499 0.21773 0.73038 0.0
C1116 C 0.75894 0.21733 0.67828 0.0
C1117 C 0.77267 0.21339 0.68772 0.0
C1118 C 0.80839 0.21837 0.63448 0.0
C1119 C 0.84033 0.22238 0.73004 0.0
C1120 C 0.82605 0.21892 0.7125 0.0
C1121 C 0.78349 0.22115 0.66255 0.0
C1122 C 0.79804 0.21842 0.67905 0.0
H1123 H 0.85774 0.24852 0.79787 0.0
H1124 H 0.83434 0.24157 0.7723 0.0
H1125 H 0.8301 0.21921 0.61609 0.0
H1126 H 0.76457 0.24595 0.59201 0.0
H1127 H 0.78844 0.23891 0.60713 0.0
C1128 C 0.25084 0.2829 0.72963 0.0
C1129 C 0.24888 0.27001 0.75745 0.0
C1130 C 0.26413 0.28724 0.71333 0.0
C1131 C 0.30057 0.28245 0.74921 0.0
H1132 H 0.30839 0.28578 0.57752 0.0
C1133 C 0.35629 0.28278 0.65733 0.0
C1134 C 0.35814 0.27136 0.61917 0.0
C1135 C 0.34295 0.28736 0.67133 0.0
C1136 C 0.30633 0.28518 0.6257 0.0
H1137 H 0.25921 0.25181 0.79196 0.0
H1138 H 0.28227 0.25952 0.76518 0.0
H1139 H 0.28443 0.28498 0.61237 0.0
H1140 H 0.34781 0.25637 0.56254 0.0
H1141 H 0.32467 0.26457 0.58531 0.0
H1142 H 0.32241 0.2819 0.76244 0.0
C1143 C 0.2736 0.2662 0.75533 0.0
C1144 C 0.29265 0.28478 0.64559 0.0
C1145 C 0.26039 0.26174 0.77011 0.0
C1146 C 0.34661 0.26518 0.59223 0.0
C1147 C 0.33339 0.26994 0.60491 0.0
C1148 C 0.31422 0.28309 0.72947 0.0
C1149 C 0.27561 0.27892 0.72643 0.0
C1150 C 0.28968 0.28281 0.70724 0.0
C1151 C 0.33138 0.28081 0.64592 0.0
C1152 C 0.31723 0.28384 0.6673 0.0
H1153 H 0.24211 0.28945 0.71934 0.0
H1154 H 0.26545 0.29706 0.69068 0.0
H1155 H 0.2985 0.28094 0.79701 0.0
H1156 H 0.36506 0.28763 0.67888 0.0
H1157 H 0.34166 0.29572 0.70331 0.0
C1158 C 0.26263 0.73119 0.20507 0.0
C1159 C 0.25308 0.72456 0.16726 0.0
C1160 C 0.27635 0.72698 0.20637 0.0
C1161 C 0.30261 0.7125 0.11029 0.0
H1162 H 0.32372 0.71169 0.25962 0.0
C1163 C 0.36277 0.71187 0.20324 0.0
C1164 C 0.36759 0.72329 0.17036 0.0
C1165 C 0.34898 0.70776 0.19838 0.0
C1166 C 0.31798 0.71159 0.2175 0.0
H1167 H 0.2503 0.70812 0.10196 0.0
H1168 H 0.27457 0.70093 0.10306 0.0
H1169 H 0.29861 0.7122 0.26379 0.0
H1170 H 0.36214 0.73872 0.10343 0.0
H1171 H 0.33823 0.7315 0.09447 0.0
H1172 H 0.32203 0.71263 0.06406 0.0
C1173 C 0.27132 0.70931 0.13212 0.0
C1174 C 0.30361 0.71199 0.21993 0.0
C1175 C 0.25746 0.71339 0.13164 0.0
C1176 C 0.35868 0.72994 0.12964 0.0
C1177 C 0.345 0.72572 0.12413 0.0
C1178 C 0.31701 0.71223 0.10785 0.0
C1179 C 0.2809 0.71615 0.16925 0.0
C1180 C 0.29581 0.71292 0.16642 0.0
C1181 C 0.33989 0.71487 0.15976 0.0
C1182 C 0.32484 0.71224 0.1615 0.0
H1183 H 0.25954 0.73979 0.23327 0.0
H1184 H 0.28353 0.73256 0.23481 0.0
H1185 H 0.29686 0.71327 0.06834 0.0
H1186 H 0.36943 0.70657 0.23503 0.0
H1187 H 0.34532 0.69932 0.22617 0.0
C1188 C 0.57503 0.04251 0.62362 0.0
C1189 C 0.58205 0.05217 0.58784 0.0
C1190 C 0.57972 0.02896 0.62765 0.0
C1191 C 0.596 0.00328 0.53525 0.0
H1192 H 0.59358 0.98137 0.68187 0.0
C1193 C 0.59249 0.94366 0.52786 0.0
C1194 C 0.58142 0.93859 0.56231 0.0
C1195 C 0.59709 0.95725 0.5358 0.0
C1196 C 0.59437 0.98733 0.64051 0.0
H1197 H 0.59975 0.05546 0.52985 0.0
H1198 H 0.6078 0.03147 0.53556 0.0
H1199 H 0.59367 0.00646 0.68875 0.0
H1200 H 0.56695 0.94353 0.63395 0.0
H1201 H 0.57481 0.96698 0.64741 0.0
H1202 H 0.59572 0.98419 0.48667 0.0
C1203 C 0.59877 0.0345 0.5611 0.0
C1204 C 0.59448 0.00169 0.64452 0.0
C1205 C 0.59422 0.0482 0.55812 0.0
C1206 C 0.57545 0.94713 0.60637 0.0
C1207 C 0.58007 0.96057 0.6146 0.0
C1208 C 0.59579 0.98889 0.53117 0.0
C1209 C 0.59139 0.0247 0.59506 0.0
C1210 C 0.59471 0.0098 0.59182 0.0
C1211 C 0.5908 0.96591 0.57886 0.0
C1212 C 0.59434 0.98078 0.58365 0.0
H1213 H 0.56563 0.04532 0.64699 0.0
H1214 H 0.57373 0.02162 0.65359 0.0
H1215 H 0.5961 0.00929 0.49384 0.0
H1216 H 0.59731 0.93729 0.4936 0.0
H1217 H 0.60541 0.96105 0.50771 0.0
C1218 C 0.04719 0.9519 0.10722 0.0
C1219 C 0.0376 0.94268 0.08246 0.0
C1220 C 0.04383 0.96575 0.11495 0.0
C1221 C 0.02425 0.99329 0.04948 0.0
H1222 H 0.03371 0.01233 0.19824 0.0
C1223 C 0.02581 0.05326 0.06803 0.0
C1224 C 0.03776 0.05827 0.09657 0.0
C1225 C 0.02253 0.03918 0.07054 0.0
C1226 C 0.031 0.00719 0.15633 0.0
H1227 H 0.01691 0.94061 0.04668 0.0
H1228 H 0.01114 0.96518 0.05857 0.0
H1229 H 0.03383 0.98722 0.19575 0.0
H1230 H 0.05553 0.05242 0.15057 0.0
H1231 H 0.04997 0.02817 0.15431 0.0
H1232 H 0.02228 0.01329 1.00896 0.0
C1233 C 0.02118 0.96154 0.07278 0.0
C1234 C 0.031 0.99282 0.15509 0.0
C1235 C 0.02445 0.94753 0.06629 0.0
C1236 C 0.04623 0.04897 0.12812 0.0
C1237 C 0.04296 0.03502 0.1308 0.0
C1238 C 0.02438 0.00773 0.05053 0.0
C1239 C 0.03089 0.97076 0.09704 0.0
C1240 C 0.02809 0.98574 0.10117 0.0
C1241 C 0.0311 0.0299 0.1021 0.0
C1242 C 0.02829 0.01483 0.10342 0.0
H1243 H 0.05739 0.94844 0.12016 0.0
H1244 H 0.05156 0.97266 0.13317 0.0
H1245 H 0.02204 0.98805 1.00724 0.0
H1246 H 0.01908 0.06018 0.04336 0.0
H1247 H 0.01331 0.03555 0.04802 0.0
C1248 C 0.18531 0.69031 0.1243 0.0
C1249 C 0.19109 0.69493 0.06951 0.0
C1250 C 0.17573 0.67951 0.12452 0.0
C1251 C 0.15707 0.65397 0.11348 0.0
H1252 H 0.13143 0.65849 0.98014 0.0
C1253 C 0.10941 0.61848 0.0589 0.0
C1254 C 0.09772 0.62557 0.03787 0.0
C1255 C 0.12163 0.6257 0.07114 0.0
C1256 C 0.13845 0.6571 0.01785 0.0
H1257 H 0.19269 0.69072 0.97324 0.0
H1258 H 0.17644 0.6717 0.9739 0.0
H1259 H 0.15201 0.67247 0.9837 0.0
H1260 H 0.08913 0.64573 0.01895 0.0
H1261 H 0.11017 0.65826 0.04148 0.0
H1262 H 0.14298 0.63877 0.14816 0.0
C1263 C 0.17879 0.67678 0.01637 0.0
C1264 C 0.1504 0.66498 0.01943 0.0
C1265 C 0.18816 0.68766 0.01604 0.0
C1266 C 0.09808 0.63999 0.03408 0.0
C1267 C 0.11014 0.64716 0.04674 0.0
C1268 C 0.14501 0.64598 0.11177 0.0
C1269 C 0.17194 0.67301 0.07004 0.0
C1270 C 0.15983 0.66364 0.06741 0.0
C1271 C 0.12222 0.64007 0.06274 0.0
C1272 C 0.13547 0.64769 0.06439 0.0
H1273 H 0.18756 0.69548 0.16649 0.0
H1274 H 0.1707 0.67685 0.16673 0.0
H1275 H 0.16416 0.65264 0.15092 0.0
H1276 H 0.10936 0.60734 0.06207 0.0
H1277 H 0.13079 0.61999 0.0836 0.0
C1278 C 0.60051 0.85682 0.43433 0.0
C1279 C 0.6019 0.87059 0.45254 0.0
C1280 C 0.61136 0.85004 0.40586 0.0
C1281 C 0.64776 0.8477 0.4106 0.0
H1282 H 0.64341 0.82413 0.27006 0.0
C1283 C 0.68765 0.80544 0.35825 0.0
C1284 C 0.68202 0.7926 0.34236 0.0
C1285 C 0.67949 0.81733 0.35732 0.0
C1286 C 0.64481 0.8306 0.30953 0.0
H1287 H 0.61549 0.88827 0.45419 0.0
H1288 H 0.63492 0.87609 0.40622 0.0
H1289 H 0.62564 0.84104 0.29433 0.0
H1290 H 0.66357 0.78226 0.31078 0.0
H1291 H 0.6493 0.80273 0.31109 0.0
H1292 H 0.66629 0.83661 0.42911 0.0
C1293 C 0.62527 0.87071 0.41303 0.0
C1294 C 0.63469 0.84037 0.32296 0.0
C1295 C 0.61421 0.87765 0.4402 0.0
C1296 C 0.66825 0.79199 0.32312 0.0
C1297 C 0.66007 0.80381 0.32286 0.0
C1298 C 0.65778 0.83776 0.3978 0.0
C1299 C 0.62395 0.85679 0.39627 0.0
C1300 C 0.63589 0.84871 0.37463 0.0
C1301 C 0.66548 0.81662 0.34109 0.0
C1302 C 0.65619 0.82875 0.34826 0.0
H1303 H 0.59107 0.85121 0.44316 0.0
H1304 H 0.61013 0.83927 0.39399 0.0
H1305 H 0.64884 0.85391 0.45109 0.0
H1306 H 0.69828 0.80627 0.37269 0.0
H1307 H 0.68411 0.82703 0.37054 0.0
C1308 C 0.49438 0.38107 0.56696 0.0
C1309 C 0.49901 0.38211 0.62722 0.0
C1310 C 0.48303 0.37286 0.55247 0.0
C1311 C 0.45231 0.35532 0.61024 0.0
H1312 H 0.46235 0.32633 0.49799 0.0
C1313 C 0.42214 0.30418 0.59245 0.0
C1314 C 0.42353 0.29617 0.53997 0.0
C1315 C 0.42887 0.3169 0.59698 0.0
C1316 C 0.45909 0.33451 0.52804 0.0
H1317 H 0.49454 0.37627 0.72016 0.0
H1318 H 0.4745 0.36215 0.69471 0.0
H1319 H 0.47841 0.34485 0.51796 0.0
H1320 H 0.43192 0.29544 0.44938 0.0
H1321 H 0.44271 0.31809 0.45488 0.0
H1322 H 0.43291 0.3451 0.62 0.0
C1323 C 0.47984 0.36756 0.65875 0.0
C1324 C 0.46842 0.3451 0.53981 0.0
C1325 C 0.49136 0.3756 0.6732 0.0
C1326 C 0.43073 0.30151 0.49026 0.0
C1327 C 0.43709 0.31439 0.494 0.0
C1328 C 0.44281 0.34484 0.59748 0.0
C1329 C 0.47586 0.36577 0.59805 0.0
C1330 C 0.46524 0.35546 0.58178 0.0
C1331 C 0.43689 0.32195 0.54855 0.0
C1332 C 0.44617 0.33411 0.55704 0.0
H1333 H 0.49977 0.38622 0.53055 0.0
H1334 H 0.48005 0.37177 0.50538 0.0
H1335 H 0.44961 0.36326 0.64259 0.0
H1336 H 0.41682 0.30012 0.63175 0.0
H1337 H 0.4285 0.32223 0.63998 0.0
C1338 C 0.00179 0.11981 0.98076 0.0
C1339 C 0.00762 0.12558 0.03327 0.0
C1340 C 0.9904 0.12609 0.95282 0.0
C1341 C 0.97289 0.14702 0.88272 0.0
H1342 H 0.947 0.16755 0.98134 0.0
C1343 C 0.94515 0.19499 0.7939 0.0
C1344 C 0.9325 0.19916 0.81887 0.0
C1345 C 0.95186 0.18324 0.81522 0.0
C1346 C 0.95389 0.16169 0.95271 0.0
H1347 H 0.00597 0.14239 0.09777 0.0
H1348 H 0.98664 0.15337 0.04887 0.0
H1349 H 0.96284 0.15161 0.02931 0.0
H1350 H 0.91657 0.19372 0.88341 0.0
H1351 H 0.92812 0.17291 0.91956 0.0
H1352 H 0.96381 0.15699 0.80598 0.0
C1353 C 0.9905 0.14386 0.02971 0.0
C1354 C 0.96317 0.15267 0.98046 0.0
C1355 C 0.00175 0.1376 0.05752 0.0
C1356 C 0.92637 0.19086 0.86356 0.0
C1357 C 0.93304 0.17897 0.88453 0.0
C1358 C 0.96347 0.15592 0.85481 0.0
C1359 C 0.98466 0.13825 0.97694 0.0
C1360 C 0.97318 0.14567 0.94615 0.0
C1361 C 0.94606 0.1752 0.86169 0.0
C1362 C 0.95422 0.16381 0.88967 0.0
H1363 H 0.00607 0.11054 0.96101 0.0
H1364 H 0.98612 0.12145 0.91237 0.0
H1365 H 0.98041 0.1418 0.85475 0.0
H1366 H 0.95019 0.20111 0.75932 0.0
H1367 H 0.96194 0.18089 0.79704 0.0
C1368 C 0.17132 0.30465 0.79267 0.0
C1369 C 0.18397 0.30041 0.8174 0.0
C1370 C 0.16462 0.31633 0.81468 0.0
C1371 C 0.15307 0.34353 0.85589 0.0
H1372 H 0.15379 0.34723 0.03065 0.0
C1373 C 0.11506 0.37945 0.98366 0.0
C1374 C 0.10923 0.37362 0.03605 0.0
C1375 C 0.12637 0.37315 0.95543 0.0
C1376 C 0.15344 0.34633 0.98175 0.0
H1377 H 0.19994 0.30563 0.88215 0.0
H1378 H 0.18843 0.32632 0.91948 0.0
H1379 H 0.16955 0.3314 0.9817 0.0
H1380 H 0.11079 0.35666 0.09999 0.0
H1381 H 0.13001 0.34563 0.05049 0.0
H1382 H 0.13618 0.3577 0.85669 0.0
C1383 C 0.18348 0.32037 0.88414 0.0
C1384 C 0.16267 0.33739 0.95344 0.0
C1385 C 0.19014 0.30855 0.8625 0.0
C1386 C 0.11502 0.3615 0.05987 0.0
C1387 C 0.1262 0.35522 0.0317 0.0
C1388 C 0.1437 0.35235 0.88436 0.0
C1389 C 0.17045 0.32422 0.86158 0.0
C1390 C 0.16231 0.3355 0.89027 0.0
C1391 C 0.13204 0.3609 0.97906 0.0
C1392 C 0.14345 0.35349 0.94786 0.0
H1393 H 0.16626 0.29864 0.75781 0.0
H1394 H 0.15453 0.31875 0.79669 0.0
H1395 H 0.15272 0.34263 0.80701 0.0
H1396 H 0.11084 0.3888 0.96427 0.0
H1397 H 0.13066 0.37786 0.91513 0.0
C1398 C 0.00178 0.87718 0.13801 0.0
C1399 C 0.0048 0.87593 0.07592 0.0
C1400 C 0.99089 0.86967 0.16364 0.0
C1401 C 0.97408 0.84487 0.20869 0.0
H1402 H 0.94152 0.83726 0.11263 0.0
C1403 C 0.94226 0.79524 0.23577 0.0
C1404 C 0.92832 0.79517 0.21886 0.0
C1405 C 0.95011 0.80725 0.2303 0.0
C1406 C 0.95036 0.83942 0.141 0.0
H1407 H 0.99847 0.86622 0.99181 0.0
H1408 H 0.97981 0.85316 0.03611 0.0
H1409 H 0.95743 0.85501 0.0801 0.0
H1410 H 0.91137 0.80787 0.18766 0.0
H1411 H 0.92491 0.82894 0.18009 0.0
H1412 H 0.96695 0.82926 0.26973 0.0
C1413 C 0.98564 0.85999 0.06521 0.0
C1414 C 0.95961 0.84951 0.12175 0.0
C1415 C 0.99648 0.86741 0.03983 0.0
C1416 C 0.92216 0.80756 0.2002 0.0
C1417 C 0.92995 0.81962 0.19554 0.0
C1418 C 0.96473 0.83483 0.22832 0.0
C1419 C 0.98277 0.86089 0.12749 0.0
C1420 C 0.97184 0.85201 0.15409 0.0
C1421 C 0.94415 0.81953 0.20853 0.0
C1422 C 0.95297 0.83165 0.19364 0.0
H1423 H 0.00803 0.88365 0.16703 0.0
H1424 H 0.98889 0.87065 0.21172 0.0
H1425 H 0.98339 0.84651 0.23471 0.0
H1426 H 0.94733 0.78585 0.25021 0.0
H1427 H 0.96103 0.80667 0.24009 0.0
C1428 C 0.50346 0.64117 0.51737 0.0
C1429 C 0.50499 0.62687 0.51112 0.0
C1430 C 0.49297 0.64813 0.48705 0.0
C1431 C 0.46615 0.66029 0.44826 0.0
H1432 H 0.45262 0.64843 0.29166 0.0
C1433 C 0.42292 0.69064 0.33153 0.0
C1434 C 0.42324 0.69172 0.26823 0.0
C1435 C 0.4314 0.6812 0.36146 0.0
C1436 C 0.45637 0.65204 0.33504 0.0
H1437 H 0.49683 0.60859 0.46802 0.0
H1438 H 0.47788 0.62062 0.41736 0.0
H1439 H 0.47087 0.6355 0.34097 0.0
H1440 H 0.43252 0.68384 0.18618 0.0
H1441 H 0.44802 0.66803 0.23812 0.0
H1442 H 0.45259 0.6774 0.44065 0.0
C1443 C 0.48505 0.62658 0.44422 0.0
C1444 C 0.46672 0.64442 0.36398 0.0
C1445 C 0.49585 0.61964 0.47351 0.0
C1446 C 0.432 0.68306 0.23512 0.0
C1447 C 0.44083 0.67393 0.26512 0.0
C1448 C 0.4561 0.66808 0.41874 0.0
C1449 C 0.48341 0.64095 0.4509 0.0
C1450 C 0.47188 0.64853 0.4208 0.0
C1451 C 0.44082 0.67298 0.32892 0.0
C1452 C 0.45107 0.66414 0.36148 0.0
H1453 H 0.51054 0.64705 0.54516 0.0
H1454 H 0.49246 0.65922 0.49181 0.0
H1455 H 0.46948 0.66365 0.49268 0.0
H1456 H 0.41612 0.69714 0.35795 0.0
H1457 H 0.43065 0.68054 0.4103 0.0
C1458 C 0.68613 0.19472 0.62504 0.0
C1459 C 0.69391 0.19804 0.57343 0.0
C1460 C 0.67728 0.18333 0.62474 0.0
C1461 C 0.66058 0.15677 0.61929 0.0
H1462 H 0.64215 0.15225 0.46477 0.0
C1463 C 0.61594 0.11729 0.57442 0.0
C1464 C 0.60549 0.12198 0.53543 0.0
C1465 C 0.62778 0.12532 0.58398 0.0
C1466 C 0.64711 0.15342 0.50845 0.0
H1467 H 0.6996 0.19129 0.48333 0.0
H1468 H 0.68479 0.17108 0.48373 0.0
H1469 H 0.66133 0.16795 0.47261 0.0
H1470 H 0.59869 0.13911 0.47975 0.0
H1471 H 0.61887 0.15316 0.49779 0.0
H1472 H 0.64561 0.1427 0.65541 0.0
C1473 C 0.68494 0.1776 0.52354 0.0
C1474 C 0.65835 0.16227 0.51276 0.0
C1475 C 0.69353 0.18913 0.5234 0.0
C1476 C 0.60671 0.13508 0.50902 0.0
C1477 C 0.61834 0.14311 0.51908 0.0
C1478 C 0.64917 0.14795 0.61504 0.0
C1479 C 0.67623 0.17487 0.57314 0.0
C1480 C 0.66515 0.16426 0.56835 0.0
C1481 C 0.62924 0.13819 0.55505 0.0
C1482 C 0.64212 0.14644 0.55976 0.0
H1483 H 0.68622 0.20132 0.66434 0.0
H1484 H 0.67073 0.18167 0.66372 0.0
H1485 H 0.66567 0.15788 0.66269 0.0
H1486 H 0.61522 0.10722 0.59539 0.0
H1487 H 0.63597 0.12126 0.61211 0.0
C1488 C 0.02965 0.34886 1.00227 0.0
C1489 C 0.03468 0.35064 0.06137 0.0
C1490 C 0.01958 0.33902 0.98998 0.0
C1491 C 0.99332 0.31645 0.06293 0.0
H1492 H 0.99453 0.29839 0.90622 0.0
C1493 C 0.95838 0.27032 0.98845 0.0
C1494 C 0.95136 0.27261 0.9336 0.0
C1495 C 0.9686 0.2795 1.00783 0.0
C1496 C 0.99407 0.30337 0.95011 0.0
H1497 H 0.03306 0.34369 0.15426 0.0
H1498 H 0.01574 0.32599 0.13265 0.0
H1499 H 0.01254 0.31466 0.93368 0.0
H1500 H 0.94956 0.28612 0.8558 0.0
H1501 H 0.96765 0.30196 0.8889 0.0
H1502 H 0.97495 0.30469 0.07933 0.0
C1503 C 0.01936 0.33242 0.09584 0.0
C1504 C 0.00433 0.31279 0.96582 0.0
C1505 C 0.02932 0.34249 0.1083 0.0
C1506 C 0.95476 0.28418 0.89844 0.0
C1507 C 0.96514 0.29318 0.91717 0.0
C1508 C 0.98317 0.30681 0.04752 0.0
C1509 C 0.01442 0.33049 0.03632 0.0
C1510 C 0.00396 0.3197 0.02192 0.0
C1511 C 0.97216 0.29092 0.97196 0.0
C1512 C 0.98334 0.30039 0.99052 0.0
H1513 H 0.03343 0.35523 0.96548 0.0
H1514 H 0.01578 0.3382 0.94399 0.0
H1515 H 0.99258 0.32162 0.10625 0.0
H1516 H 0.95589 0.26148 0.01641 0.0
H1517 H 0.97391 0.27754 0.05015 0.0
C1518 C 0.53162 0.1505 0.47846 0.0
C1519 C 0.52916 0.13656 0.49185 0.0
C1520 C 0.52088 0.1601 0.48046 0.0
C1521 C 0.4877 0.16598 0.55441 0.0
H1522 H 0.48299 0.19463 0.43351 0.0
C1523 C 0.44601 0.21099 0.48841 0.0
C1524 C 0.44439 0.21745 0.54507 0.0
C1525 C 0.45618 0.20098 0.47981 0.0
C1526 C 0.48414 0.18664 0.46744 0.0
H1527 H 0.51348 0.12172 0.51719 0.0
H1528 H 0.49474 0.13847 0.52044 0.0
H1529 H 0.50092 0.17719 0.41998 0.0
H1530 H 0.45239 0.21849 0.63685 0.0
H1531 H 0.46993 0.20084 0.62202 0.0
H1532 H 0.47099 0.17545 0.60207 0.0
C1533 C 0.50498 0.14197 0.50848 0.0
C1534 C 0.49446 0.17673 0.45992 0.0
C1535 C 0.51568 0.13236 0.50595 0.0
C1536 C 0.45317 0.21358 0.59292 0.0
C1537 C 0.46325 0.20349 0.58443 0.0
C1538 C 0.47748 0.17595 0.56222 0.0
C1539 C 0.5075 0.15597 0.49651 0.0
C1540 C 0.49634 0.1663 0.50336 0.0
C1541 C 0.46488 0.1971 0.52778 0.0
C1542 C 0.47561 0.18641 0.5189 0.0
H1543 H 0.54189 0.15402 0.46723 0.0
H1544 H 0.52315 0.17083 0.47138 0.0
H1545 H 0.489 0.15815 0.58896 0.0
H1546 H 0.43929 0.2135 0.4508 0.0
H1547 H 0.45709 0.1961 0.43585 0.0
C1548 C 0.65027 0.73125 0.47675 0.0
C1549 C 0.66403 0.72775 0.48993 0.0
C1550 C 0.63954 0.72216 0.49071 0.0
C1551 C 0.63283 0.68549 0.50941 0.0
H1552 H 0.59927 0.69662 0.59093 0.0
C1553 C 0.59229 0.64534 0.57702 0.0
C1554 C 0.57829 0.64882 0.57079 0.0
C1555 C 0.60252 0.65537 0.57168 0.0
C1556 C 0.60849 0.69336 0.5674 0.0
H1557 H 0.6771 0.71219 0.5313 0.0
H1558 H 0.65844 0.69624 0.55371 0.0
H1559 H 0.6174 0.71358 0.57224 0.0
H1560 H 0.56416 0.66584 0.55609 0.0
H1561 H 0.58202 0.6832 0.54387 0.0
H1562 H 0.62394 0.66546 0.50241 0.0
C1563 C 0.65602 0.70597 0.53209 0.0
C1564 C 0.61888 0.70308 0.55694 0.0
C1565 C 0.66671 0.7151 0.51887 0.0
C1566 C 0.57482 0.6627 0.56029 0.0
C1567 C 0.58509 0.67273 0.5541 0.0
C1568 C 0.62241 0.67584 0.51905 0.0
C1569 C 0.64235 0.70933 0.51754 0.0
C1570 C 0.63119 0.6992 0.52824 0.0
C1571 C 0.59909 0.66916 0.55891 0.0
C1572 C 0.61013 0.67959 0.54861 0.0
H1573 H 0.64781 0.74082 0.45399 0.0
H1574 H 0.62909 0.72496 0.47868 0.0
H1575 H 0.64213 0.68227 0.48624 0.0
H1576 H 0.59546 0.63477 0.58418 0.0
H1577 H 0.61315 0.65225 0.57699 0.0
C1578 C 0.0754 0.83707 0.03024 0.0
C1579 C 0.07914 0.85106 0.03151 0.0
C1580 C 0.08527 0.82679 0.03956 0.0
C1581 C 0.12298 0.82045 0.04068 0.0
H1582 H 0.1134 0.78987 0.14578 0.0
C1583 C 0.16408 0.78338 0.13494 0.0
C1584 C 0.16102 0.76923 0.13328 0.0
C1585 C 0.15387 0.79316 0.12292 0.0
C1586 C 0.1162 0.79827 0.11587 0.0
H1587 H 0.09625 0.86518 0.04352 0.0
H1588 H 0.11342 0.84731 0.05958 0.0
H1589 H 0.09605 0.80716 0.12078 0.0
H1590 H 0.14472 0.75427 0.11977 0.0
H1591 H 0.1269 0.77136 0.09833 0.0
H1592 H 0.14316 0.81163 0.03621 0.0
C1593 C 0.1029 0.84424 0.05037 0.0
C1594 C 0.10624 0.80816 0.10138 0.0
C1595 C 0.09304 0.85451 0.04099 0.0
C1596 C 0.14743 0.7651 0.12092 0.0
C1597 C 0.13719 0.77489 0.1091 0.0
C1598 C 0.13293 0.81059 0.05529 0.0
C1599 C 0.09912 0.83026 0.05048 0.0
C1600 C 0.10954 0.81942 0.06384 0.0
C1601 C 0.14035 0.78902 0.1091 0.0
C1602 C 0.12968 0.79942 0.09332 0.0
H1603 H 0.0648 0.83408 0.02249 0.0
H1604 H 0.08205 0.81611 0.03837 0.0
H1605 H 0.12581 0.82885 1.01085 0.0
H1606 H 0.17447 0.78691 0.14364 0.0
H1607 H 0.15659 0.80398 0.12409 0.0
C1608 C 0.95836 0.72926 0.07858 0.0
C1609 C 0.94477 0.72812 0.05683 0.0
C1610 C 0.96825 0.71933 0.06391 0.0
C1611 C 0.97108 0.68301 0.03094 0.0
H1612 H 0.00795 0.69128 0.97371 0.0
C1613 C 0.01693 0.6454 0.04931 0.0
C1614 C 0.02429 0.64294 0.99563 0.0
C1615 C 0.00699 0.65578 0.05163 0.0
C1616 C 0.99765 0.68885 0.98935 0.0
H1617 H 0.93127 0.71595 0.99927 0.0
H1618 H 0.94839 0.69838 0.97608 0.0
H1619 H 0.99114 0.70999 0.98603 0.0
H1620 H 0.02715 0.64934 0.90247 0.0
H1621 H 0.00993 0.66789 0.90708 0.0
H1622 H 0.9777 0.66198 0.03635 0.0
C1623 C 0.9513 0.70698 1.00462 0.0
C1624 C 0.9881 0.69952 0.99668 0.0
C1625 C 0.94148 0.71701 0.01838 0.0
C1626 C 0.02156 0.65105 0.94426 0.0
C1627 C 0.0118 0.66166 0.94698 0.0
C1628 C 0.9807 0.67241 0.0248 0.0
C1629 C 0.96471 0.70794 0.02791 0.0
C1630 C 0.97474 0.69669 0.01765 0.0
C1631 C 0.00441 0.66406 1.00067 0.0
C1632 C 0.99407 0.67524 1.00417 0.0
H1633 H 0.96127 0.73754 0.10883 0.0
H1634 H 0.97851 0.72024 0.08279 0.0
H1635 H 0.96087 0.68058 0.04764 0.0
H1636 H 0.01882 0.63922 0.08939 0.0
H1637 H 0.00147 0.6575 0.09361 0.0
C1638 C 0.16902 0.21548 0.97164 0.0
C1639 C 0.16511 0.2272 0.93811 0.0
C1640 C 0.15914 0.20608 0.99207 0.0
C1641 C 0.12272 0.20199 0.03019 0.0
H1642 H 0.12775 0.16375 0.98407 0.0
C1643 C 0.08729 0.15672 0.10832 0.0
C1644 C 0.08209 0.14882 0.06016 0.0
C1645 C 0.09764 0.16651 0.09796 0.0
C1646 C 0.12627 0.17438 0.99749 0.0
H1647 H 0.14753 0.23819 0.9008 0.0
H1648 H 0.13034 0.22204 0.93851 0.0
H1649 H 0.14554 0.1807 0.95922 0.0
H1650 H 0.08378 0.14465 0.96397 0.0
H1651 H 0.10204 0.1615 0.94619 0.0
H1652 H 0.10342 0.19562 0.06845 0.0
C1653 C 0.1411 0.22017 0.94865 0.0
C1654 C 0.13645 0.18405 0.9836 0.0
C1655 C 0.15098 0.22946 0.92729 0.0
C1656 C 0.08752 0.15072 1.00175 0.0
C1657 C 0.09801 0.16027 0.99166 0.0
C1658 C 0.11264 0.19226 0.04513 0.0
C1659 C 0.1451 0.2083 0.98048 0.0
C1660 C 0.13469 0.19797 0.99906 0.0
C1661 C 0.10315 0.16827 0.03957 0.0
C1662 C 0.11424 0.17841 0.02807 0.0
H1663 H 0.17973 0.21351 0.98223 0.0
H1664 H 0.16248 0.19706 0.01707 0.0
H1665 H 0.12116 0.21266 0.04278 0.0
H1666 H 0.08326 0.15541 0.15373 0.0
H1667 H 0.10148 0.17254 0.13563 0.0
C1668 C 0.66341 0.2854 0.64081 0.0
C1669 C 0.66125 0.27108 0.64246 0.0
C1670 C 0.65231 0.29446 0.63493 0.0
C1671 C 0.61478 0.2975 0.65561 0.0
H1672 H 0.61841 0.32781 0.54203 0.0
C1673 C 0.57975 0.34304 0.53626 0.0
C1674 C 0.57331 0.34873 0.58755 0.0
C1675 C 0.5898 0.33283 0.54255 0.0
C1676 C 0.61718 0.31934 0.57356 0.0
H1677 H 0.64568 0.25508 0.64075 0.0
H1678 H 0.62624 0.27095 0.63037 0.0
H1679 H 0.63734 0.31155 0.55454 0.0
H1680 H 0.57229 0.34789 0.68577 0.0
H1681 H 0.58969 0.32995 0.69656 0.0
H1682 H 0.59459 0.30533 0.67452 0.0
C1683 C 0.63656 0.27514 0.63373 0.0
C1684 C 0.62809 0.31011 0.58124 0.0
C1685 C 0.64769 0.26605 0.63918 0.0
C1686 C 0.57687 0.34362 0.64519 0.0
C1687 C 0.58688 0.33335 0.65144 0.0
C1688 C 0.60389 0.30681 0.64825 0.0
C1689 C 0.63876 0.28944 0.63087 0.0
C1690 C 0.62704 0.29912 0.62248 0.0
C1691 C 0.59362 0.32799 0.60025 0.0
C1692 C 0.60498 0.31784 0.60717 0.0
H1693 H 0.67374 0.28961 0.64258 0.0
H1694 H 0.65434 0.30544 0.63354 0.0
H1695 H 0.6137 0.28918 0.68798 0.0
H1696 H 0.57709 0.34655 0.49113 0.0
H1697 H 0.59464 0.32874 0.50217 0.0
C1698 C 0.53416 0.83796 0.4643 0.0
C1699 C 0.52994 0.85111 0.48343 0.0
C1700 C 0.52445 0.82787 0.44982 0.0
C1701 C 0.48862 0.8243 0.39869 0.0
H1702 H 0.49431 0.78567 0.4362 0.0
C1703 C 0.4579 0.76914 0.37754 0.0
C1704 C 0.45298 0.77026 0.31775 0.0
C1705 C 0.46711 0.77887 0.40078 0.0
C1706 C 0.49251 0.79643 0.42578 0.0
H1707 H 0.5122 0.86387 0.50373 0.0
H1708 H 0.49522 0.84615 0.47932 0.0
H1709 H 0.51039 0.80285 0.47506 0.0
H1710 H 0.45418 0.78231 0.23509 0.0
H1711 H 0.47026 0.79926 0.27559 0.0
H1712 H 0.4707 0.81791 0.34974 0.0
C1713 C 0.50606 0.84371 0.47492 0.0
C1714 C 0.50179 0.80626 0.44759 0.0
C1715 C 0.51579 0.85381 0.48959 0.0
C1716 C 0.4576 0.78126 0.2816 0.0
C1717 C 0.4668 0.79098 0.30485 0.0
C1718 C 0.47936 0.81448 0.37678 0.0
C1719 C 0.51029 0.83069 0.45402 0.0
C1720 C 0.50001 0.8203 0.43392 0.0
C1721 C 0.47161 0.78995 0.36481 0.0
C1722 C 0.48125 0.80041 0.38964 0.0
H1723 H 0.54499 0.83552 0.45968 0.0
H1724 H 0.52806 0.81799 0.43342 0.0
H1725 H 0.48702 0.83501 0.38678 0.0
H1726 H 0.45438 0.76093 0.40693 0.0
H1727 H 0.47049 0.77786 0.44737 0.0
loop_
_geom_bond_atom_site_label_1
_geom_bond_atom_site_label_2
_geom_bond_distance
_geom_bond_site_symmetry_2
_ccdc_geom_bond_type
C0 C1 1.351 . S
C0 N3 1.368 . S
C0 H5 0.931 . S
C1 C0 1.351 . S
C1 N2 1.373 . S
C1 H29 0.930 . S
N2 C1 1.373 . S
N2 C4 1.340 . S
N3 C0 1.368 . S
N3 C4 1.321 . S
N3 Co6 2.135 . S
C4 N2 1.340 . S
C4 N3 1.321 . S
C4 H28 0.930 . S
H5 C0 0.931 . S
Co6 N3 2.135 . S
Co6 N9 2.121 1_554 S
Co6 O14 2.055 . S
Co6 O17 2.039 . S
Co6 N20 2.140 . S
C7 O8 1.227 . S
C7 O17 1.265 . S
O8 C7 1.227 . S
N9 Co6 2.121 1_556 S
N9 C11 1.375 . S
N9 C12 1.313 . S
C10 C11 1.338 . S
C10 N13 1.377 . S
C10 H30 0.930 . S
C11 N9 1.375 . S
C11 C10 1.338 . S
C11 H15 0.931 . S
C12 N9 1.313 . S
C12 N13 1.344 . S
C12 H16 0.930 . S
N13 C10 1.377 . S
N13 C12 1.344 . S
O14 Co6 2.055 . S
O14 C18 1.253 . S
H15 C11 0.931 . S
H16 C12 0.930 . S
O17 Co6 2.039 . S
O17 C7 1.265 . S
C18 O14 1.253 . S
C18 O19 1.227 . S
O19 C18 1.227 . S
N20 Co6 2.140 . S
N20 C23 1.346 . S
N20 C24 1.345 . S
C21 C22 1.387 . S
C21 C25 1.391 . S
C22 C21 1.387 . S
C22 C23 1.369 . S
C22 H31 0.929 . S
C23 N20 1.346 . S
C23 C22 1.369 . S
C23 H26 0.928 . S
C24 N20 1.345 . S
C24 C25 1.371 . S
C24 H27 0.931 . S
C25 C21 1.391 . S
C25 C24 1.371 . S
C25 H32 0.930 . S
H26 C23 0.928 . S
H27 C24 0.931 . S
H28 C4 0.930 . S
H29 C1 0.930 . S
H30 C10 0.930 . S
H31 C22 0.929 . S
H32 C25 0.930 . S
C33 C34 1.351 . S
C33 N36 1.368 . S
C33 H38 0.931 . S
C34 C33 1.351 . S
C34 N35 1.373 . S
C34 H62 0.930 . S
N35 C34 1.373 . S
N35 C37 1.340 . S
N36 C33 1.368 . S
N36 C37 1.321 . S
N36 Co39 2.135 . S
C37 N35 1.340 . S
C37 N36 1.321 . S
C37 H61 0.930 . S
H38 C33 0.931 . S
Co39 N36 2.135 . S
Co39 N42 2.121 . S
Co39 O47 2.055 . S
Co39 O50 2.039 . S
Co39 N53 2.140 . S
C40 O41 1.227 . S
C40 O50 1.265 . S
O41 C40 1.227 . S
N42 Co39 2.121 . S
N42 C44 1.375 . S
N42 C45 1.313 . S
C43 C44 1.338 . S
C43 N46 1.377 . S
C43 H63 0.930 . S
C44 N42 1.375 . S
C44 C43 1.338 . S
C44 H48 0.931 . S
C45 N42 1.313 . S
C45 N46 1.344 . S
C45 H49 0.930 . S
N46 C43 1.377 . S
N46 C45 1.344 . S
O47 Co39 2.055 . S
O47 C51 1.253 . S
H48 C44 0.931 . S
H49 C45 0.930 . S
O50 Co39 2.039 . S
O50 C40 1.265 . S
C51 O47 1.253 . S
C51 O52 1.227 . S
O52 C51 1.227 . S
N53 Co39 2.140 . S
N53 C56 1.346 . S
N53 C57 1.345 . S
C54 C55 1.387 . S
C54 C58 1.391 . S
C55 C54 1.387 . S
C55 C56 1.369 . S
C55 H64 0.929 . S
C56 N53 1.346 . S
C56 C55 1.369 . S
C56 H59 0.928 . S
C57 N53 1.345 . S
C57 C58 1.371 . S
C57 H60 0.931 . S
C58 C54 1.391 . S
C58 C57 1.371 . S
C58 H65 0.930 . S
H59 C56 0.928 . S
H60 C57 0.931 . S
H61 C37 0.930 . S
H62 C34 0.930 . S
H63 C43 0.930 . S
H64 C55 0.929 . S
H65 C58 0.930 . S
C66 C67 1.351 . S
C66 N69 1.368 . S
C66 H71 0.931 . S
C67 C66 1.351 . S
C67 N68 1.373 . S
C67 H95 0.930 . S
N68 C67 1.373 . S
N68 C70 1.340 . S
N69 C66 1.368 . S
N69 C70 1.321 . S
N69 Co72 2.135 . S
C70 N68 1.340 . S
C70 N69 1.321 . S
C70 H94 0.930 . S
H71 C66 0.931 . S
Co72 N69 2.135 . S
Co72 N75 2.121 . S
Co72 O80 2.055 . S
Co72 O83 2.039 . S
Co72 N86 2.140 . S
C73 O74 1.227 . S
C73 O83 1.265 . S
O74 C73 1.227 . S
N75 Co72 2.121 . S
N75 C77 1.375 . S
N75 C78 1.313 . S
C76 C77 1.338 . S
C76 N79 1.377 . S
C76 H96 0.930 . S
C77 N75 1.375 . S
C77 C76 1.338 . S
C77 H81 0.931 . S
C78 N75 1.313 . S
C78 N79 1.344 . S
C78 H82 0.930 . S
N79 C76 1.377 . S
N79 C78 1.344 . S
O80 Co72 2.055 . S
O80 C84 1.253 . S
H81 C77 0.931 . S
H82 C78 0.930 . S
O83 Co72 2.039 . S
O83 C73 1.265 . S
C84 O80 1.253 . S
C84 O85 1.227 . S
O85 C84 1.227 . S
N86 Co72 2.140 . S
N86 C89 1.346 . S
N86 C90 1.345 . S
C87 C88 1.387 . S
C87 C91 1.391 . S
C88 C87 1.387 . S
C88 C89 1.369 . S
C88 H97 0.929 . S
C89 N86 1.346 . S
C89 C88 1.369 . S
C89 H92 0.928 . S
C90 N86 1.345 . S
C90 C91 1.371 . S
C90 H93 0.931 . S
C91 C87 1.391 . S
C91 C90 1.371 . S
C91 H98 0.930 . S
H92 C89 0.928 . S
H93 C90 0.931 . S
H94 C70 0.930 . S
H95 C67 0.930 . S
H96 C76 0.930 . S
H97 C88 0.929 . S
H98 C91 0.930 . S
C99 C100 1.351 1_556 S
C99 N102 1.368 . S
C99 H104 0.931 . S
C100 C99 1.351 1_554 S
C100 N101 1.373 . S
C100 H128 0.930 . S
N101 C100 1.373 . S
N101 C103 1.340 1_554 S
N102 C99 1.368 . S
N102 C103 1.321 . S
N102 Co105 2.135 . S
C103 N101 1.340 1_556 S
C103 N102 1.321 . S
C103 H127 0.930 . S
H104 C99 0.931 . S
Co105 N102 2.135 . S
Co105 N108 2.121 . S
Co105 O113 2.055 . S
Co105 O116 2.039 . S
Co105 N119 2.140 . S
C106 O107 1.227 . S
C106 O116 1.265 . S
O107 C106 1.227 . S
N108 Co105 2.121 . S
N108 C110 1.375 . S
N108 C111 1.313 . S
C109 C110 1.338 . S
C109 N112 1.377 . S
C109 H129 0.930 . S
C110 N108 1.375 . S
C110 C109 1.338 . S
C110 H114 0.931 . S
C111 N108 1.313 . S
C111 N112 1.344 . S
C111 H115 0.930 . S
N112 C109 1.377 . S
N112 C111 1.344 . S
O113 Co105 2.055 . S
O113 C117 1.253 . S
H114 C110 0.931 . S
H115 C111 0.930 . S
O116 Co105 2.039 . S
O116 C106 1.265 . S
C117 O113 1.253 . S
C117 O118 1.227 . S
O118 C117 1.227 . S
N119 Co105 2.140 . S
N119 C122 1.346 . S
N119 C123 1.345 . S
C120 C121 1.387 . S
C120 C124 1.391 . S
C121 C120 1.387 . S
C121 C122 1.369 . S
C121 H130 0.929 . S
C122 N119 1.346 . S
C122 C121 1.369 . S
C122 H125 0.928 . S
C123 N119 1.345 . S
C123 C124 1.371 . S
C123 H126 0.931 . S
C124 C120 1.391 . S
C124 C123 1.371 . S
C124 H131 0.930 . S
H125 C122 0.928 . S
H126 C123 0.931 . S
H127 C103 0.930 . S
H128 C100 0.930 . S
H129 C109 0.930 . S
H130 C121 0.929 . S
H131 C124 0.930 . S
C132 C133 1.351 . S
C132 N135 1.368 . S
C132 H137 0.931 . S
C133 C132 1.351 . S
C133 N134 1.373 . S
C133 H161 0.930 . S
N134 C133 1.373 . S
N134 C136 1.340 . S
N135 C132 1.368 . S
N135 C136 1.321 . S
N135 Co138 2.135 . S
C136 N134 1.340 . S
C136 N135 1.321 . S
C136 H160 0.930 . S
H137 C132 0.931 . S
Co138 N135 2.135 . S
Co138 N141 2.121 1_556 S
Co138 O146 2.055 . S
Co138 O149 2.039 . S
Co138 N152 2.140 . S
C139 O140 1.227 . S
C139 O149 1.265 . S
O140 C139 1.227 . S
N141 Co138 2.121 1_554 S
N141 C143 1.375 . S
N141 C144 1.313 . S
C142 C143 1.338 . S
C142 N145 1.377 . S
C142 H162 0.930 . S
C143 N141 1.375 . S
C143 C142 1.338 . S
C143 H147 0.931 . S
C144 N141 1.313 . S
C144 N145 1.344 . S
C144 H148 0.930 . S
N145 C142 1.377 . S
N145 C144 1.344 . S
O146 Co138 2.055 . S
O146 C150 1.253 . S
H147 C143 0.931 . S
H148 C144 0.930 . S
O149 Co138 2.039 . S
O149 C139 1.265 . S
C150 O146 1.253 . S
C150 O151 1.227 . S
O151 C150 1.227 . S
N152 Co138 2.140 . S
N152 C155 1.346 . S
N152 C156 1.345 . S
C153 C154 1.387 . S
C153 C157 1.391 . S
C154 C153 1.387 . S
C154 C155 1.369 . S
C154 H163 0.929 . S
C155 N152 1.346 . S
C155 C154 1.369 . S
C155 H158 0.928 . S
C156 N152 1.345 . S
C156 C157 1.371 . S
C156 H159 0.931 . S
C157 C153 1.391 . S
C157 C156 1.371 . S
C157 H164 0.930 . S
H158 C155 0.928 . S
H159 C156 0.931 . S
H160 C136 0.930 . S
H161 C133 0.930 . S
H162 C142 0.930 . S
H163 C154 0.929 . S
H164 C157 0.930 . S
C165 C166 1.351 1_554 S
C165 N168 1.368 . S
C165 H170 0.931 . S
C166 C165 1.351 1_556 S
C166 N167 1.373 . S
C166 H194 0.930 . S
N167 C166 1.373 . S
N167 C169 1.340 1_556 S
N168 C165 1.368 . S
N168 C169 1.321 . S
N168 Co171 2.135 . S
C169 N167 1.340 1_554 S
C169 N168 1.321 . S
C169 H193 0.930 . S
H170 C165 0.931 . S
Co171 N168 2.135 . S
Co171 N174 2.121 . S
Co171 O179 2.055 . S
Co171 O182 2.039 . S
Co171 N185 2.140 . S
C172 O173 1.227 . S
C172 O182 1.265 . S
O173 C172 1.227 . S
N174 Co171 2.121 . S
N174 C176 1.375 . S
N174 C177 1.313 . S
C175 C176 1.338 . S
C175 N178 1.377 . S
C175 H195 0.930 . S
C176 N174 1.375 . S
C176 C175 1.338 . S
C176 H180 0.931 . S
C177 N174 1.313 . S
C177 N178 1.344 . S
C177 H181 0.930 . S
N178 C175 1.377 . S
N178 C177 1.344 . S
O179 Co171 2.055 . S
O179 C183 1.253 . S
H180 C176 0.931 . S
H181 C177 0.930 . S
O182 Co171 2.039 . S
O182 C172 1.265 . S
C183 O179 1.253 . S
C183 O184 1.227 . S
O184 C183 1.227 . S
N185 Co171 2.140 . S
N185 C188 1.346 . S
N185 C189 1.345 . S
C186 C187 1.387 . S
C186 C190 1.391 . S
C187 C186 1.387 . S
C187 C188 1.369 . S
C187 H196 0.929 . S
C188 N185 1.346 . S
C188 C187 1.369 . S
C188 H191 0.928 . S
C189 N185 1.345 . S
C189 C190 1.371 . S
C189 H192 0.931 . S
C190 C186 1.391 . S
C190 C189 1.371 . S
C190 H197 0.930 . S
H191 C188 0.928 . S
H192 C189 0.931 . S
H193 C169 0.930 . S
H194 C166 0.930 . S
H195 C175 0.930 . S
H196 C187 0.929 . S
H197 C190 0.930 . S
C198 C199 1.351 . S
C198 N201 1.368 . S
C198 H203 0.931 . S
C199 C198 1.351 . S
C199 N200 1.373 . S
C199 H227 0.930 . S
N200 C199 1.373 . S
N200 C202 1.340 . S
N201 C198 1.368 . S
N201 C202 1.321 . S
N201 Co204 2.135 . S
C202 N200 1.340 . S
C202 N201 1.321 . S
C202 H226 0.930 . S
H203 C198 0.931 . S
Co204 N201 2.135 . S
Co204 N207 2.121 . S
Co204 O212 2.055 . S
Co204 O215 2.039 . S
Co204 N218 2.140 . S
C205 O206 1.227 . S
C205 O215 1.265 . S
O206 C205 1.227 . S
N207 Co204 2.121 . S
N207 C209 1.375 . S
N207 C210 1.313 . S
C208 C209 1.338 . S
C208 N211 1.377 . S
C208 H228 0.930 . S
C209 N207 1.375 . S
C209 C208 1.338 . S
C209 H213 0.931 . S
C210 N207 1.313 . S
C210 N211 1.344 . S
C210 H214 0.930 . S
N211 C208 1.377 . S
N211 C210 1.344 . S
O212 Co204 2.055 . S
O212 C216 1.253 . S
H213 C209 0.931 . S
H214 C210 0.930 . S
O215 Co204 2.039 . S
O215 C205 1.265 . S
C216 O212 1.253 . S
C216 O217 1.227 . S
O217 C216 1.227 . S
N218 Co204 2.140 . S
N218 C221 1.346 . S
N218 C222 1.345 . S
C219 C220 1.387 . S
C219 C223 1.391 . S
C220 C219 1.387 . S
C220 C221 1.369 . S
C220 H229 0.929 . S
C221 N218 1.346 . S
C221 C220 1.369 . S
C221 H224 0.928 . S
C222 N218 1.345 . S
C222 C223 1.371 . S
C222 H225 0.931 . S
C223 C219 1.391 . S
C223 C222 1.371 . S
C223 H230 0.930 . S
H224 C221 0.928 . S
H225 C222 0.931 . S
H226 C202 0.930 . S
H227 C199 0.930 . S
H228 C208 0.930 . S
H229 C220 0.929 . S
H230 C223 0.930 . S
C231 C232 1.351 . S
C231 N234 1.368 . S
C231 H236 0.931 . S
C232 C231 1.351 . S
C232 N233 1.373 . S
C232 H260 0.930 . S
N233 C232 1.373 . S
N233 C235 1.340 . S
N234 C231 1.368 . S
N234 C235 1.321 . S
N234 Co237 2.135 . S
C235 N233 1.340 . S
C235 N234 1.321 . S
C235 H259 0.930 . S
H236 C231 0.931 . S
Co237 N234 2.135 . S
Co237 N240 2.121 . S
Co237 O245 2.055 . S
Co237 O248 2.039 . S
Co237 N251 2.140 . S
C238 O239 1.227 . S
C238 O248 1.265 . S
O239 C238 1.227 . S
N240 Co237 2.121 . S
N240 C242 1.375 . S
N240 C243 1.313 . S
C241 C242 1.338 . S
C241 N244 1.377 . S
C241 H261 0.930 . S
C242 N240 1.375 . S
C242 C241 1.338 . S
C242 H246 0.931 . S
C243 N240 1.313 . S
C243 N244 1.344 . S
C243 H247 0.930 . S
N244 C241 1.377 . S
N244 C243 1.344 . S
O245 Co237 2.055 . S
O245 C249 1.253 . S
H246 C242 0.931 . S
H247 C243 0.930 . S
O248 Co237 2.039 . S
O248 C238 1.265 . S
C249 O245 1.253 . S
C249 O250 1.227 . S
O250 C249 1.227 . S
N251 Co237 2.140 . S
N251 C254 1.346 . S
N251 C255 1.345 . S
C252 C253 1.387 . S
C252 C256 1.391 . S
C253 C252 1.387 . S
C253 C254 1.369 . S
C253 H262 0.929 . S
C254 N251 1.346 . S
C254 C253 1.369 . S
C254 H257 0.928 . S
C255 N251 1.345 . S
C255 C256 1.371 . S
C255 H258 0.931 . S
C256 C252 1.391 . S
C256 C255 1.371 . S
C256 H263 0.930 . S
H257 C254 0.928 . S
H258 C255 0.931 . S
H259 C235 0.930 . S
H260 C232 0.930 . S
H261 C241 0.930 . S
H262 C253 0.929 . S
H263 C256 0.930 . S
C264 C265 1.351 . S
C264 N267 1.368 . S
C264 H269 0.931 . S
C265 C264 1.351 . S
C265 N266 1.373 . S
C265 H293 0.930 . S
N266 C265 1.373 . S
N266 C268 1.340 . S
N267 C264 1.368 . S
N267 C268 1.321 . S
N267 Co270 2.135 . S
C268 N266 1.340 . S
C268 N267 1.321 . S
C268 H292 0.930 . S
H269 C264 0.931 . S
Co270 N267 2.135 . S
Co270 N273 2.121 . S
Co270 O278 2.055 . S
Co270 O281 2.039 . S
Co270 N284 2.140 . S
C271 O272 1.227 . S
C271 O281 1.265 . S
O272 C271 1.227 . S
N273 Co270 2.121 . S
N273 C275 1.375 . S
N273 C276 1.313 . S
C274 C275 1.338 . S
C274 N277 1.377 . S
C274 H294 0.930 . S
C275 N273 1.375 . S
C275 C274 1.338 . S
C275 H279 0.931 . S
C276 N273 1.313 . S
C276 N277 1.344 . S
C276 H280 0.930 . S
N277 C274 1.377 . S
N277 C276 1.344 . S
O278 Co270 2.055 . S
O278 C282 1.253 . S
H279 C275 0.931 . S
H280 C276 0.930 . S
O281 Co270 2.039 . S
O281 C271 1.265 . S
C282 O278 1.253 . S
C282 O283 1.227 . S
O283 C282 1.227 . S
N284 Co270 2.140 . S
N284 C287 1.346 . S
N284 C288 1.345 . S
C285 C286 1.387 . S
C285 C289 1.391 . S
C286 C285 1.387 . S
C286 C287 1.369 . S
C286 H295 0.929 . S
C287 N284 1.346 . S
C287 C286 1.369 . S
C287 H290 0.928 . S
C288 N284 1.345 . S
C288 C289 1.371 . S
C288 H291 0.931 . S
C289 C285 1.391 . S
C289 C288 1.371 . S
C289 H296 0.930 . S
H290 C287 0.928 . S
H291 C288 0.931 . S
H292 C268 0.930 . S
H293 C265 0.930 . S
H294 C274 0.930 . S
H295 C286 0.929 . S
H296 C289 0.930 . S
C297 C298 1.351 1_554 S
C297 N300 1.368 . S
C297 H302 0.931 . S
C298 C297 1.351 1_556 S
C298 N299 1.373 . S
C298 H326 0.930 . S
N299 C298 1.373 . S
N299 C301 1.340 1_556 S
N300 C297 1.368 . S
N300 C301 1.321 . S
N300 Co303 2.135 . S
C301 N299 1.340 1_554 S
C301 N300 1.321 . S
C301 H325 0.930 . S
H302 C297 0.931 . S
Co303 N300 2.135 . S
Co303 N306 2.121 . S
Co303 O311 2.055 . S
Co303 O314 2.039 . S
Co303 N317 2.140 . S
C304 O305 1.227 . S
C304 O314 1.265 . S
O305 C304 1.227 . S
N306 Co303 2.121 . S
N306 C308 1.375 . S
N306 C309 1.313 . S
C307 C308 1.338 . S
C307 N310 1.377 . S
C307 H327 0.930 . S
C308 N306 1.375 . S
C308 C307 1.338 . S
C308 H312 0.931 . S
C309 N306 1.313 . S
C309 N310 1.344 . S
C309 H313 0.930 . S
N310 C307 1.377 . S
N310 C309 1.344 . S
O311 Co303 2.055 . S
O311 C315 1.253 . S
H312 C308 0.931 . S
H313 C309 0.930 . S
O314 Co303 2.039 . S
O314 C304 1.265 . S
C315 O311 1.253 . S
C315 O316 1.227 . S
O316 C315 1.227 . S
N317 Co303 2.140 . S
N317 C320 1.346 . S
N317 C321 1.345 . S
C318 C319 1.387 . S
C318 C322 1.391 . S
C319 C318 1.387 . S
C319 C320 1.369 . S
C319 H328 0.929 . S
C320 N317 1.346 . S
C320 C319 1.369 . S
C320 H323 0.928 . S
C321 N317 1.345 . S
C321 C322 1.371 . S
C321 H324 0.931 . S
C322 C318 1.391 . S
C322 C321 1.371 . S
C322 H329 0.930 . S
H323 C320 0.928 . S
H324 C321 0.931 . S
H325 C301 0.930 . S
H326 C298 0.930 . S
H327 C307 0.930 . S
H328 C319 0.929 . S
H329 C322 0.930 . S
C330 C331 1.351 1_556 S
C330 N333 1.368 . S
C330 H335 0.931 . S
C331 C330 1.351 1_554 S
C331 N332 1.373 . S
C331 H359 0.930 . S
N332 C331 1.373 . S
N332 C334 1.340 1_554 S
N333 C330 1.368 . S
N333 C334 1.321 . S
N333 Co336 2.135 . S
C334 N332 1.340 1_556 S
C334 N333 1.321 . S
C334 H358 0.930 . S
H335 C330 0.931 . S
Co336 N333 2.135 . S
Co336 N339 2.121 . S
Co336 O344 2.055 . S
Co336 O347 2.039 . S
Co336 N350 2.140 . S
C337 O338 1.227 . S
C337 O347 1.265 . S
O338 C337 1.227 . S
N339 Co336 2.121 . S
N339 C341 1.375 . S
N339 C342 1.313 . S
C340 C341 1.338 . S
C340 N343 1.377 . S
C340 H360 0.930 . S
C341 N339 1.375 . S
C341 C340 1.338 . S
C341 H345 0.931 . S
C342 N339 1.313 . S
C342 N343 1.344 . S
C342 H346 0.930 . S
N343 C340 1.377 . S
N343 C342 1.344 . S
O344 Co336 2.055 . S
O344 C348 1.253 . S
H345 C341 0.931 . S
H346 C342 0.930 . S
O347 Co336 2.039 . S
O347 C337 1.265 . S
C348 O344 1.253 . S
C348 O349 1.227 . S
O349 C348 1.227 . S
N350 Co336 2.140 . S
N350 C353 1.346 . S
N350 C354 1.345 . S
C351 C352 1.387 . S
C351 C355 1.391 . S
C352 C351 1.387 . S
C352 C353 1.369 . S
C352 H361 0.929 . S
C353 N350 1.346 . S
C353 C352 1.369 . S
C353 H356 0.928 . S
C354 N350 1.345 . S
C354 C355 1.371 . S
C354 H357 0.931 . S
C355 C351 1.391 . S
C355 C354 1.371 . S
C355 H362 0.930 . S
H356 C353 0.928 . S
H357 C354 0.931 . S
H358 C334 0.930 . S
H359 C331 0.930 . S
H360 C340 0.930 . S
H361 C352 0.929 . S
H362 C355 0.930 . S
C363 C364 1.351 . S
C363 N366 1.368 . S
C363 H368 0.931 . S
C364 C363 1.351 . S
C364 N365 1.373 . S
C364 H392 0.930 . S
N365 C364 1.373 . S
N365 C367 1.340 . S
N366 C363 1.368 . S
N366 C367 1.321 . S
N366 Co369 2.135 . S
C367 N365 1.340 . S
C367 N366 1.321 . S
C367 H391 0.930 . S
H368 C363 0.931 . S
Co369 N366 2.135 . S
Co369 N372 2.121 . S
Co369 O377 2.055 . S
Co369 O380 2.039 . S
Co369 N383 2.140 . S
C370 O371 1.227 . S
C370 O380 1.265 . S
O371 C370 1.227 . S
N372 Co369 2.121 . S
N372 C374 1.375 . S
N372 C375 1.313 . S
C373 C374 1.338 . S
C373 N376 1.377 . S
C373 H393 0.930 . S
C374 N372 1.375 . S
C374 C373 1.338 . S
C374 H378 0.931 . S
C375 N372 1.313 . S
C375 N376 1.344 . S
C375 H379 0.930 . S
N376 C373 1.377 . S
N376 C375 1.344 . S
O377 Co369 2.055 . S
O377 C381 1.253 . S
H378 C374 0.931 . S
H379 C375 0.930 . S
O380 Co369 2.039 . S
O380 C370 1.265 . S
C381 O377 1.253 . S
C381 O382 1.227 . S
O382 C381 1.227 . S
N383 Co369 2.140 . S
N383 C386 1.346 . S
N383 C387 1.345 . S
C384 C385 1.387 . S
C384 C388 1.391 . S
C385 C384 1.387 . S
C385 C386 1.369 . S
C385 H394 0.929 . S
C386 N383 1.346 . S
C386 C385 1.369 . S
C386 H389 0.928 . S
C387 N383 1.345 . S
C387 C388 1.371 . S
C387 H390 0.931 . S
C388 C384 1.391 . S
C388 C387 1.371 . S
C388 H395 0.930 . S
H389 C386 0.928 . S
H390 C387 0.931 . S
H391 C367 0.930 . S
H392 C364 0.930 . S
H393 C373 0.930 . S
H394 C385 0.929 . S
H395 C388 0.930 . S
C396 C397 1.351 . S
C396 N399 1.368 . S
C396 H401 0.931 . S
C397 C396 1.351 . S
C397 N398 1.373 . S
C397 H425 0.930 . S
N398 C397 1.373 . S
N398 C400 1.340 . S
N399 C396 1.368 . S
N399 C400 1.321 . S
N399 Co402 2.135 . S
C400 N398 1.340 . S
C400 N399 1.321 . S
C400 H424 0.930 . S
H401 C396 0.931 . S
Co402 N399 2.135 . S
Co402 N405 2.121 . S
Co402 O410 2.055 . S
Co402 O413 2.039 . S
Co402 N416 2.140 . S
C403 O404 1.227 . S
C403 O413 1.265 . S
O404 C403 1.227 . S
N405 Co402 2.121 . S
N405 C407 1.375 . S
N405 C408 1.313 . S
C406 C407 1.338 . S
C406 N409 1.377 . S
C406 H426 0.930 . S
C407 N405 1.375 . S
C407 C406 1.338 . S
C407 H411 0.931 . S
C408 N405 1.313 . S
C408 N409 1.344 . S
C408 H412 0.930 . S
N409 C406 1.377 . S
N409 C408 1.344 . S
O410 Co402 2.055 . S
O410 C414 1.253 . S
H411 C407 0.931 . S
H412 C408 0.930 . S
O413 Co402 2.039 . S
O413 C403 1.265 . S
C414 O410 1.253 . S
C414 O415 1.227 . S
O415 C414 1.227 . S
N416 Co402 2.140 . S
N416 C419 1.346 . S
N416 C420 1.345 . S
C417 C418 1.387 . S
C417 C421 1.391 . S
C418 C417 1.387 . S
C418 C419 1.369 . S
C418 H427 0.929 . S
C419 N416 1.346 . S
C419 C418 1.369 . S
C419 H422 0.928 . S
C420 N416 1.345 . S
C420 C421 1.371 . S
C420 H423 0.931 . S
C421 C417 1.391 . S
C421 C420 1.371 . S
C421 H428 0.930 . S
H422 C419 0.928 . S
H423 C420 0.931 . S
H424 C400 0.930 . S
H425 C397 0.930 . S
H426 C406 0.930 . S
H427 C418 0.929 . S
H428 C421 0.930 . S
C429 C430 1.351 . S
C429 N432 1.368 . S
C429 H434 0.931 . S
C430 C429 1.351 . S
C430 N431 1.373 . S
C430 H458 0.930 . S
N431 C430 1.373 . S
N431 C433 1.340 . S
N432 C429 1.368 . S
N432 C433 1.321 . S
N432 Co435 2.135 . S
C433 N431 1.340 . S
C433 N432 1.321 . S
C433 H457 0.930 . S
H434 C429 0.931 . S
Co435 N432 2.135 . S
Co435 N438 2.121 1_554 S
Co435 O443 2.055 . S
Co435 O446 2.039 . S
Co435 N449 2.140 . S
C436 O437 1.227 . S
C436 O446 1.265 . S
O437 C436 1.227 . S
N438 Co435 2.121 1_556 S
N438 C440 1.375 . S
N438 C441 1.313 . S
C439 C440 1.338 . S
C439 N442 1.377 . S
C439 H459 0.930 . S
C440 N438 1.375 . S
C440 C439 1.338 . S
C440 H444 0.931 . S
C441 N438 1.313 . S
C441 N442 1.344 . S
C441 H445 0.930 . S
N442 C439 1.377 . S
N442 C441 1.344 . S
O443 Co435 2.055 . S
O443 C447 1.253 . S
H444 C440 0.931 . S
H445 C441 0.930 . S
O446 Co435 2.039 . S
O446 C436 1.265 . S
C447 O443 1.253 . S
C447 O448 1.227 . S
O448 C447 1.227 . S
N449 Co435 2.140 . S
N449 C452 1.346 . S
N449 C453 1.345 . S
C450 C451 1.387 . S
C450 C454 1.391 . S
C451 C450 1.387 . S
C451 C452 1.369 . S
C451 H460 0.929 . S
C452 N449 1.346 . S
C452 C451 1.369 . S
C452 H455 0.928 . S
C453 N449 1.345 . S
C453 C454 1.371 . S
C453 H456 0.931 . S
C454 C450 1.391 . S
C454 C453 1.371 . S
C454 H461 0.930 . S
H455 C452 0.928 . S
H456 C453 0.931 . S
H457 C433 0.930 . S
H458 C430 0.930 . S
H459 C439 0.930 . S
H460 C451 0.929 . S
H461 C454 0.930 . S
C462 C463 1.351 . S
C462 N465 1.368 . S
C462 H467 0.931 . S
C463 C462 1.351 . S
C463 N464 1.373 . S
C463 H491 0.930 . S
N464 C463 1.373 . S
N464 C466 1.340 . S
N465 C462 1.368 . S
N465 C466 1.321 . S
N465 Co468 2.135 . S
C466 N464 1.340 . S
C466 N465 1.321 . S
C466 H490 0.930 . S
H467 C462 0.931 . S
Co468 N465 2.135 . S
Co468 N471 2.121 . S
Co468 O476 2.055 . S
Co468 O479 2.039 . S
Co468 N482 2.140 . S
C469 O470 1.227 . S
C469 O479 1.265 . S
O470 C469 1.227 . S
N471 Co468 2.121 . S
N471 C473 1.375 . S
N471 C474 1.313 . S
C472 C473 1.338 . S
C472 N475 1.377 . S
C472 H492 0.930 . S
C473 N471 1.375 . S
C473 C472 1.338 . S
C473 H477 0.931 . S
C474 N471 1.313 . S
C474 N475 1.344 . S
C474 H478 0.930 . S
N475 C472 1.377 . S
N475 C474 1.344 . S
O476 Co468 2.055 . S
O476 C480 1.253 . S
H477 C473 0.931 . S
H478 C474 0.930 . S
O479 Co468 2.039 . S
O479 C469 1.265 . S
C480 O476 1.253 . S
C480 O481 1.227 . S
O481 C480 1.227 . S
N482 Co468 2.140 . S
N482 C485 1.346 . S
N482 C486 1.345 . S
C483 C484 1.387 . S
C483 C487 1.391 . S
C484 C483 1.387 . S
C484 C485 1.369 . S
C484 H493 0.929 . S
C485 N482 1.346 . S
C485 C484 1.369 . S
C485 H488 0.928 . S
C486 N482 1.345 . S
C486 C487 1.371 . S
C486 H489 0.931 . S
C487 C483 1.391 . S
C487 C486 1.371 . S
C487 H494 0.930 . S
H488 C485 0.928 . S
H489 C486 0.931 . S
H490 C466 0.930 . S
H491 C463 0.930 . S
H492 C472 0.930 . S
H493 C484 0.929 . S
H494 C487 0.930 . S
C495 C496 1.351 . S
C495 N498 1.368 . S
C495 H500 0.931 . S
C496 C495 1.351 . S
C496 N497 1.373 . S
C496 H524 0.930 . S
N497 C496 1.373 . S
N497 C499 1.340 . S
N498 C495 1.368 . S
N498 C499 1.321 . S
N498 Co501 2.135 . S
C499 N497 1.340 . S
C499 N498 1.321 . S
C499 H523 0.930 . S
H500 C495 0.931 . S
Co501 N498 2.135 . S
Co501 N504 2.121 1_556 S
Co501 O509 2.055 . S
Co501 O512 2.039 . S
Co501 N515 2.140 . S
C502 O503 1.227 . S
C502 O512 1.265 . S
O503 C502 1.227 . S
N504 Co501 2.121 1_554 S
N504 C506 1.375 . S
N504 C507 1.313 . S
C505 C506 1.338 . S
C505 N508 1.377 . S
C505 H525 0.930 . S
C506 N504 1.375 . S
C506 C505 1.338 . S
C506 H510 0.931 . S
C507 N504 1.313 . S
C507 N508 1.344 . S
C507 H511 0.930 . S
N508 C505 1.377 . S
N508 C507 1.344 . S
O509 Co501 2.055 . S
O509 C513 1.253 . S
H510 C506 0.931 . S
H511 C507 0.930 . S
O512 Co501 2.039 . S
O512 C502 1.265 . S
C513 O509 1.253 . S
C513 O514 1.227 . S
O514 C513 1.227 . S
N515 Co501 2.140 . S
N515 C518 1.346 . S
N515 C519 1.345 . S
C516 C517 1.387 . S
C516 C520 1.391 . S
C517 C516 1.387 . S
C517 C518 1.369 . S
C517 H526 0.929 . S
C518 N515 1.346 . S
C518 C517 1.369 . S
C518 H521 0.928 . S
C519 N515 1.345 . S
C519 C520 1.371 . S
C519 H522 0.931 . S
C520 C516 1.391 . S
C520 C519 1.371 . S
C520 H527 0.930 . S
H521 C518 0.928 . S
H522 C519 0.931 . S
H523 C499 0.930 . S
H524 C496 0.930 . S
H525 C505 0.930 . S
H526 C517 0.929 . S
H527 C520 0.930 . S
C528 C529 1.349 . S
C528 C530 1.327 . S
C528 H553 0.950 . S
C529 C528 1.349 . S
C529 C545 1.349 . S
C530 C528 1.327 . S
C530 C549 1.429 . S
C530 H554 0.950 . S
C531 C548 1.574 . S
C531 C550 1.368 . S
C531 H555 0.949 . S
H532 C536 0.949 . S
C533 C534 1.349 . S
C533 C535 1.327 . S
C533 H556 0.950 . S
C534 C533 1.349 . S
C534 C546 1.349 . S
C535 C533 1.327 . S
C535 C551 1.429 . S
C535 H557 0.950 . S
C536 H532 0.949 . S
C536 C544 1.574 . S
C536 C552 1.368 . S
H537 C545 0.950 . S
H538 C543 0.950 . S
H539 C544 0.949 . S
H540 C546 0.950 . S
H541 C547 0.950 . S
H542 C548 0.949 . S
C543 H538 0.950 . S
C543 C545 1.327 . S
C543 C549 1.429 . S
C544 C536 1.574 . S
C544 H539 0.949 . S
C544 C550 1.368 . S
C545 C529 1.349 . S
C545 H537 0.950 . S
C545 C543 1.327 . S
C546 C534 1.349 . S
C546 H540 0.950 . S
C546 C547 1.327 . S
C547 H541 0.950 . S
C547 C546 1.327 . S
C547 C551 1.429 . S
C548 C531 1.574 . S
C548 H542 0.949 . S
C548 C552 1.368 . S
C549 C530 1.429 . S
C549 C543 1.429 . S
C549 C550 1.523 . S
C550 C531 1.368 . S
C550 C544 1.368 . S
C550 C549 1.523 . S
C551 C535 1.429 . S
C551 C547 1.429 . S
C551 C552 1.523 . S
C552 C536 1.368 . S
C552 C548 1.368 . S
C552 C551 1.523 . S
H553 C528 0.950 . S
H554 C530 0.950 . S
H555 C531 0.949 . S
H556 C533 0.950 . S
H557 C535 0.950 . S
C558 C559 1.349 . S
C558 C560 1.327 . S
C558 H583 0.950 . S
C559 C558 1.349 . S
C559 C575 1.349 . S
C560 C558 1.327 . S
C560 C579 1.429 1_554 S
C560 H584 0.950 1_554 S
C561 C578 1.574 . S
C561 C580 1.368 . S
C561 H585 0.949 . S
H562 C566 0.949 . S
C563 C564 1.349 . S
C563 C565 1.327 . S
C563 H586 0.950 . S
C564 C563 1.349 . S
C564 C576 1.349 . S
C565 C563 1.327 . S
C565 C581 1.429 . S
C565 H587 0.950 . S
C566 H562 0.949 . S
C566 C574 1.574 . S
C566 C582 1.368 . S
H567 C575 0.950 . S
H568 C573 0.951 . S
H569 C574 0.949 . S
H570 C576 0.950 . S
H571 C577 0.950 . S
H572 C578 0.949 . S
C573 H568 0.951 . S
C573 C575 1.324 1_556 S
C573 C579 1.430 . S
C574 C566 1.574 . S
C574 H569 0.949 . S
C574 C580 1.368 . S
C575 C559 1.349 . S
C575 H567 0.950 . S
C575 C573 1.324 1_554 S
C576 C564 1.349 . S
C576 H570 0.950 . S
C576 C577 1.327 . S
C577 H571 0.950 . S
C577 C576 1.327 . S
C577 C581 1.429 . S
C578 C561 1.574 . S
C578 H572 0.949 . S
C578 C582 1.368 . S
C579 C560 1.429 1_556 S
C579 C573 1.430 . S
C579 C580 1.523 . S
C580 C561 1.368 . S
C580 C574 1.368 . S
C580 C579 1.523 . S
C581 C565 1.429 . S
C581 C577 1.429 . S
C581 C582 1.523 . S
C582 C566 1.368 . S
C582 C578 1.368 . S
C582 C581 1.523 . S
H583 C558 0.950 . S
H584 C560 0.950 1_556 S
H585 C561 0.949 . S
H586 C563 0.950 . S
H587 C565 0.950 . S
C588 C589 1.349 . S
C588 C590 1.327 . S
C588 H613 0.950 . S
C589 C588 1.349 . S
C589 C605 1.349 . S
C590 C588 1.327 . S
C590 C609 1.429 . S
C590 H614 0.950 . S
C591 C608 1.574 . S
C591 C610 1.368 . S
C591 H615 0.949 . S
H592 C596 0.949 . S
C593 C594 1.349 . S
C593 C595 1.327 . S
C593 H616 0.950 . S
C594 C593 1.349 . S
C594 C606 1.349 . S
C595 C593 1.327 . S
C595 C611 1.429 . S
C595 H617 0.950 . S
C596 H592 0.949 . S
C596 C604 1.574 . S
C596 C612 1.368 . S
H597 C605 0.950 . S
H598 C603 0.950 . S
H599 C604 0.949 . S
H600 C606 0.950 . S
H601 C607 0.950 . S
H602 C608 0.949 . S
C603 H598 0.950 . S
C603 C605 1.327 . S
C603 C609 1.429 . S
C604 C596 1.574 . S
C604 H599 0.949 . S
C604 C610 1.368 . S
C605 C589 1.349 . S
C605 H597 0.950 . S
C605 C603 1.327 . S
C606 C594 1.349 . S
C606 H600 0.950 . S
C606 C607 1.327 . S
C607 H601 0.950 . S
C607 C606 1.327 . S
C607 C611 1.429 . S
C608 C591 1.574 . S
C608 H602 0.949 . S
C608 C612 1.368 . S
C609 C590 1.429 . S
C609 C603 1.429 . S
C609 C610 1.523 . S
C610 C591 1.368 . S
C610 C604 1.368 . S
C610 C609 1.523 . S
C611 C595 1.429 . S
C611 C607 1.429 . S
C611 C612 1.523 1_556 S
C612 C596 1.368 . S
C612 C608 1.368 . S
C612 C611 1.523 1_554 S
H613 C588 0.950 . S
H614 C590 0.950 . S
H615 C591 0.949 . S
H616 C593 0.950 . S
H617 C595 0.950 . S
C618 C619 1.349 . S
C618 C620 1.327 . S
C618 H643 0.950 . S
C619 C618 1.349 . S
C619 C635 1.349 . S
C620 C618 1.327 . S
C620 C639 1.429 . S
C620 H644 0.950 . S
C621 C638 1.574 . S
C621 C640 1.368 . S
C621 H645 0.949 . S
H622 C626 0.949 . S
C623 C624 1.349 . S
C623 C625 1.327 . S
C623 H646 0.950 . S
C624 C623 1.349 . S
C624 C636 1.349 . S
C625 C623 1.327 . S
C625 C641 1.429 . S
C625 H647 0.950 . S
C626 H622 0.949 . S
C626 C634 1.574 . S
C626 C642 1.368 . S
H627 C635 0.950 . S
H628 C633 0.950 . S
H629 C634 0.949 . S
H630 C636 0.950 . S
H631 C637 0.950 . S
H632 C638 0.949 . S
C633 H628 0.950 . S
C633 C635 1.327 . S
C633 C639 1.429 . S
C634 C626 1.574 . S
C634 H629 0.949 . S
C634 C640 1.368 . S
C635 C619 1.349 . S
C635 H627 0.950 . S
C635 C633 1.327 . S
C636 C624 1.349 . S
C636 H630 0.950 . S
C636 C637 1.327 . S
C637 H631 0.950 . S
C637 C636 1.327 . S
C637 C641 1.429 . S
C638 C621 1.574 . S
C638 H632 0.949 . S
C638 C642 1.368 . S
C639 C620 1.429 . S
C639 C633 1.429 . S
C639 C640 1.523 . S
C640 C621 1.368 . S
C640 C634 1.368 . S
C640 C639 1.523 . S
C641 C625 1.429 . S
C641 C637 1.429 . S
C641 C642 1.523 . S
C642 C626 1.368 . S
C642 C638 1.368 . S
C642 C641 1.523 . S
H643 C618 0.950 . S
H644 C620 0.950 . S
H645 C621 0.949 . S
H646 C623 0.950 . S
H647 C625 0.950 . S
C648 C649 1.349 . S
C648 C650 1.327 . S
C648 H673 0.950 . S
C649 C648 1.349 . S
C649 C665 1.349 . S
C650 C648 1.327 . S
C650 C669 1.429 . S
C650 H674 0.950 . S
C651 C668 1.574 . S
C651 C670 1.368 . S
C651 H675 0.949 . S
H652 C656 0.949 . S
C653 C654 1.349 . S
C653 C655 1.327 . S
C653 H676 0.950 . S
C654 C653 1.349 . S
C654 C666 1.349 . S
C655 C653 1.327 . S
C655 C671 1.429 . S
C655 H677 0.950 . S
C656 H652 0.949 . S
C656 C664 1.574 . S
C656 C672 1.368 . S
H657 C665 0.950 . S
H658 C663 0.950 . S
H659 C664 0.949 . S
H660 C666 0.950 . S
H661 C667 0.950 . S
H662 C668 0.949 . S
C663 H658 0.950 . S
C663 C665 1.327 . S
C663 C669 1.429 . S
C664 C656 1.574 . S
C664 H659 0.949 . S
C664 C670 1.368 . S
C665 C649 1.349 . S
C665 H657 0.950 . S
C665 C663 1.327 . S
C666 C654 1.349 . S
C666 H660 0.950 . S
C666 C667 1.327 . S
C667 H661 0.950 . S
C667 C666 1.327 . S
C667 C671 1.429 . S
C668 C651 1.574 . S
C668 H662 0.949 . S
C668 C672 1.368 . S
C669 C650 1.429 . S
C669 C663 1.429 . S
C669 C670 1.523 . S
C670 C651 1.368 . S
C670 C664 1.368 . S
C670 C669 1.523 . S
C671 C655 1.429 . S
C671 C667 1.429 . S
C671 C672 1.523 . S
C672 C656 1.368 . S
C672 C668 1.368 . S
C672 C671 1.523 . S
H673 C648 0.950 . S
H674 C650 0.950 . S
H675 C651 0.949 . S
H676 C653 0.950 . S
H677 C655 0.950 . S
C678 C679 1.349 . S
C678 C680 1.327 . S
C678 H703 0.950 . S
C679 C678 1.349 . S
C679 C695 1.349 . S
C680 C678 1.327 . S
C680 C699 1.429 . S
C680 H704 0.950 . S
C681 C698 1.574 . S
C681 C700 1.368 . S
C681 H705 0.949 . S
H682 C686 0.949 . S
C683 C684 1.349 . S
C683 C685 1.327 . S
C683 H706 0.950 . S
C684 C683 1.349 . S
C684 C696 1.349 . S
C685 C683 1.327 . S
C685 C701 1.429 . S
C685 H707 0.950 . S
C686 H682 0.949 . S
C686 C694 1.574 . S
C686 C702 1.368 . S
H687 C695 0.950 . S
H688 C693 0.950 . S
H689 C694 0.949 . S
H690 C696 0.950 . S
H691 C697 0.950 . S
H692 C698 0.949 . S
C693 H688 0.950 . S
C693 C695 1.327 . S
C693 C699 1.429 . S
C694 C686 1.574 . S
C694 H689 0.949 . S
C694 C700 1.368 . S
C695 C679 1.349 . S
C695 H687 0.950 . S
C695 C693 1.327 . S
C696 C684 1.349 . S
C696 H690 0.950 . S
C696 C697 1.327 . S
C697 H691 0.950 . S
C697 C696 1.327 . S
C697 C701 1.429 . S
C698 C681 1.574 . S
C698 H692 0.949 . S
C698 C702 1.368 . S
C699 C680 1.429 . S
C699 C693 1.429 . S
C699 C700 1.523 . S
C700 C681 1.368 . S
C700 C694 1.368 . S
C700 C699 1.523 . S
C701 C685 1.429 . S
C701 C697 1.429 . S
C701 C702 1.523 . S
C702 C686 1.368 . S
C702 C698 1.368 . S
C702 C701 1.523 . S
H703 C678 0.950 . S
H704 C680 0.950 . S
H705 C681 0.949 . S
H706 C683 0.950 . S
H707 C685 0.950 . S
C708 C709 1.349 . S
C708 C710 1.327 . S
C708 H733 0.950 . S
C709 C708 1.349 . S
C709 C725 1.349 . S
C710 C708 1.327 . S
C710 C729 1.429 . S
C710 H734 0.950 . S
C711 C728 1.574 . S
C711 C730 1.368 . S
C711 H735 0.949 . S
H712 C716 0.949 . S
C713 C714 1.349 . S
C713 C715 1.327 . S
C713 H736 0.950 . S
C714 C713 1.349 . S
C714 C726 1.349 . S
C715 C713 1.327 . S
C715 C731 1.429 . S
C715 H737 0.950 . S
C716 H712 0.949 . S
C716 C724 1.574 . S
C716 C732 1.368 . S
H717 C725 0.950 . S
H718 C723 0.950 . S
H719 C724 0.949 . S
H720 C726 0.950 . S
H721 C727 0.950 . S
H722 C728 0.949 . S
C723 H718 0.950 . S
C723 C725 1.327 . S
C723 C729 1.429 . S
C724 C716 1.574 . S
C724 H719 0.949 . S
C724 C730 1.368 . S
C725 C709 1.349 . S
C725 H717 0.950 . S
C725 C723 1.327 . S
C726 C714 1.349 . S
C726 H720 0.950 . S
C726 C727 1.327 . S
C727 H721 0.950 . S
C727 C726 1.327 . S
C727 C731 1.429 . S
C728 C711 1.574 . S
C728 H722 0.949 . S
C728 C732 1.368 . S
C729 C710 1.429 . S
C729 C723 1.429 . S
C729 C730 1.523 . S
C730 C711 1.368 . S
C730 C724 1.368 . S
C730 C729 1.523 . S
C731 C715 1.429 . S
C731 C727 1.429 . S
C731 C732 1.523 1_554 S
C732 C716 1.368 . S
C732 C728 1.368 . S
C732 C731 1.523 1_556 S
H733 C708 0.950 . S
H734 C710 0.950 . S
H735 C711 0.949 . S
H736 C713 0.950 . S
H737 C715 0.950 . S
C738 C739 1.349 . S
C738 C740 1.327 . S
C738 H763 0.950 . S
C739 C738 1.349 . S
C739 C755 1.349 . S
C740 C738 1.327 . S
C740 C759 1.429 . S
C740 H764 0.950 . S
C741 C758 1.574 . S
C741 C760 1.368 . S
C741 H765 0.949 . S
H742 C746 0.949 . S
C743 C744 1.349 . S
C743 C745 1.327 . S
C743 H766 0.950 . S
C744 C743 1.349 . S
C744 C756 1.349 . S
C745 C743 1.327 . S
C745 C761 1.429 1_556 S
C745 H767 0.950 1_556 S
C746 H742 0.949 . S
C746 C754 1.574 . S
C746 C762 1.368 . S
H747 C755 0.950 . S
H748 C753 0.950 . S
H749 C754 0.949 . S
H750 C756 0.950 . S
H751 C757 0.952 . S
H752 C758 0.949 . S
C753 H748 0.950 . S
C753 C755 1.327 . S
C753 C759 1.429 . S
C754 C746 1.574 . S
C754 H749 0.949 . S
C754 C760 1.368 . S
C755 C739 1.349 . S
C755 H747 0.950 . S
C755 C753 1.327 . S
C756 C744 1.349 . S
C756 H750 0.950 . S
C756 C757 1.322 1_556 S
C757 H751 0.952 . S
C757 C756 1.322 1_554 S
C757 C761 1.431 . S
C758 C741 1.574 . S
C758 H752 0.949 . S
C758 C762 1.368 . S
C759 C740 1.429 . S
C759 C753 1.429 . S
C759 C760 1.523 . S
C760 C741 1.368 . S
C760 C754 1.368 . S
C760 C759 1.523 . S
C761 C745 1.429 1_554 S
C761 C757 1.431 . S
C761 C762 1.523 . S
C762 C746 1.368 . S
C762 C758 1.368 . S
C762 C761 1.523 . S
H763 C738 0.950 . S
H764 C740 0.950 . S
H765 C741 0.949 . S
H766 C743 0.950 . S
H767 C745 0.950 1_554 S
C768 C769 1.349 . S
C768 C770 1.327 . S
C768 H793 0.950 . S
C769 C768 1.349 . S
C769 C785 1.349 . S
C770 C768 1.327 . S
C770 C789 1.429 . S
C770 H794 0.950 . S
C771 C788 1.574 . S
C771 C790 1.368 . S
C771 H795 0.949 . S
H772 C776 0.949 . S
C773 C774 1.349 . S
C773 C775 1.327 . S
C773 H796 0.950 . S
C774 C773 1.349 . S
C774 C786 1.349 . S
C775 C773 1.327 . S
C775 C791 1.429 1_556 S
C775 H797 0.950 1_556 S
C776 H772 0.949 . S
C776 C784 1.574 . S
C776 C792 1.368 . S
H777 C785 0.950 . S
H778 C783 0.950 . S
H779 C784 0.949 . S
H780 C786 0.950 . S
H781 C787 0.951 . S
H782 C788 0.949 . S
C783 H778 0.950 . S
C783 C785 1.327 . S
C783 C789 1.429 . S
C784 C776 1.574 . S
C784 H779 0.949 . S
C784 C790 1.368 . S
C785 C769 1.349 . S
C785 H777 0.950 . S
C785 C783 1.327 . S
C786 C774 1.349 . S
C786 H780 0.950 . S
C786 C787 1.324 1_556 S
C787 H781 0.951 . S
C787 C786 1.324 1_554 S
C787 C791 1.430 . S
C788 C771 1.574 . S
C788 H782 0.949 . S
C788 C792 1.368 . S
C789 C770 1.429 . S
C789 C783 1.429 . S
C789 C790 1.523 . S
C790 C771 1.368 . S
C790 C784 1.368 . S
C790 C789 1.523 . S
C791 C775 1.429 1_554 S
C791 C787 1.430 . S
C791 C792 1.523 . S
C792 C776 1.368 . S
C792 C788 1.368 . S
C792 C791 1.523 . S
H793 C768 0.950 . S
H794 C770 0.950 . S
H795 C771 0.949 . S
H796 C773 0.950 . S
H797 C775 0.950 1_554 S
C798 C799 1.349 . S
C798 C800 1.327 . S
C798 H823 0.950 . S
C799 C798 1.349 . S
C799 C815 1.349 . S
C800 C798 1.327 . S
C800 C819 1.429 . S
C800 H824 0.950 . S
C801 C818 1.574 . S
C801 C820 1.368 . S
C801 H825 0.949 . S
H802 C806 0.949 . S
C803 C804 1.349 . S
C803 C805 1.327 . S
C803 H826 0.950 . S
C804 C803 1.349 . S
C804 C816 1.349 . S
C805 C803 1.327 . S
C805 C821 1.429 . S
C805 H827 0.950 . S
C806 H802 0.949 . S
C806 C814 1.574 . S
C806 C822 1.368 . S
H807 C815 0.950 . S
H808 C813 0.950 . S
H809 C814 0.949 . S
H810 C816 0.950 . S
H811 C817 0.950 . S
H812 C818 0.949 . S
C813 H808 0.950 . S
C813 C815 1.327 . S
C813 C819 1.429 . S
C814 C806 1.574 . S
C814 H809 0.949 . S
C814 C820 1.368 . S
C815 C799 1.349 . S
C815 H807 0.950 . S
C815 C813 1.327 . S
C816 C804 1.349 . S
C816 H810 0.950 . S
C816 C817 1.327 . S
C817 H811 0.950 . S
C817 C816 1.327 . S
C817 C821 1.429 . S
C818 C801 1.574 . S
C818 H812 0.949 . S
C818 C822 1.368 . S
C819 C800 1.429 . S
C819 C813 1.429 . S
C819 C820 1.523 . S
C820 C801 1.368 . S
C820 C814 1.368 . S
C820 C819 1.523 . S
C821 C805 1.429 . S
C821 C817 1.429 . S
C821 C822 1.523 . S
C822 C806 1.368 . S
C822 C818 1.368 . S
C822 C821 1.523 . S
H823 C798 0.950 . S
H824 C800 0.950 . S
H825 C801 0.949 . S
H826 C803 0.950 . S
H827 C805 0.950 . S
C828 C829 1.349 . S
C828 C830 1.327 . S
C828 H853 0.950 . S
C829 C828 1.349 . S
C829 C845 1.349 . S
C830 C828 1.327 . S
C830 C849 1.429 . S
C830 H854 0.950 . S
C831 C848 1.574 . S
C831 C850 1.368 . S
C831 H855 0.949 . S
H832 C836 0.949 . S
C833 C834 1.349 . S
C833 C835 1.327 . S
C833 H856 0.950 . S
C834 C833 1.349 . S
C834 C846 1.349 . S
C835 C833 1.327 . S
C835 C851 1.429 . S
C835 H857 0.950 . S
C836 H832 0.949 . S
C836 C844 1.574 . S
C836 C852 1.368 . S
H837 C845 0.950 . S
H838 C843 0.950 . S
H839 C844 0.949 . S
H840 C846 0.950 . S
H841 C847 0.950 . S
H842 C848 0.949 . S
C843 H838 0.950 . S
C843 C845 1.327 . S
C843 C849 1.429 . S
C844 C836 1.574 . S
C844 H839 0.949 . S
C844 C850 1.368 . S
C845 C829 1.349 . S
C845 H837 0.950 . S
C845 C843 1.327 . S
C846 C834 1.349 . S
C846 H840 0.950 . S
C846 C847 1.327 . S
C847 H841 0.950 . S
C847 C846 1.327 . S
C847 C851 1.429 . S
C848 C831 1.574 . S
C848 H842 0.949 . S
C848 C852 1.368 . S
C849 C830 1.429 . S
C849 C843 1.429 . S
C849 C850 1.523 . S
C850 C831 1.368 . S
C850 C844 1.368 . S
C850 C849 1.523 . S
C851 C835 1.429 . S
C851 C847 1.429 . S
C851 C852 1.523 . S
C852 C836 1.368 . S
C852 C848 1.368 . S
C852 C851 1.523 . S
H853 C828 0.950 . S
H854 C830 0.950 . S
H855 C831 0.949 . S
H856 C833 0.950 . S
H857 C835 0.950 . S
C858 C859 1.349 . S
C858 C860 1.327 . S
C858 H883 0.950 . S
C859 C858 1.349 . S
C859 C875 1.349 . S
C860 C858 1.327 . S
C860 C879 1.429 . S
C860 H884 0.950 . S
C861 C878 1.574 . S
C861 C880 1.368 . S
C861 H885 0.949 . S
H862 C866 0.949 . S
C863 C864 1.349 . S
C863 C865 1.322 1_554 S
C863 H886 0.950 . S
C864 C863 1.349 . S
C864 C876 1.349 . S
C865 C863 1.322 1_556 S
C865 C881 1.431 . S
C865 H887 0.952 . S
C866 H862 0.949 . S
C866 C874 1.574 . S
C866 C882 1.368 . S
H867 C875 0.950 . S
H868 C873 0.950 . S
H869 C874 0.949 . S
H870 C876 0.950 . S
H871 C877 0.950 1_556 S
H872 C878 0.949 . S
C873 H868 0.950 . S
C873 C875 1.327 . S
C873 C879 1.429 . S
C874 C866 1.574 . S
C874 H869 0.949 . S
C874 C880 1.368 . S
C875 C859 1.349 . S
C875 H867 0.950 . S
C875 C873 1.327 . S
C876 C864 1.349 . S
C876 H870 0.950 . S
C876 C877 1.327 . S
C877 H871 0.950 1_554 S
C877 C876 1.327 . S
C877 C881 1.429 1_554 S
C878 C861 1.574 . S
C878 H872 0.949 . S
C878 C882 1.368 . S
C879 C860 1.429 . S
C879 C873 1.429 . S
C879 C880 1.523 . S
C880 C861 1.368 . S
C880 C874 1.368 . S
C880 C879 1.523 . S
C881 C865 1.431 . S
C881 C877 1.429 1_556 S
C881 C882 1.523 . S
C882 C866 1.368 . S
C882 C878 1.368 . S
C882 C881 1.523 . S
H883 C858 0.950 . S
H884 C860 0.950 . S
H885 C861 0.949 . S
H886 C863 0.950 . S
H887 C865 0.952 . S
C888 C889 1.349 . S
C888 C890 1.327 . S
C888 H913 0.950 . S
C889 C888 1.349 . S
C889 C905 1.349 . S
C890 C888 1.327 . S
C890 C909 1.429 . S
C890 H914 0.950 . S
C891 C908 1.574 . S
C891 C910 1.368 . S
C891 H915 0.949 . S
H892 C896 0.949 . S
C893 C894 1.349 . S
C893 C895 1.327 . S
C893 H916 0.950 . S
C894 C893 1.349 . S
C894 C906 1.349 . S
C895 C893 1.327 . S
C895 C911 1.429 . S
C895 H917 0.950 . S
C896 H892 0.949 . S
C896 C904 1.574 . S
C896 C912 1.368 . S
H897 C905 0.950 . S
H898 C903 0.950 . S
H899 C904 0.949 . S
H900 C906 0.950 . S
H901 C907 0.950 . S
H902 C908 0.949 . S
C903 H898 0.950 . S
C903 C905 1.327 . S
C903 C909 1.429 . S
C904 C896 1.574 . S
C904 H899 0.949 . S
C904 C910 1.368 . S
C905 C889 1.349 . S
C905 H897 0.950 . S
C905 C903 1.327 . S
C906 C894 1.349 . S
C906 H900 0.950 . S
C906 C907 1.327 . S
C907 H901 0.950 . S
C907 C906 1.327 . S
C907 C911 1.429 . S
C908 C891 1.574 . S
C908 H902 0.949 . S
C908 C912 1.368 . S
C909 C890 1.429 . S
C909 C903 1.429 . S
C909 C910 1.523 1_556 S
C910 C891 1.368 . S
C910 C904 1.368 . S
C910 C909 1.523 1_554 S
C911 C895 1.429 . S
C911 C907 1.429 . S
C911 C912 1.523 . S
C912 C896 1.368 . S
C912 C908 1.368 . S
C912 C911 1.523 . S
H913 C888 0.950 . S
H914 C890 0.950 . S
H915 C891 0.949 . S
H916 C893 0.950 . S
H917 C895 0.950 . S
C918 C919 1.349 . S
C918 C920 1.327 . S
C918 H943 0.950 . S
C919 C918 1.349 . S
C919 C935 1.349 . S
C920 C918 1.327 . S
C920 C939 1.429 . S
C920 H944 0.950 . S
C921 C938 1.574 . S
C921 C940 1.368 . S
C921 H945 0.949 . S
H922 C926 0.949 . S
C923 C924 1.349 . S
C923 C925 1.327 . S
C923 H946 0.950 . S
C924 C923 1.349 . S
C924 C936 1.349 . S
C925 C923 1.327 . S
C925 C941 1.429 . S
C925 H947 0.950 . S
C926 H922 0.949 . S
C926 C934 1.574 . S
C926 C942 1.368 . S
H927 C935 0.950 . S
H928 C933 0.950 . S
H929 C934 0.949 . S
H930 C936 0.950 . S
H931 C937 0.950 . S
H932 C938 0.949 . S
C933 H928 0.950 . S
C933 C935 1.327 . S
C933 C939 1.429 . S
C934 C926 1.574 . S
C934 H929 0.949 . S
C934 C940 1.368 . S
C935 C919 1.349 . S
C935 H927 0.950 . S
C935 C933 1.327 . S
C936 C924 1.349 . S
C936 H930 0.950 . S
C936 C937 1.327 . S
C937 H931 0.950 . S
C937 C936 1.327 . S
C937 C941 1.429 . S
C938 C921 1.574 . S
C938 H932 0.949 . S
C938 C942 1.368 . S
C939 C920 1.429 . S
C939 C933 1.429 . S
C939 C940 1.523 . S
C940 C921 1.368 . S
C940 C934 1.368 . S
C940 C939 1.523 . S
C941 C925 1.429 . S
C941 C937 1.429 . S
C941 C942 1.523 . S
C942 C926 1.368 . S
C942 C938 1.368 . S
C942 C941 1.523 . S
H943 C918 0.950 . S
H944 C920 0.950 . S
H945 C921 0.949 . S
H946 C923 0.950 . S
H947 C925 0.950 . S
C948 C949 1.349 . S
C948 C950 1.327 . S
C948 H973 0.950 . S
C949 C948 1.349 . S
C949 C965 1.349 . S
C950 C948 1.327 . S
C950 C969 1.429 . S
C950 H974 0.950 . S
C951 C968 1.574 . S
C951 C970 1.368 . S
C951 H975 0.949 . S
H952 C956 0.949 . S
C953 C954 1.349 . S
C953 C955 1.327 . S
C953 H976 0.950 . S
C954 C953 1.349 . S
C954 C966 1.349 . S
C955 C953 1.327 . S
C955 C971 1.429 . S
C955 H977 0.950 . S
C956 H952 0.949 . S
C956 C964 1.574 . S
C956 C972 1.368 . S
H957 C965 0.950 . S
H958 C963 0.950 . S
H959 C964 0.949 . S
H960 C966 0.950 . S
H961 C967 0.950 . S
H962 C968 0.949 . S
C963 H958 0.950 . S
C963 C965 1.327 . S
C963 C969 1.429 . S
C964 C956 1.574 . S
C964 H959 0.949 . S
C964 C970 1.368 . S
C965 C949 1.349 . S
C965 H957 0.950 . S
C965 C963 1.327 . S
C966 C954 1.349 . S
C966 H960 0.950 . S
C966 C967 1.327 . S
C967 H961 0.950 . S
C967 C966 1.327 . S
C967 C971 1.429 . S
C968 C951 1.574 . S
C968 H962 0.949 . S
C968 C972 1.368 . S
C969 C950 1.429 . S
C969 C963 1.429 . S
C969 C970 1.523 1_554 S
C970 C951 1.368 . S
C970 C964 1.368 . S
C970 C969 1.523 1_556 S
C971 C955 1.429 . S
C971 C967 1.429 . S
C971 C972 1.523 . S
C972 C956 1.368 . S
C972 C968 1.368 . S
C972 C971 1.523 . S
H973 C948 0.950 . S
H974 C950 0.950 . S
H975 C951 0.949 . S
H976 C953 0.950 . S
H977 C955 0.950 . S
C978 C979 1.349 . S
C978 C980 1.327 . S
C978 H1003 0.950 . S
C979 C978 1.349 . S
C979 C995 1.349 . S
C980 C978 1.327 . S
C980 C999 1.429 . S
C980 H1004 0.950 . S
C981 C998 1.574 . S
C981 C1000 1.368 . S
C981 H1005 0.949 . S
H982 C986 0.949 . S
C983 C984 1.349 . S
C983 C985 1.327 . S
C983 H1006 0.950 . S
C984 C983 1.349 . S
C984 C996 1.349 . S
C985 C983 1.327 . S
C985 C1001 1.429 . S
C985 H1007 0.950 . S
C986 H982 0.949 . S
C986 C994 1.574 . S
C986 C1002 1.368 . S
H987 C995 0.950 . S
H988 C993 0.950 . S
H989 C994 0.949 . S
H990 C996 0.950 . S
H991 C997 0.950 . S
H992 C998 0.949 . S
C993 H988 0.950 . S
C993 C995 1.327 . S
C993 C999 1.429 . S
C994 C986 1.574 . S
C994 H989 0.949 . S
C994 C1000 1.368 . S
C995 C979 1.349 . S
C995 H987 0.950 . S
C995 C993 1.327 . S
C996 C984 1.349 . S
C996 H990 0.950 . S
C996 C997 1.327 . S
C997 H991 0.950 . S
C997 C996 1.327 . S
C997 C1001 1.429 . S
C998 C981 1.574 . S
C998 H992 0.949 . S
C998 C1002 1.368 . S
C999 C980 1.429 . S
C999 C993 1.429 . S
C999 C1000 1.523 . S
C1000 C981 1.368 . S
C1000 C994 1.368 . S
C1000 C999 1.523 . S
C1001 C985 1.429 . S
C1001 C997 1.429 . S
C1001 C1002 1.523 . S
C1002 C986 1.368 . S
C1002 C998 1.368 . S
C1002 C1001 1.523 . S
H1003 C978 0.950 . S
H1004 C980 0.950 . S
H1005 C981 0.949 . S
H1006 C983 0.950 . S
H1007 C985 0.950 . S
C1008 C1009 1.349 . S
C1008 C1010 1.327 1_554 S
C1008 H1033 0.950 1_554 S
C1009 C1008 1.349 . S
C1009 C1025 1.349 . S
C1010 C1008 1.327 1_556 S
C1010 C1029 1.429 1_556 S
C1010 H1034 0.950 . S
C1011 C1028 1.574 . S
C1011 C1030 1.368 . S
C1011 H1035 0.949 . S
H1012 C1016 0.949 . S
C1013 C1014 1.349 . S
C1013 C1015 1.327 1_556 S
C1013 H1036 0.950 1_556 S
C1014 C1013 1.349 . S
C1014 C1026 1.349 . S
C1015 C1013 1.327 1_554 S
C1015 C1031 1.429 1_554 S
C1015 H1037 0.950 . S
C1016 H1012 0.949 . S
C1016 C1024 1.574 . S
C1016 C1032 1.368 . S
H1017 C1025 0.950 . S
H1018 C1023 0.950 . S
H1019 C1024 0.949 . S
H1020 C1026 0.950 . S
H1021 C1027 0.950 . S
H1022 C1028 0.949 . S
C1023 H1018 0.950 . S
C1023 C1025 1.327 . S
C1023 C1029 1.429 . S
C1024 C1016 1.574 . S
C1024 H1019 0.949 . S
C1024 C1030 1.368 1_556 S
C1025 C1009 1.349 . S
C1025 H1017 0.950 . S
C1025 C1023 1.327 . S
C1026 C1014 1.349 . S
C1026 H1020 0.950 . S
C1026 C1027 1.327 . S
C1027 H1021 0.950 . S
C1027 C1026 1.327 . S
C1027 C1031 1.429 . S
C1028 C1011 1.574 . S
C1028 H1022 0.949 . S
C1028 C1032 1.368 1_554 S
C1029 C1010 1.429 1_554 S
C1029 C1023 1.429 . S
C1029 C1030 1.523 . S
C1030 C1011 1.368 . S
C1030 C1024 1.368 1_554 S
C1030 C1029 1.523 . S
C1031 C1015 1.429 1_556 S
C1031 C1027 1.429 . S
C1031 C1032 1.523 . S
C1032 C1016 1.368 . S
C1032 C1028 1.368 1_556 S
C1032 C1031 1.523 . S
H1033 C1008 0.950 1_556 S
H1034 C1010 0.950 . S
H1035 C1011 0.949 . S
H1036 C1013 0.950 1_554 S
H1037 C1015 0.950 . S
C1038 C1039 1.349 . S
C1038 C1040 1.327 . S
C1038 H1063 0.950 . S
C1039 C1038 1.349 . S
C1039 C1055 1.349 . S
C1040 C1038 1.327 . S
C1040 C1059 1.429 . S
C1040 H1064 0.950 . S
C1041 C1058 1.574 . S
C1041 C1060 1.368 . S
C1041 H1065 0.949 . S
H1042 C1046 0.949 . S
C1043 C1044 1.349 . S
C1043 C1045 1.327 . S
C1043 H1066 0.950 . S
C1044 C1043 1.349 . S
C1044 C1056 1.349 . S
C1045 C1043 1.327 . S
C1045 C1061 1.429 . S
C1045 H1067 0.950 . S
C1046 H1042 0.949 . S
C1046 C1054 1.574 . S
C1046 C1062 1.368 . S
H1047 C1055 0.950 . S
H1048 C1053 0.950 . S
H1049 C1054 0.949 . S
H1050 C1056 0.950 . S
H1051 C1057 0.950 . S
H1052 C1058 0.949 . S
C1053 H1048 0.950 . S
C1053 C1055 1.327 . S
C1053 C1059 1.429 . S
C1054 C1046 1.574 . S
C1054 H1049 0.949 . S
C1054 C1060 1.368 . S
C1055 C1039 1.349 . S
C1055 H1047 0.950 . S
C1055 C1053 1.327 . S
C1056 C1044 1.349 . S
C1056 H1050 0.950 . S
C1056 C1057 1.327 . S
C1057 H1051 0.950 . S
C1057 C1056 1.327 . S
C1057 C1061 1.429 . S
C1058 C1041 1.574 . S
C1058 H1052 0.949 . S
C1058 C1062 1.368 . S
C1059 C1040 1.429 . S
C1059 C1053 1.429 . S
C1059 C1060 1.523 . S
C1060 C1041 1.368 . S
C1060 C1054 1.368 . S
C1060 C1059 1.523 . S
C1061 C1045 1.429 . S
C1061 C1057 1.429 . S
C1061 C1062 1.523 . S
C1062 C1046 1.368 . S
C1062 C1058 1.368 . S
C1062 C1061 1.523 . S
H1063 C1038 0.950 . S
H1064 C1040 0.950 . S
H1065 C1041 0.949 . S
H1066 C1043 0.950 . S
H1067 C1045 0.950 . S
C1068 C1069 1.349 . S
C1068 C1070 1.327 . S
C1068 H1093 0.950 . S
C1069 C1068 1.349 . S
C1069 C1085 1.349 . S
C1070 C1068 1.327 . S
C1070 C1089 1.429 . S
C1070 H1094 0.950 . S
C1071 C1088 1.574 . S
C1071 C1090 1.368 . S
C1071 H1095 0.949 . S
H1072 C1076 0.949 . S
C1073 C1074 1.349 . S
C1073 C1075 1.327 . S
C1073 H1096 0.950 . S
C1074 C1073 1.349 . S
C1074 C1086 1.349 . S
C1075 C1073 1.327 . S
C1075 C1091 1.429 . S
C1075 H1097 0.950 . S
C1076 H1072 0.949 . S
C1076 C1084 1.574 . S
C1076 C1092 1.368 . S
H1077 C1085 0.950 . S
H1078 C1083 0.950 . S
H1079 C1084 0.949 . S
H1080 C1086 0.950 . S
H1081 C1087 0.950 . S
H1082 C1088 0.949 . S
C1083 H1078 0.950 . S
C1083 C1085 1.327 . S
C1083 C1089 1.429 . S
C1084 C1076 1.574 . S
C1084 H1079 0.949 . S
C1084 C1090 1.368 . S
C1085 C1069 1.349 . S
C1085 H1077 0.950 . S
C1085 C1083 1.327 . S
C1086 C1074 1.349 . S
C1086 H1080 0.950 . S
C1086 C1087 1.327 . S
C1087 H1081 0.950 . S
C1087 C1086 1.327 . S
C1087 C1091 1.429 . S
C1088 C1071 1.574 . S
C1088 H1082 0.949 . S
C1088 C1092 1.368 . S
C1089 C1070 1.429 . S
C1089 C1083 1.429 . S
C1089 C1090 1.523 . S
C1090 C1071 1.368 . S
C1090 C1084 1.368 . S
C1090 C1089 1.523 . S
C1091 C1075 1.429 . S
C1091 C1087 1.429 . S
C1091 C1092 1.523 . S
C1092 C1076 1.368 . S
C1092 C1088 1.368 . S
C1092 C1091 1.523 . S
H1093 C1068 0.950 . S
H1094 C1070 0.950 . S
H1095 C1071 0.949 . S
H1096 C1073 0.950 . S
H1097 C1075 0.950 . S
C1098 C1099 1.349 . S
C1098 C1100 1.327 . S
C1098 H1123 0.950 . S
C1099 C1098 1.349 . S
C1099 C1115 1.349 . S
C1100 C1098 1.327 . S
C1100 C1119 1.429 . S
C1100 H1124 0.950 . S
C1101 C1118 1.574 . S
C1101 C1120 1.368 . S
C1101 H1125 0.949 . S
H1102 C1106 0.949 . S
C1103 C1104 1.349 . S
C1103 C1105 1.327 . S
C1103 H1126 0.950 . S
C1104 C1103 1.349 . S
C1104 C1116 1.349 . S
C1105 C1103 1.327 . S
C1105 C1121 1.429 . S
C1105 H1127 0.950 . S
C1106 H1102 0.949 . S
C1106 C1114 1.574 . S
C1106 C1122 1.368 . S
H1107 C1115 0.950 . S
H1108 C1113 0.950 . S
H1109 C1114 0.949 . S
H1110 C1116 0.950 . S
H1111 C1117 0.950 . S
H1112 C1118 0.949 . S
C1113 H1108 0.950 . S
C1113 C1115 1.327 . S
C1113 C1119 1.429 . S
C1114 C1106 1.574 . S
C1114 H1109 0.949 . S
C1114 C1120 1.368 . S
C1115 C1099 1.349 . S
C1115 H1107 0.950 . S
C1115 C1113 1.327 . S
C1116 C1104 1.349 . S
C1116 H1110 0.950 . S
C1116 C1117 1.327 . S
C1117 H1111 0.950 . S
C1117 C1116 1.327 . S
C1117 C1121 1.429 . S
C1118 C1101 1.574 . S
C1118 H1112 0.949 . S
C1118 C1122 1.368 . S
C1119 C1100 1.429 . S
C1119 C1113 1.429 . S
C1119 C1120 1.523 . S
C1120 C1101 1.368 . S
C1120 C1114 1.368 . S
C1120 C1119 1.523 . S
C1121 C1105 1.429 . S
C1121 C1117 1.429 . S
C1121 C1122 1.523 . S
C1122 C1106 1.368 . S
C1122 C1118 1.368 . S
C1122 C1121 1.523 . S
H1123 C1098 0.950 . S
H1124 C1100 0.950 . S
H1125 C1101 0.949 . S
H1126 C1103 0.950 . S
H1127 C1105 0.950 . S
C1128 C1129 1.349 . S
C1128 C1130 1.327 . S
C1128 H1153 0.950 . S
C1129 C1128 1.349 . S
C1129 C1145 1.349 . S
C1130 C1128 1.327 . S
C1130 C1149 1.429 . S
C1130 H1154 0.950 . S
C1131 C1148 1.574 . S
C1131 C1150 1.368 . S
C1131 H1155 0.949 . S
H1132 C1136 0.949 . S
C1133 C1134 1.349 . S
C1133 C1135 1.327 . S
C1133 H1156 0.950 . S
C1134 C1133 1.349 . S
C1134 C1146 1.349 . S
C1135 C1133 1.327 . S
C1135 C1151 1.429 . S
C1135 H1157 0.950 . S
C1136 H1132 0.949 . S
C1136 C1144 1.574 . S
C1136 C1152 1.368 . S
H1137 C1145 0.950 . S
H1138 C1143 0.950 . S
H1139 C1144 0.949 . S
H1140 C1146 0.950 . S
H1141 C1147 0.950 . S
H1142 C1148 0.949 . S
C1143 H1138 0.950 . S
C1143 C1145 1.327 . S
C1143 C1149 1.429 . S
C1144 C1136 1.574 . S
C1144 H1139 0.949 . S
C1144 C1150 1.368 . S
C1145 C1129 1.349 . S
C1145 H1137 0.950 . S
C1145 C1143 1.327 . S
C1146 C1134 1.349 . S
C1146 H1140 0.950 . S
C1146 C1147 1.327 . S
C1147 H1141 0.950 . S
C1147 C1146 1.327 . S
C1147 C1151 1.429 . S
C1148 C1131 1.574 . S
C1148 H1142 0.949 . S
C1148 C1152 1.368 . S
C1149 C1130 1.429 . S
C1149 C1143 1.429 . S
C1149 C1150 1.523 . S
C1150 C1131 1.368 . S
C1150 C1144 1.368 . S
C1150 C1149 1.523 . S
C1151 C1135 1.429 . S
C1151 C1147 1.429 . S
C1151 C1152 1.523 . S
C1152 C1136 1.368 . S
C1152 C1148 1.368 . S
C1152 C1151 1.523 . S
H1153 C1128 0.950 . S
H1154 C1130 0.950 . S
H1155 C1131 0.949 . S
H1156 C1133 0.950 . S
H1157 C1135 0.950 . S
C1158 C1159 1.349 . S
C1158 C1160 1.327 . S
C1158 H1183 0.950 . S
C1159 C1158 1.349 . S
C1159 C1175 1.349 . S
C1160 C1158 1.327 . S
C1160 C1179 1.429 . S
C1160 H1184 0.950 . S
C1161 C1178 1.574 . S
C1161 C1180 1.368 . S
C1161 H1185 0.949 . S
H1162 C1166 0.949 . S
C1163 C1164 1.349 . S
C1163 C1165 1.327 . S
C1163 H1186 0.950 . S
C1164 C1163 1.349 . S
C1164 C1176 1.349 . S
C1165 C1163 1.327 . S
C1165 C1181 1.429 . S
C1165 H1187 0.950 . S
C1166 H1162 0.949 . S
C1166 C1174 1.574 . S
C1166 C1182 1.368 . S
H1167 C1175 0.950 . S
H1168 C1173 0.950 . S
H1169 C1174 0.949 . S
H1170 C1176 0.950 . S
H1171 C1177 0.950 . S
H1172 C1178 0.949 . S
C1173 H1168 0.950 . S
C1173 C1175 1.327 . S
C1173 C1179 1.429 . S
C1174 C1166 1.574 . S
C1174 H1169 0.949 . S
C1174 C1180 1.368 . S
C1175 C1159 1.349 . S
C1175 H1167 0.950 . S
C1175 C1173 1.327 . S
C1176 C1164 1.349 . S
C1176 H1170 0.950 . S
C1176 C1177 1.327 . S
C1177 H1171 0.950 . S
C1177 C1176 1.327 . S
C1177 C1181 1.429 . S
C1178 C1161 1.574 . S
C1178 H1172 0.949 . S
C1178 C1182 1.368 . S
C1179 C1160 1.429 . S
C1179 C1173 1.429 . S
C1179 C1180 1.523 . S
C1180 C1161 1.368 . S
C1180 C1174 1.368 . S
C1180 C1179 1.523 . S
C1181 C1165 1.429 . S
C1181 C1177 1.429 . S
C1181 C1182 1.523 . S
C1182 C1166 1.368 . S
C1182 C1178 1.368 . S
C1182 C1181 1.523 . S
H1183 C1158 0.950 . S
H1184 C1160 0.950 . S
H1185 C1161 0.949 . S
H1186 C1163 0.950 . S
H1187 C1165 0.950 . S
C1188 C1189 1.349 . S
C1188 C1190 1.327 . S
C1188 H1213 0.950 . S
C1189 C1188 1.349 . S
C1189 C1205 1.349 . S
C1190 C1188 1.327 . S
C1190 C1209 1.429 . S
C1190 H1214 0.950 . S
C1191 C1208 1.574 1_545 S
C1191 C1210 1.368 . S
C1191 H1215 0.949 . S
H1192 C1196 0.949 . S
C1193 C1194 1.349 . S
C1193 C1195 1.327 . S
C1193 H1216 0.950 . S
C1194 C1193 1.349 . S
C1194 C1206 1.349 . S
C1195 C1193 1.327 . S
C1195 C1211 1.429 . S
C1195 H1217 0.950 . S
C1196 H1192 0.949 . S
C1196 C1204 1.574 1_565 S
C1196 C1212 1.368 . S
H1197 C1205 0.950 . S
H1198 C1203 0.950 . S
H1199 C1204 0.949 . S
H1200 C1206 0.950 . S
H1201 C1207 0.950 . S
H1202 C1208 0.949 . S
C1203 H1198 0.950 . S
C1203 C1205 1.327 . S
C1203 C1209 1.429 . S
C1204 C1196 1.574 1_545 S
C1204 H1199 0.949 . S
C1204 C1210 1.368 . S
C1205 C1189 1.349 . S
C1205 H1197 0.950 . S
C1205 C1203 1.327 . S
C1206 C1194 1.349 . S
C1206 H1200 0.950 . S
C1206 C1207 1.327 . S
C1207 H1201 0.950 . S
C1207 C1206 1.327 . S
C1207 C1211 1.429 . S
C1208 C1191 1.574 1_565 S
C1208 H1202 0.949 . S
C1208 C1212 1.368 . S
C1209 C1190 1.429 . S
C1209 C1203 1.429 . S
C1209 C1210 1.523 . S
C1210 C1191 1.368 . S
C1210 C1204 1.368 . S
C1210 C1209 1.523 . S
C1211 C1195 1.429 . S
C1211 C1207 1.429 . S
C1211 C1212 1.523 . S
C1212 C1196 1.368 . S
C1212 C1208 1.368 . S
C1212 C1211 1.523 . S
H1213 C1188 0.950 . S
H1214 C1190 0.950 . S
H1215 C1191 0.949 . S
H1216 C1193 0.950 . S
H1217 C1195 0.950 . S
C1218 C1219 1.349 . S
C1218 C1220 1.327 . S
C1218 H1243 0.950 . S
C1219 C1218 1.349 . S
C1219 C1235 1.349 . S
C1220 C1218 1.327 . S
C1220 C1239 1.429 . S
C1220 H1244 0.950 . S
C1221 C1238 1.574 1_565 S
C1221 C1240 1.368 1_556 S
C1221 H1245 0.949 . S
H1222 C1226 0.949 . S
C1223 C1224 1.349 . S
C1223 C1225 1.327 . S
C1223 H1246 0.950 . S
C1224 C1223 1.349 . S
C1224 C1236 1.349 . S
C1225 C1223 1.327 . S
C1225 C1241 1.429 . S
C1225 H1247 0.950 . S
C1226 H1222 0.949 . S
C1226 C1234 1.574 1_545 S
C1226 C1242 1.368 1_554 S
H1227 C1235 0.950 1_556 S
H1228 C1233 0.956 . S
H1229 C1234 0.949 . S
H1230 C1236 0.950 1_554 S
H1231 C1237 0.956 . S
H1232 C1238 0.949 . S
C1233 H1228 0.956 . S
C1233 C1235 1.325 1_556 S
C1233 C1239 1.424 1_556 S
C1234 C1226 1.574 1_565 S
C1234 H1229 0.949 . S
C1234 C1240 1.368 . S
C1235 C1219 1.349 . S
C1235 H1227 0.950 1_554 S
C1235 C1233 1.325 1_554 S
C1236 C1224 1.349 . S
C1236 H1230 0.950 1_556 S
C1236 C1237 1.325 1_556 S
C1237 H1231 0.956 . S
C1237 C1236 1.325 1_554 S
C1237 C1241 1.424 1_554 S
C1238 C1221 1.574 1_545 S
C1238 H1232 0.949 . S
C1238 C1242 1.368 . S
C1239 C1220 1.429 . S
C1239 C1233 1.424 1_554 S
C1239 C1240 1.523 . S
C1240 C1221 1.368 1_554 S
C1240 C1234 1.368 . S
C1240 C1239 1.523 . S
C1241 C1225 1.429 . S
C1241 C1237 1.424 1_556 S
C1241 C1242 1.523 . S
C1242 C1226 1.368 1_556 S
C1242 C1238 1.368 . S
C1242 C1241 1.523 . S
H1243 C1218 0.950 . S
H1244 C1220 0.950 . S
H1245 C1221 0.949 . S
H1246 C1223 0.950 . S
H1247 C1225 0.950 . S
C1248 C1249 1.349 . S
C1248 C1250 1.327 . S
C1248 H1273 0.950 . S
C1249 C1248 1.349 . S
C1249 C1265 1.349 . S
C1250 C1248 1.327 . S
C1250 C1269 1.429 . S
C1250 H1274 0.950 . S
C1251 C1268 1.574 . S
C1251 C1270 1.368 . S
C1251 H1275 0.949 . S
H1252 C1256 0.949 . S
C1253 C1254 1.349 . S
C1253 C1255 1.327 . S
C1253 H1276 0.950 . S
C1254 C1253 1.349 . S
C1254 C1266 1.349 . S
C1255 C1253 1.327 . S
C1255 C1271 1.429 . S
C1255 H1277 0.950 . S
C1256 H1252 0.949 . S
C1256 C1264 1.574 . S
C1256 C1272 1.368 . S
H1257 C1265 0.950 . S
H1258 C1263 0.950 . S
H1259 C1264 0.949 . S
H1260 C1266 0.950 . S
H1261 C1267 0.950 . S
H1262 C1268 0.949 . S
C1263 H1258 0.950 . S
C1263 C1265 1.327 . S
C1263 C1269 1.429 . S
C1264 C1256 1.574 . S
C1264 H1259 0.949 . S
C1264 C1270 1.368 . S
C1265 C1249 1.349 . S
C1265 H1257 0.950 . S
C1265 C1263 1.327 . S
C1266 C1254 1.349 . S
C1266 H1260 0.950 . S
C1266 C1267 1.327 . S
C1267 H1261 0.950 . S
C1267 C1266 1.327 . S
C1267 C1271 1.429 . S
C1268 C1251 1.574 . S
C1268 H1262 0.949 . S
C1268 C1272 1.368 . S
C1269 C1250 1.429 . S
C1269 C1263 1.429 . S
C1269 C1270 1.523 . S
C1270 C1251 1.368 . S
C1270 C1264 1.368 . S
C1270 C1269 1.523 . S
C1271 C1255 1.429 . S
C1271 C1267 1.429 . S
C1271 C1272 1.523 . S
C1272 C1256 1.368 . S
C1272 C1268 1.368 . S
C1272 C1271 1.523 . S
H1273 C1248 0.950 . S
H1274 C1250 0.950 . S
H1275 C1251 0.949 . S
H1276 C1253 0.950 . S
H1277 C1255 0.950 . S
C1278 C1279 1.349 . S
C1278 C1280 1.327 . S
C1278 H1303 0.950 . S
C1279 C1278 1.349 . S
C1279 C1295 1.349 . S
C1280 C1278 1.327 . S
C1280 C1299 1.429 . S
C1280 H1304 0.950 . S
C1281 C1298 1.574 . S
C1281 C1300 1.368 . S
C1281 H1305 0.949 . S
H1282 C1286 0.949 . S
C1283 C1284 1.349 . S
C1283 C1285 1.327 . S
C1283 H1306 0.950 . S
C1284 C1283 1.349 . S
C1284 C1296 1.349 . S
C1285 C1283 1.327 . S
C1285 C1301 1.429 . S
C1285 H1307 0.950 . S
C1286 H1282 0.949 . S
C1286 C1294 1.574 . S
C1286 C1302 1.368 . S
H1287 C1295 0.950 . S
H1288 C1293 0.950 . S
H1289 C1294 0.949 . S
H1290 C1296 0.950 . S
H1291 C1297 0.950 . S
H1292 C1298 0.949 . S
C1293 H1288 0.950 . S
C1293 C1295 1.327 . S
C1293 C1299 1.429 . S
C1294 C1286 1.574 . S
C1294 H1289 0.949 . S
C1294 C1300 1.368 . S
C1295 C1279 1.349 . S
C1295 H1287 0.950 . S
C1295 C1293 1.327 . S
C1296 C1284 1.349 . S
C1296 H1290 0.950 . S
C1296 C1297 1.327 . S
C1297 H1291 0.950 . S
C1297 C1296 1.327 . S
C1297 C1301 1.429 . S
C1298 C1281 1.574 . S
C1298 H1292 0.949 . S
C1298 C1302 1.368 . S
C1299 C1280 1.429 . S
C1299 C1293 1.429 . S
C1299 C1300 1.523 . S
C1300 C1281 1.368 . S
C1300 C1294 1.368 . S
C1300 C1299 1.523 . S
C1301 C1285 1.429 . S
C1301 C1297 1.429 . S
C1301 C1302 1.523 . S
C1302 C1286 1.368 . S
C1302 C1298 1.368 . S
C1302 C1301 1.523 . S
H1303 C1278 0.950 . S
H1304 C1280 0.950 . S
H1305 C1281 0.949 . S
H1306 C1283 0.950 . S
H1307 C1285 0.950 . S
C1308 C1309 1.349 . S
C1308 C1310 1.327 . S
C1308 H1333 0.950 . S
C1309 C1308 1.349 . S
C1309 C1325 1.349 . S
C1310 C1308 1.327 . S
C1310 C1329 1.429 . S
C1310 H1334 0.950 . S
C1311 C1328 1.574 . S
C1311 C1330 1.368 . S
C1311 H1335 0.949 . S
H1312 C1316 0.949 . S
C1313 C1314 1.349 . S
C1313 C1315 1.327 . S
C1313 H1336 0.950 . S
C1314 C1313 1.349 . S
C1314 C1326 1.349 . S
C1315 C1313 1.327 . S
C1315 C1331 1.429 . S
C1315 H1337 0.950 . S
C1316 H1312 0.949 . S
C1316 C1324 1.574 . S
C1316 C1332 1.368 . S
H1317 C1325 0.950 . S
H1318 C1323 0.950 . S
H1319 C1324 0.949 . S
H1320 C1326 0.950 . S
H1321 C1327 0.950 . S
H1322 C1328 0.949 . S
C1323 H1318 0.950 . S
C1323 C1325 1.327 . S
C1323 C1329 1.429 . S
C1324 C1316 1.574 . S
C1324 H1319 0.949 . S
C1324 C1330 1.368 . S
C1325 C1309 1.349 . S
C1325 H1317 0.950 . S
C1325 C1323 1.327 . S
C1326 C1314 1.349 . S
C1326 H1320 0.950 . S
C1326 C1327 1.327 . S
C1327 H1321 0.950 . S
C1327 C1326 1.327 . S
C1327 C1331 1.429 . S
C1328 C1311 1.574 . S
C1328 H1322 0.949 . S
C1328 C1332 1.368 . S
C1329 C1310 1.429 . S
C1329 C1323 1.429 . S
C1329 C1330 1.523 . S
C1330 C1311 1.368 . S
C1330 C1324 1.368 . S
C1330 C1329 1.523 . S
C1331 C1315 1.429 . S
C1331 C1327 1.429 . S
C1331 C1332 1.523 . S
C1332 C1316 1.368 . S
C1332 C1328 1.368 . S
C1332 C1331 1.523 . S
H1333 C1308 0.950 . S
H1334 C1310 0.950 . S
H1335 C1311 0.949 . S
H1336 C1313 0.950 . S
H1337 C1315 0.950 . S
C1338 C1339 1.349 . S
C1338 C1340 1.327 . S
C1338 H1363 0.950 . S
C1339 C1338 1.349 . S
C1339 C1355 1.349 . S
C1340 C1338 1.327 . S
C1340 C1359 1.429 1_455 S
C1340 H1364 0.950 . S
C1341 C1358 1.574 . S
C1341 C1360 1.368 . S
C1341 H1365 0.949 . S
H1342 C1346 0.949 . S
C1343 C1344 1.349 . S
C1343 C1345 1.327 . S
C1343 H1366 0.950 . S
C1344 C1343 1.349 . S
C1344 C1356 1.349 . S
C1345 C1343 1.327 . S
C1345 C1361 1.429 . S
C1345 H1367 0.950 . S
C1346 H1342 0.949 . S
C1346 C1354 1.574 . S
C1346 C1362 1.368 . S
H1347 C1355 0.950 . S
H1348 C1353 0.950 . S
H1349 C1354 0.949 . S
H1350 C1356 0.950 . S
H1351 C1357 0.950 . S
H1352 C1358 0.949 . S
C1353 H1348 0.950 . S
C1353 C1355 1.327 1_655 S
C1353 C1359 1.429 . S
C1354 C1346 1.574 . S
C1354 H1349 0.949 . S
C1354 C1360 1.368 . S
C1355 C1339 1.349 . S
C1355 H1347 0.950 . S
C1355 C1353 1.327 1_455 S
C1356 C1344 1.349 . S
C1356 H1350 0.950 . S
C1356 C1357 1.327 . S
C1357 H1351 0.950 . S
C1357 C1356 1.327 . S
C1357 C1361 1.429 . S
C1358 C1341 1.574 . S
C1358 H1352 0.949 . S
C1358 C1362 1.368 . S
C1359 C1340 1.429 1_655 S
C1359 C1353 1.429 . S
C1359 C1360 1.523 . S
C1360 C1341 1.368 . S
C1360 C1354 1.368 . S
C1360 C1359 1.523 . S
C1361 C1345 1.429 . S
C1361 C1357 1.429 . S
C1361 C1362 1.523 . S
C1362 C1346 1.368 . S
C1362 C1358 1.368 . S
C1362 C1361 1.523 . S
H1363 C1338 0.950 . S
H1364 C1340 0.950 . S
H1365 C1341 0.949 . S
H1366 C1343 0.950 . S
H1367 C1345 0.950 . S
C1368 C1369 1.349 . S
C1368 C1370 1.327 . S
C1368 H1393 0.950 . S
C1369 C1368 1.349 . S
C1369 C1385 1.349 . S
C1370 C1368 1.327 . S
C1370 C1389 1.429 . S
C1370 H1394 0.950 . S
C1371 C1388 1.574 . S
C1371 C1390 1.368 . S
C1371 H1395 0.949 . S
H1372 C1376 0.949 . S
C1373 C1374 1.349 . S
C1373 C1375 1.327 . S
C1373 H1396 0.950 . S
C1374 C1373 1.349 . S
C1374 C1386 1.349 . S
C1375 C1373 1.327 . S
C1375 C1391 1.429 . S
C1375 H1397 0.950 . S
C1376 H1372 0.949 . S
C1376 C1384 1.574 . S
C1376 C1392 1.368 . S
H1377 C1385 0.950 . S
H1378 C1383 0.950 . S
H1379 C1384 0.949 . S
H1380 C1386 0.950 . S
H1381 C1387 0.950 . S
H1382 C1388 0.949 . S
C1383 H1378 0.950 . S
C1383 C1385 1.327 . S
C1383 C1389 1.429 . S
C1384 C1376 1.574 . S
C1384 H1379 0.949 . S
C1384 C1390 1.368 . S
C1385 C1369 1.349 . S
C1385 H1377 0.950 . S
C1385 C1383 1.327 . S
C1386 C1374 1.349 . S
C1386 H1380 0.950 . S
C1386 C1387 1.327 . S
C1387 H1381 0.950 . S
C1387 C1386 1.327 . S
C1387 C1391 1.429 . S
C1388 C1371 1.574 . S
C1388 H1382 0.949 . S
C1388 C1392 1.368 . S
C1389 C1370 1.429 . S
C1389 C1383 1.429 . S
C1389 C1390 1.523 . S
C1390 C1371 1.368 . S
C1390 C1384 1.368 . S
C1390 C1389 1.523 . S
C1391 C1375 1.429 . S
C1391 C1387 1.429 . S
C1391 C1392 1.523 . S
C1392 C1376 1.368 . S
C1392 C1388 1.368 . S
C1392 C1391 1.523 . S
H1393 C1368 0.950 . S
H1394 C1370 0.950 . S
H1395 C1371 0.949 . S
H1396 C1373 0.950 . S
H1397 C1375 0.950 . S
C1398 C1399 1.349 . S
C1398 C1400 1.327 . S
C1398 H1423 0.950 . S
C1399 C1398 1.349 . S
C1399 C1415 1.349 . S
C1400 C1398 1.327 . S
C1400 C1419 1.429 1_455 S
C1400 H1424 0.950 . S
C1401 C1418 1.574 . S
C1401 C1420 1.368 . S
C1401 H1425 0.949 . S
H1402 C1406 0.949 . S
C1403 C1404 1.349 . S
C1403 C1405 1.327 . S
C1403 H1426 0.950 . S
C1404 C1403 1.349 . S
C1404 C1416 1.349 . S
C1405 C1403 1.327 . S
C1405 C1421 1.429 . S
C1405 H1427 0.950 . S
C1406 H1402 0.949 . S
C1406 C1414 1.574 . S
C1406 C1422 1.368 . S
H1407 C1415 0.950 . S
H1408 C1413 0.950 . S
H1409 C1414 0.949 . S
H1410 C1416 0.950 . S
H1411 C1417 0.950 . S
H1412 C1418 0.949 . S
C1413 H1408 0.950 . S
C1413 C1415 1.327 1_655 S
C1413 C1419 1.429 . S
C1414 C1406 1.574 . S
C1414 H1409 0.949 . S
C1414 C1420 1.368 . S
C1415 C1399 1.349 . S
C1415 H1407 0.950 . S
C1415 C1413 1.327 1_455 S
C1416 C1404 1.349 . S
C1416 H1410 0.950 . S
C1416 C1417 1.327 . S
C1417 H1411 0.950 . S
C1417 C1416 1.327 . S
C1417 C1421 1.429 . S
C1418 C1401 1.574 . S
C1418 H1412 0.949 . S
C1418 C1422 1.368 . S
C1419 C1400 1.429 1_655 S
C1419 C1413 1.429 . S
C1419 C1420 1.523 . S
C1420 C1401 1.368 . S
C1420 C1414 1.368 . S
C1420 C1419 1.523 . S
C1421 C1405 1.429 . S
C1421 C1417 1.429 . S
C1421 C1422 1.523 . S
C1422 C1406 1.368 . S
C1422 C1418 1.368 . S
C1422 C1421 1.523 . S
H1423 C1398 0.950 . S
H1424 C1400 0.950 . S
H1425 C1401 0.949 . S
H1426 C1403 0.950 . S
H1427 C1405 0.950 . S
C1428 C1429 1.349 . S
C1428 C1430 1.327 . S
C1428 H1453 0.950 . S
C1429 C1428 1.349 . S
C1429 C1445 1.349 . S
C1430 C1428 1.327 . S
C1430 C1449 1.429 . S
C1430 H1454 0.950 . S
C1431 C1448 1.574 . S
C1431 C1450 1.368 . S
C1431 H1455 0.949 . S
H1432 C1436 0.949 . S
C1433 C1434 1.349 . S
C1433 C1435 1.327 . S
C1433 H1456 0.950 . S
C1434 C1433 1.349 . S
C1434 C1446 1.349 . S
C1435 C1433 1.327 . S
C1435 C1451 1.429 . S
C1435 H1457 0.950 . S
C1436 H1432 0.949 . S
C1436 C1444 1.574 . S
C1436 C1452 1.368 . S
H1437 C1445 0.950 . S
H1438 C1443 0.950 . S
H1439 C1444 0.949 . S
H1440 C1446 0.950 . S
H1441 C1447 0.950 . S
H1442 C1448 0.949 . S
C1443 H1438 0.950 . S
C1443 C1445 1.327 . S
C1443 C1449 1.429 . S
C1444 C1436 1.574 . S
C1444 H1439 0.949 . S
C1444 C1450 1.368 . S
C1445 C1429 1.349 . S
C1445 H1437 0.950 . S
C1445 C1443 1.327 . S
C1446 C1434 1.349 . S
C1446 H1440 0.950 . S
C1446 C1447 1.327 . S
C1447 H1441 0.950 . S
C1447 C1446 1.327 . S
C1447 C1451 1.429 . S
C1448 C1431 1.574 . S
C1448 H1442 0.949 . S
C1448 C1452 1.368 . S
C1449 C1430 1.429 . S
C1449 C1443 1.429 . S
C1449 C1450 1.523 . S
C1450 C1431 1.368 . S
C1450 C1444 1.368 . S
C1450 C1449 1.523 . S
C1451 C1435 1.429 . S
C1451 C1447 1.429 . S
C1451 C1452 1.523 . S
C1452 C1436 1.368 . S
C1452 C1448 1.368 . S
C1452 C1451 1.523 . S
H1453 C1428 0.950 . S
H1454 C1430 0.950 . S
H1455 C1431 0.949 . S
H1456 C1433 0.950 . S
H1457 C1435 0.950 . S
C1458 C1459 1.349 . S
C1458 C1460 1.327 . S
C1458 H1483 0.950 . S
C1459 C1458 1.349 . S
C1459 C1475 1.349 . S
C1460 C1458 1.327 . S
C1460 C1479 1.429 . S
C1460 H1484 0.950 . S
C1461 C1478 1.574 . S
C1461 C1480 1.368 . S
C1461 H1485 0.949 . S
H1462 C1466 0.949 . S
C1463 C1464 1.349 . S
C1463 C1465 1.327 . S
C1463 H1486 0.950 . S
C1464 C1463 1.349 . S
C1464 C1476 1.349 . S
C1465 C1463 1.327 . S
C1465 C1481 1.429 . S
C1465 H1487 0.950 . S
C1466 H1462 0.949 . S
C1466 C1474 1.574 . S
C1466 C1482 1.368 . S
H1467 C1475 0.950 . S
H1468 C1473 0.950 . S
H1469 C1474 0.949 . S
H1470 C1476 0.950 . S
H1471 C1477 0.950 . S
H1472 C1478 0.949 . S
C1473 H1468 0.950 . S
C1473 C1475 1.327 . S
C1473 C1479 1.429 . S
C1474 C1466 1.574 . S
C1474 H1469 0.949 . S
C1474 C1480 1.368 . S
C1475 C1459 1.349 . S
C1475 H1467 0.950 . S
C1475 C1473 1.327 . S
C1476 C1464 1.349 . S
C1476 H1470 0.950 . S
C1476 C1477 1.327 . S
C1477 H1471 0.950 . S
C1477 C1476 1.327 . S
C1477 C1481 1.429 . S
C1478 C1461 1.574 . S
C1478 H1472 0.949 . S
C1478 C1482 1.368 . S
C1479 C1460 1.429 . S
C1479 C1473 1.429 . S
C1479 C1480 1.523 . S
C1480 C1461 1.368 . S
C1480 C1474 1.368 . S
C1480 C1479 1.523 . S
C1481 C1465 1.429 . S
C1481 C1477 1.429 . S
C1481 C1482 1.523 . S
C1482 C1466 1.368 . S
C1482 C1478 1.368 . S
C1482 C1481 1.523 . S
H1483 C1458 0.950 . S
H1484 C1460 0.950 . S
H1485 C1461 0.949 . S
H1486 C1463 0.950 . S
H1487 C1465 0.950 . S
C1488 C1489 1.349 . S
C1488 C1490 1.327 . S
C1488 H1513 0.950 . S
C1489 C1488 1.349 . S
C1489 C1505 1.349 . S
C1490 C1488 1.327 . S
C1490 C1509 1.429 1_455 S
C1490 H1514 0.950 . S
C1491 C1508 1.574 . S
C1491 C1510 1.368 . S
C1491 H1515 0.949 . S
H1492 C1496 0.949 . S
C1493 C1494 1.349 . S
C1493 C1495 1.327 . S
C1493 H1516 0.950 . S
C1494 C1493 1.349 . S
C1494 C1506 1.349 . S
C1495 C1493 1.327 . S
C1495 C1511 1.429 . S
C1495 H1517 0.950 . S
C1496 H1492 0.949 . S
C1496 C1504 1.574 . S
C1496 C1512 1.368 . S
H1497 C1505 0.950 . S
H1498 C1503 0.950 1_655 S
H1499 C1504 0.949 . S
H1500 C1506 0.950 . S
H1501 C1507 0.950 . S
H1502 C1508 0.949 . S
C1503 H1498 0.950 1_455 S
C1503 C1505 1.327 . S
C1503 C1509 1.429 1_455 S
C1504 C1496 1.574 . S
C1504 H1499 0.949 . S
C1504 C1510 1.368 . S
C1505 C1489 1.349 . S
C1505 H1497 0.950 . S
C1505 C1503 1.327 . S
C1506 C1494 1.349 . S
C1506 H1500 0.950 . S
C1506 C1507 1.327 . S
C1507 H1501 0.950 . S
C1507 C1506 1.327 . S
C1507 C1511 1.429 . S
C1508 C1491 1.574 . S
C1508 H1502 0.949 . S
C1508 C1512 1.368 . S
C1509 C1490 1.429 1_655 S
C1509 C1503 1.429 1_655 S
C1509 C1510 1.523 . S
C1510 C1491 1.368 . S
C1510 C1504 1.368 . S
C1510 C1509 1.523 . S
C1511 C1495 1.429 . S
C1511 C1507 1.429 . S
C1511 C1512 1.523 . S
C1512 C1496 1.368 . S
C1512 C1508 1.368 . S
C1512 C1511 1.523 . S
H1513 C1488 0.950 . S
H1514 C1490 0.950 . S
H1515 C1491 0.949 . S
H1516 C1493 0.950 . S
H1517 C1495 0.950 . S
C1518 C1519 1.349 . S
C1518 C1520 1.327 . S
C1518 H1543 0.950 . S
C1519 C1518 1.349 . S
C1519 C1535 1.349 . S
C1520 C1518 1.327 . S
C1520 C1539 1.429 . S
C1520 H1544 0.950 . S
C1521 C1538 1.574 . S
C1521 C1540 1.368 . S
C1521 H1545 0.949 . S
H1522 C1526 0.949 . S
C1523 C1524 1.349 . S
C1523 C1525 1.327 . S
C1523 H1546 0.950 . S
C1524 C1523 1.349 . S
C1524 C1536 1.349 . S
C1525 C1523 1.327 . S
C1525 C1541 1.429 . S
C1525 H1547 0.950 . S
C1526 H1522 0.949 . S
C1526 C1534 1.574 . S
C1526 C1542 1.368 . S
H1527 C1535 0.950 . S
H1528 C1533 0.950 . S
H1529 C1534 0.949 . S
H1530 C1536 0.950 . S
H1531 C1537 0.950 . S
H1532 C1538 0.949 . S
C1533 H1528 0.950 . S
C1533 C1535 1.327 . S
C1533 C1539 1.429 . S
C1534 C1526 1.574 . S
C1534 H1529 0.949 . S
C1534 C1540 1.368 . S
C1535 C1519 1.349 . S
C1535 H1527 0.950 . S
C1535 C1533 1.327 . S
C1536 C1524 1.349 . S
C1536 H1530 0.950 . S
C1536 C1537 1.327 . S
C1537 H1531 0.950 . S
C1537 C1536 1.327 . S
C1537 C1541 1.429 . S
C1538 C1521 1.574 . S
C1538 H1532 0.949 . S
C1538 C1542 1.368 . S
C1539 C1520 1.429 . S
C1539 C1533 1.429 . S
C1539 C1540 1.523 . S
C1540 C1521 1.368 . S
C1540 C1534 1.368 . S
C1540 C1539 1.523 . S
C1541 C1525 1.429 . S
C1541 C1537 1.429 . S
C1541 C1542 1.523 . S
C1542 C1526 1.368 . S
C1542 C1538 1.368 . S
C1542 C1541 1.523 . S
H1543 C1518 0.950 . S
H1544 C1520 0.950 . S
H1545 C1521 0.949 . S
H1546 C1523 0.950 . S
H1547 C1525 0.950 . S
C1548 C1549 1.349 . S
C1548 C1550 1.327 . S
C1548 H1573 0.950 . S
C1549 C1548 1.349 . S
C1549 C1565 1.349 . S
C1550 C1548 1.327 . S
C1550 C1569 1.429 . S
C1550 H1574 0.950 . S
C1551 C1568 1.574 . S
C1551 C1570 1.368 . S
C1551 H1575 0.949 . S
H1552 C1556 0.949 . S
C1553 C1554 1.349 . S
C1553 C1555 1.327 . S
C1553 H1576 0.950 . S
C1554 C1553 1.349 . S
C1554 C1566 1.349 . S
C1555 C1553 1.327 . S
C1555 C1571 1.429 . S
C1555 H1577 0.950 . S
C1556 H1552 0.949 . S
C1556 C1564 1.574 . S
C1556 C1572 1.368 . S
H1557 C1565 0.950 . S
H1558 C1563 0.950 . S
H1559 C1564 0.949 . S
H1560 C1566 0.950 . S
H1561 C1567 0.950 . S
H1562 C1568 0.949 . S
C1563 H1558 0.950 . S
C1563 C1565 1.327 . S
C1563 C1569 1.429 . S
C1564 C1556 1.574 . S
C1564 H1559 0.949 . S
C1564 C1570 1.368 . S
C1565 C1549 1.349 . S
C1565 H1557 0.950 . S
C1565 C1563 1.327 . S
C1566 C1554 1.349 . S
C1566 H1560 0.950 . S
C1566 C1567 1.327 . S
C1567 H1561 0.950 . S
C1567 C1566 1.327 . S
C1567 C1571 1.429 . S
C1568 C1551 1.574 . S
C1568 H1562 0.949 . S
C1568 C1572 1.368 . S
C1569 C1550 1.429 . S
C1569 C1563 1.429 . S
C1569 C1570 1.523 . S
C1570 C1551 1.368 . S
C1570 C1564 1.368 . S
C1570 C1569 1.523 . S
C1571 C1555 1.429 . S
C1571 C1567 1.429 . S
C1571 C1572 1.523 . S
C1572 C1556 1.368 . S
C1572 C1568 1.368 . S
C1572 C1571 1.523 . S
H1573 C1548 0.950 . S
H1574 C1550 0.950 . S
H1575 C1551 0.949 . S
H1576 C1553 0.950 . S
H1577 C1555 0.950 . S
C1578 C1579 1.349 . S
C1578 C1580 1.327 . S
C1578 H1603 0.950 . S
C1579 C1578 1.349 . S
C1579 C1595 1.349 . S
C1580 C1578 1.327 . S
C1580 C1599 1.429 . S
C1580 H1604 0.950 . S
C1581 C1598 1.574 . S
C1581 C1600 1.368 . S
C1581 H1605 0.949 . S
H1582 C1586 0.949 . S
C1583 C1584 1.349 . S
C1583 C1585 1.327 . S
C1583 H1606 0.950 . S
C1584 C1583 1.349 . S
C1584 C1596 1.349 . S
C1585 C1583 1.327 . S
C1585 C1601 1.429 . S
C1585 H1607 0.950 . S
C1586 H1582 0.949 . S
C1586 C1594 1.574 . S
C1586 C1602 1.368 . S
H1587 C1595 0.950 . S
H1588 C1593 0.950 . S
H1589 C1594 0.949 . S
H1590 C1596 0.950 . S
H1591 C1597 0.950 . S
H1592 C1598 0.949 . S
C1593 H1588 0.950 . S
C1593 C1595 1.327 . S
C1593 C1599 1.429 . S
C1594 C1586 1.574 . S
C1594 H1589 0.949 . S
C1594 C1600 1.368 . S
C1595 C1579 1.349 . S
C1595 H1587 0.950 . S
C1595 C1593 1.327 . S
C1596 C1584 1.349 . S
C1596 H1590 0.950 . S
C1596 C1597 1.327 . S
C1597 H1591 0.950 . S
C1597 C1596 1.327 . S
C1597 C1601 1.429 . S
C1598 C1581 1.574 . S
C1598 H1592 0.949 . S
C1598 C1602 1.368 . S
C1599 C1580 1.429 . S
C1599 C1593 1.429 . S
C1599 C1600 1.523 . S
C1600 C1581 1.368 . S
C1600 C1594 1.368 . S
C1600 C1599 1.523 . S
C1601 C1585 1.429 . S
C1601 C1597 1.429 . S
C1601 C1602 1.523 . S
C1602 C1586 1.368 . S
C1602 C1598 1.368 . S
C1602 C1601 1.523 . S
H1603 C1578 0.950 . S
H1604 C1580 0.950 . S
H1605 C1581 0.949 . S
H1606 C1583 0.950 . S
H1607 C1585 0.950 . S
C1608 C1609 1.349 . S
C1608 C1610 1.327 . S
C1608 H1633 0.950 . S
C1609 C1608 1.349 . S
C1609 C1625 1.349 . S
C1610 C1608 1.327 . S
C1610 C1629 1.429 . S
C1610 H1634 0.950 . S
C1611 C1628 1.574 . S
C1611 C1630 1.368 . S
C1611 H1635 0.949 . S
H1612 C1616 0.949 . S
C1613 C1614 1.349 . S
C1613 C1615 1.327 1_455 S
C1613 H1636 0.950 . S
C1614 C1613 1.349 . S
C1614 C1626 1.349 . S
C1615 C1613 1.327 1_655 S
C1615 C1631 1.429 . S
C1615 H1637 0.949 . S
C1616 H1612 0.949 . S
C1616 C1624 1.574 . S
C1616 C1632 1.368 . S
H1617 C1625 0.950 . S
H1618 C1623 0.950 . S
H1619 C1624 0.949 . S
H1620 C1626 0.950 . S
H1621 C1627 0.950 . S
H1622 C1628 0.949 . S
C1623 H1618 0.950 . S
C1623 C1625 1.327 . S
C1623 C1629 1.429 . S
C1624 C1616 1.574 . S
C1624 H1619 0.949 . S
C1624 C1630 1.368 . S
C1625 C1609 1.349 . S
C1625 H1617 0.950 . S
C1625 C1623 1.327 . S
C1626 C1614 1.349 . S
C1626 H1620 0.950 . S
C1626 C1627 1.327 . S
C1627 H1621 0.950 . S
C1627 C1626 1.327 . S
C1627 C1631 1.429 1_455 S
C1628 C1611 1.574 . S
C1628 H1622 0.949 . S
C1628 C1632 1.368 . S
C1629 C1610 1.429 . S
C1629 C1623 1.429 . S
C1629 C1630 1.523 . S
C1630 C1611 1.368 . S
C1630 C1624 1.368 . S
C1630 C1629 1.523 . S
C1631 C1615 1.429 . S
C1631 C1627 1.429 1_655 S
C1631 C1632 1.523 . S
C1632 C1616 1.368 . S
C1632 C1628 1.368 . S
C1632 C1631 1.523 . S
H1633 C1608 0.950 . S
H1634 C1610 0.950 . S
H1635 C1611 0.949 . S
H1636 C1613 0.950 . S
H1637 C1615 0.949 . S
C1638 C1639 1.349 . S
C1638 C1640 1.327 . S
C1638 H1663 0.950 . S
C1639 C1638 1.349 . S
C1639 C1655 1.349 . S
C1640 C1638 1.327 . S
C1640 C1659 1.429 . S
C1640 H1664 0.950 . S
C1641 C1658 1.574 . S
C1641 C1660 1.368 . S
C1641 H1665 0.949 . S
H1642 C1646 0.949 . S
C1643 C1644 1.349 . S
C1643 C1645 1.327 . S
C1643 H1666 0.950 . S
C1644 C1643 1.349 . S
C1644 C1656 1.349 . S
C1645 C1643 1.327 . S
C1645 C1661 1.429 . S
C1645 H1667 0.950 . S
C1646 H1642 0.949 . S
C1646 C1654 1.574 . S
C1646 C1662 1.368 . S
H1647 C1655 0.950 . S
H1648 C1653 0.950 . S
H1649 C1654 0.949 . S
H1650 C1656 0.950 . S
H1651 C1657 0.950 . S
H1652 C1658 0.949 . S
C1653 H1648 0.950 . S
C1653 C1655 1.327 . S
C1653 C1659 1.429 . S
C1654 C1646 1.574 . S
C1654 H1649 0.949 . S
C1654 C1660 1.368 . S
C1655 C1639 1.349 . S
C1655 H1647 0.950 . S
C1655 C1653 1.327 . S
C1656 C1644 1.349 . S
C1656 H1650 0.950 . S
C1656 C1657 1.327 . S
C1657 H1651 0.950 . S
C1657 C1656 1.327 . S
C1657 C1661 1.429 . S
C1658 C1641 1.574 . S
C1658 H1652 0.949 . S
C1658 C1662 1.368 . S
C1659 C1640 1.429 . S
C1659 C1653 1.429 . S
C1659 C1660 1.523 . S
C1660 C1641 1.368 . S
C1660 C1654 1.368 . S
C1660 C1659 1.523 . S
C1661 C1645 1.429 . S
C1661 C1657 1.429 . S
C1661 C1662 1.523 . S
C1662 C1646 1.368 . S
C1662 C1658 1.368 . S
C1662 C1661 1.523 . S
H1663 C1638 0.950 . S
H1664 C1640 0.950 . S
H1665 C1641 0.949 . S
H1666 C1643 0.950 . S
H1667 C1645 0.950 . S
C1668 C1669 1.349 . S
C1668 C1670 1.327 . S
C1668 H1693 0.950 . S
C1669 C1668 1.349 . S
C1669 C1685 1.349 . S
C1670 C1668 1.327 . S
C1670 C1689 1.429 . S
C1670 H1694 0.950 . S
C1671 C1688 1.574 . S
C1671 C1690 1.368 . S
C1671 H1695 0.949 . S
H1672 C1676 0.949 . S
C1673 C1674 1.349 . S
C1673 C1675 1.327 . S
C1673 H1696 0.950 . S
C1674 C1673 1.349 . S
C1674 C1686 1.349 . S
C1675 C1673 1.327 . S
C1675 C1691 1.429 . S
C1675 H1697 0.950 . S
C1676 H1672 0.949 . S
C1676 C1684 1.574 . S
C1676 C1692 1.368 . S
H1677 C1685 0.950 . S
H1678 C1683 0.950 . S
H1679 C1684 0.949 . S
H1680 C1686 0.950 . S
H1681 C1687 0.950 . S
H1682 C1688 0.949 . S
C1683 H1678 0.950 . S
C1683 C1685 1.327 . S
C1683 C1689 1.429 . S
C1684 C1676 1.574 . S
C1684 H1679 0.949 . S
C1684 C1690 1.368 . S
C1685 C1669 1.349 . S
C1685 H1677 0.950 . S
C1685 C1683 1.327 . S
C1686 C1674 1.349 . S
C1686 H1680 0.950 . S
C1686 C1687 1.327 . S
C1687 H1681 0.950 . S
C1687 C1686 1.327 . S
C1687 C1691 1.429 . S
C1688 C1671 1.574 . S
C1688 H1682 0.949 . S
C1688 C1692 1.368 . S
C1689 C1670 1.429 . S
C1689 C1683 1.429 . S
C1689 C1690 1.523 . S
C1690 C1671 1.368 . S
C1690 C1684 1.368 . S
C1690 C1689 1.523 . S
C1691 C1675 1.429 . S
C1691 C1687 1.429 . S
C1691 C1692 1.523 . S
C1692 C1676 1.368 . S
C1692 C1688 1.368 . S
C1692 C1691 1.523 . S
H1693 C1668 0.950 . S
H1694 C1670 0.950 . S
H1695 C1671 0.949 . S
H1696 C1673 0.950 . S
H1697 C1675 0.950 . S
C1698 C1699 1.349 . S
C1698 C1700 1.327 . S
C1698 H1723 0.950 . S
C1699 C1698 1.349 . S
C1699 C1715 1.349 . S
C1700 C1698 1.327 . S
C1700 C1719 1.429 . S
C1700 H1724 0.950 . S
C1701 C1718 1.574 . S
C1701 C1720 1.368 . S
C1701 H1725 0.949 . S
H1702 C1706 0.949 . S
C1703 C1704 1.349 . S
C1703 C1705 1.327 . S
C1703 H1726 0.950 . S
C1704 C1703 1.349 . S
C1704 C1716 1.349 . S
C1705 C1703 1.327 . S
C1705 C1721 1.429 . S
C1705 H1727 0.950 . S
C1706 H1702 0.949 . S
C1706 C1714 1.574 . S
C1706 C1722 1.368 . S
H1707 C1715 0.950 . S
H1708 C1713 0.950 . S
H1709 C1714 0.949 . S
H1710 C1716 0.950 . S
H1711 C1717 0.950 . S
H1712 C1718 0.949 . S
C1713 H1708 0.950 . S
C1713 C1715 1.327 . S
C1713 C1719 1.429 . S
C1714 C1706 1.574 . S
C1714 H1709 0.949 . S
C1714 C1720 1.368 . S
C1715 C1699 1.349 . S
C1715 H1707 0.950 . S
C1715 C1713 1.327 . S
C1716 C1704 1.349 . S
C1716 H1710 0.950 . S
C1716 C1717 1.327 . S
C1717 H1711 0.950 . S
C1717 C1716 1.327 . S
C1717 C1721 1.429 . S
C1718 C1701 1.574 . S
C1718 H1712 0.949 . S
C1718 C1722 1.368 . S
C1719 C1700 1.429 . S
C1719 C1713 1.429 . S
C1719 C1720 1.523 . S
C1720 C1701 1.368 . S
C1720 C1714 1.368 . S
C1720 C1719 1.523 . S
C1721 C1705 1.429 . S
C1721 C1717 1.429 . S
C1721 C1722 1.523 . S
C1722 C1706 1.368 . S
C1722 C1718 1.368 . S
C1722 C1721 1.523 . S
H1723 C1698 0.950 . S
H1724 C1700 0.950 . S
H1725 C1701 0.949 . S
H1726 C1703 0.950 . S
H1727 C1705 0.950 . S
C529 N13 1.428 . S
C534 N2 1.425 . S
C559 N46 1.428 . S
C564 N35 1.425 . S
C589 N79 1.428 . S
C594 N68 1.425 . S
C619 N112 1.428 . S
C624 N101 1.425 . S
C649 N145 1.428 . S
C654 N134 1.425 . S
C679 N178 1.428 . S
C684 N167 1.425 . S
C709 N211 1.428 . S
C714 N200 1.425 . S
C739 N233 1.425 . S
C744 N244 1.428 . S
C769 N266 1.425 . S
C774 N277 1.428 . S
C799 N310 1.428 . S
C804 N299 1.425 . S
C829 N343 1.428 . S
C834 N332 1.425 . S
C859 N365 1.425 . S
C864 N376 1.428 . S
C889 N398 1.425 . S
C894 N409 1.428 . S
C919 N442 1.428 . S
C924 N431 1.425 . S
C949 N464 1.425 . S
C954 N475 1.428 . S
C979 N508 1.428 . S
C984 N497 1.425 . S
C1009 C18 0.973 . S
C1014 C150 0.973 . S
C1039 C183 0.973 . S
C1044 C51 0.973 . S
C1069 C216 0.973 . S
C1074 C84 0.973 . S
C1099 C117 0.973 . S
C1104 C249 0.973 . S
C1129 C348 0.973 . S
C1134 C282 0.973 . S
C1159 C315 0.973 . S
C1164 C381 0.973 . S
C1189 C414 0.973 . S
C1194 C480 0.973 . S
C1219 C447 0.973 . S
C1224 C513 0.973 . S
C1249 C304 1.390 . S
C1254 C7 1.390 . S
C1279 C469 1.390 . S
C1284 C40 1.390 . S
C1309 C73 1.390 . S
C1314 C271 1.390 . S
C1339 C502 1.390 . S
C1344 C106 1.390 . S
C1369 C337 1.390 . S
C1374 C139 1.390 . S
C1399 C436 1.390 . S
C1404 C172 1.390 . S
C1429 C205 1.390 . S
C1434 C370 1.390 . S
C1459 C238 1.390 . S
C1464 C403 1.390 . S
C1489 C153 1.412 . S
C1494 C120 1.412 . S
C1519 C417 1.412 . S
C1524 C285 1.412 . S
C1549 C54 1.412 . S
C1554 C219 1.412 . S
C1579 C450 1.412 . S
C1584 C318 1.412 . S
C1609 C186 1.412 . S
C1614 C21 1.412 . S
C1639 C351 1.412 . S
C1644 C516 1.412 . S
C1669 C252 1.412 . S
C1674 C87 1.412 . S
C1699 C483 1.412 . S
C1704 C384 1.412 . S
