# Generated by pormake.
# Topology umu, (4)-cn, num edge types: 1
# Building blocks:
#     Node 0, Type 0, BuildingBlock: QUQFOY_clean_sbu_1, # of connection points: 4
#     Node 1, Type 0, BuildingBlock: QUQFOY_clean_sbu_1, # of connection points: 4
#     Node 2, Type 0, BuildingBlock: QUQFOY_clean_sbu_1, # of connection points: 4
#     Node 3, Type 0, BuildingBlock: QUQFOY_clean_sbu_1, # of connection points: 4
#     Node 4, Type 0, BuildingBlock: QUQFOY_clean_sbu_1, # of connection points: 4
#     Node 5, Type 0, BuildingBlock: QUQFOY_clean_sbu_1, # of connection points: 4
#     Node 6, Type 0, BuildingBlock: QUQFOY_clean_sbu_1, # of connection points: 4
#     Node 7, Type 0, BuildingBlock: QUQFOY_clean_sbu_1, # of connection points: 4
#     Node 8, Type 0, BuildingBlock: QUQFOY_clean_sbu_1, # of connection points: 4
#     Node 9, Type 0, BuildingBlock: QUQFOY_clean_sbu_1, # of connection points: 4
#     Node 10, Type 0, BuildingBlock: QUQFOY_clean_sbu_1, # of connection points: 4
#     Node 11, Type 0, BuildingBlock: QUQFOY_clean_sbu_1, # of connection points: 4
#     Node 12, Type 0, BuildingBlock: QUQFOY_clean_sbu_1, # of connection points: 4
#     Node 13, Type 0, BuildingBlock: QUQFOY_clean_sbu_1, # of connection points: 4
#     Node 14, Type 0, BuildingBlock: QUQFOY_clean_sbu_1, # of connection points: 4
#     Node 15, Type 0, BuildingBlock: QUQFOY_clean_sbu_1, # of connection points: 4
#     Node 16, Type 0, BuildingBlock: QUQFOY_clean_sbu_1, # of connection points: 4
#     Node 17, Type 0, BuildingBlock: QUQFOY_clean_sbu_1, # of connection points: 4
#     Node 18, Type 0, BuildingBlock: QUQFOY_clean_sbu_1, # of connection points: 4
#     Node 19, Type 0, BuildingBlock: QUQFOY_clean_sbu_1, # of connection points: 4
#     Node 20, Type 0, BuildingBlock: QUQFOY_clean_sbu_1, # of connection points: 4
#     Node 21, Type 0, BuildingBlock: QUQFOY_clean_sbu_1, # of connection points: 4
#     Node 22, Type 0, BuildingBlock: QUQFOY_clean_sbu_1, # of connection points: 4
#     Node 23, Type 0, BuildingBlock: QUQFOY_clean_sbu_1, # of connection points: 4
#     Node 24, Type 0, BuildingBlock: QUQFOY_clean_sbu_1, # of connection points: 4
#     Node 25, Type 0, BuildingBlock: QUQFOY_clean_sbu_1, # of connection points: 4
#     Node 26, Type 0, BuildingBlock: QUQFOY_clean_sbu_1, # of connection points: 4
#     Node 27, Type 0, BuildingBlock: QUQFOY_clean_sbu_1, # of connection points: 4
#     Node 28, Type 0, BuildingBlock: QUQFOY_clean_sbu_1, # of connection points: 4
#     Node 29, Type 0, BuildingBlock: QUQFOY_clean_sbu_1, # of connection points: 4
#     Node 30, Type 0, BuildingBlock: QUQFOY_clean_sbu_1, # of connection points: 4
#     Node 31, Type 0, BuildingBlock: QUQFOY_clean_sbu_1, # of connection points: 4
#     Edge 32, Type (0, 0), BuildingBlock: AJUNOK_clean_linker_0, # of connection points: 2
#     Edge 33, Type (0, 0), BuildingBlock: AJUNOK_clean_linker_0, # of connection points: 2
#     Edge 34, Type (0, 0), BuildingBlock: AJUNOK_clean_linker_0, # of connection points: 2
#     Edge 35, Type (0, 0), BuildingBlock: AJUNOK_clean_linker_0, # of connection points: 2
#     Edge 36, Type (0, 0), BuildingBlock: AJUNOK_clean_linker_0, # of connection points: 2
#     Edge 37, Type (0, 0), BuildingBlock: AJUNOK_clean_linker_0, # of connection points: 2
#     Edge 38, Type (0, 0), BuildingBlock: AJUNOK_clean_linker_0, # of connection points: 2
#     Edge 39, Type (0, 0), BuildingBlock: AJUNOK_clean_linker_0, # of connection points: 2
#     Edge 40, Type (0, 0), BuildingBlock: AJUNOK_clean_linker_0, # of connection points: 2
#     Edge 41, Type (0, 0), BuildingBlock: AJUNOK_clean_linker_0, # of connection points: 2
#     Edge 42, Type (0, 0), BuildingBlock: AJUNOK_clean_linker_0, # of connection points: 2
#     Edge 43, Type (0, 0), BuildingBlock: AJUNOK_clean_linker_0, # of connection points: 2
#     Edge 44, Type (0, 0), BuildingBlock: AJUNOK_clean_linker_0, # of connection points: 2
#     Edge 45, Type (0, 0), BuildingBlock: AJUNOK_clean_linker_0, # of connection points: 2
#     Edge 46, Type (0, 0), BuildingBlock: AJUNOK_clean_linker_0, # of connection points: 2
#     Edge 47, Type (0, 0), BuildingBlock: AJUNOK_clean_linker_0, # of connection points: 2
#     Edge 48, Type (0, 0), BuildingBlock: AJUNOK_clean_linker_0, # of connection points: 2
#     Edge 49, Type (0, 0), BuildingBlock: AJUNOK_clean_linker_0, # of connection points: 2
#     Edge 50, Type (0, 0), BuildingBlock: AJUNOK_clean_linker_0, # of connection points: 2
#     Edge 51, Type (0, 0), BuildingBlock: AJUNOK_clean_linker_0, # of connection points: 2
#     Edge 52, Type (0, 0), BuildingBlock: AJUNOK_clean_linker_0, # of connection points: 2
#     Edge 53, Type (0, 0), BuildingBlock: AJUNOK_clean_linker_0, # of connection points: 2
#     Edge 54, Type (0, 0), BuildingBlock: AJUNOK_clean_linker_0, # of connection points: 2
#     Edge 55, Type (0, 0), BuildingBlock: AJUNOK_clean_linker_0, # of connection points: 2
#     Edge 56, Type (0, 0), BuildingBlock: AJUNOK_clean_linker_0, # of connection points: 2
#     Edge 57, Type (0, 0), BuildingBlock: AJUNOK_clean_linker_0, # of connection points: 2
#     Edge 58, Type (0, 0), BuildingBlock: AJUNOK_clean_linker_0, # of connection points: 2
#     Edge 59, Type (0, 0), BuildingBlock: AJUNOK_clean_linker_0, # of connection points: 2
#     Edge 60, Type (0, 0), BuildingBlock: AJUNOK_clean_linker_0, # of connection points: 2
#     Edge 61, Type (0, 0), BuildingBlock: AJUNOK_clean_linker_0, # of connection points: 2
#     Edge 62, Type (0, 0), BuildingBlock: AJUNOK_clean_linker_0, # of connection points: 2
#     Edge 63, Type (0, 0), BuildingBlock: AJUNOK_clean_linker_0, # of connection points: 2
#     Edge 64, Type (0, 0), BuildingBlock: AJUNOK_clean_linker_0, # of connection points: 2
#     Edge 65, Type (0, 0), BuildingBlock: AJUNOK_clean_linker_0, # of connection points: 2
#     Edge 66, Type (0, 0), BuildingBlock: AJUNOK_clean_linker_0, # of connection points: 2
#     Edge 67, Type (0, 0), BuildingBlock: AJUNOK_clean_linker_0, # of connection points: 2
#     Edge 68, Type (0, 0), BuildingBlock: AJUNOK_clean_linker_0, # of connection points: 2
#     Edge 69, Type (0, 0), BuildingBlock: AJUNOK_clean_linker_0, # of connection points: 2
#     Edge 70, Type (0, 0), BuildingBlock: AJUNOK_clean_linker_0, # of connection points: 2
#     Edge 71, Type (0, 0), BuildingBlock: AJUNOK_clean_linker_0, # of connection points: 2
#     Edge 72, Type (0, 0), BuildingBlock: AJUNOK_clean_linker_0, # of connection points: 2
#     Edge 73, Type (0, 0), BuildingBlock: AJUNOK_clean_linker_0, # of connection points: 2
#     Edge 74, Type (0, 0), BuildingBlock: AJUNOK_clean_linker_0, # of connection points: 2
#     Edge 75, Type (0, 0), BuildingBlock: AJUNOK_clean_linker_0, # of connection points: 2
#     Edge 76, Type (0, 0), BuildingBlock: AJUNOK_clean_linker_0, # of connection points: 2
#     Edge 77, Type (0, 0), BuildingBlock: AJUNOK_clean_linker_0, # of connection points: 2
#     Edge 78, Type (0, 0), BuildingBlock: AJUNOK_clean_linker_0, # of connection points: 2
#     Edge 79, Type (0, 0), BuildingBlock: AJUNOK_clean_linker_0, # of connection points: 2
#     Edge 80, Type (0, 0), BuildingBlock: AJUNOK_clean_linker_0, # of connection points: 2
#     Edge 81, Type (0, 0), BuildingBlock: AJUNOK_clean_linker_0, # of connection points: 2
#     Edge 82, Type (0, 0), BuildingBlock: AJUNOK_clean_linker_0, # of connection points: 2
#     Edge 83, Type (0, 0), BuildingBlock: AJUNOK_clean_linker_0, # of connection points: 2
#     Edge 84, Type (0, 0), BuildingBlock: AJUNOK_clean_linker_0, # of connection points: 2
#     Edge 85, Type (0, 0), BuildingBlock: AJUNOK_clean_linker_0, # of connection points: 2
#     Edge 86, Type (0, 0), BuildingBlock: AJUNOK_clean_linker_0, # of connection points: 2
#     Edge 87, Type (0, 0), BuildingBlock: AJUNOK_clean_linker_0, # of connection points: 2
#     Edge 88, Type (0, 0), BuildingBlock: AJUNOK_clean_linker_0, # of connection points: 2
#     Edge 89, Type (0, 0), BuildingBlock: AJUNOK_clean_linker_0, # of connection points: 2
#     Edge 90, Type (0, 0), BuildingBlock: AJUNOK_clean_linker_0, # of connection points: 2
#     Edge 91, Type (0, 0), BuildingBlock: AJUNOK_clean_linker_0, # of connection points: 2
#     Edge 92, Type (0, 0), BuildingBlock: AJUNOK_clean_linker_0, # of connection points: 2
#     Edge 93, Type (0, 0), BuildingBlock: AJUNOK_clean_linker_0, # of connection points: 2
#     Edge 94, Type (0, 0), BuildingBlock: AJUNOK_clean_linker_0, # of connection points: 2
#     Edge 95, Type (0, 0), BuildingBlock: AJUNOK_clean_linker_0, # of connection points: 2
# Relax obj value: 0.024
# Max RMSD: 0.054
# Mean RMSD: 0.054
data_MOF--net-umu--node1-QUQFOY_clean_sbu_1--edge1-AJUNOK_clean_linker_0
_symmetry_space_group_name_H-M    P1
_symmetry_Int_Tables_number       1
_symmetry_cell_setting            triclinic
loop_
_symmetry_equiv_pos_as_xyz
'x, y, z'
_cell_length_a     65.050555
_cell_length_b     65.054437
_cell_length_c     20.641226
_cell_angle_alpha  89.900056
_cell_angle_beta   89.869949
_cell_angle_gamma 89.949408
loop_
_atom_site_label
_atom_site_type_symbol
_atom_site_fract_x
_atom_site_fract_y
_atom_site_fract_z
_atom_type_partial_charge
O0 O 0.208 0.1626 1.01629 0.0
Cd1 Cd 0.18626 0.16892 0.08487 0.0
Cd2 Cd 0.22434 0.16769 0.15858 0.0
O3 O 0.23619 0.15655 0.07225 0.0
O4 O 0.16212 0.16783 0.026 0.0
O5 O 0.1664 0.14632 0.10784 0.0
C6 C 0.15622 0.15172 0.05695 0.0
C7 C 0.23554 0.15473 0.25867 0.0
C8 C 0.22663 0.15702 1.0186 0.0
C9 C 0.20005 0.2078 0.14791 0.0
O10 O 0.2167 0.19851 0.16161 0.0
O11 O 0.18522 0.19823 0.12171 0.0
O12 O 0.24746 0.16538 0.2218 0.0
O13 O 0.21734 0.15056 0.23745 0.0
O14 O 0.08585 0.96228 0.24902 0.0
Cd15 Cd 0.07948 0.94101 0.31914 0.0
Cd16 Cd 0.08182 0.97855 0.39125 0.0
O17 O 0.09437 0.98965 0.30546 0.0
O18 O 0.08077 0.91626 0.2629 0.0
O19 O 0.10217 0.92151 0.3442 0.0
C20 C 0.09688 0.91076 0.29442 0.0
C21 C 0.09415 0.98835 0.49344 0.0
C22 C 0.09277 0.98046 0.25134 0.0
C23 C 0.04094 0.95592 0.38073 0.0
O24 O 0.05063 0.97247 0.39243 0.0
O25 O 0.05022 0.94051 0.3567 0.0
O26 O 0.08477 0.00117 0.45614 0.0
O27 O 0.09775 0.97017 0.47096 0.0
O28 O 0.28605 0.83436 0.49244 0.0
Cd29 Cd 0.3059 0.83289 0.56904 0.0
Cd30 Cd 0.26925 0.83523 0.63429 0.0
O31 O 0.25961 0.84699 0.54578 0.0
O32 O 0.33295 0.83651 0.52556 0.0
O33 O 0.31923 0.85971 0.59129 0.0
C34 C 0.33363 0.85451 0.5513 0.0
C35 C 0.25821 0.84866 0.73379 0.0
C36 C 0.26845 0.84275 0.49237 0.0
C37 C 0.29287 0.79534 0.63665 0.0
O38 O 0.27539 0.80407 0.6397 0.0
O39 O 0.30845 0.80541 0.6175 0.0
O40 O 0.2458 0.83904 0.69588 0.0
O41 O 0.27674 0.85181 0.71339 0.0
O42 O 0.4086 0.03957 0.75469 0.0
Cd43 Cd 0.41088 0.06016 0.829 0.0
Cd44 Cd 0.40997 0.02361 0.89692 0.0
O45 O 0.39839 0.01254 0.81036 0.0
O46 O 0.40778 0.08665 0.78169 0.0
O47 O 0.38465 0.07485 0.85124 0.0
C48 C 0.39006 0.08846 0.80888 0.0
C49 C 0.39696 0.0137 0.9982 0.0
C50 C 0.40152 0.02142 0.75629 0.0
C51 C 0.44952 0.04779 0.8922 0.0
O52 O 0.441 0.03033 0.89904 0.0
O53 O 0.43905 0.06306 0.87268 0.0
O54 O 0.40686 0.00099 0.96179 0.0
O55 O 0.39328 0.03182 0.97524 0.0
O56 O 0.20827 0.84028 0.24691 0.0
Cd57 Cd 0.18675 0.83409 0.17766 0.0
Cd58 Cd 0.22455 0.83417 0.10455 0.0
O59 O 0.23675 0.84498 0.19072 0.0
O60 O 0.16198 0.83642 0.23399 0.0
O61 O 0.16765 0.85683 0.15017 0.0
C62 C 0.15657 0.85207 0.19995 0.0
C63 C 0.23472 0.84728 1.00344 0.0
C64 C 0.22712 0.8451 0.24443 0.0
C65 C 0.19978 0.79457 0.11616 0.0
O66 O 0.21659 0.80345 0.10156 0.0
O67 O 0.18524 0.8046 0.14249 0.0
O68 O 0.24706 0.8366 0.03884 0.0
O69 O 0.21682 0.85157 0.02714 0.0
O70 O 0.40943 0.96203 0.5083 0.0
Cd71 Cd 0.4121 0.94233 0.43184 0.0
Cd72 Cd 0.41067 0.97956 0.3676 0.0
O73 O 0.39891 0.98954 0.45552 0.0
O74 O 0.40915 0.91536 0.47643 0.0
O75 O 0.38599 0.92779 0.4083 0.0
C76 C 0.39141 0.91383 0.44945 0.0
C77 C 0.39726 0.99045 0.26801 0.0
C78 C 0.40192 0.98001 0.50855 0.0
C79 C 0.45057 0.95581 0.36917 0.0
O80 O 0.4418 0.97322 0.36404 0.0
O81 O 0.44034 0.94023 0.38761 0.0
O82 O 0.40708 0.00285 0.30542 0.0
O83 O 0.39406 0.97196 0.28873 0.0
O84 O 0.285 0.16767 0.76946 0.0
Cd85 Cd 0.30461 0.16961 0.69208 0.0
Cd86 Cd 0.26822 0.16724 0.62894 0.0
O87 O 0.25862 0.15491 0.71666 0.0
O88 O 0.33179 0.16589 0.7342 0.0
O89 O 0.31799 0.14295 0.66799 0.0
C90 C 0.33246 0.148 0.70769 0.0
C91 C 0.25872 0.15386 0.52822 0.0
C92 C 0.26751 0.15908 0.76988 0.0
C93 C 0.29096 0.20745 0.62783 0.0
O94 O 0.27359 0.19854 0.62534 0.0
O95 O 0.30677 0.19739 0.64511 0.0
O96 O 0.24556 0.16292 0.56526 0.0
O97 O 0.27707 0.15108 0.5505 0.0
O98 O 0.08829 0.04064 1.00533 0.0
Cd99 Cd 0.08132 0.06166 0.93509 0.0
Cd100 Cd 0.08146 0.02316 0.86464 0.0
O101 O 0.09378 0.0121 0.95061 0.0
O102 O 0.08282 0.0865 0.99096 0.0
O103 O 0.10354 0.08141 0.90761 0.0
C104 C 0.09842 0.09231 0.95732 0.0
C105 C 0.09362 0.01195 0.76342 0.0
C106 C 0.09387 0.02199 1.00374 0.0
C107 C 0.04159 0.04746 0.87784 0.0
O108 O 0.05051 0.03054 0.86474 0.0
O109 O 0.0517 0.06242 0.90106 0.0
O110 O 0.08356 -9e-05 0.8016 0.0
O111 O 0.09766 0.03026 0.78391 0.0
O112 O 0.78644 0.84006 0.26027 0.0
Cd113 Cd 0.80715 0.83345 0.18871 0.0
Cd114 Cd 0.76928 0.83508 0.11927 0.0
O115 O 0.75844 0.84764 0.20534 0.0
O116 O 0.83261 0.83571 0.2414 0.0
O117 O 0.82582 0.85618 0.15856 0.0
C118 C 0.83747 0.85147 0.20697 0.0
C119 C 0.75936 0.84717 1.01675 0.0
C120 C 0.76812 0.84664 0.25879 0.0
C121 C 0.79231 0.79445 0.13049 0.0
O122 O 0.77563 0.80395 0.11893 0.0
O123 O 0.80772 0.80395 0.15346 0.0
O124 O 0.74657 0.8379 0.05453 0.0
O125 O 0.77755 0.85085 0.03897 0.0
O126 O 0.90667 0.04194 1.01252 0.0
Cd127 Cd 0.91318 0.06302 0.94191 0.0
Cd128 Cd 0.9118 0.02499 0.87062 0.0
O129 O 0.89929 0.0141 0.95674 0.0
O130 O 0.91192 0.08787 0.99778 0.0
O131 O 0.89068 0.08265 0.91607 0.0
C132 C 0.89597 0.09348 0.96567 0.0
C133 C 0.89946 0.01404 0.76952 0.0
C134 C 0.90028 0.02356 1.01054 0.0
C135 C 0.95223 0.04838 0.88166 0.0
O136 O 0.94293 0.03161 0.86968 0.0
O137 O 0.94252 0.0636 0.90514 0.0
O138 O 0.90922 0.00178 0.80766 0.0
O139 O 0.89577 0.03244 0.79005 0.0
O140 O 0.70705 0.16347 0.7595 0.0
Cd141 Cd 0.68609 0.16926 0.68798 0.0
Cd142 Cd 0.72362 0.16799 0.61712 0.0
O143 O 0.73501 0.15632 0.70356 0.0
O144 O 0.6607 0.16693 0.74131 0.0
O145 O 0.66765 0.14623 0.65927 0.0
C146 C 0.6559 0.15109 0.70739 0.0
C147 C 0.73356 0.15501 0.5158 0.0
C148 C 0.72559 0.15746 0.75752 0.0
C149 C 0.69985 0.20818 0.6255 0.0
O150 O 0.71675 0.19902 0.61388 0.0
O151 O 0.68483 0.19844 0.65016 0.0
O152 O 0.74622 0.16495 0.55199 0.0
O153 O 0.71547 0.15125 0.53899 0.0
O154 O 0.58468 0.9632 0.50496 0.0
Cd155 Cd 0.57881 0.94207 0.43431 0.0
Cd156 Cd 0.57967 0.98051 0.36348 0.0
O157 O 0.59126 0.99157 0.45029 0.0
O158 O 0.58025 0.91731 0.49081 0.0
O159 O 0.60177 0.92281 0.40961 0.0
C160 C 0.59646 0.91197 0.45935 0.0
C161 C 0.59232 0.9919 0.26304 0.0
C162 C 0.59053 0.98176 0.50363 0.0
C163 C 0.53978 0.95601 0.3723 0.0
O164 O 0.5488 0.97299 0.36081 0.0
O165 O 0.54965 0.94098 0.39639 0.0
O166 O 0.582 0.00386 0.30072 0.0
O167 O 0.59643 0.97361 0.28378 0.0
O168 O 0.78543 0.1641 1.00362 0.0
Cd169 Cd 0.80607 0.17061 0.07517 0.0
Cd170 Cd 0.76799 0.16826 0.14577 0.0
O171 O 0.75732 0.15658 0.05852 0.0
O172 O 0.83158 0.16877 0.02216 0.0
O173 O 0.82494 0.14798 0.10448 0.0
C174 C 0.83659 0.15298 0.05622 0.0
C175 C 0.75691 0.15507 0.24585 0.0
C176 C 0.76707 0.15764 1.00509 0.0
C177 C 0.79109 0.209 0.13822 0.0
O178 O 0.77451 0.19933 0.14994 0.0
O179 O 0.80636 0.19983 0.11281 0.0
O180 O 0.74467 0.16507 0.2083 0.0
O181 O 0.77533 0.15152 0.22506 0.0
O182 O 0.58267 0.04149 0.74929 0.0
Cd183 Cd 0.57723 0.06266 0.82039 0.0
Cd184 Cd 0.57908 0.02528 0.8918 0.0
O185 O 0.59097 0.01394 0.80551 0.0
O186 O 0.57916 0.08767 0.76528 0.0
O187 O 0.60056 0.0812 0.84594 0.0
C188 C 0.59546 0.09246 0.79693 0.0
C189 C 0.59205 0.01546 0.99321 0.0
C190 C 0.58927 0.02317 0.75139 0.0
C191 C 0.53867 0.04878 0.88413 0.0
O192 O 0.54799 0.03192 0.89498 0.0
O193 O 0.54826 0.06396 0.85982 0.0
O194 O 0.58225 0.00271 0.95695 0.0
O195 O 0.59568 0.03357 0.97007 0.0
O196 O 0.70734 0.84097 0.5031 0.0
Cd197 Cd 0.68596 0.83446 0.57286 0.0
Cd198 Cd 0.72389 0.83427 0.64574 0.0
O199 O 0.73546 0.84634 0.55982 0.0
O200 O 0.66103 0.83712 0.51771 0.0
O201 O 0.667 0.85716 0.60184 0.0
C202 C 0.65578 0.85267 0.55232 0.0
C203 C 0.73539 0.84618 0.74692 0.0
C204 C 0.72606 0.84629 0.50583 0.0
C205 C 0.69925 0.79459 0.63147 0.0
O206 O 0.71606 0.80343 0.64607 0.0
O207 O 0.68457 0.80478 0.60663 0.0
O208 O 0.74719 0.83584 0.70881 0.0
O209 O 0.71716 0.85063 0.72645 0.0
O210 O 0.90528 0.96358 0.25584 0.0
Cd211 Cd 0.9125 0.94217 0.32459 0.0
Cd212 Cd 0.91129 0.98038 0.3971 0.0
O213 O 0.89888 0.99173 0.3116 0.0
O214 O 0.91147 0.91783 0.26651 0.0
O215 O 0.89051 0.92189 0.3499 0.0
C216 C 0.89577 0.91164 0.29898 0.0
C217 C 0.89917 0.99044 0.49953 0.0
C218 C 0.89921 0.98206 0.25807 0.0
C219 C 0.95168 0.95684 0.38375 0.0
O220 O 0.94231 0.97347 0.39711 0.0
O221 O 0.94206 0.94172 0.35939 0.0
O222 O 0.90888 0.00304 0.46219 0.0
O223 O 0.89519 0.97236 0.47704 0.0
O224 O 0.70665 0.65859 0.50371 0.0
Cd225 Cd 0.68498 0.6656 0.57184 0.0
Cd226 Cd 0.72353 0.66535 0.6455 0.0
O227 O 0.73494 0.65309 0.55971 0.0
O228 O 0.66095 0.66452 0.51243 0.0
O229 O 0.66465 0.64342 0.59552 0.0
C230 C 0.65468 0.6487 0.54411 0.0
C231 C 0.73499 0.6535 0.74696 0.0
C232 C 0.72528 0.653 0.50616 0.0
C233 C 0.69892 0.70519 0.63105 0.0
O234 O 0.71571 0.6962 0.64527 0.0
O235 O 0.6841 0.69518 0.60651 0.0
O236 O 0.74683 0.66371 0.70859 0.0
O237 O 0.71673 0.64914 0.72661 0.0
O238 O 0.57794 0.46134 0.74104 0.0
Cd239 Cd 0.57674 0.44202 0.81907 0.0
Cd240 Cd 0.57962 0.47888 0.8812 0.0
O241 O 0.5911 0.488 0.79164 0.0
O242 O 0.58103 0.41481 0.77766 0.0
O243 O 0.60387 0.42958 0.8422 0.0
C244 C 0.59916 0.41495 0.80264 0.0
C245 C 0.59334 0.48995 0.97997 0.0
C246 C 0.58665 0.47875 0.73922 0.0
C247 C 0.5396 0.45559 0.88715 0.0
O248 O 0.54848 0.47299 0.88822 0.0
O249 O 0.54939 0.43976 0.86853 0.0
O250 O 0.58378 0.50241 0.94185 0.0
O251 O 0.59635 0.47137 0.95997 0.0
O252 O 0.78297 0.33851 1.00427 0.0
Cd253 Cd 0.8034 0.33615 0.07887 0.0
Cd254 Cd 0.76682 0.33808 0.14722 0.0
O255 O 0.75616 0.34948 0.05967 0.0
O256 O 0.83005 0.3399 0.03295 0.0
O257 O 0.81741 0.36248 0.10277 0.0
C258 C 0.83123 0.35761 0.06042 0.0
C259 C 0.75562 0.35129 0.2469 0.0
C260 C 0.76497 0.34599 1.0057 0.0
C261 C 0.79055 0.29805 0.14431 0.0
O262 O 0.77332 0.30701 0.15136 0.0
O263 O 0.80598 0.30796 0.12305 0.0
O264 O 0.74345 0.34124 0.20941 0.0
O265 O 0.77404 0.35487 0.22621 0.0
O266 O 0.90662 0.53775 0.27201 0.0
Cd267 Cd 0.9132 0.55963 0.33962 0.0
Cd268 Cd 0.9125 0.52153 0.41455 0.0
O269 O 0.90143 0.50945 0.32864 0.0
O270 O 0.91203 0.58359 0.27962 0.0
O271 O 0.89081 0.5798 0.36247 0.0
C272 C 0.89611 0.58979 0.31098 0.0
C273 C 0.89951 0.51036 0.51485 0.0
C274 C 0.90145 0.51901 0.27485 0.0
C275 C 0.95244 0.54597 0.4018 0.0
O276 O 0.94328 0.52935 0.41676 0.0
O277 O 0.94267 0.56067 0.37527 0.0
O278 O 0.91035 0.49849 0.47842 0.0
O279 O 0.89526 0.52852 0.49321 0.0
O280 O 0.70581 0.33801 0.7579 0.0
Cd281 Cd 0.6861 0.33571 0.68146 0.0
Cd282 Cd 0.72284 0.33732 0.61761 0.0
O283 O 0.73302 0.3492 0.7049 0.0
O284 O 0.65919 0.33947 0.72571 0.0
O285 O 0.67236 0.36216 0.65708 0.0
C286 C 0.65833 0.3573 0.69877 0.0
C287 C 0.7324 0.35079 0.51673 0.0
C288 C 0.72365 0.34584 0.75803 0.0
C289 C 0.69944 0.29734 0.61954 0.0
O290 O 0.71683 0.30615 0.61491 0.0
O291 O 0.68377 0.30756 0.63722 0.0
O292 O 0.74541 0.34128 0.55306 0.0
O293 O 0.71414 0.35385 0.53965 0.0
O294 O 0.91317 0.46097 0.02612 0.0
Cd295 Cd 0.91479 0.4415 0.94868 0.0
Cd296 Cd 0.91117 0.4775 0.88498 0.0
O297 O 0.89909 0.48679 0.97345 0.0
O298 O 0.90979 0.41421 0.9889 0.0
O299 O 0.88772 0.42963 0.92287 0.0
C300 C 0.8919 0.41474 0.96229 0.0
C301 C 0.89752 0.4871 0.78459 0.0
C302 C 0.90394 0.47815 0.02665 0.0
C303 C 0.9518 0.45538 0.88123 0.0
O304 O 0.94249 0.47256 0.87912 0.0
O305 O 0.94236 0.4394 0.9004 0.0
O306 O 0.9064 0.50028 0.82174 0.0
O307 O 0.89492 0.46869 0.80685 0.0
O308 O 0.78571 0.65986 0.26148 0.0
Cd309 Cd 0.80689 0.6663 0.19102 0.0
Cd310 Cd 0.76919 0.66462 0.11921 0.0
O311 O 0.75806 0.65215 0.20517 0.0
O312 O 0.83199 0.66443 0.24566 0.0
O313 O 0.82605 0.64363 0.16332 0.0
C314 C 0.83731 0.64862 0.21227 0.0
C315 C 0.75911 0.65265 1.01675 0.0
C316 C 0.76736 0.65338 0.25922 0.0
C317 C 0.79228 0.70521 0.13087 0.0
O318 O 0.77565 0.69572 0.11864 0.0
O319 O 0.80756 0.69571 0.15482 0.0
O320 O 0.74644 0.66207 0.05451 0.0
O321 O 0.77727 0.64878 0.03892 0.0
O322 O 0.58259 0.53879 0.49354 0.0
Cd323 Cd 0.57707 0.56044 0.42377 0.0
Cd324 Cd 0.57794 0.52324 0.3502 0.0
O325 O 0.58876 0.51091 0.43631 0.0
O326 O 0.57948 0.58529 0.47938 0.0
O327 O 0.60028 0.57907 0.39696 0.0
C328 C 0.59544 0.59033 0.44614 0.0
C329 C 0.59135 0.51327 0.24932 0.0
C330 C 0.5879 0.52006 0.49064 0.0
C331 C 0.53797 0.54749 0.36081 0.0
O332 O 0.54707 0.53075 0.34679 0.0
O333 O 0.54778 0.56215 0.38704 0.0
O334 O 0.58074 0.50082 0.28461 0.0
O335 O 0.59537 0.5312 0.27296 0.0
O336 O 0.28432 0.3369 0.76642 0.0
Cd337 Cd 0.30447 0.33447 0.69061 0.0
Cd338 Cd 0.26792 0.33683 0.62489 0.0
O339 O 0.25791 0.34911 0.71214 0.0
O340 O 0.3313 0.33714 0.73577 0.0
O341 O 0.31912 0.36064 0.6682 0.0
C342 C 0.33296 0.35499 0.70937 0.0
C343 C 0.25834 0.35016 0.52384 0.0
C344 C 0.26669 0.34525 0.76582 0.0
C345 C 0.29087 0.2966 0.62611 0.0
O346 O 0.27353 0.30555 0.62197 0.0
O347 O 0.30656 0.30659 0.64448 0.0
O348 O 0.24528 0.34093 0.56085 0.0
O349 O 0.27665 0.35307 0.54621 0.0
O350 O 0.40871 0.53724 0.50528 0.0
Cd351 Cd 0.41059 0.55829 0.43187 0.0
Cd352 Cd 0.40956 0.52157 0.36217 0.0
O353 O 0.39878 0.51015 0.44966 0.0
O354 O 0.40813 0.58445 0.48118 0.0
O355 O 0.38433 0.57343 0.41315 0.0
C356 C 0.39022 0.58666 0.45582 0.0
C357 C 0.3962 0.5113 0.26191 0.0
C358 C 0.40196 0.51896 0.50369 0.0
C359 C 0.44883 0.54638 0.36414 0.0
O360 O 0.44043 0.52888 0.35716 0.0
O361 O 0.43844 0.56141 0.38576 0.0
O362 O 0.40656 0.49884 0.29784 0.0
O363 O 0.39223 0.52935 0.28488 0.0
O364 O 0.20915 0.66545 0.25855 0.0
Cd365 Cd 0.18838 0.66714 0.18464 0.0
Cd366 Cd 0.22475 0.66604 0.11552 0.0
O367 O 0.23609 0.65503 0.20274 0.0
O368 O 0.16203 0.66332 0.23227 0.0
O369 O 0.17452 0.64052 0.16296 0.0
C370 C 0.16087 0.64547 0.20577 0.0
C371 C 0.23493 0.6528 1.01487 0.0
C372 C 0.22733 0.65842 0.25686 0.0
C373 C 0.20009 0.70544 0.11823 0.0
O374 O 0.21758 0.69696 0.11121 0.0
O375 O 0.18498 0.69506 0.13939 0.0
O376 O 0.24746 0.66299 0.05085 0.0
O377 O 0.21687 0.64892 0.038 0.0
O378 O 0.08579 0.46498 0.99905 0.0
Cd379 Cd 0.0798 0.44284 0.93155 0.0
Cd380 Cd 0.08092 0.4802 0.85556 0.0
O381 O 0.09209 0.49268 0.94081 0.0
O382 O 0.08102 0.41887 0.99151 0.0
O383 O 0.10247 0.42289 0.90938 0.0
C384 C 0.09706 0.4128 0.96056 0.0
C385 C 0.0939 0.49014 0.75395 0.0
C386 C 0.09126 0.48363 0.99541 0.0
C387 C 0.04078 0.45626 0.86856 0.0
O388 O 0.05002 0.47285 0.85382 0.0
O389 O 0.05048 0.4415 0.89495 0.0
O390 O 0.08341 0.5026 0.78948 0.0
O391 O 0.09803 0.47221 0.77765 0.0
O392 O 0.28679 0.66637 0.50515 0.0
Cd393 Cd 0.30639 0.66808 0.58209 0.0
Cd394 Cd 0.26939 0.66651 0.64574 0.0
O395 O 0.2595 0.65506 0.55745 0.0
O396 O 0.33342 0.6643 0.5385 0.0
O397 O 0.31979 0.64129 0.60513 0.0
C398 C 0.33409 0.64633 0.56458 0.0
C399 C 0.2584 0.65297 0.74524 0.0
C400 C 0.26891 0.65865 0.50452 0.0
C401 C 0.29326 0.70629 0.6456 0.0
O402 O 0.2758 0.6976 0.64971 0.0
O403 O 0.30888 0.69602 0.6277 0.0
O404 O 0.24604 0.66287 0.70774 0.0
O405 O 0.2769 0.64973 0.7246 0.0
O406 O 0.08031 0.54218 0.24468 0.0
Cd407 Cd 0.07853 0.56126 0.3229 0.0
Cd408 Cd 0.08193 0.52449 0.38513 0.0
O409 O 0.0938 0.51569 0.29578 0.0
O410 O 0.0831 0.58865 0.28281 0.0
O411 O 0.10551 0.57347 0.3482 0.0
C412 C 0.10107 0.5883 0.30883 0.0
C413 C 0.09563 0.51352 0.48419 0.0
C414 C 0.08936 0.52492 0.24319 0.0
C415 C 0.04142 0.54707 0.38977 0.0
O416 O 0.05067 0.52986 0.39163 0.0
O417 O 0.05089 0.56307 0.37089 0.0
O418 O 0.08638 0.50096 0.44586 0.0
O419 O 0.09836 0.53217 0.46424 0.0
O420 O 0.20678 0.34185 1.01217 0.0
Cd421 Cd 0.18552 0.3357 0.08252 0.0
Cd422 Cd 0.22353 0.33724 0.15455 0.0
O423 O 0.23498 0.34836 0.06748 0.0
O424 O 0.16056 0.33764 0.02728 0.0
O425 O 0.16649 0.35855 0.1094 0.0
C426 C 0.15532 0.35356 0.06025 0.0
C427 C 0.2349 0.35016 0.25437 0.0
C428 C 0.22536 0.34761 1.01395 0.0
C429 C 0.19964 0.29694 0.14569 0.0
O430 O 0.21625 0.30637 0.15857 0.0
O431 O 0.18465 0.30637 0.11966 0.0
O432 O 0.24684 0.33969 0.21704 0.0
O433 O 0.21663 0.35426 0.2336 0.0
O434 O 0.41122 0.45987 0.75288 0.0
Cd435 Cd 0.41332 0.44032 0.83008 0.0
Cd436 Cd 0.41024 0.4772 0.89351 0.0
O437 O 0.39876 0.48673 0.8047 0.0
O438 O 0.41006 0.41316 0.78734 0.0
O439 O 0.38681 0.42657 0.85362 0.0
C440 C 0.3921 0.41228 0.81348 0.0
C441 C 0.39627 0.48795 0.99258 0.0
C442 C 0.40285 0.47747 0.75193 0.0
C443 C 0.45074 0.45451 0.89535 0.0
O444 O 0.44147 0.47168 0.89879 0.0
O445 O 0.44116 0.43859 0.87663 0.0
O446 O 0.40584 0.50053 0.95485 0.0
O447 O 0.39351 0.46937 0.97229 0.0
C448 C 0.11298 0.113 0.04747 0.0
C449 C 0.1114 0.10937 0.98037 0.0
C450 C 0.12716 0.12715 0.07212 0.0
C451 C 0.13982 0.13858 0.03043 0.0
H452 H 0.10386 0.10416 0.08151 0.0
H453 H 0.12846 0.1289 0.12414 0.0
S454 S 0.14088 0.13566 0.85077 0.0
N455 N 0.12324 0.11877 0.87269 0.0
N456 N 0.14944 0.14592 0.91868 0.0
C457 C 0.13779 0.13575 0.96309 0.0
C458 C 0.1237 0.12098 0.93812 0.0
C459 C 0.12182 0.88211 0.3124 0.0
C460 C 0.11018 0.89416 0.26955 0.0
C461 C 0.13606 0.86773 0.28905 0.0
C462 C 0.13959 0.86537 0.22211 0.0
H463 H 0.12012 0.88403 0.36427 0.0
H464 H 0.14503 0.85907 0.32385 0.0
S465 S 0.11283 0.89301 0.08983 0.0
N466 N 0.1026 0.90233 0.15693 0.0
N467 N 0.12994 0.8758 0.11338 0.0
C468 C 0.12783 0.87707 0.17877 0.0
C469 C 0.11295 0.89133 0.20244 0.0
C470 C 0.35638 0.90359 0.48497 0.0
C471 C 0.37686 0.89804 0.47188 0.0
C472 C 0.34274 0.88962 0.51373 0.0
C473 C 0.349 0.86949 0.52876 0.0
H474 H 0.35102 0.91902 0.47452 0.0
H475 H 0.32705 0.89445 0.52269 0.0
S476 S 0.40087 0.84732 0.50319 0.0
N477 N 0.40284 0.87123 0.4768 0.0
N478 N 0.37685 0.84459 0.5279 0.0
C479 C 0.36934 0.86366 0.51513 0.0
C480 C 0.38338 0.87806 0.4875 0.0
C481 C 0.3551 0.09878 0.77321 0.0
C482 C 0.37559 0.10424 0.78594 0.0
C483 C 0.34151 0.11281 0.7446 0.0
C484 C 0.34782 0.13291 0.72943 0.0
H485 H 0.34968 0.0834 0.78396 0.0
H486 H 0.32578 0.10807 0.73603 0.0
S487 S 0.39977 0.15483 0.75405 0.0
N488 N 0.40167 0.13091 0.78046 0.0
N489 N 0.37575 0.15767 0.72971 0.0
C490 C 0.36819 0.13863 0.74261 0.0
C491 C 0.38219 0.12417 0.77005 0.0
C492 C 0.8586 0.86696 0.29453 0.0
C493 C 0.85431 0.8651 0.22791 0.0
C494 C 0.87244 0.88175 0.31738 0.0
C495 C 0.88291 0.89475 0.27424 0.0
H496 H 0.8505 0.85758 0.32967 0.0
H497 H 0.87472 0.88322 0.36915 0.0
S498 S 0.87795 0.89535 0.09506 0.0
N499 N 0.86202 0.8771 0.11909 0.0
N500 N 0.88861 0.90444 0.16165 0.0
C501 C 0.87942 0.89247 0.20732 0.0
C502 C 0.86494 0.87777 0.18422 0.0
C503 C 0.87155 0.12244 0.94599 0.0
C504 C 0.88285 0.11035 0.98961 0.0
C505 C 0.85741 0.13707 0.96841 0.0
C506 C 0.85366 0.13964 0.03515 0.0
H507 H 0.8734 0.12035 0.89424 0.0
H508 H 0.84865 0.14573 0.93306 0.0
S509 S 0.87961 0.11209 0.16918 0.0
N510 N 0.88996 0.10244 0.10272 0.0
N511 N 0.86278 0.12943 0.14451 0.0
C512 C 0.86512 0.12794 0.07925 0.0
C513 C 0.87991 0.11343 0.05653 0.0
C514 C 0.63464 0.1354 0.79468 0.0
C515 C 0.63882 0.13771 0.72807 0.0
C516 C 0.62024 0.121 0.81689 0.0
C517 C 0.60909 0.10891 0.77311 0.0
H518 H 0.64319 0.14415 0.83017 0.0
H519 H 0.618 0.11914 0.8686 0.0
S520 S 0.61355 0.10984 0.59378 0.0
N521 N 0.63035 0.12712 0.61863 0.0
N522 N 0.60267 0.10057 0.66003 0.0
C523 C 0.61252 0.11165 0.70628 0.0
C524 C 0.62758 0.12592 0.6838 0.0
C525 C 0.62087 0.88292 0.44103 0.0
C526 C 0.60975 0.89537 0.4841 0.0
C527 C 0.63497 0.86836 0.46407 0.0
C528 C 0.63889 0.86622 0.53086 0.0
H529 H 0.61884 0.88463 0.38921 0.0
H530 H 0.64352 0.85936 0.42904 0.0
S531 S 0.61358 0.89507 0.66355 0.0
N532 N 0.60309 0.90426 0.59672 0.0
N533 N 0.63018 0.87739 0.63971 0.0
C534 C 0.62766 0.87837 0.57444 0.0
C535 C 0.61291 0.89282 0.55111 0.0
C536 C 0.62502 0.62486 0.55994 0.0
C537 C 0.63807 0.63573 0.51795 0.0
C538 C 0.61049 0.61098 0.53569 0.0
C539 C 0.60896 0.60704 0.46876 0.0
H540 H 0.62623 0.62688 0.61189 0.0
H541 H 0.60102 0.6026 0.56995 0.0
S542 S 0.63946 0.63181 0.33852 0.0
N543 N 0.64815 0.64218 0.40608 0.0
N544 N 0.62131 0.61552 0.36089 0.0
C545 C 0.62169 0.61806 0.42622 0.0
C546 C 0.63613 0.63257 0.45074 0.0
C547 C 0.60903 0.3798 0.76585 0.0
C548 C 0.61468 0.40017 0.77965 0.0
C549 C 0.62316 0.36601 0.73848 0.0
C550 C 0.6431 0.37241 0.7216 0.0
H551 H 0.59362 0.37446 0.77668 0.0
H552 H 0.61842 0.35028 0.73011 0.0
S553 S 0.66523 0.42432 0.74617 0.0
N554 N 0.6415 0.42612 0.77426 0.0
N555 N 0.66782 0.4004 0.72067 0.0
C556 C 0.64883 0.39282 0.73421 0.0
C557 C 0.63467 0.40666 0.76387 0.0
C558 C 0.88112 0.37948 0.99552 0.0
C559 C 0.87597 0.40011 0.98336 0.0
C560 C 0.8666 0.36578 0.02133 0.0
C561 C 0.84676 0.37251 0.03829 0.0
H562 H 0.89644 0.37387 0.98471 0.0
H563 H 0.87098 0.34987 0.02863 0.0
S564 S 0.82591 0.42517 1.01758 0.0
N565 N 0.84973 0.42664 0.99018 0.0
N566 N 0.82269 0.40109 0.04098 0.0
C567 C 0.84154 0.39317 0.0272 0.0
C568 C 0.85609 0.40693 0.99906 0.0
C569 C 0.85835 0.63396 0.30172 0.0
C570 C 0.85424 0.63531 0.23484 0.0
C571 C 0.87231 0.6195 0.32619 0.0
C572 C 0.8831 0.60633 0.28445 0.0
H573 H 0.85002 0.6435 0.33585 0.0
H574 H 0.87445 0.61842 0.37813 0.0
S575 S 0.87876 0.60444 0.10521 0.0
N576 N 0.86249 0.62266 0.12725 0.0
N577 N 0.88931 0.59595 0.17285 0.0
C578 C 0.87979 0.6081 0.21726 0.0
C579 C 0.8652 0.62247 0.19252 0.0
C580 C 0.34313 0.38981 0.74639 0.0
C581 C 0.34872 0.36941 0.73251 0.0
C582 C 0.35705 0.40329 0.77576 0.0
C583 C 0.37716 0.39697 0.79063 0.0
H584 H 0.32773 0.39523 0.73606 0.0
H585 H 0.3522 0.41894 0.78525 0.0
S586 S 0.39942 0.34527 0.76283 0.0
N587 N 0.37554 0.34343 0.73637 0.0
N588 N 0.40209 0.36916 0.78858 0.0
C589 C 0.38302 0.37672 0.77616 0.0
C590 C 0.36868 0.36282 0.74792 0.0
C591 C 0.34242 0.61124 0.52532 0.0
C592 C 0.34912 0.63114 0.54117 0.0
C593 C 0.35564 0.59722 0.49491 0.0
C594 C 0.37613 0.60247 0.48095 0.0
H595 H 0.32668 0.60668 0.53472 0.0
H596 H 0.34992 0.582 0.48364 0.0
S597 S 0.40123 0.65248 0.51386 0.0
N598 N 0.37741 0.6555 0.54016 0.0
N599 N 0.40261 0.62873 0.486 0.0
C600 C 0.38311 0.62219 0.49752 0.0
C601 C 0.36949 0.63666 0.5268 0.0
C602 C 0.1115 0.62354 0.27432 0.0
C603 C 0.11682 0.60298 0.28681 0.0
C604 C 0.12579 0.63723 0.24727 0.0
C605 C 0.14557 0.63055 0.22938 0.0
H606 H 0.09621 0.62909 0.28576 0.0
H607 H 0.12129 0.65309 0.23969 0.0
S608 S 0.16682 0.57807 0.25043 0.0
N609 N 0.14316 0.57655 0.27923 0.0
N610 N 0.16978 0.60209 0.22616 0.0
C611 C 0.15097 0.60996 0.24082 0.0
C612 C 0.13666 0.59621 0.27018 0.0
C613 C 0.12131 0.38342 0.9453 0.0
C614 C 0.11002 0.39618 0.98703 0.0
C615 C 0.13513 0.36886 0.96994 0.0
C616 C 0.13859 0.36699 0.03706 0.0
H617 H 0.11966 0.38489 0.89327 0.0
H618 H 0.14387 0.35965 0.93592 0.0
S619 S 0.1126 0.39658 0.16675 0.0
N620 N 0.10265 0.40558 0.09884 0.0
N621 N 0.12922 0.37868 0.14478 0.0
C622 C 0.12715 0.37941 0.07932 0.0
C623 C 0.11269 0.39388 0.05436 0.0
C624 C 0.25862 0.15765 0.95158 0.0
C625 C 0.23752 0.15344 0.95663 0.0
C626 C 0.26831 0.15855 0.89101 0.0
C627 C 0.25733 0.15513 0.83313 0.0
H628 H 0.26748 0.16146 0.99428 0.0
H629 H 0.28443 0.1627 0.88962 0.0
S630 S 0.20244 0.14006 0.82137 0.0
N631 N 0.20643 0.14326 0.89964 0.0
N632 N 0.22466 0.14492 0.7858 0.0
C633 C 0.23656 0.14934 0.83799 0.0
C634 C 0.22666 0.14851 0.89972 0.0
C635 C 0.09563 0.98002 0.13054 0.0
C636 C 0.09714 0.99112 0.18906 0.0
C637 C 0.09607 0.98994 0.07031 0.0
C638 C 0.098 0.01139 0.06607 0.0
H639 H 0.09315 0.96355 0.131 0.0
H640 H 0.09368 0.98082 0.02714 0.0
S641 S 0.10644 0.04718 0.20368 0.0
N642 N 0.10348 0.02446 0.23819 0.0
N643 N 0.10447 0.04315 0.12501 0.0
C644 C 0.1013 0.02249 0.1238 0.0
C645 C 0.10085 0.01236 0.18526 0.0
C646 C 0.25915 0.84374 0.31083 0.0
C647 C 0.23813 0.84839 0.30628 0.0
C648 C 0.26894 0.84276 0.37113 0.0
C649 C 0.25814 0.84652 0.4293 0.0
H650 H 0.26789 0.83971 0.26794 0.0
H651 H 0.28499 0.83832 0.37205 0.0
S652 S 0.20352 0.86264 0.44247 0.0
N653 N 0.20732 0.85922 0.36413 0.0
N654 N 0.22573 0.85741 0.47743 0.0
C655 C 0.23745 0.85265 0.42495 0.0
C656 C 0.22746 0.85357 0.36348 0.0
C657 C 0.39914 0.02173 0.63557 0.0
C658 C 0.39834 0.01053 0.69409 0.0
C659 C 0.39909 0.01182 0.57545 0.0
C660 C 0.39841 0.99029 0.57148 0.0
H661 H 0.4005 0.03833 0.636 0.0
H662 H 0.40063 0.02107 0.53203 0.0
S663 S 0.39316 0.95392 0.70949 0.0
N664 N 0.39461 0.97678 0.74375 0.0
N665 N 0.39455 0.95811 0.63071 0.0
C666 C 0.39626 0.97894 0.62933 0.0
C667 C 0.39619 0.98906 0.69063 0.0
C668 C 0.73606 0.85003 0.32503 0.0
C669 C 0.75759 0.85084 0.32124 0.0
C670 C 0.726 0.84982 0.38508 0.0
C671 C 0.73704 0.85042 0.44388 0.0
H672 H 0.72692 0.84838 0.28156 0.0
H673 H 0.70942 0.84821 0.38514 0.0
S674 S 0.79351 0.85658 0.4599 0.0
N675 N 0.78953 0.85525 0.38108 0.0
N676 N 0.77059 0.85468 0.49386 0.0
C677 C 0.75847 0.85297 0.4406 0.0
C678 C 0.76874 0.8532 0.37934 0.0
C679 C 0.89753 0.02407 0.13145 0.0
C680 C 0.89588 0.01297 0.07295 0.0
C681 C 0.89707 0.01417 0.19171 0.0
C682 C 0.89496 0.99274 0.19598 0.0
H683 H 0.90018 0.04051 0.13092 0.0
H684 H 0.89962 0.02325 0.23487 0.0
S685 S 0.88599 0.95699 0.05862 0.0
N686 N 0.88913 0.97967 0.024 0.0
N687 N 0.88811 0.96103 0.13725 0.0
C688 C 0.89149 0.98165 0.13834 0.0
C689 C 0.89197 0.99176 0.07686 0.0
C690 C 0.73511 0.15492 0.93865 0.0
C691 C 0.7566 0.15351 0.94271 0.0
C692 C 0.72519 0.15501 0.8785 0.0
C693 C 0.73634 0.15365 0.81989 0.0
H694 H 0.72592 0.1571 0.98192 0.0
H695 H 0.70866 0.15706 0.87814 0.0
S696 S 0.79268 0.14586 0.80493 0.0
N697 N 0.78856 0.14787 0.8836 0.0
N698 N 0.7699 0.14814 0.77058 0.0
C699 C 0.7577 0.15056 0.82357 0.0
C700 C 0.76782 0.15049 0.88493 0.0
C701 C 0.59185 0.02362 0.63048 0.0
C702 C 0.59333 0.01248 0.68906 0.0
C703 C 0.59234 0.01374 0.57029 0.0
C704 C 0.59428 0.9923 0.56614 0.0
H705 H 0.58944 0.0401 0.63088 0.0
H706 H 0.59006 0.0229 0.52702 0.0
S707 S 0.60237 0.95633 0.70395 0.0
N708 N 0.59946 0.97904 0.73836 0.0
N709 N 0.60051 0.96045 0.62525 0.0
C710 C 0.5974 0.98112 0.62395 0.0
C711 C 0.59692 0.9912 0.68537 0.0
C712 C 0.75752 0.65084 0.4403 0.0
C713 C 0.73608 0.64872 0.44423 0.0
C714 C 0.76757 0.65109 0.38023 0.0
C715 C 0.75661 0.64921 0.32154 0.0
H716 H 0.76652 0.65352 0.48356 0.0
H717 H 0.78401 0.65373 0.37998 0.0
S718 S 0.70065 0.63931 0.30633 0.0
N719 N 0.70451 0.64169 0.38496 0.0
N720 N 0.72342 0.64232 0.27211 0.0
C721 C 0.73538 0.64533 0.32513 0.0
C722 C 0.72513 0.64507 0.38642 0.0
C723 C 0.59218 0.52002 0.6109 0.0
C724 C 0.59115 0.50884 0.55248 0.0
C725 C 0.59181 0.51014 0.67118 0.0
C726 C 0.59025 0.48866 0.67553 0.0
H727 H 0.59252 0.53667 0.61036 0.0
H728 H 0.59175 0.51949 0.71455 0.0
S729 S 0.59037 0.452 0.53766 0.0
N730 N 0.59089 0.4749 0.50314 0.0
N731 N 0.59022 0.45628 0.61646 0.0
C732 C 0.59064 0.47717 0.61767 0.0
C733 C 0.59112 0.48726 0.55616 0.0
C734 C 0.75545 0.34863 0.82485 0.0
C735 C 0.73392 0.34933 0.82088 0.0
C736 C 0.76534 0.34851 0.88499 0.0
C737 C 0.75411 0.34927 0.94347 0.0
H738 H 0.76471 0.34712 0.78142 0.0
H739 H 0.78194 0.34713 0.88549 0.0
S740 S 0.69749 0.35446 0.95877 0.0
N741 N 0.70172 0.35315 0.88 0.0
N742 N 0.72034 0.35297 0.99308 0.0
C743 C 0.73264 0.35145 0.93998 0.0
C744 C 0.72255 0.35143 0.87867 0.0
C745 C 0.90279 0.48704 0.20827 0.0
C746 C 0.89794 0.50801 0.21318 0.0
C747 C 0.90383 0.47737 0.14779 0.0
C748 C 0.89993 0.48825 0.08989 0.0
H749 H 0.90699 0.4783 0.25097 0.0
H750 H 0.90846 0.46138 0.14649 0.0
S751 S 0.88317 0.54268 0.07786 0.0
N752 N 0.8867 0.53879 0.15608 0.0
N753 N 0.8886 0.5206 0.04242 0.0
C754 C 0.89352 0.50884 0.09465 0.0
C755 C 0.89255 0.51871 0.15628 0.0
C756 C 0.26725 0.34654 0.88688 0.0
C757 C 0.25627 0.34926 0.82861 0.0
C758 C 0.25743 0.34748 0.94723 0.0
C759 C 0.23619 0.35105 0.95171 0.0
H760 H 0.28351 0.3429 0.88604 0.0
H761 H 0.26635 0.34423 0.9903 0.0
S762 S 0.20092 0.36246 0.81493 0.0
N763 N 0.22336 0.35811 0.78006 0.0
N764 N 0.20488 0.35986 0.89348 0.0
C765 C 0.22527 0.35527 0.89428 0.0
C766 C 0.2353 0.35439 0.83275 0.0
C767 C 0.3992 0.51911 0.62438 0.0
C768 C 0.39906 0.50791 0.56592 0.0
C769 C 0.39927 0.50917 0.68458 0.0
C770 C 0.39941 0.48764 0.68871 0.0
H771 H 0.39988 0.53575 0.62382 0.0
H772 H 0.40022 0.51846 0.72799 0.0
S773 S 0.39629 0.45114 0.55085 0.0
N774 N 0.39695 0.47406 0.51643 0.0
N775 N 0.39716 0.45535 0.62964 0.0
C776 C 0.39802 0.47623 0.63089 0.0
C777 C 0.39779 0.48637 0.5695 0.0
C778 C 0.23712 0.65581 0.43763 0.0
C779 C 0.25866 0.65542 0.44145 0.0
C780 C 0.22717 0.6559 0.37759 0.0
C781 C 0.23835 0.65542 0.31897 0.0
H782 H 0.22787 0.65702 0.48117 0.0
H783 H 0.21055 0.65697 0.37728 0.0
S784 S 0.29504 0.65128 0.30305 0.0
N785 N 0.29087 0.65233 0.38189 0.0
N786 N 0.27213 0.65246 0.26899 0.0
C787 C 0.25986 0.65365 0.32224 0.0
C788 C 0.27001 0.65369 0.38347 0.0
C789 C 0.09539 0.49367 0.17559 0.0
C790 C 0.09332 0.5151 0.17967 0.0
C791 C 0.09596 0.48378 0.11544 0.0
C792 C 0.0946 0.49493 0.05689 0.0
H793 H 0.09554 0.48432 0.21907 0.0
H794 H 0.09665 0.46714 0.11509 0.0
S795 S 0.0926 0.55173 0.04132 0.0
N796 N 0.09259 0.54747 0.12018 0.0
N797 N 0.09361 0.52883 1.00709 0.0
C798 C 0.09415 0.5165 0.06027 0.0
C799 C 0.09348 0.52659 0.12166 0.0
C800 C 0.18282 0.2415 0.12605 0.0
C801 C 0.19867 0.23041 0.15664 0.0
C802 C 0.18273 0.26303 0.12548 0.0
C803 C 0.19847 0.27436 0.15546 0.0
H804 H 0.17081 0.23357 0.09986 0.0
H805 H 0.17065 0.27077 0.09887 0.0
S806 S 0.24171 0.25274 0.2512 0.0
N807 N 0.22923 0.23242 0.22423 0.0
N808 N 0.22905 0.27285 0.22316 0.0
C809 C 0.21368 0.26348 0.18988 0.0
C810 C 0.21377 0.24154 0.19047 0.0
C811 C 0.00686 0.93927 0.36126 0.0
C812 C 0.01831 0.95519 0.38987 0.0
C813 C 0.98534 0.9395 0.36198 0.0
C814 C 0.97434 0.95565 0.39135 0.0
H815 H 0.01451 0.92688 0.33583 0.0
H816 H 0.97732 0.92726 0.33708 0.0
S817 S -0.003 -0.00053 0.48158 0.0
N818 N 0.01702 0.98643 0.45456 0.0
N819 N 0.97658 0.98686 0.45593 0.0
C820 C 0.98559 0.97104 0.42351 0.0
C821 C 0.00754 0.97081 0.42276 0.0
C822 C 0.27668 0.76174 0.66586 0.0
C823 C 0.29446 0.77289 0.64915 0.0
C824 C 0.2768 0.74025 0.66829 0.0
C825 C 0.29469 0.72892 0.65408 0.0
H826 H 0.26225 0.76958 0.67468 0.0
H827 H 0.26244 0.73249 0.67877 0.0
S828 S 0.34618 0.75077 0.61721 0.0
N829 N 0.3311 0.77102 0.62532 0.0
N830 N 0.33131 0.7306 0.62984 0.0
C831 C 0.31297 0.73989 0.64184 0.0
C832 C 0.31285 0.76185 0.63937 0.0
C833 C 0.48375 0.03205 0.91592 0.0
C834 C 0.47215 0.0496 0.89978 0.0
C835 C 0.50524 0.03226 0.91361 0.0
C836 C 0.51612 0.05002 0.89499 0.0
H837 H 0.47621 0.01771 0.92809 0.0
H838 H 0.5133 0.01807 0.92419 0.0
S839 S 0.49319 0.10096 0.85694 0.0
N840 N 0.47326 0.08592 0.87118 0.0
N841 N 0.51367 0.08631 0.86682 0.0
C842 C 0.50478 0.06808 0.88279 0.0
C843 C 0.48283 0.06787 0.88524 0.0
C844 C 0.2151 0.76072 0.08517 0.0
C845 C 0.19803 0.77196 0.10775 0.0
C846 C 0.21515 0.73922 0.08552 0.0
C847 C 0.19813 0.72798 0.10833 0.0
H848 H 0.22893 0.76853 0.06938 0.0
H849 H 0.22902 0.73142 0.06997 0.0
S850 S 0.14842 0.74994 0.16425 0.0
N851 N 0.16276 0.77016 0.14724 0.0
N852 N 0.16286 0.72973 0.14787 0.0
C853 C 0.18041 0.73897 0.12695 0.0
C854 C 0.18036 0.76094 0.1267 0.0
C855 C 0.48447 0.97206 0.34396 0.0
C856 C 0.4732 0.95434 0.3605 0.0
C857 C 0.50597 0.97213 0.34496 0.0
C858 C 0.5172 0.95449 0.36266 0.0
H859 H 0.47666 0.98631 0.3324 0.0
H860 H 0.51377 0.98643 0.33411 0.0
S861 S 0.49521 0.90322 0.40152 0.0
N862 N 0.47499 0.918 0.38864 0.0
N863 N 0.51542 0.91814 0.39056 0.0
C864 C 0.50619 0.93627 0.37532 0.0
C865 C 0.48422 0.93618 0.37419 0.0
C866 C 0.27412 0.24124 0.60499 0.0
C867 C 0.29221 0.23001 0.61728 0.0
C868 C 0.27409 0.26274 0.60452 0.0
C869 C 0.29216 0.27401 0.61636 0.0
H870 H 0.25959 0.23341 0.59817 0.0
H871 H 0.25955 0.27054 0.59741 0.0
S872 S 0.34431 0.25206 0.64139 0.0
N873 N 0.3292 0.23182 0.63436 0.0
N874 N 0.32916 0.27226 0.63349 0.0
C875 C 0.31066 0.26301 0.62428 0.0
C876 C 0.31069 0.24104 0.62474 0.0
C877 C 0.98591 0.03171 0.85551 0.0
C878 C 0.97489 0.04949 0.87305 0.0
C879 C 0.00742 0.03149 0.85454 0.0
C880 C 0.0189 0.04904 0.87106 0.0
H881 H 0.97792 0.01754 0.84446 0.0
H882 H 0.01506 0.01716 0.84281 0.0
S883 S -0.00247 0.10038 0.91243 0.0
N884 N 0.97713 0.08575 0.90139 0.0
N885 N 0.01755 0.08534 0.89955 0.0
C886 C 0.0081 0.06729 0.88517 0.0
C887 C 0.98613 0.06751 0.88616 0.0
C888 C 0.80933 0.73905 0.15114 0.0
C889 C 0.79324 0.72785 0.12244 0.0
C890 C 0.80934 0.76057 0.15106 0.0
C891 C 0.79326 0.77181 0.1223 0.0
H892 H 0.82168 0.73119 0.17613 0.0
H893 H 0.82169 0.7684 0.176 0.0
S894 S 0.74906 0.74991 0.0321 0.0
N895 N 0.76192 0.72967 0.0583 0.0
N896 N 0.76194 0.7701 0.05818 0.0
C897 C 0.77769 0.76083 0.09008 0.0
C898 C 0.77769 0.73889 0.09014 0.0
C899 C 0.71615 0.24194 0.59878 0.0
C900 C 0.69838 0.23073 0.61515 0.0
C901 C 0.71602 0.26343 0.59701 0.0
C902 C 0.69811 0.2747 0.61144 0.0
H903 H 0.73058 0.23413 0.58964 0.0
H904 H 0.73036 0.27124 0.58661 0.0
S905 S 0.64665 0.25271 0.64787 0.0
N906 N 0.66175 0.2325 0.63921 0.0
N907 N 0.6615 0.27292 0.63588 0.0
C908 C 0.67986 0.26369 0.6237 0.0
C909 C 0.68 0.24173 0.62561 0.0
C910 C 0.80832 0.26454 0.12459 0.0
C911 C 0.79196 0.27546 0.15307 0.0
C912 C 0.80837 0.24303 0.12267 0.0
C913 C 0.79206 0.23153 0.14924 0.0
H914 H 0.82078 0.27263 0.10076 0.0
H915 H 0.8209 0.23544 0.09767 0.0
S916 S 0.74726 0.25266 0.23923 0.0
N917 N 0.76026 0.27312 0.21549 0.0
N918 N 0.76034 0.23269 0.21208 0.0
C919 C 0.7763 0.24222 0.18188 0.0
C920 C 0.77626 0.26416 0.18375 0.0
C921 C 0.71443 0.73904 0.66111 0.0
C922 C 0.69737 0.72788 0.63843 0.0
C923 C 0.71451 0.76055 0.66123 0.0
C924 C 0.69753 0.77191 0.63867 0.0
H925 H 0.72819 0.73115 0.67711 0.0
H926 H 0.72833 0.76828 0.6773 0.0
S927 S 0.648 0.75018 0.58123 0.0
N928 N 0.66227 0.72989 0.59805 0.0
N929 N 0.66242 0.77031 0.59828 0.0
C930 C 0.67991 0.76098 0.61916 0.0
C931 C 0.67983 0.73901 0.61904 0.0
C932 C 0.50608 0.43695 0.87956 0.0
C933 C 0.51723 0.45422 0.90052 0.0
C934 C 0.48455 0.43666 0.88174 0.0
C935 C 0.47332 0.45363 0.90498 0.0
H936 H 0.51392 0.42391 0.85822 0.0
H937 H 0.4767 0.42342 0.86191 0.0
S938 S 0.49532 0.50104 0.97693 0.0
N939 N 0.51552 0.48758 0.95352 0.0
N940 N 0.4751 0.48704 0.95764 0.0
C941 C 0.48433 0.47034 0.93078 0.0
C942 C 0.50626 0.47063 0.92853 0.0
C943 C 0.98577 0.56406 0.3809 0.0
C944 C 0.97511 0.54743 0.409 0.0
C945 C 0.00728 0.56435 0.37802 0.0
C946 C 0.01903 0.54799 0.40292 0.0
H947 H 0.97747 0.57661 0.35834 0.0
H948 H 0.01467 0.57706 0.35326 0.0
S949 S -0.00111 0.50248 0.4913 0.0
N950 N 0.97816 0.51539 0.46955 0.0
N951 N 0.01857 0.51593 0.46377 0.0
C952 C 0.00867 0.53195 0.43511 0.0
C953 C 0.98675 0.53168 0.43828 0.0
C954 C 0.9859 0.43796 0.89192 0.0
C955 C 0.97419 0.45448 0.86794 0.0
C956 C 0.00741 0.43819 0.88883 0.0
C957 C 0.01809 0.45492 0.86146 0.0
H958 H 0.9785 0.42515 0.91609 0.0
H959 H 0.01568 0.4255 0.91067 0.0
S960 S 0.99441 0.50038 0.78172 0.0
N961 N 0.97471 0.48685 0.80872 0.0
N962 N 0.01511 0.48728 0.80261 0.0
C963 C 0.00649 0.47086 0.83309 0.0
C964 C 0.98457 0.47064 0.83645 0.0
C965 C 0.48275 0.53139 0.33214 0.0
C966 C 0.47134 0.54847 0.35366 0.0
C967 C 0.50426 0.53165 0.33141 0.0
C968 C 0.51534 0.54899 0.35228 0.0
H969 H 0.47508 0.51733 0.31801 0.0
H970 H 0.5122 0.51777 0.31679 0.0
S971 S 0.49283 0.59883 0.4044 0.0
N972 N 0.47276 0.58407 0.38977 0.0
N973 N 0.51319 0.58455 0.38843 0.0
C974 C 0.50414 0.56669 0.36977 0.0
C975 C 0.48217 0.56644 0.37042 0.0
C976 C 0.22687 0.14886 0.37535 0.0
C977 C 0.24179 0.1498 0.32604 0.0
C978 C 0.23254 0.14881 0.44095 0.0
C979 C 0.25334 0.14931 0.45977 0.0
H980 H 0.21067 0.14957 0.36343 0.0
H981 H 0.22047 0.14933 0.47718 0.0
S982 S 0.29835 0.14856 0.3489 0.0
N983 N 0.27826 0.14895 0.30018 0.0
N984 N 0.28892 0.14842 0.42323 0.0
C985 C 0.26841 0.14848 0.4108 0.0
C986 C 0.26263 0.14887 0.34401 0.0
C987 C 0.0985 0.01473 0.58059 0.0
C988 C 0.09838 0.9939 0.562 0.0
C989 C 0.09856 0.02049 0.64614 0.0
C990 C 0.09808 0.00563 0.69571 0.0
H991 H 0.09771 0.02674 0.54423 0.0
H992 H 0.09766 0.03669 0.65788 0.0
S993 S 0.10011 0.94907 0.67334 0.0
N994 N 0.09989 0.9584 0.59891 0.0
N995 N 0.09954 0.96921 0.72188 0.0
C996 C 0.09923 0.98478 0.6779 0.0
C997 C 0.09953 0.97892 0.61113 0.0
C998 C 0.26122 0.8519 0.91656 0.0
C999 C 0.2404 0.85229 0.93545 0.0
C1000 C 0.26697 0.85251 0.85098 0.0
C1001 C 0.2521 0.85314 0.80166 0.0
H1002 H 0.27319 0.85018 0.9526 0.0
H1003 H 0.28312 0.85106 0.8389 0.0
S1004 S 0.19566 0.85709 0.82519 0.0
N1005 N 0.20498 0.85565 0.8994 0.0
N1006 N 0.21576 0.85633 0.77626 0.0
C1007 C 0.23131 0.85493 0.81992 0.0
C1008 C 0.22547 0.85466 0.88677 0.0
C1009 C 0.39257 0.98732 0.08556 0.0
C1010 C 0.39231 0.00813 0.06655 0.0
C1011 C 0.39243 0.98163 0.1512 0.0
C1012 C 0.39242 -0.00344 0.20042 0.0
H1013 H 0.39383 0.9753 0.04949 0.0
H1014 H 0.39375 0.96547 0.16328 0.0
S1015 S 0.38893 0.05302 0.17684 0.0
N1016 N 0.38968 0.04362 0.10261 0.0
N1017 N 0.38985 0.03294 0.22582 0.0
C1018 C 0.39072 0.01734 0.18217 0.0
C1019 C 0.39053 0.02313 0.11529 0.0
C1020 C 0.73294 0.85168 0.92969 0.0
C1021 C 0.75378 0.85119 0.94803 0.0
C1022 C 0.7271 0.85161 0.8642 0.0
C1023 C 0.74189 0.85062 0.81445 0.0
H1024 H 0.72097 0.8513 0.96627 0.0
H1025 H 0.71087 0.85105 0.85271 0.0
S1026 S 0.79851 0.85132 0.83604 0.0
N1027 N 0.78926 0.85165 0.91059 0.0
N1028 N 0.7783 0.85106 0.78779 0.0
C1029 C 0.76278 0.85132 0.83196 0.0
C1030 C 0.76873 0.85175 0.89864 0.0
C1031 C 0.89513 0.02271 0.65218 0.0
C1032 C 0.89502 0.00785 0.70175 0.0
C1033 C 0.89527 0.01695 0.58663 0.0
C1034 C 0.89491 -0.00388 0.56804 0.0
H1035 H 0.89642 0.03888 0.66393 0.0
H1036 H 0.89651 0.02892 0.55029 0.0
S1037 S 0.89158 0.95136 0.67939 0.0
N1038 N 0.8925 0.97149 0.72792 0.0
N1039 N 0.89232 0.96068 0.60495 0.0
C1040 C 0.89319 0.98118 0.61716 0.0
C1041 C 0.89339 0.98704 0.68393 0.0
C1042 C 0.76564 0.15019 0.36282 0.0
C1043 C 0.75073 0.15036 0.31356 0.0
C1044 C 0.75993 0.1504 0.42847 0.0
C1045 C 0.73911 0.15038 0.44746 0.0
H1046 H 0.78181 0.1513 0.35074 0.0
H1047 H 0.77195 0.1515 0.46456 0.0
S1048 S 0.69422 0.14769 0.33712 0.0
N1049 N 0.71432 0.14834 0.28817 0.0
N1050 N 0.70361 0.14827 0.41136 0.0
C1051 C 0.72411 0.14883 0.3987 0.0
C1052 C 0.72992 0.14896 0.33182 0.0
C1053 C 0.59732 0.98337 0.14595 0.0
C1054 C 0.59684 -0.00177 0.19534 0.0
C1055 C 0.59705 0.98912 0.08035 0.0
C1056 C 0.5967 0.00994 0.06155 0.0
H1057 H 0.59653 0.96717 0.15789 0.0
H1058 H 0.59621 0.97711 0.04415 0.0
S1059 S 0.5984 0.0548 0.17229 0.0
N1060 N 0.59811 0.03466 0.22107 0.0
N1061 N 0.59806 0.04546 0.09796 0.0
C1062 C 0.5979 0.02494 0.11045 0.0
C1063 C 0.59783 0.01908 0.17728 0.0
C1064 C 0.73257 0.64848 0.92993 0.0
C1065 C 0.75343 0.64865 0.94814 0.0
C1066 C 0.72669 0.64851 0.86447 0.0
C1067 C 0.74146 0.64912 0.81461 0.0
H1068 H 0.72063 0.64914 0.96656 0.0
H1069 H 0.71047 0.64932 0.85306 0.0
S1070 S 0.79808 0.64747 0.83587 0.0
N1071 N 0.78887 0.64747 0.91049 0.0
N1072 N 0.77784 0.64799 0.78774 0.0
C1073 C 0.76235 0.6481 0.83201 0.0
C1074 C 0.76833 0.64771 0.89867 0.0
C1075 C 0.59638 0.48685 0.16274 0.0
C1076 C 0.59658 0.50766 0.18149 0.0
C1077 C 0.59717 0.48114 0.09722 0.0
C1078 C 0.59778 0.49605 0.0478 0.0
H1079 H 0.59468 0.47486 0.19883 0.0
H1080 H 0.59584 0.46499 0.08526 0.0
S1081 S 0.6013 0.55249 0.07101 0.0
N1082 N 0.59977 0.54312 0.14526 0.0
N1083 N 0.60078 0.53241 0.02221 0.0
C1084 C 0.59941 0.51683 0.06594 0.0
C1085 C 0.59895 0.52263 0.13276 0.0
C1086 C 0.75863 0.35607 0.42936 0.0
C1087 C 0.73782 0.35566 0.44842 0.0
C1088 C 0.7643 0.35641 0.3637 0.0
C1089 C 0.74938 0.35596 0.31452 0.0
H1090 H 0.77068 0.35518 0.46539 0.0
H1091 H 0.7805 0.35559 0.35158 0.0
S1092 S 0.69283 0.35762 0.33826 0.0
N1093 N 0.70226 0.35716 0.41245 0.0
N1094 N 0.71293 0.35737 0.28923 0.0
C1095 C 0.72855 0.357 0.33283 0.0
C1096 C 0.72277 0.35698 0.39972 0.0
C1097 C 0.8926 0.51327 0.69687 0.0
C1098 C 0.89318 0.49247 0.71593 0.0
C1099 C 0.89298 0.51896 0.6312 0.0
C1100 C 0.89435 0.50405 0.5821 0.0
H1101 H 0.89282 0.52533 0.733 0.0
H1102 H 0.8936 0.53516 0.61916 0.0
S1103 S 0.89351 0.44749 0.6055 0.0
N1104 N 0.89284 0.4569 0.67971 0.0
N1105 N 0.89399 0.46759 0.5566 0.0
C1106 C 0.89351 0.48321 0.60024 0.0
C1107 C 0.89278 0.47741 0.66707 0.0
C1108 C 0.22635 0.35561 0.37128 0.0
C1109 C 0.24123 0.35485 0.3218 0.0
C1110 C 0.23208 0.35541 0.43684 0.0
C1111 C 0.2529 0.35484 0.45547 0.0
H1112 H 0.21015 0.35496 0.35951 0.0
H1113 H 0.22005 0.35477 0.47316 0.0
S1114 S 0.29781 0.35592 0.34423 0.0
N1115 N 0.27767 0.35574 0.29567 0.0
N1116 N 0.28844 0.35581 0.41865 0.0
C1117 C 0.26792 0.35582 0.40638 0.0
C1118 C 0.26208 0.35569 0.33962 0.0
C1119 C 0.39172 0.47909 0.10964 0.0
C1120 C 0.39133 0.49399 0.06019 0.0
C1121 C 0.39192 0.48481 0.17519 0.0
C1122 C 0.39137 0.50562 0.1939 0.0
H1123 H 0.39331 0.46295 0.09776 0.0
H1124 H 0.3935 0.47283 0.21138 0.0
S1125 S 0.38695 0.5504 0.08308 0.0
N1126 N 0.38808 0.53032 0.03437 0.0
N1127 N 0.38804 0.54104 0.15741 0.0
C1128 C 0.38919 0.52056 0.14501 0.0
C1129 C 0.38931 0.51475 0.0782 0.0
C1130 C 0.26141 0.64834 0.9278 0.0
C1131 C 0.24058 0.64807 0.94668 0.0
C1132 C 0.26714 0.64817 0.86219 0.0
C1133 C 0.25226 0.64812 0.81287 0.0
H1134 H 0.27339 0.64965 0.96393 0.0
H1135 H 0.28331 0.64951 0.85018 0.0
S1136 S 0.19578 0.64463 0.83617 0.0
N1137 N 0.20513 0.6454 0.91044 0.0
N1138 N 0.2159 0.64553 0.7873 0.0
C1139 C 0.23146 0.64642 0.83102 0.0
C1140 C 0.22562 0.64624 0.89787 0.0
C1141 C 0.09932 0.52231 0.60142 0.0
C1142 C 0.10004 0.50742 0.55212 0.0
C1143 C 0.09859 0.51659 0.66699 0.0
C1144 C 0.09895 0.49578 0.68594 0.0
H1145 H 0.09789 0.53846 0.58932 0.0
H1146 H 0.09683 0.52857 0.70297 0.0
S1147 S 0.10398 0.45099 0.57587 0.0
N1148 N 0.1033 0.47108 0.52688 0.0
N1149 N 0.10239 0.46035 0.65003 0.0
C1150 C 0.10141 0.48083 0.63734 0.0
C1151 C 0.10182 0.48665 0.57047 0.0
loop_
_geom_bond_atom_site_label_1
_geom_bond_atom_site_label_2
_geom_bond_distance
_geom_bond_site_symmetry_2
_ccdc_geom_bond_type
O0 Cd1 2.223 1_556 S
O0 C8 1.315 . S
Cd1 O0 2.223 1_554 S
Cd1 O4 2.297 1_554 S
Cd1 O5 2.439 . S
Cd1 O11 2.240 . S
Cd2 O3 2.240 . S
Cd2 O10 2.223 . S
Cd2 O12 2.297 . S
Cd2 O13 2.439 . S
O3 Cd2 2.240 . S
O3 C8 1.279 1_554 S
O4 Cd1 2.297 1_556 S
O4 C6 1.247 1_556 S
O5 Cd1 2.439 . S
O5 C6 1.208 . S
C6 O4 1.247 1_554 S
C6 O5 1.208 . S
C7 O12 1.247 . S
C7 O13 1.208 . S
C8 O0 1.315 . S
C8 O3 1.279 1_556 S
C9 O10 1.315 . S
C9 O11 1.279 . S
O10 Cd2 2.223 . S
O10 C9 1.315 . S
O11 Cd1 2.240 . S
O11 C9 1.279 . S
O12 Cd2 2.297 . S
O12 C7 1.247 . S
O13 Cd2 2.439 . S
O13 C7 1.208 . S
O14 Cd15 2.223 . S
O14 C22 1.315 . S
Cd15 O14 2.223 . S
Cd15 O18 2.297 . S
Cd15 O19 2.439 . S
Cd15 O25 2.240 . S
Cd16 O17 2.240 1_545 S
Cd16 O24 2.224 1_545 S
Cd16 O26 2.297 . S
Cd16 O27 2.439 1_545 S
O17 Cd16 2.240 1_565 S
O17 C22 1.279 . S
O18 Cd15 2.297 . S
O18 C20 1.247 . S
O19 Cd15 2.439 . S
O19 C20 1.208 . S
C20 O18 1.247 . S
C20 O19 1.208 . S
C21 O26 1.247 1_565 S
C21 O27 1.208 . S
C22 O14 1.315 . S
C22 O17 1.279 . S
C23 O24 1.309 . S
C23 O25 1.279 . S
O24 Cd16 2.224 1_565 S
O24 C23 1.309 . S
O25 Cd15 2.240 . S
O25 C23 1.279 . S
O26 Cd16 2.297 . S
O26 C21 1.247 1_545 S
O27 Cd16 2.439 1_565 S
O27 C21 1.208 . S
O28 Cd29 2.223 . S
O28 C36 1.315 . S
Cd29 O28 2.223 . S
Cd29 O32 2.297 . S
Cd29 O33 2.439 . S
Cd29 O39 2.240 . S
Cd30 O31 2.240 . S
Cd30 O38 2.223 . S
Cd30 O40 2.297 . S
Cd30 O41 2.439 . S
O31 Cd30 2.240 . S
O31 C36 1.279 . S
O32 Cd29 2.297 . S
O32 C34 1.247 . S
O33 Cd29 2.439 . S
O33 C34 1.208 . S
C34 O32 1.247 . S
C34 O33 1.208 . S
C35 O40 1.247 . S
C35 O41 1.208 . S
C36 O28 1.315 . S
C36 O31 1.279 . S
C37 O38 1.315 . S
C37 O39 1.279 . S
O38 Cd30 2.223 . S
O38 C37 1.315 . S
O39 Cd29 2.240 . S
O39 C37 1.279 . S
O40 Cd30 2.297 . S
O40 C35 1.247 . S
O41 Cd30 2.439 . S
O41 C35 1.208 . S
O42 Cd43 2.223 . S
O42 C50 1.315 . S
Cd43 O42 2.223 . S
Cd43 O46 2.297 . S
Cd43 O47 2.439 . S
Cd43 O53 2.240 . S
Cd44 O45 2.240 . S
Cd44 O52 2.223 . S
Cd44 O54 2.297 . S
Cd44 O55 2.439 . S
O45 Cd44 2.240 . S
O45 C50 1.279 . S
O46 Cd43 2.297 . S
O46 C48 1.247 . S
O47 Cd43 2.439 . S
O47 C48 1.208 . S
C48 O46 1.247 . S
C48 O47 1.208 . S
C49 O54 1.247 . S
C49 O55 1.208 . S
C50 O42 1.315 . S
C50 O45 1.279 . S
C51 O52 1.315 . S
C51 O53 1.279 . S
O52 Cd44 2.223 . S
O52 C51 1.315 . S
O53 Cd43 2.240 . S
O53 C51 1.279 . S
O54 Cd44 2.297 . S
O54 C49 1.247 . S
O55 Cd44 2.439 . S
O55 C49 1.208 . S
O56 Cd57 2.223 . S
O56 C64 1.315 . S
Cd57 O56 2.223 . S
Cd57 O60 2.297 . S
Cd57 O61 2.439 . S
Cd57 O67 2.240 . S
Cd58 O59 2.240 . S
Cd58 O66 2.223 . S
Cd58 O68 2.297 . S
Cd58 O69 2.439 . S
O59 Cd58 2.240 . S
O59 C64 1.279 . S
O60 Cd57 2.297 . S
O60 C62 1.247 . S
O61 Cd57 2.439 . S
O61 C62 1.208 . S
C62 O60 1.247 . S
C62 O61 1.208 . S
C63 O68 1.247 1_556 S
C63 O69 1.208 1_556 S
C64 O56 1.315 . S
C64 O59 1.279 . S
C65 O66 1.315 . S
C65 O67 1.279 . S
O66 Cd58 2.223 . S
O66 C65 1.315 . S
O67 Cd57 2.240 . S
O67 C65 1.279 . S
O68 Cd58 2.297 . S
O68 C63 1.247 1_554 S
O69 Cd58 2.439 . S
O69 C63 1.208 1_554 S
O70 Cd71 2.223 . S
O70 C78 1.315 . S
Cd71 O70 2.223 . S
Cd71 O74 2.297 . S
Cd71 O75 2.439 . S
Cd71 O81 2.240 . S
Cd72 O73 2.240 1_545 S
Cd72 O80 2.222 . S
Cd72 O82 2.297 . S
Cd72 O83 2.439 1_545 S
O73 Cd72 2.240 1_565 S
O73 C78 1.279 . S
O74 Cd71 2.297 . S
O74 C76 1.247 . S
O75 Cd71 2.439 . S
O75 C76 1.208 . S
C76 O74 1.247 . S
C76 O75 1.208 . S
C77 O82 1.247 1_565 S
C77 O83 1.208 . S
C78 O70 1.315 . S
C78 O73 1.279 . S
C79 O80 1.321 1_565 S
C79 O81 1.279 . S
O80 Cd72 2.222 . S
O80 C79 1.321 1_545 S
O81 Cd71 2.240 . S
O81 C79 1.279 . S
O82 Cd72 2.297 . S
O82 C77 1.247 1_545 S
O83 Cd72 2.439 1_565 S
O83 C77 1.208 . S
O84 Cd85 2.223 . S
O84 C92 1.315 . S
Cd85 O84 2.223 . S
Cd85 O88 2.297 . S
Cd85 O89 2.439 . S
Cd85 O95 2.240 . S
Cd86 O87 2.240 . S
Cd86 O94 2.223 . S
Cd86 O96 2.297 . S
Cd86 O97 2.439 . S
O87 Cd86 2.240 . S
O87 C92 1.279 . S
O88 Cd85 2.297 . S
O88 C90 1.247 . S
O89 Cd85 2.439 . S
O89 C90 1.208 . S
C90 O88 1.247 . S
C90 O89 1.208 . S
C91 O96 1.247 . S
C91 O97 1.208 . S
C92 O84 1.315 . S
C92 O87 1.279 . S
C93 O94 1.315 . S
C93 O95 1.279 . S
O94 Cd86 2.223 . S
O94 C93 1.315 . S
O95 Cd85 2.240 . S
O95 C93 1.279 . S
O96 Cd86 2.297 . S
O96 C91 1.247 . S
O97 Cd86 2.439 . S
O97 C91 1.208 . S
O98 Cd99 2.223 1_554 S
O98 C106 1.315 . S
Cd99 O98 2.223 1_556 S
Cd99 O102 2.297 . S
Cd99 O103 2.439 . S
Cd99 O109 2.240 . S
Cd100 O101 2.240 . S
Cd100 O108 2.223 . S
Cd100 O110 2.297 . S
Cd100 O111 2.439 . S
O101 Cd100 2.240 . S
O101 C106 1.279 1_556 S
O102 Cd99 2.297 . S
O102 C104 1.247 . S
O103 Cd99 2.439 . S
O103 C104 1.208 . S
C104 O102 1.247 . S
C104 O103 1.208 . S
C105 O110 1.247 . S
C105 O111 1.208 . S
C106 O98 1.315 . S
C106 O101 1.279 1_554 S
C107 O108 1.315 . S
C107 O109 1.279 . S
O108 Cd100 2.223 . S
O108 C107 1.315 . S
O109 Cd99 2.240 . S
O109 C107 1.279 . S
O110 Cd100 2.297 . S
O110 C105 1.247 . S
O111 Cd100 2.439 . S
O111 C105 1.208 . S
O112 Cd113 2.223 . S
O112 C120 1.315 . S
Cd113 O112 2.223 . S
Cd113 O116 2.297 . S
Cd113 O117 2.439 . S
Cd113 O123 2.240 . S
Cd114 O115 2.240 . S
Cd114 O122 2.223 . S
Cd114 O124 2.297 . S
Cd114 O125 2.439 . S
O115 Cd114 2.240 . S
O115 C120 1.279 . S
O116 Cd113 2.297 . S
O116 C118 1.247 . S
O117 Cd113 2.439 . S
O117 C118 1.208 . S
C118 O116 1.247 . S
C118 O117 1.208 . S
C119 O124 1.247 1_556 S
C119 O125 1.208 1_556 S
C120 O112 1.315 . S
C120 O115 1.279 . S
C121 O122 1.315 . S
C121 O123 1.279 . S
O122 Cd114 2.223 . S
O122 C121 1.315 . S
O123 Cd113 2.240 . S
O123 C121 1.279 . S
O124 Cd114 2.297 . S
O124 C119 1.247 1_554 S
O125 Cd114 2.439 . S
O125 C119 1.208 1_554 S
O126 Cd127 2.223 1_554 S
O126 C134 1.315 . S
Cd127 O126 2.223 1_556 S
Cd127 O130 2.297 . S
Cd127 O131 2.439 . S
Cd127 O137 2.240 . S
Cd128 O129 2.240 . S
Cd128 O136 2.223 . S
Cd128 O138 2.297 . S
Cd128 O139 2.439 . S
O129 Cd128 2.240 . S
O129 C134 1.279 1_556 S
O130 Cd127 2.297 . S
O130 C132 1.247 . S
O131 Cd127 2.439 . S
O131 C132 1.208 . S
C132 O130 1.247 . S
C132 O131 1.208 . S
C133 O138 1.247 . S
C133 O139 1.208 . S
C134 O126 1.315 . S
C134 O129 1.279 1_554 S
C135 O136 1.315 . S
C135 O137 1.279 . S
O136 Cd128 2.223 . S
O136 C135 1.315 . S
O137 Cd127 2.240 . S
O137 C135 1.279 . S
O138 Cd128 2.297 . S
O138 C133 1.247 . S
O139 Cd128 2.439 . S
O139 C133 1.208 . S
O140 Cd141 2.223 . S
O140 C148 1.315 . S
Cd141 O140 2.223 . S
Cd141 O144 2.297 . S
Cd141 O145 2.439 . S
Cd141 O151 2.240 . S
Cd142 O143 2.240 . S
Cd142 O150 2.223 . S
Cd142 O152 2.297 . S
Cd142 O153 2.439 . S
O143 Cd142 2.240 . S
O143 C148 1.279 . S
O144 Cd141 2.297 . S
O144 C146 1.247 . S
O145 Cd141 2.439 . S
O145 C146 1.208 . S
C146 O144 1.247 . S
C146 O145 1.208 . S
C147 O152 1.247 . S
C147 O153 1.208 . S
C148 O140 1.315 . S
C148 O143 1.279 . S
C149 O150 1.315 . S
C149 O151 1.279 . S
O150 Cd142 2.223 . S
O150 C149 1.315 . S
O151 Cd141 2.240 . S
O151 C149 1.279 . S
O152 Cd142 2.297 . S
O152 C147 1.247 . S
O153 Cd142 2.439 . S
O153 C147 1.208 . S
O154 Cd155 2.223 . S
O154 C162 1.315 . S
Cd155 O154 2.223 . S
Cd155 O158 2.297 . S
Cd155 O159 2.439 . S
Cd155 O165 2.240 . S
Cd156 O157 2.240 1_545 S
Cd156 O164 2.222 . S
Cd156 O166 2.297 . S
Cd156 O167 2.439 1_545 S
O157 Cd156 2.240 1_565 S
O157 C162 1.279 . S
O158 Cd155 2.297 . S
O158 C160 1.247 . S
O159 Cd155 2.439 . S
O159 C160 1.208 . S
C160 O158 1.247 . S
C160 O159 1.208 . S
C161 O166 1.247 1_565 S
C161 O167 1.208 . S
C162 O154 1.315 . S
C162 O157 1.279 . S
C163 O164 1.321 1_565 S
C163 O165 1.279 . S
O164 Cd156 2.222 . S
O164 C163 1.321 1_545 S
O165 Cd155 2.240 . S
O165 C163 1.279 . S
O166 Cd156 2.297 . S
O166 C161 1.247 1_545 S
O167 Cd156 2.439 1_565 S
O167 C161 1.208 . S
O168 Cd169 2.223 1_556 S
O168 C176 1.315 . S
Cd169 O168 2.223 1_554 S
Cd169 O172 2.297 1_554 S
Cd169 O173 2.439 . S
Cd169 O179 2.240 . S
Cd170 O171 2.240 . S
Cd170 O178 2.223 . S
Cd170 O180 2.297 . S
Cd170 O181 2.439 . S
O171 Cd170 2.240 . S
O171 C176 1.279 1_554 S
O172 Cd169 2.297 1_556 S
O172 C174 1.247 1_556 S
O173 Cd169 2.439 . S
O173 C174 1.208 . S
C174 O172 1.247 1_554 S
C174 O173 1.208 . S
C175 O180 1.247 . S
C175 O181 1.208 . S
C176 O168 1.315 . S
C176 O171 1.279 1_556 S
C177 O178 1.315 . S
C177 O179 1.279 . S
O178 Cd170 2.223 . S
O178 C177 1.315 . S
O179 Cd169 2.240 . S
O179 C177 1.279 . S
O180 Cd170 2.297 . S
O180 C175 1.247 . S
O181 Cd170 2.439 . S
O181 C175 1.208 . S
O182 Cd183 2.223 . S
O182 C190 1.315 . S
Cd183 O182 2.223 . S
Cd183 O186 2.297 . S
Cd183 O187 2.439 . S
Cd183 O193 2.240 . S
Cd184 O185 2.240 . S
Cd184 O192 2.223 . S
Cd184 O194 2.297 . S
Cd184 O195 2.439 . S
O185 Cd184 2.240 . S
O185 C190 1.279 . S
O186 Cd183 2.297 . S
O186 C188 1.247 . S
O187 Cd183 2.439 . S
O187 C188 1.208 . S
C188 O186 1.247 . S
C188 O187 1.208 . S
C189 O194 1.247 . S
C189 O195 1.208 . S
C190 O182 1.315 . S
C190 O185 1.279 . S
C191 O192 1.315 . S
C191 O193 1.279 . S
O192 Cd184 2.223 . S
O192 C191 1.315 . S
O193 Cd183 2.240 . S
O193 C191 1.279 . S
O194 Cd184 2.297 . S
O194 C189 1.247 . S
O195 Cd184 2.439 . S
O195 C189 1.208 . S
O196 Cd197 2.223 . S
O196 C204 1.315 . S
Cd197 O196 2.223 . S
Cd197 O200 2.297 . S
Cd197 O201 2.439 . S
Cd197 O207 2.240 . S
Cd198 O199 2.240 . S
Cd198 O206 2.223 . S
Cd198 O208 2.297 . S
Cd198 O209 2.439 . S
O199 Cd198 2.240 . S
O199 C204 1.279 . S
O200 Cd197 2.297 . S
O200 C202 1.247 . S
O201 Cd197 2.439 . S
O201 C202 1.208 . S
C202 O200 1.247 . S
C202 O201 1.208 . S
C203 O208 1.247 . S
C203 O209 1.208 . S
C204 O196 1.315 . S
C204 O199 1.279 . S
C205 O206 1.315 . S
C205 O207 1.279 . S
O206 Cd198 2.223 . S
O206 C205 1.315 . S
O207 Cd197 2.240 . S
O207 C205 1.279 . S
O208 Cd198 2.297 . S
O208 C203 1.247 . S
O209 Cd198 2.439 . S
O209 C203 1.208 . S
O210 Cd211 2.223 . S
O210 C218 1.315 . S
Cd211 O210 2.223 . S
Cd211 O214 2.297 . S
Cd211 O215 2.439 . S
Cd211 O221 2.240 . S
Cd212 O213 2.240 1_545 S
Cd212 O220 2.224 1_545 S
Cd212 O222 2.297 . S
Cd212 O223 2.439 1_545 S
O213 Cd212 2.240 1_565 S
O213 C218 1.279 . S
O214 Cd211 2.297 . S
O214 C216 1.247 . S
O215 Cd211 2.439 . S
O215 C216 1.208 . S
C216 O214 1.247 . S
C216 O215 1.208 . S
C217 O222 1.247 1_565 S
C217 O223 1.208 . S
C218 O210 1.315 . S
C218 O213 1.279 . S
C219 O220 1.309 . S
C219 O221 1.279 . S
O220 Cd212 2.224 1_565 S
O220 C219 1.309 . S
O221 Cd211 2.240 . S
O221 C219 1.279 . S
O222 Cd212 2.297 . S
O222 C217 1.247 1_545 S
O223 Cd212 2.439 1_565 S
O223 C217 1.208 . S
O224 Cd225 2.223 . S
O224 C232 1.315 . S
Cd225 O224 2.223 . S
Cd225 O228 2.297 . S
Cd225 O229 2.439 . S
Cd225 O235 2.240 . S
Cd226 O227 2.240 . S
Cd226 O234 2.223 . S
Cd226 O236 2.297 . S
Cd226 O237 2.439 . S
O227 Cd226 2.240 . S
O227 C232 1.279 . S
O228 Cd225 2.297 . S
O228 C230 1.247 . S
O229 Cd225 2.439 . S
O229 C230 1.208 . S
C230 O228 1.247 . S
C230 O229 1.208 . S
C231 O236 1.247 . S
C231 O237 1.208 . S
C232 O224 1.315 . S
C232 O227 1.279 . S
C233 O234 1.315 . S
C233 O235 1.279 . S
O234 Cd226 2.223 . S
O234 C233 1.315 . S
O235 Cd225 2.240 . S
O235 C233 1.279 . S
O236 Cd226 2.297 . S
O236 C231 1.247 . S
O237 Cd226 2.439 . S
O237 C231 1.208 . S
O238 Cd239 2.223 . S
O238 C246 1.315 . S
Cd239 O238 2.223 . S
Cd239 O242 2.297 . S
Cd239 O243 2.439 . S
Cd239 O249 2.240 . S
Cd240 O241 2.240 . S
Cd240 O248 2.223 . S
Cd240 O250 2.297 . S
Cd240 O251 2.439 . S
O241 Cd240 2.240 . S
O241 C246 1.279 . S
O242 Cd239 2.297 . S
O242 C244 1.247 . S
O243 Cd239 2.439 . S
O243 C244 1.208 . S
C244 O242 1.247 . S
C244 O243 1.208 . S
C245 O250 1.247 . S
C245 O251 1.208 . S
C246 O238 1.315 . S
C246 O241 1.279 . S
C247 O248 1.315 . S
C247 O249 1.279 . S
O248 Cd240 2.223 . S
O248 C247 1.315 . S
O249 Cd239 2.240 . S
O249 C247 1.279 . S
O250 Cd240 2.297 . S
O250 C245 1.247 . S
O251 Cd240 2.439 . S
O251 C245 1.208 . S
O252 Cd253 2.223 1_556 S
O252 C260 1.315 . S
Cd253 O252 2.223 1_554 S
Cd253 O256 2.297 1_554 S
Cd253 O257 2.439 . S
Cd253 O263 2.240 . S
Cd254 O255 2.240 . S
Cd254 O262 2.223 . S
Cd254 O264 2.297 . S
Cd254 O265 2.439 . S
O255 Cd254 2.240 . S
O255 C260 1.279 1_554 S
O256 Cd253 2.297 1_556 S
O256 C258 1.247 1_556 S
O257 Cd253 2.439 . S
O257 C258 1.208 . S
C258 O256 1.247 1_554 S
C258 O257 1.208 . S
C259 O264 1.247 . S
C259 O265 1.208 . S
C260 O252 1.315 . S
C260 O255 1.279 1_556 S
C261 O262 1.315 . S
C261 O263 1.279 . S
O262 Cd254 2.223 . S
O262 C261 1.315 . S
O263 Cd253 2.240 . S
O263 C261 1.279 . S
O264 Cd254 2.297 . S
O264 C259 1.247 . S
O265 Cd254 2.439 . S
O265 C259 1.208 . S
O266 Cd267 2.223 . S
O266 C274 1.315 . S
Cd267 O266 2.223 . S
Cd267 O270 2.297 . S
Cd267 O271 2.439 . S
Cd267 O277 2.240 . S
Cd268 O269 2.240 . S
Cd268 O276 2.223 . S
Cd268 O278 2.297 . S
Cd268 O279 2.439 . S
O269 Cd268 2.240 . S
O269 C274 1.279 . S
O270 Cd267 2.297 . S
O270 C272 1.247 . S
O271 Cd267 2.439 . S
O271 C272 1.208 . S
C272 O270 1.247 . S
C272 O271 1.208 . S
C273 O278 1.247 . S
C273 O279 1.208 . S
C274 O266 1.315 . S
C274 O269 1.279 . S
C275 O276 1.315 . S
C275 O277 1.279 . S
O276 Cd268 2.223 . S
O276 C275 1.315 . S
O277 Cd267 2.240 . S
O277 C275 1.279 . S
O278 Cd268 2.297 . S
O278 C273 1.247 . S
O279 Cd268 2.439 . S
O279 C273 1.208 . S
O280 Cd281 2.223 . S
O280 C288 1.315 . S
Cd281 O280 2.223 . S
Cd281 O284 2.297 . S
Cd281 O285 2.439 . S
Cd281 O291 2.240 . S
Cd282 O283 2.240 . S
Cd282 O290 2.223 . S
Cd282 O292 2.297 . S
Cd282 O293 2.439 . S
O283 Cd282 2.240 . S
O283 C288 1.279 . S
O284 Cd281 2.297 . S
O284 C286 1.247 . S
O285 Cd281 2.439 . S
O285 C286 1.208 . S
C286 O284 1.247 . S
C286 O285 1.208 . S
C287 O292 1.247 . S
C287 O293 1.208 . S
C288 O280 1.315 . S
C288 O283 1.279 . S
C289 O290 1.315 . S
C289 O291 1.279 . S
O290 Cd282 2.223 . S
O290 C289 1.315 . S
O291 Cd281 2.240 . S
O291 C289 1.279 . S
O292 Cd282 2.297 . S
O292 C287 1.247 . S
O293 Cd282 2.439 . S
O293 C287 1.208 . S
O294 Cd295 2.223 1_554 S
O294 C302 1.315 . S
Cd295 O294 2.223 1_556 S
Cd295 O298 2.297 . S
Cd295 O299 2.439 . S
Cd295 O305 2.240 . S
Cd296 O297 2.240 . S
Cd296 O304 2.223 . S
Cd296 O306 2.297 . S
Cd296 O307 2.439 . S
O297 Cd296 2.240 . S
O297 C302 1.279 1_556 S
O298 Cd295 2.297 . S
O298 C300 1.247 . S
O299 Cd295 2.439 . S
O299 C300 1.208 . S
C300 O298 1.247 . S
C300 O299 1.208 . S
C301 O306 1.247 . S
C301 O307 1.208 . S
C302 O294 1.315 . S
C302 O297 1.279 1_554 S
C303 O304 1.315 . S
C303 O305 1.279 . S
O304 Cd296 2.223 . S
O304 C303 1.315 . S
O305 Cd295 2.240 . S
O305 C303 1.279 . S
O306 Cd296 2.297 . S
O306 C301 1.247 . S
O307 Cd296 2.439 . S
O307 C301 1.208 . S
O308 Cd309 2.223 . S
O308 C316 1.315 . S
Cd309 O308 2.223 . S
Cd309 O312 2.297 . S
Cd309 O313 2.439 . S
Cd309 O319 2.240 . S
Cd310 O311 2.240 . S
Cd310 O318 2.223 . S
Cd310 O320 2.297 . S
Cd310 O321 2.439 . S
O311 Cd310 2.240 . S
O311 C316 1.279 . S
O312 Cd309 2.297 . S
O312 C314 1.247 . S
O313 Cd309 2.439 . S
O313 C314 1.208 . S
C314 O312 1.247 . S
C314 O313 1.208 . S
C315 O320 1.247 1_556 S
C315 O321 1.208 1_556 S
C316 O308 1.315 . S
C316 O311 1.279 . S
C317 O318 1.315 . S
C317 O319 1.279 . S
O318 Cd310 2.223 . S
O318 C317 1.315 . S
O319 Cd309 2.240 . S
O319 C317 1.279 . S
O320 Cd310 2.297 . S
O320 C315 1.247 1_554 S
O321 Cd310 2.439 . S
O321 C315 1.208 1_554 S
O322 Cd323 2.223 . S
O322 C330 1.315 . S
Cd323 O322 2.223 . S
Cd323 O326 2.297 . S
Cd323 O327 2.439 . S
Cd323 O333 2.240 . S
Cd324 O325 2.240 . S
Cd324 O332 2.223 . S
Cd324 O334 2.297 . S
Cd324 O335 2.439 . S
O325 Cd324 2.240 . S
O325 C330 1.279 . S
O326 Cd323 2.297 . S
O326 C328 1.247 . S
O327 Cd323 2.439 . S
O327 C328 1.208 . S
C328 O326 1.247 . S
C328 O327 1.208 . S
C329 O334 1.247 . S
C329 O335 1.208 . S
C330 O322 1.315 . S
C330 O325 1.279 . S
C331 O332 1.315 . S
C331 O333 1.279 . S
O332 Cd324 2.223 . S
O332 C331 1.315 . S
O333 Cd323 2.240 . S
O333 C331 1.279 . S
O334 Cd324 2.297 . S
O334 C329 1.247 . S
O335 Cd324 2.439 . S
O335 C329 1.208 . S
O336 Cd337 2.223 . S
O336 C344 1.315 . S
Cd337 O336 2.223 . S
Cd337 O340 2.297 . S
Cd337 O341 2.439 . S
Cd337 O347 2.240 . S
Cd338 O339 2.240 . S
Cd338 O346 2.223 . S
Cd338 O348 2.297 . S
Cd338 O349 2.439 . S
O339 Cd338 2.240 . S
O339 C344 1.279 . S
O340 Cd337 2.297 . S
O340 C342 1.247 . S
O341 Cd337 2.439 . S
O341 C342 1.208 . S
C342 O340 1.247 . S
C342 O341 1.208 . S
C343 O348 1.247 . S
C343 O349 1.208 . S
C344 O336 1.315 . S
C344 O339 1.279 . S
C345 O346 1.315 . S
C345 O347 1.279 . S
O346 Cd338 2.223 . S
O346 C345 1.315 . S
O347 Cd337 2.240 . S
O347 C345 1.279 . S
O348 Cd338 2.297 . S
O348 C343 1.247 . S
O349 Cd338 2.439 . S
O349 C343 1.208 . S
O350 Cd351 2.223 . S
O350 C358 1.315 . S
Cd351 O350 2.223 . S
Cd351 O354 2.297 . S
Cd351 O355 2.439 . S
Cd351 O361 2.240 . S
Cd352 O353 2.240 . S
Cd352 O360 2.223 . S
Cd352 O362 2.297 . S
Cd352 O363 2.439 . S
O353 Cd352 2.240 . S
O353 C358 1.279 . S
O354 Cd351 2.297 . S
O354 C356 1.247 . S
O355 Cd351 2.439 . S
O355 C356 1.208 . S
C356 O354 1.247 . S
C356 O355 1.208 . S
C357 O362 1.247 . S
C357 O363 1.208 . S
C358 O350 1.315 . S
C358 O353 1.279 . S
C359 O360 1.315 . S
C359 O361 1.279 . S
O360 Cd352 2.223 . S
O360 C359 1.315 . S
O361 Cd351 2.240 . S
O361 C359 1.279 . S
O362 Cd352 2.297 . S
O362 C357 1.247 . S
O363 Cd352 2.439 . S
O363 C357 1.208 . S
O364 Cd365 2.223 . S
O364 C372 1.315 . S
Cd365 O364 2.223 . S
Cd365 O368 2.297 . S
Cd365 O369 2.439 . S
Cd365 O375 2.240 . S
Cd366 O367 2.240 . S
Cd366 O374 2.223 . S
Cd366 O376 2.297 . S
Cd366 O377 2.439 . S
O367 Cd366 2.240 . S
O367 C372 1.279 . S
O368 Cd365 2.297 . S
O368 C370 1.247 . S
O369 Cd365 2.439 . S
O369 C370 1.208 . S
C370 O368 1.247 . S
C370 O369 1.208 . S
C371 O376 1.247 1_556 S
C371 O377 1.208 1_556 S
C372 O364 1.315 . S
C372 O367 1.279 . S
C373 O374 1.315 . S
C373 O375 1.279 . S
O374 Cd366 2.223 . S
O374 C373 1.315 . S
O375 Cd365 2.240 . S
O375 C373 1.279 . S
O376 Cd366 2.297 . S
O376 C371 1.247 1_554 S
O377 Cd366 2.439 . S
O377 C371 1.208 1_554 S
O378 Cd379 2.223 1_554 S
O378 C386 1.315 . S
Cd379 O378 2.223 1_556 S
Cd379 O382 2.297 . S
Cd379 O383 2.439 . S
Cd379 O389 2.240 . S
Cd380 O381 2.240 . S
Cd380 O388 2.223 . S
Cd380 O390 2.297 . S
Cd380 O391 2.439 . S
O381 Cd380 2.240 . S
O381 C386 1.279 1_556 S
O382 Cd379 2.297 . S
O382 C384 1.247 . S
O383 Cd379 2.439 . S
O383 C384 1.208 . S
C384 O382 1.247 . S
C384 O383 1.208 . S
C385 O390 1.247 . S
C385 O391 1.208 . S
C386 O378 1.315 . S
C386 O381 1.279 1_554 S
C387 O388 1.315 . S
C387 O389 1.279 . S
O388 Cd380 2.223 . S
O388 C387 1.315 . S
O389 Cd379 2.240 . S
O389 C387 1.279 . S
O390 Cd380 2.297 . S
O390 C385 1.247 . S
O391 Cd380 2.439 . S
O391 C385 1.208 . S
O392 Cd393 2.223 . S
O392 C400 1.315 . S
Cd393 O392 2.223 . S
Cd393 O396 2.297 . S
Cd393 O397 2.439 . S
Cd393 O403 2.240 . S
Cd394 O395 2.240 . S
Cd394 O402 2.223 . S
Cd394 O404 2.297 . S
Cd394 O405 2.439 . S
O395 Cd394 2.240 . S
O395 C400 1.279 . S
O396 Cd393 2.297 . S
O396 C398 1.247 . S
O397 Cd393 2.439 . S
O397 C398 1.208 . S
C398 O396 1.247 . S
C398 O397 1.208 . S
C399 O404 1.247 . S
C399 O405 1.208 . S
C400 O392 1.315 . S
C400 O395 1.279 . S
C401 O402 1.315 . S
C401 O403 1.279 . S
O402 Cd394 2.223 . S
O402 C401 1.315 . S
O403 Cd393 2.240 . S
O403 C401 1.279 . S
O404 Cd394 2.297 . S
O404 C399 1.247 . S
O405 Cd394 2.439 . S
O405 C399 1.208 . S
O406 Cd407 2.223 . S
O406 C414 1.315 . S
Cd407 O406 2.223 . S
Cd407 O410 2.297 . S
Cd407 O411 2.439 . S
Cd407 O417 2.240 . S
Cd408 O409 2.240 . S
Cd408 O416 2.223 . S
Cd408 O418 2.297 . S
Cd408 O419 2.439 . S
O409 Cd408 2.240 . S
O409 C414 1.279 . S
O410 Cd407 2.297 . S
O410 C412 1.247 . S
O411 Cd407 2.439 . S
O411 C412 1.208 . S
C412 O410 1.247 . S
C412 O411 1.208 . S
C413 O418 1.247 . S
C413 O419 1.208 . S
C414 O406 1.315 . S
C414 O409 1.279 . S
C415 O416 1.315 . S
C415 O417 1.279 . S
O416 Cd408 2.223 . S
O416 C415 1.315 . S
O417 Cd407 2.240 . S
O417 C415 1.279 . S
O418 Cd408 2.297 . S
O418 C413 1.247 . S
O419 Cd408 2.439 . S
O419 C413 1.208 . S
O420 Cd421 2.223 1_556 S
O420 C428 1.315 . S
Cd421 O420 2.223 1_554 S
Cd421 O424 2.297 1_554 S
Cd421 O425 2.439 . S
Cd421 O431 2.240 . S
Cd422 O423 2.240 . S
Cd422 O430 2.223 . S
Cd422 O432 2.297 . S
Cd422 O433 2.439 . S
O423 Cd422 2.240 . S
O423 C428 1.279 1_554 S
O424 Cd421 2.297 1_556 S
O424 C426 1.247 1_556 S
O425 Cd421 2.439 . S
O425 C426 1.208 . S
C426 O424 1.247 1_554 S
C426 O425 1.208 . S
C427 O432 1.247 . S
C427 O433 1.208 . S
C428 O420 1.315 . S
C428 O423 1.279 1_556 S
C429 O430 1.315 . S
C429 O431 1.279 . S
O430 Cd422 2.223 . S
O430 C429 1.315 . S
O431 Cd421 2.240 . S
O431 C429 1.279 . S
O432 Cd422 2.297 . S
O432 C427 1.247 . S
O433 Cd422 2.439 . S
O433 C427 1.208 . S
O434 Cd435 2.223 . S
O434 C442 1.315 . S
Cd435 O434 2.223 . S
Cd435 O438 2.297 . S
Cd435 O439 2.439 . S
Cd435 O445 2.240 . S
Cd436 O437 2.240 . S
Cd436 O444 2.223 . S
Cd436 O446 2.297 . S
Cd436 O447 2.439 . S
O437 Cd436 2.240 . S
O437 C442 1.279 . S
O438 Cd435 2.297 . S
O438 C440 1.247 . S
O439 Cd435 2.439 . S
O439 C440 1.208 . S
C440 O438 1.247 . S
C440 O439 1.208 . S
C441 O446 1.247 . S
C441 O447 1.208 . S
C442 O434 1.315 . S
C442 O437 1.279 . S
C443 O444 1.315 . S
C443 O445 1.279 . S
O444 Cd436 2.223 . S
O444 C443 1.315 . S
O445 Cd435 2.240 . S
O445 C443 1.279 . S
O446 Cd436 2.297 . S
O446 C441 1.247 . S
O447 Cd436 2.439 . S
O447 C441 1.208 . S
C448 C449 1.369 1_554 S
C448 C450 1.419 . S
C448 H452 0.930 . S
C449 C448 1.369 1_556 S
C449 C458 1.429 . S
C450 C448 1.419 . S
C450 C451 1.363 . S
C450 H453 0.929 . S
C451 C450 1.363 . S
C451 C457 1.428 1_554 S
H452 C448 0.930 . S
H453 C450 0.929 . S
S454 N455 1.613 . S
S454 N456 1.610 . S
N455 S454 1.613 . S
N455 C458 1.350 . S
N456 S454 1.610 . S
N456 C457 1.351 . S
C457 C451 1.428 1_556 S
C457 N456 1.351 . S
C457 C458 1.434 . S
C458 C449 1.429 . S
C458 N455 1.350 . S
C458 C457 1.434 . S
C459 C460 1.369 . S
C459 C461 1.419 . S
C459 H463 0.930 . S
C460 C459 1.369 . S
C460 C469 1.429 . S
C461 C459 1.419 . S
C461 C462 1.363 . S
C461 H464 0.929 . S
C462 C461 1.363 . S
C462 C468 1.428 . S
H463 C459 0.930 . S
H464 C461 0.929 . S
S465 N466 1.613 . S
S465 N467 1.610 . S
N466 S465 1.613 . S
N466 C469 1.350 . S
N467 S465 1.610 . S
N467 C468 1.351 . S
C468 C462 1.428 . S
C468 N467 1.351 . S
C468 C469 1.434 . S
C469 C460 1.429 . S
C469 N466 1.350 . S
C469 C468 1.434 . S
C470 C471 1.369 . S
C470 C472 1.419 . S
C470 H474 0.930 . S
C471 C470 1.369 . S
C471 C480 1.429 . S
C472 C470 1.419 . S
C472 C473 1.363 . S
C472 H475 0.929 . S
C473 C472 1.363 . S
C473 C479 1.428 . S
H474 C470 0.930 . S
H475 C472 0.929 . S
S476 N477 1.613 . S
S476 N478 1.610 . S
N477 S476 1.613 . S
N477 C480 1.350 . S
N478 S476 1.610 . S
N478 C479 1.351 . S
C479 C473 1.428 . S
C479 N478 1.351 . S
C479 C480 1.434 . S
C480 C471 1.429 . S
C480 N477 1.350 . S
C480 C479 1.434 . S
C481 C482 1.369 . S
C481 C483 1.419 . S
C481 H485 0.930 . S
C482 C481 1.369 . S
C482 C491 1.429 . S
C483 C481 1.419 . S
C483 C484 1.363 . S
C483 H486 0.929 . S
C484 C483 1.363 . S
C484 C490 1.428 . S
H485 C481 0.930 . S
H486 C483 0.929 . S
S487 N488 1.613 . S
S487 N489 1.610 . S
N488 S487 1.613 . S
N488 C491 1.350 . S
N489 S487 1.610 . S
N489 C490 1.351 . S
C490 C484 1.428 . S
C490 N489 1.351 . S
C490 C491 1.434 . S
C491 C482 1.429 . S
C491 N488 1.350 . S
C491 C490 1.434 . S
C492 C493 1.369 . S
C492 C494 1.419 . S
C492 H496 0.930 . S
C493 C492 1.369 . S
C493 C502 1.429 . S
C494 C492 1.419 . S
C494 C495 1.363 . S
C494 H497 0.929 . S
C495 C494 1.363 . S
C495 C501 1.428 . S
H496 C492 0.930 . S
H497 C494 0.929 . S
S498 N499 1.613 . S
S498 N500 1.610 . S
N499 S498 1.613 . S
N499 C502 1.350 . S
N500 S498 1.610 . S
N500 C501 1.351 . S
C501 C495 1.428 . S
C501 N500 1.351 . S
C501 C502 1.434 . S
C502 C493 1.429 . S
C502 N499 1.350 . S
C502 C501 1.434 . S
C503 C504 1.369 . S
C503 C505 1.419 . S
C503 H507 0.930 . S
C504 C503 1.369 . S
C504 C513 1.429 1_556 S
C505 C503 1.419 . S
C505 C506 1.363 1_556 S
C505 H508 0.929 . S
C506 C505 1.363 1_554 S
C506 C512 1.428 . S
H507 C503 0.930 . S
H508 C505 0.929 . S
S509 N510 1.613 . S
S509 N511 1.610 . S
N510 S509 1.613 . S
N510 C513 1.350 . S
N511 S509 1.610 . S
N511 C512 1.351 . S
C512 C506 1.428 . S
C512 N511 1.351 . S
C512 C513 1.434 . S
C513 C504 1.429 1_554 S
C513 N510 1.350 . S
C513 C512 1.434 . S
C514 C515 1.369 . S
C514 C516 1.419 . S
C514 H518 0.930 . S
C515 C514 1.369 . S
C515 C524 1.429 . S
C516 C514 1.419 . S
C516 C517 1.363 . S
C516 H519 0.929 . S
C517 C516 1.363 . S
C517 C523 1.428 . S
H518 C514 0.930 . S
H519 C516 0.929 . S
S520 N521 1.613 . S
S520 N522 1.610 . S
N521 S520 1.613 . S
N521 C524 1.350 . S
N522 S520 1.610 . S
N522 C523 1.351 . S
C523 C517 1.428 . S
C523 N522 1.351 . S
C523 C524 1.434 . S
C524 C515 1.429 . S
C524 N521 1.350 . S
C524 C523 1.434 . S
C525 C526 1.369 . S
C525 C527 1.419 . S
C525 H529 0.930 . S
C526 C525 1.369 . S
C526 C535 1.429 . S
C527 C525 1.419 . S
C527 C528 1.363 . S
C527 H530 0.929 . S
C528 C527 1.363 . S
C528 C534 1.428 . S
H529 C525 0.930 . S
H530 C527 0.929 . S
S531 N532 1.613 . S
S531 N533 1.610 . S
N532 S531 1.613 . S
N532 C535 1.350 . S
N533 S531 1.610 . S
N533 C534 1.351 . S
C534 C528 1.428 . S
C534 N533 1.351 . S
C534 C535 1.434 . S
C535 C526 1.429 . S
C535 N532 1.350 . S
C535 C534 1.434 . S
C536 C537 1.369 . S
C536 C538 1.419 . S
C536 H540 0.930 . S
C537 C536 1.369 . S
C537 C546 1.429 . S
C538 C536 1.419 . S
C538 C539 1.363 . S
C538 H541 0.929 . S
C539 C538 1.363 . S
C539 C545 1.428 . S
H540 C536 0.930 . S
H541 C538 0.929 . S
S542 N543 1.613 . S
S542 N544 1.610 . S
N543 S542 1.613 . S
N543 C546 1.350 . S
N544 S542 1.610 . S
N544 C545 1.351 . S
C545 C539 1.428 . S
C545 N544 1.351 . S
C545 C546 1.434 . S
C546 C537 1.429 . S
C546 N543 1.350 . S
C546 C545 1.434 . S
C547 C548 1.369 . S
C547 C549 1.419 . S
C547 H551 0.930 . S
C548 C547 1.369 . S
C548 C557 1.429 . S
C549 C547 1.419 . S
C549 C550 1.363 . S
C549 H552 0.929 . S
C550 C549 1.363 . S
C550 C556 1.428 . S
H551 C547 0.930 . S
H552 C549 0.929 . S
S553 N554 1.613 . S
S553 N555 1.610 . S
N554 S553 1.613 . S
N554 C557 1.350 . S
N555 S553 1.610 . S
N555 C556 1.351 . S
C556 C550 1.428 . S
C556 N555 1.351 . S
C556 C557 1.434 . S
C557 C548 1.429 . S
C557 N554 1.350 . S
C557 C556 1.434 . S
C558 C559 1.369 . S
C558 C560 1.419 . S
C558 H562 0.930 . S
C559 C558 1.369 . S
C559 C568 1.429 . S
C560 C558 1.419 . S
C560 C561 1.363 1_556 S
C560 H563 0.929 . S
C561 C560 1.363 1_554 S
C561 C567 1.428 . S
H562 C558 0.930 . S
H563 C560 0.929 . S
S564 N565 1.613 . S
S564 N566 1.610 . S
N565 S564 1.613 . S
N565 C568 1.349 1_554 S
N566 S564 1.610 . S
N566 C567 1.351 . S
C567 C561 1.428 . S
C567 N566 1.351 . S
C567 C568 1.434 1_554 S
C568 C559 1.429 . S
C568 N565 1.349 1_556 S
C568 C567 1.434 1_556 S
C569 C570 1.369 . S
C569 C571 1.419 . S
C569 H573 0.930 . S
C570 C569 1.369 . S
C570 C579 1.429 . S
C571 C569 1.419 . S
C571 C572 1.363 . S
C571 H574 0.929 . S
C572 C571 1.363 . S
C572 C578 1.428 . S
H573 C569 0.930 . S
H574 C571 0.929 . S
S575 N576 1.613 . S
S575 N577 1.610 . S
N576 S575 1.613 . S
N576 C579 1.350 . S
N577 S575 1.610 . S
N577 C578 1.351 . S
C578 C572 1.428 . S
C578 N577 1.351 . S
C578 C579 1.434 . S
C579 C570 1.429 . S
C579 N576 1.350 . S
C579 C578 1.434 . S
C580 C581 1.369 . S
C580 C582 1.419 . S
C580 H584 0.930 . S
C581 C580 1.369 . S
C581 C590 1.429 . S
C582 C580 1.419 . S
C582 C583 1.363 . S
C582 H585 0.929 . S
C583 C582 1.363 . S
C583 C589 1.428 . S
H584 C580 0.930 . S
H585 C582 0.929 . S
S586 N587 1.613 . S
S586 N588 1.610 . S
N587 S586 1.613 . S
N587 C590 1.350 . S
N588 S586 1.610 . S
N588 C589 1.351 . S
C589 C583 1.428 . S
C589 N588 1.351 . S
C589 C590 1.434 . S
C590 C581 1.429 . S
C590 N587 1.350 . S
C590 C589 1.434 . S
C591 C592 1.369 . S
C591 C593 1.419 . S
C591 H595 0.930 . S
C592 C591 1.369 . S
C592 C601 1.429 . S
C593 C591 1.419 . S
C593 C594 1.363 . S
C593 H596 0.929 . S
C594 C593 1.363 . S
C594 C600 1.428 . S
H595 C591 0.930 . S
H596 C593 0.929 . S
S597 N598 1.613 . S
S597 N599 1.610 . S
N598 S597 1.613 . S
N598 C601 1.350 . S
N599 S597 1.610 . S
N599 C600 1.351 . S
C600 C594 1.428 . S
C600 N599 1.351 . S
C600 C601 1.434 . S
C601 C592 1.429 . S
C601 N598 1.350 . S
C601 C600 1.434 . S
C602 C603 1.369 . S
C602 C604 1.419 . S
C602 H606 0.930 . S
C603 C602 1.369 . S
C603 C612 1.429 . S
C604 C602 1.419 . S
C604 C605 1.363 . S
C604 H607 0.929 . S
C605 C604 1.363 . S
C605 C611 1.428 . S
H606 C602 0.930 . S
H607 C604 0.929 . S
S608 N609 1.613 . S
S608 N610 1.610 . S
N609 S608 1.613 . S
N609 C612 1.350 . S
N610 S608 1.610 . S
N610 C611 1.351 . S
C611 C605 1.428 . S
C611 N610 1.351 . S
C611 C612 1.434 . S
C612 C603 1.429 . S
C612 N609 1.350 . S
C612 C611 1.434 . S
C613 C614 1.369 . S
C613 C615 1.419 . S
C613 H617 0.930 . S
C614 C613 1.369 . S
C614 C623 1.429 1_556 S
C615 C613 1.419 . S
C615 C616 1.363 1_556 S
C615 H618 0.929 . S
C616 C615 1.363 1_554 S
C616 C622 1.428 . S
H617 C613 0.930 . S
H618 C615 0.929 . S
S619 N620 1.613 . S
S619 N621 1.610 . S
N620 S619 1.613 . S
N620 C623 1.350 . S
N621 S619 1.610 . S
N621 C622 1.351 . S
C622 C616 1.428 . S
C622 N621 1.351 . S
C622 C623 1.434 . S
C623 C614 1.429 1_554 S
C623 N620 1.350 . S
C623 C622 1.434 . S
C624 C625 1.369 . S
C624 C626 1.419 . S
C624 H628 0.930 . S
C625 C624 1.369 . S
C625 C634 1.429 . S
C626 C624 1.419 . S
C626 C627 1.363 . S
C626 H629 0.929 . S
C627 C626 1.363 . S
C627 C633 1.428 . S
H628 C624 0.930 . S
H629 C626 0.929 . S
S630 N631 1.613 . S
S630 N632 1.610 . S
N631 S630 1.613 . S
N631 C634 1.350 . S
N632 S630 1.610 . S
N632 C633 1.351 . S
C633 C627 1.428 . S
C633 N632 1.351 . S
C633 C634 1.434 . S
C634 C625 1.429 . S
C634 N631 1.350 . S
C634 C633 1.434 . S
C635 C636 1.369 . S
C635 C637 1.419 1_565 S
C635 H639 0.930 . S
C636 C635 1.369 . S
C636 C645 1.429 1_565 S
C637 C635 1.419 1_545 S
C637 C638 1.363 . S
C637 H640 0.929 1_545 S
C638 C637 1.363 . S
C638 C644 1.428 . S
H639 C635 0.930 . S
H640 C637 0.929 1_565 S
S641 N642 1.613 . S
S641 N643 1.610 . S
N642 S641 1.613 . S
N642 C645 1.350 . S
N643 S641 1.610 . S
N643 C644 1.351 . S
C644 C638 1.428 . S
C644 N643 1.351 . S
C644 C645 1.434 . S
C645 C636 1.429 1_545 S
C645 N642 1.350 . S
C645 C644 1.434 . S
C646 C647 1.369 . S
C646 C648 1.419 . S
C646 H650 0.930 . S
C647 C646 1.369 . S
C647 C656 1.429 . S
C648 C646 1.419 . S
C648 C649 1.363 . S
C648 H651 0.929 . S
C649 C648 1.363 . S
C649 C655 1.428 . S
H650 C646 0.930 . S
H651 C648 0.929 . S
S652 N653 1.613 . S
S652 N654 1.610 . S
N653 S652 1.613 . S
N653 C656 1.350 . S
N654 S652 1.610 . S
N654 C655 1.351 . S
C655 C649 1.428 . S
C655 N654 1.351 . S
C655 C656 1.434 . S
C656 C647 1.429 . S
C656 N653 1.350 . S
C656 C655 1.434 . S
C657 C658 1.369 . S
C657 C659 1.419 . S
C657 H661 0.930 . S
C658 C657 1.369 . S
C658 C667 1.429 . S
C659 C657 1.419 . S
C659 C660 1.363 1_545 S
C659 H662 0.929 . S
C660 C659 1.363 1_565 S
C660 C666 1.428 . S
H661 C657 0.930 . S
H662 C659 0.929 . S
S663 N664 1.634 . S
S663 N665 1.610 . S
N664 S663 1.634 . S
N664 C667 1.343 1_565 S
N665 S663 1.610 . S
N665 C666 1.351 . S
C666 C660 1.428 . S
C666 N665 1.351 . S
C666 C667 1.434 1_565 S
C667 C658 1.429 . S
C667 N664 1.343 1_545 S
C667 C666 1.434 1_545 S
C668 C669 1.369 . S
C668 C670 1.419 . S
C668 H672 0.930 . S
C669 C668 1.369 . S
C669 C678 1.429 . S
C670 C668 1.419 . S
C670 C671 1.363 . S
C670 H673 0.929 . S
C671 C670 1.363 . S
C671 C677 1.428 . S
H672 C668 0.930 . S
H673 C670 0.929 . S
S674 N675 1.613 . S
S674 N676 1.610 . S
N675 S674 1.613 . S
N675 C678 1.350 . S
N676 S674 1.610 . S
N676 C677 1.351 . S
C677 C671 1.428 . S
C677 N676 1.351 . S
C677 C678 1.434 . S
C678 C669 1.429 . S
C678 N675 1.350 . S
C678 C677 1.434 . S
C679 C680 1.369 . S
C679 C681 1.419 . S
C679 H683 0.930 . S
C680 C679 1.369 . S
C680 C689 1.432 . S
C681 C679 1.419 . S
C681 C682 1.363 1_545 S
C681 H684 0.929 . S
C682 C681 1.363 1_565 S
C682 C688 1.428 . S
H683 C679 0.930 . S
H684 C681 0.929 . S
S685 N686 1.613 . S
S685 N687 1.610 . S
N686 S685 1.613 . S
N686 C689 1.348 1_565 S
N687 S685 1.610 . S
N687 C688 1.351 . S
C688 C682 1.428 . S
C688 N687 1.351 . S
C688 C689 1.432 1_565 S
C689 C680 1.432 . S
C689 N686 1.348 1_545 S
C689 C688 1.432 1_545 S
C690 C691 1.369 . S
C690 C692 1.419 . S
C690 H694 0.930 . S
C691 C690 1.369 . S
C691 C700 1.429 . S
C692 C690 1.419 . S
C692 C693 1.363 . S
C692 H695 0.929 . S
C693 C692 1.363 . S
C693 C699 1.428 . S
H694 C690 0.930 . S
H695 C692 0.929 . S
S696 N697 1.613 . S
S696 N698 1.610 . S
N697 S696 1.613 . S
N697 C700 1.350 . S
N698 S696 1.610 . S
N698 C699 1.351 . S
C699 C693 1.428 . S
C699 N698 1.351 . S
C699 C700 1.434 . S
C700 C691 1.429 . S
C700 N697 1.350 . S
C700 C699 1.434 . S
C701 C702 1.369 . S
C701 C703 1.419 . S
C701 H705 0.930 . S
C702 C701 1.369 . S
C702 C711 1.429 1_545 S
C703 C701 1.419 . S
C703 C704 1.363 1_545 S
C703 H706 0.929 . S
C704 C703 1.363 1_565 S
C704 C710 1.428 . S
H705 C701 0.930 . S
H706 C703 0.929 . S
S707 N708 1.613 . S
S707 N709 1.610 . S
N708 S707 1.613 . S
N708 C711 1.350 . S
N709 S707 1.610 . S
N709 C710 1.351 . S
C710 C704 1.428 . S
C710 N709 1.351 . S
C710 C711 1.434 . S
C711 C702 1.429 1_565 S
C711 N708 1.350 . S
C711 C710 1.434 . S
C712 C713 1.369 . S
C712 C714 1.419 . S
C712 H716 0.930 . S
C713 C712 1.369 . S
C713 C722 1.429 . S
C714 C712 1.419 . S
C714 C715 1.363 . S
C714 H717 0.929 . S
C715 C714 1.363 . S
C715 C721 1.428 . S
H716 C712 0.930 . S
H717 C714 0.929 . S
S718 N719 1.613 . S
S718 N720 1.610 . S
N719 S718 1.613 . S
N719 C722 1.350 . S
N720 S718 1.610 . S
N720 C721 1.351 . S
C721 C715 1.428 . S
C721 N720 1.351 . S
C721 C722 1.434 . S
C722 C713 1.429 . S
C722 N719 1.350 . S
C722 C721 1.434 . S
C723 C724 1.369 . S
C723 C725 1.419 . S
C723 H727 0.930 . S
C724 C723 1.369 . S
C724 C733 1.429 . S
C725 C723 1.419 . S
C725 C726 1.363 . S
C725 H728 0.929 . S
C726 C725 1.363 . S
C726 C732 1.428 . S
H727 C723 0.930 . S
H728 C725 0.929 . S
S729 N730 1.613 . S
S729 N731 1.610 . S
N730 S729 1.613 . S
N730 C733 1.350 . S
N731 S729 1.610 . S
N731 C732 1.351 . S
C732 C726 1.428 . S
C732 N731 1.351 . S
C732 C733 1.434 . S
C733 C724 1.429 . S
C733 N730 1.350 . S
C733 C732 1.434 . S
C734 C735 1.369 . S
C734 C736 1.419 . S
C734 H738 0.930 . S
C735 C734 1.369 . S
C735 C744 1.429 . S
C736 C734 1.419 . S
C736 C737 1.363 . S
C736 H739 0.929 . S
C737 C736 1.363 . S
C737 C743 1.428 . S
H738 C734 0.930 . S
H739 C736 0.929 . S
S740 N741 1.613 . S
S740 N742 1.610 . S
N741 S740 1.613 . S
N741 C744 1.350 . S
N742 S740 1.610 . S
N742 C743 1.351 . S
C743 C737 1.428 . S
C743 N742 1.351 . S
C743 C744 1.434 . S
C744 C735 1.429 . S
C744 N741 1.350 . S
C744 C743 1.434 . S
C745 C746 1.369 . S
C745 C747 1.419 . S
C745 H749 0.930 . S
C746 C745 1.369 . S
C746 C755 1.429 . S
C747 C745 1.419 . S
C747 C748 1.363 . S
C747 H750 0.929 . S
C748 C747 1.363 . S
C748 C754 1.428 . S
H749 C745 0.930 . S
H750 C747 0.929 . S
S751 N752 1.613 . S
S751 N753 1.610 . S
N752 S751 1.613 . S
N752 C755 1.350 . S
N753 S751 1.610 . S
N753 C754 1.351 . S
C754 C748 1.428 . S
C754 N753 1.351 . S
C754 C755 1.434 . S
C755 C746 1.429 . S
C755 N752 1.350 . S
C755 C754 1.434 . S
C756 C757 1.369 . S
C756 C758 1.419 . S
C756 H760 0.930 . S
C757 C756 1.369 . S
C757 C766 1.429 . S
C758 C756 1.419 . S
C758 C759 1.363 . S
C758 H761 0.929 . S
C759 C758 1.363 . S
C759 C765 1.428 . S
H760 C756 0.930 . S
H761 C758 0.929 . S
S762 N763 1.613 . S
S762 N764 1.610 . S
N763 S762 1.613 . S
N763 C766 1.350 . S
N764 S762 1.610 . S
N764 C765 1.351 . S
C765 C759 1.428 . S
C765 N764 1.351 . S
C765 C766 1.434 . S
C766 C757 1.429 . S
C766 N763 1.350 . S
C766 C765 1.434 . S
C767 C768 1.369 . S
C767 C769 1.419 . S
C767 H771 0.930 . S
C768 C767 1.369 . S
C768 C777 1.429 . S
C769 C767 1.419 . S
C769 C770 1.363 . S
C769 H772 0.929 . S
C770 C769 1.363 . S
C770 C776 1.428 . S
H771 C767 0.930 . S
H772 C769 0.929 . S
S773 N774 1.613 . S
S773 N775 1.610 . S
N774 S773 1.613 . S
N774 C777 1.350 . S
N775 S773 1.610 . S
N775 C776 1.351 . S
C776 C770 1.428 . S
C776 N775 1.351 . S
C776 C777 1.434 . S
C777 C768 1.429 . S
C777 N774 1.350 . S
C777 C776 1.434 . S
C778 C779 1.369 . S
C778 C780 1.419 . S
C778 H782 0.930 . S
C779 C778 1.369 . S
C779 C788 1.429 . S
C780 C778 1.419 . S
C780 C781 1.363 . S
C780 H783 0.929 . S
C781 C780 1.363 . S
C781 C787 1.428 . S
H782 C778 0.930 . S
H783 C780 0.929 . S
S784 N785 1.613 . S
S784 N786 1.610 . S
N785 S784 1.613 . S
N785 C788 1.350 . S
N786 S784 1.610 . S
N786 C787 1.351 . S
C787 C781 1.428 . S
C787 N786 1.351 . S
C787 C788 1.434 . S
C788 C779 1.429 . S
C788 N785 1.350 . S
C788 C787 1.434 . S
C789 C790 1.369 . S
C789 C791 1.419 . S
C789 H793 0.930 . S
C790 C789 1.369 . S
C790 C799 1.429 . S
C791 C789 1.419 . S
C791 C792 1.363 . S
C791 H794 0.929 . S
C792 C791 1.363 . S
C792 C798 1.428 . S
H793 C789 0.930 . S
H794 C791 0.929 . S
S795 N796 1.613 . S
S795 N797 1.610 . S
N796 S795 1.613 . S
N796 C799 1.350 . S
N797 S795 1.610 . S
N797 C798 1.351 . S
C798 C792 1.428 . S
C798 N797 1.351 . S
C798 C799 1.434 . S
C799 C790 1.429 . S
C799 N796 1.350 . S
C799 C798 1.434 . S
C800 C801 1.369 . S
C800 C802 1.419 . S
C800 H804 0.930 . S
C801 C800 1.369 . S
C801 C810 1.429 . S
C802 C800 1.419 . S
C802 C803 1.363 . S
C802 H805 0.929 . S
C803 C802 1.363 . S
C803 C809 1.428 . S
H804 C800 0.930 . S
H805 C802 0.929 . S
S806 N807 1.613 . S
S806 N808 1.610 . S
N807 S806 1.613 . S
N807 C810 1.350 . S
N808 S806 1.610 . S
N808 C809 1.351 . S
C809 C803 1.428 . S
C809 N808 1.351 . S
C809 C810 1.434 . S
C810 C801 1.429 . S
C810 N807 1.350 . S
C810 C809 1.434 . S
C811 C812 1.369 . S
C811 C813 1.419 1_455 S
C811 H815 0.930 . S
C812 C811 1.369 . S
C812 C821 1.429 . S
C813 C811 1.419 1_655 S
C813 C814 1.363 . S
C813 H816 0.929 . S
C814 C813 1.363 . S
C814 C820 1.428 . S
H815 C811 0.930 . S
H816 C813 0.929 . S
S817 N818 1.617 1_655 S
S817 N819 1.606 . S
N818 S817 1.617 1_455 S
N818 C821 1.350 . S
N819 S817 1.606 . S
N819 C820 1.351 . S
C820 C814 1.428 . S
C820 N819 1.351 . S
C820 C821 1.434 1_655 S
C821 C812 1.429 . S
C821 N818 1.350 . S
C821 C820 1.434 1_455 S
C822 C823 1.369 . S
C822 C824 1.419 . S
C822 H826 0.930 . S
C823 C822 1.369 . S
C823 C832 1.429 . S
C824 C822 1.419 . S
C824 C825 1.363 . S
C824 H827 0.929 . S
C825 C824 1.363 . S
C825 C831 1.428 . S
H826 C822 0.930 . S
H827 C824 0.929 . S
S828 N829 1.613 . S
S828 N830 1.610 . S
N829 S828 1.613 . S
N829 C832 1.350 . S
N830 S828 1.610 . S
N830 C831 1.351 . S
C831 C825 1.428 . S
C831 N830 1.351 . S
C831 C832 1.434 . S
C832 C823 1.429 . S
C832 N829 1.350 . S
C832 C831 1.434 . S
C833 C834 1.369 . S
C833 C835 1.419 . S
C833 H837 0.930 . S
C834 C833 1.369 . S
C834 C843 1.429 . S
C835 C833 1.419 . S
C835 C836 1.363 . S
C835 H838 0.929 . S
C836 C835 1.363 . S
C836 C842 1.428 . S
H837 C833 0.930 . S
H838 C835 0.929 . S
S839 N840 1.613 . S
S839 N841 1.610 . S
N840 S839 1.613 . S
N840 C843 1.350 . S
N841 S839 1.610 . S
N841 C842 1.351 . S
C842 C836 1.428 . S
C842 N841 1.351 . S
C842 C843 1.434 . S
C843 C834 1.429 . S
C843 N840 1.350 . S
C843 C842 1.434 . S
C844 C845 1.369 . S
C844 C846 1.419 . S
C844 H848 0.930 . S
C845 C844 1.369 . S
C845 C854 1.429 . S
C846 C844 1.419 . S
C846 C847 1.363 . S
C846 H849 0.929 . S
C847 C846 1.363 . S
C847 C853 1.428 . S
H848 C844 0.930 . S
H849 C846 0.929 . S
S850 N851 1.613 . S
S850 N852 1.610 . S
N851 S850 1.613 . S
N851 C854 1.350 . S
N852 S850 1.610 . S
N852 C853 1.351 . S
C853 C847 1.428 . S
C853 N852 1.351 . S
C853 C854 1.434 . S
C854 C845 1.429 . S
C854 N851 1.350 . S
C854 C853 1.434 . S
C855 C856 1.369 . S
C855 C857 1.419 . S
C855 H859 0.930 . S
C856 C855 1.369 . S
C856 C865 1.429 . S
C857 C855 1.419 . S
C857 C858 1.363 . S
C857 H860 0.965 . S
C858 C857 1.363 . S
C858 C864 1.428 . S
H859 C855 0.930 . S
H860 C857 0.965 . S
S861 N862 1.613 . S
S861 N863 1.610 . S
N862 S861 1.613 . S
N862 C865 1.350 . S
N863 S861 1.610 . S
N863 C864 1.351 . S
C864 C858 1.428 . S
C864 N863 1.351 . S
C864 C865 1.434 . S
C865 C856 1.429 . S
C865 N862 1.350 . S
C865 C864 1.434 . S
C866 C867 1.369 . S
C866 C868 1.419 . S
C866 H870 0.930 . S
C867 C866 1.369 . S
C867 C876 1.429 . S
C868 C866 1.419 . S
C868 C869 1.363 . S
C868 H871 0.929 . S
C869 C868 1.363 . S
C869 C875 1.428 . S
H870 C866 0.930 . S
H871 C868 0.929 . S
S872 N873 1.613 . S
S872 N874 1.610 . S
N873 S872 1.613 . S
N873 C876 1.350 . S
N874 S872 1.610 . S
N874 C875 1.351 . S
C875 C869 1.428 . S
C875 N874 1.351 . S
C875 C876 1.434 . S
C876 C867 1.429 . S
C876 N873 1.350 . S
C876 C875 1.434 . S
C877 C878 1.369 . S
C877 C879 1.419 1_655 S
C877 H881 0.930 . S
C878 C877 1.369 . S
C878 C887 1.429 . S
C879 C877 1.419 1_455 S
C879 C880 1.363 . S
C879 H882 0.929 . S
C880 C879 1.363 . S
C880 C886 1.428 . S
H881 C877 0.930 . S
H882 C879 0.929 . S
S883 N884 1.617 1_454 S
S883 N885 1.606 1_554 S
N884 S883 1.617 1_656 S
N884 C887 1.350 . S
N885 S883 1.606 1_556 S
N885 C886 1.351 . S
C886 C880 1.428 . S
C886 N885 1.351 . S
C886 C887 1.434 1_455 S
C887 C878 1.429 . S
C887 N884 1.350 . S
C887 C886 1.434 1_655 S
C888 C889 1.369 . S
C888 C890 1.419 . S
C888 H892 0.930 . S
C889 C888 1.369 . S
C889 C898 1.429 . S
C890 C888 1.419 . S
C890 C891 1.363 . S
C890 H893 0.929 . S
C891 C890 1.363 . S
C891 C897 1.428 . S
H892 C888 0.930 . S
H893 C890 0.929 . S
S894 N895 1.613 . S
S894 N896 1.610 . S
N895 S894 1.613 . S
N895 C898 1.350 . S
N896 S894 1.610 . S
N896 C897 1.351 . S
C897 C891 1.428 . S
C897 N896 1.351 . S
C897 C898 1.434 . S
C898 C889 1.429 . S
C898 N895 1.350 . S
C898 C897 1.434 . S
C899 C900 1.369 . S
C899 C901 1.419 . S
C899 H903 0.930 . S
C900 C899 1.369 . S
C900 C909 1.429 . S
C901 C899 1.419 . S
C901 C902 1.363 . S
C901 H904 0.929 . S
C902 C901 1.363 . S
C902 C908 1.428 . S
H903 C899 0.930 . S
H904 C901 0.929 . S
S905 N906 1.613 . S
S905 N907 1.610 . S
N906 S905 1.613 . S
N906 C909 1.350 . S
N907 S905 1.610 . S
N907 C908 1.351 . S
C908 C902 1.428 . S
C908 N907 1.351 . S
C908 C909 1.434 . S
C909 C900 1.429 . S
C909 N906 1.350 . S
C909 C908 1.434 . S
C910 C911 1.369 . S
C910 C912 1.419 . S
C910 H914 0.930 1_554 S
C911 C910 1.369 . S
C911 C920 1.429 . S
C912 C910 1.419 . S
C912 C913 1.363 . S
C912 H915 0.929 1_554 S
C913 C912 1.363 . S
C913 C919 1.428 . S
H914 C910 0.930 1_556 S
H915 C912 0.929 1_556 S
S916 N917 1.613 . S
S916 N918 1.610 . S
N917 S916 1.613 . S
N917 C920 1.350 . S
N918 S916 1.610 . S
N918 C919 1.351 . S
C919 C913 1.428 . S
C919 N918 1.351 . S
C919 C920 1.434 . S
C920 C911 1.429 . S
C920 N917 1.350 . S
C920 C919 1.434 . S
C921 C922 1.369 . S
C921 C923 1.419 . S
C921 H925 0.930 . S
C922 C921 1.369 . S
C922 C931 1.429 . S
C923 C921 1.419 . S
C923 C924 1.363 . S
C923 H926 0.929 . S
C924 C923 1.363 . S
C924 C930 1.428 . S
H925 C921 0.930 . S
H926 C923 0.929 . S
S927 N928 1.613 . S
S927 N929 1.610 . S
N928 S927 1.613 . S
N928 C931 1.350 . S
N929 S927 1.610 . S
N929 C930 1.351 . S
C930 C924 1.428 . S
C930 N929 1.351 . S
C930 C931 1.434 . S
C931 C922 1.429 . S
C931 N928 1.350 . S
C931 C930 1.434 . S
C932 C933 1.369 . S
C932 C934 1.419 . S
C932 H936 0.930 . S
C933 C932 1.369 . S
C933 C942 1.429 . S
C934 C932 1.419 . S
C934 C935 1.363 . S
C934 H937 0.929 . S
C935 C934 1.363 . S
C935 C941 1.428 . S
H936 C932 0.930 . S
H937 C934 0.929 . S
S938 N939 1.613 . S
S938 N940 1.610 . S
N939 S938 1.613 . S
N939 C942 1.350 . S
N940 S938 1.610 . S
N940 C941 1.351 . S
C941 C935 1.428 . S
C941 N940 1.351 . S
C941 C942 1.434 . S
C942 C933 1.429 . S
C942 N939 1.350 . S
C942 C941 1.434 . S
C943 C944 1.369 . S
C943 C945 1.419 1_655 S
C943 H947 0.930 . S
C944 C943 1.369 . S
C944 C953 1.429 . S
C945 C943 1.419 1_455 S
C945 C946 1.363 . S
C945 H948 0.929 . S
C946 C945 1.363 . S
C946 C952 1.428 . S
H947 C943 0.930 . S
H948 C945 0.929 . S
S949 N950 1.617 1_455 S
S949 N951 1.606 . S
N950 S949 1.617 1_655 S
N950 C953 1.350 . S
N951 S949 1.606 . S
N951 C952 1.351 . S
C952 C946 1.428 . S
C952 N951 1.351 . S
C952 C953 1.434 1_455 S
C953 C944 1.429 . S
C953 N950 1.350 . S
C953 C952 1.434 1_655 S
C954 C955 1.369 . S
C954 C956 1.419 1_655 S
C954 H958 0.930 . S
C955 C954 1.369 . S
C955 C964 1.429 . S
C956 C954 1.419 1_455 S
C956 C957 1.363 . S
C956 H959 0.929 . S
C957 C956 1.363 . S
C957 C963 1.428 . S
H958 C954 0.930 . S
H959 C956 0.929 . S
S960 N961 1.617 1_454 S
S960 N962 1.606 1_554 S
N961 S960 1.617 1_656 S
N961 C964 1.350 . S
N962 S960 1.606 1_556 S
N962 C963 1.351 . S
C963 C957 1.428 . S
C963 N962 1.351 . S
C963 C964 1.434 1_455 S
C964 C955 1.429 . S
C964 N961 1.350 . S
C964 C963 1.434 1_655 S
C965 C966 1.369 . S
C965 C967 1.419 . S
C965 H969 0.930 . S
C966 C965 1.369 . S
C966 C975 1.429 . S
C967 C965 1.419 . S
C967 C968 1.363 . S
C967 H970 0.929 . S
C968 C967 1.363 . S
C968 C974 1.428 . S
H969 C965 0.930 . S
H970 C967 0.929 . S
S971 N972 1.613 . S
S971 N973 1.610 . S
N972 S971 1.613 . S
N972 C975 1.350 . S
N973 S971 1.610 . S
N973 C974 1.351 . S
C974 C968 1.428 . S
C974 N973 1.351 . S
C974 C975 1.434 . S
C975 C966 1.429 . S
C975 N972 1.350 . S
C975 C974 1.434 . S
C976 C977 1.369 . S
C976 C978 1.419 . S
C976 H980 0.930 . S
C977 C976 1.369 . S
C977 C986 1.429 . S
C978 C976 1.419 . S
C978 C979 1.363 . S
C978 H981 0.929 . S
C979 C978 1.363 . S
C979 C985 1.428 . S
H980 C976 0.930 . S
H981 C978 0.929 . S
S982 N983 1.613 . S
S982 N984 1.610 . S
N983 S982 1.613 . S
N983 C986 1.350 . S
N984 S982 1.610 . S
N984 C985 1.351 . S
C985 C979 1.428 . S
C985 N984 1.351 . S
C985 C986 1.434 . S
C986 C977 1.429 . S
C986 N983 1.350 . S
C986 C985 1.434 . S
C987 C988 1.369 1_545 S
C987 C989 1.419 . S
C987 H991 0.930 . S
C988 C987 1.369 1_565 S
C988 C997 1.429 . S
C989 C987 1.419 . S
C989 C990 1.363 . S
C989 H992 0.929 . S
C990 C989 1.363 . S
C990 C996 1.428 1_545 S
H991 C987 0.930 . S
H992 C989 0.929 . S
S993 N994 1.613 . S
S993 N995 1.610 . S
N994 S993 1.613 . S
N994 C997 1.350 . S
N995 S993 1.610 . S
N995 C996 1.351 . S
C996 C990 1.428 1_565 S
C996 N995 1.351 . S
C996 C997 1.434 . S
C997 C988 1.429 . S
C997 N994 1.350 . S
C997 C996 1.434 . S
C998 C999 1.369 . S
C998 C1000 1.419 . S
C998 H1002 0.930 . S
C999 C998 1.369 . S
C999 C1008 1.429 . S
C1000 C998 1.419 . S
C1000 C1001 1.363 . S
C1000 H1003 0.929 . S
C1001 C1000 1.363 . S
C1001 C1007 1.428 . S
H1002 C998 0.930 . S
H1003 C1000 0.929 . S
S1004 N1005 1.613 . S
S1004 N1006 1.610 . S
N1005 S1004 1.613 . S
N1005 C1008 1.350 . S
N1006 S1004 1.610 . S
N1006 C1007 1.351 . S
C1007 C1001 1.428 . S
C1007 N1006 1.351 . S
C1007 C1008 1.434 . S
C1008 C999 1.429 . S
C1008 N1005 1.350 . S
C1008 C1007 1.434 . S
C1009 C1010 1.369 . S
C1009 C1011 1.419 1_545 S
C1009 H1013 0.930 1_545 S
C1010 C1009 1.369 . S
C1010 C1019 1.429 . S
C1011 C1009 1.419 1_565 S
C1011 C1012 1.363 . S
C1011 H1014 0.929 . S
C1012 C1011 1.363 . S
C1012 C1018 1.428 1_565 S
H1013 C1009 0.930 1_565 S
H1014 C1011 0.929 . S
S1015 N1016 1.613 . S
S1015 N1017 1.610 . S
N1016 S1015 1.613 . S
N1016 C1019 1.350 . S
N1017 S1015 1.610 . S
N1017 C1018 1.351 . S
C1018 C1012 1.428 1_545 S
C1018 N1017 1.351 . S
C1018 C1019 1.434 . S
C1019 C1010 1.429 . S
C1019 N1016 1.350 . S
C1019 C1018 1.434 . S
C1020 C1021 1.369 . S
C1020 C1022 1.419 . S
C1020 H1024 0.930 . S
C1021 C1020 1.369 . S
C1021 C1030 1.429 . S
C1022 C1020 1.419 . S
C1022 C1023 1.363 . S
C1022 H1025 0.929 . S
C1023 C1022 1.363 . S
C1023 C1029 1.428 . S
H1024 C1020 0.930 . S
H1025 C1022 0.929 . S
S1026 N1027 1.613 . S
S1026 N1028 1.610 . S
N1027 S1026 1.613 . S
N1027 C1030 1.350 . S
N1028 S1026 1.610 . S
N1028 C1029 1.351 . S
C1029 C1023 1.428 . S
C1029 N1028 1.351 . S
C1029 C1030 1.434 . S
C1030 C1021 1.429 . S
C1030 N1027 1.350 . S
C1030 C1029 1.434 . S
C1031 C1032 1.369 . S
C1031 C1033 1.419 . S
C1031 H1035 0.930 . S
C1032 C1031 1.369 . S
C1032 C1041 1.429 1_545 S
C1033 C1031 1.419 . S
C1033 C1034 1.363 1_545 S
C1033 H1036 0.929 . S
C1034 C1033 1.363 1_565 S
C1034 C1040 1.428 . S
H1035 C1031 0.930 . S
H1036 C1033 0.929 . S
S1037 N1038 1.613 . S
S1037 N1039 1.610 . S
N1038 S1037 1.613 . S
N1038 C1041 1.350 . S
N1039 S1037 1.610 . S
N1039 C1040 1.351 . S
C1040 C1034 1.428 . S
C1040 N1039 1.351 . S
C1040 C1041 1.434 . S
C1041 C1032 1.429 1_565 S
C1041 N1038 1.350 . S
C1041 C1040 1.434 . S
C1042 C1043 1.369 . S
C1042 C1044 1.419 . S
C1042 H1046 0.930 . S
C1043 C1042 1.369 . S
C1043 C1052 1.429 . S
C1044 C1042 1.419 . S
C1044 C1045 1.363 . S
C1044 H1047 0.929 . S
C1045 C1044 1.363 . S
C1045 C1051 1.428 . S
H1046 C1042 0.930 . S
H1047 C1044 0.929 . S
S1048 N1049 1.613 . S
S1048 N1050 1.610 . S
N1049 S1048 1.613 . S
N1049 C1052 1.350 . S
N1050 S1048 1.610 . S
N1050 C1051 1.351 . S
C1051 C1045 1.428 . S
C1051 N1050 1.351 . S
C1051 C1052 1.434 . S
C1052 C1043 1.429 . S
C1052 N1049 1.350 . S
C1052 C1051 1.434 . S
C1053 C1054 1.369 . S
C1053 C1055 1.419 1_565 S
C1053 H1057 0.930 . S
C1054 C1053 1.369 . S
C1054 C1063 1.429 1_565 S
C1055 C1053 1.419 1_545 S
C1055 C1056 1.363 . S
C1055 H1058 0.929 . S
C1056 C1055 1.363 . S
C1056 C1062 1.428 . S
H1057 C1053 0.930 . S
H1058 C1055 0.929 . S
S1059 N1060 1.613 . S
S1059 N1061 1.610 . S
N1060 S1059 1.613 . S
N1060 C1063 1.350 . S
N1061 S1059 1.610 . S
N1061 C1062 1.351 . S
C1062 C1056 1.428 . S
C1062 N1061 1.351 . S
C1062 C1063 1.434 . S
C1063 C1054 1.429 1_545 S
C1063 N1060 1.350 . S
C1063 C1062 1.434 . S
C1064 C1065 1.369 . S
C1064 C1066 1.419 . S
C1064 H1068 0.930 . S
C1065 C1064 1.369 . S
C1065 C1074 1.429 . S
C1066 C1064 1.419 . S
C1066 C1067 1.363 . S
C1066 H1069 0.929 . S
C1067 C1066 1.363 . S
C1067 C1073 1.428 . S
H1068 C1064 0.930 . S
H1069 C1066 0.929 . S
S1070 N1071 1.613 . S
S1070 N1072 1.610 . S
N1071 S1070 1.613 . S
N1071 C1074 1.350 . S
N1072 S1070 1.610 . S
N1072 C1073 1.351 . S
C1073 C1067 1.428 . S
C1073 N1072 1.351 . S
C1073 C1074 1.434 . S
C1074 C1065 1.429 . S
C1074 N1071 1.350 . S
C1074 C1073 1.434 . S
C1075 C1076 1.369 . S
C1075 C1077 1.419 . S
C1075 H1079 0.930 . S
C1076 C1075 1.369 . S
C1076 C1085 1.429 . S
C1077 C1075 1.419 . S
C1077 C1078 1.363 . S
C1077 H1080 0.929 . S
C1078 C1077 1.363 . S
C1078 C1084 1.428 . S
H1079 C1075 0.930 . S
H1080 C1077 0.929 . S
S1081 N1082 1.613 . S
S1081 N1083 1.610 . S
N1082 S1081 1.613 . S
N1082 C1085 1.350 . S
N1083 S1081 1.610 . S
N1083 C1084 1.351 . S
C1084 C1078 1.428 . S
C1084 N1083 1.351 . S
C1084 C1085 1.434 . S
C1085 C1076 1.429 . S
C1085 N1082 1.350 . S
C1085 C1084 1.434 . S
C1086 C1087 1.369 . S
C1086 C1088 1.419 . S
C1086 H1090 0.930 . S
C1087 C1086 1.369 . S
C1087 C1096 1.429 . S
C1088 C1086 1.419 . S
C1088 C1089 1.363 . S
C1088 H1091 0.929 . S
C1089 C1088 1.363 . S
C1089 C1095 1.428 . S
H1090 C1086 0.930 . S
H1091 C1088 0.929 . S
S1092 N1093 1.613 . S
S1092 N1094 1.610 . S
N1093 S1092 1.613 . S
N1093 C1096 1.350 . S
N1094 S1092 1.610 . S
N1094 C1095 1.351 . S
C1095 C1089 1.428 . S
C1095 N1094 1.351 . S
C1095 C1096 1.434 . S
C1096 C1087 1.429 . S
C1096 N1093 1.350 . S
C1096 C1095 1.434 . S
C1097 C1098 1.369 . S
C1097 C1099 1.419 . S
C1097 H1101 0.930 . S
C1098 C1097 1.369 . S
C1098 C1107 1.429 . S
C1099 C1097 1.419 . S
C1099 C1100 1.363 . S
C1099 H1102 0.929 . S
C1100 C1099 1.363 . S
C1100 C1106 1.428 . S
H1101 C1097 0.930 . S
H1102 C1099 0.929 . S
S1103 N1104 1.613 . S
S1103 N1105 1.610 . S
N1104 S1103 1.613 . S
N1104 C1107 1.350 . S
N1105 S1103 1.610 . S
N1105 C1106 1.351 . S
C1106 C1100 1.428 . S
C1106 N1105 1.351 . S
C1106 C1107 1.434 . S
C1107 C1098 1.429 . S
C1107 N1104 1.350 . S
C1107 C1106 1.434 . S
C1108 C1109 1.369 . S
C1108 C1110 1.419 . S
C1108 H1112 0.930 . S
C1109 C1108 1.369 . S
C1109 C1118 1.429 . S
C1110 C1108 1.419 . S
C1110 C1111 1.363 . S
C1110 H1113 0.929 . S
C1111 C1110 1.363 . S
C1111 C1117 1.428 . S
H1112 C1108 0.930 . S
H1113 C1110 0.929 . S
S1114 N1115 1.613 . S
S1114 N1116 1.610 . S
N1115 S1114 1.613 . S
N1115 C1118 1.350 . S
N1116 S1114 1.610 . S
N1116 C1117 1.351 . S
C1117 C1111 1.428 . S
C1117 N1116 1.351 . S
C1117 C1118 1.434 . S
C1118 C1109 1.429 . S
C1118 N1115 1.350 . S
C1118 C1117 1.434 . S
C1119 C1120 1.369 . S
C1119 C1121 1.419 . S
C1119 H1123 0.930 . S
C1120 C1119 1.369 . S
C1120 C1129 1.429 . S
C1121 C1119 1.419 . S
C1121 C1122 1.363 . S
C1121 H1124 0.929 . S
C1122 C1121 1.363 . S
C1122 C1128 1.428 . S
H1123 C1119 0.930 . S
H1124 C1121 0.929 . S
S1125 N1126 1.613 . S
S1125 N1127 1.610 . S
N1126 S1125 1.613 . S
N1126 C1129 1.350 . S
N1127 S1125 1.610 . S
N1127 C1128 1.351 . S
C1128 C1122 1.428 . S
C1128 N1127 1.351 . S
C1128 C1129 1.434 . S
C1129 C1120 1.429 . S
C1129 N1126 1.350 . S
C1129 C1128 1.434 . S
C1130 C1131 1.369 . S
C1130 C1132 1.419 . S
C1130 H1134 0.930 . S
C1131 C1130 1.369 . S
C1131 C1140 1.429 . S
C1132 C1130 1.419 . S
C1132 C1133 1.363 . S
C1132 H1135 0.929 . S
C1133 C1132 1.363 . S
C1133 C1139 1.428 . S
H1134 C1130 0.930 . S
H1135 C1132 0.929 . S
S1136 N1137 1.613 . S
S1136 N1138 1.610 . S
N1137 S1136 1.613 . S
N1137 C1140 1.350 . S
N1138 S1136 1.610 . S
N1138 C1139 1.351 . S
C1139 C1133 1.428 . S
C1139 N1138 1.351 . S
C1139 C1140 1.434 . S
C1140 C1131 1.429 . S
C1140 N1137 1.350 . S
C1140 C1139 1.434 . S
C1141 C1142 1.369 . S
C1141 C1143 1.419 . S
C1141 H1145 0.930 . S
C1142 C1141 1.369 . S
C1142 C1151 1.429 . S
C1143 C1141 1.419 . S
C1143 C1144 1.363 . S
C1143 H1146 0.929 . S
C1144 C1143 1.363 . S
C1144 C1150 1.428 . S
H1145 C1141 0.930 . S
H1146 C1143 0.929 . S
S1147 N1148 1.613 . S
S1147 N1149 1.610 . S
N1148 S1147 1.613 . S
N1148 C1151 1.350 . S
N1149 S1147 1.610 . S
N1149 C1150 1.351 . S
C1150 C1144 1.428 . S
C1150 N1149 1.351 . S
C1150 C1151 1.434 . S
C1151 C1142 1.429 . S
C1151 N1148 1.350 . S
C1151 C1150 1.434 . S
C449 C104 1.497 . S
C451 C6 1.492 . S
C460 C20 1.492 . S
C462 C62 1.498 . S
C471 C76 1.492 . S
C473 C34 1.494 . S
C482 C48 1.496 . S
C484 C90 1.492 . S
C493 C118 1.494 . S
C495 C216 1.492 . S
C504 C132 1.491 . S
C506 C174 1.496 . S
C515 C146 1.498 . S
C517 C188 1.493 . S
C526 C160 1.492 . S
C528 C202 1.498 . S
C537 C230 1.491 . S
C539 C328 1.495 . S
C548 C244 1.495 . S
C550 C286 1.499 . S
C559 C300 1.494 . S
C561 C258 1.499 . S
C570 C314 1.497 . S
C572 C272 1.492 . S
C581 C342 1.491 . S
C583 C440 1.495 . S
C592 C398 1.492 . S
C594 C356 1.494 . S
C603 C412 1.500 . S
C605 C370 1.495 . S
C614 C384 1.493 . S
C616 C426 1.499 . S
C625 C8 1.127 . S
C627 C92 1.126 . S
C636 C22 1.131 . S
C638 C106 1.123 . S
C647 C64 1.124 . S
C649 C36 1.129 . S
C658 C50 1.127 . S
C660 C78 1.126 . S
C669 C120 1.125 . S
C671 C204 1.128 . S
C680 C134 1.127 . S
C682 C218 1.125 . S
C691 C176 1.121 . S
C693 C148 1.131 . S
C702 C190 1.132 . S
C704 C162 1.123 . S
C713 C232 1.125 . S
C715 C316 1.128 . S
C724 C330 1.131 . S
C726 C246 1.123 . S
C735 C288 1.123 . S
C737 C260 1.130 . S
C746 C274 1.123 . S
C748 C302 1.130 . S
C757 C344 1.132 . S
C759 C428 1.123 . S
C768 C358 1.132 . S
C770 C442 1.123 . S
C779 C400 1.124 . S
C781 C372 1.129 . S
C790 C414 1.128 . S
C792 C386 1.127 . S
C801 C9 1.537 . S
C803 C429 1.538 . S
C812 C23 1.540 . S
C814 C219 1.540 . S
C823 C37 1.543 . S
C825 C401 1.542 . S
C834 C51 1.541 . S
C836 C191 1.541 . S
C845 C65 1.540 . S
C847 C373 1.540 . S
C856 C79 1.542 . S
C858 C163 1.542 . S
C867 C93 1.542 . S
C869 C345 1.541 . S
C878 C135 1.543 . S
C880 C107 1.542 . S
C889 C317 1.538 . S
C891 C121 1.538 . S
C900 C149 1.540 . S
C902 C289 1.540 . S
C911 C261 1.538 . S
C913 C177 1.538 . S
C922 C233 1.542 . S
C924 C205 1.542 . S
C933 C247 1.537 . S
C935 C443 1.538 . S
C944 C275 1.538 . S
C946 C415 1.539 . S
C955 C303 1.539 . S
C957 C387 1.539 . S
C966 C359 1.543 . S
C968 C331 1.542 . S
C977 C7 1.514 . S
C979 C91 1.514 . S
C988 C21 1.516 . S
C990 C105 1.511 . S
C999 C63 1.516 . S
C1001 C35 1.510 . S
C1010 C49 1.516 1_554 S
C1012 C77 1.511 . S
C1021 C119 1.513 . S
C1023 C203 1.511 . S
C1032 C133 1.510 . S
C1034 C217 1.515 . S
C1043 C175 1.509 . S
C1045 C147 1.515 . S
C1054 C161 1.511 . S
C1056 C189 1.512 1_554 S
C1065 C315 1.512 . S
C1067 C231 1.511 . S
C1076 C329 1.516 . S
C1078 C245 1.510 1_554 S
C1087 C287 1.514 . S
C1089 C259 1.510 . S
C1098 C301 1.514 . S
C1100 C273 1.510 . S
C1109 C427 1.511 . S
C1111 C343 1.511 . S
C1120 C441 1.511 1_554 S
C1122 C357 1.515 . S
C1131 C371 1.516 . S
C1133 C399 1.511 . S
C1142 C413 1.510 . S
C1144 C385 1.515 . S
