# Generated by pormake.
# Topology wlu, (5)-cn, num edge types: 1
# Building blocks:
#     Node 0, Type 0, BuildingBlock: XOMCOT_clean_sbu_1, # of connection points: 5
#     Node 1, Type 0, BuildingBlock: XOMCOT_clean_sbu_1, # of connection points: 5
#     Node 2, Type 0, BuildingBlock: XOMCOT_clean_sbu_1, # of connection points: 5
#     Node 3, Type 0, BuildingBlock: XOMCOT_clean_sbu_1, # of connection points: 5
#     Node 4, Type 0, BuildingBlock: XOMCOT_clean_sbu_1, # of connection points: 5
#     Node 5, Type 0, BuildingBlock: XOMCOT_clean_sbu_1, # of connection points: 5
#     Node 6, Type 0, BuildingBlock: XOMCOT_clean_sbu_1, # of connection points: 5
#     Node 7, Type 0, BuildingBlock: XOMCOT_clean_sbu_1, # of connection points: 5
#     Node 8, Type 0, BuildingBlock: XOMCOT_clean_sbu_1, # of connection points: 5
#     Node 9, Type 0, BuildingBlock: XOMCOT_clean_sbu_1, # of connection points: 5
#     Node 10, Type 0, BuildingBlock: XOMCOT_clean_sbu_1, # of connection points: 5
#     Node 11, Type 0, BuildingBlock: XOMCOT_clean_sbu_1, # of connection points: 5
#     Node 12, Type 0, BuildingBlock: XOMCOT_clean_sbu_1, # of connection points: 5
#     Node 13, Type 0, BuildingBlock: XOMCOT_clean_sbu_1, # of connection points: 5
#     Node 14, Type 0, BuildingBlock: XOMCOT_clean_sbu_1, # of connection points: 5
#     Node 15, Type 0, BuildingBlock: XOMCOT_clean_sbu_1, # of connection points: 5
#     Node 16, Type 0, BuildingBlock: XOMCOT_clean_sbu_1, # of connection points: 5
#     Node 17, Type 0, BuildingBlock: XOMCOT_clean_sbu_1, # of connection points: 5
#     Node 18, Type 0, BuildingBlock: XOMCOT_clean_sbu_1, # of connection points: 5
#     Node 19, Type 0, BuildingBlock: XOMCOT_clean_sbu_1, # of connection points: 5
#     Node 20, Type 0, BuildingBlock: XOMCOT_clean_sbu_1, # of connection points: 5
#     Node 21, Type 0, BuildingBlock: XOMCOT_clean_sbu_1, # of connection points: 5
#     Node 22, Type 0, BuildingBlock: XOMCOT_clean_sbu_1, # of connection points: 5
#     Node 23, Type 0, BuildingBlock: XOMCOT_clean_sbu_1, # of connection points: 5
#     Node 24, Type 0, BuildingBlock: XOMCOT_clean_sbu_1, # of connection points: 5
#     Node 25, Type 0, BuildingBlock: XOMCOT_clean_sbu_1, # of connection points: 5
#     Node 26, Type 0, BuildingBlock: XOMCOT_clean_sbu_1, # of connection points: 5
#     Node 27, Type 0, BuildingBlock: XOMCOT_clean_sbu_1, # of connection points: 5
#     Node 28, Type 0, BuildingBlock: XOMCOT_clean_sbu_1, # of connection points: 5
#     Node 29, Type 0, BuildingBlock: XOMCOT_clean_sbu_1, # of connection points: 5
#     Node 30, Type 0, BuildingBlock: XOMCOT_clean_sbu_1, # of connection points: 5
#     Node 31, Type 0, BuildingBlock: XOMCOT_clean_sbu_1, # of connection points: 5
#     Node 32, Type 0, BuildingBlock: XOMCOT_clean_sbu_1, # of connection points: 5
#     Node 33, Type 0, BuildingBlock: XOMCOT_clean_sbu_1, # of connection points: 5
#     Node 34, Type 0, BuildingBlock: XOMCOT_clean_sbu_1, # of connection points: 5
#     Node 35, Type 0, BuildingBlock: XOMCOT_clean_sbu_1, # of connection points: 5
#     Edge 36, Type (0, 0), BuildingBlock: TEMPAE_clean_linker_10, # of connection points: 2
#     Edge 37, Type (0, 0), BuildingBlock: TEMPAE_clean_linker_10, # of connection points: 2
#     Edge 38, Type (0, 0), BuildingBlock: TEMPAE_clean_linker_10, # of connection points: 2
#     Edge 39, Type (0, 0), BuildingBlock: TEMPAE_clean_linker_10, # of connection points: 2
#     Edge 40, Type (0, 0), BuildingBlock: TEMPAE_clean_linker_10, # of connection points: 2
#     Edge 41, Type (0, 0), BuildingBlock: TEMPAE_clean_linker_10, # of connection points: 2
#     Edge 42, Type (0, 0), BuildingBlock: TEMPAE_clean_linker_10, # of connection points: 2
#     Edge 43, Type (0, 0), BuildingBlock: TEMPAE_clean_linker_10, # of connection points: 2
#     Edge 44, Type (0, 0), BuildingBlock: TEMPAE_clean_linker_10, # of connection points: 2
#     Edge 45, Type (0, 0), BuildingBlock: TEMPAE_clean_linker_10, # of connection points: 2
#     Edge 46, Type (0, 0), BuildingBlock: TEMPAE_clean_linker_10, # of connection points: 2
#     Edge 47, Type (0, 0), BuildingBlock: TEMPAE_clean_linker_10, # of connection points: 2
#     Edge 48, Type (0, 0), BuildingBlock: TEMPAE_clean_linker_10, # of connection points: 2
#     Edge 49, Type (0, 0), BuildingBlock: TEMPAE_clean_linker_10, # of connection points: 2
#     Edge 50, Type (0, 0), BuildingBlock: TEMPAE_clean_linker_10, # of connection points: 2
#     Edge 51, Type (0, 0), BuildingBlock: TEMPAE_clean_linker_10, # of connection points: 2
#     Edge 52, Type (0, 0), BuildingBlock: TEMPAE_clean_linker_10, # of connection points: 2
#     Edge 53, Type (0, 0), BuildingBlock: TEMPAE_clean_linker_10, # of connection points: 2
#     Edge 54, Type (0, 0), BuildingBlock: TEMPAE_clean_linker_10, # of connection points: 2
#     Edge 55, Type (0, 0), BuildingBlock: TEMPAE_clean_linker_10, # of connection points: 2
#     Edge 56, Type (0, 0), BuildingBlock: TEMPAE_clean_linker_10, # of connection points: 2
#     Edge 57, Type (0, 0), BuildingBlock: TEMPAE_clean_linker_10, # of connection points: 2
#     Edge 58, Type (0, 0), BuildingBlock: TEMPAE_clean_linker_10, # of connection points: 2
#     Edge 59, Type (0, 0), BuildingBlock: TEMPAE_clean_linker_10, # of connection points: 2
#     Edge 60, Type (0, 0), BuildingBlock: TEMPAE_clean_linker_10, # of connection points: 2
#     Edge 61, Type (0, 0), BuildingBlock: TEMPAE_clean_linker_10, # of connection points: 2
#     Edge 62, Type (0, 0), BuildingBlock: TEMPAE_clean_linker_10, # of connection points: 2
#     Edge 63, Type (0, 0), BuildingBlock: TEMPAE_clean_linker_10, # of connection points: 2
#     Edge 64, Type (0, 0), BuildingBlock: TEMPAE_clean_linker_10, # of connection points: 2
#     Edge 65, Type (0, 0), BuildingBlock: TEMPAE_clean_linker_10, # of connection points: 2
#     Edge 66, Type (0, 0), BuildingBlock: TEMPAE_clean_linker_10, # of connection points: 2
#     Edge 67, Type (0, 0), BuildingBlock: TEMPAE_clean_linker_10, # of connection points: 2
#     Edge 68, Type (0, 0), BuildingBlock: TEMPAE_clean_linker_10, # of connection points: 2
#     Edge 69, Type (0, 0), BuildingBlock: TEMPAE_clean_linker_10, # of connection points: 2
#     Edge 70, Type (0, 0), BuildingBlock: TEMPAE_clean_linker_10, # of connection points: 2
#     Edge 71, Type (0, 0), BuildingBlock: TEMPAE_clean_linker_10, # of connection points: 2
#     Edge 72, Type (0, 0), BuildingBlock: TEMPAE_clean_linker_10, # of connection points: 2
#     Edge 73, Type (0, 0), BuildingBlock: TEMPAE_clean_linker_10, # of connection points: 2
#     Edge 74, Type (0, 0), BuildingBlock: TEMPAE_clean_linker_10, # of connection points: 2
#     Edge 75, Type (0, 0), BuildingBlock: TEMPAE_clean_linker_10, # of connection points: 2
#     Edge 76, Type (0, 0), BuildingBlock: TEMPAE_clean_linker_10, # of connection points: 2
#     Edge 77, Type (0, 0), BuildingBlock: TEMPAE_clean_linker_10, # of connection points: 2
#     Edge 78, Type (0, 0), BuildingBlock: TEMPAE_clean_linker_10, # of connection points: 2
#     Edge 79, Type (0, 0), BuildingBlock: TEMPAE_clean_linker_10, # of connection points: 2
#     Edge 80, Type (0, 0), BuildingBlock: TEMPAE_clean_linker_10, # of connection points: 2
#     Edge 81, Type (0, 0), BuildingBlock: TEMPAE_clean_linker_10, # of connection points: 2
#     Edge 82, Type (0, 0), BuildingBlock: TEMPAE_clean_linker_10, # of connection points: 2
#     Edge 83, Type (0, 0), BuildingBlock: TEMPAE_clean_linker_10, # of connection points: 2
#     Edge 84, Type (0, 0), BuildingBlock: TEMPAE_clean_linker_10, # of connection points: 2
#     Edge 85, Type (0, 0), BuildingBlock: TEMPAE_clean_linker_10, # of connection points: 2
#     Edge 86, Type (0, 0), BuildingBlock: TEMPAE_clean_linker_10, # of connection points: 2
#     Edge 87, Type (0, 0), BuildingBlock: TEMPAE_clean_linker_10, # of connection points: 2
#     Edge 88, Type (0, 0), BuildingBlock: TEMPAE_clean_linker_10, # of connection points: 2
#     Edge 89, Type (0, 0), BuildingBlock: TEMPAE_clean_linker_10, # of connection points: 2
#     Edge 90, Type (0, 0), BuildingBlock: TEMPAE_clean_linker_10, # of connection points: 2
#     Edge 91, Type (0, 0), BuildingBlock: TEMPAE_clean_linker_10, # of connection points: 2
#     Edge 92, Type (0, 0), BuildingBlock: TEMPAE_clean_linker_10, # of connection points: 2
#     Edge 93, Type (0, 0), BuildingBlock: TEMPAE_clean_linker_10, # of connection points: 2
#     Edge 94, Type (0, 0), BuildingBlock: TEMPAE_clean_linker_10, # of connection points: 2
#     Edge 95, Type (0, 0), BuildingBlock: TEMPAE_clean_linker_10, # of connection points: 2
#     Edge 96, Type (0, 0), BuildingBlock: TEMPAE_clean_linker_10, # of connection points: 2
#     Edge 97, Type (0, 0), BuildingBlock: TEMPAE_clean_linker_10, # of connection points: 2
#     Edge 98, Type (0, 0), BuildingBlock: TEMPAE_clean_linker_10, # of connection points: 2
#     Edge 99, Type (0, 0), BuildingBlock: TEMPAE_clean_linker_10, # of connection points: 2
#     Edge 100, Type (0, 0), BuildingBlock: TEMPAE_clean_linker_10, # of connection points: 2
#     Edge 101, Type (0, 0), BuildingBlock: TEMPAE_clean_linker_10, # of connection points: 2
#     Edge 102, Type (0, 0), BuildingBlock: TEMPAE_clean_linker_10, # of connection points: 2
#     Edge 103, Type (0, 0), BuildingBlock: TEMPAE_clean_linker_10, # of connection points: 2
#     Edge 104, Type (0, 0), BuildingBlock: TEMPAE_clean_linker_10, # of connection points: 2
#     Edge 105, Type (0, 0), BuildingBlock: TEMPAE_clean_linker_10, # of connection points: 2
#     Edge 106, Type (0, 0), BuildingBlock: TEMPAE_clean_linker_10, # of connection points: 2
#     Edge 107, Type (0, 0), BuildingBlock: TEMPAE_clean_linker_10, # of connection points: 2
#     Edge 108, Type (0, 0), BuildingBlock: TEMPAE_clean_linker_10, # of connection points: 2
#     Edge 109, Type (0, 0), BuildingBlock: TEMPAE_clean_linker_10, # of connection points: 2
#     Edge 110, Type (0, 0), BuildingBlock: TEMPAE_clean_linker_10, # of connection points: 2
#     Edge 111, Type (0, 0), BuildingBlock: TEMPAE_clean_linker_10, # of connection points: 2
#     Edge 112, Type (0, 0), BuildingBlock: TEMPAE_clean_linker_10, # of connection points: 2
#     Edge 113, Type (0, 0), BuildingBlock: TEMPAE_clean_linker_10, # of connection points: 2
#     Edge 114, Type (0, 0), BuildingBlock: TEMPAE_clean_linker_10, # of connection points: 2
#     Edge 115, Type (0, 0), BuildingBlock: TEMPAE_clean_linker_10, # of connection points: 2
#     Edge 116, Type (0, 0), BuildingBlock: TEMPAE_clean_linker_10, # of connection points: 2
#     Edge 117, Type (0, 0), BuildingBlock: TEMPAE_clean_linker_10, # of connection points: 2
#     Edge 118, Type (0, 0), BuildingBlock: TEMPAE_clean_linker_10, # of connection points: 2
#     Edge 119, Type (0, 0), BuildingBlock: TEMPAE_clean_linker_10, # of connection points: 2
#     Edge 120, Type (0, 0), BuildingBlock: TEMPAE_clean_linker_10, # of connection points: 2
#     Edge 121, Type (0, 0), BuildingBlock: TEMPAE_clean_linker_10, # of connection points: 2
#     Edge 122, Type (0, 0), BuildingBlock: TEMPAE_clean_linker_10, # of connection points: 2
#     Edge 123, Type (0, 0), BuildingBlock: TEMPAE_clean_linker_10, # of connection points: 2
#     Edge 124, Type (0, 0), BuildingBlock: TEMPAE_clean_linker_10, # of connection points: 2
#     Edge 125, Type (0, 0), BuildingBlock: TEMPAE_clean_linker_10, # of connection points: 2
# Relax obj value: 0.195
# Max RMSD: 0.162
# Mean RMSD: 0.162
data_MOF--net-wlu--node1-XOMCOT_clean_sbu_1--edge1-TEMPAE_clean_linker_10
_symmetry_space_group_name_H-M    P1
_symmetry_Int_Tables_number       1
_symmetry_cell_setting            triclinic
loop_
_symmetry_equiv_pos_as_xyz
'x, y, z'
_cell_length_a     68.453243
_cell_length_b     68.450756
_cell_length_c     54.920538
_cell_angle_alpha  90.008785
_cell_angle_beta   89.993376
_cell_angle_gamma 120.00978
loop_
_atom_site_label
_atom_site_type_symbol
_atom_site_fract_x
_atom_site_fract_y
_atom_site_fract_z
_atom_type_partial_charge
C0 C 0.23429 0.1485 0.06143 0.0
C1 C 0.22054 0.12601 0.05615 0.0
N2 N 0.23322 0.11823 0.04586 0.0
N3 N 0.25549 0.15493 0.0543 0.0
C4 C 0.25438 0.13616 0.04501 0.0
H5 H 0.22928 0.1594 0.07035 0.0
Co6 Co 0.28031 0.18321 0.05931 0.0
C7 C 0.30759 0.19541 0.0148 0.0
O8 O 0.31014 0.21554 0.01831 0.0
N9 N 0.30604 0.21184 0.06563 0.0
C10 C 0.34215 0.23599 0.07419 0.0
C11 C 0.3268 0.2142 0.06803 0.0
C12 C 0.30938 0.23271 0.0705 0.0
N13 N 0.33115 0.24758 0.0757 0.0
O14 O 0.29242 0.17021 0.08144 0.0
H15 H 0.33061 0.20079 0.06542 0.0
H16 H 0.29639 0.2372 0.07084 0.0
O17 O 0.29599 0.17964 0.03024 0.0
C18 C 0.28698 0.17346 0.10268 0.0
O19 O 0.2741 0.1826 0.10439 0.0
N20 N 0.26639 0.19545 0.03986 0.0
C21 C 0.23954 0.20964 0.0165 0.0
C22 C 0.24657 0.19636 1.00413 0.0
C23 C 0.25977 0.18915 0.01626 0.0
C24 C 0.25819 0.20693 0.0525 0.0
C25 C 0.24541 0.21491 0.04098 0.0
H26 H 0.26368 0.17762 1.00698 0.0
H27 H 0.26084 0.20916 0.07194 0.0
H28 H 0.26888 0.13564 0.03797 0.0
H29 H 0.20273 0.11602 0.0603 0.0
H30 H 0.36006 0.24287 0.07709 0.0
H31 H 0.24147 0.1912 0.98547 0.0
H32 H 0.23924 0.22416 0.0514 0.0
C33 C 0.85109 0.09533 0.0676 0.0
C34 C 0.8741 0.10569 0.06499 0.0
N35 N 0.88091 0.12379 0.05036 0.0
N36 N 0.84335 0.10671 0.0546 0.0
C37 C 0.86183 0.12398 0.04434 0.0
H38 H 0.84068 0.08078 0.07883 0.0
Co39 Co 0.81375 0.10022 0.05499 0.0
C40 C 0.80316 0.11028 1.00643 0.0
O41 O 0.78451 0.09069 0.00856 0.0
N42 N 0.78361 0.0942 0.05651 0.0
C43 C 0.75576 0.10213 0.05641 0.0
C44 C 0.77842 0.11067 0.05314 0.0
C45 C 0.76371 0.07589 0.0627 0.0
N46 N 0.74656 0.08027 0.06244 0.0
O47 O 0.82235 0.12637 0.07482 0.0
H48 H 0.7905 0.12801 0.04872 0.0
H49 H 0.76158 0.05969 0.06762 0.0
O50 O 0.81784 0.11712 0.0237 0.0
C51 C 0.81743 0.11877 0.09655 0.0
O52 O 0.80937 0.09707 0.10008 0.0
N53 N 0.8057 0.07321 0.03834 0.0
C54 C 0.79607 0.03126 0.02033 0.0
C55 C 0.80778 0.05069 1.00601 0.0
C56 C 0.81314 0.07167 0.0157 0.0
C57 C 0.79564 0.05466 0.05295 0.0
C58 C 0.79029 0.03345 0.04421 0.0
H59 H 0.82378 0.08662 1.00519 0.0
H60 H 0.7924 0.05647 0.07184 0.0
H61 H 0.86126 0.13659 0.03298 0.0
H62 H 0.88498 0.10069 0.07396 0.0
H63 H 0.74683 0.11144 0.05524 0.0
H64 H 0.81348 0.04975 0.98787 0.0
H65 H 0.7819 0.01893 0.05611 0.0
C66 C 0.90175 0.74749 0.05946 0.0
C67 C 0.89202 0.76031 0.05384 0.0
N68 N 0.87121 0.74653 0.04483 0.0
N69 N 0.8872 0.72578 0.05382 0.0
C70 C 0.86874 0.72569 0.04515 0.0
H71 H 0.9183 0.75355 0.06727 0.0
Co72 Co 0.89092 0.70111 0.05858 0.0
C73 C 0.87485 0.67404 0.0135 0.0
O74 O 0.89152 0.66994 0.0164 0.0
N75 N 0.89398 0.6755 0.0643 0.0
C76 C 0.88287 0.63931 0.07106 0.0
C77 C 0.87592 0.65444 0.06568 0.0
C78 C 0.91175 0.67264 0.06939 0.0
N79 N 0.90545 0.65079 0.0734 0.0
O80 O 0.86557 0.68857 0.08058 0.0
H81 H 0.85863 0.65029 0.0628 0.0
H82 H 0.92895 0.68614 0.07091 0.0
O83 O 0.8719 0.68616 0.02931 0.0
C84 C 0.87401 0.6952 0.1018 0.0
O85 O 0.89596 0.70861 0.10346 0.0
N86 N 0.91736 0.71545 0.0395 0.0
C87 C 0.95922 0.74464 0.01824 0.0
C88 C 0.93925 0.73591 1.00456 0.0
C89 C 0.91845 0.72169 0.01565 0.0
C90 C 0.93651 0.7245 0.05318 0.0
C91 C 0.95759 0.73851 0.04284 0.0
H92 H 0.9033 0.71698 1.00537 0.0
H93 H 0.93532 0.7216 0.07261 0.0
H94 H 0.85353 0.71048 0.0398 0.0
H95 H 0.89976 0.77839 0.05607 0.0
H96 H 0.87211 0.62125 0.07299 0.0
H97 H 0.93954 0.74096 0.98582 0.0
H98 H 0.97241 0.74495 0.05429 0.0
C99 C 0.14094 0.24732 0.45697 0.0
C100 C 0.11786 0.23773 0.45758 0.0
N101 N 0.11282 0.25305 0.46653 0.0
N102 N 0.15046 0.26853 0.46566 0.0
C103 C 0.13297 0.27162 0.47112 0.0
H104 H 0.15019 0.23925 0.45083 0.0
Co105 Co 0.18109 0.28881 0.46923 0.0
C106 C 0.18102 0.32198 0.50362 0.0
O107 O 0.19199 0.33802 0.48752 0.0
N108 N 0.21184 0.30902 0.47316 0.0
C109 C 0.24531 0.32919 0.49075 0.0
C110 C 0.22278 0.31495 0.49472 0.0
C111 C 0.22817 0.31962 0.45628 0.0
N112 N 0.24873 0.33216 0.46657 0.0
O113 O 0.17839 0.30913 0.44696 0.0
H114 H 0.21494 0.30892 0.5123 0.0
H115 H 0.22509 0.31805 0.43687 0.0
O116 O 0.17483 0.3016 0.49802 0.0
C117 C 0.17821 0.30158 0.4256 0.0
O118 O 0.18053 0.28371 0.42359 0.0
N119 N 0.18408 0.26791 0.48806 0.0
C120 C 0.19117 0.23487 0.50861 0.0
C121 C 0.18149 0.24513 0.52244 0.0
C122 C 0.17778 0.26157 0.51165 0.0
C123 C 0.19364 0.25823 0.47458 0.0
C124 C 0.19727 0.24164 0.48444 0.0
H125 H 0.16988 0.26906 0.52218 0.0
H126 H 0.19838 0.26345 0.4559 0.0
H127 H 0.13509 0.2873 0.47819 0.0
H128 H 0.10579 0.22059 0.45242 0.0
H129 H 0.25829 0.3362 0.5046 0.0
H130 H 0.1765 0.24019 0.54116 0.0
H131 H 0.20501 0.2343 0.47329 0.0
C132 C 0.76216 0.91477 0.43921 0.0
C133 C 0.77495 0.90505 0.44496 0.0
N134 N 0.76111 0.88424 0.45387 0.0
N135 N 0.74039 0.90018 0.4446 0.0
C136 C 0.74027 0.88175 0.45347 0.0
H137 H 0.76825 0.93115 0.43097 0.0
Co138 Co 0.71568 0.90344 0.43775 0.0
C139 C 0.68677 0.88802 0.48185 0.0
O140 O 0.68199 0.90403 0.47748 0.0
N141 N 0.69024 0.90612 0.42998 0.0
C142 C 0.65401 0.89485 0.42328 0.0
C143 C 0.66935 0.88793 0.42751 0.0
C144 C 0.68712 0.92396 0.42642 0.0
N145 N 0.66525 0.9175 0.42264 0.0
O146 O 0.70374 0.87721 0.41711 0.0
H147 H 0.66531 0.8706 0.42966 0.0
H148 H 0.70019 0.94141 0.42749 0.0
O149 O 0.70002 0.8854 0.46736 0.0
C150 C 0.71335 0.88318 0.39634 0.0
O151 O 0.72945 0.90423 0.39342 0.0
N152 N 0.72932 0.93059 0.45552 0.0
C153 C 0.75714 0.97346 0.47504 0.0
C154 C 0.74738 0.95437 0.49013 0.0
C155 C 0.73395 0.93297 0.47992 0.0
C156 C 0.73925 0.94894 0.44061 0.0
C157 C 0.75286 0.97053 0.44998 0.0
H158 H 0.72845 0.91844 0.49152 0.0
H159 H 0.73699 0.94666 0.42112 0.0
H160 H 0.72502 0.8664 0.45846 0.0
H161 H 0.79299 0.91262 0.44251 0.0
H162 H 0.63596 0.88413 0.42115 0.0
H163 H 0.75104 0.95584 0.50945 0.0
H164 H 0.76032 0.98477 0.43762 0.0
C165 C 0.098 0.84847 0.46086 0.0
C166 C 0.10838 0.87109 0.46629 0.0
N167 N 0.12934 0.8777 0.47454 0.0
N168 N 0.11229 0.84085 0.46588 0.0
C169 C 0.13123 0.859 0.47406 0.0
H170 H 0.08125 0.83832 0.4534 0.0
Co171 Co 0.10774 0.81221 0.46033 0.0
C172 C 0.12127 0.79908 0.50589 0.0
O173 O 0.10402 0.7788 0.50201 0.0
N174 N 0.10383 0.78344 0.4539 0.0
C175 C 0.11379 0.75735 0.44845 0.0
C176 C 0.12143 0.77966 0.45328 0.0
C177 C 0.08569 0.76313 0.4486 0.0
N178 N 0.09133 0.74703 0.44553 0.0
O179 O 0.13377 0.82477 0.4392 0.0
H180 H 0.13881 0.79235 0.45663 0.0
H181 H 0.06857 0.75977 0.44733 0.0
O182 O 0.12567 0.81475 0.49026 0.0
C183 C 0.12764 0.82785 0.41823 0.0
O184 O 0.10684 0.82376 0.41561 0.0
N185 N 0.08077 0.80036 0.4785 0.0
C186 C 0.0386 0.78732 0.49887 0.0
C187 C 0.05813 0.79759 0.51324 0.0
C188 C 0.07915 0.80461 0.50255 0.0
C189 C 0.06201 0.79129 0.46416 0.0
C190 C 0.04074 0.78423 0.47401 0.0
H191 H 0.09404 0.8145 0.51341 0.0
H192 H 0.06371 0.79028 0.44469 0.0
H193 H 0.14637 0.8586 0.47877 0.0
H194 H 0.10102 0.88178 0.4643 0.0
H195 H 0.12395 0.74933 0.447 0.0
H196 H 0.05728 0.80127 0.53228 0.0
H197 H 0.02615 0.77688 0.46212 0.0
C198 C 0.76218 0.85006 0.94314 0.0
C199 C 0.77418 0.87236 0.94996 0.0
N200 N 0.75954 0.87855 0.95833 0.0
N201 N 0.7401 0.84216 0.94744 0.0
C202 C 0.73898 0.85988 0.95647 0.0
H203 H 0.76909 0.84027 0.93544 0.0
Co204 Co 0.71641 0.81357 0.94095 0.0
C205 C 0.68715 0.79967 0.98451 0.0
O206 O 0.68409 0.77934 0.98098 0.0
N207 N 0.69188 0.78466 0.9335 0.0
C208 C 0.65661 0.7589 0.92374 0.0
C209 C 0.67081 0.78108 0.92955 0.0
C210 C 0.68989 0.76416 0.92994 0.0
N211 N 0.66865 0.7483 0.92405 0.0
O212 O 0.70383 0.82636 0.91912 0.0
H213 H 0.66593 0.7938 0.93119 0.0
H214 H 0.70351 0.76061 0.93149 0.0
O215 O 0.69965 0.81557 0.96967 0.0
C216 C 0.71022 0.82451 0.89781 0.0
O217 O 0.72421 0.81669 0.89585 0.0
N218 N 0.7308 0.8016 0.9599 0.0
C219 C 0.75997 0.78908 0.98104 0.0
C220 C 0.74946 0.79815 0.99534 0.0
C221 C 0.73537 0.8049 0.98429 0.0
C222 C 0.74148 0.79345 0.94577 0.0
C223 C 0.75579 0.78672 0.95597 0.0
H224 H 0.72928 0.81385 0.99518 0.0
H225 H 0.73934 0.79279 0.92622 0.0
H226 H 0.72326 0.85917 0.96098 0.0
H227 H 0.79231 0.88306 0.94894 0.0
H228 H 0.63868 0.75102 0.92021 0.0
H229 H 0.75302 0.80108 0.01463 0.0
H230 H 0.76386 0.78013 0.94422 0.0
C231 C 0.14091 0.89199 0.94044 0.0
C232 C 0.11776 0.87878 0.94074 0.0
N233 N 0.11208 0.86113 0.95577 0.0
N234 N 0.14982 0.88281 0.95527 0.0
C235 C 0.1319 0.864 0.96419 0.0
H236 H 0.15066 0.9073 0.93005 0.0
Co237 Co 0.18043 0.89347 0.9606 0.0
C238 C 0.17147 0.87749 0.01399 0.0
O239 O 0.17439 0.89669 0.02224 0.0
N240 N 0.21125 0.90358 0.96585 0.0
C241 C 0.24451 0.9177 0.98424 0.0
C242 C 0.22185 0.90895 0.98762 0.0
C243 C 0.22801 0.90928 0.94942 0.0
N244 N 0.24848 0.91817 0.9602 0.0
O245 O 0.17783 0.86889 0.94083 0.0
H246 H 0.214 0.90792 1.00492 0.0
H247 H 0.22543 0.90815 0.92993 0.0
O248 O 0.17369 0.87486 0.99117 0.0
C249 C 0.17854 0.87513 0.91871 0.0
O250 O 0.18256 0.89574 0.91462 0.0
N251 N 0.18321 0.91968 0.97637 0.0
C252 C 0.18875 0.96128 0.99146 0.0
C253 C 0.16935 0.94105 0.99788 0.0
C254 C 0.16657 0.92046 0.98947 0.0
C255 C 0.20139 0.93946 0.96878 0.0
C256 C 0.20476 0.96025 0.97656 0.0
H257 H 0.15103 0.90514 0.99367 0.0
H258 H 0.21324 0.93946 0.95585 0.0
H259 H 0.13341 0.85275 0.97685 0.0
H260 H 0.10613 0.88189 0.93043 0.0
H261 H 0.25717 0.92381 0.99844 0.0
H262 H 0.15617 0.94116 0.00868 0.0
H263 H 0.21977 0.97545 0.97067 0.0
C264 C 0.10577 0.26126 0.9366 0.0
C265 C 0.11739 0.24965 0.93671 0.0
N266 N 0.13123 0.25657 0.95612 0.0
N267 N 0.11254 0.27559 0.95568 0.0
C268 C 0.12799 0.27224 0.9673 0.0
H269 H 0.09328 0.25948 0.92338 0.0
Co270 Co 0.1028 0.29587 0.9625 0.0
C271 C 0.13544 0.32525 0.9999 0.0
O272 O 0.14117 0.34279 0.98577 0.0
N273 N 0.09257 0.31608 0.96943 0.0
C274 C 0.07825 0.33421 0.98962 0.0
C275 C 0.08746 0.3205 0.99178 0.0
C276 C 0.08595 0.32702 0.95398 0.0
N277 N 0.07723 0.33821 0.96581 0.0
O278 O 0.12693 0.31792 0.94252 0.0
H279 H 0.08942 0.31345 0.00861 0.0
H280 H 0.08698 0.32643 0.9344 0.0
O281 O 0.12099 0.3056 0.9923 0.0
C282 C 0.11996 0.31552 0.92053 0.0
O283 O 0.09884 0.30045 0.91591 0.0
N284 N 0.07822 0.27348 0.97917 0.0
C285 C 0.03758 0.23892 0.99737 0.0
C286 C 0.0578 0.24627 0.01034 0.0
C287 C 0.07812 0.26361 1.00079 0.0
C288 C 0.05885 0.26645 0.96634 0.0
C289 C 0.03835 0.24939 0.97517 0.0
H290 H 0.09365 0.26882 0.01058 0.0
H291 H 0.0594 0.2743 0.94906 0.0
H292 H 0.13712 0.28136 0.98337 0.0
H293 H 0.11568 0.23699 0.92372 0.0
H294 H 0.07183 0.33989 1.00438 0.0
H295 H 0.05798 0.23844 0.0274 0.0
H296 H 0.02319 0.24459 0.96472 0.0
C297 C 0.85892 0.76314 0.55692 0.0
C298 C 0.88189 0.77203 0.55787 0.0
N299 N 0.88635 0.75507 0.55532 0.0
N300 N 0.8488 0.74064 0.55339 0.0
C301 C 0.86596 0.73621 0.55327 0.0
H302 H 0.85044 0.77279 0.55826 0.0
Co303 Co 0.81798 0.71932 0.54969 0.0
C304 C 0.83901 0.7129 0.50412 0.0
O305 O 0.85454 0.73436 0.50357 0.0
N306 N 0.78755 0.69828 0.5463 0.0
C307 C 0.7541 0.67516 0.53 0.0
C308 C 0.77678 0.68791 0.52554 0.0
C309 C 0.77105 0.6916 0.56314 0.0
N310 N 0.75049 0.67756 0.55362 0.0
O311 O 0.82148 0.69977 0.57229 0.0
H312 H 0.78469 0.68996 0.50799 0.0
H313 H 0.77398 0.69753 0.58178 0.0
O314 O 0.82453 0.7055 0.52147 0.0
C315 C 0.82194 0.70726 0.59373 0.0
O316 O 0.81972 0.72516 0.59608 0.0
N317 N 0.81339 0.73921 0.53024 0.0
C318 C 0.80281 0.77028 0.51031 0.0
C319 C 0.80703 0.75626 0.49517 0.0
C320 C 0.81203 0.74057 0.50552 0.0
C321 C 0.80814 0.75187 0.54506 0.0
C322 C 0.80313 0.76769 0.53556 0.0
H323 H 0.814 0.72928 0.49351 0.0
H324 H 0.80802 0.74971 0.56458 0.0
H325 H 0.86348 0.71943 0.55083 0.0
H326 H 0.89433 0.78977 0.55916 0.0
H327 H 0.74124 0.66496 0.51681 0.0
H328 H 0.80644 0.75738 0.47554 0.0
H329 H 0.79919 0.77756 0.54794 0.0
C330 C 0.23742 0.09104 0.56492 0.0
C331 C 0.22399 0.10038 0.56102 0.0
N332 N 0.23729 0.1221 0.5544 0.0
N333 N 0.2591 0.1067 0.56053 0.0
C334 C 0.25849 0.12543 0.55413 0.0
H335 H 0.23175 0.07414 0.57141 0.0
Co336 Co 0.28448 0.10411 0.56654 0.0
C337 C 0.31181 0.11885 0.52147 0.0
O338 O 0.31694 0.10307 0.52585 0.0
N339 N 0.31047 0.10209 0.57356 0.0
C340 C 0.34697 0.11387 0.57928 0.0
C341 C 0.33141 0.12044 0.57455 0.0
C342 C 0.31382 0.0846 0.57859 0.0
N343 N 0.33583 0.09134 0.58181 0.0
O344 O 0.29679 0.13072 0.58634 0.0
H345 H 0.33525 0.13758 0.57128 0.0
H346 H 0.30075 0.06714 0.57935 0.0
O347 O 0.29888 0.12161 0.53631 0.0
C348 C 0.28735 0.12575 0.60721 0.0
O349 O 0.27059 0.10516 0.61092 0.0
N350 N 0.27076 0.07665 0.54947 0.0
C351 C 0.24278 0.03336 0.53126 0.0
C352 C 0.25176 0.0521 0.51569 0.0
C353 C 0.26528 0.07372 0.52528 0.0
C354 C 0.26166 0.0586 0.56483 0.0
C355 C 0.24796 0.0368 0.5561 0.0
H356 H 0.27008 0.08796 0.51342 0.0
H357 H 0.26441 0.06131 0.58423 0.0
H358 H 0.27347 0.1415 0.55061 0.0
H359 H 0.20587 0.09188 0.56328 0.0
H360 H 0.36506 0.12477 0.58072 0.0
H361 H 0.24735 0.05016 0.49655 0.0
H362 H 0.24101 0.02281 0.56879 0.0
C363 C 0.8991 0.1564 0.55415 0.0
C364 C 0.88906 0.13406 0.5475 0.0
N365 N 0.86821 0.12759 0.539 0.0
N366 N 0.88472 0.16404 0.5497 0.0
C367 C 0.86604 0.14611 0.5406 0.0
H368 H 0.9157 0.16632 0.56205 0.0
Co369 Co 0.88886 0.19243 0.55662 0.0
C370 C 0.87351 0.20591 0.51245 0.0
O371 O 0.88955 0.22675 0.51659 0.0
N372 N 0.89239 0.22093 0.56434 0.0
C373 C 0.88221 0.24647 0.57252 0.0
C374 C 0.87468 0.2244 0.56649 0.0
C375 C 0.91054 0.24125 0.56969 0.0
N376 N 0.90483 0.25712 0.57455 0.0
O377 O 0.86282 0.17887 0.5775 0.0
H378 H 0.85726 0.21168 0.56339 0.0
H379 H 0.92762 0.24447 0.57052 0.0
O380 O 0.87083 0.19026 0.52727 0.0
C381 C 0.86879 0.17491 0.5981 0.0
O382 O 0.88957 0.17891 0.60058 0.0
N383 N 0.91587 0.2053 0.53863 0.0
C384 C 0.95841 0.21862 0.51924 0.0
C385 C 0.93947 0.21031 0.50403 0.0
C386 C 0.91818 0.20314 0.51418 0.0
C387 C 0.93413 0.21297 0.55358 0.0
C388 C 0.95557 0.22002 0.54429 0.0
H389 H 0.90364 0.19466 0.5025 0.0
H390 H 0.93184 0.21275 0.57309 0.0
H391 H 0.85088 0.1465 0.53598 0.0
H392 H 0.89659 0.12347 0.5488 0.0
H393 H 0.87179 0.25409 0.57484 0.0
H394 H 0.94091 0.20816 0.48469 0.0
H395 H 0.96972 0.22595 0.55669 0.0
C396 C 0.91033 0.48214 0.39179 0.0
C397 C 0.89837 0.45935 0.38701 0.0
N398 N 0.91285 0.453 0.37855 0.0
N399 N 0.93219 0.49009 0.38618 0.0
C400 C 0.93322 0.472 0.37826 0.0
H401 H 0.9036 0.49218 0.39926 0.0
Co402 Co 0.9564 0.51889 0.39079 0.0
C403 C 0.98035 0.53177 0.34365 0.0
O404 O 0.98275 0.5518 0.34761 0.0
N405 N 0.98162 0.54778 0.39609 0.0
C406 C 0.01811 0.57355 0.39896 0.0
C407 C 0.00288 0.55127 0.39481 0.0
C408 C 0.9845 0.56831 0.40183 0.0
N409 N 0.00649 0.5842 0.40334 0.0
O410 O 0.97101 0.50661 0.41054 0.0
H411 H 0.00711 0.53838 0.3906 0.0
H412 H 0.97107 0.57199 0.40448 0.0
O413 O 0.97031 0.51623 0.35974 0.0
C414 C 0.96253 0.50322 0.43192 0.0
O415 O 0.94567 0.50687 0.43576 0.0
N416 N 0.94027 0.5305 0.37417 0.0
C417 C 0.91027 0.54366 0.35634 0.0
C418 C 0.91787 0.53217 0.34137 0.0
C419 C 0.93249 0.52533 0.35077 0.0
C420 C 0.93202 0.54047 0.38925 0.0
C421 C 0.91762 0.54779 0.38061 0.0
H422 H 0.93653 0.51488 0.33955 0.0
H423 H 0.9361 0.5421 0.40844 0.0
H424 H 0.94884 0.47268 0.37327 0.0
H425 H 0.88043 0.44837 0.38964 0.0
H426 H 0.03631 0.58133 0.39894 0.0
H427 H 0.91178 0.52757 0.32289 0.0
H428 H 0.912 0.55624 0.39305 0.0
C429 C 0.50555 0.41726 0.39587 0.0
C430 C 0.52804 0.42594 0.39061 0.0
N431 N 0.53584 0.44632 0.38011 0.0
N432 N 0.49913 0.43199 0.38857 0.0
C433 C 0.5179 0.44953 0.3791 0.0
H434 H 0.49478 0.40154 0.40518 0.0
Co435 Co 0.47125 0.4297 0.39383 0.0
C436 C 0.45952 0.44439 0.3482 0.0
O437 O 0.43861 0.42835 0.35203 0.0
N438 N 0.44327 0.42802 0.39994 0.0
C439 C 0.41894 0.44028 0.40544 0.0
C440 C 0.44105 0.44656 0.40119 0.0
C441 C 0.42213 0.41065 0.40398 0.0
N442 N 0.40705 0.41768 0.40713 0.0
O443 O 0.48551 0.45632 0.41377 0.0
H444 H 0.45467 0.46369 0.39868 0.0
H445 H 0.41752 0.39312 0.40418 0.0
O446 O 0.47493 0.44721 0.36347 0.0
C447 C 0.48787 0.4503 0.43507 0.0
O448 O 0.48196 0.42907 0.43866 0.0
N449 N 0.45765 0.40212 0.37695 0.0
C450 C 0.44306 0.35853 0.35997 0.0
C451 C 0.4527 0.37697 0.34396 0.0
C452 C 0.46045 0.39878 0.35294 0.0
C453 C 0.4487 0.38437 0.3927 0.0
C454 C 0.44096 0.36245 0.38459 0.0
H455 H 0.46981 0.41284 0.34084 0.0
H456 H 0.44831 0.38743 0.41198 0.0
H457 H 0.51843 0.46452 0.37201 0.0
H458 H 0.53802 0.4182 0.39509 0.0
H459 H 0.41219 0.45151 0.40742 0.0
H460 H 0.45538 0.37468 0.32498 0.0
H461 H 0.43392 0.34873 0.39762 0.0
C462 C 0.56402 0.08761 0.38885 0.0
C463 C 0.55188 0.09837 0.38483 0.0
N464 N 0.53102 0.08295 0.37723 0.0
N465 N 0.55097 0.06554 0.38354 0.0
C466 C 0.53099 0.0632 0.37662 0.0
H467 H 0.5811 0.09533 0.39566 0.0
Co468 Co 0.55768 0.04268 0.38786 0.0
C469 C 0.54567 0.01679 0.34219 0.0
O470 O 0.56434 0.01602 0.34502 0.0
N471 N 0.56369 0.01878 0.39303 0.0
C472 C 0.55576 0.98307 0.39622 0.0
C473 C 0.5469 0.99696 0.39328 0.0
C474 C 0.58267 0.0176 0.39666 0.0
N475 N 0.57822 0.9961 0.39831 0.0
O476 O 0.53172 0.02714 0.40831 0.0
H477 H 0.52922 0.9914 0.39064 0.0
H478 H 0.59954 0.0319 0.39735 0.0
O479 O 0.54048 0.02742 0.35779 0.0
C480 C 0.5395 0.03217 0.42992 0.0
O481 O 0.56114 0.04649 0.43282 0.0
N482 N 0.58463 0.05982 0.3705 0.0
C483 C 0.62705 0.09145 0.35282 0.0
C484 C 0.60829 0.08167 0.33724 0.0
C485 C 0.58701 0.06626 0.34661 0.0
C486 C 0.60258 0.06984 0.3859 0.0
C487 C 0.62397 0.08535 0.37743 0.0
H488 H 0.57249 0.06036 0.33488 0.0
H489 H 0.60013 0.06607 0.40515 0.0
H490 H 0.51644 0.04707 0.37218 0.0
H491 H 0.55801 0.11618 0.38745 0.0
H492 H 0.54648 0.96481 0.39661 0.0
H493 H 0.60989 0.08662 0.31828 0.0
H494 H 0.63793 0.09273 0.39014 0.0
C495 C 0.82368 0.58891 0.78547 0.0
C496 C 0.80083 0.57583 0.78933 0.0
N497 N 0.79333 0.58895 0.79913 0.0
N498 N 0.8306 0.6101 0.79305 0.0
C499 C 0.81178 0.60966 0.80113 0.0
H500 H 0.83448 0.58339 0.77734 0.0
Co501 Co 0.85923 0.63494 0.79044 0.0
C502 C 0.86911 0.65868 0.83769 0.0
O503 O 0.88979 0.66244 0.83506 0.0
N504 N 0.88818 0.66072 0.7869 0.0
C505 C 0.9139 0.69712 0.78299 0.0
C506 C 0.89162 0.68197 0.78746 0.0
C507 C 0.90875 0.66351 0.78165 0.0
N508 N 0.92467 0.68547 0.77933 0.0
O509 O 0.84726 0.64933 0.77002 0.0
H510 H 0.87862 0.68621 0.79092 0.0
H511 H 0.91211 0.64991 0.77869 0.0
O512 O 0.85439 0.6477 0.82111 0.0
C513 C 0.85114 0.64577 0.74817 0.0
O514 O 0.8611 0.63381 0.74479 0.0
N515 N 0.87061 0.61896 0.80766 0.0
C516 C 0.8822 0.58765 0.82476 0.0
C517 C 0.87194 0.59619 0.84026 0.0
C518 C 0.86571 0.61141 0.83117 0.0
C519 C 0.88011 0.61038 0.79236 0.0
C520 C 0.88639 0.59507 0.80058 0.0
H521 H 0.85581 0.61591 0.84268 0.0
H522 H 0.88185 0.61466 0.77323 0.0
H523 H 0.81156 0.62448 0.80756 0.0
H524 H 0.79061 0.55805 0.78523 0.0
H525 H 0.92155 0.7153 0.78247 0.0
H526 H 0.86762 0.59017 0.85881 0.0
H527 H 0.89389 0.58859 0.78788 0.0
C528 C 0.40859 0.2256 0.78253 0.0
C529 C 0.41864 0.21251 0.78232 0.0
N530 N 0.40742 0.19522 0.79795 0.0
N531 N 0.39115 0.21666 0.79826 0.0
C532 C 0.39082 0.19817 0.8073 0.0
H533 H 0.41355 0.24059 0.77177 0.0
Co534 Co 0.37182 0.22774 0.8043 0.0
C535 C 0.33968 0.19432 0.83897 0.0
O536 O 0.32334 0.18984 0.82347 0.0
N537 N 0.35258 0.23925 0.8104 0.0
C538 C 0.33367 0.25321 0.82966 0.0
C539 C 0.34708 0.24373 0.83251 0.0
C540 C 0.34262 0.24653 0.7944 0.0
N541 N 0.33091 0.25499 0.80566 0.0
O542 O 0.34997 0.20496 0.78322 0.0
H543 H 0.35283 0.24077 0.84971 0.0
H544 H 0.34401 0.24584 0.77488 0.0
O545 O 0.35998 0.20865 0.8332 0.0
C546 C 0.35386 0.21255 0.76147 0.0
O547 O 0.37055 0.23316 0.75764 0.0
N548 N 0.39419 0.25127 0.82218 0.0
C549 C 0.42869 0.29132 0.84134 0.0
C550 C 0.41726 0.27209 0.85613 0.0
C551 C 0.40005 0.25195 0.84606 0.0
C552 C 0.4051 0.26979 0.80772 0.0
C553 C 0.42244 0.28994 0.81687 0.0
H554 H 0.39144 0.23718 0.85747 0.0
H555 H 0.40008 0.26884 0.78889 0.0
H556 H 0.37874 0.18716 0.82068 0.0
H557 H 0.4329 0.2154 0.77122 0.0
H558 H 0.3271 0.25902 0.84413 0.0
H559 H 0.42172 0.27259 0.87514 0.0
H560 H 0.43063 0.30448 0.80496 0.0
C561 C 0.76497 0.18824 0.7755 0.0
C562 C 0.77774 0.21144 0.77592 0.0
N563 N 0.79528 0.2175 0.79124 0.0
N564 N 0.77428 0.17966 0.79059 0.0
C565 C 0.79275 0.19783 0.79974 0.0
H566 H 0.74993 0.17822 0.76478 0.0
Co567 Co 0.76446 0.14918 0.79579 0.0
C568 C 0.77946 0.1578 0.84909 0.0
O569 O 0.75946 0.15287 0.85696 0.0
N570 N 0.7553 0.1184 0.80082 0.0
C571 C 0.74382 0.08493 0.81801 0.0
C572 C 0.75086 0.10725 0.82224 0.0
C573 C 0.75065 0.1023 0.78383 0.0
N574 N 0.74363 0.08181 0.79381 0.0
O575 O 0.78948 0.15269 0.77656 0.0
H576 H 0.75171 0.11444 0.83991 0.0
H577 H 0.75196 0.10537 0.76445 0.0
O578 O 0.78287 0.15644 0.82632 0.0
C579 C 0.78275 0.14971 0.75445 0.0
O580 O 0.76196 0.14495 0.74998 0.0
N581 N 0.73772 0.14533 0.81128 0.0
C582 C 0.6954 0.13785 0.82645 0.0
C583 C 0.71517 0.15774 0.83291 0.0
C584 C 0.73612 0.16149 0.82445 0.0
C585 C 0.71836 0.12667 0.80365 0.0
C586 C 0.69725 0.12237 0.81144 0.0
H587 H 0.75108 0.17729 0.82884 0.0
H588 H 0.71895 0.11513 0.79072 0.0
H589 H 0.80407 0.19661 0.81255 0.0
H590 H 0.77447 0.22286 0.7654 0.0
H591 H 0.73837 0.07184 0.83168 0.0
H592 H 0.71441 0.17051 0.84385 0.0
H593 H 0.68241 0.10701 0.80552 0.0
C594 C 0.40377 0.17126 0.29875 0.0
C595 C 0.41594 0.19405 0.30331 0.0
N596 N 0.4016 0.20082 0.31117 0.0
N597 N 0.38188 0.16361 0.30394 0.0
C598 C 0.38107 0.18198 0.3114 0.0
H599 H 0.41043 0.16106 0.29158 0.0
Co600 Co 0.35755 0.13476 0.29894 0.0
C601 C 0.332 0.12209 0.3452 0.0
O602 O 0.32839 0.10156 0.3416 0.0
N603 N 0.33243 0.10586 0.29315 0.0
C604 C 0.29637 0.08 0.28704 0.0
C605 C 0.31103 0.10203 0.29313 0.0
C606 C 0.33023 0.08577 0.28662 0.0
N607 N 0.30847 0.06978 0.28293 0.0
O608 O 0.34319 0.14714 0.27932 0.0
H609 H 0.30633 0.11456 0.29736 0.0
H610 H 0.34413 0.08284 0.2838 0.0
O611 O 0.34345 0.13751 0.32947 0.0
C612 C 0.35181 0.15091 0.25802 0.0
O613 O 0.36901 0.14781 0.25411 0.0
N614 N 0.37335 0.12289 0.31557 0.0
C615 C 0.40507 0.11158 0.33193 0.0
C616 C 0.39543 0.12025 0.34811 0.0
C617 C 0.37997 0.12634 0.33944 0.0
C618 C 0.38286 0.11478 0.29967 0.0
C619 C 0.39842 0.10868 0.30748 0.0
H620 H 0.37459 0.1351 0.35163 0.0
H621 H 0.3792 0.11417 0.28044 0.0
H622 H 0.36551 0.18161 0.31594 0.0
H623 H 0.43394 0.20477 0.30085 0.0
H624 H 0.27821 0.07214 0.28579 0.0
H625 H 0.40078 0.12352 0.36696 0.0
H626 H 0.40572 0.1024 0.2943 0.0
C627 C 0.81493 0.23895 0.29291 0.0
C628 C 0.79226 0.22893 0.29792 0.0
N629 N 0.78493 0.20755 0.30518 0.0
N630 N 0.82194 0.22404 0.29723 0.0
C631 C 0.80332 0.20509 0.30465 0.0
H632 H 0.82541 0.2558 0.28587 0.0
Co633 Co 0.85015 0.2276 0.29069 0.0
C634 C 0.86352 0.21259 0.33514 0.0
O635 O 0.88448 0.22801 0.3304 0.0
N636 N 0.87846 0.23058 0.28312 0.0
C637 C 0.90317 0.21973 0.27305 0.0
C638 C 0.8813 0.21257 0.27964 0.0
C639 C 0.89912 0.24859 0.27859 0.0
N640 N 0.91432 0.24238 0.27245 0.0
O641 O 0.83632 0.20114 0.27065 0.0
H642 H 0.86829 0.19516 0.28204 0.0
H643 H 0.90321 0.26596 0.2794 0.0
O644 O 0.84778 0.2101 0.32055 0.0
C645 C 0.83248 0.20634 0.24958 0.0
O646 O 0.83594 0.22683 0.24611 0.0
N647 N 0.86336 0.25493 0.30793 0.0
C648 C 0.87665 0.29786 0.32603 0.0
C649 C 0.86828 0.27925 0.34175 0.0
C650 C 0.8612 0.25775 0.33225 0.0
C651 C 0.87125 0.27287 0.29249 0.0
C652 C 0.87832 0.29449 0.30115 0.0
H653 H 0.85273 0.24347 0.34427 0.0
H654 H 0.8712 0.27015 0.27308 0.0
H655 H 0.8031 0.18947 0.30845 0.0
H656 H 0.78196 0.23675 0.29605 0.0
H657 H 0.91044 0.20916 0.26943 0.0
H658 H 0.86598 0.28109 0.36096 0.0
H659 H 0.88445 0.30837 0.28836 0.0
C660 C 0.76281 0.57876 0.28079 0.0
C661 C 0.77567 0.56856 0.28274 0.0
N662 N 0.79324 0.58107 0.29767 0.0
N663 N 0.77216 0.59766 0.2944 0.0
C664 C 0.79069 0.5987 0.30437 0.0
H665 H 0.74765 0.57289 0.27004 0.0
Co666 Co 0.76153 0.61789 0.29688 0.0
C667 C 0.77385 0.62863 0.35055 0.0
O668 O 0.75309 0.61563 0.35803 0.0
N669 N 0.75122 0.63879 0.29895 0.0
C670 C 0.73489 0.65813 0.31149 0.0
C671 C 0.74202 0.64347 0.3183 0.0
C672 C 0.74958 0.65108 0.28058 0.0
N673 N 0.73966 0.66288 0.28779 0.0
O674 O 0.78698 0.63925 0.27785 0.0
H675 H 0.73919 0.6358 0.33595 0.0
H676 H 0.75446 0.65053 0.26198 0.0
O677 O 0.77874 0.63057 0.32779 0.0
C678 C 0.78288 0.63331 0.25551 0.0
O679 O 0.76337 0.61568 0.24983 0.0
N680 N 0.73501 0.59527 0.31236 0.0
C681 C 0.69328 0.55956 0.3274 0.0
C682 C 0.71347 0.56189 0.33661 0.0
C683 C 0.73419 0.57956 0.32839 0.0
C684 C 0.71548 0.59233 0.30228 0.0
C685 C 0.69455 0.57505 0.30994 0.0
H686 H 0.7496 0.58069 0.33501 0.0
H687 H 0.71599 0.60319 0.28773 0.0
H688 H 0.80195 0.61206 0.31648 0.0
H689 H 0.77239 0.55326 0.2735 0.0
H690 H 0.72625 0.66433 0.32289 0.0
H691 H 0.71327 0.54987 0.34957 0.0
H692 H 0.67947 0.57382 0.30207 0.0
C693 C 0.50563 0.08241 0.89711 0.0
C694 C 0.52804 0.09701 0.89224 0.0
N695 N 0.53673 0.08529 0.88161 0.0
N696 N 0.50012 0.06157 0.88941 0.0
C697 C 0.51941 0.06381 0.88017 0.0
H698 H 0.49417 0.08661 0.90612 0.0
Co699 Co 0.47208 0.03572 0.89312 0.0
C700 C 0.46265 0.0103 0.84726 0.0
O701 O 0.44161 0.00543 0.84985 0.0
N702 N 0.4438 0.00911 0.8978 0.0
C703 C 0.41952 0.9724 0.90289 0.0
C704 C 0.44166 0.98838 0.89902 0.0
C705 C 0.42249 0.00512 0.90127 0.0
N706 N 0.40745 0.98295 0.90424 0.0
O707 O 0.48542 0.0229 0.91352 0.0
H708 H 0.45539 0.98499 0.89683 0.0
H709 H 0.41785 0.01798 0.90208 0.0
O710 O 0.47732 0.02256 0.86331 0.0
C711 C 0.4881 0.03061 0.93515 0.0
O712 O 0.48347 0.04671 0.93973 0.0
N713 N 0.45929 0.04992 0.87513 0.0
C714 C 0.44557 0.07883 0.85554 0.0
C715 C 0.45738 0.07114 0.84126 0.0
C716 C 0.46448 0.05703 0.85153 0.0
C717 C 0.44853 0.05787 0.88941 0.0
C718 C 0.44097 0.07178 0.87988 0.0
H719 H 0.47531 0.05313 0.84086 0.0
H720 H 0.44653 0.05404 0.90866 0.0
H721 H 0.52073 0.0499 0.87263 0.0
H722 H 0.53734 0.11476 0.89683 0.0
H723 H 0.4128 0.95438 0.90432 0.0
H724 H 0.46219 0.07694 0.82272 0.0
H725 H 0.43213 0.07741 0.89172 0.0
C726 C 0.91149 0.43268 0.88496 0.0
C727 C 0.89998 0.44388 0.87979 0.0
N728 N 0.91506 0.46521 0.8732 0.0
N729 N 0.93371 0.4468 0.88142 0.0
C730 C 0.93537 0.46645 0.87434 0.0
H731 H 0.90417 0.41548 0.89132 0.0
Co732 Co 0.95746 0.44171 0.8877 0.0
C733 C 0.98462 0.45458 0.84273 0.0
O734 O 0.98634 0.43652 0.84638 0.0
N735 N 0.98222 0.43755 0.89472 0.0
C736 C 0.01832 0.44823 0.90141 0.0
C737 C 0.00343 0.4554 0.89586 0.0
C738 C 0.98478 0.41962 0.90008 0.0
N739 N 0.0066 0.4257 0.904 0.0
O740 O 0.97093 0.46785 0.90874 0.0
H741 H 0.00791 0.47273 0.8926 0.0
H742 H 0.97122 0.40238 0.90089 0.0
O743 O 0.97347 0.45945 0.85802 0.0
C744 C 0.96112 0.4624 0.92946 0.0
O745 O 0.9437 0.44201 0.93214 0.0
N746 N 0.94224 0.4146 0.8697 0.0
C747 C 0.91205 0.37224 0.85 0.0
C748 C 0.92109 0.39178 0.83555 0.0
C749 C 0.93582 0.41286 0.84584 0.0
C750 C 0.9329 0.39593 0.88415 0.0
C751 C 0.91837 0.3746 0.87461 0.0
H752 H 0.94094 0.42776 0.83493 0.0
H753 H 0.93608 0.39773 0.90353 0.0
H754 H 0.95134 0.48162 0.87105 0.0
H755 H 0.8819 0.43682 0.88094 0.0
H756 H 0.03635 0.45887 0.90376 0.0
H757 H 0.91597 0.39099 0.81675 0.0
H758 H 0.91175 0.36015 0.88665 0.0
C759 C 0.57754 0.48042 0.89362 0.0
C760 C 0.56721 0.45748 0.89045 0.0
N761 N 0.5457 0.44988 0.88354 0.0
N762 N 0.56274 0.48737 0.88844 0.0
C763 C 0.54348 0.46841 0.88239 0.0
H764 H 0.59453 0.49118 0.90016 0.0
Co765 Co 0.56717 0.51609 0.89347 0.0
C766 C 0.55111 0.52869 0.84951 0.0
O767 O 0.56789 0.54932 0.85286 0.0
N768 N 0.57121 0.54508 0.89982 0.0
C769 C 0.56172 0.57103 0.90874 0.0
C770 C 0.55372 0.54872 0.90348 0.0
C771 C 0.58973 0.56565 0.90305 0.0
N772 N 0.58436 0.58162 0.9084 0.0
O773 O 0.54166 0.50372 0.91494 0.0
H774 H 0.53611 0.53596 0.90207 0.0
H775 H 0.60688 0.56915 0.90176 0.0
O776 O 0.54844 0.51296 0.86424 0.0
C777 C 0.54975 0.50628 0.9364 0.0
O778 O 0.57152 0.51397 0.93873 0.0
N779 N 0.59372 0.52795 0.87484 0.0
C780 C 0.63596 0.54134 0.85467 0.0
C781 C 0.61668 0.53231 0.83988 0.0
C782 C 0.59554 0.52513 0.85045 0.0
C783 C 0.61229 0.5362 0.8894 0.0
C784 C 0.63356 0.54328 0.8797 0.0
H785 H 0.58075 0.51639 0.83914 0.0
H786 H 0.61041 0.53674 0.9089 0.0
H787 H 0.52783 0.4681 0.87847 0.0
H788 H 0.5749 0.44719 0.89339 0.0
H789 H 0.55167 0.57896 0.91199 0.0
H790 H 0.61781 0.52982 0.82056 0.0
H791 H 0.64799 0.5499 0.89178 0.0
C792 C 0.58887 0.82602 0.70435 0.0
C793 C 0.57686 0.80307 0.70096 0.0
N794 N 0.59132 0.79605 0.69433 0.0
N795 N 0.61084 0.83364 0.6996 0.0
C796 C 0.61181 0.815 0.69351 0.0
H797 H 0.58201 0.83629 0.71071 0.0
Co798 Co 0.63498 0.86282 0.70471 0.0
C799 C 0.65968 0.87699 0.658 0.0
O800 O 0.66261 0.89715 0.6624 0.0
N801 N 0.65984 0.89202 0.7107 0.0
C802 C 0.69578 0.9185 0.7163 0.0
C803 C 0.68142 0.8964 0.71015 0.0
C804 C 0.66167 0.91188 0.71766 0.0
N805 N 0.68335 0.92826 0.72102 0.0
O806 O 0.6503 0.85069 0.72314 0.0
H807 H 0.68646 0.88419 0.70559 0.0
H808 H 0.64759 0.91455 0.7203 0.0
O809 O 0.64874 0.86104 0.67339 0.0
C810 C 0.64195 0.84595 0.74456 0.0
O811 O 0.62423 0.84795 0.74939 0.0
N812 N 0.61836 0.87447 0.6894 0.0
C813 C 0.58625 0.88605 0.67527 0.0
C814 C 0.59559 0.87782 0.65815 0.0
C815 C 0.61129 0.8716 0.6657 0.0
C816 C 0.60906 0.88204 0.7062 0.0
C817 C 0.59336 0.88831 0.69952 0.0
H818 H 0.61663 0.86334 0.65277 0.0
H819 H 0.61318 0.88227 0.72526 0.0
H820 H 0.62745 0.81525 0.68978 0.0
H821 H 0.55887 0.79239 0.70356 0.0
H822 H 0.71395 0.92655 0.7178 0.0
H823 H 0.58992 0.87507 0.6394 0.0
H824 H 0.5864 0.89432 0.7134 0.0
C825 C 0.18736 0.77156 0.74038 0.0
C826 C 0.21058 0.78376 0.74068 0.0
N827 N 0.21734 0.80035 0.72407 0.0
N828 N 0.17963 0.78061 0.72383 0.0
C829 C 0.19832 0.7981 0.71414 0.0
H830 H 0.17675 0.75721 0.75176 0.0
Co831 Co 0.14956 0.77143 0.7183 0.0
C832 C 0.15225 0.80621 0.68399 0.0
O833 O 0.14043 0.81111 0.69909 0.0
N834 N 0.11907 0.76175 0.71269 0.0
C835 C 0.08632 0.74922 0.69357 0.0
C836 C 0.10911 0.75827 0.69064 0.0
C837 C 0.10185 0.7544 0.72876 0.0
N838 N 0.08173 0.74667 0.71756 0.0
O839 O 0.1522 0.79431 0.74092 0.0
H840 H 0.11774 0.76159 0.67335 0.0
H841 H 0.10382 0.75383 0.74821 0.0
O842 O 0.15771 0.79161 0.6902 0.0
C843 C 0.14847 0.78629 0.76255 0.0
O844 O 0.14269 0.76502 0.76548 0.0
N845 N 0.14679 0.7479 0.69877 0.0
C846 C 0.13702 0.70786 0.67556 0.0
C847 C 0.14614 0.72813 0.66241 0.0
C848 C 0.15121 0.74817 0.67446 0.0
C849 C 0.13831 0.72845 0.7118 0.0
C850 C 0.13339 0.70825 0.70061 0.0
H851 H 0.15816 0.76361 0.66408 0.0
H852 H 0.13493 0.72861 0.73102 0.0
H853 H 0.19814 0.80948 0.70061 0.0
H854 H 0.22164 0.78067 0.75211 0.0
H855 H 0.07407 0.74474 0.6791 0.0
H856 H 0.14932 0.72847 0.64305 0.0
H857 H 0.12619 0.69293 0.71136 0.0
C858 C 0.24465 0.42576 0.72693 0.0
C859 C 0.2347 0.43859 0.72247 0.0
N860 N 0.21365 0.42488 0.71403 0.0
N861 N 0.23 0.40411 0.72115 0.0
C862 C 0.2113 0.40409 0.71339 0.0
H863 H 0.26128 0.43174 0.73448 0.0
Co864 Co 0.2334 0.37915 0.72614 0.0
C865 C 0.22134 0.35458 0.67948 0.0
O866 O 0.23857 0.35154 0.68348 0.0
N867 N 0.23593 0.35324 0.7319 0.0
C868 C 0.22393 0.31663 0.73685 0.0
C869 C 0.21765 0.33227 0.73155 0.0
C870 C 0.25316 0.34976 0.73789 0.0
N871 N 0.2463 0.32764 0.74083 0.0
O872 O 0.2065 0.36571 0.74591 0.0
H873 H 0.20065 0.32853 0.72757 0.0
H874 H 0.27045 0.3629 0.73999 0.0
O875 O 0.21649 0.3653 0.69536 0.0
C876 C 0.21203 0.37447 0.76714 0.0
O877 O 0.233 0.39043 0.77084 0.0
N878 N 0.26123 0.39427 0.7095 0.0
C879 C 0.30472 0.42418 0.69231 0.0
C880 C 0.28585 0.41663 0.677 0.0
C881 C 0.26421 0.40201 0.68607 0.0
C882 C 0.27926 0.40225 0.72482 0.0
C883 C 0.30112 0.41656 0.71649 0.0
H884 H 0.2499 0.39811 0.67461 0.0
H885 H 0.27655 0.3982 0.74399 0.0
H886 H 0.1959 0.38889 0.70842 0.0
H887 H 0.24235 0.45657 0.72542 0.0
H888 H 0.21278 0.29858 0.73822 0.0
H889 H 0.28761 0.42284 0.65854 0.0
H890 H 0.31499 0.42202 0.72917 0.0
C891 C 0.48665 0.90422 0.12296 0.0
C892 C 0.46408 0.8902 0.12759 0.0
N893 N 0.45604 0.90244 0.13835 0.0
N894 N 0.49286 0.92512 0.13102 0.0
C895 C 0.47385 0.92358 0.14016 0.0
H896 H 0.49772 0.89959 0.11378 0.0
Co897 Co 0.52113 0.95021 0.12733 0.0
C898 C 0.53112 0.97719 0.17224 0.0
O899 O 0.55183 0.98086 0.17037 0.0
N900 N 0.54978 0.97601 0.12245 0.0
C901 C 0.57539 0.01221 0.11682 0.0
C902 C 0.55313 0.99723 0.12162 0.0
C903 C 0.57027 0.97858 0.11732 0.0
N904 N 0.5861 0.00041 0.1141 0.0
O905 O 0.50866 0.96318 0.10581 0.0
H906 H 0.54011 0.00156 0.12438 0.0
H907 H 0.57382 0.96496 0.11581 0.0
O908 O 0.51625 0.96465 0.15647 0.0
C909 C 0.51283 0.9597 0.0841 0.0
O910 O 0.52281 0.94773 0.08093 0.0
N911 N 0.53315 0.9358 0.14624 0.0
C912 C 0.54791 0.90827 0.16706 0.0
C913 C 0.53727 0.91719 0.18137 0.0
C914 C 0.52939 0.93043 0.17044 0.0
C915 C 0.54265 0.92645 0.13206 0.0
C916 C 0.55049 0.913 0.1421 0.0
H917 H 0.51947 0.93539 0.1813 0.0
H918 H 0.54356 0.92899 0.11256 0.0
H919 H 0.47305 0.93775 0.14776 0.0
H920 H 0.4542 0.87256 0.12268 0.0
H921 H 0.583 0.03031 0.11485 0.0
H922 H 0.53414 0.91311 0.20054 0.0
H923 H 0.55821 0.90606 0.13032 0.0
C924 C 0.07583 0.5562 0.10876 0.0
C925 C 0.08647 0.54367 0.1091 0.0
N926 N 0.07672 0.52766 0.1264 0.0
N927 N 0.05943 0.54816 0.12574 0.0
C928 C 0.06038 0.5308 0.13618 0.0
H929 H 0.07976 0.57027 0.09685 0.0
Co930 Co 0.04018 0.55934 0.13178 0.0
C931 C 0.007 0.52554 0.166 0.0
O932 O 0.99059 0.52154 0.15079 0.0
N933 N 0.02107 0.57106 0.1379 0.0
C934 C 0.00245 0.58521 0.1574 0.0
C935 C 0.01524 0.57507 0.16008 0.0
C936 C 0.01174 0.57915 0.12204 0.0
N937 N 0.00031 0.58784 0.13346 0.0
O938 O 0.01865 0.53729 0.10941 0.0
H939 H 0.02019 0.57118 0.17727 0.0
H940 H 0.01383 0.57939 0.10253 0.0
O941 O 0.02735 0.53934 0.15988 0.0
C942 C 0.02283 0.54539 0.08783 0.0
O943 O 0.03938 0.56619 0.08468 0.0
N944 N 0.06224 0.58209 0.15108 0.0
C945 C 0.09489 0.62131 0.17364 0.0
C946 C 0.08178 0.60169 0.18733 0.0
C947 C 0.06564 0.58201 0.17559 0.0
C948 C 0.07511 0.6009 0.13756 0.0
C949 C 0.09167 0.62066 0.14842 0.0
H950 H 0.05558 0.5671 0.18639 0.0
H951 H 0.07208 0.60062 0.1182 0.0
H952 H 0.04952 0.52082 0.15093 0.0
H953 H 0.10015 0.54607 0.09728 0.0
H954 H 0.99524 0.59022 0.17199 0.0
H955 H 0.08391 0.60165 0.20686 0.0
H956 H 0.10134 0.63554 0.13731 0.0
C957 C 0.4286 0.51381 0.13177 0.0
C958 C 0.43986 0.53671 0.1356 0.0
N959 N 0.46156 0.54344 0.14082 0.0
N960 N 0.44303 0.50599 0.13486 0.0
C961 C 0.46295 0.52442 0.14044 0.0
H962 H 0.41123 0.50377 0.12609 0.0
Co963 Co 0.43782 0.47712 0.12791 0.0
C964 C 0.45027 0.4613 0.17228 0.0
O965 O 0.43369 0.44096 0.16714 0.0
N966 N 0.4332 0.44822 0.11988 0.0
C967 C 0.44222 0.42211 0.10998 0.0
C968 C 0.45043 0.44405 0.11706 0.0
C969 C 0.41458 0.42828 0.11442 0.0
N970 N 0.41968 0.41225 0.10839 0.0
O971 O 0.46481 0.48987 0.10878 0.0
H972 H 0.468 0.45617 0.12033 0.0
H973 H 0.39756 0.42528 0.1145 0.0
O974 O 0.45418 0.47778 0.15812 0.0
C975 C 0.46149 0.4954 0.08767 0.0
O976 O 0.44219 0.4945 0.08322 0.0
N977 N 0.41008 0.46491 0.14436 0.0
C978 C 0.36689 0.45188 0.16152 0.0
C979 C 0.38512 0.45945 0.17771 0.0
C980 C 0.40675 0.46641 0.16869 0.0
C981 C 0.39259 0.45808 0.12845 0.0
C982 C 0.37084 0.45114 0.13662 0.0
H983 H 0.42078 0.47407 0.18116 0.0
H984 H 0.39575 0.45866 0.10909 0.0
H985 H 0.47845 0.52402 0.14272 0.0
H986 H 0.43267 0.54758 0.13407 0.0
H987 H 0.45199 0.41388 0.10675 0.0
H988 H 0.38287 0.46105 0.19699 0.0
H989 H 0.3573 0.44566 0.12347 0.0
C990 C 0.08987 0.52085 0.61634 0.0
C991 C 0.10062 0.54389 0.61397 0.0
N992 N 0.08577 0.55077 0.61909 0.0
N993 N 0.06833 0.51307 0.62341 0.0
C994 C 0.06618 0.53166 0.62408 0.0
H995 H 0.09762 0.51069 0.61334 0.0
Co996 Co 0.04603 0.48307 0.62989 0.0
C997 C 0.04412 0.50757 0.67531 0.0
O998 O 0.06568 0.52267 0.67395 0.0
N999 N 0.02395 0.45319 0.63591 0.0
C1000 C 0.00153 0.42113 0.65531 0.0
C1001 C 0.01544 0.44396 0.65787 0.0
C1002 C 0.01501 0.43557 0.62029 0.0
N1003 N 0.00133 0.41586 0.63168 0.0
O1004 O 0.02576 0.4869 0.60868 0.0
H1005 H 0.01974 0.45298 0.67495 0.0
H1006 H 0.01918 0.43694 0.60115 0.0
O1007 O 0.03522 0.49223 0.65892 0.0
C1008 C 0.02928 0.48266 0.58697 0.0
O1009 O 0.04482 0.47703 0.58347 0.0
N1010 N 0.06643 0.47806 0.64798 0.0
C1011 C 0.09781 0.46697 0.66586 0.0
C1012 C 0.08602 0.47342 0.68181 0.0
C1013 C 0.07017 0.47873 0.67251 0.0
C1014 C 0.07678 0.47048 0.63257 0.0
C1015 C 0.09275 0.46521 0.641 0.0
H1016 H 0.06072 0.48266 0.68524 0.0
H1017 H 0.07273 0.46882 0.61337 0.0
H1018 H 0.05063 0.53119 0.62893 0.0
H1019 H 0.11832 0.55477 0.60986 0.0
H1020 H 0.9925 0.40927 0.6698 0.0
H1021 H 0.08907 0.47445 0.70124 0.0
H1022 H 0.10089 0.45956 0.62815 0.0
C1023 C 0.49016 0.5688 0.61893 0.0
C1024 C 0.46723 0.55789 0.6227 0.0
N1025 N 0.46142 0.53993 0.63733 0.0
N1026 N 0.49889 0.55793 0.63119 0.0
C1027 C 0.48108 0.54047 0.64217 0.0
H1028 H 0.49975 0.58321 0.60722 0.0
Co1029 Co 0.52834 0.56386 0.62898 0.0
C1030 C 0.54022 0.55341 0.67704 0.0
O1031 O 0.55995 0.57177 0.67427 0.0
N1032 N 0.55817 0.56915 0.62589 0.0
C1033 C 0.58564 0.56076 0.62369 0.0
C1034 C 0.56311 0.5524 0.62793 0.0
C1035 C 0.5781 0.58753 0.61993 0.0
N1036 N 0.59508 0.58288 0.61862 0.0
O1037 O 0.51798 0.53683 0.60995 0.0
H1038 H 0.55099 0.53506 0.63229 0.0
H1039 H 0.58022 0.60387 0.61578 0.0
O1040 O 0.52511 0.54786 0.66046 0.0
C1041 C 0.52188 0.54352 0.58783 0.0
O1042 O 0.53088 0.56521 0.58344 0.0
N1043 N 0.53809 0.59176 0.64451 0.0
C1044 C 0.54965 0.63547 0.65866 0.0
C1045 C 0.54042 0.61767 0.67554 0.0
C1046 C 0.53413 0.59573 0.66791 0.0
C1047 C 0.54616 0.60876 0.62783 0.0
C1048 C 0.55241 0.63072 0.63454 0.0
H1049 H 0.52537 0.582 0.6806 0.0
H1050 H 0.54733 0.60509 0.60892 0.0
H1051 H 0.48255 0.52807 0.65298 0.0
H1052 H 0.45573 0.56241 0.61436 0.0
H1053 H 0.59436 0.55124 0.62432 0.0
H1054 H 0.53722 0.62052 0.69414 0.0
H1055 H 0.55912 0.64386 0.62082 0.0
C1056 C 0.42915 0.91684 0.63086 0.0
C1057 C 0.44057 0.90526 0.63425 0.0
N1058 N 0.4622 0.92026 0.63981 0.0
N1059 N 0.44347 0.93902 0.63445 0.0
C1060 C 0.46344 0.94058 0.63985 0.0
H1061 H 0.41168 0.90962 0.62553 0.0
Co1062 Co 0.43796 0.9627 0.62953 0.0
C1063 C 0.45418 0.99073 0.67363 0.0
O1064 O 0.43653 0.99339 0.67146 0.0
N1065 N 0.4332 0.9873 0.62359 0.0
C1066 C 0.44289 0.02333 0.61804 0.0
C1067 C 0.45073 0.0087 0.62198 0.0
C1068 C 0.4148 0.98946 0.61967 0.0
N1069 N 0.42031 0.01118 0.6166 0.0
O1070 O 0.4626 0.97605 0.60722 0.0
H1071 H 0.46828 0.01349 0.62414 0.0
H1072 H 0.39761 0.97574 0.61945 0.0
O1073 O 0.45746 0.97883 0.65787 0.0
C1074 C 0.45602 0.96655 0.58652 0.0
O1075 O 0.43547 0.94922 0.58456 0.0
N1076 N 0.4123 0.94779 0.6495 0.0
C1077 C 0.37188 0.91894 0.6729 0.0
C1078 C 0.39233 0.92769 0.68545 0.0
C1079 C 0.41249 0.94194 0.6733 0.0
C1080 C 0.39254 0.93823 0.63682 0.0
C1081 C 0.37204 0.9243 0.64834 0.0
H1082 H 0.42818 0.94714 0.6827 0.0
H1083 H 0.39281 0.94073 0.61736 0.0
H1084 H 0.47881 0.95649 0.64267 0.0
H1085 H 0.43348 0.88721 0.63255 0.0
H1086 H 0.45296 0.04149 0.61626 0.0
H1087 H 0.39275 0.92298 0.7042 0.0
H1088 H 0.35655 0.91691 0.63787 0.0
C1089 C 0.18174 0.41667 0.22576 0.0
C1090 C 0.20453 0.4285 0.22104 0.0
N1091 N 0.21076 0.41395 0.21248 0.0
N1092 N 0.17363 0.39483 0.21998 0.0
C1093 C 0.19165 0.39365 0.21204 0.0
H1094 H 0.17181 0.42346 0.23339 0.0
Co1095 Co 0.14475 0.37113 0.22511 0.0
C1096 C 0.13089 0.34502 0.17939 0.0
O1097 O 0.1109 0.34255 0.18377 0.0
N1098 N 0.11551 0.34642 0.23131 0.0
C1099 C 0.08968 0.31069 0.23926 0.0
C1100 C 0.11173 0.32507 0.23307 0.0
C1101 C 0.09524 0.34442 0.23655 0.0
N1102 N 0.07937 0.32291 0.2414 0.0
O1103 O 0.15688 0.35718 0.24607 0.0
H1104 H 0.12431 0.3202 0.22996 0.0
H1105 H 0.09191 0.3582 0.23735 0.0
O1106 O 0.14686 0.35579 0.19489 0.0
C1107 C 0.15439 0.36256 0.26768 0.0
O1108 O 0.14585 0.37588 0.27037 0.0
N1109 N 0.13348 0.38689 0.20726 0.0
C1110 C 0.12083 0.41653 0.1874 0.0
C1111 C 0.13167 0.40782 0.17304 0.0
C1112 C 0.13834 0.39343 0.18346 0.0
C1113 C 0.12414 0.39623 0.2217 0.0
C1114 C 0.1171 0.41051 0.21207 0.0
H1115 H 0.14836 0.38856 0.17263 0.0
H1116 H 0.1227 0.39302 0.24108 0.0
H1117 H 0.19088 0.378 0.20702 0.0
H1118 H 0.21561 0.4464 0.22384 0.0
H1119 H 0.08174 0.29261 0.24169 0.0
H1120 H 0.13589 0.41287 0.1542 0.0
H1121 H 0.10913 0.41705 0.22402 0.0
C1122 C 0.59405 0.76558 0.2141 0.0
C1123 C 0.58331 0.77777 0.21761 0.0
N1124 N 0.5984 0.79979 0.21428 0.0
N1125 N 0.61582 0.77975 0.20818 0.0
C1126 C 0.61806 0.80051 0.20913 0.0
H1127 H 0.58615 0.74747 0.21539 0.0
Co1128 Co 0.63848 0.77283 0.20099 0.0
C1129 C 0.63772 0.79797 0.15543 0.0
O1130 O 0.61674 0.79302 0.15879 0.0
N1131 N 0.66097 0.76583 0.19418 0.0
C1132 C 0.68212 0.7548 0.17435 0.0
C1133 C 0.66768 0.76315 0.1719 0.0
C1134 C 0.67156 0.75903 0.20986 0.0
N1135 N 0.68452 0.75224 0.19825 0.0
O1136 O 0.6592 0.7983 0.2203 0.0
H1137 H 0.66142 0.76571 0.15484 0.0
H1138 H 0.66869 0.75759 0.2293 0.0
O1139 O 0.64705 0.79113 0.17085 0.0
C1140 C 0.65671 0.79159 0.2424 0.0
O1141 O 0.64207 0.77037 0.24714 0.0
N1142 N 0.61776 0.74627 0.18498 0.0
C1143 C 0.5853 0.70272 0.17127 0.0
C1144 C 0.59405 0.72033 0.15417 0.0
C1145 C 0.61044 0.74213 0.16139 0.0
C1146 C 0.61033 0.72904 0.2013 0.0
C1147 C 0.59398 0.70723 0.19495 0.0
H1148 H 0.61707 0.75528 0.14793 0.0
H1149 H 0.61681 0.73247 0.2197 0.0
H1150 H 0.63375 0.81582 0.20527 0.0
H1151 H 0.5655 0.77078 0.22122 0.0
H1152 H 0.68956 0.75012 0.15971 0.0
H1153 H 0.58798 0.71739 0.13557 0.0
H1154 H 0.58811 0.69401 0.20854 0.0
C1155 C 0.23202 0.81035 0.24176 0.0
C1156 C 0.22055 0.78717 0.24245 0.0
N1157 N 0.20183 0.77943 0.22857 0.0
N1158 N 0.22081 0.81729 0.22727 0.0
C1159 C 0.20237 0.79818 0.21982 0.0
H1160 H 0.24784 0.8215 0.25071 0.0
Co1161 Co 0.2299 0.84712 0.21982 0.0
C1162 C 0.21292 0.83486 0.16697 0.0
O1163 O 0.23206 0.83761 0.15875 0.0
N1164 N 0.23858 0.87731 0.21259 0.0
C1165 C 0.2506 0.90973 0.1929 0.0
C1166 C 0.24303 0.88712 0.1904 0.0
C1167 C 0.24367 0.89443 0.2283 0.0
N1168 N 0.25115 0.91437 0.21679 0.0
O1169 O 0.20525 0.84444 0.23934 0.0
H1170 H 0.24197 0.87877 0.17341 0.0
H1171 H 0.24312 0.89262 0.24785 0.0
O1172 O 0.21064 0.83811 0.1896 0.0
C1173 C 0.21241 0.8487 0.26131 0.0
O1174 O 0.2334 0.85407 0.26565 0.0
N1175 N 0.25626 0.8503 0.20411 0.0
C1176 C 0.29821 0.85652 0.1896 0.0
C1177 C 0.27832 0.83646 0.18406 0.0
C1178 C 0.25757 0.83339 0.19219 0.0
C1179 C 0.27577 0.86931 0.21072 0.0
C1180 C 0.29674 0.87296 0.20323 0.0
H1181 H 0.24254 0.81733 0.18887 0.0
H1182 H 0.27544 0.88159 0.22274 0.0
H1183 H 0.18962 0.79814 0.20816 0.0
H1184 H 0.22607 0.77693 0.25191 0.0
H1185 H 0.25571 0.92186 0.17823 0.0
H1186 H 0.27885 0.823 0.17426 0.0
H1187 H 0.31175 0.88849 0.20842 0.0
C1188 C 0.31301 0.18145 0.87423 0.0
C1189 C 0.33418 0.18698 0.86474 0.0
C1190 C 0.3088 0.17872 0.8994 0.0
C1191 C 0.32599 0.181 0.9155 0.0
C1192 C 0.34667 0.18446 0.90577 0.0
C1193 C 0.35067 0.18778 0.88055 0.0
C1194 C 0.28665 0.17548 0.90885 0.0
C1195 C 0.36516 0.18615 0.92213 0.0
C1196 C 0.3273 0.20938 0.97515 0.0
C1197 C 0.31494 0.19104 0.99087 0.0
C1198 C 0.33155 0.20625 0.95096 0.0
C1199 C 0.32387 0.18417 0.94213 0.0
C1200 C 0.31277 0.16558 0.9583 0.0
C1201 C 0.30817 0.1692 0.98247 0.0
C1202 C 0.34322 0.22663 0.93448 0.0
C1203 C 0.30498 0.14184 0.94986 0.0
H1204 H 0.30015 0.1808 0.86218 0.0
H1205 H 0.36699 0.19176 0.87332 0.0
H1206 H 0.27924 0.16162 0.92238 0.0
H1207 H 0.28962 0.19111 0.91821 0.0
H1208 H 0.2742 0.17164 0.89403 0.0
H1209 H 0.37782 0.18383 0.91181 0.0
H1210 H 0.37395 0.20303 0.93082 0.0
H1211 H 0.35806 0.17336 0.93687 0.0
H1212 H 0.33295 0.2264 0.98143 0.0
H1213 H 0.2987 0.15491 0.99444 0.0
H1214 H 0.33178 0.22509 0.91935 0.0
H1215 H 0.35848 0.22763 0.92626 0.0
H1216 H 0.34835 0.24269 0.94428 0.0
H1217 H 0.28955 0.13574 0.93863 0.0
H1218 H 0.301 0.13008 0.96543 0.0
H1219 H 0.31804 0.14131 0.93835 0.0
C1220 C 0.78725 0.11779 0.96945 0.0
C1221 C 0.80638 0.12313 0.98355 0.0
C1222 C 0.789 0.12745 0.94656 0.0
C1223 C 0.81051 0.14316 0.93722 0.0
C1224 C 0.83 0.14927 0.95159 0.0
C1225 C 0.82771 0.13913 0.97467 0.0
C1226 C 0.76762 0.12051 0.93224 0.0
C1227 C 0.85322 0.16598 0.94238 0.0
C1228 C 0.8032 0.14436 0.86924 0.0
C1229 C 0.79597 0.16019 0.86784 0.0
C1230 C 0.81106 0.14052 0.89144 0.0
C1231 C 0.81177 0.1529 0.91249 0.0
C1232 C 0.8075 0.17103 0.91007 0.0
C1233 C 0.79935 0.17424 0.88785 0.0
C1234 C 0.81571 0.12123 0.89304 0.0
C1235 C 0.80859 0.18511 0.93172 0.0
H1236 H 0.77065 0.10568 0.97624 0.0
H1237 H 0.84258 0.14325 0.98538 0.0
H1238 H 0.76591 0.13549 0.92835 0.0
H1239 H 0.76835 0.11312 0.91451 0.0
H1240 H 0.75225 0.10792 0.94207 0.0
H1241 H 0.86605 0.17185 0.95711 0.0
H1242 H 0.85817 0.15791 0.928 0.0
H1243 H 0.85337 0.18083 0.93409 0.0
H1244 H 0.8004 0.13333 0.85386 0.0
H1245 H 0.79376 0.18651 0.88675 0.0
H1246 H 0.80081 0.10632 0.901 0.0
H1247 H 0.83035 0.12562 0.90507 0.0
H1248 H 0.81905 0.11646 0.87482 0.0
H1249 H 0.79302 0.17561 0.94274 0.0
H1250 H 0.80988 0.20128 0.926 0.0
H1251 H 0.82318 0.1888 0.94355 0.0
C1252 C 0.88012 0.67984 0.8767 0.0
C1253 C 0.8629 0.66383 0.86181 0.0
C1254 C 0.87658 0.68165 0.90153 0.0
C1255 C 0.85513 0.66721 0.91191 0.0
C1256 C 0.837 0.65261 0.89647 0.0
C1257 C 0.84112 0.65097 0.87154 0.0
C1258 C 0.89648 0.6976 0.91705 0.0
C1259 C 0.81367 0.63751 0.90651 0.0
C1260 C 0.86381 0.65166 0.97529 0.0
C1261 C 0.86337 0.66849 0.98944 0.0
C1262 C 0.85899 0.64969 0.95031 0.0
C1263 C 0.85333 0.66483 0.93905 0.0
C1264 C 0.85038 0.68022 0.95377 0.0
C1265 C 0.85557 0.68199 0.97885 0.0
C1266 C 0.86225 0.63288 0.9356 0.0
C1267 C 0.84353 0.69608 0.94277 0.0
H1268 H 0.89691 0.69015 0.86922 0.0
H1269 H 0.82765 0.63864 0.86015 0.0
H1270 H 0.89201 0.70803 0.92867 0.0
H1271 H 0.90122 0.68773 0.92929 0.0
H1272 H 0.91145 0.70904 0.90592 0.0
H1273 H 0.80064 0.63217 0.89203 0.0
H1274 H 0.81273 0.62213 0.91434 0.0
H1275 H 0.80968 0.64609 0.92122 0.0
H1276 H 0.86944 0.6409 0.98345 0.0
H1277 H 0.85506 0.69497 0.98966 0.0
H1278 H 0.87749 0.64201 0.92401 0.0
H1279 H 0.84765 0.62311 0.92336 0.0
H1280 H 0.86438 0.62085 0.94733 0.0
H1281 H 0.85861 0.7109 0.93498 0.0
H1282 H 0.83612 0.70227 0.95668 0.0
H1283 H 0.83116 0.68777 0.92784 0.0
C1284 C 0.16686 0.31134 0.54655 0.0
C1285 C 0.18081 0.32788 0.52968 0.0
C1286 C 0.1694 0.31567 0.57176 0.0
C1287 C 0.18664 0.33687 0.58039 0.0
C1288 C 0.19977 0.35407 0.56336 0.0
C1289 C 0.19655 0.34943 0.53826 0.0
C1290 C 0.15462 0.297 0.58917 0.0
C1291 C 0.21857 0.3768 0.5716 0.0
C1292 C 0.19415 0.35404 0.64773 0.0
C1293 C 0.21032 0.34834 0.65508 0.0
C1294 C 0.18557 0.34973 0.6237 0.0
C1295 C 0.1936 0.33981 0.60661 0.0
C1296 C 0.20944 0.33354 0.61422 0.0
C1297 C 0.2174 0.33768 0.63825 0.0
C1298 C 0.16833 0.35624 0.61647 0.0
C1299 C 0.21868 0.32309 0.59671 0.0
H1300 H 0.15447 0.29471 0.54009 0.0
H1301 H 0.20745 0.36234 0.52543 0.0
H1302 H 0.16437 0.28955 0.59699 0.0
H1303 H 0.14911 0.30368 0.60449 0.0
H1304 H 0.13947 0.28337 0.57996 0.0
H1305 H 0.22533 0.38918 0.55643 0.0
H1306 H 0.21267 0.38372 0.58628 0.0
H1307 H 0.23256 0.37487 0.57914 0.0
H1308 H 0.18854 0.36225 0.66055 0.0
H1309 H 0.22976 0.33303 0.64362 0.0
H1310 H 0.15373 0.34183 0.60744 0.0
H1311 H 0.17587 0.37028 0.60314 0.0
H1312 H 0.16216 0.36167 0.63235 0.0
H1313 H 0.20472 0.30736 0.58886 0.0
H1314 H 0.23081 0.31902 0.60556 0.0
H1315 H 0.22739 0.33485 0.58139 0.0
C1316 C 0.65543 0.85133 0.62276 0.0
C1317 C 0.66628 0.87279 0.63358 0.0
C1318 C 0.6589 0.84858 0.59792 0.0
C1319 C 0.67345 0.86772 0.58367 0.0
C1320 C 0.68571 0.88905 0.59512 0.0
C1321 C 0.682 0.89128 0.61982 0.0
C1322 C 0.64589 0.82544 0.58665 0.0
C1323 C 0.70151 0.90998 0.58087 0.0
C1324 C 0.69396 0.87029 0.51854 0.0
C1325 C 0.68027 0.87683 0.50605 0.0
C1326 C 0.69071 0.86511 0.54364 0.0
C1327 C 0.67348 0.86663 0.55641 0.0
C1328 C 0.65838 0.87114 0.54323 0.0
C1329 C 0.66195 0.87613 0.51831 0.0
C1330 C 0.70682 0.85978 0.55677 0.0
C1331 C 0.63966 0.87281 0.55585 0.0
H1332 H 0.64331 0.83692 0.63325 0.0
H1333 H 0.69077 0.90787 0.62812 0.0
H1334 H 0.63112 0.82397 0.57668 0.0
H1335 H 0.65646 0.82265 0.57336 0.0
H1336 H 0.63964 0.81194 0.60067 0.0
H1337 H 0.71126 0.92485 0.59284 0.0
H1338 H 0.71356 0.90709 0.57015 0.0
H1339 H 0.69165 0.91401 0.56783 0.0
H1340 H 0.70813 0.87074 0.50921 0.0
H1341 H 0.65109 0.88084 0.50869 0.0
H1342 H 0.6979 0.84661 0.57083 0.0
H1343 H 0.71987 0.87517 0.56612 0.0
H1344 H 0.71546 0.85399 0.54397 0.0
H1345 H 0.62985 0.858 0.56782 0.0
H1346 H 0.62791 0.87391 0.54271 0.0
H1347 H 0.64704 0.8881 0.56752 0.0
C1348 C 0.12534 0.78609 0.54705 0.0
C1349 C 0.13192 0.80398 0.53052 0.0
C1350 C 0.13202 0.78989 0.57153 0.0
C1351 C 0.14618 0.81221 0.57991 0.0
C1352 C 0.15403 0.83035 0.56308 0.0
C1353 C 0.14664 0.82606 0.5386 0.0
C1354 C 0.12297 0.76997 0.58868 0.0
C1355 C 0.16965 0.85433 0.57108 0.0
C1356 C 0.13797 0.81734 0.64758 0.0
C1357 C 0.15396 0.81266 0.65785 0.0
C1358 C 0.13627 0.81883 0.62219 0.0
C1359 C 0.15127 0.81612 0.6066 0.0
C1360 C 0.16871 0.81338 0.61701 0.0
C1361 C 0.16964 0.81135 0.64246 0.0
C1362 C 0.11713 0.82132 0.61204 0.0
C1363 C 0.18549 0.81109 0.60123 0.0
H1364 H 0.11414 0.76892 0.5411 0.0
H1365 H 0.15187 0.84002 0.52605 0.0
H1366 H 0.13709 0.76927 0.59774 0.0
H1367 H 0.11273 0.77187 0.60317 0.0
H1368 H 0.11229 0.75365 0.57923 0.0
H1369 H 0.17663 0.86607 0.55537 0.0
H1370 H 0.16036 0.86004 0.58294 0.0
H1371 H 0.18382 0.85538 0.58194 0.0
H1372 H 0.1257 0.81827 0.65926 0.0
H1373 H 0.18219 0.80794 0.65025 0.0
H1374 H 0.10452 0.80519 0.60348 0.0
H1375 H 0.12334 0.83449 0.59771 0.0
H1376 H 0.10854 0.82575 0.62636 0.0
H1377 H 0.17735 0.79393 0.59321 0.0
H1378 H 0.20045 0.81372 0.61181 0.0
H1379 H 0.19122 0.82337 0.58598 0.0
C1380 C 0.6634 0.78583 0.02181 0.0
C1381 C 0.67924 0.80418 0.00796 0.0
C1382 C 0.65783 0.78869 0.0456 0.0
C1383 C 0.6682 0.81053 0.05599 0.0
C1384 C 0.68341 0.82936 0.04174 0.0
C1385 C 0.68881 0.82597 0.01787 0.0
C1386 C 0.64143 0.76808 0.05994 0.0
C1387 C 0.69461 0.85296 0.05199 0.0
C1388 C 0.63674 0.81083 0.11282 0.0
C1389 C 0.64829 0.80625 0.13107 0.0
C1390 C 0.64419 0.81431 0.08849 0.0
C1391 C 0.66355 0.813 0.08212 0.0
C1392 C 0.67631 0.81028 0.10077 0.0
C1393 C 0.66864 0.80713 0.125 0.0
C1394 C 0.6303 0.81765 0.06935 0.0
C1395 C 0.69709 0.80883 0.0949 0.0
H1396 H 0.65572 0.76895 0.01429 0.0
H1397 H 0.70115 0.84024 0.00736 0.0
H1398 H 0.65002 0.76614 0.07612 0.0
H1399 H 0.62724 0.77008 0.06662 0.0
H1400 H 0.6344 0.75235 0.04898 0.0
H1401 H 0.70354 0.86595 0.03772 0.0
H1402 H 0.68198 0.85622 0.06094 0.0
H1403 H 0.70704 0.85483 0.06608 0.0
H1404 H 0.6212 0.8106 0.11727 0.0
H1405 H 0.67802 0.80414 0.13896 0.0
H1406 H 0.62042 0.80175 0.05895 0.0
H1407 H 0.64135 0.83094 0.05622 0.0
H1408 H 0.61836 0.82233 0.0775 0.0
H1409 H 0.69203 0.79267 0.0854 0.0
H1410 H 0.7067 0.80961 0.11152 0.0
H1411 H 0.70838 0.82269 0.08247 0.0
C1412 C 0.19182 0.86292 0.03845 0.0
C1413 C 0.17141 0.86181 0.03248 0.0
C1414 C 0.19466 0.85483 0.06095 0.0
C1415 C 0.17642 0.84482 0.07768 0.0
C1416 C 0.15517 0.84188 0.07072 0.0
C1417 C 0.15307 0.85089 0.04845 0.0
C1418 C 0.21775 0.85874 0.06762 0.0
C1419 C 0.13501 0.8305 0.08741 0.0
C1420 C 0.18887 0.81686 0.13067 0.0
C1421 C 0.19695 0.83396 0.1483 0.0
C1422 C 0.18011 0.81922 0.10837 0.0
C1423 C 0.18044 0.83965 0.10311 0.0
C1424 C 0.1873 0.85638 0.12153 0.0
C1425 C 0.19514 0.85316 0.14404 0.0
C1426 C 0.17204 0.80051 0.08982 0.0
C1427 C 0.18834 0.8786 0.11671 0.0
H1428 H 0.20617 0.87185 0.0264 0.0
H1429 H 0.13739 0.85042 0.04408 0.0
H1430 H 0.22453 0.8706 0.08322 0.0
H1431 H 0.21666 0.84271 0.07341 0.0
H1432 H 0.22987 0.86587 0.05225 0.0
H1433 H 0.119 0.82542 0.07755 0.0
H1434 H 0.134 0.81534 0.09599 0.0
H1435 H 0.1367 0.84227 0.10221 0.0
H1436 H 0.19056 0.80212 0.13379 0.0
H1437 H 0.20182 0.86661 0.15741 0.0
H1438 H 0.18519 0.80503 0.07569 0.0
H1439 H 0.15655 0.79805 0.08058 0.0
H1440 H 0.16848 0.78431 0.09827 0.0
H1441 H 0.20131 0.88808 0.10261 0.0
H1442 H 0.19265 0.88922 0.13334 0.0
H1443 H 0.17197 0.87574 0.10959 0.0
C1444 C 0.13948 0.31081 0.04065 0.0
C1445 C 0.14146 0.32864 0.02621 0.0
C1446 C 0.14182 0.3129 0.06617 0.0
C1447 C 0.14549 0.33303 0.07764 0.0
C1448 C 0.1487 0.35147 0.063 0.0
C1449 C 0.14694 0.34914 0.03752 0.0
C1450 C 0.13903 0.29307 0.08091 0.0
C1451 C 0.15214 0.37308 0.0743 0.0
C1452 C 0.11687 0.32858 0.13823 0.0
C1453 C 0.13512 0.33925 0.15447 0.0
C1454 C 0.12008 0.32595 0.11351 0.0
C1455 C 0.14212 0.33359 0.10455 0.0
C1456 C 0.16057 0.34308 0.12106 0.0
C1457 C 0.1569 0.34603 0.14581 0.0
C1458 C 0.09985 0.316 0.09672 0.0
C1459 C 0.18425 0.3508 0.11245 0.0
H1460 H 0.13547 0.29497 0.03206 0.0
H1461 H 0.14842 0.363 0.02658 0.0
H1462 H 0.15154 0.29879 0.09593 0.0
H1463 H 0.12198 0.28429 0.08922 0.0
H1464 H 0.14095 0.28073 0.06949 0.0
H1465 H 0.15656 0.38656 0.06054 0.0
H1466 H 0.1364 0.3698 0.08364 0.0
H1467 H 0.16568 0.37934 0.0882 0.0
H1468 H 0.0999 0.32302 0.14461 0.0
H1469 H 0.17113 0.35424 0.15813 0.0
H1470 H 0.09848 0.30118 0.08696 0.0
H1471 H 0.10193 0.32864 0.08278 0.0
H1472 H 0.08379 0.31061 0.10662 0.0
H1473 H 0.18453 0.33779 0.10062 0.0
H1474 H 0.19608 0.35446 0.12789 0.0
H1475 H 0.19044 0.36636 0.10142 0.0
C1476 C 0.81585 0.67735 0.48002 0.0
C1477 C 0.83478 0.69905 0.48172 0.0
C1478 C 0.80926 0.66591 0.4576 0.0
C1479 C 0.822 0.6763 0.43633 0.0
C1480 C 0.8421 0.69741 0.43829 0.0
C1481 C 0.84824 0.70852 0.46092 0.0
C1482 C 0.78781 0.64334 0.45643 0.0
C1483 C 0.85635 0.70898 0.4162 0.0
C1484 C 0.80576 0.63916 0.3795 0.0
C1485 C 0.79011 0.64397 0.36872 0.0
C1486 C 0.81722 0.65032 0.40097 0.0
C1487 C 0.81269 0.66645 0.41185 0.0
C1488 C 0.79773 0.67211 0.40013 0.0
C1489 C 0.78656 0.6607 0.37882 0.0
C1490 C 0.83309 0.64386 0.41275 0.0
C1491 C 0.79247 0.68927 0.41089 0.0
H1492 H 0.80549 0.66969 0.49599 0.0
H1493 H 0.86307 0.72516 0.46198 0.0
H1494 H 0.77473 0.64515 0.44639 0.0
H1495 H 0.7907 0.63096 0.44637 0.0
H1496 H 0.78115 0.63646 0.47482 0.0
H1497 H 0.87304 0.72351 0.42123 0.0
H1498 H 0.85903 0.69694 0.40517 0.0
H1499 H 0.84743 0.71525 0.40452 0.0
H1500 H 0.80809 0.62583 0.37193 0.0
H1501 H 0.77413 0.66408 0.37063 0.0
H1502 H 0.82507 0.63372 0.42933 0.0
H1503 H 0.8489 0.65911 0.41852 0.0
H1504 H 0.8374 0.63375 0.40034 0.0
H1505 H 0.78353 0.68293 0.42849 0.0
H1506 H 0.78173 0.69289 0.39867 0.0
H1507 H 0.80829 0.7053 0.41464 0.0
C1508 C 0.30295 0.13512 0.4847 0.0
C1509 C 0.31739 0.12941 0.49696 0.0
C1510 C 0.30519 0.13935 0.4594 0.0
C1511 C 0.32212 0.13766 0.4462 0.0
C1512 C 0.33803 0.13415 0.45905 0.0
C1513 C 0.33549 0.13013 0.4842 0.0
C1514 C 0.2883 0.14375 0.44658 0.0
C1515 C 0.35649 0.13237 0.44595 0.0
C1516 C 0.31111 0.10969 0.38442 0.0
C1517 C 0.32615 0.12747 0.36941 0.0
C1518 C 0.3084 0.1132 0.40904 0.0
C1519 C 0.32091 0.13514 0.41908 0.0
C1520 C 0.33464 0.15354 0.40354 0.0
C1521 C 0.3372 0.14949 0.37885 0.0
C1522 C 0.29346 0.093 0.42472 0.0
C1523 C 0.3478 0.17729 0.41325 0.0
H1524 H 0.28896 0.13467 0.49444 0.0
H1525 H 0.34693 0.12608 0.49364 0.0
H1526 H 0.29645 0.15626 0.43173 0.0
H1527 H 0.27499 0.12784 0.43829 0.0
H1528 H 0.28007 0.14998 0.45941 0.0
H1529 H 0.36893 0.13212 0.45877 0.0
H1530 H 0.34892 0.1166 0.43506 0.0
H1531 H 0.36558 0.14668 0.43319 0.0
H1532 H 0.30219 0.09267 0.37721 0.0
H1533 H 0.34878 0.16338 0.36737 0.0
H1534 H 0.28167 0.09621 0.43553 0.0
H1535 H 0.30403 0.08991 0.43775 0.0
H1536 H 0.28344 0.07744 0.41379 0.0
H1537 H 0.33781 0.18052 0.42693 0.0
H1538 H 0.3529 0.18996 0.39841 0.0
H1539 H 0.36331 0.1797 0.42236 0.0
C1540 C 0.86417 0.21823 0.47368 0.0
C1541 C 0.86272 0.20059 0.48799 0.0
C1542 C 0.8592 0.21538 0.44872 0.0
C1543 C 0.85237 0.19423 0.43764 0.0
C1544 C 0.84875 0.17572 0.45245 0.0
C1545 C 0.85407 0.17913 0.47748 0.0
C1546 C 0.86322 0.23564 0.43386 0.0
C1547 C 0.84084 0.15271 0.44161 0.0
C1548 C 0.8373 0.19454 0.37087 0.0
C1549 C 0.85843 0.20232 0.35985 0.0
C1550 C 0.83432 0.18975 0.39604 0.0
C1551 C 0.85293 0.19303 0.41045 0.0
C1552 C 0.87367 0.19893 0.3989 0.0
C1553 C 0.8761 0.20339 0.37383 0.0
C1554 C 0.81172 0.1828 0.40742 0.0
C1555 C 0.894 0.20254 0.41335 0.0
H1556 H 0.87048 0.23479 0.48171 0.0
H1557 H 0.85278 0.16533 0.4884 0.0
H1558 H 0.87806 0.24085 0.42185 0.0
H1559 H 0.8485 0.23137 0.42201 0.0
H1560 H 0.86642 0.25024 0.44547 0.0
H1561 H 0.83367 0.13929 0.45572 0.0
H1562 H 0.82795 0.14881 0.4273 0.0
H1563 H 0.85534 0.1524 0.43299 0.0
H1564 H 0.82349 0.19354 0.36022 0.0
H1565 H 0.89239 0.20901 0.36541 0.0
H1566 H 0.81218 0.19773 0.41589 0.0
H1567 H 0.8077 0.17006 0.42194 0.0
H1568 H 0.79798 0.17578 0.39366 0.0
H1569 H 0.89995 0.21771 0.42503 0.0
H1570 H 0.90817 0.20499 0.40143 0.0
H1571 H 0.88951 0.18796 0.4255 0.0
C1572 C 0.99698 0.54498 0.30238 0.0
C1573 C 0.98615 0.52707 0.31898 0.0
C1574 C 0.00028 0.54129 0.278 0.0
C1575 C 0.99297 0.51909 0.26977 0.0
C1576 C 0.98303 0.50096 0.28663 0.0
C1577 C 0.97958 0.50512 0.31104 0.0
C1578 C 0.01082 0.5612 0.26079 0.0
C1579 C 0.97547 0.47711 0.27875 0.0
C1580 C 0.98083 0.51375 0.20184 0.0
C1581 C 0.00184 0.51895 0.19207 0.0
C1582 C 0.97714 0.51208 0.22715 0.0
C1583 C 0.99473 0.51526 0.24318 0.0
C1584 C 0.01529 0.51853 0.2333 0.0
C1585 C 0.01869 0.52059 0.20792 0.0
C1586 C 0.95505 0.50886 0.23674 0.0
C1587 C 0.03432 0.52145 0.24958 0.0
H1588 H 0.00235 0.56205 0.30823 0.0
H1589 H 0.97123 0.49116 0.32366 0.0
H1590 H 0.02596 0.56239 0.25199 0.0
H1591 H 0.99869 0.55887 0.24612 0.0
H1592 H 0.01589 0.57744 0.27015 0.0
H1593 H 0.9706 0.46538 0.29448 0.0
H1594 H 0.96073 0.47105 0.26642 0.0
H1595 H 0.98909 0.4765 0.26842 0.0
H1596 H 0.96768 0.51248 0.18983 0.0
H1597 H 0.0349 0.52435 0.20054 0.0
H1598 H 0.95789 0.52488 0.24501 0.0
H1599 H 0.94825 0.49579 0.25118 0.0
H1600 H 0.94218 0.50392 0.22216 0.0
H1601 H 0.04271 0.53861 0.25765 0.0
H1602 H 0.04718 0.51937 0.23939 0.0
H1603 H 0.02782 0.50913 0.26479 0.0
C1604 C 0.45899 0.44637 0.20948 0.0
C1605 C 0.46089 0.46499 0.19672 0.0
C1606 C 0.46403 0.44769 0.23437 0.0
C1607 C 0.47133 0.46824 0.24699 0.0
C1608 C 0.47536 0.48771 0.23374 0.0
C1609 C 0.47 0.48585 0.2087 0.0
C1610 C 0.45957 0.42647 0.24755 0.0
C1611 C 0.48373 0.5101 0.24628 0.0
C1612 C 0.44744 0.45585 0.31078 0.0
C1613 C 0.4649 0.45584 0.32414 0.0
C1614 C 0.45004 0.4617 0.28606 0.0
C1615 C 0.47072 0.46788 0.27424 0.0
C1616 C 0.48914 0.46996 0.28815 0.0
C1617 C 0.486 0.46383 0.31301 0.0
C1618 C 0.4299 0.45932 0.27217 0.0
C1619 C 0.51166 0.47708 0.27648 0.0
H1620 H 0.45233 0.43026 0.20027 0.0
H1621 H 0.47164 0.50038 0.19898 0.0
H1622 H 0.47417 0.42977 0.25914 0.0
H1623 H 0.44472 0.4208 0.25968 0.0
H1624 H 0.45614 0.41251 0.23479 0.0
H1625 H 0.49106 0.52431 0.23309 0.0
H1626 H 0.46944 0.5102 0.25568 0.0
H1627 H 0.49661 0.51293 0.26023 0.0
H1628 H 0.43119 0.45006 0.31937 0.0
H1629 H 0.49962 0.46396 0.32321 0.0
H1630 H 0.42372 0.44481 0.25945 0.0
H1631 H 0.43471 0.47462 0.26112 0.0
H1632 H 0.4158 0.45648 0.28441 0.0
H1633 H 0.51085 0.46248 0.26678 0.0
H1634 H 0.52535 0.48307 0.29025 0.0
H1635 H 0.51598 0.49065 0.26291 0.0
C1636 C 0.54241 0.00416 0.20653 0.0
C1637 C 0.52526 0.98523 0.19461 0.0
C1638 C 0.53978 0.00932 0.23054 0.0
C1639 C 0.51939 0.99521 0.24307 0.0
C1640 C 0.50109 0.97753 0.23024 0.0
C1641 C 0.50426 0.97265 0.20606 0.0
C1642 C 0.55976 0.02852 0.24322 0.0
C1643 C 0.4788 0.96259 0.24258 0.0
C1644 C 0.53434 0.99001 0.30776 0.0
C1645 C 0.53294 0.00753 0.31928 0.0
C1646 C 0.52777 0.9843 0.28347 0.0
C1647 C 0.51945 0.99637 0.27024 0.0
C1648 C 0.51566 0.01241 0.28257 0.0
C1649 C 0.52255 0.01791 0.30704 0.0
C1650 C 0.53197 0.96691 0.27135 0.0
C1651 C 0.50607 0.02509 0.26946 0.0
H1652 H 0.55855 0.01421 0.19754 0.0
H1653 H 0.49087 0.95806 0.19688 0.0
H1654 H 0.55455 0.0393 0.25309 0.0
H1655 H 0.56668 0.0216 0.25683 0.0
H1656 H 0.57345 0.03927 0.23028 0.0
H1657 H 0.46491 0.95429 0.22909 0.0
H1658 H 0.47979 0.9492 0.25291 0.0
H1659 H 0.47462 0.97233 0.25564 0.0
H1660 H 0.54197 0.98164 0.31734 0.0
H1661 H 0.52129 0.03138 0.31592 0.0
H1662 H 0.54616 0.97541 0.25827 0.0
H1663 H 0.51691 0.95465 0.26095 0.0
H1664 H 0.5363 0.95747 0.28471 0.0
H1665 H 0.51985 0.03971 0.25977 0.0
H1666 H 0.4982 0.0316 0.28241 0.0
H1667 H 0.49333 0.01423 0.25574 0.0
C1668 C 0.47609 0.98548 0.70731 0.0
C1669 C 0.46674 0.99769 0.69693 0.0
C1670 C 0.4822 0.98818 0.73213 0.0
C1671 C 0.47857 0.00317 0.74673 0.0
C1672 C 0.47154 0.01727 0.73553 0.0
C1673 C 0.46584 0.01441 0.71079 0.0
C1674 C 0.49064 0.97357 0.74306 0.0
C1675 C 0.46759 0.03368 0.75016 0.0
C1676 C 0.45246 0.98794 0.80915 0.0
C1677 C 0.46924 0.00494 0.82357 0.0
C1678 C 0.4561 0.98584 0.78445 0.0
C1679 C 0.4772 0.00102 0.77381 0.0
C1680 C 0.49506 0.01659 0.78889 0.0
C1681 C 0.49084 0.0185 0.81368 0.0
C1682 C 0.43652 0.96881 0.76928 0.0
C1683 C 0.51808 0.03247 0.77857 0.0
H1684 H 0.47704 0.97265 0.69664 0.0
H1685 H 0.45906 0.02423 0.7027 0.0
H1686 H 0.50299 0.98258 0.75783 0.0
H1687 H 0.47624 0.95823 0.75102 0.0
H1688 H 0.49863 0.96812 0.72905 0.0
H1689 H 0.46435 0.04495 0.73837 0.0
H1690 H 0.45278 0.02418 0.76226 0.0
H1691 H 0.48235 0.04428 0.76188 0.0
H1692 H 0.43586 0.9771 0.81683 0.0
H1693 H 0.50397 0.03157 0.82476 0.0
H1694 H 0.44175 0.95883 0.75791 0.0
H1695 H 0.43086 0.97776 0.7568 0.0
H1696 H 0.42193 0.95698 0.78065 0.0
H1697 H 0.52242 0.02438 0.76363 0.0
H1698 H 0.5313 0.03822 0.79288 0.0
H1699 H 0.51823 0.04757 0.77103 0.0
C1700 C 0.01074 0.48584 0.70305 0.0
C1701 C 0.0321 0.50473 0.69888 0.0
C1702 C 0.00149 0.48038 0.72665 0.0
C1703 C 0.01374 0.49429 0.74661 0.0
C1704 C 0.03427 0.51451 0.74213 0.0
C1705 C 0.04321 0.51946 0.7184 0.0
C1706 C 0.97948 0.45872 0.73046 0.0
C1707 C 0.04777 0.53005 0.7627 0.0
C1708 C 0.98571 0.48087 0.80961 0.0
C1709 C 0.99346 0.46703 0.81941 0.0
C1710 C 0.99242 0.49031 0.7861 0.0
C1711 C 0.00716 0.48577 0.77214 0.0
C1712 C 0.01554 0.47243 0.78238 0.0
C1713 C 0.00865 0.46332 0.80576 0.0
C1714 C 0.98321 0.50456 0.77594 0.0
C1715 C 0.03142 0.46722 0.76839 0.0
H1716 H 0.00172 0.47456 0.6881 0.0
H1717 H 0.05955 0.53432 0.71545 0.0
H1718 H 0.98285 0.44612 0.73928 0.0
H1719 H 0.96825 0.46153 0.74275 0.0
H1720 H 0.9705 0.45152 0.71303 0.0
H1721 H 0.0611 0.54675 0.75594 0.0
H1722 H 0.03664 0.5326 0.7754 0.0
H1723 H 0.056 0.52229 0.77322 0.0
H1724 H 0.97389 0.48374 0.81995 0.0
H1725 H 0.01492 0.45284 0.81319 0.0
H1726 H 0.97158 0.4955 0.76064 0.0
H1727 H 0.99709 0.52063 0.76856 0.0
H1728 H 0.97389 0.50846 0.78987 0.0
H1729 H 0.02312 0.45791 0.75146 0.0
H1730 H 0.03673 0.45692 0.77913 0.0
H1731 H 0.04673 0.48311 0.76296 0.0
C1732 C 0.53631 0.54139 0.81561 0.0
C1733 C 0.53864 0.52403 0.82619 0.0
C1734 C 0.5309 0.54085 0.79092 0.0
C1735 C 0.52772 0.52245 0.77628 0.0
C1736 C 0.52752 0.50366 0.7875 0.0
C1737 C 0.53306 0.50468 0.81242 0.0
C1738 C 0.53108 0.5612 0.78001 0.0
C1739 C 0.52351 0.48339 0.77279 0.0
C1740 C 0.51389 0.52873 0.71035 0.0
C1741 C 0.53568 0.54112 0.70053 0.0
C1742 C 0.51062 0.52076 0.73459 0.0
C1743 C 0.52958 0.52543 0.74922 0.0
C1744 C 0.55136 0.53638 0.7386 0.0
C1745 C 0.55408 0.544 0.7145 0.0
C1746 C 0.48706 0.50866 0.74491 0.0
C1747 C 0.57213 0.54168 0.75325 0.0
H1748 H 0.54032 0.55626 0.8263 0.0
H1749 H 0.5348 0.49117 0.82049 0.0
H1750 H 0.54652 0.5708 0.76881 0.0
H1751 H 0.51633 0.55595 0.7679 0.0
H1752 H 0.5309 0.57268 0.7942 0.0
H1753 H 0.51827 0.46837 0.78456 0.0
H1754 H 0.5104 0.4793 0.75869 0.0
H1755 H 0.53934 0.48713 0.76335 0.0
H1756 H 0.49955 0.52632 0.69963 0.0
H1757 H 0.57094 0.55317 0.7069 0.0
H1758 H 0.48402 0.52081 0.75525 0.0
H1759 H 0.48479 0.49509 0.75763 0.0
H1760 H 0.47416 0.50122 0.73027 0.0
H1761 H 0.57485 0.55426 0.76754 0.0
H1762 H 0.58755 0.54861 0.74179 0.0
H1763 H 0.56988 0.5263 0.76253 0.0
C1764 C 0.38392 0.37684 0.11496 0.0
C1765 C 0.40432 0.3891 0.10233 0.0
C1766 C 0.3698 0.35367 0.11072 0.0
C1767 C 0.37615 0.34272 0.09317 0.0
C1768 C 0.39624 0.3553 0.0796 0.0
C1769 C 0.41019 0.37832 0.08452 0.0
C1770 C 0.34867 0.34074 0.12577 0.0
C1771 C 0.4034 0.34432 0.06043 0.0
C1772 C 0.35802 0.28088 0.099 0.0
C1773 C 0.34091 0.27108 0.0815 0.0
C1774 C 0.36896 0.30408 0.10369 0.0
C1775 C 0.36285 0.31785 0.09023 0.0
C1776 C 0.34514 0.30796 0.07298 0.0
C1777 C 0.33422 0.28458 0.06895 0.0
C1778 C 0.3875 0.31393 0.12255 0.0
C1779 C 0.33839 0.32216 0.05807 0.0
H1780 H 0.37952 0.3852 0.12887 0.0
H1781 H 0.42583 0.38793 0.07455 0.0
H1782 H 0.3339 0.33068 0.11383 0.0
H1783 H 0.35044 0.32871 0.13783 0.0
H1784 H 0.34521 0.35204 0.13725 0.0
H1785 H 0.41844 0.35683 0.05009 0.0
H1786 H 0.40745 0.33217 0.06918 0.0
H1787 H 0.38941 0.33468 0.04742 0.0
H1788 H 0.36292 0.27032 0.10891 0.0
H1789 H 0.32109 0.27696 0.05529 0.0
H1790 H 0.38437 0.32435 0.13574 0.0
H1791 H 0.40389 0.32516 0.11356 0.0
H1792 H 0.38895 0.30069 0.13273 0.0
H1793 H 0.33492 0.33308 0.0701 0.0
H1794 H 0.32323 0.31171 0.04672 0.0
H1795 H 0.35252 0.33343 0.04589 0.0
C1796 C 0.70635 0.06703 0.05639 0.0
C1797 C 0.72337 0.06539 0.06874 0.0
C1798 C 0.6838 0.05429 0.06368 0.0
C1799 C 0.67821 0.03977 0.08403 0.0
C1800 C 0.69521 0.03743 0.09606 0.0
C1801 C 0.71766 0.05022 0.08815 0.0
C1802 C 0.66609 0.05703 0.05017 0.0
C1803 C 0.68987 0.02224 0.11794 0.0
C1804 C 0.62574 0.03038 0.1171 0.0
C1805 C 0.60945 0.00934 0.10802 0.0
C1806 C 0.6484 0.04003 0.11022 0.0
C1807 C 0.65483 0.02843 0.09362 0.0
C1808 C 0.63856 0.00687 0.08492 0.0
C1809 C 0.61602 0.9975 0.09234 0.0
C1810 C 0.66533 0.06295 0.12014 0.0
C1811 C 0.64478 0.99413 0.06702 0.0
H1812 H 0.71081 0.07855 0.04116 0.0
H1813 H 0.73088 0.04913 0.0978 0.0
H1814 H 0.65192 0.0403 0.04472 0.0
H1815 H 0.65908 0.06498 0.06229 0.0
H1816 H 0.67298 0.06764 0.03361 0.0
H1817 H 0.70462 0.02081 0.12391 0.0
H1818 H 0.6845 0.02901 0.13329 0.0
H1819 H 0.67566 0.00511 0.11384 0.0
H1820 H 0.62068 0.03933 0.12953 0.0
H1821 H 0.60338 0.98131 0.08516 0.0
H1822 H 0.67182 0.07546 0.10512 0.0
H1823 H 0.67996 0.06245 0.12813 0.0
H1824 H 0.65791 0.0689 0.13428 0.0
H1825 H 0.64987 0.00339 0.04947 0.0
H1826 H 0.63057 0.97682 0.06355 0.0
H1827 H 0.65942 0.99297 0.07381 0.0
C1828 C 0.94236 0.65249 0.07243 0.0
C1829 C 0.91973 0.64171 0.0799 0.0
C1830 C 0.95656 0.64412 0.07928 0.0
C1831 C 0.94789 0.62452 0.09392 0.0
C1832 C 0.92497 0.61332 0.10112 0.0
C1833 C 0.9112 0.62207 0.09405 0.0
C1834 C 0.98091 0.65646 0.07121 0.0
C1835 C 0.91512 0.59241 0.11682 0.0
C1836 C 0.97813 0.59095 0.09977 0.0
C1837 C 0.98849 0.5981 0.12259 0.0
C1838 C 0.96536 0.59987 0.08979 0.0
C1839 C 0.96298 0.61634 0.10298 0.0
C1840 C 0.97401 0.62414 0.12564 0.0
C1841 C 0.98662 0.61492 0.13515 0.0
C1842 C 0.95381 0.59115 0.06557 0.0
C1843 C 0.97201 0.64181 0.14017 0.0
H1844 H 0.94896 0.66744 0.06116 0.0
H1845 H 0.89384 0.6138 0.10016 0.0
H1846 H 0.9921 0.663 0.08736 0.0
H1847 H 0.98504 0.64471 0.06164 0.0
H1848 H 0.98474 0.67083 0.05892 0.0
H1849 H 0.89671 0.58506 0.11979 0.0
H1850 H 0.91808 0.57942 0.1083 0.0
H1851 H 0.92364 0.59656 0.13481 0.0
H1852 H 0.97941 0.57785 0.09007 0.0
H1853 H 0.99498 0.62085 0.15255 0.0
H1854 H 0.95788 0.60539 0.05305 0.0
H1855 H 0.93525 0.58185 0.0682 0.0
H1856 H 0.95877 0.57965 0.05678 0.0
H1857 H 0.97712 0.65705 0.12888 0.0
H1858 H 0.98257 0.64685 0.15689 0.0
H1859 H 0.95418 0.63521 0.14558 0.0
C1860 C 0.27438 0.33844 0.43201 0.0
C1861 C 0.27026 0.34505 0.45472 0.0
C1862 C 0.296 0.34978 0.42153 0.0
C1863 C 0.31381 0.36807 0.43413 0.0
C1864 C 0.30951 0.37528 0.45662 0.0
C1865 C 0.2878 0.36373 0.46657 0.0
C1866 C 0.29996 0.34175 0.39742 0.0
C1867 C 0.32801 0.39482 0.47056 0.0
C1868 C 0.37491 0.38404 0.42535 0.0
C1869 C 0.38326 0.40403 0.4119 0.0
C1870 C 0.35205 0.37158 0.4318 0.0
C1871 C 0.33721 0.37927 0.42451 0.0
C1872 C 0.34533 0.39888 0.40999 0.0
C1873 C 0.3683 0.41107 0.40392 0.0
C1874 C 0.34402 0.35079 0.44741 0.0
C1875 C 0.32997 0.40747 0.40165 0.0
H1876 H 0.26093 0.32393 0.42285 0.0
H1877 H 0.28458 0.3692 0.48386 0.0
H1878 H 0.3084 0.35608 0.38453 0.0
H1879 H 0.31136 0.33477 0.40005 0.0
H1880 H 0.28401 0.32851 0.38905 0.0
H1881 H 0.3217 0.3987 0.48746 0.0
H1882 H 0.34137 0.39087 0.47558 0.0
H1883 H 0.33597 0.41015 0.45898 0.0
H1884 H 0.38643 0.37863 0.43169 0.0
H1885 H 0.37462 0.42628 0.3931 0.0
H1886 H 0.32887 0.33633 0.43923 0.0
H1887 H 0.3391 0.35388 0.46564 0.0
H1888 H 0.35721 0.34601 0.44982 0.0
H1889 H 0.31457 0.39368 0.39304 0.0
H1890 H 0.33839 0.42161 0.38848 0.0
H1891 H 0.32447 0.41345 0.41761 0.0
C1892 C 0.6354 0.92611 0.43229 0.0
C1893 C 0.65554 0.93173 0.42022 0.0
C1894 C 0.62499 0.9391 0.42927 0.0
C1895 C 0.63476 0.95788 0.41335 0.0
C1896 C 0.65544 0.96399 0.40157 0.0
C1897 C 0.66575 0.95092 0.40538 0.0
C1898 C 0.60318 0.9323 0.44255 0.0
C1899 C 0.66613 0.98366 0.38416 0.0
C1900 C 0.59138 0.97021 0.38612 0.0
C1901 C 0.59404 0.98827 0.40048 0.0
C1902 C 0.60542 0.961 0.38925 0.0
C1903 C 0.62218 0.96977 0.40759 0.0
C1904 C 0.62543 0.98853 0.42164 0.0
C1905 C 0.61141 0.99775 0.4177 0.0
C1906 C 0.60171 0.94131 0.37354 0.0
C1907 C 0.64288 0.99807 0.44163 0.0
H1908 H 0.62779 0.91147 0.44409 0.0
H1909 H 0.68131 0.95514 0.39604 0.0
H1910 H 0.60425 0.94701 0.45227 0.0
H1911 H 0.58915 0.9264 0.42925 0.0
H1912 H 0.59897 0.91858 0.45593 0.0
H1913 H 0.6831 0.9873 0.37804 0.0
H1914 H 0.65518 0.97991 0.36791 0.0
H1915 H 0.6677 0.99903 0.39279 0.0
H1916 H 0.57809 0.96318 0.37258 0.0
H1917 H 0.61328 0.01167 0.42881 0.0
H1918 H 0.59511 0.92587 0.38487 0.0
H1919 H 0.61792 0.94447 0.36552 0.0
H1920 H 0.58955 0.93803 0.35855 0.0
H1921 H 0.63795 0.98551 0.45652 0.0
H1922 H 0.6447 0.01391 0.44932 0.0
H1923 H 0.65953 0.00148 0.43474 0.0
C1924 C 0.00644 0.6151 0.42622 0.0
C1925 C 0.01591 0.6078 0.40832 0.0
C1926 C 0.01675 0.63799 0.43262 0.0
C1927 C 0.03671 0.65382 0.42047 0.0
C1928 C 0.0457 0.64659 0.40159 0.0
C1929 C 0.03528 0.62361 0.3959 0.0
C1930 C 0.00688 0.64507 0.45305 0.0
C1931 C 0.06674 0.66301 0.38793 0.0
C1932 C 0.05851 0.71674 0.4242 0.0
C1933 C 0.0765 0.72355 0.44051 0.0
C1934 C 0.04491 0.69393 0.41792 0.0
C1935 C 0.04928 0.67766 0.42858 0.0
C1936 C 0.06686 0.68441 0.44583 0.0
C1937 C 0.08038 0.70732 0.45142 0.0
C1938 C 0.02652 0.68736 0.3992 0.0
C1939 C 0.0718 0.66751 0.45789 0.0
H1940 H 0.99152 0.60277 0.43587 0.0
H1941 H 0.04233 0.61791 0.38179 0.0
H1942 H 0.01871 0.65108 0.4687 0.0
H1943 H 0.0046 0.65931 0.44719 0.0
H1944 H 0.99036 0.63102 0.45933 0.0
H1945 H 0.07043 0.65491 0.37244 0.0
H1946 H 0.06499 0.67723 0.38083 0.0
H1947 H 0.08142 0.67023 0.40047 0.0
H1948 H 0.05566 0.72937 0.41569 0.0
H1949 H 0.09409 0.71264 0.46434 0.0
H1950 H 0.01027 0.67351 0.40621 0.0
H1951 H 0.03075 0.68099 0.3826 0.0
H1952 H 0.02423 0.70177 0.394 0.0
H1953 H 0.0562 0.65363 0.4661 0.0
H1954 H 0.08485 0.67531 0.47232 0.0
H1955 H 0.07778 0.65988 0.44407 0.0
C1956 C 0.59396 0.61739 0.92844 0.0
C1957 C 0.59949 0.60532 0.91194 0.0
C1958 C 0.60753 0.64082 0.93073 0.0
C1959 C 0.62696 0.65244 0.91595 0.0
C1960 C 0.63308 0.64026 0.89984 0.0
C1961 C 0.61929 0.61675 0.89811 0.0
C1962 C 0.6006 0.6532 0.94836 0.0
C1963 C 0.65359 0.65212 0.88367 0.0
C1964 C 0.64273 0.71286 0.90332 0.0
C1965 C 0.66002 0.72462 0.92024 0.0
C1966 C 0.63255 0.68942 0.90095 0.0
C1967 C 0.63971 0.67746 0.91609 0.0
C1968 C 0.65777 0.68934 0.93258 0.0
C1969 C 0.66781 0.71288 0.93437 0.0
C1970 C 0.61355 0.67737 0.8829 0.0
C1971 C 0.66573 0.67712 0.94913 0.0
H1972 H 0.57885 0.60847 0.9394 0.0
H1973 H 0.62346 0.60743 0.88521 0.0
H1974 H 0.61493 0.66422 0.96044 0.0
H1975 H 0.5959 0.66422 0.93814 0.0
H1976 H 0.58604 0.64149 0.95984 0.0
H1977 H 0.65716 0.64007 0.87382 0.0
H1978 H 0.65092 0.66254 0.87007 0.0
H1979 H 0.66865 0.66369 0.89455 0.0
H1980 H 0.63698 0.72204 0.89215 0.0
H1981 H 0.68107 0.72198 0.9476 0.0
H1982 H 0.59753 0.66666 0.8928 0.0
H1983 H 0.61673 0.66609 0.87112 0.0
H1984 H 0.61129 0.6893 0.87113 0.0
H1985 H 0.65232 0.66694 0.96255 0.0
H1986 H 0.68131 0.68894 0.9592 0.0
H1987 H 0.66902 0.66529 0.9385 0.0
C1988 C 0.28911 0.94586 0.96039 0.0
C1989 C 0.27037 0.92807 0.94884 0.0
C1990 C 0.31086 0.95476 0.95078 0.0
C1991 C 0.31402 0.9458 0.9289 0.0
C1992 C 0.29511 0.92845 0.91656 0.0
C1993 C 0.27344 0.91976 0.9267 0.0
C1994 C 0.33053 0.97334 0.96449 0.0
C1995 C 0.29785 0.9186 0.89309 0.0
C1996 C 0.37129 0.98244 0.89959 0.0
C1997 C 0.38359 0.97273 0.90882 0.0
C1998 C 0.34826 0.97319 0.90493 0.0
C1999 C 0.33735 0.95387 0.92001 0.0
C2000 C 0.3495 0.94357 0.92872 0.0
C2001 C 0.37244 0.9531 0.92298 0.0
C2002 C 0.33582 0.98452 0.89512 0.0
C2003 C 0.33855 0.92308 0.94503 0.0
H2004 H 0.28681 0.95281 0.97714 0.0
H2005 H 0.25902 0.90602 0.91772 0.0
H2006 H 0.34211 0.96734 0.97051 0.0
H2007 H 0.34029 0.98808 0.95242 0.0
H2008 H 0.32508 0.97901 0.98077 0.0
H2009 H 0.28136 0.90667 0.88465 0.0
H2010 H 0.30796 0.93225 0.87988 0.0
H2011 H 0.30716 0.90949 0.89665 0.0
H2012 H 0.37971 0.99735 0.88826 0.0
H2013 H 0.38187 0.94562 0.93035 0.0
H2014 H 0.33135 0.99221 0.91035 0.0
H2015 H 0.31982 0.97193 0.88633 0.0
H2016 H 0.34604 0.99794 0.8817 0.0
H2017 H 0.33405 0.92767 0.9627 0.0
H2018 H 0.3498 0.91604 0.94865 0.0
H2019 H 0.32271 0.90971 0.9367 0.0
C2020 C 0.05642 0.34421 0.93262 0.0
C2021 C 0.0672 0.35042 0.95534 0.0
C2022 C 0.04585 0.35547 0.92276 0.0
C2023 C 0.04614 0.37339 0.93591 0.0
C2024 C 0.05717 0.37987 0.95874 0.0
C2025 C 0.06755 0.3683 0.96817 0.0
C2026 C 0.03419 0.34807 0.89839 0.0
C2027 C 0.05803 0.39906 0.97321 0.0
C2028 C 0.03795 0.41774 0.90379 0.0
C2029 C 0.01575 0.41144 0.91032 0.0
C2030 C 0.04783 0.40512 0.91138 0.0
C2031 C 0.03517 0.38565 0.92581 0.0
C2032 C 0.01248 0.3787 0.93174 0.0
C2033 C 0.00303 0.3917 0.92391 0.0
C2034 C 0.07204 0.41301 0.90458 0.0
C2035 C 0.99845 0.35798 0.94706 0.0
H2036 H 0.05581 0.3302 0.92279 0.0
H2037 H 0.07611 0.37335 0.98556 0.0
H2038 H 0.01604 0.34259 0.90041 0.0
H2039 H 0.04149 0.36243 0.88545 0.0
H2040 H 0.03568 0.33397 0.89037 0.0
H2041 H 0.06724 0.40193 0.9907 0.0
H2042 H 0.06645 0.41485 0.96239 0.0
H2043 H 0.04066 0.39549 0.9772 0.0
H2044 H 0.04771 0.43272 0.89286 0.0
H2045 H 0.98594 0.38683 0.92917 0.0
H2046 H 0.07334 0.39917 0.89564 0.0
H2047 H 0.08258 0.41775 0.92127 0.0
H2048 H 0.07914 0.42779 0.89214 0.0
H2049 H 0.99875 0.3432 0.93919 0.0
H2050 H 0.98063 0.35394 0.94857 0.0
H2051 H 0.00571 0.36065 0.96564 0.0
C2052 C 0.63079 0.58961 0.60031 0.0
C2053 C 0.6182 0.598 0.61185 0.0
C2054 C 0.65308 0.60406 0.59294 0.0
C2055 C 0.66308 0.62753 0.59713 0.0
C2056 C 0.65068 0.63611 0.60921 0.0
C2057 C 0.62836 0.62123 0.61641 0.0
C2058 C 0.66569 0.59424 0.57997 0.0
C2059 C 0.66085 0.66104 0.61404 0.0
C2060 C 0.72679 0.66052 0.59002 0.0
C2061 C 0.72892 0.66731 0.56563 0.0
C2062 C 0.70545 0.64836 0.601 0.0
C2063 C 0.68591 0.64303 0.58722 0.0
C2064 C 0.6881 0.65088 0.56299 0.0
C2065 C 0.70957 0.66291 0.55252 0.0
C2066 C 0.70374 0.64029 0.6269 0.0
C2067 C 0.6677 0.64569 0.54773 0.0
H2068 H 0.623 0.57176 0.5964 0.0
H2069 H 0.61885 0.62777 0.62566 0.0
H2070 H 0.66946 0.60068 0.56101 0.0
H2071 H 0.68204 0.59961 0.58914 0.0
H2072 H 0.65595 0.57551 0.57938 0.0
H2073 H 0.6495 0.66484 0.62499 0.0
H2074 H 0.67713 0.66761 0.6238 0.0
H2075 H 0.66445 0.67028 0.59652 0.0
H2076 H 0.74172 0.66385 0.60016 0.0
H2077 H 0.71122 0.66859 0.53384 0.0
H2078 H 0.69612 0.62168 0.62705 0.0
H2079 H 0.69256 0.64437 0.63772 0.0
H2080 H 0.72049 0.64791 0.63593 0.0
H2081 H 0.65763 0.62726 0.54435 0.0
H2082 H 0.6724 0.65451 0.52988 0.0
H2083 H 0.65669 0.65065 0.55756 0.0
C2084 C 0.40931 0.03949 0.62532 0.0
C2085 C 0.40539 0.01997 0.61297 0.0
C2086 C 0.39599 0.04934 0.62084 0.0
C2087 C 0.37868 0.0397 0.60312 0.0
C2088 C 0.3743 0.01964 0.59098 0.0
C2089 C 0.3876 0.00984 0.59629 0.0
C2090 C 0.40088 0.07044 0.63456 0.0
C2091 C 0.35628 0.00912 0.57165 0.0
C2092 C 0.3358 0.05953 0.60277 0.0
C2093 C 0.34563 0.07738 0.58611 0.0
C2094 C 0.3461 0.04672 0.6082 0.0
C2095 C 0.36638 0.05163 0.59621 0.0
C2096 C 0.37582 0.06908 0.57862 0.0
C2097 C 0.36546 0.08192 0.57401 0.0
C2098 C 0.33579 0.02857 0.62741 0.0
C2099 C 0.39715 0.07453 0.56505 0.0
H2100 H 0.42293 0.04709 0.63844 0.0
H2101 H 0.38476 0.99481 0.58668 0.0
H2102 H 0.40739 0.08492 0.62181 0.0
H2103 H 0.38517 0.06842 0.64277 0.0
H2104 H 0.41354 0.07459 0.64924 0.0
H2105 H 0.35397 0.99273 0.56513 0.0
H2106 H 0.33994 0.00641 0.57873 0.0
H2107 H 0.36094 0.02077 0.5559 0.0
H2108 H 0.32052 0.05618 0.61217 0.0
H2109 H 0.37281 0.09553 0.56086 0.0
H2110 H 0.34745 0.03326 0.64316 0.0
H2111 H 0.33333 0.01236 0.62018 0.0
H2112 H 0.3193 0.02595 0.63398 0.0
H2113 H 0.41154 0.08111 0.57794 0.0
H2114 H 0.40121 0.0873 0.55053 0.0
H2115 H 0.3955 0.05902 0.55666 0.0
C2116 C 0.98036 0.39008 0.59786 0.0
C2117 C 0.98964 0.39359 0.62128 0.0
C2118 C 0.96744 0.36818 0.58838 0.0
C2119 C 0.964 0.34945 0.60262 0.0
C2120 C 0.97413 0.35302 0.62587 0.0
C2121 C 0.98674 0.37502 0.63494 0.0
C2122 C 0.95677 0.36502 0.56358 0.0
C2123 C 0.97113 0.33353 0.64149 0.0
C2124 C 0.9114 0.29242 0.59408 0.0
C2125 C 0.91965 0.28049 0.5809 0.0
C2126 C 0.92553 0.31504 0.60061 0.0
C2127 C 0.94861 0.32603 0.59407 0.0
C2128 C 0.95708 0.31425 0.58057 0.0
C2129 C 0.94248 0.29165 0.57406 0.0
C2130 C 0.91584 0.32704 0.61499 0.0
C2131 C 0.98162 0.32541 0.57337 0.0
H2132 H 0.98252 0.40442 0.58734 0.0
H2133 H 0.99429 0.37774 0.65285 0.0
H2134 H 0.96081 0.35422 0.55202 0.0
H2135 H 0.93814 0.35626 0.56551 0.0
H2136 H 0.96246 0.38133 0.55409 0.0
H2137 H 0.98136 0.33928 0.65842 0.0
H2138 H 0.95312 0.32294 0.64661 0.0
H2139 H 0.97595 0.32267 0.63113 0.0
H2140 H 0.89393 0.28396 0.59978 0.0
H2141 H 0.94897 0.28277 0.56352 0.0
H2142 H 0.9196 0.34295 0.60572 0.0
H2143 H 0.92382 0.33162 0.63325 0.0
H2144 H 0.89729 0.31652 0.61739 0.0
H2145 H 0.98649 0.34107 0.56296 0.0
H2146 H 0.98539 0.31418 0.56215 0.0
H2147 H 0.99233 0.33033 0.58994 0.0
C2148 C 0.95947 0.71474 0.7597 0.0
C2149 C 0.94803 0.69453 0.77287 0.0
C2150 C 0.98192 0.72335 0.75243 0.0
C2151 C 0.99324 0.71147 0.75847 0.0
C2152 C 0.982 0.69134 0.77225 0.0
C2153 C 0.95949 0.68309 0.77926 0.0
C2154 C 0.9933 0.74481 0.73761 0.0
C2155 C 0.99359 0.67829 0.77913 0.0
C2156 C 0.04066 0.72085 0.71591 0.0
C2157 C 0.05975 0.73691 0.72863 0.0
C2158 C 0.01899 0.71204 0.72572 0.0
C2159 C 0.0163 0.7194 0.7489 0.0
C2160 C 0.03551 0.73509 0.76221 0.0
C2161 C 0.05705 0.74368 0.75189 0.0
C2162 C 0.99892 0.69523 0.711 0.0
C2163 C 0.03326 0.74329 0.787 0.0
H2164 H 0.95065 0.72352 0.75444 0.0
H2165 H 0.95085 0.66766 0.78977 0.0
H2166 H 0.00948 0.7572 0.74622 0.0
H2167 H 0.99728 0.74114 0.71917 0.0
H2168 H 0.98259 0.75269 0.73564 0.0
H2169 H 0.98297 0.6637 0.79113 0.0
H2170 H 0.99772 0.67194 0.76244 0.0
H2171 H 0.00973 0.68949 0.78858 0.0
H2172 H 0.04266 0.71516 0.69817 0.0
H2173 H 0.07172 0.75618 0.76174 0.0
H2174 H 0.98795 0.7024 0.70662 0.0
H2175 H 0.98865 0.67965 0.72175 0.0
H2176 H 0.00398 0.69059 0.69369 0.0
H2177 H 0.02431 0.75298 0.7853 0.0
H2178 H 0.04991 0.75426 0.7957 0.0
H2179 H 0.02302 0.72875 0.79917 0.0
C2180 C 0.32565 0.27592 0.77207 0.0
C2181 C 0.31878 0.26483 0.79457 0.0
C2182 C 0.31448 0.28638 0.76166 0.0
C2183 C 0.296 0.28566 0.77407 0.0
C2184 C 0.28877 0.27417 0.79657 0.0
C2185 C 0.30025 0.26392 0.80654 0.0
C2186 C 0.32268 0.29852 0.73764 0.0
C2187 C 0.26899 0.27286 0.81024 0.0
C2188 C 0.27898 0.32973 0.76232 0.0
C2189 C 0.25976 0.31774 0.74774 0.0
C2190 C 0.29136 0.31971 0.77042 0.0
C2191 C 0.28432 0.29715 0.76379 0.0
C2192 C 0.26534 0.28518 0.7485 0.0
C2193 C 0.25331 0.29563 0.74064 0.0
C2194 C 0.31155 0.33302 0.78671 0.0
C2195 C 0.25739 0.26113 0.74095 0.0
H2196 H 0.3401 0.27691 0.76286 0.0
H2197 H 0.29465 0.25506 0.82372 0.0
H2198 H 0.30866 0.29177 0.72426 0.0
H2199 H 0.32846 0.3167 0.74008 0.0
H2200 H 0.33679 0.29687 0.72994 0.0
H2201 H 0.26531 0.26298 0.82736 0.0
H2202 H 0.27247 0.2901 0.81481 0.0
H2203 H 0.25369 0.26495 0.79861 0.0
H2204 H 0.28394 0.34672 0.76808 0.0
H2205 H 0.23873 0.28642 0.729 0.0
H2206 H 0.32652 0.33285 0.77923 0.0
H2207 H 0.30816 0.32507 0.80498 0.0
H2208 H 0.31569 0.35083 0.78886 0.0
H2209 H 0.27142 0.25988 0.73244 0.0
H2210 H 0.24308 0.25461 0.72791 0.0
H2211 H 0.25193 0.25008 0.75726 0.0
C2212 C 0.7382 0.04341 0.79264 0.0
C2213 C 0.73599 0.06062 0.78145 0.0
C2214 C 0.72976 0.02223 0.78159 0.0
C2215 C 0.71878 0.0181 0.75877 0.0
C2216 C 0.71685 0.03552 0.74712 0.0
C2217 C 0.72552 0.0566 0.75859 0.0
C2218 C 0.73237 0.00418 0.79449 0.0
C2219 C 0.70521 0.03172 0.7228 0.0
C2220 C 0.71347 0.96821 0.72296 0.0
C2221 C 0.69161 0.95114 0.72914 0.0
C2222 C 0.72233 0.99024 0.73194 0.0
C2223 C 0.70899 0.99537 0.74743 0.0
C2224 C 0.68668 0.97841 0.75316 0.0
C2225 C 0.67827 0.9565 0.74398 0.0
C2226 C 0.74617 0.00787 0.72533 0.0
C2227 C 0.67192 0.98324 0.76961 0.0
H2228 H 0.74659 0.04654 0.81011 0.0
H2229 H 0.72353 0.06972 0.74997 0.0
H2230 H 0.71551 0.98946 0.79843 0.0
H2231 H 0.74139 0.99817 0.78261 0.0
H2232 H 0.74179 0.01027 0.8119 0.0
H2233 H 0.70593 0.04726 0.7157 0.0
H2234 H 0.71307 0.02574 0.70926 0.0
H2235 H 0.68726 0.01837 0.72455 0.0
H2236 H 0.72374 0.96433 0.71115 0.0
H2237 H 0.66148 0.94342 0.74907 0.0
H2238 H 0.75677 0.01349 0.74198 0.0
H2239 H 0.74643 0.02292 0.71744 0.0
H2240 H 0.7539 0.00147 0.71208 0.0
H2241 H 0.67938 0.98755 0.78812 0.0
H2242 H 0.65451 0.96863 0.77105 0.0
H2243 H 0.671 0.99801 0.76276 0.0
C2244 C 0.31128 0.03521 0.28128 0.0
C2245 C 0.29996 0.04683 0.2751 0.0
C2246 C 0.30335 0.013 0.2733 0.0
C2247 C 0.28368 0.00225 0.25873 0.0
C2248 C 0.27199 0.01377 0.25273 0.0
C2249 C 0.28027 0.03591 0.26099 0.0
C2250 C 0.31617 0.00118 0.28016 0.0
C2251 C 0.25104 0.00292 0.23708 0.0
C2252 C 0.27583 0.95571 0.21552 0.0
C2253 C 0.25965 0.9363 0.22772 0.0
C2254 C 0.28402 0.97721 0.22562 0.0
C2255 C 0.27594 0.97941 0.24856 0.0
C2256 C 0.25992 0.95991 0.26124 0.0
C2257 C 0.25194 0.93857 0.25064 0.0
C2258 C 0.30116 0.99761 0.21156 0.0
C2259 C 0.25092 0.96162 0.28577 0.0
H2260 H 0.3263 0.04345 0.29247 0.0
H2261 H 0.2716 0.04487 0.25588 0.0
H2262 H 0.30473 0.98488 0.28921 0.0
H2263 H 0.32278 0.9973 0.26351 0.0
H2264 H 0.33056 0.0115 0.29253 0.0
H2265 H 0.24336 0.01379 0.23501 0.0
H2266 H 0.25527 0.99935 0.21872 0.0
H2267 H 0.2383 0.98657 0.24507 0.0
H2268 H 0.28228 0.95412 0.19809 0.0
H2269 H 0.23932 0.92369 0.26009 0.0
H2270 H 0.31653 0.00752 0.22273 0.0
H2271 H 0.29417 0.00877 0.20739 0.0
H2272 H 0.30609 0.99296 0.19418 0.0
H2273 H 0.26508 0.97135 0.29856 0.0
H2274 H 0.23948 0.94479 0.29384 0.0
H2275 H 0.24154 0.97087 0.28391 0.0
C2276 C 0.04533 0.29704 0.26435 0.0
C2277 C 0.05606 0.31443 0.24729 0.0
C2278 C 0.02221 0.28734 0.26903 0.0
C2279 C 0.00947 0.29499 0.25601 0.0
C2280 C 0.02035 0.31303 0.23926 0.0
C2281 C 0.04363 0.32268 0.23524 0.0
C2282 C 0.01131 0.2684 0.28735 0.0
C2283 C 0.00726 0.32143 0.22482 0.0
C2284 C 0.94802 0.2505 0.24888 0.0
C2285 C 0.93779 0.25677 0.26695 0.0
C2286 C 0.97122 0.26342 0.2444 0.0
C2287 C 0.98456 0.28287 0.25867 0.0
C2288 C 0.97422 0.28965 0.27651 0.0
C2289 C 0.95085 0.27657 0.28031 0.0
C2290 C 0.98156 0.25584 0.22492 0.0
C2291 C 0.98795 0.31011 0.29229 0.0
H2292 H 0.05508 0.29094 0.27389 0.0
H2293 H 0.05196 0.33604 0.22193 0.0
H2294 H 0.00134 0.27197 0.30072 0.0
H2295 H -0.00053 0.25247 0.2779 0.0
H2296 H 0.0239 0.26576 0.29737 0.0
H2297 H 0.01847 0.33672 0.214 0.0
H2298 H 0.99555 0.308 0.21219 0.0
H2299 H 0.99684 0.32537 0.23713 0.0
H2300 H 0.9378 0.23535 0.23834 0.0
H2301 H 0.94291 0.28128 0.29441 0.0
H2302 H 0.99294 0.25063 0.23343 0.0
H2303 H 0.9919 0.26998 0.21233 0.0
H2304 H 0.9686 0.24143 0.21414 0.0
H2305 H -0.00071 0.30709 0.30417 0.0
H2306 H 0.97716 0.3141 0.30399 0.0
H2307 H 0.99879 0.32503 0.28086 0.0
C2308 C 0.71172 0.67352 0.27595 0.0
C2309 C 0.73311 0.6759 0.27296 0.0
C2310 C 0.70515 0.68657 0.26239 0.0
C2311 C 0.72056 0.70277 0.24579 0.0
C2312 C 0.7422 0.70517 0.24257 0.0
C2313 C 0.74813 0.69144 0.25603 0.0
C2314 C 0.68171 0.68306 0.26591 0.0
C2315 C 0.7592 0.72254 0.22536 0.0
C2316 C 0.69418 0.72213 0.19783 0.0
C2317 C 0.69554 0.74118 0.209 0.0
C2318 C 0.70301 0.70988 0.2092 0.0
C2319 C 0.71382 0.71715 0.23206 0.0
C2320 C 0.71618 0.73701 0.24286 0.0
C2321 C 0.70674 0.74865 0.23132 0.0
C2322 C 0.69967 0.6885 0.19737 0.0
C2323 C 0.72799 0.74553 0.267 0.0
H2324 H 0.70005 0.66124 0.28884 0.0
H2325 H 0.76471 0.69327 0.25391 0.0
H2326 H 0.68277 0.69872 0.27305 0.0
H2327 H 0.67276 0.67926 0.24819 0.0
H2328 H 0.67147 0.66907 0.27876 0.0
H2329 H 0.77514 0.72198 0.22462 0.0
H2330 H 0.75206 0.71987 0.20673 0.0
H2331 H 0.76317 0.73966 0.23121 0.0
H2332 H 0.68526 0.71621 0.18071 0.0
H2333 H 0.70794 0.76351 0.23978 0.0
H2334 H 0.68808 0.67376 0.20867 0.0
H2335 H 0.71592 0.68865 0.19624 0.0
H2336 H 0.69244 0.68611 0.17877 0.0
H2337 H 0.71783 0.73362 0.28167 0.0
H2338 H 0.73056 0.76247 0.27159 0.0
H2339 H 0.74463 0.74644 0.26674 0.0
C2340 C 0.2998 0.18392 0.14539 0.0
C2341 C 0.29675 0.17007 0.12522 0.0
C2342 C 0.30848 0.18119 0.16741 0.0
C2343 C 0.31381 0.16381 0.16963 0.0
C2344 C 0.3107 0.14965 0.14935 0.0
C2345 C 0.30247 0.15315 0.12721 0.0
C2346 C 0.31219 0.19712 0.18823 0.0
C2347 C 0.31588 0.13071 0.15115 0.0
C2348 C 0.35595 0.16959 0.21813 0.0
C2349 C 0.34182 0.15622 0.23703 0.0
C2350 C 0.34705 0.17241 0.19628 0.0
C2351 C 0.32338 0.16109 0.19295 0.0
C2352 C 0.30898 0.14777 0.21213 0.0
C2353 C 0.31839 0.14571 0.23412 0.0
C2354 C 0.36301 0.18733 0.17665 0.0
C2355 C 0.28367 0.13519 0.20915 0.0
H2356 H 0.29566 0.19723 0.14387 0.0
H2357 H 0.30002 0.14237 0.1117 0.0
H2358 H 0.30217 0.18751 0.2043 0.0
H2359 H 0.3302 0.20599 0.19372 0.0
H2360 H 0.3074 0.20994 0.18344 0.0
H2361 H 0.31167 0.12063 0.13412 0.0
H2362 H 0.33405 0.13764 0.15515 0.0
H2363 H 0.30624 0.11933 0.16642 0.0
H2364 H 0.37409 0.17767 0.22036 0.0
H2365 H 0.30746 0.13502 0.24855 0.0
H2366 H 0.35898 0.2006 0.17153 0.0
H2367 H 0.36096 0.17722 0.16008 0.0
H2368 H 0.38094 0.19561 0.18249 0.0
H2369 H 0.27767 0.1472 0.20516 0.0
H2370 H 0.27483 0.12534 0.22565 0.0
H2371 H 0.27887 0.12348 0.19344 0.0
C2372 C 0.80223 0.12279 0.13594 0.0
C2373 C 0.81851 0.13275 0.11754 0.0
C2374 C 0.80358 0.13444 0.15741 0.0
C2375 C 0.82196 0.1565 0.16087 0.0
C2376 C 0.8383 0.16686 0.14215 0.0
C2377 C 0.83623 0.15491 0.12049 0.0
C2378 C 0.78545 0.123 0.17652 0.0
C2379 C 0.85828 0.19027 0.14533 0.0
C2380 C 0.81646 0.19404 0.2081 0.0
C2381 C 0.82759 0.19147 0.22822 0.0
C2382 C 0.8143 0.18259 0.18619 0.0
C2383 C 0.82395 0.16858 0.18415 0.0
C2384 C 0.83492 0.16562 0.20455 0.0
C2385 C 0.8364 0.17693 0.22648 0.0
C2386 C 0.80191 0.18569 0.16514 0.0
C2387 C 0.84561 0.15099 0.20302 0.0
H2388 H 0.78837 0.10569 0.13358 0.0
H2389 H 0.84891 0.16252 0.10635 0.0
H2390 H 0.7929 0.12074 0.19348 0.0
H2391 H 0.77801 0.13369 0.1811 0.0
H2392 H 0.7717 0.10621 0.17048 0.0
H2393 H 0.86941 0.19599 0.12905 0.0
H2394 H 0.85244 0.20246 0.14895 0.0
H2395 H 0.86834 0.1906 0.16133 0.0
H2396 H 0.80965 0.2053 0.20941 0.0
H2397 H 0.84532 0.17519 0.24187 0.0
H2398 H 0.78797 0.16907 0.15904 0.0
H2399 H 0.81352 0.19337 0.14948 0.0
H2400 H 0.79476 0.19661 0.16996 0.0
H2401 H 0.83267 0.13344 0.19832 0.0
H2402 H 0.85384 0.15075 0.22036 0.0
H2403 H 0.85844 0.15723 0.1883 0.0
C2404 C 0.80432 0.63162 0.22022 0.0
C2405 C 0.79929 0.64472 0.23576 0.0
C2406 C 0.81656 0.6406 0.19866 0.0
C2407 C 0.82343 0.66313 0.19208 0.0
C2408 C 0.81862 0.67658 0.20793 0.0
C2409 C 0.80673 0.66724 0.22977 0.0
C2410 C 0.82178 0.6258 0.18272 0.0
C2411 C 0.82537 0.70055 0.20141 0.0
C2412 C 0.87177 0.6907 0.14691 0.0
C2413 C 0.8605 0.68737 0.12457 0.0
C2414 C 0.85994 0.68333 0.16894 0.0
C2415 C 0.83614 0.67257 0.16888 0.0
C2416 C 0.82459 0.66954 0.14648 0.0
C2417 C 0.8369 0.67679 0.12453 0.0
C2418 C 0.87296 0.68649 0.19223 0.0
C2419 C 0.79921 0.65838 0.14571 0.0
H2420 H 0.79825 0.61408 0.22478 0.0
H2421 H 0.80227 0.67715 0.24151 0.0
H2422 H 0.81356 0.62346 0.16472 0.0
H2423 H 0.84023 0.63403 0.1795 0.0
H2424 H 0.81594 0.60892 0.1909 0.0
H2425 H 0.82041 0.70878 0.21565 0.0
H2426 H 0.84389 0.71067 0.19871 0.0
H2427 H 0.81732 0.7008 0.18396 0.0
H2428 H 0.89001 0.69875 0.14722 0.0
H2429 H 0.82809 0.67428 0.1074 0.0
H2430 H 0.86814 0.66978 0.20022 0.0
H2431 H 0.86869 0.69576 0.20581 0.0
H2432 H 0.8915 0.69586 0.18929 0.0
H2433 H 0.79158 0.64055 0.15159 0.0
H2434 H 0.79287 0.65877 0.1272 0.0
H2435 H 0.79335 0.66689 0.15858 0.0
C2436 C 0.16432 0.29703 0.38309 0.0
C2437 C 0.17459 0.31131 0.40311 0.0
C2438 C 0.1617 0.30539 0.36078 0.0
C2439 C 0.16996 0.32878 0.35811 0.0
C2440 C 0.18043 0.34338 0.37824 0.0
C2441 C 0.18239 0.33442 0.40066 0.0
C2442 C 0.14981 0.28908 0.34015 0.0
C2443 C 0.18973 0.36847 0.376 0.0
C2444 C 0.17745 0.35057 0.29266 0.0
C2445 C 0.15821 0.35257 0.28977 0.0
C2446 C 0.18187 0.34341 0.31505 0.0
C2447 C 0.16636 0.33756 0.33462 0.0
C2448 C 0.14661 0.339 0.33139 0.0
C2449 C 0.14296 0.34674 0.30917 0.0
C2450 C 0.20328 0.34241 0.31791 0.0
C2451 C 0.12921 0.33223 0.35135 0.0
H2452 H 0.15812 0.27909 0.38492 0.0
H2453 H 0.19056 0.34552 0.416 0.0
H2454 H 0.13472 0.29001 0.33452 0.0
H2455 H 0.1611 0.29373 0.32409 0.0
H2456 H 0.14435 0.27137 0.34521 0.0
H2457 H 0.19831 0.37766 0.39292 0.0
H2458 H 0.20191 0.37527 0.36069 0.0
H2459 H 0.17589 0.37192 0.37181 0.0
H2460 H 0.18939 0.35537 0.27777 0.0
H2461 H 0.12799 0.34817 0.30691 0.0
H2462 H 0.19913 0.32487 0.32191 0.0
H2463 H 0.21315 0.353 0.33357 0.0
H2464 H 0.214 0.34829 0.30133 0.0
H2465 H 0.12287 0.3144 0.3566 0.0
H2466 H 0.11462 0.33409 0.34578 0.0
H2467 H 0.13699 0.34271 0.36778 0.0
C2468 C 0.72158 0.8719 0.3563 0.0
C2469 C 0.706 0.868 0.37493 0.0
C2470 C 0.71483 0.85988 0.33431 0.0
C2471 C 0.69181 0.84383 0.33055 0.0
C2472 C 0.67602 0.83951 0.34947 0.0
C2473 C 0.68335 0.85151 0.37158 0.0
C2474 C 0.73234 0.86458 0.31497 0.0
C2475 C 0.65128 0.82268 0.3461 0.0
C2476 C 0.67069 0.82798 0.26512 0.0
C2477 C 0.66871 0.80668 0.26307 0.0
C2478 C 0.67826 0.84035 0.28698 0.0
C2479 C 0.68439 0.83135 0.30695 0.0
C2480 C 0.68337 0.81029 0.30441 0.0
C2481 C 0.67529 0.79813 0.28265 0.0
C2482 C 0.67886 0.86263 0.28906 0.0
C2483 C 0.69031 0.80032 0.3249 0.0
H2484 H 0.73914 0.88462 0.35885 0.0
H2485 H 0.67122 0.84868 0.38579 0.0
H2486 H 0.73191 0.84871 0.30976 0.0
H2487 H 0.7285 0.87127 0.29836 0.0
H2488 H 0.74967 0.87695 0.32111 0.0
H2489 H 0.64114 0.82135 0.36246 0.0
H2490 H 0.64462 0.82767 0.33031 0.0
H2491 H 0.64895 0.80577 0.34202 0.0
H2492 H 0.6652 0.8344 0.25014 0.0
H2493 H 0.67372 0.7816 0.28106 0.0
H2494 H 0.69604 0.87616 0.29416 0.0
H2495 H 0.66723 0.86163 0.30372 0.0
H2496 H 0.67391 0.86747 0.27181 0.0
H2497 H 0.70764 0.81258 0.33108 0.0
H2498 H 0.68982 0.78445 0.31946 0.0
H2499 H 0.67889 0.79668 0.34069 0.0
C2500 C 0.13838 0.84508 0.377 0.0
C2501 C 0.14217 0.83392 0.39629 0.0
C2502 C 0.14946 0.84848 0.35455 0.0
C2503 C 0.16444 0.84013 0.35102 0.0
C2504 C 0.16871 0.82923 0.37061 0.0
C2505 C 0.15768 0.82644 0.39312 0.0
C2506 C 0.14483 0.86071 0.33449 0.0
C2507 C 0.18443 0.81993 0.36755 0.0
C2508 C 0.17668 0.82952 0.28584 0.0
C2509 C 0.19837 0.8479 0.28218 0.0
C2510 C 0.16534 0.82678 0.30814 0.0
C2511 C 0.17579 0.84307 0.32691 0.0
C2512 C 0.19725 0.86221 0.32268 0.0
C2513 C 0.20834 0.86422 0.30054 0.0
C2514 C 0.14257 0.80604 0.31198 0.0
C2515 C 0.20878 0.88031 0.34179 0.0
H2516 H 0.12643 0.85094 0.37936 0.0
H2517 H 0.1604 0.81752 0.40784 0.0
H2518 H 0.16089 0.87524 0.32799 0.0
H2519 H 0.13695 0.84925 0.31874 0.0
H2520 H 0.13347 0.867 0.34049 0.0
H2521 H 0.18596 0.81189 0.38446 0.0
H2522 H 0.17822 0.80724 0.35269 0.0
H2523 H 0.20146 0.83363 0.36221 0.0
H2524 H 0.16914 0.81669 0.27184 0.0
H2525 H 0.22517 0.87845 0.29772 0.0
H2526 H 0.12994 0.81096 0.31706 0.0
H2527 H 0.14354 0.79596 0.32727 0.0
H2528 H 0.13652 0.79521 0.29549 0.0
H2529 H 0.19742 0.88655 0.34787 0.0
H2530 H 0.22473 0.89486 0.33502 0.0
H2531 H 0.21268 0.87318 0.35797 0.0
C2532 C 0.67625 0.85313 0.76801 0.0
C2533 C 0.65282 0.84083 0.76484 0.0
C2534 C 0.68617 0.85125 0.7897 0.0
C2535 C 0.67234 0.83629 0.80826 0.0
C2536 C 0.64875 0.82316 0.80457 0.0
C2537 C 0.63928 0.82585 0.78308 0.0
C2538 C 0.71133 0.8658 0.7931 0.0
C2539 C 0.63346 0.80648 0.82347 0.0
C2540 C 0.69911 0.81555 0.85441 0.0
C2541 C 0.70032 0.8279 0.87534 0.0
C2542 C 0.69007 0.81814 0.83257 0.0
C2543 C 0.68247 0.83389 0.83133 0.0
C2544 C 0.68381 0.84661 0.85234 0.0
C2545 C 0.69244 0.84323 0.87425 0.0
C2546 C 0.68832 0.80372 0.81093 0.0
C2547 C 0.67621 0.86384 0.85159 0.0
H2548 H 0.68666 0.86507 0.75412 0.0
H2549 H 0.62112 0.81641 0.78064 0.0
H2550 H 0.71487 0.87675 0.80931 0.0
H2551 H 0.71896 0.85508 0.7965 0.0
H2552 H 0.7197 0.87665 0.77702 0.0
H2553 H 0.61563 0.79683 0.8173 0.0
H2554 H 0.63926 0.79438 0.82789 0.0
H2555 H 0.63417 0.81548 0.84054 0.0
H2556 H 0.70492 0.80345 0.8552 0.0
H2557 H 0.69345 0.85286 0.89035 0.0
H2558 H 0.69787 0.81456 0.7953 0.0
H2559 H 0.67044 0.79348 0.80516 0.0
H2560 H 0.69489 0.79215 0.81495 0.0
H2561 H 0.68514 0.87617 0.83678 0.0
H2562 H 0.6794 0.87314 0.86906 0.0
H2563 H 0.65791 0.85541 0.84752 0.0
C2564 C 0.18205 0.84626 0.89345 0.0
C2565 C 0.17221 0.85962 0.89764 0.0
C2566 C 0.17835 0.83443 0.87128 0.0
C2567 C 0.16412 0.83567 0.85323 0.0
C2568 C 0.15353 0.8485 0.85795 0.0
C2569 C 0.15791 0.86047 0.87989 0.0
C2570 C 0.19016 0.82114 0.86686 0.0
C2571 C 0.13776 0.84986 0.83967 0.0
C2572 C 0.16862 0.82256 0.78633 0.0
C2573 C 0.15135 0.80002 0.78459 0.0
C2574 C 0.17322 0.8343 0.80865 0.0
C2575 C 0.15994 0.82337 0.82952 0.0
C2576 C 0.14203 0.80083 0.8275 0.0
C2577 C 0.13814 0.78942 0.80521 0.0
C2578 C 0.19261 0.85823 0.81006 0.0
C2579 C 0.127 0.7887 0.84895 0.0
H2580 H 0.19339 0.84588 0.90698 0.0
H2581 H 0.15025 0.8708 0.88313 0.0
H2582 H 0.1776 0.80325 0.86302 0.0
H2583 H 0.20117 0.82787 0.85059 0.0
H2584 H 0.20061 0.82179 0.88264 0.0
H2585 H 0.13015 0.85982 0.84655 0.0
H2586 H 0.14702 0.85775 0.82259 0.0
H2587 H 0.12397 0.83266 0.835 0.0
H2588 H 0.17909 0.83069 0.77056 0.0
H2589 H 0.12474 0.77197 0.80395 0.0
H2590 H 0.20481 0.85948 0.82414 0.0
H2591 H 0.18635 0.86971 0.81561 0.0
H2592 H 0.20162 0.86419 0.79242 0.0
H2593 H 0.13719 0.7876 0.86402 0.0
H2594 H 0.11346 0.77136 0.84423 0.0
H2595 H 0.11905 0.79831 0.85587 0.0
C2596 C 0.19931 0.38206 0.80658 0.0
C2597 C 0.19633 0.36663 0.78811 0.0
C2598 C 0.18705 0.37497 0.8284 0.0
C2599 C 0.17172 0.35176 0.83218 0.0
C2600 C 0.16827 0.3361 0.81337 0.0
C2601 C 0.18047 0.34377 0.7914 0.0
C2602 C 0.1908 0.39232 0.84758 0.0
C2603 C 0.15226 0.31118 0.81678 0.0
C2604 C 0.15651 0.33086 0.89778 0.0
C2605 C 0.13477 0.32783 0.89975 0.0
C2606 C 0.16878 0.33865 0.87588 0.0
C2607 C 0.15923 0.34397 0.85576 0.0
C2608 C 0.1377 0.34189 0.85819 0.0
C2609 C 0.12565 0.33359 0.88001 0.0
C2610 C 0.19159 0.34039 0.87394 0.0
C2611 C 0.12712 0.34795 0.83756 0.0
H2612 H 0.21156 0.39978 0.80406 0.0
H2613 H 0.17839 0.33178 0.77732 0.0
H2614 H 0.17449 0.39098 0.85271 0.0
H2615 H 0.19791 0.38912 0.86426 0.0
H2616 H 0.20248 0.40982 0.84133 0.0
H2617 H 0.15141 0.30121 0.80044 0.0
H2618 H 0.1577 0.30497 0.83258 0.0
H2619 H 0.13506 0.30806 0.82085 0.0
H2620 H 0.1634 0.32601 0.91286 0.0
H2621 H 0.1088 0.33121 0.88151 0.0
H2622 H 0.20458 0.35781 0.86882 0.0
H2623 H 0.19122 0.329 0.85934 0.0
H2624 H 0.19676 0.33587 0.89124 0.0
H2625 H 0.13876 0.36543 0.83131 0.0
H2626 H 0.11083 0.34661 0.84287 0.0
H2627 H 0.12408 0.33659 0.82185 0.0
C2628 C 0.82686 0.65733 0.72486 0.0
C2629 C 0.84639 0.65569 0.72662 0.0
C2630 C 0.82161 0.66462 0.70305 0.0
C2631 C 0.83658 0.67093 0.6829 0.0
C2632 C 0.8566 0.66981 0.68497 0.0
C2633 C 0.86108 0.66197 0.70664 0.0
C2634 C 0.79994 0.66525 0.70141 0.0
C2635 C 0.8734 0.67704 0.66434 0.0
C2636 C 0.81857 0.6744 0.61789 0.0
C2637 C 0.82603 0.69748 0.61588 0.0
C2638 C 0.82122 0.66532 0.63989 0.0
C2639 C 0.83208 0.67979 0.66001 0.0
C2640 C 0.83994 0.70315 0.65779 0.0
C2641 C 0.8366 0.71161 0.63591 0.0
C2642 C 0.81231 0.64027 0.64168 0.0
C2643 C 0.85223 0.71931 0.67841 0.0
H2644 H 0.81535 0.6522 0.74019 0.0
H2645 H 0.87629 0.66084 0.708 0.0
H2646 H 0.8037 0.68275 0.69791 0.0
H2647 H 0.7897 0.65476 0.68587 0.0
H2648 H 0.78972 0.65904 0.71832 0.0
H2649 H 0.88831 0.67539 0.66901 0.0
H2650 H 0.86525 0.66669 0.64793 0.0
H2651 H 0.87933 0.69487 0.65947 0.0
H2652 H 0.81018 0.6634 0.60254 0.0
H2653 H 0.84254 0.72952 0.63441 0.0
H2654 H 0.80069 0.6332 0.65745 0.0
H2655 H 0.82644 0.63704 0.64485 0.0
H2656 H 0.80319 0.63116 0.62494 0.0
H2657 H 0.84143 0.71429 0.69489 0.0
H2658 H 0.85719 0.737 0.67377 0.0
H2659 H 0.86767 0.71868 0.68314 0.0
C2660 C 0.33637 0.21013 0.72128 0.0
C2661 C 0.34061 0.19917 0.74038 0.0
C2662 C 0.32669 0.19894 0.69938 0.0
C2663 C 0.32171 0.1764 0.69623 0.0
C2664 C 0.32548 0.16505 0.71571 0.0
C2665 C 0.33465 0.17653 0.73775 0.0
C2666 C 0.32231 0.21144 0.67941 0.0
C2667 C 0.32067 0.14111 0.71293 0.0
C2668 C 0.28133 0.13976 0.6466 0.0
C2669 C 0.2962 0.14131 0.62815 0.0
C2670 C 0.28938 0.1516 0.66855 0.0
C2671 C 0.31291 0.16487 0.6724 0.0
C2672 C 0.32802 0.16696 0.65355 0.0
C2673 C 0.31945 0.15534 0.63147 0.0
C2674 C 0.27269 0.14946 0.68784 0.0
C2675 C 0.35324 0.18073 0.65707 0.0
H2676 H 0.34096 0.22767 0.72338 0.0
H2677 H 0.33825 0.16819 0.75242 0.0
H2678 H 0.33327 0.2137 0.66353 0.0
H2679 H 0.30457 0.2015 0.67312 0.0
H2680 H 0.3256 0.22831 0.68542 0.0
H2681 H 0.32421 0.13457 0.72988 0.0
H2682 H 0.30276 0.12986 0.70782 0.0
H2683 H 0.33116 0.14026 0.69801 0.0
H2684 H 0.26332 0.12889 0.64402 0.0
H2685 H 0.33096 0.15625 0.61736 0.0
H2686 H 0.27621 0.16643 0.69371 0.0
H2687 H 0.27447 0.14087 0.70411 0.0
H2688 H 0.25497 0.13974 0.68134 0.0
H2689 H 0.35826 0.19839 0.66175 0.0
H2690 H 0.36268 0.18083 0.64057 0.0
H2691 H 0.35833 0.1738 0.67252 0.0
C2692 C 0.85752 0.15607 0.63848 0.0
C2693 C 0.85411 0.16813 0.6199 0.0
C2694 C 0.84627 0.15196 0.66089 0.0
C2695 C 0.83157 0.16053 0.66509 0.0
C2696 C 0.8277 0.17236 0.6462 0.0
C2697 C 0.83886 0.17582 0.62369 0.0
C2698 C 0.85041 0.13874 0.6802 0.0
C2699 C 0.81229 0.18193 0.65003 0.0
C2700 C 0.78697 0.1353 0.71463 0.0
C2701 C 0.79694 0.15092 0.73362 0.0
C2702 C 0.79833 0.13785 0.69258 0.0
C2703 C 0.82003 0.15685 0.68913 0.0
C2704 C 0.83048 0.17238 0.70855 0.0
C2705 C 0.81886 0.16909 0.73074 0.0
C2706 C 0.78679 0.12054 0.67271 0.0
C2707 C 0.85351 0.19296 0.70551 0.0
H2708 H 0.8693 0.15007 0.63559 0.0
H2709 H 0.83646 0.18544 0.60951 0.0
H2710 H 0.8583 0.14953 0.69641 0.0
H2711 H 0.83417 0.12415 0.68618 0.0
H2712 H 0.86158 0.1324 0.67368 0.0
H2713 H 0.81113 0.19078 0.63361 0.0
H2714 H 0.7951 0.16824 0.65485 0.0
H2715 H 0.81852 0.194 0.66548 0.0
H2716 H 0.76996 0.12123 0.71688 0.0
H2717 H 0.82639 0.18137 0.74527 0.0
H2718 H 0.79799 0.11424 0.66621 0.0
H2719 H 0.78329 0.12843 0.65693 0.0
H2720 H 0.77062 0.10593 0.67892 0.0
H2721 H 0.86594 0.1879 0.69997 0.0
H2722 H 0.85956 0.20309 0.72249 0.0
H2723 H 0.85296 0.20379 0.69081 0.0
C2724 C 0.0122 0.46863 0.54628 0.0
C2725 C 0.0168 0.48382 0.56552 0.0
C2726 C 0.00297 0.47067 0.52427 0.0
C2727 C 0.99869 0.4887 0.52109 0.0
C2728 C 0.00296 0.50393 0.54064 0.0
C2729 C 0.01174 0.50114 0.56278 0.0
C2730 C 0.99807 0.45366 0.50429 0.0
C2731 C 0.99887 0.52353 0.5379 0.0
C2732 C 0.99527 0.50644 0.4559 0.0
C2733 C 0.97197 0.49724 0.45302 0.0
C2734 C 0.00426 0.50387 0.478 0.0
C2735 C 0.98953 0.49141 0.49739 0.0
C2736 C 0.96594 0.4813 0.49405 0.0
C2737 C 0.9575 0.48456 0.47207 0.0
C2738 C 0.02952 0.51512 0.4809 0.0
C2739 C 0.94959 0.46734 0.51387 0.0
H2740 H 0.01605 0.45516 0.54839 0.0
H2741 H 0.0156 0.51308 0.57751 0.0
H2742 H 0.9802 0.44592 0.49848 0.0
H2743 H 0.00868 0.46221 0.48815 0.0
H2744 H 0.00135 0.44001 0.51008 0.0
H2745 H 0.00308 0.53387 0.55473 0.0
H2746 H 0.00922 0.53449 0.52268 0.0
H2747 H 0.98094 0.5173 0.53327 0.0
H2748 H 0.00651 0.51657 0.44138 0.0
H2749 H 0.93945 0.47742 0.46989 0.0
H2750 H 0.03443 0.50239 0.48555 0.0
H2751 H 0.03506 0.52737 0.49617 0.0
H2752 H 0.03866 0.52415 0.46414 0.0
H2753 H 0.95274 0.45362 0.51961 0.0
H2754 H 0.93173 0.45971 0.50796 0.0
H2755 H 0.95213 0.47802 0.53009 0.0
C2756 C 0.53329 0.53636 0.54754 0.0
C2757 C 0.51798 0.52832 0.56701 0.0
C2758 C 0.52913 0.52393 0.52599 0.0
C2759 C 0.50885 0.50309 0.52353 0.0
C2760 C 0.49344 0.49464 0.54333 0.0
C2761 C 0.49833 0.50728 0.56502 0.0
C2762 C 0.54633 0.53329 0.50571 0.0
C2763 C 0.47151 0.4726 0.5413 0.0
C2764 C 0.4892 0.48234 0.45871 0.0
C2765 C 0.49522 0.46566 0.45629 0.0
C2766 C 0.49327 0.4945 0.48063 0.0
C2767 C 0.50403 0.49015 0.50029 0.0
C2768 C 0.51081 0.47386 0.49751 0.0
C2769 C 0.50611 0.46167 0.47568 0.0
C2770 C 0.48558 0.51158 0.48297 0.0
C2771 C 0.52289 0.46914 0.51767 0.0
H2772 H 0.54858 0.55263 0.54911 0.0
H2773 H 0.48635 0.50121 0.57994 0.0
H2774 H 0.5514 0.52081 0.50043 0.0
H2775 H 0.53883 0.53653 0.48939 0.0
H2776 H 0.5617 0.54927 0.51094 0.0
H2777 H 0.46138 0.46833 0.55828 0.0
H2778 H 0.46136 0.47353 0.52606 0.0
H2779 H 0.47488 0.4587 0.53706 0.0
H2780 H 0.48046 0.48519 0.44389 0.0
H2781 H 0.51079 0.44878 0.47385 0.0
H2782 H 0.5002 0.52848 0.48696 0.0
H2783 H 0.47365 0.50698 0.49846 0.0
H2784 H 0.47714 0.51273 0.4662 0.0
H2785 H 0.53843 0.48492 0.52289 0.0
H2786 H 0.52761 0.45638 0.51234 0.0
H2787 H 0.51199 0.46295 0.53406 0.0
C2788 C 0.5362 0.01484 0.47026 0.0
C2789 C 0.52599 0.02049 0.45155 0.0
C2790 C 0.5249 0.0055 0.49214 0.0
C2791 C 0.50302 0.00226 0.49568 0.0
C2792 C 0.49245 0.00767 0.4767 0.0
C2793 C 0.504 0.01648 0.45462 0.0
C2794 C 0.5365 0.99933 0.51157 0.0
C2795 C 0.46925 0.00474 0.48001 0.0
C2796 C 0.4663 0.96123 0.54469 0.0
C2797 C 0.46972 0.97571 0.5643 0.0
C2798 C 0.47714 0.96963 0.52232 0.0
C2799 C 0.49133 0.99316 0.51931 0.0
C2800 C 0.49498 0.00789 0.53913 0.0
C2801 C 0.48431 0.99894 0.56155 0.0
C2802 C 0.47336 0.95332 0.5019 0.0
C2803 C 0.50979 0.03311 0.5365 0.0
H2804 H 0.55318 0.01778 0.46775 0.0
H2805 H 0.49625 0.02107 0.44019 0.0
H2806 H 0.53919 0.0097 0.52808 0.0
H2807 H 0.52571 0.9814 0.51691 0.0
H2808 H 0.5531 0.00191 0.50543 0.0
H2809 H 0.46338 0.00972 0.46352 0.0
H2810 H 0.45691 0.98691 0.48437 0.0
H2811 H 0.46938 0.01512 0.4956 0.0
H2812 H 0.45501 0.94323 0.54684 0.0
H2813 H 0.48666 0.01017 0.57659 0.0
H2814 H 0.48974 0.9554 0.49578 0.0
H2815 H 0.46567 0.95697 0.48604 0.0
H2816 H 0.46219 0.93547 0.5074 0.0
H2817 H 0.52723 0.03737 0.53177 0.0
H2818 H 0.51035 0.04228 0.55342 0.0
H2819 H 0.50349 0.03926 0.5214 0.0
C2820 C 0.49113 0.97456 0.06135 0.0
C2821 C 0.50939 0.97078 0.06278 0.0
C2822 C 0.48747 0.98391 0.04018 0.0
C2823 C 0.50283 0.99018 0.02042 0.0
C2824 C 0.52161 0.98692 0.02218 0.0
C2825 C 0.52448 0.977 0.04317 0.0
C2826 C 0.46703 0.98677 0.03878 0.0
C2827 C 0.53878 0.99401 1.00193 0.0
C2828 C 0.48545 0.99711 0.95653 0.0
C2829 C 0.49374 0.0204 0.95566 0.0
C2830 C 0.48799 0.98696 0.97765 0.0
C2831 C 0.49962 0.00055 0.99803 0.0
C2832 C 0.50871 0.02419 0.99682 0.0
C2833 C 0.50538 0.03377 0.97578 0.0
C2834 C 0.47773 0.96165 0.97839 0.0
C2835 C 0.52184 0.03937 0.01781 0.0
H2836 H 0.47941 0.96963 0.07646 0.0
H2837 H 0.53879 0.97434 0.04435 0.0
H2838 H 0.47236 0.00484 0.03631 0.0
H2839 H 0.45664 0.97756 0.02273 0.0
H2840 H 0.45637 0.98046 0.05538 0.0
H2841 H 0.5528 0.99088 1.00647 0.0
H2842 H 0.53054 0.9847 0.98499 0.0
H2843 H 0.546 0.01225 0.99802 0.0
H2844 H 0.47611 0.98671 0.94112 0.0
H2845 H 0.51178 0.0518 0.97511 0.0
H2846 H 0.46558 0.95458 0.99371 0.0
H2847 H 0.49105 0.95724 0.98169 0.0
H2848 H 0.46882 0.95345 0.96122 0.0
H2849 H 0.5109 0.03496 0.03413 0.0
H2850 H 0.52853 0.05749 0.01358 0.0
H2851 H 0.5362 0.03687 0.02257 0.0
C2852 C 0.95439 0.47515 0.9694 0.0
C2853 C 0.96967 0.4772 0.95117 0.0
C2854 C 0.96188 0.48627 0.99186 0.0
C2855 C 0.9853 0.4994 0.99653 0.0
C2856 C 0.00085 0.50194 0.97797 0.0
C2857 C 0.99284 0.49099 0.95538 0.0
C2858 C 0.94468 0.4836 0.01076 0.0
C2859 C 0.02596 0.51558 0.98228 0.0
C2860 C 0.00672 0.54358 0.04683 0.0
C2861 C 0.01038 0.53232 0.06608 0.0
C2862 C 0.99805 0.5329 0.02439 0.0
C2863 C 0.99344 0.51052 0.02079 0.0
C2864 C 0.99665 0.49885 0.04038 0.0
C2865 C 0.00485 0.50983 0.06293 0.0
C2866 C 0.99427 0.54578 1.00437 0.0
C2867 C 0.99219 0.47507 0.03723 0.0
H2868 H 0.93644 0.4645 0.96621 0.0
H2869 H 0.0047 0.49231 0.94149 0.0
H2870 H 0.94623 0.47485 0.02701 0.0
H2871 H 0.94785 0.50041 0.01681 0.0
H2872 H 0.92712 0.47382 1.00381 0.0
H2873 H 0.03583 0.51599 0.96603 0.0
H2874 H 0.03087 0.53315 0.98727 0.0
H2875 H 0.03062 0.50833 0.99779 0.0
H2876 H 0.01097 0.561 0.04925 0.0
H2877 H 0.00802 0.50122 0.07765 0.0
H2878 H 0.97671 0.53595 0.99748 0.0
H2879 H 0.00567 0.54832 0.98885 0.0
H2880 H 0.99736 0.56254 0.01058 0.0
H2881 H 0.97447 0.4638 0.03147 0.0
H2882 H 0.9953 0.46825 0.05422 0.0
H2883 H 0.0032 0.47466 0.02264 0.0
C2884 C 0.47769 0.51258 0.04749 0.0
C2885 C 0.47685 0.49909 0.0671 0.0
C2886 C 0.48955 0.51389 0.02614 0.0
C2887 C 0.50031 0.50088 0.0241 0.0
C2888 C 0.49974 0.48742 0.044 0.0
C2889 C 0.48826 0.48692 0.06543 0.0
C2890 C 0.49037 0.52903 1.00568 0.0
C2891 C 0.51072 0.47304 0.04239 0.0
C2892 C 0.51334 0.48924 0.9599 0.0
C2893 C 0.53651 0.50456 0.95836 0.0
C2894 C 0.50133 0.48752 0.9814 0.0
C2895 C 0.51271 0.50192 1.00139 0.0
C2896 C 0.536 0.51773 0.99959 0.0
C2897 C 0.54763 0.51865 0.97826 0.0
C2898 C 0.47657 0.47016 0.98284 0.0
C2899 C 0.54864 0.53388 0.02012 0.0
H2900 H 0.46882 0.52195 0.04875 0.0
H2901 H 0.48731 0.47618 0.08041 0.0
H2902 H 0.50815 0.54111 1.00078 0.0
H2903 H 0.48209 0.51879 0.98924 0.0
H2904 H 0.48187 0.53871 0.01055 0.0
H2905 H 0.50836 0.46317 0.05928 0.0
H2906 H 0.5035 0.46117 0.02685 0.0
H2907 H 0.52906 0.48382 0.03893 0.0
H2908 H 0.50475 0.47832 0.94456 0.0
H2909 H 0.56551 0.53078 0.97702 0.0
H2910 H 0.46655 0.47863 0.98576 0.0
H2911 H 0.47342 0.45886 0.99865 0.0
H2912 H 0.47039 0.45973 0.96608 0.0
H2913 H 0.54062 0.54408 0.02453 0.0
H2914 H 0.56665 0.54551 0.01558 0.0
H2915 H 0.54784 0.52433 0.03677 0.0
C2916 C 0.20332 0.08106 0.03117 0.0
C2917 C 0.22576 0.09536 0.03837 0.0
C2918 C 0.19574 0.05871 0.02402 0.0
C2919 C 0.21099 0.05044 0.02401 0.0
C2920 C 0.23364 0.06471 0.03135 0.0
C2921 C 0.24074 0.08699 0.03843 0.0
C2922 C 0.1715 0.04404 0.01618 0.0
C2923 C 0.25041 0.05649 0.03159 0.0
C2924 C 0.18926 0.98727 0.02398 0.0
C2925 C 0.19235 0.98353 0.99954 0.0
C2926 C 0.19482 0.0089 0.03217 0.0
C2927 C 0.20354 0.02712 0.01547 0.0
C2928 C 0.20591 0.02324 0.99062 0.0
C2929 C 0.20027 0.00151 0.98297 0.0
C2930 C 0.19204 0.01241 0.0588 0.0
C2931 C 0.21497 0.04217 0.97221 0.0
H2932 H 0.19171 0.08746 0.03077 0.0
H2933 H 0.25799 0.09776 0.04432 0.0
H2934 H 0.17086 0.0389 0.9969 0.0
H2935 H 0.16329 0.02839 0.02725 0.0
H2936 H 0.1616 0.05279 0.018 0.0
H2937 H 0.26726 0.06955 0.03831 0.0
H2938 H 0.24412 0.04134 0.04333 0.0
H2939 H 0.25236 0.05146 0.01294 0.0
H2940 H 0.18327 0.97345 0.03685 0.0
H2941 H 0.20232 0.99861 0.96398 0.0
H2942 H 0.18172 0.02066 0.06091 0.0
H2943 H 0.20879 0.02382 0.06698 0.0
H2944 H 0.18392 0.99631 0.06915 0.0
H2945 H 0.20483 0.05071 0.97252 0.0
H2946 H 0.21485 0.03613 0.9534 0.0
H2947 H 0.23256 0.05499 0.97699 0.0
C2948 C 0.92081 0.13414 0.04469 0.0
C2949 C 0.90385 0.13998 0.04364 0.0
C2950 C 0.94321 0.14973 0.03852 0.0
C2951 C 0.94882 0.17162 0.03078 0.0
C2952 C 0.93187 0.17769 0.02967 0.0
C2953 C 0.90964 0.16185 0.03623 0.0
C2954 C 0.96085 0.14266 0.04001 0.0
C2955 C 0.93717 0.20085 0.02131 0.0
C2956 C 0.00971 0.21961 0.03121 0.0
C2957 C 0.01562 0.22052 1.00661 0.0
C2958 C 0.98817 0.20341 0.03951 0.0
C2959 C 0.97219 0.1879 0.02278 0.0
C2960 C 0.97829 0.18833 0.9981 0.0
C2961 C -5e-05 0.20451 0.99037 0.0
C2962 C 0.98232 0.20328 0.06604 0.0
C2963 C 0.96175 0.17208 0.97968 0.0
H2964 H 0.91657 0.11726 0.05002 0.0
H2965 H 0.89687 0.16675 0.03571 0.0
H2966 H 0.96773 0.14309 0.0216 0.0
H2967 H 0.97514 0.15467 0.05157 0.0
H2968 H 0.95399 0.12541 0.04759 0.0
H2969 H 0.92214 0.20302 0.02181 0.0
H2970 H 0.95051 0.21397 0.03298 0.0
H2971 H 0.94378 0.20382 1.00241 0.0
H2972 H 0.02166 0.232 0.04383 0.0
H2973 H 0.00456 0.20479 0.97144 0.0
H2974 H 0.97579 0.18617 0.07384 0.0
H2975 H 0.96874 0.20756 0.06779 0.0
H2976 H 0.99705 0.21551 0.07697 0.0
H2977 H 0.95539 0.15444 0.98566 0.0
H2978 H 0.96935 0.17429 0.9613 0.0
H2979 H 0.94697 0.17458 0.97831 0.0
C2980 C 0.79728 0.79085 0.98054 0.0
C2981 C 0.77634 0.78338 0.9918 0.0
C2982 C 0.8128 0.78515 0.98993 0.0
C2983 C 0.80717 0.77149 0.01101 0.0
C2984 C 0.78615 0.76411 0.02266 0.0
C2985 C 0.77101 0.77027 0.01298 0.0
C2986 C 0.83516 0.79359 0.97717 0.0
C2987 C 0.77952 0.74937 0.04505 0.0
C2988 C 0.83838 0.73921 0.01958 0.0
C2989 C 0.85491 0.75261 0.03672 0.0
C2990 C 0.82246 0.74491 0.01144 0.0
C2991 C 0.82318 0.76462 0.02048 0.0
C2992 C 0.83973 0.77819 0.03784 0.0
C2993 C 0.85535 0.77199 0.0458 0.0
C2994 C 0.80507 0.73001 0.99288 0.0
C2995 C 0.84109 0.79941 0.04779 0.0
H2996 H 0.80157 0.8013 0.96438 0.0
H2997 H 0.75477 0.76441 0.02162 0.0
H2998 H 0.84922 0.80326 0.99009 0.0
H2999 H 0.83672 0.7791 0.97064 0.0
H3000 H 0.83717 0.80457 0.96136 0.0
H3001 H 0.76278 0.74548 0.05225 0.0
H3002 H 0.77896 0.73327 0.04069 0.0
H3003 H 0.79231 0.75777 0.05957 0.0
H3004 H 0.8381 0.72442 0.01214 0.0
H3005 H 0.86782 0.78226 0.05929 0.0
H3006 H 0.8073 0.73964 0.97587 0.0
H3007 H 0.78785 0.72451 0.9998 0.0
H3008 H 0.80624 0.71479 0.9884 0.0
H3009 H 0.84422 0.81142 0.03271 0.0
H3010 H 0.85472 0.8079 0.06152 0.0
H3011 H 0.82481 0.7954 0.05631 0.0
C3012 C 0.99016 0.2385 0.48946 0.0
C3013 C 0.98077 0.2241 0.5095 0.0
C3014 C 0.01172 0.24427 0.48079 0.0
C3015 C 0.02388 0.23507 0.49222 0.0
C3016 C 0.0142 0.22014 0.51214 0.0
C3017 C 0.99283 0.21494 0.52061 0.0
C3018 C 0.02163 0.26047 0.45971 0.0
C3019 C 0.02644 0.20968 0.52459 0.0
C3020 C 0.07152 0.23247 0.45982 0.0
C3021 C 0.09062 0.24974 0.47151 0.0
C3022 C 0.04971 0.22795 0.46582 0.0
C3023 C 0.04689 0.24118 0.48374 0.0
C3024 C 0.06607 0.25922 0.4949 0.0
C3025 C 0.08767 0.26319 0.48878 0.0
C3026 C 0.02966 0.20847 0.4536 0.0
C3027 C 0.06376 0.27383 0.51397 0.0
H3028 H 0.98085 0.24563 0.48094 0.0
H3029 H 0.98541 0.20352 0.53588 0.0
H3030 H 0.03745 0.27568 0.46553 0.0
H3031 H 0.02607 0.25255 0.44469 0.0
H3032 H 0.00986 0.26583 0.45258 0.0
H3033 H 0.01628 0.1979 0.53939 0.0
H3034 H 0.03074 0.20032 0.51113 0.0
H3035 H 0.04252 0.2231 0.53246 0.0
H3036 H 0.07354 0.22227 0.44611 0.0
H3037 H 0.10215 0.27641 0.49816 0.0
H3038 H 0.0185 0.2142 0.44559 0.0
H3039 H 0.01957 0.19535 0.46733 0.0
H3040 H 0.03474 0.20066 0.43902 0.0
H3041 H 0.05277 0.28027 0.5072 0.0
H3042 H 0.08033 0.28843 0.51925 0.0
H3043 H 0.05565 0.26364 0.53049 0.0
C3044 C 0.80707 0.80873 0.51068 0.0
C3045 C 0.79756 0.78722 0.50014 0.0
C3046 C 0.80126 0.82454 0.50248 0.0
C3047 C 0.78561 0.81875 0.48321 0.0
C3048 C 0.7763 0.79724 0.47211 0.0
C3049 C 0.7824 0.78171 0.48071 0.0
C3050 C 0.81165 0.84735 0.5147 0.0
C3051 C 0.75956 0.79049 0.45149 0.0
C3052 C 0.75461 0.85165 0.47896 0.0
C3053 C 0.76705 0.86762 0.46098 0.0
C3054 C 0.76027 0.83543 0.48615 0.0
C3055 C 0.77878 0.83515 0.47499 0.0
C3056 C 0.79125 0.85106 0.45663 0.0
C3057 C 0.78526 0.86714 0.44988 0.0
C3058 C 0.74666 0.81883 0.50592 0.0
C3059 C 0.81103 0.85121 0.44425 0.0
H3060 H 0.81906 0.81318 0.52546 0.0
H3061 H 0.77484 0.76503 0.47268 0.0
H3062 H 0.82053 0.86092 0.50105 0.0
H3063 H 0.79821 0.84979 0.52292 0.0
H3064 H 0.82382 0.84932 0.5292 0.0
H3065 H 0.75453 0.77347 0.44424 0.0
H3066 H 0.74421 0.79054 0.45786 0.0
H3067 H 0.76684 0.8029 0.43643 0.0
H3068 H 0.74068 0.85211 0.48776 0.0
H3069 H 0.7947 0.87919 0.43569 0.0
H3070 H 0.75769 0.82101 0.52171 0.0
H3071 H 0.7398 0.80131 0.49921 0.0
H3072 H 0.73241 0.82093 0.51229 0.0
H3073 H 0.82424 0.85433 0.45787 0.0
H3074 H 0.81859 0.86432 0.42985 0.0
H3075 H 0.80561 0.8345 0.43592 0.0
C3076 C 0.20628 0.9972 0.53447 0.0
C3077 C 0.22665 0.01052 0.5221 0.0
C3078 C 0.19071 0.97553 0.5262 0.0
C3079 C 0.1957 0.96693 0.50515 0.0
C3080 C 0.21624 0.9803 0.49255 0.0
C3081 C 0.23145 0.00206 0.50111 0.0
C3082 C 0.16884 0.9619 0.53993 0.0
C3083 C 0.22219 0.97157 0.47016 0.0
C3084 C 0.16341 0.90328 0.49812 0.0
C3085 C 0.14635 0.90012 0.48172 0.0
C3086 C 0.17992 0.92498 0.50546 0.0
C3087 C 0.17926 0.94396 0.49633 0.0
C3088 C 0.16225 0.94094 0.47961 0.0
C3089 C 0.14605 0.91906 0.47244 0.0
C3090 C 0.19784 0.92755 0.52332 0.0
C3091 C 0.16094 0.9608 0.46957 0.0
H3092 H 0.20239 0.00388 0.55049 0.0
H3093 H 0.24725 0.01235 0.49162 0.0
H3094 H 0.15433 0.95749 0.52766 0.0
H3095 H 0.16735 0.94584 0.54634 0.0
H3096 H 0.16752 0.97112 0.55592 0.0
H3097 H 0.23889 0.98404 0.46255 0.0
H3098 H 0.22241 0.95588 0.47464 0.0
H3099 H 0.20918 0.96724 0.45589 0.0
H3100 H 0.16362 0.88876 0.50564 0.0
H3101 H 0.13321 0.91683 0.45945 0.0
H3102 H 0.19625 0.93525 0.54043 0.0
H3103 H 0.21486 0.93906 0.51577 0.0
H3104 H 0.19664 0.91115 0.52778 0.0
H3105 H 0.15839 0.97006 0.48468 0.0
H3106 H 0.14696 0.9556 0.45628 0.0
H3107 H 0.17703 0.97275 0.4605 0.0
C3108 C 0.77985 0.00127 0.98843 0.0
C3109 C 0.79079 0.00893 0.01086 0.0
C3110 C 0.77428 0.97987 0.97955 0.0
C3111 C 0.7802 0.96608 0.99328 0.0
C3112 C 0.79151 0.9739 0.01582 0.0
C3113 C 0.79652 0.99519 0.02443 0.0
C3114 C 0.7619 0.97194 0.95562 0.0
C3115 C 0.79843 0.95984 0.03076 0.0
C3116 C 0.74953 0.90288 0.98233 0.0
C3117 C 0.76467 0.90052 0.96703 0.0
C3118 C 0.75422 0.92414 0.99075 0.0
C3119 C 0.77471 0.94351 0.98402 0.0
C3120 C 0.79013 0.94131 0.96874 0.0
C3121 C 0.78486 0.91989 0.9603 0.0
C3122 C 0.73729 0.92585 1.00691 0.0
C3123 C 0.81227 0.96159 0.96139 0.0
H3124 H 0.77529 0.01187 0.97805 0.0
H3125 H 0.8052 0.00126 0.04168 0.0
H3126 H 0.77204 0.96832 0.94256 0.0
H3127 H 0.74573 0.95599 0.95837 0.0
H3128 H 0.75827 0.98459 0.94735 0.0
H3129 H 0.80735 0.96851 0.04776 0.0
H3130 H 0.78336 0.94355 0.03567 0.0
H3131 H 0.80969 0.9559 0.01988 0.0
H3132 H 0.73407 0.88808 0.98802 0.0
H3133 H 0.79654 0.91839 0.94823 0.0
H3134 H 0.7323 0.93752 0.9987 0.0
H3135 H 0.745 0.93295 0.02486 0.0
H3136 H 0.72186 0.90923 0.0099 0.0
H3137 H 0.80912 0.97384 0.95142 0.0
H3138 H 0.82255 0.95697 0.94964 0.0
H3139 H 0.82223 0.97029 0.97786 0.0
C3140 C 0.98693 0.75905 0.98345 0.0
C3141 C 0.98144 0.76128 0.00753 0.0
C3142 C 0.00785 0.77477 0.9733 0.0
C3143 C 0.02373 0.79303 0.98765 0.0
C3144 C 0.01829 0.79539 0.01193 0.0
C3145 C 0.9972 0.77964 0.02147 0.0
C3146 C 0.01298 0.77184 0.94727 0.0
C3147 C 0.03479 0.81457 0.02788 0.0
C3148 C 0.08618 0.82302 0.97226 0.0
C3149 C 0.08963 0.84339 0.96222 0.0
C3150 C 0.06474 0.80626 0.98007 0.0
C3151 C 0.04613 0.80974 0.97749 0.0
C3152 C 0.04926 0.82983 0.96659 0.0
C3153 C 0.07095 0.84645 0.95924 0.0
C3154 C 0.06213 0.78511 0.99176 0.0
C3155 C 0.02979 0.83409 0.96333 0.0
H3156 H 0.97497 0.74486 0.97258 0.0
H3157 H 0.99297 0.78191 0.03987 0.0
H3158 H 0.01711 0.78719 0.93658 0.0
H3159 H 0.02798 0.76967 0.94663 0.0
H3160 H 0.99863 0.75705 0.93836 0.0
H3161 H 0.0281 0.81378 0.0465 0.0
H3162 H 0.05078 0.81423 0.02936 0.0
H3163 H 0.0389 0.83096 0.01956 0.0
H3164 H 0.10026 0.82013 0.9742 0.0
H3165 H 0.07329 0.86209 0.95175 0.0
H3166 H 0.04883 0.76996 0.98229 0.0
H3167 H 0.0567 0.78416 0.01098 0.0
H3168 H 0.07805 0.78453 0.99145 0.0
H3169 H 0.0156 0.81962 0.95388 0.0
H3170 H 0.03464 0.84969 0.95274 0.0
H3171 H 0.0235 0.8357 0.98141 0.0
C3172 C 0.20322 0.19997 0.99638 0.0
C3173 C 0.2245 0.21643 1.00472 0.0
C3174 C 0.18784 0.20604 0.9873 0.0
C3175 C 0.19419 0.22914 0.98606 0.0
C3176 C 0.21604 0.24585 0.99361 0.0
C3177 C 0.23085 0.23926 1.0032 0.0
C3178 C 0.16453 0.18773 0.97995 0.0
C3179 C 0.2236 0.27066 0.99205 0.0
C3180 C 0.15955 0.24572 0.94606 0.0
C3181 C 0.14658 0.24913 0.96343 0.0
C3182 C 0.17528 0.23935 0.95314 0.0
C3183 C 0.17759 0.23578 0.97812 0.0
C3184 C 0.16415 0.23877 0.99567 0.0
C3185 C 0.14899 0.24569 0.98811 0.0
C3186 C 0.1897 0.23685 0.93399 0.0
C3187 C 0.16575 0.23465 0.02242 0.0
H3188 H 0.19833 0.1823 0.99785 0.0
H3189 H 0.24738 0.25191 0.00966 0.0
H3190 H 0.15177 0.18838 0.99187 0.0
H3191 H 0.16083 0.19045 0.961 0.0
H3192 H 0.16253 0.17063 0.98127 0.0
H3193 H 0.24171 0.28151 0.99675 0.0
H3194 H 0.22079 0.27498 0.97339 0.0
H3195 H 0.21345 0.27467 1.00468 0.0
H3196 H 0.15779 0.24866 0.927 0.0
H3197 H 0.13875 0.24814 1.00145 0.0
H3198 H 0.18712 0.21951 0.93439 0.0
H3199 H 0.2078 0.24862 0.93792 0.0
H3200 H 0.18589 0.24034 0.91536 0.0
H3201 H 0.16263 0.21726 0.0252 0.0
H3202 H 0.15348 0.23691 0.03358 0.0
H3203 H 0.18299 0.24643 0.0292 0.0
C3204 C 0.91051 0.7415 0.53727 0.0
C3205 C 0.90824 0.75729 0.55152 0.0
C3206 C 0.93185 0.74498 0.53081 0.0
C3207 C 0.95143 0.76483 0.53859 0.0
C3208 C 0.94932 0.78028 0.55395 0.0
C3209 C 0.92777 0.77626 0.56032 0.0
C3210 C 0.93339 0.72801 0.51455 0.0
C3211 C 0.96979 0.80165 0.56262 0.0
C3212 C 0.00901 0.76972 0.53137 0.0
C3213 C 0.01632 0.78145 0.50927 0.0
C3214 C 0.98785 0.76405 0.54117 0.0
C3215 C 0.97389 0.77053 0.52868 0.0
C3216 C 0.98133 0.78256 0.50648 0.0
C3217 C 0.0024 0.7878 0.49702 0.0
C3218 C 0.98036 0.751 0.56473 0.0
C3219 C 0.96705 0.79001 0.49273 0.0
H3220 H 0.89563 0.7269 0.53013 0.0
H3221 H 0.92621 0.78831 0.57172 0.0
H3222 H 0.93941 0.73547 0.49625 0.0
H3223 H 0.94578 0.72361 0.52195 0.0
H3224 H 0.91686 0.71228 0.51246 0.0
H3225 H 0.9654 0.81089 0.57617 0.0
H3226 H 0.98225 0.79778 0.57088 0.0
H3227 H 0.97812 0.81295 0.54685 0.0
H3228 H 0.01972 0.7647 0.5408 0.0
H3229 H 0.00817 0.7972 0.48014 0.0
H3230 H 0.96445 0.73483 0.56179 0.0
H3231 H 0.97679 0.76066 0.5785 0.0
H3232 H 0.99323 0.74728 0.57222 0.0
H3233 H 0.95065 0.77511 0.48773 0.0
H3234 H 0.97541 0.79944 0.47585 0.0
H3235 H 0.96337 0.80096 0.5045 0.0
C3236 C 0.24326 0.15724 0.53501 0.0
C3237 C 0.23042 0.13859 0.55009 0.0
C3238 C 0.23649 0.17313 0.53027 0.0
C3239 C 0.21632 0.17026 0.54077 0.0
C3240 C 0.20349 0.15172 0.55637 0.0
C3241 C 0.21071 0.13616 0.56088 0.0
C3242 C 0.25064 0.19271 0.51353 0.0
C3243 C 0.18188 0.14808 0.56788 0.0
C3244 C 0.20783 0.22112 0.54018 0.0
C3245 C 0.19518 0.21718 0.51885 0.0
C3246 C 0.21443 0.2057 0.54796 0.0
C3247 C 0.20797 0.18588 0.53418 0.0
C3248 C 0.19427 0.18139 0.51328 0.0
C3249 C 0.18813 0.19714 0.50583 0.0
C3250 C 0.2291 0.21108 0.57029 0.0
C3251 C 0.18676 0.16031 0.49827 0.0
H3252 H 0.25837 0.15916 0.52644 0.0
H3253 H 0.20091 0.12209 0.57295 0.0
H3254 H 0.24087 0.19142 0.49689 0.0
H3255 H 0.25496 0.20887 0.52259 0.0
H3256 H 0.26652 0.19326 0.50799 0.0
H3257 H 0.17441 0.13341 0.58047 0.0
H3258 H 0.18501 0.16335 0.57813 0.0
H3259 H 0.16935 0.14521 0.55349 0.0
H3260 H 0.21343 0.23671 0.55012 0.0
H3261 H 0.17817 0.19404 0.48943 0.0
H3262 H 0.246 0.21405 0.56492 0.0
H3263 H 0.22176 0.1966 0.58308 0.0
H3264 H 0.23123 0.22627 0.57999 0.0
H3265 H 0.20168 0.16053 0.49007 0.0
H3266 H 0.17504 0.15871 0.48341 0.0
H3267 H 0.17824 0.14513 0.51003 0.0
C3268 C 0.76759 0.00389 0.50624 0.0
C3269 C 0.77292 0.99616 0.48502 0.0
C3270 C 0.78244 0.02544 0.51564 0.0
C3271 C 0.80318 0.03942 0.50364 0.0
C3272 C 0.80869 0.03162 0.4823 0.0
C3273 C 0.79348 0.01012 0.47322 0.0
C3274 C 0.77593 0.03327 0.53833 0.0
C3275 C 0.83076 0.0459 0.46915 0.0
C3276 C 0.83485 0.10283 0.51392 0.0
C3277 C 0.85155 0.10545 0.53056 0.0
C3278 C 0.81871 0.0814 0.50537 0.0
C3279 C 0.81937 0.06212 0.51352 0.0
C3280 C 0.83606 0.0646 0.53044 0.0
C3281 C 0.85189 0.08621 0.53879 0.0
C3282 C 0.80118 0.07944 0.48732 0.0
C3283 C 0.83737 0.04445 0.53949 0.0
H3284 H 0.75165 0.99319 0.5153 0.0
H3285 H 0.79784 0.00406 0.45703 0.0
H3286 H 0.78862 0.0371 0.55283 0.0
H3287 H 0.77573 0.04909 0.53451 0.0
H3288 H 0.75908 0.02047 0.54532 0.0
H3289 H 0.83241 0.03739 0.4527 0.0
H3290 H 0.83226 0.06216 0.46356 0.0
H3291 H 0.84507 0.04987 0.48155 0.0
H3292 H 0.83462 0.11758 0.50719 0.0
H3293 H 0.86446 0.08799 0.55193 0.0
H3294 H 0.78402 0.06762 0.49431 0.0
H3295 H 0.80317 0.07238 0.46992 0.0
H3296 H 0.80242 0.09597 0.48353 0.0
H3297 H 0.82114 0.03208 0.54805 0.0
H3298 H 0.85112 0.04921 0.55298 0.0
H3299 H 0.84026 0.03585 0.52395 0.0
C3300 C 0.89531 0.3298 0.35577 0.0
C3301 C 0.88194 0.32038 0.33501 0.0
C3302 C 0.90078 0.35141 0.3639 0.0
C3303 C 0.89241 0.36367 0.35109 0.0
C3304 C 0.87858 0.35403 0.33037 0.0
C3305 C 0.87357 0.33254 0.32256 0.0
C3306 C 0.91572 0.36126 0.38595 0.0
C3307 C 0.86911 0.36644 0.3164 0.0
C3308 C 0.88925 0.41156 0.3821 0.0
C3309 C 0.90792 0.43057 0.37202 0.0
C3310 C 0.88421 0.38967 0.37576 0.0
C3311 C 0.89825 0.3867 0.35906 0.0
C3312 C 0.91729 0.40577 0.34906 0.0
C3313 C 0.92183 0.42746 0.35557 0.0
C3314 C 0.86368 0.36971 0.3867 0.0
C3315 C 0.93266 0.40328 0.33117 0.0
H3316 H 0.90185 0.32043 0.36535 0.0
H3317 H 0.86288 0.32511 0.30675 0.0
H3318 H 0.9313 0.37705 0.38084 0.0
H3319 H 0.90698 0.36572 0.40001 0.0
H3320 H 0.92057 0.34943 0.39407 0.0
H3321 H 0.85829 0.35638 0.30093 0.0
H3322 H 0.85897 0.37075 0.32871 0.0
H3323 H 0.88307 0.38253 0.30918 0.0
H3324 H 0.87862 0.41376 0.3951 0.0
H3325 H 0.93609 0.44199 0.34742 0.0
H3326 H 0.86863 0.35852 0.39615 0.0
H3327 H 0.85169 0.35962 0.37205 0.0
H3328 H 0.85481 0.37489 0.39988 0.0
H3329 H 0.93898 0.39257 0.33909 0.0
H3330 H 0.94735 0.4198 0.32594 0.0
H3331 H 0.92312 0.39473 0.31444 0.0
C3332 C 0.56671 0.48514 0.3718 0.0
C3333 C 0.55879 0.46188 0.37288 0.0
C3334 C 0.58899 0.50044 0.36489 0.0
C3335 C 0.60381 0.49233 0.35906 0.0
C3336 C 0.59605 0.46893 0.3603 0.0
C3337 C 0.57362 0.45399 0.36709 0.0
C3338 C 0.59662 0.52529 0.36368 0.0
C3339 C 0.61137 0.45966 0.35423 0.0
C3340 C 0.65346 0.52974 0.31846 0.0
C3341 C 0.6709 0.54099 0.33546 0.0
C3342 C 0.63167 0.51358 0.32587 0.0
C3343 C 0.62721 0.50833 0.35089 0.0
C3344 C 0.6449 0.519 0.36809 0.0
C3345 C 0.66656 0.53525 0.36016 0.0
C3346 C 0.61327 0.50256 0.30697 0.0
C3347 C 0.6408 0.51371 0.39491 0.0
H3348 H 0.55559 0.49151 0.37663 0.0
H3349 H 0.56764 0.43606 0.36756 0.0
H3350 H 0.61134 0.53491 0.37583 0.0
H3351 H 0.60214 0.53162 0.34489 0.0
H3352 H 0.58309 0.52889 0.36904 0.0
H3353 H 0.60299 0.44112 0.35698 0.0
H3354 H 0.61693 0.46348 0.33499 0.0
H3355 H 0.62675 0.4679 0.36573 0.0
H3356 H 0.6568 0.53374 0.29927 0.0
H3357 H 0.67991 0.54397 0.3734 0.0
H3358 H 0.59992 0.50688 0.31053 0.0
H3359 H 0.60526 0.48393 0.30809 0.0
H3360 H 0.6197 0.50794 0.28816 0.0
H3361 H 0.62888 0.51894 0.40186 0.0
H3362 H 0.65661 0.52242 0.40573 0.0
H3363 H 0.63289 0.49526 0.39792 0.0
C3364 C 0.42107 0.09491 0.36101 0.0
C3365 C 0.42331 0.1073 0.33984 0.0
C3366 C 0.43814 0.09037 0.36811 0.0
C3367 C 0.45799 0.0987 0.35386 0.0
C3368 C 0.46046 0.11154 0.33271 0.0
C3369 C 0.44307 0.11561 0.32592 0.0
C3370 C 0.43484 0.07646 0.39067 0.0
C3371 C 0.48148 0.121 0.31721 0.0
C3372 C 0.51174 0.10519 0.38168 0.0
C3373 C 0.5124 0.08658 0.37187 0.0
C3374 C 0.49396 0.10914 0.3763 0.0
C3375 C 0.47625 0.09401 0.36089 0.0
C3376 C 0.47655 0.07498 0.35126 0.0
C3377 C 0.49466 0.07157 0.35675 0.0
C3378 C 0.49431 0.12971 0.38679 0.0
C3379 C 0.45794 0.05843 0.3348 0.0
H3380 H 0.40577 0.0884 0.37173 0.0
H3381 H 0.44503 0.12553 0.30977 0.0
H3382 H 0.43547 0.06104 0.38582 0.0
H3383 H 0.44872 0.08615 0.40378 0.0
H3384 H 0.41851 0.07134 0.39982 0.0
H3385 H 0.48088 0.13092 0.30151 0.0
H3386 H 0.49653 0.13205 0.32839 0.0
H3387 H 0.48375 0.10708 0.31016 0.0
H3388 H 0.52508 0.1167 0.3937 0.0
H3389 H 0.49507 0.05731 0.3488 0.0
H3390 H 0.47864 0.12463 0.39728 0.0
H3391 H 0.4949 0.14089 0.37183 0.0
H3392 H 0.50902 0.13953 0.39895 0.0
H3393 H 0.44132 0.05203 0.34379 0.0
H3394 H 0.46003 0.04383 0.32991 0.0
H3395 H 0.45765 0.06702 0.3178 0.0
C3396 C 0.6669 0.56178 0.82421 0.0
C3397 C 0.65838 0.54759 0.84452 0.0
C3398 C 0.68875 0.56884 0.81553 0.0
C3399 C 0.70215 0.56123 0.82729 0.0
C3400 C 0.69332 0.54638 0.84739 0.0
C3401 C 0.67158 0.53983 0.85582 0.0
C3402 C 0.6977 0.58484 0.79419 0.0
C3403 C 0.70693 0.53762 0.8602 0.0
C3404 C 0.75218 0.56357 0.79468 0.0
C3405 C 0.77042 0.58239 0.80563 0.0
C3406 C 0.72985 0.55671 0.80123 0.0
C3407 C 0.7256 0.56908 0.81902 0.0
C3408 C 0.74386 0.58833 0.82983 0.0
C3409 C 0.76603 0.59468 0.8231 0.0
C3410 C 0.7108 0.53599 0.78944 0.0
C3411 C 0.74001 0.60199 0.84885 0.0
H3412 H 0.65671 0.56786 0.81556 0.0
H3413 H 0.66486 0.52858 0.87133 0.0
H3414 H 0.7127 0.60089 0.79991 0.0
H3415 H 0.70323 0.57756 0.77951 0.0
H3416 H 0.68493 0.58867 0.78664 0.0
H3417 H 0.69729 0.52557 0.87502 0.0
H3418 H 0.71238 0.52904 0.84697 0.0
H3419 H 0.72241 0.55189 0.86812 0.0
H3420 H 0.75531 0.55418 0.78088 0.0
H3421 H 0.77994 0.60903 0.83194 0.0
H3422 H 0.69875 0.54022 0.78078 0.0
H3423 H 0.70135 0.52298 0.8035 0.0
H3424 H 0.71691 0.5286 0.77542 0.0
H3425 H 0.7283 0.60742 0.84175 0.0
H3426 H 0.75595 0.61719 0.85453 0.0
H3427 H 0.73199 0.59143 0.86517 0.0
C3428 C 0.43417 0.18093 0.80059 0.0
C3429 C 0.41237 0.17759 0.80392 0.0
C3430 C 0.43946 0.16435 0.80738 0.0
C3431 C 0.42262 0.144 0.81798 0.0
C3432 C 0.40048 0.14027 0.82091 0.0
C3433 C 0.39559 0.15704 0.81373 0.0
C3434 C 0.46325 0.16888 0.80383 0.0
C3435 C 0.38207 0.11881 0.83224 0.0
C3436 C 0.43174 0.09364 0.82175 0.0
C3437 C 0.43953 0.09539 0.84573 0.0
C3438 C 0.42627 0.1094 0.81236 0.0
C3439 C 0.42849 0.12721 0.82738 0.0
C3440 C 0.43632 0.12907 0.85158 0.0
C3441 C 0.44189 0.11326 0.86038 0.0
C3442 C 0.41813 0.10701 0.7864 0.0
C3443 C 0.43886 0.14779 0.8682 0.0
H3444 H 0.44733 0.19676 0.79328 0.0
H3445 H 0.37859 0.15401 0.81591 0.0
H3446 H 0.47116 0.17006 0.8218 0.0
H3447 H 0.46309 0.15473 0.79378 0.0
H3448 H 0.47393 0.18478 0.79368 0.0
H3449 H 0.3655 0.1181 0.83229 0.0
H3450 H 0.38029 0.10391 0.82226 0.0
H3451 H 0.38664 0.11748 0.85131 0.0
H3452 H 0.42971 0.07981 0.81037 0.0
H3453 H 0.44841 0.11511 0.87873 0.0
H3454 H 0.42931 0.12259 0.77603 0.0
H3455 H 0.40094 0.10483 0.78605 0.0
H3456 H 0.41768 0.09243 0.77698 0.0
H3457 H 0.45103 0.16441 0.86025 0.0
H3458 H 0.44484 0.14663 0.88666 0.0
H3459 H 0.42246 0.14726 0.87001 0.0
C3460 C 0.83316 0.24395 0.80801 0.0
C3461 C 0.81277 0.24012 0.79763 0.0
C3462 C 0.84978 0.2656 0.81548 0.0
C3463 C 0.84618 0.28407 0.8122 0.0
C3464 C 0.82601 0.28053 0.80108 0.0
C3465 C 0.80953 0.25864 0.79408 0.0
C3466 C 0.87099 0.26862 0.82742 0.0
C3467 C 0.82161 0.29982 0.79706 0.0
C3468 C 0.87682 0.33447 0.85441 0.0
C3469 C 0.89511 0.34974 0.84002 0.0
C3470 C 0.8609 0.3131 0.84558 0.0
C3471 C 0.86298 0.30684 0.82158 0.0
C3472 C 0.88113 0.32223 0.80677 0.0
C3473 C 0.89704 0.34344 0.81619 0.0
C3474 C 0.84187 0.29715 0.86204 0.0
C3475 C 0.8838 0.31625 0.78099 0.0
H3476 H 0.83622 0.23002 0.81042 0.0
H3477 H 0.79387 0.25603 0.78633 0.0
H3478 H 0.88608 0.28152 0.81751 0.0
H3479 H 0.87211 0.2748 0.84634 0.0
H3480 H 0.87155 0.25268 0.82799 0.0
H3481 H 0.80584 0.29458 0.78664 0.0
H3482 H 0.82026 0.3067 0.81487 0.0
H3483 H 0.83591 0.31371 0.78708 0.0
H3484 H 0.87477 0.33929 0.8726 0.0
H3485 H 0.91115 0.35498 0.80497 0.0
H3486 H 0.84224 0.28123 0.86427 0.0
H3487 H 0.8254 0.29273 0.8537 0.0
H3488 H 0.84281 0.30448 0.88034 0.0
H3489 H 0.88605 0.30128 0.78103 0.0
H3490 H 0.89846 0.33032 0.7716 0.0
H3491 H 0.86831 0.3117 0.77036 0.0
C3492 C 0.42616 0.24214 0.3072 0.0
C3493 C 0.40693 0.22353 0.31705 0.0
C3494 C 0.4318 0.26429 0.31311 0.0
C3495 C 0.41778 0.26799 0.32911 0.0
C3496 C 0.39811 0.24935 0.33878 0.0
C3497 C 0.39299 0.22735 0.33272 0.0
C3498 C 0.45299 0.28375 0.30254 0.0
C3499 C 0.38271 0.25262 0.35588 0.0
C3500 C 0.44381 0.32267 0.36494 0.0
C3501 C 0.43675 0.33551 0.35162 0.0
C3502 C 0.43783 0.30074 0.35771 0.0
C3503 C 0.42431 0.29134 0.33673 0.0
C3504 C 0.4172 0.30425 0.32311 0.0
C3505 C 0.42365 0.32629 0.33064 0.0
C3506 C 0.44604 0.28766 0.37252 0.0
C3507 C 0.40262 0.29469 0.30076 0.0
H3508 H 0.43683 0.23944 0.29473 0.0
H3509 H 0.37825 0.21315 0.34067 0.0
H3510 H 0.44887 0.29533 0.2926 0.0
H3511 H 0.46479 0.29359 0.31743 0.0
H3512 H 0.46177 0.27803 0.28986 0.0
H3513 H 0.36746 0.23641 0.36079 0.0
H3514 H 0.39193 0.26094 0.37284 0.0
H3515 H 0.37728 0.26385 0.34743 0.0
H3516 H 0.45425 0.3299 0.38094 0.0
H3517 H 0.41811 0.33618 0.3204 0.0
H3518 H 0.4561 0.28273 0.36085 0.0
H3519 H 0.43144 0.2719 0.37949 0.0
H3520 H 0.45659 0.29751 0.38824 0.0
H3521 H 0.4113 0.28973 0.28712 0.0
H3522 H 0.39852 0.30691 0.29219 0.0
H3523 H 0.38663 0.27923 0.30566 0.0
C3524 C 0.74381 0.19175 0.30089 0.0
C3525 C 0.76206 0.19052 0.31082 0.0
C3526 C 0.72147 0.17546 0.30642 0.0
C3527 C 0.71725 0.15741 0.32215 0.0
C3528 C 0.73554 0.15584 0.33196 0.0
C3529 C 0.75772 0.17244 0.32623 0.0
C3530 C 0.7024 0.17775 0.29568 0.0
C3531 C 0.7317 0.13682 0.34883 0.0
C3532 C 0.6623 0.12866 0.35739 0.0
C3533 C 0.64963 0.10876 0.34401 0.0
C3534 C 0.68421 0.14474 0.35027 0.0
C3535 C 0.69373 0.14077 0.3293 0.0
C3536 C 0.68089 0.12089 0.31544 0.0
C3537 C 0.65889 0.10513 0.32291 0.0
C3538 C 0.69725 0.16586 0.36536 0.0
C3539 C 0.69056 0.11606 0.29304 0.0
H3540 H 0.74694 0.20539 0.28862 0.0
H3541 H 0.77168 0.17148 0.3342 0.0
H3542 H 0.69076 0.16226 0.28544 0.0
H3543 H 0.69248 0.17969 0.3105 0.0
H3544 H 0.70852 0.19246 0.28324 0.0
H3545 H 0.7477 0.13745 0.35399 0.0
H3546 H 0.72317 0.13762 0.36567 0.0
H3547 H 0.72043 0.12032 0.34005 0.0
H3548 H 0.65504 0.13166 0.37351 0.0
H3549 H 0.64914 0.08969 0.31264 0.0
H3550 H 0.70266 0.18101 0.35382 0.0
H3551 H 0.71274 0.16667 0.3727 0.0
H3552 H 0.6872 0.1666 0.38084 0.0
H3553 H 0.69617 0.13011 0.27982 0.0
H3554 H 0.67818 0.10011 0.28395 0.0
H3555 H 0.70562 0.11487 0.2981 0.0
C3556 C 0.83116 0.59349 0.31498 0.0
C3557 C 0.81078 0.5764 0.30512 0.0
C3558 C 0.84801 0.58897 0.32291 0.0
C3559 C 0.8446 0.56688 0.32064 0.0
C3560 C 0.82433 0.54965 0.31032 0.0
C3561 C 0.80764 0.55456 0.30287 0.0
C3562 C 0.86933 0.60775 0.33403 0.0
C3563 C 0.82011 0.52589 0.30745 0.0
C3564 C 0.89515 0.55796 0.3233 0.0
C3565 C 0.89372 0.55005 0.34719 0.0
C3566 C 0.87936 0.56362 0.31442 0.0
C3567 C 0.86185 0.56154 0.32986 0.0
C3568 C 0.86044 0.55381 0.35404 0.0
C3569 C 0.87625 0.548 0.36233 0.0
C3570 C 0.88128 0.57162 0.28845 0.0
C3571 C 0.84209 0.55146 0.37112 0.0
H3572 H 0.83407 0.6105 0.3165 0.0
H3573 H 0.79197 0.54107 0.29567 0.0
H3574 H 0.87109 0.60333 0.35303 0.0
H3575 H 0.88427 0.60996 0.32378 0.0
H3576 H 0.86954 0.62409 0.3342 0.0
H3577 H 0.80396 0.51469 0.29795 0.0
H3578 H 0.83408 0.52604 0.29704 0.0
H3579 H 0.81967 0.51859 0.32561 0.0
H3580 H 0.90871 0.55987 0.31155 0.0
H3581 H 0.87463 0.54145 0.38063 0.0
H3582 H 0.883 0.58862 0.28808 0.0
H3583 H 0.86569 0.5601 0.27828 0.0
H3584 H 0.89594 0.57242 0.27883 0.0
H3585 H 0.84235 0.56776 0.37255 0.0
H3586 H 0.84389 0.54609 0.38967 0.0
H3587 H 0.82533 0.53888 0.3638 0.0
C3588 C 0.57327 0.1166 0.86728 0.0
C3589 C 0.55982 0.0939 0.8741 0.0
C3590 C 0.59579 0.12529 0.86006 0.0
C3591 C 0.60514 0.11094 0.85962 0.0
C3592 C 0.59172 0.08806 0.86662 0.0
C3593 C 0.56924 0.07981 0.87374 0.0
C3594 C 0.6095 0.14974 0.85257 0.0
C3595 C 0.60109 0.07223 0.86644 0.0
C3596 C 0.65472 0.12459 0.81821 0.0
C3597 C 0.67279 0.13312 0.83471 0.0
C3598 C 0.63273 0.1178 0.82601 0.0
C3599 C 0.62866 0.11959 0.85095 0.0
C3600 C 0.64694 0.12891 0.86759 0.0
C3601 C 0.66883 0.13564 0.85924 0.0
C3602 C 0.61377 0.10816 0.80764 0.0
C3603 C 0.64325 0.13109 0.89431 0.0
H3604 H 0.56606 0.12753 0.86719 0.0
H3605 H 0.55911 0.06238 0.87934 0.0
H3606 H 0.62513 0.15844 0.86362 0.0
H3607 H 0.6147 0.15089 0.83324 0.0
H3608 H 0.59998 0.15886 0.85471 0.0
H3609 H 0.58865 0.05507 0.873 0.0
H3610 H 0.6063 0.07081 0.84769 0.0
H3611 H 0.61634 0.07905 0.87811 0.0
H3612 H 0.65777 0.12295 0.79915 0.0
H3613 H 0.68272 0.14209 0.87207 0.0
H3614 H 0.60442 0.11752 0.80827 0.0
H3615 H 0.6016 0.09031 0.81221 0.0
H3616 H 0.61991 0.10885 0.78876 0.0
H3617 H 0.6342 0.14062 0.89674 0.0
H3618 H 0.65935 0.13975 0.90464 0.0
H3619 H 0.63249 0.11409 0.90229 0.0
C3620 C 0.89821 0.57197 0.85505 0.0
C3621 C 0.88694 0.56981 0.83304 0.0
C3622 C 0.90324 0.55533 0.86255 0.0
C3623 C 0.89653 0.536 0.84782 0.0
C3624 C 0.88481 0.5336 0.82579 0.0
C3625 C 0.88024 0.55057 0.81864 0.0
C3626 C 0.91594 0.55855 0.88604 0.0
C3627 C 0.87709 0.5131 0.80975 0.0
C3628 C 0.92594 0.50157 0.85304 0.0
C3629 C 0.91061 0.48318 0.86722 0.0
C3630 C 0.92183 0.51913 0.84707 0.0
C3631 C 0.90179 0.51822 0.85527 0.0
C3632 C 0.88629 0.49981 0.86968 0.0
C3633 C 0.89093 0.48259 0.87556 0.0
C3634 C 0.9388 0.53851 0.83169 0.0
C3635 C 0.86465 0.49816 0.87863 0.0
H3636 H 0.90348 0.58688 0.86614 0.0
H3637 H 0.87118 0.54867 0.80181 0.0
H3638 H 0.90593 0.54418 0.8985 0.0
H3639 H 0.932 0.55881 0.88231 0.0
H3640 H 0.91983 0.57445 0.89547 0.0
H3641 H 0.86787 0.51368 0.79337 0.0
H3642 H 0.89184 0.51176 0.80372 0.0
H3643 H 0.86588 0.49758 0.82018 0.0
H3644 H 0.94103 0.5021 0.8462 0.0
H3645 H 0.87915 0.46872 0.88686 0.0
H3646 H 0.94408 0.55477 0.84106 0.0
H3647 H 0.93097 0.53891 0.81415 0.0
H3648 H 0.95405 0.53725 0.82776 0.0
H3649 H 0.86844 0.51336 0.88943 0.0
H3650 H 0.85458 0.48297 0.89007 0.0
H3651 H 0.85421 0.49755 0.86289 0.0
C3652 C 0.44311 0.32284 0.87165 0.0
C3653 C 0.4468 0.3131 0.851 0.0
C3654 C 0.45902 0.34489 0.87883 0.0
C3655 C 0.47909 0.35729 0.86512 0.0
C3656 C 0.48328 0.3471 0.84489 0.0
C3657 C 0.46705 0.32516 0.83804 0.0
C3658 C 0.45396 0.35525 0.90046 0.0
C3659 C 0.50459 0.35962 0.82999 0.0
C3660 C 0.51015 0.42134 0.86424 0.0
C3661 C 0.52844 0.4267 0.87973 0.0
C3662 C 0.4936 0.39881 0.85988 0.0
C3663 C 0.49542 0.38121 0.87121 0.0
C3664 C 0.51357 0.38648 0.88724 0.0
C3665 C 0.52981 0.40914 0.89134 0.0
C3666 C 0.47446 0.39384 0.84267 0.0
C3667 C 0.51609 0.36818 0.89965 0.0
H3668 H 0.42736 0.31359 0.88153 0.0
H3669 H 0.46997 0.31753 0.82218 0.0
H3670 H 0.46824 0.36212 0.91351 0.0
H3671 H 0.4519 0.36955 0.8943 0.0
H3672 H 0.43836 0.3429 0.91013 0.0
H3673 H 0.50579 0.34886 0.81559 0.0
H3674 H 0.50517 0.37449 0.82119 0.0
H3675 H 0.51962 0.36597 0.84194 0.0
H3676 H 0.50904 0.43475 0.85505 0.0
H3677 H 0.54359 0.41309 0.90374 0.0
H3678 H 0.45802 0.38271 0.85163 0.0
H3679 H 0.47549 0.38473 0.82645 0.0
H3680 H 0.47474 0.40943 0.83646 0.0
H3681 H 0.50051 0.35675 0.90987 0.0
H3682 H 0.53061 0.37512 0.91244 0.0
H3683 H 0.51855 0.35781 0.88578 0.0
C3684 C 0.56851 0.66916 0.68631 0.0
C3685 C 0.55546 0.65875 0.66558 0.0
C3686 C 0.57513 0.69168 0.69204 0.0
C3687 C 0.56828 0.7039 0.67684 0.0
C3688 C 0.55472 0.69326 0.65617 0.0
C3689 C 0.54856 0.67088 0.65076 0.0
C3690 C 0.5897 0.70249 0.71415 0.0
C3691 C 0.54676 0.70555 0.63969 0.0
C3692 C 0.56678 0.75505 0.70129 0.0
C3693 C 0.58607 0.773 0.69061 0.0
C3694 C 0.56105 0.73255 0.69735 0.0
C3695 C 0.57503 0.72775 0.68251 0.0
C3696 C 0.59481 0.74574 0.67212 0.0
C3697 C 0.60004 0.76812 0.67622 0.0
C3698 C 0.53977 0.71387 0.7087 0.0
C3699 C 0.61019 0.74131 0.65626 0.0
H3700 H 0.574 0.65988 0.69769 0.0
H3701 H 0.5382 0.66278 0.63491 0.0
H3702 H 0.60585 0.71742 0.70855 0.0
H3703 H 0.58119 0.70854 0.72674 0.0
H3704 H 0.59349 0.69067 0.72417 0.0
H3705 H 0.53613 0.69479 0.62448 0.0
H3706 H 0.53686 0.71139 0.65032 0.0
H3707 H 0.56148 0.72074 0.63191 0.0
H3708 H 0.5561 0.75853 0.71288 0.0
H3709 H 0.61486 0.78178 0.66772 0.0
H3710 H 0.54375 0.70282 0.71989 0.0
H3711 H 0.52795 0.70321 0.6942 0.0
H3712 H 0.53108 0.72043 0.72038 0.0
H3713 H 0.61535 0.73043 0.66602 0.0
H3714 H 0.6256 0.75713 0.65073 0.0
H3715 H 0.60106 0.73213 0.63959 0.0
C3716 C 0.33411 0.90823 0.68976 0.0
C3717 C 0.35051 0.90241 0.68439 0.0
C3718 C 0.31276 0.89194 0.69828 0.0
C3719 C 0.30766 0.86926 0.70078 0.0
C3720 C 0.32445 0.86348 0.69582 0.0
C3721 C 0.34581 0.88023 0.68786 0.0
C3722 C 0.29545 0.89883 0.70386 0.0
C3723 C 0.31953 0.83943 0.6978 0.0
C3724 C 0.25614 0.82754 0.73684 0.0
C3725 C 0.24006 0.81736 0.71834 0.0
C3726 C 0.2782 0.84468 0.73148 0.0
C3727 C 0.28435 0.85135 0.70697 0.0
C3728 C 0.26821 0.84085 0.6882 0.0
C3729 C 0.24618 0.82415 0.69417 0.0
C3730 C 0.29481 0.85586 0.752 0.0
C3731 C 0.27423 0.84716 0.66179 0.0
H3732 H 0.33791 0.92546 0.6869 0.0
H3733 H 0.35857 0.87585 0.68337 0.0
H3734 H 0.2815 0.89104 0.69044 0.0
H3735 H 0.28803 0.89266 0.72215 0.0
H3736 H 0.30277 0.91743 0.70325 0.0
H3737 H 0.33474 0.83795 0.69443 0.0
H3738 H 0.31282 0.83256 0.71614 0.0
H3739 H 0.30636 0.82875 0.68437 0.0
H3740 H 0.25126 0.82243 0.75556 0.0
H3741 H 0.23374 0.81608 0.67989 0.0
H3742 H 0.30107 0.87427 0.75196 0.0
H3743 H 0.30964 0.85363 0.74938 0.0
H3744 H 0.28725 0.84891 0.77009 0.0
H3745 H 0.27973 0.86524 0.65904 0.0
H3746 H 0.25985 0.83695 0.64937 0.0
H3747 H 0.28857 0.84478 0.65658 0.0
C3748 C 0.13569 0.47021 0.6624 0.0
C3749 C 0.11512 0.46172 0.67481 0.0
C3750 C 0.15181 0.46443 0.66953 0.0
C3751 C 0.14721 0.44971 0.68953 0.0
C3752 C 0.12664 0.44139 0.70243 0.0
C3753 C 0.11084 0.44758 0.69496 0.0
C3754 C 0.17364 0.47385 0.65547 0.0
C3755 C 0.12112 0.42557 0.72376 0.0
C3756 C 0.17956 0.41802 0.69149 0.0
C3757 C 0.19679 0.4309 0.70818 0.0
C3758 C 0.16307 0.4237 0.6856 0.0
C3759 C 0.16386 0.4428 0.69658 0.0
C3760 C 0.18107 0.45578 0.71358 0.0
C3761 C 0.19729 0.44966 0.7192 0.0
C3762 C 0.14499 0.40945 0.66734 0.0
C3763 C 0.18248 0.47627 0.72566 0.0
H3764 H 0.13917 0.48139 0.647 0.0
H3765 H 0.09487 0.44083 0.70445 0.0
H3766 H 0.1882 0.48303 0.66794 0.0
H3767 H 0.17514 0.45986 0.6472 0.0
H3768 H 0.17484 0.48553 0.64076 0.0
H3769 H 0.10471 0.42116 0.73232 0.0
H3770 H 0.12046 0.4098 0.71766 0.0
H3771 H 0.13456 0.43334 0.73776 0.0
H3772 H 0.17918 0.40368 0.68267 0.0
H3773 H 0.21027 0.45948 0.73242 0.0
H3774 H 0.14632 0.41981 0.65121 0.0
H3775 H 0.12805 0.40332 0.67541 0.0
H3776 H 0.14624 0.39466 0.66114 0.0
H3777 H 0.18481 0.48894 0.71165 0.0
H3778 H 0.19663 0.48428 0.73888 0.0
H3779 H 0.16649 0.47152 0.73534 0.0
C3780 C 0.32464 0.85687 0.15785 0.0
C3781 C 0.32061 0.86029 0.18206 0.0
C3782 C 0.34642 0.86258 0.1501 0.0
C3783 C 0.36443 0.87169 0.16705 0.0
C3784 C 0.36024 0.87435 0.19171 0.0
C3785 C 0.33838 0.86866 0.19889 0.0
C3786 C 0.3503 0.85958 0.12364 0.0
C3787 C 0.37894 0.88377 0.21039 0.0
C3788 C 0.41892 0.87222 0.15255 0.0
C3789 C 0.43303 0.89469 0.14538 0.0
C3790 C 0.39645 0.86438 0.15937 0.0
C3791 C 0.38788 0.87938 0.15892 0.0
C3792 C 0.40197 0.90204 0.15151 0.0
C3793 C 0.42439 0.90943 0.14488 0.0
C3794 C 0.38199 0.84017 0.16738 0.0
C3795 C 0.39339 0.91852 0.1507 0.0
H3796 H 0.31093 0.85052 0.1448 0.0
H3797 H 0.33521 0.87099 0.21771 0.0
H3798 H 0.36163 0.87629 0.11533 0.0
H3799 H 0.35878 0.84944 0.122 0.0
H3800 H 0.33432 0.85116 0.11307 0.0
H3801 H 0.37262 0.88363 0.22906 0.0
H3802 H 0.38776 0.87389 0.21045 0.0
H3803 H 0.3916 0.90141 0.20559 0.0
H3804 H 0.42558 0.86083 0.15323 0.0
H3805 H 0.43508 0.92669 0.13898 0.0
H3806 H 0.36648 0.83166 0.15611 0.0
H3807 H 0.37658 0.83961 0.18654 0.0
H3808 H 0.39101 0.8305 0.16601 0.0
H3809 H 0.37831 0.91189 0.1388 0.0
H3810 H 0.40632 0.93537 0.14384 0.0
H3811 H 0.38815 0.92058 0.16919 0.0
C3812 C 0.06704 0.49107 0.14521 0.0
C3813 C 0.08274 0.511 0.13338 0.0
C3814 C 0.07295 0.4752 0.15304 0.0
C3815 C 0.09503 0.47919 0.14871 0.0
C3816 C 0.11079 0.49894 0.13624 0.0
C3817 C 0.1045 0.51464 0.12884 0.0
C3818 C 0.05569 0.45436 0.16638 0.0
C3819 C 0.13448 0.50374 0.1312 0.0
C3820 C 0.11767 0.45135 0.19097 0.0
C3821 C 0.11451 0.43273 0.17716 0.0
C3822 C 0.11138 0.46655 0.18191 0.0
C3823 C 0.10195 0.46326 0.15831 0.0
C3824 C 0.09902 0.44473 0.14408 0.0
C3825 C 0.10528 0.42963 0.15371 0.0
C3826 C 0.11473 0.48609 0.19766 0.0
C3827 C 0.08916 0.44078 0.11877 0.0
H3828 H 0.05007 0.4878 0.14839 0.0
H3829 H 0.11685 0.53004 0.11998 0.0
H3830 H 0.0534 0.43899 0.15704 0.0
H3831 H 0.06174 0.45424 0.18509 0.0
H3832 H 0.03904 0.45342 0.16765 0.0
H3833 H 0.14426 0.51916 0.12 0.0
H3834 H 0.14354 0.50595 0.14864 0.0
H3835 H 0.134 0.48924 0.1216 0.0
H3836 H 0.12526 0.45419 0.20888 0.0
H3837 H 0.10262 0.4152 0.14301 0.0
H3838 H 0.09833 0.48531 0.20065 0.0
H3839 H 0.12599 0.50228 0.18832 0.0
H3840 H 0.12217 0.48618 0.21567 0.0
H3841 H 0.0718 0.43814 0.11957 0.0
H3842 H 0.08852 0.42591 0.10983 0.0
H3843 H 0.09932 0.45587 0.10727 0.0
C3844 C 0.54844 0.66841 0.18065 0.0
C3845 C 0.56695 0.67972 0.16495 0.0
C3846 C 0.53142 0.64621 0.17594 0.0
C3847 C 0.53298 0.63497 0.15505 0.0
C3848 C 0.55147 0.64638 0.13891 0.0
C3849 C 0.56821 0.66873 0.14399 0.0
C3850 C 0.51184 0.63475 0.19342 0.0
C3851 C 0.55374 0.63487 0.11653 0.0
C3852 C 0.49911 0.57091 0.1572 0.0
C3853 C 0.47978 0.56633 0.14389 0.0
C3854 C 0.51684 0.59314 0.16044 0.0
C3855 C 0.51516 0.61124 0.15024 0.0
C3856 C 0.49586 0.60674 0.13652 0.0
C3857 C 0.47847 0.58437 0.13345 0.0
C3858 C 0.53719 0.59729 0.17518 0.0
C3859 C 0.49341 0.62558 0.12541 0.0
H3860 H 0.54729 0.677 0.19671 0.0
H3861 H 0.58259 0.67739 0.13194 0.0
H3862 H 0.49572 0.62915 0.18361 0.0
H3863 H 0.5112 0.61948 0.20119 0.0
H3864 H 0.513 0.64599 0.20863 0.0
H3865 H 0.56893 0.64618 0.10563 0.0
H3866 H 0.55477 0.61979 0.12195 0.0
H3867 H 0.5386 0.62891 0.10482 0.0
H3868 H 0.50021 0.55714 0.16549 0.0
H3869 H 0.46388 0.58104 0.1227 0.0
H3870 H 0.53834 0.607 0.19183 0.0
H3871 H 0.55284 0.60758 0.16454 0.0
H3872 H 0.53649 0.58134 0.18071 0.0
H3873 H 0.49329 0.63674 0.14 0.0
H3874 H 0.47767 0.6192 0.11458 0.0
H3875 H 0.50801 0.63609 0.11343 0.0
C3876 C 0.1168 0.67928 0.64274 0.0
C3877 C 0.13065 0.68612 0.66344 0.0
C3878 C 0.10867 0.65765 0.63277 0.0
C3879 C 0.1148 0.64271 0.64362 0.0
C3880 C 0.12948 0.64991 0.66397 0.0
C3881 C 0.13712 0.67147 0.67369 0.0
C3882 C 0.09291 0.6505 0.61121 0.0
C3883 C 0.1367 0.63463 0.67587 0.0
C3884 C 0.07871 0.57902 0.63915 0.0
C3885 C 0.091 0.57383 0.62249 0.0
C3886 C 0.08559 0.60148 0.64519 0.0
C3887 C 0.10534 0.61921 0.63447 0.0
C3888 C 0.11713 0.61417 0.61671 0.0
C3889 C 0.10976 0.59156 0.61085 0.0
C3890 C 0.0724 0.60616 0.66406 0.0
C3891 C 0.13825 0.63257 0.60484 0.0
H3892 H 0.11161 0.69052 0.63494 0.0
H3893 H 0.148 0.67684 0.68957 0.0
H3894 H 0.09914 0.64398 0.59644 0.0
H3895 H 0.07604 0.63656 0.61667 0.0
H3896 H 0.09097 0.66457 0.60391 0.0
H3897 H 0.14906 0.6432 0.69079 0.0
H3898 H 0.12175 0.61956 0.68349 0.0
H3899 H 0.14438 0.6286 0.66216 0.0
H3900 H 0.06433 0.56555 0.64843 0.0
H3901 H 0.11909 0.58776 0.5976 0.0
H3902 H 0.06883 0.61938 0.6575 0.0
H3903 H 0.08257 0.61257 0.68095 0.0
H3904 H 0.05617 0.59082 0.66868 0.0
H3905 H 0.13529 0.64601 0.59763 0.0
H3906 H 0.1442 0.62607 0.58973 0.0
H3907 H 0.15189 0.64047 0.61862 0.0
C3908 C 0.33476 0.44014 0.65985 0.0
C3909 C 0.32782 0.44098 0.6837 0.0
C3910 C 0.35643 0.45606 0.6516 0.0
C3911 C 0.37166 0.47307 0.66766 0.0
C3912 C 0.36484 0.47396 0.69175 0.0
C3913 C 0.34299 0.4581 0.69938 0.0
C3914 C 0.36302 0.45472 0.62568 0.0
C3915 C 0.38062 0.49172 0.7095 0.0
C3916 C 0.43458 0.50222 0.65441 0.0
C3917 C 0.43888 0.52308 0.64488 0.0
C3918 C 0.41282 0.4858 0.66181 0.0
C3919 C 0.39472 0.49008 0.65931 0.0
C3920 C 0.39878 0.51089 0.64949 0.0
C3921 C 0.42077 0.52717 0.64264 0.0
C3922 C 0.40922 0.46391 0.6725 0.0
C3923 C 0.37988 0.51602 0.64637 0.0
H3924 H 0.32331 0.4269 0.64764 0.0
H3925 H 0.33772 0.45934 0.71764 0.0
H3926 H 0.36801 0.47082 0.61609 0.0
H3927 H 0.37785 0.45227 0.6255 0.0
H3928 H 0.3491 0.44071 0.61536 0.0
H3929 H 0.37295 0.48969 0.72782 0.0
H3930 H 0.39635 0.49093 0.71138 0.0
H3931 H 0.38546 0.50876 0.70253 0.0
H3932 H 0.44812 0.4985 0.65602 0.0
H3933 H 0.42369 0.54319 0.63571 0.0
H3934 H 0.39665 0.44946 0.66153 0.0
H3935 H 0.40232 0.46176 0.69122 0.0
H3936 H 0.42505 0.46318 0.67327 0.0
H3937 H 0.36614 0.50267 0.63527 0.0
H3938 H 0.38563 0.53258 0.63744 0.0
H3939 H 0.3726 0.51613 0.66438 0.0
C3940 C 0.54887 0.88296 0.68334 0.0
C3941 C 0.56804 0.89083 0.6685 0.0
C3942 C 0.53175 0.88783 0.6779 0.0
C3943 C 0.53382 0.90095 0.65711 0.0
C3944 C 0.55298 0.90871 0.64184 0.0
C3945 C 0.56985 0.90346 0.64767 0.0
C3946 C 0.51148 0.87902 0.6945 0.0
C3947 C 0.55581 0.92281 0.61958 0.0
C3948 C 0.47971 0.89664 0.63323 0.0
C3949 C 0.48043 0.91572 0.64365 0.0
C3950 C 0.49718 0.89187 0.63705 0.0
C3951 C 0.5159 0.90657 0.65158 0.0
C3952 C 0.51694 0.92604 0.66186 0.0
C3953 C 0.49918 0.93035 0.65782 0.0
C3954 C 0.49543 0.87091 0.62582 0.0
C3955 C 0.53661 0.94211 0.67751 0.0
H3956 H 0.54719 0.87283 0.69922 0.0
H3957 H 0.58468 0.90964 0.63623 0.0
H3958 H 0.51019 0.89331 0.70221 0.0
H3959 H 0.49582 0.86843 0.68399 0.0
H3960 H 0.51232 0.86882 0.70977 0.0
H3961 H 0.57149 0.9272 0.60936 0.0
H3962 H 0.54117 0.91362 0.60722 0.0
H3963 H 0.55628 0.93865 0.62503 0.0
H3964 H 0.46553 0.88545 0.62191 0.0
H3965 H 0.4998 0.94497 0.66618 0.0
H3966 H 0.49496 0.85945 0.64037 0.0
H3967 H 0.51051 0.87544 0.61446 0.0
H3968 H 0.48012 0.86161 0.61433 0.0
H3969 H 0.53734 0.93326 0.69411 0.0
H3970 H 0.53541 0.95706 0.68315 0.0
H3971 H 0.55268 0.94798 0.66752 0.0
C3972 C 0.23645 0.40514 0.18953 0.0
C3973 C 0.23322 0.41882 0.20618 0.0
C3974 C 0.2582 0.40979 0.18308 0.0
C3975 C 0.27721 0.42867 0.19343 0.0
C3976 C 0.2741 0.44242 0.21043 0.0
C3977 C 0.25216 0.4373 0.21664 0.0
C3978 C 0.26085 0.39474 0.16487 0.0
C3979 C 0.29396 0.46274 0.22179 0.0
C3980 C 0.33439 0.43216 0.19047 0.0
C3981 C 0.34411 0.44614 0.17017 0.0
C3982 C 0.31256 0.42623 0.19826 0.0
C3983 C 0.30034 0.43471 0.18557 0.0
C3984 C 0.31023 0.44907 0.16527 0.0
C3985 C 0.33196 0.45457 0.15781 0.0
C3986 C 0.30248 0.41076 0.21989 0.0
C3987 C 0.29786 0.45866 0.15143 0.0
H3988 H 0.22196 0.391 0.18113 0.0
H3989 H 0.24987 0.44773 0.22983 0.0
H3990 H 0.26951 0.40457 0.14833 0.0
H3991 H 0.27153 0.38832 0.17263 0.0
H3992 H 0.24438 0.38012 0.15939 0.0
H3993 H 0.28867 0.47135 0.23521 0.0
H3994 H 0.3051 0.45763 0.23108 0.0
H3995 H 0.30415 0.47502 0.2074 0.0
H3996 H 0.34372 0.42552 0.19996 0.0
H3997 H 0.33958 0.4657 0.14235 0.0
H3998 H 0.28674 0.39531 0.21437 0.0
H3999 H 0.29788 0.41917 0.23421 0.0
H4000 H 0.31423 0.40572 0.22785 0.0
H4001 H 0.28184 0.44476 0.144 0.0
H4002 H 0.308 0.4697 0.13613 0.0
H4003 H 0.29343 0.46862 0.1639 0.0
C4004 C 0.60651 0.83662 0.19752 0.0
C4005 C 0.5935 0.81796 0.21258 0.0
C4006 C 0.60008 0.8528 0.193 0.0
C4007 C 0.58007 0.85018 0.20363 0.0
C4008 C 0.56758 0.83215 0.21994 0.0
C4009 C 0.57451 0.81632 0.2243 0.0
C4010 C 0.61397 0.8719 0.17563 0.0
C4011 C 0.54617 0.82879 0.23167 0.0
C4012 C 0.56846 0.89894 0.19864 0.0
C4013 C 0.55513 0.89296 0.17757 0.0
C4014 C 0.57654 0.88506 0.20764 0.0
C4015 C 0.57087 0.86468 0.1954 0.0
C4016 C 0.55682 0.85829 0.17457 0.0
C4017 C 0.5492 0.87254 0.16588 0.0
C4018 C 0.5916 0.89247 0.22979 0.0
C4019 C 0.55013 0.83656 0.16116 0.0
H4020 H 0.62109 0.83805 0.1882 0.0
H4021 H 0.56463 0.80225 0.23636 0.0
H4022 H 0.6045 0.86923 0.1584 0.0
H4023 H 0.61718 0.88821 0.18341 0.0
H4024 H 0.63041 0.87316 0.1713 0.0
H4025 H 0.53986 0.81554 0.24597 0.0
H4026 H 0.54891 0.84477 0.2399 0.0
H4027 H 0.53289 0.82377 0.21758 0.0
H4028 H 0.57312 0.91478 0.20762 0.0
H4029 H 0.53859 0.86773 0.14981 0.0
H4030 H 0.6086 0.89556 0.22469 0.0
H4031 H 0.58481 0.87896 0.24376 0.0
H4032 H 0.59339 0.90812 0.238 0.0
H4033 H 0.56539 0.83688 0.15381 0.0
H4034 H 0.5384 0.83367 0.14582 0.0
H4035 H 0.54189 0.82204 0.17386 0.0
C4036 C 0.10391 0.65208 0.20368 0.0
C4037 C 0.11114 0.64286 0.1854 0.0
C4038 C 0.11831 0.67393 0.21261 0.0
C4039 C 0.14053 0.6866 0.20328 0.0
C4040 C 0.14819 0.67687 0.18564 0.0
C4041 C 0.13331 0.65519 0.17673 0.0
C4042 C 0.10941 0.68384 0.23113 0.0
C4043 C 0.17188 0.68964 0.17559 0.0
C4044 C 0.17088 0.75062 0.20311 0.0
C4045 C 0.18556 0.75612 0.22307 0.0
C4046 C 0.1557 0.72808 0.19697 0.0
C4047 C 0.15537 0.71049 0.21081 0.0
C4048 C 0.16985 0.71579 0.23113 0.0
C4049 C 0.18458 0.73849 0.23715 0.0
C4050 C 0.1403 0.72312 0.17531 0.0
C4051 C 0.17015 0.69748 0.24618 0.0
H4052 H 0.08666 0.6426 0.21016 0.0
H4053 H 0.13887 0.64798 0.16264 0.0
H4054 H 0.12097 0.69053 0.24696 0.0
H4055 H 0.10858 0.6982 0.22287 0.0
H4056 H 0.09231 0.67128 0.23774 0.0
H4057 H 0.17575 0.67901 0.16349 0.0
H4058 H 0.17411 0.70445 0.16505 0.0
H4059 H 0.18432 0.69611 0.19068 0.0
H4060 H 0.17147 0.76384 0.19181 0.0
H4061 H 0.19541 0.74231 0.25287 0.0
H4062 H 0.12252 0.71154 0.18067 0.0
H4063 H 0.14463 0.71452 0.16094 0.0
H4064 H 0.14156 0.73866 0.16742 0.0
H4065 H 0.15301 0.68574 0.25327 0.0
H4066 H 0.18201 0.70437 0.26179 0.0
H4067 H 0.17517 0.68744 0.23459 0.0
loop_
_geom_bond_atom_site_label_1
_geom_bond_atom_site_label_2
_geom_bond_distance
_geom_bond_site_symmetry_2
_ccdc_geom_bond_type
C0 C1 1.351 . S
C0 N3 1.368 . S
C0 H5 0.931 . S
C1 C0 1.351 . S
C1 N2 1.373 . S
C1 H29 0.930 . S
N2 C1 1.373 . S
N2 C4 1.340 . S
N3 C0 1.368 . S
N3 C4 1.321 . S
N3 Co6 2.135 . S
C4 N2 1.340 . S
C4 N3 1.321 . S
C4 H28 0.930 . S
H5 C0 0.931 . S
Co6 N3 2.135 . S
Co6 N9 2.121 . S
Co6 O14 2.055 . S
Co6 O17 2.039 . S
Co6 N20 2.140 . S
C7 O8 1.227 . S
C7 O17 1.265 1_556 S
O8 C7 1.227 . S
N9 Co6 2.121 . S
N9 C11 1.375 . S
N9 C12 1.313 . S
C10 C11 1.338 . S
C10 N13 1.377 . S
C10 H30 0.930 . S
C11 N9 1.375 . S
C11 C10 1.338 . S
C11 H15 0.931 . S
C12 N9 1.313 . S
C12 N13 1.344 . S
C12 H16 0.930 . S
N13 C10 1.377 . S
N13 C12 1.344 . S
O14 Co6 2.055 . S
O14 C18 1.253 . S
H15 C11 0.931 . S
H16 C12 0.930 . S
O17 Co6 2.039 . S
O17 C7 1.265 1_554 S
C18 O14 1.253 . S
C18 O19 1.227 . S
O19 C18 1.227 . S
N20 Co6 2.140 . S
N20 C23 1.346 . S
N20 C24 1.345 . S
C21 C22 1.387 . S
C21 C25 1.391 . S
C22 C21 1.387 . S
C22 C23 1.369 . S
C22 H31 0.929 . S
C23 N20 1.346 . S
C23 C22 1.369 . S
C23 H26 0.928 . S
C24 N20 1.345 . S
C24 C25 1.371 . S
C24 H27 0.931 . S
C25 C21 1.391 . S
C25 C24 1.371 . S
C25 H32 0.930 . S
H26 C23 0.928 . S
H27 C24 0.931 . S
H28 C4 0.930 . S
H29 C1 0.930 . S
H30 C10 0.930 . S
H31 C22 0.929 . S
H32 C25 0.930 . S
C33 C34 1.351 . S
C33 N36 1.368 . S
C33 H38 0.931 . S
C34 C33 1.351 . S
C34 N35 1.373 . S
C34 H62 0.930 . S
N35 C34 1.373 . S
N35 C37 1.340 . S
N36 C33 1.368 . S
N36 C37 1.321 . S
N36 Co39 2.135 . S
C37 N35 1.340 . S
C37 N36 1.321 . S
C37 H61 0.930 . S
H38 C33 0.931 . S
Co39 N36 2.135 . S
Co39 N42 2.121 . S
Co39 O47 2.055 . S
Co39 O50 2.039 . S
Co39 N53 2.140 . S
C40 O41 1.227 . S
C40 O50 1.265 1_556 S
O41 C40 1.227 . S
N42 Co39 2.121 . S
N42 C44 1.375 . S
N42 C45 1.313 . S
C43 C44 1.338 . S
C43 N46 1.377 . S
C43 H63 0.930 . S
C44 N42 1.375 . S
C44 C43 1.338 . S
C44 H48 0.931 . S
C45 N42 1.313 . S
C45 N46 1.344 . S
C45 H49 0.930 . S
N46 C43 1.377 . S
N46 C45 1.344 . S
O47 Co39 2.055 . S
O47 C51 1.253 . S
H48 C44 0.931 . S
H49 C45 0.930 . S
O50 Co39 2.039 . S
O50 C40 1.265 1_554 S
C51 O47 1.253 . S
C51 O52 1.227 . S
O52 C51 1.227 . S
N53 Co39 2.140 . S
N53 C56 1.346 . S
N53 C57 1.345 . S
C54 C55 1.387 . S
C54 C58 1.391 . S
C55 C54 1.387 . S
C55 C56 1.369 . S
C55 H64 0.929 . S
C56 N53 1.346 . S
C56 C55 1.369 . S
C56 H59 0.928 . S
C57 N53 1.345 . S
C57 C58 1.371 . S
C57 H60 0.931 . S
C58 C54 1.391 . S
C58 C57 1.371 . S
C58 H65 0.930 . S
H59 C56 0.928 . S
H60 C57 0.931 . S
H61 C37 0.930 . S
H62 C34 0.930 . S
H63 C43 0.930 . S
H64 C55 0.929 . S
H65 C58 0.930 . S
C66 C67 1.351 . S
C66 N69 1.368 . S
C66 H71 0.931 . S
C67 C66 1.351 . S
C67 N68 1.373 . S
C67 H95 0.930 . S
N68 C67 1.373 . S
N68 C70 1.340 . S
N69 C66 1.368 . S
N69 C70 1.321 . S
N69 Co72 2.135 . S
C70 N68 1.340 . S
C70 N69 1.321 . S
C70 H94 0.930 . S
H71 C66 0.931 . S
Co72 N69 2.135 . S
Co72 N75 2.121 . S
Co72 O80 2.055 . S
Co72 O83 2.039 . S
Co72 N86 2.140 . S
C73 O74 1.227 . S
C73 O83 1.265 1_556 S
O74 C73 1.227 . S
N75 Co72 2.121 . S
N75 C77 1.375 . S
N75 C78 1.313 . S
C76 C77 1.338 . S
C76 N79 1.377 . S
C76 H96 0.930 . S
C77 N75 1.375 . S
C77 C76 1.338 . S
C77 H81 0.931 . S
C78 N75 1.313 . S
C78 N79 1.344 . S
C78 H82 0.930 . S
N79 C76 1.377 . S
N79 C78 1.344 . S
O80 Co72 2.055 . S
O80 C84 1.253 . S
H81 C77 0.931 . S
H82 C78 0.930 . S
O83 Co72 2.039 . S
O83 C73 1.265 1_554 S
C84 O80 1.253 . S
C84 O85 1.227 . S
O85 C84 1.227 . S
N86 Co72 2.140 . S
N86 C89 1.346 . S
N86 C90 1.345 . S
C87 C88 1.387 . S
C87 C91 1.391 . S
C88 C87 1.387 . S
C88 C89 1.369 . S
C88 H97 0.929 . S
C89 N86 1.346 . S
C89 C88 1.369 . S
C89 H92 0.928 . S
C90 N86 1.345 . S
C90 C91 1.371 . S
C90 H93 0.931 . S
C91 C87 1.391 . S
C91 C90 1.371 . S
C91 H98 0.930 . S
H92 C89 0.928 . S
H93 C90 0.931 . S
H94 C70 0.930 . S
H95 C67 0.930 . S
H96 C76 0.930 . S
H97 C88 0.929 . S
H98 C91 0.930 . S
C99 C100 1.351 . S
C99 N102 1.368 . S
C99 H104 0.931 . S
C100 C99 1.351 . S
C100 N101 1.373 . S
C100 H128 0.930 . S
N101 C100 1.373 . S
N101 C103 1.340 . S
N102 C99 1.368 . S
N102 C103 1.321 . S
N102 Co105 2.135 . S
C103 N101 1.340 . S
C103 N102 1.321 . S
C103 H127 0.930 . S
H104 C99 0.931 . S
Co105 N102 2.135 . S
Co105 N108 2.121 . S
Co105 O113 2.055 . S
Co105 O116 2.039 . S
Co105 N119 2.140 . S
C106 O107 1.227 . S
C106 O116 1.265 . S
O107 C106 1.227 . S
N108 Co105 2.121 . S
N108 C110 1.375 . S
N108 C111 1.313 . S
C109 C110 1.338 . S
C109 N112 1.377 . S
C109 H129 0.930 . S
C110 N108 1.375 . S
C110 C109 1.338 . S
C110 H114 0.931 . S
C111 N108 1.313 . S
C111 N112 1.344 . S
C111 H115 0.930 . S
N112 C109 1.377 . S
N112 C111 1.344 . S
O113 Co105 2.055 . S
O113 C117 1.253 . S
H114 C110 0.931 . S
H115 C111 0.930 . S
O116 Co105 2.039 . S
O116 C106 1.265 . S
C117 O113 1.253 . S
C117 O118 1.227 . S
O118 C117 1.227 . S
N119 Co105 2.140 . S
N119 C122 1.346 . S
N119 C123 1.345 . S
C120 C121 1.387 . S
C120 C124 1.391 . S
C121 C120 1.387 . S
C121 C122 1.369 . S
C121 H130 0.929 . S
C122 N119 1.346 . S
C122 C121 1.369 . S
C122 H125 0.928 . S
C123 N119 1.345 . S
C123 C124 1.371 . S
C123 H126 0.931 . S
C124 C120 1.391 . S
C124 C123 1.371 . S
C124 H131 0.930 . S
H125 C122 0.928 . S
H126 C123 0.931 . S
H127 C103 0.930 . S
H128 C100 0.930 . S
H129 C109 0.930 . S
H130 C121 0.929 . S
H131 C124 0.930 . S
C132 C133 1.351 . S
C132 N135 1.368 . S
C132 H137 0.931 . S
C133 C132 1.351 . S
C133 N134 1.373 . S
C133 H161 0.930 . S
N134 C133 1.373 . S
N134 C136 1.340 . S
N135 C132 1.368 . S
N135 C136 1.321 . S
N135 Co138 2.135 . S
C136 N134 1.340 . S
C136 N135 1.321 . S
C136 H160 0.930 . S
H137 C132 0.931 . S
Co138 N135 2.135 . S
Co138 N141 2.121 . S
Co138 O146 2.055 . S
Co138 O149 2.039 . S
Co138 N152 2.140 . S
C139 O140 1.227 . S
C139 O149 1.265 . S
O140 C139 1.227 . S
N141 Co138 2.121 . S
N141 C143 1.375 . S
N141 C144 1.313 . S
C142 C143 1.338 . S
C142 N145 1.377 . S
C142 H162 0.930 . S
C143 N141 1.375 . S
C143 C142 1.338 . S
C143 H147 0.931 . S
C144 N141 1.313 . S
C144 N145 1.344 . S
C144 H148 0.930 . S
N145 C142 1.377 . S
N145 C144 1.344 . S
O146 Co138 2.055 . S
O146 C150 1.253 . S
H147 C143 0.931 . S
H148 C144 0.930 . S
O149 Co138 2.039 . S
O149 C139 1.265 . S
C150 O146 1.253 . S
C150 O151 1.227 . S
O151 C150 1.227 . S
N152 Co138 2.140 . S
N152 C155 1.346 . S
N152 C156 1.345 . S
C153 C154 1.387 . S
C153 C157 1.391 . S
C154 C153 1.387 . S
C154 C155 1.369 . S
C154 H163 0.929 . S
C155 N152 1.346 . S
C155 C154 1.369 . S
C155 H158 0.928 . S
C156 N152 1.345 . S
C156 C157 1.371 . S
C156 H159 0.931 . S
C157 C153 1.391 . S
C157 C156 1.371 . S
C157 H164 0.930 . S
H158 C155 0.928 . S
H159 C156 0.931 . S
H160 C136 0.930 . S
H161 C133 0.930 . S
H162 C142 0.930 . S
H163 C154 0.929 . S
H164 C157 0.930 . S
C165 C166 1.351 . S
C165 N168 1.368 . S
C165 H170 0.931 . S
C166 C165 1.351 . S
C166 N167 1.373 . S
C166 H194 0.930 . S
N167 C166 1.373 . S
N167 C169 1.340 . S
N168 C165 1.368 . S
N168 C169 1.321 . S
N168 Co171 2.135 . S
C169 N167 1.340 . S
C169 N168 1.321 . S
C169 H193 0.930 . S
H170 C165 0.931 . S
Co171 N168 2.135 . S
Co171 N174 2.121 . S
Co171 O179 2.055 . S
Co171 O182 2.039 . S
Co171 N185 2.140 . S
C172 O173 1.227 . S
C172 O182 1.265 . S
O173 C172 1.227 . S
N174 Co171 2.121 . S
N174 C176 1.375 . S
N174 C177 1.313 . S
C175 C176 1.338 . S
C175 N178 1.377 . S
C175 H195 0.930 . S
C176 N174 1.375 . S
C176 C175 1.338 . S
C176 H180 0.931 . S
C177 N174 1.313 . S
C177 N178 1.344 . S
C177 H181 0.930 . S
N178 C175 1.377 . S
N178 C177 1.344 . S
O179 Co171 2.055 . S
O179 C183 1.253 . S
H180 C176 0.931 . S
H181 C177 0.930 . S
O182 Co171 2.039 . S
O182 C172 1.265 . S
C183 O179 1.253 . S
C183 O184 1.227 . S
O184 C183 1.227 . S
N185 Co171 2.140 . S
N185 C188 1.346 . S
N185 C189 1.345 . S
C186 C187 1.387 . S
C186 C190 1.391 . S
C187 C186 1.387 . S
C187 C188 1.369 . S
C187 H196 0.929 . S
C188 N185 1.346 . S
C188 C187 1.369 . S
C188 H191 0.928 . S
C189 N185 1.345 . S
C189 C190 1.371 . S
C189 H192 0.931 . S
C190 C186 1.391 . S
C190 C189 1.371 . S
C190 H197 0.930 . S
H191 C188 0.928 . S
H192 C189 0.931 . S
H193 C169 0.930 . S
H194 C166 0.930 . S
H195 C175 0.930 . S
H196 C187 0.929 . S
H197 C190 0.930 . S
C198 C199 1.351 . S
C198 N201 1.368 . S
C198 H203 0.931 . S
C199 C198 1.351 . S
C199 N200 1.373 . S
C199 H227 0.930 . S
N200 C199 1.373 . S
N200 C202 1.340 . S
N201 C198 1.368 . S
N201 C202 1.321 . S
N201 Co204 2.135 . S
C202 N200 1.340 . S
C202 N201 1.321 . S
C202 H226 0.930 . S
H203 C198 0.931 . S
Co204 N201 2.135 . S
Co204 N207 2.121 . S
Co204 O212 2.055 . S
Co204 O215 2.039 . S
Co204 N218 2.140 . S
C205 O206 1.227 . S
C205 O215 1.265 1_554 S
O206 C205 1.227 . S
N207 Co204 2.121 . S
N207 C209 1.375 . S
N207 C210 1.313 . S
C208 C209 1.338 . S
C208 N211 1.377 . S
C208 H228 0.930 . S
C209 N207 1.375 . S
C209 C208 1.338 . S
C209 H213 0.931 . S
C210 N207 1.313 . S
C210 N211 1.344 . S
C210 H214 0.930 . S
N211 C208 1.377 . S
N211 C210 1.344 . S
O212 Co204 2.055 . S
O212 C216 1.253 . S
H213 C209 0.931 . S
H214 C210 0.930 . S
O215 Co204 2.039 . S
O215 C205 1.265 1_556 S
C216 O212 1.253 . S
C216 O217 1.227 . S
O217 C216 1.227 . S
N218 Co204 2.140 . S
N218 C221 1.346 . S
N218 C222 1.345 . S
C219 C220 1.387 . S
C219 C223 1.391 . S
C220 C219 1.387 . S
C220 C221 1.369 . S
C220 H229 0.929 . S
C221 N218 1.346 . S
C221 C220 1.369 . S
C221 H224 0.928 . S
C222 N218 1.345 . S
C222 C223 1.371 . S
C222 H225 0.931 . S
C223 C219 1.391 . S
C223 C222 1.371 . S
C223 H230 0.930 . S
H224 C221 0.928 . S
H225 C222 0.931 . S
H226 C202 0.930 . S
H227 C199 0.930 . S
H228 C208 0.930 . S
H229 C220 0.929 . S
H230 C223 0.930 . S
C231 C232 1.351 . S
C231 N234 1.368 . S
C231 H236 0.931 . S
C232 C231 1.351 . S
C232 N233 1.373 . S
C232 H260 0.930 . S
N233 C232 1.373 . S
N233 C235 1.340 . S
N234 C231 1.368 . S
N234 C235 1.321 . S
N234 Co237 2.135 . S
C235 N233 1.340 . S
C235 N234 1.321 . S
C235 H259 0.930 . S
H236 C231 0.931 . S
Co237 N234 2.135 . S
Co237 N240 2.121 . S
Co237 O245 2.055 . S
Co237 O248 2.039 . S
Co237 N251 2.140 . S
C238 O239 1.227 . S
C238 O248 1.265 1_554 S
O239 C238 1.227 . S
N240 Co237 2.121 . S
N240 C242 1.375 . S
N240 C243 1.313 . S
C241 C242 1.338 . S
C241 N244 1.377 . S
C241 H261 0.930 . S
C242 N240 1.375 . S
C242 C241 1.338 . S
C242 H246 0.931 . S
C243 N240 1.313 . S
C243 N244 1.344 . S
C243 H247 0.930 . S
N244 C241 1.377 . S
N244 C243 1.344 . S
O245 Co237 2.055 . S
O245 C249 1.253 . S
H246 C242 0.931 . S
H247 C243 0.930 . S
O248 Co237 2.039 . S
O248 C238 1.265 1_556 S
C249 O245 1.253 . S
C249 O250 1.227 . S
O250 C249 1.227 . S
N251 Co237 2.140 . S
N251 C254 1.346 . S
N251 C255 1.345 . S
C252 C253 1.387 . S
C252 C256 1.391 . S
C253 C252 1.387 . S
C253 C254 1.369 . S
C253 H262 0.929 . S
C254 N251 1.346 . S
C254 C253 1.369 . S
C254 H257 0.928 . S
C255 N251 1.345 . S
C255 C256 1.371 . S
C255 H258 0.931 . S
C256 C252 1.391 . S
C256 C255 1.371 . S
C256 H263 0.930 . S
H257 C254 0.928 . S
H258 C255 0.931 . S
H259 C235 0.930 . S
H260 C232 0.930 . S
H261 C241 0.930 . S
H262 C253 0.929 . S
H263 C256 0.930 . S
C264 C265 1.351 . S
C264 N267 1.368 . S
C264 H269 0.931 . S
C265 C264 1.351 . S
C265 N266 1.373 . S
C265 H293 0.930 . S
N266 C265 1.373 . S
N266 C268 1.340 . S
N267 C264 1.368 . S
N267 C268 1.321 . S
N267 Co270 2.135 . S
C268 N266 1.340 . S
C268 N267 1.321 . S
C268 H292 0.930 . S
H269 C264 0.931 . S
Co270 N267 2.135 . S
Co270 N273 2.121 . S
Co270 O278 2.055 . S
Co270 O281 2.039 . S
Co270 N284 2.140 . S
C271 O272 1.227 . S
C271 O281 1.265 1_554 S
O272 C271 1.227 . S
N273 Co270 2.121 . S
N273 C275 1.375 . S
N273 C276 1.313 . S
C274 C275 1.338 . S
C274 N277 1.377 . S
C274 H294 0.930 . S
C275 N273 1.375 . S
C275 C274 1.338 . S
C275 H279 0.931 . S
C276 N273 1.313 . S
C276 N277 1.344 . S
C276 H280 0.930 . S
N277 C274 1.377 . S
N277 C276 1.344 . S
O278 Co270 2.055 . S
O278 C282 1.253 . S
H279 C275 0.931 . S
H280 C276 0.930 . S
O281 Co270 2.039 . S
O281 C271 1.265 1_556 S
C282 O278 1.253 . S
C282 O283 1.227 . S
O283 C282 1.227 . S
N284 Co270 2.140 . S
N284 C287 1.346 . S
N284 C288 1.345 . S
C285 C286 1.387 . S
C285 C289 1.391 . S
C286 C285 1.387 . S
C286 C287 1.369 . S
C286 H295 0.929 . S
C287 N284 1.346 . S
C287 C286 1.369 . S
C287 H290 0.928 . S
C288 N284 1.345 . S
C288 C289 1.371 . S
C288 H291 0.931 . S
C289 C285 1.391 . S
C289 C288 1.371 . S
C289 H296 0.930 . S
H290 C287 0.928 . S
H291 C288 0.931 . S
H292 C268 0.930 . S
H293 C265 0.930 . S
H294 C274 0.930 . S
H295 C286 0.929 . S
H296 C289 0.930 . S
C297 C298 1.351 . S
C297 N300 1.368 . S
C297 H302 0.931 . S
C298 C297 1.351 . S
C298 N299 1.373 . S
C298 H326 0.930 . S
N299 C298 1.373 . S
N299 C301 1.340 . S
N300 C297 1.368 . S
N300 C301 1.321 . S
N300 Co303 2.135 . S
C301 N299 1.340 . S
C301 N300 1.321 . S
C301 H325 0.930 . S
H302 C297 0.931 . S
Co303 N300 2.135 . S
Co303 N306 2.121 . S
Co303 O311 2.055 . S
Co303 O314 2.039 . S
Co303 N317 2.140 . S
C304 O305 1.227 . S
C304 O314 1.265 . S
O305 C304 1.227 . S
N306 Co303 2.121 . S
N306 C308 1.375 . S
N306 C309 1.313 . S
C307 C308 1.338 . S
C307 N310 1.377 . S
C307 H327 0.930 . S
C308 N306 1.375 . S
C308 C307 1.338 . S
C308 H312 0.931 . S
C309 N306 1.313 . S
C309 N310 1.344 . S
C309 H313 0.930 . S
N310 C307 1.377 . S
N310 C309 1.344 . S
O311 Co303 2.055 . S
O311 C315 1.253 . S
H312 C308 0.931 . S
H313 C309 0.930 . S
O314 Co303 2.039 . S
O314 C304 1.265 . S
C315 O311 1.253 . S
C315 O316 1.227 . S
O316 C315 1.227 . S
N317 Co303 2.140 . S
N317 C320 1.346 . S
N317 C321 1.345 . S
C318 C319 1.387 . S
C318 C322 1.391 . S
C319 C318 1.387 . S
C319 C320 1.369 . S
C319 H328 0.929 . S
C320 N317 1.346 . S
C320 C319 1.369 . S
C320 H323 0.928 . S
C321 N317 1.345 . S
C321 C322 1.371 . S
C321 H324 0.931 . S
C322 C318 1.391 . S
C322 C321 1.371 . S
C322 H329 0.930 . S
H323 C320 0.928 . S
H324 C321 0.931 . S
H325 C301 0.930 . S
H326 C298 0.930 . S
H327 C307 0.930 . S
H328 C319 0.929 . S
H329 C322 0.930 . S
C330 C331 1.351 . S
C330 N333 1.368 . S
C330 H335 0.931 . S
C331 C330 1.351 . S
C331 N332 1.373 . S
C331 H359 0.930 . S
N332 C331 1.373 . S
N332 C334 1.340 . S
N333 C330 1.368 . S
N333 C334 1.321 . S
N333 Co336 2.135 . S
C334 N332 1.340 . S
C334 N333 1.321 . S
C334 H358 0.930 . S
H335 C330 0.931 . S
Co336 N333 2.135 . S
Co336 N339 2.121 . S
Co336 O344 2.055 . S
Co336 O347 2.039 . S
Co336 N350 2.140 . S
C337 O338 1.227 . S
C337 O347 1.265 . S
O338 C337 1.227 . S
N339 Co336 2.121 . S
N339 C341 1.375 . S
N339 C342 1.313 . S
C340 C341 1.338 . S
C340 N343 1.377 . S
C340 H360 0.930 . S
C341 N339 1.375 . S
C341 C340 1.338 . S
C341 H345 0.931 . S
C342 N339 1.313 . S
C342 N343 1.344 . S
C342 H346 0.930 . S
N343 C340 1.377 . S
N343 C342 1.344 . S
O344 Co336 2.055 . S
O344 C348 1.253 . S
H345 C341 0.931 . S
H346 C342 0.930 . S
O347 Co336 2.039 . S
O347 C337 1.265 . S
C348 O344 1.253 . S
C348 O349 1.227 . S
O349 C348 1.227 . S
N350 Co336 2.140 . S
N350 C353 1.346 . S
N350 C354 1.345 . S
C351 C352 1.387 . S
C351 C355 1.391 . S
C352 C351 1.387 . S
C352 C353 1.369 . S
C352 H361 0.929 . S
C353 N350 1.346 . S
C353 C352 1.369 . S
C353 H356 0.928 . S
C354 N350 1.345 . S
C354 C355 1.371 . S
C354 H357 0.931 . S
C355 C351 1.391 . S
C355 C354 1.371 . S
C355 H362 0.930 . S
H356 C353 0.928 . S
H357 C354 0.931 . S
H358 C334 0.930 . S
H359 C331 0.930 . S
H360 C340 0.930 . S
H361 C352 0.929 . S
H362 C355 0.930 . S
C363 C364 1.351 . S
C363 N366 1.368 . S
C363 H368 0.931 . S
C364 C363 1.351 . S
C364 N365 1.373 . S
C364 H392 0.930 . S
N365 C364 1.373 . S
N365 C367 1.340 . S
N366 C363 1.368 . S
N366 C367 1.321 . S
N366 Co369 2.135 . S
C367 N365 1.340 . S
C367 N366 1.321 . S
C367 H391 0.930 . S
H368 C363 0.931 . S
Co369 N366 2.135 . S
Co369 N372 2.121 . S
Co369 O377 2.055 . S
Co369 O380 2.039 . S
Co369 N383 2.140 . S
C370 O371 1.227 . S
C370 O380 1.265 . S
O371 C370 1.227 . S
N372 Co369 2.121 . S
N372 C374 1.375 . S
N372 C375 1.313 . S
C373 C374 1.338 . S
C373 N376 1.377 . S
C373 H393 0.930 . S
C374 N372 1.375 . S
C374 C373 1.338 . S
C374 H378 0.931 . S
C375 N372 1.313 . S
C375 N376 1.344 . S
C375 H379 0.930 . S
N376 C373 1.377 . S
N376 C375 1.344 . S
O377 Co369 2.055 . S
O377 C381 1.253 . S
H378 C374 0.931 . S
H379 C375 0.930 . S
O380 Co369 2.039 . S
O380 C370 1.265 . S
C381 O377 1.253 . S
C381 O382 1.227 . S
O382 C381 1.227 . S
N383 Co369 2.140 . S
N383 C386 1.346 . S
N383 C387 1.345 . S
C384 C385 1.387 . S
C384 C388 1.391 . S
C385 C384 1.387 . S
C385 C386 1.369 . S
C385 H394 0.929 . S
C386 N383 1.346 . S
C386 C385 1.369 . S
C386 H389 0.928 . S
C387 N383 1.345 . S
C387 C388 1.371 . S
C387 H390 0.931 . S
C388 C384 1.391 . S
C388 C387 1.371 . S
C388 H395 0.930 . S
H389 C386 0.928 . S
H390 C387 0.931 . S
H391 C367 0.930 . S
H392 C364 0.930 . S
H393 C373 0.930 . S
H394 C385 0.929 . S
H395 C388 0.930 . S
C396 C397 1.351 . S
C396 N399 1.368 . S
C396 H401 0.931 . S
C397 C396 1.351 . S
C397 N398 1.373 . S
C397 H425 0.930 . S
N398 C397 1.373 . S
N398 C400 1.340 . S
N399 C396 1.368 . S
N399 C400 1.321 . S
N399 Co402 2.135 . S
C400 N398 1.340 . S
C400 N399 1.321 . S
C400 H424 0.930 . S
H401 C396 0.931 . S
Co402 N399 2.135 . S
Co402 N405 2.121 . S
Co402 O410 2.055 . S
Co402 O413 2.039 . S
Co402 N416 2.140 . S
C403 O404 1.227 . S
C403 O413 1.265 . S
O404 C403 1.227 . S
N405 Co402 2.121 . S
N405 C407 1.375 . S
N405 C408 1.313 . S
C406 C407 1.338 . S
C406 N409 1.377 . S
C406 H426 0.930 . S
C407 N405 1.375 . S
C407 C406 1.338 . S
C407 H411 0.931 . S
C408 N405 1.313 . S
C408 N409 1.344 . S
C408 H412 0.930 . S
N409 C406 1.377 . S
N409 C408 1.344 . S
O410 Co402 2.055 . S
O410 C414 1.253 . S
H411 C407 0.931 . S
H412 C408 0.930 . S
O413 Co402 2.039 . S
O413 C403 1.265 . S
C414 O410 1.253 . S
C414 O415 1.227 . S
O415 C414 1.227 . S
N416 Co402 2.140 . S
N416 C419 1.346 . S
N416 C420 1.345 . S
C417 C418 1.387 . S
C417 C421 1.391 . S
C418 C417 1.387 . S
C418 C419 1.369 . S
C418 H427 0.929 . S
C419 N416 1.346 . S
C419 C418 1.369 . S
C419 H422 0.928 . S
C420 N416 1.345 . S
C420 C421 1.371 . S
C420 H423 0.931 . S
C421 C417 1.391 . S
C421 C420 1.371 . S
C421 H428 0.930 . S
H422 C419 0.928 . S
H423 C420 0.931 . S
H424 C400 0.930 . S
H425 C397 0.930 . S
H426 C406 0.930 . S
H427 C418 0.929 . S
H428 C421 0.930 . S
C429 C430 1.351 . S
C429 N432 1.368 . S
C429 H434 0.931 . S
C430 C429 1.351 . S
C430 N431 1.373 . S
C430 H458 0.930 . S
N431 C430 1.373 . S
N431 C433 1.340 . S
N432 C429 1.368 . S
N432 C433 1.321 . S
N432 Co435 2.135 . S
C433 N431 1.340 . S
C433 N432 1.321 . S
C433 H457 0.930 . S
H434 C429 0.931 . S
Co435 N432 2.135 . S
Co435 N438 2.121 . S
Co435 O443 2.055 . S
Co435 O446 2.039 . S
Co435 N449 2.140 . S
C436 O437 1.227 . S
C436 O446 1.265 . S
O437 C436 1.227 . S
N438 Co435 2.121 . S
N438 C440 1.375 . S
N438 C441 1.313 . S
C439 C440 1.338 . S
C439 N442 1.377 . S
C439 H459 0.930 . S
C440 N438 1.375 . S
C440 C439 1.338 . S
C440 H444 0.931 . S
C441 N438 1.313 . S
C441 N442 1.344 . S
C441 H445 0.930 . S
N442 C439 1.377 . S
N442 C441 1.344 . S
O443 Co435 2.055 . S
O443 C447 1.253 . S
H444 C440 0.931 . S
H445 C441 0.930 . S
O446 Co435 2.039 . S
O446 C436 1.265 . S
C447 O443 1.253 . S
C447 O448 1.227 . S
O448 C447 1.227 . S
N449 Co435 2.140 . S
N449 C452 1.346 . S
N449 C453 1.345 . S
C450 C451 1.387 . S
C450 C454 1.391 . S
C451 C450 1.387 . S
C451 C452 1.369 . S
C451 H460 0.929 . S
C452 N449 1.346 . S
C452 C451 1.369 . S
C452 H455 0.928 . S
C453 N449 1.345 . S
C453 C454 1.371 . S
C453 H456 0.931 . S
C454 C450 1.391 . S
C454 C453 1.371 . S
C454 H461 0.930 . S
H455 C452 0.928 . S
H456 C453 0.931 . S
H457 C433 0.930 . S
H458 C430 0.930 . S
H459 C439 0.930 . S
H460 C451 0.929 . S
H461 C454 0.930 . S
C462 C463 1.351 . S
C462 N465 1.368 . S
C462 H467 0.931 . S
C463 C462 1.351 . S
C463 N464 1.373 . S
C463 H491 0.930 . S
N464 C463 1.373 . S
N464 C466 1.340 . S
N465 C462 1.368 . S
N465 C466 1.321 . S
N465 Co468 2.135 . S
C466 N464 1.340 . S
C466 N465 1.321 . S
C466 H490 0.930 . S
H467 C462 0.931 . S
Co468 N465 2.135 . S
Co468 N471 2.121 . S
Co468 O476 2.055 . S
Co468 O479 2.039 . S
Co468 N482 2.140 . S
C469 O470 1.227 . S
C469 O479 1.265 . S
O470 C469 1.227 . S
N471 Co468 2.121 . S
N471 C473 1.375 . S
N471 C474 1.313 . S
C472 C473 1.338 . S
C472 N475 1.377 . S
C472 H492 0.930 . S
C473 N471 1.375 . S
C473 C472 1.338 . S
C473 H477 0.931 . S
C474 N471 1.313 . S
C474 N475 1.344 . S
C474 H478 0.930 . S
N475 C472 1.377 . S
N475 C474 1.344 . S
O476 Co468 2.055 . S
O476 C480 1.253 . S
H477 C473 0.931 . S
H478 C474 0.930 . S
O479 Co468 2.039 . S
O479 C469 1.265 . S
C480 O476 1.253 . S
C480 O481 1.227 . S
O481 C480 1.227 . S
N482 Co468 2.140 . S
N482 C485 1.346 . S
N482 C486 1.345 . S
C483 C484 1.387 . S
C483 C487 1.391 . S
C484 C483 1.387 . S
C484 C485 1.369 . S
C484 H493 0.929 . S
C485 N482 1.346 . S
C485 C484 1.369 . S
C485 H488 0.928 . S
C486 N482 1.345 . S
C486 C487 1.371 . S
C486 H489 0.931 . S
C487 C483 1.391 . S
C487 C486 1.371 . S
C487 H494 0.930 . S
H488 C485 0.928 . S
H489 C486 0.931 . S
H490 C466 0.930 . S
H491 C463 0.930 . S
H492 C472 0.930 . S
H493 C484 0.929 . S
H494 C487 0.930 . S
C495 C496 1.351 . S
C495 N498 1.368 . S
C495 H500 0.931 . S
C496 C495 1.351 . S
C496 N497 1.373 . S
C496 H524 0.930 . S
N497 C496 1.373 . S
N497 C499 1.340 . S
N498 C495 1.368 . S
N498 C499 1.321 . S
N498 Co501 2.135 . S
C499 N497 1.340 . S
C499 N498 1.321 . S
C499 H523 0.930 . S
H500 C495 0.931 . S
Co501 N498 2.135 . S
Co501 N504 2.121 . S
Co501 O509 2.055 . S
Co501 O512 2.039 . S
Co501 N515 2.140 . S
C502 O503 1.227 . S
C502 O512 1.265 . S
O503 C502 1.227 . S
N504 Co501 2.121 . S
N504 C506 1.375 . S
N504 C507 1.313 . S
C505 C506 1.338 . S
C505 N508 1.377 . S
C505 H525 0.930 . S
C506 N504 1.375 . S
C506 C505 1.338 . S
C506 H510 0.931 . S
C507 N504 1.313 . S
C507 N508 1.344 . S
C507 H511 0.930 . S
N508 C505 1.377 . S
N508 C507 1.344 . S
O509 Co501 2.055 . S
O509 C513 1.253 . S
H510 C506 0.931 . S
H511 C507 0.930 . S
O512 Co501 2.039 . S
O512 C502 1.265 . S
C513 O509 1.253 . S
C513 O514 1.227 . S
O514 C513 1.227 . S
N515 Co501 2.140 . S
N515 C518 1.346 . S
N515 C519 1.345 . S
C516 C517 1.387 . S
C516 C520 1.391 . S
C517 C516 1.387 . S
C517 C518 1.369 . S
C517 H526 0.929 . S
C518 N515 1.346 . S
C518 C517 1.369 . S
C518 H521 0.928 . S
C519 N515 1.345 . S
C519 C520 1.371 . S
C519 H522 0.931 . S
C520 C516 1.391 . S
C520 C519 1.371 . S
C520 H527 0.930 . S
H521 C518 0.928 . S
H522 C519 0.931 . S
H523 C499 0.930 . S
H524 C496 0.930 . S
H525 C505 0.930 . S
H526 C517 0.929 . S
H527 C520 0.930 . S
C528 C529 1.351 . S
C528 N531 1.368 . S
C528 H533 0.931 . S
C529 C528 1.351 . S
C529 N530 1.373 . S
C529 H557 0.930 . S
N530 C529 1.373 . S
N530 C532 1.340 . S
N531 C528 1.368 . S
N531 C532 1.321 . S
N531 Co534 2.135 . S
C532 N530 1.340 . S
C532 N531 1.321 . S
C532 H556 0.930 . S
H533 C528 0.931 . S
Co534 N531 2.135 . S
Co534 N537 2.121 . S
Co534 O542 2.055 . S
Co534 O545 2.039 . S
Co534 N548 2.140 . S
C535 O536 1.227 . S
C535 O545 1.265 . S
O536 C535 1.227 . S
N537 Co534 2.121 . S
N537 C539 1.375 . S
N537 C540 1.313 . S
C538 C539 1.338 . S
C538 N541 1.377 . S
C538 H558 0.930 . S
C539 N537 1.375 . S
C539 C538 1.338 . S
C539 H543 0.931 . S
C540 N537 1.313 . S
C540 N541 1.344 . S
C540 H544 0.930 . S
N541 C538 1.377 . S
N541 C540 1.344 . S
O542 Co534 2.055 . S
O542 C546 1.253 . S
H543 C539 0.931 . S
H544 C540 0.930 . S
O545 Co534 2.039 . S
O545 C535 1.265 . S
C546 O542 1.253 . S
C546 O547 1.227 . S
O547 C546 1.227 . S
N548 Co534 2.140 . S
N548 C551 1.346 . S
N548 C552 1.345 . S
C549 C550 1.387 . S
C549 C553 1.391 . S
C550 C549 1.387 . S
C550 C551 1.369 . S
C550 H559 0.929 . S
C551 N548 1.346 . S
C551 C550 1.369 . S
C551 H554 0.928 . S
C552 N548 1.345 . S
C552 C553 1.371 . S
C552 H555 0.931 . S
C553 C549 1.391 . S
C553 C552 1.371 . S
C553 H560 0.930 . S
H554 C551 0.928 . S
H555 C552 0.931 . S
H556 C532 0.930 . S
H557 C529 0.930 . S
H558 C538 0.930 . S
H559 C550 0.929 . S
H560 C553 0.930 . S
C561 C562 1.351 . S
C561 N564 1.368 . S
C561 H566 0.931 . S
C562 C561 1.351 . S
C562 N563 1.373 . S
C562 H590 0.930 . S
N563 C562 1.373 . S
N563 C565 1.340 . S
N564 C561 1.368 . S
N564 C565 1.321 . S
N564 Co567 2.135 . S
C565 N563 1.340 . S
C565 N564 1.321 . S
C565 H589 0.930 . S
H566 C561 0.931 . S
Co567 N564 2.135 . S
Co567 N570 2.121 . S
Co567 O575 2.055 . S
Co567 O578 2.039 . S
Co567 N581 2.140 . S
C568 O569 1.227 . S
C568 O578 1.265 . S
O569 C568 1.227 . S
N570 Co567 2.121 . S
N570 C572 1.375 . S
N570 C573 1.313 . S
C571 C572 1.338 . S
C571 N574 1.377 . S
C571 H591 0.930 . S
C572 N570 1.375 . S
C572 C571 1.338 . S
C572 H576 0.931 . S
C573 N570 1.313 . S
C573 N574 1.344 . S
C573 H577 0.930 . S
N574 C571 1.377 . S
N574 C573 1.344 . S
O575 Co567 2.055 . S
O575 C579 1.253 . S
H576 C572 0.931 . S
H577 C573 0.930 . S
O578 Co567 2.039 . S
O578 C568 1.265 . S
C579 O575 1.253 . S
C579 O580 1.227 . S
O580 C579 1.227 . S
N581 Co567 2.140 . S
N581 C584 1.346 . S
N581 C585 1.345 . S
C582 C583 1.387 . S
C582 C586 1.391 . S
C583 C582 1.387 . S
C583 C584 1.369 . S
C583 H592 0.929 . S
C584 N581 1.346 . S
C584 C583 1.369 . S
C584 H587 0.928 . S
C585 N581 1.345 . S
C585 C586 1.371 . S
C585 H588 0.931 . S
C586 C582 1.391 . S
C586 C585 1.371 . S
C586 H593 0.930 . S
H587 C584 0.928 . S
H588 C585 0.931 . S
H589 C565 0.930 . S
H590 C562 0.930 . S
H591 C571 0.930 . S
H592 C583 0.929 . S
H593 C586 0.930 . S
C594 C595 1.351 . S
C594 N597 1.368 . S
C594 H599 0.931 . S
C595 C594 1.351 . S
C595 N596 1.373 . S
C595 H623 0.930 . S
N596 C595 1.373 . S
N596 C598 1.340 . S
N597 C594 1.368 . S
N597 C598 1.321 . S
N597 Co600 2.135 . S
C598 N596 1.340 . S
C598 N597 1.321 . S
C598 H622 0.930 . S
H599 C594 0.931 . S
Co600 N597 2.135 . S
Co600 N603 2.121 . S
Co600 O608 2.055 . S
Co600 O611 2.039 . S
Co600 N614 2.140 . S
C601 O602 1.227 . S
C601 O611 1.265 . S
O602 C601 1.227 . S
N603 Co600 2.121 . S
N603 C605 1.375 . S
N603 C606 1.313 . S
C604 C605 1.338 . S
C604 N607 1.377 . S
C604 H624 0.930 . S
C605 N603 1.375 . S
C605 C604 1.338 . S
C605 H609 0.931 . S
C606 N603 1.313 . S
C606 N607 1.344 . S
C606 H610 0.930 . S
N607 C604 1.377 . S
N607 C606 1.344 . S
O608 Co600 2.055 . S
O608 C612 1.253 . S
H609 C605 0.931 . S
H610 C606 0.930 . S
O611 Co600 2.039 . S
O611 C601 1.265 . S
C612 O608 1.253 . S
C612 O613 1.227 . S
O613 C612 1.227 . S
N614 Co600 2.140 . S
N614 C617 1.346 . S
N614 C618 1.345 . S
C615 C616 1.387 . S
C615 C619 1.391 . S
C616 C615 1.387 . S
C616 C617 1.369 . S
C616 H625 0.929 . S
C617 N614 1.346 . S
C617 C616 1.369 . S
C617 H620 0.928 . S
C618 N614 1.345 . S
C618 C619 1.371 . S
C618 H621 0.931 . S
C619 C615 1.391 . S
C619 C618 1.371 . S
C619 H626 0.930 . S
H620 C617 0.928 . S
H621 C618 0.931 . S
H622 C598 0.930 . S
H623 C595 0.930 . S
H624 C604 0.930 . S
H625 C616 0.929 . S
H626 C619 0.930 . S
C627 C628 1.351 . S
C627 N630 1.368 . S
C627 H632 0.931 . S
C628 C627 1.351 . S
C628 N629 1.373 . S
C628 H656 0.930 . S
N629 C628 1.373 . S
N629 C631 1.340 . S
N630 C627 1.368 . S
N630 C631 1.321 . S
N630 Co633 2.135 . S
C631 N629 1.340 . S
C631 N630 1.321 . S
C631 H655 0.930 . S
H632 C627 0.931 . S
Co633 N630 2.135 . S
Co633 N636 2.121 . S
Co633 O641 2.055 . S
Co633 O644 2.039 . S
Co633 N647 2.140 . S
C634 O635 1.227 . S
C634 O644 1.265 . S
O635 C634 1.227 . S
N636 Co633 2.121 . S
N636 C638 1.375 . S
N636 C639 1.313 . S
C637 C638 1.338 . S
C637 N640 1.377 . S
C637 H657 0.930 . S
C638 N636 1.375 . S
C638 C637 1.338 . S
C638 H642 0.931 . S
C639 N636 1.313 . S
C639 N640 1.344 . S
C639 H643 0.930 . S
N640 C637 1.377 . S
N640 C639 1.344 . S
O641 Co633 2.055 . S
O641 C645 1.253 . S
H642 C638 0.931 . S
H643 C639 0.930 . S
O644 Co633 2.039 . S
O644 C634 1.265 . S
C645 O641 1.253 . S
C645 O646 1.227 . S
O646 C645 1.227 . S
N647 Co633 2.140 . S
N647 C650 1.346 . S
N647 C651 1.345 . S
C648 C649 1.387 . S
C648 C652 1.391 . S
C649 C648 1.387 . S
C649 C650 1.369 . S
C649 H658 0.929 . S
C650 N647 1.346 . S
C650 C649 1.369 . S
C650 H653 0.928 . S
C651 N647 1.345 . S
C651 C652 1.371 . S
C651 H654 0.931 . S
C652 C648 1.391 . S
C652 C651 1.371 . S
C652 H659 0.930 . S
H653 C650 0.928 . S
H654 C651 0.931 . S
H655 C631 0.930 . S
H656 C628 0.930 . S
H657 C637 0.930 . S
H658 C649 0.929 . S
H659 C652 0.930 . S
C660 C661 1.351 . S
C660 N663 1.368 . S
C660 H665 0.931 . S
C661 C660 1.351 . S
C661 N662 1.373 . S
C661 H689 0.930 . S
N662 C661 1.373 . S
N662 C664 1.340 . S
N663 C660 1.368 . S
N663 C664 1.321 . S
N663 Co666 2.135 . S
C664 N662 1.340 . S
C664 N663 1.321 . S
C664 H688 0.930 . S
H665 C660 0.931 . S
Co666 N663 2.135 . S
Co666 N669 2.121 . S
Co666 O674 2.055 . S
Co666 O677 2.039 . S
Co666 N680 2.140 . S
C667 O668 1.227 . S
C667 O677 1.265 . S
O668 C667 1.227 . S
N669 Co666 2.121 . S
N669 C671 1.375 . S
N669 C672 1.313 . S
C670 C671 1.338 . S
C670 N673 1.377 . S
C670 H690 0.930 . S
C671 N669 1.375 . S
C671 C670 1.338 . S
C671 H675 0.931 . S
C672 N669 1.313 . S
C672 N673 1.344 . S
C672 H676 0.930 . S
N673 C670 1.377 . S
N673 C672 1.344 . S
O674 Co666 2.055 . S
O674 C678 1.253 . S
H675 C671 0.931 . S
H676 C672 0.930 . S
O677 Co666 2.039 . S
O677 C667 1.265 . S
C678 O674 1.253 . S
C678 O679 1.227 . S
O679 C678 1.227 . S
N680 Co666 2.140 . S
N680 C683 1.346 . S
N680 C684 1.345 . S
C681 C682 1.387 . S
C681 C685 1.391 . S
C682 C681 1.387 . S
C682 C683 1.369 . S
C682 H691 0.929 . S
C683 N680 1.346 . S
C683 C682 1.369 . S
C683 H686 0.928 . S
C684 N680 1.345 . S
C684 C685 1.371 . S
C684 H687 0.931 . S
C685 C681 1.391 . S
C685 C684 1.371 . S
C685 H692 0.930 . S
H686 C683 0.928 . S
H687 C684 0.931 . S
H688 C664 0.930 . S
H689 C661 0.930 . S
H690 C670 0.930 . S
H691 C682 0.929 . S
H692 C685 0.930 . S
C693 C694 1.351 . S
C693 N696 1.368 . S
C693 H698 0.931 . S
C694 C693 1.351 . S
C694 N695 1.373 . S
C694 H722 0.930 . S
N695 C694 1.373 . S
N695 C697 1.340 . S
N696 C693 1.368 . S
N696 C697 1.321 . S
N696 Co699 2.135 . S
C697 N695 1.340 . S
C697 N696 1.321 . S
C697 H721 0.930 . S
H698 C693 0.931 . S
Co699 N696 2.135 . S
Co699 N702 2.121 . S
Co699 O707 2.055 . S
Co699 O710 2.039 . S
Co699 N713 2.140 . S
C700 O701 1.227 . S
C700 O710 1.265 . S
O701 C700 1.227 . S
N702 Co699 2.121 . S
N702 C704 1.375 . S
N702 C705 1.313 . S
C703 C704 1.338 . S
C703 N706 1.377 . S
C703 H723 0.930 . S
C704 N702 1.375 . S
C704 C703 1.338 . S
C704 H708 0.931 . S
C705 N702 1.313 . S
C705 N706 1.344 . S
C705 H709 0.930 . S
N706 C703 1.377 . S
N706 C705 1.344 . S
O707 Co699 2.055 . S
O707 C711 1.253 . S
H708 C704 0.931 . S
H709 C705 0.930 . S
O710 Co699 2.039 . S
O710 C700 1.265 . S
C711 O707 1.253 . S
C711 O712 1.227 . S
O712 C711 1.227 . S
N713 Co699 2.140 . S
N713 C716 1.346 . S
N713 C717 1.345 . S
C714 C715 1.387 . S
C714 C718 1.391 . S
C715 C714 1.387 . S
C715 C716 1.369 . S
C715 H724 0.929 . S
C716 N713 1.346 . S
C716 C715 1.369 . S
C716 H719 0.928 . S
C717 N713 1.345 . S
C717 C718 1.371 . S
C717 H720 0.931 . S
C718 C714 1.391 . S
C718 C717 1.371 . S
C718 H725 0.930 . S
H719 C716 0.928 . S
H720 C717 0.931 . S
H721 C697 0.930 . S
H722 C694 0.930 . S
H723 C703 0.930 . S
H724 C715 0.929 . S
H725 C718 0.930 . S
C726 C727 1.351 . S
C726 N729 1.368 . S
C726 H731 0.931 . S
C727 C726 1.351 . S
C727 N728 1.373 . S
C727 H755 0.930 . S
N728 C727 1.373 . S
N728 C730 1.340 . S
N729 C726 1.368 . S
N729 C730 1.321 . S
N729 Co732 2.135 . S
C730 N728 1.340 . S
C730 N729 1.321 . S
C730 H754 0.930 . S
H731 C726 0.931 . S
Co732 N729 2.135 . S
Co732 N735 2.121 . S
Co732 O740 2.055 . S
Co732 O743 2.039 . S
Co732 N746 2.140 . S
C733 O734 1.227 . S
C733 O743 1.265 . S
O734 C733 1.227 . S
N735 Co732 2.121 . S
N735 C737 1.375 . S
N735 C738 1.313 . S
C736 C737 1.338 . S
C736 N739 1.377 . S
C736 H756 0.930 . S
C737 N735 1.375 . S
C737 C736 1.338 . S
C737 H741 0.931 . S
C738 N735 1.313 . S
C738 N739 1.344 . S
C738 H742 0.930 . S
N739 C736 1.377 . S
N739 C738 1.344 . S
O740 Co732 2.055 . S
O740 C744 1.253 . S
H741 C737 0.931 . S
H742 C738 0.930 . S
O743 Co732 2.039 . S
O743 C733 1.265 . S
C744 O740 1.253 . S
C744 O745 1.227 . S
O745 C744 1.227 . S
N746 Co732 2.140 . S
N746 C749 1.346 . S
N746 C750 1.345 . S
C747 C748 1.387 . S
C747 C751 1.391 . S
C748 C747 1.387 . S
C748 C749 1.369 . S
C748 H757 0.929 . S
C749 N746 1.346 . S
C749 C748 1.369 . S
C749 H752 0.928 . S
C750 N746 1.345 . S
C750 C751 1.371 . S
C750 H753 0.931 . S
C751 C747 1.391 . S
C751 C750 1.371 . S
C751 H758 0.930 . S
H752 C749 0.928 . S
H753 C750 0.931 . S
H754 C730 0.930 . S
H755 C727 0.930 . S
H756 C736 0.930 . S
H757 C748 0.929 . S
H758 C751 0.930 . S
C759 C760 1.351 . S
C759 N762 1.368 . S
C759 H764 0.931 . S
C760 C759 1.351 . S
C760 N761 1.373 . S
C760 H788 0.930 . S
N761 C760 1.373 . S
N761 C763 1.340 . S
N762 C759 1.368 . S
N762 C763 1.321 . S
N762 Co765 2.135 . S
C763 N761 1.340 . S
C763 N762 1.321 . S
C763 H787 0.930 . S
H764 C759 0.931 . S
Co765 N762 2.135 . S
Co765 N768 2.121 . S
Co765 O773 2.055 . S
Co765 O776 2.039 . S
Co765 N779 2.140 . S
C766 O767 1.227 . S
C766 O776 1.265 . S
O767 C766 1.227 . S
N768 Co765 2.121 . S
N768 C770 1.375 . S
N768 C771 1.313 . S
C769 C770 1.338 . S
C769 N772 1.377 . S
C769 H789 0.930 . S
C770 N768 1.375 . S
C770 C769 1.338 . S
C770 H774 0.931 . S
C771 N768 1.313 . S
C771 N772 1.344 . S
C771 H775 0.930 . S
N772 C769 1.377 . S
N772 C771 1.344 . S
O773 Co765 2.055 . S
O773 C777 1.253 . S
H774 C770 0.931 . S
H775 C771 0.930 . S
O776 Co765 2.039 . S
O776 C766 1.265 . S
C777 O773 1.253 . S
C777 O778 1.227 . S
O778 C777 1.227 . S
N779 Co765 2.140 . S
N779 C782 1.346 . S
N779 C783 1.345 . S
C780 C781 1.387 . S
C780 C784 1.391 . S
C781 C780 1.387 . S
C781 C782 1.369 . S
C781 H790 0.929 . S
C782 N779 1.346 . S
C782 C781 1.369 . S
C782 H785 0.928 . S
C783 N779 1.345 . S
C783 C784 1.371 . S
C783 H786 0.931 . S
C784 C780 1.391 . S
C784 C783 1.371 . S
C784 H791 0.930 . S
H785 C782 0.928 . S
H786 C783 0.931 . S
H787 C763 0.930 . S
H788 C760 0.930 . S
H789 C769 0.930 . S
H790 C781 0.929 . S
H791 C784 0.930 . S
C792 C793 1.351 . S
C792 N795 1.368 . S
C792 H797 0.931 . S
C793 C792 1.351 . S
C793 N794 1.373 . S
C793 H821 0.930 . S
N794 C793 1.373 . S
N794 C796 1.340 . S
N795 C792 1.368 . S
N795 C796 1.321 . S
N795 Co798 2.135 . S
C796 N794 1.340 . S
C796 N795 1.321 . S
C796 H820 0.930 . S
H797 C792 0.931 . S
Co798 N795 2.135 . S
Co798 N801 2.121 . S
Co798 O806 2.055 . S
Co798 O809 2.039 . S
Co798 N812 2.140 . S
C799 O800 1.227 . S
C799 O809 1.265 . S
O800 C799 1.227 . S
N801 Co798 2.121 . S
N801 C803 1.375 . S
N801 C804 1.313 . S
C802 C803 1.338 . S
C802 N805 1.377 . S
C802 H822 0.930 . S
C803 N801 1.375 . S
C803 C802 1.338 . S
C803 H807 0.931 . S
C804 N801 1.313 . S
C804 N805 1.344 . S
C804 H808 0.930 . S
N805 C802 1.377 . S
N805 C804 1.344 . S
O806 Co798 2.055 . S
O806 C810 1.253 . S
H807 C803 0.931 . S
H808 C804 0.930 . S
O809 Co798 2.039 . S
O809 C799 1.265 . S
C810 O806 1.253 . S
C810 O811 1.227 . S
O811 C810 1.227 . S
N812 Co798 2.140 . S
N812 C815 1.346 . S
N812 C816 1.345 . S
C813 C814 1.387 . S
C813 C817 1.391 . S
C814 C813 1.387 . S
C814 C815 1.369 . S
C814 H823 0.929 . S
C815 N812 1.346 . S
C815 C814 1.369 . S
C815 H818 0.928 . S
C816 N812 1.345 . S
C816 C817 1.371 . S
C816 H819 0.931 . S
C817 C813 1.391 . S
C817 C816 1.371 . S
C817 H824 0.930 . S
H818 C815 0.928 . S
H819 C816 0.931 . S
H820 C796 0.930 . S
H821 C793 0.930 . S
H822 C802 0.930 . S
H823 C814 0.929 . S
H824 C817 0.930 . S
C825 C826 1.351 . S
C825 N828 1.368 . S
C825 H830 0.931 . S
C826 C825 1.351 . S
C826 N827 1.373 . S
C826 H854 0.930 . S
N827 C826 1.373 . S
N827 C829 1.340 . S
N828 C825 1.368 . S
N828 C829 1.321 . S
N828 Co831 2.135 . S
C829 N827 1.340 . S
C829 N828 1.321 . S
C829 H853 0.930 . S
H830 C825 0.931 . S
Co831 N828 2.135 . S
Co831 N834 2.121 . S
Co831 O839 2.055 . S
Co831 O842 2.039 . S
Co831 N845 2.140 . S
C832 O833 1.227 . S
C832 O842 1.265 . S
O833 C832 1.227 . S
N834 Co831 2.121 . S
N834 C836 1.375 . S
N834 C837 1.313 . S
C835 C836 1.338 . S
C835 N838 1.377 . S
C835 H855 0.930 . S
C836 N834 1.375 . S
C836 C835 1.338 . S
C836 H840 0.931 . S
C837 N834 1.313 . S
C837 N838 1.344 . S
C837 H841 0.930 . S
N838 C835 1.377 . S
N838 C837 1.344 . S
O839 Co831 2.055 . S
O839 C843 1.253 . S
H840 C836 0.931 . S
H841 C837 0.930 . S
O842 Co831 2.039 . S
O842 C832 1.265 . S
C843 O839 1.253 . S
C843 O844 1.227 . S
O844 C843 1.227 . S
N845 Co831 2.140 . S
N845 C848 1.346 . S
N845 C849 1.345 . S
C846 C847 1.387 . S
C846 C850 1.391 . S
C847 C846 1.387 . S
C847 C848 1.369 . S
C847 H856 0.929 . S
C848 N845 1.346 . S
C848 C847 1.369 . S
C848 H851 0.928 . S
C849 N845 1.345 . S
C849 C850 1.371 . S
C849 H852 0.931 . S
C850 C846 1.391 . S
C850 C849 1.371 . S
C850 H857 0.930 . S
H851 C848 0.928 . S
H852 C849 0.931 . S
H853 C829 0.930 . S
H854 C826 0.930 . S
H855 C835 0.930 . S
H856 C847 0.929 . S
H857 C850 0.930 . S
C858 C859 1.351 . S
C858 N861 1.368 . S
C858 H863 0.931 . S
C859 C858 1.351 . S
C859 N860 1.373 . S
C859 H887 0.930 . S
N860 C859 1.373 . S
N860 C862 1.340 . S
N861 C858 1.368 . S
N861 C862 1.321 . S
N861 Co864 2.135 . S
C862 N860 1.340 . S
C862 N861 1.321 . S
C862 H886 0.930 . S
H863 C858 0.931 . S
Co864 N861 2.135 . S
Co864 N867 2.121 . S
Co864 O872 2.055 . S
Co864 O875 2.039 . S
Co864 N878 2.140 . S
C865 O866 1.227 . S
C865 O875 1.265 . S
O866 C865 1.227 . S
N867 Co864 2.121 . S
N867 C869 1.375 . S
N867 C870 1.313 . S
C868 C869 1.338 . S
C868 N871 1.377 . S
C868 H888 0.930 . S
C869 N867 1.375 . S
C869 C868 1.338 . S
C869 H873 0.931 . S
C870 N867 1.313 . S
C870 N871 1.344 . S
C870 H874 0.930 . S
N871 C868 1.377 . S
N871 C870 1.344 . S
O872 Co864 2.055 . S
O872 C876 1.253 . S
H873 C869 0.931 . S
H874 C870 0.930 . S
O875 Co864 2.039 . S
O875 C865 1.265 . S
C876 O872 1.253 . S
C876 O877 1.227 . S
O877 C876 1.227 . S
N878 Co864 2.140 . S
N878 C881 1.346 . S
N878 C882 1.345 . S
C879 C880 1.387 . S
C879 C883 1.391 . S
C880 C879 1.387 . S
C880 C881 1.369 . S
C880 H889 0.929 . S
C881 N878 1.346 . S
C881 C880 1.369 . S
C881 H884 0.928 . S
C882 N878 1.345 . S
C882 C883 1.371 . S
C882 H885 0.931 . S
C883 C879 1.391 . S
C883 C882 1.371 . S
C883 H890 0.930 . S
H884 C881 0.928 . S
H885 C882 0.931 . S
H886 C862 0.930 . S
H887 C859 0.930 . S
H888 C868 0.930 . S
H889 C880 0.929 . S
H890 C883 0.930 . S
C891 C892 1.351 . S
C891 N894 1.368 . S
C891 H896 0.931 . S
C892 C891 1.351 . S
C892 N893 1.373 . S
C892 H920 0.930 . S
N893 C892 1.373 . S
N893 C895 1.340 . S
N894 C891 1.368 . S
N894 C895 1.321 . S
N894 Co897 2.135 . S
C895 N893 1.340 . S
C895 N894 1.321 . S
C895 H919 0.930 . S
H896 C891 0.931 . S
Co897 N894 2.135 . S
Co897 N900 2.121 . S
Co897 O905 2.055 . S
Co897 O908 2.039 . S
Co897 N911 2.140 . S
C898 O899 1.227 . S
C898 O908 1.265 . S
O899 C898 1.227 . S
N900 Co897 2.121 . S
N900 C902 1.375 . S
N900 C903 1.313 . S
C901 C902 1.338 . S
C901 N904 1.377 . S
C901 H921 0.930 . S
C902 N900 1.375 . S
C902 C901 1.338 . S
C902 H906 0.931 . S
C903 N900 1.313 . S
C903 N904 1.344 . S
C903 H907 0.930 . S
N904 C901 1.377 . S
N904 C903 1.344 . S
O905 Co897 2.055 . S
O905 C909 1.253 . S
H906 C902 0.931 . S
H907 C903 0.930 . S
O908 Co897 2.039 . S
O908 C898 1.265 . S
C909 O905 1.253 . S
C909 O910 1.227 . S
O910 C909 1.227 . S
N911 Co897 2.140 . S
N911 C914 1.346 . S
N911 C915 1.345 . S
C912 C913 1.387 . S
C912 C916 1.391 . S
C913 C912 1.387 . S
C913 C914 1.369 . S
C913 H922 0.929 . S
C914 N911 1.346 . S
C914 C913 1.369 . S
C914 H917 0.928 . S
C915 N911 1.345 . S
C915 C916 1.371 . S
C915 H918 0.931 . S
C916 C912 1.391 . S
C916 C915 1.371 . S
C916 H923 0.930 . S
H917 C914 0.928 . S
H918 C915 0.931 . S
H919 C895 0.930 . S
H920 C892 0.930 . S
H921 C901 0.930 . S
H922 C913 0.929 . S
H923 C916 0.930 . S
C924 C925 1.351 . S
C924 N927 1.368 . S
C924 H929 0.931 . S
C925 C924 1.351 . S
C925 N926 1.373 . S
C925 H953 0.930 . S
N926 C925 1.373 . S
N926 C928 1.340 . S
N927 C924 1.368 . S
N927 C928 1.321 . S
N927 Co930 2.135 . S
C928 N926 1.340 . S
C928 N927 1.321 . S
C928 H952 0.930 . S
H929 C924 0.931 . S
Co930 N927 2.135 . S
Co930 N933 2.121 . S
Co930 O938 2.055 . S
Co930 O941 2.039 . S
Co930 N944 2.140 . S
C931 O932 1.227 . S
C931 O941 1.265 . S
O932 C931 1.227 . S
N933 Co930 2.121 . S
N933 C935 1.375 . S
N933 C936 1.313 . S
C934 C935 1.338 . S
C934 N937 1.377 . S
C934 H954 0.930 . S
C935 N933 1.375 . S
C935 C934 1.338 . S
C935 H939 0.931 . S
C936 N933 1.313 . S
C936 N937 1.344 . S
C936 H940 0.930 . S
N937 C934 1.377 . S
N937 C936 1.344 . S
O938 Co930 2.055 . S
O938 C942 1.253 . S
H939 C935 0.931 . S
H940 C936 0.930 . S
O941 Co930 2.039 . S
O941 C931 1.265 . S
C942 O938 1.253 . S
C942 O943 1.227 . S
O943 C942 1.227 . S
N944 Co930 2.140 . S
N944 C947 1.346 . S
N944 C948 1.345 . S
C945 C946 1.387 . S
C945 C949 1.391 . S
C946 C945 1.387 . S
C946 C947 1.369 . S
C946 H955 0.929 . S
C947 N944 1.346 . S
C947 C946 1.369 . S
C947 H950 0.928 . S
C948 N944 1.345 . S
C948 C949 1.371 . S
C948 H951 0.931 . S
C949 C945 1.391 . S
C949 C948 1.371 . S
C949 H956 0.930 . S
H950 C947 0.928 . S
H951 C948 0.931 . S
H952 C928 0.930 . S
H953 C925 0.930 . S
H954 C934 0.930 . S
H955 C946 0.929 . S
H956 C949 0.930 . S
C957 C958 1.351 . S
C957 N960 1.368 . S
C957 H962 0.931 . S
C958 C957 1.351 . S
C958 N959 1.373 . S
C958 H986 0.930 . S
N959 C958 1.373 . S
N959 C961 1.340 . S
N960 C957 1.368 . S
N960 C961 1.321 . S
N960 Co963 2.135 . S
C961 N959 1.340 . S
C961 N960 1.321 . S
C961 H985 0.930 . S
H962 C957 0.931 . S
Co963 N960 2.135 . S
Co963 N966 2.121 . S
Co963 O971 2.055 . S
Co963 O974 2.039 . S
Co963 N977 2.140 . S
C964 O965 1.227 . S
C964 O974 1.265 . S
O965 C964 1.227 . S
N966 Co963 2.121 . S
N966 C968 1.375 . S
N966 C969 1.313 . S
C967 C968 1.338 . S
C967 N970 1.377 . S
C967 H987 0.930 . S
C968 N966 1.375 . S
C968 C967 1.338 . S
C968 H972 0.931 . S
C969 N966 1.313 . S
C969 N970 1.344 . S
C969 H973 0.930 . S
N970 C967 1.377 . S
N970 C969 1.344 . S
O971 Co963 2.055 . S
O971 C975 1.253 . S
H972 C968 0.931 . S
H973 C969 0.930 . S
O974 Co963 2.039 . S
O974 C964 1.265 . S
C975 O971 1.253 . S
C975 O976 1.227 . S
O976 C975 1.227 . S
N977 Co963 2.140 . S
N977 C980 1.346 . S
N977 C981 1.345 . S
C978 C979 1.387 . S
C978 C982 1.391 . S
C979 C978 1.387 . S
C979 C980 1.369 . S
C979 H988 0.929 . S
C980 N977 1.346 . S
C980 C979 1.369 . S
C980 H983 0.928 . S
C981 N977 1.345 . S
C981 C982 1.371 . S
C981 H984 0.931 . S
C982 C978 1.391 . S
C982 C981 1.371 . S
C982 H989 0.930 . S
H983 C980 0.928 . S
H984 C981 0.931 . S
H985 C961 0.930 . S
H986 C958 0.930 . S
H987 C967 0.930 . S
H988 C979 0.929 . S
H989 C982 0.930 . S
C990 C991 1.351 . S
C990 N993 1.368 . S
C990 H995 0.931 . S
C991 C990 1.351 . S
C991 N992 1.373 . S
C991 H1019 0.930 . S
N992 C991 1.373 . S
N992 C994 1.340 . S
N993 C990 1.368 . S
N993 C994 1.321 . S
N993 Co996 2.135 . S
C994 N992 1.340 . S
C994 N993 1.321 . S
C994 H1018 0.930 . S
H995 C990 0.931 . S
Co996 N993 2.135 . S
Co996 N999 2.121 . S
Co996 O1004 2.055 . S
Co996 O1007 2.039 . S
Co996 N1010 2.140 . S
C997 O998 1.227 . S
C997 O1007 1.265 . S
O998 C997 1.227 . S
N999 Co996 2.121 . S
N999 C1001 1.375 . S
N999 C1002 1.313 . S
C1000 C1001 1.338 . S
C1000 N1003 1.377 . S
C1000 H1020 0.930 . S
C1001 N999 1.375 . S
C1001 C1000 1.338 . S
C1001 H1005 0.931 . S
C1002 N999 1.313 . S
C1002 N1003 1.344 . S
C1002 H1006 0.930 . S
N1003 C1000 1.377 . S
N1003 C1002 1.344 . S
O1004 Co996 2.055 . S
O1004 C1008 1.253 . S
H1005 C1001 0.931 . S
H1006 C1002 0.930 . S
O1007 Co996 2.039 . S
O1007 C997 1.265 . S
C1008 O1004 1.253 . S
C1008 O1009 1.227 . S
O1009 C1008 1.227 . S
N1010 Co996 2.140 . S
N1010 C1013 1.346 . S
N1010 C1014 1.345 . S
C1011 C1012 1.387 . S
C1011 C1015 1.391 . S
C1012 C1011 1.387 . S
C1012 C1013 1.369 . S
C1012 H1021 0.929 . S
C1013 N1010 1.346 . S
C1013 C1012 1.369 . S
C1013 H1016 0.928 . S
C1014 N1010 1.345 . S
C1014 C1015 1.371 . S
C1014 H1017 0.931 . S
C1015 C1011 1.391 . S
C1015 C1014 1.371 . S
C1015 H1022 0.930 . S
H1016 C1013 0.928 . S
H1017 C1014 0.931 . S
H1018 C994 0.930 . S
H1019 C991 0.930 . S
H1020 C1000 0.930 . S
H1021 C1012 0.929 . S
H1022 C1015 0.930 . S
C1023 C1024 1.351 . S
C1023 N1026 1.368 . S
C1023 H1028 0.931 . S
C1024 C1023 1.351 . S
C1024 N1025 1.373 . S
C1024 H1052 0.930 . S
N1025 C1024 1.373 . S
N1025 C1027 1.340 . S
N1026 C1023 1.368 . S
N1026 C1027 1.321 . S
N1026 Co1029 2.135 . S
C1027 N1025 1.340 . S
C1027 N1026 1.321 . S
C1027 H1051 0.930 . S
H1028 C1023 0.931 . S
Co1029 N1026 2.135 . S
Co1029 N1032 2.121 . S
Co1029 O1037 2.055 . S
Co1029 O1040 2.039 . S
Co1029 N1043 2.140 . S
C1030 O1031 1.227 . S
C1030 O1040 1.265 . S
O1031 C1030 1.227 . S
N1032 Co1029 2.121 . S
N1032 C1034 1.375 . S
N1032 C1035 1.313 . S
C1033 C1034 1.338 . S
C1033 N1036 1.377 . S
C1033 H1053 0.930 . S
C1034 N1032 1.375 . S
C1034 C1033 1.338 . S
C1034 H1038 0.931 . S
C1035 N1032 1.313 . S
C1035 N1036 1.344 . S
C1035 H1039 0.930 . S
N1036 C1033 1.377 . S
N1036 C1035 1.344 . S
O1037 Co1029 2.055 . S
O1037 C1041 1.253 . S
H1038 C1034 0.931 . S
H1039 C1035 0.930 . S
O1040 Co1029 2.039 . S
O1040 C1030 1.265 . S
C1041 O1037 1.253 . S
C1041 O1042 1.227 . S
O1042 C1041 1.227 . S
N1043 Co1029 2.140 . S
N1043 C1046 1.346 . S
N1043 C1047 1.345 . S
C1044 C1045 1.387 . S
C1044 C1048 1.391 . S
C1045 C1044 1.387 . S
C1045 C1046 1.369 . S
C1045 H1054 0.929 . S
C1046 N1043 1.346 . S
C1046 C1045 1.369 . S
C1046 H1049 0.928 . S
C1047 N1043 1.345 . S
C1047 C1048 1.371 . S
C1047 H1050 0.931 . S
C1048 C1044 1.391 . S
C1048 C1047 1.371 . S
C1048 H1055 0.930 . S
H1049 C1046 0.928 . S
H1050 C1047 0.931 . S
H1051 C1027 0.930 . S
H1052 C1024 0.930 . S
H1053 C1033 0.930 . S
H1054 C1045 0.929 . S
H1055 C1048 0.930 . S
C1056 C1057 1.351 . S
C1056 N1059 1.368 . S
C1056 H1061 0.931 . S
C1057 C1056 1.351 . S
C1057 N1058 1.373 . S
C1057 H1085 0.930 . S
N1058 C1057 1.373 . S
N1058 C1060 1.340 . S
N1059 C1056 1.368 . S
N1059 C1060 1.321 . S
N1059 Co1062 2.135 . S
C1060 N1058 1.340 . S
C1060 N1059 1.321 . S
C1060 H1084 0.930 . S
H1061 C1056 0.931 . S
Co1062 N1059 2.135 . S
Co1062 N1065 2.121 . S
Co1062 O1070 2.055 . S
Co1062 O1073 2.039 . S
Co1062 N1076 2.140 . S
C1063 O1064 1.227 . S
C1063 O1073 1.265 . S
O1064 C1063 1.227 . S
N1065 Co1062 2.121 . S
N1065 C1067 1.375 . S
N1065 C1068 1.313 . S
C1066 C1067 1.338 . S
C1066 N1069 1.377 . S
C1066 H1086 0.930 . S
C1067 N1065 1.375 . S
C1067 C1066 1.338 . S
C1067 H1071 0.931 . S
C1068 N1065 1.313 . S
C1068 N1069 1.344 . S
C1068 H1072 0.930 . S
N1069 C1066 1.377 . S
N1069 C1068 1.344 . S
O1070 Co1062 2.055 . S
O1070 C1074 1.253 . S
H1071 C1067 0.931 . S
H1072 C1068 0.930 . S
O1073 Co1062 2.039 . S
O1073 C1063 1.265 . S
C1074 O1070 1.253 . S
C1074 O1075 1.227 . S
O1075 C1074 1.227 . S
N1076 Co1062 2.140 . S
N1076 C1079 1.346 . S
N1076 C1080 1.345 . S
C1077 C1078 1.387 . S
C1077 C1081 1.391 . S
C1078 C1077 1.387 . S
C1078 C1079 1.369 . S
C1078 H1087 0.929 . S
C1079 N1076 1.346 . S
C1079 C1078 1.369 . S
C1079 H1082 0.928 . S
C1080 N1076 1.345 . S
C1080 C1081 1.371 . S
C1080 H1083 0.931 . S
C1081 C1077 1.391 . S
C1081 C1080 1.371 . S
C1081 H1088 0.930 . S
H1082 C1079 0.928 . S
H1083 C1080 0.931 . S
H1084 C1060 0.930 . S
H1085 C1057 0.930 . S
H1086 C1066 0.930 . S
H1087 C1078 0.929 . S
H1088 C1081 0.930 . S
C1089 C1090 1.351 . S
C1089 N1092 1.368 . S
C1089 H1094 0.931 . S
C1090 C1089 1.351 . S
C1090 N1091 1.373 . S
C1090 H1118 0.930 . S
N1091 C1090 1.373 . S
N1091 C1093 1.340 . S
N1092 C1089 1.368 . S
N1092 C1093 1.321 . S
N1092 Co1095 2.135 . S
C1093 N1091 1.340 . S
C1093 N1092 1.321 . S
C1093 H1117 0.930 . S
H1094 C1089 0.931 . S
Co1095 N1092 2.135 . S
Co1095 N1098 2.121 . S
Co1095 O1103 2.055 . S
Co1095 O1106 2.039 . S
Co1095 N1109 2.140 . S
C1096 O1097 1.227 . S
C1096 O1106 1.265 . S
O1097 C1096 1.227 . S
N1098 Co1095 2.121 . S
N1098 C1100 1.375 . S
N1098 C1101 1.313 . S
C1099 C1100 1.338 . S
C1099 N1102 1.377 . S
C1099 H1119 0.930 . S
C1100 N1098 1.375 . S
C1100 C1099 1.338 . S
C1100 H1104 0.931 . S
C1101 N1098 1.313 . S
C1101 N1102 1.344 . S
C1101 H1105 0.930 . S
N1102 C1099 1.377 . S
N1102 C1101 1.344 . S
O1103 Co1095 2.055 . S
O1103 C1107 1.253 . S
H1104 C1100 0.931 . S
H1105 C1101 0.930 . S
O1106 Co1095 2.039 . S
O1106 C1096 1.265 . S
C1107 O1103 1.253 . S
C1107 O1108 1.227 . S
O1108 C1107 1.227 . S
N1109 Co1095 2.140 . S
N1109 C1112 1.346 . S
N1109 C1113 1.345 . S
C1110 C1111 1.387 . S
C1110 C1114 1.391 . S
C1111 C1110 1.387 . S
C1111 C1112 1.369 . S
C1111 H1120 0.929 . S
C1112 N1109 1.346 . S
C1112 C1111 1.369 . S
C1112 H1115 0.928 . S
C1113 N1109 1.345 . S
C1113 C1114 1.371 . S
C1113 H1116 0.931 . S
C1114 C1110 1.391 . S
C1114 C1113 1.371 . S
C1114 H1121 0.930 . S
H1115 C1112 0.928 . S
H1116 C1113 0.931 . S
H1117 C1093 0.930 . S
H1118 C1090 0.930 . S
H1119 C1099 0.930 . S
H1120 C1111 0.929 . S
H1121 C1114 0.930 . S
C1122 C1123 1.351 . S
C1122 N1125 1.368 . S
C1122 H1127 0.931 . S
C1123 C1122 1.351 . S
C1123 N1124 1.373 . S
C1123 H1151 0.930 . S
N1124 C1123 1.373 . S
N1124 C1126 1.340 . S
N1125 C1122 1.368 . S
N1125 C1126 1.321 . S
N1125 Co1128 2.135 . S
C1126 N1124 1.340 . S
C1126 N1125 1.321 . S
C1126 H1150 0.930 . S
H1127 C1122 0.931 . S
Co1128 N1125 2.135 . S
Co1128 N1131 2.121 . S
Co1128 O1136 2.055 . S
Co1128 O1139 2.039 . S
Co1128 N1142 2.140 . S
C1129 O1130 1.227 . S
C1129 O1139 1.265 . S
O1130 C1129 1.227 . S
N1131 Co1128 2.121 . S
N1131 C1133 1.375 . S
N1131 C1134 1.313 . S
C1132 C1133 1.338 . S
C1132 N1135 1.377 . S
C1132 H1152 0.930 . S
C1133 N1131 1.375 . S
C1133 C1132 1.338 . S
C1133 H1137 0.931 . S
C1134 N1131 1.313 . S
C1134 N1135 1.344 . S
C1134 H1138 0.930 . S
N1135 C1132 1.377 . S
N1135 C1134 1.344 . S
O1136 Co1128 2.055 . S
O1136 C1140 1.253 . S
H1137 C1133 0.931 . S
H1138 C1134 0.930 . S
O1139 Co1128 2.039 . S
O1139 C1129 1.265 . S
C1140 O1136 1.253 . S
C1140 O1141 1.227 . S
O1141 C1140 1.227 . S
N1142 Co1128 2.140 . S
N1142 C1145 1.346 . S
N1142 C1146 1.345 . S
C1143 C1144 1.387 . S
C1143 C1147 1.391 . S
C1144 C1143 1.387 . S
C1144 C1145 1.369 . S
C1144 H1153 0.929 . S
C1145 N1142 1.346 . S
C1145 C1144 1.369 . S
C1145 H1148 0.928 . S
C1146 N1142 1.345 . S
C1146 C1147 1.371 . S
C1146 H1149 0.931 . S
C1147 C1143 1.391 . S
C1147 C1146 1.371 . S
C1147 H1154 0.930 . S
H1148 C1145 0.928 . S
H1149 C1146 0.931 . S
H1150 C1126 0.930 . S
H1151 C1123 0.930 . S
H1152 C1132 0.930 . S
H1153 C1144 0.929 . S
H1154 C1147 0.930 . S
C1155 C1156 1.351 . S
C1155 N1158 1.368 . S
C1155 H1160 0.931 . S
C1156 C1155 1.351 . S
C1156 N1157 1.373 . S
C1156 H1184 0.930 . S
N1157 C1156 1.373 . S
N1157 C1159 1.340 . S
N1158 C1155 1.368 . S
N1158 C1159 1.321 . S
N1158 Co1161 2.135 . S
C1159 N1157 1.340 . S
C1159 N1158 1.321 . S
C1159 H1183 0.930 . S
H1160 C1155 0.931 . S
Co1161 N1158 2.135 . S
Co1161 N1164 2.121 . S
Co1161 O1169 2.055 . S
Co1161 O1172 2.039 . S
Co1161 N1175 2.140 . S
C1162 O1163 1.227 . S
C1162 O1172 1.265 . S
O1163 C1162 1.227 . S
N1164 Co1161 2.121 . S
N1164 C1166 1.375 . S
N1164 C1167 1.313 . S
C1165 C1166 1.338 . S
C1165 N1168 1.377 . S
C1165 H1185 0.930 . S
C1166 N1164 1.375 . S
C1166 C1165 1.338 . S
C1166 H1170 0.931 . S
C1167 N1164 1.313 . S
C1167 N1168 1.344 . S
C1167 H1171 0.930 . S
N1168 C1165 1.377 . S
N1168 C1167 1.344 . S
O1169 Co1161 2.055 . S
O1169 C1173 1.253 . S
H1170 C1166 0.931 . S
H1171 C1167 0.930 . S
O1172 Co1161 2.039 . S
O1172 C1162 1.265 . S
C1173 O1169 1.253 . S
C1173 O1174 1.227 . S
O1174 C1173 1.227 . S
N1175 Co1161 2.140 . S
N1175 C1178 1.346 . S
N1175 C1179 1.345 . S
C1176 C1177 1.387 . S
C1176 C1180 1.391 . S
C1177 C1176 1.387 . S
C1177 C1178 1.369 . S
C1177 H1186 0.929 . S
C1178 N1175 1.346 . S
C1178 C1177 1.369 . S
C1178 H1181 0.928 . S
C1179 N1175 1.345 . S
C1179 C1180 1.371 . S
C1179 H1182 0.931 . S
C1180 C1176 1.391 . S
C1180 C1179 1.371 . S
C1180 H1187 0.930 . S
H1181 C1178 0.928 . S
H1182 C1179 0.931 . S
H1183 C1159 0.930 . S
H1184 C1156 0.930 . S
H1185 C1165 0.930 . S
H1186 C1177 0.929 . S
H1187 C1180 0.930 . S
C1188 C1189 1.391 . S
C1188 C1190 1.394 . S
C1188 H1204 0.931 . S
C1189 C1188 1.391 . S
C1189 C1193 1.376 . S
C1190 C1188 1.394 . S
C1190 C1191 1.369 . S
C1190 C1194 1.531 . S
C1191 C1190 1.369 . S
C1191 C1192 1.410 . S
C1191 C1199 1.503 . S
C1192 C1191 1.410 . S
C1192 C1193 1.392 . S
C1192 C1195 1.511 . S
C1193 C1189 1.376 . S
C1193 C1192 1.392 . S
C1193 H1205 0.929 . S
C1194 C1190 1.531 . S
C1194 H1206 0.960 . S
C1194 H1207 0.962 . S
C1194 H1208 0.960 . S
C1195 C1192 1.511 . S
C1195 H1209 0.961 . S
C1195 H1210 0.961 . S
C1195 H1211 0.961 . S
C1196 C1197 1.370 . S
C1196 C1198 1.363 . S
C1196 H1212 0.931 . S
C1197 C1196 1.370 . S
C1197 C1201 1.408 . S
C1198 C1196 1.363 . S
C1198 C1199 1.370 . S
C1198 C1202 1.524 . S
C1199 C1191 1.503 . S
C1199 C1198 1.370 . S
C1199 C1200 1.403 . S
C1200 C1199 1.403 . S
C1200 C1201 1.404 . S
C1200 C1203 1.539 . S
C1201 C1197 1.408 . S
C1201 C1200 1.404 . S
C1201 H1213 0.930 . S
C1202 C1198 1.524 . S
C1202 H1214 0.956 . S
C1202 H1215 0.961 . S
C1202 H1216 0.961 . S
C1203 C1200 1.539 . S
C1203 H1217 0.958 . S
C1203 H1218 0.961 . S
C1203 H1219 0.960 . S
H1204 C1188 0.931 . S
H1205 C1193 0.929 . S
H1206 C1194 0.960 . S
H1207 C1194 0.962 . S
H1208 C1194 0.960 . S
H1209 C1195 0.961 . S
H1210 C1195 0.961 . S
H1211 C1195 0.961 . S
H1212 C1196 0.931 . S
H1213 C1201 0.930 . S
H1214 C1202 0.956 . S
H1215 C1202 0.961 . S
H1216 C1202 0.961 . S
H1217 C1203 0.958 . S
H1218 C1203 0.961 . S
H1219 C1203 0.960 . S
C1220 C1221 1.391 . S
C1220 C1222 1.394 . S
C1220 H1236 0.931 . S
C1221 C1220 1.391 . S
C1221 C1225 1.376 . S
C1222 C1220 1.394 . S
C1222 C1223 1.369 . S
C1222 C1226 1.531 . S
C1223 C1222 1.369 . S
C1223 C1224 1.410 . S
C1223 C1231 1.503 . S
C1224 C1223 1.410 . S
C1224 C1225 1.392 . S
C1224 C1227 1.511 . S
C1225 C1221 1.376 . S
C1225 C1224 1.392 . S
C1225 H1237 0.929 . S
C1226 C1222 1.531 . S
C1226 H1238 0.960 . S
C1226 H1239 0.962 . S
C1226 H1240 0.960 . S
C1227 C1224 1.511 . S
C1227 H1241 0.961 . S
C1227 H1242 0.961 . S
C1227 H1243 0.961 . S
C1228 C1229 1.370 . S
C1228 C1230 1.363 . S
C1228 H1244 0.931 . S
C1229 C1228 1.370 . S
C1229 C1233 1.408 . S
C1230 C1228 1.363 . S
C1230 C1231 1.370 . S
C1230 C1234 1.524 . S
C1231 C1223 1.503 . S
C1231 C1230 1.370 . S
C1231 C1232 1.403 . S
C1232 C1231 1.403 . S
C1232 C1233 1.404 . S
C1232 C1235 1.539 . S
C1233 C1229 1.408 . S
C1233 C1232 1.404 . S
C1233 H1245 0.930 . S
C1234 C1230 1.524 . S
C1234 H1246 0.956 . S
C1234 H1247 0.961 . S
C1234 H1248 0.961 . S
C1235 C1232 1.539 . S
C1235 H1249 0.958 . S
C1235 H1250 0.961 . S
C1235 H1251 0.960 . S
H1236 C1220 0.931 . S
H1237 C1225 0.929 . S
H1238 C1226 0.960 . S
H1239 C1226 0.962 . S
H1240 C1226 0.960 . S
H1241 C1227 0.961 . S
H1242 C1227 0.961 . S
H1243 C1227 0.961 . S
H1244 C1228 0.931 . S
H1245 C1233 0.930 . S
H1246 C1234 0.956 . S
H1247 C1234 0.961 . S
H1248 C1234 0.961 . S
H1249 C1235 0.958 . S
H1250 C1235 0.961 . S
H1251 C1235 0.960 . S
C1252 C1253 1.391 . S
C1252 C1254 1.394 . S
C1252 H1268 0.931 . S
C1253 C1252 1.391 . S
C1253 C1257 1.376 . S
C1254 C1252 1.394 . S
C1254 C1255 1.369 . S
C1254 C1258 1.531 . S
C1255 C1254 1.369 . S
C1255 C1256 1.410 . S
C1255 C1263 1.503 . S
C1256 C1255 1.410 . S
C1256 C1257 1.392 . S
C1256 C1259 1.511 . S
C1257 C1253 1.376 . S
C1257 C1256 1.392 . S
C1257 H1269 0.929 . S
C1258 C1254 1.531 . S
C1258 H1270 0.960 . S
C1258 H1271 0.962 . S
C1258 H1272 0.960 . S
C1259 C1256 1.511 . S
C1259 H1273 0.961 . S
C1259 H1274 0.961 . S
C1259 H1275 0.961 . S
C1260 C1261 1.370 . S
C1260 C1262 1.363 . S
C1260 H1276 0.931 . S
C1261 C1260 1.370 . S
C1261 C1265 1.408 . S
C1262 C1260 1.363 . S
C1262 C1263 1.370 . S
C1262 C1266 1.524 . S
C1263 C1255 1.503 . S
C1263 C1262 1.370 . S
C1263 C1264 1.403 . S
C1264 C1263 1.403 . S
C1264 C1265 1.404 . S
C1264 C1267 1.539 . S
C1265 C1261 1.408 . S
C1265 C1264 1.404 . S
C1265 H1277 0.930 . S
C1266 C1262 1.524 . S
C1266 H1278 0.956 . S
C1266 H1279 0.961 . S
C1266 H1280 0.961 . S
C1267 C1264 1.539 . S
C1267 H1281 0.958 . S
C1267 H1282 0.961 . S
C1267 H1283 0.960 . S
H1268 C1252 0.931 . S
H1269 C1257 0.929 . S
H1270 C1258 0.960 . S
H1271 C1258 0.962 . S
H1272 C1258 0.960 . S
H1273 C1259 0.961 . S
H1274 C1259 0.961 . S
H1275 C1259 0.961 . S
H1276 C1260 0.931 . S
H1277 C1265 0.930 . S
H1278 C1266 0.956 . S
H1279 C1266 0.961 . S
H1280 C1266 0.961 . S
H1281 C1267 0.958 . S
H1282 C1267 0.961 . S
H1283 C1267 0.960 . S
C1284 C1285 1.391 . S
C1284 C1286 1.394 . S
C1284 H1300 0.931 . S
C1285 C1284 1.391 . S
C1285 C1289 1.376 . S
C1286 C1284 1.394 . S
C1286 C1287 1.369 . S
C1286 C1290 1.531 . S
C1287 C1286 1.369 . S
C1287 C1288 1.410 . S
C1287 C1295 1.503 . S
C1288 C1287 1.410 . S
C1288 C1289 1.392 . S
C1288 C1291 1.511 . S
C1289 C1285 1.376 . S
C1289 C1288 1.392 . S
C1289 H1301 0.929 . S
C1290 C1286 1.531 . S
C1290 H1302 0.960 . S
C1290 H1303 0.962 . S
C1290 H1304 0.960 . S
C1291 C1288 1.511 . S
C1291 H1305 0.961 . S
C1291 H1306 0.961 . S
C1291 H1307 0.961 . S
C1292 C1293 1.370 . S
C1292 C1294 1.363 . S
C1292 H1308 0.931 . S
C1293 C1292 1.370 . S
C1293 C1297 1.408 . S
C1294 C1292 1.363 . S
C1294 C1295 1.370 . S
C1294 C1298 1.524 . S
C1295 C1287 1.503 . S
C1295 C1294 1.370 . S
C1295 C1296 1.403 . S
C1296 C1295 1.403 . S
C1296 C1297 1.404 . S
C1296 C1299 1.539 . S
C1297 C1293 1.408 . S
C1297 C1296 1.404 . S
C1297 H1309 0.930 . S
C1298 C1294 1.524 . S
C1298 H1310 0.956 . S
C1298 H1311 0.961 . S
C1298 H1312 0.961 . S
C1299 C1296 1.539 . S
C1299 H1313 0.958 . S
C1299 H1314 0.961 . S
C1299 H1315 0.960 . S
H1300 C1284 0.931 . S
H1301 C1289 0.929 . S
H1302 C1290 0.960 . S
H1303 C1290 0.962 . S
H1304 C1290 0.960 . S
H1305 C1291 0.961 . S
H1306 C1291 0.961 . S
H1307 C1291 0.961 . S
H1308 C1292 0.931 . S
H1309 C1297 0.930 . S
H1310 C1298 0.956 . S
H1311 C1298 0.961 . S
H1312 C1298 0.961 . S
H1313 C1299 0.958 . S
H1314 C1299 0.961 . S
H1315 C1299 0.960 . S
C1316 C1317 1.391 . S
C1316 C1318 1.394 . S
C1316 H1332 0.931 . S
C1317 C1316 1.391 . S
C1317 C1321 1.376 . S
C1318 C1316 1.394 . S
C1318 C1319 1.369 . S
C1318 C1322 1.531 . S
C1319 C1318 1.369 . S
C1319 C1320 1.410 . S
C1319 C1327 1.503 . S
C1320 C1319 1.410 . S
C1320 C1321 1.392 . S
C1320 C1323 1.511 . S
C1321 C1317 1.376 . S
C1321 C1320 1.392 . S
C1321 H1333 0.929 . S
C1322 C1318 1.531 . S
C1322 H1334 0.960 . S
C1322 H1335 0.962 . S
C1322 H1336 0.960 . S
C1323 C1320 1.511 . S
C1323 H1337 0.961 . S
C1323 H1338 0.961 . S
C1323 H1339 0.961 . S
C1324 C1325 1.370 . S
C1324 C1326 1.363 . S
C1324 H1340 0.931 . S
C1325 C1324 1.370 . S
C1325 C1329 1.408 . S
C1326 C1324 1.363 . S
C1326 C1327 1.370 . S
C1326 C1330 1.524 . S
C1327 C1319 1.503 . S
C1327 C1326 1.370 . S
C1327 C1328 1.403 . S
C1328 C1327 1.403 . S
C1328 C1329 1.404 . S
C1328 C1331 1.539 . S
C1329 C1325 1.408 . S
C1329 C1328 1.404 . S
C1329 H1341 0.930 . S
C1330 C1326 1.524 . S
C1330 H1342 0.956 . S
C1330 H1343 0.961 . S
C1330 H1344 0.961 . S
C1331 C1328 1.539 . S
C1331 H1345 0.958 . S
C1331 H1346 0.961 . S
C1331 H1347 0.960 . S
H1332 C1316 0.931 . S
H1333 C1321 0.929 . S
H1334 C1322 0.960 . S
H1335 C1322 0.962 . S
H1336 C1322 0.960 . S
H1337 C1323 0.961 . S
H1338 C1323 0.961 . S
H1339 C1323 0.961 . S
H1340 C1324 0.931 . S
H1341 C1329 0.930 . S
H1342 C1330 0.956 . S
H1343 C1330 0.961 . S
H1344 C1330 0.961 . S
H1345 C1331 0.958 . S
H1346 C1331 0.961 . S
H1347 C1331 0.960 . S
C1348 C1349 1.391 . S
C1348 C1350 1.394 . S
C1348 H1364 0.931 . S
C1349 C1348 1.391 . S
C1349 C1353 1.376 . S
C1350 C1348 1.394 . S
C1350 C1351 1.369 . S
C1350 C1354 1.531 . S
C1351 C1350 1.369 . S
C1351 C1352 1.410 . S
C1351 C1359 1.503 . S
C1352 C1351 1.410 . S
C1352 C1353 1.392 . S
C1352 C1355 1.511 . S
C1353 C1349 1.376 . S
C1353 C1352 1.392 . S
C1353 H1365 0.929 . S
C1354 C1350 1.531 . S
C1354 H1366 0.960 . S
C1354 H1367 0.962 . S
C1354 H1368 0.960 . S
C1355 C1352 1.511 . S
C1355 H1369 0.961 . S
C1355 H1370 0.961 . S
C1355 H1371 0.961 . S
C1356 C1357 1.370 . S
C1356 C1358 1.363 . S
C1356 H1372 0.931 . S
C1357 C1356 1.370 . S
C1357 C1361 1.408 . S
C1358 C1356 1.363 . S
C1358 C1359 1.370 . S
C1358 C1362 1.524 . S
C1359 C1351 1.503 . S
C1359 C1358 1.370 . S
C1359 C1360 1.403 . S
C1360 C1359 1.403 . S
C1360 C1361 1.404 . S
C1360 C1363 1.539 . S
C1361 C1357 1.408 . S
C1361 C1360 1.404 . S
C1361 H1373 0.930 . S
C1362 C1358 1.524 . S
C1362 H1374 0.956 . S
C1362 H1375 0.961 . S
C1362 H1376 0.961 . S
C1363 C1360 1.539 . S
C1363 H1377 0.958 . S
C1363 H1378 0.961 . S
C1363 H1379 0.960 . S
H1364 C1348 0.931 . S
H1365 C1353 0.929 . S
H1366 C1354 0.960 . S
H1367 C1354 0.962 . S
H1368 C1354 0.960 . S
H1369 C1355 0.961 . S
H1370 C1355 0.961 . S
H1371 C1355 0.961 . S
H1372 C1356 0.931 . S
H1373 C1361 0.930 . S
H1374 C1362 0.956 . S
H1375 C1362 0.961 . S
H1376 C1362 0.961 . S
H1377 C1363 0.958 . S
H1378 C1363 0.961 . S
H1379 C1363 0.960 . S
C1380 C1381 1.391 . S
C1380 C1382 1.394 . S
C1380 H1396 0.931 . S
C1381 C1380 1.391 . S
C1381 C1385 1.376 . S
C1382 C1380 1.394 . S
C1382 C1383 1.369 . S
C1382 C1386 1.531 . S
C1383 C1382 1.369 . S
C1383 C1384 1.410 . S
C1383 C1391 1.503 . S
C1384 C1383 1.410 . S
C1384 C1385 1.392 . S
C1384 C1387 1.511 . S
C1385 C1381 1.376 . S
C1385 C1384 1.392 . S
C1385 H1397 0.929 . S
C1386 C1382 1.531 . S
C1386 H1398 0.960 . S
C1386 H1399 0.962 . S
C1386 H1400 0.960 . S
C1387 C1384 1.511 . S
C1387 H1401 0.961 . S
C1387 H1402 0.961 . S
C1387 H1403 0.961 . S
C1388 C1389 1.370 . S
C1388 C1390 1.363 . S
C1388 H1404 0.931 . S
C1389 C1388 1.370 . S
C1389 C1393 1.408 . S
C1390 C1388 1.363 . S
C1390 C1391 1.370 . S
C1390 C1394 1.524 . S
C1391 C1383 1.503 . S
C1391 C1390 1.370 . S
C1391 C1392 1.403 . S
C1392 C1391 1.403 . S
C1392 C1393 1.404 . S
C1392 C1395 1.539 . S
C1393 C1389 1.408 . S
C1393 C1392 1.404 . S
C1393 H1405 0.930 . S
C1394 C1390 1.524 . S
C1394 H1406 0.956 . S
C1394 H1407 0.961 . S
C1394 H1408 0.961 . S
C1395 C1392 1.539 . S
C1395 H1409 0.958 . S
C1395 H1410 0.961 . S
C1395 H1411 0.960 . S
H1396 C1380 0.931 . S
H1397 C1385 0.929 . S
H1398 C1386 0.960 . S
H1399 C1386 0.962 . S
H1400 C1386 0.960 . S
H1401 C1387 0.961 . S
H1402 C1387 0.961 . S
H1403 C1387 0.961 . S
H1404 C1388 0.931 . S
H1405 C1393 0.930 . S
H1406 C1394 0.956 . S
H1407 C1394 0.961 . S
H1408 C1394 0.961 . S
H1409 C1395 0.958 . S
H1410 C1395 0.961 . S
H1411 C1395 0.960 . S
C1412 C1413 1.391 . S
C1412 C1414 1.394 . S
C1412 H1428 0.931 . S
C1413 C1412 1.391 . S
C1413 C1417 1.376 . S
C1414 C1412 1.394 . S
C1414 C1415 1.369 . S
C1414 C1418 1.531 . S
C1415 C1414 1.369 . S
C1415 C1416 1.410 . S
C1415 C1423 1.503 . S
C1416 C1415 1.410 . S
C1416 C1417 1.392 . S
C1416 C1419 1.511 . S
C1417 C1413 1.376 . S
C1417 C1416 1.392 . S
C1417 H1429 0.929 . S
C1418 C1414 1.531 . S
C1418 H1430 0.960 . S
C1418 H1431 0.962 . S
C1418 H1432 0.960 . S
C1419 C1416 1.511 . S
C1419 H1433 0.961 . S
C1419 H1434 0.961 . S
C1419 H1435 0.961 . S
C1420 C1421 1.370 . S
C1420 C1422 1.363 . S
C1420 H1436 0.931 . S
C1421 C1420 1.370 . S
C1421 C1425 1.408 . S
C1422 C1420 1.363 . S
C1422 C1423 1.370 . S
C1422 C1426 1.524 . S
C1423 C1415 1.503 . S
C1423 C1422 1.370 . S
C1423 C1424 1.403 . S
C1424 C1423 1.403 . S
C1424 C1425 1.404 . S
C1424 C1427 1.539 . S
C1425 C1421 1.408 . S
C1425 C1424 1.404 . S
C1425 H1437 0.930 . S
C1426 C1422 1.524 . S
C1426 H1438 0.956 . S
C1426 H1439 0.961 . S
C1426 H1440 0.961 . S
C1427 C1424 1.539 . S
C1427 H1441 0.958 . S
C1427 H1442 0.961 . S
C1427 H1443 0.960 . S
H1428 C1412 0.931 . S
H1429 C1417 0.929 . S
H1430 C1418 0.960 . S
H1431 C1418 0.962 . S
H1432 C1418 0.960 . S
H1433 C1419 0.961 . S
H1434 C1419 0.961 . S
H1435 C1419 0.961 . S
H1436 C1420 0.931 . S
H1437 C1425 0.930 . S
H1438 C1426 0.956 . S
H1439 C1426 0.961 . S
H1440 C1426 0.961 . S
H1441 C1427 0.958 . S
H1442 C1427 0.961 . S
H1443 C1427 0.960 . S
C1444 C1445 1.391 . S
C1444 C1446 1.394 . S
C1444 H1460 0.931 . S
C1445 C1444 1.391 . S
C1445 C1449 1.376 . S
C1446 C1444 1.394 . S
C1446 C1447 1.369 . S
C1446 C1450 1.531 . S
C1447 C1446 1.369 . S
C1447 C1448 1.410 . S
C1447 C1455 1.503 . S
C1448 C1447 1.410 . S
C1448 C1449 1.392 . S
C1448 C1451 1.511 . S
C1449 C1445 1.376 . S
C1449 C1448 1.392 . S
C1449 H1461 0.929 . S
C1450 C1446 1.531 . S
C1450 H1462 0.960 . S
C1450 H1463 0.962 . S
C1450 H1464 0.960 . S
C1451 C1448 1.511 . S
C1451 H1465 0.961 . S
C1451 H1466 0.961 . S
C1451 H1467 0.961 . S
C1452 C1453 1.370 . S
C1452 C1454 1.363 . S
C1452 H1468 0.931 . S
C1453 C1452 1.370 . S
C1453 C1457 1.408 . S
C1454 C1452 1.363 . S
C1454 C1455 1.370 . S
C1454 C1458 1.524 . S
C1455 C1447 1.503 . S
C1455 C1454 1.370 . S
C1455 C1456 1.403 . S
C1456 C1455 1.403 . S
C1456 C1457 1.404 . S
C1456 C1459 1.539 . S
C1457 C1453 1.408 . S
C1457 C1456 1.404 . S
C1457 H1469 0.930 . S
C1458 C1454 1.524 . S
C1458 H1470 0.956 . S
C1458 H1471 0.961 . S
C1458 H1472 0.961 . S
C1459 C1456 1.539 . S
C1459 H1473 0.958 . S
C1459 H1474 0.961 . S
C1459 H1475 0.960 . S
H1460 C1444 0.931 . S
H1461 C1449 0.929 . S
H1462 C1450 0.960 . S
H1463 C1450 0.962 . S
H1464 C1450 0.960 . S
H1465 C1451 0.961 . S
H1466 C1451 0.961 . S
H1467 C1451 0.961 . S
H1468 C1452 0.931 . S
H1469 C1457 0.930 . S
H1470 C1458 0.956 . S
H1471 C1458 0.961 . S
H1472 C1458 0.961 . S
H1473 C1459 0.958 . S
H1474 C1459 0.961 . S
H1475 C1459 0.960 . S
C1476 C1477 1.391 . S
C1476 C1478 1.394 . S
C1476 H1492 0.931 . S
C1477 C1476 1.391 . S
C1477 C1481 1.376 . S
C1478 C1476 1.394 . S
C1478 C1479 1.369 . S
C1478 C1482 1.531 . S
C1479 C1478 1.369 . S
C1479 C1480 1.410 . S
C1479 C1487 1.503 . S
C1480 C1479 1.410 . S
C1480 C1481 1.392 . S
C1480 C1483 1.511 . S
C1481 C1477 1.376 . S
C1481 C1480 1.392 . S
C1481 H1493 0.929 . S
C1482 C1478 1.531 . S
C1482 H1494 0.960 . S
C1482 H1495 0.962 . S
C1482 H1496 0.960 . S
C1483 C1480 1.511 . S
C1483 H1497 0.961 . S
C1483 H1498 0.961 . S
C1483 H1499 0.961 . S
C1484 C1485 1.370 . S
C1484 C1486 1.363 . S
C1484 H1500 0.931 . S
C1485 C1484 1.370 . S
C1485 C1489 1.408 . S
C1486 C1484 1.363 . S
C1486 C1487 1.370 . S
C1486 C1490 1.524 . S
C1487 C1479 1.503 . S
C1487 C1486 1.370 . S
C1487 C1488 1.403 . S
C1488 C1487 1.403 . S
C1488 C1489 1.404 . S
C1488 C1491 1.539 . S
C1489 C1485 1.408 . S
C1489 C1488 1.404 . S
C1489 H1501 0.930 . S
C1490 C1486 1.524 . S
C1490 H1502 0.956 . S
C1490 H1503 0.961 . S
C1490 H1504 0.961 . S
C1491 C1488 1.539 . S
C1491 H1505 0.958 . S
C1491 H1506 0.961 . S
C1491 H1507 0.960 . S
H1492 C1476 0.931 . S
H1493 C1481 0.929 . S
H1494 C1482 0.960 . S
H1495 C1482 0.962 . S
H1496 C1482 0.960 . S
H1497 C1483 0.961 . S
H1498 C1483 0.961 . S
H1499 C1483 0.961 . S
H1500 C1484 0.931 . S
H1501 C1489 0.930 . S
H1502 C1490 0.956 . S
H1503 C1490 0.961 . S
H1504 C1490 0.961 . S
H1505 C1491 0.958 . S
H1506 C1491 0.961 . S
H1507 C1491 0.960 . S
C1508 C1509 1.391 . S
C1508 C1510 1.394 . S
C1508 H1524 0.931 . S
C1509 C1508 1.391 . S
C1509 C1513 1.376 . S
C1510 C1508 1.394 . S
C1510 C1511 1.369 . S
C1510 C1514 1.531 . S
C1511 C1510 1.369 . S
C1511 C1512 1.410 . S
C1511 C1519 1.503 . S
C1512 C1511 1.410 . S
C1512 C1513 1.392 . S
C1512 C1515 1.511 . S
C1513 C1509 1.376 . S
C1513 C1512 1.392 . S
C1513 H1525 0.929 . S
C1514 C1510 1.531 . S
C1514 H1526 0.960 . S
C1514 H1527 0.962 . S
C1514 H1528 0.960 . S
C1515 C1512 1.511 . S
C1515 H1529 0.961 . S
C1515 H1530 0.961 . S
C1515 H1531 0.961 . S
C1516 C1517 1.370 . S
C1516 C1518 1.363 . S
C1516 H1532 0.931 . S
C1517 C1516 1.370 . S
C1517 C1521 1.408 . S
C1518 C1516 1.363 . S
C1518 C1519 1.370 . S
C1518 C1522 1.524 . S
C1519 C1511 1.503 . S
C1519 C1518 1.370 . S
C1519 C1520 1.403 . S
C1520 C1519 1.403 . S
C1520 C1521 1.404 . S
C1520 C1523 1.539 . S
C1521 C1517 1.408 . S
C1521 C1520 1.404 . S
C1521 H1533 0.930 . S
C1522 C1518 1.524 . S
C1522 H1534 0.956 . S
C1522 H1535 0.961 . S
C1522 H1536 0.961 . S
C1523 C1520 1.539 . S
C1523 H1537 0.958 . S
C1523 H1538 0.961 . S
C1523 H1539 0.960 . S
H1524 C1508 0.931 . S
H1525 C1513 0.929 . S
H1526 C1514 0.960 . S
H1527 C1514 0.962 . S
H1528 C1514 0.960 . S
H1529 C1515 0.961 . S
H1530 C1515 0.961 . S
H1531 C1515 0.961 . S
H1532 C1516 0.931 . S
H1533 C1521 0.930 . S
H1534 C1522 0.956 . S
H1535 C1522 0.961 . S
H1536 C1522 0.961 . S
H1537 C1523 0.958 . S
H1538 C1523 0.961 . S
H1539 C1523 0.960 . S
C1540 C1541 1.391 . S
C1540 C1542 1.394 . S
C1540 H1556 0.931 . S
C1541 C1540 1.391 . S
C1541 C1545 1.376 . S
C1542 C1540 1.394 . S
C1542 C1543 1.369 . S
C1542 C1546 1.531 . S
C1543 C1542 1.369 . S
C1543 C1544 1.410 . S
C1543 C1551 1.503 . S
C1544 C1543 1.410 . S
C1544 C1545 1.392 . S
C1544 C1547 1.511 . S
C1545 C1541 1.376 . S
C1545 C1544 1.392 . S
C1545 H1557 0.929 . S
C1546 C1542 1.531 . S
C1546 H1558 0.960 . S
C1546 H1559 0.962 . S
C1546 H1560 0.960 . S
C1547 C1544 1.511 . S
C1547 H1561 0.961 . S
C1547 H1562 0.961 . S
C1547 H1563 0.961 . S
C1548 C1549 1.370 . S
C1548 C1550 1.363 . S
C1548 H1564 0.931 . S
C1549 C1548 1.370 . S
C1549 C1553 1.408 . S
C1550 C1548 1.363 . S
C1550 C1551 1.370 . S
C1550 C1554 1.524 . S
C1551 C1543 1.503 . S
C1551 C1550 1.370 . S
C1551 C1552 1.403 . S
C1552 C1551 1.403 . S
C1552 C1553 1.404 . S
C1552 C1555 1.539 . S
C1553 C1549 1.408 . S
C1553 C1552 1.404 . S
C1553 H1565 0.930 . S
C1554 C1550 1.524 . S
C1554 H1566 0.956 . S
C1554 H1567 0.961 . S
C1554 H1568 0.961 . S
C1555 C1552 1.539 . S
C1555 H1569 0.958 . S
C1555 H1570 0.961 . S
C1555 H1571 0.960 . S
H1556 C1540 0.931 . S
H1557 C1545 0.929 . S
H1558 C1546 0.960 . S
H1559 C1546 0.962 . S
H1560 C1546 0.960 . S
H1561 C1547 0.961 . S
H1562 C1547 0.961 . S
H1563 C1547 0.961 . S
H1564 C1548 0.931 . S
H1565 C1553 0.930 . S
H1566 C1554 0.956 . S
H1567 C1554 0.961 . S
H1568 C1554 0.961 . S
H1569 C1555 0.958 . S
H1570 C1555 0.961 . S
H1571 C1555 0.960 . S
C1572 C1573 1.391 . S
C1572 C1574 1.394 1_655 S
C1572 H1588 0.931 1_655 S
C1573 C1572 1.391 . S
C1573 C1577 1.376 . S
C1574 C1572 1.394 1_455 S
C1574 C1575 1.369 1_455 S
C1574 C1578 1.531 . S
C1575 C1574 1.369 1_655 S
C1575 C1576 1.410 . S
C1575 C1583 1.503 1_655 S
C1576 C1575 1.410 . S
C1576 C1577 1.392 . S
C1576 C1579 1.511 . S
C1577 C1573 1.376 . S
C1577 C1576 1.392 . S
C1577 H1589 0.929 . S
C1578 C1574 1.531 . S
C1578 H1590 0.960 . S
C1578 H1591 0.962 . S
C1578 H1592 0.960 . S
C1579 C1576 1.511 . S
C1579 H1593 0.961 . S
C1579 H1594 0.961 . S
C1579 H1595 0.961 . S
C1580 C1581 1.370 . S
C1580 C1582 1.363 . S
C1580 H1596 0.931 . S
C1581 C1580 1.370 . S
C1581 C1585 1.408 . S
C1582 C1580 1.363 . S
C1582 C1583 1.370 . S
C1582 C1586 1.524 . S
C1583 C1575 1.503 1_455 S
C1583 C1582 1.370 . S
C1583 C1584 1.403 . S
C1584 C1583 1.403 . S
C1584 C1585 1.404 . S
C1584 C1587 1.539 1_455 S
C1585 C1581 1.408 . S
C1585 C1584 1.404 . S
C1585 H1597 0.930 . S
C1586 C1582 1.524 . S
C1586 H1598 0.956 . S
C1586 H1599 0.961 1_455 S
C1586 H1600 0.961 . S
C1587 C1584 1.539 1_655 S
C1587 H1601 0.958 1_655 S
C1587 H1602 0.961 . S
C1587 H1603 0.960 . S
H1588 C1572 0.931 1_455 S
H1589 C1577 0.929 . S
H1590 C1578 0.960 . S
H1591 C1578 0.962 . S
H1592 C1578 0.960 . S
H1593 C1579 0.961 . S
H1594 C1579 0.961 . S
H1595 C1579 0.961 . S
H1596 C1580 0.931 . S
H1597 C1585 0.930 . S
H1598 C1586 0.956 . S
H1599 C1586 0.961 1_655 S
H1600 C1586 0.961 . S
H1601 C1587 0.958 1_455 S
H1602 C1587 0.961 . S
H1603 C1587 0.960 . S
C1604 C1605 1.391 . S
C1604 C1606 1.394 . S
C1604 H1620 0.931 . S
C1605 C1604 1.391 . S
C1605 C1609 1.376 . S
C1606 C1604 1.394 . S
C1606 C1607 1.369 . S
C1606 C1610 1.531 . S
C1607 C1606 1.369 . S
C1607 C1608 1.410 . S
C1607 C1615 1.503 . S
C1608 C1607 1.410 . S
C1608 C1609 1.392 . S
C1608 C1611 1.511 . S
C1609 C1605 1.376 . S
C1609 C1608 1.392 . S
C1609 H1621 0.929 . S
C1610 C1606 1.531 . S
C1610 H1622 0.960 . S
C1610 H1623 0.962 . S
C1610 H1624 0.960 . S
C1611 C1608 1.511 . S
C1611 H1625 0.961 . S
C1611 H1626 0.961 . S
C1611 H1627 0.961 . S
C1612 C1613 1.370 . S
C1612 C1614 1.363 . S
C1612 H1628 0.931 . S
C1613 C1612 1.370 . S
C1613 C1617 1.408 . S
C1614 C1612 1.363 . S
C1614 C1615 1.370 . S
C1614 C1618 1.524 . S
C1615 C1607 1.503 . S
C1615 C1614 1.370 . S
C1615 C1616 1.403 . S
C1616 C1615 1.403 . S
C1616 C1617 1.404 . S
C1616 C1619 1.539 . S
C1617 C1613 1.408 . S
C1617 C1616 1.404 . S
C1617 H1629 0.930 . S
C1618 C1614 1.524 . S
C1618 H1630 0.956 . S
C1618 H1631 0.961 . S
C1618 H1632 0.961 . S
C1619 C1616 1.539 . S
C1619 H1633 0.958 . S
C1619 H1634 0.961 . S
C1619 H1635 0.960 . S
H1620 C1604 0.931 . S
H1621 C1609 0.929 . S
H1622 C1610 0.960 . S
H1623 C1610 0.962 . S
H1624 C1610 0.960 . S
H1625 C1611 0.961 . S
H1626 C1611 0.961 . S
H1627 C1611 0.961 . S
H1628 C1612 0.931 . S
H1629 C1617 0.930 . S
H1630 C1618 0.956 . S
H1631 C1618 0.961 . S
H1632 C1618 0.961 . S
H1633 C1619 0.958 . S
H1634 C1619 0.961 . S
H1635 C1619 0.960 . S
C1636 C1637 1.391 . S
C1636 C1638 1.394 1_565 S
C1636 H1652 0.931 . S
C1637 C1636 1.391 . S
C1637 C1641 1.376 . S
C1638 C1636 1.394 1_545 S
C1638 C1639 1.377 1_545 S
C1638 C1642 1.531 . S
C1639 C1638 1.377 1_565 S
C1639 C1640 1.411 . S
C1639 C1647 1.497 1_565 S
C1640 C1639 1.411 . S
C1640 C1641 1.392 . S
C1640 C1643 1.511 . S
C1641 C1637 1.376 . S
C1641 C1640 1.392 . S
C1641 H1653 0.929 . S
C1642 C1638 1.531 . S
C1642 H1654 0.960 . S
C1642 H1655 0.962 . S
C1642 H1656 0.960 . S
C1643 C1640 1.511 . S
C1643 H1657 0.961 . S
C1643 H1658 0.961 . S
C1643 H1659 0.961 . S
C1644 C1645 1.370 . S
C1644 C1646 1.363 1_545 S
C1644 H1660 0.931 1_545 S
C1645 C1644 1.370 . S
C1645 C1649 1.408 . S
C1646 C1644 1.363 1_565 S
C1646 C1647 1.370 1_565 S
C1646 C1650 1.524 . S
C1647 C1639 1.497 1_545 S
C1647 C1646 1.370 1_545 S
C1647 C1648 1.403 . S
C1648 C1647 1.403 . S
C1648 C1649 1.404 . S
C1648 C1651 1.539 . S
C1649 C1645 1.408 . S
C1649 C1648 1.404 . S
C1649 H1661 0.930 . S
C1650 C1646 1.524 . S
C1650 H1662 0.956 . S
C1650 H1663 0.961 . S
C1650 H1664 0.961 . S
C1651 C1648 1.539 . S
C1651 H1665 0.958 . S
C1651 H1666 0.961 . S
C1651 H1667 0.960 . S
H1652 C1636 0.931 . S
H1653 C1641 0.929 . S
H1654 C1642 0.960 . S
H1655 C1642 0.962 . S
H1656 C1642 0.960 . S
H1657 C1643 0.961 . S
H1658 C1643 0.961 . S
H1659 C1643 0.961 . S
H1660 C1644 0.931 1_565 S
H1661 C1649 0.930 . S
H1662 C1650 0.956 . S
H1663 C1650 0.961 . S
H1664 C1650 0.961 . S
H1665 C1651 0.958 . S
H1666 C1651 0.961 . S
H1667 C1651 0.960 . S
C1668 C1669 1.391 . S
C1668 C1670 1.394 . S
C1668 H1684 0.931 . S
C1669 C1668 1.391 . S
C1669 C1673 1.376 . S
C1670 C1668 1.394 . S
C1670 C1671 1.369 . S
C1670 C1674 1.531 . S
C1671 C1670 1.369 . S
C1671 C1672 1.410 1_565 S
C1671 C1679 1.503 1_565 S
C1672 C1671 1.410 1_545 S
C1672 C1673 1.392 1_545 S
C1672 C1675 1.511 . S
C1673 C1669 1.376 . S
C1673 C1672 1.392 1_565 S
C1673 H1685 0.929 1_565 S
C1674 C1670 1.531 . S
C1674 H1686 0.960 . S
C1674 H1687 0.962 . S
C1674 H1688 0.960 . S
C1675 C1672 1.511 . S
C1675 H1689 0.961 . S
C1675 H1690 0.961 . S
C1675 H1691 0.961 . S
C1676 C1677 1.370 . S
C1676 C1678 1.363 . S
C1676 H1692 0.931 . S
C1677 C1676 1.370 . S
C1677 C1681 1.408 . S
C1678 C1676 1.363 . S
C1678 C1679 1.370 . S
C1678 C1682 1.524 . S
C1679 C1671 1.503 1_545 S
C1679 C1678 1.370 . S
C1679 C1680 1.403 . S
C1680 C1679 1.403 . S
C1680 C1681 1.404 . S
C1680 C1683 1.539 . S
C1681 C1677 1.408 . S
C1681 C1680 1.404 . S
C1681 H1693 0.930 . S
C1682 C1678 1.524 . S
C1682 H1694 0.956 1_545 S
C1682 H1695 0.961 . S
C1682 H1696 0.961 . S
C1683 C1680 1.539 . S
C1683 H1697 0.958 1_545 S
C1683 H1698 0.961 . S
C1683 H1699 0.960 . S
H1684 C1668 0.931 . S
H1685 C1673 0.929 1_545 S
H1686 C1674 0.960 . S
H1687 C1674 0.962 . S
H1688 C1674 0.960 . S
H1689 C1675 0.961 . S
H1690 C1675 0.961 . S
H1691 C1675 0.961 . S
H1692 C1676 0.931 . S
H1693 C1681 0.930 . S
H1694 C1682 0.956 1_565 S
H1695 C1682 0.961 . S
H1696 C1682 0.961 . S
H1697 C1683 0.958 1_565 S
H1698 C1683 0.961 . S
H1699 C1683 0.960 . S
C1700 C1701 1.391 . S
C1700 C1702 1.394 . S
C1700 H1716 0.931 . S
C1701 C1700 1.391 . S
C1701 C1705 1.376 . S
C1702 C1700 1.394 . S
C1702 C1703 1.369 . S
C1702 C1706 1.531 1_455 S
C1703 C1702 1.369 . S
C1703 C1704 1.410 . S
C1703 C1711 1.503 1_455 S
C1704 C1703 1.410 . S
C1704 C1705 1.392 . S
C1704 C1707 1.511 . S
C1705 C1701 1.376 . S
C1705 C1704 1.392 . S
C1705 H1717 0.929 . S
C1706 C1702 1.531 1_655 S
C1706 H1718 0.960 . S
C1706 H1719 0.962 . S
C1706 H1720 0.960 . S
C1707 C1704 1.511 . S
C1707 H1721 0.961 . S
C1707 H1722 0.961 . S
C1707 H1723 0.961 . S
C1708 C1709 1.370 . S
C1708 C1710 1.363 . S
C1708 H1724 0.931 . S
C1709 C1708 1.370 . S
C1709 C1713 1.408 . S
C1710 C1708 1.363 . S
C1710 C1711 1.370 . S
C1710 C1714 1.524 . S
C1711 C1703 1.503 1_655 S
C1711 C1710 1.370 . S
C1711 C1712 1.403 1_655 S
C1712 C1711 1.403 1_455 S
C1712 C1713 1.404 1_455 S
C1712 C1715 1.539 . S
C1713 C1709 1.408 . S
C1713 C1712 1.404 1_655 S
C1713 H1725 0.930 1_655 S
C1714 C1710 1.524 . S
C1714 H1726 0.956 . S
C1714 H1727 0.961 . S
C1714 H1728 0.961 . S
C1715 C1712 1.539 . S
C1715 H1729 0.958 . S
C1715 H1730 0.961 . S
C1715 H1731 0.960 . S
H1716 C1700 0.931 . S
H1717 C1705 0.929 . S
H1718 C1706 0.960 . S
H1719 C1706 0.962 . S
H1720 C1706 0.960 . S
H1721 C1707 0.961 . S
H1722 C1707 0.961 . S
H1723 C1707 0.961 . S
H1724 C1708 0.931 . S
H1725 C1713 0.930 1_455 S
H1726 C1714 0.956 . S
H1727 C1714 0.961 . S
H1728 C1714 0.961 . S
H1729 C1715 0.958 . S
H1730 C1715 0.961 . S
H1731 C1715 0.960 . S
C1732 C1733 1.391 . S
C1732 C1734 1.394 . S
C1732 H1748 0.931 . S
C1733 C1732 1.391 . S
C1733 C1737 1.376 . S
C1734 C1732 1.394 . S
C1734 C1735 1.369 . S
C1734 C1738 1.531 . S
C1735 C1734 1.369 . S
C1735 C1736 1.410 . S
C1735 C1743 1.503 . S
C1736 C1735 1.410 . S
C1736 C1737 1.392 . S
C1736 C1739 1.511 . S
C1737 C1733 1.376 . S
C1737 C1736 1.392 . S
C1737 H1749 0.929 . S
C1738 C1734 1.531 . S
C1738 H1750 0.960 . S
C1738 H1751 0.962 . S
C1738 H1752 0.960 . S
C1739 C1736 1.511 . S
C1739 H1753 0.961 . S
C1739 H1754 0.961 . S
C1739 H1755 0.961 . S
C1740 C1741 1.370 . S
C1740 C1742 1.363 . S
C1740 H1756 0.931 . S
C1741 C1740 1.370 . S
C1741 C1745 1.408 . S
C1742 C1740 1.363 . S
C1742 C1743 1.370 . S
C1742 C1746 1.524 . S
C1743 C1735 1.503 . S
C1743 C1742 1.370 . S
C1743 C1744 1.403 . S
C1744 C1743 1.403 . S
C1744 C1745 1.404 . S
C1744 C1747 1.539 . S
C1745 C1741 1.408 . S
C1745 C1744 1.404 . S
C1745 H1757 0.930 . S
C1746 C1742 1.524 . S
C1746 H1758 0.956 . S
C1746 H1759 0.961 . S
C1746 H1760 0.961 . S
C1747 C1744 1.539 . S
C1747 H1761 0.958 . S
C1747 H1762 0.961 . S
C1747 H1763 0.960 . S
H1748 C1732 0.931 . S
H1749 C1737 0.929 . S
H1750 C1738 0.960 . S
H1751 C1738 0.962 . S
H1752 C1738 0.960 . S
H1753 C1739 0.961 . S
H1754 C1739 0.961 . S
H1755 C1739 0.961 . S
H1756 C1740 0.931 . S
H1757 C1745 0.930 . S
H1758 C1746 0.956 . S
H1759 C1746 0.961 . S
H1760 C1746 0.961 . S
H1761 C1747 0.958 . S
H1762 C1747 0.961 . S
H1763 C1747 0.960 . S
C1764 C1765 1.391 . S
C1764 C1766 1.394 . S
C1764 H1780 0.931 . S
C1765 C1764 1.391 . S
C1765 C1769 1.376 . S
C1766 C1764 1.394 . S
C1766 C1767 1.369 . S
C1766 C1770 1.531 . S
C1767 C1766 1.369 . S
C1767 C1768 1.410 . S
C1767 C1775 1.503 . S
C1768 C1767 1.410 . S
C1768 C1769 1.392 . S
C1768 C1771 1.511 . S
C1769 C1765 1.376 . S
C1769 C1768 1.392 . S
C1769 H1781 0.929 . S
C1770 C1766 1.531 . S
C1770 H1782 0.960 . S
C1770 H1783 0.962 . S
C1770 H1784 0.960 . S
C1771 C1768 1.511 . S
C1771 H1785 0.961 . S
C1771 H1786 0.961 . S
C1771 H1787 0.961 . S
C1772 C1773 1.370 . S
C1772 C1774 1.363 . S
C1772 H1788 0.931 . S
C1773 C1772 1.370 . S
C1773 C1777 1.408 . S
C1774 C1772 1.363 . S
C1774 C1775 1.370 . S
C1774 C1778 1.524 . S
C1775 C1767 1.503 . S
C1775 C1774 1.370 . S
C1775 C1776 1.403 . S
C1776 C1775 1.403 . S
C1776 C1777 1.404 . S
C1776 C1779 1.539 . S
C1777 C1773 1.408 . S
C1777 C1776 1.404 . S
C1777 H1789 0.930 . S
C1778 C1774 1.524 . S
C1778 H1790 0.956 . S
C1778 H1791 0.961 . S
C1778 H1792 0.961 . S
C1779 C1776 1.539 . S
C1779 H1793 0.958 . S
C1779 H1794 0.961 . S
C1779 H1795 0.960 . S
H1780 C1764 0.931 . S
H1781 C1769 0.929 . S
H1782 C1770 0.960 . S
H1783 C1770 0.962 . S
H1784 C1770 0.960 . S
H1785 C1771 0.961 . S
H1786 C1771 0.961 . S
H1787 C1771 0.961 . S
H1788 C1772 0.931 . S
H1789 C1777 0.930 . S
H1790 C1778 0.956 . S
H1791 C1778 0.961 . S
H1792 C1778 0.961 . S
H1793 C1779 0.958 . S
H1794 C1779 0.961 . S
H1795 C1779 0.960 . S
C1796 C1797 1.391 . S
C1796 C1798 1.394 . S
C1796 H1812 0.931 . S
C1797 C1796 1.391 . S
C1797 C1801 1.376 . S
C1798 C1796 1.394 . S
C1798 C1799 1.369 . S
C1798 C1802 1.531 . S
C1799 C1798 1.369 . S
C1799 C1800 1.410 . S
C1799 C1807 1.503 . S
C1800 C1799 1.410 . S
C1800 C1801 1.392 . S
C1800 C1803 1.511 1_545 S
C1801 C1797 1.376 . S
C1801 C1800 1.392 . S
C1801 H1813 0.929 . S
C1802 C1798 1.531 . S
C1802 H1814 0.960 . S
C1802 H1815 0.962 . S
C1802 H1816 0.960 . S
C1803 C1800 1.511 1_565 S
C1803 H1817 0.961 . S
C1803 H1818 0.961 . S
C1803 H1819 0.961 . S
C1804 C1805 1.370 1_545 S
C1804 C1806 1.363 . S
C1804 H1820 0.931 . S
C1805 C1804 1.370 1_565 S
C1805 C1809 1.409 1_565 S
C1806 C1804 1.363 . S
C1806 C1807 1.370 . S
C1806 C1810 1.524 . S
C1807 C1799 1.503 . S
C1807 C1806 1.370 . S
C1807 C1808 1.403 . S
C1808 C1807 1.403 . S
C1808 C1809 1.404 . S
C1808 C1811 1.539 . S
C1809 C1805 1.409 1_545 S
C1809 C1808 1.404 . S
C1809 H1821 0.929 1_545 S
C1810 C1806 1.524 . S
C1810 H1822 0.956 . S
C1810 H1823 0.961 . S
C1810 H1824 0.961 . S
C1811 C1808 1.539 . S
C1811 H1825 0.958 . S
C1811 H1826 0.939 1_545 S
C1811 H1827 0.960 . S
H1812 C1796 0.931 . S
H1813 C1801 0.929 . S
H1814 C1802 0.960 . S
H1815 C1802 0.962 . S
H1816 C1802 0.960 . S
H1817 C1803 0.961 . S
H1818 C1803 0.961 . S
H1819 C1803 0.961 . S
H1820 C1804 0.931 . S
H1821 C1809 0.929 1_565 S
H1822 C1810 0.956 . S
H1823 C1810 0.961 . S
H1824 C1810 0.961 . S
H1825 C1811 0.958 . S
H1826 C1811 0.939 1_565 S
H1827 C1811 0.960 . S
C1828 C1829 1.391 . S
C1828 C1830 1.394 . S
C1828 H1844 0.931 . S
C1829 C1828 1.391 . S
C1829 C1833 1.376 . S
C1830 C1828 1.394 . S
C1830 C1831 1.369 . S
C1830 C1834 1.531 1_655 S
C1831 C1830 1.369 . S
C1831 C1832 1.410 . S
C1831 C1839 1.503 . S
C1832 C1831 1.410 . S
C1832 C1833 1.392 . S
C1832 C1835 1.511 . S
C1833 C1829 1.376 . S
C1833 C1832 1.392 . S
C1833 H1845 0.929 . S
C1834 C1830 1.531 1_455 S
C1834 H1846 0.960 . S
C1834 H1847 0.962 . S
C1834 H1848 0.960 . S
C1835 C1832 1.511 . S
C1835 H1849 0.961 . S
C1835 H1850 0.961 . S
C1835 H1851 0.961 . S
C1836 C1837 1.370 1_655 S
C1836 C1838 1.363 . S
C1836 H1852 0.931 1_655 S
C1837 C1836 1.370 1_455 S
C1837 C1841 1.408 1_455 S
C1838 C1836 1.363 . S
C1838 C1839 1.370 . S
C1838 C1842 1.524 . S
C1839 C1831 1.503 . S
C1839 C1838 1.370 . S
C1839 C1840 1.403 . S
C1840 C1839 1.403 . S
C1840 C1841 1.404 . S
C1840 C1843 1.539 . S
C1841 C1837 1.408 1_655 S
C1841 C1840 1.404 . S
C1841 H1853 0.930 . S
C1842 C1838 1.524 . S
C1842 H1854 0.956 . S
C1842 H1855 0.961 . S
C1842 H1856 0.961 . S
C1843 C1840 1.539 . S
C1843 H1857 0.958 . S
C1843 H1858 0.961 . S
C1843 H1859 0.960 . S
H1844 C1828 0.931 . S
H1845 C1833 0.929 . S
H1846 C1834 0.960 . S
H1847 C1834 0.962 . S
H1848 C1834 0.960 . S
H1849 C1835 0.961 . S
H1850 C1835 0.961 . S
H1851 C1835 0.961 . S
H1852 C1836 0.931 1_455 S
H1853 C1841 0.930 . S
H1854 C1842 0.956 . S
H1855 C1842 0.961 . S
H1856 C1842 0.961 . S
H1857 C1843 0.958 . S
H1858 C1843 0.961 . S
H1859 C1843 0.960 . S
C1860 C1861 1.391 . S
C1860 C1862 1.394 . S
C1860 H1876 0.931 . S
C1861 C1860 1.391 . S
C1861 C1865 1.376 . S
C1862 C1860 1.394 . S
C1862 C1863 1.369 . S
C1862 C1866 1.531 . S
C1863 C1862 1.369 . S
C1863 C1864 1.410 . S
C1863 C1871 1.503 . S
C1864 C1863 1.410 . S
C1864 C1865 1.392 . S
C1864 C1867 1.511 . S
C1865 C1861 1.376 . S
C1865 C1864 1.392 . S
C1865 H1877 0.929 . S
C1866 C1862 1.531 . S
C1866 H1878 0.960 . S
C1866 H1879 0.962 . S
C1866 H1880 0.960 . S
C1867 C1864 1.511 . S
C1867 H1881 0.961 . S
C1867 H1882 0.961 . S
C1867 H1883 0.961 . S
C1868 C1869 1.370 . S
C1868 C1870 1.363 . S
C1868 H1884 0.931 . S
C1869 C1868 1.370 . S
C1869 C1873 1.408 . S
C1870 C1868 1.363 . S
C1870 C1871 1.370 . S
C1870 C1874 1.524 . S
C1871 C1863 1.503 . S
C1871 C1870 1.370 . S
C1871 C1872 1.403 . S
C1872 C1871 1.403 . S
C1872 C1873 1.404 . S
C1872 C1875 1.539 . S
C1873 C1869 1.408 . S
C1873 C1872 1.404 . S
C1873 H1885 0.930 . S
C1874 C1870 1.524 . S
C1874 H1886 0.956 . S
C1874 H1887 0.961 . S
C1874 H1888 0.961 . S
C1875 C1872 1.539 . S
C1875 H1889 0.958 . S
C1875 H1890 0.961 . S
C1875 H1891 0.960 . S
H1876 C1860 0.931 . S
H1877 C1865 0.929 . S
H1878 C1866 0.960 . S
H1879 C1866 0.962 . S
H1880 C1866 0.960 . S
H1881 C1867 0.961 . S
H1882 C1867 0.961 . S
H1883 C1867 0.961 . S
H1884 C1868 0.931 . S
H1885 C1873 0.930 . S
H1886 C1874 0.956 . S
H1887 C1874 0.961 . S
H1888 C1874 0.961 . S
H1889 C1875 0.958 . S
H1890 C1875 0.961 . S
H1891 C1875 0.960 . S
C1892 C1893 1.391 . S
C1892 C1894 1.394 . S
C1892 H1908 0.931 . S
C1893 C1892 1.391 . S
C1893 C1897 1.376 . S
C1894 C1892 1.394 . S
C1894 C1895 1.369 . S
C1894 C1898 1.531 . S
C1895 C1894 1.369 . S
C1895 C1896 1.410 . S
C1895 C1903 1.503 . S
C1896 C1895 1.410 . S
C1896 C1897 1.392 . S
C1896 C1899 1.511 . S
C1897 C1893 1.376 . S
C1897 C1896 1.392 . S
C1897 H1909 0.929 . S
C1898 C1894 1.531 . S
C1898 H1910 0.960 . S
C1898 H1911 0.962 . S
C1898 H1912 0.960 . S
C1899 C1896 1.511 . S
C1899 H1913 0.961 . S
C1899 H1914 0.981 . S
C1899 H1915 0.961 1_565 S
C1900 C1901 1.370 1_565 S
C1900 C1902 1.363 . S
C1900 H1916 0.931 . S
C1901 C1900 1.370 1_545 S
C1901 C1905 1.408 . S
C1902 C1900 1.363 . S
C1902 C1903 1.370 . S
C1902 C1906 1.524 . S
C1903 C1895 1.503 . S
C1903 C1902 1.370 . S
C1903 C1904 1.403 . S
C1904 C1903 1.403 . S
C1904 C1905 1.404 1_565 S
C1904 C1907 1.539 1_565 S
C1905 C1901 1.408 . S
C1905 C1904 1.404 1_545 S
C1905 H1917 0.930 . S
C1906 C1902 1.524 . S
C1906 H1918 0.956 . S
C1906 H1919 0.961 . S
C1906 H1920 0.961 . S
C1907 C1904 1.539 1_545 S
C1907 H1921 0.968 . S
C1907 H1922 0.961 . S
C1907 H1923 0.960 . S
H1908 C1892 0.931 . S
H1909 C1897 0.929 . S
H1910 C1898 0.960 . S
H1911 C1898 0.962 . S
H1912 C1898 0.960 . S
H1913 C1899 0.961 . S
H1914 C1899 0.981 . S
H1915 C1899 0.961 1_545 S
H1916 C1900 0.931 . S
H1917 C1905 0.930 . S
H1918 C1906 0.956 . S
H1919 C1906 0.961 . S
H1920 C1906 0.961 . S
H1921 C1907 0.968 . S
H1922 C1907 0.961 . S
H1923 C1907 0.960 . S
C1924 C1925 1.429 . S
C1924 C1926 1.393 1_655 S
C1924 H1940 0.931 . S
C1925 C1924 1.429 . S
C1925 C1929 1.337 1_655 S
C1926 C1924 1.393 1_455 S
C1926 C1927 1.390 . S
C1926 C1930 1.510 1_455 S
C1927 C1926 1.390 . S
C1927 C1928 1.410 . S
C1927 C1935 1.503 . S
C1928 C1927 1.410 . S
C1928 C1929 1.392 . S
C1928 C1931 1.511 . S
C1929 C1925 1.337 1_455 S
C1929 C1928 1.392 . S
C1929 H1941 0.929 . S
C1930 C1926 1.510 1_655 S
C1930 H1942 0.975 . S
C1930 H1943 0.962 . S
C1930 H1944 0.960 . S
C1931 C1928 1.511 . S
C1931 H1945 0.961 . S
C1931 H1946 0.961 . S
C1931 H1947 0.961 . S
C1932 C1933 1.370 . S
C1932 C1934 1.363 . S
C1932 H1948 0.931 . S
C1933 C1932 1.370 . S
C1933 C1937 1.408 . S
C1934 C1932 1.363 . S
C1934 C1935 1.370 . S
C1934 C1938 1.524 . S
C1935 C1927 1.503 . S
C1935 C1934 1.370 . S
C1935 C1936 1.403 . S
C1936 C1935 1.403 . S
C1936 C1937 1.404 . S
C1936 C1939 1.539 . S
C1937 C1933 1.408 . S
C1937 C1936 1.404 . S
C1937 H1949 0.930 . S
C1938 C1934 1.524 . S
C1938 H1950 0.956 . S
C1938 H1951 0.961 . S
C1938 H1952 0.961 . S
C1939 C1936 1.539 . S
C1939 H1953 0.958 . S
C1939 H1954 0.961 . S
C1939 H1955 0.960 . S
H1940 C1924 0.931 . S
H1941 C1929 0.929 . S
H1942 C1930 0.975 . S
H1943 C1930 0.962 . S
H1944 C1930 0.960 . S
H1945 C1931 0.961 . S
H1946 C1931 0.961 . S
H1947 C1931 0.961 . S
H1948 C1932 0.931 . S
H1949 C1937 0.930 . S
H1950 C1938 0.956 . S
H1951 C1938 0.961 . S
H1952 C1938 0.961 . S
H1953 C1939 0.958 . S
H1954 C1939 0.961 . S
H1955 C1939 0.960 . S
C1956 C1957 1.391 . S
C1956 C1958 1.394 . S
C1956 H1972 0.931 . S
C1957 C1956 1.391 . S
C1957 C1961 1.376 . S
C1958 C1956 1.394 . S
C1958 C1959 1.369 . S
C1958 C1962 1.531 . S
C1959 C1958 1.369 . S
C1959 C1960 1.410 . S
C1959 C1967 1.503 . S
C1960 C1959 1.410 . S
C1960 C1961 1.392 . S
C1960 C1963 1.511 . S
C1961 C1957 1.376 . S
C1961 C1960 1.392 . S
C1961 H1973 0.929 . S
C1962 C1958 1.531 . S
C1962 H1974 0.960 . S
C1962 H1975 0.962 . S
C1962 H1976 0.960 . S
C1963 C1960 1.511 . S
C1963 H1977 0.961 . S
C1963 H1978 0.961 . S
C1963 H1979 0.961 . S
C1964 C1965 1.370 . S
C1964 C1966 1.363 . S
C1964 H1980 0.931 . S
C1965 C1964 1.370 . S
C1965 C1969 1.408 . S
C1966 C1964 1.363 . S
C1966 C1967 1.370 . S
C1966 C1970 1.524 . S
C1967 C1959 1.503 . S
C1967 C1966 1.370 . S
C1967 C1968 1.403 . S
C1968 C1967 1.403 . S
C1968 C1969 1.404 . S
C1968 C1971 1.539 . S
C1969 C1965 1.408 . S
C1969 C1968 1.404 . S
C1969 H1981 0.930 . S
C1970 C1966 1.524 . S
C1970 H1982 0.956 . S
C1970 H1983 0.961 . S
C1970 H1984 0.961 . S
C1971 C1968 1.539 . S
C1971 H1985 0.958 . S
C1971 H1986 0.961 . S
C1971 H1987 0.960 . S
H1972 C1956 0.931 . S
H1973 C1961 0.929 . S
H1974 C1962 0.960 . S
H1975 C1962 0.962 . S
H1976 C1962 0.960 . S
H1977 C1963 0.961 . S
H1978 C1963 0.961 . S
H1979 C1963 0.961 . S
H1980 C1964 0.931 . S
H1981 C1969 0.930 . S
H1982 C1970 0.956 . S
H1983 C1970 0.961 . S
H1984 C1970 0.961 . S
H1985 C1971 0.958 . S
H1986 C1971 0.961 . S
H1987 C1971 0.960 . S
C1988 C1989 1.391 . S
C1988 C1990 1.394 . S
C1988 H2004 0.931 . S
C1989 C1988 1.391 . S
C1989 C1993 1.376 . S
C1990 C1988 1.394 . S
C1990 C1991 1.369 . S
C1990 C1994 1.551 . S
C1991 C1990 1.369 . S
C1991 C1992 1.410 . S
C1991 C1999 1.503 . S
C1992 C1991 1.410 . S
C1992 C1993 1.392 . S
C1992 C1995 1.511 . S
C1993 C1989 1.376 . S
C1993 C1992 1.392 . S
C1993 H2005 0.929 . S
C1994 C1990 1.551 . S
C1994 H2006 0.969 1_565 S
C1994 H2007 0.944 1_565 S
C1994 H2008 0.949 1_565 S
C1995 C1992 1.511 . S
C1995 H2009 0.961 . S
C1995 H2010 0.961 . S
C1995 H2011 0.961 . S
C1996 C1997 1.380 . S
C1996 C1998 1.362 1_545 S
C1996 H2012 0.946 . S
C1997 C1996 1.380 . S
C1997 C2001 1.387 1_545 S
C1998 C1996 1.362 1_565 S
C1998 C1999 1.370 . S
C1998 C2002 1.524 . S
C1999 C1991 1.503 . S
C1999 C1998 1.370 . S
C1999 C2000 1.403 . S
C2000 C1999 1.403 . S
C2000 C2001 1.404 . S
C2000 C2003 1.539 . S
C2001 C1997 1.387 1_565 S
C2001 C2000 1.404 . S
C2001 H2013 0.930 . S
C2002 C1998 1.524 . S
C2002 H2014 0.956 . S
C2002 H2015 0.961 . S
C2002 H2016 0.961 . S
C2003 C2000 1.539 . S
C2003 H2017 0.958 . S
C2003 H2018 0.961 . S
C2003 H2019 0.960 . S
H2004 C1988 0.931 . S
H2005 C1993 0.929 . S
H2006 C1994 0.969 1_545 S
H2007 C1994 0.944 1_545 S
H2008 C1994 0.949 1_545 S
H2009 C1995 0.961 . S
H2010 C1995 0.961 . S
H2011 C1995 0.961 . S
H2012 C1996 0.946 . S
H2013 C2001 0.930 . S
H2014 C2002 0.956 . S
H2015 C2002 0.961 . S
H2016 C2002 0.961 . S
H2017 C2003 0.958 . S
H2018 C2003 0.961 . S
H2019 C2003 0.960 . S
C2020 C2021 1.391 . S
C2020 C2022 1.394 . S
C2020 H2036 0.931 . S
C2021 C2020 1.391 . S
C2021 C2025 1.376 . S
C2022 C2020 1.394 . S
C2022 C2023 1.369 . S
C2022 C2026 1.531 . S
C2023 C2022 1.369 . S
C2023 C2024 1.410 . S
C2023 C2031 1.503 . S
C2024 C2023 1.410 . S
C2024 C2025 1.392 . S
C2024 C2027 1.511 . S
C2025 C2021 1.376 . S
C2025 C2024 1.392 . S
C2025 H2037 0.929 . S
C2026 C2022 1.531 . S
C2026 H2038 0.960 1_455 S
C2026 H2039 0.962 . S
C2026 H2040 0.960 . S
C2027 C2024 1.511 . S
C2027 H2041 0.961 . S
C2027 H2042 0.961 . S
C2027 H2043 0.961 . S
C2028 C2029 1.370 1_455 S
C2028 C2030 1.363 . S
C2028 H2044 0.931 . S
C2029 C2028 1.370 1_655 S
C2029 C2033 1.408 . S
C2030 C2028 1.363 . S
C2030 C2031 1.370 . S
C2030 C2034 1.524 . S
C2031 C2023 1.503 . S
C2031 C2030 1.370 . S
C2031 C2032 1.403 1_455 S
C2032 C2031 1.403 1_655 S
C2032 C2033 1.404 . S
C2032 C2035 1.539 . S
C2033 C2029 1.408 . S
C2033 C2032 1.404 . S
C2033 H2045 0.930 . S
C2034 C2030 1.524 . S
C2034 H2046 0.956 . S
C2034 H2047 0.961 . S
C2034 H2048 0.961 . S
C2035 C2032 1.539 . S
C2035 H2049 0.958 . S
C2035 H2050 0.961 . S
C2035 H2051 0.960 . S
H2036 C2020 0.931 . S
H2037 C2025 0.929 . S
H2038 C2026 0.960 1_655 S
H2039 C2026 0.962 . S
H2040 C2026 0.960 . S
H2041 C2027 0.961 . S
H2042 C2027 0.961 . S
H2043 C2027 0.961 . S
H2044 C2028 0.931 . S
H2045 C2033 0.930 . S
H2046 C2034 0.956 . S
H2047 C2034 0.961 . S
H2048 C2034 0.961 . S
H2049 C2035 0.958 . S
H2050 C2035 0.961 . S
H2051 C2035 0.960 . S
C2052 C2053 1.391 . S
C2052 C2054 1.394 . S
C2052 H2068 0.931 . S
C2053 C2052 1.391 . S
C2053 C2057 1.376 . S
C2054 C2052 1.394 . S
C2054 C2055 1.369 . S
C2054 C2058 1.531 . S
C2055 C2054 1.369 . S
C2055 C2056 1.410 . S
C2055 C2063 1.503 . S
C2056 C2055 1.410 . S
C2056 C2057 1.392 . S
C2056 C2059 1.511 . S
C2057 C2053 1.376 . S
C2057 C2056 1.392 . S
C2057 H2069 0.929 . S
C2058 C2054 1.531 . S
C2058 H2070 0.960 . S
C2058 H2071 0.962 . S
C2058 H2072 0.960 . S
C2059 C2056 1.511 . S
C2059 H2073 0.961 . S
C2059 H2074 0.961 . S
C2059 H2075 0.961 . S
C2060 C2061 1.370 . S
C2060 C2062 1.363 . S
C2060 H2076 0.931 . S
C2061 C2060 1.370 . S
C2061 C2065 1.408 . S
C2062 C2060 1.363 . S
C2062 C2063 1.370 . S
C2062 C2066 1.524 . S
C2063 C2055 1.503 . S
C2063 C2062 1.370 . S
C2063 C2064 1.403 . S
C2064 C2063 1.403 . S
C2064 C2065 1.404 . S
C2064 C2067 1.539 . S
C2065 C2061 1.408 . S
C2065 C2064 1.404 . S
C2065 H2077 0.930 . S
C2066 C2062 1.524 . S
C2066 H2078 0.956 . S
C2066 H2079 0.961 . S
C2066 H2080 0.961 . S
C2067 C2064 1.539 . S
C2067 H2081 0.958 . S
C2067 H2082 0.961 . S
C2067 H2083 0.960 . S
H2068 C2052 0.931 . S
H2069 C2057 0.929 . S
H2070 C2058 0.960 . S
H2071 C2058 0.962 . S
H2072 C2058 0.960 . S
H2073 C2059 0.961 . S
H2074 C2059 0.961 . S
H2075 C2059 0.961 . S
H2076 C2060 0.931 . S
H2077 C2065 0.930 . S
H2078 C2066 0.956 . S
H2079 C2066 0.961 . S
H2080 C2066 0.961 . S
H2081 C2067 0.958 . S
H2082 C2067 0.961 . S
H2083 C2067 0.960 . S
C2084 C2085 1.386 1_545 S
C2084 C2086 1.394 . S
C2084 H2100 0.931 . S
C2085 C2084 1.386 1_565 S
C2085 C2089 1.375 . S
C2086 C2084 1.394 . S
C2086 C2087 1.369 . S
C2086 C2090 1.531 . S
C2087 C2086 1.369 . S
C2087 C2088 1.410 . S
C2087 C2095 1.503 . S
C2088 C2087 1.410 . S
C2088 C2089 1.392 1_545 S
C2088 C2091 1.511 1_545 S
C2089 C2085 1.375 . S
C2089 C2088 1.392 1_565 S
C2089 H2101 0.929 . S
C2090 C2086 1.531 . S
C2090 H2102 0.960 . S
C2090 H2103 0.962 . S
C2090 H2104 0.960 . S
C2091 C2088 1.511 1_565 S
C2091 H2105 0.961 . S
C2091 H2106 0.961 1_565 S
C2091 H2107 0.961 1_565 S
C2092 C2093 1.370 . S
C2092 C2094 1.363 . S
C2092 H2108 0.931 . S
C2093 C2092 1.370 . S
C2093 C2097 1.408 . S
C2094 C2092 1.363 . S
C2094 C2095 1.370 . S
C2094 C2098 1.524 . S
C2095 C2087 1.503 . S
C2095 C2094 1.370 . S
C2095 C2096 1.403 . S
C2096 C2095 1.403 . S
C2096 C2097 1.404 . S
C2096 C2099 1.539 . S
C2097 C2093 1.408 . S
C2097 C2096 1.404 . S
C2097 H2109 0.930 . S
C2098 C2094 1.524 . S
C2098 H2110 0.956 . S
C2098 H2111 0.961 1_545 S
C2098 H2112 0.961 . S
C2099 C2096 1.539 . S
C2099 H2113 0.958 . S
C2099 H2114 0.961 . S
C2099 H2115 0.960 . S
H2100 C2084 0.931 . S
H2101 C2089 0.929 . S
H2102 C2090 0.960 . S
H2103 C2090 0.962 . S
H2104 C2090 0.960 . S
H2105 C2091 0.961 . S
H2106 C2091 0.961 1_545 S
H2107 C2091 0.961 1_545 S
H2108 C2092 0.931 . S
H2109 C2097 0.930 . S
H2110 C2098 0.956 . S
H2111 C2098 0.961 1_565 S
H2112 C2098 0.961 . S
H2113 C2099 0.958 . S
H2114 C2099 0.961 . S
H2115 C2099 0.960 . S
C2116 C2117 1.391 1_655 S
C2116 C2118 1.394 . S
C2116 H2132 0.931 . S
C2117 C2116 1.391 1_455 S
C2117 C2121 1.376 . S
C2118 C2116 1.394 . S
C2118 C2119 1.369 . S
C2118 C2122 1.531 . S
C2119 C2118 1.369 . S
C2119 C2120 1.410 1_655 S
C2119 C2127 1.503 . S
C2120 C2119 1.410 1_455 S
C2120 C2121 1.392 . S
C2120 C2123 1.511 . S
C2121 C2117 1.376 . S
C2121 C2120 1.392 . S
C2121 H2133 0.929 . S
C2122 C2118 1.531 . S
C2122 H2134 0.960 . S
C2122 H2135 0.962 . S
C2122 H2136 0.960 . S
C2123 C2120 1.511 . S
C2123 H2137 0.961 . S
C2123 H2138 0.961 . S
C2123 H2139 0.961 . S
C2124 C2125 1.370 . S
C2124 C2126 1.363 . S
C2124 H2140 0.931 . S
C2125 C2124 1.370 . S
C2125 C2129 1.408 . S
C2126 C2124 1.363 . S
C2126 C2127 1.370 . S
C2126 C2130 1.524 . S
C2127 C2119 1.503 . S
C2127 C2126 1.370 . S
C2127 C2128 1.403 . S
C2128 C2127 1.403 . S
C2128 C2129 1.404 . S
C2128 C2131 1.539 . S
C2129 C2125 1.408 . S
C2129 C2128 1.404 . S
C2129 H2141 0.930 . S
C2130 C2126 1.524 . S
C2130 H2142 0.956 . S
C2130 H2143 0.961 . S
C2130 H2144 0.961 . S
C2131 C2128 1.539 . S
C2131 H2145 0.958 . S
C2131 H2146 0.961 . S
C2131 H2147 0.960 . S
H2132 C2116 0.931 . S
H2133 C2121 0.929 . S
H2134 C2122 0.960 . S
H2135 C2122 0.962 . S
H2136 C2122 0.960 . S
H2137 C2123 0.961 . S
H2138 C2123 0.961 . S
H2139 C2123 0.961 . S
H2140 C2124 0.931 . S
H2141 C2129 0.930 . S
H2142 C2130 0.956 . S
H2143 C2130 0.961 . S
H2144 C2130 0.961 . S
H2145 C2131 0.958 . S
H2146 C2131 0.961 . S
H2147 C2131 0.960 . S
C2148 C2149 1.391 . S
C2148 C2150 1.394 . S
C2148 H2164 0.931 . S
C2149 C2148 1.391 . S
C2149 C2153 1.376 . S
C2150 C2148 1.394 . S
C2150 C2151 1.369 . S
C2150 C2154 1.531 . S
C2151 C2150 1.369 . S
C2151 C2152 1.410 . S
C2151 C2159 1.503 1_655 S
C2152 C2151 1.410 . S
C2152 C2153 1.392 . S
C2152 C2155 1.511 . S
C2153 C2149 1.376 . S
C2153 C2152 1.392 . S
C2153 H2165 0.929 . S
C2154 C2150 1.531 . S
C2154 H2166 0.960 1_655 S
C2154 H2167 0.962 . S
C2154 H2168 0.960 . S
C2155 C2152 1.511 . S
C2155 H2169 0.961 . S
C2155 H2170 0.961 1_655 S
C2155 H2171 0.961 . S
C2156 C2157 1.370 . S
C2156 C2158 1.363 . S
C2156 H2172 0.931 . S
C2157 C2156 1.370 . S
C2157 C2161 1.408 . S
C2158 C2156 1.363 . S
C2158 C2159 1.370 . S
C2158 C2162 1.524 . S
C2159 C2151 1.503 1_455 S
C2159 C2158 1.370 . S
C2159 C2160 1.403 . S
C2160 C2159 1.403 . S
C2160 C2161 1.404 . S
C2160 C2163 1.539 . S
C2161 C2157 1.408 . S
C2161 C2160 1.404 . S
C2161 H2173 0.930 . S
C2162 C2158 1.524 . S
C2162 H2174 0.956 1_455 S
C2162 H2175 0.961 1_455 S
C2162 H2176 0.961 . S
C2163 C2160 1.539 . S
C2163 H2177 0.958 . S
C2163 H2178 0.961 . S
C2163 H2179 0.960 . S
H2164 C2148 0.931 . S
H2165 C2153 0.929 . S
H2166 C2154 0.960 1_455 S
H2167 C2154 0.962 . S
H2168 C2154 0.960 . S
H2169 C2155 0.961 . S
H2170 C2155 0.961 1_455 S
H2171 C2155 0.961 . S
H2172 C2156 0.931 . S
H2173 C2161 0.930 . S
H2174 C2162 0.956 1_655 S
H2175 C2162 0.961 1_655 S
H2176 C2162 0.961 . S
H2177 C2163 0.958 . S
H2178 C2163 0.961 . S
H2179 C2163 0.960 . S
C2180 C2181 1.391 . S
C2180 C2182 1.394 . S
C2180 H2196 0.931 . S
C2181 C2180 1.391 . S
C2181 C2185 1.376 . S
C2182 C2180 1.394 . S
C2182 C2183 1.369 . S
C2182 C2186 1.531 . S
C2183 C2182 1.369 . S
C2183 C2184 1.410 . S
C2183 C2191 1.503 . S
C2184 C2183 1.410 . S
C2184 C2185 1.392 . S
C2184 C2187 1.511 . S
C2185 C2181 1.376 . S
C2185 C2184 1.392 . S
C2185 H2197 0.929 . S
C2186 C2182 1.531 . S
C2186 H2198 0.960 . S
C2186 H2199 0.962 . S
C2186 H2200 0.960 . S
C2187 C2184 1.511 . S
C2187 H2201 0.961 . S
C2187 H2202 0.961 . S
C2187 H2203 0.961 . S
C2188 C2189 1.370 . S
C2188 C2190 1.363 . S
C2188 H2204 0.931 . S
C2189 C2188 1.370 . S
C2189 C2193 1.408 . S
C2190 C2188 1.363 . S
C2190 C2191 1.370 . S
C2190 C2194 1.524 . S
C2191 C2183 1.503 . S
C2191 C2190 1.370 . S
C2191 C2192 1.403 . S
C2192 C2191 1.403 . S
C2192 C2193 1.404 . S
C2192 C2195 1.539 . S
C2193 C2189 1.408 . S
C2193 C2192 1.404 . S
C2193 H2205 0.930 . S
C2194 C2190 1.524 . S
C2194 H2206 0.956 . S
C2194 H2207 0.961 . S
C2194 H2208 0.961 . S
C2195 C2192 1.539 . S
C2195 H2209 0.958 . S
C2195 H2210 0.961 . S
C2195 H2211 0.960 . S
H2196 C2180 0.931 . S
H2197 C2185 0.929 . S
H2198 C2186 0.960 . S
H2199 C2186 0.962 . S
H2200 C2186 0.960 . S
H2201 C2187 0.961 . S
H2202 C2187 0.961 . S
H2203 C2187 0.961 . S
H2204 C2188 0.931 . S
H2205 C2193 0.930 . S
H2206 C2194 0.956 . S
H2207 C2194 0.961 . S
H2208 C2194 0.961 . S
H2209 C2195 0.958 . S
H2210 C2195 0.961 . S
H2211 C2195 0.960 . S
C2212 C2213 1.391 . S
C2212 C2214 1.394 . S
C2212 H2228 0.931 . S
C2213 C2212 1.391 . S
C2213 C2217 1.376 . S
C2214 C2212 1.394 . S
C2214 C2215 1.369 . S
C2214 C2218 1.531 . S
C2215 C2214 1.369 . S
C2215 C2216 1.410 . S
C2215 C2223 1.503 1_545 S
C2216 C2215 1.410 . S
C2216 C2217 1.392 . S
C2216 C2219 1.511 . S
C2217 C2213 1.376 . S
C2217 C2216 1.392 . S
C2217 H2229 0.929 . S
C2218 C2214 1.531 . S
C2218 H2230 0.960 1_545 S
C2218 H2231 0.962 . S
C2218 H2232 0.960 . S
C2219 C2216 1.511 . S
C2219 H2233 0.961 . S
C2219 H2234 0.966 1_545 S
C2219 H2235 0.961 . S
C2220 C2221 1.370 . S
C2220 C2222 1.363 . S
C2220 H2236 0.931 . S
C2221 C2220 1.370 . S
C2221 C2225 1.408 . S
C2222 C2220 1.363 . S
C2222 C2223 1.370 . S
C2222 C2226 1.524 . S
C2223 C2215 1.503 1_565 S
C2223 C2222 1.370 . S
C2223 C2224 1.403 . S
C2224 C2223 1.403 . S
C2224 C2225 1.404 . S
C2224 C2227 1.539 . S
C2225 C2221 1.408 . S
C2225 C2224 1.404 . S
C2225 H2237 0.930 . S
C2226 C2222 1.524 . S
C2226 H2238 0.956 1_565 S
C2226 H2239 0.961 1_565 S
C2226 H2240 0.961 . S
C2227 C2224 1.539 . S
C2227 H2241 0.958 . S
C2227 H2242 0.961 . S
C2227 H2243 0.960 . S
H2228 C2212 0.931 . S
H2229 C2217 0.929 . S
H2230 C2218 0.960 1_565 S
H2231 C2218 0.962 . S
H2232 C2218 0.960 . S
H2233 C2219 0.961 . S
H2234 C2219 0.966 1_565 S
H2235 C2219 0.961 . S
H2236 C2220 0.931 . S
H2237 C2225 0.930 . S
H2238 C2226 0.956 1_545 S
H2239 C2226 0.961 1_545 S
H2240 C2226 0.961 . S
H2241 C2227 0.958 . S
H2242 C2227 0.961 . S
H2243 C2227 0.960 . S
C2244 C2245 1.391 . S
C2244 C2246 1.394 . S
C2244 H2260 0.931 . S
C2245 C2244 1.391 . S
C2245 C2249 1.376 . S
C2246 C2244 1.394 . S
C2246 C2247 1.369 . S
C2246 C2250 1.531 . S
C2247 C2246 1.369 . S
C2247 C2248 1.410 . S
C2247 C2255 1.503 1_545 S
C2248 C2247 1.410 . S
C2248 C2249 1.392 . S
C2248 C2251 1.511 . S
C2249 C2245 1.376 . S
C2249 C2248 1.392 . S
C2249 H2261 0.929 . S
C2250 C2246 1.531 . S
C2250 H2262 0.960 1_545 S
C2250 H2263 0.962 . S
C2250 H2264 0.960 . S
C2251 C2248 1.511 . S
C2251 H2265 0.961 . S
C2251 H2266 0.985 . S
C2251 H2267 0.961 . S
C2252 C2253 1.370 . S
C2252 C2254 1.363 . S
C2252 H2268 0.931 . S
C2253 C2252 1.370 . S
C2253 C2257 1.408 . S
C2254 C2252 1.363 . S
C2254 C2255 1.370 . S
C2254 C2258 1.524 . S
C2255 C2247 1.503 1_565 S
C2255 C2254 1.370 . S
C2255 C2256 1.403 . S
C2256 C2255 1.403 . S
C2256 C2257 1.404 . S
C2256 C2259 1.539 . S
C2257 C2253 1.408 . S
C2257 C2256 1.404 . S
C2257 H2269 0.930 . S
C2258 C2254 1.524 . S
C2258 H2270 0.956 1_565 S
C2258 H2271 0.961 1_565 S
C2258 H2272 0.961 . S
C2259 C2256 1.539 . S
C2259 H2273 0.958 . S
C2259 H2274 0.961 . S
C2259 H2275 0.960 . S
H2260 C2244 0.931 . S
H2261 C2249 0.929 . S
H2262 C2250 0.960 1_565 S
H2263 C2250 0.962 . S
H2264 C2250 0.960 . S
H2265 C2251 0.961 . S
H2266 C2251 0.985 . S
H2267 C2251 0.961 . S
H2268 C2252 0.931 . S
H2269 C2257 0.930 . S
H2270 C2258 0.956 1_545 S
H2271 C2258 0.961 1_545 S
H2272 C2258 0.961 . S
H2273 C2259 0.958 . S
H2274 C2259 0.961 . S
H2275 C2259 0.960 . S
C2276 C2277 1.391 . S
C2276 C2278 1.394 . S
C2276 H2292 0.931 . S
C2277 C2276 1.391 . S
C2277 C2281 1.376 . S
C2278 C2276 1.394 . S
C2278 C2279 1.369 . S
C2278 C2282 1.531 . S
C2279 C2278 1.369 . S
C2279 C2280 1.410 . S
C2279 C2287 1.503 1_455 S
C2280 C2279 1.410 . S
C2280 C2281 1.392 . S
C2280 C2283 1.511 . S
C2281 C2277 1.376 . S
C2281 C2280 1.392 . S
C2281 H2293 0.929 . S
C2282 C2278 1.531 . S
C2282 H2294 0.960 . S
C2282 H2295 0.962 . S
C2282 H2296 0.960 . S
C2283 C2280 1.511 . S
C2283 H2297 0.961 . S
C2283 H2298 0.961 1_455 S
C2283 H2299 0.961 . S
C2284 C2285 1.370 . S
C2284 C2286 1.363 . S
C2284 H2300 0.931 . S
C2285 C2284 1.370 . S
C2285 C2289 1.408 . S
C2286 C2284 1.363 . S
C2286 C2287 1.370 . S
C2286 C2290 1.524 . S
C2287 C2279 1.503 1_655 S
C2287 C2286 1.370 . S
C2287 C2288 1.403 . S
C2288 C2287 1.403 . S
C2288 C2289 1.404 . S
C2288 C2291 1.539 . S
C2289 C2285 1.408 . S
C2289 C2288 1.404 . S
C2289 H2301 0.930 . S
C2290 C2286 1.524 . S
C2290 H2302 0.956 . S
C2290 H2303 0.961 . S
C2290 H2304 0.961 . S
C2291 C2288 1.539 . S
C2291 H2305 0.958 . S
C2291 H2306 0.961 . S
C2291 H2307 0.960 1_655 S
H2292 C2276 0.931 . S
H2293 C2281 0.929 . S
H2294 C2282 0.960 . S
H2295 C2282 0.962 . S
H2296 C2282 0.960 . S
H2297 C2283 0.961 . S
H2298 C2283 0.961 1_655 S
H2299 C2283 0.961 . S
H2300 C2284 0.931 . S
H2301 C2289 0.930 . S
H2302 C2290 0.956 . S
H2303 C2290 0.961 . S
H2304 C2290 0.961 . S
H2305 C2291 0.958 . S
H2306 C2291 0.961 . S
H2307 C2291 0.960 1_455 S
C2308 C2309 1.391 . S
C2308 C2310 1.394 . S
C2308 H2324 0.931 . S
C2309 C2308 1.391 . S
C2309 C2313 1.376 . S
C2310 C2308 1.394 . S
C2310 C2311 1.369 . S
C2310 C2314 1.531 . S
C2311 C2310 1.369 . S
C2311 C2312 1.410 . S
C2311 C2319 1.503 . S
C2312 C2311 1.410 . S
C2312 C2313 1.392 . S
C2312 C2315 1.511 . S
C2313 C2309 1.376 . S
C2313 C2312 1.392 . S
C2313 H2325 0.929 . S
C2314 C2310 1.531 . S
C2314 H2326 0.960 . S
C2314 H2327 0.962 . S
C2314 H2328 0.960 . S
C2315 C2312 1.511 . S
C2315 H2329 0.961 . S
C2315 H2330 0.961 . S
C2315 H2331 0.961 . S
C2316 C2317 1.370 . S
C2316 C2318 1.363 . S
C2316 H2332 0.931 . S
C2317 C2316 1.370 . S
C2317 C2321 1.408 . S
C2318 C2316 1.363 . S
C2318 C2319 1.370 . S
C2318 C2322 1.524 . S
C2319 C2311 1.503 . S
C2319 C2318 1.370 . S
C2319 C2320 1.403 . S
C2320 C2319 1.403 . S
C2320 C2321 1.404 . S
C2320 C2323 1.539 . S
C2321 C2317 1.408 . S
C2321 C2320 1.404 . S
C2321 H2333 0.930 . S
C2322 C2318 1.524 . S
C2322 H2334 0.956 . S
C2322 H2335 0.961 . S
C2322 H2336 0.961 . S
C2323 C2320 1.539 . S
C2323 H2337 0.958 . S
C2323 H2338 0.961 . S
C2323 H2339 0.960 . S
H2324 C2308 0.931 . S
H2325 C2313 0.929 . S
H2326 C2314 0.960 . S
H2327 C2314 0.962 . S
H2328 C2314 0.960 . S
H2329 C2315 0.961 . S
H2330 C2315 0.961 . S
H2331 C2315 0.961 . S
H2332 C2316 0.931 . S
H2333 C2321 0.930 . S
H2334 C2322 0.956 . S
H2335 C2322 0.961 . S
H2336 C2322 0.961 . S
H2337 C2323 0.958 . S
H2338 C2323 0.961 . S
H2339 C2323 0.960 . S
C2340 C2341 1.391 . S
C2340 C2342 1.394 . S
C2340 H2356 0.931 . S
C2341 C2340 1.391 . S
C2341 C2345 1.376 . S
C2342 C2340 1.394 . S
C2342 C2343 1.369 . S
C2342 C2346 1.531 . S
C2343 C2342 1.369 . S
C2343 C2344 1.410 . S
C2343 C2351 1.503 . S
C2344 C2343 1.410 . S
C2344 C2345 1.392 . S
C2344 C2347 1.511 . S
C2345 C2341 1.376 . S
C2345 C2344 1.392 . S
C2345 H2357 0.929 . S
C2346 C2342 1.531 . S
C2346 H2358 0.960 . S
C2346 H2359 0.962 . S
C2346 H2360 0.960 . S
C2347 C2344 1.511 . S
C2347 H2361 0.961 . S
C2347 H2362 0.961 . S
C2347 H2363 0.961 . S
C2348 C2349 1.370 . S
C2348 C2350 1.363 . S
C2348 H2364 0.931 . S
C2349 C2348 1.370 . S
C2349 C2353 1.408 . S
C2350 C2348 1.363 . S
C2350 C2351 1.370 . S
C2350 C2354 1.524 . S
C2351 C2343 1.503 . S
C2351 C2350 1.370 . S
C2351 C2352 1.403 . S
C2352 C2351 1.403 . S
C2352 C2353 1.404 . S
C2352 C2355 1.539 . S
C2353 C2349 1.408 . S
C2353 C2352 1.404 . S
C2353 H2365 0.930 . S
C2354 C2350 1.524 . S
C2354 H2366 0.956 . S
C2354 H2367 0.961 . S
C2354 H2368 0.961 . S
C2355 C2352 1.539 . S
C2355 H2369 0.958 . S
C2355 H2370 0.961 . S
C2355 H2371 0.960 . S
H2356 C2340 0.931 . S
H2357 C2345 0.929 . S
H2358 C2346 0.960 . S
H2359 C2346 0.962 . S
H2360 C2346 0.960 . S
H2361 C2347 0.961 . S
H2362 C2347 0.961 . S
H2363 C2347 0.961 . S
H2364 C2348 0.931 . S
H2365 C2353 0.930 . S
H2366 C2354 0.956 . S
H2367 C2354 0.961 . S
H2368 C2354 0.961 . S
H2369 C2355 0.958 . S
H2370 C2355 0.961 . S
H2371 C2355 0.960 . S
C2372 C2373 1.391 . S
C2372 C2374 1.394 . S
C2372 H2388 0.931 . S
C2373 C2372 1.391 . S
C2373 C2377 1.376 . S
C2374 C2372 1.394 . S
C2374 C2375 1.369 . S
C2374 C2378 1.531 . S
C2375 C2374 1.369 . S
C2375 C2376 1.410 . S
C2375 C2383 1.503 . S
C2376 C2375 1.410 . S
C2376 C2377 1.392 . S
C2376 C2379 1.511 . S
C2377 C2373 1.376 . S
C2377 C2376 1.392 . S
C2377 H2389 0.929 . S
C2378 C2374 1.531 . S
C2378 H2390 0.960 . S
C2378 H2391 0.962 . S
C2378 H2392 0.960 . S
C2379 C2376 1.511 . S
C2379 H2393 0.961 . S
C2379 H2394 0.961 . S
C2379 H2395 0.961 . S
C2380 C2381 1.370 . S
C2380 C2382 1.363 . S
C2380 H2396 0.931 . S
C2381 C2380 1.370 . S
C2381 C2385 1.408 . S
C2382 C2380 1.363 . S
C2382 C2383 1.370 . S
C2382 C2386 1.524 . S
C2383 C2375 1.503 . S
C2383 C2382 1.370 . S
C2383 C2384 1.403 . S
C2384 C2383 1.403 . S
C2384 C2385 1.404 . S
C2384 C2387 1.539 . S
C2385 C2381 1.408 . S
C2385 C2384 1.404 . S
C2385 H2397 0.930 . S
C2386 C2382 1.524 . S
C2386 H2398 0.956 . S
C2386 H2399 0.961 . S
C2386 H2400 0.961 . S
C2387 C2384 1.539 . S
C2387 H2401 0.958 . S
C2387 H2402 0.961 . S
C2387 H2403 0.960 . S
H2388 C2372 0.931 . S
H2389 C2377 0.929 . S
H2390 C2378 0.960 . S
H2391 C2378 0.962 . S
H2392 C2378 0.960 . S
H2393 C2379 0.961 . S
H2394 C2379 0.961 . S
H2395 C2379 0.961 . S
H2396 C2380 0.931 . S
H2397 C2385 0.930 . S
H2398 C2386 0.956 . S
H2399 C2386 0.961 . S
H2400 C2386 0.961 . S
H2401 C2387 0.958 . S
H2402 C2387 0.961 . S
H2403 C2387 0.960 . S
C2404 C2405 1.391 . S
C2404 C2406 1.394 . S
C2404 H2420 0.931 . S
C2405 C2404 1.391 . S
C2405 C2409 1.376 . S
C2406 C2404 1.394 . S
C2406 C2407 1.369 . S
C2406 C2410 1.531 . S
C2407 C2406 1.369 . S
C2407 C2408 1.410 . S
C2407 C2415 1.503 . S
C2408 C2407 1.410 . S
C2408 C2409 1.392 . S
C2408 C2411 1.511 . S
C2409 C2405 1.376 . S
C2409 C2408 1.392 . S
C2409 H2421 0.929 . S
C2410 C2406 1.531 . S
C2410 H2422 0.960 . S
C2410 H2423 0.962 . S
C2410 H2424 0.960 . S
C2411 C2408 1.511 . S
C2411 H2425 0.961 . S
C2411 H2426 0.961 . S
C2411 H2427 0.961 . S
C2412 C2413 1.370 . S
C2412 C2414 1.363 . S
C2412 H2428 0.931 . S
C2413 C2412 1.370 . S
C2413 C2417 1.408 . S
C2414 C2412 1.363 . S
C2414 C2415 1.370 . S
C2414 C2418 1.524 . S
C2415 C2407 1.503 . S
C2415 C2414 1.370 . S
C2415 C2416 1.403 . S
C2416 C2415 1.403 . S
C2416 C2417 1.404 . S
C2416 C2419 1.539 . S
C2417 C2413 1.408 . S
C2417 C2416 1.404 . S
C2417 H2429 0.930 . S
C2418 C2414 1.524 . S
C2418 H2430 0.956 . S
C2418 H2431 0.961 . S
C2418 H2432 0.961 . S
C2419 C2416 1.539 . S
C2419 H2433 0.958 . S
C2419 H2434 0.961 . S
C2419 H2435 0.960 . S
H2420 C2404 0.931 . S
H2421 C2409 0.929 . S
H2422 C2410 0.960 . S
H2423 C2410 0.962 . S
H2424 C2410 0.960 . S
H2425 C2411 0.961 . S
H2426 C2411 0.961 . S
H2427 C2411 0.961 . S
H2428 C2412 0.931 . S
H2429 C2417 0.930 . S
H2430 C2418 0.956 . S
H2431 C2418 0.961 . S
H2432 C2418 0.961 . S
H2433 C2419 0.958 . S
H2434 C2419 0.961 . S
H2435 C2419 0.960 . S
C2436 C2437 1.391 . S
C2436 C2438 1.394 . S
C2436 H2452 0.931 . S
C2437 C2436 1.391 . S
C2437 C2441 1.376 . S
C2438 C2436 1.394 . S
C2438 C2439 1.369 . S
C2438 C2442 1.531 . S
C2439 C2438 1.369 . S
C2439 C2440 1.410 . S
C2439 C2447 1.503 . S
C2440 C2439 1.410 . S
C2440 C2441 1.392 . S
C2440 C2443 1.511 . S
C2441 C2437 1.376 . S
C2441 C2440 1.392 . S
C2441 H2453 0.929 . S
C2442 C2438 1.531 . S
C2442 H2454 0.960 . S
C2442 H2455 0.962 . S
C2442 H2456 0.960 . S
C2443 C2440 1.511 . S
C2443 H2457 0.961 . S
C2443 H2458 0.961 . S
C2443 H2459 0.961 . S
C2444 C2445 1.370 . S
C2444 C2446 1.363 . S
C2444 H2460 0.931 . S
C2445 C2444 1.370 . S
C2445 C2449 1.408 . S
C2446 C2444 1.363 . S
C2446 C2447 1.370 . S
C2446 C2450 1.524 . S
C2447 C2439 1.503 . S
C2447 C2446 1.370 . S
C2447 C2448 1.403 . S
C2448 C2447 1.403 . S
C2448 C2449 1.404 . S
C2448 C2451 1.539 . S
C2449 C2445 1.408 . S
C2449 C2448 1.404 . S
C2449 H2461 0.930 . S
C2450 C2446 1.524 . S
C2450 H2462 0.956 . S
C2450 H2463 0.961 . S
C2450 H2464 0.961 . S
C2451 C2448 1.539 . S
C2451 H2465 0.958 . S
C2451 H2466 0.961 . S
C2451 H2467 0.960 . S
H2452 C2436 0.931 . S
H2453 C2441 0.929 . S
H2454 C2442 0.960 . S
H2455 C2442 0.962 . S
H2456 C2442 0.960 . S
H2457 C2443 0.961 . S
H2458 C2443 0.961 . S
H2459 C2443 0.961 . S
H2460 C2444 0.931 . S
H2461 C2449 0.930 . S
H2462 C2450 0.956 . S
H2463 C2450 0.961 . S
H2464 C2450 0.961 . S
H2465 C2451 0.958 . S
H2466 C2451 0.961 . S
H2467 C2451 0.960 . S
C2468 C2469 1.391 . S
C2468 C2470 1.394 . S
C2468 H2484 0.931 . S
C2469 C2468 1.391 . S
C2469 C2473 1.376 . S
C2470 C2468 1.394 . S
C2470 C2471 1.369 . S
C2470 C2474 1.531 . S
C2471 C2470 1.369 . S
C2471 C2472 1.410 . S
C2471 C2479 1.503 . S
C2472 C2471 1.410 . S
C2472 C2473 1.392 . S
C2472 C2475 1.511 . S
C2473 C2469 1.376 . S
C2473 C2472 1.392 . S
C2473 H2485 0.929 . S
C2474 C2470 1.531 . S
C2474 H2486 0.960 . S
C2474 H2487 0.962 . S
C2474 H2488 0.960 . S
C2475 C2472 1.511 . S
C2475 H2489 0.961 . S
C2475 H2490 0.961 . S
C2475 H2491 0.961 . S
C2476 C2477 1.370 . S
C2476 C2478 1.363 . S
C2476 H2492 0.931 . S
C2477 C2476 1.370 . S
C2477 C2481 1.408 . S
C2478 C2476 1.363 . S
C2478 C2479 1.370 . S
C2478 C2482 1.524 . S
C2479 C2471 1.503 . S
C2479 C2478 1.370 . S
C2479 C2480 1.403 . S
C2480 C2479 1.403 . S
C2480 C2481 1.404 . S
C2480 C2483 1.539 . S
C2481 C2477 1.408 . S
C2481 C2480 1.404 . S
C2481 H2493 0.930 . S
C2482 C2478 1.524 . S
C2482 H2494 0.956 . S
C2482 H2495 0.961 . S
C2482 H2496 0.961 . S
C2483 C2480 1.539 . S
C2483 H2497 0.958 . S
C2483 H2498 0.961 . S
C2483 H2499 0.960 . S
H2484 C2468 0.931 . S
H2485 C2473 0.929 . S
H2486 C2474 0.960 . S
H2487 C2474 0.962 . S
H2488 C2474 0.960 . S
H2489 C2475 0.961 . S
H2490 C2475 0.961 . S
H2491 C2475 0.961 . S
H2492 C2476 0.931 . S
H2493 C2481 0.930 . S
H2494 C2482 0.956 . S
H2495 C2482 0.961 . S
H2496 C2482 0.961 . S
H2497 C2483 0.958 . S
H2498 C2483 0.961 . S
H2499 C2483 0.960 . S
C2500 C2501 1.391 . S
C2500 C2502 1.394 . S
C2500 H2516 0.931 . S
C2501 C2500 1.391 . S
C2501 C2505 1.376 . S
C2502 C2500 1.394 . S
C2502 C2503 1.369 . S
C2502 C2506 1.531 . S
C2503 C2502 1.369 . S
C2503 C2504 1.410 . S
C2503 C2511 1.503 . S
C2504 C2503 1.410 . S
C2504 C2505 1.392 . S
C2504 C2507 1.511 . S
C2505 C2501 1.376 . S
C2505 C2504 1.392 . S
C2505 H2517 0.929 . S
C2506 C2502 1.531 . S
C2506 H2518 0.960 . S
C2506 H2519 0.962 . S
C2506 H2520 0.960 . S
C2507 C2504 1.511 . S
C2507 H2521 0.961 . S
C2507 H2522 0.961 . S
C2507 H2523 0.961 . S
C2508 C2509 1.370 . S
C2508 C2510 1.363 . S
C2508 H2524 0.931 . S
C2509 C2508 1.370 . S
C2509 C2513 1.408 . S
C2510 C2508 1.363 . S
C2510 C2511 1.370 . S
C2510 C2514 1.524 . S
C2511 C2503 1.503 . S
C2511 C2510 1.370 . S
C2511 C2512 1.403 . S
C2512 C2511 1.403 . S
C2512 C2513 1.404 . S
C2512 C2515 1.539 . S
C2513 C2509 1.408 . S
C2513 C2512 1.404 . S
C2513 H2525 0.930 . S
C2514 C2510 1.524 . S
C2514 H2526 0.956 . S
C2514 H2527 0.961 . S
C2514 H2528 0.961 . S
C2515 C2512 1.539 . S
C2515 H2529 0.958 . S
C2515 H2530 0.961 . S
C2515 H2531 0.960 . S
H2516 C2500 0.931 . S
H2517 C2505 0.929 . S
H2518 C2506 0.960 . S
H2519 C2506 0.962 . S
H2520 C2506 0.960 . S
H2521 C2507 0.961 . S
H2522 C2507 0.961 . S
H2523 C2507 0.961 . S
H2524 C2508 0.931 . S
H2525 C2513 0.930 . S
H2526 C2514 0.956 . S
H2527 C2514 0.961 . S
H2528 C2514 0.961 . S
H2529 C2515 0.958 . S
H2530 C2515 0.961 . S
H2531 C2515 0.960 . S
C2532 C2533 1.391 . S
C2532 C2534 1.394 . S
C2532 H2548 0.931 . S
C2533 C2532 1.391 . S
C2533 C2537 1.376 . S
C2534 C2532 1.394 . S
C2534 C2535 1.369 . S
C2534 C2538 1.531 . S
C2535 C2534 1.369 . S
C2535 C2536 1.410 . S
C2535 C2543 1.503 . S
C2536 C2535 1.410 . S
C2536 C2537 1.392 . S
C2536 C2539 1.511 . S
C2537 C2533 1.376 . S
C2537 C2536 1.392 . S
C2537 H2549 0.929 . S
C2538 C2534 1.531 . S
C2538 H2550 0.960 . S
C2538 H2551 0.962 . S
C2538 H2552 0.960 . S
C2539 C2536 1.511 . S
C2539 H2553 0.961 . S
C2539 H2554 0.961 . S
C2539 H2555 0.961 . S
C2540 C2541 1.370 . S
C2540 C2542 1.363 . S
C2540 H2556 0.931 . S
C2541 C2540 1.370 . S
C2541 C2545 1.408 . S
C2542 C2540 1.363 . S
C2542 C2543 1.370 . S
C2542 C2546 1.524 . S
C2543 C2535 1.503 . S
C2543 C2542 1.370 . S
C2543 C2544 1.403 . S
C2544 C2543 1.403 . S
C2544 C2545 1.404 . S
C2544 C2547 1.539 . S
C2545 C2541 1.408 . S
C2545 C2544 1.404 . S
C2545 H2557 0.930 . S
C2546 C2542 1.524 . S
C2546 H2558 0.956 . S
C2546 H2559 0.961 . S
C2546 H2560 0.961 . S
C2547 C2544 1.539 . S
C2547 H2561 0.958 . S
C2547 H2562 0.961 . S
C2547 H2563 0.960 . S
H2548 C2532 0.931 . S
H2549 C2537 0.929 . S
H2550 C2538 0.960 . S
H2551 C2538 0.962 . S
H2552 C2538 0.960 . S
H2553 C2539 0.961 . S
H2554 C2539 0.961 . S
H2555 C2539 0.961 . S
H2556 C2540 0.931 . S
H2557 C2545 0.930 . S
H2558 C2546 0.956 . S
H2559 C2546 0.961 . S
H2560 C2546 0.961 . S
H2561 C2547 0.958 . S
H2562 C2547 0.961 . S
H2563 C2547 0.960 . S
C2564 C2565 1.391 . S
C2564 C2566 1.394 . S
C2564 H2580 0.931 . S
C2565 C2564 1.391 . S
C2565 C2569 1.376 . S
C2566 C2564 1.394 . S
C2566 C2567 1.369 . S
C2566 C2570 1.531 . S
C2567 C2566 1.369 . S
C2567 C2568 1.410 . S
C2567 C2575 1.503 . S
C2568 C2567 1.410 . S
C2568 C2569 1.392 . S
C2568 C2571 1.511 . S
C2569 C2565 1.376 . S
C2569 C2568 1.392 . S
C2569 H2581 0.929 . S
C2570 C2566 1.531 . S
C2570 H2582 0.960 . S
C2570 H2583 0.962 . S
C2570 H2584 0.960 . S
C2571 C2568 1.511 . S
C2571 H2585 0.961 . S
C2571 H2586 0.961 . S
C2571 H2587 0.961 . S
C2572 C2573 1.370 . S
C2572 C2574 1.363 . S
C2572 H2588 0.931 . S
C2573 C2572 1.370 . S
C2573 C2577 1.408 . S
C2574 C2572 1.363 . S
C2574 C2575 1.370 . S
C2574 C2578 1.524 . S
C2575 C2567 1.503 . S
C2575 C2574 1.370 . S
C2575 C2576 1.403 . S
C2576 C2575 1.403 . S
C2576 C2577 1.404 . S
C2576 C2579 1.539 . S
C2577 C2573 1.408 . S
C2577 C2576 1.404 . S
C2577 H2589 0.930 . S
C2578 C2574 1.524 . S
C2578 H2590 0.956 . S
C2578 H2591 0.961 . S
C2578 H2592 0.961 . S
C2579 C2576 1.539 . S
C2579 H2593 0.958 . S
C2579 H2594 0.961 . S
C2579 H2595 0.960 . S
H2580 C2564 0.931 . S
H2581 C2569 0.929 . S
H2582 C2570 0.960 . S
H2583 C2570 0.962 . S
H2584 C2570 0.960 . S
H2585 C2571 0.961 . S
H2586 C2571 0.961 . S
H2587 C2571 0.961 . S
H2588 C2572 0.931 . S
H2589 C2577 0.930 . S
H2590 C2578 0.956 . S
H2591 C2578 0.961 . S
H2592 C2578 0.961 . S
H2593 C2579 0.958 . S
H2594 C2579 0.961 . S
H2595 C2579 0.960 . S
C2596 C2597 1.391 . S
C2596 C2598 1.394 . S
C2596 H2612 0.931 . S
C2597 C2596 1.391 . S
C2597 C2601 1.376 . S
C2598 C2596 1.394 . S
C2598 C2599 1.369 . S
C2598 C2602 1.531 . S
C2599 C2598 1.369 . S
C2599 C2600 1.410 . S
C2599 C2607 1.503 . S
C2600 C2599 1.410 . S
C2600 C2601 1.392 . S
C2600 C2603 1.511 . S
C2601 C2597 1.376 . S
C2601 C2600 1.392 . S
C2601 H2613 0.929 . S
C2602 C2598 1.531 . S
C2602 H2614 0.960 . S
C2602 H2615 0.962 . S
C2602 H2616 0.960 . S
C2603 C2600 1.511 . S
C2603 H2617 0.961 . S
C2603 H2618 0.961 . S
C2603 H2619 0.961 . S
C2604 C2605 1.370 . S
C2604 C2606 1.363 . S
C2604 H2620 0.931 . S
C2605 C2604 1.370 . S
C2605 C2609 1.408 . S
C2606 C2604 1.363 . S
C2606 C2607 1.370 . S
C2606 C2610 1.524 . S
C2607 C2599 1.503 . S
C2607 C2606 1.370 . S
C2607 C2608 1.403 . S
C2608 C2607 1.403 . S
C2608 C2609 1.404 . S
C2608 C2611 1.539 . S
C2609 C2605 1.408 . S
C2609 C2608 1.404 . S
C2609 H2621 0.930 . S
C2610 C2606 1.524 . S
C2610 H2622 0.956 . S
C2610 H2623 0.961 . S
C2610 H2624 0.961 . S
C2611 C2608 1.539 . S
C2611 H2625 0.958 . S
C2611 H2626 0.961 . S
C2611 H2627 0.960 . S
H2612 C2596 0.931 . S
H2613 C2601 0.929 . S
H2614 C2602 0.960 . S
H2615 C2602 0.962 . S
H2616 C2602 0.960 . S
H2617 C2603 0.961 . S
H2618 C2603 0.961 . S
H2619 C2603 0.961 . S
H2620 C2604 0.931 . S
H2621 C2609 0.930 . S
H2622 C2610 0.956 . S
H2623 C2610 0.961 . S
H2624 C2610 0.961 . S
H2625 C2611 0.958 . S
H2626 C2611 0.961 . S
H2627 C2611 0.960 . S
C2628 C2629 1.391 . S
C2628 C2630 1.394 . S
C2628 H2644 0.931 . S
C2629 C2628 1.391 . S
C2629 C2633 1.376 . S
C2630 C2628 1.394 . S
C2630 C2631 1.369 . S
C2630 C2634 1.531 . S
C2631 C2630 1.369 . S
C2631 C2632 1.410 . S
C2631 C2639 1.503 . S
C2632 C2631 1.410 . S
C2632 C2633 1.392 . S
C2632 C2635 1.511 . S
C2633 C2629 1.376 . S
C2633 C2632 1.392 . S
C2633 H2645 0.929 . S
C2634 C2630 1.531 . S
C2634 H2646 0.960 . S
C2634 H2647 0.962 . S
C2634 H2648 0.960 . S
C2635 C2632 1.511 . S
C2635 H2649 0.961 . S
C2635 H2650 0.961 . S
C2635 H2651 0.961 . S
C2636 C2637 1.370 . S
C2636 C2638 1.363 . S
C2636 H2652 0.931 . S
C2637 C2636 1.370 . S
C2637 C2641 1.408 . S
C2638 C2636 1.363 . S
C2638 C2639 1.370 . S
C2638 C2642 1.524 . S
C2639 C2631 1.503 . S
C2639 C2638 1.370 . S
C2639 C2640 1.403 . S
C2640 C2639 1.403 . S
C2640 C2641 1.404 . S
C2640 C2643 1.539 . S
C2641 C2637 1.408 . S
C2641 C2640 1.404 . S
C2641 H2653 0.930 . S
C2642 C2638 1.524 . S
C2642 H2654 0.956 . S
C2642 H2655 0.961 . S
C2642 H2656 0.961 . S
C2643 C2640 1.539 . S
C2643 H2657 0.958 . S
C2643 H2658 0.961 . S
C2643 H2659 0.960 . S
H2644 C2628 0.931 . S
H2645 C2633 0.929 . S
H2646 C2634 0.960 . S
H2647 C2634 0.962 . S
H2648 C2634 0.960 . S
H2649 C2635 0.961 . S
H2650 C2635 0.961 . S
H2651 C2635 0.961 . S
H2652 C2636 0.931 . S
H2653 C2641 0.930 . S
H2654 C2642 0.956 . S
H2655 C2642 0.961 . S
H2656 C2642 0.961 . S
H2657 C2643 0.958 . S
H2658 C2643 0.961 . S
H2659 C2643 0.960 . S
C2660 C2661 1.391 . S
C2660 C2662 1.394 . S
C2660 H2676 0.931 . S
C2661 C2660 1.391 . S
C2661 C2665 1.376 . S
C2662 C2660 1.394 . S
C2662 C2663 1.369 . S
C2662 C2666 1.531 . S
C2663 C2662 1.369 . S
C2663 C2664 1.410 . S
C2663 C2671 1.503 . S
C2664 C2663 1.410 . S
C2664 C2665 1.392 . S
C2664 C2667 1.511 . S
C2665 C2661 1.376 . S
C2665 C2664 1.392 . S
C2665 H2677 0.929 . S
C2666 C2662 1.531 . S
C2666 H2678 0.960 . S
C2666 H2679 0.962 . S
C2666 H2680 0.960 . S
C2667 C2664 1.511 . S
C2667 H2681 0.961 . S
C2667 H2682 0.961 . S
C2667 H2683 0.961 . S
C2668 C2669 1.370 . S
C2668 C2670 1.363 . S
C2668 H2684 0.931 . S
C2669 C2668 1.370 . S
C2669 C2673 1.408 . S
C2670 C2668 1.363 . S
C2670 C2671 1.370 . S
C2670 C2674 1.524 . S
C2671 C2663 1.503 . S
C2671 C2670 1.370 . S
C2671 C2672 1.403 . S
C2672 C2671 1.403 . S
C2672 C2673 1.404 . S
C2672 C2675 1.539 . S
C2673 C2669 1.408 . S
C2673 C2672 1.404 . S
C2673 H2685 0.930 . S
C2674 C2670 1.524 . S
C2674 H2686 0.956 . S
C2674 H2687 0.961 . S
C2674 H2688 0.961 . S
C2675 C2672 1.539 . S
C2675 H2689 0.958 . S
C2675 H2690 0.961 . S
C2675 H2691 0.960 . S
H2676 C2660 0.931 . S
H2677 C2665 0.929 . S
H2678 C2666 0.960 . S
H2679 C2666 0.962 . S
H2680 C2666 0.960 . S
H2681 C2667 0.961 . S
H2682 C2667 0.961 . S
H2683 C2667 0.961 . S
H2684 C2668 0.931 . S
H2685 C2673 0.930 . S
H2686 C2674 0.956 . S
H2687 C2674 0.961 . S
H2688 C2674 0.961 . S
H2689 C2675 0.958 . S
H2690 C2675 0.961 . S
H2691 C2675 0.960 . S
C2692 C2693 1.391 . S
C2692 C2694 1.394 . S
C2692 H2708 0.931 . S
C2693 C2692 1.391 . S
C2693 C2697 1.376 . S
C2694 C2692 1.394 . S
C2694 C2695 1.369 . S
C2694 C2698 1.531 . S
C2695 C2694 1.369 . S
C2695 C2696 1.410 . S
C2695 C2703 1.503 . S
C2696 C2695 1.410 . S
C2696 C2697 1.392 . S
C2696 C2699 1.511 . S
C2697 C2693 1.376 . S
C2697 C2696 1.392 . S
C2697 H2709 0.929 . S
C2698 C2694 1.531 . S
C2698 H2710 0.960 . S
C2698 H2711 0.962 . S
C2698 H2712 0.960 . S
C2699 C2696 1.511 . S
C2699 H2713 0.961 . S
C2699 H2714 0.961 . S
C2699 H2715 0.961 . S
C2700 C2701 1.370 . S
C2700 C2702 1.363 . S
C2700 H2716 0.931 . S
C2701 C2700 1.370 . S
C2701 C2705 1.408 . S
C2702 C2700 1.363 . S
C2702 C2703 1.370 . S
C2702 C2706 1.524 . S
C2703 C2695 1.503 . S
C2703 C2702 1.370 . S
C2703 C2704 1.403 . S
C2704 C2703 1.403 . S
C2704 C2705 1.404 . S
C2704 C2707 1.539 . S
C2705 C2701 1.408 . S
C2705 C2704 1.404 . S
C2705 H2717 0.930 . S
C2706 C2702 1.524 . S
C2706 H2718 0.956 . S
C2706 H2719 0.961 . S
C2706 H2720 0.961 . S
C2707 C2704 1.539 . S
C2707 H2721 0.958 . S
C2707 H2722 0.961 . S
C2707 H2723 0.960 . S
H2708 C2692 0.931 . S
H2709 C2697 0.929 . S
H2710 C2698 0.960 . S
H2711 C2698 0.962 . S
H2712 C2698 0.960 . S
H2713 C2699 0.961 . S
H2714 C2699 0.961 . S
H2715 C2699 0.961 . S
H2716 C2700 0.931 . S
H2717 C2705 0.930 . S
H2718 C2706 0.956 . S
H2719 C2706 0.961 . S
H2720 C2706 0.961 . S
H2721 C2707 0.958 . S
H2722 C2707 0.961 . S
H2723 C2707 0.960 . S
C2724 C2725 1.391 . S
C2724 C2726 1.394 . S
C2724 H2740 0.931 . S
C2725 C2724 1.391 . S
C2725 C2729 1.376 . S
C2726 C2724 1.394 . S
C2726 C2727 1.369 . S
C2726 C2730 1.531 . S
C2727 C2726 1.369 . S
C2727 C2728 1.396 1_455 S
C2727 C2735 1.503 1_455 S
C2728 C2727 1.396 1_655 S
C2728 C2729 1.363 1_655 S
C2728 C2731 1.554 . S
C2729 C2725 1.376 . S
C2729 C2728 1.363 1_455 S
C2729 H2741 0.929 . S
C2730 C2726 1.531 . S
C2730 H2742 0.960 . S
C2730 H2743 0.962 . S
C2730 H2744 0.960 . S
C2731 C2728 1.554 . S
C2731 H2745 0.961 . S
C2731 H2746 0.961 . S
C2731 H2747 0.961 . S
C2732 C2733 1.370 . S
C2732 C2734 1.363 1_655 S
C2732 H2748 0.936 . S
C2733 C2732 1.370 . S
C2733 C2737 1.408 . S
C2734 C2732 1.363 1_455 S
C2734 C2735 1.370 1_455 S
C2734 C2738 1.524 . S
C2735 C2727 1.503 1_655 S
C2735 C2734 1.370 1_655 S
C2735 C2736 1.403 . S
C2736 C2735 1.403 . S
C2736 C2737 1.404 . S
C2736 C2739 1.539 . S
C2737 C2733 1.408 . S
C2737 C2736 1.404 . S
C2737 H2749 0.930 . S
C2738 C2734 1.524 . S
C2738 H2750 0.956 . S
C2738 H2751 0.961 . S
C2738 H2752 0.961 . S
C2739 C2736 1.539 . S
C2739 H2753 0.958 . S
C2739 H2754 0.961 . S
C2739 H2755 0.960 . S
H2740 C2724 0.931 . S
H2741 C2729 0.929 . S
H2742 C2730 0.960 . S
H2743 C2730 0.962 . S
H2744 C2730 0.960 . S
H2745 C2731 0.961 . S
H2746 C2731 0.961 . S
H2747 C2731 0.961 . S
H2748 C2732 0.936 . S
H2749 C2737 0.930 . S
H2750 C2738 0.956 . S
H2751 C2738 0.961 . S
H2752 C2738 0.961 . S
H2753 C2739 0.958 . S
H2754 C2739 0.961 . S
H2755 C2739 0.960 . S
C2756 C2757 1.391 . S
C2756 C2758 1.394 . S
C2756 H2772 0.931 . S
C2757 C2756 1.391 . S
C2757 C2761 1.376 . S
C2758 C2756 1.394 . S
C2758 C2759 1.369 . S
C2758 C2762 1.531 . S
C2759 C2758 1.369 . S
C2759 C2760 1.410 . S
C2759 C2767 1.503 . S
C2760 C2759 1.410 . S
C2760 C2761 1.392 . S
C2760 C2763 1.511 . S
C2761 C2757 1.376 . S
C2761 C2760 1.392 . S
C2761 H2773 0.929 . S
C2762 C2758 1.531 . S
C2762 H2774 0.960 . S
C2762 H2775 0.962 . S
C2762 H2776 0.960 . S
C2763 C2760 1.511 . S
C2763 H2777 0.961 . S
C2763 H2778 0.961 . S
C2763 H2779 0.961 . S
C2764 C2765 1.370 . S
C2764 C2766 1.363 . S
C2764 H2780 0.931 . S
C2765 C2764 1.370 . S
C2765 C2769 1.408 . S
C2766 C2764 1.363 . S
C2766 C2767 1.370 . S
C2766 C2770 1.524 . S
C2767 C2759 1.503 . S
C2767 C2766 1.370 . S
C2767 C2768 1.403 . S
C2768 C2767 1.403 . S
C2768 C2769 1.404 . S
C2768 C2771 1.539 . S
C2769 C2765 1.408 . S
C2769 C2768 1.404 . S
C2769 H2781 0.930 . S
C2770 C2766 1.524 . S
C2770 H2782 0.956 . S
C2770 H2783 0.961 . S
C2770 H2784 0.961 . S
C2771 C2768 1.539 . S
C2771 H2785 0.958 . S
C2771 H2786 0.961 . S
C2771 H2787 0.960 . S
H2772 C2756 0.931 . S
H2773 C2761 0.929 . S
H2774 C2762 0.960 . S
H2775 C2762 0.962 . S
H2776 C2762 0.960 . S
H2777 C2763 0.961 . S
H2778 C2763 0.961 . S
H2779 C2763 0.961 . S
H2780 C2764 0.931 . S
H2781 C2769 0.930 . S
H2782 C2770 0.956 . S
H2783 C2770 0.961 . S
H2784 C2770 0.961 . S
H2785 C2771 0.958 . S
H2786 C2771 0.961 . S
H2787 C2771 0.960 . S
C2788 C2789 1.391 . S
C2788 C2790 1.394 . S
C2788 H2804 0.931 . S
C2789 C2788 1.391 . S
C2789 C2793 1.376 . S
C2790 C2788 1.394 . S
C2790 C2791 1.369 . S
C2790 C2794 1.531 . S
C2791 C2790 1.369 . S
C2791 C2792 1.410 . S
C2791 C2799 1.503 1_545 S
C2792 C2791 1.410 . S
C2792 C2793 1.392 . S
C2792 C2795 1.511 1_545 S
C2793 C2789 1.376 . S
C2793 C2792 1.392 . S
C2793 H2805 0.929 . S
C2794 C2790 1.531 . S
C2794 H2806 0.960 . S
C2794 H2807 0.962 . S
C2794 H2808 0.960 . S
C2795 C2792 1.511 1_565 S
C2795 H2809 0.961 . S
C2795 H2810 0.961 . S
C2795 H2811 0.961 1_565 S
C2796 C2797 1.370 . S
C2796 C2798 1.363 . S
C2796 H2812 0.931 . S
C2797 C2796 1.370 . S
C2797 C2801 1.408 . S
C2798 C2796 1.363 . S
C2798 C2799 1.370 . S
C2798 C2802 1.524 . S
C2799 C2791 1.503 1_565 S
C2799 C2798 1.370 . S
C2799 C2800 1.403 1_565 S
C2800 C2799 1.403 1_545 S
C2800 C2801 1.404 1_545 S
C2800 C2803 1.539 . S
C2801 C2797 1.408 . S
C2801 C2800 1.404 1_565 S
C2801 H2813 0.928 1_565 S
C2802 C2798 1.524 . S
C2802 H2814 0.956 . S
C2802 H2815 0.961 . S
C2802 H2816 0.961 . S
C2803 C2800 1.539 . S
C2803 H2817 0.958 . S
C2803 H2818 0.961 . S
C2803 H2819 0.960 . S
H2804 C2788 0.931 . S
H2805 C2793 0.929 . S
H2806 C2794 0.960 . S
H2807 C2794 0.962 . S
H2808 C2794 0.960 . S
H2809 C2795 0.961 . S
H2810 C2795 0.961 . S
H2811 C2795 0.961 1_545 S
H2812 C2796 0.931 . S
H2813 C2801 0.928 1_545 S
H2814 C2802 0.956 . S
H2815 C2802 0.961 . S
H2816 C2802 0.961 . S
H2817 C2803 0.958 . S
H2818 C2803 0.961 . S
H2819 C2803 0.960 . S
C2820 C2821 1.391 . S
C2820 C2822 1.394 . S
C2820 H2836 0.931 . S
C2821 C2820 1.391 . S
C2821 C2825 1.376 . S
C2822 C2820 1.394 . S
C2822 C2823 1.369 . S
C2822 C2826 1.531 . S
C2823 C2822 1.369 . S
C2823 C2824 1.410 1_565 S
C2823 C2831 1.503 1_564 S
C2824 C2823 1.410 1_545 S
C2824 C2825 1.392 1_545 S
C2824 C2827 1.511 . S
C2825 C2821 1.376 . S
C2825 C2824 1.392 1_565 S
C2825 H2837 0.929 . S
C2826 C2822 1.531 . S
C2826 H2838 0.960 . S
C2826 H2839 0.962 . S
C2826 H2840 0.960 . S
C2827 C2824 1.511 . S
C2827 H2841 0.961 . S
C2827 H2842 0.961 1_554 S
C2827 H2843 0.961 . S
C2828 C2829 1.370 . S
C2828 C2830 1.363 1_545 S
C2828 H2844 0.931 . S
C2829 C2828 1.370 . S
C2829 C2833 1.408 . S
C2830 C2828 1.363 1_565 S
C2830 C2831 1.370 1_565 S
C2830 C2834 1.524 . S
C2831 C2823 1.503 1_546 S
C2831 C2830 1.370 1_545 S
C2831 C2832 1.403 . S
C2832 C2831 1.403 . S
C2832 C2833 1.404 . S
C2832 C2835 1.539 1_556 S
C2833 C2829 1.408 . S
C2833 C2832 1.404 . S
C2833 H2845 0.930 . S
C2834 C2830 1.524 . S
C2834 H2846 0.956 . S
C2834 H2847 0.961 . S
C2834 H2848 0.961 . S
C2835 C2832 1.539 1_554 S
C2835 H2849 0.958 . S
C2835 H2850 0.961 . S
C2835 H2851 0.960 . S
H2836 C2820 0.931 . S
H2837 C2825 0.929 . S
H2838 C2826 0.960 . S
H2839 C2826 0.962 . S
H2840 C2826 0.960 . S
H2841 C2827 0.961 . S
H2842 C2827 0.961 1_556 S
H2843 C2827 0.961 . S
H2844 C2828 0.931 . S
H2845 C2833 0.930 . S
H2846 C2834 0.956 . S
H2847 C2834 0.961 . S
H2848 C2834 0.961 . S
H2849 C2835 0.958 . S
H2850 C2835 0.961 . S
H2851 C2835 0.960 . S
C2852 C2853 1.391 . S
C2852 C2854 1.394 . S
C2852 H2868 0.931 . S
C2853 C2852 1.391 . S
C2853 C2857 1.376 . S
C2854 C2852 1.394 . S
C2854 C2855 1.369 . S
C2854 C2858 1.531 1_556 S
C2855 C2854 1.369 . S
C2855 C2856 1.410 1_655 S
C2855 C2863 1.503 1_656 S
C2856 C2855 1.410 1_455 S
C2856 C2857 1.392 1_455 S
C2856 C2859 1.511 . S
C2857 C2853 1.376 . S
C2857 C2856 1.392 1_655 S
C2857 H2869 0.929 1_655 S
C2858 C2854 1.531 1_554 S
C2858 H2870 0.960 . S
C2858 H2871 0.962 . S
C2858 H2872 0.960 . S
C2859 C2856 1.511 . S
C2859 H2873 0.961 . S
C2859 H2874 0.961 . S
C2859 H2875 0.961 . S
C2860 C2861 1.370 . S
C2860 C2862 1.363 . S
C2860 H2876 0.931 . S
C2861 C2860 1.370 . S
C2861 C2865 1.408 . S
C2862 C2860 1.363 . S
C2862 C2863 1.370 . S
C2862 C2866 1.524 1_454 S
C2863 C2855 1.503 1_454 S
C2863 C2862 1.370 . S
C2863 C2864 1.403 . S
C2864 C2863 1.403 . S
C2864 C2865 1.404 . S
C2864 C2867 1.539 . S
C2865 C2861 1.408 . S
C2865 C2864 1.404 . S
C2865 H2877 0.930 . S
C2866 C2862 1.524 1_656 S
C2866 H2878 0.956 . S
C2866 H2879 0.961 . S
C2866 H2880 0.957 1_556 S
C2867 C2864 1.539 . S
C2867 H2881 0.958 . S
C2867 H2882 0.961 . S
C2867 H2883 0.960 . S
H2868 C2852 0.931 . S
H2869 C2857 0.929 1_455 S
H2870 C2858 0.960 . S
H2871 C2858 0.962 . S
H2872 C2858 0.960 . S
H2873 C2859 0.961 . S
H2874 C2859 0.961 . S
H2875 C2859 0.961 . S
H2876 C2860 0.931 . S
H2877 C2865 0.930 . S
H2878 C2866 0.956 . S
H2879 C2866 0.961 . S
H2880 C2866 0.957 1_554 S
H2881 C2867 0.958 . S
H2882 C2867 0.961 . S
H2883 C2867 0.960 . S
C2884 C2885 1.391 . S
C2884 C2886 1.394 . S
C2884 H2900 0.931 . S
C2885 C2884 1.391 . S
C2885 C2889 1.376 . S
C2886 C2884 1.394 . S
C2886 C2887 1.369 . S
C2886 C2890 1.531 1_554 S
C2887 C2886 1.369 . S
C2887 C2888 1.410 . S
C2887 C2895 1.503 1_554 S
C2888 C2887 1.410 . S
C2888 C2889 1.392 . S
C2888 C2891 1.511 . S
C2889 C2885 1.376 . S
C2889 C2888 1.392 . S
C2889 H2901 0.929 . S
C2890 C2886 1.531 1_556 S
C2890 H2902 0.960 . S
C2890 H2903 0.962 . S
C2890 H2904 0.960 . S
C2891 C2888 1.511 . S
C2891 H2905 0.961 . S
C2891 H2906 0.961 . S
C2891 H2907 0.961 . S
C2892 C2893 1.370 . S
C2892 C2894 1.363 . S
C2892 H2908 0.931 . S
C2893 C2892 1.370 . S
C2893 C2897 1.408 . S
C2894 C2892 1.363 . S
C2894 C2895 1.370 . S
C2894 C2898 1.524 . S
C2895 C2887 1.503 1_556 S
C2895 C2894 1.370 . S
C2895 C2896 1.403 . S
C2896 C2895 1.403 . S
C2896 C2897 1.404 . S
C2896 C2899 1.539 1_556 S
C2897 C2893 1.408 . S
C2897 C2896 1.404 . S
C2897 H2909 0.930 . S
C2898 C2894 1.524 . S
C2898 H2910 0.956 . S
C2898 H2911 0.961 . S
C2898 H2912 0.961 . S
C2899 C2896 1.539 1_554 S
C2899 H2913 0.958 . S
C2899 H2914 0.961 . S
C2899 H2915 0.960 . S
H2900 C2884 0.931 . S
H2901 C2889 0.929 . S
H2902 C2890 0.960 . S
H2903 C2890 0.962 . S
H2904 C2890 0.960 . S
H2905 C2891 0.961 . S
H2906 C2891 0.961 . S
H2907 C2891 0.961 . S
H2908 C2892 0.931 . S
H2909 C2897 0.930 . S
H2910 C2898 0.956 . S
H2911 C2898 0.961 . S
H2912 C2898 0.961 . S
H2913 C2899 0.958 . S
H2914 C2899 0.961 . S
H2915 C2899 0.960 . S
C2916 C2917 1.391 . S
C2916 C2918 1.394 1_554 S
C2916 H2932 0.931 . S
C2917 C2916 1.391 . S
C2917 C2921 1.376 . S
C2918 C2916 1.394 1_556 S
C2918 C2919 1.369 . S
C2918 C2922 1.531 . S
C2919 C2918 1.369 . S
C2919 C2920 1.410 . S
C2919 C2927 1.503 . S
C2920 C2919 1.410 . S
C2920 C2921 1.392 1_556 S
C2920 C2923 1.511 . S
C2921 C2917 1.376 . S
C2921 C2920 1.392 1_554 S
C2921 H2933 0.929 . S
C2922 C2918 1.531 . S
C2922 H2934 0.960 . S
C2922 H2935 0.936 1_556 S
C2922 H2936 0.960 . S
C2923 C2920 1.511 . S
C2923 H2937 0.961 1_556 S
C2923 H2938 0.961 . S
C2923 H2939 0.961 . S
C2924 C2925 1.370 . S
C2924 C2926 1.362 1_565 S
C2924 H2940 0.931 1_556 S
C2925 C2924 1.370 . S
C2925 C2929 1.408 1_565 S
C2926 C2924 1.362 1_545 S
C2926 C2927 1.367 . S
C2926 C2930 1.530 1_556 S
C2927 C2919 1.503 . S
C2927 C2926 1.367 . S
C2927 C2928 1.403 . S
C2928 C2927 1.403 . S
C2928 C2929 1.404 . S
C2928 C2931 1.539 . S
C2929 C2925 1.408 1_545 S
C2929 C2928 1.404 . S
C2929 H2941 0.930 1_545 S
C2930 C2926 1.530 1_554 S
C2930 H2942 0.956 . S
C2930 H2943 0.961 . S
C2930 H2944 0.961 . S
C2931 C2928 1.539 . S
C2931 H2945 0.958 . S
C2931 H2946 0.961 . S
C2931 H2947 0.960 . S
H2932 C2916 0.931 . S
H2933 C2921 0.929 . S
H2934 C2922 0.960 . S
H2935 C2922 0.936 1_554 S
H2936 C2922 0.960 . S
H2937 C2923 0.961 1_554 S
H2938 C2923 0.961 . S
H2939 C2923 0.961 . S
H2940 C2924 0.931 1_554 S
H2941 C2929 0.930 1_565 S
H2942 C2930 0.956 . S
H2943 C2930 0.961 . S
H2944 C2930 0.961 . S
H2945 C2931 0.958 . S
H2946 C2931 0.961 . S
H2947 C2931 0.960 . S
C2948 C2949 1.391 1_556 S
C2948 C2950 1.394 . S
C2948 H2964 0.931 . S
C2949 C2948 1.391 1_554 S
C2949 C2953 1.376 . S
C2950 C2948 1.394 . S
C2950 C2951 1.369 . S
C2950 C2954 1.531 . S
C2951 C2950 1.369 . S
C2951 C2952 1.410 1_556 S
C2951 C2959 1.503 . S
C2952 C2951 1.410 1_554 S
C2952 C2953 1.392 . S
C2952 C2955 1.511 . S
C2953 C2949 1.376 . S
C2953 C2952 1.392 . S
C2953 H2965 0.929 . S
C2954 C2950 1.531 . S
C2954 H2966 0.960 . S
C2954 H2967 0.962 . S
C2954 H2968 0.960 . S
C2955 C2952 1.511 . S
C2955 H2969 0.961 . S
C2955 H2970 0.961 . S
C2955 H2971 0.961 1_554 S
C2956 C2957 1.370 . S
C2956 C2958 1.363 1_455 S
C2956 H2972 0.931 1_556 S
C2957 C2956 1.370 . S
C2957 C2961 1.408 1_455 S
C2958 C2956 1.363 1_655 S
C2958 C2959 1.370 . S
C2958 C2962 1.524 1_556 S
C2959 C2951 1.503 . S
C2959 C2958 1.370 . S
C2959 C2960 1.403 . S
C2960 C2959 1.403 . S
C2960 C2961 1.404 . S
C2960 C2963 1.539 . S
C2961 C2957 1.408 1_655 S
C2961 C2960 1.404 . S
C2961 H2973 0.930 1_655 S
C2962 C2958 1.524 1_554 S
C2962 H2974 0.956 . S
C2962 H2975 0.961 . S
C2962 H2976 0.961 . S
C2963 C2960 1.539 . S
C2963 H2977 0.958 . S
C2963 H2978 0.961 . S
C2963 H2979 0.960 . S
H2964 C2948 0.931 . S
H2965 C2953 0.929 . S
H2966 C2954 0.960 . S
H2967 C2954 0.962 . S
H2968 C2954 0.960 . S
H2969 C2955 0.961 . S
H2970 C2955 0.961 . S
H2971 C2955 0.961 1_556 S
H2972 C2956 0.931 1_554 S
H2973 C2961 0.930 1_455 S
H2974 C2962 0.956 . S
H2975 C2962 0.961 . S
H2976 C2962 0.961 . S
H2977 C2963 0.958 . S
H2978 C2963 0.961 . S
H2979 C2963 0.960 . S
C2980 C2981 1.391 . S
C2980 C2982 1.394 . S
C2980 H2996 0.931 . S
C2981 C2980 1.391 . S
C2981 C2985 1.376 . S
C2982 C2980 1.394 . S
C2982 C2983 1.369 . S
C2982 C2986 1.531 . S
C2983 C2982 1.369 . S
C2983 C2984 1.410 1_556 S
C2983 C2991 1.503 . S
C2984 C2983 1.410 1_554 S
C2984 C2985 1.392 1_554 S
C2984 C2987 1.511 . S
C2985 C2981 1.376 . S
C2985 C2984 1.392 1_556 S
C2985 H2997 0.929 1_556 S
C2986 C2982 1.531 . S
C2986 H2998 0.960 . S
C2986 H2999 0.962 . S
C2986 H3000 0.960 . S
C2987 C2984 1.511 . S
C2987 H3001 0.961 . S
C2987 H3002 0.961 . S
C2987 H3003 0.961 . S
C2988 C2989 1.370 . S
C2988 C2990 1.363 1_554 S
C2988 H3004 0.931 1_554 S
C2989 C2988 1.370 . S
C2989 C2993 1.408 . S
C2990 C2988 1.363 1_556 S
C2990 C2991 1.370 . S
C2990 C2994 1.524 . S
C2991 C2983 1.503 . S
C2991 C2990 1.370 . S
C2991 C2992 1.403 1_556 S
C2992 C2991 1.403 1_554 S
C2992 C2993 1.404 . S
C2992 C2995 1.539 . S
C2993 C2989 1.408 . S
C2993 C2992 1.404 . S
C2993 H3005 0.930 . S
C2994 C2990 1.524 . S
C2994 H3006 0.956 . S
C2994 H3007 0.961 . S
C2994 H3008 0.961 . S
C2995 C2992 1.539 . S
C2995 H3009 0.928 1_554 S
C2995 H3010 0.961 . S
C2995 H3011 0.960 . S
H2996 C2980 0.931 . S
H2997 C2985 0.929 1_554 S
H2998 C2986 0.960 . S
H2999 C2986 0.962 . S
H3000 C2986 0.960 . S
H3001 C2987 0.961 . S
H3002 C2987 0.961 . S
H3003 C2987 0.961 . S
H3004 C2988 0.931 1_556 S
H3005 C2993 0.930 . S
H3006 C2994 0.956 . S
H3007 C2994 0.961 . S
H3008 C2994 0.961 . S
H3009 C2995 0.928 1_556 S
H3010 C2995 0.961 . S
H3011 C2995 0.960 . S
C3012 C3013 1.391 . S
C3012 C3014 1.394 1_655 S
C3012 H3028 0.931 . S
C3013 C3012 1.391 . S
C3013 C3017 1.376 . S
C3014 C3012 1.394 1_455 S
C3014 C3015 1.369 . S
C3014 C3018 1.531 . S
C3015 C3014 1.369 . S
C3015 C3016 1.410 . S
C3015 C3023 1.503 . S
C3016 C3015 1.410 . S
C3016 C3017 1.392 1_455 S
C3016 C3019 1.511 . S
C3017 C3013 1.376 . S
C3017 C3016 1.392 1_655 S
C3017 H3029 0.929 . S
C3018 C3014 1.531 . S
C3018 H3030 0.960 . S
C3018 H3031 0.962 . S
C3018 H3032 0.960 . S
C3019 C3016 1.511 . S
C3019 H3033 0.961 . S
C3019 H3034 0.961 . S
C3019 H3035 0.961 . S
C3020 C3021 1.370 . S
C3020 C3022 1.363 . S
C3020 H3036 0.931 . S
C3021 C3020 1.370 . S
C3021 C3025 1.408 . S
C3022 C3020 1.363 . S
C3022 C3023 1.370 . S
C3022 C3026 1.524 . S
C3023 C3015 1.503 . S
C3023 C3022 1.370 . S
C3023 C3024 1.403 . S
C3024 C3023 1.403 . S
C3024 C3025 1.404 . S
C3024 C3027 1.539 . S
C3025 C3021 1.408 . S
C3025 C3024 1.404 . S
C3025 H3037 0.930 . S
C3026 C3022 1.524 . S
C3026 H3038 0.956 . S
C3026 H3039 0.961 . S
C3026 H3040 0.961 . S
C3027 C3024 1.539 . S
C3027 H3041 0.958 . S
C3027 H3042 0.961 . S
C3027 H3043 0.960 . S
H3028 C3012 0.931 . S
H3029 C3017 0.929 . S
H3030 C3018 0.960 . S
H3031 C3018 0.962 . S
H3032 C3018 0.960 . S
H3033 C3019 0.961 . S
H3034 C3019 0.961 . S
H3035 C3019 0.961 . S
H3036 C3020 0.931 . S
H3037 C3025 0.930 . S
H3038 C3026 0.956 . S
H3039 C3026 0.961 . S
H3040 C3026 0.961 . S
H3041 C3027 0.958 . S
H3042 C3027 0.961 . S
H3043 C3027 0.960 . S
C3044 C3045 1.391 . S
C3044 C3046 1.394 . S
C3044 H3060 0.931 . S
C3045 C3044 1.391 . S
C3045 C3049 1.376 . S
C3046 C3044 1.394 . S
C3046 C3047 1.369 . S
C3046 C3050 1.531 . S
C3047 C3046 1.369 . S
C3047 C3048 1.410 . S
C3047 C3055 1.503 . S
C3048 C3047 1.410 . S
C3048 C3049 1.392 . S
C3048 C3051 1.511 . S
C3049 C3045 1.376 . S
C3049 C3048 1.392 . S
C3049 H3061 0.929 . S
C3050 C3046 1.531 . S
C3050 H3062 0.960 . S
C3050 H3063 0.962 . S
C3050 H3064 0.960 . S
C3051 C3048 1.511 . S
C3051 H3065 0.961 . S
C3051 H3066 0.961 . S
C3051 H3067 0.961 . S
C3052 C3053 1.370 . S
C3052 C3054 1.363 . S
C3052 H3068 0.931 . S
C3053 C3052 1.370 . S
C3053 C3057 1.408 . S
C3054 C3052 1.363 . S
C3054 C3055 1.370 . S
C3054 C3058 1.524 . S
C3055 C3047 1.503 . S
C3055 C3054 1.370 . S
C3055 C3056 1.403 . S
C3056 C3055 1.403 . S
C3056 C3057 1.404 . S
C3056 C3059 1.539 . S
C3057 C3053 1.408 . S
C3057 C3056 1.404 . S
C3057 H3069 0.930 . S
C3058 C3054 1.524 . S
C3058 H3070 0.956 . S
C3058 H3071 0.961 . S
C3058 H3072 0.961 . S
C3059 C3056 1.539 . S
C3059 H3073 0.958 . S
C3059 H3074 0.961 . S
C3059 H3075 0.960 . S
H3060 C3044 0.931 . S
H3061 C3049 0.929 . S
H3062 C3050 0.960 . S
H3063 C3050 0.962 . S
H3064 C3050 0.960 . S
H3065 C3051 0.961 . S
H3066 C3051 0.961 . S
H3067 C3051 0.961 . S
H3068 C3052 0.931 . S
H3069 C3057 0.930 . S
H3070 C3058 0.956 . S
H3071 C3058 0.961 . S
H3072 C3058 0.961 . S
H3073 C3059 0.958 . S
H3074 C3059 0.961 . S
H3075 C3059 0.960 . S
C3076 C3077 1.391 . S
C3076 C3078 1.394 1_545 S
C3076 H3092 0.931 . S
C3077 C3076 1.391 . S
C3077 C3081 1.376 . S
C3078 C3076 1.394 1_565 S
C3078 C3079 1.369 . S
C3078 C3082 1.531 . S
C3079 C3078 1.369 . S
C3079 C3080 1.410 . S
C3079 C3087 1.503 . S
C3080 C3079 1.410 . S
C3080 C3081 1.392 1_565 S
C3080 C3083 1.511 . S
C3081 C3077 1.376 . S
C3081 C3080 1.392 1_545 S
C3081 H3093 0.929 . S
C3082 C3078 1.531 . S
C3082 H3094 0.960 . S
C3082 H3095 0.962 . S
C3082 H3096 0.960 . S
C3083 C3080 1.511 . S
C3083 H3097 0.961 . S
C3083 H3098 0.961 . S
C3083 H3099 0.961 . S
C3084 C3085 1.370 . S
C3084 C3086 1.363 . S
C3084 H3100 0.931 . S
C3085 C3084 1.370 . S
C3085 C3089 1.408 . S
C3086 C3084 1.363 . S
C3086 C3087 1.370 . S
C3086 C3090 1.524 . S
C3087 C3079 1.503 . S
C3087 C3086 1.370 . S
C3087 C3088 1.403 . S
C3088 C3087 1.403 . S
C3088 C3089 1.404 . S
C3088 C3091 1.539 . S
C3089 C3085 1.408 . S
C3089 C3088 1.404 . S
C3089 H3101 0.930 . S
C3090 C3086 1.524 . S
C3090 H3102 0.956 . S
C3090 H3103 0.961 . S
C3090 H3104 0.961 . S
C3091 C3088 1.539 . S
C3091 H3105 0.958 . S
C3091 H3106 0.961 . S
C3091 H3107 0.960 . S
H3092 C3076 0.931 . S
H3093 C3081 0.929 . S
H3094 C3082 0.960 . S
H3095 C3082 0.962 . S
H3096 C3082 0.960 . S
H3097 C3083 0.961 . S
H3098 C3083 0.961 . S
H3099 C3083 0.961 . S
H3100 C3084 0.931 . S
H3101 C3089 0.930 . S
H3102 C3090 0.956 . S
H3103 C3090 0.961 . S
H3104 C3090 0.961 . S
H3105 C3091 0.958 . S
H3106 C3091 0.961 . S
H3107 C3091 0.960 . S
C3108 C3109 1.391 . S
C3108 C3110 1.394 1_545 S
C3108 H3124 0.931 . S
C3109 C3108 1.391 . S
C3109 C3113 1.376 . S
C3110 C3108 1.394 1_565 S
C3110 C3111 1.369 . S
C3110 C3114 1.531 1_554 S
C3111 C3110 1.369 . S
C3111 C3112 1.410 . S
C3111 C3119 1.504 . S
C3112 C3111 1.410 . S
C3112 C3113 1.392 1_565 S
C3112 C3115 1.511 . S
C3113 C3109 1.376 . S
C3113 C3112 1.392 1_545 S
C3113 H3125 0.929 . S
C3114 C3110 1.531 1_556 S
C3114 H3126 0.960 . S
C3114 H3127 0.962 1_556 S
C3114 H3128 0.960 . S
C3115 C3112 1.511 . S
C3115 H3129 0.961 . S
C3115 H3130 0.961 . S
C3115 H3131 0.961 . S
C3116 C3117 1.370 1_554 S
C3116 C3118 1.363 . S
C3116 H3132 0.931 . S
C3117 C3116 1.370 1_556 S
C3117 C3121 1.408 . S
C3118 C3116 1.363 . S
C3118 C3119 1.371 . S
C3118 C3122 1.524 . S
C3119 C3111 1.504 . S
C3119 C3118 1.371 . S
C3119 C3120 1.402 1_554 S
C3120 C3119 1.402 1_556 S
C3120 C3121 1.404 . S
C3120 C3123 1.539 . S
C3121 C3117 1.408 . S
C3121 C3120 1.404 . S
C3121 H3133 0.930 . S
C3122 C3118 1.524 . S
C3122 H3134 0.956 . S
C3122 H3135 0.961 . S
C3122 H3136 0.961 . S
C3123 C3120 1.539 . S
C3123 H3137 0.958 . S
C3123 H3138 0.961 . S
C3123 H3139 0.960 . S
H3124 C3108 0.931 . S
H3125 C3113 0.929 . S
H3126 C3114 0.960 . S
H3127 C3114 0.962 1_554 S
H3128 C3114 0.960 . S
H3129 C3115 0.961 . S
H3130 C3115 0.961 . S
H3131 C3115 0.961 . S
H3132 C3116 0.931 . S
H3133 C3121 0.930 . S
H3134 C3122 0.956 . S
H3135 C3122 0.961 . S
H3136 C3122 0.961 . S
H3137 C3123 0.958 . S
H3138 C3123 0.961 . S
H3139 C3123 0.960 . S
C3140 C3141 1.391 . S
C3140 C3142 1.394 1_655 S
C3140 H3156 0.931 . S
C3141 C3140 1.391 . S
C3141 C3145 1.376 1_655 S
C3142 C3140 1.394 1_455 S
C3142 C3143 1.369 . S
C3142 C3146 1.531 1_554 S
C3143 C3142 1.369 . S
C3143 C3144 1.410 . S
C3143 C3151 1.503 . S
C3144 C3143 1.410 . S
C3144 C3145 1.392 . S
C3144 C3147 1.511 . S
C3145 C3141 1.376 1_455 S
C3145 C3144 1.392 . S
C3145 H3157 0.935 1_455 S
C3146 C3142 1.531 1_556 S
C3146 H3158 0.960 . S
C3146 H3159 0.962 . S
C3146 H3160 0.960 . S
C3147 C3144 1.511 . S
C3147 H3161 0.961 . S
C3147 H3162 0.961 . S
C3147 H3163 0.961 . S
C3148 C3149 1.370 . S
C3148 C3150 1.363 . S
C3148 H3164 0.931 . S
C3149 C3148 1.370 . S
C3149 C3153 1.408 1_556 S
C3150 C3148 1.363 . S
C3150 C3151 1.370 1_556 S
C3150 C3154 1.524 . S
C3151 C3143 1.503 . S
C3151 C3150 1.370 1_554 S
C3151 C3152 1.403 . S
C3152 C3151 1.403 . S
C3152 C3153 1.404 . S
C3152 C3155 1.539 . S
C3153 C3149 1.408 1_554 S
C3153 C3152 1.404 . S
C3153 H3165 0.930 . S
C3154 C3150 1.524 . S
C3154 H3166 0.956 . S
C3154 H3167 0.961 . S
C3154 H3168 0.961 . S
C3155 C3152 1.539 . S
C3155 H3169 0.958 . S
C3155 H3170 0.961 . S
C3155 H3171 0.960 . S
H3156 C3140 0.931 . S
H3157 C3145 0.935 1_655 S
H3158 C3146 0.960 . S
H3159 C3146 0.962 . S
H3160 C3146 0.960 . S
H3161 C3147 0.961 . S
H3162 C3147 0.961 . S
H3163 C3147 0.961 . S
H3164 C3148 0.931 . S
H3165 C3153 0.930 . S
H3166 C3154 0.956 . S
H3167 C3154 0.961 . S
H3168 C3154 0.961 . S
H3169 C3155 0.958 . S
H3170 C3155 0.961 . S
H3171 C3155 0.960 . S
C3172 C3173 1.391 . S
C3172 C3174 1.394 . S
C3172 H3188 0.931 . S
C3173 C3172 1.391 . S
C3173 C3177 1.376 . S
C3174 C3172 1.394 . S
C3174 C3175 1.369 . S
C3174 C3178 1.531 1_554 S
C3175 C3174 1.369 . S
C3175 C3176 1.410 . S
C3175 C3183 1.503 . S
C3176 C3175 1.410 . S
C3176 C3177 1.392 . S
C3176 C3179 1.511 . S
C3177 C3173 1.376 . S
C3177 C3176 1.392 . S
C3177 H3189 0.929 . S
C3178 C3174 1.531 1_556 S
C3178 H3190 0.960 . S
C3178 H3191 0.962 . S
C3178 H3192 0.960 . S
C3179 C3176 1.511 . S
C3179 H3193 0.961 . S
C3179 H3194 0.961 . S
C3179 H3195 0.961 . S
C3180 C3181 1.370 . S
C3180 C3182 1.363 . S
C3180 H3196 0.931 . S
C3181 C3180 1.370 . S
C3181 C3185 1.408 1_556 S
C3182 C3180 1.363 . S
C3182 C3183 1.370 1_556 S
C3182 C3186 1.524 . S
C3183 C3175 1.503 . S
C3183 C3182 1.370 1_554 S
C3183 C3184 1.403 . S
C3184 C3183 1.403 . S
C3184 C3185 1.404 . S
C3184 C3187 1.539 . S
C3185 C3181 1.408 1_554 S
C3185 C3184 1.404 . S
C3185 H3197 0.930 . S
C3186 C3182 1.524 . S
C3186 H3198 0.956 . S
C3186 H3199 0.961 . S
C3186 H3200 0.961 . S
C3187 C3184 1.539 . S
C3187 H3201 0.958 . S
C3187 H3202 0.961 . S
C3187 H3203 0.960 . S
H3188 C3172 0.931 . S
H3189 C3177 0.929 . S
H3190 C3178 0.960 . S
H3191 C3178 0.962 . S
H3192 C3178 0.960 . S
H3193 C3179 0.961 . S
H3194 C3179 0.961 . S
H3195 C3179 0.961 . S
H3196 C3180 0.931 . S
H3197 C3185 0.930 . S
H3198 C3186 0.956 . S
H3199 C3186 0.961 . S
H3200 C3186 0.961 . S
H3201 C3187 0.958 . S
H3202 C3187 0.961 . S
H3203 C3187 0.960 . S
C3204 C3205 1.391 . S
C3204 C3206 1.394 . S
C3204 H3220 0.931 . S
C3205 C3204 1.391 . S
C3205 C3209 1.376 . S
C3206 C3204 1.394 . S
C3206 C3207 1.369 . S
C3206 C3210 1.531 . S
C3207 C3206 1.369 . S
C3207 C3208 1.410 . S
C3207 C3215 1.503 . S
C3208 C3207 1.410 . S
C3208 C3209 1.392 . S
C3208 C3211 1.511 . S
C3209 C3205 1.376 . S
C3209 C3208 1.392 . S
C3209 H3221 0.929 . S
C3210 C3206 1.531 . S
C3210 H3222 0.960 . S
C3210 H3223 0.962 . S
C3210 H3224 0.960 . S
C3211 C3208 1.511 . S
C3211 H3225 0.961 . S
C3211 H3226 0.961 . S
C3211 H3227 0.961 . S
C3212 C3213 1.370 . S
C3212 C3214 1.363 1_455 S
C3212 H3228 0.931 . S
C3213 C3212 1.370 . S
C3213 C3217 1.408 . S
C3214 C3212 1.363 1_655 S
C3214 C3215 1.370 . S
C3214 C3218 1.524 . S
C3215 C3207 1.503 . S
C3215 C3214 1.370 . S
C3215 C3216 1.403 . S
C3216 C3215 1.403 . S
C3216 C3217 1.404 1_655 S
C3216 C3219 1.539 . S
C3217 C3213 1.408 . S
C3217 C3216 1.404 1_455 S
C3217 H3229 0.930 . S
C3218 C3214 1.524 . S
C3218 H3230 0.956 . S
C3218 H3231 0.961 . S
C3218 H3232 0.961 . S
C3219 C3216 1.539 . S
C3219 H3233 0.958 . S
C3219 H3234 0.961 . S
C3219 H3235 0.960 . S
H3220 C3204 0.931 . S
H3221 C3209 0.929 . S
H3222 C3210 0.960 . S
H3223 C3210 0.962 . S
H3224 C3210 0.960 . S
H3225 C3211 0.961 . S
H3226 C3211 0.961 . S
H3227 C3211 0.961 . S
H3228 C3212 0.931 . S
H3229 C3217 0.930 . S
H3230 C3218 0.956 . S
H3231 C3218 0.961 . S
H3232 C3218 0.961 . S
H3233 C3219 0.958 . S
H3234 C3219 0.961 . S
H3235 C3219 0.960 . S
C3236 C3237 1.391 . S
C3236 C3238 1.394 . S
C3236 H3252 0.931 . S
C3237 C3236 1.391 . S
C3237 C3241 1.376 . S
C3238 C3236 1.394 . S
C3238 C3239 1.369 . S
C3238 C3242 1.531 . S
C3239 C3238 1.369 . S
C3239 C3240 1.410 . S
C3239 C3247 1.503 . S
C3240 C3239 1.410 . S
C3240 C3241 1.392 . S
C3240 C3243 1.511 . S
C3241 C3237 1.376 . S
C3241 C3240 1.392 . S
C3241 H3253 0.929 . S
C3242 C3238 1.531 . S
C3242 H3254 0.960 . S
C3242 H3255 0.962 . S
C3242 H3256 0.960 . S
C3243 C3240 1.511 . S
C3243 H3257 0.961 . S
C3243 H3258 0.961 . S
C3243 H3259 0.961 . S
C3244 C3245 1.370 . S
C3244 C3246 1.363 . S
C3244 H3260 0.931 . S
C3245 C3244 1.370 . S
C3245 C3249 1.408 . S
C3246 C3244 1.363 . S
C3246 C3247 1.370 . S
C3246 C3250 1.524 . S
C3247 C3239 1.503 . S
C3247 C3246 1.370 . S
C3247 C3248 1.403 . S
C3248 C3247 1.403 . S
C3248 C3249 1.404 . S
C3248 C3251 1.539 . S
C3249 C3245 1.408 . S
C3249 C3248 1.404 . S
C3249 H3261 0.930 . S
C3250 C3246 1.524 . S
C3250 H3262 0.956 . S
C3250 H3263 0.961 . S
C3250 H3264 0.961 . S
C3251 C3248 1.539 . S
C3251 H3265 0.958 . S
C3251 H3266 0.961 . S
C3251 H3267 0.960 . S
H3252 C3236 0.931 . S
H3253 C3241 0.929 . S
H3254 C3242 0.960 . S
H3255 C3242 0.962 . S
H3256 C3242 0.960 . S
H3257 C3243 0.961 . S
H3258 C3243 0.961 . S
H3259 C3243 0.961 . S
H3260 C3244 0.931 . S
H3261 C3249 0.930 . S
H3262 C3250 0.956 . S
H3263 C3250 0.961 . S
H3264 C3250 0.961 . S
H3265 C3251 0.958 . S
H3266 C3251 0.961 . S
H3267 C3251 0.960 . S
C3268 C3269 1.391 . S
C3268 C3270 1.394 1_565 S
C3268 H3284 0.931 . S
C3269 C3268 1.391 . S
C3269 C3273 1.369 1_565 S
C3270 C3268 1.394 1_545 S
C3270 C3271 1.369 . S
C3270 C3274 1.531 . S
C3271 C3270 1.369 . S
C3271 C3272 1.410 . S
C3271 C3279 1.503 . S
C3272 C3271 1.410 . S
C3272 C3273 1.410 . S
C3272 C3275 1.511 . S
C3273 C3269 1.369 1_545 S
C3273 C3272 1.410 . S
C3273 H3285 0.918 1_545 S
C3274 C3270 1.531 . S
C3274 H3286 0.960 . S
C3274 H3287 0.962 . S
C3274 H3288 0.960 . S
C3275 C3272 1.511 . S
C3275 H3289 0.961 . S
C3275 H3290 0.961 . S
C3275 H3291 0.961 . S
C3276 C3277 1.370 . S
C3276 C3278 1.363 . S
C3276 H3292 0.931 . S
C3277 C3276 1.370 . S
C3277 C3281 1.408 . S
C3278 C3276 1.363 . S
C3278 C3279 1.370 . S
C3278 C3282 1.524 . S
C3279 C3271 1.503 . S
C3279 C3278 1.370 . S
C3279 C3280 1.403 . S
C3280 C3279 1.403 . S
C3280 C3281 1.404 . S
C3280 C3283 1.539 . S
C3281 C3277 1.408 . S
C3281 C3280 1.404 . S
C3281 H3293 0.930 . S
C3282 C3278 1.524 . S
C3282 H3294 0.956 . S
C3282 H3295 0.961 . S
C3282 H3296 0.961 . S
C3283 C3280 1.539 . S
C3283 H3297 0.958 . S
C3283 H3298 0.961 . S
C3283 H3299 0.960 . S
H3284 C3268 0.931 . S
H3285 C3273 0.918 1_565 S
H3286 C3274 0.960 . S
H3287 C3274 0.962 . S
H3288 C3274 0.960 . S
H3289 C3275 0.961 . S
H3290 C3275 0.961 . S
H3291 C3275 0.961 . S
H3292 C3276 0.931 . S
H3293 C3281 0.930 . S
H3294 C3282 0.956 . S
H3295 C3282 0.961 . S
H3296 C3282 0.961 . S
H3297 C3283 0.958 . S
H3298 C3283 0.961 . S
H3299 C3283 0.960 . S
C3300 C3301 1.391 . S
C3300 C3302 1.394 . S
C3300 H3316 0.931 . S
C3301 C3300 1.391 . S
C3301 C3305 1.376 . S
C3302 C3300 1.394 . S
C3302 C3303 1.369 . S
C3302 C3306 1.531 . S
C3303 C3302 1.369 . S
C3303 C3304 1.410 . S
C3303 C3311 1.503 . S
C3304 C3303 1.410 . S
C3304 C3305 1.392 . S
C3304 C3307 1.511 . S
C3305 C3301 1.376 . S
C3305 C3304 1.392 . S
C3305 H3317 0.929 . S
C3306 C3302 1.531 . S
C3306 H3318 0.960 . S
C3306 H3319 0.962 . S
C3306 H3320 0.960 . S
C3307 C3304 1.511 . S
C3307 H3321 0.961 . S
C3307 H3322 0.961 . S
C3307 H3323 0.961 . S
C3308 C3309 1.370 . S
C3308 C3310 1.363 . S
C3308 H3324 0.931 . S
C3309 C3308 1.370 . S
C3309 C3313 1.408 . S
C3310 C3308 1.363 . S
C3310 C3311 1.370 . S
C3310 C3314 1.524 . S
C3311 C3303 1.503 . S
C3311 C3310 1.370 . S
C3311 C3312 1.403 . S
C3312 C3311 1.403 . S
C3312 C3313 1.404 . S
C3312 C3315 1.539 . S
C3313 C3309 1.408 . S
C3313 C3312 1.404 . S
C3313 H3325 0.930 . S
C3314 C3310 1.524 . S
C3314 H3326 0.956 . S
C3314 H3327 0.961 . S
C3314 H3328 0.961 . S
C3315 C3312 1.539 . S
C3315 H3329 0.958 . S
C3315 H3330 0.961 . S
C3315 H3331 0.960 . S
H3316 C3300 0.931 . S
H3317 C3305 0.929 . S
H3318 C3306 0.960 . S
H3319 C3306 0.962 . S
H3320 C3306 0.960 . S
H3321 C3307 0.961 . S
H3322 C3307 0.961 . S
H3323 C3307 0.961 . S
H3324 C3308 0.931 . S
H3325 C3313 0.930 . S
H3326 C3314 0.956 . S
H3327 C3314 0.961 . S
H3328 C3314 0.961 . S
H3329 C3315 0.958 . S
H3330 C3315 0.961 . S
H3331 C3315 0.960 . S
C3332 C3333 1.391 . S
C3332 C3334 1.394 . S
C3332 H3348 0.931 . S
C3333 C3332 1.391 . S
C3333 C3337 1.376 . S
C3334 C3332 1.394 . S
C3334 C3335 1.369 . S
C3334 C3338 1.531 . S
C3335 C3334 1.369 . S
C3335 C3336 1.410 . S
C3335 C3343 1.503 . S
C3336 C3335 1.410 . S
C3336 C3337 1.392 . S
C3336 C3339 1.511 . S
C3337 C3333 1.376 . S
C3337 C3336 1.392 . S
C3337 H3349 0.929 . S
C3338 C3334 1.531 . S
C3338 H3350 0.960 . S
C3338 H3351 0.962 . S
C3338 H3352 0.960 . S
C3339 C3336 1.511 . S
C3339 H3353 0.961 . S
C3339 H3354 0.961 . S
C3339 H3355 0.961 . S
C3340 C3341 1.370 . S
C3340 C3342 1.363 . S
C3340 H3356 0.931 . S
C3341 C3340 1.370 . S
C3341 C3345 1.408 . S
C3342 C3340 1.363 . S
C3342 C3343 1.370 . S
C3342 C3346 1.524 . S
C3343 C3335 1.503 . S
C3343 C3342 1.370 . S
C3343 C3344 1.403 . S
C3344 C3343 1.403 . S
C3344 C3345 1.404 . S
C3344 C3347 1.539 . S
C3345 C3341 1.408 . S
C3345 C3344 1.404 . S
C3345 H3357 0.930 . S
C3346 C3342 1.524 . S
C3346 H3358 0.956 . S
C3346 H3359 0.961 . S
C3346 H3360 0.961 . S
C3347 C3344 1.539 . S
C3347 H3361 0.958 . S
C3347 H3362 0.961 . S
C3347 H3363 0.960 . S
H3348 C3332 0.931 . S
H3349 C3337 0.929 . S
H3350 C3338 0.960 . S
H3351 C3338 0.962 . S
H3352 C3338 0.960 . S
H3353 C3339 0.961 . S
H3354 C3339 0.961 . S
H3355 C3339 0.961 . S
H3356 C3340 0.931 . S
H3357 C3345 0.930 . S
H3358 C3346 0.956 . S
H3359 C3346 0.961 . S
H3360 C3346 0.961 . S
H3361 C3347 0.958 . S
H3362 C3347 0.961 . S
H3363 C3347 0.960 . S
C3364 C3365 1.391 . S
C3364 C3366 1.394 . S
C3364 H3380 0.931 . S
C3365 C3364 1.391 . S
C3365 C3369 1.376 . S
C3366 C3364 1.394 . S
C3366 C3367 1.369 . S
C3366 C3370 1.531 . S
C3367 C3366 1.369 . S
C3367 C3368 1.410 . S
C3367 C3375 1.503 . S
C3368 C3367 1.410 . S
C3368 C3369 1.392 . S
C3368 C3371 1.511 . S
C3369 C3365 1.376 . S
C3369 C3368 1.392 . S
C3369 H3381 0.929 . S
C3370 C3366 1.531 . S
C3370 H3382 0.960 . S
C3370 H3383 0.962 . S
C3370 H3384 0.960 . S
C3371 C3368 1.511 . S
C3371 H3385 0.961 . S
C3371 H3386 0.961 . S
C3371 H3387 0.961 . S
C3372 C3373 1.370 . S
C3372 C3374 1.363 . S
C3372 H3388 0.931 . S
C3373 C3372 1.370 . S
C3373 C3377 1.408 . S
C3374 C3372 1.363 . S
C3374 C3375 1.370 . S
C3374 C3378 1.524 . S
C3375 C3367 1.503 . S
C3375 C3374 1.370 . S
C3375 C3376 1.403 . S
C3376 C3375 1.403 . S
C3376 C3377 1.404 . S
C3376 C3379 1.539 . S
C3377 C3373 1.408 . S
C3377 C3376 1.404 . S
C3377 H3389 0.930 . S
C3378 C3374 1.524 . S
C3378 H3390 0.956 . S
C3378 H3391 0.961 . S
C3378 H3392 0.961 . S
C3379 C3376 1.539 . S
C3379 H3393 0.958 . S
C3379 H3394 0.961 . S
C3379 H3395 0.960 . S
H3380 C3364 0.931 . S
H3381 C3369 0.929 . S
H3382 C3370 0.960 . S
H3383 C3370 0.962 . S
H3384 C3370 0.960 . S
H3385 C3371 0.961 . S
H3386 C3371 0.961 . S
H3387 C3371 0.961 . S
H3388 C3372 0.931 . S
H3389 C3377 0.930 . S
H3390 C3378 0.956 . S
H3391 C3378 0.961 . S
H3392 C3378 0.961 . S
H3393 C3379 0.958 . S
H3394 C3379 0.961 . S
H3395 C3379 0.960 . S
C3396 C3397 1.391 . S
C3396 C3398 1.394 . S
C3396 H3412 0.931 . S
C3397 C3396 1.391 . S
C3397 C3401 1.376 . S
C3398 C3396 1.394 . S
C3398 C3399 1.369 . S
C3398 C3402 1.531 . S
C3399 C3398 1.369 . S
C3399 C3400 1.410 . S
C3399 C3407 1.503 . S
C3400 C3399 1.410 . S
C3400 C3401 1.392 . S
C3400 C3403 1.511 . S
C3401 C3397 1.376 . S
C3401 C3400 1.392 . S
C3401 H3413 0.929 . S
C3402 C3398 1.531 . S
C3402 H3414 0.960 . S
C3402 H3415 0.962 . S
C3402 H3416 0.960 . S
C3403 C3400 1.511 . S
C3403 H3417 0.961 . S
C3403 H3418 0.961 . S
C3403 H3419 0.961 . S
C3404 C3405 1.370 . S
C3404 C3406 1.363 . S
C3404 H3420 0.931 . S
C3405 C3404 1.370 . S
C3405 C3409 1.408 . S
C3406 C3404 1.363 . S
C3406 C3407 1.370 . S
C3406 C3410 1.524 . S
C3407 C3399 1.503 . S
C3407 C3406 1.370 . S
C3407 C3408 1.403 . S
C3408 C3407 1.403 . S
C3408 C3409 1.404 . S
C3408 C3411 1.539 . S
C3409 C3405 1.408 . S
C3409 C3408 1.404 . S
C3409 H3421 0.930 . S
C3410 C3406 1.524 . S
C3410 H3422 0.956 . S
C3410 H3423 0.961 . S
C3410 H3424 0.961 . S
C3411 C3408 1.539 . S
C3411 H3425 0.958 . S
C3411 H3426 0.961 . S
C3411 H3427 0.960 . S
H3412 C3396 0.931 . S
H3413 C3401 0.929 . S
H3414 C3402 0.960 . S
H3415 C3402 0.962 . S
H3416 C3402 0.960 . S
H3417 C3403 0.961 . S
H3418 C3403 0.961 . S
H3419 C3403 0.961 . S
H3420 C3404 0.931 . S
H3421 C3409 0.930 . S
H3422 C3410 0.956 . S
H3423 C3410 0.961 . S
H3424 C3410 0.961 . S
H3425 C3411 0.958 . S
H3426 C3411 0.961 . S
H3427 C3411 0.960 . S
C3428 C3429 1.391 . S
C3428 C3430 1.394 . S
C3428 H3444 0.931 . S
C3429 C3428 1.391 . S
C3429 C3433 1.376 . S
C3430 C3428 1.394 . S
C3430 C3431 1.369 . S
C3430 C3434 1.531 . S
C3431 C3430 1.369 . S
C3431 C3432 1.410 . S
C3431 C3439 1.503 . S
C3432 C3431 1.410 . S
C3432 C3433 1.392 . S
C3432 C3435 1.511 . S
C3433 C3429 1.376 . S
C3433 C3432 1.392 . S
C3433 H3445 0.929 . S
C3434 C3430 1.531 . S
C3434 H3446 0.960 . S
C3434 H3447 0.962 . S
C3434 H3448 0.960 . S
C3435 C3432 1.511 . S
C3435 H3449 0.961 . S
C3435 H3450 0.961 . S
C3435 H3451 0.961 . S
C3436 C3437 1.370 . S
C3436 C3438 1.363 . S
C3436 H3452 0.931 . S
C3437 C3436 1.370 . S
C3437 C3441 1.408 . S
C3438 C3436 1.363 . S
C3438 C3439 1.370 . S
C3438 C3442 1.524 . S
C3439 C3431 1.503 . S
C3439 C3438 1.370 . S
C3439 C3440 1.403 . S
C3440 C3439 1.403 . S
C3440 C3441 1.404 . S
C3440 C3443 1.539 . S
C3441 C3437 1.408 . S
C3441 C3440 1.404 . S
C3441 H3453 0.930 . S
C3442 C3438 1.524 . S
C3442 H3454 0.956 . S
C3442 H3455 0.961 . S
C3442 H3456 0.961 . S
C3443 C3440 1.539 . S
C3443 H3457 0.958 . S
C3443 H3458 0.961 . S
C3443 H3459 0.960 . S
H3444 C3428 0.931 . S
H3445 C3433 0.929 . S
H3446 C3434 0.960 . S
H3447 C3434 0.962 . S
H3448 C3434 0.960 . S
H3449 C3435 0.961 . S
H3450 C3435 0.961 . S
H3451 C3435 0.961 . S
H3452 C3436 0.931 . S
H3453 C3441 0.930 . S
H3454 C3442 0.956 . S
H3455 C3442 0.961 . S
H3456 C3442 0.961 . S
H3457 C3443 0.958 . S
H3458 C3443 0.961 . S
H3459 C3443 0.960 . S
C3460 C3461 1.391 . S
C3460 C3462 1.394 . S
C3460 H3476 0.931 . S
C3461 C3460 1.391 . S
C3461 C3465 1.376 . S
C3462 C3460 1.394 . S
C3462 C3463 1.369 . S
C3462 C3466 1.531 . S
C3463 C3462 1.369 . S
C3463 C3464 1.410 . S
C3463 C3471 1.503 . S
C3464 C3463 1.410 . S
C3464 C3465 1.392 . S
C3464 C3467 1.511 . S
C3465 C3461 1.376 . S
C3465 C3464 1.392 . S
C3465 H3477 0.929 . S
C3466 C3462 1.531 . S
C3466 H3478 0.960 . S
C3466 H3479 0.962 . S
C3466 H3480 0.960 . S
C3467 C3464 1.511 . S
C3467 H3481 0.961 . S
C3467 H3482 0.961 . S
C3467 H3483 0.961 . S
C3468 C3469 1.370 . S
C3468 C3470 1.363 . S
C3468 H3484 0.931 . S
C3469 C3468 1.370 . S
C3469 C3473 1.408 . S
C3470 C3468 1.363 . S
C3470 C3471 1.370 . S
C3470 C3474 1.524 . S
C3471 C3463 1.503 . S
C3471 C3470 1.370 . S
C3471 C3472 1.403 . S
C3472 C3471 1.403 . S
C3472 C3473 1.404 . S
C3472 C3475 1.539 . S
C3473 C3469 1.408 . S
C3473 C3472 1.404 . S
C3473 H3485 0.930 . S
C3474 C3470 1.524 . S
C3474 H3486 0.956 . S
C3474 H3487 0.961 . S
C3474 H3488 0.961 . S
C3475 C3472 1.539 . S
C3475 H3489 0.958 . S
C3475 H3490 0.961 . S
C3475 H3491 0.960 . S
H3476 C3460 0.931 . S
H3477 C3465 0.929 . S
H3478 C3466 0.960 . S
H3479 C3466 0.962 . S
H3480 C3466 0.960 . S
H3481 C3467 0.961 . S
H3482 C3467 0.961 . S
H3483 C3467 0.961 . S
H3484 C3468 0.931 . S
H3485 C3473 0.930 . S
H3486 C3474 0.956 . S
H3487 C3474 0.961 . S
H3488 C3474 0.961 . S
H3489 C3475 0.958 . S
H3490 C3475 0.961 . S
H3491 C3475 0.960 . S
C3492 C3493 1.391 . S
C3492 C3494 1.394 . S
C3492 H3508 0.931 . S
C3493 C3492 1.391 . S
C3493 C3497 1.376 . S
C3494 C3492 1.394 . S
C3494 C3495 1.369 . S
C3494 C3498 1.531 . S
C3495 C3494 1.369 . S
C3495 C3496 1.410 . S
C3495 C3503 1.503 . S
C3496 C3495 1.410 . S
C3496 C3497 1.392 . S
C3496 C3499 1.511 . S
C3497 C3493 1.376 . S
C3497 C3496 1.392 . S
C3497 H3509 0.929 . S
C3498 C3494 1.531 . S
C3498 H3510 0.960 . S
C3498 H3511 0.962 . S
C3498 H3512 0.960 . S
C3499 C3496 1.511 . S
C3499 H3513 0.961 . S
C3499 H3514 0.961 . S
C3499 H3515 0.961 . S
C3500 C3501 1.370 . S
C3500 C3502 1.363 . S
C3500 H3516 0.931 . S
C3501 C3500 1.370 . S
C3501 C3505 1.408 . S
C3502 C3500 1.363 . S
C3502 C3503 1.370 . S
C3502 C3506 1.524 . S
C3503 C3495 1.503 . S
C3503 C3502 1.370 . S
C3503 C3504 1.403 . S
C3504 C3503 1.403 . S
C3504 C3505 1.404 . S
C3504 C3507 1.539 . S
C3505 C3501 1.408 . S
C3505 C3504 1.404 . S
C3505 H3517 0.930 . S
C3506 C3502 1.524 . S
C3506 H3518 0.956 . S
C3506 H3519 0.961 . S
C3506 H3520 0.961 . S
C3507 C3504 1.539 . S
C3507 H3521 0.958 . S
C3507 H3522 0.961 . S
C3507 H3523 0.960 . S
H3508 C3492 0.931 . S
H3509 C3497 0.929 . S
H3510 C3498 0.960 . S
H3511 C3498 0.962 . S
H3512 C3498 0.960 . S
H3513 C3499 0.961 . S
H3514 C3499 0.961 . S
H3515 C3499 0.961 . S
H3516 C3500 0.931 . S
H3517 C3505 0.930 . S
H3518 C3506 0.956 . S
H3519 C3506 0.961 . S
H3520 C3506 0.961 . S
H3521 C3507 0.958 . S
H3522 C3507 0.961 . S
H3523 C3507 0.960 . S
C3524 C3525 1.391 . S
C3524 C3526 1.394 . S
C3524 H3540 0.931 . S
C3525 C3524 1.391 . S
C3525 C3529 1.376 . S
C3526 C3524 1.394 . S
C3526 C3527 1.369 . S
C3526 C3530 1.531 . S
C3527 C3526 1.369 . S
C3527 C3528 1.410 . S
C3527 C3535 1.503 . S
C3528 C3527 1.410 . S
C3528 C3529 1.392 . S
C3528 C3531 1.511 . S
C3529 C3525 1.376 . S
C3529 C3528 1.392 . S
C3529 H3541 0.929 . S
C3530 C3526 1.531 . S
C3530 H3542 0.960 . S
C3530 H3543 0.962 . S
C3530 H3544 0.960 . S
C3531 C3528 1.511 . S
C3531 H3545 0.961 . S
C3531 H3546 0.961 . S
C3531 H3547 0.961 . S
C3532 C3533 1.370 . S
C3532 C3534 1.363 . S
C3532 H3548 0.931 . S
C3533 C3532 1.370 . S
C3533 C3537 1.408 . S
C3534 C3532 1.363 . S
C3534 C3535 1.370 . S
C3534 C3538 1.524 . S
C3535 C3527 1.503 . S
C3535 C3534 1.370 . S
C3535 C3536 1.403 . S
C3536 C3535 1.403 . S
C3536 C3537 1.404 . S
C3536 C3539 1.539 . S
C3537 C3533 1.408 . S
C3537 C3536 1.404 . S
C3537 H3549 0.930 . S
C3538 C3534 1.524 . S
C3538 H3550 0.956 . S
C3538 H3551 0.961 . S
C3538 H3552 0.961 . S
C3539 C3536 1.539 . S
C3539 H3553 0.958 . S
C3539 H3554 0.961 . S
C3539 H3555 0.960 . S
H3540 C3524 0.931 . S
H3541 C3529 0.929 . S
H3542 C3530 0.960 . S
H3543 C3530 0.962 . S
H3544 C3530 0.960 . S
H3545 C3531 0.961 . S
H3546 C3531 0.961 . S
H3547 C3531 0.961 . S
H3548 C3532 0.931 . S
H3549 C3537 0.930 . S
H3550 C3538 0.956 . S
H3551 C3538 0.961 . S
H3552 C3538 0.961 . S
H3553 C3539 0.958 . S
H3554 C3539 0.961 . S
H3555 C3539 0.960 . S
C3556 C3557 1.391 . S
C3556 C3558 1.394 . S
C3556 H3572 0.931 . S
C3557 C3556 1.391 . S
C3557 C3561 1.376 . S
C3558 C3556 1.394 . S
C3558 C3559 1.369 . S
C3558 C3562 1.531 . S
C3559 C3558 1.369 . S
C3559 C3560 1.410 . S
C3559 C3567 1.503 . S
C3560 C3559 1.410 . S
C3560 C3561 1.392 . S
C3560 C3563 1.511 . S
C3561 C3557 1.376 . S
C3561 C3560 1.392 . S
C3561 H3573 0.929 . S
C3562 C3558 1.531 . S
C3562 H3574 0.960 . S
C3562 H3575 0.962 . S
C3562 H3576 0.960 . S
C3563 C3560 1.511 . S
C3563 H3577 0.961 . S
C3563 H3578 0.961 . S
C3563 H3579 0.961 . S
C3564 C3565 1.370 . S
C3564 C3566 1.363 . S
C3564 H3580 0.931 . S
C3565 C3564 1.370 . S
C3565 C3569 1.408 . S
C3566 C3564 1.363 . S
C3566 C3567 1.370 . S
C3566 C3570 1.524 . S
C3567 C3559 1.503 . S
C3567 C3566 1.370 . S
C3567 C3568 1.403 . S
C3568 C3567 1.403 . S
C3568 C3569 1.404 . S
C3568 C3571 1.539 . S
C3569 C3565 1.408 . S
C3569 C3568 1.404 . S
C3569 H3581 0.930 . S
C3570 C3566 1.524 . S
C3570 H3582 0.956 . S
C3570 H3583 0.961 . S
C3570 H3584 0.961 . S
C3571 C3568 1.539 . S
C3571 H3585 0.958 . S
C3571 H3586 0.961 . S
C3571 H3587 0.960 . S
H3572 C3556 0.931 . S
H3573 C3561 0.929 . S
H3574 C3562 0.960 . S
H3575 C3562 0.962 . S
H3576 C3562 0.960 . S
H3577 C3563 0.961 . S
H3578 C3563 0.961 . S
H3579 C3563 0.961 . S
H3580 C3564 0.931 . S
H3581 C3569 0.930 . S
H3582 C3570 0.956 . S
H3583 C3570 0.961 . S
H3584 C3570 0.961 . S
H3585 C3571 0.958 . S
H3586 C3571 0.961 . S
H3587 C3571 0.960 . S
C3588 C3589 1.391 . S
C3588 C3590 1.394 . S
C3588 H3604 0.931 . S
C3589 C3588 1.391 . S
C3589 C3593 1.376 . S
C3590 C3588 1.394 . S
C3590 C3591 1.369 . S
C3590 C3594 1.531 . S
C3591 C3590 1.369 . S
C3591 C3592 1.410 . S
C3591 C3599 1.503 . S
C3592 C3591 1.410 . S
C3592 C3593 1.392 . S
C3592 C3595 1.511 . S
C3593 C3589 1.376 . S
C3593 C3592 1.392 . S
C3593 H3605 0.929 . S
C3594 C3590 1.531 . S
C3594 H3606 0.960 . S
C3594 H3607 0.962 . S
C3594 H3608 0.960 . S
C3595 C3592 1.511 . S
C3595 H3609 0.961 . S
C3595 H3610 0.961 . S
C3595 H3611 0.961 . S
C3596 C3597 1.370 . S
C3596 C3598 1.363 . S
C3596 H3612 0.931 . S
C3597 C3596 1.370 . S
C3597 C3601 1.408 . S
C3598 C3596 1.363 . S
C3598 C3599 1.370 . S
C3598 C3602 1.524 . S
C3599 C3591 1.503 . S
C3599 C3598 1.370 . S
C3599 C3600 1.403 . S
C3600 C3599 1.403 . S
C3600 C3601 1.404 . S
C3600 C3603 1.539 . S
C3601 C3597 1.408 . S
C3601 C3600 1.404 . S
C3601 H3613 0.930 . S
C3602 C3598 1.524 . S
C3602 H3614 0.956 . S
C3602 H3615 0.961 . S
C3602 H3616 0.961 . S
C3603 C3600 1.539 . S
C3603 H3617 0.958 . S
C3603 H3618 0.961 . S
C3603 H3619 0.960 . S
H3604 C3588 0.931 . S
H3605 C3593 0.929 . S
H3606 C3594 0.960 . S
H3607 C3594 0.962 . S
H3608 C3594 0.960 . S
H3609 C3595 0.961 . S
H3610 C3595 0.961 . S
H3611 C3595 0.961 . S
H3612 C3596 0.931 . S
H3613 C3601 0.930 . S
H3614 C3602 0.956 . S
H3615 C3602 0.961 . S
H3616 C3602 0.961 . S
H3617 C3603 0.958 . S
H3618 C3603 0.961 . S
H3619 C3603 0.960 . S
C3620 C3621 1.391 . S
C3620 C3622 1.394 . S
C3620 H3636 0.931 . S
C3621 C3620 1.391 . S
C3621 C3625 1.376 . S
C3622 C3620 1.394 . S
C3622 C3623 1.369 . S
C3622 C3626 1.531 . S
C3623 C3622 1.369 . S
C3623 C3624 1.410 . S
C3623 C3631 1.503 . S
C3624 C3623 1.410 . S
C3624 C3625 1.392 . S
C3624 C3627 1.511 . S
C3625 C3621 1.376 . S
C3625 C3624 1.392 . S
C3625 H3637 0.929 . S
C3626 C3622 1.531 . S
C3626 H3638 0.960 . S
C3626 H3639 0.962 . S
C3626 H3640 0.960 . S
C3627 C3624 1.511 . S
C3627 H3641 0.961 . S
C3627 H3642 0.961 . S
C3627 H3643 0.961 . S
C3628 C3629 1.370 . S
C3628 C3630 1.363 . S
C3628 H3644 0.931 . S
C3629 C3628 1.370 . S
C3629 C3633 1.408 . S
C3630 C3628 1.363 . S
C3630 C3631 1.370 . S
C3630 C3634 1.524 . S
C3631 C3623 1.503 . S
C3631 C3630 1.370 . S
C3631 C3632 1.403 . S
C3632 C3631 1.403 . S
C3632 C3633 1.404 . S
C3632 C3635 1.539 . S
C3633 C3629 1.408 . S
C3633 C3632 1.404 . S
C3633 H3645 0.930 . S
C3634 C3630 1.524 . S
C3634 H3646 0.956 . S
C3634 H3647 0.961 . S
C3634 H3648 0.961 . S
C3635 C3632 1.539 . S
C3635 H3649 0.958 . S
C3635 H3650 0.961 . S
C3635 H3651 0.960 . S
H3636 C3620 0.931 . S
H3637 C3625 0.929 . S
H3638 C3626 0.960 . S
H3639 C3626 0.962 . S
H3640 C3626 0.960 . S
H3641 C3627 0.961 . S
H3642 C3627 0.961 . S
H3643 C3627 0.961 . S
H3644 C3628 0.931 . S
H3645 C3633 0.930 . S
H3646 C3634 0.956 . S
H3647 C3634 0.961 . S
H3648 C3634 0.961 . S
H3649 C3635 0.958 . S
H3650 C3635 0.961 . S
H3651 C3635 0.960 . S
C3652 C3653 1.391 . S
C3652 C3654 1.394 . S
C3652 H3668 0.931 . S
C3653 C3652 1.391 . S
C3653 C3657 1.376 . S
C3654 C3652 1.394 . S
C3654 C3655 1.369 . S
C3654 C3658 1.531 . S
C3655 C3654 1.369 . S
C3655 C3656 1.410 . S
C3655 C3663 1.503 . S
C3656 C3655 1.410 . S
C3656 C3657 1.392 . S
C3656 C3659 1.511 . S
C3657 C3653 1.376 . S
C3657 C3656 1.392 . S
C3657 H3669 0.929 . S
C3658 C3654 1.531 . S
C3658 H3670 0.960 . S
C3658 H3671 0.962 . S
C3658 H3672 0.960 . S
C3659 C3656 1.511 . S
C3659 H3673 0.961 . S
C3659 H3674 0.961 . S
C3659 H3675 0.961 . S
C3660 C3661 1.370 . S
C3660 C3662 1.363 . S
C3660 H3676 0.931 . S
C3661 C3660 1.370 . S
C3661 C3665 1.408 . S
C3662 C3660 1.363 . S
C3662 C3663 1.370 . S
C3662 C3666 1.524 . S
C3663 C3655 1.503 . S
C3663 C3662 1.370 . S
C3663 C3664 1.403 . S
C3664 C3663 1.403 . S
C3664 C3665 1.404 . S
C3664 C3667 1.539 . S
C3665 C3661 1.408 . S
C3665 C3664 1.404 . S
C3665 H3677 0.930 . S
C3666 C3662 1.524 . S
C3666 H3678 0.956 . S
C3666 H3679 0.961 . S
C3666 H3680 0.961 . S
C3667 C3664 1.539 . S
C3667 H3681 0.958 . S
C3667 H3682 0.961 . S
C3667 H3683 0.960 . S
H3668 C3652 0.931 . S
H3669 C3657 0.929 . S
H3670 C3658 0.960 . S
H3671 C3658 0.962 . S
H3672 C3658 0.960 . S
H3673 C3659 0.961 . S
H3674 C3659 0.961 . S
H3675 C3659 0.961 . S
H3676 C3660 0.931 . S
H3677 C3665 0.930 . S
H3678 C3666 0.956 . S
H3679 C3666 0.961 . S
H3680 C3666 0.961 . S
H3681 C3667 0.958 . S
H3682 C3667 0.961 . S
H3683 C3667 0.960 . S
C3684 C3685 1.391 . S
C3684 C3686 1.394 . S
C3684 H3700 0.931 . S
C3685 C3684 1.391 . S
C3685 C3689 1.376 . S
C3686 C3684 1.394 . S
C3686 C3687 1.369 . S
C3686 C3690 1.531 . S
C3687 C3686 1.369 . S
C3687 C3688 1.410 . S
C3687 C3695 1.503 . S
C3688 C3687 1.410 . S
C3688 C3689 1.392 . S
C3688 C3691 1.511 . S
C3689 C3685 1.376 . S
C3689 C3688 1.392 . S
C3689 H3701 0.929 . S
C3690 C3686 1.531 . S
C3690 H3702 0.960 . S
C3690 H3703 0.962 . S
C3690 H3704 0.960 . S
C3691 C3688 1.511 . S
C3691 H3705 0.961 . S
C3691 H3706 0.961 . S
C3691 H3707 0.961 . S
C3692 C3693 1.370 . S
C3692 C3694 1.363 . S
C3692 H3708 0.931 . S
C3693 C3692 1.370 . S
C3693 C3697 1.408 . S
C3694 C3692 1.363 . S
C3694 C3695 1.370 . S
C3694 C3698 1.524 . S
C3695 C3687 1.503 . S
C3695 C3694 1.370 . S
C3695 C3696 1.403 . S
C3696 C3695 1.403 . S
C3696 C3697 1.404 . S
C3696 C3699 1.539 . S
C3697 C3693 1.408 . S
C3697 C3696 1.404 . S
C3697 H3709 0.930 . S
C3698 C3694 1.524 . S
C3698 H3710 0.956 . S
C3698 H3711 0.961 . S
C3698 H3712 0.961 . S
C3699 C3696 1.539 . S
C3699 H3713 0.958 . S
C3699 H3714 0.961 . S
C3699 H3715 0.960 . S
H3700 C3684 0.931 . S
H3701 C3689 0.929 . S
H3702 C3690 0.960 . S
H3703 C3690 0.962 . S
H3704 C3690 0.960 . S
H3705 C3691 0.961 . S
H3706 C3691 0.961 . S
H3707 C3691 0.961 . S
H3708 C3692 0.931 . S
H3709 C3697 0.930 . S
H3710 C3698 0.956 . S
H3711 C3698 0.961 . S
H3712 C3698 0.961 . S
H3713 C3699 0.958 . S
H3714 C3699 0.961 . S
H3715 C3699 0.960 . S
C3716 C3717 1.391 . S
C3716 C3718 1.394 . S
C3716 H3732 0.931 . S
C3717 C3716 1.391 . S
C3717 C3721 1.376 . S
C3718 C3716 1.394 . S
C3718 C3719 1.369 . S
C3718 C3722 1.531 . S
C3719 C3718 1.369 . S
C3719 C3720 1.410 . S
C3719 C3727 1.503 . S
C3720 C3719 1.410 . S
C3720 C3721 1.392 . S
C3720 C3723 1.511 . S
C3721 C3717 1.376 . S
C3721 C3720 1.392 . S
C3721 H3733 0.929 . S
C3722 C3718 1.531 . S
C3722 H3734 0.960 . S
C3722 H3735 0.962 . S
C3722 H3736 0.960 . S
C3723 C3720 1.511 . S
C3723 H3737 0.961 . S
C3723 H3738 0.961 . S
C3723 H3739 0.961 . S
C3724 C3725 1.370 . S
C3724 C3726 1.363 . S
C3724 H3740 0.931 . S
C3725 C3724 1.370 . S
C3725 C3729 1.408 . S
C3726 C3724 1.363 . S
C3726 C3727 1.370 . S
C3726 C3730 1.524 . S
C3727 C3719 1.503 . S
C3727 C3726 1.370 . S
C3727 C3728 1.403 . S
C3728 C3727 1.403 . S
C3728 C3729 1.404 . S
C3728 C3731 1.539 . S
C3729 C3725 1.408 . S
C3729 C3728 1.404 . S
C3729 H3741 0.930 . S
C3730 C3726 1.524 . S
C3730 H3742 0.956 . S
C3730 H3743 0.961 . S
C3730 H3744 0.961 . S
C3731 C3728 1.539 . S
C3731 H3745 0.958 . S
C3731 H3746 0.961 . S
C3731 H3747 0.960 . S
H3732 C3716 0.931 . S
H3733 C3721 0.929 . S
H3734 C3722 0.960 . S
H3735 C3722 0.962 . S
H3736 C3722 0.960 . S
H3737 C3723 0.961 . S
H3738 C3723 0.961 . S
H3739 C3723 0.961 . S
H3740 C3724 0.931 . S
H3741 C3729 0.930 . S
H3742 C3730 0.956 . S
H3743 C3730 0.961 . S
H3744 C3730 0.961 . S
H3745 C3731 0.958 . S
H3746 C3731 0.961 . S
H3747 C3731 0.960 . S
C3748 C3749 1.391 . S
C3748 C3750 1.394 . S
C3748 H3764 0.931 . S
C3749 C3748 1.391 . S
C3749 C3753 1.376 . S
C3750 C3748 1.394 . S
C3750 C3751 1.369 . S
C3750 C3754 1.531 . S
C3751 C3750 1.369 . S
C3751 C3752 1.410 . S
C3751 C3759 1.503 . S
C3752 C3751 1.410 . S
C3752 C3753 1.392 . S
C3752 C3755 1.511 . S
C3753 C3749 1.376 . S
C3753 C3752 1.392 . S
C3753 H3765 0.929 . S
C3754 C3750 1.531 . S
C3754 H3766 0.960 . S
C3754 H3767 0.962 . S
C3754 H3768 0.960 . S
C3755 C3752 1.511 . S
C3755 H3769 0.961 . S
C3755 H3770 0.961 . S
C3755 H3771 0.961 . S
C3756 C3757 1.370 . S
C3756 C3758 1.363 . S
C3756 H3772 0.931 . S
C3757 C3756 1.370 . S
C3757 C3761 1.408 . S
C3758 C3756 1.363 . S
C3758 C3759 1.370 . S
C3758 C3762 1.524 . S
C3759 C3751 1.503 . S
C3759 C3758 1.370 . S
C3759 C3760 1.403 . S
C3760 C3759 1.403 . S
C3760 C3761 1.404 . S
C3760 C3763 1.539 . S
C3761 C3757 1.408 . S
C3761 C3760 1.404 . S
C3761 H3773 0.930 . S
C3762 C3758 1.524 . S
C3762 H3774 0.956 . S
C3762 H3775 0.961 . S
C3762 H3776 0.961 . S
C3763 C3760 1.539 . S
C3763 H3777 0.958 . S
C3763 H3778 0.961 . S
C3763 H3779 0.960 . S
H3764 C3748 0.931 . S
H3765 C3753 0.929 . S
H3766 C3754 0.960 . S
H3767 C3754 0.962 . S
H3768 C3754 0.960 . S
H3769 C3755 0.961 . S
H3770 C3755 0.961 . S
H3771 C3755 0.961 . S
H3772 C3756 0.931 . S
H3773 C3761 0.930 . S
H3774 C3762 0.956 . S
H3775 C3762 0.961 . S
H3776 C3762 0.961 . S
H3777 C3763 0.958 . S
H3778 C3763 0.961 . S
H3779 C3763 0.960 . S
C3780 C3781 1.391 . S
C3780 C3782 1.394 . S
C3780 H3796 0.931 . S
C3781 C3780 1.391 . S
C3781 C3785 1.376 . S
C3782 C3780 1.394 . S
C3782 C3783 1.369 . S
C3782 C3786 1.531 . S
C3783 C3782 1.369 . S
C3783 C3784 1.410 . S
C3783 C3791 1.503 . S
C3784 C3783 1.410 . S
C3784 C3785 1.392 . S
C3784 C3787 1.511 . S
C3785 C3781 1.376 . S
C3785 C3784 1.392 . S
C3785 H3797 0.929 . S
C3786 C3782 1.531 . S
C3786 H3798 0.960 . S
C3786 H3799 0.962 . S
C3786 H3800 0.960 . S
C3787 C3784 1.511 . S
C3787 H3801 0.961 . S
C3787 H3802 0.961 . S
C3787 H3803 0.961 . S
C3788 C3789 1.370 . S
C3788 C3790 1.363 . S
C3788 H3804 0.931 . S
C3789 C3788 1.370 . S
C3789 C3793 1.408 . S
C3790 C3788 1.363 . S
C3790 C3791 1.370 . S
C3790 C3794 1.524 . S
C3791 C3783 1.503 . S
C3791 C3790 1.370 . S
C3791 C3792 1.403 . S
C3792 C3791 1.403 . S
C3792 C3793 1.404 . S
C3792 C3795 1.539 . S
C3793 C3789 1.408 . S
C3793 C3792 1.404 . S
C3793 H3805 0.930 . S
C3794 C3790 1.524 . S
C3794 H3806 0.956 . S
C3794 H3807 0.961 . S
C3794 H3808 0.961 . S
C3795 C3792 1.539 . S
C3795 H3809 0.958 . S
C3795 H3810 0.961 . S
C3795 H3811 0.960 . S
H3796 C3780 0.931 . S
H3797 C3785 0.929 . S
H3798 C3786 0.960 . S
H3799 C3786 0.962 . S
H3800 C3786 0.960 . S
H3801 C3787 0.961 . S
H3802 C3787 0.961 . S
H3803 C3787 0.961 . S
H3804 C3788 0.931 . S
H3805 C3793 0.930 . S
H3806 C3794 0.956 . S
H3807 C3794 0.961 . S
H3808 C3794 0.961 . S
H3809 C3795 0.958 . S
H3810 C3795 0.961 . S
H3811 C3795 0.960 . S
C3812 C3813 1.391 . S
C3812 C3814 1.394 . S
C3812 H3828 0.931 . S
C3813 C3812 1.391 . S
C3813 C3817 1.376 . S
C3814 C3812 1.394 . S
C3814 C3815 1.369 . S
C3814 C3818 1.531 . S
C3815 C3814 1.369 . S
C3815 C3816 1.410 . S
C3815 C3823 1.503 . S
C3816 C3815 1.410 . S
C3816 C3817 1.392 . S
C3816 C3819 1.511 . S
C3817 C3813 1.376 . S
C3817 C3816 1.392 . S
C3817 H3829 0.929 . S
C3818 C3814 1.531 . S
C3818 H3830 0.960 . S
C3818 H3831 0.962 . S
C3818 H3832 0.960 . S
C3819 C3816 1.511 . S
C3819 H3833 0.961 . S
C3819 H3834 0.961 . S
C3819 H3835 0.961 . S
C3820 C3821 1.370 . S
C3820 C3822 1.363 . S
C3820 H3836 0.931 . S
C3821 C3820 1.370 . S
C3821 C3825 1.408 . S
C3822 C3820 1.363 . S
C3822 C3823 1.370 . S
C3822 C3826 1.524 . S
C3823 C3815 1.503 . S
C3823 C3822 1.370 . S
C3823 C3824 1.403 . S
C3824 C3823 1.403 . S
C3824 C3825 1.404 . S
C3824 C3827 1.539 . S
C3825 C3821 1.408 . S
C3825 C3824 1.404 . S
C3825 H3837 0.930 . S
C3826 C3822 1.524 . S
C3826 H3838 0.956 . S
C3826 H3839 0.961 . S
C3826 H3840 0.961 . S
C3827 C3824 1.539 . S
C3827 H3841 0.958 . S
C3827 H3842 0.961 . S
C3827 H3843 0.960 . S
H3828 C3812 0.931 . S
H3829 C3817 0.929 . S
H3830 C3818 0.960 . S
H3831 C3818 0.962 . S
H3832 C3818 0.960 . S
H3833 C3819 0.961 . S
H3834 C3819 0.961 . S
H3835 C3819 0.961 . S
H3836 C3820 0.931 . S
H3837 C3825 0.930 . S
H3838 C3826 0.956 . S
H3839 C3826 0.961 . S
H3840 C3826 0.961 . S
H3841 C3827 0.958 . S
H3842 C3827 0.961 . S
H3843 C3827 0.960 . S
C3844 C3845 1.391 . S
C3844 C3846 1.394 . S
C3844 H3860 0.931 . S
C3845 C3844 1.391 . S
C3845 C3849 1.376 . S
C3846 C3844 1.394 . S
C3846 C3847 1.369 . S
C3846 C3850 1.531 . S
C3847 C3846 1.369 . S
C3847 C3848 1.410 . S
C3847 C3855 1.503 . S
C3848 C3847 1.410 . S
C3848 C3849 1.392 . S
C3848 C3851 1.511 . S
C3849 C3845 1.376 . S
C3849 C3848 1.392 . S
C3849 H3861 0.929 . S
C3850 C3846 1.531 . S
C3850 H3862 0.960 . S
C3850 H3863 0.962 . S
C3850 H3864 0.960 . S
C3851 C3848 1.511 . S
C3851 H3865 0.961 . S
C3851 H3866 0.961 . S
C3851 H3867 0.961 . S
C3852 C3853 1.370 . S
C3852 C3854 1.363 . S
C3852 H3868 0.931 . S
C3853 C3852 1.370 . S
C3853 C3857 1.408 . S
C3854 C3852 1.363 . S
C3854 C3855 1.370 . S
C3854 C3858 1.524 . S
C3855 C3847 1.503 . S
C3855 C3854 1.370 . S
C3855 C3856 1.403 . S
C3856 C3855 1.403 . S
C3856 C3857 1.404 . S
C3856 C3859 1.539 . S
C3857 C3853 1.408 . S
C3857 C3856 1.404 . S
C3857 H3869 0.930 . S
C3858 C3854 1.524 . S
C3858 H3870 0.956 . S
C3858 H3871 0.961 . S
C3858 H3872 0.961 . S
C3859 C3856 1.539 . S
C3859 H3873 0.958 . S
C3859 H3874 0.961 . S
C3859 H3875 0.960 . S
H3860 C3844 0.931 . S
H3861 C3849 0.929 . S
H3862 C3850 0.960 . S
H3863 C3850 0.962 . S
H3864 C3850 0.960 . S
H3865 C3851 0.961 . S
H3866 C3851 0.961 . S
H3867 C3851 0.961 . S
H3868 C3852 0.931 . S
H3869 C3857 0.930 . S
H3870 C3858 0.956 . S
H3871 C3858 0.961 . S
H3872 C3858 0.961 . S
H3873 C3859 0.958 . S
H3874 C3859 0.961 . S
H3875 C3859 0.960 . S
C3876 C3877 1.391 . S
C3876 C3878 1.394 . S
C3876 H3892 0.931 . S
C3877 C3876 1.391 . S
C3877 C3881 1.376 . S
C3878 C3876 1.394 . S
C3878 C3879 1.369 . S
C3878 C3882 1.531 . S
C3879 C3878 1.369 . S
C3879 C3880 1.410 . S
C3879 C3887 1.503 . S
C3880 C3879 1.410 . S
C3880 C3881 1.392 . S
C3880 C3883 1.511 . S
C3881 C3877 1.376 . S
C3881 C3880 1.392 . S
C3881 H3893 0.929 . S
C3882 C3878 1.531 . S
C3882 H3894 0.960 . S
C3882 H3895 0.962 . S
C3882 H3896 0.960 . S
C3883 C3880 1.511 . S
C3883 H3897 0.961 . S
C3883 H3898 0.961 . S
C3883 H3899 0.961 . S
C3884 C3885 1.370 . S
C3884 C3886 1.363 . S
C3884 H3900 0.931 . S
C3885 C3884 1.370 . S
C3885 C3889 1.408 . S
C3886 C3884 1.363 . S
C3886 C3887 1.370 . S
C3886 C3890 1.524 . S
C3887 C3879 1.503 . S
C3887 C3886 1.370 . S
C3887 C3888 1.403 . S
C3888 C3887 1.403 . S
C3888 C3889 1.404 . S
C3888 C3891 1.539 . S
C3889 C3885 1.408 . S
C3889 C3888 1.404 . S
C3889 H3901 0.930 . S
C3890 C3886 1.524 . S
C3890 H3902 0.956 . S
C3890 H3903 0.961 . S
C3890 H3904 0.961 . S
C3891 C3888 1.539 . S
C3891 H3905 0.958 . S
C3891 H3906 0.961 . S
C3891 H3907 0.960 . S
H3892 C3876 0.931 . S
H3893 C3881 0.929 . S
H3894 C3882 0.960 . S
H3895 C3882 0.962 . S
H3896 C3882 0.960 . S
H3897 C3883 0.961 . S
H3898 C3883 0.961 . S
H3899 C3883 0.961 . S
H3900 C3884 0.931 . S
H3901 C3889 0.930 . S
H3902 C3890 0.956 . S
H3903 C3890 0.961 . S
H3904 C3890 0.961 . S
H3905 C3891 0.958 . S
H3906 C3891 0.961 . S
H3907 C3891 0.960 . S
C3908 C3909 1.391 . S
C3908 C3910 1.394 . S
C3908 H3924 0.931 . S
C3909 C3908 1.391 . S
C3909 C3913 1.376 . S
C3910 C3908 1.394 . S
C3910 C3911 1.369 . S
C3910 C3914 1.531 . S
C3911 C3910 1.369 . S
C3911 C3912 1.410 . S
C3911 C3919 1.503 . S
C3912 C3911 1.410 . S
C3912 C3913 1.392 . S
C3912 C3915 1.511 . S
C3913 C3909 1.376 . S
C3913 C3912 1.392 . S
C3913 H3925 0.929 . S
C3914 C3910 1.531 . S
C3914 H3926 0.960 . S
C3914 H3927 0.962 . S
C3914 H3928 0.960 . S
C3915 C3912 1.511 . S
C3915 H3929 0.961 . S
C3915 H3930 0.961 . S
C3915 H3931 0.961 . S
C3916 C3917 1.370 . S
C3916 C3918 1.363 . S
C3916 H3932 0.931 . S
C3917 C3916 1.370 . S
C3917 C3921 1.408 . S
C3918 C3916 1.363 . S
C3918 C3919 1.370 . S
C3918 C3922 1.524 . S
C3919 C3911 1.503 . S
C3919 C3918 1.370 . S
C3919 C3920 1.403 . S
C3920 C3919 1.403 . S
C3920 C3921 1.404 . S
C3920 C3923 1.539 . S
C3921 C3917 1.408 . S
C3921 C3920 1.404 . S
C3921 H3933 0.930 . S
C3922 C3918 1.524 . S
C3922 H3934 0.956 . S
C3922 H3935 0.961 . S
C3922 H3936 0.961 . S
C3923 C3920 1.539 . S
C3923 H3937 0.958 . S
C3923 H3938 0.961 . S
C3923 H3939 0.960 . S
H3924 C3908 0.931 . S
H3925 C3913 0.929 . S
H3926 C3914 0.960 . S
H3927 C3914 0.962 . S
H3928 C3914 0.960 . S
H3929 C3915 0.961 . S
H3930 C3915 0.961 . S
H3931 C3915 0.961 . S
H3932 C3916 0.931 . S
H3933 C3921 0.930 . S
H3934 C3922 0.956 . S
H3935 C3922 0.961 . S
H3936 C3922 0.961 . S
H3937 C3923 0.958 . S
H3938 C3923 0.961 . S
H3939 C3923 0.960 . S
C3940 C3941 1.391 . S
C3940 C3942 1.394 . S
C3940 H3956 0.931 . S
C3941 C3940 1.391 . S
C3941 C3945 1.376 . S
C3942 C3940 1.394 . S
C3942 C3943 1.369 . S
C3942 C3946 1.531 . S
C3943 C3942 1.369 . S
C3943 C3944 1.410 . S
C3943 C3951 1.503 . S
C3944 C3943 1.410 . S
C3944 C3945 1.392 . S
C3944 C3947 1.511 . S
C3945 C3941 1.376 . S
C3945 C3944 1.392 . S
C3945 H3957 0.929 . S
C3946 C3942 1.531 . S
C3946 H3958 0.960 . S
C3946 H3959 0.962 . S
C3946 H3960 0.960 . S
C3947 C3944 1.511 . S
C3947 H3961 0.961 . S
C3947 H3962 0.961 . S
C3947 H3963 0.961 . S
C3948 C3949 1.370 . S
C3948 C3950 1.363 . S
C3948 H3964 0.931 . S
C3949 C3948 1.370 . S
C3949 C3953 1.408 . S
C3950 C3948 1.363 . S
C3950 C3951 1.370 . S
C3950 C3954 1.524 . S
C3951 C3943 1.503 . S
C3951 C3950 1.370 . S
C3951 C3952 1.403 . S
C3952 C3951 1.403 . S
C3952 C3953 1.404 . S
C3952 C3955 1.539 . S
C3953 C3949 1.408 . S
C3953 C3952 1.404 . S
C3953 H3965 0.930 . S
C3954 C3950 1.524 . S
C3954 H3966 0.956 . S
C3954 H3967 0.961 . S
C3954 H3968 0.961 . S
C3955 C3952 1.539 . S
C3955 H3969 0.958 . S
C3955 H3970 0.961 . S
C3955 H3971 0.960 . S
H3956 C3940 0.931 . S
H3957 C3945 0.929 . S
H3958 C3946 0.960 . S
H3959 C3946 0.962 . S
H3960 C3946 0.960 . S
H3961 C3947 0.961 . S
H3962 C3947 0.961 . S
H3963 C3947 0.961 . S
H3964 C3948 0.931 . S
H3965 C3953 0.930 . S
H3966 C3954 0.956 . S
H3967 C3954 0.961 . S
H3968 C3954 0.961 . S
H3969 C3955 0.958 . S
H3970 C3955 0.961 . S
H3971 C3955 0.960 . S
C3972 C3973 1.391 . S
C3972 C3974 1.394 . S
C3972 H3988 0.931 . S
C3973 C3972 1.391 . S
C3973 C3977 1.376 . S
C3974 C3972 1.394 . S
C3974 C3975 1.369 . S
C3974 C3978 1.531 . S
C3975 C3974 1.369 . S
C3975 C3976 1.410 . S
C3975 C3983 1.503 . S
C3976 C3975 1.410 . S
C3976 C3977 1.392 . S
C3976 C3979 1.511 . S
C3977 C3973 1.376 . S
C3977 C3976 1.392 . S
C3977 H3989 0.929 . S
C3978 C3974 1.531 . S
C3978 H3990 0.960 . S
C3978 H3991 0.962 . S
C3978 H3992 0.960 . S
C3979 C3976 1.511 . S
C3979 H3993 0.961 . S
C3979 H3994 0.961 . S
C3979 H3995 0.961 . S
C3980 C3981 1.370 . S
C3980 C3982 1.363 . S
C3980 H3996 0.931 . S
C3981 C3980 1.370 . S
C3981 C3985 1.408 . S
C3982 C3980 1.363 . S
C3982 C3983 1.370 . S
C3982 C3986 1.524 . S
C3983 C3975 1.503 . S
C3983 C3982 1.370 . S
C3983 C3984 1.403 . S
C3984 C3983 1.403 . S
C3984 C3985 1.404 . S
C3984 C3987 1.539 . S
C3985 C3981 1.408 . S
C3985 C3984 1.404 . S
C3985 H3997 0.930 . S
C3986 C3982 1.524 . S
C3986 H3998 0.956 . S
C3986 H3999 0.961 . S
C3986 H4000 0.961 . S
C3987 C3984 1.539 . S
C3987 H4001 0.958 . S
C3987 H4002 0.961 . S
C3987 H4003 0.960 . S
H3988 C3972 0.931 . S
H3989 C3977 0.929 . S
H3990 C3978 0.960 . S
H3991 C3978 0.962 . S
H3992 C3978 0.960 . S
H3993 C3979 0.961 . S
H3994 C3979 0.961 . S
H3995 C3979 0.961 . S
H3996 C3980 0.931 . S
H3997 C3985 0.930 . S
H3998 C3986 0.956 . S
H3999 C3986 0.961 . S
H4000 C3986 0.961 . S
H4001 C3987 0.958 . S
H4002 C3987 0.961 . S
H4003 C3987 0.960 . S
C4004 C4005 1.391 . S
C4004 C4006 1.394 . S
C4004 H4020 0.931 . S
C4005 C4004 1.391 . S
C4005 C4009 1.376 . S
C4006 C4004 1.394 . S
C4006 C4007 1.369 . S
C4006 C4010 1.531 . S
C4007 C4006 1.369 . S
C4007 C4008 1.410 . S
C4007 C4015 1.503 . S
C4008 C4007 1.410 . S
C4008 C4009 1.392 . S
C4008 C4011 1.511 . S
C4009 C4005 1.376 . S
C4009 C4008 1.392 . S
C4009 H4021 0.929 . S
C4010 C4006 1.531 . S
C4010 H4022 0.960 . S
C4010 H4023 0.962 . S
C4010 H4024 0.960 . S
C4011 C4008 1.511 . S
C4011 H4025 0.961 . S
C4011 H4026 0.961 . S
C4011 H4027 0.961 . S
C4012 C4013 1.370 . S
C4012 C4014 1.363 . S
C4012 H4028 0.931 . S
C4013 C4012 1.370 . S
C4013 C4017 1.408 . S
C4014 C4012 1.363 . S
C4014 C4015 1.370 . S
C4014 C4018 1.524 . S
C4015 C4007 1.503 . S
C4015 C4014 1.370 . S
C4015 C4016 1.403 . S
C4016 C4015 1.403 . S
C4016 C4017 1.404 . S
C4016 C4019 1.539 . S
C4017 C4013 1.408 . S
C4017 C4016 1.404 . S
C4017 H4029 0.930 . S
C4018 C4014 1.524 . S
C4018 H4030 0.956 . S
C4018 H4031 0.961 . S
C4018 H4032 0.961 . S
C4019 C4016 1.539 . S
C4019 H4033 0.958 . S
C4019 H4034 0.961 . S
C4019 H4035 0.960 . S
H4020 C4004 0.931 . S
H4021 C4009 0.929 . S
H4022 C4010 0.960 . S
H4023 C4010 0.962 . S
H4024 C4010 0.960 . S
H4025 C4011 0.961 . S
H4026 C4011 0.961 . S
H4027 C4011 0.961 . S
H4028 C4012 0.931 . S
H4029 C4017 0.930 . S
H4030 C4018 0.956 . S
H4031 C4018 0.961 . S
H4032 C4018 0.961 . S
H4033 C4019 0.958 . S
H4034 C4019 0.961 . S
H4035 C4019 0.960 . S
C4036 C4037 1.391 . S
C4036 C4038 1.394 . S
C4036 H4052 0.931 . S
C4037 C4036 1.391 . S
C4037 C4041 1.376 . S
C4038 C4036 1.394 . S
C4038 C4039 1.369 . S
C4038 C4042 1.531 . S
C4039 C4038 1.369 . S
C4039 C4040 1.410 . S
C4039 C4047 1.503 . S
C4040 C4039 1.410 . S
C4040 C4041 1.392 . S
C4040 C4043 1.511 . S
C4041 C4037 1.376 . S
C4041 C4040 1.392 . S
C4041 H4053 0.929 . S
C4042 C4038 1.531 . S
C4042 H4054 0.960 . S
C4042 H4055 0.962 . S
C4042 H4056 0.960 . S
C4043 C4040 1.511 . S
C4043 H4057 0.961 . S
C4043 H4058 0.961 . S
C4043 H4059 0.961 . S
C4044 C4045 1.370 . S
C4044 C4046 1.363 . S
C4044 H4060 0.931 . S
C4045 C4044 1.370 . S
C4045 C4049 1.408 . S
C4046 C4044 1.363 . S
C4046 C4047 1.370 . S
C4046 C4050 1.524 . S
C4047 C4039 1.503 . S
C4047 C4046 1.370 . S
C4047 C4048 1.403 . S
C4048 C4047 1.403 . S
C4048 C4049 1.404 . S
C4048 C4051 1.539 . S
C4049 C4045 1.408 . S
C4049 C4048 1.404 . S
C4049 H4061 0.930 . S
C4050 C4046 1.524 . S
C4050 H4062 0.956 . S
C4050 H4063 0.961 . S
C4050 H4064 0.961 . S
C4051 C4048 1.539 . S
C4051 H4065 0.958 . S
C4051 H4066 0.961 . S
C4051 H4067 0.960 . S
H4052 C4036 0.931 . S
H4053 C4041 0.929 . S
H4054 C4042 0.960 . S
H4055 C4042 0.962 . S
H4056 C4042 0.960 . S
H4057 C4043 0.961 . S
H4058 C4043 0.961 . S
H4059 C4043 0.961 . S
H4060 C4044 0.931 . S
H4061 C4049 0.930 . S
H4062 C4050 0.956 . S
H4063 C4050 0.961 . S
H4064 C4050 0.961 . S
H4065 C4051 0.958 . S
H4066 C4051 0.961 . S
H4067 C4051 0.960 . S
C1189 C535 1.287 . S
C1197 C7 1.313 . S
C1221 C40 1.304 . S
C1229 C568 1.309 . S
C1253 C502 1.318 . S
C1261 C73 1.302 . S
C1285 C106 1.282 . S
C1293 C865 1.311 . S
C1317 C799 1.283 . S
C1325 C139 1.313 . S
C1349 C172 1.302 . S
C1357 C832 1.310 . S
C1381 C205 1.299 . S
C1389 C1129 1.303 . S
C1413 C238 1.287 . S
C1421 C1162 1.309 . S
C1445 C271 1.287 . S
C1453 C1096 1.312 . S
C1477 C304 1.306 . S
C1485 C667 1.300 . S
C1509 C337 1.318 . S
C1517 C601 1.300 . S
C1541 C370 1.302 . S
C1549 C634 1.302 . S
C1573 C403 1.303 . S
C1581 C931 1.309 . S
C1605 C964 1.321 . S
C1613 C436 1.300 . S
C1637 C898 1.321 . S
C1645 C469 1.299 . S
C1669 C1063 1.305 . S
C1677 C700 1.306 . S
C1701 C997 1.283 . S
C1709 C733 1.312 . S
C1733 C766 1.297 . S
C1741 C1030 1.304 . S
C1765 N970 1.548 . S
C1773 N13 1.533 . S
C1797 N46 1.507 . S
C1805 N904 1.553 . S
C1829 N79 1.568 . S
C1837 N937 1.529 . S
C1861 N112 1.568 . S
C1869 N442 1.531 . S
C1893 N145 1.511 . S
C1901 N475 1.549 . S
C1925 N409 1.570 . S
C1933 N178 1.532 . S
C1957 N772 1.557 . S
C1965 N211 1.533 . S
C1989 N244 1.512 . S
C1997 N706 1.556 . S
C2021 N277 1.516 . S
C2029 N739 1.550 . S
C2053 N1036 1.565 . S
C2061 N310 1.529 . S
C2085 N1069 1.565 . S
C2093 N343 1.533 . S
C2117 N1003 1.564 . S
C2125 N376 1.530 . S
C2149 N508 1.507 . S
C2157 N838 1.553 . S
C2181 N541 1.563 . S
C2189 N871 1.535 . S
C2213 N574 1.507 . S
C2221 N805 1.552 . S
C2245 N607 1.511 . S
C2253 N1168 1.553 . S
C2277 N1102 1.545 . S
C2285 N640 1.538 . S
C2309 N673 1.522 . S
C2317 N1135 1.549 . S
C2341 C18 1.932 . S
C2349 C612 1.923 . S
C2373 C51 1.932 . S
C2381 C645 1.923 . S
C2405 C678 1.928 . S
C2413 C84 1.925 . S
C2437 C117 1.929 . S
C2445 C1107 1.926 . S
C2469 C150 1.925 . S
C2477 C1140 1.927 . S
C2501 C183 1.928 . S
C2509 C1173 1.925 . S
C2533 C810 1.924 . S
C2541 C216 1.926 . S
C2565 C249 1.921 . S
C2573 C843 1.927 . S
C2597 C876 1.919 . S
C2605 C282 1.929 . S
C2629 C513 1.913 . S
C2637 C315 1.931 . S
C2661 C546 1.932 . S
C2669 C348 1.923 . S
C2693 C381 1.929 . S
C2701 C579 1.925 . S
C2725 C1008 1.916 . S
C2733 C414 1.931 . S
C2757 C1041 1.913 . S
C2765 C447 1.931 . S
C2789 C480 1.930 . S
C2797 C1074 1.925 . S
C2821 C909 1.913 . S
C2829 C711 1.931 . S
C2853 C744 1.922 . S
C2861 C942 1.928 . S
C2885 C975 1.921 . S
C2893 C777 1.928 . S
C2917 N2 1.056 . S
C2925 C252 1.017 . S
C2949 N35 1.052 . S
C2957 C285 1.012 . S
C2981 C219 1.043 . S
C2989 N68 1.021 . S
C3013 C384 1.026 . S
C3021 N101 1.039 . S
C3045 C318 0.974 . S
C3053 N134 1.012 . S
C3077 C351 0.989 . S
C3085 N167 1.010 . S
C3109 C54 1.004 . S
C3117 N200 1.013 . S
C3141 C87 1.055 . S
C3149 N233 1.037 . S
C3173 C21 1.052 . S
C3181 N266 1.038 . S
C3205 N299 1.028 . S
C3213 C186 1.028 . S
C3237 N332 1.054 . S
C3245 C120 1.031 . S
C3269 C153 1.031 . S
C3277 N365 1.021 . S
C3301 C648 1.049 . S
C3309 N398 1.037 . S
C3333 N431 0.989 . S
C3341 C681 1.001 . S
C3365 C615 1.032 . S
C3373 N464 1.039 . S
C3397 C780 1.031 . S
C3405 N497 1.039 . S
C3429 N530 1.053 . S
C3437 C714 1.029 . S
C3461 N563 0.996 . S
C3469 C747 1.017 . S
C3493 N596 1.003 . S
C3501 C450 0.995 . S
C3525 N629 0.995 . S
C3533 C483 0.995 . S
C3557 N662 1.049 . S
C3565 C417 1.015 . S
C3589 N695 0.989 . S
C3597 C582 1.002 . S
C3621 C516 1.010 . S
C3629 N728 1.015 . S
C3653 C549 0.998 . S
C3661 N761 1.012 . S
C3685 C1044 0.981 . S
C3693 N794 1.029 . S
C3717 C1077 1.051 . S
C3725 N827 1.036 . S
C3749 C1011 0.981 . S
C3757 N860 1.011 . S
C3781 C1176 0.975 . S
C3789 N893 1.026 . S
C3813 N926 0.990 . S
C3821 C1110 1.000 . S
C3845 C1143 0.982 . S
C3853 N959 1.011 . S
C3877 C846 1.041 . S
C3885 N992 1.024 . S
C3909 C879 1.052 . S
C3917 N1025 1.031 . S
C3941 C813 0.979 . S
C3949 N1058 1.024 . S
C3973 N1091 1.042 . S
C3981 C978 1.031 . S
C4005 N1124 1.039 . S
C4013 C912 1.031 . S
C4037 C945 1.013 . S
C4045 N1157 1.015 . S
