# Generated by pormake.
# Topology nbo, (4)-cn, num edge types: 1
# Building blocks:
#     Node 0, Type 0, BuildingBlock: KOZSID_clean_sbu_0, # of connection points: 4
#     Node 1, Type 0, BuildingBlock: KOZSID_clean_sbu_0, # of connection points: 4
#     Node 2, Type 0, BuildingBlock: KOZSID_clean_sbu_0, # of connection points: 4
#     Node 3, Type 0, BuildingBlock: KOZSID_clean_sbu_0, # of connection points: 4
#     Node 4, Type 0, BuildingBlock: KOZSID_clean_sbu_0, # of connection points: 4
#     Node 5, Type 0, BuildingBlock: KOZSID_clean_sbu_0, # of connection points: 4
#     Edge 6, Type (0, 0), BuildingBlock: AJUNOK_clean_linker_0, # of connection points: 2
#     Edge 7, Type (0, 0), BuildingBlock: AJUNOK_clean_linker_0, # of connection points: 2
#     Edge 8, Type (0, 0), BuildingBlock: AJUNOK_clean_linker_0, # of connection points: 2
#     Edge 9, Type (0, 0), BuildingBlock: AJUNOK_clean_linker_0, # of connection points: 2
#     Edge 10, Type (0, 0), BuildingBlock: AJUNOK_clean_linker_0, # of connection points: 2
#     Edge 11, Type (0, 0), BuildingBlock: AJUNOK_clean_linker_0, # of connection points: 2
#     Edge 12, Type (0, 0), BuildingBlock: AJUNOK_clean_linker_0, # of connection points: 2
#     Edge 13, Type (0, 0), BuildingBlock: AJUNOK_clean_linker_0, # of connection points: 2
#     Edge 14, Type (0, 0), BuildingBlock: AJUNOK_clean_linker_0, # of connection points: 2
#     Edge 15, Type (0, 0), BuildingBlock: AJUNOK_clean_linker_0, # of connection points: 2
#     Edge 16, Type (0, 0), BuildingBlock: AJUNOK_clean_linker_0, # of connection points: 2
#     Edge 17, Type (0, 0), BuildingBlock: AJUNOK_clean_linker_0, # of connection points: 2
# Relax obj value: 0.000
# Max RMSD: 0.000
# Mean RMSD: 0.000
data_MOF--net-nbo--node1-KOZSID_clean_sbu_0--edge1-AJUNOK_clean_linker_0
_symmetry_space_group_name_H-M    P1
_symmetry_Int_Tables_number       1
_symmetry_cell_setting            triclinic
loop_
_symmetry_equiv_pos_as_xyz
'x, y, z'
_cell_length_a     25.321243
_cell_length_b     30.827974
_cell_length_c     28.180635
_cell_angle_alpha  105.92069
_cell_angle_beta   107.31962
_cell_angle_gamma 106.85681
loop_
_atom_site_label
_atom_site_type_symbol
_atom_site_fract_x
_atom_site_fract_y
_atom_site_fract_z
_atom_type_partial_charge
C0 C 0.8748 0.9811 0.45187 0.0
C1 C 0.82148 0.95138 0.4059 0.0
C2 C 0.83734 0.92853 0.3668 0.0
C3 C 0.89911 0.94528 0.39105 0.0
N4 N 0.92327 0.97726 0.44291 0.0
Co5 Co 0.0105 1.00908 0.49284 0.0
N6 N 0.03557 0.99295 0.43163 0.0
C7 C 0.99868 0.96003 0.38062 0.0
C8 C 0.02812 0.95354 0.34735 0.0
C9 C 0.08766 0.98341 0.37944 0.0
C10 C 0.09131 1.00671 0.43085 0.0
N11 N 0.09791 0.04142 0.543 0.0
C12 C 0.148 0.05371 0.53256 0.0
C13 C 0.20021 0.07845 0.58026 0.0
C14 C 0.18236 0.07943 0.62167 0.0
C15 C 0.12047 0.05612 0.59721 0.0
N16 N 0.98504 0.02436 0.55371 0.0
C17 C 0.01992 0.03871 0.60643 0.0
C18 C 0.99116 0.04948 0.63945 0.0
C19 C 0.93459 0.04127 0.6055 0.0
C20 C 0.93163 0.02519 0.55328 0.0
N21 N 1.00654 0.94585 0.49801 0.0
C22 C 1.002 0.85597 0.5057 0.0
C23 C 0.05154 0.88706 0.50169 0.0
C24 C 0.05254 0.93131 0.49728 0.0
C25 C 0.95463 0.87068 0.50588 0.0
C26 C 0.95803 0.91593 0.50256 0.0
N27 N 0.0141 0.07231 0.48808 0.0
C28 C 0.03709 0.15853 0.53286 0.0
C29 C 0.01147 0.16151 0.4832 0.0
C30 C 0.98853 0.11931 0.43577 0.0
C31 C 0.98984 0.07496 0.4391 0.0
C32 C 0.03853 0.11395 0.5344 0.0
H33 H 0.97023 0.04266 0.40209 0.0
H34 H 0.05853 0.1132 0.57341 0.0
H35 H 0.09058 0.95355 0.493 0.0
H36 H 0.92133 0.92662 0.50363 0.0
C37 C 0.93627 0.938 0.36459 0.0
C38 C 0.87711 1.00943 0.50417 0.0
C39 C 0.14893 0.03528 0.47892 0.0
C40 C 0.08218 0.05211 0.62409 0.0
H41 H 0.77584 0.94641 0.40115 0.0
H42 H 0.80758 0.90396 0.32521 0.0
H43 H 1.00872 0.92959 0.30492 0.0
H44 H 0.12425 0.98588 0.36662 0.0
H45 H 0.24654 0.09214 0.58443 0.0
H46 H 0.21109 0.09556 0.66451 0.0
H47 H 0.01024 0.06456 0.68323 0.0
H48 H 0.90012 0.0474 0.61816 0.0
H49 H 0.08885 0.8768 0.50097 0.0
H50 H 0.91557 0.84762 0.50912 0.0
H51 H 0.05573 0.19052 0.57038 0.0
H52 H 0.9683 0.12025 0.39657 0.0
C53 C 0.57793 0.05685 0.13265 0.0
C54 C 0.6353 0.07912 0.17454 0.0
C55 C 0.67496 0.09831 0.15416 0.0
C56 C 0.64015 0.08594 0.10089 0.0
N57 N 0.58099 0.05997 0.08627 0.0
Co58 Co 0.51634 0.02903 0.01144 0.0
N59 N 0.57638 0.03737 0.97846 0.0
C60 C 0.63589 0.06673 0.00536 0.0
C61 C 0.66638 0.06745 0.97255 0.0
C62 C 0.62334 0.03742 0.92145 0.0
C63 C 0.56866 1.01988 0.92593 0.0
N64 N 0.45122 0.99748 0.93666 0.0
C65 C 0.45403 0.98224 0.88774 0.0
C66 C 0.39702 0.96248 0.84586 0.0
C67 C 0.35763 0.9672 0.86922 0.0
C68 C 0.39245 0.98901 0.92386 0.0
N69 N 0.45671 0.02176 0.04445 0.0
C70 C 0.39845 1.01416 0.02016 0.0
C71 C 0.36889 1.01381 0.05379 0.0
C72 C 0.41121 0.02165 0.10236 0.0
C73 C 0.46423 0.02572 0.09535 0.0
N74 N 0.51718 0.09425 0.01546 0.0
C75 C 0.51038 0.18417 0.01677 0.0
C76 C 0.50837 0.15018 0.97102 0.0
C77 C 0.51261 0.1061 0.9715 0.0
C78 C 0.51723 0.17276 0.06255 0.0
C79 C 0.52018 0.12753 0.06097 0.0
N80 N 0.51521 0.9639 0.00769 0.0
C81 C 0.46054 0.8793 0.9926 0.0
C82 C 0.51432 0.87206 0.00714 0.0
C83 C 0.56839 0.91163 0.0212 0.0
C84 C 0.56795 0.95715 0.02169 0.0
C85 C 0.46189 0.92518 0.9927 0.0
H86 H 0.61058 0.98701 0.034 0.0
H87 H 0.41968 0.92933 0.98097 0.0
H88 H 0.51175 0.08146 0.93597 0.0
H89 H 0.52423 0.11932 0.09639 0.0
C90 C 0.66251 0.08905 0.06175 0.0
C91 C 0.52125 0.03515 0.13838 0.0
C92 C 0.51 0.99286 0.87887 0.0
C93 C 0.3711 0.99945 0.96418 0.0
H94 H 0.64796 0.08074 0.21533 0.0
H95 H 0.72377 0.11636 0.17491 0.0
H96 H 0.71424 0.08724 0.98437 0.0
H97 H 0.63114 0.03064 0.88491 0.0
H98 H 0.38561 0.94827 0.80285 0.0
H99 H 0.30943 0.95627 0.84875 0.0
H100 H 0.32167 1.00684 0.04372 0.0
H101 H 0.40376 0.02387 0.13866 0.0
H102 H 0.50407 0.15781 0.93505 0.0
H103 H 0.51909 0.19813 0.09889 0.0
H104 H 0.41756 0.84953 0.98064 0.0
H105 H 0.61103 0.90773 0.03277 0.0
C106 C 0.15243 0.58272 0.04642 0.0
C107 C 0.20567 0.62509 0.07576 0.0
C108 C 0.1899 0.66254 0.09673 0.0
C109 C 0.1283 0.64099 0.07968 0.0
N110 N 0.1043 0.59227 0.04945 0.0
Co111 Co 0.01776 0.54681 0.01955 0.0
N112 N 0.99153 0.6024 0.02917 0.0
C113 C 0.02821 0.65078 0.05482 0.0
C114 C 0.99893 0.68055 0.04498 0.0
C115 C 0.93987 0.64903 0.01235 0.0
C116 C 0.93581 0.60175 0.00615 0.0
N117 N 0.93127 0.50117 0.99157 0.0
C118 C 0.88076 0.51063 0.9834 0.0
C119 C 0.83244 0.46988 0.97651 0.0
C120 C 0.85275 0.43378 0.97881 0.0
C121 C 0.91241 0.45437 0.98835 0.0
N122 N 0.04429 0.49139 0.00838 0.0
C123 C 0.01136 0.44464 0.99909 0.0
C124 C 0.03898 0.41338 0.98746 0.0
C125 C 0.093 0.44236 0.98995 0.0
C126 C 0.0959 0.49015 0.0042 0.0
N127 N 0.02674 0.55077 0.09275 0.0
C128 C 0.02868 0.54175 0.18996 0.0
C129 C 0.07375 0.53706 0.17219 0.0
C130 C 0.07213 0.54191 0.12377 0.0
C131 C 0.98491 0.55406 0.15962 0.0
C132 C 0.98488 0.55858 0.11156 0.0
N133 N 1.00867 0.54233 0.9463 0.0
C134 C 0.9738 0.49336 0.85125 0.0
C135 C 1.00088 0.53532 0.84245 0.0
C136 C 0.03183 0.58081 0.88687 0.0
C137 C 0.0351 0.58352 0.93812 0.0
C138 C 0.97793 0.49767 0.90323 0.0
H139 H 0.05993 0.61905 0.97123 0.0
H140 H 0.95686 0.46469 0.90867 0.0
H141 H 0.10683 0.53721 0.11079 0.0
H142 H 0.94955 0.56689 0.08894 0.0
C143 C 0.09085 0.66643 0.08054 0.0
C144 C 0.14941 0.53401 0.01721 0.0
C145 C 0.87837 0.55888 0.98711 0.0
C146 C 0.95136 0.43023 0.99255 0.0
H147 H 0.25103 0.62879 0.08079 0.0
H148 H 0.21943 0.7013 0.11907 0.0
H149 H 0.01846 0.7203 0.05848 0.0
H150 H 0.9034 0.65989 0.99711 0.0
H151 H 0.78758 0.46646 0.9727 0.0
H152 H 0.82732 0.39723 0.97519 0.0
H153 H 0.02078 0.37383 0.97585 0.0
H154 H 0.12591 0.42931 0.98176 0.0
H155 H 0.10978 0.52926 0.19524 0.0
H156 H 0.94951 0.55855 0.17191 0.0
H157 H 0.94938 0.45741 0.81812 0.0
H158 H 0.05462 0.61409 0.88239 0.0
C159 C 0.58771 0.53409 0.93525 0.0
C160 C 0.58402 0.52571 0.88308 0.0
C161 C 0.52555 0.4943 0.84835 0.0
C162 C 0.49604 0.48669 0.88088 0.0
N163 N 0.53205 0.51236 0.93398 0.0
Co164 Co 0.50468 0.52102 0.9939 0.0
N165 N 0.41839 0.49288 0.94293 0.0
C166 C 0.39517 0.46467 0.88979 0.0
C167 C 0.33355 0.44896 0.86516 0.0
C168 C 0.31699 0.46861 0.90533 0.0
C169 C 0.36979 0.49573 0.9523 0.0
N170 N 0.47703 0.53046 0.05357 0.0
C171 C 0.42493 0.53381 0.054 0.0
C172 C 0.42689 0.54594 0.10597 0.0
C173 C 0.48082 0.54803 0.13833 0.0
C174 C 0.50932 0.5382 0.10482 0.0
N175 N 0.59091 0.5478 0.04521 0.0
C176 C 0.60901 0.54889 0.09581 0.0
C177 C 0.66833 0.55627 0.11837 0.0
C178 C 0.68917 0.55967 0.07956 0.0
C179 C 0.64178 0.55606 0.03566 0.0
N180 N 0.5118 0.58745 0.99784 0.0
C181 C 0.51484 0.68091 1.00348 0.0
C182 C 0.53993 0.67336 0.05051 0.0
C183 C 0.53848 0.62659 0.04679 0.0
C184 C 0.48922 0.64087 0.95362 0.0
C185 C 0.48767 0.5946 0.9517 0.0
N186 N 0.49751 0.45454 0.99032 0.0
C187 C 0.44954 0.38007 1.00147 0.0
C188 C 0.49665 0.36558 0.99917 0.0
C189 C 0.54234 0.39519 0.98954 0.0
C190 C 0.54151 0.43891 0.98453 0.0
C191 C 0.45095 0.42474 0.99721 0.0
H192 H 0.57759 0.46051 0.9772 0.0
H193 H 0.41505 0.43568 1.00077 0.0
H194 H 0.55825 0.62193 0.08363 0.0
H195 H 0.46605 0.56445 0.9127 0.0
C196 C 0.43337 0.46296 0.86301 0.0
C197 C 0.64523 0.55569 0.9839 0.0
C198 C 0.37187 0.52214 0.0053 0.0
C199 C 0.56944 0.54402 0.12138 0.0
H200 H 0.62004 0.53974 0.87104 0.0
H201 H 0.50638 0.48035 0.80461 0.0
H202 H 0.30448 0.42796 0.82259 0.0
H203 H 0.27138 0.46392 0.90042 0.0
H204 H 0.39338 0.55286 0.11961 0.0
H205 H 0.49832 0.55791 0.18159 0.0
H206 H 0.69306 0.55757 0.15773 0.0
H207 H 0.73366 0.56213 0.083 0.0
H208 H 0.56087 0.70346 0.08989 0.0
H209 H 0.46924 0.64503 0.91629 0.0
H210 H 0.41287 0.35781 0.00813 0.0
H211 H 0.57876 0.38469 0.9861 0.0
C212 C 0.05949 0.54137 0.62818 0.0
C213 C 0.11419 0.56408 0.67333 0.0
C214 C 0.15859 0.57567 0.65522 0.0
C215 C 0.12867 0.55971 0.60032 0.0
N216 N 0.06776 0.53876 0.58214 0.0
Co217 Co 1.00735 0.51141 0.50513 0.0
N218 N 0.07305 0.52672 0.47843 0.0
C219 C 0.13335 0.54575 0.50835 0.0
C220 C 0.16744 0.55349 0.47934 0.0
C221 C 0.12656 0.53919 0.42787 0.0
C222 C 0.06965 0.52351 0.4285 0.0
N223 N 0.94703 0.48544 0.42829 0.0
C224 C 0.95556 0.48761 0.38346 0.0
C225 C 0.90103 0.46805 0.33868 0.0
C226 C 0.8564 0.45383 0.35595 0.0
C227 C 0.88607 0.46547 0.41007 0.0
N228 N 0.94166 0.49504 0.53173 0.0
C229 C 0.88133 0.47248 0.50109 0.0
C230 C 0.84729 0.46435 0.53006 0.0
C231 C 0.88825 0.48239 0.58234 0.0
C232 C 0.94519 0.5008 0.58232 0.0
N233 N 1.00663 0.57779 0.51481 0.0
C234 C 1.00321 0.66912 0.51592 0.0
C235 C 0.95066 0.62866 0.50288 0.0
C236 C 0.95326 0.58377 0.50212 0.0
C237 C 0.05803 0.66364 0.53137 0.0
C238 C 0.05878 0.61827 0.5311 0.0
N239 N 1.00772 0.44466 0.49499 0.0
C240 C 0.95339 0.35625 0.46433 0.0
C241 C 1.00699 0.3507 0.48634 0.0
C242 C 0.06121 0.39272 0.51133 0.0
C243 C 0.06054 0.43896 0.51549 0.0
C244 C 0.95481 0.40297 0.46865 0.0
H245 H 0.1033 0.4696 0.5361 0.0
H246 H 0.91232 0.40434 0.45067 0.0
H247 H 0.91124 0.55422 0.49031 0.0
H248 H 0.102 0.61655 0.54321 0.0
C249 C 0.15655 0.56132 0.56454 0.0
C250 C 1.00113 0.52247 0.63126 0.0
C251 C 0.01411 0.50895 0.38157 0.0
C252 C 0.85811 0.46017 0.44529 0.0
H253 H 0.12131 0.5711 0.71502 0.0
H254 H 0.20697 0.59294 0.67913 0.0
H255 H 0.21627 0.5697 0.49434 0.0
H256 H 0.1375 0.5416 0.39411 0.0
H257 H 0.89431 0.46519 0.29798 0.0
H258 H 0.80805 0.43803 0.33218 0.0
H259 H 0.7985 0.44717 0.51492 0.0
H260 H 0.87743 0.48178 0.61659 0.0
H261 H 0.90731 0.63134 0.49294 0.0
H262 H 0.10025 0.69388 0.54246 0.0
H263 H 0.91034 0.32456 0.44369 0.0
H264 H 0.10393 0.39016 0.52888 0.0
C265 C 0.64814 0.05373 0.5441 0.0
C266 C 0.69959 0.09672 0.57793 0.0
C267 C 0.6804 0.13067 0.60144 0.0
C268 C 0.61865 0.10651 0.58091 0.0
N269 N 0.59775 0.05954 0.54607 0.0
Co270 Co 0.51197 1.0115 0.50786 0.0
N271 N 0.48233 0.06505 0.52184 0.0
C272 C 0.51603 0.11166 0.559 0.0
C273 C 0.48372 0.1402 0.5629 0.0
C274 C 0.42567 0.10961 0.52678 0.0
C275 C 0.42569 0.06374 0.50251 0.0
N276 N 0.42601 0.96331 0.46856 0.0
C277 C 0.37451 0.97068 0.45112 0.0
C278 C 0.32421 0.92602 0.42281 0.0
C279 C 0.34465 0.88975 0.42479 0.0
C280 C 0.40617 0.91405 0.45332 0.0
N281 N 0.54232 0.95841 0.49584 0.0
C282 C 0.50986 0.91007 0.48092 0.0
C283 C 0.54187 0.88187 0.47222 0.0
C284 C 0.59786 0.91444 0.48228 0.0
C285 C 0.59726 0.96108 0.4974 0.0
N286 N 0.51223 1.00653 0.57611 0.0
C287 C 0.51084 0.9992 0.67313 0.0
C288 C 0.56042 0.99991 0.66024 0.0
C289 C 0.56024 1.00361 0.61162 0.0
C290 C 0.4616 1.00105 0.63575 0.0
C291 C 0.46347 1.00515 0.58814 0.0
N292 N 0.51158 1.01585 0.43927 0.0
C293 C 0.50157 0.97631 0.34845 0.0
C294 C 0.51282 0.02063 0.34063 0.0
C295 C 0.52452 0.06284 0.38458 0.0
C296 C 0.5254 0.05993 0.43365 0.0
C297 C 0.49845 0.97432 0.3965 0.0
H298 H 0.53715 0.09349 0.46691 0.0
H299 H 0.48616 0.93882 0.39885 0.0
H300 H 0.59911 1.00431 0.60291 0.0
H301 H 0.42525 1.00732 0.56119 0.0
C302 C 0.5786 0.12845 0.58627 0.0
C303 C 0.64915 1.00729 0.51359 0.0
C304 C 0.3701 1.01872 0.46804 0.0
C305 C 0.44692 0.89173 0.46221 0.0
H306 H 0.74607 0.10285 0.58501 0.0
H307 H 0.70798 0.16889 0.6286 0.0
H308 H 0.50033 0.17867 0.58898 0.0
H309 H 0.38752 0.11979 0.52089 0.0
H310 H 0.27731 0.92044 0.40486 0.0
H311 H 0.31786 0.85038 0.40726 0.0
H312 H 0.52515 0.84204 0.45636 0.0
H313 H 0.63396 0.9044 0.4773 0.0
H314 H 0.59951 0.99853 0.68793 0.0
H315 H 0.42159 0.99936 0.64313 0.0
H316 H 0.49603 0.94289 0.31839 0.0
H317 H 0.53309 0.09825 0.38162 0.0
C318 C 0.04174 0.23588 0.4605 0.0
C319 C 1.00759 0.20836 0.48162 0.0
C320 C 0.04153 0.28194 0.46225 0.0
C321 C 1.00622 0.3016 0.4842 0.0
H322 H 0.06976 0.22218 0.4436 0.0
H323 H 0.06898 0.30225 0.44612 0.0
S324 S 0.90807 0.24325 0.54372 0.0
N325 N 0.93742 0.20371 0.52474 0.0
N326 N 0.93604 0.28953 0.52717 0.0
C327 C 0.97118 0.2739 0.50459 0.0
C328 C 0.97216 0.22751 0.50355 0.0
C329 C 0.79304 0.98477 0.53434 0.0
C330 C 0.81991 1.01071 0.50776 0.0
C331 C 0.73836 0.98428 0.53669 0.0
C332 C 0.70674 1.00731 0.50991 0.0
H333 H 0.81458 0.9648 0.55362 0.0
H334 H 0.72067 0.96565 0.55958 0.0
S335 S 0.75724 0.07944 0.43404 0.0
N336 N 0.81155 0.06083 0.45513 0.0
N337 N 0.70647 0.05708 0.4564 0.0
C338 C 0.7328 0.03296 0.48278 0.0
C339 C 0.78957 0.0349 0.48199 0.0
C340 C 0.04557 0.76221 0.55364 0.0
C341 C 1.00098 0.71648 0.51319 0.0
C342 C 0.04526 0.8071 0.55125 0.0
C343 C 0.99989 0.80815 0.50877 0.0
H344 H 0.081 0.76341 0.58762 0.0
H345 H 0.08072 0.84132 0.58298 0.0
S346 S 0.87525 0.69976 0.39083 0.0
N347 N 0.91215 0.6758 0.42743 0.0
N348 N 0.91066 0.76015 0.42446 0.0
C349 C 0.95507 0.76305 0.46818 0.0
C350 C 0.9558 0.71729 0.47003 0.0
C351 C 0.28474 0.04628 0.44216 0.0
C352 C 0.31147 1.02018 0.46806 0.0
C353 C 0.23279 0.05172 0.44635 0.0
C354 C 0.20493 0.03018 0.47544 0.0
H355 H 0.30506 0.06358 0.41963 0.0
H356 H 0.21416 0.07283 0.42668 0.0
S357 S 0.25618 0.95689 0.54929 0.0
N358 N 0.30645 0.97317 0.52437 0.0
N359 N 0.20695 0.9802 0.52885 0.0
C360 C 0.23048 1.00296 0.5003 0.0
C361 C 0.28408 0.99867 0.49737 0.0
C362 C 0.55073 0.06738 0.28777 0.0
C363 C 0.5139 0.02319 0.28805 0.0
C364 C 0.55255 0.07123 0.2397 0.0
C365 C 0.52081 0.03031 0.18988 0.0
H366 H 0.57881 0.09973 0.32494 0.0
H367 H 0.57889 0.10685 0.24172 0.0
S368 S 0.41395 0.90704 0.1653 0.0
N369 N 0.43871 0.93888 0.23079 0.0
N370 N 0.44978 0.94472 0.14266 0.0
C371 C 0.48405 0.98592 0.18904 0.0
C372 C 0.4791 0.98259 0.23739 0.0
C373 C 0.01593 0.56596 0.27762 0.0
C374 C 0.02621 0.53306 0.23911 0.0
C375 C 0.01174 0.5578 0.32335 0.0
C376 C 0.01742 0.51638 0.33218 0.0
H377 H 0.01158 0.59853 0.2726 0.0
H378 H 1.00427 0.58416 0.35216 0.0
S379 S 0.04128 0.41766 0.24314 0.0
N380 N 0.03948 0.45621 0.21251 0.0
N381 N 0.03212 0.4415 0.29869 0.0
C382 C 0.02711 0.48302 0.29412 0.0
C383 C 0.03149 0.49124 0.24761 0.0
C384 C 0.52689 0.96359 0.74447 0.0
C385 C 0.5105 0.9977 0.72559 0.0
C386 C 0.52545 0.96134 0.79339 0.0
C387 C 0.50773 0.99317 0.82517 0.0
H388 H 0.54037 0.93815 0.72103 0.0
H389 H 0.53872 0.93484 0.8067 0.0
S390 S 0.46395 0.09094 0.79566 0.0
N391 N 0.47873 0.06548 0.74427 0.0
N392 N 0.47506 0.06056 0.83499 0.0
C393 C 0.49167 0.02753 0.80691 0.0
C394 C 0.49329 0.02997 0.75748 0.0
C395 C 0.01369 0.49283 0.70712 0.0
C396 C 0.9989 0.52531 0.68444 0.0
C397 C 0.01323 0.49575 0.75771 0.0
C398 C 0.99844 0.53154 0.7877 0.0
H399 H 0.02607 0.46521 0.68568 0.0
H400 H 0.02577 0.47043 0.77397 0.0
S401 S 0.95398 0.62382 0.74443 0.0
N402 N 0.9677 0.59335 0.69463 0.0
N403 N 0.96635 0.59889 0.78937 0.0
C404 C 0.98288 0.56382 0.76487 0.0
C405 C 0.98319 0.56066 0.71335 0.0
C406 C 0.23368 0.50495 0.03857 0.0
C407 C 0.20511 0.52986 0.01222 0.0
C408 C 0.2866 0.50164 0.0352 0.0
C409 C 0.31566 0.52627 0.00885 0.0
H410 H 0.21499 0.48776 0.06198 0.0
H411 H 0.30508 0.47982 0.0537 0.0
S412 S 0.26104 0.59839 0.93545 0.0
N413 N 0.20935 0.57896 0.95809 0.0
N414 N 0.3123 0.57687 0.95638 0.0
C415 C 0.28836 0.55222 0.98334 0.0
C416 C 0.23276 0.55351 0.98445 0.0
C417 C 0.45184 0.27352 0.97153 0.0
C418 C 0.49875 0.31998 0.0068 0.0
C419 C 0.4555 0.22987 0.97561 0.0
C420 C 0.50553 0.23108 0.0159 0.0
H421 H 0.41291 0.27081 0.93954 0.0
H422 H 0.4191 0.19479 0.94673 0.0
S423 S 0.63899 0.34349 0.11963 0.0
N424 N 0.59604 0.36462 0.08409 0.0
N425 N 0.60219 0.28283 0.09244 0.0
C426 C 0.55182 0.27738 0.05235 0.0
C427 C 0.54863 0.32172 0.04758 0.0
C428 C 0.76576 0.53067 0.9384 0.0
C429 C 0.82025 0.56517 0.98237 0.0
C430 C 0.70958 0.52764 0.93879 0.0
C431 C 0.70483 0.56361 0.97889 0.0
H432 H 0.76641 0.50258 0.90582 0.0
H433 H 0.67008 0.49529 0.9086 0.0
S434 S 0.83336 0.66839 0.0977 0.0
N435 N 0.86514 0.63633 0.06822 0.0
N436 N 0.76033 0.64063 0.05831 0.0
C437 C 0.75911 0.60285 0.01867 0.0
C438 C 0.8164 0.60156 0.02293 0.0
C439 C 0.54086 0.75335 0.97678 0.0
C440 C 0.51515 0.73009 0.00595 0.0
C441 C 0.541 0.79934 0.97787 0.0
C442 C 0.51422 0.82348 0.0072 0.0
H443 H 0.56148 0.73598 0.95322 0.0
H444 H 0.56149 0.81583 0.95491 0.0
S445 S 0.44014 0.77802 0.08983 0.0
N446 N 0.46217 0.73477 0.06499 0.0
N447 N 0.46153 0.82058 0.06635 0.0
C448 C 0.48805 0.80047 0.03627 0.0
C449 C 0.48882 0.75405 0.03588 0.0
loop_
_geom_bond_atom_site_label_1
_geom_bond_atom_site_label_2
_geom_bond_distance
_geom_bond_site_symmetry_2
_ccdc_geom_bond_type
C0 C1 1.443 . S
C0 N4 1.376 . S
C0 C38 1.389 . S
C1 C0 1.443 . S
C1 C2 1.340 . S
C1 H41 0.951 . S
C2 C1 1.340 . S
C2 C3 1.439 . S
C2 H42 0.950 . S
C3 C2 1.439 . S
C3 N4 1.374 . S
C3 C37 1.395 . S
N4 C0 1.376 . S
N4 C3 1.374 . S
N4 Co5 2.000 1_665 S
Co5 N4 2.000 1_445 S
Co5 N6 2.003 1_545 S
Co5 N11 2.016 . S
Co5 N16 1.986 1_455 S
Co5 N21 2.285 1_445 S
Co5 N27 2.280 . S
N6 Co5 2.003 1_565 S
N6 C7 1.376 . S
N6 C10 1.383 . S
C7 N6 1.376 . S
C7 C8 1.445 . S
C7 C37 1.393 1_455 S
C8 C7 1.445 . S
C8 C9 1.339 . S
C8 H43 0.949 . S
C9 C8 1.339 . S
C9 C10 1.439 . S
C9 H44 0.950 . S
C10 N6 1.383 . S
C10 C9 1.439 . S
C10 C39 1.392 1_565 S
N11 Co5 2.016 . S
N11 C12 1.376 . S
N11 C15 1.374 . S
C12 N11 1.376 . S
C12 C13 1.443 . S
C12 C39 1.389 . S
C13 C12 1.443 . S
C13 C14 1.340 . S
C13 H45 0.951 . S
C14 C13 1.340 . S
C14 C15 1.439 . S
C14 H46 0.950 . S
C15 N11 1.374 . S
C15 C14 1.439 . S
C15 C40 1.395 . S
N16 Co5 1.986 1_655 S
N16 C17 1.376 1_655 S
N16 C20 1.383 . S
C17 N16 1.376 1_455 S
C17 C18 1.446 1_455 S
C17 C40 1.391 . S
C18 C17 1.446 1_655 S
C18 C19 1.339 . S
C18 H47 0.949 . S
C19 C18 1.339 . S
C19 C20 1.439 . S
C19 H48 0.950 . S
C20 N16 1.383 . S
C20 C19 1.439 . S
C20 C38 1.393 1_545 S
N21 Co5 2.285 1_665 S
N21 C24 1.332 . S
N21 C26 1.332 . S
C22 C23 1.395 1_655 S
C22 C25 1.388 . S
C23 C22 1.395 1_455 S
C23 C24 1.382 1_455 S
C23 H49 0.950 . S
C24 N21 1.332 . S
C24 C23 1.382 1_655 S
C24 H35 0.952 1_655 S
C25 C22 1.388 . S
C25 C26 1.382 . S
C25 H50 0.950 . S
C26 N21 1.332 . S
C26 C25 1.382 . S
C26 H36 0.948 . S
N27 Co5 2.280 . S
N27 C31 1.332 . S
N27 C32 1.332 . S
C28 C29 1.388 . S
C28 C32 1.382 . S
C28 H51 0.950 . S
C29 C28 1.388 . S
C29 C30 1.386 1_455 S
C30 C29 1.386 1_655 S
C30 C31 1.382 1_655 S
C30 H52 0.950 . S
C31 N27 1.332 . S
C31 C30 1.382 1_455 S
C31 H33 0.952 1_455 S
C32 N27 1.332 . S
C32 C28 1.382 . S
C32 H34 0.948 . S
H33 C31 0.952 1_655 S
H34 C32 0.948 . S
H35 C24 0.952 1_455 S
H36 C26 0.948 . S
C37 C3 1.395 . S
C37 C7 1.393 1_655 S
C38 C0 1.389 . S
C38 C20 1.393 1_565 S
C39 C10 1.392 1_545 S
C39 C12 1.389 . S
C40 C15 1.395 . S
C40 C17 1.391 . S
H41 C1 0.951 . S
H42 C2 0.950 . S
H43 C8 0.949 . S
H44 C9 0.950 . S
H45 C13 0.951 . S
H46 C14 0.950 . S
H47 C18 0.949 . S
H48 C19 0.950 . S
H49 C23 0.950 . S
H50 C25 0.950 . S
H51 C28 0.950 . S
H52 C30 0.950 . S
C53 C54 1.443 . S
C53 N57 1.376 . S
C53 C91 1.389 . S
C54 C53 1.443 . S
C54 C55 1.340 . S
C54 H94 0.951 . S
C55 C54 1.340 . S
C55 C56 1.439 . S
C55 H95 0.950 . S
C56 C55 1.439 . S
C56 N57 1.374 . S
C56 C90 1.395 . S
N57 C53 1.376 . S
N57 C56 1.374 . S
N57 Co58 2.008 . S
Co58 N57 2.008 . S
Co58 N59 1.995 1_554 S
Co58 N64 2.008 1_544 S
Co58 N69 1.995 1_545 S
Co58 N74 2.282 . S
Co58 N80 2.282 1_544 S
N59 Co58 1.995 1_556 S
N59 C60 1.376 1_556 S
N59 C63 1.383 . S
C60 N59 1.376 1_554 S
C60 C61 1.446 1_554 S
C60 C90 1.391 . S
C61 C60 1.446 1_556 S
C61 C62 1.339 . S
C61 H96 0.949 . S
C62 C61 1.339 . S
C62 C63 1.439 . S
C62 H97 0.950 . S
C63 N59 1.383 . S
C63 C62 1.439 . S
C63 C92 1.393 1_545 S
N64 Co58 2.008 1_566 S
N64 C65 1.376 . S
N64 C68 1.374 . S
C65 N64 1.376 . S
C65 C66 1.443 . S
C65 C92 1.389 . S
C66 C65 1.443 . S
C66 C67 1.340 . S
C66 H98 0.951 . S
C67 C66 1.340 . S
C67 C68 1.439 . S
C67 H99 0.950 . S
C68 N64 1.374 . S
C68 C67 1.439 . S
C68 C93 1.395 . S
N69 Co58 1.995 1_565 S
N69 C70 1.378 . S
N69 C73 1.383 . S
C70 N69 1.378 . S
C70 C71 1.463 . S
C70 C93 1.374 1_554 S
C71 C70 1.463 . S
C71 C72 1.339 . S
C71 H100 0.949 . S
C72 C71 1.339 . S
C72 C73 1.439 . S
C72 H101 0.950 . S
C73 N69 1.383 . S
C73 C72 1.439 . S
C73 C91 1.392 1_565 S
N74 Co58 2.282 . S
N74 C77 1.332 . S
N74 C79 1.332 . S
C75 C76 1.386 1_554 S
C75 C78 1.388 . S
C76 C75 1.386 1_556 S
C76 C77 1.382 1_556 S
C76 H102 0.950 . S
C77 N74 1.332 . S
C77 C76 1.382 1_554 S
C77 H88 0.952 1_554 S
C78 C75 1.388 . S
C78 C79 1.382 . S
C78 H103 0.950 . S
C79 N74 1.332 . S
C79 C78 1.382 . S
C79 H89 0.948 . S
N80 Co58 2.282 1_566 S
N80 C84 1.333 1_556 S
N80 C85 1.332 . S
C81 C82 1.388 . S
C81 C85 1.382 . S
C81 H104 0.950 . S
C82 C81 1.388 . S
C82 C83 1.386 1_556 S
C83 C82 1.386 1_554 S
C83 C84 1.387 . S
C83 H105 0.950 . S
C84 N80 1.333 1_554 S
C84 C83 1.387 . S
C84 H86 0.945 . S
C85 N80 1.332 . S
C85 C81 1.382 . S
C85 H87 0.948 . S
H86 C84 0.945 . S
H87 C85 0.948 . S
H88 C77 0.952 1_556 S
H89 C79 0.948 . S
C90 C56 1.395 . S
C90 C60 1.391 . S
C91 C53 1.389 . S
C91 C73 1.392 1_545 S
C92 C63 1.393 1_565 S
C92 C65 1.389 . S
C93 C68 1.395 . S
C93 C70 1.374 1_556 S
H94 C54 0.951 . S
H95 C55 0.950 . S
H96 C61 0.949 . S
H97 C62 0.950 . S
H98 C66 0.951 . S
H99 C67 0.950 . S
H100 C71 0.949 . S
H101 C72 0.950 . S
H102 C76 0.950 . S
H103 C78 0.950 . S
H104 C81 0.950 . S
H105 C83 0.950 . S
C106 C107 1.443 . S
C106 N110 1.376 . S
C106 C144 1.389 . S
C107 C106 1.443 . S
C107 C108 1.340 . S
C107 H147 0.951 . S
C108 C107 1.340 . S
C108 C109 1.439 . S
C108 H148 0.950 . S
C109 C108 1.439 . S
C109 N110 1.374 . S
C109 C143 1.395 . S
N110 C106 1.376 . S
N110 C109 1.374 . S
N110 Co111 2.017 . S
Co111 N110 2.017 . S
Co111 N112 1.986 1_455 S
Co111 N117 2.000 1_454 S
Co111 N122 2.003 1_554 S
Co111 N127 2.280 . S
Co111 N133 2.285 1_454 S
N112 Co111 1.986 1_655 S
N112 C113 1.376 1_655 S
N112 C116 1.383 . S
C113 N112 1.376 1_455 S
C113 C114 1.446 1_455 S
C113 C143 1.391 . S
C114 C113 1.446 1_655 S
C114 C115 1.339 . S
C114 H149 0.949 . S
C115 C114 1.339 . S
C115 C116 1.439 . S
C115 H150 0.950 . S
C116 N112 1.383 . S
C116 C115 1.439 . S
C116 C145 1.395 1_554 S
N117 Co111 2.000 1_656 S
N117 C118 1.376 . S
N117 C121 1.374 . S
C118 N117 1.376 . S
C118 C119 1.443 . S
C118 C145 1.390 . S
C119 C118 1.443 . S
C119 C120 1.340 . S
C119 H151 0.951 . S
C120 C119 1.340 . S
C120 C121 1.439 . S
C120 H152 0.950 . S
C121 N117 1.374 . S
C121 C120 1.439 . S
C121 C146 1.395 . S
N122 Co111 2.003 1_556 S
N122 C123 1.376 . S
N122 C126 1.383 . S
C123 N122 1.376 . S
C123 C124 1.445 . S
C123 C146 1.392 1_455 S
C124 C123 1.445 . S
C124 C125 1.339 . S
C124 H153 0.949 . S
C125 C124 1.339 . S
C125 C126 1.439 . S
C125 H154 0.950 . S
C126 N122 1.383 . S
C126 C125 1.439 . S
C126 C144 1.392 1_556 S
N127 Co111 2.280 . S
N127 C130 1.332 . S
N127 C132 1.332 . S
C128 C129 1.386 1_455 S
C128 C131 1.388 . S
C129 C128 1.386 1_655 S
C129 C130 1.382 1_655 S
C129 H155 0.950 . S
C130 N127 1.332 . S
C130 C129 1.382 1_455 S
C130 H141 0.952 1_455 S
C131 C128 1.388 . S
C131 C132 1.382 . S
C131 H156 0.950 . S
C132 N127 1.332 . S
C132 C131 1.382 . S
C132 H142 0.948 . S
N133 Co111 2.285 1_656 S
N133 C137 1.332 . S
N133 C138 1.332 . S
C134 C135 1.388 . S
C134 C138 1.382 . S
C134 H157 0.950 . S
C135 C134 1.388 . S
C135 C136 1.395 1_655 S
C136 C135 1.395 1_455 S
C136 C137 1.382 1_455 S
C136 H158 0.950 . S
C137 N133 1.332 . S
C137 C136 1.382 1_655 S
C137 H139 0.951 1_655 S
C138 N133 1.332 . S
C138 C134 1.382 . S
C138 H140 0.948 . S
H139 C137 0.951 1_455 S
H140 C138 0.948 . S
H141 C130 0.952 1_655 S
H142 C132 0.948 . S
C143 C109 1.395 . S
C143 C113 1.391 . S
C144 C106 1.389 . S
C144 C126 1.392 1_554 S
C145 C116 1.395 1_556 S
C145 C118 1.390 . S
C146 C121 1.395 . S
C146 C123 1.392 1_655 S
H147 C107 0.951 . S
H148 C108 0.950 . S
H149 C114 0.949 . S
H150 C115 0.950 . S
H151 C119 0.951 . S
H152 C120 0.950 . S
H153 C124 0.949 . S
H154 C125 0.950 . S
H155 C129 0.950 . S
H156 C131 0.950 . S
H157 C134 0.950 . S
H158 C136 0.950 . S
C159 C160 1.443 . S
C159 N163 1.376 . S
C159 C197 1.380 1_556 S
C160 C159 1.443 . S
C160 C161 1.340 . S
C160 H200 0.951 . S
C161 C160 1.340 . S
C161 C162 1.439 . S
C161 H201 0.950 . S
C162 C161 1.439 . S
C162 N163 1.374 . S
C162 C196 1.395 . S
N163 C159 1.376 . S
N163 C162 1.374 . S
N163 Co164 2.008 1_556 S
Co164 N163 2.008 1_554 S
Co164 N165 1.995 1_554 S
Co164 N170 2.008 . S
Co164 N175 1.995 . S
Co164 N180 2.282 1_554 S
Co164 N186 2.282 . S
N165 Co164 1.995 1_556 S
N165 C166 1.376 . S
N165 C169 1.383 . S
C166 N165 1.376 . S
C166 C167 1.446 . S
C166 C196 1.391 . S
C167 C166 1.446 . S
C167 C168 1.339 . S
C167 H202 0.949 . S
C168 C167 1.339 . S
C168 C169 1.439 . S
C168 H203 0.950 . S
C169 N165 1.383 . S
C169 C168 1.439 . S
C169 C198 1.392 1_556 S
N170 Co164 2.008 . S
N170 C171 1.376 . S
N170 C174 1.374 . S
C171 N170 1.376 . S
C171 C172 1.443 . S
C171 C198 1.389 . S
C172 C171 1.443 . S
C172 C173 1.340 . S
C172 H204 0.951 . S
C173 C172 1.340 . S
C173 C174 1.439 . S
C173 H205 0.950 . S
C174 N170 1.374 . S
C174 C173 1.439 . S
C174 C199 1.395 . S
N175 Co164 1.995 . S
N175 C176 1.376 . S
N175 C179 1.383 . S
C176 N175 1.376 . S
C176 C177 1.446 . S
C176 C199 1.391 . S
C177 C176 1.446 . S
C177 C178 1.339 . S
C177 H206 0.949 . S
C178 C177 1.339 . S
C178 C179 1.439 . S
C178 H207 0.950 . S
C179 N175 1.383 . S
C179 C178 1.439 . S
C179 C197 1.404 . S
N180 Co164 2.282 1_556 S
N180 C183 1.332 1_556 S
N180 C185 1.332 . S
C181 C182 1.399 . S
C181 C184 1.380 1_554 S
C182 C181 1.399 . S
C182 C183 1.382 . S
C182 H208 0.950 . S
C183 N180 1.332 1_554 S
C183 C182 1.382 . S
C183 H194 0.952 . S
C184 C181 1.380 1_556 S
C184 C185 1.382 . S
C184 H209 0.950 . S
C185 N180 1.332 . S
C185 C184 1.382 . S
C185 H195 0.948 . S
N186 Co164 2.282 . S
N186 C190 1.332 1_554 S
N186 C191 1.332 . S
C187 C188 1.388 . S
C187 C191 1.382 . S
C187 H210 0.950 . S
C188 C187 1.388 . S
C188 C189 1.386 1_554 S
C189 C188 1.386 1_556 S
C189 C190 1.382 . S
C189 H211 0.950 . S
C190 N186 1.332 1_556 S
C190 C189 1.382 . S
C190 H192 0.952 . S
C191 N186 1.332 . S
C191 C187 1.382 . S
C191 H193 0.948 . S
H192 C190 0.952 . S
H193 C191 0.948 . S
H194 C183 0.952 . S
H195 C185 0.948 . S
C196 C162 1.395 . S
C196 C166 1.391 . S
C197 C159 1.380 1_554 S
C197 C179 1.404 . S
C198 C169 1.392 1_554 S
C198 C171 1.389 . S
C199 C174 1.395 . S
C199 C176 1.391 . S
H200 C160 0.951 . S
H201 C161 0.950 . S
H202 C167 0.949 . S
H203 C168 0.950 . S
H204 C172 0.951 . S
H205 C173 0.950 . S
H206 C177 0.949 . S
H207 C178 0.950 . S
H208 C182 0.950 . S
H209 C184 0.950 . S
H210 C187 0.950 . S
H211 C189 0.950 . S
C212 C213 1.443 . S
C212 N216 1.376 . S
C212 C250 1.389 . S
C213 C212 1.443 . S
C213 C214 1.340 . S
C213 H253 0.951 . S
C214 C213 1.340 . S
C214 C215 1.439 . S
C214 H254 0.950 . S
C215 C214 1.439 . S
C215 N216 1.374 . S
C215 C249 1.395 . S
N216 C212 1.376 . S
N216 C215 1.374 . S
N216 Co217 2.013 . S
Co217 N216 2.013 . S
Co217 N218 2.005 . S
Co217 N223 2.003 1_455 S
Co217 N228 1.984 1_455 S
Co217 N233 2.279 . S
Co217 N239 2.286 1_455 S
N218 Co217 2.005 . S
N218 C219 1.376 . S
N218 C222 1.383 . S
C219 N218 1.376 . S
C219 C220 1.446 . S
C219 C249 1.391 . S
C220 C219 1.446 . S
C220 C221 1.339 . S
C220 H255 0.949 . S
C221 C220 1.339 . S
C221 C222 1.439 . S
C221 H256 0.950 . S
C222 N218 1.383 . S
C222 C221 1.439 . S
C222 C251 1.391 1_455 S
N223 Co217 2.003 1_655 S
N223 C224 1.376 . S
N223 C227 1.374 . S
C224 N223 1.376 . S
C224 C225 1.443 . S
C224 C251 1.390 . S
C225 C224 1.443 . S
C225 C226 1.340 . S
C225 H257 0.951 . S
C226 C225 1.340 . S
C226 C227 1.439 . S
C226 H258 0.950 . S
C227 N223 1.374 . S
C227 C226 1.439 . S
C227 C252 1.395 . S
N228 Co217 1.984 1_655 S
N228 C229 1.376 . S
N228 C232 1.383 . S
C229 N228 1.376 . S
C229 C230 1.446 . S
C229 C252 1.391 . S
C230 C229 1.446 . S
C230 C231 1.339 . S
C230 H259 0.949 . S
C231 C230 1.339 . S
C231 C232 1.439 . S
C231 H260 0.950 . S
C232 N228 1.383 . S
C232 C231 1.439 . S
C232 C250 1.392 1_655 S
N233 Co217 2.279 . S
N233 C236 1.332 1_455 S
N233 C238 1.332 . S
C234 C235 1.386 1_455 S
C234 C237 1.388 . S
C235 C234 1.386 1_655 S
C235 C236 1.382 . S
C235 H261 0.950 . S
C236 N233 1.332 1_655 S
C236 C235 1.382 . S
C236 H247 0.952 . S
C237 C234 1.388 . S
C237 C238 1.382 . S
C237 H262 0.950 . S
C238 N233 1.332 . S
C238 C237 1.382 . S
C238 H248 0.948 . S
N239 Co217 2.286 1_655 S
N239 C243 1.332 1_655 S
N239 C244 1.332 . S
C240 C241 1.387 . S
C240 C244 1.382 . S
C240 H263 0.950 . S
C241 C240 1.387 . S
C241 C242 1.387 1_655 S
C242 C241 1.387 1_455 S
C242 C243 1.382 . S
C242 H264 0.950 . S
C243 N239 1.332 1_455 S
C243 C242 1.382 . S
C243 H245 0.952 . S
C244 N239 1.332 . S
C244 C240 1.382 . S
C244 H246 0.948 . S
H245 C243 0.952 . S
H246 C244 0.948 . S
H247 C236 0.952 . S
H248 C238 0.948 . S
C249 C215 1.395 . S
C249 C219 1.391 . S
C250 C212 1.389 . S
C250 C232 1.392 1_455 S
C251 C222 1.391 1_655 S
C251 C224 1.390 . S
C252 C227 1.395 . S
C252 C229 1.391 . S
H253 C213 0.951 . S
H254 C214 0.950 . S
H255 C220 0.949 . S
H256 C221 0.950 . S
H257 C225 0.951 . S
H258 C226 0.950 . S
H259 C230 0.949 . S
H260 C231 0.950 . S
H261 C235 0.950 . S
H262 C237 0.950 . S
H263 C240 0.950 . S
H264 C242 0.950 . S
C265 C266 1.443 . S
C265 N269 1.376 . S
C265 C303 1.389 . S
C266 C265 1.443 . S
C266 C267 1.340 . S
C266 H306 0.951 . S
C267 C266 1.340 . S
C267 C268 1.439 . S
C267 H307 0.950 . S
C268 C267 1.439 . S
C268 N269 1.374 . S
C268 C302 1.395 . S
N269 C265 1.376 . S
N269 C268 1.374 . S
N269 Co270 2.008 . S
Co270 N269 2.008 . S
Co270 N271 1.995 . S
Co270 N276 2.008 1_545 S
Co270 N281 1.995 1_545 S
Co270 N286 2.282 . S
Co270 N292 2.282 1_545 S
N271 Co270 1.995 . S
N271 C272 1.376 . S
N271 C275 1.383 . S
C272 N271 1.376 . S
C272 C273 1.446 . S
C272 C302 1.391 . S
C273 C272 1.446 . S
C273 C274 1.339 . S
C273 H308 0.949 . S
C274 C273 1.339 . S
C274 C275 1.439 . S
C274 H309 0.950 . S
C275 N271 1.383 . S
C275 C274 1.439 . S
C275 C304 1.406 . S
N276 Co270 2.008 1_565 S
N276 C277 1.376 . S
N276 C280 1.374 . S
C277 N276 1.376 . S
C277 C278 1.443 . S
C277 C304 1.370 1_565 S
C278 C277 1.443 . S
C278 C279 1.340 . S
C278 H310 0.951 . S
C279 C278 1.340 . S
C279 C280 1.439 . S
C279 H311 0.950 . S
C280 N276 1.374 . S
C280 C279 1.439 . S
C280 C305 1.395 . S
N281 Co270 1.995 1_565 S
N281 C282 1.376 . S
N281 C285 1.383 . S
C282 N281 1.376 . S
C282 C283 1.446 . S
C282 C305 1.391 . S
C283 C282 1.446 . S
C283 C284 1.339 . S
C283 H312 0.949 . S
C284 C283 1.339 . S
C284 C285 1.439 . S
C284 H313 0.950 . S
C285 N281 1.383 . S
C285 C284 1.439 . S
C285 C303 1.392 1_565 S
N286 Co270 2.282 . S
N286 C289 1.332 1_545 S
N286 C291 1.332 . S
C287 C288 1.386 1_545 S
C287 C290 1.388 . S
C288 C287 1.386 1_565 S
C288 C289 1.382 . S
C288 H314 0.950 . S
C289 N286 1.332 1_565 S
C289 C288 1.382 . S
C289 H300 0.952 . S
C290 C287 1.388 . S
C290 C291 1.382 . S
C290 H315 0.950 . S
C291 N286 1.332 . S
C291 C290 1.382 . S
C291 H301 0.948 . S
N292 Co270 2.282 1_565 S
N292 C296 1.332 1_565 S
N292 C297 1.332 . S
C293 C294 1.365 1_565 S
C293 C297 1.382 . S
C293 H316 0.950 . S
C294 C293 1.365 1_545 S
C294 C295 1.401 . S
C295 C294 1.401 . S
C295 C296 1.382 . S
C295 H317 0.950 . S
C296 N292 1.332 1_545 S
C296 C295 1.382 . S
C296 H298 0.952 . S
C297 N292 1.332 . S
C297 C293 1.382 . S
C297 H299 0.948 . S
H298 C296 0.952 . S
H299 C297 0.948 . S
H300 C289 0.952 . S
H301 C291 0.948 . S
C302 C268 1.395 . S
C302 C272 1.391 . S
C303 C265 1.389 . S
C303 C285 1.392 1_545 S
C304 C275 1.406 . S
C304 C277 1.370 1_545 S
C305 C280 1.395 . S
C305 C282 1.391 . S
H306 C266 0.951 . S
H307 C267 0.950 . S
H308 C273 0.949 . S
H309 C274 0.950 . S
H310 C278 0.951 . S
H311 C279 0.950 . S
H312 C283 0.949 . S
H313 C284 0.950 . S
H314 C288 0.950 . S
H315 C290 0.950 . S
H316 C293 0.950 . S
H317 C295 0.950 . S
C318 C319 1.368 1_455 S
C318 C320 1.419 . S
C318 H322 0.930 . S
C319 C318 1.368 1_655 S
C319 C328 1.430 . S
C320 C318 1.419 . S
C320 C321 1.361 . S
C320 H323 0.929 . S
C321 C320 1.361 . S
C321 C327 1.430 1_455 S
H322 C318 0.930 . S
H323 C320 0.929 . S
S324 N325 1.613 . S
S324 N326 1.610 . S
N325 S324 1.613 . S
N325 C328 1.350 . S
N326 S324 1.610 . S
N326 C327 1.351 . S
C327 C321 1.430 1_655 S
C327 N326 1.351 . S
C327 C328 1.434 . S
C328 C319 1.430 . S
C328 N325 1.350 . S
C328 C327 1.434 . S
C329 C330 1.369 1_565 S
C329 C331 1.419 . S
C329 H333 0.930 . S
C330 C329 1.369 1_545 S
C330 C339 1.429 . S
C331 C329 1.419 . S
C331 C332 1.363 1_565 S
C331 H334 0.929 . S
C332 C331 1.363 1_545 S
C332 C338 1.428 . S
H333 C329 0.930 . S
H334 C331 0.929 . S
S335 N336 1.613 . S
S335 N337 1.610 . S
N336 S335 1.613 . S
N336 C339 1.350 . S
N337 S335 1.610 . S
N337 C338 1.351 . S
C338 C332 1.428 . S
C338 N337 1.351 . S
C338 C339 1.434 . S
C339 C330 1.429 . S
C339 N336 1.350 . S
C339 C338 1.434 . S
C340 C341 1.364 . S
C340 C342 1.419 . S
C340 H344 0.930 . S
C341 C340 1.364 . S
C341 C350 1.429 1_455 S
C342 C340 1.419 . S
C342 C343 1.363 . S
C342 H345 0.929 . S
C343 C342 1.363 . S
C343 C349 1.433 1_455 S
H344 C340 0.930 . S
H345 C342 0.929 . S
S346 N347 1.613 . S
S346 N348 1.610 . S
N347 S346 1.613 . S
N347 C350 1.350 . S
N348 S346 1.610 . S
N348 C349 1.351 . S
C349 C343 1.433 1_655 S
C349 N348 1.351 . S
C349 C350 1.434 . S
C350 C341 1.429 1_655 S
C350 N347 1.350 . S
C350 C349 1.434 . S
C351 C352 1.369 1_565 S
C351 C353 1.419 . S
C351 H355 0.930 . S
C352 C351 1.369 1_545 S
C352 C361 1.429 . S
C353 C351 1.419 . S
C353 C354 1.363 1_565 S
C353 H356 0.929 . S
C354 C353 1.363 1_545 S
C354 C360 1.428 . S
H355 C351 0.930 . S
H356 C353 0.929 . S
S357 N358 1.613 . S
S357 N359 1.610 . S
N358 S357 1.613 . S
N358 C361 1.350 . S
N359 S357 1.610 . S
N359 C360 1.351 . S
C360 C354 1.428 . S
C360 N359 1.351 . S
C360 C361 1.434 . S
C361 C352 1.429 . S
C361 N358 1.350 . S
C361 C360 1.434 . S
C362 C363 1.380 . S
C362 C364 1.419 . S
C362 H366 0.930 . S
C363 C362 1.380 . S
C363 C372 1.424 1_545 S
C364 C362 1.419 . S
C364 C365 1.369 . S
C364 H367 0.929 . S
C365 C364 1.369 . S
C365 C371 1.415 1_545 S
H366 C362 0.930 . S
H367 C364 0.929 . S
S368 N369 1.613 . S
S368 N370 1.610 . S
N369 S368 1.613 . S
N369 C372 1.350 . S
N370 S368 1.610 . S
N370 C371 1.351 . S
C371 C365 1.415 1_565 S
C371 N370 1.351 . S
C371 C372 1.434 . S
C372 C363 1.424 1_565 S
C372 N369 1.350 . S
C372 C371 1.434 . S
C373 C374 1.369 . S
C373 C375 1.419 . S
C373 H377 0.930 . S
C374 C373 1.369 . S
C374 C383 1.429 1_455 S
C375 C373 1.419 . S
C375 C376 1.363 . S
C375 H378 0.929 . S
C376 C375 1.363 . S
C376 C382 1.430 1_455 S
H377 C373 0.930 . S
H378 C375 0.929 . S
S379 N380 1.613 . S
S379 N381 1.610 . S
N380 S379 1.613 . S
N380 C383 1.350 . S
N381 S379 1.610 . S
N381 C382 1.351 . S
C382 C376 1.430 1_655 S
C382 N381 1.351 . S
C382 C383 1.434 . S
C383 C374 1.429 1_655 S
C383 N380 1.350 . S
C383 C382 1.434 . S
C384 C385 1.369 1_565 S
C384 C386 1.419 . S
C384 H388 0.930 . S
C385 C384 1.369 1_545 S
C385 C394 1.429 . S
C386 C384 1.419 . S
C386 C387 1.363 1_565 S
C386 H389 0.929 . S
C387 C386 1.363 1_545 S
C387 C393 1.428 . S
H388 C384 0.930 . S
H389 C386 0.929 . S
S390 N391 1.613 . S
S390 N392 1.610 . S
N391 S390 1.613 . S
N391 C394 1.350 . S
N392 S390 1.610 . S
N392 C393 1.351 . S
C393 C387 1.428 . S
C393 N392 1.351 . S
C393 C394 1.434 . S
C394 C385 1.429 . S
C394 N391 1.350 . S
C394 C393 1.434 . S
C395 C396 1.371 . S
C395 C397 1.419 . S
C395 H399 0.930 . S
C396 C395 1.371 . S
C396 C405 1.426 1_455 S
C397 C395 1.419 . S
C397 C398 1.367 . S
C397 H400 0.929 . S
C398 C397 1.367 . S
C398 C404 1.426 1_455 S
H399 C395 0.930 . S
H400 C397 0.929 . S
S401 N402 1.613 . S
S401 N403 1.610 . S
N402 S401 1.613 . S
N402 C405 1.350 . S
N403 S401 1.610 . S
N403 C404 1.351 . S
C404 C398 1.426 1_655 S
C404 N403 1.351 . S
C404 C405 1.434 . S
C405 C396 1.426 1_655 S
C405 N402 1.350 . S
C405 C404 1.434 . S
C406 C407 1.378 . S
C406 C408 1.419 . S
C406 H410 0.930 . S
C407 C406 1.378 . S
C407 C416 1.416 1_554 S
C408 C406 1.419 . S
C408 C409 1.380 . S
C408 H411 0.929 . S
C409 C408 1.380 . S
C409 C415 1.416 1_554 S
H410 C406 0.930 . S
H411 C408 0.929 . S
S412 N413 1.613 . S
S412 N414 1.610 . S
N413 S412 1.613 . S
N413 C416 1.350 . S
N414 S412 1.610 . S
N414 C415 1.351 . S
C415 C409 1.416 1_556 S
C415 N414 1.351 . S
C415 C416 1.434 . S
C416 C407 1.416 1_556 S
C416 N413 1.350 . S
C416 C415 1.434 . S
C417 C418 1.382 . S
C417 C419 1.419 . S
C417 H421 0.930 . S
C418 C417 1.382 . S
C418 C427 1.420 1_554 S
C419 C417 1.419 . S
C419 C420 1.374 . S
C419 H422 0.929 . S
C420 C419 1.374 . S
C420 C426 1.411 1_554 S
H421 C417 0.930 . S
H422 C419 0.929 . S
S423 N424 1.613 . S
S423 N425 1.610 . S
N424 S423 1.613 . S
N424 C427 1.350 . S
N425 S423 1.610 . S
N425 C426 1.351 . S
C426 C420 1.411 1_556 S
C426 N425 1.351 . S
C426 C427 1.434 . S
C427 C418 1.420 1_556 S
C427 N424 1.350 . S
C427 C426 1.434 . S
C428 C429 1.369 1_556 S
C428 C430 1.419 . S
C428 H432 0.930 . S
C429 C428 1.369 1_554 S
C429 C438 1.429 . S
C430 C428 1.419 . S
C430 C431 1.363 1_556 S
C430 H433 0.929 . S
C431 C430 1.363 1_554 S
C431 C437 1.428 . S
H432 C428 0.930 . S
H433 C430 0.929 . S
S434 N435 1.613 . S
S434 N436 1.610 . S
N435 S434 1.613 . S
N435 C438 1.350 . S
N436 S434 1.610 . S
N436 C437 1.351 . S
C437 C431 1.428 . S
C437 N436 1.351 . S
C437 C438 1.434 . S
C438 C429 1.429 . S
C438 N435 1.350 . S
C438 C437 1.434 . S
C439 C440 1.369 1_556 S
C439 C441 1.419 . S
C439 H443 0.930 . S
C440 C439 1.369 1_554 S
C440 C449 1.429 . S
C441 C439 1.419 . S
C441 C442 1.363 1_556 S
C441 H444 0.929 . S
C442 C441 1.363 1_554 S
C442 C448 1.428 . S
H443 C439 0.930 . S
H444 C441 0.929 . S
S445 N446 1.613 . S
S445 N447 1.610 . S
N446 S445 1.613 . S
N446 C449 1.350 . S
N447 S445 1.610 . S
N447 C448 1.351 . S
C448 C442 1.428 . S
C448 N447 1.351 . S
C448 C449 1.434 . S
C449 C440 1.429 . S
C449 N446 1.350 . S
C449 C448 1.434 . S
C319 C29 1.499 1_655 S
C321 C241 1.501 1_455 S
C330 C38 1.498 1_545 S
C332 C303 1.499 . S
C341 C234 1.504 . S
C343 C22 1.489 1_455 S
C352 C304 1.505 . S
C354 C39 1.499 . S
C363 C294 1.501 . S
C365 C91 1.508 . S
C374 C128 1.500 . S
C376 C251 1.497 1_455 S
C385 C287 1.499 . S
C387 C92 1.498 1_545 S
C396 C250 1.500 . S
C398 C135 1.492 1_455 S
C407 C144 1.504 . S
C409 C198 1.495 . S
C418 C188 1.496 . S
C420 C75 1.506 . S
C429 C145 1.495 1_554 S
C431 C197 1.495 . S
C440 C181 1.495 . S
C442 C82 1.500 1_554 S
