# Generated by pormake.
# Topology xbj, (5)-cn, num edge types: 1
# Building blocks:
#     Node 0, Type 0, BuildingBlock: BEQFEK_clean_sbu_0, # of connection points: 5
#     Node 1, Type 0, BuildingBlock: BEQFEK_clean_sbu_0, # of connection points: 5
#     Node 2, Type 0, BuildingBlock: BEQFEK_clean_sbu_0, # of connection points: 5
#     Node 3, Type 0, BuildingBlock: BEQFEK_clean_sbu_0, # of connection points: 5
#     Node 4, Type 0, BuildingBlock: BEQFEK_clean_sbu_0, # of connection points: 5
#     Node 5, Type 0, BuildingBlock: BEQFEK_clean_sbu_0, # of connection points: 5
#     Node 6, Type 0, BuildingBlock: BEQFEK_clean_sbu_0, # of connection points: 5
#     Node 7, Type 0, BuildingBlock: BEQFEK_clean_sbu_0, # of connection points: 5
#     Edge 8, Type (0, 0), BuildingBlock: MIFKUJ_clean_linker_0, # of connection points: 2
#     Edge 9, Type (0, 0), BuildingBlock: MIFKUJ_clean_linker_0, # of connection points: 2
#     Edge 10, Type (0, 0), BuildingBlock: MIFKUJ_clean_linker_0, # of connection points: 2
#     Edge 11, Type (0, 0), BuildingBlock: MIFKUJ_clean_linker_0, # of connection points: 2
#     Edge 12, Type (0, 0), BuildingBlock: MIFKUJ_clean_linker_0, # of connection points: 2
#     Edge 13, Type (0, 0), BuildingBlock: MIFKUJ_clean_linker_0, # of connection points: 2
#     Edge 14, Type (0, 0), BuildingBlock: MIFKUJ_clean_linker_0, # of connection points: 2
#     Edge 15, Type (0, 0), BuildingBlock: MIFKUJ_clean_linker_0, # of connection points: 2
#     Edge 16, Type (0, 0), BuildingBlock: MIFKUJ_clean_linker_0, # of connection points: 2
#     Edge 17, Type (0, 0), BuildingBlock: MIFKUJ_clean_linker_0, # of connection points: 2
#     Edge 18, Type (0, 0), BuildingBlock: MIFKUJ_clean_linker_0, # of connection points: 2
#     Edge 19, Type (0, 0), BuildingBlock: MIFKUJ_clean_linker_0, # of connection points: 2
#     Edge 20, Type (0, 0), BuildingBlock: MIFKUJ_clean_linker_0, # of connection points: 2
#     Edge 21, Type (0, 0), BuildingBlock: MIFKUJ_clean_linker_0, # of connection points: 2
#     Edge 22, Type (0, 0), BuildingBlock: MIFKUJ_clean_linker_0, # of connection points: 2
#     Edge 23, Type (0, 0), BuildingBlock: MIFKUJ_clean_linker_0, # of connection points: 2
#     Edge 24, Type (0, 0), BuildingBlock: MIFKUJ_clean_linker_0, # of connection points: 2
#     Edge 25, Type (0, 0), BuildingBlock: MIFKUJ_clean_linker_0, # of connection points: 2
#     Edge 26, Type (0, 0), BuildingBlock: MIFKUJ_clean_linker_0, # of connection points: 2
#     Edge 27, Type (0, 0), BuildingBlock: MIFKUJ_clean_linker_0, # of connection points: 2
# Relax obj value: 0.056
# Max RMSD: 0.117
# Mean RMSD: 0.113
data_MOF--net-xbj--node1-BEQFEK_clean_sbu_0--edge1-MIFKUJ_clean_linker_0
_symmetry_space_group_name_H-M    P1
_symmetry_Int_Tables_number       1
_symmetry_cell_setting            triclinic
loop_
_symmetry_equiv_pos_as_xyz
'x, y, z'
_cell_length_a     24.104137
_cell_length_b     24.118542
_cell_length_c     142.63358
_cell_angle_alpha  91.341211
_cell_angle_beta   91.255798
_cell_angle_gamma 89.815494
loop_
_atom_site_label
_atom_site_type_symbol
_atom_site_fract_x
_atom_site_fract_y
_atom_site_fract_z
_atom_type_partial_charge
Co0 Co 0.2062 0.80588 0.04171 0.0
Co1 Co 0.07655 0.78867 0.03955 0.0
C2 C 0.12893 0.89359 0.03398 0.0
O3 O 0.17671 0.87555 0.03645 0.0
O4 O 0.08533 0.86459 0.03488 0.0
C5 C 0.31719 0.83911 0.03898 0.0
O6 O 0.29443 0.85906 0.03131 0.0
C7 C 0.95398 0.80047 0.04037 0.0
C8 C 0.92933 0.71281 0.04163 0.0
C9 C 0.90822 0.76621 0.04129 0.0
N10 N 0.99992 0.76857 0.04018 0.0
N11 N 0.98473 0.71625 0.04087 0.0
C12 C 0.95479 0.8625 0.04048 0.0
H13 H 0.99292 0.87797 0.04415 0.0
H14 H 0.91777 0.87999 0.04398 0.0
H15 H 0.95509 0.8769 0.03315 0.0
C16 C 0.18237 0.77814 0.0612 0.0
N17 N 0.16604 0.7861 0.05226 0.0
N18 N 0.11173 0.78151 0.05153 0.0
C19 C 0.09153 0.77199 0.06007 0.0
C20 C 0.13567 0.76909 0.06648 0.0
C21 C 0.24181 0.7775 0.06447 0.0
H22 H 0.26735 0.75531 0.0592 0.0
H23 H 0.25709 0.82079 0.06517 0.0
H24 H 0.24694 0.75694 0.07131 0.0
O25 O 0.20074 0.74795 0.03187 0.0
O26 O 0.10966 0.73741 0.03005 0.0
H27 H 0.01364 0.72995 0.06012 0.0
H28 H 0.02364 0.77897 0.06976 0.0
C29 C 0.03097 0.77108 0.0622 0.0
H30 H 0.00884 0.80325 0.05814 0.0
H31 H 0.0124 0.68291 0.04098 0.0
O32 O 0.28644 0.81532 0.04479 0.0
C33 C 0.15909 0.72537 0.02774 0.0
Co34 Co 0.57159 0.75523 0.29414 0.0
Co35 Co 0.5896 0.62494 0.29235 0.0
C36 C 0.48117 0.67982 0.28723 0.0
O37 O 0.4986 0.72806 0.28961 0.0
O38 O 0.51203 0.6371 0.28802 0.0
C39 C 0.52712 0.86557 0.29891 0.0
O40 O 0.47996 0.84063 0.30048 0.0
C41 C 0.57479 0.50313 0.29513 0.0
C42 C 0.65815 0.47299 0.29137 0.0
C43 C 0.6067 0.45487 0.29419 0.0
N44 N 0.60634 0.54702 0.29299 0.0
N45 N 0.65607 0.52847 0.29077 0.0
C46 C 0.51498 0.5077 0.29764 0.0
H47 H 0.49788 0.54884 0.2959 0.0
H48 H 0.51112 0.50251 0.3053 0.0
H49 H 0.49035 0.47489 0.2939 0.0
C50 C 0.61275 0.73408 0.31333 0.0
N51 N 0.59731 0.7161 0.30468 0.0
N52 N 0.6051 0.66209 0.30398 0.0
C53 C 0.62599 0.64399 0.3122 0.0
C54 C 0.63166 0.68906 0.31838 0.0
C55 C 0.60768 0.79306 0.31671 0.0
H56 H 0.63699 0.81909 0.31285 0.0
H57 H 0.56507 0.80821 0.31516 0.0
H58 H 0.61628 0.7977 0.32436 0.0
O59 O 0.62311 0.74542 0.2837 0.0
O60 O 0.63668 0.65452 0.28243 0.0
H61 H 0.67352 0.57237 0.30838 0.0
H62 H 0.66416 0.58061 0.32082 0.0
C63 C 0.64385 0.58544 0.31384 0.0
H64 H 0.60717 0.55784 0.31322 0.0
H65 H 0.68853 0.55373 0.28877 0.0
O66 O 0.56913 0.83681 0.29657 0.0
C67 C 0.6453 0.70354 0.27968 0.0
Co68 Co 0.73693 0.30784 0.54263 0.0
Co69 Co 0.60654 0.29179 0.54197 0.0
C70 C 0.65925 0.39889 0.53686 0.0
O71 O 0.70789 0.38013 0.53853 0.0
O72 O 0.61618 0.36938 0.538 0.0
C73 C 0.8473 0.35489 0.54608 0.0
O74 O 0.82213 0.40312 0.54684 0.0
C75 C 0.48369 0.30457 0.54225 0.0
C76 C 0.45883 0.2204 0.54624 0.0
C77 C 0.43768 0.27229 0.54418 0.0
N78 N 0.52971 0.27338 0.54337 0.0
N79 N 0.51436 0.22298 0.54564 0.0
C80 C 0.48412 0.3616 0.53836 0.0
H81 H 0.51391 0.36273 0.53256 0.0
H82 H 0.49809 0.39164 0.54392 0.0
H83 H 0.44271 0.37395 0.53558 0.0
C84 C 0.72139 0.27618 0.56221 0.0
N85 N 0.70133 0.28537 0.5535 0.0
N86 N 0.64695 0.27978 0.55336 0.0
C87 C 0.63073 0.26757 0.56206 0.0
C88 C 0.67735 0.26409 0.56786 0.0
C89 C 0.78143 0.27976 0.56503 0.0
H90 H 0.80633 0.25431 0.56008 0.0
H91 H 0.79531 0.32342 0.56458 0.0
H92 H 0.78894 0.26522 0.57227 0.0
O93 O 0.72463 0.25402 0.53225 0.0
O94 O 0.63336 0.24269 0.53168 0.0
H95 H 0.55512 0.22314 0.56364 0.0
H96 H 0.5684 0.27459 0.5727 0.0
C97 C 0.57166 0.2654 0.56507 0.0
H98 H 0.5461 0.29581 0.56118 0.0
H99 H 0.5419 0.19029 0.54678 0.0
O100 O 0.81867 0.31129 0.54457 0.0
C101 C 0.68133 0.2321 0.52853 0.0
Co102 Co 0.08932 0.25091 0.795 0.0
Co103 Co 0.10017 0.11978 0.79289 0.0
C104 C 0.00825 0.18174 0.78346 0.0
O105 O 0.02636 0.22784 0.7868 0.0
O106 O 0.03156 0.13584 0.78547 0.0
C107 C 0.03987 0.35977 0.79914 0.0
O108 O 0.99247 0.33337 0.79963 0.0
C109 C 0.0793 0.99776 0.7944 0.0
C110 C 0.16481 0.96611 0.79291 0.0
C111 C 0.11065 0.94896 0.7941 0.0
N112 N 0.11373 0.04121 0.79347 0.0
N113 N 0.16468 0.02173 0.7926 0.0
C114 C 0.01772 0.00323 0.79513 0.0
H115 H 0.9965 0.9695 0.79104 0.0
H116 H 0.00338 0.04405 0.79262 0.0
H117 H 0.00629 1.00014 0.80259 0.0
C118 C 0.10217 0.22363 0.8149 0.0
N119 N 0.09456 0.20799 0.80587 0.0
N120 N 0.09936 0.15365 0.80507 0.0
C121 C 0.11025 0.13303 0.81362 0.0
C122 C 0.11261 0.17676 0.82011 0.0
C123 C 0.10247 0.28275 0.81833 0.0
H124 H 0.06327 0.30308 0.81607 0.0
H125 H 0.10647 0.28614 0.82609 0.0
H126 H 0.13726 0.30495 0.81512 0.0
O127 O 0.15654 0.24114 0.78764 0.0
O128 O 0.16224 0.14976 0.7857 0.0
H129 H 0.1619 0.0624 0.811 0.0
H130 H 0.13603 0.06636 0.82275 0.0
C131 C 0.12558 0.07381 0.81528 0.0
H132 H 0.09047 0.0467 0.81303 0.0
H133 H 0.1995 0.04652 0.79173 0.0
O134 O 0.08414 0.33232 0.79769 0.0
C135 C 0.18018 0.1983 0.78421 0.0
Co136 Co 0.16587 0.29491 0.94017 0.0
Co137 Co 0.29501 0.27406 0.94356 0.0
C138 C 0.24157 0.3845 0.94762 0.0
O139 O 0.19414 0.36721 0.94475 0.0
O140 O 0.28427 0.35309 0.94748 0.0
C141 C 0.05402 0.33607 0.94061 0.0
O142 O 0.07633 0.37227 0.94658 0.0
C143 C 0.41644 0.2875 0.94156 0.0
C144 C 0.44691 0.20431 0.94533 0.0
C145 C 0.46456 0.25582 0.94251 0.0
N146 N 0.37269 0.25602 0.94372 0.0
N147 N 0.39135 0.20648 0.94603 0.0
C148 C 0.41127 0.34527 0.93805 0.0
H149 H 0.36985 0.35144 0.93468 0.0
H150 H 0.44431 0.3539 0.93299 0.0
H151 H 0.41546 0.37502 0.94408 0.0
C152 C 0.19384 0.25341 0.92136 0.0
N153 N 0.2087 0.26754 0.93022 0.0
N154 N 0.26213 0.25806 0.93153 0.0
C155 C 0.28286 0.23682 0.9235 0.0
C156 C 0.24014 0.23288 0.91683 0.0
C157 C 0.13698 0.26265 0.91724 0.0
H158 H 0.12074 0.30336 0.91972 0.0
H159 H 0.13709 0.26176 0.90946 0.0
H160 H 0.10879 0.2299 0.91966 0.0
O161 O 0.17003 0.24402 0.95072 0.0
O162 O 0.25999 0.22882 0.95323 0.0
H163 H 0.35295 0.18937 0.9281 0.0
H164 H 0.34801 0.19656 0.91556 0.0
C165 C 0.34166 0.21811 0.92241 0.0
H166 H 0.36952 0.25457 0.92303 0.0
H167 H 0.36601 0.17387 0.94796 0.0
O168 O 0.08511 0.30003 0.93669 0.0
C169 C 0.20946 0.22134 0.95531 0.0
Co170 Co 0.08322 0.66013 0.19179 0.0
Co171 Co 0.10019 0.78998 0.19322 0.0
C172 C 0.00345 0.73679 0.20185 0.0
O173 O 0.01945 0.68904 0.19897 0.0
O174 O 0.0303 0.78058 0.20004 0.0
C175 C 0.04491 0.54879 0.19422 0.0
O176 O 0.01951 0.57123 0.20143 0.0
C177 C 0.08528 0.91198 0.19214 0.0
C178 C 0.1719 0.93816 0.19013 0.0
C179 C 0.11829 0.95842 0.19092 0.0
N180 N 0.11811 0.86669 0.19208 0.0
N181 N 0.16979 0.88278 0.19092 0.0
C182 C 0.02339 0.90969 0.19262 0.0
H183 H 0.00795 0.86913 0.18984 0.0
H184 H 0.00395 0.94366 0.18858 0.0
H185 H 0.01115 0.91422 0.20006 0.0
C186 C 0.09181 0.68296 0.17166 0.0
N187 N 0.09128 0.69992 0.1807 0.0
N188 N 0.09619 0.75423 0.18122 0.0
C189 C 0.09884 0.77377 0.17247 0.0
C190 C 0.09643 0.72923 0.16612 0.0
C191 C 0.09128 0.62329 0.16852 0.0
H192 H 0.11895 0.59892 0.17318 0.0
H193 H 0.04856 0.60682 0.16905 0.0
H194 H 0.10518 0.61789 0.16119 0.0
O195 O 0.14981 0.66708 0.19988 0.0
O196 O 0.1607 0.75824 0.20109 0.0
H197 H 0.14227 0.85067 0.17191 0.0
H198 H 0.08974 0.84127 0.16277 0.0
C199 C 0.10022 0.8341 0.17026 0.0
H200 H 0.07005 0.85701 0.17464 0.0
H201 H 0.20364 0.85576 0.19058 0.0
O202 O 0.07313 0.57954 0.18901 0.0
C203 C 0.17574 0.7093 0.20317 0.0
Co204 Co 0.65168 0.77229 0.44072 0.0
Co205 Co 0.78223 0.76238 0.44348 0.0
C206 C 0.71989 0.86405 0.44959 0.0
O207 O 0.67375 0.84349 0.44673 0.0
O208 O 0.76548 0.83771 0.44862 0.0
C209 C 0.54243 0.81706 0.43598 0.0
O210 O 0.56763 0.86515 0.43561 0.0
C211 C 0.90478 0.7805 0.44202 0.0
C212 C 0.93455 0.69532 0.44454 0.0
C213 C 0.95293 0.74824 0.44266 0.0
N214 N 0.8606 0.74765 0.44338 0.0
N215 N 0.87896 0.69694 0.4449 0.0
C216 C 0.9005 0.84156 0.44053 0.0
H217 H 0.86001 0.85787 0.44285 0.0
H218 H 0.90394 0.84962 0.43294 0.0
H219 H 0.93445 0.86381 0.4444 0.0
C220 C 0.68167 0.74742 0.42113 0.0
N221 N 0.69561 0.75585 0.43023 0.0
N222 N 0.74981 0.75122 0.43133 0.0
C223 C 0.77209 0.73927 0.42293 0.0
C224 C 0.72964 0.7364 0.41621 0.0
C225 C 0.62387 0.75368 0.41724 0.0
H226 H 0.60649 0.79391 0.41971 0.0
H227 H 0.62246 0.75227 0.40946 0.0
H228 H 0.59748 0.72023 0.41993 0.0
O229 O 0.66044 0.71515 0.45025 0.0
O230 O 0.75163 0.70977 0.45243 0.0
H231 H 0.84085 0.71408 0.4142 0.0
H232 H 0.85613 0.76721 0.42303 0.0
C233 C 0.83253 0.72858 0.42147 0.0
H234 H 0.84737 0.69648 0.42636 0.0
H235 H 0.85336 0.66322 0.44617 0.0
O236 O 0.57085 0.77366 0.43759 0.0
C237 C 0.70274 0.69509 0.45444 0.0
Co238 Co 0.55677 0.17214 0.69125 0.0
Co239 Co 0.57974 0.30166 0.69242 0.0
C240 C 0.48104 0.25122 0.70127 0.0
O241 O 0.49378 0.20267 0.69831 0.0
O242 O 0.51047 0.29329 0.69945 0.0
C243 C 0.52407 0.06126 0.69483 0.0
O244 O 0.50754 0.08482 0.70269 0.0
C245 C 0.56335 0.42334 0.69141 0.0
C246 C 0.64903 0.45154 0.68915 0.0
C247 C 0.59513 0.47053 0.69014 0.0
N248 N 0.59707 0.37872 0.69119 0.0
N249 N 0.64825 0.39601 0.68989 0.0
C250 C 0.50168 0.41999 0.69218 0.0
H251 H 0.48626 0.38065 0.68889 0.0
H252 H 0.48102 0.45568 0.68876 0.0
H253 H 0.49089 0.42042 0.6997 0.0
C254 C 0.56736 0.19313 0.67112 0.0
N255 N 0.56594 0.21113 0.68011 0.0
N256 N 0.57501 0.26497 0.68052 0.0
C257 C 0.58254 0.2829 0.67177 0.0
C258 C 0.57804 0.23802 0.66556 0.0
C259 C 0.56296 0.13344 0.6681 0.0
H260 H 0.59435 0.10888 0.67203 0.0
H261 H 0.5214 0.11765 0.66988 0.0
H262 H 0.56937 0.12744 0.66047 0.0
O263 O 0.62339 0.17866 0.69946 0.0
O264 O 0.64002 0.26919 0.70018 0.0
H265 H 0.63675 0.35274 0.67181 0.0
H266 H 0.59034 0.34817 0.66172 0.0
C267 C 0.59408 0.34177 0.66939 0.0
H268 H 0.56449 0.36969 0.67302 0.0
H269 H 0.68259 0.36981 0.68943 0.0
O270 O 0.54534 0.09132 0.68865 0.0
C271 C 0.65198 0.21983 0.7025 0.0
H272 H 0.07664 0.69135 0.0755 0.0
H273 H 0.06898 0.68084 0.09249 0.0
H274 H 0.18229 0.8171 0.09733 0.0
H275 H 0.18842 0.82913 0.08037 0.0
H276 H 0.20464 0.71911 0.10821 0.0
H277 H 0.05485 0.84385 0.09974 0.0
H278 H 0.9714 0.87058 0.0906 0.0
H279 H 0.88427 0.72965 0.10068 0.0
H280 H 0.96761 0.70153 0.10976 0.0
H281 H 0.17113 0.78491 0.15594 0.0
H282 H 0.17635 0.78814 0.13887 0.0
H283 H 0.03599 0.67774 0.13606 0.0
H284 H 0.02883 0.67708 0.15317 0.0
H285 H 0.02598 0.75645 0.12386 0.0
H286 H 0.17038 0.63163 0.13269 0.0
H287 H 0.25297 0.59943 0.14152 0.0
H288 H 0.34903 0.73177 0.13055 0.0
H289 H 0.26677 0.76529 0.12176 0.0
C290 C 0.09961 0.71918 0.08021 0.0
C291 C 0.13304 0.76107 0.07668 0.0
C292 C 0.0954 0.713 0.08987 0.0
C293 C 0.125 0.74832 0.0961 0.0
C294 C 0.15939 0.78936 0.09259 0.0
C295 C 0.16302 0.79601 0.08294 0.0
C296 C 0.11923 0.74336 0.10631 0.0
C297 C 0.16582 0.72777 0.11168 0.0
C298 C 0.068 0.75296 0.11071 0.0
C299 C 0.01767 0.77025 0.10534 0.0
C300 C 0.01807 0.81828 0.09994 0.0
C301 C 0.97076 0.83373 0.09478 0.0
C302 C 0.92261 0.80174 0.09503 0.0
C303 C 0.92163 0.75433 0.10047 0.0
C304 C 0.96888 0.73864 0.10563 0.0
C305 C 0.14108 0.76186 0.15166 0.0
C306 C 0.09965 0.73068 0.15582 0.0
C307 C 0.14445 0.76318 0.14192 0.0
C308 C 0.10718 0.73235 0.13619 0.0
C309 C 0.06535 0.70159 0.14035 0.0
C310 C 0.06157 0.70085 0.1501 0.0
C311 C 0.11171 0.73273 0.12586 0.0
C312 C 0.06484 0.7474 0.12044 0.0
C313 C 0.16256 0.72144 0.12139 0.0
C314 C 0.21226 0.70124 0.12662 0.0
C315 C 0.20901 0.65411 0.13221 0.0
C316 C 0.25578 0.63559 0.1372 0.0
C317 C 0.30618 0.66361 0.13661 0.0
C318 C 0.30995 0.71014 0.13101 0.0
C319 C 0.26327 0.72889 0.12601 0.0
H320 H 0.34235 0.6492 0.14048 0.0
H321 H 0.88602 0.81377 0.09103 0.0
H322 H 0.79517 0.78985 0.40407 0.0
H323 H 0.79697 0.77675 0.38697 0.0
H324 H 0.67452 0.64722 0.38851 0.0
H325 H 0.67425 0.65901 0.40562 0.0
H326 H 0.75104 0.6218 0.37552 0.0
H327 H 0.6369 0.78017 0.38411 0.0
H328 H 0.61915 0.87115 0.39173 0.0
H329 H 0.74566 0.94477 0.37537 0.0
H330 H 0.76471 0.85395 0.36775 0.0
H331 H 0.59784 0.6269 0.33278 0.0
H332 H 0.63262 0.63046 0.34905 0.0
H333 H 0.75054 0.75624 0.34193 0.0
H334 H 0.71579 0.75245 0.32563 0.0
H335 H 0.69252 0.78533 0.35724 0.0
H336 H 0.79568 0.62801 0.34681 0.0
H337 H 0.81061 0.53689 0.33908 0.0
H338 H 0.70323 0.46072 0.35863 0.0
H339 H 0.6869 0.55155 0.36639 0.0
C340 C 0.76956 0.75791 0.40073 0.0
C341 C 0.73422 0.72566 0.40606 0.0
C342 C 0.77039 0.75064 0.391 0.0
C343 C 0.73532 0.71153 0.38649 0.0
C344 C 0.70186 0.67764 0.39187 0.0
C345 C 0.70133 0.68467 0.40159 0.0
C346 C 0.72994 0.70862 0.37615 0.0
C347 C 0.7381 0.65742 0.3715 0.0
C348 C 0.7144 0.75555 0.37092 0.0
C349 C 0.70267 0.81019 0.37544 0.0
C350 C 0.6612 0.81569 0.38219 0.0
C351 C 0.65087 0.86722 0.3865 0.0
C352 C 0.68137 0.91368 0.38406 0.0
C353 C 0.72216 0.90872 0.37727 0.0
C354 C 0.73273 0.85724 0.37295 0.0
C355 C 0.6317 0.65464 0.3347 0.0
C356 C 0.65427 0.68945 0.32804 0.0
C357 C 0.65164 0.65657 0.34395 0.0
C358 C 0.69456 0.6932 0.34665 0.0
C359 C 0.71752 0.7276 0.33997 0.0
C360 C 0.69763 0.72556 0.3307 0.0
C361 C 0.7125 0.69819 0.35661 0.0
C362 C 0.70657 0.74985 0.36119 0.0
C363 C 0.72983 0.65161 0.36177 0.0
C364 C 0.73978 0.59675 0.35715 0.0
C365 C 0.7749 0.59192 0.34942 0.0
C366 C 0.78367 0.54029 0.34504 0.0
C367 C 0.75781 0.49306 0.34835 0.0
C368 C 0.72322 0.49735 0.35607 0.0
C369 C 0.71425 0.5489 0.36047 0.0
H370 H 0.76465 0.45312 0.34494 0.0
H371 H 0.67331 0.95355 0.3874 0.0
H372 H 0.64093 0.17324 0.57656 0.0
H373 H 0.62958 0.16251 0.59349 0.0
H374 H 0.70101 0.32444 0.59867 0.0
H375 H 0.71342 0.33469 0.58174 0.0
H376 H 0.70775 0.17424 0.60991 0.0
H377 H 0.60281 0.38732 0.61345 0.0
H378 H 0.5525 0.45422 0.60354 0.0
H379 H 0.49394 0.32097 0.58547 0.0
H380 H 0.54302 0.2533 0.59537 0.0
H381 H 0.67399 0.26574 0.65744 0.0
H382 H 0.69375 0.264 0.64062 0.0
H383 H 0.52706 0.20745 0.63437 0.0
H384 H 0.50755 0.20838 0.65123 0.0
H385 H 0.56487 0.29957 0.62345 0.0
H386 H 0.61905 0.11647 0.63274 0.0
H387 H 0.66874 0.04897 0.64259 0.0
H388 H 0.82482 0.11764 0.63481 0.0
H389 H 0.77597 0.18621 0.62503 0.0
C390 C 0.65536 0.20578 0.58138 0.0
C391 C 0.67812 0.25462 0.57798 0.0
C392 C 0.64905 0.19961 0.59099 0.0
C393 C 0.66433 0.24279 0.59725 0.0
C394 C 0.68912 0.29076 0.59389 0.0
C395 C 0.69627 0.29653 0.58428 0.0
C396 C 0.64935 0.23994 0.60717 0.0
C397 C 0.67667 0.20163 0.6129 0.0
C398 C 0.60812 0.2752 0.61095 0.0
C399 C 0.57713 0.31537 0.60509 0.0
C400 C 0.57897 0.37232 0.60739 0.0
C401 C 0.55068 0.41036 0.60177 0.0
C402 C 0.52022 0.39188 0.59386 0.0
C403 C 0.51773 0.33527 0.59158 0.0
C404 C 0.54582 0.29706 0.59719 0.0
C405 C 0.64176 0.25299 0.65244 0.0
C406 C 0.58939 0.23716 0.6555 0.0
C407 C 0.65304 0.25187 0.64289 0.0
C408 C 0.61185 0.23542 0.63632 0.0
C409 C 0.55922 0.22022 0.63938 0.0
C410 C 0.5482 0.22059 0.64895 0.0
C411 C 0.62387 0.23441 0.62624 0.0
C412 C 0.596 0.27213 0.62048 0.0
C413 C 0.66432 0.19835 0.62243 0.0
C414 C 0.69382 0.15681 0.62822 0.0
C415 C 0.66395 0.1175 0.63319 0.0
C416 C 0.69196 0.07898 0.63875 0.0
C417 C 0.7499 0.0791 0.63934 0.0
C418 C 0.77994 0.11764 0.63435 0.0
C419 C 0.75211 0.15631 0.6288 0.0
H420 H 0.77152 0.04924 0.64365 0.0
H421 H 0.49844 0.4214 0.58951 0.0
H422 H 0.31075 0.26656 0.90349 0.0
H423 H 0.30442 0.24478 0.88663 0.0
H424 H 0.16696 0.13519 0.89125 0.0
H425 H 0.1745 0.15556 0.90813 0.0
H426 H 0.23127 0.09673 0.8769 0.0
H427 H 0.14249 0.26733 0.88671 0.0
H428 H 0.13927 0.35974 0.89444 0.0
H429 H 0.26354 0.41826 0.87598 0.0
H430 H 0.26818 0.32579 0.86824 0.0
H431 H 0.07032 0.12003 0.83456 0.0
H432 H 0.10545 0.11947 0.85086 0.0
H433 H 0.23843 0.22892 0.84361 0.0
H434 H 0.20323 0.22952 0.82737 0.0
H435 H 0.18528 0.26531 0.85896 0.0
H436 H 0.26422 0.09406 0.84786 0.0
H437 H 0.26261 1.00139 0.84018 0.0
H438 H 0.15168 0.94356 0.86095 0.0
H439 H 0.15189 0.03617 0.86867 0.0
C440 C 0.28041 0.23655 0.90091 0.0
C441 C 0.24265 0.21311 0.90701 0.0
C442 C 0.27665 0.22432 0.89131 0.0
C443 C 0.2346 0.18912 0.88771 0.0
C444 C 0.19959 0.16252 0.8939 0.0
C445 C 0.20359 0.1745 0.9035 0.0
C446 C 0.2223 0.18561 0.87752 0.0
C447 C 0.22108 0.13345 0.87296 0.0
C448 C 0.20942 0.23371 0.87241 0.0
C449 C 0.20614 0.28952 0.87697 0.0
C450 C 0.1694 0.2998 0.88434 0.0
C451 C 0.1673 0.35219 0.88873 0.0
C452 C 0.20128 0.39481 0.88572 0.0
C453 C 0.23732 0.38517 0.87831 0.0
C454 C 0.23972 0.33278 0.87393 0.0
C455 C 0.10721 0.14355 0.83649 0.0
C456 C 0.13399 0.17517 0.82984 0.0
C457 C 0.12739 0.14302 0.84574 0.0
C458 C 0.17479 0.17382 0.8484 0.0
C459 C 0.20182 0.2049 0.84169 0.0
C460 C 0.18166 0.20542 0.83246 0.0
C461 C 0.19432 0.1764 0.85828 0.0
C462 C 0.19643 0.22853 0.86283 0.0
C463 C 0.20742 0.1282 0.86336 0.0
C464 C 0.20774 0.07224 0.8588 0.0
C465 C 0.23916 0.06171 0.85075 0.0
C466 C 0.23854 0.00917 0.8464 0.0
C467 C 0.20697 0.96665 0.85007 0.0
C468 C 0.17608 0.97655 0.85811 0.0
C469 C 0.17649 0.02905 0.86249 0.0
H470 H 0.20652 0.926 0.84668 0.0
H471 H 0.19959 0.43535 0.88912 0.0
H472 H 0.08395 0.69414 0.01403 0.0
H473 H 0.1024 0.64356 -0.00058 0.0
H474 H 0.27378 0.62312 0.0081 0.0
H475 H 0.25605 0.67544 0.02261 0.0
H476 H 0.26925 0.65403 0.99073 0.0
H477 H 0.17885 0.51441 0.00802 0.0
H478 H 0.10567 0.47318 0.01743 0.0
H479 H 0.98724 0.49565 -0.0051 0.0
H480 H 0.05956 0.53775 0.9854 0.0
H481 H 0.32604 0.42415 0.95905 0.0
H482 H 0.31667 0.49474 0.97148 0.0
H483 H 0.1527 0.53493 0.96096 0.0
H484 H 0.16152 0.46462 0.94853 0.0
H485 H 0.15426 0.49603 0.97897 0.0
H486 H 0.25081 0.63151 0.9614 0.0
H487 H 0.32792 0.6675 0.95226 0.0
H488 H 0.43988 0.64573 0.97573 0.0
H489 H 0.36359 0.60885 0.98497 0.0
C490 C 0.12539 0.6782 0.0129 0.0
C491 C 0.16851 0.6887 0.01948 0.0
C492 C 0.1359 0.64926 0.00453 0.0
C493 C 0.18942 0.6292 0.00269 0.0
C494 C 0.23223 0.63843 0.00936 0.0
C495 C 0.22194 0.66803 0.01767 0.0
C496 C 0.20102 0.59993 -0.00632 0.0
C497 C 0.24454 0.61901 0.98821 0.0
C498 C 0.1682 0.55489 0.99032 0.0
C499 C 0.12452 0.52978 -0.00397 0.0
C500 C 0.13709 0.51101 0.0051 0.0
C501 C 0.09578 0.4874 0.01045 0.0
C502 C 0.0418 0.48195 0.00677 0.0
C503 C 0.02905 0.49999 -0.00226 0.0
C504 C 0.07019 0.52369 0.99237 0.0
C505 C 0.28881 0.44942 0.95915 0.0
C506 C 0.24397 0.43784 0.95294 0.0
C507 C 0.28355 0.48979 0.96627 0.0
C508 C 0.23365 0.51935 0.9672 0.0
C509 C 0.19132 0.51209 0.96039 0.0
C510 C 0.19653 0.47189 0.95328 0.0
C511 C 0.22205 0.55043 0.976 0.0
C512 C 0.17869 0.53133 0.98147 0.0
C513 C 0.25559 0.5947 0.9794 0.0
C514 C 0.30153 0.61693 0.97385 0.0
C515 C 0.29197 0.63392 0.96459 0.0
C516 C 0.33552 0.65459 0.95939 0.0
C517 C 0.38879 0.65877 0.9634 0.0
C518 C 0.3986 0.64242 0.97263 0.0
C519 C 0.3552 0.62169 0.97785 0.0
H520 H 0.42245 0.6748 0.95937 0.0
H521 H 0.00989 0.46363 0.01092 0.0
H522 H 0.68034 0.80192 0.27275 0.0
H523 H 0.73245 0.81606 0.2585 0.0
H524 H 0.73823 0.6392 0.25338 0.0
H525 H 0.68589 0.62453 0.26757 0.0
H526 H 0.8362 0.77965 0.25411 0.0
H527 H 0.72938 0.61164 0.2308 0.0
H528 H 0.63671 0.57022 0.2281 0.0
H529 H 0.56001 0.72176 0.23753 0.0
H530 H 0.65221 0.76368 0.2405 0.0
H531 H 0.94036 0.6517 0.20798 0.0
H532 H 0.87278 0.6552 0.2204 0.0
H533 H 0.89106 0.83291 0.22278 0.0
H534 H 0.96012 0.82974 0.21046 0.0
H535 H 0.77509 0.70281 0.22301 0.0
H536 H 0.88175 0.87184 0.24598 0.0
H537 H 0.97428 0.91305 0.24891 0.0
H538 H 0.05144 0.76023 0.24025 0.0
H539 H 0.95937 0.71786 0.23733 0.0
C540 C 0.69276 0.76597 0.26861 0.0
C541 C 0.67909 0.71204 0.27131 0.0
C542 C 0.72243 0.7742 0.26046 0.0
C543 C 0.73847 0.72876 0.25484 0.0
C544 C 0.72535 0.67489 0.25755 0.0
C545 C 0.69591 0.66657 0.26571 0.0
C546 C 0.77089 0.7373 0.24632 0.0
C547 C 0.82244 0.76384 0.24726 0.0
C548 C 0.7532 0.71586 0.23745 0.0
C549 C 0.69766 0.6906 0.23592 0.0
C550 C 0.69271 0.63602 0.23233 0.0
C551 C 0.64029 0.61239 0.23081 0.0
C552 C 0.59252 0.64322 0.23273 0.0
C553 C 0.59708 0.69772 0.23619 0.0
C554 C 0.64939 0.72132 0.23784 0.0
C555 C 0.9297 0.69171 0.21105 0.0
C556 C 0.95625 0.74038 0.2083 0.0
C557 C 0.89087 0.69361 0.21815 0.0
C558 C 0.87766 0.74415 0.22263 0.0
C559 C 0.90153 0.79331 0.21953 0.0
C560 C 0.94073 0.79144 0.21245 0.0
C561 C 0.84094 0.74441 0.23082 0.0
C562 C 0.78859 0.71939 0.22982 0.0
C563 C 0.858 0.7672 0.23966 0.0
C564 C 0.91367 0.79201 0.24133 0.0
C565 C 0.91848 0.84704 0.2447 0.0
C566 C 0.97083 0.87056 0.24635 0.0
C567 C 0.01869 0.8393 0.24472 0.0
C568 C 0.0143 0.78439 0.24145 0.0
C569 C 0.96205 0.76065 0.23978 0.0
H570 H 0.05918 0.85755 0.24601 0.0
H571 H 0.55196 0.62499 0.23149 0.0
H572 H 0.60631 0.64753 0.46003 0.0
H573 H 0.58998 0.60456 0.4751 0.0
H574 H 0.7633 0.62252 0.48264 0.0
H575 H 0.78031 0.66505 0.46762 0.0
H576 H 0.63895 0.51123 0.48434 0.0
H577 H 0.76632 0.67705 0.50533 0.0
H578 H 0.79406 0.77483 0.50389 0.0
H579 H 0.64933 0.80561 0.48669 0.0
H580 H 0.62023 0.70836 0.48816 0.0
H581 H 0.74138 0.47189 0.53274 0.0
H582 H 0.73815 0.53659 0.51987 0.0
H583 H 0.56236 0.50871 0.51622 0.0
H584 H 0.56492 0.44412 0.5291 0.0
H585 H 0.67771 0.62982 0.51268 0.0
H586 H 0.54643 0.46357 0.49333 0.0
H587 H 0.5222 0.3648 0.49485 0.0
H588 H 0.67932 0.33432 0.50857 0.0
H589 H 0.70482 0.43258 0.50697 0.0
C590 C 0.64117 0.6414 0.46482 0.0
C591 C 0.69452 0.66022 0.46267 0.0
C592 C 0.63171 0.6169 0.47341 0.0
C593 C 0.67525 0.61152 0.48 0.0
C594 C 0.72908 0.62718 0.47766 0.0
C595 C 0.73872 0.65115 0.46905 0.0
C596 C 0.66427 0.59207 0.4895 0.0
C597 C 0.64636 0.53743 0.49053 0.0
C598 C 0.67488 0.62626 0.49755 0.0
C599 C 0.69142 0.68521 0.49679 0.0
C600 C 0.74027 0.70475 0.50128 0.0
C601 C 0.75624 0.76009 0.50045 0.0
C602 C 0.72357 0.79637 0.49518 0.0
C603 C 0.67471 0.77743 0.49075 0.0
C604 C 0.6585 0.72218 0.49157 0.0
C605 C 0.70156 0.48099 0.52945 0.0
C606 C 0.65375 0.4512 0.53171 0.0
C607 C 0.69981 0.51825 0.52211 0.0
C608 C 0.65034 0.526 0.51697 0.0
C609 C 0.60109 0.5024 0.52005 0.0
C610 C 0.60273 0.46534 0.52741 0.0
C611 C 0.65262 0.54901 0.5075 0.0
C612 C 0.66927 0.60407 0.50648 0.0
C613 C 0.64126 0.51514 0.49944 0.0
C614 C 0.62715 0.45554 0.50013 0.0
C615 C 0.57586 0.43569 0.49662 0.0
C616 C 0.56194 0.37981 0.4975 0.0
C617 C 0.59912 0.34336 0.50183 0.0
C618 C 0.65049 0.36262 0.50524 0.0
C619 C 0.66468 0.41839 0.50435 0.0
H620 H 0.58819 0.30018 0.50253 0.0
H621 H 0.73605 0.83916 0.49453 0.0
H622 H 0.97084 0.27133 0.77395 0.0
H623 H 0.90938 0.27203 0.76026 0.0
H624 H 0.88419 0.0957 0.76237 0.0
H625 H 0.94822 0.09418 0.77596 0.0
H626 H 0.90378 0.11995 0.745 0.0
H627 H 0.78076 0.19405 0.76806 0.0
H628 H 0.75204 0.2562 0.78106 0.0
H629 H 0.77282 0.39754 0.76373 0.0
H630 H 0.80235 0.33633 0.75067 0.0
H631 H 0.67915 0.12297 0.71113 0.0
H632 H 0.74061 0.11175 0.72477 0.0
H633 H 0.78505 0.28468 0.72398 0.0
H634 H 0.72304 0.29663 0.71041 0.0
H635 H 0.75129 0.25654 0.74102 0.0
H636 H 0.87771 0.18207 0.71819 0.0
H637 H 0.90611 0.11967 0.70521 0.0
H638 H 0.87701 0.97817 0.72213 0.0
H639 H 0.84776 0.03973 0.73518 0.0
C640 C 0.95155 0.23272 0.77164 0.0
C641 C 0.96424 0.18267 0.77609 0.0
C642 C 0.91619 0.23325 0.7638 0.0
C643 C 0.89143 0.18408 0.76036 0.0
C644 C 0.90277 0.13417 0.76492 0.0
C645 C 0.93903 0.13342 0.77271 0.0
C646 C 0.85615 0.18481 0.75172 0.0
C647 C 0.86973 0.14909 0.74419 0.0
C648 C 0.81254 0.22369 0.75058 0.0
C649 C 0.7941 0.26057 0.7584 0.0
C650 C 0.77948 0.23841 0.76704 0.0
C651 C 0.76303 0.27347 0.77441 0.0
C652 C 0.7607 0.33078 0.77323 0.0
C653 C 0.77465 0.35314 0.76465 0.0
C654 C 0.79116 0.31827 0.75725 0.0
C655 C 0.70277 0.15844 0.71373 0.0
C656 C 0.69585 0.21084 0.70972 0.0
C657 C 0.73799 0.15187 0.72153 0.0
C658 C 0.76732 0.1974 0.72538 0.0
C659 C 0.76253 0.2491 0.72112 0.0
C660 C 0.7272 0.25578 0.71335 0.0
C661 C 0.79952 0.19237 0.73427 0.0
C662 C 0.78514 0.22717 0.74186 0.0
C663 C 0.84212 0.15253 0.73545 0.0
C664 C 0.86003 0.11551 0.72763 0.0
C665 C 0.87696 0.13764 0.71912 0.0
C666 C 0.8933 0.10241 0.71175 0.0
C667 C 0.89322 0.04498 0.71283 0.0
C668 C 0.87698 0.02266 0.7213 0.0
C669 C 0.86059 0.0577 0.72868 0.0
H670 H 0.90587 0.01779 0.70712 0.0
H671 H 0.748 0.35786 0.77895 0.0
H672 H 0.23663 0.29321 0.78046 0.0
H673 H 0.29052 0.31018 0.76648 0.0
H674 H 0.27391 0.13823 0.75797 0.0
H675 H 0.22059 0.12052 0.77193 0.0
H676 H 0.38832 0.25672 0.75736 0.0
H677 H 0.2178 0.14463 0.73547 0.0
H678 H 0.11876 0.12082 0.73672 0.0
H679 H 0.09328 0.26463 0.75444 0.0
H680 H 0.19183 0.28984 0.75314 0.0
H681 H 0.40614 0.17296 0.7062 0.0
H682 H 0.35174 0.17391 0.7204 0.0
H683 H 0.40242 0.34242 0.72658 0.0
H684 H 0.45743 0.34189 0.7124 0.0
H685 H 0.26913 0.23518 0.72865 0.0
H686 H 0.44299 0.34693 0.75008 0.0
H687 H 0.54353 0.36478 0.74921 0.0
H688 H 0.56411 0.21538 0.73267 0.0
H689 H 0.46395 0.1962 0.73357 0.0
C690 C 0.24574 0.25865 0.77575 0.0
C691 C 0.22353 0.20571 0.77721 0.0
C692 C 0.27663 0.26845 0.76779 0.0
C693 C 0.28508 0.22563 0.76117 0.0
C694 C 0.26716 0.17181 0.763 0.0
C695 C 0.23682 0.1618 0.77099 0.0
C696 C 0.30646 0.23816 0.75187 0.0
C697 C 0.36221 0.25303 0.75108 0.0
C698 C 0.27218 0.23246 0.74373 0.0
C699 C 0.21235 0.21875 0.74428 0.0
C700 C 0.19097 0.17134 0.73958 0.0
C701 C 0.13492 0.15759 0.74031 0.0
C702 C 0.09979 0.19108 0.74569 0.0
C703 C 0.12056 0.2386 0.7503 0.0
C704 C 0.17652 0.25261 0.74958 0.0
C705 C 0.40463 0.21078 0.71043 0.0
C706 C 0.43703 0.25696 0.70827 0.0
C707 C 0.37339 0.21125 0.71854 0.0
C708 C 0.37424 0.25776 0.72462 0.0
C709 C 0.40211 0.30582 0.72203 0.0
C710 C 0.43328 0.30548 0.71389 0.0
C711 C 0.3513 0.25341 0.73409 0.0
C712 C 0.29516 0.23985 0.73492 0.0
C713 C 0.38539 0.25993 0.74226 0.0
C714 C 0.44585 0.27061 0.74179 0.0
C715 C 0.46902 0.31785 0.74628 0.0
C716 C 0.52594 0.32817 0.74578 0.0
C717 C 0.56014 0.29135 0.74085 0.0
C718 C 0.53754 0.24398 0.73645 0.0
C719 C 0.4807 0.2334 0.73695 0.0
H720 H 0.60417 0.29945 0.74047 0.0
H721 H 0.05646 0.18028 0.74626 0.0
H722 H 0.21592 0.61147 0.20992 0.0
H723 H 0.26922 0.59924 0.22448 0.0
H724 H 0.28468 0.77665 0.22796 0.0
H725 H 0.23195 0.78949 0.21337 0.0
H726 H 0.37833 0.71979 0.23438 0.0
H727 H 0.17834 0.71305 0.23691 0.0
H728 H 0.08583 0.67606 0.23253 0.0
H729 H 0.13494 0.51515 0.24196 0.0
H730 H 0.22846 0.55061 0.24609 0.0
H731 H 0.41256 0.76366 0.2816 0.0
H732 H 0.35237 0.76015 0.26768 0.0
H733 H 0.37301 0.58278 0.26561 0.0
H734 H 0.43389 0.58556 0.27952 0.0
H735 H 0.26302 0.63274 0.25846 0.0
H736 H 0.46304 0.63718 0.25532 0.0
H737 H 0.55517 0.67324 0.2602 0.0
H738 H 0.50548 0.83696 0.25225 0.0
H739 H 0.41256 0.80202 0.24752 0.0
C740 C 0.23182 0.64793 0.21365 0.0
C741 C 0.21861 0.70154 0.21059 0.0
C742 C 0.26221 0.64079 0.22197 0.0
C743 C 0.27958 0.68709 0.22738 0.0
C744 C 0.27118 0.74044 0.2239 0.0
C745 C 0.24088 0.74766 0.21557 0.0
C746 C 0.30033 0.68045 0.23711 0.0
C747 C 0.35307 0.70092 0.23964 0.0
C748 C 0.26744 0.65519 0.24394 0.0
C749 C 0.21064 0.63435 0.24172 0.0
C750 C 0.16958 0.66968 0.23799 0.0
C751 C 0.11695 0.64902 0.23556 0.0
C752 C 0.1045 0.59337 0.23699 0.0
C753 C 0.14467 0.55824 0.24085 0.0
C754 C 0.19754 0.57856 0.24322 0.0
C755 C 0.40265 0.72352 0.27845 0.0
C756 C 0.42958 0.6751 0.28148 0.0
C757 C 0.36813 0.72167 0.27048 0.0
C758 C 0.35964 0.67141 0.26555 0.0
C759 C 0.37961 0.62195 0.26933 0.0
C760 C 0.41454 0.62374 0.27727 0.0
C761 C 0.34053 0.67237 0.25568 0.0
C762 C 0.2883 0.65101 0.25315 0.0
C763 C 0.37391 0.69647 0.24883 0.0
C764 C 0.43067 0.7171 0.25117 0.0
C765 C 0.47165 0.68094 0.25467 0.0
C766 C 0.52395 0.70118 0.25744 0.0
C767 C 0.53602 0.75744 0.2566 0.0
C768 C 0.49596 0.79344 0.25293 0.0
C769 C 0.44348 0.77344 0.25021 0.0
H770 H 0.57656 0.77302 0.25872 0.0
H771 H 0.06371 0.57748 0.2351 0.0
H772 H 0.62921 0.92168 0.45558 0.0
H773 H 0.62704 0.99356 0.46778 0.0
H774 H 0.80607 0.99578 0.46908 0.0
H775 H 0.8087 0.92211 0.45703 0.0
H776 H 0.7664 0.98245 0.4858 0.0
H777 H 0.72676 0.10827 0.46104 0.0
H778 H 0.67806 0.14201 0.44689 0.0
H779 H 0.5245 0.14705 0.46159 0.0
H780 H 0.5721 0.11262 0.4758 0.0
H781 H 0.7769 0.2008 0.51989 0.0
H782 H 0.78601 0.14574 0.50546 0.0
H783 H 0.60816 0.12741 0.50343 0.0
H784 H 0.5984 0.18329 0.51783 0.0
H785 H 0.65175 0.15358 0.48672 0.0
H786 H 0.68862 0.02144 0.51081 0.0
H787 H 0.7352 0.98528 0.52498 0.0
H788 H 0.8923 0.99048 0.51141 0.0
H789 H 0.84672 0.02737 0.49719 0.0
C790 C 0.66826 0.93824 0.45828 0.0
C791 C 0.71918 0.91566 0.45539 0.0
C792 C 0.6669 0.97969 0.46525 0.0
C793 C 0.71639 1.00024 0.46933 0.0
C794 C 0.76737 0.98036 0.46604 0.0
C795 C 0.7688 0.93841 0.45912 0.0
C796 C 0.71462 0.03759 0.47772 0.0
C797 C 0.74236 0.02057 0.48592 0.0
C798 C 0.68164 0.08626 0.47798 0.0
C799 C 0.65299 0.1075 0.46947 0.0
C800 C 0.68254 0.11624 0.46124 0.0
C801 C 0.65513 0.13554 0.45321 0.0
C802 C 0.59821 0.14657 0.45334 0.0
C803 C 0.56859 0.13848 0.4615 0.0
C804 C 0.59579 0.11916 0.46955 0.0
C805 C 0.73964 0.18485 0.51643 0.0
C806 C 0.68689 0.19618 0.52006 0.0
C807 C 0.74499 0.15333 0.50817 0.0
C808 C 0.6978 0.13216 0.50343 0.0
C809 C 0.64508 0.14342 0.50701 0.0
C810 C 0.63964 0.17504 0.51527 0.0
C811 C 0.70355 0.09832 0.49472 0.0
C812 C 0.67637 0.11585 0.48651 0.0
C813 C 0.73687 0.04998 0.49444 0.0
C814 C 0.76434 0.02774 0.50297 0.0
C815 C 0.73316 0.01531 0.51087 0.0
C816 C 0.75937 0.99459 0.51891 0.0
C817 C 0.81669 0.98574 0.5191 0.0
C818 C 0.84791 0.99744 0.51125 0.0
C819 C 0.82191 0.01821 0.5032 0.0
H820 H 0.83691 0.9697 0.52533 0.0
H821 H 0.57707 0.16148 0.44711 0.0
H822 H 0.21293 0.96551 0.03059 0.0
H823 H 0.21366 0.035 0.01854 0.0
H824 H 0.03899 0.00835 0.01295 0.0
H825 H 0.03805 0.93752 0.02492 0.0
H826 H 0.09601 0.99296 -0.00241 0.0
H827 H 0.08788 0.13566 0.02091 0.0
H828 H 0.11175 0.18621 0.03566 0.0
H829 H 0.27792 0.21002 0.02632 0.0
H830 H 0.25533 0.15891 0.01156 0.0
H831 H 0.10712 0.18785 0.96072 0.0
H832 H 0.0838 0.14209 0.97519 0.0
H833 H 0.25704 0.13748 0.98337 0.0
H834 H 0.28099 0.18347 0.9689 0.0
H835 H 0.18791 0.17669 -0.00234 0.0
H836 H 0.19746 0.02288 0.97539 0.0
H837 H 0.17314 0.97194 0.96069 0.0
H838 H 1.00187 0.97013 0.96834 0.0
H839 H 0.0251 0.02176 0.98304 0.0
C840 C 0.17422 0.97538 0.027 0.0
C841 C 0.12566 0.94518 0.0286 0.0
C842 C 0.17464 0.01553 0.02013 0.0
C843 C 0.1264 0.02676 0.01482 0.0
C844 C 0.07672 1.0001 0.01695 0.0
C845 C 0.07625 0.95975 0.02382 0.0
C846 C 0.13028 0.05963 0.00622 0.0
C847 C 0.11477 0.03381 -0.00236 0.0
C848 C 0.15604 0.11227 0.00626 0.0
C849 C 0.16994 0.1431 0.01514 0.0
C850 C 0.12964 0.15128 0.02203 0.0
C851 C 0.14293 0.18012 0.03039 0.0
C852 C 0.19634 0.20124 0.03193 0.0
C853 C 0.23655 0.19364 0.02511 0.0
C854 C 0.2235 0.16481 0.01674 0.0
C855 C 0.1404 0.17677 0.96555 0.0
C856 C 0.19597 0.18925 0.96365 0.0
C857 C 0.12692 0.15068 0.97381 0.0
C858 C 0.16872 0.13659 0.98032 0.0
C859 C 0.22424 0.14837 0.97843 0.0
C860 C 0.23785 0.1742 0.97013 0.0
C861 C 0.15453 0.10943 0.98912 0.0
C862 C 0.16821 0.13632 -0.00231 0.0
C863 C 0.12691 0.05785 0.98909 0.0
C864 C 0.11292 0.02675 0.98026 0.0
C865 C 0.15454 0.01206 0.9739 0.0
C866 C 0.14098 0.98297 0.96557 0.0
C867 C 0.08597 0.96796 0.96357 0.0
C868 C 0.04444 0.98188 0.96989 0.0
C869 C 0.05779 0.01102 0.97823 0.0
H870 H 0.07555 0.94543 0.95712 0.0
H871 H 0.20654 0.22356 0.03841 0.0
H872 H 0.84888 0.84199 0.03111 0.0
H873 H 0.7491 0.86067 0.03168 0.0
H874 H 0.73401 0.74177 0.05363 0.0
H875 H 0.83337 0.72201 0.05287 0.0
H876 H 0.65609 0.72473 0.04137 0.0
H877 H 0.7256 0.88738 0.05756 0.0
H878 H 0.78293 0.97134 0.0598 0.0
H879 H 0.70545 0.04262 0.03549 0.0
H880 H 0.64818 0.95873 0.03303 0.0
H881 H 0.37903 0.78991 0.05284 0.0
H882 H 0.48024 0.78431 0.05421 0.0
H883 H 0.49481 0.88387 0.02967 0.0
H884 H 0.3937 0.88991 0.02825 0.0
H885 H 0.5722 0.91253 0.04367 0.0
H886 H 0.5055 0.74744 0.02739 0.0
H887 H 0.44766 0.66364 0.02542 0.0
H888 H 0.52044 0.59738 0.05054 0.0
H889 H 0.57817 0.68121 0.05273 0.0
C890 C 0.82438 0.8207 0.03617 0.0
C891 C 0.84889 0.78112 0.04204 0.0
C892 C 0.76732 0.83135 0.0365 0.0
C893 C 0.73393 0.80322 0.0428 0.0
C894 C 0.75873 0.76406 0.04872 0.0
C895 C 0.81551 0.75287 0.04829 0.0
C896 C 0.67282 0.8123 0.04292 0.0
C897 C 0.63794 0.76582 0.04204 0.0
C898 C 0.64877 0.86593 0.04357 0.0
C899 C 0.68296 0.91654 0.04506 0.0
C900 C 0.72107 0.92079 0.05265 0.0
C901 C 0.75352 0.9684 0.05397 0.0
C902 C 0.74793 0.01223 0.04778 0.0
C903 C 0.70978 0.00861 0.04028 0.0
C904 C 0.67728 0.96106 0.03892 0.0
C905 C 0.40372 0.81113 0.04779 0.0
C906 C 0.37827 0.83994 0.04038 0.0
C907 C 0.46156 0.80777 0.04857 0.0
C908 C 0.49499 0.83313 0.04197 0.0
C909 C 0.46977 0.86394 0.03482 0.0
C910 C 0.41195 0.86714 0.03401 0.0
C911 C 0.55605 0.82502 0.04221 0.0
C912 C 0.59071 0.87157 0.04309 0.0
C913 C 0.58003 0.77147 0.04163 0.0
C914 C 0.54573 0.72083 0.04027 0.0
C915 C 0.50887 0.71518 0.03253 0.0
C916 C 0.47615 0.66765 0.03137 0.0
C917 C 0.48027 0.62528 0.03787 0.0
C918 C 0.51724 0.63027 0.04552 0.0
C919 C 0.54999 0.67776 0.04672 0.0
H920 H 0.4549 0.58851 0.03696 0.0
H921 H 0.77309 0.04905 0.04881 0.0
H922 H 0.65689 0.36581 0.28601 0.0
H923 H 0.6358 0.26815 0.28746 0.0
H924 H 0.5012 0.30954 0.30581 0.0
H925 H 0.52491 0.40734 0.30501 0.0
H926 H 0.55124 0.22358 0.31218 0.0
H927 H 0.47929 0.26734 0.282 0.0
H928 H 0.4786 0.30563 0.26612 0.0
H929 H 0.61063 0.19511 0.25831 0.0
H930 H 0.61267 0.15666 0.27419 0.0
H931 H 0.4514 0.94064 0.3058 0.0
H932 H 0.45709 0.04225 0.30568 0.0
H933 H 0.61649 0.03051 0.29264 0.0
H934 H 0.61157 0.9295 0.29281 0.0
H935 H 0.5398 0.10243 0.28361 0.0
H936 H 0.61235 0.06458 0.3149 0.0
H937 H 0.60674 0.02618 0.33072 0.0
H938 H 0.4626 0.126 0.33613 0.0
H939 H 0.46692 0.16443 0.32028 0.0
C940 C 0.62272 0.3545 0.29038 0.0
C941 C 0.59157 0.39535 0.29514 0.0
C942 C 0.61031 0.29834 0.29112 0.0
C943 C 0.56567 0.28126 0.2965 0.0
C944 C 0.53523 0.32162 0.30147 0.0
C945 C 0.54827 0.37802 0.30085 0.0
C946 C 0.55211 0.22118 0.29705 0.0
C947 C 0.54769 0.19738 0.30591 0.0
C948 C 0.54757 0.18655 0.2889 0.0
C949 C 0.54637 0.20938 0.27932 0.0
C950 C 0.50842 0.25144 0.27692 0.0
C951 C 0.50776 0.27314 0.26791 0.0
C952 C 0.54461 0.25289 0.26122 0.0
C953 C 0.58212 0.21078 0.26351 0.0
C954 C 0.583 0.18896 0.27251 0.0
C955 C 0.4878 0.95973 0.30296 0.0
C956 C 0.53101 0.92694 0.29931 0.0
C957 C 0.491 0.01774 0.30292 0.0
C958 C 0.53721 0.04382 0.29915 0.0
C959 C 0.58043 0.01118 0.29556 0.0
C960 C 0.5776 0.9534 0.2957 0.0
C961 C 0.54049 0.1051 0.29869 0.0
C962 C 0.54273 0.12899 0.28984 0.0
C963 C 0.54193 0.13977 0.30683 0.0
C964 C 0.53958 0.11689 0.31637 0.0
C965 C 0.57917 0.07797 0.31943 0.0
C966 C 0.57629 0.05628 0.32841 0.0
C967 C 0.53424 0.07351 0.33442 0.0
C968 C 0.49508 0.11261 0.33146 0.0
C969 C 0.49775 0.13439 0.32249 0.0
H970 H 0.53208 0.05667 0.34137 0.0
H971 H 0.54404 0.26975 0.25425 0.0
H972 H 0.35096 0.20515 0.53942 0.0
H973 H 0.25213 0.22677 0.53977 0.0
H974 H 0.28978 0.39409 0.54915 0.0
H975 H 0.38889 0.37158 0.54935 0.0
H976 H 0.20675 0.35678 0.55859 0.0
H977 H 0.2461 0.3632 0.5261 0.0
H978 H 0.28324 0.33074 0.51096 0.0
H979 H 0.17568 0.18918 0.51094 0.0
H980 H 0.13843 0.22036 0.52616 0.0
H981 H 0.92255 0.43864 0.54946 0.0
H982 H 0.02403 0.43206 0.54918 0.0
H983 H 0.01213 0.25649 0.54307 0.0
H984 H 0.91117 0.26256 0.54332 0.0
H985 H 0.08303 0.30924 0.53135 0.0
H986 H 0.04912 0.30274 0.56467 0.0
H987 H 0.01198 0.33859 0.57961 0.0
H988 H 0.10946 0.48633 0.57753 0.0
H989 H 0.14662 0.45164 0.5625 0.0
C990 C 0.33825 0.24665 0.54152 0.0
C991 C 0.37791 0.28717 0.54406 0.0
C992 C 0.28169 0.25911 0.54165 0.0
C993 C 0.2634 0.31254 0.54424 0.0
C994 C 0.30286 0.35283 0.54698 0.0
C995 C 0.3596 0.34017 0.54694 0.0
C996 C 0.20302 0.32548 0.54431 0.0
C997 C 0.17988 0.34732 0.55257 0.0
C998 C 0.16768 0.31275 0.53649 0.0
C999 C 0.18977 0.29394 0.52731 0.0
C1000 C 0.23063 0.32495 0.5229 0.0
C1001 C 0.25166 0.3068 0.5143 0.0
C1002 C 0.2319 0.25788 0.51 0.0
C1003 C 0.19097 0.22705 0.51428 0.0
C1004 C 0.16983 0.24498 0.52289 0.0
C1005 C 0.94157 0.39859 0.54811 0.0
C1006 C 0.9087 0.35115 0.5464 0.0
C1007 C 0.99954 0.3949 0.54797 0.0
C1008 C 0.02558 0.34375 0.54611 0.0
C1009 C 0.99287 0.29638 0.54448 0.0
C1010 C 0.93511 0.29994 0.54467 0.0
C1011 C 0.08688 0.33924 0.54568 0.0
C1012 C 0.11011 0.31916 0.53732 0.0
C1013 C 0.12225 0.3542 0.55336 0.0
C1014 C 0.10016 0.37487 0.56242 0.0
C1015 C 0.06228 0.34307 0.56736 0.0
C1016 C 0.04129 0.36314 0.57585 0.0
C1017 C 0.05822 0.41478 0.5795 0.0
C1018 C 0.09631 0.44638 0.57469 0.0
C1019 C 0.11737 0.42652 0.56619 0.0
H1020 H 0.04192 0.43025 0.58608 0.0
H1021 H 0.24825 0.24389 0.50334 0.0
H1022 H 0.02378 0.90293 0.80375 0.0
H1023 H 1.00042 0.80474 0.8047 0.0
H1024 H 0.1386 0.7624 0.78717 0.0
H1025 H 0.16034 0.86029 0.78579 0.0
H1026 H 0.05433 0.70088 0.78211 0.0
H1027 H 0.14335 0.75233 0.81163 0.0
H1028 H 0.15531 0.80645 0.82642 0.0
H1029 H 0.99477 0.75421 0.83518 0.0
H1030 H 0.98157 0.70033 0.82038 0.0
H1031 H 0.12419 0.42682 0.79392 0.0
H1032 H 0.12486 0.528 0.79348 0.0
H1033 H 0.96075 0.53381 0.80488 0.0
H1034 H 0.95919 0.432 0.80519 0.0
H1035 H 0.04419 0.61368 0.81319 0.0
H1036 H 0.96178 0.55403 0.7837 0.0
H1037 H 0.95596 0.49755 0.76908 0.0
H1038 H 0.11127 0.56398 0.76043 0.0
H1039 H 0.11845 0.62023 0.77508 0.0
C1040 C 0.04824 0.87304 0.79987 0.0
C1041 C 0.09342 0.88989 0.79455 0.0
C1042 C 0.03538 0.81661 0.80055 0.0
C1043 C 0.06801 0.7759 0.79607 0.0
C1044 C 0.11261 0.79282 0.79068 0.0
C1045 C 0.1252 0.84896 0.78994 0.0
C1046 C 0.05703 0.71556 0.79708 0.0
C1047 C 0.05238 0.68196 0.78892 0.0
C1048 C 0.05328 0.69064 0.80595 0.0
C1049 C 0.06119 0.72288 0.81485 0.0
C1050 C 0.11042 0.75275 0.81668 0.0
C1051 C 0.11746 0.78331 0.82507 0.0
C1052 C 0.07575 0.78392 0.83172 0.0
C1053 C 0.02699 0.7538 0.83001 0.0
C1054 C 0.01971 0.72323 0.82163 0.0
C1055 C 0.08833 0.44947 0.79641 0.0
C1056 C 0.04152 0.42127 0.79956 0.0
C1057 C 0.08877 0.50732 0.79613 0.0
C1058 C 0.04275 0.53828 0.7991 0.0
C1059 C 0.99665 0.51056 0.80255 0.0
C1060 C 0.99579 0.45246 0.8027 0.0
C1061 C 0.04268 0.59948 0.79824 0.0
C1062 C 0.0453 0.633 0.80641 0.0
C1063 C 0.04528 0.62436 0.78939 0.0
C1064 C 0.04087 0.59099 0.78053 0.0
C1065 C 0.99492 0.55625 0.77872 0.0
C1066 C 0.99133 0.52434 0.77042 0.0
C1067 C 0.03328 0.52708 0.76384 0.0
C1068 C 0.07883 0.56186 0.76554 0.0
C1069 C 0.08265 0.59381 0.77383 0.0
H1070 H 0.03043 0.50234 0.75742 0.0
H1071 H 0.08128 0.8076 0.83821 0.0
H1072 H 0.97774 0.41256 0.9465 0.0
H1073 H 0.87675 0.40565 0.94553 0.0
H1074 H 0.89034 0.24771 0.93092 0.0
H1075 H 0.99163 0.25509 0.93163 0.0
H1076 H 0.8066 0.30504 0.92367 0.0
H1077 H 0.86597 0.25719 0.95475 0.0
H1078 H 0.91496 0.27073 0.96999 0.0
H1079 H 0.81849 0.41732 0.97557 0.0
H1080 H 0.76941 0.40505 0.9603 0.0
H1081 H 0.54466 0.19054 0.93493 0.0
H1082 H 0.64317 0.21161 0.93333 0.0
H1083 H 0.61625 0.3752 0.94525 0.0
H1084 H 0.51756 0.35415 0.94693 0.0
H1085 H 0.70521 0.3202 0.95353 0.0
H1086 H 0.64084 0.36154 0.92245 0.0
H1087 H 0.59179 0.34343 0.90735 0.0
H1088 H 0.69744 0.20314 0.90195 0.0
H1089 H 0.74663 0.2199 0.9171 0.0
C1090 C 0.95932 0.37655 0.943 0.0
C1091 C 0.99284 0.33411 0.93922 0.0
C1092 C 0.90147 0.37254 0.94249 0.0
C1093 C 0.87578 0.32559 0.93833 0.0
C1094 C 0.90911 0.28423 0.93421 0.0
C1095 C 0.96707 0.28846 0.93463 0.0
C1096 C 0.81441 0.31868 0.93862 0.0
C1097 C 0.78454 0.30782 0.93021 0.0
C1098 C 0.78527 0.32324 0.94713 0.0
C1099 C 0.81444 0.33053 0.95634 0.0
C1100 C 0.85548 0.29253 0.9592 0.0
C1101 C 0.88322 0.29994 0.96785 0.0
C1102 C 0.86996 0.34495 0.97374 0.0
C1103 C 0.82878 0.38253 0.971 0.0
C1104 C 0.80096 0.37535 0.96235 0.0
C1105 C 0.55962 0.23124 0.93711 0.0
C1106 C 0.52315 0.27099 0.94092 0.0
C1107 C 0.61587 0.2433 0.93616 0.0
C1108 C 0.63702 0.29519 0.93908 0.0
C1109 C 0.60072 0.33506 0.94288 0.0
C1110 C 0.54421 0.32319 0.94374 0.0
C1111 C 0.6975 0.3065 0.93859 0.0
C1112 C 0.72724 0.31794 0.94698 0.0
C1113 C 0.72649 0.3018 0.93008 0.0
C1114 C 0.69711 0.29171 0.92095 0.0
C1115 C 0.65332 0.32654 0.91809 0.0
C1116 C 0.62555 0.31657 0.90951 0.0
C1117 C 0.64141 0.27209 0.9037 0.0
C1118 C 0.68517 0.23755 0.90646 0.0
C1119 C 0.71305 0.2473 0.91503 0.0
H1120 H 0.61986 0.26444 0.89706 0.0
H1121 H 0.89149 0.35063 0.98043 0.0
H1122 H 0.16568 0.03622 0.1803 0.0
H1123 H 0.14661 0.13567 0.18017 0.0
H1124 H 0.01813 0.11513 0.20036 0.0
H1125 H 0.03738 0.01541 0.20059 0.0
H1126 H 0.98714 0.18858 0.18662 0.0
H1127 H 0.14148 0.1612 0.20766 0.0
H1128 H 0.23332 0.12601 0.21267 0.0
H1129 H 0.3102 0.21761 0.19103 0.0
H1130 H 0.21865 0.25273 0.1858 0.0
H1131 H 0.98221 0.47222 0.20302 0.0
H1132 H 0.98785 0.37114 0.20146 0.0
H1133 H 0.11337 0.38621 0.18059 0.0
H1134 H 0.10788 0.48732 0.18207 0.0
H1135 H 0.14359 0.31531 0.19477 0.0
H1136 H 0.98765 0.34409 0.17399 0.0
H1137 H 0.89533 0.37975 0.16935 0.0
H1138 H 0.82088 0.28662 0.19105 0.0
H1139 H 0.91292 0.251 0.1959 0.0
C1140 C 0.13304 0.05276 0.18466 0.0
C1141 C 0.10263 0.01776 0.19037 0.0
C1142 C 0.12223 0.10962 0.18459 0.0
C1143 C 0.08128 0.13289 0.19032 0.0
C1144 C 0.04972 0.09795 0.19585 0.0
C1145 C 0.06051 0.04086 0.19592 0.0
C1146 C 0.07337 0.19395 0.19081 0.0
C1147 C 0.02111 0.21632 0.18852 0.0
C1148 C 0.11797 0.23013 0.19315 0.0
C1149 C 0.17313 0.20914 0.19628 0.0
C1150 C 0.17791 0.17347 0.20392 0.0
C1151 C 0.22993 0.1536 0.2068 0.0
C1152 C 0.27755 0.16945 0.20215 0.0
C1153 C 0.27326 0.20531 0.19461 0.0
C1154 C 0.22132 0.22524 0.19169 0.0
C1155 C 0.0106 0.45407 0.19803 0.0
C1156 C 0.04476 0.48783 0.1927 0.0
C1157 C 0.01361 0.39629 0.19712 0.0
C1158 C 0.05094 0.37121 0.1909 0.0
C1159 C 0.0843 0.40478 0.18544 0.0
C1160 C 0.08098 0.46255 0.18628 0.0
C1161 C 0.05754 0.31004 0.19048 0.0
C1162 C 0.1096 0.28762 0.19284 0.0
C1163 C 0.01268 0.27398 0.18827 0.0
C1164 C 0.95728 0.29533 0.18537 0.0
C1165 C 0.95167 0.33161 0.17783 0.0
C1166 C 0.89937 0.35174 0.17515 0.0
C1167 C 0.85229 0.33559 0.17992 0.0
C1168 C 0.8574 0.29916 0.18737 0.0
C1169 C 0.90962 0.27895 0.19008 0.0
H1170 H 0.81183 0.3512 0.17784 0.0
H1171 H 0.31779 0.15404 0.2044 0.0
H1172 H 1.00032 0.83332 0.43266 0.0
H1173 H 0.09852 0.85441 0.43142 0.0
H1174 H 0.13969 0.71417 0.4485 0.0
H1175 H 0.04164 0.69554 0.4504 0.0
H1176 H 0.2041 0.79312 0.45349 0.0
H1177 H 0.14729 0.7141 0.42348 0.0
H1178 H 0.09121 0.70708 0.40883 0.0
H1179 H 0.14487 0.86923 0.40122 0.0
H1180 H 0.20075 0.87748 0.41589 0.0
H1181 H 0.47729 0.72931 0.44029 0.0
H1182 H 0.37615 0.72644 0.4408 0.0
H1183 H 0.36689 0.89387 0.43094 0.0
H1184 H 0.46858 0.89756 0.43053 0.0
H1185 H 0.28708 0.81272 0.42221 0.0
H1186 H 0.35123 0.88436 0.45238 0.0
H1187 H 0.41 0.88357 0.46675 0.0
H1188 H 0.34392 0.72496 0.4737 0.0
H1189 H 0.28535 0.72442 0.45929 0.0
C1190 C 0.02983 0.80801 0.43643 0.0
C1191 C 0.01245 0.76342 0.44183 0.0
C1192 C 0.0864 0.81946 0.43553 0.0
C1193 C 0.12686 0.78556 0.43977 0.0
C1194 C 0.10953 0.74118 0.44517 0.0
C1195 C 0.0532 0.73035 0.4462 0.0
C1196 C 0.18728 0.7954 0.43859 0.0
C1197 C 0.22205 0.79698 0.44663 0.0
C1198 C 0.21106 0.80162 0.42966 0.0
C1199 C 0.17766 0.79666 0.42083 0.0
C1200 C 0.1468 0.74841 0.41871 0.0
C1201 C 0.1151 0.74419 0.4104 0.0
C1202 C 0.11433 0.78775 0.40411 0.0
C1203 C 0.14541 0.83557 0.40611 0.0
C1204 C 0.17712 0.84003 0.41442 0.0
C1205 C 0.45389 0.76542 0.43813 0.0
C1206 C 0.48106 0.81382 0.43542 0.0
C1207 C 0.39607 0.7637 0.43845 0.0
C1208 C 0.36421 0.81007 0.43598 0.0
C1209 C 0.39088 0.8577 0.43289 0.0
C1210 C 0.44892 0.85975 0.43268 0.0
C1211 C 0.30324 0.80919 0.43707 0.0
C1212 C 0.26865 0.8094 0.42904 0.0
C1213 C 0.27962 0.80358 0.44598 0.0
C1214 C 0.31424 0.80417 0.45472 0.0
C1215 C 0.34954 0.84912 0.45694 0.0
C1216 C 0.38276 0.84895 0.46509 0.0
C1217 C 0.38078 0.80419 0.47112 0.0
C1218 C 0.34544 0.75959 0.46902 0.0
C1219 C 0.31218 0.75953 0.46086 0.0
H1220 H 0.40656 0.80412 0.47743 0.0
H1221 H 0.08977 0.78441 0.39768 0.0
H1222 H 0.47433 0.98667 0.70605 0.0
H1223 H 0.47703 0.8856 0.70472 0.0
H1224 H 0.57306 0.89583 0.67965 0.0
H1225 H 0.56934 0.99718 0.6808 0.0
H1226 H 0.49951 0.81445 0.67771 0.0
H1227 H 0.63471 0.87038 0.70119 0.0
H1228 H 0.66901 0.91839 0.71562 0.0
H1229 H 0.55621 0.82518 0.73196 0.0
H1230 H 0.52068 0.77712 0.71759 0.0
H1231 H 0.63229 0.54968 0.67863 0.0
H1232 H 0.60982 0.64877 0.67892 0.0
H1233 H 0.4987 0.62428 0.70174 0.0
H1234 H 0.52112 0.52496 0.70148 0.0
H1235 H 0.574 0.71137 0.70496 0.0
H1236 H 0.44442 0.65034 0.68101 0.0
H1237 H 0.41453 0.60192 0.66635 0.0
H1238 H 0.52247 0.70423 0.65064 0.0
H1239 H 0.55366 0.75274 0.66523 0.0
C1240 C 0.49568 0.96749 0.70021 0.0
C1241 C 0.52207 1.00006 0.69358 0.0
C1242 C 0.49738 0.90961 0.69947 0.0
C1243 C 0.52617 0.88298 0.69219 0.0
C1244 C 0.55077 0.91538 0.68536 0.0
C1245 C 0.54872 0.97335 0.68604 0.0
C1246 C 0.53224 0.82151 0.69186 0.0
C1247 C 0.5163 0.792 0.68364 0.0
C1248 C 0.55322 0.79192 0.69965 0.0
C1249 C 0.57462 0.8206 0.7083 0.0
C1250 C 0.61692 0.86043 0.70785 0.0
C1251 C 0.63663 0.8876 0.71602 0.0
C1252 C 0.61469 0.87496 0.72469 0.0
C1253 C 0.5731 0.83499 0.72523 0.0
C1254 C 0.55318 0.80775 0.71708 0.0
C1255 C 0.60256 0.56535 0.68363 0.0
C1256 C 0.5778 0.52948 0.68993 0.0
C1257 C 0.58962 0.62188 0.68377 0.0
C1258 C 0.55219 0.64381 0.69029 0.0
C1259 C 0.52735 0.6081 0.6966 0.0
C1260 C 0.53978 0.55131 0.69638 0.0
C1261 C 0.54142 0.70447 0.69081 0.0
C1262 C 0.55672 0.73382 0.69907 0.0
C1263 C 0.52049 0.73387 0.68302 0.0
C1264 C 0.50176 0.70484 0.67423 0.0
C1265 C 0.46216 0.6622 0.67444 0.0
C1266 C 0.44491 0.63479 0.66614 0.0
C1267 C 0.46668 0.6499 0.65757 0.0
C1268 C 0.50568 0.69253 0.65728 0.0
C1269 C 0.52312 0.72004 0.66556 0.0
H1270 H 0.45326 0.62864 0.65116 0.0
H1271 H 0.63001 0.89603 0.73101 0.0
loop_
_geom_bond_atom_site_label_1
_geom_bond_atom_site_label_2
_geom_bond_distance
_geom_bond_site_symmetry_2
_ccdc_geom_bond_type
Co0 O3 1.970 . S
Co0 N17 1.989 . S
Co0 O25 1.967 . S
Co0 O32 1.920 . S
Co1 O4 1.966 . S
Co1 N10 2.022 1_455 S
Co1 N18 1.993 . S
Co1 O26 1.941 . S
C2 O3 1.258 . S
C2 O4 1.263 . S
O3 Co0 1.970 . S
O3 C2 1.258 . S
O4 Co1 1.966 . S
O4 C2 1.263 . S
C5 O6 1.235 . S
C5 O32 1.289 . S
O6 C5 1.235 . S
C7 C9 1.400 . S
C7 N10 1.351 . S
C7 C12 1.501 . S
C8 C9 1.387 . S
C8 N11 1.341 . S
C9 C7 1.400 . S
C9 C8 1.387 . S
N10 Co1 2.022 1_655 S
N10 C7 1.351 . S
N10 N11 1.365 . S
N11 C8 1.341 . S
N11 N10 1.365 . S
N11 H31 0.862 . S
C12 C7 1.501 . S
C12 H13 0.961 1_655 S
C12 H14 0.961 . S
C12 H15 0.960 . S
H13 C12 0.961 1_455 S
H14 C12 0.961 . S
H15 C12 0.960 . S
C16 N17 1.342 . S
C16 C20 1.401 . S
C16 C21 1.499 . S
N17 Co0 1.989 . S
N17 C16 1.342 . S
N17 N18 1.388 . S
N18 Co1 1.993 . S
N18 N17 1.388 . S
N18 C19 1.346 . S
C19 N18 1.346 . S
C19 C20 1.396 . S
C19 C29 1.510 . S
C20 C16 1.401 . S
C20 C19 1.396 . S
C21 C16 1.499 . S
C21 H22 0.959 . S
C21 H23 0.960 . S
C21 H24 0.961 . S
H22 C21 0.959 . S
H23 C21 0.960 . S
H24 C21 0.961 . S
O25 Co0 1.967 . S
O25 C33 1.258 . S
O26 Co1 1.941 . S
O26 C33 1.266 . S
H27 C29 0.959 . S
H28 C29 0.961 . S
C29 C19 1.510 . S
C29 H27 0.959 . S
C29 H28 0.961 . S
C29 H30 0.960 . S
H30 C29 0.960 . S
H31 N11 0.862 . S
O32 Co0 1.920 . S
O32 C5 1.289 . S
C33 O25 1.258 . S
C33 O26 1.266 . S
Co34 O37 1.970 . S
Co34 N51 1.989 . S
Co34 O59 1.967 . S
Co34 O66 1.920 . S
Co35 O38 1.966 . S
Co35 N44 2.022 . S
Co35 N52 1.993 . S
Co35 O60 1.941 . S
C36 O37 1.258 . S
C36 O38 1.263 . S
O37 Co34 1.970 . S
O37 C36 1.258 . S
O38 Co35 1.966 . S
O38 C36 1.263 . S
C39 O40 1.235 . S
C39 O66 1.289 . S
O40 C39 1.235 . S
C41 C43 1.400 . S
C41 N44 1.351 . S
C41 C46 1.501 . S
C42 C43 1.387 . S
C42 N45 1.341 . S
C43 C41 1.400 . S
C43 C42 1.387 . S
N44 Co35 2.022 . S
N44 C41 1.351 . S
N44 N45 1.365 . S
N45 C42 1.341 . S
N45 N44 1.365 . S
N45 H65 0.862 . S
C46 C41 1.501 . S
C46 H47 0.961 . S
C46 H48 0.961 . S
C46 H49 0.960 . S
H47 C46 0.961 . S
H48 C46 0.961 . S
H49 C46 0.960 . S
C50 N51 1.342 . S
C50 C54 1.401 . S
C50 C55 1.499 . S
N51 Co34 1.989 . S
N51 C50 1.342 . S
N51 N52 1.388 . S
N52 Co35 1.993 . S
N52 N51 1.388 . S
N52 C53 1.346 . S
C53 N52 1.346 . S
C53 C54 1.396 . S
C53 C63 1.510 . S
C54 C50 1.401 . S
C54 C53 1.396 . S
C55 C50 1.499 . S
C55 H56 0.959 . S
C55 H57 0.960 . S
C55 H58 0.961 . S
H56 C55 0.959 . S
H57 C55 0.960 . S
H58 C55 0.961 . S
O59 Co34 1.967 . S
O59 C67 1.258 . S
O60 Co35 1.941 . S
O60 C67 1.266 . S
H61 C63 0.959 . S
H62 C63 0.961 . S
C63 C53 1.510 . S
C63 H61 0.959 . S
C63 H62 0.961 . S
C63 H64 0.960 . S
H64 C63 0.960 . S
H65 N45 0.862 . S
O66 Co34 1.920 . S
O66 C39 1.289 . S
C67 O59 1.258 . S
C67 O60 1.266 . S
Co68 O71 1.970 . S
Co68 N85 1.989 . S
Co68 O93 1.967 . S
Co68 O100 1.920 . S
Co69 O72 1.966 . S
Co69 N78 2.022 . S
Co69 N86 1.993 . S
Co69 O94 1.941 . S
C70 O71 1.258 . S
C70 O72 1.263 . S
O71 Co68 1.970 . S
O71 C70 1.258 . S
O72 Co69 1.966 . S
O72 C70 1.263 . S
C73 O74 1.235 . S
C73 O100 1.289 . S
O74 C73 1.235 . S
C75 C77 1.400 . S
C75 N78 1.351 . S
C75 C80 1.501 . S
C76 C77 1.387 . S
C76 N79 1.341 . S
C77 C75 1.400 . S
C77 C76 1.387 . S
N78 Co69 2.022 . S
N78 C75 1.351 . S
N78 N79 1.365 . S
N79 C76 1.341 . S
N79 N78 1.365 . S
N79 H99 0.862 . S
C80 C75 1.501 . S
C80 H81 0.961 . S
C80 H82 0.961 . S
C80 H83 0.960 . S
H81 C80 0.961 . S
H82 C80 0.961 . S
H83 C80 0.960 . S
C84 N85 1.342 . S
C84 C88 1.401 . S
C84 C89 1.499 . S
N85 Co68 1.989 . S
N85 C84 1.342 . S
N85 N86 1.388 . S
N86 Co69 1.993 . S
N86 N85 1.388 . S
N86 C87 1.346 . S
C87 N86 1.346 . S
C87 C88 1.396 . S
C87 C97 1.510 . S
C88 C84 1.401 . S
C88 C87 1.396 . S
C89 C84 1.499 . S
C89 H90 0.959 . S
C89 H91 0.960 . S
C89 H92 0.961 . S
H90 C89 0.959 . S
H91 C89 0.960 . S
H92 C89 0.961 . S
O93 Co68 1.967 . S
O93 C101 1.258 . S
O94 Co69 1.941 . S
O94 C101 1.266 . S
H95 C97 0.959 . S
H96 C97 0.961 . S
C97 C87 1.510 . S
C97 H95 0.959 . S
C97 H96 0.961 . S
C97 H98 0.960 . S
H98 C97 0.960 . S
H99 N79 0.862 . S
O100 Co68 1.920 . S
O100 C73 1.289 . S
C101 O93 1.258 . S
C101 O94 1.266 . S
Co102 O105 1.970 . S
Co102 N119 1.989 . S
Co102 O127 1.967 . S
Co102 O134 1.920 . S
Co103 O106 1.966 . S
Co103 N112 2.022 . S
Co103 N120 1.993 . S
Co103 O128 1.941 . S
C104 O105 1.258 . S
C104 O106 1.263 . S
O105 Co102 1.970 . S
O105 C104 1.258 . S
O106 Co103 1.966 . S
O106 C104 1.263 . S
C107 O108 1.235 . S
C107 O134 1.289 . S
O108 C107 1.235 . S
C109 C111 1.400 1_545 S
C109 N112 1.351 . S
C109 C114 1.501 . S
C110 C111 1.387 . S
C110 N113 1.341 1_565 S
C111 C109 1.400 1_565 S
C111 C110 1.387 . S
N112 Co103 2.022 . S
N112 C109 1.351 . S
N112 N113 1.365 . S
N113 C110 1.341 1_545 S
N113 N112 1.365 . S
N113 H133 0.862 . S
C114 C109 1.501 . S
C114 H115 0.961 . S
C114 H116 0.963 1_455 S
C114 H117 0.960 . S
H115 C114 0.961 . S
H116 C114 0.963 1_655 S
H117 C114 0.960 . S
C118 N119 1.342 . S
C118 C122 1.401 . S
C118 C123 1.499 . S
N119 Co102 1.989 . S
N119 C118 1.342 . S
N119 N120 1.388 . S
N120 Co103 1.993 . S
N120 N119 1.388 . S
N120 C121 1.346 . S
C121 N120 1.346 . S
C121 C122 1.396 . S
C121 C131 1.510 . S
C122 C118 1.401 . S
C122 C121 1.396 . S
C123 C118 1.499 . S
C123 H124 0.959 . S
C123 H125 0.960 . S
C123 H126 0.961 . S
H124 C123 0.959 . S
H125 C123 0.960 . S
H126 C123 0.961 . S
O127 Co102 1.967 . S
O127 C135 1.258 . S
O128 Co103 1.941 . S
O128 C135 1.266 . S
H129 C131 0.959 . S
H130 C131 0.961 . S
C131 C121 1.510 . S
C131 H129 0.959 . S
C131 H130 0.961 . S
C131 H132 0.960 . S
H132 C131 0.960 . S
H133 N113 0.862 . S
O134 Co102 1.920 . S
O134 C107 1.289 . S
C135 O127 1.258 . S
C135 O128 1.266 . S
Co136 O139 1.970 . S
Co136 N153 1.989 . S
Co136 O161 1.967 . S
Co136 O168 1.920 . S
Co137 O140 1.966 . S
Co137 N146 2.022 . S
Co137 N154 1.993 . S
Co137 O162 1.941 . S
C138 O139 1.258 . S
C138 O140 1.263 . S
O139 Co136 1.970 . S
O139 C138 1.258 . S
O140 Co137 1.966 . S
O140 C138 1.263 . S
C141 O142 1.235 . S
C141 O168 1.289 . S
O142 C141 1.235 . S
C143 C145 1.400 . S
C143 N146 1.351 . S
C143 C148 1.501 . S
C144 C145 1.387 . S
C144 N147 1.341 . S
C145 C143 1.400 . S
C145 C144 1.387 . S
N146 Co137 2.022 . S
N146 C143 1.351 . S
N146 N147 1.365 . S
N147 C144 1.341 . S
N147 N146 1.365 . S
N147 H167 0.862 . S
C148 C143 1.501 . S
C148 H149 0.961 . S
C148 H150 0.961 . S
C148 H151 0.960 . S
H149 C148 0.961 . S
H150 C148 0.961 . S
H151 C148 0.960 . S
C152 N153 1.342 . S
C152 C156 1.401 . S
C152 C157 1.499 . S
N153 Co136 1.989 . S
N153 C152 1.342 . S
N153 N154 1.388 . S
N154 Co137 1.993 . S
N154 N153 1.388 . S
N154 C155 1.346 . S
C155 N154 1.346 . S
C155 C156 1.396 . S
C155 C165 1.510 . S
C156 C152 1.401 . S
C156 C155 1.396 . S
C157 C152 1.499 . S
C157 H158 0.959 . S
C157 H159 0.960 . S
C157 H160 0.961 . S
H158 C157 0.959 . S
H159 C157 0.960 . S
H160 C157 0.961 . S
O161 Co136 1.967 . S
O161 C169 1.258 . S
O162 Co137 1.941 . S
O162 C169 1.266 . S
H163 C165 0.959 . S
H164 C165 0.961 . S
C165 C155 1.510 . S
C165 H163 0.959 . S
C165 H164 0.961 . S
C165 H166 0.960 . S
H166 C165 0.960 . S
H167 N147 0.862 . S
O168 Co136 1.920 . S
O168 C141 1.289 . S
C169 O161 1.258 . S
C169 O162 1.266 . S
Co170 O173 1.970 . S
Co170 N187 1.989 . S
Co170 O195 1.967 . S
Co170 O202 1.920 . S
Co171 O174 1.966 . S
Co171 N180 2.022 . S
Co171 N188 1.993 . S
Co171 O196 1.941 . S
C172 O173 1.258 . S
C172 O174 1.263 . S
O173 Co170 1.970 . S
O173 C172 1.258 . S
O174 Co171 1.966 . S
O174 C172 1.263 . S
C175 O176 1.235 . S
C175 O202 1.289 . S
O176 C175 1.235 . S
C177 C179 1.400 . S
C177 N180 1.351 . S
C177 C182 1.501 . S
C178 C179 1.387 . S
C178 N181 1.341 . S
C179 C177 1.400 . S
C179 C178 1.387 . S
N180 Co171 2.022 . S
N180 C177 1.351 . S
N180 N181 1.365 . S
N181 C178 1.341 . S
N181 N180 1.365 . S
N181 H201 0.862 . S
C182 C177 1.501 . S
C182 H183 0.961 . S
C182 H184 0.961 1_455 S
C182 H185 0.960 . S
H183 C182 0.961 . S
H184 C182 0.961 1_655 S
H185 C182 0.960 . S
C186 N187 1.342 . S
C186 C190 1.401 . S
C186 C191 1.499 . S
N187 Co170 1.989 . S
N187 C186 1.342 . S
N187 N188 1.388 . S
N188 Co171 1.993 . S
N188 N187 1.388 . S
N188 C189 1.346 . S
C189 N188 1.346 . S
C189 C190 1.396 . S
C189 C199 1.510 . S
C190 C186 1.401 . S
C190 C189 1.396 . S
C191 C186 1.499 . S
C191 H192 0.959 . S
C191 H193 0.960 . S
C191 H194 0.961 . S
H192 C191 0.959 . S
H193 C191 0.960 . S
H194 C191 0.961 . S
O195 Co170 1.967 . S
O195 C203 1.258 . S
O196 Co171 1.941 . S
O196 C203 1.266 . S
H197 C199 0.959 . S
H198 C199 0.961 . S
C199 C189 1.510 . S
C199 H197 0.959 . S
C199 H198 0.961 . S
C199 H200 0.960 . S
H200 C199 0.960 . S
H201 N181 0.862 . S
O202 Co170 1.920 . S
O202 C175 1.289 . S
C203 O195 1.258 . S
C203 O196 1.266 . S
Co204 O207 1.970 . S
Co204 N221 1.989 . S
Co204 O229 1.967 . S
Co204 O236 1.920 . S
Co205 O208 1.966 . S
Co205 N214 2.022 . S
Co205 N222 1.993 . S
Co205 O230 1.941 . S
C206 O207 1.258 . S
C206 O208 1.263 . S
O207 Co204 1.970 . S
O207 C206 1.258 . S
O208 Co205 1.966 . S
O208 C206 1.263 . S
C209 O210 1.235 . S
C209 O236 1.289 . S
O210 C209 1.235 . S
C211 C213 1.400 . S
C211 N214 1.351 . S
C211 C216 1.501 . S
C212 C213 1.387 . S
C212 N215 1.341 . S
C213 C211 1.400 . S
C213 C212 1.387 . S
N214 Co205 2.022 . S
N214 C211 1.351 . S
N214 N215 1.365 . S
N215 C212 1.341 . S
N215 N214 1.365 . S
N215 H235 0.862 . S
C216 C211 1.501 . S
C216 H217 0.961 . S
C216 H218 0.961 . S
C216 H219 0.960 . S
H217 C216 0.961 . S
H218 C216 0.961 . S
H219 C216 0.960 . S
C220 N221 1.342 . S
C220 C224 1.401 . S
C220 C225 1.499 . S
N221 Co204 1.989 . S
N221 C220 1.342 . S
N221 N222 1.388 . S
N222 Co205 1.993 . S
N222 N221 1.388 . S
N222 C223 1.346 . S
C223 N222 1.346 . S
C223 C224 1.396 . S
C223 C233 1.510 . S
C224 C220 1.401 . S
C224 C223 1.396 . S
C225 C220 1.499 . S
C225 H226 0.959 . S
C225 H227 0.960 . S
C225 H228 0.961 . S
H226 C225 0.959 . S
H227 C225 0.960 . S
H228 C225 0.961 . S
O229 Co204 1.967 . S
O229 C237 1.258 . S
O230 Co205 1.941 . S
O230 C237 1.266 . S
H231 C233 0.959 . S
H232 C233 0.961 . S
C233 C223 1.510 . S
C233 H231 0.959 . S
C233 H232 0.961 . S
C233 H234 0.960 . S
H234 C233 0.960 . S
H235 N215 0.862 . S
O236 Co204 1.920 . S
O236 C209 1.289 . S
C237 O229 1.258 . S
C237 O230 1.266 . S
Co238 O241 1.970 . S
Co238 N255 1.989 . S
Co238 O263 1.967 . S
Co238 O270 1.920 . S
Co239 O242 1.966 . S
Co239 N248 2.022 . S
Co239 N256 1.993 . S
Co239 O264 1.941 . S
C240 O241 1.258 . S
C240 O242 1.263 . S
O241 Co238 1.970 . S
O241 C240 1.258 . S
O242 Co239 1.966 . S
O242 C240 1.263 . S
C243 O244 1.235 . S
C243 O270 1.289 . S
O244 C243 1.235 . S
C245 C247 1.400 . S
C245 N248 1.351 . S
C245 C250 1.501 . S
C246 C247 1.387 . S
C246 N249 1.341 . S
C247 C245 1.400 . S
C247 C246 1.387 . S
N248 Co239 2.022 . S
N248 C245 1.351 . S
N248 N249 1.365 . S
N249 C246 1.341 . S
N249 N248 1.365 . S
N249 H269 0.862 . S
C250 C245 1.501 . S
C250 H251 0.961 . S
C250 H252 0.961 . S
C250 H253 0.960 . S
H251 C250 0.961 . S
H252 C250 0.961 . S
H253 C250 0.960 . S
C254 N255 1.342 . S
C254 C258 1.401 . S
C254 C259 1.499 . S
N255 Co238 1.989 . S
N255 C254 1.342 . S
N255 N256 1.388 . S
N256 Co239 1.993 . S
N256 N255 1.388 . S
N256 C257 1.346 . S
C257 N256 1.346 . S
C257 C258 1.396 . S
C257 C267 1.510 . S
C258 C254 1.401 . S
C258 C257 1.396 . S
C259 C254 1.499 . S
C259 H260 0.959 . S
C259 H261 0.960 . S
C259 H262 0.961 . S
H260 C259 0.959 . S
H261 C259 0.960 . S
H262 C259 0.961 . S
O263 Co238 1.967 . S
O263 C271 1.258 . S
O264 Co239 1.941 . S
O264 C271 1.266 . S
H265 C267 0.959 . S
H266 C267 0.961 . S
C267 C257 1.510 . S
C267 H265 0.959 . S
C267 H266 0.961 . S
C267 H268 0.960 . S
H268 C267 0.960 . S
H269 N249 0.862 . S
O270 Co238 1.920 . S
O270 C243 1.289 . S
C271 O263 1.258 . S
C271 O264 1.266 . S
H272 C290 0.951 . S
H273 C292 0.951 . S
H274 C294 0.950 . S
H275 C295 0.950 . S
H276 C297 0.950 . S
H277 C300 0.950 . S
H278 C301 0.950 . S
H279 C303 0.950 . S
H280 C304 0.950 . S
H281 C305 0.951 . S
H282 C307 0.951 . S
H283 C309 0.950 . S
H284 C310 0.950 . S
H285 C312 0.950 . S
H286 C315 0.950 . S
H287 C316 0.950 . S
H288 C318 0.950 . S
H289 C319 0.950 . S
C290 H272 0.951 . S
C290 C291 1.366 . S
C290 C292 1.388 . S
C291 C290 1.366 . S
C291 C295 1.385 . S
C292 H273 0.951 . S
C292 C290 1.388 . S
C292 C293 1.366 . S
C293 C292 1.366 . S
C293 C294 1.414 . S
C293 C296 1.499 . S
C294 H274 0.950 . S
C294 C293 1.414 . S
C294 C295 1.374 . S
C295 H275 0.950 . S
C295 C291 1.385 . S
C295 C294 1.374 . S
C296 C293 1.499 . S
C296 C297 1.373 . S
C296 C298 1.389 . S
C297 H276 0.950 . S
C297 C296 1.373 . S
C297 C313 1.377 . S
C298 C296 1.389 . S
C298 C299 1.524 . S
C298 C312 1.377 . S
C299 C298 1.524 . S
C299 C300 1.397 . S
C299 C304 1.363 1_455 S
C300 H277 0.950 . S
C300 C299 1.397 . S
C300 C301 1.334 . S
C301 H278 0.950 . S
C301 C300 1.334 . S
C301 C302 1.287 1_455 S
C302 C301 1.287 1_655 S
C302 C303 1.524 . S
C302 H321 0.913 . S
C303 H279 0.950 . S
C303 C302 1.524 . S
C303 C304 1.415 . S
C304 H280 0.950 . S
C304 C299 1.363 1_655 S
C304 C303 1.415 . S
C305 H281 0.951 . S
C305 C306 1.366 . S
C305 C307 1.388 . S
C306 C305 1.366 . S
C306 C310 1.385 . S
C307 H282 0.951 . S
C307 C305 1.388 . S
C307 C308 1.366 . S
C308 C307 1.366 . S
C308 C309 1.414 . S
C308 C311 1.499 . S
C309 H283 0.950 . S
C309 C308 1.414 . S
C309 C310 1.374 . S
C310 H284 0.950 . S
C310 C306 1.385 . S
C310 C309 1.374 . S
C311 C308 1.499 . S
C311 C312 1.373 . S
C311 C313 1.389 . S
C312 H285 0.950 . S
C312 C298 1.377 . S
C312 C311 1.373 . S
C313 C297 1.377 . S
C313 C311 1.389 . S
C313 C314 1.524 . S
C314 C313 1.524 . S
C314 C315 1.397 . S
C314 C319 1.363 . S
C315 H286 0.950 . S
C315 C314 1.397 . S
C315 C316 1.334 . S
C316 H287 0.950 . S
C316 C315 1.334 . S
C316 C317 1.287 . S
C317 C316 1.287 . S
C317 C318 1.524 . S
C317 H320 0.999 . S
C318 H288 0.950 . S
C318 C317 1.524 . S
C318 C319 1.415 . S
C319 H289 0.950 . S
C319 C314 1.363 . S
C319 C318 1.415 . S
H320 C317 0.999 . S
H321 C302 0.913 . S
H322 C340 0.951 . S
H323 C342 0.951 . S
H324 C344 0.950 . S
H325 C345 0.950 . S
H326 C347 0.950 . S
H327 C350 0.950 . S
H328 C351 0.950 . S
H329 C353 0.950 . S
H330 C354 0.950 . S
H331 C355 0.951 . S
H332 C357 0.951 . S
H333 C359 0.950 . S
H334 C360 0.950 . S
H335 C362 0.950 . S
H336 C365 0.950 . S
H337 C366 0.950 . S
H338 C368 0.950 . S
H339 C369 0.950 . S
C340 H322 0.951 . S
C340 C341 1.366 . S
C340 C342 1.388 . S
C341 C340 1.366 . S
C341 C345 1.385 . S
C342 H323 0.951 . S
C342 C340 1.388 . S
C342 C343 1.366 . S
C343 C342 1.366 . S
C343 C344 1.414 . S
C343 C346 1.499 . S
C344 H324 0.950 . S
C344 C343 1.414 . S
C344 C345 1.374 . S
C345 H325 0.950 . S
C345 C341 1.385 . S
C345 C344 1.374 . S
C346 C343 1.499 . S
C346 C347 1.373 . S
C346 C348 1.389 . S
C347 H326 0.950 . S
C347 C346 1.373 . S
C347 C363 1.377 . S
C348 C346 1.389 . S
C348 C349 1.524 . S
C348 C362 1.377 . S
C349 C348 1.524 . S
C349 C350 1.397 . S
C349 C354 1.363 . S
C350 H327 0.950 . S
C350 C349 1.397 . S
C350 C351 1.334 . S
C351 H328 0.950 . S
C351 C350 1.334 . S
C351 C352 1.287 . S
C352 C351 1.287 . S
C352 C353 1.524 . S
C352 H371 0.913 . S
C353 H329 0.950 . S
C353 C352 1.524 . S
C353 C354 1.415 . S
C354 H330 0.950 . S
C354 C349 1.363 . S
C354 C353 1.415 . S
C355 H331 0.951 . S
C355 C356 1.366 . S
C355 C357 1.388 . S
C356 C355 1.366 . S
C356 C360 1.385 . S
C357 H332 0.951 . S
C357 C355 1.388 . S
C357 C358 1.366 . S
C358 C357 1.366 . S
C358 C359 1.414 . S
C358 C361 1.499 . S
C359 H333 0.950 . S
C359 C358 1.414 . S
C359 C360 1.374 . S
C360 H334 0.950 . S
C360 C356 1.385 . S
C360 C359 1.374 . S
C361 C358 1.499 . S
C361 C362 1.373 . S
C361 C363 1.389 . S
C362 H335 0.950 . S
C362 C348 1.377 . S
C362 C361 1.373 . S
C363 C347 1.377 . S
C363 C361 1.389 . S
C363 C364 1.524 . S
C364 C363 1.524 . S
C364 C365 1.397 . S
C364 C369 1.363 . S
C365 H336 0.950 . S
C365 C364 1.397 . S
C365 C366 1.334 . S
C366 H337 0.950 . S
C366 C365 1.334 . S
C366 C367 1.287 . S
C367 C366 1.287 . S
C367 C368 1.524 . S
C367 H370 0.999 . S
C368 H338 0.950 . S
C368 C367 1.524 . S
C368 C369 1.415 . S
C369 H339 0.950 . S
C369 C364 1.363 . S
C369 C368 1.415 . S
H370 C367 0.999 . S
H371 C352 0.913 . S
H372 C390 0.951 . S
H373 C392 0.951 . S
H374 C394 0.950 . S
H375 C395 0.950 . S
H376 C397 0.950 . S
H377 C400 0.950 . S
H378 C401 0.950 . S
H379 C403 0.950 . S
H380 C404 0.950 . S
H381 C405 0.951 . S
H382 C407 0.951 . S
H383 C409 0.950 . S
H384 C410 0.950 . S
H385 C412 0.950 . S
H386 C415 0.950 . S
H387 C416 0.950 . S
H388 C418 0.950 . S
H389 C419 0.950 . S
C390 H372 0.951 . S
C390 C391 1.366 . S
C390 C392 1.388 . S
C391 C390 1.366 . S
C391 C395 1.385 . S
C392 H373 0.951 . S
C392 C390 1.388 . S
C392 C393 1.366 . S
C393 C392 1.366 . S
C393 C394 1.414 . S
C393 C396 1.499 . S
C394 H374 0.950 . S
C394 C393 1.414 . S
C394 C395 1.374 . S
C395 H375 0.950 . S
C395 C391 1.385 . S
C395 C394 1.374 . S
C396 C393 1.499 . S
C396 C397 1.373 . S
C396 C398 1.389 . S
C397 H376 0.950 . S
C397 C396 1.373 . S
C397 C413 1.377 . S
C398 C396 1.389 . S
C398 C399 1.524 . S
C398 C412 1.377 . S
C399 C398 1.524 . S
C399 C400 1.397 . S
C399 C404 1.363 . S
C400 H377 0.950 . S
C400 C399 1.397 . S
C400 C401 1.334 . S
C401 H378 0.950 . S
C401 C400 1.334 . S
C401 C402 1.287 . S
C402 C401 1.287 . S
C402 C403 1.524 . S
C402 H421 0.913 . S
C403 H379 0.950 . S
C403 C402 1.524 . S
C403 C404 1.415 . S
C404 H380 0.950 . S
C404 C399 1.363 . S
C404 C403 1.415 . S
C405 H381 0.951 . S
C405 C406 1.366 . S
C405 C407 1.388 . S
C406 C405 1.366 . S
C406 C410 1.385 . S
C407 H382 0.951 . S
C407 C405 1.388 . S
C407 C408 1.366 . S
C408 C407 1.366 . S
C408 C409 1.414 . S
C408 C411 1.499 . S
C409 H383 0.950 . S
C409 C408 1.414 . S
C409 C410 1.374 . S
C410 H384 0.950 . S
C410 C406 1.385 . S
C410 C409 1.374 . S
C411 C408 1.499 . S
C411 C412 1.373 . S
C411 C413 1.389 . S
C412 H385 0.950 . S
C412 C398 1.377 . S
C412 C411 1.373 . S
C413 C397 1.377 . S
C413 C411 1.389 . S
C413 C414 1.524 . S
C414 C413 1.524 . S
C414 C415 1.397 . S
C414 C419 1.363 . S
C415 H386 0.950 . S
C415 C414 1.397 . S
C415 C416 1.334 . S
C416 H387 0.950 . S
C416 C415 1.334 . S
C416 C417 1.287 . S
C417 C416 1.287 . S
C417 C418 1.524 . S
C417 H420 0.999 . S
C418 H388 0.950 . S
C418 C417 1.524 . S
C418 C419 1.415 . S
C419 H389 0.950 . S
C419 C414 1.363 . S
C419 C418 1.415 . S
H420 C417 0.999 . S
H421 C402 0.913 . S
H422 C440 0.951 . S
H423 C442 0.951 . S
H424 C444 0.950 . S
H425 C445 0.950 . S
H426 C447 0.950 . S
H427 C450 0.950 . S
H428 C451 0.950 . S
H429 C453 0.950 . S
H430 C454 0.950 . S
H431 C455 0.951 . S
H432 C457 0.951 . S
H433 C459 0.950 . S
H434 C460 0.950 . S
H435 C462 0.950 . S
H436 C465 0.950 . S
H437 C466 0.950 . S
H438 C468 0.950 1_565 S
H439 C469 0.950 . S
C440 H422 0.951 . S
C440 C441 1.366 . S
C440 C442 1.388 . S
C441 C440 1.366 . S
C441 C445 1.385 . S
C442 H423 0.951 . S
C442 C440 1.388 . S
C442 C443 1.366 . S
C443 C442 1.366 . S
C443 C444 1.414 . S
C443 C446 1.499 . S
C444 H424 0.950 . S
C444 C443 1.414 . S
C444 C445 1.374 . S
C445 H425 0.950 . S
C445 C441 1.385 . S
C445 C444 1.374 . S
C446 C443 1.499 . S
C446 C447 1.373 . S
C446 C448 1.389 . S
C447 H426 0.950 . S
C447 C446 1.373 . S
C447 C463 1.377 . S
C448 C446 1.389 . S
C448 C449 1.524 . S
C448 C462 1.377 . S
C449 C448 1.524 . S
C449 C450 1.397 . S
C449 C454 1.363 . S
C450 H427 0.950 . S
C450 C449 1.397 . S
C450 C451 1.334 . S
C451 H428 0.950 . S
C451 C450 1.334 . S
C451 C452 1.287 . S
C452 C451 1.287 . S
C452 C453 1.524 . S
C452 H471 0.913 . S
C453 H429 0.950 . S
C453 C452 1.524 . S
C453 C454 1.415 . S
C454 H430 0.950 . S
C454 C449 1.363 . S
C454 C453 1.415 . S
C455 H431 0.951 . S
C455 C456 1.366 . S
C455 C457 1.388 . S
C456 C455 1.366 . S
C456 C460 1.385 . S
C457 H432 0.951 . S
C457 C455 1.388 . S
C457 C458 1.366 . S
C458 C457 1.366 . S
C458 C459 1.414 . S
C458 C461 1.499 . S
C459 H433 0.950 . S
C459 C458 1.414 . S
C459 C460 1.374 . S
C460 H434 0.950 . S
C460 C456 1.385 . S
C460 C459 1.374 . S
C461 C458 1.499 . S
C461 C462 1.373 . S
C461 C463 1.389 . S
C462 H435 0.950 . S
C462 C448 1.377 . S
C462 C461 1.373 . S
C463 C447 1.377 . S
C463 C461 1.389 . S
C463 C464 1.524 . S
C464 C463 1.524 . S
C464 C465 1.397 . S
C464 C469 1.363 . S
C465 H436 0.950 . S
C465 C464 1.397 . S
C465 C466 1.334 . S
C466 H437 0.950 . S
C466 C465 1.334 . S
C466 C467 1.287 . S
C467 C466 1.287 . S
C467 C468 1.524 . S
C467 H470 0.999 1_545 S
C468 H438 0.950 1_545 S
C468 C467 1.524 . S
C468 C469 1.415 . S
C469 H439 0.950 . S
C469 C464 1.363 . S
C469 C468 1.415 . S
H470 C467 0.999 1_565 S
H471 C452 0.913 . S
H472 C490 0.951 . S
H473 C492 0.951 . S
H474 C494 0.950 . S
H475 C495 0.950 . S
H476 C497 0.950 . S
H477 C500 0.950 . S
H478 C501 0.950 . S
H479 C503 0.950 . S
H480 C504 0.950 1_556 S
H481 C505 0.951 . S
H482 C507 0.951 . S
H483 C509 0.950 . S
H484 C510 0.950 . S
H485 C512 0.950 . S
H486 C515 0.950 . S
H487 C516 0.950 . S
H488 C518 0.950 . S
H489 C519 0.950 1_554 S
C490 H472 0.951 . S
C490 C491 1.366 . S
C490 C492 1.388 . S
C491 C490 1.366 . S
C491 C495 1.385 . S
C492 H473 0.951 . S
C492 C490 1.388 . S
C492 C493 1.366 . S
C493 C492 1.366 . S
C493 C494 1.414 . S
C493 C496 1.499 . S
C494 H474 0.950 . S
C494 C493 1.414 . S
C494 C495 1.374 . S
C495 H475 0.950 . S
C495 C491 1.385 . S
C495 C494 1.374 . S
C496 C493 1.499 . S
C496 C497 1.373 . S
C496 C498 1.389 . S
C497 H476 0.950 . S
C497 C496 1.373 . S
C497 C513 1.377 1_554 S
C498 C496 1.389 . S
C498 C499 1.524 . S
C498 C512 1.377 1_554 S
C499 C498 1.524 . S
C499 C500 1.397 . S
C499 C504 1.363 . S
C500 H477 0.950 . S
C500 C499 1.397 . S
C500 C501 1.334 . S
C501 H478 0.950 . S
C501 C500 1.334 . S
C501 C502 1.287 1_455 S
C502 C501 1.287 1_655 S
C502 C503 1.524 . S
C502 H521 0.913 . S
C503 H479 0.950 . S
C503 C502 1.524 . S
C503 C504 1.415 1_655 S
C504 H480 0.950 1_554 S
C504 C499 1.363 . S
C504 C503 1.415 1_455 S
C505 H481 0.951 . S
C505 C506 1.366 . S
C505 C507 1.388 . S
C506 C505 1.366 . S
C506 C510 1.385 . S
C507 H482 0.951 . S
C507 C505 1.388 . S
C507 C508 1.366 . S
C508 C507 1.366 . S
C508 C509 1.414 . S
C508 C511 1.499 . S
C509 H483 0.950 . S
C509 C508 1.414 . S
C509 C510 1.374 . S
C510 H484 0.950 . S
C510 C506 1.385 . S
C510 C509 1.374 . S
C511 C508 1.499 . S
C511 C512 1.373 . S
C511 C513 1.389 . S
C512 H485 0.950 . S
C512 C498 1.377 1_556 S
C512 C511 1.373 . S
C513 C497 1.377 1_556 S
C513 C511 1.389 . S
C513 C514 1.524 . S
C514 C513 1.524 . S
C514 C515 1.397 . S
C514 C519 1.363 . S
C515 H486 0.950 . S
C515 C514 1.397 . S
C515 C516 1.334 . S
C516 H487 0.950 . S
C516 C515 1.334 . S
C516 C517 1.287 . S
C517 C516 1.287 . S
C517 C518 1.524 . S
C517 H520 0.999 . S
C518 H488 0.950 . S
C518 C517 1.524 . S
C518 C519 1.415 . S
C519 H489 0.950 1_556 S
C519 C514 1.363 . S
C519 C518 1.415 . S
H520 C517 0.999 . S
H521 C502 0.913 . S
H522 C540 0.951 . S
H523 C542 0.951 . S
H524 C544 0.950 . S
H525 C545 0.950 . S
H526 C547 0.950 . S
H527 C550 0.950 . S
H528 C551 0.950 . S
H529 C553 0.950 . S
H530 C554 0.950 . S
H531 C555 0.951 . S
H532 C557 0.951 1_455 S
H533 C559 0.950 . S
H534 C560 0.950 . S
H535 C562 0.950 . S
H536 C565 0.950 . S
H537 C566 0.950 . S
H538 C568 0.950 . S
H539 C569 0.950 . S
C540 H522 0.951 . S
C540 C541 1.366 . S
C540 C542 1.388 . S
C541 C540 1.366 . S
C541 C545 1.385 . S
C542 H523 0.951 . S
C542 C540 1.388 . S
C542 C543 1.366 . S
C543 C542 1.366 . S
C543 C544 1.414 . S
C543 C546 1.499 . S
C544 H524 0.950 . S
C544 C543 1.414 . S
C544 C545 1.374 . S
C545 H525 0.950 . S
C545 C541 1.385 . S
C545 C544 1.374 . S
C546 C543 1.499 . S
C546 C547 1.373 . S
C546 C548 1.389 . S
C547 H526 0.950 . S
C547 C546 1.373 . S
C547 C563 1.377 . S
C548 C546 1.389 . S
C548 C549 1.524 . S
C548 C562 1.377 . S
C549 C548 1.524 . S
C549 C550 1.397 . S
C549 C554 1.363 . S
C550 H527 0.950 . S
C550 C549 1.397 . S
C550 C551 1.334 . S
C551 H528 0.950 . S
C551 C550 1.334 . S
C551 C552 1.287 . S
C552 C551 1.287 . S
C552 C553 1.524 . S
C552 H571 0.913 . S
C553 H529 0.950 . S
C553 C552 1.524 . S
C553 C554 1.415 . S
C554 H530 0.950 . S
C554 C549 1.363 . S
C554 C553 1.415 . S
C555 H531 0.951 . S
C555 C556 1.366 . S
C555 C557 1.388 1_455 S
C556 C555 1.366 . S
C556 C560 1.385 1_455 S
C557 H532 0.951 1_655 S
C557 C555 1.388 1_655 S
C557 C558 1.366 . S
C558 C557 1.366 . S
C558 C559 1.414 . S
C558 C561 1.499 . S
C559 H533 0.950 . S
C559 C558 1.414 . S
C559 C560 1.374 . S
C560 H534 0.950 . S
C560 C556 1.385 1_655 S
C560 C559 1.374 . S
C561 C558 1.499 . S
C561 C562 1.373 . S
C561 C563 1.389 . S
C562 H535 0.950 . S
C562 C548 1.377 . S
C562 C561 1.373 . S
C563 C547 1.377 . S
C563 C561 1.389 . S
C563 C564 1.524 . S
C564 C563 1.524 . S
C564 C565 1.397 . S
C564 C569 1.363 . S
C565 H536 0.950 . S
C565 C564 1.397 . S
C565 C566 1.334 . S
C566 H537 0.950 . S
C566 C565 1.334 . S
C566 C567 1.287 1_655 S
C567 C566 1.287 1_455 S
C567 C568 1.524 . S
C567 H570 0.999 . S
C568 H538 0.950 . S
C568 C567 1.524 . S
C568 C569 1.415 1_455 S
C569 H539 0.950 . S
C569 C564 1.363 . S
C569 C568 1.415 1_655 S
H570 C567 0.999 . S
H571 C552 0.913 . S
H572 C590 0.951 . S
H573 C592 0.951 . S
H574 C594 0.950 . S
H575 C595 0.950 . S
H576 C597 0.950 . S
H577 C600 0.950 . S
H578 C601 0.950 . S
H579 C603 0.950 . S
H580 C604 0.950 . S
H581 C605 0.951 . S
H582 C607 0.951 . S
H583 C609 0.950 . S
H584 C610 0.950 . S
H585 C612 0.950 . S
H586 C615 0.950 . S
H587 C616 0.950 . S
H588 C618 0.950 . S
H589 C619 0.950 . S
C590 H572 0.951 . S
C590 C591 1.366 . S
C590 C592 1.388 . S
C591 C590 1.366 . S
C591 C595 1.385 . S
C592 H573 0.951 . S
C592 C590 1.388 . S
C592 C593 1.366 . S
C593 C592 1.366 . S
C593 C594 1.414 . S
C593 C596 1.499 . S
C594 H574 0.950 . S
C594 C593 1.414 . S
C594 C595 1.374 . S
C595 H575 0.950 . S
C595 C591 1.385 . S
C595 C594 1.374 . S
C596 C593 1.499 . S
C596 C597 1.373 . S
C596 C598 1.389 . S
C597 H576 0.950 . S
C597 C596 1.373 . S
C597 C613 1.377 . S
C598 C596 1.389 . S
C598 C599 1.524 . S
C598 C612 1.377 . S
C599 C598 1.524 . S
C599 C600 1.397 . S
C599 C604 1.363 . S
C600 H577 0.950 . S
C600 C599 1.397 . S
C600 C601 1.334 . S
C601 H578 0.950 . S
C601 C600 1.334 . S
C601 C602 1.287 . S
C602 C601 1.287 . S
C602 C603 1.524 . S
C602 H621 0.913 . S
C603 H579 0.950 . S
C603 C602 1.524 . S
C603 C604 1.415 . S
C604 H580 0.950 . S
C604 C599 1.363 . S
C604 C603 1.415 . S
C605 H581 0.951 . S
C605 C606 1.366 . S
C605 C607 1.388 . S
C606 C605 1.366 . S
C606 C610 1.385 . S
C607 H582 0.951 . S
C607 C605 1.388 . S
C607 C608 1.366 . S
C608 C607 1.366 . S
C608 C609 1.414 . S
C608 C611 1.499 . S
C609 H583 0.950 . S
C609 C608 1.414 . S
C609 C610 1.374 . S
C610 H584 0.950 . S
C610 C606 1.385 . S
C610 C609 1.374 . S
C611 C608 1.499 . S
C611 C612 1.373 . S
C611 C613 1.389 . S
C612 H585 0.950 . S
C612 C598 1.377 . S
C612 C611 1.373 . S
C613 C597 1.377 . S
C613 C611 1.389 . S
C613 C614 1.524 . S
C614 C613 1.524 . S
C614 C615 1.397 . S
C614 C619 1.363 . S
C615 H586 0.950 . S
C615 C614 1.397 . S
C615 C616 1.334 . S
C616 H587 0.950 . S
C616 C615 1.334 . S
C616 C617 1.287 . S
C617 C616 1.287 . S
C617 C618 1.524 . S
C617 H620 0.999 . S
C618 H588 0.950 . S
C618 C617 1.524 . S
C618 C619 1.415 . S
C619 H589 0.950 . S
C619 C614 1.363 . S
C619 C618 1.415 . S
H620 C617 0.999 . S
H621 C602 0.913 . S
H622 C640 0.951 . S
H623 C642 0.951 1_455 S
H624 C644 0.950 . S
H625 C645 0.950 . S
H626 C647 0.950 . S
H627 C650 0.950 . S
H628 C651 0.950 . S
H629 C653 0.950 . S
H630 C654 0.950 . S
H631 C655 0.951 . S
H632 C657 0.951 . S
H633 C659 0.950 . S
H634 C660 0.950 . S
H635 C662 0.950 . S
H636 C665 0.950 . S
H637 C666 0.950 . S
H638 C668 0.950 . S
H639 C669 0.950 . S
C640 H622 0.951 . S
C640 C641 1.366 . S
C640 C642 1.388 1_455 S
C641 C640 1.366 . S
C641 C645 1.385 1_455 S
C642 H623 0.951 1_655 S
C642 C640 1.388 1_655 S
C642 C643 1.366 . S
C643 C642 1.366 . S
C643 C644 1.414 . S
C643 C646 1.499 . S
C644 H624 0.950 . S
C644 C643 1.414 . S
C644 C645 1.374 . S
C645 H625 0.950 . S
C645 C641 1.385 1_655 S
C645 C644 1.374 . S
C646 C643 1.499 . S
C646 C647 1.373 . S
C646 C648 1.389 . S
C647 H626 0.950 . S
C647 C646 1.373 . S
C647 C663 1.377 . S
C648 C646 1.389 . S
C648 C649 1.524 . S
C648 C662 1.377 . S
C649 C648 1.524 . S
C649 C650 1.397 . S
C649 C654 1.363 . S
C650 H627 0.950 . S
C650 C649 1.397 . S
C650 C651 1.334 . S
C651 H628 0.950 . S
C651 C650 1.334 . S
C651 C652 1.287 . S
C652 C651 1.287 . S
C652 C653 1.524 . S
C652 H671 0.913 . S
C653 H629 0.950 . S
C653 C652 1.524 . S
C653 C654 1.415 . S
C654 H630 0.950 . S
C654 C649 1.363 . S
C654 C653 1.415 . S
C655 H631 0.951 . S
C655 C656 1.366 . S
C655 C657 1.388 . S
C656 C655 1.366 . S
C656 C660 1.385 . S
C657 H632 0.951 . S
C657 C655 1.388 . S
C657 C658 1.366 . S
C658 C657 1.366 . S
C658 C659 1.414 . S
C658 C661 1.499 . S
C659 H633 0.950 . S
C659 C658 1.414 . S
C659 C660 1.374 . S
C660 H634 0.950 . S
C660 C656 1.385 . S
C660 C659 1.374 . S
C661 C658 1.499 . S
C661 C662 1.373 . S
C661 C663 1.389 . S
C662 H635 0.950 . S
C662 C648 1.377 . S
C662 C661 1.373 . S
C663 C647 1.377 . S
C663 C661 1.389 . S
C663 C664 1.524 . S
C664 C663 1.524 . S
C664 C665 1.397 . S
C664 C669 1.363 . S
C665 H636 0.950 . S
C665 C664 1.397 . S
C665 C666 1.334 . S
C666 H637 0.950 . S
C666 C665 1.334 . S
C666 C667 1.287 . S
C667 C666 1.287 . S
C667 C668 1.524 . S
C667 H670 0.999 1_545 S
C668 H638 0.950 . S
C668 C667 1.524 . S
C668 C669 1.415 . S
C669 H639 0.950 . S
C669 C664 1.363 . S
C669 C668 1.415 . S
H670 C667 0.999 1_565 S
H671 C652 0.913 . S
H672 C690 0.951 . S
H673 C692 0.951 . S
H674 C694 0.950 . S
H675 C695 0.950 . S
H676 C697 0.950 . S
H677 C700 0.950 . S
H678 C701 0.950 . S
H679 C703 0.950 . S
H680 C704 0.950 . S
H681 C705 0.951 . S
H682 C707 0.951 . S
H683 C709 0.950 . S
H684 C710 0.950 . S
H685 C712 0.950 . S
H686 C715 0.950 . S
H687 C716 0.950 . S
H688 C718 0.950 . S
H689 C719 0.950 . S
C690 H672 0.951 . S
C690 C691 1.366 . S
C690 C692 1.388 . S
C691 C690 1.366 . S
C691 C695 1.385 . S
C692 H673 0.951 . S
C692 C690 1.388 . S
C692 C693 1.366 . S
C693 C692 1.366 . S
C693 C694 1.414 . S
C693 C696 1.499 . S
C694 H674 0.950 . S
C694 C693 1.414 . S
C694 C695 1.374 . S
C695 H675 0.950 . S
C695 C691 1.385 . S
C695 C694 1.374 . S
C696 C693 1.499 . S
C696 C697 1.373 . S
C696 C698 1.389 . S
C697 H676 0.950 . S
C697 C696 1.373 . S
C697 C713 1.377 . S
C698 C696 1.389 . S
C698 C699 1.524 . S
C698 C712 1.377 . S
C699 C698 1.524 . S
C699 C700 1.397 . S
C699 C704 1.363 . S
C700 H677 0.950 . S
C700 C699 1.397 . S
C700 C701 1.334 . S
C701 H678 0.950 . S
C701 C700 1.334 . S
C701 C702 1.287 . S
C702 C701 1.287 . S
C702 C703 1.524 . S
C702 H721 0.913 . S
C703 H679 0.950 . S
C703 C702 1.524 . S
C703 C704 1.415 . S
C704 H680 0.950 . S
C704 C699 1.363 . S
C704 C703 1.415 . S
C705 H681 0.951 . S
C705 C706 1.366 . S
C705 C707 1.388 . S
C706 C705 1.366 . S
C706 C710 1.385 . S
C707 H682 0.951 . S
C707 C705 1.388 . S
C707 C708 1.366 . S
C708 C707 1.366 . S
C708 C709 1.414 . S
C708 C711 1.499 . S
C709 H683 0.950 . S
C709 C708 1.414 . S
C709 C710 1.374 . S
C710 H684 0.950 . S
C710 C706 1.385 . S
C710 C709 1.374 . S
C711 C708 1.499 . S
C711 C712 1.373 . S
C711 C713 1.389 . S
C712 H685 0.950 . S
C712 C698 1.377 . S
C712 C711 1.373 . S
C713 C697 1.377 . S
C713 C711 1.389 . S
C713 C714 1.524 . S
C714 C713 1.524 . S
C714 C715 1.397 . S
C714 C719 1.363 . S
C715 H686 0.950 . S
C715 C714 1.397 . S
C715 C716 1.334 . S
C716 H687 0.950 . S
C716 C715 1.334 . S
C716 C717 1.287 . S
C717 C716 1.287 . S
C717 C718 1.524 . S
C717 H720 0.999 . S
C718 H688 0.950 . S
C718 C717 1.524 . S
C718 C719 1.415 . S
C719 H689 0.950 . S
C719 C714 1.363 . S
C719 C718 1.415 . S
H720 C717 0.999 . S
H721 C702 0.913 . S
H722 C740 0.951 . S
H723 C742 0.951 . S
H724 C744 0.950 . S
H725 C745 0.950 . S
H726 C747 0.950 . S
H727 C750 0.950 . S
H728 C751 0.950 . S
H729 C753 0.950 . S
H730 C754 0.950 . S
H731 C755 0.951 . S
H732 C757 0.951 . S
H733 C759 0.950 . S
H734 C760 0.950 . S
H735 C762 0.950 . S
H736 C765 0.950 . S
H737 C766 0.950 . S
H738 C768 0.950 . S
H739 C769 0.950 . S
C740 H722 0.951 . S
C740 C741 1.366 . S
C740 C742 1.388 . S
C741 C740 1.366 . S
C741 C745 1.385 . S
C742 H723 0.951 . S
C742 C740 1.388 . S
C742 C743 1.366 . S
C743 C742 1.366 . S
C743 C744 1.414 . S
C743 C746 1.499 . S
C744 H724 0.950 . S
C744 C743 1.414 . S
C744 C745 1.374 . S
C745 H725 0.950 . S
C745 C741 1.385 . S
C745 C744 1.374 . S
C746 C743 1.499 . S
C746 C747 1.373 . S
C746 C748 1.389 . S
C747 H726 0.950 . S
C747 C746 1.373 . S
C747 C763 1.377 . S
C748 C746 1.389 . S
C748 C749 1.524 . S
C748 C762 1.377 . S
C749 C748 1.524 . S
C749 C750 1.397 . S
C749 C754 1.363 . S
C750 H727 0.950 . S
C750 C749 1.397 . S
C750 C751 1.334 . S
C751 H728 0.950 . S
C751 C750 1.334 . S
C751 C752 1.287 . S
C752 C751 1.287 . S
C752 C753 1.524 . S
C752 H771 0.913 . S
C753 H729 0.950 . S
C753 C752 1.524 . S
C753 C754 1.415 . S
C754 H730 0.950 . S
C754 C749 1.363 . S
C754 C753 1.415 . S
C755 H731 0.951 . S
C755 C756 1.366 . S
C755 C757 1.388 . S
C756 C755 1.366 . S
C756 C760 1.385 . S
C757 H732 0.951 . S
C757 C755 1.388 . S
C757 C758 1.366 . S
C758 C757 1.366 . S
C758 C759 1.414 . S
C758 C761 1.499 . S
C759 H733 0.950 . S
C759 C758 1.414 . S
C759 C760 1.374 . S
C760 H734 0.950 . S
C760 C756 1.385 . S
C760 C759 1.374 . S
C761 C758 1.499 . S
C761 C762 1.373 . S
C761 C763 1.389 . S
C762 H735 0.950 . S
C762 C748 1.377 . S
C762 C761 1.373 . S
C763 C747 1.377 . S
C763 C761 1.389 . S
C763 C764 1.524 . S
C764 C763 1.524 . S
C764 C765 1.397 . S
C764 C769 1.363 . S
C765 H736 0.950 . S
C765 C764 1.397 . S
C765 C766 1.334 . S
C766 H737 0.950 . S
C766 C765 1.334 . S
C766 C767 1.287 . S
C767 C766 1.287 . S
C767 C768 1.524 . S
C767 H770 0.999 . S
C768 H738 0.950 . S
C768 C767 1.524 . S
C768 C769 1.415 . S
C769 H739 0.950 . S
C769 C764 1.363 . S
C769 C768 1.415 . S
H770 C767 0.999 . S
H771 C752 0.913 . S
H772 C790 0.951 . S
H773 C792 0.951 . S
H774 C794 0.950 . S
H775 C795 0.950 . S
H776 C797 0.950 1_565 S
H777 C800 0.950 1_545 S
H778 C801 0.950 . S
H779 C803 0.950 . S
H780 C804 0.950 . S
H781 C805 0.951 . S
H782 C807 0.951 . S
H783 C809 0.950 . S
H784 C810 0.950 . S
H785 C812 0.950 . S
H786 C815 0.950 . S
H787 C816 0.950 . S
H788 C818 0.950 . S
H789 C819 0.950 . S
C790 H772 0.951 . S
C790 C791 1.366 . S
C790 C792 1.388 . S
C791 C790 1.366 . S
C791 C795 1.385 . S
C792 H773 0.951 . S
C792 C790 1.388 . S
C792 C793 1.366 . S
C793 C792 1.366 . S
C793 C794 1.414 . S
C793 C796 1.499 . S
C794 H774 0.950 . S
C794 C793 1.414 . S
C794 C795 1.374 . S
C795 H775 0.950 . S
C795 C791 1.385 . S
C795 C794 1.374 . S
C796 C793 1.499 . S
C796 C797 1.373 1_565 S
C796 C798 1.389 . S
C797 H776 0.950 1_545 S
C797 C796 1.373 1_545 S
C797 C813 1.377 . S
C798 C796 1.389 . S
C798 C799 1.524 . S
C798 C812 1.377 1_565 S
C799 C798 1.524 . S
C799 C800 1.397 . S
C799 C804 1.363 . S
C800 H777 0.950 1_565 S
C800 C799 1.397 . S
C800 C801 1.334 . S
C801 H778 0.950 . S
C801 C800 1.334 . S
C801 C802 1.287 . S
C802 C801 1.287 . S
C802 C803 1.524 . S
C802 H821 0.913 . S
C803 H779 0.950 . S
C803 C802 1.524 . S
C803 C804 1.415 . S
C804 H780 0.950 . S
C804 C799 1.363 . S
C804 C803 1.415 . S
C805 H781 0.951 . S
C805 C806 1.366 . S
C805 C807 1.388 . S
C806 C805 1.366 . S
C806 C810 1.385 . S
C807 H782 0.951 . S
C807 C805 1.388 . S
C807 C808 1.366 . S
C808 C807 1.366 . S
C808 C809 1.414 . S
C808 C811 1.499 . S
C809 H783 0.950 . S
C809 C808 1.414 . S
C809 C810 1.374 . S
C810 H784 0.950 . S
C810 C806 1.385 . S
C810 C809 1.374 . S
C811 C808 1.499 . S
C811 C812 1.373 . S
C811 C813 1.389 . S
C812 H785 0.950 . S
C812 C798 1.377 1_545 S
C812 C811 1.373 . S
C813 C797 1.377 . S
C813 C811 1.389 . S
C813 C814 1.524 . S
C814 C813 1.524 . S
C814 C815 1.397 . S
C814 C819 1.363 . S
C815 H786 0.950 . S
C815 C814 1.397 . S
C815 C816 1.334 . S
C816 H787 0.950 . S
C816 C815 1.334 . S
C816 C817 1.287 . S
C817 C816 1.287 . S
C817 C818 1.524 . S
C817 H820 0.999 . S
C818 H788 0.950 . S
C818 C817 1.524 . S
C818 C819 1.415 . S
C819 H789 0.950 . S
C819 C814 1.363 . S
C819 C818 1.415 . S
H820 C817 0.999 . S
H821 C802 0.913 . S
H822 C840 0.951 . S
H823 C842 0.951 . S
H824 C844 0.950 . S
H825 C845 0.950 . S
H826 C847 0.962 . S
H827 C850 0.950 . S
H828 C851 0.950 . S
H829 C853 0.950 . S
H830 C854 0.950 . S
H831 C855 0.951 . S
H832 C857 0.951 . S
H833 C859 0.950 . S
H834 C860 0.950 . S
H835 C862 0.957 . S
H836 C865 0.950 . S
H837 C866 0.950 . S
H838 C868 0.950 . S
H839 C869 0.950 . S
C840 H822 0.951 . S
C840 C841 1.366 . S
C840 C842 1.388 . S
C841 C840 1.366 . S
C841 C845 1.385 . S
C842 H823 0.951 . S
C842 C840 1.388 . S
C842 C843 1.366 . S
C843 C842 1.366 . S
C843 C844 1.414 . S
C843 C846 1.499 . S
C844 H824 0.950 . S
C844 C843 1.414 . S
C844 C845 1.374 . S
C845 H825 0.950 . S
C845 C841 1.385 . S
C845 C844 1.374 . S
C846 C843 1.499 . S
C846 C847 1.283 1_554 S
C846 C848 1.389 1_565 S
C847 H826 0.962 . S
C847 C846 1.283 1_556 S
C847 C863 1.463 . S
C848 C846 1.389 1_545 S
C848 C849 1.524 . S
C848 C862 1.435 . S
C849 C848 1.524 . S
C849 C850 1.397 . S
C849 C854 1.363 . S
C850 H827 0.950 . S
C850 C849 1.397 . S
C850 C851 1.334 . S
C851 H828 0.950 . S
C851 C850 1.334 . S
C851 C852 1.287 . S
C852 C851 1.287 . S
C852 C853 1.524 . S
C852 H871 0.913 . S
C853 H829 0.950 . S
C853 C852 1.524 . S
C853 C854 1.415 . S
C854 H830 0.950 . S
C854 C849 1.363 . S
C854 C853 1.415 . S
C855 H831 0.951 . S
C855 C856 1.366 . S
C855 C857 1.388 . S
C856 C855 1.366 . S
C856 C860 1.385 . S
C857 H832 0.951 . S
C857 C855 1.388 . S
C857 C858 1.366 . S
C858 C857 1.366 . S
C858 C859 1.414 . S
C858 C861 1.499 . S
C859 H833 0.950 . S
C859 C858 1.414 . S
C859 C860 1.374 . S
C860 H834 0.950 . S
C860 C856 1.385 . S
C860 C859 1.374 . S
C861 C858 1.499 . S
C861 C862 1.312 1_556 S
C861 C863 1.389 1_545 S
C862 H835 0.957 . S
C862 C848 1.435 . S
C862 C861 1.312 1_554 S
C863 C847 1.463 . S
C863 C861 1.389 1_565 S
C863 C864 1.524 . S
C864 C863 1.524 . S
C864 C865 1.397 . S
C864 C869 1.363 . S
C865 H836 0.950 . S
C865 C864 1.397 . S
C865 C866 1.334 . S
C866 H837 0.950 . S
C866 C865 1.334 . S
C866 C867 1.287 . S
C867 C866 1.287 . S
C867 C868 1.524 . S
C867 H870 0.999 . S
C868 H838 0.950 . S
C868 C867 1.524 . S
C868 C869 1.415 . S
C869 H839 0.950 . S
C869 C864 1.363 . S
C869 C868 1.415 . S
H870 C867 0.999 . S
H871 C852 0.913 . S
H872 C890 0.951 . S
H873 C892 0.951 . S
H874 C894 0.950 . S
H875 C895 0.950 . S
H876 C897 0.950 . S
H877 C900 0.950 . S
H878 C901 0.950 1_545 S
H879 C903 0.959 . S
H880 C904 0.950 . S
H881 C905 0.951 . S
H882 C907 0.951 . S
H883 C909 0.950 . S
H884 C910 0.950 . S
H885 C912 0.950 . S
H886 C915 0.950 . S
H887 C916 0.950 . S
H888 C918 0.950 . S
H889 C919 0.950 . S
C890 H872 0.951 . S
C890 C891 1.366 . S
C890 C892 1.388 . S
C891 C890 1.366 . S
C891 C895 1.385 . S
C892 H873 0.951 . S
C892 C890 1.388 . S
C892 C893 1.366 . S
C893 C892 1.366 . S
C893 C894 1.414 . S
C893 C896 1.499 . S
C894 H874 0.950 . S
C894 C893 1.414 . S
C894 C895 1.374 . S
C895 H875 0.950 . S
C895 C891 1.385 . S
C895 C894 1.374 . S
C896 C893 1.499 . S
C896 C897 1.373 . S
C896 C898 1.389 . S
C897 H876 0.950 . S
C897 C896 1.373 . S
C897 C913 1.377 . S
C898 C896 1.389 . S
C898 C899 1.524 . S
C898 C912 1.377 . S
C899 C898 1.524 . S
C899 C900 1.397 . S
C899 C904 1.363 . S
C900 H877 0.950 . S
C900 C899 1.397 . S
C900 C901 1.334 . S
C901 H878 0.950 1_565 S
C901 C900 1.334 . S
C901 C902 1.287 1_565 S
C902 C901 1.287 1_545 S
C902 C903 1.528 . S
C902 H921 0.913 . S
C903 H879 0.959 . S
C903 C902 1.528 . S
C903 C904 1.400 1_545 S
C904 H880 0.950 . S
C904 C899 1.363 . S
C904 C903 1.400 1_565 S
C905 H881 0.951 . S
C905 C906 1.366 . S
C905 C907 1.388 . S
C906 C905 1.366 . S
C906 C910 1.385 . S
C907 H882 0.951 . S
C907 C905 1.388 . S
C907 C908 1.366 . S
C908 C907 1.366 . S
C908 C909 1.414 . S
C908 C911 1.499 . S
C909 H883 0.950 . S
C909 C908 1.414 . S
C909 C910 1.374 . S
C910 H884 0.950 . S
C910 C906 1.385 . S
C910 C909 1.374 . S
C911 C908 1.499 . S
C911 C912 1.373 . S
C911 C913 1.389 . S
C912 H885 0.950 . S
C912 C898 1.377 . S
C912 C911 1.373 . S
C913 C897 1.377 . S
C913 C911 1.389 . S
C913 C914 1.524 . S
C914 C913 1.524 . S
C914 C915 1.397 . S
C914 C919 1.363 . S
C915 H886 0.950 . S
C915 C914 1.397 . S
C915 C916 1.334 . S
C916 H887 0.950 . S
C916 C915 1.334 . S
C916 C917 1.287 . S
C917 C916 1.287 . S
C917 C918 1.524 . S
C917 H920 0.999 . S
C918 H888 0.950 . S
C918 C917 1.524 . S
C918 C919 1.415 . S
C919 H889 0.950 . S
C919 C914 1.363 . S
C919 C918 1.415 . S
H920 C917 0.999 . S
H921 C902 0.913 . S
H922 C940 0.951 . S
H923 C942 0.951 . S
H924 C944 0.950 . S
H925 C945 0.950 . S
H926 C947 0.950 . S
H927 C950 0.950 . S
H928 C951 0.950 . S
H929 C953 0.950 . S
H930 C954 0.950 . S
H931 C955 0.951 . S
H932 C957 0.951 . S
H933 C959 0.950 . S
H934 C960 0.950 . S
H935 C962 0.950 . S
H936 C965 0.950 . S
H937 C966 0.950 . S
H938 C968 0.950 . S
H939 C969 0.950 . S
C940 H922 0.951 . S
C940 C941 1.366 . S
C940 C942 1.388 . S
C941 C940 1.366 . S
C941 C945 1.385 . S
C942 H923 0.951 . S
C942 C940 1.388 . S
C942 C943 1.366 . S
C943 C942 1.366 . S
C943 C944 1.414 . S
C943 C946 1.499 . S
C944 H924 0.950 . S
C944 C943 1.414 . S
C944 C945 1.374 . S
C945 H925 0.950 . S
C945 C941 1.385 . S
C945 C944 1.374 . S
C946 C943 1.499 . S
C946 C947 1.373 . S
C946 C948 1.389 . S
C947 H926 0.950 . S
C947 C946 1.373 . S
C947 C963 1.377 . S
C948 C946 1.389 . S
C948 C949 1.524 . S
C948 C962 1.377 . S
C949 C948 1.524 . S
C949 C950 1.397 . S
C949 C954 1.363 . S
C950 H927 0.950 . S
C950 C949 1.397 . S
C950 C951 1.334 . S
C951 H928 0.950 . S
C951 C950 1.334 . S
C951 C952 1.287 . S
C952 C951 1.287 . S
C952 C953 1.524 . S
C952 H971 0.913 . S
C953 H929 0.950 . S
C953 C952 1.524 . S
C953 C954 1.415 . S
C954 H930 0.950 . S
C954 C949 1.363 . S
C954 C953 1.415 . S
C955 H931 0.951 . S
C955 C956 1.366 . S
C955 C957 1.388 1_565 S
C956 C955 1.366 . S
C956 C960 1.385 . S
C957 H932 0.951 . S
C957 C955 1.388 1_545 S
C957 C958 1.366 . S
C958 C957 1.366 . S
C958 C959 1.414 . S
C958 C961 1.499 . S
C959 H933 0.950 . S
C959 C958 1.414 . S
C959 C960 1.374 1_545 S
C960 H934 0.950 . S
C960 C956 1.385 . S
C960 C959 1.374 1_565 S
C961 C958 1.499 . S
C961 C962 1.373 . S
C961 C963 1.389 . S
C962 H935 0.950 . S
C962 C948 1.377 . S
C962 C961 1.373 . S
C963 C947 1.377 . S
C963 C961 1.389 . S
C963 C964 1.524 . S
C964 C963 1.524 . S
C964 C965 1.397 . S
C964 C969 1.363 . S
C965 H936 0.950 . S
C965 C964 1.397 . S
C965 C966 1.334 . S
C966 H937 0.950 . S
C966 C965 1.334 . S
C966 C967 1.287 . S
C967 C966 1.287 . S
C967 C968 1.524 . S
C967 H970 0.999 . S
C968 H938 0.950 . S
C968 C967 1.524 . S
C968 C969 1.415 . S
C969 H939 0.950 . S
C969 C964 1.363 . S
C969 C968 1.415 . S
H970 C967 0.999 . S
H971 C952 0.913 . S
H972 C990 0.951 . S
H973 C992 0.951 . S
H974 C994 0.950 . S
H975 C995 0.950 . S
H976 C997 0.950 . S
H977 C1000 0.950 . S
H978 C1001 0.950 . S
H979 C1003 0.950 . S
H980 C1004 0.950 . S
H981 C1005 0.951 . S
H982 C1007 0.951 . S
H983 C1009 0.950 . S
H984 C1010 0.950 . S
H985 C1012 0.950 . S
H986 C1015 0.950 . S
H987 C1016 0.950 1_655 S
H988 C1018 0.950 . S
H989 C1019 0.950 . S
C990 H972 0.951 . S
C990 C991 1.366 . S
C990 C992 1.388 . S
C991 C990 1.366 . S
C991 C995 1.385 . S
C992 H973 0.951 . S
C992 C990 1.388 . S
C992 C993 1.366 . S
C993 C992 1.366 . S
C993 C994 1.414 . S
C993 C996 1.499 . S
C994 H974 0.950 . S
C994 C993 1.414 . S
C994 C995 1.374 . S
C995 H975 0.950 . S
C995 C991 1.385 . S
C995 C994 1.374 . S
C996 C993 1.499 . S
C996 C997 1.373 . S
C996 C998 1.389 . S
C997 H976 0.950 . S
C997 C996 1.373 . S
C997 C1013 1.377 . S
C998 C996 1.389 . S
C998 C999 1.524 . S
C998 C1012 1.377 . S
C999 C998 1.524 . S
C999 C1000 1.397 . S
C999 C1004 1.363 . S
C1000 H977 0.950 . S
C1000 C999 1.397 . S
C1000 C1001 1.334 . S
C1001 H978 0.950 . S
C1001 C1000 1.334 . S
C1001 C1002 1.287 . S
C1002 C1001 1.287 . S
C1002 C1003 1.524 . S
C1002 H1021 0.913 . S
C1003 H979 0.950 . S
C1003 C1002 1.524 . S
C1003 C1004 1.415 . S
C1004 H980 0.950 . S
C1004 C999 1.363 . S
C1004 C1003 1.415 . S
C1005 H981 0.951 . S
C1005 C1006 1.366 . S
C1005 C1007 1.388 . S
C1006 C1005 1.366 . S
C1006 C1010 1.385 . S
C1007 H982 0.951 . S
C1007 C1005 1.388 . S
C1007 C1008 1.366 . S
C1008 C1007 1.366 . S
C1008 C1009 1.414 . S
C1008 C1011 1.499 1_655 S
C1009 H983 0.950 . S
C1009 C1008 1.414 . S
C1009 C1010 1.374 . S
C1010 H984 0.950 . S
C1010 C1006 1.385 . S
C1010 C1009 1.374 . S
C1011 C1008 1.499 1_455 S
C1011 C1012 1.373 . S
C1011 C1013 1.389 . S
C1012 H985 0.950 . S
C1012 C998 1.377 . S
C1012 C1011 1.373 . S
C1013 C997 1.377 . S
C1013 C1011 1.389 . S
C1013 C1014 1.524 . S
C1014 C1013 1.524 . S
C1014 C1015 1.397 . S
C1014 C1019 1.363 . S
C1015 H986 0.950 . S
C1015 C1014 1.397 . S
C1015 C1016 1.334 . S
C1016 H987 0.950 1_455 S
C1016 C1015 1.334 . S
C1016 C1017 1.287 . S
C1017 C1016 1.287 . S
C1017 C1018 1.524 . S
C1017 H1020 0.999 1_455 S
C1018 H988 0.950 . S
C1018 C1017 1.524 . S
C1018 C1019 1.415 . S
C1019 H989 0.950 . S
C1019 C1014 1.363 . S
C1019 C1018 1.415 . S
H1020 C1017 0.999 1_655 S
H1021 C1002 0.913 . S
H1022 C1040 0.951 . S
H1023 C1042 0.951 . S
H1024 C1044 0.950 . S
H1025 C1045 0.950 . S
H1026 C1047 0.950 . S
H1027 C1050 0.950 . S
H1028 C1051 0.950 . S
H1029 C1053 0.950 . S
H1030 C1054 0.950 . S
H1031 C1055 0.951 . S
H1032 C1057 0.951 . S
H1033 C1059 0.950 . S
H1034 C1060 0.950 . S
H1035 C1062 0.950 . S
H1036 C1065 0.950 . S
H1037 C1066 0.950 . S
H1038 C1068 0.950 . S
H1039 C1069 0.950 . S
C1040 H1022 0.951 . S
C1040 C1041 1.366 . S
C1040 C1042 1.388 . S
C1041 C1040 1.366 . S
C1041 C1045 1.385 . S
C1042 H1023 0.951 . S
C1042 C1040 1.388 . S
C1042 C1043 1.366 . S
C1043 C1042 1.366 . S
C1043 C1044 1.414 . S
C1043 C1046 1.499 . S
C1044 H1024 0.950 . S
C1044 C1043 1.414 . S
C1044 C1045 1.374 . S
C1045 H1025 0.950 . S
C1045 C1041 1.385 . S
C1045 C1044 1.374 . S
C1046 C1043 1.499 . S
C1046 C1047 1.373 . S
C1046 C1048 1.389 . S
C1047 H1026 0.950 . S
C1047 C1046 1.373 . S
C1047 C1063 1.377 . S
C1048 C1046 1.389 . S
C1048 C1049 1.524 . S
C1048 C1062 1.377 . S
C1049 C1048 1.524 . S
C1049 C1050 1.397 . S
C1049 C1054 1.363 . S
C1050 H1027 0.950 . S
C1050 C1049 1.397 . S
C1050 C1051 1.334 . S
C1051 H1028 0.950 . S
C1051 C1050 1.334 . S
C1051 C1052 1.287 . S
C1052 C1051 1.287 . S
C1052 C1053 1.524 . S
C1052 H1071 0.913 . S
C1053 H1029 0.950 . S
C1053 C1052 1.524 . S
C1053 C1054 1.415 . S
C1054 H1030 0.950 . S
C1054 C1049 1.363 . S
C1054 C1053 1.415 . S
C1055 H1031 0.951 . S
C1055 C1056 1.366 . S
C1055 C1057 1.388 . S
C1056 C1055 1.366 . S
C1056 C1060 1.385 . S
C1057 H1032 0.951 . S
C1057 C1055 1.388 . S
C1057 C1058 1.366 . S
C1058 C1057 1.366 . S
C1058 C1059 1.414 . S
C1058 C1061 1.499 . S
C1059 H1033 0.950 . S
C1059 C1058 1.414 . S
C1059 C1060 1.374 . S
C1060 H1034 0.950 . S
C1060 C1056 1.385 . S
C1060 C1059 1.374 . S
C1061 C1058 1.499 . S
C1061 C1062 1.373 . S
C1061 C1063 1.389 . S
C1062 H1035 0.950 . S
C1062 C1048 1.377 . S
C1062 C1061 1.373 . S
C1063 C1047 1.377 . S
C1063 C1061 1.389 . S
C1063 C1064 1.524 . S
C1064 C1063 1.524 . S
C1064 C1065 1.397 1_455 S
C1064 C1069 1.363 . S
C1065 H1036 0.950 . S
C1065 C1064 1.397 1_655 S
C1065 C1066 1.334 . S
C1066 H1037 0.950 . S
C1066 C1065 1.334 . S
C1066 C1067 1.287 . S
C1067 C1066 1.287 . S
C1067 C1068 1.524 . S
C1067 H1070 0.999 . S
C1068 H1038 0.950 . S
C1068 C1067 1.524 . S
C1068 C1069 1.415 1_655 S
C1069 H1039 0.950 . S
C1069 C1064 1.363 . S
C1069 C1068 1.415 1_455 S
H1070 C1067 0.999 . S
H1071 C1052 0.913 . S
H1072 C1090 0.951 . S
H1073 C1092 0.951 . S
H1074 C1094 0.950 . S
H1075 C1095 0.950 . S
H1076 C1097 0.950 . S
H1077 C1100 0.950 . S
H1078 C1101 0.950 . S
H1079 C1103 0.950 . S
H1080 C1104 0.950 . S
H1081 C1105 0.951 . S
H1082 C1107 0.951 . S
H1083 C1109 0.950 . S
H1084 C1110 0.950 . S
H1085 C1112 0.950 . S
H1086 C1115 0.950 . S
H1087 C1116 0.950 . S
H1088 C1118 0.950 . S
H1089 C1119 0.950 . S
C1090 H1072 0.951 . S
C1090 C1091 1.366 . S
C1090 C1092 1.388 . S
C1091 C1090 1.366 . S
C1091 C1095 1.385 . S
C1092 H1073 0.951 . S
C1092 C1090 1.388 . S
C1092 C1093 1.366 . S
C1093 C1092 1.366 . S
C1093 C1094 1.414 . S
C1093 C1096 1.499 . S
C1094 H1074 0.950 . S
C1094 C1093 1.414 . S
C1094 C1095 1.374 . S
C1095 H1075 0.950 . S
C1095 C1091 1.385 . S
C1095 C1094 1.374 . S
C1096 C1093 1.499 . S
C1096 C1097 1.373 . S
C1096 C1098 1.389 . S
C1097 H1076 0.950 . S
C1097 C1096 1.373 . S
C1097 C1113 1.377 . S
C1098 C1096 1.389 . S
C1098 C1099 1.524 . S
C1098 C1112 1.377 . S
C1099 C1098 1.524 . S
C1099 C1100 1.397 . S
C1099 C1104 1.363 . S
C1100 H1077 0.950 . S
C1100 C1099 1.397 . S
C1100 C1101 1.334 . S
C1101 H1078 0.950 . S
C1101 C1100 1.334 . S
C1101 C1102 1.287 . S
C1102 C1101 1.287 . S
C1102 C1103 1.524 . S
C1102 H1121 0.913 . S
C1103 H1079 0.950 . S
C1103 C1102 1.524 . S
C1103 C1104 1.415 . S
C1104 H1080 0.950 . S
C1104 C1099 1.363 . S
C1104 C1103 1.415 . S
C1105 H1081 0.951 . S
C1105 C1106 1.366 . S
C1105 C1107 1.388 . S
C1106 C1105 1.366 . S
C1106 C1110 1.385 . S
C1107 H1082 0.951 . S
C1107 C1105 1.388 . S
C1107 C1108 1.366 . S
C1108 C1107 1.366 . S
C1108 C1109 1.414 . S
C1108 C1111 1.499 . S
C1109 H1083 0.950 . S
C1109 C1108 1.414 . S
C1109 C1110 1.374 . S
C1110 H1084 0.950 . S
C1110 C1106 1.385 . S
C1110 C1109 1.374 . S
C1111 C1108 1.499 . S
C1111 C1112 1.373 . S
C1111 C1113 1.389 . S
C1112 H1085 0.950 . S
C1112 C1098 1.377 . S
C1112 C1111 1.373 . S
C1113 C1097 1.377 . S
C1113 C1111 1.389 . S
C1113 C1114 1.524 . S
C1114 C1113 1.524 . S
C1114 C1115 1.397 . S
C1114 C1119 1.363 . S
C1115 H1086 0.950 . S
C1115 C1114 1.397 . S
C1115 C1116 1.334 . S
C1116 H1087 0.950 . S
C1116 C1115 1.334 . S
C1116 C1117 1.287 . S
C1117 C1116 1.287 . S
C1117 C1118 1.524 . S
C1117 H1120 0.999 . S
C1118 H1088 0.950 . S
C1118 C1117 1.524 . S
C1118 C1119 1.415 . S
C1119 H1089 0.950 . S
C1119 C1114 1.363 . S
C1119 C1118 1.415 . S
H1120 C1117 0.999 . S
H1121 C1102 0.913 . S
H1122 C1140 0.951 . S
H1123 C1142 0.951 . S
H1124 C1144 0.950 1_655 S
H1125 C1145 0.950 1_655 S
H1126 C1147 0.950 . S
H1127 C1150 0.950 . S
H1128 C1151 0.950 . S
H1129 C1153 0.950 . S
H1130 C1154 0.950 . S
H1131 C1155 0.951 1_655 S
H1132 C1157 0.951 1_655 S
H1133 C1159 0.950 . S
H1134 C1160 0.950 . S
H1135 C1162 0.950 . S
H1136 C1165 0.950 . S
H1137 C1166 0.950 . S
H1138 C1168 0.950 . S
H1139 C1169 0.950 . S
C1140 H1122 0.951 . S
C1140 C1141 1.366 . S
C1140 C1142 1.388 . S
C1141 C1140 1.366 . S
C1141 C1145 1.385 . S
C1142 H1123 0.951 . S
C1142 C1140 1.388 . S
C1142 C1143 1.366 . S
C1143 C1142 1.366 . S
C1143 C1144 1.414 . S
C1143 C1146 1.499 . S
C1144 H1124 0.950 1_455 S
C1144 C1143 1.414 . S
C1144 C1145 1.374 . S
C1145 H1125 0.950 1_455 S
C1145 C1141 1.385 . S
C1145 C1144 1.374 . S
C1146 C1143 1.499 . S
C1146 C1147 1.373 . S
C1146 C1148 1.389 . S
C1147 H1126 0.950 . S
C1147 C1146 1.373 . S
C1147 C1163 1.377 . S
C1148 C1146 1.389 . S
C1148 C1149 1.524 . S
C1148 C1162 1.377 . S
C1149 C1148 1.524 . S
C1149 C1150 1.397 . S
C1149 C1154 1.363 . S
C1150 H1127 0.950 . S
C1150 C1149 1.397 . S
C1150 C1151 1.334 . S
C1151 H1128 0.950 . S
C1151 C1150 1.334 . S
C1151 C1152 1.287 . S
C1152 C1151 1.287 . S
C1152 C1153 1.524 . S
C1152 H1171 0.913 . S
C1153 H1129 0.950 . S
C1153 C1152 1.524 . S
C1153 C1154 1.415 . S
C1154 H1130 0.950 . S
C1154 C1149 1.363 . S
C1154 C1153 1.415 . S
C1155 H1131 0.951 1_455 S
C1155 C1156 1.366 . S
C1155 C1157 1.388 . S
C1156 C1155 1.366 . S
C1156 C1160 1.385 . S
C1157 H1132 0.951 1_455 S
C1157 C1155 1.388 . S
C1157 C1158 1.366 . S
C1158 C1157 1.366 . S
C1158 C1159 1.414 . S
C1158 C1161 1.499 . S
C1159 H1133 0.950 . S
C1159 C1158 1.414 . S
C1159 C1160 1.374 . S
C1160 H1134 0.950 . S
C1160 C1156 1.385 . S
C1160 C1159 1.374 . S
C1161 C1158 1.499 . S
C1161 C1162 1.373 . S
C1161 C1163 1.389 . S
C1162 H1135 0.950 . S
C1162 C1148 1.377 . S
C1162 C1161 1.373 . S
C1163 C1147 1.377 . S
C1163 C1161 1.389 . S
C1163 C1164 1.524 1_455 S
C1164 C1163 1.524 1_655 S
C1164 C1165 1.397 1_655 S
C1164 C1169 1.363 . S
C1165 H1136 0.950 . S
C1165 C1164 1.397 1_455 S
C1165 C1166 1.334 1_455 S
C1166 H1137 0.950 . S
C1166 C1165 1.334 1_655 S
C1166 C1167 1.287 . S
C1167 C1166 1.287 . S
C1167 C1168 1.524 . S
C1167 H1170 0.999 . S
C1168 H1138 0.950 . S
C1168 C1167 1.524 . S
C1168 C1169 1.415 . S
C1169 H1139 0.950 . S
C1169 C1164 1.363 . S
C1169 C1168 1.415 . S
H1170 C1167 0.999 . S
H1171 C1152 0.913 . S
H1172 C1190 0.951 1_655 S
H1173 C1192 0.951 . S
H1174 C1194 0.950 . S
H1175 C1195 0.939 1_655 S
H1176 C1197 0.950 . S
H1177 C1200 0.950 . S
H1178 C1201 0.950 . S
H1179 C1203 0.950 . S
H1180 C1204 0.950 . S
H1181 C1205 0.951 . S
H1182 C1207 0.951 . S
H1183 C1209 0.950 . S
H1184 C1210 0.950 . S
H1185 C1212 0.950 . S
H1186 C1215 0.950 . S
H1187 C1216 0.950 . S
H1188 C1218 0.950 . S
H1189 C1219 0.950 . S
C1190 H1172 0.951 1_455 S
C1190 C1191 1.366 1_455 S
C1190 C1192 1.388 . S
C1191 C1190 1.366 1_655 S
C1191 C1195 1.375 1_655 S
C1192 H1173 0.951 . S
C1192 C1190 1.388 . S
C1192 C1193 1.366 . S
C1193 C1192 1.366 . S
C1193 C1194 1.414 . S
C1193 C1196 1.499 . S
C1194 H1174 0.950 . S
C1194 C1193 1.414 . S
C1194 C1195 1.395 . S
C1195 H1175 0.939 1_455 S
C1195 C1191 1.375 1_455 S
C1195 C1194 1.395 . S
C1196 C1193 1.499 . S
C1196 C1197 1.373 . S
C1196 C1198 1.389 . S
C1197 H1176 0.950 . S
C1197 C1196 1.373 . S
C1197 C1213 1.377 . S
C1198 C1196 1.389 . S
C1198 C1199 1.524 . S
C1198 C1212 1.377 . S
C1199 C1198 1.524 . S
C1199 C1200 1.397 . S
C1199 C1204 1.363 . S
C1200 H1177 0.950 . S
C1200 C1199 1.397 . S
C1200 C1201 1.334 . S
C1201 H1178 0.950 . S
C1201 C1200 1.334 . S
C1201 C1202 1.287 . S
C1202 C1201 1.287 . S
C1202 C1203 1.524 . S
C1202 H1221 0.913 . S
C1203 H1179 0.950 . S
C1203 C1202 1.524 . S
C1203 C1204 1.415 . S
C1204 H1180 0.950 . S
C1204 C1199 1.363 . S
C1204 C1203 1.415 . S
C1205 H1181 0.951 . S
C1205 C1206 1.366 . S
C1205 C1207 1.388 . S
C1206 C1205 1.366 . S
C1206 C1210 1.385 . S
C1207 H1182 0.951 . S
C1207 C1205 1.388 . S
C1207 C1208 1.366 . S
C1208 C1207 1.366 . S
C1208 C1209 1.414 . S
C1208 C1211 1.499 . S
C1209 H1183 0.950 . S
C1209 C1208 1.414 . S
C1209 C1210 1.374 . S
C1210 H1184 0.950 . S
C1210 C1206 1.385 . S
C1210 C1209 1.374 . S
C1211 C1208 1.499 . S
C1211 C1212 1.373 . S
C1211 C1213 1.389 . S
C1212 H1185 0.950 . S
C1212 C1198 1.377 . S
C1212 C1211 1.373 . S
C1213 C1197 1.377 . S
C1213 C1211 1.389 . S
C1213 C1214 1.524 . S
C1214 C1213 1.524 . S
C1214 C1215 1.397 . S
C1214 C1219 1.363 . S
C1215 H1186 0.950 . S
C1215 C1214 1.397 . S
C1215 C1216 1.334 . S
C1216 H1187 0.950 . S
C1216 C1215 1.334 . S
C1216 C1217 1.287 . S
C1217 C1216 1.287 . S
C1217 C1218 1.524 . S
C1217 H1220 0.999 . S
C1218 H1188 0.950 . S
C1218 C1217 1.524 . S
C1218 C1219 1.415 . S
C1219 H1189 0.950 . S
C1219 C1214 1.363 . S
C1219 C1218 1.415 . S
H1220 C1217 0.999 . S
H1221 C1202 0.913 . S
H1222 C1240 0.940 1_545 S
H1223 C1242 0.951 . S
H1224 C1244 0.950 . S
H1225 C1245 0.950 . S
H1226 C1247 0.950 . S
H1227 C1250 0.950 . S
H1228 C1251 0.950 . S
H1229 C1253 0.950 . S
H1230 C1254 0.950 . S
H1231 C1255 0.951 . S
H1232 C1257 0.951 . S
H1233 C1259 0.950 . S
H1234 C1260 0.950 . S
H1235 C1262 0.950 . S
H1236 C1265 0.950 . S
H1237 C1266 0.950 . S
H1238 C1268 0.950 . S
H1239 C1269 0.950 . S
C1240 H1222 0.940 1_565 S
C1240 C1241 1.366 1_565 S
C1240 C1242 1.388 . S
C1241 C1240 1.366 1_545 S
C1241 C1245 1.385 1_545 S
C1242 H1223 0.951 . S
C1242 C1240 1.388 . S
C1242 C1243 1.366 . S
C1243 C1242 1.366 . S
C1243 C1244 1.414 . S
C1243 C1246 1.499 . S
C1244 H1224 0.950 . S
C1244 C1243 1.414 . S
C1244 C1245 1.374 . S
C1245 H1225 0.950 . S
C1245 C1241 1.385 1_565 S
C1245 C1244 1.374 . S
C1246 C1243 1.499 . S
C1246 C1247 1.373 . S
C1246 C1248 1.389 . S
C1247 H1226 0.950 . S
C1247 C1246 1.373 . S
C1247 C1263 1.377 . S
C1248 C1246 1.389 . S
C1248 C1249 1.524 . S
C1248 C1262 1.377 . S
C1249 C1248 1.524 . S
C1249 C1250 1.397 . S
C1249 C1254 1.363 . S
C1250 H1227 0.950 . S
C1250 C1249 1.397 . S
C1250 C1251 1.334 . S
C1251 H1228 0.950 . S
C1251 C1250 1.334 . S
C1251 C1252 1.287 . S
C1252 C1251 1.287 . S
C1252 C1253 1.524 . S
C1252 H1271 0.913 . S
C1253 H1229 0.950 . S
C1253 C1252 1.524 . S
C1253 C1254 1.415 . S
C1254 H1230 0.950 . S
C1254 C1249 1.363 . S
C1254 C1253 1.415 . S
C1255 H1231 0.951 . S
C1255 C1256 1.366 . S
C1255 C1257 1.388 . S
C1256 C1255 1.366 . S
C1256 C1260 1.385 . S
C1257 H1232 0.951 . S
C1257 C1255 1.388 . S
C1257 C1258 1.366 . S
C1258 C1257 1.366 . S
C1258 C1259 1.414 . S
C1258 C1261 1.499 . S
C1259 H1233 0.950 . S
C1259 C1258 1.414 . S
C1259 C1260 1.374 . S
C1260 H1234 0.950 . S
C1260 C1256 1.385 . S
C1260 C1259 1.374 . S
C1261 C1258 1.499 . S
C1261 C1262 1.373 . S
C1261 C1263 1.389 . S
C1262 H1235 0.950 . S
C1262 C1248 1.377 . S
C1262 C1261 1.373 . S
C1263 C1247 1.377 . S
C1263 C1261 1.389 . S
C1263 C1264 1.524 . S
C1264 C1263 1.524 . S
C1264 C1265 1.397 . S
C1264 C1269 1.363 . S
C1265 H1236 0.950 . S
C1265 C1264 1.397 . S
C1265 C1266 1.334 . S
C1266 H1237 0.950 . S
C1266 C1265 1.334 . S
C1266 C1267 1.287 . S
C1267 C1266 1.287 . S
C1267 C1268 1.524 . S
C1267 H1270 0.999 . S
C1268 H1238 0.950 . S
C1268 C1267 1.524 . S
C1268 C1269 1.415 . S
C1269 H1239 0.950 . S
C1269 C1264 1.363 . S
C1269 C1268 1.415 . S
H1270 C1267 0.999 . S
H1271 C1252 0.913 . S
C291 C20 1.412 . S
C306 C190 1.412 . S
C341 C224 1.442 . S
C356 C54 1.441 . S
C391 C88 1.412 . S
C406 C258 1.412 . S
C441 C156 1.442 . S
C456 C122 1.441 . S
C491 C33 0.939 . S
C506 C138 0.941 . S
C541 C67 0.933 . S
C556 C172 0.935 . S
C591 C237 0.933 . S
C606 C70 0.935 . S
C641 C104 0.941 . S
C656 C271 0.938 . S
C691 C135 0.933 . S
C706 C240 0.935 . S
C741 C203 0.939 . S
C756 C36 0.942 . S
C791 C206 0.941 . S
C806 C101 0.938 . S
C841 C2 0.935 . S
C856 C169 0.932 . S
C891 C9 1.521 . S
C906 C5 1.617 . S
C941 C43 1.522 . S
C956 C39 1.618 . S
C991 C77 1.522 . S
C1006 C73 1.617 . S
C1041 C111 1.522 . S
C1056 C107 1.618 . S
C1091 C141 1.618 1_655 S
C1106 C145 1.521 . S
C1141 C179 1.522 1_545 S
C1156 C175 1.617 . S
C1191 C213 1.522 . S
C1206 C209 1.618 . S
C1241 C243 1.617 . S
C1256 C247 1.521 . S
