# Generated by pormake.
# Topology umm, (4)-cn, num edge types: 1
# Building blocks:
#     Node 0, Type 0, BuildingBlock: NAWXER_clean_sbu_0, # of connection points: 4
#     Node 1, Type 0, BuildingBlock: NAWXER_clean_sbu_0, # of connection points: 4
#     Node 2, Type 0, BuildingBlock: NAWXER_clean_sbu_0, # of connection points: 4
#     Node 3, Type 0, BuildingBlock: NAWXER_clean_sbu_0, # of connection points: 4
#     Node 4, Type 0, BuildingBlock: NAWXER_clean_sbu_0, # of connection points: 4
#     Node 5, Type 0, BuildingBlock: NAWXER_clean_sbu_0, # of connection points: 4
#     Node 6, Type 0, BuildingBlock: NAWXER_clean_sbu_0, # of connection points: 4
#     Node 7, Type 0, BuildingBlock: NAWXER_clean_sbu_0, # of connection points: 4
#     Node 8, Type 0, BuildingBlock: NAWXER_clean_sbu_0, # of connection points: 4
#     Node 9, Type 0, BuildingBlock: NAWXER_clean_sbu_0, # of connection points: 4
#     Node 10, Type 0, BuildingBlock: NAWXER_clean_sbu_0, # of connection points: 4
#     Node 11, Type 0, BuildingBlock: NAWXER_clean_sbu_0, # of connection points: 4
#     Edge 12, Type (0, 0), BuildingBlock: KIFKEQ_clean_linker_1, # of connection points: 2
#     Edge 13, Type (0, 0), BuildingBlock: KIFKEQ_clean_linker_1, # of connection points: 2
#     Edge 14, Type (0, 0), BuildingBlock: KIFKEQ_clean_linker_1, # of connection points: 2
#     Edge 15, Type (0, 0), BuildingBlock: KIFKEQ_clean_linker_1, # of connection points: 2
#     Edge 16, Type (0, 0), BuildingBlock: KIFKEQ_clean_linker_1, # of connection points: 2
#     Edge 17, Type (0, 0), BuildingBlock: KIFKEQ_clean_linker_1, # of connection points: 2
#     Edge 18, Type (0, 0), BuildingBlock: KIFKEQ_clean_linker_1, # of connection points: 2
#     Edge 19, Type (0, 0), BuildingBlock: KIFKEQ_clean_linker_1, # of connection points: 2
#     Edge 20, Type (0, 0), BuildingBlock: KIFKEQ_clean_linker_1, # of connection points: 2
#     Edge 21, Type (0, 0), BuildingBlock: KIFKEQ_clean_linker_1, # of connection points: 2
#     Edge 22, Type (0, 0), BuildingBlock: KIFKEQ_clean_linker_1, # of connection points: 2
#     Edge 23, Type (0, 0), BuildingBlock: KIFKEQ_clean_linker_1, # of connection points: 2
#     Edge 24, Type (0, 0), BuildingBlock: KIFKEQ_clean_linker_1, # of connection points: 2
#     Edge 25, Type (0, 0), BuildingBlock: KIFKEQ_clean_linker_1, # of connection points: 2
#     Edge 26, Type (0, 0), BuildingBlock: KIFKEQ_clean_linker_1, # of connection points: 2
#     Edge 27, Type (0, 0), BuildingBlock: KIFKEQ_clean_linker_1, # of connection points: 2
#     Edge 28, Type (0, 0), BuildingBlock: KIFKEQ_clean_linker_1, # of connection points: 2
#     Edge 29, Type (0, 0), BuildingBlock: KIFKEQ_clean_linker_1, # of connection points: 2
#     Edge 30, Type (0, 0), BuildingBlock: KIFKEQ_clean_linker_1, # of connection points: 2
#     Edge 31, Type (0, 0), BuildingBlock: KIFKEQ_clean_linker_1, # of connection points: 2
#     Edge 32, Type (0, 0), BuildingBlock: KIFKEQ_clean_linker_1, # of connection points: 2
#     Edge 33, Type (0, 0), BuildingBlock: KIFKEQ_clean_linker_1, # of connection points: 2
#     Edge 34, Type (0, 0), BuildingBlock: KIFKEQ_clean_linker_1, # of connection points: 2
#     Edge 35, Type (0, 0), BuildingBlock: KIFKEQ_clean_linker_1, # of connection points: 2
# Relax obj value: 0.044
# Max RMSD: 0.161
# Mean RMSD: 0.161
data_MOF--net-umm--node1-NAWXER_clean_sbu_0--edge1-KIFKEQ_clean_linker_1
_symmetry_space_group_name_H-M    P1
_symmetry_Int_Tables_number       1
_symmetry_cell_setting            triclinic
loop_
_symmetry_equiv_pos_as_xyz
'x, y, z'
_cell_length_a     57.457073
_cell_length_b     57.461216
_cell_length_c     29.610662
_cell_angle_alpha  89.980343
_cell_angle_beta   90.002592
_cell_angle_gamma 119.99829
loop_
_atom_site_label
_atom_site_type_symbol
_atom_site_fract_x
_atom_site_fract_y
_atom_site_fract_z
_atom_type_partial_charge
C0 C 0.35234 0.53551 0.07307 0.0
C1 C 0.43103 0.52643 0.10314 0.0
O2 O 0.3743 0.55815 0.07475 0.0
Zn3 Zn 0.41609 0.57289 0.0886 0.0
O4 O 0.35257 0.51411 0.08307 0.0
Zn5 Zn 0.39107 0.53066 0.09247 0.0
O6 O 0.39789 0.55105 0.15601 0.0
O7 O 0.42376 0.59429 0.14262 0.0
O8 O 0.40653 0.50791 0.10238 0.0
O9 O 0.43694 0.55098 0.09855 0.0
O10 O 0.4317 0.591 0.03268 0.0
O11 O 0.4062 0.54695 0.02593 0.0
C12 C 0.41084 0.57532 0.17049 0.0
C13 C 0.42123 0.5701 0.00794 0.0
C14 C 0.85524 0.41869 0.34224 0.0
C15 C 0.83946 0.40756 0.50466 0.0
O16 O 0.86341 0.40364 0.36001 0.0
Zn17 Zn 0.86461 0.38829 0.42631 0.0
O18 O 0.84477 0.42905 0.36715 0.0
Zn19 Zn 0.84731 0.41327 0.42284 0.0
O20 O 0.89004 0.43414 0.43274 0.0
O21 O 0.90285 0.40384 0.4362 0.0
O22 O 0.83345 0.42062 0.47701 0.0
O23 O 0.85088 0.39475 0.48998 0.0
O24 O 0.84269 0.34982 0.41645 0.0
O25 O 0.82035 0.37155 0.40859 0.0
C26 C 0.90875 0.42831 0.43713 0.0
C27 C 0.82105 0.34961 0.40658 0.0
C28 C 0.43603 0.83935 0.83726 0.0
C29 C 0.44047 0.8548 0.67476 0.0
O30 O 0.46027 0.85065 0.82251 0.0
Zn31 Zn 0.48031 0.86382 0.75825 0.0
O32 O 0.41694 0.83318 0.80959 0.0
Zn33 Zn 0.43813 0.84694 0.75555 0.0
O34 O 0.45238 0.8195 0.74129 0.0
O35 O 0.49647 0.84156 0.74862 0.0
O36 O 0.41977 0.84477 0.69995 0.0
O37 O 0.46365 0.8626 0.69225 0.0
O38 O 0.50352 0.90205 0.76675 0.0
O39 O 0.46045 0.88964 0.76664 0.0
C40 C 0.47491 0.81997 0.73916 0.0
C41 C 0.48515 0.90816 0.76983 0.0
C42 C 0.58906 0.43776 0.00711 0.0
C43 C 0.59868 0.43082 0.16917 0.0
O44 O 0.60445 0.46069 0.0255 0.0
Zn45 Zn 0.61951 0.47628 0.09247 0.0
O46 O 0.5781 0.41671 0.03148 0.0
Zn47 Zn 0.59368 0.43424 0.08765 0.0
O48 O 0.57367 0.45679 0.09771 0.0
O49 O 0.6046 0.49955 0.10326 0.0
O50 O 0.58472 0.41233 0.14114 0.0
O51 O 0.61266 0.45516 0.1554 0.0
O52 O 0.65787 0.49227 0.08309 0.0
O53 O 0.63551 0.44823 0.07439 0.0
C54 C 0.57997 0.48138 0.10309 0.0
C55 C 0.65771 0.47069 0.073 0.0
C56 C 0.17128 0.59887 0.50463 0.0
C57 C 0.15571 0.58797 0.34214 0.0
O58 O 0.15993 0.61175 0.48992 0.0
Zn59 Zn 0.14641 0.6184 0.42618 0.0
O60 O 0.17736 0.58588 0.47696 0.0
Zn61 Zn 0.16365 0.59338 0.42275 0.0
O62 O 0.1907 0.6351 0.40859 0.0
O63 O 0.16841 0.65688 0.41644 0.0
O64 O 0.16616 0.57759 0.36707 0.0
O65 O 0.14759 0.60305 0.35988 0.0
O66 O 0.10816 0.60294 0.43595 0.0
O67 O 0.12089 0.57258 0.43255 0.0
C68 C 0.19004 0.65707 0.40663 0.0
C69 C 0.10221 0.57846 0.43689 0.0
C70 C 0.5765 0.16966 0.83629 0.0
C71 C 0.57193 0.15409 0.67381 0.0
O72 O 0.55228 0.1585 0.82149 0.0
Zn73 Zn 0.53222 0.14545 0.75729 0.0
O74 O 0.5956 0.17578 0.80865 0.0
Zn75 Zn 0.5744 0.16214 0.75457 0.0
O76 O 0.56041 0.18977 0.74025 0.0
O77 O 0.51632 0.16794 0.74758 0.0
O78 O 0.59266 0.16409 0.69892 0.0
O79 O 0.54879 0.14646 0.69137 0.0
O80 O 0.50883 0.10724 0.76593 0.0
O81 O 0.55185 0.11946 0.76587 0.0
C82 C 0.53796 0.18946 0.73811 0.0
C83 C 0.52712 0.10103 0.76913 0.0
C84 C 0.44003 0.5881 0.66922 0.0
C85 C 0.43601 0.60018 0.50694 0.0
O86 O 0.46325 0.60349 0.65186 0.0
Zn87 Zn 0.48008 0.61926 0.58613 0.0
O88 O 0.41935 0.57766 0.64397 0.0
Zn89 Zn 0.43785 0.5941 0.58854 0.0
O90 O 0.46001 0.57359 0.57697 0.0
O91 O 0.50312 0.60408 0.57723 0.0
O92 O 0.41683 0.58714 0.53439 0.0
O93 O 0.46022 0.6129 0.52188 0.0
O94 O 0.49638 0.65764 0.59641 0.0
O95 O 0.45227 0.63573 0.60347 0.0
C96 C 0.48467 0.57966 0.57377 0.0
C97 C 0.47485 0.65772 0.60593 0.0
C98 C 0.83887 0.43172 0.8411 0.0
C99 C 0.85462 0.43649 1.00355 0.0
O100 O 0.85012 0.45594 0.85581 0.0
Zn101 Zn 0.86366 0.47613 0.91947 0.0
O102 O 0.83294 0.41267 0.86874 0.0
Zn103 Zn 0.84662 0.43388 0.92295 0.0
O104 O 0.8194 0.44834 0.93713 0.0
O105 O 0.84148 0.49241 0.92931 0.0
O106 O 0.84424 0.41565 0.97868 0.0
O107 O 0.86261 0.45966 0.98575 0.0
O108 O 0.90189 0.49905 0.9096 0.0
O109 O 0.88936 0.45601 0.91307 0.0
C110 C 0.81991 0.47089 0.93911 0.0
C111 C 0.90795 0.48059 0.90868 0.0
C112 C 0.42971 0.90738 0.24069 0.0
C113 C 0.35178 0.81936 0.27234 0.0
O114 O 0.43583 0.88882 0.24394 0.0
Zn115 Zn 0.41544 0.84616 0.25539 0.0
O116 O 0.40527 0.90136 0.24402 0.0
Zn117 Zn 0.3902 0.86314 0.25277 0.0
O118 O 0.40584 0.86207 0.31863 0.0
O119 O 0.43178 0.84412 0.31093 0.0
O120 O 0.3518 0.84093 0.26274 0.0
O121 O 0.37381 0.81885 0.27005 0.0
O122 O 0.42271 0.8323 0.20131 0.0
O123 O 0.39695 0.84991 0.18852 0.0
C124 C 0.42124 0.85428 0.3361 0.0
C125 C 0.40982 0.83855 0.1737 0.0
C126 C 0.53794 0.35165 0.60446 0.0
C127 C 0.52649 0.42871 0.57197 0.0
O128 O 0.56035 0.37386 0.60222 0.0
Zn129 Zn 0.57402 0.41554 0.58773 0.0
O130 O 0.51622 0.35136 0.59488 0.0
Zn131 Zn 0.53197 0.38958 0.58456 0.0
O132 O 0.55248 0.39596 0.52084 0.0
O133 O 0.59551 0.42374 0.53404 0.0
O134 O 0.50836 0.40413 0.57481 0.0
O135 O 0.55123 0.43523 0.57588 0.0
O136 O 0.59201 0.43203 0.64335 0.0
O137 O 0.54819 0.40536 0.65064 0.0
C138 C 0.57674 0.40971 0.50649 0.0
C139 C 0.57123 0.42112 0.66832 0.0
C140 C 0.17084 0.57374 0.84109 0.0
C141 C 0.1552 0.56909 1.00354 0.0
O142 O 0.15957 0.54951 0.85581 0.0
Zn143 Zn 0.14604 0.52934 0.91958 0.0
O144 O 0.17679 0.59278 0.86873 0.0
Zn145 Zn 0.1631 0.57157 0.92293 0.0
O146 O 0.19028 0.55707 0.93718 0.0
O147 O 0.16816 0.513 0.92943 0.0
O148 O 0.16555 0.58989 0.97854 0.0
O149 O 0.14716 0.54589 0.98587 0.0
O150 O 0.1078 0.50643 0.9098 0.0
O151 O 0.12035 0.54948 0.91313 0.0
C152 C 0.18974 0.53451 0.93922 0.0
C153 C 0.10175 0.5249 0.90882 0.0
C154 C 0.59014 0.15298 0.33514 0.0
C155 C 0.60164 0.16872 0.17275 0.0
O156 O 0.60549 0.14511 0.31772 0.0
Zn157 Zn 0.62107 0.14394 0.25183 0.0
O158 O 0.57961 0.16313 0.30991 0.0
Zn159 Zn 0.59589 0.16098 0.25441 0.0
O160 O 0.5754 0.11832 0.24309 0.0
O161 O 0.60591 0.10571 0.24315 0.0
O162 O 0.58872 0.17493 0.20034 0.0
O163 O 0.61445 0.15729 0.18757 0.0
O164 O 0.65947 0.16604 0.26183 0.0
O165 O 0.63754 0.18821 0.26906 0.0
C166 C 0.58147 0.09973 0.23989 0.0
C167 C 0.65954 0.18764 0.2714 0.0
H168 H 0.38474 0.53929 0.23833 0.0
H169 H 0.43957 0.62368 0.21402 0.0
H170 H 0.38949 0.54736 0.31935 0.0
H171 H 0.44395 0.63181 0.29534 0.0
H172 H 0.47255 0.62565 0.43937 0.0
H173 H 0.46463 0.62126 0.35823 0.0
H174 H 0.37973 0.56884 0.38171 0.0
H175 H 0.38768 0.57285 0.46302 0.0
C176 C 0.39755 0.55964 0.25023 0.0
C177 C 0.4119 0.58081 0.21961 0.0
C178 C 0.40014 0.5643 0.29677 0.0
C179 C 0.41716 0.59023 0.31388 0.0
C180 C 0.43094 0.61154 0.28326 0.0
C181 C 0.42829 0.6069 0.23664 0.0
C182 C 0.45214 0.61338 0.42731 0.0
C183 C 0.43078 0.59946 0.45776 0.0
C184 C 0.44758 0.611 0.38072 0.0
C185 C 0.42156 0.59461 0.36343 0.0
C186 C 0.40007 0.58134 0.39391 0.0
C187 C 0.40462 0.58376 0.44053 0.0
H188 H 0.81881 0.43529 0.54843 0.0
H189 H 0.84986 0.38165 0.57223 0.0
H190 H 0.81465 0.43916 0.62976 0.0
H191 H 0.84615 0.38591 0.65329 0.0
H192 H 0.81874 0.38342 0.7972 0.0
H193 H 0.81489 0.37551 0.71584 0.0
H194 H 0.84567 0.46016 0.69252 0.0
H195 H 0.84907 0.46802 0.7736 0.0
C196 C 0.82456 0.42417 0.57095 0.0
C197 C 0.8348 0.40827 0.55377 0.0
C198 C 0.82232 0.42651 0.61757 0.0
C199 C 0.83019 0.41295 0.64807 0.0
C200 C 0.83961 0.39638 0.6308 0.0
C201 C 0.8419 0.39408 0.58425 0.0
C202 C 0.8244 0.4003 0.77472 0.0
C203 C 0.83436 0.42638 0.79196 0.0
C204 C 0.82233 0.39578 0.72808 0.0
C205 C 0.8301 0.41721 0.69763 0.0
C206 C 0.83922 0.44314 0.71496 0.0
C207 C 0.84134 0.44766 0.76153 0.0
H208 H 0.47223 0.85008 0.90523 0.0
H209 H 0.38762 0.81911 0.88074 0.0
H210 H 0.46404 0.84665 0.9863 0.0
H211 H 0.3794 0.8153 0.96199 0.0
H212 H 0.38436 0.84942 0.10589 0.0
H213 H 0.38934 0.84643 0.02479 0.0
H214 H 0.44272 0.81513 0.04866 0.0
H215 H 0.43809 0.81851 0.12996 0.0
C216 C 0.45182 0.84222 0.9171 0.0
C217 C 0.43061 0.83502 0.88642 0.0
C218 C 0.4471 0.8401 0.96364 0.0
C219 C 0.42107 0.83078 0.98068 0.0
C220 C 0.39974 0.82289 0.94998 0.0
C221 C 0.40444 0.82493 0.9034 0.0
C222 C 0.39697 0.84166 0.09392 0.0
C223 C 0.41094 0.83435 0.1245 0.0
C224 C 0.3997 0.8398 0.04735 0.0
C225 C 0.41651 0.83064 0.03019 0.0
C226 C 0.4299 0.82261 0.06077 0.0
C227 C 0.42711 0.8244 0.10739 0.0
H228 H 0.55553 0.39368 0.21663 0.0
H229 H 0.63874 0.45478 0.23136 0.0
H230 H 0.55154 0.38741 0.29793 0.0
H231 H 0.63575 0.44709 0.31253 0.0
H232 H 0.61441 0.45216 0.4585 0.0
H233 H 0.62069 0.4557 0.37726 0.0
H234 H 0.55917 0.37208 0.36339 0.0
H235 H 0.55154 0.3696 0.44459 0.0
C236 C 0.57319 0.40527 0.23737 0.0
C237 C 0.59739 0.4248 0.21786 0.0
C238 C 0.57102 0.40158 0.28418 0.0
C239 C 0.59327 0.41681 0.31261 0.0
C240 C 0.61787 0.43547 0.2924 0.0
C241 C 0.61976 0.43974 0.24571 0.0
C242 C 0.6024 0.43453 0.43795 0.0
C243 C 0.58242 0.41066 0.4577 0.0
C244 C 0.6061 0.43642 0.39116 0.0
C245 C 0.59042 0.41421 0.36295 0.0
C246 C 0.57119 0.38993 0.38335 0.0
C247 C 0.56694 0.38833 0.43006 0.0
H248 H 0.19151 0.57076 0.54845 0.0
H249 H 0.16079 0.62467 0.57223 0.0
H250 H 0.19529 0.56654 0.6298 0.0
H251 H 0.16413 0.62008 0.65331 0.0
H252 H 0.19121 0.6221 0.79734 0.0
H253 H 0.19521 0.63018 0.71603 0.0
H254 H 0.16404 0.5455 0.69237 0.0
H255 H 0.16047 0.53748 0.77344 0.0
C256 C 0.18575 0.58187 0.57097 0.0
C257 C 0.17572 0.59795 0.55378 0.0
C258 C 0.18777 0.57933 0.6176 0.0
C259 C 0.17989 0.59287 0.6481 0.0
C260 C 0.17067 0.60961 0.63083 0.0
C261 C 0.16859 0.6121 0.58426 0.0
C262 C 0.18549 0.60525 0.77481 0.0
C263 C 0.17539 0.57912 0.79195 0.0
C264 C 0.18764 0.60986 0.72819 0.0
C265 C 0.17983 0.58847 0.69765 0.0
C266 C 0.17053 0.56249 0.71488 0.0
C267 C 0.16833 0.55787 0.76144 0.0
H268 H 0.62703 0.15778 0.1049 0.0
H269 H 0.57385 0.18933 0.12914 0.0
H270 H 0.62238 0.16125 0.02381 0.0
H271 H 0.56956 0.19319 0.04788 0.0
H272 H 0.54024 0.15908 0.90408 0.0
H273 H 0.54821 0.16207 0.98518 0.0
H274 H 0.63279 0.19273 0.96133 0.0
H275 H 0.62478 0.18934 0.88002 0.0
C276 C 0.61461 0.16578 0.09298 0.0
C277 C 0.60069 0.17313 0.12359 0.0
C278 C 0.61207 0.16792 0.04642 0.0
C279 C 0.59552 0.17741 0.02931 0.0
C280 C 0.58219 0.18547 0.05994 0.0
C281 C 0.58478 0.18339 0.10653 0.0
C282 C 0.5606 0.1667 0.91605 0.0
C283 C 0.58184 0.17383 0.88548 0.0
C284 C 0.56519 0.16856 0.96262 0.0
C285 C 0.59113 0.17755 0.97979 0.0
C286 C 0.61251 0.18539 0.94921 0.0
C287 C 0.60793 0.1836 0.90259 0.0
H288 H 0.34902 0.57563 0.03061 0.0
H289 H 0.30025 0.49315 0.07375 0.0
H290 H 0.3101 0.57421 0.99651 0.0
H291 H 0.26055 0.49204 0.04109 0.0
H292 H 0.19988 0.49241 0.93914 0.0
H293 H 0.23873 0.4918 0.97186 0.0
H294 H 0.27076 0.57404 0.01549 0.0
H295 H 0.23302 0.57497 0.98134 0.0
C296 C 0.32983 0.55726 0.03355 0.0
C297 C 0.32774 0.53456 0.05532 0.0
C298 C 0.30737 0.55647 0.01402 0.0
C299 C 0.28198 0.53309 0.01627 0.0
C300 C 0.2798 0.51032 0.03823 0.0
C301 C 0.30249 0.51101 0.05736 0.0
C302 C 0.21542 0.51039 0.95534 0.0
C303 C 0.2135 0.53382 0.95709 0.0
C304 C 0.23756 0.50998 0.9745 0.0
C305 C 0.25807 0.53293 0.99619 0.0
C306 C 0.25582 0.55618 0.99818 0.0
C307 C 0.23402 0.55668 0.97862 0.0
H308 H 0.77779 0.34656 0.36402 0.0
H309 H 0.81119 0.29747 0.40688 0.0
H310 H 0.74029 0.30781 0.3296 0.0
H311 H 0.77258 0.25793 0.37391 0.0
H312 H 0.71173 0.19767 0.27151 0.0
H313 H 0.75114 0.23636 0.30455 0.0
H314 H 0.701 0.2685 0.34811 0.0
H315 H 0.66236 0.2309 0.31361 0.0
C316 C 0.77689 0.32733 0.36683 0.0
C317 C 0.79742 0.32511 0.38862 0.0
C318 C 0.75523 0.30497 0.34712 0.0
C319 C 0.75313 0.27954 0.34921 0.0
C320 C 0.77364 0.27722 0.37117 0.0
C321 C 0.79564 0.29982 0.39048 0.0
C322 C 0.70929 0.2132 0.28776 0.0
C323 C 0.68396 0.21135 0.28939 0.0
C324 C 0.73182 0.23525 0.30712 0.0
C325 C 0.72939 0.25574 0.3289 0.0
C326 C 0.70392 0.25357 0.33074 0.0
C327 C 0.68163 0.23186 0.31098 0.0
H328 H 0.51701 0.80989 0.73956 0.0
H329 H 0.43437 0.77644 0.69754 0.0
H330 H 0.51771 0.77105 0.70722 0.0
H331 H 0.43539 0.73866 0.6637 0.0
H332 H 0.43441 0.66063 0.64809 0.0
H333 H 0.43545 0.69938 0.68218 0.0
H334 H 0.51769 0.74939 0.63828 0.0
H335 H 0.51696 0.70989 0.60569 0.0
C336 C 0.49902 0.79427 0.72347 0.0
C337 C 0.47556 0.79613 0.72163 0.0
C338 C 0.49949 0.77213 0.70451 0.0
C339 C 0.47657 0.75154 0.6829 0.0
C340 C 0.45325 0.75367 0.68092 0.0
C341 C 0.45269 0.7755 0.70029 0.0
C342 C 0.45271 0.67989 0.64533 0.0
C343 C 0.47555 0.68216 0.62378 0.0
C344 C 0.45328 0.70225 0.66483 0.0
C345 C 0.47658 0.72772 0.66279 0.0
C346 C 0.49948 0.73007 0.64103 0.0
C347 C 0.49901 0.7075 0.62194 0.0
H348 H 0.70996 0.51263 0.07403 0.0
H349 H 0.66064 0.43027 0.03073 0.0
H350 H 0.74948 0.51341 0.04137 0.0
H351 H 0.69943 0.43138 0.99661 0.0
H352 H 0.77645 0.43032 0.9808 0.0
H353 H 0.73873 0.43127 0.01501 0.0
H354 H 0.77109 0.51369 0.97206 0.0
H355 H 0.80988 0.51305 0.93929 0.0
C356 C 0.70756 0.49472 0.05761 0.0
C357 C 0.68219 0.47131 0.05547 0.0
C358 C 0.73015 0.49523 0.03846 0.0
C359 C 0.72778 0.47242 0.01639 0.0
C360 C 0.7023 0.44915 0.01417 0.0
C361 C 0.67992 0.44853 0.0337 0.0
C362 C 0.77552 0.44865 0.97825 0.0
C363 C 0.79613 0.47156 0.95692 0.0
C364 C 0.75373 0.44917 0.99783 0.0
C365 C 0.7516 0.47249 0.99611 0.0
C366 C 0.77217 0.49546 0.97455 0.0
C367 C 0.79429 0.49504 0.95535 0.0
H368 H 0.1999 0.7092 0.40699 0.0
H369 H 0.23347 0.66021 0.36442 0.0
H370 H 0.23858 0.7488 0.37429 0.0
H371 H 0.27105 0.69904 0.33027 0.0
H372 H 0.34897 0.77607 0.31452 0.0
H373 H 0.31029 0.73837 0.34883 0.0
H374 H 0.26013 0.77046 0.3051 0.0
H375 H 0.29956 0.80923 0.27226 0.0
C376 C 0.2155 0.70689 0.39071 0.0
C377 C 0.21373 0.6816 0.38883 0.0
C378 C 0.23755 0.72952 0.37155 0.0
C379 C 0.25812 0.72725 0.34973 0.0
C380 C 0.25605 0.70183 0.34767 0.0
C381 C 0.23434 0.67943 0.36722 0.0
C382 C 0.32969 0.77508 0.31182 0.0
C383 C 0.32735 0.7956 0.29025 0.0
C384 C 0.30737 0.75331 0.33147 0.0
C385 C 0.28189 0.7511 0.32953 0.0
C386 C 0.27946 0.7716 0.30775 0.0
C387 C 0.302 0.7937 0.28851 0.0
H388 H 0.49597 0.19968 0.73811 0.0
H389 H 0.57877 0.2331 0.69704 0.0
H390 H 0.49545 0.23858 0.70565 0.0
H391 H 0.57794 0.27099 0.66307 0.0
H392 H 0.57862 0.34902 0.64649 0.0
H393 H 0.57777 0.31033 0.68071 0.0
H394 H 0.49564 0.26002 0.63657 0.0
H395 H 0.49618 0.29938 0.60389 0.0
C396 C 0.51403 0.21531 0.7222 0.0
C397 C 0.53747 0.2134 0.72061 0.0
C398 C 0.51368 0.23749 0.70317 0.0
C399 C 0.53668 0.25809 0.68172 0.0
C400 C 0.56001 0.25595 0.68011 0.0
C401 C 0.56046 0.23407 0.69955 0.0
C402 C 0.5604 0.3297 0.64371 0.0
C403 C 0.53752 0.32729 0.62213 0.0
C404 C 0.55993 0.30738 0.66329 0.0
C405 C 0.53668 0.28186 0.66131 0.0
C406 C 0.51379 0.27938 0.63936 0.0
C407 C 0.51416 0.30189 0.6202 0.0
H408 H 0.48434 0.55949 0.08616 0.0
H409 H 0.42727 0.47895 0.12974 0.0
H410 H 0.52017 0.54877 0.08906 0.0
H411 H 0.46341 0.46847 0.13471 0.0
H412 H 0.52679 0.44898 0.085 0.0
H413 H 0.49124 0.46001 0.08792 0.0
H414 H 0.54818 0.53988 0.13503 0.0
H415 H 0.58415 0.52907 0.13006 0.0
C416 C 0.4795 0.53956 0.09702 0.0
C417 C 0.4529 0.52002 0.1075 0.0
C418 C 0.50015 0.53346 0.09901 0.0
C419 C 0.49483 0.50772 0.11208 0.0
C420 C 0.46826 0.48836 0.12365 0.0
C421 C 0.44751 0.49438 0.12107 0.0
C422 C 0.53176 0.46888 0.09619 0.0
C423 C 0.55835 0.48818 0.10719 0.0
C424 C 0.51125 0.47517 0.0982 0.0
C425 C 0.51667 0.50084 0.11184 0.0
C426 C 0.54326 0.52003 0.12366 0.0
C427 C 0.5639 0.51382 0.12108 0.0
H428 H 0.95265 0.42483 0.46373 0.0
H429 H 0.92875 0.4815 0.41971 0.0
H430 H 0.99921 0.46118 0.4686 0.0
H431 H 0.97519 0.51749 0.42245 0.0
H432 H 0.05834 0.58201 0.46341 0.0
H433 H 0.01176 0.54569 0.46842 0.0
H434 H 0.0357 0.4893 0.42243 0.0
H435 H 0.08215 0.52527 0.41956 0.0
C436 C 0.95736 0.44503 0.45495 0.0
C437 C 0.937 0.45025 0.44134 0.0
C438 C 0.98409 0.46589 0.45746 0.0
C439 C 0.99114 0.4924 0.44578 0.0
C440 C 0.97062 0.49754 0.43255 0.0
C441 C 0.94392 0.47678 0.43065 0.0
C442 C 0.0536 0.56181 0.45469 0.0
C443 C 0.07394 0.55655 0.4411 0.0
C444 C 0.02687 0.54096 0.45727 0.0
C445 C 0.01979 0.51443 0.44571 0.0
C446 C 0.04029 0.50927 0.43247 0.0
C447 C 0.067 0.53 0.43049 0.0
H448 H 0.56007 0.08254 0.79751 0.0
H449 H 0.47895 0.05551 0.75287 0.0
H450 H 0.55004 0.03618 0.80257 0.0
H451 H 0.46915 0.0091 0.75586 0.0
H452 H 0.45198 0.92658 0.79737 0.0
H453 H 0.46192 0.97293 0.80208 0.0
H454 H 0.54303 1.00009 0.75647 0.0
H455 H 0.53332 0.95371 0.75383 0.0
C456 C 0.54007 0.06665 0.78868 0.0
C457 C 0.52031 0.0727 0.77469 0.0
C458 C 0.53436 0.04002 0.79124 0.0
C459 C 0.50883 0.01874 0.77927 0.0
C460 C 0.48892 0.02484 0.76602 0.0
C461 C 0.49455 0.0515 0.76407 0.0
C462 C 0.47201 0.94248 0.78871 0.0
C463 C 0.49186 0.93647 0.77515 0.0
C464 C 0.47767 0.9691 0.79107 0.0
C465 C 0.50324 0.99041 0.77933 0.0
C466 C 0.52323 0.98433 0.76647 0.0
C467 C 0.51765 0.95769 0.76471 0.0
H468 H 0.53277 0.582 0.58908 0.0
H469 H 0.45127 0.52818 0.54592 0.0
H470 H 0.54231 0.54525 0.58558 0.0
H471 H 0.46104 0.49167 0.54036 0.0
H472 H 0.4782 0.42583 0.58829 0.0
H473 H 0.46833 0.46243 0.58578 0.0
H474 H 0.5491 0.51636 0.53865 0.0
H475 H 0.55919 0.48006 0.54324 0.0
C476 C 0.51702 0.56241 0.5781 0.0
C477 C 0.49125 0.55799 0.568 0.0
C478 C 0.5225 0.5413 0.57584 0.0
C479 C 0.50243 0.51531 0.56279 0.0
C480 C 0.47686 0.51118 0.55145 0.0
C481 C 0.4713 0.5322 0.55431 0.0
C482 C 0.49374 0.44546 0.57706 0.0
C483 C 0.5195 0.45009 0.56625 0.0
C484 C 0.48808 0.46649 0.5754 0.0
C485 C 0.50796 0.49254 0.56227 0.0
C486 C 0.53345 0.49681 0.54994 0.0
C487 C 0.53919 0.47591 0.55223 0.0
H488 H 0.05801 0.47737 0.88232 0.0
H489 H 0.08146 0.55785 0.9261 0.0
H490 H 0.01136 0.4669 0.87734 0.0
H491 H 0.03494 0.54715 0.92325 0.0
H492 H 0.9517 0.52812 0.88212 0.0
H493 H 0.99835 0.53859 0.87721 0.0
H494 H 0.97476 0.45835 0.92331 0.0
H495 H 0.92824 0.44765 0.92608 0.0
C496 C 0.05318 0.49278 0.89103 0.0
C497 C 0.07344 0.51842 0.9046 0.0
C498 C 0.0264 0.48677 0.88846 0.0
C499 C 0.0192 0.50613 0.90003 0.0
C500 C 0.03962 0.53183 0.91323 0.0
C501 C 0.06637 0.53793 0.91519 0.0
C502 C 0.95653 0.51271 0.89089 0.0
C503 C 0.93627 0.48708 0.90448 0.0
C504 C 0.98331 0.51873 0.88836 0.0
C505 C 0.9905 0.49937 0.9 0.0
C506 C 0.97008 0.47367 0.91323 0.0
C507 C 0.94333 0.46757 0.91515 0.0
H508 H 0.42745 0.95312 0.25673 0.0
H509 H 0.48105 0.92545 0.21223 0.0
H510 H 0.46431 0.99941 0.25359 0.0
H511 H 0.51763 0.97169 0.20703 0.0
H512 H 0.58375 0.054 0.25598 0.0
H513 H 0.54687 0.00772 0.25324 0.0
H514 H 0.49342 0.03539 0.2071 0.0
H515 H 0.53004 0.08164 0.21189 0.0
C516 C 0.44701 0.95697 0.24553 0.0
C517 C 0.45136 0.93563 0.23499 0.0
C518 C 0.46818 0.98355 0.24348 0.0
C519 C 0.49412 0.98943 0.23023 0.0
C520 C 0.49816 0.96801 0.21834 0.0
C521 C 0.4771 0.94146 0.22099 0.0
C522 C 0.56416 0.05015 0.24494 0.0
C523 C 0.55979 0.07148 0.23441 0.0
C524 C 0.54297 0.02357 0.24313 0.0
C525 C 0.51699 0.01767 0.23012 0.0
C526 C 0.51293 0.03909 0.21823 0.0
C527 C 0.53401 0.06564 0.22064 0.0
H528 H 0.48012 0.61001 0.73189 0.0
H529 H 0.39441 0.55689 0.71862 0.0
H530 H 0.47617 0.60509 0.81359 0.0
H531 H 0.39048 0.55225 0.80069 0.0
H532 H 0.45246 0.61532 0.95783 0.0
H533 H 0.45706 0.61878 0.87579 0.0
H534 H 0.40354 0.53316 0.86406 0.0
H535 H 0.39866 0.52967 0.94585 0.0
C536 C 0.46042 0.5972 0.74636 0.0
C537 C 0.43755 0.58385 0.71868 0.0
C538 C 0.45817 0.59455 0.79324 0.0
C539 C 0.43302 0.57841 0.81358 0.0
C540 C 0.41019 0.56466 0.78594 0.0
C541 C 0.41242 0.56739 0.73896 0.0
C542 C 0.44178 0.59723 0.93778 0.0
C543 C 0.42519 0.57224 0.95841 0.0
C544 C 0.44449 0.59919 0.8908 0.0
C545 C 0.4306 0.57623 0.86349 0.0
C546 C 0.41422 0.55124 0.88416 0.0
C547 C 0.4116 0.54925 0.93108 0.0
H548 H 0.87333 0.39647 0.27992 0.0
H549 H 0.84085 0.44972 0.29243 0.0
H550 H 0.87438 0.40124 0.19815 0.0
H551 H 0.84166 0.45421 0.21037 0.0
H552 H 0.84058 0.39118 0.05349 0.0
H553 H 0.84171 0.38765 0.13555 0.0
H554 H 0.87408 0.4733 0.14746 0.0
H555 H 0.8727 0.47687 0.0657 0.0
C556 C 0.86649 0.40928 0.26527 0.0
C557 C 0.85699 0.42272 0.29274 0.0
C558 C 0.86693 0.41184 0.21836 0.0
C559 C 0.85801 0.428 0.19783 0.0
C560 C 0.8489 0.4418 0.22527 0.0
C561 C 0.84834 0.43915 0.27225 0.0
C562 C 0.84806 0.40927 0.0736 0.0
C563 C 0.8565 0.43428 0.05304 0.0
C564 C 0.8488 0.40726 0.12058 0.0
C565 C 0.85791 0.4302 0.14793 0.0
C566 C 0.86663 0.45523 0.12731 0.0
C567 C 0.866 0.45726 0.08041 0.0
H568 H 0.48055 0.87245 0.61205 0.0
H569 H 0.39496 0.84066 0.62531 0.0
H570 H 0.47663 0.87346 0.53032 0.0
H571 H 0.39106 0.8414 0.54328 0.0
H572 H 0.39921 0.87241 0.39869 0.0
H573 H 0.40431 0.87367 0.48038 0.0
H574 H 0.45736 0.84106 0.46763 0.0
H575 H 0.45255 0.84006 0.3856 0.0
C576 C 0.46089 0.86574 0.59758 0.0
C577 C 0.43804 0.85646 0.62526 0.0
C578 C 0.45865 0.86616 0.55068 0.0
C579 C 0.43355 0.85742 0.53035 0.0
C580 C 0.41074 0.8485 0.55801 0.0
C581 C 0.41295 0.84798 0.60498 0.0
C582 C 0.4121 0.86562 0.41319 0.0
C583 C 0.42548 0.85611 0.38557 0.0
C584 C 0.41485 0.86619 0.46007 0.0
C585 C 0.43113 0.85736 0.48045 0.0
C586 C 0.44486 0.84823 0.45286 0.0
C587 C 0.44203 0.84757 0.40589 0.0
H588 H 0.53082 0.39905 0.73048 0.0
H589 H 0.61655 0.45242 0.7182 0.0
H590 H 0.53442 0.40384 0.81223 0.0
H591 H 0.62013 0.45689 0.80026 0.0
H592 H 0.61188 0.47858 0.94566 0.0
H593 H 0.60706 0.47559 0.86382 0.0
H594 H 0.55318 0.38996 0.87436 0.0
H595 H 0.55768 0.39293 0.95638 0.0
C596 C 0.55044 0.41189 0.74517 0.0
C597 C 0.57343 0.42533 0.71778 0.0
C598 C 0.5525 0.41447 0.79208 0.0
C599 C 0.57756 0.43061 0.8127 0.0
C600 C 0.60049 0.44449 0.78531 0.0
C601 C 0.59846 0.44184 0.73832 0.0
C602 C 0.59888 0.45911 0.9306 0.0
C603 C 0.58516 0.43597 0.95758 0.0
C604 C 0.59627 0.4574 0.88366 0.0
C605 C 0.57982 0.43255 0.86264 0.0
C606 C 0.5658 0.40946 0.88962 0.0
C607 C 0.56846 0.41114 0.9366 0.0
H608 H 0.13731 0.52889 0.06608 0.0
H609 H 0.16935 0.61453 0.0531 0.0
H610 H 0.1362 0.53271 0.14783 0.0
H611 H 0.1685 0.61832 0.13512 0.0
H612 H 0.13749 0.61006 0.27977 0.0
H613 H 0.13612 0.60499 0.19804 0.0
H614 H 0.16881 0.55199 0.21042 0.0
H615 H 0.16993 0.55677 0.29244 0.0
C616 C 0.14404 0.54854 0.08062 0.0
C617 C 0.15344 0.57143 0.05302 0.0
C618 C 0.14357 0.55072 0.12752 0.0
C619 C 0.15236 0.57581 0.14791 0.0
C620 C 0.16136 0.59866 0.12033 0.0
C621 C 0.16194 0.5965 0.07337 0.0
C622 C 0.14427 0.59719 0.26516 0.0
C623 C 0.15384 0.58382 0.29267 0.0
C624 C 0.14363 0.59445 0.21828 0.0
C625 C 0.15245 0.57819 0.1978 0.0
C626 C 0.16164 0.56447 0.22528 0.0
C627 C 0.16238 0.5673 0.27224 0.0
H628 H 0.6173 0.16793 0.62412 0.0
H629 H 0.53169 0.13623 0.6114 0.0
H630 H 0.62095 0.16676 0.54208 0.0
H631 H 0.53537 0.13479 0.5297 0.0
H632 H 0.55903 0.16748 0.38454 0.0
H633 H 0.55449 0.16689 0.46658 0.0
H634 H 0.60744 0.13417 0.47961 0.0
H635 H 0.61227 0.13502 0.39788 0.0
C636 C 0.59925 0.16053 0.60391 0.0
C637 C 0.57423 0.15221 0.62433 0.0
C638 C 0.60133 0.15977 0.55694 0.0
C639 C 0.57844 0.15076 0.52945 0.0
C640 C 0.55341 0.14217 0.54993 0.0
C641 C 0.55131 0.14284 0.59681 0.0
C642 C 0.56958 0.16003 0.40489 0.0
C643 C 0.58603 0.15133 0.38464 0.0
C644 C 0.56691 0.1596 0.45187 0.0
C645 C 0.5807 0.15057 0.47954 0.0
C646 C 0.59686 0.14158 0.45923 0.0
C647 C 0.59946 0.14191 0.41234 0.0
loop_
_geom_bond_atom_site_label_1
_geom_bond_atom_site_label_2
_geom_bond_distance
_geom_bond_site_symmetry_2
_ccdc_geom_bond_type
C0 O2 1.247 . S
C0 O4 1.258 . S
C1 O8 1.247 . S
C1 O9 1.258 . S
O2 C0 1.247 . S
O2 Zn3 2.028 . S
Zn3 O2 2.028 . S
Zn3 O7 2.035 . S
Zn3 O9 2.035 . S
Zn3 O10 2.028 . S
O4 C0 1.258 . S
O4 Zn5 2.035 . S
Zn5 O4 2.035 . S
Zn5 O6 2.028 . S
Zn5 O8 2.028 . S
Zn5 O11 2.035 . S
O6 Zn5 2.028 . S
O6 C12 1.247 . S
O7 Zn3 2.035 . S
O7 C12 1.258 . S
O8 C1 1.247 . S
O8 Zn5 2.028 . S
O9 C1 1.258 . S
O9 Zn3 2.035 . S
O10 Zn3 2.028 . S
O10 C13 1.247 1_554 S
O11 Zn5 2.035 . S
O11 C13 1.258 1_554 S
C12 O6 1.247 . S
C12 O7 1.258 . S
C13 O10 1.247 1_556 S
C13 O11 1.258 1_556 S
C14 O16 1.247 . S
C14 O18 1.258 . S
C15 O22 1.247 . S
C15 O23 1.258 . S
O16 C14 1.247 . S
O16 Zn17 2.028 . S
Zn17 O16 2.028 . S
Zn17 O21 2.035 . S
Zn17 O23 2.035 . S
Zn17 O24 2.028 . S
O18 C14 1.258 . S
O18 Zn19 2.035 . S
Zn19 O18 2.035 . S
Zn19 O20 2.028 . S
Zn19 O22 2.028 . S
Zn19 O25 2.035 . S
O20 Zn19 2.028 . S
O20 C26 1.247 . S
O21 Zn17 2.035 . S
O21 C26 1.258 . S
O22 C15 1.247 . S
O22 Zn19 2.028 . S
O23 C15 1.258 . S
O23 Zn17 2.035 . S
O24 Zn17 2.028 . S
O24 C27 1.247 . S
O25 Zn19 2.035 . S
O25 C27 1.258 . S
C26 O20 1.247 . S
C26 O21 1.258 . S
C27 O24 1.247 . S
C27 O25 1.258 . S
C28 O30 1.247 . S
C28 O32 1.258 . S
C29 O36 1.247 . S
C29 O37 1.258 . S
O30 C28 1.247 . S
O30 Zn31 2.028 . S
Zn31 O30 2.028 . S
Zn31 O35 2.035 . S
Zn31 O37 2.035 . S
Zn31 O38 2.028 . S
O32 C28 1.258 . S
O32 Zn33 2.035 . S
Zn33 O32 2.035 . S
Zn33 O34 2.028 . S
Zn33 O36 2.028 . S
Zn33 O39 2.035 . S
O34 Zn33 2.028 . S
O34 C40 1.247 . S
O35 Zn31 2.035 . S
O35 C40 1.258 . S
O36 C29 1.247 . S
O36 Zn33 2.028 . S
O37 C29 1.258 . S
O37 Zn31 2.035 . S
O38 Zn31 2.028 . S
O38 C41 1.247 . S
O39 Zn33 2.035 . S
O39 C41 1.258 . S
C40 O34 1.247 . S
C40 O35 1.258 . S
C41 O38 1.247 . S
C41 O39 1.258 . S
C42 O44 1.247 1_556 S
C42 O46 1.258 1_556 S
C43 O50 1.247 . S
C43 O51 1.258 . S
O44 C42 1.247 1_554 S
O44 Zn45 2.028 . S
Zn45 O44 2.028 . S
Zn45 O49 2.035 . S
Zn45 O51 2.035 . S
Zn45 O52 2.028 . S
O46 C42 1.258 1_554 S
O46 Zn47 2.035 . S
Zn47 O46 2.035 . S
Zn47 O48 2.028 . S
Zn47 O50 2.028 . S
Zn47 O53 2.035 . S
O48 Zn47 2.028 . S
O48 C54 1.247 . S
O49 Zn45 2.035 . S
O49 C54 1.258 . S
O50 C43 1.247 . S
O50 Zn47 2.028 . S
O51 C43 1.258 . S
O51 Zn45 2.035 . S
O52 Zn45 2.028 . S
O52 C55 1.247 . S
O53 Zn47 2.035 . S
O53 C55 1.258 . S
C54 O48 1.247 . S
C54 O49 1.258 . S
C55 O52 1.247 . S
C55 O53 1.258 . S
C56 O58 1.247 . S
C56 O60 1.258 . S
C57 O64 1.247 . S
C57 O65 1.258 . S
O58 C56 1.247 . S
O58 Zn59 2.028 . S
Zn59 O58 2.028 . S
Zn59 O63 2.035 . S
Zn59 O65 2.035 . S
Zn59 O66 2.028 . S
O60 C56 1.258 . S
O60 Zn61 2.035 . S
Zn61 O60 2.035 . S
Zn61 O62 2.028 . S
Zn61 O64 2.028 . S
Zn61 O67 2.035 . S
O62 Zn61 2.028 . S
O62 C68 1.247 . S
O63 Zn59 2.035 . S
O63 C68 1.258 . S
O64 C57 1.247 . S
O64 Zn61 2.028 . S
O65 C57 1.258 . S
O65 Zn59 2.035 . S
O66 Zn59 2.028 . S
O66 C69 1.247 . S
O67 Zn61 2.035 . S
O67 C69 1.258 . S
C68 O62 1.247 . S
C68 O63 1.258 . S
C69 O66 1.247 . S
C69 O67 1.258 . S
C70 O72 1.247 . S
C70 O74 1.258 . S
C71 O78 1.247 . S
C71 O79 1.258 . S
O72 C70 1.247 . S
O72 Zn73 2.028 . S
Zn73 O72 2.028 . S
Zn73 O77 2.035 . S
Zn73 O79 2.035 . S
Zn73 O80 2.028 . S
O74 C70 1.258 . S
O74 Zn75 2.035 . S
Zn75 O74 2.035 . S
Zn75 O76 2.028 . S
Zn75 O78 2.028 . S
Zn75 O81 2.035 . S
O76 Zn75 2.028 . S
O76 C82 1.247 . S
O77 Zn73 2.035 . S
O77 C82 1.258 . S
O78 C71 1.247 . S
O78 Zn75 2.028 . S
O79 C71 1.258 . S
O79 Zn73 2.035 . S
O80 Zn73 2.028 . S
O80 C83 1.247 . S
O81 Zn75 2.035 . S
O81 C83 1.258 . S
C82 O76 1.247 . S
C82 O77 1.258 . S
C83 O80 1.247 . S
C83 O81 1.258 . S
C84 O86 1.247 . S
C84 O88 1.258 . S
C85 O92 1.247 . S
C85 O93 1.258 . S
O86 C84 1.247 . S
O86 Zn87 2.028 . S
Zn87 O86 2.028 . S
Zn87 O91 2.035 . S
Zn87 O93 2.035 . S
Zn87 O94 2.028 . S
O88 C84 1.258 . S
O88 Zn89 2.035 . S
Zn89 O88 2.035 . S
Zn89 O90 2.028 . S
Zn89 O92 2.028 . S
Zn89 O95 2.035 . S
O90 Zn89 2.028 . S
O90 C96 1.247 . S
O91 Zn87 2.035 . S
O91 C96 1.258 . S
O92 C85 1.247 . S
O92 Zn89 2.028 . S
O93 C85 1.258 . S
O93 Zn87 2.035 . S
O94 Zn87 2.028 . S
O94 C97 1.247 . S
O95 Zn89 2.035 . S
O95 C97 1.258 . S
C96 O90 1.247 . S
C96 O91 1.258 . S
C97 O94 1.247 . S
C97 O95 1.258 . S
C98 O100 1.247 . S
C98 O102 1.258 . S
C99 O106 1.247 1_554 S
C99 O107 1.258 1_554 S
O100 C98 1.247 . S
O100 Zn101 2.028 . S
Zn101 O100 2.028 . S
Zn101 O105 2.035 . S
Zn101 O107 2.035 . S
Zn101 O108 2.028 . S
O102 C98 1.258 . S
O102 Zn103 2.035 . S
Zn103 O102 2.035 . S
Zn103 O104 2.028 . S
Zn103 O106 2.028 . S
Zn103 O109 2.035 . S
O104 Zn103 2.028 . S
O104 C110 1.247 . S
O105 Zn101 2.035 . S
O105 C110 1.258 . S
O106 C99 1.247 1_556 S
O106 Zn103 2.028 . S
O107 C99 1.258 1_556 S
O107 Zn101 2.035 . S
O108 Zn101 2.028 . S
O108 C111 1.247 . S
O109 Zn103 2.035 . S
O109 C111 1.258 . S
C110 O104 1.247 . S
C110 O105 1.258 . S
C111 O108 1.247 . S
C111 O109 1.258 . S
C112 O114 1.247 . S
C112 O116 1.258 . S
C113 O120 1.247 . S
C113 O121 1.258 . S
O114 C112 1.247 . S
O114 Zn115 2.028 . S
Zn115 O114 2.028 . S
Zn115 O119 2.035 . S
Zn115 O121 2.035 . S
Zn115 O122 2.028 . S
O116 C112 1.258 . S
O116 Zn117 2.035 . S
Zn117 O116 2.035 . S
Zn117 O118 2.028 . S
Zn117 O120 2.028 . S
Zn117 O123 2.035 . S
O118 Zn117 2.028 . S
O118 C124 1.247 . S
O119 Zn115 2.035 . S
O119 C124 1.258 . S
O120 C113 1.247 . S
O120 Zn117 2.028 . S
O121 C113 1.258 . S
O121 Zn115 2.035 . S
O122 Zn115 2.028 . S
O122 C125 1.247 . S
O123 Zn117 2.035 . S
O123 C125 1.258 . S
C124 O118 1.247 . S
C124 O119 1.258 . S
C125 O122 1.247 . S
C125 O123 1.258 . S
C126 O128 1.247 . S
C126 O130 1.258 . S
C127 O134 1.247 . S
C127 O135 1.258 . S
O128 C126 1.247 . S
O128 Zn129 2.028 . S
Zn129 O128 2.028 . S
Zn129 O133 2.035 . S
Zn129 O135 2.035 . S
Zn129 O136 2.028 . S
O130 C126 1.258 . S
O130 Zn131 2.035 . S
Zn131 O130 2.035 . S
Zn131 O132 2.028 . S
Zn131 O134 2.028 . S
Zn131 O137 2.035 . S
O132 Zn131 2.028 . S
O132 C138 1.247 . S
O133 Zn129 2.035 . S
O133 C138 1.258 . S
O134 C127 1.247 . S
O134 Zn131 2.028 . S
O135 C127 1.258 . S
O135 Zn129 2.035 . S
O136 Zn129 2.028 . S
O136 C139 1.247 . S
O137 Zn131 2.035 . S
O137 C139 1.258 . S
C138 O132 1.247 . S
C138 O133 1.258 . S
C139 O136 1.247 . S
C139 O137 1.258 . S
C140 O142 1.247 . S
C140 O144 1.258 . S
C141 O148 1.247 1_554 S
C141 O149 1.258 1_554 S
O142 C140 1.247 . S
O142 Zn143 2.028 . S
Zn143 O142 2.028 . S
Zn143 O147 2.035 . S
Zn143 O149 2.035 . S
Zn143 O150 2.028 . S
O144 C140 1.258 . S
O144 Zn145 2.035 . S
Zn145 O144 2.035 . S
Zn145 O146 2.028 . S
Zn145 O148 2.028 . S
Zn145 O151 2.035 . S
O146 Zn145 2.028 . S
O146 C152 1.247 . S
O147 Zn143 2.035 . S
O147 C152 1.258 . S
O148 C141 1.247 1_556 S
O148 Zn145 2.028 . S
O149 C141 1.258 1_556 S
O149 Zn143 2.035 . S
O150 Zn143 2.028 . S
O150 C153 1.247 . S
O151 Zn145 2.035 . S
O151 C153 1.258 . S
C152 O146 1.247 . S
C152 O147 1.258 . S
C153 O150 1.247 . S
C153 O151 1.258 . S
C154 O156 1.247 . S
C154 O158 1.258 . S
C155 O162 1.247 . S
C155 O163 1.258 . S
O156 C154 1.247 . S
O156 Zn157 2.028 . S
Zn157 O156 2.028 . S
Zn157 O161 2.035 . S
Zn157 O163 2.035 . S
Zn157 O164 2.028 . S
O158 C154 1.258 . S
O158 Zn159 2.035 . S
Zn159 O158 2.035 . S
Zn159 O160 2.028 . S
Zn159 O162 2.028 . S
Zn159 O165 2.035 . S
O160 Zn159 2.028 . S
O160 C166 1.247 . S
O161 Zn157 2.035 . S
O161 C166 1.258 . S
O162 C155 1.247 . S
O162 Zn159 2.028 . S
O163 C155 1.258 . S
O163 Zn157 2.035 . S
O164 Zn157 2.028 . S
O164 C167 1.247 . S
O165 Zn159 2.035 . S
O165 C167 1.258 . S
C166 O160 1.247 . S
C166 O161 1.258 . S
C167 O164 1.247 . S
C167 O165 1.258 . S
H168 C176 0.950 . S
H169 C181 0.950 . S
H170 C178 0.950 . S
H171 C180 0.950 . S
H172 C182 0.950 . S
H173 C184 0.950 . S
H174 C186 0.950 . S
H175 C187 0.950 . S
C176 H168 0.950 . S
C176 C177 1.386 . S
C176 C178 1.391 . S
C177 C176 1.386 . S
C177 C181 1.393 . S
C178 H170 0.950 . S
C178 C176 1.391 . S
C178 C179 1.400 . S
C179 C178 1.400 . S
C179 C180 1.398 . S
C179 C185 1.491 . S
C180 H171 0.950 . S
C180 C179 1.398 . S
C180 C181 1.391 . S
C181 H169 0.950 . S
C181 C177 1.393 . S
C181 C180 1.391 . S
C182 H172 0.950 . S
C182 C183 1.386 . S
C182 C184 1.391 . S
C183 C182 1.386 . S
C183 C187 1.393 . S
C184 H173 0.950 . S
C184 C182 1.391 . S
C184 C185 1.400 . S
C185 C179 1.491 . S
C185 C184 1.400 . S
C185 C186 1.398 . S
C186 H174 0.950 . S
C186 C185 1.398 . S
C186 C187 1.391 . S
C187 H175 0.950 . S
C187 C183 1.393 . S
C187 C186 1.391 . S
H188 C196 0.950 . S
H189 C201 0.950 . S
H190 C198 0.950 . S
H191 C200 0.950 . S
H192 C202 0.950 . S
H193 C204 0.950 . S
H194 C206 0.950 . S
H195 C207 0.950 . S
C196 H188 0.950 . S
C196 C197 1.386 . S
C196 C198 1.391 . S
C197 C196 1.386 . S
C197 C201 1.393 . S
C198 H190 0.950 . S
C198 C196 1.391 . S
C198 C199 1.400 . S
C199 C198 1.400 . S
C199 C200 1.398 . S
C199 C205 1.491 . S
C200 H191 0.950 . S
C200 C199 1.398 . S
C200 C201 1.391 . S
C201 H189 0.950 . S
C201 C197 1.393 . S
C201 C200 1.391 . S
C202 H192 0.950 . S
C202 C203 1.386 . S
C202 C204 1.391 . S
C203 C202 1.386 . S
C203 C207 1.393 . S
C204 H193 0.950 . S
C204 C202 1.391 . S
C204 C205 1.400 . S
C205 C199 1.491 . S
C205 C204 1.400 . S
C205 C206 1.398 . S
C206 H194 0.950 . S
C206 C205 1.398 . S
C206 C207 1.391 . S
C207 H195 0.950 . S
C207 C203 1.393 . S
C207 C206 1.391 . S
H208 C216 0.950 . S
H209 C221 0.950 . S
H210 C218 0.950 . S
H211 C220 0.950 . S
H212 C222 0.950 . S
H213 C224 0.950 . S
H214 C226 0.950 . S
H215 C227 0.950 . S
C216 H208 0.950 . S
C216 C217 1.386 . S
C216 C218 1.391 . S
C217 C216 1.386 . S
C217 C221 1.393 . S
C218 H210 0.950 . S
C218 C216 1.391 . S
C218 C219 1.400 . S
C219 C218 1.400 . S
C219 C220 1.398 . S
C219 C225 1.491 1_556 S
C220 H211 0.950 . S
C220 C219 1.398 . S
C220 C221 1.391 . S
C221 H209 0.950 . S
C221 C217 1.393 . S
C221 C220 1.391 . S
C222 H212 0.950 . S
C222 C223 1.386 . S
C222 C224 1.391 . S
C223 C222 1.386 . S
C223 C227 1.393 . S
C224 H213 0.950 . S
C224 C222 1.391 . S
C224 C225 1.400 . S
C225 C219 1.491 1_554 S
C225 C224 1.400 . S
C225 C226 1.398 . S
C226 H214 0.950 . S
C226 C225 1.398 . S
C226 C227 1.391 . S
C227 H215 0.950 . S
C227 C223 1.393 . S
C227 C226 1.391 . S
H228 C236 0.950 . S
H229 C241 0.950 . S
H230 C238 0.950 . S
H231 C240 0.950 . S
H232 C242 0.950 . S
H233 C244 0.950 . S
H234 C246 0.950 . S
H235 C247 0.950 . S
C236 H228 0.950 . S
C236 C237 1.386 . S
C236 C238 1.391 . S
C237 C236 1.386 . S
C237 C241 1.393 . S
C238 H230 0.950 . S
C238 C236 1.391 . S
C238 C239 1.400 . S
C239 C238 1.400 . S
C239 C240 1.398 . S
C239 C245 1.491 . S
C240 H231 0.950 . S
C240 C239 1.398 . S
C240 C241 1.391 . S
C241 H229 0.950 . S
C241 C237 1.393 . S
C241 C240 1.391 . S
C242 H232 0.950 . S
C242 C243 1.386 . S
C242 C244 1.391 . S
C243 C242 1.386 . S
C243 C247 1.393 . S
C244 H233 0.950 . S
C244 C242 1.391 . S
C244 C245 1.400 . S
C245 C239 1.491 . S
C245 C244 1.400 . S
C245 C246 1.398 . S
C246 H234 0.950 . S
C246 C245 1.398 . S
C246 C247 1.391 . S
C247 H235 0.950 . S
C247 C243 1.393 . S
C247 C246 1.391 . S
H248 C256 0.950 . S
H249 C261 0.950 . S
H250 C258 0.950 . S
H251 C260 0.950 . S
H252 C262 0.950 . S
H253 C264 0.950 . S
H254 C266 0.950 . S
H255 C267 0.950 . S
C256 H248 0.950 . S
C256 C257 1.386 . S
C256 C258 1.391 . S
C257 C256 1.386 . S
C257 C261 1.393 . S
C258 H250 0.950 . S
C258 C256 1.391 . S
C258 C259 1.400 . S
C259 C258 1.400 . S
C259 C260 1.398 . S
C259 C265 1.491 . S
C260 H251 0.950 . S
C260 C259 1.398 . S
C260 C261 1.391 . S
C261 H249 0.950 . S
C261 C257 1.393 . S
C261 C260 1.391 . S
C262 H252 0.950 . S
C262 C263 1.386 . S
C262 C264 1.391 . S
C263 C262 1.386 . S
C263 C267 1.393 . S
C264 H253 0.950 . S
C264 C262 1.391 . S
C264 C265 1.400 . S
C265 C259 1.491 . S
C265 C264 1.400 . S
C265 C266 1.398 . S
C266 H254 0.950 . S
C266 C265 1.398 . S
C266 C267 1.391 . S
C267 H255 0.950 . S
C267 C263 1.393 . S
C267 C266 1.391 . S
H268 C276 0.950 . S
H269 C281 0.950 . S
H270 C278 0.950 . S
H271 C280 0.950 . S
H272 C282 0.950 . S
H273 C284 0.950 . S
H274 C286 0.950 . S
H275 C287 0.950 . S
C276 H268 0.950 . S
C276 C277 1.386 . S
C276 C278 1.391 . S
C277 C276 1.386 . S
C277 C281 1.393 . S
C278 H270 0.950 . S
C278 C276 1.391 . S
C278 C279 1.400 . S
C279 C278 1.400 . S
C279 C280 1.398 . S
C279 C285 1.491 1_554 S
C280 H271 0.950 . S
C280 C279 1.398 . S
C280 C281 1.391 . S
C281 H269 0.950 . S
C281 C277 1.393 . S
C281 C280 1.391 . S
C282 H272 0.950 . S
C282 C283 1.386 . S
C282 C284 1.391 . S
C283 C282 1.386 . S
C283 C287 1.393 . S
C284 H273 0.950 . S
C284 C282 1.391 . S
C284 C285 1.400 . S
C285 C279 1.491 1_556 S
C285 C284 1.400 . S
C285 C286 1.398 . S
C286 H274 0.950 . S
C286 C285 1.398 . S
C286 C287 1.391 . S
C287 H275 0.950 . S
C287 C283 1.393 . S
C287 C286 1.391 . S
H288 C296 0.950 . S
H289 C301 0.950 . S
H290 C298 0.950 1_556 S
H291 C300 0.950 . S
H292 C302 0.950 . S
H293 C304 0.950 1_554 S
H294 C306 0.950 . S
H295 C307 0.950 . S
C296 H288 0.950 . S
C296 C297 1.386 . S
C296 C298 1.391 . S
C297 C296 1.386 . S
C297 C301 1.393 . S
C298 H290 0.950 1_554 S
C298 C296 1.391 . S
C298 C299 1.400 . S
C299 C298 1.400 . S
C299 C300 1.398 . S
C299 C305 1.491 1_554 S
C300 H291 0.950 . S
C300 C299 1.398 . S
C300 C301 1.391 . S
C301 H289 0.950 . S
C301 C297 1.393 . S
C301 C300 1.391 . S
C302 H292 0.950 . S
C302 C303 1.386 . S
C302 C304 1.391 . S
C303 C302 1.386 . S
C303 C307 1.393 . S
C304 H293 0.950 1_556 S
C304 C302 1.391 . S
C304 C305 1.400 . S
C305 C299 1.491 1_556 S
C305 C304 1.400 . S
C305 C306 1.398 . S
C306 H294 0.950 . S
C306 C305 1.398 . S
C306 C307 1.391 . S
C307 H295 0.950 . S
C307 C303 1.393 . S
C307 C306 1.391 . S
H308 C316 0.950 . S
H309 C321 0.950 . S
H310 C318 0.950 . S
H311 C320 0.950 . S
H312 C322 0.950 . S
H313 C324 0.950 . S
H314 C326 0.950 . S
H315 C327 0.950 . S
C316 H308 0.950 . S
C316 C317 1.386 . S
C316 C318 1.391 . S
C317 C316 1.386 . S
C317 C321 1.393 . S
C318 H310 0.950 . S
C318 C316 1.391 . S
C318 C319 1.400 . S
C319 C318 1.400 . S
C319 C320 1.398 . S
C319 C325 1.491 . S
C320 H311 0.950 . S
C320 C319 1.398 . S
C320 C321 1.391 . S
C321 H309 0.950 . S
C321 C317 1.393 . S
C321 C320 1.391 . S
C322 H312 0.950 . S
C322 C323 1.386 . S
C322 C324 1.391 . S
C323 C322 1.386 . S
C323 C327 1.393 . S
C324 H313 0.950 . S
C324 C322 1.391 . S
C324 C325 1.400 . S
C325 C319 1.491 . S
C325 C324 1.400 . S
C325 C326 1.398 . S
C326 H314 0.950 . S
C326 C325 1.398 . S
C326 C327 1.391 . S
C327 H315 0.950 . S
C327 C323 1.393 . S
C327 C326 1.391 . S
H328 C336 0.950 . S
H329 C341 0.950 . S
H330 C338 0.950 . S
H331 C340 0.950 . S
H332 C342 0.950 . S
H333 C344 0.950 . S
H334 C346 0.950 . S
H335 C347 0.950 . S
C336 H328 0.950 . S
C336 C337 1.386 . S
C336 C338 1.391 . S
C337 C336 1.386 . S
C337 C341 1.393 . S
C338 H330 0.950 . S
C338 C336 1.391 . S
C338 C339 1.400 . S
C339 C338 1.400 . S
C339 C340 1.398 . S
C339 C345 1.491 . S
C340 H331 0.950 . S
C340 C339 1.398 . S
C340 C341 1.391 . S
C341 H329 0.950 . S
C341 C337 1.393 . S
C341 C340 1.391 . S
C342 H332 0.950 . S
C342 C343 1.386 . S
C342 C344 1.391 . S
C343 C342 1.386 . S
C343 C347 1.393 . S
C344 H333 0.950 . S
C344 C342 1.391 . S
C344 C345 1.400 . S
C345 C339 1.491 . S
C345 C344 1.400 . S
C345 C346 1.398 . S
C346 H334 0.950 . S
C346 C345 1.398 . S
C346 C347 1.391 . S
C347 H335 0.950 . S
C347 C343 1.393 . S
C347 C346 1.391 . S
H348 C356 0.950 1_556 S
H349 C361 0.950 . S
H350 C358 0.950 . S
H351 C360 0.950 . S
H352 C362 0.950 1_554 S
H353 C364 0.950 . S
H354 C366 0.950 . S
H355 C367 0.950 . S
C356 H348 0.950 1_554 S
C356 C357 1.386 . S
C356 C358 1.391 1_554 S
C357 C356 1.386 . S
C357 C361 1.393 . S
C358 H350 0.950 . S
C358 C356 1.391 1_556 S
C358 C359 1.400 1_556 S
C359 C358 1.400 1_554 S
C359 C360 1.398 . S
C359 C365 1.491 1_554 S
C360 H351 0.950 . S
C360 C359 1.398 . S
C360 C361 1.391 . S
C361 H349 0.950 . S
C361 C357 1.393 . S
C361 C360 1.391 . S
C362 H352 0.950 1_556 S
C362 C363 1.386 . S
C362 C364 1.391 1_556 S
C363 C362 1.386 . S
C363 C367 1.393 . S
C364 H353 0.950 . S
C364 C362 1.391 1_554 S
C364 C365 1.400 1_554 S
C365 C359 1.491 1_556 S
C365 C364 1.400 1_556 S
C365 C366 1.398 . S
C366 H354 0.950 . S
C366 C365 1.398 . S
C366 C367 1.391 . S
C367 H355 0.950 . S
C367 C363 1.393 . S
C367 C366 1.391 . S
H368 C376 0.950 . S
H369 C381 0.950 . S
H370 C378 0.950 . S
H371 C380 0.950 . S
H372 C382 0.950 . S
H373 C384 0.950 . S
H374 C386 0.950 . S
H375 C387 0.950 . S
C376 H368 0.950 . S
C376 C377 1.386 . S
C376 C378 1.391 . S
C377 C376 1.386 . S
C377 C381 1.393 . S
C378 H370 0.950 . S
C378 C376 1.391 . S
C378 C379 1.400 . S
C379 C378 1.400 . S
C379 C380 1.398 . S
C379 C385 1.491 . S
C380 H371 0.950 . S
C380 C379 1.398 . S
C380 C381 1.391 . S
C381 H369 0.950 . S
C381 C377 1.393 . S
C381 C380 1.391 . S
C382 H372 0.950 . S
C382 C383 1.386 . S
C382 C384 1.391 . S
C383 C382 1.386 . S
C383 C387 1.393 . S
C384 H373 0.950 . S
C384 C382 1.391 . S
C384 C385 1.400 . S
C385 C379 1.491 . S
C385 C384 1.400 . S
C385 C386 1.398 . S
C386 H374 0.950 . S
C386 C385 1.398 . S
C386 C387 1.391 . S
C387 H375 0.950 . S
C387 C383 1.393 . S
C387 C386 1.391 . S
H388 C396 0.950 . S
H389 C401 0.950 . S
H390 C398 0.950 . S
H391 C400 0.950 . S
H392 C402 0.950 . S
H393 C404 0.950 . S
H394 C406 0.950 . S
H395 C407 0.950 . S
C396 H388 0.950 . S
C396 C397 1.386 . S
C396 C398 1.391 . S
C397 C396 1.386 . S
C397 C401 1.393 . S
C398 H390 0.950 . S
C398 C396 1.391 . S
C398 C399 1.400 . S
C399 C398 1.400 . S
C399 C400 1.398 . S
C399 C405 1.491 . S
C400 H391 0.950 . S
C400 C399 1.398 . S
C400 C401 1.391 . S
C401 H389 0.950 . S
C401 C397 1.393 . S
C401 C400 1.391 . S
C402 H392 0.950 . S
C402 C403 1.386 . S
C402 C404 1.391 . S
C403 C402 1.386 . S
C403 C407 1.393 . S
C404 H393 0.950 . S
C404 C402 1.391 . S
C404 C405 1.400 . S
C405 C399 1.491 . S
C405 C404 1.400 . S
C405 C406 1.398 . S
C406 H394 0.950 . S
C406 C405 1.398 . S
C406 C407 1.391 . S
C407 H395 0.950 . S
C407 C403 1.393 . S
C407 C406 1.391 . S
H408 C416 0.950 . S
H409 C421 0.950 . S
H410 C418 0.950 . S
H411 C420 0.950 . S
H412 C422 0.950 . S
H413 C424 0.950 . S
H414 C426 0.950 . S
H415 C427 0.950 . S
C416 H408 0.950 . S
C416 C417 1.386 . S
C416 C418 1.391 . S
C417 C416 1.386 . S
C417 C421 1.393 . S
C418 H410 0.950 . S
C418 C416 1.391 . S
C418 C419 1.400 . S
C419 C418 1.400 . S
C419 C420 1.398 . S
C419 C425 1.491 . S
C420 H411 0.950 . S
C420 C419 1.398 . S
C420 C421 1.391 . S
C421 H409 0.950 . S
C421 C417 1.393 . S
C421 C420 1.391 . S
C422 H412 0.950 . S
C422 C423 1.386 . S
C422 C424 1.391 . S
C423 C422 1.386 . S
C423 C427 1.393 . S
C424 H413 0.950 . S
C424 C422 1.391 . S
C424 C425 1.400 . S
C425 C419 1.491 . S
C425 C424 1.400 . S
C425 C426 1.398 . S
C426 H414 0.950 . S
C426 C425 1.398 . S
C426 C427 1.391 . S
C427 H415 0.950 . S
C427 C423 1.393 . S
C427 C426 1.391 . S
H428 C436 0.950 . S
H429 C441 0.950 . S
H430 C438 0.950 . S
H431 C440 0.950 . S
H432 C442 0.950 . S
H433 C444 0.950 . S
H434 C446 0.950 . S
H435 C447 0.950 . S
C436 H428 0.950 . S
C436 C437 1.386 . S
C436 C438 1.391 . S
C437 C436 1.386 . S
C437 C441 1.393 . S
C438 H430 0.950 . S
C438 C436 1.391 . S
C438 C439 1.400 . S
C439 C438 1.400 . S
C439 C440 1.398 . S
C439 C445 1.491 1_655 S
C440 H431 0.950 . S
C440 C439 1.398 . S
C440 C441 1.391 . S
C441 H429 0.950 . S
C441 C437 1.393 . S
C441 C440 1.391 . S
C442 H432 0.950 . S
C442 C443 1.386 . S
C442 C444 1.391 . S
C443 C442 1.386 . S
C443 C447 1.393 . S
C444 H433 0.950 . S
C444 C442 1.391 . S
C444 C445 1.400 . S
C445 C439 1.491 1_455 S
C445 C444 1.400 . S
C445 C446 1.398 . S
C446 H434 0.950 . S
C446 C445 1.398 . S
C446 C447 1.391 . S
C447 H435 0.950 . S
C447 C443 1.393 . S
C447 C446 1.391 . S
H448 C456 0.950 . S
H449 C461 0.950 . S
H450 C458 0.950 . S
H451 C460 0.950 . S
H452 C462 0.950 . S
H453 C464 0.950 . S
H454 C466 0.950 . S
H455 C467 0.950 . S
C456 H448 0.950 . S
C456 C457 1.386 . S
C456 C458 1.391 . S
C457 C456 1.386 . S
C457 C461 1.393 . S
C458 H450 0.950 . S
C458 C456 1.391 . S
C458 C459 1.400 . S
C459 C458 1.400 . S
C459 C460 1.398 . S
C459 C465 1.491 1_545 S
C460 H451 0.950 . S
C460 C459 1.398 . S
C460 C461 1.391 . S
C461 H449 0.950 . S
C461 C457 1.393 . S
C461 C460 1.391 . S
C462 H452 0.950 . S
C462 C463 1.386 . S
C462 C464 1.391 . S
C463 C462 1.386 . S
C463 C467 1.393 . S
C464 H453 0.950 . S
C464 C462 1.391 . S
C464 C465 1.400 . S
C465 C459 1.491 1_565 S
C465 C464 1.400 . S
C465 C466 1.398 . S
C466 H454 0.950 . S
C466 C465 1.398 . S
C466 C467 1.391 . S
C467 H455 0.950 . S
C467 C463 1.393 . S
C467 C466 1.391 . S
H468 C476 0.950 . S
H469 C481 0.950 . S
H470 C478 0.950 . S
H471 C480 0.950 . S
H472 C482 0.950 . S
H473 C484 0.950 . S
H474 C486 0.950 . S
H475 C487 0.950 . S
C476 H468 0.950 . S
C476 C477 1.386 . S
C476 C478 1.391 . S
C477 C476 1.386 . S
C477 C481 1.393 . S
C478 H470 0.950 . S
C478 C476 1.391 . S
C478 C479 1.400 . S
C479 C478 1.400 . S
C479 C480 1.398 . S
C479 C485 1.491 . S
C480 H471 0.950 . S
C480 C479 1.398 . S
C480 C481 1.391 . S
C481 H469 0.950 . S
C481 C477 1.393 . S
C481 C480 1.391 . S
C482 H472 0.950 . S
C482 C483 1.386 . S
C482 C484 1.391 . S
C483 C482 1.386 . S
C483 C487 1.393 . S
C484 H473 0.950 . S
C484 C482 1.391 . S
C484 C485 1.400 . S
C485 C479 1.491 . S
C485 C484 1.400 . S
C485 C486 1.398 . S
C486 H474 0.950 . S
C486 C485 1.398 . S
C486 C487 1.391 . S
C487 H475 0.950 . S
C487 C483 1.393 . S
C487 C486 1.391 . S
H488 C496 0.950 . S
H489 C501 0.950 . S
H490 C498 0.950 . S
H491 C500 0.950 . S
H492 C502 0.950 . S
H493 C504 0.950 . S
H494 C506 0.950 . S
H495 C507 0.950 . S
C496 H488 0.950 . S
C496 C497 1.386 . S
C496 C498 1.391 . S
C497 C496 1.386 . S
C497 C501 1.393 . S
C498 H490 0.950 . S
C498 C496 1.391 . S
C498 C499 1.400 . S
C499 C498 1.400 . S
C499 C500 1.398 . S
C499 C505 1.491 1_455 S
C500 H491 0.950 . S
C500 C499 1.398 . S
C500 C501 1.391 . S
C501 H489 0.950 . S
C501 C497 1.393 . S
C501 C500 1.391 . S
C502 H492 0.950 . S
C502 C503 1.386 . S
C502 C504 1.391 . S
C503 C502 1.386 . S
C503 C507 1.393 . S
C504 H493 0.950 . S
C504 C502 1.391 . S
C504 C505 1.400 . S
C505 C499 1.491 1_655 S
C505 C504 1.400 . S
C505 C506 1.398 . S
C506 H494 0.950 . S
C506 C505 1.398 . S
C506 C507 1.391 . S
C507 H495 0.950 . S
C507 C503 1.393 . S
C507 C506 1.391 . S
H508 C516 0.950 . S
H509 C521 0.950 . S
H510 C518 0.950 . S
H511 C520 0.950 . S
H512 C522 0.950 . S
H513 C524 0.950 . S
H514 C526 0.950 . S
H515 C527 0.950 . S
C516 H508 0.950 . S
C516 C517 1.386 . S
C516 C518 1.391 . S
C517 C516 1.386 . S
C517 C521 1.393 . S
C518 H510 0.950 . S
C518 C516 1.391 . S
C518 C519 1.400 . S
C519 C518 1.400 . S
C519 C520 1.398 . S
C519 C525 1.491 1_565 S
C520 H511 0.950 . S
C520 C519 1.398 . S
C520 C521 1.391 . S
C521 H509 0.950 . S
C521 C517 1.393 . S
C521 C520 1.391 . S
C522 H512 0.950 . S
C522 C523 1.386 . S
C522 C524 1.391 . S
C523 C522 1.386 . S
C523 C527 1.393 . S
C524 H513 0.950 . S
C524 C522 1.391 . S
C524 C525 1.400 . S
C525 C519 1.491 1_545 S
C525 C524 1.400 . S
C525 C526 1.398 . S
C526 H514 0.950 . S
C526 C525 1.398 . S
C526 C527 1.391 . S
C527 H515 0.950 . S
C527 C523 1.393 . S
C527 C526 1.391 . S
H528 C536 0.950 . S
H529 C541 0.950 . S
H530 C538 0.950 . S
H531 C540 0.950 . S
H532 C542 0.950 . S
H533 C544 0.950 . S
H534 C546 0.950 . S
H535 C547 0.950 . S
C536 H528 0.950 . S
C536 C537 1.386 . S
C536 C538 1.391 . S
C537 C536 1.386 . S
C537 C541 1.393 . S
C538 H530 0.950 . S
C538 C536 1.391 . S
C538 C539 1.400 . S
C539 C538 1.400 . S
C539 C540 1.398 . S
C539 C545 1.491 . S
C540 H531 0.950 . S
C540 C539 1.398 . S
C540 C541 1.391 . S
C541 H529 0.950 . S
C541 C537 1.393 . S
C541 C540 1.391 . S
C542 H532 0.950 . S
C542 C543 1.386 . S
C542 C544 1.391 . S
C543 C542 1.386 . S
C543 C547 1.393 . S
C544 H533 0.950 . S
C544 C542 1.391 . S
C544 C545 1.400 . S
C545 C539 1.491 . S
C545 C544 1.400 . S
C545 C546 1.398 . S
C546 H534 0.950 . S
C546 C545 1.398 . S
C546 C547 1.391 . S
C547 H535 0.950 . S
C547 C543 1.393 . S
C547 C546 1.391 . S
H548 C556 0.950 . S
H549 C561 0.950 . S
H550 C558 0.950 . S
H551 C560 0.950 . S
H552 C562 0.950 . S
H553 C564 0.950 . S
H554 C566 0.950 . S
H555 C567 0.950 . S
C556 H548 0.950 . S
C556 C557 1.386 . S
C556 C558 1.391 . S
C557 C556 1.386 . S
C557 C561 1.393 . S
C558 H550 0.950 . S
C558 C556 1.391 . S
C558 C559 1.400 . S
C559 C558 1.400 . S
C559 C560 1.398 . S
C559 C565 1.491 . S
C560 H551 0.950 . S
C560 C559 1.398 . S
C560 C561 1.391 . S
C561 H549 0.950 . S
C561 C557 1.393 . S
C561 C560 1.391 . S
C562 H552 0.950 . S
C562 C563 1.386 . S
C562 C564 1.391 . S
C563 C562 1.386 . S
C563 C567 1.393 . S
C564 H553 0.950 . S
C564 C562 1.391 . S
C564 C565 1.400 . S
C565 C559 1.491 . S
C565 C564 1.400 . S
C565 C566 1.398 . S
C566 H554 0.950 . S
C566 C565 1.398 . S
C566 C567 1.391 . S
C567 H555 0.950 . S
C567 C563 1.393 . S
C567 C566 1.391 . S
H568 C576 0.950 . S
H569 C581 0.950 . S
H570 C578 0.950 . S
H571 C580 0.950 . S
H572 C582 0.950 . S
H573 C584 0.950 . S
H574 C586 0.950 . S
H575 C587 0.950 . S
C576 H568 0.950 . S
C576 C577 1.386 . S
C576 C578 1.391 . S
C577 C576 1.386 . S
C577 C581 1.393 . S
C578 H570 0.950 . S
C578 C576 1.391 . S
C578 C579 1.400 . S
C579 C578 1.400 . S
C579 C580 1.398 . S
C579 C585 1.491 . S
C580 H571 0.950 . S
C580 C579 1.398 . S
C580 C581 1.391 . S
C581 H569 0.950 . S
C581 C577 1.393 . S
C581 C580 1.391 . S
C582 H572 0.950 . S
C582 C583 1.386 . S
C582 C584 1.391 . S
C583 C582 1.386 . S
C583 C587 1.393 . S
C584 H573 0.950 . S
C584 C582 1.391 . S
C584 C585 1.400 . S
C585 C579 1.491 . S
C585 C584 1.400 . S
C585 C586 1.398 . S
C586 H574 0.950 . S
C586 C585 1.398 . S
C586 C587 1.391 . S
C587 H575 0.950 . S
C587 C583 1.393 . S
C587 C586 1.391 . S
H588 C596 0.950 . S
H589 C601 0.950 . S
H590 C598 0.950 . S
H591 C600 0.950 . S
H592 C602 0.950 . S
H593 C604 0.950 . S
H594 C606 0.950 . S
H595 C607 0.950 . S
C596 H588 0.950 . S
C596 C597 1.386 . S
C596 C598 1.391 . S
C597 C596 1.386 . S
C597 C601 1.393 . S
C598 H590 0.950 . S
C598 C596 1.391 . S
C598 C599 1.400 . S
C599 C598 1.400 . S
C599 C600 1.398 . S
C599 C605 1.491 . S
C600 H591 0.950 . S
C600 C599 1.398 . S
C600 C601 1.391 . S
C601 H589 0.950 . S
C601 C597 1.393 . S
C601 C600 1.391 . S
C602 H592 0.950 . S
C602 C603 1.386 . S
C602 C604 1.391 . S
C603 C602 1.386 . S
C603 C607 1.393 . S
C604 H593 0.950 . S
C604 C602 1.391 . S
C604 C605 1.400 . S
C605 C599 1.491 . S
C605 C604 1.400 . S
C605 C606 1.398 . S
C606 H594 0.950 . S
C606 C605 1.398 . S
C606 C607 1.391 . S
C607 H595 0.950 . S
C607 C603 1.393 . S
C607 C606 1.391 . S
H608 C616 0.950 . S
H609 C621 0.950 . S
H610 C618 0.950 . S
H611 C620 0.950 . S
H612 C622 0.950 . S
H613 C624 0.950 . S
H614 C626 0.950 . S
H615 C627 0.950 . S
C616 H608 0.950 . S
C616 C617 1.386 . S
C616 C618 1.391 . S
C617 C616 1.386 . S
C617 C621 1.393 . S
C618 H610 0.950 . S
C618 C616 1.391 . S
C618 C619 1.400 . S
C619 C618 1.400 . S
C619 C620 1.398 . S
C619 C625 1.491 . S
C620 H611 0.950 . S
C620 C619 1.398 . S
C620 C621 1.391 . S
C621 H609 0.950 . S
C621 C617 1.393 . S
C621 C620 1.391 . S
C622 H612 0.950 . S
C622 C623 1.386 . S
C622 C624 1.391 . S
C623 C622 1.386 . S
C623 C627 1.393 . S
C624 H613 0.950 . S
C624 C622 1.391 . S
C624 C625 1.400 . S
C625 C619 1.491 . S
C625 C624 1.400 . S
C625 C626 1.398 . S
C626 H614 0.950 . S
C626 C625 1.398 . S
C626 C627 1.391 . S
C627 H615 0.950 . S
C627 C623 1.393 . S
C627 C626 1.391 . S
H628 C636 0.950 . S
H629 C641 0.950 . S
H630 C638 0.950 . S
H631 C640 0.950 . S
H632 C642 0.950 . S
H633 C644 0.950 . S
H634 C646 0.950 . S
H635 C647 0.950 . S
C636 H628 0.950 . S
C636 C637 1.386 . S
C636 C638 1.391 . S
C637 C636 1.386 . S
C637 C641 1.393 . S
C638 H630 0.950 . S
C638 C636 1.391 . S
C638 C639 1.400 . S
C639 C638 1.400 . S
C639 C640 1.398 . S
C639 C645 1.491 . S
C640 H631 0.950 . S
C640 C639 1.398 . S
C640 C641 1.391 . S
C641 H629 0.950 . S
C641 C637 1.393 . S
C641 C640 1.391 . S
C642 H632 0.950 . S
C642 C643 1.386 . S
C642 C644 1.391 . S
C643 C642 1.386 . S
C643 C647 1.393 . S
C644 H633 0.950 . S
C644 C642 1.391 . S
C644 C645 1.400 . S
C645 C639 1.491 . S
C645 C644 1.400 . S
C645 C646 1.398 . S
C646 H634 0.950 . S
C646 C645 1.398 . S
C646 C647 1.391 . S
C647 H635 0.950 . S
C647 C643 1.393 . S
C647 C646 1.391 . S
C177 C12 1.686 . S
C183 C85 1.682 . S
C197 C15 1.685 . S
C203 C98 1.689 . S
C217 C28 1.688 . S
C223 C125 1.684 . S
C237 C43 1.682 . S
C243 C138 1.685 . S
C257 C56 1.688 . S
C263 C140 1.689 . S
C277 C155 1.685 . S
C283 C70 1.683 . S
C297 C0 1.794 . S
C303 C152 1.797 . S
C317 C27 1.792 . S
C323 C167 1.799 . S
C337 C40 1.802 . S
C343 C97 1.799 . S
C357 C55 1.796 . S
C363 C110 1.804 . S
C377 C68 1.804 . S
C383 C113 1.797 . S
C397 C82 1.797 . S
C403 C126 1.804 . S
C417 C1 1.784 . S
C423 C54 1.777 . S
C437 C26 1.780 . S
C443 C69 1.787 . S
C457 C83 1.776 . S
C463 C41 1.774 . S
C477 C96 1.787 . S
C483 C127 1.791 . S
C497 C153 1.782 . S
C503 C111 1.790 . S
C517 C112 1.776 . S
C523 C166 1.782 . S
C537 C84 1.093 . S
C543 C13 1.093 . S
C557 C14 1.094 . S
C563 C99 1.090 . S
C577 C29 1.088 . S
C583 C124 1.084 . S
C597 C139 1.091 . S
C603 C42 1.086 . S
C617 C141 1.094 . S
C623 C57 1.090 . S
C637 C71 1.091 . S
C643 C154 1.094 . S
