# Generated by pormake.
# Topology ukk, (4)-cn, num edge types: 1
# Building blocks:
#     Node 0, Type 0, BuildingBlock: NAWXER_clean_sbu_0, # of connection points: 4
#     Node 1, Type 0, BuildingBlock: NAWXER_clean_sbu_0, # of connection points: 4
#     Node 2, Type 0, BuildingBlock: NAWXER_clean_sbu_0, # of connection points: 4
#     Node 3, Type 0, BuildingBlock: NAWXER_clean_sbu_0, # of connection points: 4
#     Node 4, Type 0, BuildingBlock: NAWXER_clean_sbu_0, # of connection points: 4
#     Node 5, Type 0, BuildingBlock: NAWXER_clean_sbu_0, # of connection points: 4
#     Node 6, Type 0, BuildingBlock: NAWXER_clean_sbu_0, # of connection points: 4
#     Node 7, Type 0, BuildingBlock: NAWXER_clean_sbu_0, # of connection points: 4
#     Node 8, Type 0, BuildingBlock: NAWXER_clean_sbu_0, # of connection points: 4
#     Node 9, Type 0, BuildingBlock: NAWXER_clean_sbu_0, # of connection points: 4
#     Node 10, Type 0, BuildingBlock: NAWXER_clean_sbu_0, # of connection points: 4
#     Node 11, Type 0, BuildingBlock: NAWXER_clean_sbu_0, # of connection points: 4
#     Node 12, Type 0, BuildingBlock: NAWXER_clean_sbu_0, # of connection points: 4
#     Node 13, Type 0, BuildingBlock: NAWXER_clean_sbu_0, # of connection points: 4
#     Node 14, Type 0, BuildingBlock: NAWXER_clean_sbu_0, # of connection points: 4
#     Node 15, Type 0, BuildingBlock: NAWXER_clean_sbu_0, # of connection points: 4
#     Edge 16, Type (0, 0), BuildingBlock: ZUJKAS_clean_linker_0, # of connection points: 2
#     Edge 17, Type (0, 0), BuildingBlock: ZUJKAS_clean_linker_0, # of connection points: 2
#     Edge 18, Type (0, 0), BuildingBlock: ZUJKAS_clean_linker_0, # of connection points: 2
#     Edge 19, Type (0, 0), BuildingBlock: ZUJKAS_clean_linker_0, # of connection points: 2
#     Edge 20, Type (0, 0), BuildingBlock: ZUJKAS_clean_linker_0, # of connection points: 2
#     Edge 21, Type (0, 0), BuildingBlock: ZUJKAS_clean_linker_0, # of connection points: 2
#     Edge 22, Type (0, 0), BuildingBlock: ZUJKAS_clean_linker_0, # of connection points: 2
#     Edge 23, Type (0, 0), BuildingBlock: ZUJKAS_clean_linker_0, # of connection points: 2
#     Edge 24, Type (0, 0), BuildingBlock: ZUJKAS_clean_linker_0, # of connection points: 2
#     Edge 25, Type (0, 0), BuildingBlock: ZUJKAS_clean_linker_0, # of connection points: 2
#     Edge 26, Type (0, 0), BuildingBlock: ZUJKAS_clean_linker_0, # of connection points: 2
#     Edge 27, Type (0, 0), BuildingBlock: ZUJKAS_clean_linker_0, # of connection points: 2
#     Edge 28, Type (0, 0), BuildingBlock: ZUJKAS_clean_linker_0, # of connection points: 2
#     Edge 29, Type (0, 0), BuildingBlock: ZUJKAS_clean_linker_0, # of connection points: 2
#     Edge 30, Type (0, 0), BuildingBlock: ZUJKAS_clean_linker_0, # of connection points: 2
#     Edge 31, Type (0, 0), BuildingBlock: ZUJKAS_clean_linker_0, # of connection points: 2
#     Edge 32, Type (0, 0), BuildingBlock: ZUJKAS_clean_linker_0, # of connection points: 2
#     Edge 33, Type (0, 0), BuildingBlock: ZUJKAS_clean_linker_0, # of connection points: 2
#     Edge 34, Type (0, 0), BuildingBlock: ZUJKAS_clean_linker_0, # of connection points: 2
#     Edge 35, Type (0, 0), BuildingBlock: ZUJKAS_clean_linker_0, # of connection points: 2
#     Edge 36, Type (0, 0), BuildingBlock: ZUJKAS_clean_linker_0, # of connection points: 2
#     Edge 37, Type (0, 0), BuildingBlock: ZUJKAS_clean_linker_0, # of connection points: 2
#     Edge 38, Type (0, 0), BuildingBlock: ZUJKAS_clean_linker_0, # of connection points: 2
#     Edge 39, Type (0, 0), BuildingBlock: ZUJKAS_clean_linker_0, # of connection points: 2
#     Edge 40, Type (0, 0), BuildingBlock: ZUJKAS_clean_linker_0, # of connection points: 2
#     Edge 41, Type (0, 0), BuildingBlock: ZUJKAS_clean_linker_0, # of connection points: 2
#     Edge 42, Type (0, 0), BuildingBlock: ZUJKAS_clean_linker_0, # of connection points: 2
#     Edge 43, Type (0, 0), BuildingBlock: ZUJKAS_clean_linker_0, # of connection points: 2
#     Edge 44, Type (0, 0), BuildingBlock: ZUJKAS_clean_linker_0, # of connection points: 2
#     Edge 45, Type (0, 0), BuildingBlock: ZUJKAS_clean_linker_0, # of connection points: 2
#     Edge 46, Type (0, 0), BuildingBlock: ZUJKAS_clean_linker_0, # of connection points: 2
#     Edge 47, Type (0, 0), BuildingBlock: ZUJKAS_clean_linker_0, # of connection points: 2
# Relax obj value: 0.021
# Max RMSD: 0.113
# Mean RMSD: 0.113
data_MOF--net-ukk--node1-NAWXER_clean_sbu_0--edge1-ZUJKAS_clean_linker_0
_symmetry_space_group_name_H-M    P1
_symmetry_Int_Tables_number       1
_symmetry_cell_setting            triclinic
loop_
_symmetry_equiv_pos_as_xyz
'x, y, z'
_cell_length_a     74.817973
_cell_length_b     74.778007
_cell_length_c     15.894271
_cell_angle_alpha  89.967473
_cell_angle_beta   90.067589
_cell_angle_gamma 89.916356
loop_
_atom_site_label
_atom_site_type_symbol
_atom_site_fract_x
_atom_site_fract_y
_atom_site_fract_z
_atom_type_partial_charge
C0 C 0.37367 0.15826 0.03354 0.0
C1 C 0.37748 0.09346 0.09002 0.0
O2 O 0.37723 0.1463 0.97892 0.0
Zn3 Zn 0.37546 0.12564 0.05483 0.0
O4 O 0.37041 0.15358 0.10955 0.0
Zn5 Zn 0.36867 0.13024 0.18598 0.0
O6 O 0.38804 0.13438 0.26695 0.0
O7 O 0.3975 0.13028 0.13684 0.0
O8 O 0.37338 0.10312 0.15362 0.0
O9 O 0.37975 0.10087 0.01863 0.0
O10 O 0.3477 0.1255 0.08199 0.0
O11 O 0.34325 0.13018 0.21727 0.0
C12 C 0.40088 0.1334 0.21449 0.0
C13 C 0.33694 0.12734 0.14398 0.0
C14 C 0.12676 0.60358 0.88949 0.0
C15 C 0.12105 0.66713 0.95993 0.0
O16 O 0.12375 0.61039 0.96138 0.0
Zn17 Zn 0.12369 0.63528 0.92623 0.0
O18 O 0.12856 0.6139 0.82558 0.0
Zn19 Zn 0.12817 0.64205 0.79841 0.0
O20 O 0.15207 0.6461 0.75712 0.0
O21 O 0.15116 0.63953 0.89239 0.0
O22 O 0.12404 0.66445 0.88145 0.0
O23 O 0.11981 0.65381 0.0093 0.0
O24 O 0.10004 0.6371 0.8493 0.0
O25 O 0.10851 0.64407 0.72048 0.0
C26 C 0.16017 0.64353 0.8264 0.0
C27 C 0.0961 0.6405 0.7723 0.0
C28 C 0.60308 0.88447 0.08777 0.0
C29 C 0.66672 0.89237 0.03629 0.0
O30 O 0.61242 0.88219 0.15475 0.0
Zn31 Zn 0.64032 0.88318 0.19006 0.0
O32 O 0.61084 0.88867 0.01956 0.0
Zn33 Zn 0.63484 0.88891 0.06319 0.0
O34 O 0.63923 0.86098 0.09212 0.0
O35 O 0.64454 0.85922 0.22844 0.0
O36 O 0.65377 0.89405 0.98525 0.0
O37 O 0.66355 0.88847 0.1135 0.0
O38 O 0.64096 0.9017 0.27337 0.0
O39 O 0.63478 0.9118 0.14625 0.0
C40 C 0.64274 0.85156 0.15766 0.0
C41 C 0.6373 0.91471 0.22501 0.0
C42 C 0.88662 0.40858 0.91259 0.0
C43 C 0.89359 0.34517 0.9743 0.0
O44 O 0.89139 0.40152 0.98178 0.0
Zn45 Zn 0.89084 0.37699 0.94363 0.0
O46 O 0.8839 0.3987 0.84792 0.0
Zn47 Zn 0.88517 0.3708 0.81622 0.0
O48 O 0.86103 0.36654 0.77861 0.0
O49 O 0.86297 0.37283 0.91403 0.0
O50 O 0.88995 0.34809 0.89658 0.0
O51 O 0.89539 0.35831 0.02428 0.0
O52 O 0.91378 0.37575 0.86325 0.0
O53 O 0.90445 0.36963 0.73496 0.0
C54 C 0.85345 0.36895 0.8493 0.0
C55 C 0.91721 0.37294 0.78537 0.0
C56 C 0.40752 0.38071 0.09101 0.0
C57 C 0.34404 0.38378 0.15633 0.0
O58 O 0.39791 0.38086 0.02387 0.0
Zn59 Zn 0.36948 0.38164 0.99346 0.0
O60 O 0.39994 0.38121 0.16242 0.0
Zn61 Zn 0.37588 0.38223 0.12168 0.0
O62 O 0.37256 0.35573 0.06888 0.0
O63 O 0.36615 0.35929 0.93458 0.0
O64 O 0.35743 0.38376 0.20537 0.0
O65 O 0.34662 0.38299 0.07657 0.0
O66 O 0.36717 0.40336 0.92876 0.0
O67 O 0.37537 0.40814 0.06021 0.0
C68 C 0.369 0.34895 0.99657 0.0
C69 C 0.37173 0.41417 0.98646 0.0
C70 C 0.38593 0.60416 0.83871 0.0
C71 C 0.39093 0.66792 0.77175 0.0
O72 O 0.39026 0.61117 0.76882 0.0
Zn73 Zn 0.38902 0.63595 0.80473 0.0
O74 O 0.38299 0.61421 0.90257 0.0
Zn75 Zn 0.38338 0.64237 0.93149 0.0
O76 O 0.35932 0.64616 0.9698 0.0
O77 O 0.36107 0.63954 0.83468 0.0
O78 O 0.38745 0.66511 0.84972 0.0
O79 O 0.39298 0.65464 0.72274 0.0
O80 O 0.41202 0.63812 0.88478 0.0
O81 O 0.40253 0.64434 0.01268 0.0
C82 C 0.35164 0.6434 0.89964 0.0
C83 C 0.41537 0.64127 0.96252 0.0
C84 C 0.66535 0.61984 0.21214 0.0
C85 C 0.60203 0.62676 0.14711 0.0
O86 O 0.66271 0.62354 0.13426 0.0
Zn87 Zn 0.64015 0.62844 0.05293 0.0
O88 O 0.65204 0.6182 0.26103 0.0
Zn89 Zn 0.63363 0.62306 0.17939 0.0
O90 O 0.63449 0.59998 0.09791 0.0
O91 O 0.64193 0.60958 0.97144 0.0
O92 O 0.6092 0.62316 0.21762 0.0
O93 O 0.61198 0.62893 0.08214 0.0
O94 O 0.64435 0.65242 0.01433 0.0
O95 O 0.63807 0.65086 0.1497 0.0
C96 C 0.63784 0.59677 0.02015 0.0
C97 C 0.64201 0.66018 0.08451 0.0
C98 C 0.62889 0.4106 0.83579 0.0
C99 C 0.62367 0.34644 0.78841 0.0
O100 O 0.62597 0.40263 0.76655 0.0
Zn101 Zn 0.62598 0.37858 0.81086 0.0
O102 O 0.63048 0.40145 0.90368 0.0
Zn103 Zn 0.62969 0.37391 0.94165 0.0
O104 O 0.65341 0.37044 0.98743 0.0
O105 O 0.65324 0.37494 0.85021 0.0
O106 O 0.6262 0.35034 0.8661 0.0
O107 O 0.62263 0.35891 0.73425 0.0
O108 O 0.60192 0.37799 0.88384 0.0
O109 O 0.60923 0.37314 0.01633 0.0
C110 C 0.6619 0.37195 0.91852 0.0
C111 C 0.59728 0.37584 0.96081 0.0
C112 C 0.86858 0.65899 0.6561 0.0
C113 C 0.8734 0.59524 0.71275 0.0
O114 O 0.87278 0.65003 0.59018 0.0
Zn115 Zn 0.87751 0.62251 0.5572 0.0
O116 O 0.86606 0.65085 0.72522 0.0
Zn117 Zn 0.87054 0.62704 0.68418 0.0
O118 O 0.89883 0.62782 0.65657 0.0
O119 O 0.902 0.62311 0.52029 0.0
O120 O 0.86854 0.60756 0.76274 0.0
O121 O 0.87711 0.59902 0.63597 0.0
O122 O 0.85923 0.61789 0.47427 0.0
O123 O 0.84832 0.62244 0.60123 0.0
C124 C 0.90895 0.62619 0.59181 0.0
C125 C 0.84583 0.61914 0.52292 0.0
C126 C 0.62365 0.09858 0.46448 0.0
C127 C 0.6212 0.16209 0.53492 0.0
O128 O 0.62299 0.10544 0.53758 0.0
Zn129 Zn 0.62241 0.13026 0.50227 0.0
O130 O 0.62377 0.10882 0.39976 0.0
Zn131 Zn 0.62323 0.13676 0.37154 0.0
O132 O 0.64616 0.14035 0.31632 0.0
O133 O 0.64867 0.13409 0.4514 0.0
O134 O 0.6219 0.15912 0.45554 0.0
O135 O 0.62123 0.14899 0.58599 0.0
O136 O 0.59676 0.13257 0.44224 0.0
O137 O 0.6011 0.13919 0.30858 0.0
C138 C 0.65599 0.13784 0.38065 0.0
C139 C 0.59041 0.13603 0.36901 0.0
C140 C 0.10398 0.38575 0.58961 0.0
C141 C 0.16688 0.38892 0.51062 0.0
O142 O 0.1144 0.38409 0.65343 0.0
Zn143 Zn 0.14292 0.38394 0.67727 0.0
O144 O 0.11067 0.38808 0.51702 0.0
Zn145 Zn 0.13538 0.38762 0.55105 0.0
O146 O 0.1387 0.36007 0.58985 0.0
O147 O 0.1467 0.3604 0.72338 0.0
O148 O 0.15311 0.39029 0.46431 0.0
O149 O 0.16494 0.38663 0.59016 0.0
O150 O 0.14581 0.404 0.75204 0.0
O151 O 0.13783 0.41197 0.62384 0.0
C152 C 0.14302 0.35161 0.65723 0.0
C153 C 0.14181 0.41623 0.69985 0.0
C154 C 0.38651 0.90679 0.30724 0.0
C155 C 0.39003 0.84581 0.42229 0.0
O156 O 0.38936 0.90237 0.38345 0.0
Zn157 Zn 0.38819 0.87661 0.36789 0.0
O158 O 0.38404 0.89453 0.25202 0.0
Zn159 Zn 0.38329 0.86581 0.24562 0.0
O160 O 0.35899 0.86088 0.21004 0.0
O161 O 0.36063 0.87288 0.33675 0.0
O162 O 0.38713 0.84634 0.34282 0.0
O163 O 0.39146 0.86039 0.46298 0.0
O164 O 0.41151 0.87163 0.2931 0.0
O165 O 0.403 0.86086 0.17013 0.0
C166 C 0.35127 0.86674 0.27571 0.0
C167 C 0.41543 0.86577 0.21957 0.0
C168 C 0.8477 0.89025 0.73498 0.0
C169 C 0.91097 0.88399 0.66855 0.0
O170 O 0.85027 0.88709 0.65652 0.0
Zn171 Zn 0.87282 0.88263 0.57442 0.0
O172 O 0.86105 0.89146 0.78404 0.0
Zn173 Zn 0.87934 0.88721 0.70156 0.0
O174 O 0.87808 0.91082 0.62341 0.0
O175 O 0.87107 0.90197 0.49519 0.0
O176 O 0.90382 0.88706 0.73953 0.0
O177 O 0.901 0.88216 0.60336 0.0
O178 O 0.86866 0.85886 0.53287 0.0
O179 O 0.87498 0.85961 0.66838 0.0
C180 C 0.87482 0.91452 0.54598 0.0
C181 C 0.87103 0.85068 0.60201 0.0
C182 C 0.88301 0.10103 0.3463 0.0
C183 C 0.88814 0.16435 0.27862 0.0
O184 O 0.886 0.10811 0.27504 0.0
Zn185 Zn 0.8854 0.13268 0.31191 0.0
O186 O 0.88072 0.11108 0.41081 0.0
Zn187 Zn 0.88034 0.13921 0.43901 0.0
O188 O 0.85608 0.14293 0.47757 0.0
O189 O 0.8576 0.13653 0.34247 0.0
O190 O 0.88479 0.16172 0.35685 0.0
O191 O 0.88955 0.15103 0.22947 0.0
O192 O 0.90882 0.13452 0.39122 0.0
O193 O 0.89969 0.1413 0.51919 0.0
C194 C 0.84825 0.14033 0.40766 0.0
C195 C 0.91239 0.13784 0.46869 0.0
C196 C 0.15885 0.12187 0.81739 0.0
C197 C 0.0977 0.12548 0.7099 0.0
O198 O 0.15844 0.12424 0.73737 0.0
Zn199 Zn 0.13824 0.12691 0.64057 0.0
O200 O 0.14424 0.12027 0.85722 0.0
Zn201 Zn 0.12827 0.12312 0.7625 0.0
O202 O 0.13199 0.09878 0.69023 0.0
O203 O 0.14258 0.10702 0.56688 0.0
O204 O 0.10294 0.12295 0.78502 0.0
O205 O 0.10934 0.12711 0.6511 0.0
O206 O 0.14312 0.15033 0.59645 0.0
O207 O 0.13262 0.15076 0.72601 0.0
C208 C 0.13747 0.09468 0.6161 0.0
C209 C 0.13835 0.15916 0.66089 0.0
C210 C 0.12685 0.90951 0.37321 0.0
C211 C 0.12162 0.84712 0.28145 0.0
O212 O 0.12358 0.90388 0.29926 0.0
Zn213 Zn 0.12421 0.87854 0.32516 0.0
O214 O 0.12928 0.89819 0.4329 0.0
Zn215 Zn 0.12955 0.86959 0.44989 0.0
O216 O 0.15388 0.86473 0.48506 0.0
O217 O 0.15189 0.87465 0.35451 0.0
O218 O 0.12497 0.84869 0.36022 0.0
O219 O 0.12011 0.86111 0.23651 0.0
O220 O 0.10116 0.87548 0.40443 0.0
O221 O 0.11025 0.86623 0.52925 0.0
C222 C 0.16142 0.86931 0.41675 0.0
C223 C 0.0976 0.87082 0.48029 0.0
H224 H 0.38909 0.93689 0.40616 0.0
H225 H 0.38825 0.96819 0.36007 0.0
H226 H 0.38281 0.95105 0.10236 0.0
H227 H 0.38329 0.91991 0.14762 0.0
H228 H 0.41073 0.98637 0.25176 0.0
H229 H 0.34164 0.98606 0.12423 0.0
H230 H 0.35016 0.96838 0.19043 0.0
H231 H 0.35581 0.96906 0.08053 0.0
C232 C 0.38762 0.93979 0.33974 0.0
C233 C 0.38612 0.92585 0.28076 0.0
C234 C 0.38717 0.95769 0.31346 0.0
C235 C 0.38514 0.96199 0.22784 0.0
C236 C 0.38393 0.9481 0.16888 0.0
H237 H 0.38065 0.06667 0.97083 0.0
H238 H 0.38368 0.03432 0.99723 0.0
C239 C 0.38432 0.93026 0.195 0.0
C240 C 0.38469 0.98098 0.19992 0.0
H241 H 0.3589 0.01204 0.0983 0.0
C242 C 0.39939 0.99197 0.21824 0.0
C243 C 0.36993 0.98828 0.15563 0.0
C244 C 0.35341 0.9774 0.13713 0.0
C245 C 0.39971 0.01002 0.19379 0.0
C246 C 0.38488 0.01736 0.15055 0.0
C247 C 0.37032 0.00633 0.13073 0.0
C248 C 0.38351 0.03681 0.13288 0.0
C249 C 0.41592 0.02116 0.21459 0.0
C250 C 0.38223 0.04881 0.20017 0.0
C251 C 0.38039 0.06709 0.18543 0.0
C252 C 0.37978 0.0739 0.10283 0.0
C253 C 0.38113 0.06187 0.03509 0.0
C254 C 0.38284 0.04342 0.05008 0.0
H255 H 0.42785 0.0127 0.22712 0.0
H256 H 0.41905 0.03057 0.16256 0.0
H257 H 0.41316 0.02916 0.27194 0.0
H258 H 0.38244 0.04398 0.26447 0.0
H259 H 0.37941 0.0759 0.23931 0.0
H260 H 0.08281 0.64289 0.61156 0.0
H261 H 0.05134 0.64183 0.56794 0.0
H262 H 0.03532 0.63609 0.82697 0.0
H263 H 0.06655 0.63711 0.87119 0.0
H264 H 0.02565 0.61301 0.60596 0.0
H265 H 1.00541 0.67907 0.73375 0.0
H266 H 0.02844 0.67329 0.71275 0.0
H267 H 0.0176 0.66513 0.80598 0.0
C268 C 0.07257 0.64149 0.65924 0.0
C269 C 0.07719 0.64014 0.74488 0.0
C270 C 0.05464 0.64086 0.63418 0.0
C271 C 0.04106 0.6391 0.6944 0.0
C272 C 0.04562 0.63772 0.77971 0.0
H273 H 0.92791 0.62948 0.7376 0.0
H274 H 0.96016 0.63265 0.75412 0.0
C275 C 0.06349 0.63822 0.80475 0.0
C276 C 0.02207 0.63824 0.66875 0.0
H277 H 0.98197 0.65929 0.69442 0.0
C278 C 0.01609 0.6232 0.62417 0.0
C279 C 0.00971 0.65157 0.6929 0.0
C280 C 0.01558 0.66827 0.73839 0.0
C281 C 0.99785 0.62075 0.6064 0.0
C282 C 0.98541 0.6339 0.63247 0.0
C283 C 0.99153 0.6492 0.67474 0.0
C284 C 0.96587 0.63167 0.62078 0.0
C285 C 0.992 0.60376 0.56333 0.0
C286 C 0.95834 0.63014 0.54016 0.0
C287 C 0.93984 0.62821 0.53043 0.0
C288 C 0.92856 0.62796 0.6012 0.0
C289 C 0.93618 0.62963 0.68173 0.0
C290 C 0.95463 0.63146 0.69134 0.0
H291 H 1.00256 0.59331 0.56527 0.0
H292 H 0.97971 0.59833 0.59296 0.0
H293 H 0.98897 0.60668 0.49636 0.0
H294 H 0.96673 0.63064 0.48474 0.0
H295 H 0.93438 0.62709 0.46752 0.0
H296 H 0.64094 0.92555 0.38885 0.0
H297 H 0.63744 0.95585 0.44494 0.0
H298 H 0.62677 0.97564 0.19497 0.0
H299 H 0.63 0.94545 0.13846 0.0
H300 H 0.65631 0.98701 0.40524 0.0
H301 H 0.58435 0.99456 0.33049 0.0
H302 H 0.59554 0.97315 0.32965 0.0
H303 H 0.59749 0.98805 0.24119 0.0
C304 C 0.6378 0.93634 0.3458 0.0
C305 C 0.63563 0.93306 0.25919 0.0
C306 C 0.63582 0.95364 0.37801 0.0
C307 C 0.63152 0.96791 0.32433 0.0
C308 C 0.62968 0.96473 0.23776 0.0
H309 H 0.62225 0.08051 0.31615 0.0
H310 H 0.62386 0.04835 0.29364 0.0
C311 C 0.63164 0.94747 0.2055 0.0
C312 C 0.62933 0.98624 0.35807 0.0
H313 H 0.60026 0.02143 0.36326 0.0
C314 C 0.64399 0.99448 0.39732 0.0
C315 C 0.61319 0.99587 0.34811 0.0
C316 C 0.59668 0.98741 0.31083 0.0
C317 C 0.6432 0.01245 0.42283 0.0
C318 C 0.6273 0.02228 0.40946 0.0
C319 C 0.61245 0.01384 0.37316 0.0
C320 C 0.62627 0.04173 0.42561 0.0
C321 C 0.65961 0.02106 0.4602 0.0
C322 C 0.62695 0.04866 0.50763 0.0
C323 C 0.62599 0.06717 0.52098 0.0
C324 C 0.62436 0.07896 0.45237 0.0
C325 C 0.62356 0.07186 0.3705 0.0
C326 C 0.62444 0.05345 0.35738 0.0
H327 H 0.67159 0.01232 0.4554 0.0
H328 H 0.66248 0.03394 0.42816 0.0
H329 H 0.65719 0.02397 0.52769 0.0
H330 H 0.62815 0.03977 0.56116 0.0
H331 H 0.62661 0.07221 0.58476 0.0
H332 H 0.0779 0.3854 0.46795 0.0
H333 H 0.04545 0.38387 0.48865 0.0
H334 H 0.05324 0.38246 0.75733 0.0
H335 H 0.08556 0.38399 0.73759 0.0
H336 H 0.02541 0.35641 0.58021 0.0
H337 H 0.0174 0.42431 0.71602 0.0
H338 H 0.03681 0.41779 0.65577 0.0
H339 H 0.03471 0.41107 0.76387 0.0
C340 C 0.0727 0.38483 0.53146 0.0
C341 C 0.08434 0.38489 0.60115 0.0
C342 C 0.05417 0.38391 0.54309 0.0
C343 C 0.04698 0.38327 0.62449 0.0
C344 C 0.05854 0.38321 0.69402 0.0
H345 H 0.94724 0.37674 0.88079 0.0
H346 H 0.97811 0.37897 0.8334 0.0
C347 C 0.07702 0.38402 0.68253 0.0
C348 C 0.0274 0.38239 0.63752 0.0
H349 H 0.99272 0.40454 0.7301 0.0
C350 C 0.01816 0.36699 0.61205 0.0
C351 C 0.01804 0.39625 0.67893 0.0
C352 C 0.02718 0.41338 0.70466 0.0
C353 C 0.99992 0.36473 0.63048 0.0
C354 C 0.99067 0.3784 0.67403 0.0
C355 C 0.99983 0.39404 0.69701 0.0
C356 C 0.9718 0.37642 0.70109 0.0
C357 C 0.99093 0.34741 0.6065 0.0
C358 C 0.95792 0.37425 0.64236 0.0
C359 C 0.94015 0.37286 0.66938 0.0
C360 C 0.93596 0.37381 0.75556 0.0
C361 C 0.94994 0.37598 0.81395 0.0
C362 C 0.96762 0.37728 0.78699 0.0
H363 H 1.00078 0.33681 0.59057 0.0
H364 H 0.9823 0.34251 0.65839 0.0
H365 H 0.98235 0.3497 0.55052 0.0
H366 H 0.96079 0.3739 0.57563 0.0
H367 H 0.92969 0.37131 0.62277 0.0
H368 H 0.35199 0.43419 0.8765 0.0
H369 H 0.35452 0.46628 0.84873 0.0
H370 H 0.39851 0.46954 0.02411 0.0
H371 H 0.39509 0.43776 0.05635 0.0
H372 H 0.37936 0.4964 0.04746 0.0
H373 H 0.38783 0.49214 0.70313 0.0
H374 H 0.367 0.4824 0.73401 0.0
H375 H 0.38774 0.47253 0.76898 0.0
C376 C 0.36221 0.4418 0.90892 0.0
C377 C 0.37336 0.43351 0.96844 0.0
C378 C 0.36379 0.46013 0.89233 0.0
C379 C 0.37705 0.4704 0.93241 0.0
C380 C 0.3882 0.46202 0.99194 0.0
H381 H 0.40529 0.57807 0.75933 0.0
H382 H 0.40376 0.54569 0.78332 0.0
C383 C 0.38625 0.44383 0.01039 0.0
C384 C 0.37889 0.48997 0.9153 0.0
H385 H 0.38099 0.52115 0.75822 0.0
C386 C 0.3799 0.50174 0.98405 0.0
C387 C 0.37997 0.4971 0.83275 0.0
C388 C 0.38079 0.48534 0.75569 0.0
C389 C 0.38173 0.52028 0.97288 0.0
C390 C 0.38155 0.52752 0.89039 0.0
C391 C 0.38082 0.51575 0.82155 0.0
C392 C 0.38223 0.54718 0.87421 0.0
C393 C 0.38441 0.53175 0.05003 0.0
C394 C 0.37041 0.55888 0.9155 0.0
C395 C 0.37166 0.57736 0.90369 0.0
C396 C 0.38426 0.58454 0.84768 0.0
C397 C 0.39547 0.57287 0.80291 0.0
C398 C 0.39457 0.55437 0.81664 0.0
H399 H 0.39058 0.52397 0.10215 0.0
H400 H 0.39306 0.54345 0.03654 0.0
H401 H 0.37124 0.53661 0.07252 0.0
H402 H 0.36024 0.55374 0.95737 0.0
H403 H 0.36264 0.58605 0.93794 0.0
H404 H 0.42764 0.64262 0.12545 0.0
H405 H 0.45887 0.64171 0.17311 0.0
H406 H 0.47652 0.63859 0.91547 0.0
H407 H 0.44557 0.63944 0.86731 0.0
H408 H 0.48536 0.61354 0.1322 0.0
H409 H 0.50511 0.68107 0.02155 0.0
H410 H 0.48209 0.6748 0.03891 0.0
H411 H 0.49344 0.66784 0.94485 0.0
C412 C 0.43818 0.64184 0.07899 0.0
C413 C 0.43411 0.64114 0.99257 0.0
C414 C 0.45598 0.64129 0.10634 0.0
C415 C 0.46995 0.64029 0.04768 0.0
C416 C 0.46592 0.63961 0.96161 0.0
H417 H 0.58271 0.63145 0.00321 0.0
H418 H 0.55043 0.63482 0.98904 0.0
C419 C 0.4482 0.64002 0.93428 0.0
C420 C 0.48881 0.63943 0.07545 0.0
H421 H 0.52875 0.66097 0.05622 0.0
C422 C 0.49485 0.62399 0.11691 0.0
C423 C 0.50107 0.65311 0.05516 0.0
C424 C 0.49513 0.67023 0.0133 0.0
C425 C 0.51309 0.62147 0.13477 0.0
C426 C 0.52546 0.63492 0.11193 0.0
C427 C 0.51926 0.65065 0.07335 0.0
C428 C 0.54502 0.63254 0.12232 0.0
C429 C 0.51904 0.60407 0.17408 0.0
C430 C 0.55274 0.6302 0.20214 0.0
C431 C 0.57127 0.62815 0.21049 0.0
C432 C 0.58238 0.6286 0.13917 0.0
C433 C 0.57457 0.63105 0.05948 0.0
C434 C 0.5561 0.633 0.05122 0.0
H435 H 0.50848 0.59366 0.17061 0.0
H436 H 0.53126 0.59891 0.14272 0.0
H437 H 0.52224 0.60636 0.24139 0.0
H438 H 0.54447 0.63016 0.25801 0.0
H439 H 0.57687 0.62641 0.27282 0.0
H440 H 0.62025 0.43518 0.71374 0.0
H441 H 0.6223 0.46791 0.72389 0.0
H442 H 0.64319 0.46308 0.97576 0.0
H443 H 0.64112 0.43059 0.9667 0.0
H444 H 0.60509 0.48985 0.85835 0.0
H445 H 0.67894 0.49664 0.8453 0.0
H446 H 0.66728 0.47727 0.80519 0.0
H447 H 0.67089 0.47975 0.91632 0.0
C448 C 0.62538 0.44111 0.77102 0.0
C449 C 0.63051 0.4303 0.83942 0.0
C450 C 0.62652 0.45976 0.77668 0.0
C451 C 0.63308 0.46781 0.8502 0.0
C452 C 0.63832 0.45707 0.91812 0.0
H453 H 0.62488 0.56737 0.10145 0.0
H454 H 0.62317 0.53674 0.04876 0.0
C455 C 0.63703 0.4385 0.9129 0.0
C456 C 0.63376 0.48748 0.85853 0.0
H457 H 0.66259 0.52192 0.89562 0.0
C458 C 0.61764 0.49694 0.86518 0.0
C459 C 0.65017 0.49665 0.86687 0.0
C460 C 0.66784 0.48712 0.85738 0.0
C461 C 0.6175 0.51527 0.8842 0.0
C462 C 0.6339 0.52422 0.89712 0.0
C463 C 0.65004 0.51495 0.88622 0.0
C464 C 0.63455 0.54291 0.92717 0.0
C465 C 0.59983 0.52486 0.89203 0.0
C466 C 0.64179 0.55644 0.87652 0.0
C467 C 0.64276 0.57401 0.90635 0.0
C468 C 0.63674 0.57825 0.9878 0.0
C469 C 0.62964 0.56458 0.03845 0.0
C470 C 0.62854 0.54708 0.00833 0.0
H471 H 0.58888 0.51739 0.86054 0.0
H472 H 0.59639 0.52623 0.95962 0.0
H473 H 0.60062 0.53849 0.86449 0.0
H474 H 0.64662 0.5534 0.8139 0.0
H475 H 0.64836 0.58422 0.8659 0.0
H476 H 0.42805 0.38174 0.94885 0.0
H477 H 0.46067 0.38104 0.9394 0.0
H478 H 0.4644 0.37782 0.20967 0.0
H479 H 0.43176 0.37843 0.21996 0.0
H480 H 0.48512 0.40587 0.01714 0.0
H481 H 0.49591 0.33576 0.12388 0.0
H482 H 0.47448 0.34373 0.08712 0.0
H483 H 0.48225 0.34964 0.19026 0.0
C484 C 0.43578 0.3808 0.00633 0.0
C485 C 0.42728 0.38009 0.08515 0.0
C486 C 0.45442 0.38042 0.0008 0.0
C487 C 0.46491 0.37918 0.07377 0.0
C488 C 0.45652 0.3785 0.15256 0.0
H489 H 0.58192 0.37273 0.11746 0.0
H490 H 0.54997 0.37436 0.15206 0.0
C491 C 0.43787 0.37894 0.15824 0.0
C492 C 0.48465 0.37911 0.06705 0.0
H493 H 0.52162 0.35286 0.09421 0.0
C494 C 0.49312 0.39431 0.03422 0.0
C495 C 0.49504 0.36407 0.09025 0.0
C496 C 0.48652 0.34729 0.12435 0.0
C497 C 0.5117 0.39481 0.02298 0.0
C498 C 0.52204 0.37955 0.04341 0.0
C499 C 0.51365 0.36452 0.07853 0.0
C500 C 0.54137 0.37855 0.02351 0.0
C501 C 0.5201 0.4117 0.98942 0.0
C502 C 0.54705 0.38004 0.93979 0.0
C503 C 0.56518 0.37914 0.91993 0.0
C504 C 0.57807 0.37658 0.98334 0.0
C505 C 0.57235 0.37479 0.06722 0.0
C506 C 0.55412 0.3757 0.08708 0.0
H507 H 0.51153 0.42357 0.00155 0.0
H508 H 0.53344 0.41403 0.01805 0.0
H509 H 0.52181 0.41047 0.92033 0.0
H510 H 0.53742 0.3818 0.88953 0.0
H511 H 0.56905 0.38044 0.85457 0.0
H512 H 0.90632 0.43519 0.985 0.0
H513 H 0.90342 0.46742 0.96023 0.0
H514 H 0.85737 0.45781 0.80255 0.0
H515 H 0.86109 0.42565 0.82253 0.0
H516 H 0.87741 0.47927 0.72707 0.0
H517 H 0.8718 0.50466 0.05239 0.0
H518 H 0.89211 0.49231 0.03844 0.0
H519 H 0.87088 0.48112 0.02838 0.0
C520 C 0.89549 0.44006 0.9459 0.0
C521 C 0.88395 0.42803 0.90546 0.0
C522 C 0.89372 0.45848 0.93231 0.0
C523 C 0.87997 0.46517 0.88058 0.0
C524 C 0.86811 0.45306 0.84257 0.0
H525 H 0.85362 0.57867 0.83424 0.0
H526 H 0.85489 0.54708 0.8754 0.0
C527 C 0.87021 0.43469 0.85406 0.0
C528 C 0.87867 0.48457 0.8603 0.0
H529 H 0.87825 0.52646 0.94595 0.0
C530 C 0.8774 0.48954 0.77524 0.0
C531 C 0.8784 0.49806 0.92281 0.0
C532 C 0.87817 0.49375 0.01556 0.0
C533 C 0.87598 0.5075 0.75086 0.0
C534 C 0.87685 0.52104 0.81295 0.0
C535 C 0.87788 0.51611 0.89816 0.0
C536 C 0.87654 0.54035 0.79062 0.0
C537 C 0.87305 0.51161 0.65881 0.0
C538 C 0.88854 0.54721 0.73087 0.0
C539 C 0.88747 0.56506 0.70568 0.0
C540 C 0.87483 0.57659 0.74209 0.0
C541 C 0.86345 0.57002 0.8051 0.0
C542 C 0.8642 0.552 0.82867 0.0
H543 H 0.8666 0.50022 0.62579 0.0
H544 H 0.86454 0.52365 0.6501 0.0
H545 H 0.88615 0.51399 0.62818 0.0
H546 H 0.89865 0.53872 0.70301 0.0
H547 H 0.89663 0.5699 0.65808 0.0
H548 H 0.5645 0.13177 0.48821 0.0
H549 H 0.53213 0.13181 0.46869 0.0
H550 H 0.53915 0.14123 0.20319 0.0
H551 H 0.57169 0.1411 0.22189 0.0
H552 H 0.50956 0.15895 0.40225 0.0
H553 H 0.50683 0.09657 0.21343 0.0
H554 H 0.52623 0.10285 0.27417 0.0
H555 H 0.52199 0.11318 0.174 0.0
C556 C 0.55922 0.13382 0.42547 0.0
C557 C 0.57074 0.13632 0.35643 0.0
C558 C 0.54068 0.13389 0.41459 0.0
C559 C 0.53323 0.13631 0.33444 0.0
C560 C 0.54464 0.13905 0.26545 0.0
H561 H 0.42927 0.13901 0.11197 0.0
H562 H 0.46076 0.14027 0.14883 0.0
C563 C 0.56323 0.13904 0.27629 0.0
C564 C 0.51353 0.13592 0.32322 0.0
H565 H 0.48002 0.11333 0.22368 0.0
C566 C 0.50305 0.14894 0.36361 0.0
C567 C 0.50509 0.12274 0.27341 0.0
C568 C 0.51556 0.10793 0.2318 0.0
C569 C 0.48438 0.14952 0.35288 0.0
C570 C 0.47598 0.13654 0.30164 0.0
C571 C 0.48647 0.1233 0.26285 0.0
C572 C 0.45653 0.13699 0.2825 0.0
C573 C 0.47388 0.16436 0.394 0.0
C574 C 0.44353 0.13494 0.3457 0.0
C575 C 0.42529 0.1343 0.32475 0.0
C576 C 0.41984 0.1355 0.24021 0.0
C577 C 0.43294 0.1379 0.17771 0.0
C578 C 0.45101 0.13863 0.19861 0.0
H579 H 0.48268 0.17535 0.41619 0.0
H580 H 0.46385 0.16999 0.34971 0.0
H581 H 0.46663 0.15894 0.44922 0.0
H582 H 0.4475 0.13337 0.41081 0.0
H583 H 0.41555 0.13235 0.37423 0.0
H584 H 0.12752 0.57735 0.01114 0.0
H585 H 0.13144 0.54505 0.99003 0.0
H586 H 0.1333 0.55322 0.72161 0.0
H587 H 0.12975 0.5853 0.74191 0.0
H588 H 0.11092 0.5206 0.90245 0.0
H589 H 0.17847 0.52454 0.76221 0.0
H590 H 0.16828 0.54316 0.81626 0.0
H591 H 0.16265 0.53849 0.70831 0.0
C592 C 0.1288 0.57225 0.94766 0.0
C593 C 0.12849 0.58395 0.87829 0.0
C594 C 0.13104 0.5538 0.93572 0.0
C595 C 0.13307 0.54676 0.85433 0.0
C596 C 0.13228 0.55838 0.7851 0.0
H597 H 0.13711 0.44579 0.60088 0.0
H598 H 0.13543 0.47706 0.6453 0.0
C599 C 0.13013 0.57675 0.7969 0.0
C600 C 0.13564 0.52726 0.84076 0.0
H601 H 0.16272 0.49696 0.74239 0.0
C602 C 0.12236 0.51539 0.86852 0.0
C603 C 0.15063 0.52045 0.79676 0.0
C604 C 0.16591 0.53231 0.76994 0.0
C605 C 0.1233 0.49701 0.85016 0.0
C606 C 0.13794 0.49037 0.80339 0.0
C607 C 0.15145 0.50214 0.7777 0.0
C608 C 0.13914 0.47136 0.77757 0.0
C609 C 0.10833 0.48491 0.87814 0.0
C610 C 0.14203 0.45782 0.83722 0.0
C611 C 0.14312 0.43991 0.81201 0.0
C612 C 0.14127 0.43523 0.72665 0.0
C613 C 0.13854 0.4489 0.6671 0.0
C614 C 0.13758 0.46678 0.69232 0.0
H615 H 0.09665 0.49255 0.90212 0.0
H616 H 0.10387 0.47628 0.82528 0.0
H617 H 0.11322 0.47603 0.92922 0.0
H618 H 0.14349 0.46112 0.90322 0.0
H619 H 0.14524 0.42974 0.85951 0.0
H620 H 0.44469 0.86956 0.31954 0.0
H621 H 0.47599 0.87053 0.27733 0.0
H622 H 0.46076 0.86207 0.01879 0.0
H623 H 0.42914 0.861 0.06054 0.0
H624 H 0.49599 0.84241 0.17685 0.0
H625 H 0.492 0.91011 0.03054 0.0
H626 H 0.47591 0.90274 0.10776 0.0
H627 H 0.47539 0.89363 0.00353 0.0
C628 C 0.44793 0.86784 0.25363 0.0
C629 C 0.4344 0.86528 0.19328 0.0
C630 C 0.46584 0.86836 0.22975 0.0
C631 C 0.47062 0.86651 0.14505 0.0
C632 C 0.45726 0.86365 0.08447 0.0
H633 H 0.57943 0.88462 0.95561 0.0
H634 H 0.54719 0.87894 0.96066 0.0
C635 C 0.43925 0.86297 0.10846 0.0
C636 C 0.48966 0.86789 0.12133 0.0
H637 H 0.52047 0.89708 0.04283 0.0
C638 C 0.50135 0.85424 0.14654 0.0
C639 C 0.49653 0.88332 0.08151 0.0
C640 C 0.48441 0.89839 0.05428 0.0
C641 C 0.51987 0.8558 0.13489 0.0
C642 C 0.52687 0.87165 0.09913 0.0
C643 C 0.51508 0.88499 0.07065 0.0
C644 C 0.54637 0.87509 0.09553 0.0
C645 C 0.53175 0.84048 0.16153 0.0
C646 C 0.55651 0.8752 0.16984 0.0
C647 C 0.57488 0.87837 0.1672 0.0
C648 C 0.58348 0.88172 0.09019 0.0
C649 C 0.57322 0.88204 0.01593 0.0
C650 C 0.55481 0.87878 0.01865 0.0
H651 H 0.52437 0.8276 0.16132 0.0
H652 H 0.54355 0.83922 0.11964 0.0
H653 H 0.53656 0.84288 0.22663 0.0
H654 H 0.55019 0.8729 0.23016 0.0
H655 H 0.58233 0.87819 0.22567 0.0
H656 H 0.8718 0.92702 0.38427 0.0
H657 H 0.87428 0.95807 0.33622 0.0
H658 H 0.88195 0.97538 0.59247 0.0
H659 H 0.87984 0.9445 0.64084 0.0
H660 H 0.85399 0.98773 0.37654 0.0
H661 H 0.92433 0.9979 0.47354 0.0
H662 H 0.91425 0.97601 0.46791 0.0
H663 H 0.91062 0.99004 0.55832 0.0
C664 C 0.87406 0.93744 0.43037 0.0
C665 C 0.87577 0.93327 0.51636 0.0
C666 C 0.87547 0.95516 0.40277 0.0
C667 C 0.87867 0.96897 0.46059 0.0
C668 C 0.87996 0.96488 0.54654 0.0
H669 H 0.88048 0.08215 0.49244 0.0
H670 H 0.87964 0.04976 0.51015 0.0
C671 C 0.87863 0.94721 0.57413 0.0
C672 C 0.88028 0.98775 0.43189 0.0
H673 H 0.90732 0.0244 0.44426 0.0
C674 C 0.86574 0.9957 0.39012 0.0
C675 C 0.8957 0.99807 0.44915 0.0
C676 C 0.91218 0.99002 0.4889 0.0
C677 C 0.86588 0.01394 0.36901 0.0
C678 C 0.88096 0.02438 0.38988 0.0
C679 C 0.89573 0.01632 0.42888 0.0
C680 C 0.88123 0.04395 0.37713 0.0
C681 C 0.84966 0.02215 0.32777 0.0
C682 C 0.88249 0.05137 0.29627 0.0
C683 C 0.88306 0.06995 0.28577 0.0
C684 C 0.88232 0.08136 0.35609 0.0
C685 C 0.88102 0.07379 0.43689 0.0
C686 C 0.88056 0.05527 0.44725 0.0
H687 H 0.83827 0.01266 0.3244 0.0
H688 H 0.84536 0.03425 0.36288 0.0
H689 H 0.85311 0.02637 0.26285 0.0
H690 H 0.88318 0.04278 0.2415 0.0
H691 H 0.88408 0.07536 0.22274 0.0
H692 H 0.92494 0.14038 0.6308 0.0
H693 H 0.95614 0.13915 0.67817 0.0
H694 H 0.97354 0.13298 0.42139 0.0
H695 H 0.94254 0.1342 0.37344 0.0
H696 H 0.98173 0.11042 0.64735 0.0
H697 H 1.00362 0.17542 0.51387 0.0
H698 H 0.98037 0.17 0.53073 0.0
H699 H 0.99206 0.16104 0.44147 0.0
C700 C 0.93541 0.13886 0.58436 0.0
C701 C 0.93122 0.13745 0.49826 0.0
C702 C 0.95322 0.13812 0.61158 0.0
C703 C 0.96715 0.13619 0.55318 0.0
C704 C 0.96301 0.13476 0.46737 0.0
H705 H 0.08211 0.12783 0.55459 0.0
H706 H 0.05031 0.13015 0.52127 0.0
C707 C 0.94525 0.13538 0.44016 0.0
C708 C 0.98602 0.13519 0.58162 0.0
H709 H 0.02641 0.15606 0.56419 0.0
C710 C 0.9915 0.12045 0.62994 0.0
C711 C 0.99871 0.14828 0.55841 0.0
C712 C 0.99343 0.16468 0.50885 0.0
C713 C 0.00949 0.11815 0.65342 0.0
C714 C 0.02224 0.13117 0.62955 0.0
C715 C 0.01666 0.14606 0.58234 0.0
C716 C 0.04153 0.12944 0.65091 0.0
C717 C 0.01475 0.10146 0.70087 0.0
C718 C 0.04724 0.12841 0.735 0.0
C719 C 0.06546 0.12696 0.75432 0.0
C720 C 0.07834 0.12673 0.6899 0.0
C721 C 0.07257 0.12795 0.60581 0.0
C722 C 0.05438 0.12929 0.58659 0.0
H723 H 1.00454 0.09077 0.69447 0.0
H724 H 0.02777 0.0962 0.67836 0.0
H725 H 0.01607 0.10469 0.76872 0.0
H726 H 0.03763 0.12892 0.78582 0.0
H727 H 0.06943 0.1262 0.81975 0.0
H728 H 0.12846 0.92534 0.52748 0.0
H729 H 0.13 0.9572 0.55995 0.0
H730 H 0.12901 0.96972 0.29529 0.0
H731 H 0.12734 0.93768 0.26171 0.0
H732 H 0.15737 0.98736 0.40502 0.0
H733 H 0.08778 0.99433 0.52289 0.0
H734 H 0.10023 0.97549 0.5622 0.0
H735 H 0.09453 0.97658 0.4526 0.0
C736 C 0.12854 0.93481 0.4759 0.0
C737 C 0.12774 0.92893 0.39187 0.0
C738 C 0.12936 0.95303 0.49473 0.0
C739 C 0.12946 0.96578 0.43008 0.0
C740 C 0.12886 0.96005 0.34604 0.0
H741 H 0.14336 0.08197 0.45695 0.0
H742 H 0.14161 0.05102 0.40834 0.0
C743 C 0.12787 0.94176 0.32703 0.0
C744 C 0.13046 0.98506 0.45116 0.0
H745 H 0.10729 0.0187 0.54696 0.0
C746 C 0.14639 0.99432 0.43531 0.0
C747 C 0.11615 0.99398 0.4912 0.0
C748 C 0.09862 0.98469 0.50787 0.0
C749 C 0.1486 0.01218 0.46093 0.0
C750 C 0.13431 0.02111 0.50163 0.0
C751 C 0.11826 0.01187 0.51606 0.0
C752 C 0.13573 0.03994 0.53106 0.0
C753 C 0.16645 0.02106 0.44697 0.0
C754 C 0.13257 0.04415 0.61589 0.0
C755 C 0.13332 0.06188 0.64373 0.0
C756 C 0.13726 0.07581 0.58726 0.0
C757 C 0.14047 0.07156 0.50234 0.0
C758 C 0.13958 0.05383 0.47445 0.0
H759 H 0.17728 0.01108 0.43745 0.0
H760 H 0.16572 0.02952 0.38968 0.0
H761 H 0.1701 0.02974 0.501 0.0
H762 H 0.1295 0.03367 0.66071 0.0
H763 H 0.13075 0.06466 0.70948 0.0
H764 H 0.9303 0.88143 0.52366 0.0
H765 H 0.96271 0.87924 0.5088 0.0
H766 H 0.96875 0.88117 0.77835 0.0
H767 H 0.9362 0.88343 0.79422 0.0
H768 H 0.98892 0.9056 0.58178 0.0
H769 H 0.99743 0.83531 0.69195 0.0
H770 H 0.97637 0.84349 0.65143 0.0
H771 H 0.98386 0.85029 0.75364 0.0
C772 C 0.93847 0.88134 0.57998 0.0
C773 C 0.93064 0.88258 0.6602 0.0
C774 C 0.95699 0.8801 0.57126 0.0
C775 C 0.96805 0.87991 0.64247 0.0
C776 C 0.96037 0.88113 0.72273 0.0
H777 H 0.08496 0.86647 0.64148 0.0
H778 H 0.05388 0.86926 0.68929 0.0
C779 C 0.9418 0.88249 0.73158 0.0
C780 C 0.98765 0.87888 0.63163 0.0
H781 H 0.02316 0.85028 0.64447 0.0
C782 C 0.99647 0.89358 0.5961 0.0
C783 C 0.9974 0.86323 0.65123 0.0
C784 C 0.98838 0.84708 0.68889 0.0
C785 C 0.01479 0.89291 0.57786 0.0
C786 C 0.02442 0.87694 0.59358 0.0
C787 C 0.01573 0.86246 0.63211 0.0
C788 C 0.04317 0.8747 0.56535 0.0
C789 C 0.02364 0.90932 0.54161 0.0
C790 C 0.04734 0.87635 0.47972 0.0
C791 C 0.06498 0.87483 0.45239 0.0
C792 C 0.07885 0.87141 0.51001 0.0
C793 C 0.07459 0.86916 0.59557 0.0
C794 C 0.05686 0.87077 0.62298 0.0
H795 H 0.01621 0.92169 0.5584 0.0
H796 H 0.03763 0.91061 0.56408 0.0
H797 H 0.0238 0.90828 0.47198 0.0
H798 H 0.03692 0.8789 0.43386 0.0
H799 H 0.06772 0.87645 0.38592 0.0
H800 H 0.37055 0.32336 0.11914 0.0
H801 H 0.37049 0.29088 0.10167 0.0
H802 H 0.36669 0.29719 0.83273 0.0
H803 H 0.36664 0.32983 0.84942 0.0
H804 H 0.34198 0.26987 0.00663 0.0
H805 H 0.41135 0.26267 0.88322 0.0
H806 H 0.40473 0.28169 0.94602 0.0
H807 H 0.39698 0.27972 0.83973 0.0
C808 C 0.3697 0.31789 0.05617 0.0
C809 C 0.36861 0.32923 0.98567 0.0
C810 C 0.36966 0.29932 0.04636 0.0
C811 C 0.36873 0.29167 0.96593 0.0
C812 C 0.36758 0.30287 0.89529 0.0
H813 H 0.37667 0.17466 0.87772 0.0
H814 H 0.37453 0.20694 0.84752 0.0
C815 C 0.36747 0.3215 0.90505 0.0
C816 C 0.36864 0.27193 0.9571 0.0
H817 H 0.39541 0.23619 0.91078 0.0
C818 C 0.35357 0.2625 0.98466 0.0
C819 C 0.3837 0.26238 0.92748 0.0
C820 C 0.4002 0.27201 0.89752 0.0
C821 C 0.35337 0.24373 0.98614 0.0
C822 C 0.36882 0.23414 0.96139 0.0
C823 C 0.3836 0.24356 0.92985 0.0
C824 C 0.37053 0.21463 0.9774 0.0
C825 C 0.33668 0.23434 0.01579 0.0
C826 C 0.36945 0.20835 0.06026 0.0
C827 C 0.37064 0.19013 0.07751 0.0
C828 C 0.3731 0.17762 0.01237 0.0
C829 C 0.37468 0.18392 0.92923 0.0
C830 C 0.37346 0.20233 0.91192 0.0
H831 H 0.32461 0.24274 0.00547 0.0
H832 H 0.33482 0.22137 0.98293 0.0
H833 H 0.33779 0.2317 0.0843 0.0
H834 H 0.36766 0.21761 0.11202 0.0
H835 H 0.36957 0.18589 0.14248 0.0
H836 H 0.18067 0.64311 0.96827 0.0
H837 H 0.21316 0.64454 0.97844 0.0
H838 H 0.21691 0.64783 0.70809 0.0
H839 H 0.18427 0.64682 0.69732 0.0
H840 H 0.23744 0.62121 0.91556 0.0
H841 H 0.24882 0.68874 0.78111 0.0
H842 H 0.22697 0.68105 0.81252 0.0
H843 H 0.23632 0.67416 0.7135 0.0
C844 C 0.18836 0.64427 0.91085 0.0
C845 C 0.17987 0.6449 0.83191 0.0
C846 C 0.20695 0.64508 0.91686 0.0
C847 C 0.21746 0.64653 0.84417 0.0
C848 C 0.20905 0.64713 0.76515 0.0
H849 H 0.33156 0.64167 0.75628 0.0
H850 H 0.29899 0.64262 0.74407 0.0
C851 C 0.1904 0.64645 0.75906 0.0
C852 C 0.23721 0.6466 0.85148 0.0
H853 H 0.27462 0.67082 0.80518 0.0
C854 C 0.24556 0.6321 0.89182 0.0
C855 C 0.24777 0.66084 0.82045 0.0
C856 C 0.23953 0.67717 0.78017 0.0
C857 C 0.26419 0.63134 0.90105 0.0
C858 C 0.27472 0.64551 0.86968 0.0
C859 C 0.26644 0.65999 0.8291 0.0
C860 C 0.2944 0.64541 0.87769 0.0
C861 C 0.27253 0.61525 0.94297 0.0
C862 C 0.30255 0.6469 0.9569 0.0
C863 C 0.32118 0.64643 0.96422 0.0
C864 C 0.33194 0.64441 0.89233 0.0
C865 C 0.32367 0.64315 0.81297 0.0
C866 C 0.30508 0.64373 0.80574 0.0
H867 H 0.26294 0.60399 0.94889 0.0
H868 H 0.28437 0.61059 0.90706 0.0
H869 H 0.27708 0.619 0.00704 0.0
H870 H 0.2945 0.64841 0.01305 0.0
H871 H 0.32711 0.64748 0.02619 0.0
H872 H 0.64216 0.83137 0.01444 0.0
H873 H 0.64327 0.79876 0.0034 0.0
H874 H 0.64771 0.79458 0.27315 0.0
H875 H 0.64659 0.8272 0.28512 0.0
H876 H 0.6709 0.77423 0.06837 0.0
H877 H 0.60342 0.76333 0.2058 0.0
H878 H 0.61041 0.78468 0.16419 0.0
H879 H 0.6183 0.77737 0.26522 0.0
C880 C 0.64342 0.82354 0.0715 0.0
C881 C 0.64419 0.83188 0.15074 0.0
C882 C 0.64408 0.80492 0.06497 0.0
C883 C 0.64537 0.79434 0.1375 0.0
C884 C 0.64649 0.80258 0.21656 0.0
H885 H 0.64144 0.68028 0.22775 0.0
H886 H 0.64334 0.71278 0.23963 0.0
C887 C 0.64591 0.8212 0.22319 0.0
C888 C 0.64535 0.77463 0.13038 0.0
H889 H 0.62053 0.73762 0.1753 0.0
C890 C 0.65991 0.76617 0.09157 0.0
C891 C 0.63097 0.76427 0.16088 0.0
C892 C 0.61479 0.77281 0.20086 0.0
C893 C 0.66061 0.74749 0.08365 0.0
C894 C 0.64615 0.7371 0.11363 0.0
C895 C 0.6316 0.74562 0.15244 0.0
C896 C 0.64579 0.71736 0.10571 0.0
C897 C 0.67698 0.73904 0.04504 0.0
C898 C 0.64646 0.70916 0.02636 0.0
C899 C 0.64549 0.69055 0.01932 0.0
C900 C 0.64359 0.67984 0.09152 0.0
C901 C 0.64288 0.68813 0.17086 0.0
C902 C 0.64397 0.7067 0.17782 0.0
H903 H 0.68868 0.74817 0.04736 0.0
H904 H 0.68055 0.72639 0.07762 0.0
H905 H 0.67423 0.73594 0.97801 0.0
H906 H 0.64743 0.71716 0.96973 0.0
H907 H 0.64594 0.68459 0.95728 0.0
H908 H 0.68535 0.36885 0.05102 0.0
H909 H 0.71806 0.36698 0.04417 0.0
H910 H 0.71571 0.36969 0.77344 0.0
H911 H 0.68317 0.37151 0.77937 0.0
H912 H 0.73879 0.34212 0.84152 0.0
H913 H 0.75146 0.40941 0.97836 0.0
H914 H 0.73693 0.39495 0.03737 0.0
H915 H 0.72998 0.40303 0.93613 0.0
C916 C 0.69179 0.36903 0.99006 0.0
C917 C 0.68164 0.37042 0.9158 0.0
C918 C 0.71047 0.36803 0.98629 0.0
C919 C 0.71926 0.36839 0.90831 0.0
C920 C 0.70916 0.36945 0.83421 0.0
H921 H 0.82848 0.36516 0.72398 0.0
H922 H 0.79593 0.36424 0.7392 0.0
C923 C 0.69055 0.37053 0.83786 0.0
C924 C 0.73901 0.36772 0.90328 0.0
H925 H 0.77666 0.39174 0.94644 0.0
C926 C 0.74711 0.35293 0.86456 0.0
C927 C 0.74976 0.38187 0.93339 0.0
C928 C 0.74167 0.39831 0.97315 0.0
C929 C 0.76576 0.35182 0.85578 0.0
C930 C 0.77652 0.3661 0.88481 0.0
C931 C 0.76839 0.38082 0.92415 0.0
C932 C 0.79625 0.3661 0.87514 0.0
C933 C 0.77375 0.33524 0.81689 0.0
C934 C 0.80723 0.36784 0.94623 0.0
C935 C 0.82579 0.36858 0.93767 0.0
C936 C 0.83378 0.36762 0.8577 0.0
C937 C 0.82276 0.36579 0.78649 0.0
C938 C 0.80416 0.36515 0.79513 0.0
H939 H 0.76443 0.32371 0.82037 0.0
H940 H 0.77661 0.33784 0.74951 0.0
H941 H 0.78647 0.33149 0.84843 0.0
H942 H 0.80142 0.36867 0.00853 0.0
H943 H 0.83386 0.36998 0.9939 0.0
H944 H 0.86494 0.68287 0.78578 0.0
H945 H 0.86393 0.71553 0.77638 0.0
H946 H 0.8676 0.71227 0.50601 0.0
H947 H 0.86904 0.67971 0.51485 0.0
H948 H 0.89097 0.7362 0.57111 0.0
H949 H 0.8234 0.74801 0.70353 0.0
H950 H 0.83771 0.73517 0.77129 0.0
H951 H 0.83096 0.72613 0.67133 0.0
C952 C 0.86537 0.6891 0.7243 0.0
C953 C 0.86706 0.67869 0.65108 0.0
C954 C 0.86468 0.70777 0.719 0.0
C955 C 0.86541 0.71632 0.64039 0.0
C956 C 0.86695 0.70594 0.56728 0.0
H957 H 0.86649 0.82711 0.4718 0.0
H958 H 0.8648 0.79444 0.48007 0.0
C959 C 0.86777 0.68732 0.57251 0.0
C960 C 0.8655 0.73609 0.63422 0.0
H961 H 0.84176 0.77368 0.68396 0.0
C962 C 0.88015 0.74439 0.59525 0.0
C963 C 0.85137 0.74674 0.66582 0.0
C964 C 0.83489 0.73858 0.70463 0.0
C965 C 0.88119 0.76305 0.58826 0.0
C966 C 0.86715 0.77366 0.62048 0.0
C967 C 0.85249 0.76543 0.6594 0.0
C968 C 0.86762 0.79339 0.61544 0.0
C969 C 0.89746 0.77133 0.548 0.0
C970 C 0.86944 0.80354 0.689 0.0
C971 C 0.87046 0.82217 0.68457 0.0
C972 C 0.8695 0.83097 0.60643 0.0
C973 C 0.86732 0.82074 0.53291 0.0
C974 C 0.86641 0.80209 0.53743 0.0
H975 H 0.90855 0.76154 0.54097 0.0
H976 H 0.89385 0.77637 0.48454 0.0
H977 H 0.90229 0.78284 0.58577 0.0
H978 H 0.87035 0.79703 0.74977 0.0
H979 H 0.87206 0.82964 0.74243 0.0
H980 H 0.82794 0.13877 0.26476 0.0
H981 H 0.79541 0.14021 0.25287 0.0
H982 H 0.79116 0.14529 0.52237 0.0
H983 H 0.82375 0.14428 0.53473 0.0
H984 H 0.77043 0.11796 0.31583 0.0
H985 H 0.7597 0.18595 0.44445 0.0
H986 H 0.78153 0.17782 0.41496 0.0
H987 H 0.77199 0.17178 0.51492 0.0
C988 C 0.82011 0.14033 0.32159 0.0
C989 C 0.82849 0.1415 0.40075 0.0
C990 C 0.80149 0.14113 0.31461 0.0
C991 C 0.79081 0.14316 0.38651 0.0
C992 C 0.79912 0.1442 0.46573 0.0
H993 H 0.67967 0.13728 0.51096 0.0
H994 H 0.71218 0.13909 0.50515 0.0
C995 C 0.81776 0.1435 0.47277 0.0
C996 C 0.77099 0.14346 0.37881 0.0
H997 H 0.73375 0.16755 0.43076 0.0
C998 C 0.76242 0.1289 0.34011 0.0
C999 C 0.76053 0.15778 0.41008 0.0
C1000 C 0.76891 0.1743 0.44765 0.0
C1001 C 0.74369 0.12799 0.33459 0.0
C1002 C 0.73327 0.14206 0.36804 0.0
C1003 C 0.74181 0.15677 0.40527 0.0
C1004 C 0.71346 0.14126 0.36968 0.0
C1005 C 0.73514 0.11171 0.29564 0.0
C1006 C 0.70334 0.14206 0.29523 0.0
C1007 C 0.68462 0.14109 0.29823 0.0
C1008 C 0.67576 0.13924 0.37578 0.0
C1009 C 0.68601 0.1386 0.45005 0.0
C1010 C 0.70463 0.13968 0.447 0.0
H1011 H 0.74495 0.10078 0.28492 0.0
H1012 H 0.72425 0.10661 0.33647 0.0
H1013 H 0.72917 0.11543 0.23413 0.0
H1014 H 0.70992 0.14347 0.23493 0.0
H1015 H 0.67714 0.14166 0.23993 0.0
H1016 H 0.15382 0.3293 0.78462 0.0
H1017 H 0.15377 0.29654 0.78518 0.0
H1018 H 0.13289 0.2963 0.53229 0.0
H1019 H 0.13285 0.32899 0.53098 0.0
H1020 H 0.1144 0.27356 0.64969 0.0
H1021 H 0.18795 0.2628 0.65174 0.0
H1022 H 0.17949 0.2779 0.73027 0.0
H1023 H 0.17788 0.28378 0.621 0.0
C1024 C 0.14929 0.32229 0.72895 0.0
C1025 C 0.14338 0.33178 0.65767 0.0
C1026 C 0.14935 0.30357 0.72929 0.0
C1027 C 0.14349 0.29402 0.65847 0.0
C1028 C 0.13753 0.30343 0.58744 0.0
H1029 H 0.15266 0.18104 0.54026 0.0
H1030 H 0.15381 0.21377 0.54033 0.0
C1031 C 0.13755 0.32212 0.58682 0.0
C1032 C 0.14309 0.2742 0.65903 0.0
H1033 H 0.16975 0.23712 0.66759 0.0
C1034 C 0.12649 0.26558 0.65361 0.0
C1035 C 0.15891 0.26386 0.66332 0.0
C1036 C 0.17711 0.27249 0.66624 0.0
C1037 C 0.12526 0.24684 0.65344 0.0
C1038 C 0.14104 0.2365 0.65937 0.0
C1039 C 0.15767 0.24511 0.66366 0.0
C1040 C 0.14054 0.2167 0.66032 0.0
C1041 C 0.10711 0.23822 0.64573 0.0
C1042 C 0.13287 0.20753 0.72828 0.0
C1043 C 0.13225 0.18884 0.72867 0.0
C1044 C 0.13926 0.17896 0.66093 0.0
C1045 C 0.14708 0.18822 0.59326 0.0
C1046 C 0.14779 0.20692 0.59321 0.0
H1047 H 0.09675 0.24788 0.6244 0.0
H1048 H 0.10755 0.22685 0.60086 0.0
H1049 H 0.10303 0.23291 0.70802 0.0
H1050 H 0.12741 0.21485 0.78115 0.0
H1051 H 0.12618 0.18215 0.78187 0.0
H1052 H 0.18502 0.84672 0.49502 0.0
H1053 H 0.21729 0.84442 0.47018 0.0
H1054 H 0.21418 0.88839 0.29462 0.0
H1055 H 0.18194 0.89002 0.3157 0.0
H1056 H 0.23382 0.86362 0.231 0.0
H1057 H 0.25664 0.87434 0.55887 0.0
H1058 H 0.24224 0.85532 0.54896 0.0
H1059 H 0.23368 0.8774 0.52774 0.0
C1060 C 0.19131 0.85596 0.45173 0.0
C1061 C 0.18103 0.86857 0.40742 0.0
C1062 C 0.20976 0.85471 0.43787 0.0
C1063 C 0.21829 0.86643 0.38151 0.0
C1064 C 0.20797 0.87917 0.33828 0.0
H1065 H 0.33077 0.88982 0.36477 0.0
H1066 H 0.29848 0.88903 0.38524 0.0
C1067 C 0.18954 0.88013 0.35056 0.0
C1068 C 0.23783 0.86526 0.36507 0.0
H1069 H 0.27876 0.86587 0.45999 0.0
C1070 C 0.24365 0.86419 0.28114 0.0
C1071 C 0.2507 0.86614 0.4303 0.0
C1072 C 0.24552 0.86855 0.52138 0.0
C1073 C 0.26189 0.86431 0.26047 0.0
C1074 C 0.27476 0.86471 0.32581 0.0
C1075 C 0.26893 0.86545 0.40981 0.0
C1076 C 0.2943 0.86539 0.309 0.0
C1077 C 0.26708 0.86475 0.16872 0.0
C1078 C 0.3028 0.85247 0.25858 0.0
C1079 C 0.32129 0.85321 0.2449 0.0
C1080 C 0.33162 0.86655 0.28361 0.0
C1081 C 0.32313 0.87936 0.33432 0.0
C1082 C 0.30467 0.87888 0.34628 0.0
H1083 H 0.25598 0.8698 0.12866 0.0
H1084 H 0.27896 0.87333 0.15826 0.0
H1085 H 0.2703 0.85098 0.14754 0.0
H1086 H 0.29523 0.84163 0.23105 0.0
H1087 H 0.32756 0.84302 0.20652 0.0
H1088 H 0.16474 0.11949 0.98777 0.0
H1089 H 0.19343 0.12124 0.06204 0.0
H1090 H 0.22088 0.12564 0.8246 0.0
H1091 H 0.19238 0.12415 0.75007 0.0
H1092 H 0.22416 0.0999 0.05309 0.0
H1093 H 0.23899 0.16922 0.95314 0.0
H1094 H 0.21706 0.15943 0.94244 0.0
H1095 H 0.23417 0.15479 0.8659 0.0
C1096 C 0.17689 0.12079 0.95132 0.0
C1097 C 0.17622 0.12183 0.86288 0.0
C1098 C 0.19327 0.1218 0.99393 0.0
C1099 C 0.20927 0.12395 0.949 0.0
C1100 C 0.20867 0.12443 0.86073 0.0
H1101 H 0.32082 0.12318 0.9921 0.0
H1102 H 0.28911 0.12278 0.95963 0.0
C1103 C 0.19234 0.12346 0.81815 0.0
C1104 C 0.22667 0.12565 0.99362 0.0
H1105 H 0.26372 0.15215 0.00651 0.0
C1106 C 0.2327 0.11145 0.04425 0.0
C1107 C 0.23773 0.14083 0.98281 0.0
C1108 C 0.23159 0.15701 0.93384 0.0
C1109 C 0.24994 0.11157 0.07991 0.0
C1110 C 0.26131 0.1263 0.06493 0.0
C1111 C 0.25497 0.14085 0.01774 0.0
C1112 C 0.28051 0.126 0.08844 0.0
C1113 C 0.25628 0.0956 0.12963 0.0
C1114 C 0.28625 0.12793 0.17221 0.0
C1115 C 0.3046 0.12824 0.19145 0.0
C1116 C 0.31741 0.12658 0.12707 0.0
C1117 C 0.31143 0.12448 0.04358 0.0
C1118 C 0.29325 0.12427 0.02461 0.0
H1119 H 0.24619 0.08473 0.13133 0.0
H1120 H 0.26883 0.09028 0.10196 0.0
H1121 H 0.25928 0.09975 0.19518 0.0
H1122 H 0.27657 0.12942 0.22233 0.0
H1123 H 0.30874 0.1299 0.25628 0.0
H1124 H 0.1215 0.81517 0.36435 0.0
H1125 H 0.11996 0.78518 0.30445 0.0
H1126 H 0.11628 0.80767 0.05523 0.0
H1127 H 0.11792 0.83791 0.1147 0.0
H1128 H 0.0929 0.76964 0.20073 0.0
H1129 H 0.15904 0.77239 0.04191 0.0
H1130 H 0.1526 0.78808 0.12276 0.0
H1131 H 0.14389 0.79038 0.01801 0.0
C1132 C 0.12035 0.81381 0.29671 0.0
C1133 C 0.11994 0.82899 0.24426 0.0
C1134 C 0.11943 0.79663 0.26266 0.0
C1135 C 0.11822 0.79419 0.17542 0.0
C1136 C 0.11748 0.80927 0.12272 0.0
H1137 H 0.12046 0.69804 0.86831 0.0
H1138 H 0.11866 0.7287 0.92012 0.0
C1139 C 0.11833 0.82653 0.15682 0.0
C1140 C 0.11787 0.77581 0.1403 0.0
H1141 H 0.14195 0.74628 0.022 0.0
C1142 C 0.10359 0.76452 0.16149 0.0
C1143 C 0.13185 0.76918 0.08927 0.0
C1144 C 0.14782 0.78054 0.06695 0.0
C1145 C 0.10283 0.74679 0.13238 0.0
C1146 C 0.11695 0.74006 0.08224 0.0
C1147 C 0.13115 0.75143 0.06049 0.0
C1148 C 0.11731 0.72129 0.05152 0.0
C1149 C 0.08677 0.73555 0.15438 0.0
C1150 C 0.11723 0.70685 0.10818 0.0
C1151 C 0.11817 0.68922 0.07869 0.0
C1152 C 0.11942 0.68571 0.99196 0.0
C1153 C 0.11952 0.70022 0.93551 0.0
C1154 C 0.1185 0.71779 0.965 0.0
H1155 H 0.0751 0.74396 0.17186 0.0
H1156 H 0.08289 0.72678 0.10106 0.0
H1157 H 0.09008 0.72693 0.2091 0.0
H1158 H 0.11675 0.70921 0.17535 0.0
H1159 H 0.1182 0.67838 0.12391 0.0
H1160 H 0.69723 0.89213 0.13109 0.0
H1161 H 0.72811 0.89388 0.08171 0.0
H1162 H 0.70945 0.8979 0.82555 0.0
H1163 H 0.67852 0.89655 0.87444 0.0
H1164 H 0.74527 0.87073 0.97738 0.0
H1165 H 0.74503 0.93859 0.83651 0.0
H1166 H 0.72748 0.93084 0.90525 0.0
H1167 H 0.7277 0.9244 0.79621 0.0
C1168 C 0.69967 0.89358 0.06428 0.0
C1169 C 0.68539 0.89426 0.00671 0.0
C1170 C 0.71734 0.89456 0.03619 0.0
C1171 C 0.72109 0.89628 0.95008 0.0
C1172 C 0.70687 0.89702 0.89245 0.0
H1173 H 0.8165 0.8906 0.64529 0.0
H1174 H 0.78601 0.89246 0.69994 0.0
C1175 C 0.68919 0.89613 0.9205 0.0
C1176 C 0.73988 0.89632 0.92037 0.0
H1177 H 0.77021 0.92014 0.80551 0.0
C1178 C 0.75077 0.88161 0.94043 0.0
C1179 C 0.74702 0.91051 0.87202 0.0
C1180 C 0.73626 0.92706 0.85185 0.0
C1181 C 0.76848 0.88052 0.91195 0.0
C1182 C 0.77554 0.89461 0.86291 0.0
C1183 C 0.76471 0.90936 0.8431 0.0
C1184 C 0.79406 0.89409 0.8304 0.0
C1185 C 0.7794 0.86412 0.93275 0.0
C1186 C 0.80867 0.89468 0.88575 0.0
C1187 C 0.82613 0.89367 0.85481 0.0
C1188 C 0.82927 0.89204 0.76788 0.0
C1189 C 0.81457 0.89177 0.7126 0.0
C1190 C 0.79713 0.89286 0.74361 0.0
H1191 H 0.77094 0.85296 0.95599 0.0
H1192 H 0.78693 0.85946 0.87669 0.0
H1193 H 0.78923 0.86748 0.9826 0.0
H1194 H 0.80655 0.89587 0.95293 0.0
H1195 H 0.83714 0.89397 0.89906 0.0
H1196 H 0.892 0.17521 0.11492 0.0
H1197 H 0.89466 0.20591 0.06258 0.0
H1198 H 0.89136 0.22588 0.31648 0.0
H1199 H 0.88874 0.19533 0.36952 0.0
H1200 H 0.86904 0.23433 0.0906 0.0
H1201 H 0.93641 0.25054 0.21675 0.0
H1202 H 0.92855 0.22784 0.20487 0.0
H1203 H 0.92096 0.24126 0.29147 0.0
C1204 C 0.89196 0.18612 0.1597 0.0
C1205 C 0.89018 0.18281 0.24642 0.0
C1206 C 0.89347 0.20364 0.12966 0.0
C1207 C 0.89343 0.2181 0.18582 0.0
C1208 C 0.89172 0.21486 0.27231 0.0
H1209 H 0.8963 0.33361 0.13759 0.0
H1210 H 0.89647 0.30265 0.18796 0.0
C1211 C 0.89012 0.19739 0.30238 0.0
C1212 C 0.89437 0.23666 0.15384 0.0
H1213 H 0.9198 0.27452 0.15787 0.0
C1214 C 0.88018 0.24311 0.10473 0.0
C1215 C 0.90886 0.24806 0.17315 0.0
C1216 C 0.92466 0.2416 0.22389 0.0
C1217 C 0.87991 0.26082 0.07557 0.0
C1218 C 0.89446 0.27222 0.09441 0.0
C1219 C 0.90868 0.26575 0.14348 0.0
C1220 C 0.89513 0.29092 0.06367 0.0
C1221 C 0.86381 0.26727 0.02683 0.0
C1222 C 0.89477 0.29456 0.97712 0.0
C1223 C 0.89457 0.31219 0.94821 0.0
C1224 C 0.89495 0.32655 0.00533 0.0
C1225 C 0.89596 0.32287 0.09199 0.0
C1226 C 0.89606 0.30519 0.12087 0.0
H1227 H 0.85196 0.25866 0.03798 0.0
H1228 H 0.86033 0.28124 0.04399 0.0
H1229 H 0.86686 0.26689 0.95855 0.0
H1230 H 0.89452 0.28375 0.93184 0.0
H1231 H 0.89398 0.31455 0.88101 0.0
H1232 H 0.19907 0.38722 0.59232 0.0
H1233 H 0.22895 0.3872 0.53011 0.0
H1234 H 0.20582 0.3918 0.28247 0.0
H1235 H 0.17584 0.3917 0.34397 0.0
H1236 H 0.23228 0.36483 0.29747 0.0
H1237 H 0.25601 0.42965 0.42573 0.0
H1238 H 0.24718 0.41452 0.50302 0.0
H1239 H 0.23266 0.42355 0.42339 0.0
C1240 C 0.20031 0.38834 0.52462 0.0
C1241 C 0.18503 0.38951 0.47316 0.0
C1242 C 0.21742 0.38842 0.48923 0.0
C1243 C 0.21961 0.38974 0.40177 0.0
C1244 C 0.20442 0.39087 0.35017 0.0
H1245 H 0.31243 0.38561 0.0694 0.0
H1246 H 0.28217 0.38712 0.12711 0.0
C1247 C 0.1873 0.39084 0.38548 0.0
C1248 C 0.23774 0.38929 0.36397 0.0
H1249 H 0.2777 0.41129 0.35919 0.0
C1250 C 0.24219 0.37504 0.31045 0.0
C1251 C 0.25064 0.40259 0.38132 0.0
C1252 C 0.2464 0.41854 0.4359 0.0
C1253 C 0.25934 0.37351 0.27527 0.0
C1254 C 0.27228 0.38681 0.29272 0.0
C1255 C 0.26778 0.40111 0.34591 0.0
C1256 C 0.29063 0.38603 0.25728 0.0
C1257 C 0.26361 0.3574 0.22173 0.0
C1258 C 0.30548 0.38539 0.31122 0.0
C1259 C 0.32281 0.38467 0.27846 0.0
C1260 C 0.32565 0.38464 0.19095 0.0
C1261 C 0.31074 0.38547 0.13704 0.0
C1262 C 0.29341 0.38624 0.16993 0.0
H1263 H 0.25402 0.34632 0.23271 0.0
H1264 H 0.26278 0.36121 0.15435 0.0
H1265 H 0.27734 0.35244 0.23448 0.0
H1266 H 0.30365 0.3853 0.37883 0.0
H1267 H 0.33397 0.38408 0.32185 0.0
H1268 H 0.39148 0.83847 0.59226 0.0
H1269 H 0.39229 0.80892 0.65954 0.0
H1270 H 0.39267 0.78379 0.4154 0.0
H1271 H 0.39151 0.81303 0.34813 0.0
H1272 H 0.36805 0.76892 0.51955 0.0
H1273 H 0.43355 0.77377 0.68291 0.0
H1274 H 0.41803 0.79135 0.70752 0.0
H1275 H 0.42672 0.78943 0.60254 0.0
C1276 C 0.39188 0.82665 0.55302 0.0
C1277 C 0.39141 0.82815 0.46478 0.0
C1278 C 0.39244 0.80976 0.59154 0.0
C1279 C 0.39275 0.7941 0.54252 0.0
C1280 C 0.39246 0.79564 0.45459 0.0
H1281 H 0.39503 0.67902 0.60831 0.0
H1282 H 0.39553 0.70977 0.55537 0.0
C1283 C 0.3918 0.81243 0.41621 0.0
C1284 C 0.39263 0.77602 0.58169 0.0
H1285 H 0.41643 0.74772 0.70862 0.0
C1286 C 0.37865 0.7643 0.56084 0.0
C1287 C 0.40643 0.76999 0.63582 0.0
C1288 C 0.42213 0.78171 0.65813 0.0
C1289 C 0.37809 0.74676 0.59232 0.0
C1290 C 0.39201 0.74065 0.64535 0.0
C1291 C 0.40582 0.75243 0.66764 0.0
C1292 C 0.39243 0.72202 0.6778 0.0
C1293 C 0.3625 0.73495 0.56925 0.0
C1294 C 0.39098 0.71871 0.76437 0.0
C1295 C 0.3907 0.70115 0.79486 0.0
C1296 C 0.39201 0.68653 0.73937 0.0
C1297 C 0.39392 0.68993 0.65278 0.0
C1298 C 0.39413 0.7075 0.62235 0.0
H1299 H 0.35098 0.74284 0.54518 0.0
H1300 H 0.36669 0.7255 0.51916 0.0
H1301 H 0.35803 0.72698 0.62432 0.0
H1302 H 0.38975 0.72972 0.80827 0.0
H1303 H 0.38929 0.69905 0.86196 0.0
H1304 H 0.67614 0.61517 0.37558 0.0
H1305 H 0.70683 0.61358 0.42887 0.0
H1306 H 0.72702 0.61893 0.17621 0.0
H1307 H 0.69645 0.62048 0.12216 0.0
H1308 H 0.74377 0.59123 0.27738 0.0
H1309 H 0.74123 0.65731 0.43737 0.0
H1310 H 0.72343 0.64212 0.4628 0.0
H1311 H 0.72526 0.65081 0.35783 0.0
C1312 C 0.6871 0.61595 0.33127 0.0
C1313 C 0.68384 0.61806 0.24464 0.0
C1314 C 0.70462 0.61511 0.36189 0.0
C1315 C 0.71915 0.61636 0.3065 0.0
C1316 C 0.71596 0.61802 0.21993 0.0
H1317 H 0.83505 0.61635 0.35842 0.0
H1318 H 0.80437 0.61489 0.30514 0.0
C1319 C 0.69847 0.61893 0.18926 0.0
C1320 C 0.73772 0.61616 0.33876 0.0
H1321 H 0.7673 0.64001 0.45745 0.0
C1322 C 0.74896 0.60188 0.31669 0.0
C1323 C 0.7444 0.6301 0.38989 0.0
C1324 C 0.73305 0.64605 0.41303 0.0
C1325 C 0.76669 0.60101 0.34573 0.0
C1326 C 0.7734 0.615 0.39661 0.0
C1327 C 0.76212 0.62928 0.41854 0.0
C1328 C 0.79206 0.61515 0.42834 0.0
C1329 C 0.7779 0.58493 0.32325 0.0
C1330 C 0.79533 0.61611 0.51514 0.0
C1331 C 0.8128 0.61715 0.54568 0.0
C1332 C 0.8274 0.61727 0.48999 0.0
C1333 C 0.82411 0.61615 0.40301 0.0
C1334 C 0.80659 0.61521 0.37246 0.0
H1335 H 0.76949 0.57336 0.30444 0.0
H1336 H 0.78666 0.58835 0.26931 0.0
H1337 H 0.78653 0.58083 0.37681 0.0
H1338 H 0.78431 0.61615 0.55936 0.0
H1339 H 0.81483 0.61798 0.61305 0.0
H1340 H 0.62156 0.17425 0.69818 0.0
H1341 H 0.62123 0.20546 0.74557 0.0
H1342 H 0.61885 0.22325 0.48766 0.0
H1343 H 0.61941 0.19233 0.4398 0.0
H1344 H 0.64479 0.24061 0.58245 0.0
H1345 H 0.57907 0.24075 0.74525 0.0
H1346 H 0.59435 0.22357 0.7786 0.0
H1347 H 0.58565 0.22328 0.67321 0.0
C1348 C 0.62087 0.18481 0.65168 0.0
C1349 C 0.62051 0.18079 0.56527 0.0
C1350 C 0.62059 0.20262 0.67883 0.0
C1351 C 0.61981 0.21663 0.62005 0.0
C1352 C 0.61941 0.21263 0.53399 0.0
H1353 H 0.62015 0.33281 0.62905 0.0
H1354 H 0.61899 0.30124 0.58819 0.0
C1355 C 0.61972 0.19491 0.50685 0.0
C1356 C 0.62005 0.23556 0.6473 0.0
H1357 H 0.59652 0.26705 0.75644 0.0
C1358 C 0.63423 0.24641 0.62037 0.0
C1359 C 0.60624 0.24304 0.69673 0.0
C1360 C 0.59037 0.23214 0.72469 0.0
C1361 C 0.63506 0.26456 0.64215 0.0
C1362 C 0.62119 0.27208 0.69107 0.0
C1363 C 0.60708 0.26121 0.71864 0.0
C1364 C 0.62127 0.29117 0.71544 0.0
C1365 C 0.65091 0.27547 0.61389 0.0
C1366 C 0.62245 0.29589 0.80053 0.0
C1367 C 0.62306 0.31386 0.82406 0.0
C1368 C 0.62238 0.32746 0.76287 0.0
C1369 C 0.62079 0.32267 0.67764 0.0
C1370 C 0.62022 0.30466 0.65417 0.0
H1371 H 0.66227 0.26685 0.59414 0.0
H1372 H 0.64696 0.28385 0.55934 0.0
H1373 H 0.65554 0.28449 0.66492 0.0
H1374 H 0.6232 0.28566 0.8487 0.0
H1375 H 0.6242 0.31706 0.8903 0.0
loop_
_geom_bond_atom_site_label_1
_geom_bond_atom_site_label_2
_geom_bond_distance
_geom_bond_site_symmetry_2
_ccdc_geom_bond_type
C0 O2 1.247 . S
C0 O4 1.258 . S
C1 O8 1.247 . S
C1 O9 1.258 . S
O2 C0 1.247 . S
O2 Zn3 2.028 . S
Zn3 O2 2.028 . S
Zn3 O7 2.035 . S
Zn3 O9 2.035 . S
Zn3 O10 2.028 . S
O4 C0 1.258 . S
O4 Zn5 2.035 . S
Zn5 O4 2.035 . S
Zn5 O6 2.028 . S
Zn5 O8 2.028 . S
Zn5 O11 2.035 . S
O6 Zn5 2.028 . S
O6 C12 1.247 . S
O7 Zn3 2.035 . S
O7 C12 1.258 . S
O8 C1 1.247 . S
O8 Zn5 2.028 . S
O9 C1 1.258 . S
O9 Zn3 2.035 . S
O10 Zn3 2.028 . S
O10 C13 1.247 . S
O11 Zn5 2.035 . S
O11 C13 1.258 . S
C12 O6 1.247 . S
C12 O7 1.258 . S
C13 O10 1.247 . S
C13 O11 1.258 . S
C14 O16 1.247 . S
C14 O18 1.258 . S
C15 O22 1.247 . S
C15 O23 1.258 . S
O16 C14 1.247 . S
O16 Zn17 2.028 . S
Zn17 O16 2.028 . S
Zn17 O21 2.035 . S
Zn17 O23 2.035 . S
Zn17 O24 2.028 . S
O18 C14 1.258 . S
O18 Zn19 2.035 . S
Zn19 O18 2.035 . S
Zn19 O20 2.028 . S
Zn19 O22 2.028 . S
Zn19 O25 2.035 . S
O20 Zn19 2.028 . S
O20 C26 1.247 . S
O21 Zn17 2.035 . S
O21 C26 1.258 . S
O22 C15 1.247 . S
O22 Zn19 2.028 . S
O23 C15 1.258 . S
O23 Zn17 2.035 . S
O24 Zn17 2.028 . S
O24 C27 1.247 . S
O25 Zn19 2.035 . S
O25 C27 1.258 . S
C26 O20 1.247 . S
C26 O21 1.258 . S
C27 O24 1.247 . S
C27 O25 1.258 . S
C28 O30 1.247 . S
C28 O32 1.258 . S
C29 O36 1.247 . S
C29 O37 1.258 . S
O30 C28 1.247 . S
O30 Zn31 2.028 . S
Zn31 O30 2.028 . S
Zn31 O35 2.035 . S
Zn31 O37 2.035 . S
Zn31 O38 2.028 . S
O32 C28 1.258 . S
O32 Zn33 2.035 . S
Zn33 O32 2.035 . S
Zn33 O34 2.028 . S
Zn33 O36 2.028 . S
Zn33 O39 2.035 . S
O34 Zn33 2.028 . S
O34 C40 1.247 . S
O35 Zn31 2.035 . S
O35 C40 1.258 . S
O36 C29 1.247 . S
O36 Zn33 2.028 . S
O37 C29 1.258 . S
O37 Zn31 2.035 . S
O38 Zn31 2.028 . S
O38 C41 1.247 . S
O39 Zn33 2.035 . S
O39 C41 1.258 . S
C40 O34 1.247 . S
C40 O35 1.258 . S
C41 O38 1.247 . S
C41 O39 1.258 . S
C42 O44 1.247 . S
C42 O46 1.258 . S
C43 O50 1.247 . S
C43 O51 1.258 . S
O44 C42 1.247 . S
O44 Zn45 2.028 . S
Zn45 O44 2.028 . S
Zn45 O49 2.035 . S
Zn45 O51 2.035 . S
Zn45 O52 2.028 . S
O46 C42 1.258 . S
O46 Zn47 2.035 . S
Zn47 O46 2.035 . S
Zn47 O48 2.028 . S
Zn47 O50 2.028 . S
Zn47 O53 2.035 . S
O48 Zn47 2.028 . S
O48 C54 1.247 . S
O49 Zn45 2.035 . S
O49 C54 1.258 . S
O50 C43 1.247 . S
O50 Zn47 2.028 . S
O51 C43 1.258 . S
O51 Zn45 2.035 . S
O52 Zn45 2.028 . S
O52 C55 1.247 . S
O53 Zn47 2.035 . S
O53 C55 1.258 . S
C54 O48 1.247 . S
C54 O49 1.258 . S
C55 O52 1.247 . S
C55 O53 1.258 . S
C56 O58 1.247 1_554 S
C56 O60 1.258 . S
C57 O64 1.247 . S
C57 O65 1.258 . S
O58 C56 1.247 1_556 S
O58 Zn59 2.028 1_556 S
Zn59 O58 2.028 1_554 S
Zn59 O63 2.035 . S
Zn59 O65 2.035 . S
Zn59 O66 2.028 . S
O60 C56 1.258 . S
O60 Zn61 2.035 . S
Zn61 O60 2.035 . S
Zn61 O62 2.028 . S
Zn61 O64 2.028 . S
Zn61 O67 2.035 . S
O62 Zn61 2.028 . S
O62 C68 1.247 . S
O63 Zn59 2.035 . S
O63 C68 1.258 . S
O64 C57 1.247 . S
O64 Zn61 2.028 . S
O65 C57 1.258 . S
O65 Zn59 2.035 . S
O66 Zn59 2.028 . S
O66 C69 1.247 . S
O67 Zn61 2.035 . S
O67 C69 1.258 . S
C68 O62 1.247 . S
C68 O63 1.258 . S
C69 O66 1.247 . S
C69 O67 1.258 . S
C70 O72 1.247 . S
C70 O74 1.258 1_556 S
C71 O78 1.247 . S
C71 O79 1.258 . S
O72 C70 1.247 . S
O72 Zn73 2.028 . S
Zn73 O72 2.028 . S
Zn73 O77 2.035 . S
Zn73 O79 2.035 . S
Zn73 O80 2.028 . S
O74 C70 1.258 1_554 S
O74 Zn75 2.035 1_554 S
Zn75 O74 2.035 1_556 S
Zn75 O76 2.028 . S
Zn75 O78 2.028 . S
Zn75 O81 2.035 . S
O76 Zn75 2.028 . S
O76 C82 1.247 . S
O77 Zn73 2.035 . S
O77 C82 1.258 . S
O78 C71 1.247 . S
O78 Zn75 2.028 . S
O79 C71 1.258 . S
O79 Zn73 2.035 . S
O80 Zn73 2.028 . S
O80 C83 1.247 . S
O81 Zn75 2.035 . S
O81 C83 1.258 . S
C82 O76 1.247 . S
C82 O77 1.258 . S
C83 O80 1.247 . S
C83 O81 1.258 . S
C84 O86 1.247 . S
C84 O88 1.258 . S
C85 O92 1.247 . S
C85 O93 1.258 1_554 S
O86 C84 1.247 . S
O86 Zn87 2.028 . S
Zn87 O86 2.028 . S
Zn87 O91 2.035 . S
Zn87 O93 2.035 1_554 S
Zn87 O94 2.028 . S
O88 C84 1.258 . S
O88 Zn89 2.035 . S
Zn89 O88 2.035 . S
Zn89 O90 2.028 . S
Zn89 O92 2.028 . S
Zn89 O95 2.035 . S
O90 Zn89 2.028 . S
O90 C96 1.247 . S
O91 Zn87 2.035 . S
O91 C96 1.258 . S
O92 C85 1.247 . S
O92 Zn89 2.028 . S
O93 C85 1.258 1_556 S
O93 Zn87 2.035 1_556 S
O94 Zn87 2.028 . S
O94 C97 1.247 . S
O95 Zn89 2.035 . S
O95 C97 1.258 . S
C96 O90 1.247 . S
C96 O91 1.258 . S
C97 O94 1.247 . S
C97 O95 1.258 . S
C98 O100 1.247 . S
C98 O102 1.258 1_556 S
C99 O106 1.247 . S
C99 O107 1.258 . S
O100 C98 1.247 . S
O100 Zn101 2.028 . S
Zn101 O100 2.028 . S
Zn101 O105 2.035 . S
Zn101 O107 2.035 . S
Zn101 O108 2.028 . S
O102 C98 1.258 1_554 S
O102 Zn103 2.035 1_554 S
Zn103 O102 2.035 1_556 S
Zn103 O104 2.028 . S
Zn103 O106 2.028 . S
Zn103 O109 2.035 . S
O104 Zn103 2.028 . S
O104 C110 1.247 . S
O105 Zn101 2.035 . S
O105 C110 1.258 . S
O106 C99 1.247 . S
O106 Zn103 2.028 . S
O107 C99 1.258 . S
O107 Zn101 2.035 . S
O108 Zn101 2.028 . S
O108 C111 1.247 . S
O109 Zn103 2.035 . S
O109 C111 1.258 . S
C110 O104 1.247 . S
C110 O105 1.258 . S
C111 O108 1.247 . S
C111 O109 1.258 . S
C112 O114 1.247 . S
C112 O116 1.258 . S
C113 O120 1.247 . S
C113 O121 1.258 . S
O114 C112 1.247 . S
O114 Zn115 2.028 . S
Zn115 O114 2.028 . S
Zn115 O119 2.035 . S
Zn115 O121 2.035 . S
Zn115 O122 2.028 . S
O116 C112 1.258 . S
O116 Zn117 2.035 . S
Zn117 O116 2.035 . S
Zn117 O118 2.028 . S
Zn117 O120 2.028 . S
Zn117 O123 2.035 . S
O118 Zn117 2.028 . S
O118 C124 1.247 . S
O119 Zn115 2.035 . S
O119 C124 1.258 . S
O120 C113 1.247 . S
O120 Zn117 2.028 . S
O121 C113 1.258 . S
O121 Zn115 2.035 . S
O122 Zn115 2.028 . S
O122 C125 1.247 . S
O123 Zn117 2.035 . S
O123 C125 1.258 . S
C124 O118 1.247 . S
C124 O119 1.258 . S
C125 O122 1.247 . S
C125 O123 1.258 . S
C126 O128 1.247 . S
C126 O130 1.258 . S
C127 O134 1.247 . S
C127 O135 1.258 . S
O128 C126 1.247 . S
O128 Zn129 2.028 . S
Zn129 O128 2.028 . S
Zn129 O133 2.035 . S
Zn129 O135 2.035 . S
Zn129 O136 2.028 . S
O130 C126 1.258 . S
O130 Zn131 2.035 . S
Zn131 O130 2.035 . S
Zn131 O132 2.028 . S
Zn131 O134 2.028 . S
Zn131 O137 2.035 . S
O132 Zn131 2.028 . S
O132 C138 1.247 . S
O133 Zn129 2.035 . S
O133 C138 1.258 . S
O134 C127 1.247 . S
O134 Zn131 2.028 . S
O135 C127 1.258 . S
O135 Zn129 2.035 . S
O136 Zn129 2.028 . S
O136 C139 1.247 . S
O137 Zn131 2.035 . S
O137 C139 1.258 . S
C138 O132 1.247 . S
C138 O133 1.258 . S
C139 O136 1.247 . S
C139 O137 1.258 . S
C140 O142 1.247 . S
C140 O144 1.258 . S
C141 O148 1.247 . S
C141 O149 1.258 . S
O142 C140 1.247 . S
O142 Zn143 2.028 . S
Zn143 O142 2.028 . S
Zn143 O147 2.035 . S
Zn143 O149 2.035 . S
Zn143 O150 2.028 . S
O144 C140 1.258 . S
O144 Zn145 2.035 . S
Zn145 O144 2.035 . S
Zn145 O146 2.028 . S
Zn145 O148 2.028 . S
Zn145 O151 2.035 . S
O146 Zn145 2.028 . S
O146 C152 1.247 . S
O147 Zn143 2.035 . S
O147 C152 1.258 . S
O148 C141 1.247 . S
O148 Zn145 2.028 . S
O149 C141 1.258 . S
O149 Zn143 2.035 . S
O150 Zn143 2.028 . S
O150 C153 1.247 . S
O151 Zn145 2.035 . S
O151 C153 1.258 . S
C152 O146 1.247 . S
C152 O147 1.258 . S
C153 O150 1.247 . S
C153 O151 1.258 . S
C154 O156 1.247 . S
C154 O158 1.258 . S
C155 O162 1.247 . S
C155 O163 1.258 . S
O156 C154 1.247 . S
O156 Zn157 2.028 . S
Zn157 O156 2.028 . S
Zn157 O161 2.035 . S
Zn157 O163 2.035 . S
Zn157 O164 2.028 . S
O158 C154 1.258 . S
O158 Zn159 2.035 . S
Zn159 O158 2.035 . S
Zn159 O160 2.028 . S
Zn159 O162 2.028 . S
Zn159 O165 2.035 . S
O160 Zn159 2.028 . S
O160 C166 1.247 . S
O161 Zn157 2.035 . S
O161 C166 1.258 . S
O162 C155 1.247 . S
O162 Zn159 2.028 . S
O163 C155 1.258 . S
O163 Zn157 2.035 . S
O164 Zn157 2.028 . S
O164 C167 1.247 . S
O165 Zn159 2.035 . S
O165 C167 1.258 . S
C166 O160 1.247 . S
C166 O161 1.258 . S
C167 O164 1.247 . S
C167 O165 1.258 . S
C168 O170 1.247 . S
C168 O172 1.258 . S
C169 O176 1.247 . S
C169 O177 1.258 . S
O170 C168 1.247 . S
O170 Zn171 2.028 . S
Zn171 O170 2.028 . S
Zn171 O175 2.035 . S
Zn171 O177 2.035 . S
Zn171 O178 2.028 . S
O172 C168 1.258 . S
O172 Zn173 2.035 . S
Zn173 O172 2.035 . S
Zn173 O174 2.028 . S
Zn173 O176 2.028 . S
Zn173 O179 2.035 . S
O174 Zn173 2.028 . S
O174 C180 1.247 . S
O175 Zn171 2.035 . S
O175 C180 1.258 . S
O176 C169 1.247 . S
O176 Zn173 2.028 . S
O177 C169 1.258 . S
O177 Zn171 2.035 . S
O178 Zn171 2.028 . S
O178 C181 1.247 . S
O179 Zn173 2.035 . S
O179 C181 1.258 . S
C180 O174 1.247 . S
C180 O175 1.258 . S
C181 O178 1.247 . S
C181 O179 1.258 . S
C182 O184 1.247 . S
C182 O186 1.258 . S
C183 O190 1.247 . S
C183 O191 1.258 . S
O184 C182 1.247 . S
O184 Zn185 2.028 . S
Zn185 O184 2.028 . S
Zn185 O189 2.035 . S
Zn185 O191 2.035 . S
Zn185 O192 2.028 . S
O186 C182 1.258 . S
O186 Zn187 2.035 . S
Zn187 O186 2.035 . S
Zn187 O188 2.028 . S
Zn187 O190 2.028 . S
Zn187 O193 2.035 . S
O188 Zn187 2.028 . S
O188 C194 1.247 . S
O189 Zn185 2.035 . S
O189 C194 1.258 . S
O190 C183 1.247 . S
O190 Zn187 2.028 . S
O191 C183 1.258 . S
O191 Zn185 2.035 . S
O192 Zn185 2.028 . S
O192 C195 1.247 . S
O193 Zn187 2.035 . S
O193 C195 1.258 . S
C194 O188 1.247 . S
C194 O189 1.258 . S
C195 O192 1.247 . S
C195 O193 1.258 . S
C196 O198 1.247 . S
C196 O200 1.258 . S
C197 O204 1.247 . S
C197 O205 1.258 . S
O198 C196 1.247 . S
O198 Zn199 2.028 . S
Zn199 O198 2.028 . S
Zn199 O203 2.035 . S
Zn199 O205 2.035 . S
Zn199 O206 2.028 . S
O200 C196 1.258 . S
O200 Zn201 2.035 . S
Zn201 O200 2.035 . S
Zn201 O202 2.028 . S
Zn201 O204 2.028 . S
Zn201 O207 2.035 . S
O202 Zn201 2.028 . S
O202 C208 1.247 . S
O203 Zn199 2.035 . S
O203 C208 1.258 . S
O204 C197 1.247 . S
O204 Zn201 2.028 . S
O205 C197 1.258 . S
O205 Zn199 2.035 . S
O206 Zn199 2.028 . S
O206 C209 1.247 . S
O207 Zn201 2.035 . S
O207 C209 1.258 . S
C208 O202 1.247 . S
C208 O203 1.258 . S
C209 O206 1.247 . S
C209 O207 1.258 . S
C210 O212 1.247 . S
C210 O214 1.258 . S
C211 O218 1.247 . S
C211 O219 1.258 . S
O212 C210 1.247 . S
O212 Zn213 2.028 . S
Zn213 O212 2.028 . S
Zn213 O217 2.035 . S
Zn213 O219 2.035 . S
Zn213 O220 2.028 . S
O214 C210 1.258 . S
O214 Zn215 2.035 . S
Zn215 O214 2.035 . S
Zn215 O216 2.028 . S
Zn215 O218 2.028 . S
Zn215 O221 2.035 . S
O216 Zn215 2.028 . S
O216 C222 1.247 . S
O217 Zn213 2.035 . S
O217 C222 1.258 . S
O218 C211 1.247 . S
O218 Zn215 2.028 . S
O219 C211 1.258 . S
O219 Zn213 2.035 . S
O220 Zn213 2.028 . S
O220 C223 1.247 . S
O221 Zn215 2.035 . S
O221 C223 1.258 . S
C222 O216 1.247 . S
C222 O217 1.258 . S
C223 O220 1.247 . S
C223 O221 1.258 . S
H224 C232 0.929 . S
H225 C234 0.930 . S
H226 C236 0.930 . S
H227 C239 0.929 . S
H228 C242 0.930 . S
H229 C244 0.960 . S
H230 C244 0.960 . S
H231 C244 0.960 . S
C232 H224 0.929 . S
C232 C233 1.377 . S
C232 C234 1.384 . S
C233 C232 1.377 . S
C233 C239 1.390 . S
C234 H225 0.930 . S
C234 C232 1.384 . S
C234 C235 1.372 . S
C235 C234 1.372 . S
C235 C236 1.400 . S
C235 C240 1.490 . S
C236 H226 0.930 . S
C236 C235 1.400 . S
C236 C239 1.386 . S
H237 C253 0.930 . S
H238 C254 0.931 . S
C239 H227 0.929 . S
C239 C233 1.390 . S
C239 C236 1.386 . S
C240 C235 1.490 . S
C240 C242 1.395 . S
C240 C243 1.403 . S
H241 C247 0.930 . S
C242 H228 0.930 . S
C242 C240 1.395 . S
C242 C245 1.403 1_565 S
C243 C240 1.403 . S
C243 C244 1.524 . S
C243 C247 1.400 1_565 S
C244 H229 0.960 . S
C244 H230 0.960 . S
C244 H231 0.960 . S
C244 C243 1.524 . S
C245 C242 1.403 1_545 S
C245 C246 1.392 . S
C245 C249 1.495 . S
C246 C245 1.392 . S
C246 C247 1.385 . S
C246 C248 1.478 . S
C247 H241 0.930 . S
C247 C243 1.400 1_545 S
C247 C246 1.385 . S
C248 C246 1.478 . S
C248 C250 1.381 . S
C248 C254 1.383 . S
C249 C245 1.495 . S
C249 H255 0.972 . S
C249 H256 0.961 . S
C249 H257 0.960 . S
C250 C248 1.381 . S
C250 C251 1.394 . S
C250 H258 0.930 . S
C251 C250 1.394 . S
C251 C252 1.383 . S
C251 H259 0.929 . S
C252 C251 1.383 . S
C252 C253 1.377 . S
C253 H237 0.930 . S
C253 C252 1.377 . S
C253 C254 1.379 . S
C254 H238 0.931 . S
C254 C248 1.383 . S
C254 C253 1.379 . S
H255 C249 0.972 . S
H256 C249 0.961 . S
H257 C249 0.960 . S
H258 C250 0.930 . S
H259 C251 0.929 . S
H260 C268 0.929 . S
H261 C270 0.930 . S
H262 C272 0.930 . S
H263 C275 0.929 . S
H264 C278 0.930 . S
H265 C280 0.960 1_655 S
H266 C280 0.960 . S
H267 C280 0.960 . S
C268 H260 0.929 . S
C268 C269 1.377 . S
C268 C270 1.384 . S
C269 C268 1.377 . S
C269 C275 1.390 . S
C270 H261 0.930 . S
C270 C268 1.384 . S
C270 C271 1.372 . S
C271 C270 1.372 . S
C271 C272 1.400 . S
C271 C276 1.490 . S
C272 H262 0.930 . S
C272 C271 1.400 . S
C272 C275 1.386 . S
H273 C289 0.930 . S
H274 C290 0.931 . S
C275 H263 0.929 . S
C275 C269 1.390 . S
C275 C272 1.386 . S
C276 C271 1.490 . S
C276 C278 1.395 . S
C276 C279 1.403 . S
H277 C283 0.930 . S
C278 H264 0.930 . S
C278 C276 1.395 . S
C278 C281 1.403 1_455 S
C279 C276 1.403 . S
C279 C280 1.524 . S
C279 C283 1.400 1_455 S
C280 H265 0.960 1_455 S
C280 H266 0.960 . S
C280 H267 0.960 . S
C280 C279 1.524 . S
C281 C278 1.403 1_655 S
C281 C282 1.392 . S
C281 C285 1.495 . S
C282 C281 1.392 . S
C282 C283 1.385 . S
C282 C284 1.478 . S
C283 H277 0.930 . S
C283 C279 1.400 1_655 S
C283 C282 1.385 . S
C284 C282 1.478 . S
C284 C286 1.381 . S
C284 C290 1.383 . S
C285 C281 1.495 . S
C285 H291 0.959 . S
C285 H292 0.961 . S
C285 H293 0.960 . S
C286 C284 1.381 . S
C286 C287 1.394 . S
C286 H294 0.930 . S
C287 C286 1.394 . S
C287 C288 1.383 . S
C287 H295 0.929 . S
C288 C287 1.383 . S
C288 C289 1.377 . S
C289 H273 0.930 . S
C289 C288 1.377 . S
C289 C290 1.379 . S
C290 H274 0.931 . S
C290 C284 1.383 . S
C290 C289 1.379 . S
H291 C285 0.959 . S
H292 C285 0.961 . S
H293 C285 0.960 . S
H294 C286 0.930 . S
H295 C287 0.929 . S
H296 C304 0.929 . S
H297 C306 0.930 . S
H298 C308 0.930 . S
H299 C311 0.929 . S
H300 C314 0.930 . S
H301 C316 0.960 . S
H302 C316 0.960 . S
H303 C316 0.960 . S
C304 H296 0.929 . S
C304 C305 1.377 . S
C304 C306 1.384 . S
C305 C304 1.377 . S
C305 C311 1.390 . S
C306 H297 0.930 . S
C306 C304 1.384 . S
C306 C307 1.372 . S
C307 C306 1.372 . S
C307 C308 1.400 . S
C307 C312 1.490 . S
C308 H298 0.930 . S
C308 C307 1.400 . S
C308 C311 1.386 . S
H309 C325 0.930 . S
H310 C326 0.931 . S
C311 H299 0.929 . S
C311 C305 1.390 . S
C311 C308 1.386 . S
C312 C307 1.490 . S
C312 C314 1.395 . S
C312 C315 1.403 . S
H313 C319 0.930 . S
C314 H300 0.930 . S
C314 C312 1.395 . S
C314 C317 1.403 1_565 S
C315 C312 1.403 . S
C315 C316 1.524 . S
C315 C319 1.400 1_565 S
C316 H301 0.960 . S
C316 H302 0.960 . S
C316 H303 0.960 . S
C316 C315 1.524 . S
C317 C314 1.403 1_545 S
C317 C318 1.392 . S
C317 C321 1.495 . S
C318 C317 1.392 . S
C318 C319 1.385 . S
C318 C320 1.478 . S
C319 H313 0.930 . S
C319 C315 1.400 1_545 S
C319 C318 1.385 . S
C320 C318 1.478 . S
C320 C322 1.381 . S
C320 C326 1.383 . S
C321 C317 1.495 . S
C321 H327 0.959 . S
C321 H328 0.961 . S
C321 H329 0.960 . S
C322 C320 1.381 . S
C322 C323 1.394 . S
C322 H330 0.930 . S
C323 C322 1.394 . S
C323 C324 1.383 . S
C323 H331 0.929 . S
C324 C323 1.383 . S
C324 C325 1.377 . S
C325 H309 0.930 . S
C325 C324 1.377 . S
C325 C326 1.379 . S
C326 H310 0.931 . S
C326 C320 1.383 . S
C326 C325 1.379 . S
H327 C321 0.959 . S
H328 C321 0.961 . S
H329 C321 0.960 . S
H330 C322 0.930 . S
H331 C323 0.929 . S
H332 C340 0.929 . S
H333 C342 0.930 . S
H334 C344 0.930 . S
H335 C347 0.929 . S
H336 C350 0.930 . S
H337 C352 0.960 . S
H338 C352 0.960 . S
H339 C352 0.960 . S
C340 H332 0.929 . S
C340 C341 1.377 . S
C340 C342 1.384 . S
C341 C340 1.377 . S
C341 C347 1.390 . S
C342 H333 0.930 . S
C342 C340 1.384 . S
C342 C343 1.372 . S
C343 C342 1.372 . S
C343 C344 1.400 . S
C343 C348 1.490 . S
C344 H334 0.930 . S
C344 C343 1.400 . S
C344 C347 1.386 . S
H345 C361 0.930 . S
H346 C362 0.931 . S
C347 H335 0.929 . S
C347 C341 1.390 . S
C347 C344 1.386 . S
C348 C343 1.490 . S
C348 C350 1.395 . S
C348 C351 1.403 . S
H349 C355 0.930 . S
C350 H336 0.930 . S
C350 C348 1.395 . S
C350 C353 1.403 1_455 S
C351 C348 1.403 . S
C351 C352 1.524 . S
C351 C355 1.400 1_455 S
C352 H337 0.960 . S
C352 H338 0.960 . S
C352 H339 0.960 . S
C352 C351 1.524 . S
C353 C350 1.403 1_655 S
C353 C354 1.392 . S
C353 C357 1.495 . S
C354 C353 1.392 . S
C354 C355 1.385 . S
C354 C356 1.478 . S
C355 H349 0.930 . S
C355 C351 1.400 1_655 S
C355 C354 1.385 . S
C356 C354 1.478 . S
C356 C358 1.381 . S
C356 C362 1.383 . S
C357 C353 1.495 . S
C357 H363 0.959 . S
C357 H364 0.961 . S
C357 H365 0.960 . S
C358 C356 1.381 . S
C358 C359 1.394 . S
C358 H366 0.930 . S
C359 C358 1.394 . S
C359 C360 1.383 . S
C359 H367 0.929 . S
C360 C359 1.383 . S
C360 C361 1.377 . S
C361 H345 0.930 . S
C361 C360 1.377 . S
C361 C362 1.379 . S
C362 H346 0.931 . S
C362 C356 1.383 . S
C362 C361 1.379 . S
H363 C357 0.959 . S
H364 C357 0.961 . S
H365 C357 0.960 . S
H366 C358 0.930 . S
H367 C359 0.929 . S
H368 C376 0.929 . S
H369 C378 0.930 . S
H370 C380 0.930 . S
H371 C383 0.929 . S
H372 C386 0.930 . S
H373 C388 0.960 . S
H374 C388 0.960 . S
H375 C388 0.960 . S
C376 H368 0.929 . S
C376 C377 1.377 . S
C376 C378 1.384 . S
C377 C376 1.377 . S
C377 C383 1.390 . S
C378 H369 0.930 . S
C378 C376 1.384 . S
C378 C379 1.372 . S
C379 C378 1.372 . S
C379 C380 1.400 . S
C379 C384 1.490 . S
C380 H370 0.930 . S
C380 C379 1.400 . S
C380 C383 1.386 . S
H381 C397 0.930 . S
H382 C398 0.931 . S
C383 H371 0.929 . S
C383 C377 1.390 . S
C383 C380 1.386 . S
C384 C379 1.490 . S
C384 C386 1.395 . S
C384 C387 1.403 1_554 S
H385 C391 0.930 . S
C386 H372 0.930 . S
C386 C384 1.395 . S
C386 C389 1.403 . S
C387 C384 1.403 1_556 S
C387 C388 1.524 . S
C387 C391 1.400 . S
C388 H373 0.960 . S
C388 H374 0.960 . S
C388 H375 0.960 . S
C388 C387 1.524 . S
C389 C386 1.403 . S
C389 C390 1.392 . S
C389 C393 1.495 . S
C390 C389 1.392 . S
C390 C391 1.385 1_554 S
C390 C392 1.478 . S
C391 H385 0.930 . S
C391 C387 1.400 . S
C391 C390 1.385 1_556 S
C392 C390 1.478 . S
C392 C394 1.381 . S
C392 C398 1.383 1_554 S
C393 C389 1.495 . S
C393 H399 0.959 . S
C393 H400 0.961 . S
C393 H401 0.960 . S
C394 C392 1.381 . S
C394 C395 1.394 1_554 S
C394 H402 0.930 . S
C395 C394 1.394 1_556 S
C395 C396 1.383 . S
C395 H403 0.929 . S
C396 C395 1.383 . S
C396 C397 1.377 . S
C397 H381 0.930 . S
C397 C396 1.377 . S
C397 C398 1.379 . S
C398 H382 0.931 . S
C398 C392 1.383 1_556 S
C398 C397 1.379 . S
H399 C393 0.959 . S
H400 C393 0.961 . S
H401 C393 0.960 . S
H402 C394 0.930 . S
H403 C395 0.929 . S
H404 C412 0.929 . S
H405 C414 0.930 . S
H406 C416 0.930 . S
H407 C419 0.929 . S
H408 C422 0.930 . S
H409 C424 0.960 . S
H410 C424 0.960 . S
H411 C424 0.960 . S
C412 H404 0.929 . S
C412 C413 1.377 1_554 S
C412 C414 1.384 . S
C413 C412 1.377 1_556 S
C413 C419 1.390 . S
C414 H405 0.930 . S
C414 C412 1.384 . S
C414 C415 1.372 1_554 S
C415 C414 1.372 1_556 S
C415 C416 1.400 . S
C415 C420 1.490 . S
C416 H406 0.930 . S
C416 C415 1.400 . S
C416 C419 1.386 . S
H417 C433 0.930 . S
H418 C434 0.931 . S
C419 H407 0.929 . S
C419 C413 1.390 . S
C419 C416 1.386 . S
C420 C415 1.490 . S
C420 C422 1.395 1_556 S
C420 C423 1.403 . S
H421 C427 0.930 . S
C422 H408 0.930 . S
C422 C420 1.395 1_554 S
C422 C425 1.403 . S
C423 C420 1.403 . S
C423 C424 1.524 . S
C423 C427 1.400 . S
C424 H409 0.960 . S
C424 H410 0.960 . S
C424 H411 0.960 . S
C424 C423 1.524 . S
C425 C422 1.403 . S
C425 C426 1.392 . S
C425 C429 1.495 . S
C426 C425 1.392 . S
C426 C427 1.385 1_554 S
C426 C428 1.478 . S
C427 H421 0.930 . S
C427 C423 1.400 . S
C427 C426 1.385 1_556 S
C428 C426 1.478 . S
C428 C430 1.381 . S
C428 C434 1.383 1_554 S
C429 C425 1.495 . S
C429 H435 0.959 . S
C429 H436 0.961 . S
C429 H437 0.960 . S
C430 C428 1.381 . S
C430 C431 1.394 . S
C430 H438 0.930 . S
C431 C430 1.394 . S
C431 C432 1.383 . S
C431 H439 0.929 . S
C432 C431 1.383 . S
C432 C433 1.377 1_554 S
C433 H417 0.930 . S
C433 C432 1.377 1_556 S
C433 C434 1.379 . S
C434 H418 0.931 . S
C434 C428 1.383 1_556 S
C434 C433 1.379 . S
H435 C429 0.959 . S
H436 C429 0.961 . S
H437 C429 0.960 . S
H438 C430 0.930 . S
H439 C431 0.929 . S
H440 C448 0.929 . S
H441 C450 0.930 . S
H442 C452 0.930 . S
H443 C455 0.929 . S
H444 C458 0.930 . S
H445 C460 0.960 . S
H446 C460 0.960 . S
H447 C460 0.960 . S
C448 H440 0.929 . S
C448 C449 1.377 . S
C448 C450 1.384 . S
C449 C448 1.377 . S
C449 C455 1.390 1_556 S
C450 H441 0.930 . S
C450 C448 1.384 . S
C450 C451 1.372 . S
C451 C450 1.372 . S
C451 C452 1.400 1_556 S
C451 C456 1.490 1_556 S
C452 H442 0.930 . S
C452 C451 1.400 1_554 S
C452 C455 1.386 . S
H453 C469 0.930 . S
H454 C470 0.931 . S
C455 H443 0.929 . S
C455 C449 1.390 1_554 S
C455 C452 1.386 . S
C456 C451 1.490 1_554 S
C456 C458 1.395 . S
C456 C459 1.403 1_554 S
H457 C463 0.930 1_556 S
C458 H444 0.930 . S
C458 C456 1.395 . S
C458 C461 1.403 . S
C459 C456 1.403 1_556 S
C459 C460 1.524 . S
C459 C463 1.400 1_556 S
C460 H445 0.960 . S
C460 H446 0.960 . S
C460 H447 0.960 . S
C460 C459 1.524 . S
C461 C458 1.403 . S
C461 C462 1.392 . S
C461 C465 1.495 . S
C462 C461 1.392 . S
C462 C463 1.385 . S
C462 C464 1.478 . S
C463 H457 0.930 1_554 S
C463 C459 1.400 1_554 S
C463 C462 1.385 . S
C464 C462 1.478 . S
C464 C466 1.387 . S
C464 C470 1.383 . S
C465 C461 1.495 . S
C465 H471 0.959 . S
C465 H472 0.961 . S
C465 H473 0.960 . S
C466 C464 1.387 . S
C466 C467 1.395 . S
C466 H474 0.923 1_554 S
C467 C466 1.395 . S
C467 C468 1.383 . S
C467 H475 0.929 1_554 S
C468 C467 1.383 . S
C468 C469 1.377 . S
C469 H453 0.930 . S
C469 C468 1.377 . S
C469 C470 1.379 . S
C470 H454 0.931 . S
C470 C464 1.383 . S
C470 C469 1.379 . S
H471 C465 0.959 . S
H472 C465 0.961 . S
H473 C465 0.960 . S
H474 C466 0.923 1_556 S
H475 C467 0.929 1_556 S
H476 C484 0.929 . S
H477 C486 0.930 . S
H478 C488 0.930 . S
H479 C491 0.929 . S
H480 C494 0.930 . S
H481 C496 0.960 . S
H482 C496 0.960 . S
H483 C496 0.960 1_554 S
C484 H476 0.929 . S
C484 C485 1.377 1_556 S
C484 C486 1.384 . S
C485 C484 1.377 1_554 S
C485 C491 1.390 . S
C486 H477 0.930 . S
C486 C484 1.384 . S
C486 C487 1.372 1_556 S
C487 C486 1.372 1_554 S
C487 C488 1.400 . S
C487 C492 1.490 1_554 S
C488 H478 0.930 . S
C488 C487 1.400 . S
C488 C491 1.386 . S
H489 C505 0.930 . S
H490 C506 0.931 . S
C491 H479 0.929 . S
C491 C485 1.390 . S
C491 C488 1.386 . S
C492 C487 1.490 1_556 S
C492 C494 1.395 . S
C492 C495 1.403 . S
H493 C499 0.930 . S
C494 H480 0.930 . S
C494 C492 1.395 . S
C494 C497 1.403 . S
C495 C492 1.403 . S
C495 C496 1.524 . S
C495 C499 1.400 . S
C496 H481 0.960 . S
C496 H482 0.960 . S
C496 H483 0.960 1_556 S
C496 C495 1.524 . S
C497 C494 1.403 . S
C497 C498 1.392 . S
C497 C501 1.495 . S
C498 C497 1.392 . S
C498 C499 1.385 . S
C498 C500 1.478 . S
C499 H493 0.930 . S
C499 C495 1.400 . S
C499 C498 1.385 . S
C500 C498 1.478 . S
C500 C502 1.381 . S
C500 C506 1.383 1_556 S
C501 C497 1.495 . S
C501 H507 0.959 . S
C501 H508 0.961 1_556 S
C501 H509 0.960 . S
C502 C500 1.381 . S
C502 C503 1.394 . S
C502 H510 0.930 . S
C503 C502 1.394 . S
C503 C504 1.383 . S
C503 H511 0.929 . S
C504 C503 1.383 . S
C504 C505 1.377 1_556 S
C505 H489 0.930 . S
C505 C504 1.377 1_554 S
C505 C506 1.379 . S
C506 H490 0.931 . S
C506 C500 1.383 1_554 S
C506 C505 1.379 . S
H507 C501 0.959 . S
H508 C501 0.961 1_554 S
H509 C501 0.960 . S
H510 C502 0.930 . S
H511 C503 0.929 . S
H512 C520 0.929 . S
H513 C522 0.930 . S
H514 C524 0.930 . S
H515 C527 0.929 . S
H516 C530 0.930 . S
H517 C532 0.960 . S
H518 C532 0.960 . S
H519 C532 0.960 . S
C520 H512 0.929 . S
C520 C521 1.377 . S
C520 C522 1.384 . S
C521 C520 1.377 . S
C521 C527 1.390 . S
C522 H513 0.930 . S
C522 C520 1.384 . S
C522 C523 1.372 . S
C523 C522 1.372 . S
C523 C524 1.400 . S
C523 C528 1.490 . S
C524 H514 0.930 . S
C524 C523 1.400 . S
C524 C527 1.386 . S
H525 C541 0.930 . S
H526 C542 0.931 . S
C527 H515 0.929 . S
C527 C521 1.390 . S
C527 C524 1.386 . S
C528 C523 1.490 . S
C528 C530 1.395 . S
C528 C531 1.403 . S
H529 C535 0.930 . S
C530 H516 0.930 . S
C530 C528 1.395 . S
C530 C533 1.403 . S
C531 C528 1.403 . S
C531 C532 1.524 . S
C531 C535 1.400 . S
C532 H517 0.960 . S
C532 H518 0.960 . S
C532 H519 0.960 . S
C532 C531 1.524 . S
C533 C530 1.403 . S
C533 C534 1.392 . S
C533 C537 1.495 . S
C534 C533 1.392 . S
C534 C535 1.385 . S
C534 C536 1.478 . S
C535 H529 0.930 . S
C535 C531 1.400 . S
C535 C534 1.385 . S
C536 C534 1.478 . S
C536 C538 1.381 . S
C536 C542 1.383 . S
C537 C533 1.495 . S
C537 H543 0.959 . S
C537 H544 0.961 . S
C537 H545 0.960 . S
C538 C536 1.381 . S
C538 C539 1.394 . S
C538 H546 0.930 . S
C539 C538 1.394 . S
C539 C540 1.383 . S
C539 H547 0.929 . S
C540 C539 1.383 . S
C540 C541 1.377 . S
C541 H525 0.930 . S
C541 C540 1.377 . S
C541 C542 1.379 . S
C542 H526 0.931 . S
C542 C536 1.383 . S
C542 C541 1.379 . S
H543 C537 0.959 . S
H544 C537 0.961 . S
H545 C537 0.960 . S
H546 C538 0.930 . S
H547 C539 0.929 . S
H548 C556 0.929 . S
H549 C558 0.930 . S
H550 C560 0.930 . S
H551 C563 0.929 . S
H552 C566 0.930 . S
H553 C568 0.960 . S
H554 C568 0.960 . S
H555 C568 0.960 . S
C556 H548 0.929 . S
C556 C557 1.377 . S
C556 C558 1.384 . S
C557 C556 1.377 . S
C557 C563 1.390 . S
C558 H549 0.930 . S
C558 C556 1.384 . S
C558 C559 1.372 . S
C559 C558 1.372 . S
C559 C560 1.400 . S
C559 C564 1.490 . S
C560 H550 0.930 . S
C560 C559 1.400 . S
C560 C563 1.386 . S
H561 C577 0.930 . S
H562 C578 0.931 . S
C563 H551 0.929 . S
C563 C557 1.390 . S
C563 C560 1.386 . S
C564 C559 1.490 . S
C564 C566 1.395 . S
C564 C567 1.403 . S
H565 C571 0.930 . S
C566 H552 0.930 . S
C566 C564 1.395 . S
C566 C569 1.403 . S
C567 C564 1.403 . S
C567 C568 1.524 . S
C567 C571 1.400 . S
C568 H553 0.960 . S
C568 H554 0.960 . S
C568 H555 0.960 . S
C568 C567 1.524 . S
C569 C566 1.403 . S
C569 C570 1.392 . S
C569 C573 1.495 . S
C570 C569 1.392 . S
C570 C571 1.385 . S
C570 C572 1.478 . S
C571 H565 0.930 . S
C571 C567 1.400 . S
C571 C570 1.385 . S
C572 C570 1.478 . S
C572 C574 1.381 . S
C572 C578 1.383 . S
C573 C569 1.495 . S
C573 H579 0.959 . S
C573 H580 0.961 . S
C573 H581 0.960 . S
C574 C572 1.381 . S
C574 C575 1.394 . S
C574 H582 0.930 . S
C575 C574 1.394 . S
C575 C576 1.383 . S
C575 H583 0.929 . S
C576 C575 1.383 . S
C576 C577 1.377 . S
C577 H561 0.930 . S
C577 C576 1.377 . S
C577 C578 1.379 . S
C578 H562 0.931 . S
C578 C572 1.383 . S
C578 C577 1.379 . S
H579 C573 0.959 . S
H580 C573 0.961 . S
H581 C573 0.960 . S
H582 C574 0.930 . S
H583 C575 0.929 . S
H584 C592 0.929 . S
H585 C594 0.930 . S
H586 C596 0.930 . S
H587 C599 0.929 . S
H588 C602 0.930 . S
H589 C604 0.960 . S
H590 C604 0.960 . S
H591 C604 0.960 . S
C592 H584 0.929 . S
C592 C593 1.377 . S
C592 C594 1.384 . S
C593 C592 1.377 . S
C593 C599 1.390 . S
C594 H585 0.930 . S
C594 C592 1.384 . S
C594 C595 1.372 . S
C595 C594 1.372 . S
C595 C596 1.400 . S
C595 C600 1.490 . S
C596 H586 0.930 . S
C596 C595 1.400 . S
C596 C599 1.386 . S
H597 C613 0.930 . S
H598 C614 0.931 . S
C599 H587 0.929 . S
C599 C593 1.390 . S
C599 C596 1.386 . S
C600 C595 1.490 . S
C600 C602 1.395 . S
C600 C603 1.403 . S
H601 C607 0.930 . S
C602 H588 0.930 . S
C602 C600 1.395 . S
C602 C605 1.403 . S
C603 C600 1.403 . S
C603 C604 1.524 . S
C603 C607 1.400 . S
C604 H589 0.960 . S
C604 H590 0.960 . S
C604 H591 0.960 . S
C604 C603 1.524 . S
C605 C602 1.403 . S
C605 C606 1.392 . S
C605 C609 1.495 . S
C606 C605 1.392 . S
C606 C607 1.385 . S
C606 C608 1.478 . S
C607 H601 0.930 . S
C607 C603 1.400 . S
C607 C606 1.385 . S
C608 C606 1.478 . S
C608 C610 1.381 . S
C608 C614 1.383 . S
C609 C605 1.495 . S
C609 H615 0.959 . S
C609 H616 0.961 . S
C609 H617 0.960 . S
C610 C608 1.381 . S
C610 C611 1.394 . S
C610 H618 0.930 . S
C611 C610 1.394 . S
C611 C612 1.383 . S
C611 H619 0.929 . S
C612 C611 1.383 . S
C612 C613 1.377 . S
C613 H597 0.930 . S
C613 C612 1.377 . S
C613 C614 1.379 . S
C614 H598 0.931 . S
C614 C608 1.383 . S
C614 C613 1.379 . S
H615 C609 0.959 . S
H616 C609 0.961 . S
H617 C609 0.960 . S
H618 C610 0.930 . S
H619 C611 0.929 . S
H620 C628 0.929 . S
H621 C630 0.930 . S
H622 C632 0.930 . S
H623 C635 0.929 . S
H624 C638 0.930 . S
H625 C640 0.960 . S
H626 C640 0.960 . S
H627 C640 0.960 . S
C628 H620 0.929 . S
C628 C629 1.377 . S
C628 C630 1.384 . S
C629 C628 1.377 . S
C629 C635 1.390 . S
C630 H621 0.930 . S
C630 C628 1.384 . S
C630 C631 1.372 . S
C631 C630 1.372 . S
C631 C632 1.400 . S
C631 C636 1.490 . S
C632 H622 0.930 . S
C632 C631 1.400 . S
C632 C635 1.386 . S
H633 C649 0.930 . S
H634 C650 0.931 . S
C635 H623 0.929 . S
C635 C629 1.390 . S
C635 C632 1.386 . S
C636 C631 1.490 . S
C636 C638 1.395 . S
C636 C639 1.403 . S
H637 C643 0.930 . S
C638 H624 0.930 . S
C638 C636 1.395 . S
C638 C641 1.403 . S
C639 C636 1.403 . S
C639 C640 1.524 . S
C639 C643 1.400 . S
C640 H625 0.960 . S
C640 H626 0.960 . S
C640 H627 0.960 . S
C640 C639 1.524 . S
C641 C638 1.403 . S
C641 C642 1.392 . S
C641 C645 1.495 . S
C642 C641 1.392 . S
C642 C643 1.385 . S
C642 C644 1.478 . S
C643 H637 0.930 . S
C643 C639 1.400 . S
C643 C642 1.385 . S
C644 C642 1.478 . S
C644 C646 1.381 . S
C644 C650 1.383 . S
C645 C641 1.495 . S
C645 H651 0.959 . S
C645 H652 0.961 . S
C645 H653 0.960 . S
C646 C644 1.381 . S
C646 C647 1.394 . S
C646 H654 0.930 . S
C647 C646 1.394 . S
C647 C648 1.383 . S
C647 H655 0.929 . S
C648 C647 1.383 . S
C648 C649 1.377 . S
C649 H633 0.930 . S
C649 C648 1.377 . S
C649 C650 1.379 . S
C650 H634 0.931 . S
C650 C644 1.383 . S
C650 C649 1.379 . S
H651 C645 0.959 . S
H652 C645 0.961 . S
H653 C645 0.960 . S
H654 C646 0.930 . S
H655 C647 0.929 . S
H656 C664 0.929 . S
H657 C666 0.930 . S
H658 C668 0.930 . S
H659 C671 0.929 . S
H660 C674 0.930 . S
H661 C676 0.960 1_545 S
H662 C676 0.960 . S
H663 C676 0.960 . S
C664 H656 0.929 . S
C664 C665 1.377 . S
C664 C666 1.384 . S
C665 C664 1.377 . S
C665 C671 1.390 . S
C666 H657 0.930 . S
C666 C664 1.384 . S
C666 C667 1.372 . S
C667 C666 1.372 . S
C667 C668 1.400 . S
C667 C672 1.490 . S
C668 H658 0.930 . S
C668 C667 1.400 . S
C668 C671 1.386 . S
H669 C685 0.930 . S
H670 C686 0.931 . S
C671 H659 0.929 . S
C671 C665 1.390 . S
C671 C668 1.386 . S
C672 C667 1.490 . S
C672 C674 1.395 . S
C672 C675 1.438 . S
H673 C679 0.930 . S
C674 H660 0.930 . S
C674 C672 1.395 . S
C674 C677 1.403 1_565 S
C675 C672 1.438 . S
C675 C676 1.538 . S
C675 C679 1.349 1_565 S
C676 H661 0.960 1_565 S
C676 H662 0.960 . S
C676 H663 0.960 . S
C676 C675 1.538 . S
C677 C674 1.403 1_545 S
C677 C678 1.392 . S
C677 C681 1.495 . S
C678 C677 1.392 . S
C678 C679 1.385 . S
C678 C680 1.478 . S
C679 H673 0.930 . S
C679 C675 1.349 1_545 S
C679 C678 1.385 . S
C680 C678 1.478 . S
C680 C682 1.381 . S
C680 C686 1.383 . S
C681 C677 1.495 . S
C681 H687 0.959 . S
C681 H688 0.961 . S
C681 H689 0.960 . S
C682 C680 1.381 . S
C682 C683 1.394 . S
C682 H690 0.930 . S
C683 C682 1.394 . S
C683 C684 1.383 . S
C683 H691 0.929 . S
C684 C683 1.383 . S
C684 C685 1.377 . S
C685 H669 0.930 . S
C685 C684 1.377 . S
C685 C686 1.379 . S
C686 H670 0.931 . S
C686 C680 1.383 . S
C686 C685 1.379 . S
H687 C681 0.959 . S
H688 C681 0.961 . S
H689 C681 0.960 . S
H690 C682 0.930 . S
H691 C683 0.929 . S
H692 C700 0.929 . S
H693 C702 0.930 . S
H694 C704 0.930 . S
H695 C707 0.929 . S
H696 C710 0.930 . S
H697 C712 0.960 1_455 S
H698 C712 0.960 . S
H699 C712 0.960 . S
C700 H692 0.929 . S
C700 C701 1.377 . S
C700 C702 1.384 . S
C701 C700 1.377 . S
C701 C707 1.390 . S
C702 H693 0.930 . S
C702 C700 1.384 . S
C702 C703 1.372 . S
C703 C702 1.372 . S
C703 C704 1.400 . S
C703 C708 1.490 . S
C704 H694 0.930 . S
C704 C703 1.400 . S
C704 C707 1.386 . S
H705 C721 0.930 . S
H706 C722 0.931 . S
C707 H695 0.929 . S
C707 C701 1.390 . S
C707 C704 1.386 . S
C708 C703 1.490 . S
C708 C710 1.395 . S
C708 C711 1.403 . S
H709 C715 0.930 . S
C710 H696 0.930 . S
C710 C708 1.395 . S
C710 C713 1.403 1_655 S
C711 C708 1.403 . S
C711 C712 1.524 . S
C711 C715 1.400 1_655 S
C712 H697 0.960 1_655 S
C712 H698 0.960 . S
C712 H699 0.960 . S
C712 C711 1.524 . S
C713 C710 1.403 1_455 S
C713 C714 1.392 . S
C713 C717 1.495 . S
C714 C713 1.392 . S
C714 C715 1.385 . S
C714 C716 1.478 . S
C715 H709 0.930 . S
C715 C711 1.400 1_455 S
C715 C714 1.385 . S
C716 C714 1.478 . S
C716 C718 1.381 . S
C716 C722 1.383 . S
C717 C713 1.495 . S
C717 H723 0.959 . S
C717 H724 0.961 . S
C717 H725 0.960 . S
C718 C716 1.381 . S
C718 C719 1.394 . S
C718 H726 0.930 . S
C719 C718 1.394 . S
C719 C720 1.383 . S
C719 H727 0.929 . S
C720 C719 1.383 . S
C720 C721 1.377 . S
C721 H705 0.930 . S
C721 C720 1.377 . S
C721 C722 1.379 . S
C722 H706 0.931 . S
C722 C716 1.383 . S
C722 C721 1.379 . S
H723 C717 0.959 . S
H724 C717 0.961 . S
H725 C717 0.960 . S
H726 C718 0.930 . S
H727 C719 0.929 . S
H728 C736 0.929 . S
H729 C738 0.930 . S
H730 C740 0.930 . S
H731 C743 0.929 . S
H732 C746 0.930 . S
H733 C748 0.960 . S
H734 C748 0.960 . S
H735 C748 0.960 . S
C736 H728 0.929 . S
C736 C737 1.377 . S
C736 C738 1.384 . S
C737 C736 1.377 . S
C737 C743 1.390 . S
C738 H729 0.930 . S
C738 C736 1.384 . S
C738 C739 1.372 . S
C739 C738 1.372 . S
C739 C740 1.400 . S
C739 C744 1.490 . S
C740 H730 0.930 . S
C740 C739 1.400 . S
C740 C743 1.386 . S
H741 C757 0.930 . S
H742 C758 0.931 . S
C743 H731 0.929 . S
C743 C737 1.390 . S
C743 C740 1.386 . S
C744 C739 1.490 . S
C744 C746 1.395 . S
C744 C747 1.403 . S
H745 C751 0.930 . S
C746 H732 0.930 . S
C746 C744 1.395 . S
C746 C749 1.403 1_565 S
C747 C744 1.403 . S
C747 C748 1.524 . S
C747 C751 1.400 1_565 S
C748 H733 0.960 . S
C748 H734 0.960 . S
C748 H735 0.960 . S
C748 C747 1.524 . S
C749 C746 1.403 1_545 S
C749 C750 1.392 . S
C749 C753 1.495 . S
C750 C749 1.392 . S
C750 C751 1.385 . S
C750 C752 1.478 . S
C751 H745 0.930 . S
C751 C747 1.400 1_545 S
C751 C750 1.385 . S
C752 C750 1.478 . S
C752 C754 1.381 . S
C752 C758 1.383 . S
C753 C749 1.495 . S
C753 H759 0.959 . S
C753 H760 0.961 . S
C753 H761 0.960 . S
C754 C752 1.381 . S
C754 C755 1.394 . S
C754 H762 0.930 . S
C755 C754 1.394 . S
C755 C756 1.383 . S
C755 H763 0.929 . S
C756 C755 1.383 . S
C756 C757 1.377 . S
C757 H741 0.930 . S
C757 C756 1.377 . S
C757 C758 1.379 . S
C758 H742 0.931 . S
C758 C752 1.383 . S
C758 C757 1.379 . S
H759 C753 0.959 . S
H760 C753 0.961 . S
H761 C753 0.960 . S
H762 C754 0.930 . S
H763 C755 0.929 . S
H764 C772 0.929 . S
H765 C774 0.930 . S
H766 C776 0.930 . S
H767 C779 0.929 . S
H768 C782 0.930 . S
H769 C784 0.960 . S
H770 C784 0.960 . S
H771 C784 0.960 . S
C772 H764 0.929 . S
C772 C773 1.377 . S
C772 C774 1.384 . S
C773 C772 1.377 . S
C773 C779 1.390 . S
C774 H765 0.930 . S
C774 C772 1.384 . S
C774 C775 1.372 . S
C775 C774 1.372 . S
C775 C776 1.400 . S
C775 C780 1.490 . S
C776 H766 0.930 . S
C776 C775 1.400 . S
C776 C779 1.386 . S
H777 C793 0.930 . S
H778 C794 0.931 . S
C779 H767 0.929 . S
C779 C773 1.390 . S
C779 C776 1.386 . S
C780 C775 1.490 . S
C780 C782 1.395 . S
C780 C783 1.403 . S
H781 C787 0.930 . S
C782 H768 0.930 . S
C782 C780 1.395 . S
C782 C785 1.354 1_655 S
C783 C780 1.403 . S
C783 C784 1.524 . S
C783 C787 1.400 1_655 S
C784 H769 0.960 . S
C784 H770 0.960 . S
C784 H771 0.960 . S
C784 C783 1.524 . S
C785 C782 1.354 1_455 S
C785 C786 1.426 . S
C785 C789 1.511 . S
C786 C785 1.426 . S
C786 C787 1.385 . S
C786 C788 1.478 . S
C787 H781 0.930 . S
C787 C783 1.400 1_455 S
C787 C786 1.385 . S
C788 C786 1.478 . S
C788 C790 1.381 . S
C788 C794 1.383 . S
C789 C785 1.511 . S
C789 H795 0.959 1_455 S
C789 H796 0.961 . S
C789 H797 0.960 . S
C790 C788 1.381 . S
C790 C791 1.394 . S
C790 H798 0.930 . S
C791 C790 1.394 . S
C791 C792 1.383 . S
C791 H799 0.929 . S
C792 C791 1.383 . S
C792 C793 1.377 . S
C793 H777 0.930 . S
C793 C792 1.377 . S
C793 C794 1.379 . S
C794 H778 0.931 . S
C794 C788 1.383 . S
C794 C793 1.379 . S
H795 C789 0.959 1_655 S
H796 C789 0.961 . S
H797 C789 0.960 . S
H798 C790 0.930 . S
H799 C791 0.929 . S
H800 C808 0.929 . S
H801 C810 0.930 . S
H802 C812 0.930 . S
H803 C815 0.929 . S
H804 C818 0.930 . S
H805 C820 0.960 . S
H806 C820 0.960 . S
H807 C820 0.960 . S
C808 H800 0.929 . S
C808 C809 1.377 . S
C808 C810 1.384 . S
C809 C808 1.377 . S
C809 C815 1.390 . S
C810 H801 0.930 . S
C810 C808 1.384 . S
C810 C811 1.372 . S
C811 C810 1.372 . S
C811 C812 1.400 . S
C811 C816 1.490 . S
C812 H802 0.930 . S
C812 C811 1.400 . S
C812 C815 1.386 . S
H813 C829 0.930 . S
H814 C830 0.931 . S
C815 H803 0.929 . S
C815 C809 1.390 . S
C815 C812 1.386 . S
C816 C811 1.490 . S
C816 C818 1.395 . S
C816 C819 1.403 . S
H817 C823 0.930 . S
C818 H804 0.930 . S
C818 C816 1.395 . S
C818 C821 1.403 . S
C819 C816 1.403 . S
C819 C820 1.524 . S
C819 C823 1.400 . S
C820 H805 0.960 . S
C820 H806 0.960 . S
C820 H807 0.960 . S
C820 C819 1.524 . S
C821 C818 1.403 . S
C821 C822 1.392 . S
C821 C825 1.495 . S
C822 C821 1.392 . S
C822 C823 1.385 . S
C822 C824 1.478 . S
C823 H817 0.930 . S
C823 C819 1.400 . S
C823 C822 1.385 . S
C824 C822 1.478 . S
C824 C826 1.381 . S
C824 C830 1.383 . S
C825 C821 1.495 . S
C825 H831 0.959 . S
C825 H832 0.961 . S
C825 H833 0.960 . S
C826 C824 1.381 . S
C826 C827 1.394 . S
C826 H834 0.930 . S
C827 C826 1.394 . S
C827 C828 1.383 . S
C827 H835 0.929 . S
C828 C827 1.383 . S
C828 C829 1.377 . S
C829 H813 0.930 . S
C829 C828 1.377 . S
C829 C830 1.379 . S
C830 H814 0.931 . S
C830 C824 1.383 . S
C830 C829 1.379 . S
H831 C825 0.959 . S
H832 C825 0.961 . S
H833 C825 0.960 . S
H834 C826 0.930 . S
H835 C827 0.929 . S
H836 C844 0.929 . S
H837 C846 0.931 1_554 S
H838 C848 0.930 . S
H839 C851 0.929 . S
H840 C854 0.930 . S
H841 C856 0.960 . S
H842 C856 0.960 . S
H843 C856 0.960 . S
C844 H836 0.929 . S
C844 C845 1.377 . S
C844 C846 1.384 . S
C845 C844 1.377 . S
C845 C851 1.390 . S
C846 H837 0.931 1_556 S
C846 C844 1.384 . S
C846 C847 1.372 . S
C847 C846 1.372 . S
C847 C848 1.400 . S
C847 C852 1.490 . S
C848 H838 0.930 . S
C848 C847 1.400 . S
C848 C851 1.386 . S
H849 C865 0.930 . S
H850 C866 0.931 . S
C851 H839 0.929 . S
C851 C845 1.390 . S
C851 C848 1.386 . S
C852 C847 1.490 . S
C852 C854 1.395 . S
C852 C855 1.403 . S
H853 C859 0.930 . S
C854 H840 0.930 . S
C854 C852 1.395 . S
C854 C857 1.403 . S
C855 C852 1.403 . S
C855 C856 1.524 . S
C855 C859 1.400 . S
C856 H841 0.960 . S
C856 H842 0.960 . S
C856 H843 0.960 . S
C856 C855 1.524 . S
C857 C854 1.403 . S
C857 C858 1.392 . S
C857 C861 1.495 1_556 S
C858 C857 1.392 . S
C858 C859 1.385 . S
C858 C860 1.478 . S
C859 H853 0.930 . S
C859 C855 1.400 . S
C859 C858 1.385 . S
C860 C858 1.478 . S
C860 C862 1.381 . S
C860 C866 1.383 . S
C861 C857 1.495 1_554 S
C861 H867 0.959 . S
C861 H868 0.961 1_554 S
C861 H869 0.960 . S
C862 C860 1.381 . S
C862 C863 1.394 . S
C862 H870 0.930 1_556 S
C863 C862 1.394 . S
C863 C864 1.383 . S
C863 H871 0.929 . S
C864 C863 1.383 . S
C864 C865 1.377 . S
C865 H849 0.930 . S
C865 C864 1.377 . S
C865 C866 1.379 . S
C866 H850 0.931 . S
C866 C860 1.383 . S
C866 C865 1.379 . S
H867 C861 0.959 . S
H868 C861 0.961 1_556 S
H869 C861 0.960 . S
H870 C862 0.930 1_554 S
H871 C863 0.929 . S
H872 C880 0.929 . S
H873 C882 0.930 . S
H874 C884 0.930 . S
H875 C887 0.929 . S
H876 C890 0.930 1_556 S
H877 C892 0.960 . S
H878 C892 0.960 . S
H879 C892 0.960 . S
C880 H872 0.929 . S
C880 C881 1.377 . S
C880 C882 1.384 . S
C881 C880 1.377 . S
C881 C887 1.390 . S
C882 H873 0.930 . S
C882 C880 1.384 . S
C882 C883 1.372 . S
C883 C882 1.372 . S
C883 C884 1.400 . S
C883 C888 1.490 . S
C884 H874 0.930 . S
C884 C883 1.400 . S
C884 C887 1.386 . S
H885 C901 0.930 . S
H886 C902 0.931 . S
C887 H875 0.929 . S
C887 C881 1.390 . S
C887 C884 1.386 . S
C888 C883 1.490 . S
C888 C890 1.395 . S
C888 C891 1.403 . S
H889 C895 0.930 . S
C890 H876 0.930 1_554 S
C890 C888 1.395 . S
C890 C893 1.403 . S
C891 C888 1.403 . S
C891 C892 1.524 . S
C891 C895 1.400 . S
C892 H877 0.960 . S
C892 H878 0.960 . S
C892 H879 0.960 . S
C892 C891 1.524 . S
C893 C890 1.403 . S
C893 C894 1.392 . S
C893 C897 1.495 1_554 S
C894 C893 1.392 . S
C894 C895 1.385 . S
C894 C896 1.478 . S
C895 H889 0.930 . S
C895 C891 1.400 . S
C895 C894 1.385 . S
C896 C894 1.478 . S
C896 C898 1.381 . S
C896 C902 1.383 . S
C897 C893 1.495 1_556 S
C897 H903 0.959 . S
C897 H904 0.961 . S
C897 H905 0.960 . S
C898 C896 1.381 . S
C898 C899 1.394 . S
C898 H906 0.930 . S
C899 C898 1.394 . S
C899 C900 1.383 . S
C899 H907 0.929 . S
C900 C899 1.383 . S
C900 C901 1.377 . S
C901 H885 0.930 . S
C901 C900 1.377 . S
C901 C902 1.379 . S
C902 H886 0.931 . S
C902 C896 1.383 . S
C902 C901 1.379 . S
H903 C897 0.959 . S
H904 C897 0.961 . S
H905 C897 0.960 . S
H906 C898 0.930 . S
H907 C899 0.929 . S
H908 C916 0.929 . S
H909 C918 0.930 . S
H910 C920 0.930 . S
H911 C923 0.929 . S
H912 C926 0.930 . S
H913 C928 0.960 . S
H914 C928 0.960 1_554 S
H915 C928 0.960 . S
C916 H908 0.929 . S
C916 C917 1.377 . S
C916 C918 1.384 . S
C917 C916 1.377 . S
C917 C923 1.390 . S
C918 H909 0.930 . S
C918 C916 1.384 . S
C918 C919 1.372 . S
C919 C918 1.372 . S
C919 C920 1.400 . S
C919 C924 1.490 . S
C920 H910 0.930 . S
C920 C919 1.400 . S
C920 C923 1.386 . S
H921 C937 0.930 . S
H922 C938 0.931 . S
C923 H911 0.929 . S
C923 C917 1.390 . S
C923 C920 1.386 . S
C924 C919 1.490 . S
C924 C926 1.395 . S
C924 C927 1.403 . S
H925 C931 0.930 . S
C926 H912 0.930 . S
C926 C924 1.395 . S
C926 C929 1.403 . S
C927 C924 1.403 . S
C927 C928 1.524 . S
C927 C931 1.400 . S
C928 H913 0.960 . S
C928 H914 0.960 1_556 S
C928 H915 0.960 . S
C928 C927 1.524 . S
C929 C926 1.403 . S
C929 C930 1.392 . S
C929 C933 1.495 . S
C930 C929 1.392 . S
C930 C931 1.385 . S
C930 C932 1.478 . S
C931 H925 0.930 . S
C931 C927 1.400 . S
C931 C930 1.385 . S
C932 C930 1.478 . S
C932 C934 1.381 . S
C932 C938 1.383 . S
C933 C929 1.495 . S
C933 H939 0.959 . S
C933 H940 0.961 . S
C933 H941 0.960 . S
C934 C932 1.381 . S
C934 C935 1.394 . S
C934 H942 0.930 . S
C935 C934 1.394 . S
C935 C936 1.383 . S
C935 H943 0.929 . S
C936 C935 1.383 . S
C936 C937 1.377 . S
C937 H921 0.930 . S
C937 C936 1.377 . S
C937 C938 1.379 . S
C938 H922 0.931 . S
C938 C932 1.383 . S
C938 C937 1.379 . S
H939 C933 0.959 . S
H940 C933 0.961 . S
H941 C933 0.960 . S
H942 C934 0.930 . S
H943 C935 0.929 . S
H944 C952 0.929 . S
H945 C954 0.930 . S
H946 C956 0.930 . S
H947 C959 0.929 . S
H948 C962 0.930 . S
H949 C964 0.960 . S
H950 C964 0.960 . S
H951 C964 0.960 . S
C952 H944 0.929 . S
C952 C953 1.377 . S
C952 C954 1.384 . S
C953 C952 1.377 . S
C953 C959 1.390 . S
C954 H945 0.930 . S
C954 C952 1.384 . S
C954 C955 1.372 . S
C955 C954 1.372 . S
C955 C956 1.400 . S
C955 C960 1.490 . S
C956 H946 0.930 . S
C956 C955 1.400 . S
C956 C959 1.386 . S
H957 C973 0.930 . S
H958 C974 0.931 . S
C959 H947 0.929 . S
C959 C953 1.390 . S
C959 C956 1.386 . S
C960 C955 1.490 . S
C960 C962 1.395 . S
C960 C963 1.403 . S
H961 C967 0.930 . S
C962 H948 0.930 . S
C962 C960 1.395 . S
C962 C965 1.403 . S
C963 C960 1.403 . S
C963 C964 1.524 . S
C963 C967 1.400 . S
C964 H949 0.960 . S
C964 H950 0.960 . S
C964 H951 0.960 . S
C964 C963 1.524 . S
C965 C962 1.403 . S
C965 C966 1.392 . S
C965 C969 1.495 . S
C966 C965 1.392 . S
C966 C967 1.385 . S
C966 C968 1.478 . S
C967 H961 0.930 . S
C967 C963 1.400 . S
C967 C966 1.385 . S
C968 C966 1.478 . S
C968 C970 1.381 . S
C968 C974 1.383 . S
C969 C965 1.495 . S
C969 H975 0.959 . S
C969 H976 0.961 . S
C969 H977 0.960 . S
C970 C968 1.381 . S
C970 C971 1.394 . S
C970 H978 0.930 . S
C971 C970 1.394 . S
C971 C972 1.383 . S
C971 H979 0.929 . S
C972 C971 1.383 . S
C972 C973 1.377 . S
C973 H957 0.930 . S
C973 C972 1.377 . S
C973 C974 1.379 . S
C974 H958 0.931 . S
C974 C968 1.383 . S
C974 C973 1.379 . S
H975 C969 0.959 . S
H976 C969 0.961 . S
H977 C969 0.960 . S
H978 C970 0.930 . S
H979 C971 0.929 . S
H980 C988 0.929 . S
H981 C990 0.930 . S
H982 C992 0.930 . S
H983 C995 0.929 . S
H984 C998 0.930 . S
H985 C1000 0.960 . S
H986 C1000 0.960 . S
H987 C1000 0.960 . S
C988 H980 0.929 . S
C988 C989 1.377 . S
C988 C990 1.384 . S
C989 C988 1.377 . S
C989 C995 1.390 . S
C990 H981 0.930 . S
C990 C988 1.384 . S
C990 C991 1.372 . S
C991 C990 1.372 . S
C991 C992 1.400 . S
C991 C996 1.490 . S
C992 H982 0.930 . S
C992 C991 1.400 . S
C992 C995 1.386 . S
H993 C1009 0.930 . S
H994 C1010 0.931 . S
C995 H983 0.929 . S
C995 C989 1.390 . S
C995 C992 1.386 . S
C996 C991 1.490 . S
C996 C998 1.395 . S
C996 C999 1.403 . S
H997 C1003 0.930 . S
C998 H984 0.930 . S
C998 C996 1.395 . S
C998 C1001 1.403 . S
C999 C996 1.403 . S
C999 C1000 1.524 . S
C999 C1003 1.400 . S
C1000 H985 0.960 . S
C1000 H986 0.960 . S
C1000 H987 0.960 . S
C1000 C999 1.524 . S
C1001 C998 1.403 . S
C1001 C1002 1.392 . S
C1001 C1005 1.495 . S
C1002 C1001 1.392 . S
C1002 C1003 1.385 . S
C1002 C1004 1.478 . S
C1003 H997 0.930 . S
C1003 C999 1.400 . S
C1003 C1002 1.385 . S
C1004 C1002 1.478 . S
C1004 C1006 1.381 . S
C1004 C1010 1.383 . S
C1005 C1001 1.495 . S
C1005 H1011 0.959 . S
C1005 H1012 0.961 . S
C1005 H1013 0.960 . S
C1006 C1004 1.381 . S
C1006 C1007 1.394 . S
C1006 H1014 0.930 . S
C1007 C1006 1.394 . S
C1007 C1008 1.383 . S
C1007 H1015 0.929 . S
C1008 C1007 1.383 . S
C1008 C1009 1.377 . S
C1009 H993 0.930 . S
C1009 C1008 1.377 . S
C1009 C1010 1.379 . S
C1010 H994 0.931 . S
C1010 C1004 1.383 . S
C1010 C1009 1.379 . S
H1011 C1005 0.959 . S
H1012 C1005 0.961 . S
H1013 C1005 0.960 . S
H1014 C1006 0.930 . S
H1015 C1007 0.929 . S
H1016 C1024 0.929 . S
H1017 C1026 0.930 . S
H1018 C1028 0.930 . S
H1019 C1031 0.929 . S
H1020 C1034 0.930 . S
H1021 C1036 0.960 . S
H1022 C1036 0.960 . S
H1023 C1036 0.960 . S
C1024 H1016 0.929 . S
C1024 C1025 1.377 . S
C1024 C1026 1.384 . S
C1025 C1024 1.377 . S
C1025 C1031 1.390 . S
C1026 H1017 0.930 . S
C1026 C1024 1.384 . S
C1026 C1027 1.372 . S
C1027 C1026 1.372 . S
C1027 C1028 1.400 . S
C1027 C1032 1.490 . S
C1028 H1018 0.930 . S
C1028 C1027 1.400 . S
C1028 C1031 1.386 . S
H1029 C1045 0.930 . S
H1030 C1046 0.931 . S
C1031 H1019 0.929 . S
C1031 C1025 1.390 . S
C1031 C1028 1.386 . S
C1032 C1027 1.490 . S
C1032 C1034 1.395 . S
C1032 C1035 1.403 . S
H1033 C1039 0.930 . S
C1034 H1020 0.930 . S
C1034 C1032 1.395 . S
C1034 C1037 1.403 . S
C1035 C1032 1.403 . S
C1035 C1036 1.524 . S
C1035 C1039 1.400 . S
C1036 H1021 0.960 . S
C1036 H1022 0.960 . S
C1036 H1023 0.960 . S
C1036 C1035 1.524 . S
C1037 C1034 1.403 . S
C1037 C1038 1.392 . S
C1037 C1041 1.495 . S
C1038 C1037 1.392 . S
C1038 C1039 1.385 . S
C1038 C1040 1.478 . S
C1039 H1033 0.930 . S
C1039 C1035 1.400 . S
C1039 C1038 1.385 . S
C1040 C1038 1.478 . S
C1040 C1042 1.381 . S
C1040 C1046 1.383 . S
C1041 C1037 1.495 . S
C1041 H1047 0.959 . S
C1041 H1048 0.961 . S
C1041 H1049 0.960 . S
C1042 C1040 1.381 . S
C1042 C1043 1.394 . S
C1042 H1050 0.930 . S
C1043 C1042 1.394 . S
C1043 C1044 1.383 . S
C1043 H1051 0.929 . S
C1044 C1043 1.383 . S
C1044 C1045 1.377 . S
C1045 H1029 0.930 . S
C1045 C1044 1.377 . S
C1045 C1046 1.379 . S
C1046 H1030 0.931 . S
C1046 C1040 1.383 . S
C1046 C1045 1.379 . S
H1047 C1041 0.959 . S
H1048 C1041 0.961 . S
H1049 C1041 0.960 . S
H1050 C1042 0.930 . S
H1051 C1043 0.929 . S
H1052 C1060 0.929 . S
H1053 C1062 0.930 . S
H1054 C1064 0.930 . S
H1055 C1067 0.929 . S
H1056 C1070 0.930 . S
H1057 C1072 0.960 . S
H1058 C1072 0.960 . S
H1059 C1072 0.960 . S
C1060 H1052 0.929 . S
C1060 C1061 1.377 . S
C1060 C1062 1.384 . S
C1061 C1060 1.377 . S
C1061 C1067 1.390 . S
C1062 H1053 0.930 . S
C1062 C1060 1.384 . S
C1062 C1063 1.372 . S
C1063 C1062 1.372 . S
C1063 C1064 1.400 . S
C1063 C1068 1.490 . S
C1064 H1054 0.930 . S
C1064 C1063 1.400 . S
C1064 C1067 1.386 . S
H1065 C1081 0.930 . S
H1066 C1082 0.931 . S
C1067 H1055 0.929 . S
C1067 C1061 1.390 . S
C1067 C1064 1.386 . S
C1068 C1063 1.490 . S
C1068 C1070 1.395 . S
C1068 C1071 1.403 . S
H1069 C1075 0.930 . S
C1070 H1056 0.930 . S
C1070 C1068 1.395 . S
C1070 C1073 1.403 . S
C1071 C1068 1.403 . S
C1071 C1072 1.524 . S
C1071 C1075 1.400 . S
C1072 H1057 0.960 . S
C1072 H1058 0.960 . S
C1072 H1059 0.960 . S
C1072 C1071 1.524 . S
C1073 C1070 1.403 . S
C1073 C1074 1.392 . S
C1073 C1077 1.495 . S
C1074 C1073 1.392 . S
C1074 C1075 1.385 . S
C1074 C1076 1.478 . S
C1075 H1069 0.930 . S
C1075 C1071 1.400 . S
C1075 C1074 1.385 . S
C1076 C1074 1.478 . S
C1076 C1078 1.381 . S
C1076 C1082 1.383 . S
C1077 C1073 1.495 . S
C1077 H1083 0.959 . S
C1077 H1084 0.961 . S
C1077 H1085 0.960 . S
C1078 C1076 1.381 . S
C1078 C1079 1.394 . S
C1078 H1086 0.930 . S
C1079 C1078 1.394 . S
C1079 C1080 1.383 . S
C1079 H1087 0.929 . S
C1080 C1079 1.383 . S
C1080 C1081 1.377 . S
C1081 H1065 0.930 . S
C1081 C1080 1.377 . S
C1081 C1082 1.379 . S
C1082 H1066 0.931 . S
C1082 C1076 1.383 . S
C1082 C1081 1.379 . S
H1083 C1077 0.959 . S
H1084 C1077 0.961 . S
H1085 C1077 0.960 . S
H1086 C1078 0.930 . S
H1087 C1079 0.929 . S
H1088 C1096 0.929 . S
H1089 C1098 0.930 . S
H1090 C1100 0.930 . S
H1091 C1103 0.929 . S
H1092 C1106 0.930 . S
H1093 C1108 0.960 . S
H1094 C1108 0.960 . S
H1095 C1108 0.960 . S
C1096 H1088 0.929 . S
C1096 C1097 1.377 . S
C1096 C1098 1.384 . S
C1097 C1096 1.377 . S
C1097 C1103 1.390 . S
C1098 H1089 0.930 . S
C1098 C1096 1.384 . S
C1098 C1099 1.372 . S
C1099 C1098 1.372 . S
C1099 C1100 1.400 . S
C1099 C1104 1.490 . S
C1100 H1090 0.930 . S
C1100 C1099 1.400 . S
C1100 C1103 1.386 . S
H1101 C1117 0.930 . S
H1102 C1118 0.931 . S
C1103 H1091 0.929 . S
C1103 C1097 1.390 . S
C1103 C1100 1.386 . S
C1104 C1099 1.490 . S
C1104 C1106 1.395 . S
C1104 C1107 1.403 . S
H1105 C1111 0.930 . S
C1106 H1092 0.930 . S
C1106 C1104 1.395 . S
C1106 C1109 1.403 . S
C1107 C1104 1.403 . S
C1107 C1108 1.524 . S
C1107 C1111 1.400 . S
C1108 H1093 0.960 . S
C1108 H1094 0.960 . S
C1108 H1095 0.960 . S
C1108 C1107 1.524 . S
C1109 C1106 1.403 . S
C1109 C1110 1.392 . S
C1109 C1113 1.495 1_556 S
C1110 C1109 1.392 . S
C1110 C1111 1.385 . S
C1110 C1112 1.478 . S
C1111 H1105 0.930 . S
C1111 C1107 1.400 . S
C1111 C1110 1.385 . S
C1112 C1110 1.478 . S
C1112 C1114 1.381 1_556 S
C1112 C1118 1.383 . S
C1113 C1109 1.495 1_554 S
C1113 H1119 0.959 . S
C1113 H1120 0.961 . S
C1113 H1121 0.960 . S
C1114 C1112 1.381 1_554 S
C1114 C1115 1.394 . S
C1114 H1122 0.930 . S
C1115 C1114 1.394 . S
C1115 C1116 1.383 . S
C1115 H1123 0.929 . S
C1116 C1115 1.383 . S
C1116 C1117 1.377 1_554 S
C1117 H1101 0.930 . S
C1117 C1116 1.377 1_556 S
C1117 C1118 1.379 . S
C1118 H1102 0.931 . S
C1118 C1112 1.383 . S
C1118 C1117 1.379 . S
H1119 C1113 0.959 . S
H1120 C1113 0.961 . S
H1121 C1113 0.960 . S
H1122 C1114 0.930 . S
H1123 C1115 0.929 . S
H1124 C1132 0.929 . S
H1125 C1134 0.930 . S
H1126 C1136 0.930 . S
H1127 C1139 0.929 . S
H1128 C1142 0.930 . S
H1129 C1144 0.960 . S
H1130 C1144 0.960 . S
H1131 C1144 0.960 . S
C1132 H1124 0.929 . S
C1132 C1133 1.377 . S
C1132 C1134 1.384 . S
C1133 C1132 1.377 . S
C1133 C1139 1.390 . S
C1134 H1125 0.930 . S
C1134 C1132 1.384 . S
C1134 C1135 1.372 . S
C1135 C1134 1.372 . S
C1135 C1136 1.400 . S
C1135 C1140 1.490 . S
C1136 H1126 0.930 . S
C1136 C1135 1.400 . S
C1136 C1139 1.386 . S
H1137 C1153 0.930 . S
H1138 C1154 0.931 . S
C1139 H1127 0.929 . S
C1139 C1133 1.390 . S
C1139 C1136 1.386 . S
C1140 C1135 1.490 . S
C1140 C1142 1.395 . S
C1140 C1143 1.403 . S
H1141 C1147 0.930 . S
C1142 H1128 0.930 . S
C1142 C1140 1.395 . S
C1142 C1145 1.403 . S
C1143 C1140 1.403 . S
C1143 C1144 1.524 . S
C1143 C1147 1.400 . S
C1144 H1129 0.960 . S
C1144 H1130 0.960 . S
C1144 H1131 0.960 . S
C1144 C1143 1.524 . S
C1145 C1142 1.403 . S
C1145 C1146 1.392 . S
C1145 C1149 1.495 . S
C1146 C1145 1.392 . S
C1146 C1147 1.385 . S
C1146 C1148 1.478 . S
C1147 H1141 0.930 . S
C1147 C1143 1.400 . S
C1147 C1146 1.385 . S
C1148 C1146 1.478 . S
C1148 C1150 1.381 . S
C1148 C1154 1.383 1_554 S
C1149 C1145 1.495 . S
C1149 H1155 0.959 . S
C1149 H1156 0.961 . S
C1149 H1157 0.960 . S
C1150 C1148 1.381 . S
C1150 C1151 1.394 . S
C1150 H1158 0.930 . S
C1151 C1150 1.394 . S
C1151 C1152 1.383 1_554 S
C1151 H1159 0.929 . S
C1152 C1151 1.383 1_556 S
C1152 C1153 1.377 . S
C1153 H1137 0.930 . S
C1153 C1152 1.377 . S
C1153 C1154 1.379 . S
C1154 H1138 0.931 . S
C1154 C1148 1.383 1_556 S
C1154 C1153 1.379 . S
H1155 C1149 0.959 . S
H1156 C1149 0.961 . S
H1157 C1149 0.960 . S
H1158 C1150 0.930 . S
H1159 C1151 0.929 . S
H1160 C1168 0.929 . S
H1161 C1170 0.930 . S
H1162 C1172 0.930 . S
H1163 C1175 0.929 . S
H1164 C1178 0.930 . S
H1165 C1180 0.960 . S
H1166 C1180 0.960 . S
H1167 C1180 0.960 . S
C1168 H1160 0.929 . S
C1168 C1169 1.377 . S
C1168 C1170 1.384 . S
C1169 C1168 1.377 . S
C1169 C1175 1.390 1_554 S
C1170 H1161 0.930 . S
C1170 C1168 1.384 . S
C1170 C1171 1.372 1_554 S
C1171 C1170 1.372 1_556 S
C1171 C1172 1.400 . S
C1171 C1176 1.490 . S
C1172 H1162 0.930 . S
C1172 C1171 1.400 . S
C1172 C1175 1.386 . S
H1173 C1189 0.930 . S
H1174 C1190 0.931 . S
C1175 H1163 0.929 . S
C1175 C1169 1.390 1_556 S
C1175 C1172 1.386 . S
C1176 C1171 1.490 . S
C1176 C1178 1.395 . S
C1176 C1179 1.403 . S
H1177 C1183 0.930 . S
C1178 H1164 0.930 . S
C1178 C1176 1.395 . S
C1178 C1181 1.403 . S
C1179 C1176 1.403 . S
C1179 C1180 1.524 . S
C1179 C1183 1.400 . S
C1180 H1165 0.960 . S
C1180 H1166 0.960 . S
C1180 H1167 0.960 . S
C1180 C1179 1.524 . S
C1181 C1178 1.403 . S
C1181 C1182 1.392 . S
C1181 C1185 1.495 . S
C1182 C1181 1.392 . S
C1182 C1183 1.385 . S
C1182 C1184 1.478 . S
C1183 H1177 0.930 . S
C1183 C1179 1.400 . S
C1183 C1182 1.385 . S
C1184 C1182 1.478 . S
C1184 C1186 1.381 . S
C1184 C1190 1.383 . S
C1185 C1181 1.495 . S
C1185 H1191 0.959 . S
C1185 H1192 0.961 . S
C1185 H1193 0.960 . S
C1186 C1184 1.381 . S
C1186 C1187 1.394 . S
C1186 H1194 0.930 . S
C1187 C1186 1.394 . S
C1187 C1188 1.383 . S
C1187 H1195 0.929 . S
C1188 C1187 1.383 . S
C1188 C1189 1.377 . S
C1189 H1173 0.930 . S
C1189 C1188 1.377 . S
C1189 C1190 1.379 . S
C1190 H1174 0.931 . S
C1190 C1184 1.383 . S
C1190 C1189 1.379 . S
H1191 C1185 0.959 . S
H1192 C1185 0.961 . S
H1193 C1185 0.960 . S
H1194 C1186 0.930 . S
H1195 C1187 0.929 . S
H1196 C1204 0.929 . S
H1197 C1206 0.930 . S
H1198 C1208 0.930 . S
H1199 C1211 0.929 . S
H1200 C1214 0.930 . S
H1201 C1216 0.960 . S
H1202 C1216 0.960 . S
H1203 C1216 0.960 . S
C1204 H1196 0.929 . S
C1204 C1205 1.377 . S
C1204 C1206 1.384 . S
C1205 C1204 1.377 . S
C1205 C1211 1.390 . S
C1206 H1197 0.930 . S
C1206 C1204 1.384 . S
C1206 C1207 1.372 . S
C1207 C1206 1.372 . S
C1207 C1208 1.400 . S
C1207 C1212 1.490 . S
C1208 H1198 0.930 . S
C1208 C1207 1.400 . S
C1208 C1211 1.386 . S
H1209 C1225 0.930 . S
H1210 C1226 0.931 . S
C1211 H1199 0.929 . S
C1211 C1205 1.390 . S
C1211 C1208 1.386 . S
C1212 C1207 1.490 . S
C1212 C1214 1.395 . S
C1212 C1215 1.403 . S
H1213 C1219 0.930 . S
C1214 H1200 0.930 . S
C1214 C1212 1.395 . S
C1214 C1217 1.403 . S
C1215 C1212 1.403 . S
C1215 C1216 1.524 . S
C1215 C1219 1.400 . S
C1216 H1201 0.960 . S
C1216 H1202 0.960 . S
C1216 H1203 0.960 . S
C1216 C1215 1.524 . S
C1217 C1214 1.403 . S
C1217 C1218 1.392 . S
C1217 C1221 1.495 1_554 S
C1218 C1217 1.392 . S
C1218 C1219 1.385 . S
C1218 C1220 1.478 . S
C1219 H1213 0.930 . S
C1219 C1215 1.400 . S
C1219 C1218 1.385 . S
C1220 C1218 1.478 . S
C1220 C1222 1.381 1_554 S
C1220 C1226 1.383 . S
C1221 C1217 1.495 1_556 S
C1221 H1227 0.959 . S
C1221 H1228 0.961 . S
C1221 H1229 0.960 . S
C1222 C1220 1.381 1_556 S
C1222 C1223 1.394 . S
C1222 H1230 0.930 1_556 S
C1223 C1222 1.394 . S
C1223 C1224 1.383 . S
C1223 H1231 0.929 . S
C1224 C1223 1.383 . S
C1224 C1225 1.377 . S
C1225 H1209 0.930 . S
C1225 C1224 1.377 . S
C1225 C1226 1.379 1_556 S
C1226 H1210 0.931 . S
C1226 C1220 1.383 . S
C1226 C1225 1.379 1_554 S
H1227 C1221 0.959 . S
H1228 C1221 0.961 . S
H1229 C1221 0.960 . S
H1230 C1222 0.930 1_554 S
H1231 C1223 0.929 . S
H1232 C1240 0.929 . S
H1233 C1242 0.930 . S
H1234 C1244 0.930 . S
H1235 C1247 0.929 . S
H1236 C1250 0.930 . S
H1237 C1252 0.960 . S
H1238 C1252 0.960 . S
H1239 C1252 0.960 . S
C1240 H1232 0.929 . S
C1240 C1241 1.377 . S
C1240 C1242 1.384 . S
C1241 C1240 1.377 . S
C1241 C1247 1.390 . S
C1242 H1233 0.930 . S
C1242 C1240 1.384 . S
C1242 C1243 1.372 . S
C1243 C1242 1.372 . S
C1243 C1244 1.400 . S
C1243 C1248 1.490 . S
C1244 H1234 0.930 . S
C1244 C1243 1.400 . S
C1244 C1247 1.386 . S
H1245 C1261 0.930 . S
H1246 C1262 0.931 . S
C1247 H1235 0.929 . S
C1247 C1241 1.390 . S
C1247 C1244 1.386 . S
C1248 C1243 1.490 . S
C1248 C1250 1.395 . S
C1248 C1251 1.403 . S
H1249 C1255 0.930 . S
C1250 H1236 0.930 . S
C1250 C1248 1.395 . S
C1250 C1253 1.403 . S
C1251 C1248 1.403 . S
C1251 C1252 1.524 . S
C1251 C1255 1.400 . S
C1252 H1237 0.960 . S
C1252 H1238 0.960 . S
C1252 H1239 0.960 . S
C1252 C1251 1.524 . S
C1253 C1250 1.403 . S
C1253 C1254 1.392 . S
C1253 C1257 1.495 . S
C1254 C1253 1.392 . S
C1254 C1255 1.385 . S
C1254 C1256 1.478 . S
C1255 H1249 0.930 . S
C1255 C1251 1.400 . S
C1255 C1254 1.385 . S
C1256 C1254 1.478 . S
C1256 C1258 1.381 . S
C1256 C1262 1.383 . S
C1257 C1253 1.495 . S
C1257 H1263 0.959 . S
C1257 H1264 0.961 . S
C1257 H1265 0.960 . S
C1258 C1256 1.381 . S
C1258 C1259 1.394 . S
C1258 H1266 0.930 . S
C1259 C1258 1.394 . S
C1259 C1260 1.383 . S
C1259 H1267 0.929 . S
C1260 C1259 1.383 . S
C1260 C1261 1.377 . S
C1261 H1245 0.930 . S
C1261 C1260 1.377 . S
C1261 C1262 1.379 . S
C1262 H1246 0.931 . S
C1262 C1256 1.383 . S
C1262 C1261 1.379 . S
H1263 C1257 0.959 . S
H1264 C1257 0.961 . S
H1265 C1257 0.960 . S
H1266 C1258 0.930 . S
H1267 C1259 0.929 . S
H1268 C1276 0.929 . S
H1269 C1278 0.930 . S
H1270 C1280 0.930 . S
H1271 C1283 0.929 . S
H1272 C1286 0.930 . S
H1273 C1288 0.960 . S
H1274 C1288 0.960 . S
H1275 C1288 0.960 . S
C1276 H1268 0.929 . S
C1276 C1277 1.377 . S
C1276 C1278 1.384 . S
C1277 C1276 1.377 . S
C1277 C1283 1.390 . S
C1278 H1269 0.930 . S
C1278 C1276 1.384 . S
C1278 C1279 1.372 . S
C1279 C1278 1.372 . S
C1279 C1280 1.400 . S
C1279 C1284 1.490 . S
C1280 H1270 0.930 . S
C1280 C1279 1.400 . S
C1280 C1283 1.386 . S
H1281 C1297 0.930 . S
H1282 C1298 0.931 . S
C1283 H1271 0.929 . S
C1283 C1277 1.390 . S
C1283 C1280 1.386 . S
C1284 C1279 1.490 . S
C1284 C1286 1.395 . S
C1284 C1287 1.403 . S
H1285 C1291 0.930 . S
C1286 H1272 0.930 . S
C1286 C1284 1.395 . S
C1286 C1289 1.403 . S
C1287 C1284 1.403 . S
C1287 C1288 1.524 . S
C1287 C1291 1.400 . S
C1288 H1273 0.960 . S
C1288 H1274 0.960 . S
C1288 H1275 0.960 . S
C1288 C1287 1.524 . S
C1289 C1286 1.403 . S
C1289 C1290 1.392 . S
C1289 C1293 1.495 . S
C1290 C1289 1.392 . S
C1290 C1291 1.385 . S
C1290 C1292 1.478 . S
C1291 H1285 0.930 . S
C1291 C1287 1.400 . S
C1291 C1290 1.385 . S
C1292 C1290 1.478 . S
C1292 C1294 1.381 . S
C1292 C1298 1.383 . S
C1293 C1289 1.495 . S
C1293 H1299 0.959 . S
C1293 H1300 0.961 . S
C1293 H1301 0.960 . S
C1294 C1292 1.381 . S
C1294 C1295 1.394 . S
C1294 H1302 0.930 . S
C1295 C1294 1.394 . S
C1295 C1296 1.383 . S
C1295 H1303 0.929 . S
C1296 C1295 1.383 . S
C1296 C1297 1.377 . S
C1297 H1281 0.930 . S
C1297 C1296 1.377 . S
C1297 C1298 1.379 . S
C1298 H1282 0.931 . S
C1298 C1292 1.383 . S
C1298 C1297 1.379 . S
H1299 C1293 0.959 . S
H1300 C1293 0.961 . S
H1301 C1293 0.960 . S
H1302 C1294 0.930 . S
H1303 C1295 0.929 . S
H1304 C1312 0.929 . S
H1305 C1314 0.930 . S
H1306 C1316 0.930 . S
H1307 C1319 0.929 . S
H1308 C1322 0.930 . S
H1309 C1324 0.960 . S
H1310 C1324 0.960 . S
H1311 C1324 0.960 . S
C1312 H1304 0.929 . S
C1312 C1313 1.377 . S
C1312 C1314 1.384 . S
C1313 C1312 1.377 . S
C1313 C1319 1.390 . S
C1314 H1305 0.930 . S
C1314 C1312 1.384 . S
C1314 C1315 1.372 . S
C1315 C1314 1.372 . S
C1315 C1316 1.400 . S
C1315 C1320 1.490 . S
C1316 H1306 0.930 . S
C1316 C1315 1.400 . S
C1316 C1319 1.386 . S
H1317 C1333 0.930 . S
H1318 C1334 0.931 . S
C1319 H1307 0.929 . S
C1319 C1313 1.390 . S
C1319 C1316 1.386 . S
C1320 C1315 1.490 . S
C1320 C1322 1.395 . S
C1320 C1323 1.403 . S
H1321 C1327 0.930 . S
C1322 H1308 0.930 . S
C1322 C1320 1.395 . S
C1322 C1325 1.403 . S
C1323 C1320 1.403 . S
C1323 C1324 1.524 . S
C1323 C1327 1.400 . S
C1324 H1309 0.960 . S
C1324 H1310 0.960 . S
C1324 H1311 0.960 . S
C1324 C1323 1.524 . S
C1325 C1322 1.403 . S
C1325 C1326 1.392 . S
C1325 C1329 1.495 . S
C1326 C1325 1.392 . S
C1326 C1327 1.385 . S
C1326 C1328 1.478 . S
C1327 H1321 0.930 . S
C1327 C1323 1.400 . S
C1327 C1326 1.385 . S
C1328 C1326 1.478 . S
C1328 C1330 1.381 . S
C1328 C1334 1.383 . S
C1329 C1325 1.495 . S
C1329 H1335 0.959 . S
C1329 H1336 0.961 . S
C1329 H1337 0.960 . S
C1330 C1328 1.381 . S
C1330 C1331 1.394 . S
C1330 H1338 0.930 . S
C1331 C1330 1.394 . S
C1331 C1332 1.383 . S
C1331 H1339 0.929 . S
C1332 C1331 1.383 . S
C1332 C1333 1.377 . S
C1333 H1317 0.930 . S
C1333 C1332 1.377 . S
C1333 C1334 1.379 . S
C1334 H1318 0.931 . S
C1334 C1328 1.383 . S
C1334 C1333 1.379 . S
H1335 C1329 0.959 . S
H1336 C1329 0.961 . S
H1337 C1329 0.960 . S
H1338 C1330 0.930 . S
H1339 C1331 0.929 . S
H1340 C1348 0.929 . S
H1341 C1350 0.930 . S
H1342 C1352 0.930 . S
H1343 C1355 0.929 . S
H1344 C1358 0.930 . S
H1345 C1360 0.960 . S
H1346 C1360 0.960 . S
H1347 C1360 0.960 . S
C1348 H1340 0.929 . S
C1348 C1349 1.377 . S
C1348 C1350 1.384 . S
C1349 C1348 1.377 . S
C1349 C1355 1.390 . S
C1350 H1341 0.930 . S
C1350 C1348 1.384 . S
C1350 C1351 1.372 . S
C1351 C1350 1.372 . S
C1351 C1352 1.400 . S
C1351 C1356 1.490 . S
C1352 H1342 0.930 . S
C1352 C1351 1.400 . S
C1352 C1355 1.386 . S
H1353 C1369 0.930 . S
H1354 C1370 0.931 . S
C1355 H1343 0.929 . S
C1355 C1349 1.390 . S
C1355 C1352 1.386 . S
C1356 C1351 1.490 . S
C1356 C1358 1.395 . S
C1356 C1359 1.403 . S
H1357 C1363 0.930 . S
C1358 H1344 0.930 . S
C1358 C1356 1.395 . S
C1358 C1361 1.403 . S
C1359 C1356 1.403 . S
C1359 C1360 1.524 . S
C1359 C1363 1.400 . S
C1360 H1345 0.960 . S
C1360 H1346 0.960 . S
C1360 H1347 0.960 . S
C1360 C1359 1.524 . S
C1361 C1358 1.403 . S
C1361 C1362 1.392 . S
C1361 C1365 1.495 . S
C1362 C1361 1.392 . S
C1362 C1363 1.385 . S
C1362 C1364 1.478 . S
C1363 H1357 0.930 . S
C1363 C1359 1.400 . S
C1363 C1362 1.385 . S
C1364 C1362 1.478 . S
C1364 C1366 1.381 . S
C1364 C1370 1.383 . S
C1365 C1361 1.495 . S
C1365 H1371 0.959 . S
C1365 H1372 0.961 . S
C1365 H1373 0.960 . S
C1366 C1364 1.381 . S
C1366 C1367 1.394 . S
C1366 H1374 0.930 . S
C1367 C1366 1.394 . S
C1367 C1368 1.383 . S
C1367 H1375 0.929 . S
C1368 C1367 1.383 . S
C1368 C1369 1.377 . S
C1369 H1353 0.930 . S
C1369 C1368 1.377 . S
C1369 C1370 1.379 . S
C1370 H1354 0.931 . S
C1370 C1364 1.383 . S
C1370 C1369 1.379 . S
H1371 C1365 0.959 . S
H1372 C1365 0.961 . S
H1373 C1365 0.960 . S
H1374 C1366 0.930 . S
H1375 C1367 0.929 . S
C233 C154 1.552 . S
C252 C1 1.564 . S
C269 C27 1.562 . S
C288 C124 1.542 . S
C305 C41 1.564 . S
C324 C126 1.545 . S
C341 C140 1.557 . S
C360 C55 1.561 . S
C377 C69 1.562 . S
C396 C70 1.558 . S
C413 C83 1.562 . S
C432 C85 1.549 . S
C449 C98 1.552 . S
C468 C96 1.565 . S
C485 C56 1.556 . S
C504 C111 1.565 . S
C521 C42 1.553 . S
C540 C113 1.563 . S
C557 C139 1.564 . S
C576 C12 1.548 . S
C593 C14 1.551 . S
C612 C153 1.565 . S
C629 C167 1.564 . S
C648 C28 1.552 . S
C665 C180 1.564 . S
C684 C182 1.543 . S
C701 C195 1.563 . S
C720 C197 1.552 . S
C737 C210 1.555 . S
C756 C208 1.557 . S
C773 C169 1.551 . S
C792 C223 1.560 . S
C809 C68 1.385 . S
C828 C0 1.389 . S
C845 C26 1.387 . S
C864 C82 1.370 . S
C881 C40 1.382 . S
C900 C97 1.373 . S
C917 C110 1.382 . S
C936 C54 1.383 . S
C953 C112 1.382 . S
C972 C181 1.369 . S
C989 C194 1.386 . S
C1008 C138 1.374 . S
C1025 C152 1.382 . S
C1044 C209 1.369 . S
C1061 C222 1.384 . S
C1080 C166 1.375 . S
C1097 C196 1.752 . S
C1116 C13 1.750 . S
C1133 C211 1.753 . S
C1152 C15 1.740 . S
C1169 C29 1.750 . S
C1188 C168 1.748 . S
C1205 C183 1.752 . S
C1224 C43 1.755 . S
C1241 C141 1.751 . S
C1260 C57 1.756 . S
C1277 C155 1.749 . S
C1296 C71 1.746 . S
C1313 C84 1.749 . S
C1332 C125 1.736 . S
C1349 C127 1.749 . S
C1368 C99 1.747 . S
