# Generated by pormake.
# Topology hal, (4)-cn, num edge types: 1
# Building blocks:
#     Node 0, Type 0, BuildingBlock: GALJAG_clean_sbu_0, # of connection points: 4
#     Node 1, Type 0, BuildingBlock: GALJAG_clean_sbu_0, # of connection points: 4
#     Node 2, Type 0, BuildingBlock: GALJAG_clean_sbu_0, # of connection points: 4
#     Node 3, Type 0, BuildingBlock: GALJAG_clean_sbu_0, # of connection points: 4
#     Node 4, Type 0, BuildingBlock: GALJAG_clean_sbu_0, # of connection points: 4
#     Node 5, Type 0, BuildingBlock: GALJAG_clean_sbu_0, # of connection points: 4
#     Node 6, Type 0, BuildingBlock: GALJAG_clean_sbu_0, # of connection points: 4
#     Node 7, Type 0, BuildingBlock: GALJAG_clean_sbu_0, # of connection points: 4
#     Node 8, Type 0, BuildingBlock: GALJAG_clean_sbu_0, # of connection points: 4
#     Node 9, Type 0, BuildingBlock: GALJAG_clean_sbu_0, # of connection points: 4
#     Node 10, Type 0, BuildingBlock: GALJAG_clean_sbu_0, # of connection points: 4
#     Node 11, Type 0, BuildingBlock: GALJAG_clean_sbu_0, # of connection points: 4
#     Node 12, Type 0, BuildingBlock: GALJAG_clean_sbu_0, # of connection points: 4
#     Node 13, Type 0, BuildingBlock: GALJAG_clean_sbu_0, # of connection points: 4
#     Node 14, Type 0, BuildingBlock: GALJAG_clean_sbu_0, # of connection points: 4
#     Node 15, Type 0, BuildingBlock: GALJAG_clean_sbu_0, # of connection points: 4
#     Node 16, Type 0, BuildingBlock: GALJAG_clean_sbu_0, # of connection points: 4
#     Node 17, Type 0, BuildingBlock: GALJAG_clean_sbu_0, # of connection points: 4
#     Node 18, Type 0, BuildingBlock: GALJAG_clean_sbu_0, # of connection points: 4
#     Node 19, Type 0, BuildingBlock: GALJAG_clean_sbu_0, # of connection points: 4
#     Node 20, Type 0, BuildingBlock: GALJAG_clean_sbu_0, # of connection points: 4
#     Node 21, Type 0, BuildingBlock: GALJAG_clean_sbu_0, # of connection points: 4
#     Node 22, Type 0, BuildingBlock: GALJAG_clean_sbu_0, # of connection points: 4
#     Node 23, Type 0, BuildingBlock: GALJAG_clean_sbu_0, # of connection points: 4
#     Node 24, Type 0, BuildingBlock: GALJAG_clean_sbu_0, # of connection points: 4
#     Node 25, Type 0, BuildingBlock: GALJAG_clean_sbu_0, # of connection points: 4
#     Node 26, Type 0, BuildingBlock: GALJAG_clean_sbu_0, # of connection points: 4
#     Node 27, Type 0, BuildingBlock: GALJAG_clean_sbu_0, # of connection points: 4
#     Node 28, Type 0, BuildingBlock: GALJAG_clean_sbu_0, # of connection points: 4
#     Node 29, Type 0, BuildingBlock: GALJAG_clean_sbu_0, # of connection points: 4
#     Node 30, Type 0, BuildingBlock: GALJAG_clean_sbu_0, # of connection points: 4
#     Node 31, Type 0, BuildingBlock: GALJAG_clean_sbu_0, # of connection points: 4
#     Node 32, Type 0, BuildingBlock: GALJAG_clean_sbu_0, # of connection points: 4
#     Node 33, Type 0, BuildingBlock: GALJAG_clean_sbu_0, # of connection points: 4
#     Node 34, Type 0, BuildingBlock: GALJAG_clean_sbu_0, # of connection points: 4
#     Node 35, Type 0, BuildingBlock: GALJAG_clean_sbu_0, # of connection points: 4
#     Node 36, Type 0, BuildingBlock: GALJAG_clean_sbu_0, # of connection points: 4
#     Node 37, Type 0, BuildingBlock: GALJAG_clean_sbu_0, # of connection points: 4
#     Node 38, Type 0, BuildingBlock: GALJAG_clean_sbu_0, # of connection points: 4
#     Node 39, Type 0, BuildingBlock: GALJAG_clean_sbu_0, # of connection points: 4
#     Node 40, Type 0, BuildingBlock: GALJAG_clean_sbu_0, # of connection points: 4
#     Node 41, Type 0, BuildingBlock: GALJAG_clean_sbu_0, # of connection points: 4
#     Node 42, Type 0, BuildingBlock: GALJAG_clean_sbu_0, # of connection points: 4
#     Node 43, Type 0, BuildingBlock: GALJAG_clean_sbu_0, # of connection points: 4
#     Node 44, Type 0, BuildingBlock: GALJAG_clean_sbu_0, # of connection points: 4
#     Node 45, Type 0, BuildingBlock: GALJAG_clean_sbu_0, # of connection points: 4
#     Node 46, Type 0, BuildingBlock: GALJAG_clean_sbu_0, # of connection points: 4
#     Node 47, Type 0, BuildingBlock: GALJAG_clean_sbu_0, # of connection points: 4
#     Node 48, Type 0, BuildingBlock: GALJAG_clean_sbu_0, # of connection points: 4
#     Node 49, Type 0, BuildingBlock: GALJAG_clean_sbu_0, # of connection points: 4
#     Node 50, Type 0, BuildingBlock: GALJAG_clean_sbu_0, # of connection points: 4
#     Node 51, Type 0, BuildingBlock: GALJAG_clean_sbu_0, # of connection points: 4
#     Node 52, Type 0, BuildingBlock: GALJAG_clean_sbu_0, # of connection points: 4
#     Node 53, Type 0, BuildingBlock: GALJAG_clean_sbu_0, # of connection points: 4
#     Node 54, Type 0, BuildingBlock: GALJAG_clean_sbu_0, # of connection points: 4
#     Node 55, Type 0, BuildingBlock: GALJAG_clean_sbu_0, # of connection points: 4
#     Node 56, Type 0, BuildingBlock: GALJAG_clean_sbu_0, # of connection points: 4
#     Node 57, Type 0, BuildingBlock: GALJAG_clean_sbu_0, # of connection points: 4
#     Node 58, Type 0, BuildingBlock: GALJAG_clean_sbu_0, # of connection points: 4
#     Node 59, Type 0, BuildingBlock: GALJAG_clean_sbu_0, # of connection points: 4
#     Node 60, Type 0, BuildingBlock: GALJAG_clean_sbu_0, # of connection points: 4
#     Node 61, Type 0, BuildingBlock: GALJAG_clean_sbu_0, # of connection points: 4
#     Node 62, Type 0, BuildingBlock: GALJAG_clean_sbu_0, # of connection points: 4
#     Node 63, Type 0, BuildingBlock: GALJAG_clean_sbu_0, # of connection points: 4
#     Node 64, Type 0, BuildingBlock: GALJAG_clean_sbu_0, # of connection points: 4
#     Node 65, Type 0, BuildingBlock: GALJAG_clean_sbu_0, # of connection points: 4
#     Node 66, Type 0, BuildingBlock: GALJAG_clean_sbu_0, # of connection points: 4
#     Node 67, Type 0, BuildingBlock: GALJAG_clean_sbu_0, # of connection points: 4
#     Node 68, Type 0, BuildingBlock: GALJAG_clean_sbu_0, # of connection points: 4
#     Node 69, Type 0, BuildingBlock: GALJAG_clean_sbu_0, # of connection points: 4
#     Node 70, Type 0, BuildingBlock: GALJAG_clean_sbu_0, # of connection points: 4
#     Node 71, Type 0, BuildingBlock: GALJAG_clean_sbu_0, # of connection points: 4
#     Node 72, Type 0, BuildingBlock: GALJAG_clean_sbu_0, # of connection points: 4
#     Node 73, Type 0, BuildingBlock: GALJAG_clean_sbu_0, # of connection points: 4
#     Node 74, Type 0, BuildingBlock: GALJAG_clean_sbu_0, # of connection points: 4
#     Node 75, Type 0, BuildingBlock: GALJAG_clean_sbu_0, # of connection points: 4
#     Node 76, Type 0, BuildingBlock: GALJAG_clean_sbu_0, # of connection points: 4
#     Node 77, Type 0, BuildingBlock: GALJAG_clean_sbu_0, # of connection points: 4
#     Node 78, Type 0, BuildingBlock: GALJAG_clean_sbu_0, # of connection points: 4
#     Node 79, Type 0, BuildingBlock: GALJAG_clean_sbu_0, # of connection points: 4
#     Node 80, Type 0, BuildingBlock: GALJAG_clean_sbu_0, # of connection points: 4
#     Node 81, Type 0, BuildingBlock: GALJAG_clean_sbu_0, # of connection points: 4
#     Node 82, Type 0, BuildingBlock: GALJAG_clean_sbu_0, # of connection points: 4
#     Node 83, Type 0, BuildingBlock: GALJAG_clean_sbu_0, # of connection points: 4
#     Node 84, Type 0, BuildingBlock: GALJAG_clean_sbu_0, # of connection points: 4
#     Node 85, Type 0, BuildingBlock: GALJAG_clean_sbu_0, # of connection points: 4
#     Node 86, Type 0, BuildingBlock: GALJAG_clean_sbu_0, # of connection points: 4
#     Node 87, Type 0, BuildingBlock: GALJAG_clean_sbu_0, # of connection points: 4
#     Node 88, Type 0, BuildingBlock: GALJAG_clean_sbu_0, # of connection points: 4
#     Node 89, Type 0, BuildingBlock: GALJAG_clean_sbu_0, # of connection points: 4
#     Node 90, Type 0, BuildingBlock: GALJAG_clean_sbu_0, # of connection points: 4
#     Node 91, Type 0, BuildingBlock: GALJAG_clean_sbu_0, # of connection points: 4
#     Node 92, Type 0, BuildingBlock: GALJAG_clean_sbu_0, # of connection points: 4
#     Node 93, Type 0, BuildingBlock: GALJAG_clean_sbu_0, # of connection points: 4
#     Node 94, Type 0, BuildingBlock: GALJAG_clean_sbu_0, # of connection points: 4
#     Node 95, Type 0, BuildingBlock: GALJAG_clean_sbu_0, # of connection points: 4
#     Edge 96, Type (0, 0), BuildingBlock: OJICUG_clean_linker_0, # of connection points: 2
#     Edge 97, Type (0, 0), BuildingBlock: OJICUG_clean_linker_0, # of connection points: 2
#     Edge 98, Type (0, 0), BuildingBlock: OJICUG_clean_linker_0, # of connection points: 2
#     Edge 99, Type (0, 0), BuildingBlock: OJICUG_clean_linker_0, # of connection points: 2
#     Edge 100, Type (0, 0), BuildingBlock: OJICUG_clean_linker_0, # of connection points: 2
#     Edge 101, Type (0, 0), BuildingBlock: OJICUG_clean_linker_0, # of connection points: 2
#     Edge 102, Type (0, 0), BuildingBlock: OJICUG_clean_linker_0, # of connection points: 2
#     Edge 103, Type (0, 0), BuildingBlock: OJICUG_clean_linker_0, # of connection points: 2
#     Edge 104, Type (0, 0), BuildingBlock: OJICUG_clean_linker_0, # of connection points: 2
#     Edge 105, Type (0, 0), BuildingBlock: OJICUG_clean_linker_0, # of connection points: 2
#     Edge 106, Type (0, 0), BuildingBlock: OJICUG_clean_linker_0, # of connection points: 2
#     Edge 107, Type (0, 0), BuildingBlock: OJICUG_clean_linker_0, # of connection points: 2
#     Edge 108, Type (0, 0), BuildingBlock: OJICUG_clean_linker_0, # of connection points: 2
#     Edge 109, Type (0, 0), BuildingBlock: OJICUG_clean_linker_0, # of connection points: 2
#     Edge 110, Type (0, 0), BuildingBlock: OJICUG_clean_linker_0, # of connection points: 2
#     Edge 111, Type (0, 0), BuildingBlock: OJICUG_clean_linker_0, # of connection points: 2
#     Edge 112, Type (0, 0), BuildingBlock: OJICUG_clean_linker_0, # of connection points: 2
#     Edge 113, Type (0, 0), BuildingBlock: OJICUG_clean_linker_0, # of connection points: 2
#     Edge 114, Type (0, 0), BuildingBlock: OJICUG_clean_linker_0, # of connection points: 2
#     Edge 115, Type (0, 0), BuildingBlock: OJICUG_clean_linker_0, # of connection points: 2
#     Edge 116, Type (0, 0), BuildingBlock: OJICUG_clean_linker_0, # of connection points: 2
#     Edge 117, Type (0, 0), BuildingBlock: OJICUG_clean_linker_0, # of connection points: 2
#     Edge 118, Type (0, 0), BuildingBlock: OJICUG_clean_linker_0, # of connection points: 2
#     Edge 119, Type (0, 0), BuildingBlock: OJICUG_clean_linker_0, # of connection points: 2
#     Edge 120, Type (0, 0), BuildingBlock: OJICUG_clean_linker_0, # of connection points: 2
#     Edge 121, Type (0, 0), BuildingBlock: OJICUG_clean_linker_0, # of connection points: 2
#     Edge 122, Type (0, 0), BuildingBlock: OJICUG_clean_linker_0, # of connection points: 2
#     Edge 123, Type (0, 0), BuildingBlock: OJICUG_clean_linker_0, # of connection points: 2
#     Edge 124, Type (0, 0), BuildingBlock: OJICUG_clean_linker_0, # of connection points: 2
#     Edge 125, Type (0, 0), BuildingBlock: OJICUG_clean_linker_0, # of connection points: 2
#     Edge 126, Type (0, 0), BuildingBlock: OJICUG_clean_linker_0, # of connection points: 2
#     Edge 127, Type (0, 0), BuildingBlock: OJICUG_clean_linker_0, # of connection points: 2
#     Edge 128, Type (0, 0), BuildingBlock: OJICUG_clean_linker_0, # of connection points: 2
#     Edge 129, Type (0, 0), BuildingBlock: OJICUG_clean_linker_0, # of connection points: 2
#     Edge 130, Type (0, 0), BuildingBlock: OJICUG_clean_linker_0, # of connection points: 2
#     Edge 131, Type (0, 0), BuildingBlock: OJICUG_clean_linker_0, # of connection points: 2
#     Edge 132, Type (0, 0), BuildingBlock: OJICUG_clean_linker_0, # of connection points: 2
#     Edge 133, Type (0, 0), BuildingBlock: OJICUG_clean_linker_0, # of connection points: 2
#     Edge 134, Type (0, 0), BuildingBlock: OJICUG_clean_linker_0, # of connection points: 2
#     Edge 135, Type (0, 0), BuildingBlock: OJICUG_clean_linker_0, # of connection points: 2
#     Edge 136, Type (0, 0), BuildingBlock: OJICUG_clean_linker_0, # of connection points: 2
#     Edge 137, Type (0, 0), BuildingBlock: OJICUG_clean_linker_0, # of connection points: 2
#     Edge 138, Type (0, 0), BuildingBlock: OJICUG_clean_linker_0, # of connection points: 2
#     Edge 139, Type (0, 0), BuildingBlock: OJICUG_clean_linker_0, # of connection points: 2
#     Edge 140, Type (0, 0), BuildingBlock: OJICUG_clean_linker_0, # of connection points: 2
#     Edge 141, Type (0, 0), BuildingBlock: OJICUG_clean_linker_0, # of connection points: 2
#     Edge 142, Type (0, 0), BuildingBlock: OJICUG_clean_linker_0, # of connection points: 2
#     Edge 143, Type (0, 0), BuildingBlock: OJICUG_clean_linker_0, # of connection points: 2
#     Edge 144, Type (0, 0), BuildingBlock: OJICUG_clean_linker_0, # of connection points: 2
#     Edge 145, Type (0, 0), BuildingBlock: OJICUG_clean_linker_0, # of connection points: 2
#     Edge 146, Type (0, 0), BuildingBlock: OJICUG_clean_linker_0, # of connection points: 2
#     Edge 147, Type (0, 0), BuildingBlock: OJICUG_clean_linker_0, # of connection points: 2
#     Edge 148, Type (0, 0), BuildingBlock: OJICUG_clean_linker_0, # of connection points: 2
#     Edge 149, Type (0, 0), BuildingBlock: OJICUG_clean_linker_0, # of connection points: 2
#     Edge 150, Type (0, 0), BuildingBlock: OJICUG_clean_linker_0, # of connection points: 2
#     Edge 151, Type (0, 0), BuildingBlock: OJICUG_clean_linker_0, # of connection points: 2
#     Edge 152, Type (0, 0), BuildingBlock: OJICUG_clean_linker_0, # of connection points: 2
#     Edge 153, Type (0, 0), BuildingBlock: OJICUG_clean_linker_0, # of connection points: 2
#     Edge 154, Type (0, 0), BuildingBlock: OJICUG_clean_linker_0, # of connection points: 2
#     Edge 155, Type (0, 0), BuildingBlock: OJICUG_clean_linker_0, # of connection points: 2
#     Edge 156, Type (0, 0), BuildingBlock: OJICUG_clean_linker_0, # of connection points: 2
#     Edge 157, Type (0, 0), BuildingBlock: OJICUG_clean_linker_0, # of connection points: 2
#     Edge 158, Type (0, 0), BuildingBlock: OJICUG_clean_linker_0, # of connection points: 2
#     Edge 159, Type (0, 0), BuildingBlock: OJICUG_clean_linker_0, # of connection points: 2
#     Edge 160, Type (0, 0), BuildingBlock: OJICUG_clean_linker_0, # of connection points: 2
#     Edge 161, Type (0, 0), BuildingBlock: OJICUG_clean_linker_0, # of connection points: 2
#     Edge 162, Type (0, 0), BuildingBlock: OJICUG_clean_linker_0, # of connection points: 2
#     Edge 163, Type (0, 0), BuildingBlock: OJICUG_clean_linker_0, # of connection points: 2
#     Edge 164, Type (0, 0), BuildingBlock: OJICUG_clean_linker_0, # of connection points: 2
#     Edge 165, Type (0, 0), BuildingBlock: OJICUG_clean_linker_0, # of connection points: 2
#     Edge 166, Type (0, 0), BuildingBlock: OJICUG_clean_linker_0, # of connection points: 2
#     Edge 167, Type (0, 0), BuildingBlock: OJICUG_clean_linker_0, # of connection points: 2
#     Edge 168, Type (0, 0), BuildingBlock: OJICUG_clean_linker_0, # of connection points: 2
#     Edge 169, Type (0, 0), BuildingBlock: OJICUG_clean_linker_0, # of connection points: 2
#     Edge 170, Type (0, 0), BuildingBlock: OJICUG_clean_linker_0, # of connection points: 2
#     Edge 171, Type (0, 0), BuildingBlock: OJICUG_clean_linker_0, # of connection points: 2
#     Edge 172, Type (0, 0), BuildingBlock: OJICUG_clean_linker_0, # of connection points: 2
#     Edge 173, Type (0, 0), BuildingBlock: OJICUG_clean_linker_0, # of connection points: 2
#     Edge 174, Type (0, 0), BuildingBlock: OJICUG_clean_linker_0, # of connection points: 2
#     Edge 175, Type (0, 0), BuildingBlock: OJICUG_clean_linker_0, # of connection points: 2
#     Edge 176, Type (0, 0), BuildingBlock: OJICUG_clean_linker_0, # of connection points: 2
#     Edge 177, Type (0, 0), BuildingBlock: OJICUG_clean_linker_0, # of connection points: 2
#     Edge 178, Type (0, 0), BuildingBlock: OJICUG_clean_linker_0, # of connection points: 2
#     Edge 179, Type (0, 0), BuildingBlock: OJICUG_clean_linker_0, # of connection points: 2
#     Edge 180, Type (0, 0), BuildingBlock: OJICUG_clean_linker_0, # of connection points: 2
#     Edge 181, Type (0, 0), BuildingBlock: OJICUG_clean_linker_0, # of connection points: 2
#     Edge 182, Type (0, 0), BuildingBlock: OJICUG_clean_linker_0, # of connection points: 2
#     Edge 183, Type (0, 0), BuildingBlock: OJICUG_clean_linker_0, # of connection points: 2
#     Edge 184, Type (0, 0), BuildingBlock: OJICUG_clean_linker_0, # of connection points: 2
#     Edge 185, Type (0, 0), BuildingBlock: OJICUG_clean_linker_0, # of connection points: 2
#     Edge 186, Type (0, 0), BuildingBlock: OJICUG_clean_linker_0, # of connection points: 2
#     Edge 187, Type (0, 0), BuildingBlock: OJICUG_clean_linker_0, # of connection points: 2
#     Edge 188, Type (0, 0), BuildingBlock: OJICUG_clean_linker_0, # of connection points: 2
#     Edge 189, Type (0, 0), BuildingBlock: OJICUG_clean_linker_0, # of connection points: 2
#     Edge 190, Type (0, 0), BuildingBlock: OJICUG_clean_linker_0, # of connection points: 2
#     Edge 191, Type (0, 0), BuildingBlock: OJICUG_clean_linker_0, # of connection points: 2
#     Edge 192, Type (0, 0), BuildingBlock: OJICUG_clean_linker_0, # of connection points: 2
#     Edge 193, Type (0, 0), BuildingBlock: OJICUG_clean_linker_0, # of connection points: 2
#     Edge 194, Type (0, 0), BuildingBlock: OJICUG_clean_linker_0, # of connection points: 2
#     Edge 195, Type (0, 0), BuildingBlock: OJICUG_clean_linker_0, # of connection points: 2
#     Edge 196, Type (0, 0), BuildingBlock: OJICUG_clean_linker_0, # of connection points: 2
#     Edge 197, Type (0, 0), BuildingBlock: OJICUG_clean_linker_0, # of connection points: 2
#     Edge 198, Type (0, 0), BuildingBlock: OJICUG_clean_linker_0, # of connection points: 2
#     Edge 199, Type (0, 0), BuildingBlock: OJICUG_clean_linker_0, # of connection points: 2
#     Edge 200, Type (0, 0), BuildingBlock: OJICUG_clean_linker_0, # of connection points: 2
#     Edge 201, Type (0, 0), BuildingBlock: OJICUG_clean_linker_0, # of connection points: 2
#     Edge 202, Type (0, 0), BuildingBlock: OJICUG_clean_linker_0, # of connection points: 2
#     Edge 203, Type (0, 0), BuildingBlock: OJICUG_clean_linker_0, # of connection points: 2
#     Edge 204, Type (0, 0), BuildingBlock: OJICUG_clean_linker_0, # of connection points: 2
#     Edge 205, Type (0, 0), BuildingBlock: OJICUG_clean_linker_0, # of connection points: 2
#     Edge 206, Type (0, 0), BuildingBlock: OJICUG_clean_linker_0, # of connection points: 2
#     Edge 207, Type (0, 0), BuildingBlock: OJICUG_clean_linker_0, # of connection points: 2
#     Edge 208, Type (0, 0), BuildingBlock: OJICUG_clean_linker_0, # of connection points: 2
#     Edge 209, Type (0, 0), BuildingBlock: OJICUG_clean_linker_0, # of connection points: 2
#     Edge 210, Type (0, 0), BuildingBlock: OJICUG_clean_linker_0, # of connection points: 2
#     Edge 211, Type (0, 0), BuildingBlock: OJICUG_clean_linker_0, # of connection points: 2
#     Edge 212, Type (0, 0), BuildingBlock: OJICUG_clean_linker_0, # of connection points: 2
#     Edge 213, Type (0, 0), BuildingBlock: OJICUG_clean_linker_0, # of connection points: 2
#     Edge 214, Type (0, 0), BuildingBlock: OJICUG_clean_linker_0, # of connection points: 2
#     Edge 215, Type (0, 0), BuildingBlock: OJICUG_clean_linker_0, # of connection points: 2
#     Edge 216, Type (0, 0), BuildingBlock: OJICUG_clean_linker_0, # of connection points: 2
#     Edge 217, Type (0, 0), BuildingBlock: OJICUG_clean_linker_0, # of connection points: 2
#     Edge 218, Type (0, 0), BuildingBlock: OJICUG_clean_linker_0, # of connection points: 2
#     Edge 219, Type (0, 0), BuildingBlock: OJICUG_clean_linker_0, # of connection points: 2
#     Edge 220, Type (0, 0), BuildingBlock: OJICUG_clean_linker_0, # of connection points: 2
#     Edge 221, Type (0, 0), BuildingBlock: OJICUG_clean_linker_0, # of connection points: 2
#     Edge 222, Type (0, 0), BuildingBlock: OJICUG_clean_linker_0, # of connection points: 2
#     Edge 223, Type (0, 0), BuildingBlock: OJICUG_clean_linker_0, # of connection points: 2
#     Edge 224, Type (0, 0), BuildingBlock: OJICUG_clean_linker_0, # of connection points: 2
#     Edge 225, Type (0, 0), BuildingBlock: OJICUG_clean_linker_0, # of connection points: 2
#     Edge 226, Type (0, 0), BuildingBlock: OJICUG_clean_linker_0, # of connection points: 2
#     Edge 227, Type (0, 0), BuildingBlock: OJICUG_clean_linker_0, # of connection points: 2
#     Edge 228, Type (0, 0), BuildingBlock: OJICUG_clean_linker_0, # of connection points: 2
#     Edge 229, Type (0, 0), BuildingBlock: OJICUG_clean_linker_0, # of connection points: 2
#     Edge 230, Type (0, 0), BuildingBlock: OJICUG_clean_linker_0, # of connection points: 2
#     Edge 231, Type (0, 0), BuildingBlock: OJICUG_clean_linker_0, # of connection points: 2
#     Edge 232, Type (0, 0), BuildingBlock: OJICUG_clean_linker_0, # of connection points: 2
#     Edge 233, Type (0, 0), BuildingBlock: OJICUG_clean_linker_0, # of connection points: 2
#     Edge 234, Type (0, 0), BuildingBlock: OJICUG_clean_linker_0, # of connection points: 2
#     Edge 235, Type (0, 0), BuildingBlock: OJICUG_clean_linker_0, # of connection points: 2
#     Edge 236, Type (0, 0), BuildingBlock: OJICUG_clean_linker_0, # of connection points: 2
#     Edge 237, Type (0, 0), BuildingBlock: OJICUG_clean_linker_0, # of connection points: 2
#     Edge 238, Type (0, 0), BuildingBlock: OJICUG_clean_linker_0, # of connection points: 2
#     Edge 239, Type (0, 0), BuildingBlock: OJICUG_clean_linker_0, # of connection points: 2
#     Edge 240, Type (0, 0), BuildingBlock: OJICUG_clean_linker_0, # of connection points: 2
#     Edge 241, Type (0, 0), BuildingBlock: OJICUG_clean_linker_0, # of connection points: 2
#     Edge 242, Type (0, 0), BuildingBlock: OJICUG_clean_linker_0, # of connection points: 2
#     Edge 243, Type (0, 0), BuildingBlock: OJICUG_clean_linker_0, # of connection points: 2
#     Edge 244, Type (0, 0), BuildingBlock: OJICUG_clean_linker_0, # of connection points: 2
#     Edge 245, Type (0, 0), BuildingBlock: OJICUG_clean_linker_0, # of connection points: 2
#     Edge 246, Type (0, 0), BuildingBlock: OJICUG_clean_linker_0, # of connection points: 2
#     Edge 247, Type (0, 0), BuildingBlock: OJICUG_clean_linker_0, # of connection points: 2
#     Edge 248, Type (0, 0), BuildingBlock: OJICUG_clean_linker_0, # of connection points: 2
#     Edge 249, Type (0, 0), BuildingBlock: OJICUG_clean_linker_0, # of connection points: 2
#     Edge 250, Type (0, 0), BuildingBlock: OJICUG_clean_linker_0, # of connection points: 2
#     Edge 251, Type (0, 0), BuildingBlock: OJICUG_clean_linker_0, # of connection points: 2
#     Edge 252, Type (0, 0), BuildingBlock: OJICUG_clean_linker_0, # of connection points: 2
#     Edge 253, Type (0, 0), BuildingBlock: OJICUG_clean_linker_0, # of connection points: 2
#     Edge 254, Type (0, 0), BuildingBlock: OJICUG_clean_linker_0, # of connection points: 2
#     Edge 255, Type (0, 0), BuildingBlock: OJICUG_clean_linker_0, # of connection points: 2
#     Edge 256, Type (0, 0), BuildingBlock: OJICUG_clean_linker_0, # of connection points: 2
#     Edge 257, Type (0, 0), BuildingBlock: OJICUG_clean_linker_0, # of connection points: 2
#     Edge 258, Type (0, 0), BuildingBlock: OJICUG_clean_linker_0, # of connection points: 2
#     Edge 259, Type (0, 0), BuildingBlock: OJICUG_clean_linker_0, # of connection points: 2
#     Edge 260, Type (0, 0), BuildingBlock: OJICUG_clean_linker_0, # of connection points: 2
#     Edge 261, Type (0, 0), BuildingBlock: OJICUG_clean_linker_0, # of connection points: 2
#     Edge 262, Type (0, 0), BuildingBlock: OJICUG_clean_linker_0, # of connection points: 2
#     Edge 263, Type (0, 0), BuildingBlock: OJICUG_clean_linker_0, # of connection points: 2
#     Edge 264, Type (0, 0), BuildingBlock: OJICUG_clean_linker_0, # of connection points: 2
#     Edge 265, Type (0, 0), BuildingBlock: OJICUG_clean_linker_0, # of connection points: 2
#     Edge 266, Type (0, 0), BuildingBlock: OJICUG_clean_linker_0, # of connection points: 2
#     Edge 267, Type (0, 0), BuildingBlock: OJICUG_clean_linker_0, # of connection points: 2
#     Edge 268, Type (0, 0), BuildingBlock: OJICUG_clean_linker_0, # of connection points: 2
#     Edge 269, Type (0, 0), BuildingBlock: OJICUG_clean_linker_0, # of connection points: 2
#     Edge 270, Type (0, 0), BuildingBlock: OJICUG_clean_linker_0, # of connection points: 2
#     Edge 271, Type (0, 0), BuildingBlock: OJICUG_clean_linker_0, # of connection points: 2
#     Edge 272, Type (0, 0), BuildingBlock: OJICUG_clean_linker_0, # of connection points: 2
#     Edge 273, Type (0, 0), BuildingBlock: OJICUG_clean_linker_0, # of connection points: 2
#     Edge 274, Type (0, 0), BuildingBlock: OJICUG_clean_linker_0, # of connection points: 2
#     Edge 275, Type (0, 0), BuildingBlock: OJICUG_clean_linker_0, # of connection points: 2
#     Edge 276, Type (0, 0), BuildingBlock: OJICUG_clean_linker_0, # of connection points: 2
#     Edge 277, Type (0, 0), BuildingBlock: OJICUG_clean_linker_0, # of connection points: 2
#     Edge 278, Type (0, 0), BuildingBlock: OJICUG_clean_linker_0, # of connection points: 2
#     Edge 279, Type (0, 0), BuildingBlock: OJICUG_clean_linker_0, # of connection points: 2
#     Edge 280, Type (0, 0), BuildingBlock: OJICUG_clean_linker_0, # of connection points: 2
#     Edge 281, Type (0, 0), BuildingBlock: OJICUG_clean_linker_0, # of connection points: 2
#     Edge 282, Type (0, 0), BuildingBlock: OJICUG_clean_linker_0, # of connection points: 2
#     Edge 283, Type (0, 0), BuildingBlock: OJICUG_clean_linker_0, # of connection points: 2
#     Edge 284, Type (0, 0), BuildingBlock: OJICUG_clean_linker_0, # of connection points: 2
#     Edge 285, Type (0, 0), BuildingBlock: OJICUG_clean_linker_0, # of connection points: 2
#     Edge 286, Type (0, 0), BuildingBlock: OJICUG_clean_linker_0, # of connection points: 2
#     Edge 287, Type (0, 0), BuildingBlock: OJICUG_clean_linker_0, # of connection points: 2
# Relax obj value: 0.181
# Max RMSD: 0.203
# Mean RMSD: 0.203
data_MOF--net-hal--node1-GALJAG_clean_sbu_0--edge1-OJICUG_clean_linker_0
_symmetry_space_group_name_H-M    P1
_symmetry_Int_Tables_number       1
_symmetry_cell_setting            triclinic
loop_
_symmetry_equiv_pos_as_xyz
'x, y, z'
_cell_length_a     67.587358
_cell_length_b     67.556904
_cell_length_c     67.631355
_cell_angle_alpha  90.055692
_cell_angle_beta   89.998293
_cell_angle_gamma 89.931151
loop_
_atom_site_label
_atom_site_type_symbol
_atom_site_fract_x
_atom_site_fract_y
_atom_site_fract_z
_atom_type_partial_charge
In0 In 0.08622 0.20627 0.29034 0.0
O1 O 0.08736 0.2392 0.28291 0.0
O2 O 0.07628 0.21963 0.26106 0.0
C3 C 0.10944 0.20954 0.32259 0.0
C4 C 0.05071 0.19648 0.30498 0.0
C5 C 0.10341 0.17556 0.2714 0.0
O6 O 0.09128 0.20564 0.32357 0.0
O7 O 0.11584 0.21239 0.30533 0.0
O8 O 0.08543 0.17561 0.27631 0.0
O9 O 0.11256 0.19135 0.27534 0.0
C10 C 0.08031 0.2372 0.2658 0.0
O11 O 0.06232 0.18401 0.29734 0.0
O12 O 0.05694 0.21413 0.3051 0.0
In13 In 0.81591 0.0743 0.28171 0.0
O14 O 0.78412 0.07839 0.27259 0.0
O15 O 0.80493 0.07362 0.24951 0.0
C16 C 0.80357 0.09823 0.31087 0.0
C17 C 0.81622 0.03504 0.28766 0.0
C18 C 0.85275 0.08939 0.27896 0.0
O19 O 0.80605 0.10423 0.29337 0.0
O20 O 0.80734 0.08013 0.31363 0.0
O21 O 0.84802 0.07651 0.29156 0.0
O22 O 0.83917 0.09382 0.26695 0.0
C23 C 0.78711 0.07658 0.25431 0.0
O24 O 0.82407 0.04279 0.27259 0.0
O25 O 0.80866 0.04711 0.29969 0.0
In26 In 0.9063 0.79722 0.29837 0.0
O27 O 0.93484 0.81314 0.29108 0.0
O28 O 0.93555 0.79124 0.31369 0.0
C29 C 0.88289 0.82708 0.28622 0.0
C30 C 0.90937 0.76738 0.27217 0.0
C31 C 0.88748 0.79173 0.33292 0.0
O32 O 0.89941 0.82992 0.29441 0.0
O33 O 0.87851 0.80915 0.28349 0.0
O34 O 0.88338 0.78192 0.31758 0.0
O35 O 0.90154 0.80382 0.33099 0.0
C36 C 0.94499 0.80381 0.30365 0.0
O37 O 0.91009 0.78533 0.26714 0.0
O38 O 0.90681 0.76445 0.29041 0.0
In39 In 0.17923 0.91359 0.28528 0.0
O40 O 0.166 0.94041 0.2699 0.0
O41 O 0.17457 0.94337 0.30006 0.0
C42 C 0.14644 0.89226 0.27813 0.0
C43 C 0.21103 0.9168 0.26182 0.0
C44 C 0.19273 0.89291 0.3166 0.0
O45 O 0.14728 0.90545 0.29128 0.0
O46 O 0.16209 0.89005 0.2682 0.0
O47 O 0.19487 0.88721 0.29897 0.0
O48 O 0.18397 0.90931 0.31852 0.0
C49 C 0.16725 0.95146 0.28489 0.0
O50 O 0.19486 0.90959 0.25587 0.0
O51 O 0.21108 0.92256 0.27958 0.0
In52 In 0.07285 0.80006 0.67717 0.0
O53 O 0.04554 0.81718 0.68673 0.0
O54 O 0.0423 0.79624 0.6635 0.0
C55 C 0.09843 0.8276 0.69007 0.0
C56 C 0.07114 0.77041 0.70365 0.0
C57 C 0.09086 0.79441 0.64203 0.0
O58 O 0.08217 0.83203 0.68204 0.0
O59 O 0.10158 0.80929 0.69189 0.0
O60 O 0.0922 0.78223 0.65609 0.0
O61 O 0.07974 0.80903 0.64542 0.0
C62 C 0.03413 0.80887 0.67456 0.0
O63 O 0.07242 0.78837 0.70856 0.0
O64 O 0.07056 0.76731 0.68524 0.0
In65 In 0.18019 0.06806 0.69843 0.0
O66 O 0.19271 0.06681 0.72976 0.0
O67 O 0.2128 0.07066 0.7059 0.0
C68 C 0.18741 0.08866 0.66531 0.0
C69 C 0.17831 0.02882 0.69337 0.0
C70 C 0.14563 0.08608 0.70693 0.0
O71 O 0.19155 0.09526 0.68228 0.0
O72 O 0.17991 0.07158 0.66509 0.0
O73 O 0.14665 0.07068 0.69645 0.0
O74 O 0.16196 0.09184 0.71389 0.0
C75 C 0.21045 0.06874 0.72428 0.0
O76 O 0.1693 0.03747 0.70728 0.0
O77 O 0.18799 0.04001 0.68205 0.0
In78 In 0.89675 0.18407 0.68316 0.0
O79 O 0.89874 0.19844 0.7135 0.0
O80 O 0.90011 0.21721 0.68833 0.0
C81 C 0.87426 0.19073 0.65114 0.0
C82 C 0.93518 0.17562 0.67861 0.0
C83 C 0.87654 0.15169 0.69438 0.0
O84 O 0.86909 0.19593 0.6683 0.0
O85 O 0.89119 0.18293 0.65003 0.0
O86 O 0.89114 0.15096 0.68279 0.0
O87 O 0.87256 0.16874 0.70094 0.0
C88 C 0.90059 0.2158 0.70691 0.0
O89 O 0.92505 0.16897 0.6928 0.0
O90 O 0.92586 0.1865 0.66663 0.0
In91 In 0.78235 0.9012 0.69953 0.0
O92 O 0.77049 0.90327 0.73107 0.0
O93 O 0.74987 0.90523 0.70748 0.0
C94 C 0.77258 0.87715 0.6693 0.0
C95 C 0.78887 0.93961 0.69228 0.0
C96 C 0.81747 0.88426 0.70793 0.0
O97 O 0.77121 0.87181 0.68713 0.0
O98 O 0.77842 0.89469 0.66684 0.0
O99 O 0.81559 0.89832 0.69584 0.0
O100 O 0.80159 0.87889 0.71619 0.0
C101 C 0.75274 0.90571 0.72588 0.0
O102 O 0.79628 0.93081 0.70697 0.0
O103 O 0.77821 0.92899 0.68122 0.0
In104 In 0.30785 0.0738 0.18941 0.0
O105 O 0.29153 0.07523 0.21873 0.0
O106 O 0.2756 0.06547 0.19336 0.0
C107 C 0.34002 0.09523 0.19868 0.0
C108 C 0.31934 0.03587 0.18697 0.0
C109 C 0.29543 0.09707 0.15964 0.0
O110 O 0.32434 0.09592 0.20878 0.0
O111 O 0.33963 0.08322 0.18441 0.0
O112 O 0.30463 0.08107 0.15657 0.0
O113 O 0.29229 0.101 0.17759 0.0
C114 C 0.27527 0.06939 0.2116 0.0
O115 O 0.31141 0.04492 0.17269 0.0
O116 O 0.32159 0.04603 0.20246 0.0
In117 In 0.91007 0.29424 0.20144 0.0
O118 O 0.91 0.28344 0.23331 0.0
O119 O 0.92142 0.26414 0.21127 0.0
C120 C 0.88631 0.32598 0.20585 0.0
C121 C 0.94578 0.3103 0.19581 0.0
C122 C 0.89138 0.27616 0.17127 0.0
O123 O 0.88284 0.30972 0.2143 0.0
O124 O 0.90182 0.32624 0.19556 0.0
O125 O 0.90887 0.28249 0.16994 0.0
O126 O 0.88348 0.27855 0.18799 0.0
C127 C 0.91761 0.26687 0.2293 0.0
O128 O 0.93656 0.30123 0.18236 0.0
O129 O 0.93707 0.31104 0.21233 0.0
In130 In 0.6681 0.91749 0.19151 0.0
O131 O 0.67491 0.94462 0.17311 0.0
O132 O 0.65894 0.94891 0.19984 0.0
C133 C 0.67928 0.89257 0.16267 0.0
C134 C 0.69777 0.91682 0.21798 0.0
C135 C 0.63234 0.90103 0.19808 0.0
O136 O 0.67223 0.9095 0.15909 0.0
O137 O 0.68068 0.88829 0.18077 0.0
O138 O 0.64687 0.89851 0.20949 0.0
O139 O 0.63557 0.91267 0.18389 0.0
C140 C 0.66689 0.95667 0.18485 0.0
O141 O 0.70052 0.916 0.19957 0.0
O142 O 0.67988 0.91809 0.22322 0.0
In143 In 0.07551 0.67164 0.19581 0.0
O144 O 0.06952 0.7039 0.20233 0.0
O145 O 0.07211 0.6843 0.22684 0.0
C146 C 0.10377 0.64611 0.20765 0.0
C147 C 0.03766 0.66077 0.19018 0.0
C148 C 0.09344 0.6829 0.16224 0.0
O149 O 0.10435 0.66438 0.21133 0.0
O150 O 0.08836 0.64047 0.19875 0.0
O151 O 0.08469 0.66647 0.16389 0.0
O152 O 0.09295 0.69367 0.17747 0.0
C153 C 0.06931 0.70178 0.22085 0.0
O154 O 0.04762 0.67004 0.17749 0.0
O155 O 0.04705 0.65621 0.20566 0.0
In156 In 0.31495 0.90791 0.79962 0.0
O157 O 0.28268 0.90895 0.79093 0.0
O158 O 0.30414 0.91029 0.76787 0.0
C159 C 0.34441 0.88289 0.78992 0.0
C160 C 0.3216 0.94675 0.80526 0.0
C161 C 0.30362 0.88726 0.83155 0.0
O162 O 0.32783 0.88279 0.78142 0.0
O163 O 0.34658 0.89643 0.80258 0.0
O164 O 0.31807 0.89908 0.83193 0.0
O165 O 0.29464 0.88632 0.81525 0.0
C166 C 0.28606 0.90996 0.77261 0.0
O167 O 0.31044 0.93667 0.81623 0.0
O168 O 0.32991 0.93713 0.79159 0.0
In169 In 0.07923 0.29762 0.7811 0.0
O170 O 0.08158 0.28318 0.75071 0.0
O171 O 0.0706 0.26587 0.77456 0.0
C172 C 0.10209 0.32951 0.77414 0.0
C173 C 0.04132 0.309 0.78226 0.0
C174 C 0.09725 0.285 0.81432 0.0
O175 O 0.08597 0.33048 0.78343 0.0
O176 O 0.10637 0.31252 0.76769 0.0
O177 O 0.08143 0.29491 0.81458 0.0
O178 O 0.10379 0.28115 0.79728 0.0
C179 C 0.07485 0.26673 0.75643 0.0
O180 O 0.05008 0.30132 0.79684 0.0
O181 O 0.05179 0.31115 0.76695 0.0
In182 In 0.68015 0.08676 0.80419 0.0
O183 O 0.68142 0.05794 0.8215 0.0
O184 O 0.66178 0.05971 0.79696 0.0
C185 C 0.69697 0.11167 0.83023 0.0
C186 C 0.70655 0.07996 0.77536 0.0
C187 C 0.6471 0.10829 0.79984 0.0
O188 O 0.68892 0.09567 0.8355 0.0
O189 O 0.69726 0.11457 0.81182 0.0
O190 O 0.6605 0.10777 0.78685 0.0
O191 O 0.65013 0.09744 0.8147 0.0
C192 C 0.6688 0.04932 0.81076 0.0
O193 O 0.68929 0.08622 0.77192 0.0
O194 O 0.71053 0.07725 0.79338 0.0
In195 In 0.91338 0.68483 0.79815 0.0
O196 O 0.91233 0.69655 0.76673 0.0
O197 O 0.91991 0.71666 0.78979 0.0
C198 C 0.88895 0.65444 0.79022 0.0
C199 C 0.95178 0.67493 0.8006 0.0
C200 C 0.89368 0.69809 0.83011 0.0
O201 O 0.88732 0.67107 0.78195 0.0
O202 O 0.90335 0.65293 0.80198 0.0
O203 O 0.90689 0.68493 0.83125 0.0
O204 O 0.8908 0.70482 0.81297 0.0
C205 C 0.91698 0.71399 0.77155 0.0
O206 O 0.94329 0.68572 0.81325 0.0
O207 O 0.94075 0.66869 0.78691 0.0
In208 In 0.17615 0.30565 0.0706 0.0
O209 O 0.20829 0.29578 0.06971 0.0
O210 O 0.18645 0.27383 0.0752 0.0
C211 C 0.18547 0.34219 0.08342 0.0
C212 C 0.16901 0.30477 0.03154 0.0
C213 C 0.14625 0.30066 0.09637 0.0
O214 O 0.19572 0.32714 0.08759 0.0
O215 O 0.17085 0.33886 0.07232 0.0
O216 O 0.14334 0.30525 0.07853 0.0
O217 O 0.16411 0.29774 0.10088 0.0
C218 C 0.20457 0.27782 0.07311 0.0
O219 O 0.16144 0.29237 0.04324 0.0
O220 O 0.18001 0.31748 0.03959 0.0
In221 In 0.17138 0.68498 0.9179 0.0
O222 O 0.15596 0.69679 0.94549 0.0
O223 O 0.1725 0.67015 0.94793 0.0
C224 C 0.14119 0.6924 0.89302 0.0
C225 C 0.20016 0.71217 0.92039 0.0
C226 C 0.18518 0.65279 0.89882 0.0
O227 O 0.13968 0.68042 0.90724 0.0
O228 O 0.15761 0.70113 0.89191 0.0
O229 O 0.19232 0.66983 0.8964 0.0
O230 O 0.17129 0.65186 0.91126 0.0
C231 C 0.16224 0.68314 0.95654 0.0
O232 O 0.18266 0.71654 0.91549 0.0
O233 O 0.20305 0.6941 0.92419 0.0
In234 In 0.29747 0.18168 0.91785 0.0
O235 O 0.29021 0.16788 0.94767 0.0
O236 O 0.31177 0.19072 0.94687 0.0
C237 C 0.29188 0.14764 0.89792 0.0
C238 C 0.26744 0.2077 0.91757 0.0
C239 C 0.32806 0.19433 0.89576 0.0
O240 O 0.30472 0.14933 0.91135 0.0
O241 O 0.28148 0.16288 0.8951 0.0
O242 O 0.31036 0.19894 0.89209 0.0
O243 O 0.33041 0.18367 0.9109 0.0
C244 C 0.30195 0.17875 0.95724 0.0
O245 O 0.28535 0.21297 0.91779 0.0
O246 O 0.26466 0.18923 0.91756 0.0
In247 In 0.82924 0.30349 0.91705 0.0
O248 O 0.843 0.28708 0.9431 0.0
O249 O 0.83209 0.31617 0.94794 0.0
C250 C 0.85669 0.29539 0.88937 0.0
C251 C 0.79752 0.27973 0.91777 0.0
C252 C 0.81784 0.33867 0.90221 0.0
O253 O 0.86068 0.30504 0.90482 0.0
O254 O 0.83917 0.28916 0.88838 0.0
O255 O 0.80776 0.3231 0.90043 0.0
O256 O 0.83366 0.33667 0.91193 0.0
C257 C 0.83994 0.30091 0.95524 0.0
O258 O 0.79668 0.29782 0.92241 0.0
O259 O 0.81453 0.27348 0.91311 0.0
In260 In 0.67397 0.80836 0.91585 0.0
O261 O 0.70681 0.80175 0.91284 0.0
O262 O 0.68726 0.77754 0.91763 0.0
C263 C 0.64499 0.795 0.89206 0.0
C264 C 0.67011 0.81163 0.95519 0.0
C265 C 0.67711 0.84379 0.89825 0.0
O266 O 0.6631 0.79282 0.88817 0.0
O267 O 0.64144 0.80332 0.9084 0.0
O268 O 0.68952 0.83008 0.89566 0.0
O269 O 0.66343 0.83986 0.9103 0.0
C270 C 0.70482 0.78332 0.91504 0.0
O271 O 0.68124 0.82279 0.94525 0.0
O272 O 0.66058 0.79908 0.9452 0.0
In273 In 0.80718 0.69674 0.07202 0.0
O274 O 0.77457 0.70451 0.07117 0.0
O275 O 0.79505 0.72819 0.07438 0.0
C276 C 0.79635 0.66224 0.08857 0.0
C277 C 0.81286 0.696 0.03272 0.0
C278 C 0.83906 0.7033 0.09512 0.0
O279 O 0.80865 0.66314 0.07457 0.0
O280 O 0.78946 0.6787 0.09407 0.0
O281 O 0.84018 0.69414 0.07892 0.0
O282 O 0.82207 0.70983 0.09919 0.0
C283 C 0.77718 0.72288 0.07309 0.0
O284 O 0.80381 0.68257 0.04192 0.0
O285 O 0.81944 0.70983 0.04341 0.0
In286 In 0.29902 0.81181 0.07008 0.0
O287 O 0.26638 0.80451 0.07478 0.0
O288 O 0.2851 0.78246 0.06221 0.0
C289 C 0.3235 0.79252 0.09479 0.0
C290 C 0.30486 0.81728 0.03127 0.0
C291 C 0.29984 0.84707 0.0885 0.0
O292 O 0.3053 0.7947 0.09827 0.0
O293 O 0.32932 0.79979 0.07863 0.0
O294 O 0.31467 0.83996 0.07968 0.0
O295 O 0.28431 0.83681 0.08718 0.0
C296 C 0.26796 0.78719 0.0679 0.0
O297 O 0.29114 0.82588 0.04058 0.0
O298 O 0.31602 0.80661 0.04174 0.0
In299 In 0.68227 0.19242 0.06565 0.0
O300 O 0.69847 0.22185 0.06737 0.0
O301 O 0.71536 0.19583 0.06157 0.0
C302 C 0.65205 0.2037 0.08911 0.0
C303 C 0.67491 0.19285 0.02668 0.0
C304 C 0.69114 0.15853 0.08442 0.0
O305 O 0.66952 0.20972 0.09159 0.0
O306 O 0.6497 0.19248 0.07438 0.0
O307 O 0.67807 0.15931 0.07109 0.0
O308 O 0.69968 0.17472 0.088 0.0
C309 C 0.71527 0.21434 0.06401 0.0
O310 O 0.68211 0.17798 0.03535 0.0
O311 O 0.67059 0.20716 0.03786 0.0
In312 In 0.91146 0.80785 0.68988 0.0
O313 O 0.91174 0.77532 0.69772 0.0
O314 O 0.9181 0.79597 0.72066 0.0
C315 C 0.88648 0.83552 0.70421 0.0
C316 C 0.94976 0.81408 0.68107 0.0
C317 C 0.89036 0.80001 0.65721 0.0
O318 O 0.88507 0.81742 0.70839 0.0
O319 O 0.90111 0.83987 0.69346 0.0
O320 O 0.90097 0.81529 0.65881 0.0
O321 O 0.89073 0.78858 0.67194 0.0
C322 C 0.91601 0.77807 0.71567 0.0
O323 O 0.93882 0.8026 0.67129 0.0
O324 O 0.94124 0.82294 0.69514 0.0
In325 In 0.19357 0.90557 0.68889 0.0
O326 O 0.20553 0.90337 0.72016 0.0
O327 O 0.22604 0.90907 0.697 0.0
C328 C 0.16164 0.88331 0.69688 0.0
C329 C 0.1857 0.94438 0.68823 0.0
C330 C 0.20234 0.88769 0.65446 0.0
O331 O 0.17887 0.87825 0.70196 0.0
O332 O 0.16051 0.89982 0.6883 0.0
O333 O 0.19148 0.90286 0.65541 0.0
O334 O 0.2093 0.882 0.6708 0.0
C335 C 0.22324 0.90663 0.71527 0.0
O336 O 0.1968 0.93618 0.67563 0.0
O337 O 0.17847 0.93294 0.70105 0.0
In338 In 0.05915 0.16911 0.68005 0.0
O339 O 0.06865 0.20068 0.68634 0.0
O340 O 0.05515 0.18451 0.70971 0.0
C341 C 0.08215 0.14053 0.6958 0.0
C342 C 0.01958 0.16688 0.67639 0.0
C343 C 0.07598 0.17124 0.6441 0.0
O344 O 0.08557 0.15871 0.69801 0.0
O345 O 0.06684 0.13664 0.68586 0.0
O346 O 0.06773 0.15569 0.65032 0.0
O347 O 0.0753 0.18572 0.65584 0.0
C348 C 0.06295 0.20052 0.70409 0.0
O349 O 0.03015 0.17727 0.66512 0.0
O350 O 0.029 0.1573 0.68929 0.0
In351 In 0.79069 0.06351 0.68476 0.0
O352 O 0.78158 0.03326 0.67337 0.0
O353 O 0.80517 0.03456 0.69408 0.0
C354 C 0.78307 0.0775 0.64836 0.0
C355 C 0.76346 0.06687 0.71342 0.0
C356 C 0.82013 0.08869 0.69413 0.0
O357 O 0.79857 0.06787 0.65235 0.0
O358 O 0.77127 0.07967 0.66265 0.0
O359 O 0.80218 0.09237 0.69754 0.0
O360 O 0.82335 0.07207 0.68621 0.0
C361 C 0.79407 0.0239 0.68355 0.0
O362 O 0.75947 0.06977 0.69542 0.0
O363 O 0.78117 0.0621 0.71692 0.0
In364 In 0.93094 0.177 0.31453 0.0
O365 O 0.95821 0.19049 0.32897 0.0
O366 O 0.96211 0.16452 0.31179 0.0
C367 C 0.90742 0.18252 0.34616 0.0
C368 C 0.92899 0.20612 0.28774 0.0
C369 C 0.91251 0.14551 0.29824 0.0
O370 O 0.9196 0.16837 0.34528 0.0
O371 O 0.90759 0.1939 0.33144 0.0
O372 O 0.91097 0.16282 0.29153 0.0
O373 O 0.92364 0.14392 0.31314 0.0
C374 C 0.97011 0.17811 0.32172 0.0
O375 O 0.9229 0.20814 0.30527 0.0
O376 O 0.93619 0.18932 0.28369 0.0
In377 In 0.79449 0.91272 0.29701 0.0
O378 O 0.78057 0.90966 0.26667 0.0
O379 O 0.76165 0.91724 0.29065 0.0
C380 C 0.82368 0.88763 0.28664 0.0
C381 C 0.80413 0.95125 0.29573 0.0
C382 C 0.78765 0.89693 0.33293 0.0
O383 O 0.80565 0.88376 0.2838 0.0
O384 O 0.82696 0.90429 0.29437 0.0
O385 O 0.80101 0.9096 0.32994 0.0
O386 O 0.77739 0.89271 0.31793 0.0
C387 C 0.76328 0.91374 0.27239 0.0
O388 O 0.79344 0.94407 0.30923 0.0
O389 O 0.81003 0.93896 0.28299 0.0
In390 In 0.0684 0.80015 0.29726 0.0
O391 O 0.04004 0.79517 0.31461 0.0
O392 O 0.03893 0.81405 0.28947 0.0
C393 C 0.09319 0.79313 0.3275 0.0
C394 C 0.06574 0.76874 0.27317 0.0
C395 C 0.08747 0.8324 0.28408 0.0
O396 O 0.07777 0.8035 0.32949 0.0
O397 O 0.09568 0.78592 0.31049 0.0
O398 O 0.09003 0.81549 0.27659 0.0
O399 O 0.07484 0.83309 0.2978 0.0
C400 C 0.02966 0.80595 0.30346 0.0
O401 O 0.06647 0.78627 0.26678 0.0
O402 O 0.06624 0.76708 0.29174 0.0
In403 In 0.16997 0.07395 0.27832 0.0
O404 O 0.20327 0.07435 0.27517 0.0
O405 O 0.18633 0.06851 0.24929 0.0
C406 C 0.14736 0.10402 0.26475 0.0
C407 C 0.1597 0.03556 0.2813 0.0
C408 C 0.17508 0.08679 0.31545 0.0
O409 O 0.16595 0.10473 0.26553 0.0
O410 O 0.14004 0.08768 0.27004 0.0
O411 O 0.18916 0.08536 0.30327 0.0
O412 O 0.15832 0.08175 0.30885 0.0
C413 C 0.20326 0.07057 0.25692 0.0
O414 O 0.16681 0.04543 0.29535 0.0
O415 O 0.15702 0.04523 0.26557 0.0
In416 In 0.6607 0.92571 0.80783 0.0
O417 O 0.64852 0.9561 0.79935 0.0
O418 O 0.66864 0.95443 0.82333 0.0
C419 C 0.62914 0.90396 0.79671 0.0
C420 C 0.69022 0.92246 0.78143 0.0
C421 C 0.66926 0.90482 0.84052 0.0
O422 O 0.62814 0.91662 0.8104 0.0
O423 O 0.64573 0.90289 0.78831 0.0
O424 O 0.67933 0.90377 0.82488 0.0
O425 O 0.65483 0.91667 0.83982 0.0
C426 C 0.65811 0.96525 0.81246 0.0
O427 O 0.69308 0.92211 0.79987 0.0
O428 O 0.67245 0.92507 0.77625 0.0
In429 In 0.07505 0.67969 0.78959 0.0
O430 O 0.04629 0.68492 0.8057 0.0
O431 O 0.04584 0.66463 0.78164 0.0
C432 C 0.10059 0.65045 0.7805 0.0
C433 C 0.07302 0.70815 0.76183 0.0
C434 C 0.09155 0.68826 0.8247 0.0
O435 O 0.08339 0.64706 0.78689 0.0
O436 O 0.10448 0.66849 0.77786 0.0
O437 O 0.0948 0.69842 0.80938 0.0
O438 O 0.0798 0.67396 0.82231 0.0
C439 C 0.03627 0.67326 0.79518 0.0
O440 O 0.07429 0.71186 0.78006 0.0
O441 O 0.07283 0.68998 0.75751 0.0
In442 In 0.30688 0.0699 0.80361 0.0
O443 O 0.32243 0.04204 0.79265 0.0
O444 O 0.30553 0.04017 0.81909 0.0
C445 C 0.33599 0.09477 0.79271 0.0
C446 C 0.27643 0.06746 0.77819 0.0
C447 C 0.29741 0.08899 0.83728 0.0
O448 O 0.33924 0.07937 0.80271 0.0
O449 O 0.31819 0.09724 0.78773 0.0
O450 O 0.28769 0.09092 0.82149 0.0
O451 O 0.31171 0.07702 0.83625 0.0
C452 C 0.31628 0.03136 0.80664 0.0
O453 O 0.27433 0.06525 0.7966 0.0
O454 O 0.29397 0.07055 0.77258 0.0
In455 In 0.91752 0.31317 0.78334 0.0
O456 O 0.94747 0.30994 0.7975 0.0
O457 O 0.94655 0.32288 0.76886 0.0
C458 C 0.89539 0.34593 0.77767 0.0
C459 C 0.9139 0.28263 0.75817 0.0
C460 C 0.90178 0.30286 0.81833 0.0
O461 O 0.89054 0.32914 0.77122 0.0
O462 O 0.91201 0.34646 0.7861 0.0
O463 O 0.8953 0.29641 0.80208 0.0
O464 O 0.91627 0.31452 0.81695 0.0
C465 C 0.95699 0.31731 0.78331 0.0
O466 O 0.91669 0.28043 0.77647 0.0
O467 O 0.91334 0.30039 0.75236 0.0
In468 In 0.68926 0.07893 0.17669 0.0
O469 O 0.67456 0.05239 0.19093 0.0
O470 O 0.68967 0.04782 0.16371 0.0
C471 C 0.65921 0.10251 0.1881 0.0
C472 C 0.7211 0.07823 0.20046 0.0
C473 C 0.69626 0.09741 0.14214 0.0
O474 O 0.65659 0.0871 0.17792 0.0
O475 O 0.67694 0.10582 0.19284 0.0
O476 O 0.70633 0.1005 0.15751 0.0
O477 O 0.6831 0.08432 0.14394 0.0
C478 C 0.67966 0.04039 0.1776 0.0
O479 O 0.70413 0.08345 0.20627 0.0
O480 O 0.72208 0.07314 0.18251 0.0
In481 In 0.91488 0.67533 0.18795 0.0
O482 O 0.9421 0.66012 0.20079 0.0
O483 O 0.94512 0.67543 0.17349 0.0
C484 C 0.89242 0.64266 0.1915 0.0
C485 C 0.91597 0.70397 0.21551 0.0
C486 C 0.89532 0.69087 0.1569 0.0
O487 O 0.9064 0.64397 0.17925 0.0
O488 O 0.89022 0.6576 0.20247 0.0
O489 O 0.89002 0.69353 0.17457 0.0
O490 O 0.91081 0.68064 0.15482 0.0
C491 C 0.95331 0.66524 0.1868 0.0
O492 O 0.92065 0.70697 0.19769 0.0
O493 O 0.91113 0.68638 0.21952 0.0
In494 In 0.31361 0.91319 0.19089 0.0
O495 O 0.28052 0.91104 0.1955 0.0
O496 O 0.29804 0.92008 0.22002 0.0
C497 C 0.30874 0.89915 0.15411 0.0
C498 C 0.32399 0.95148 0.18736 0.0
C499 C 0.33598 0.88351 0.20548 0.0
O500 O 0.29444 0.90244 0.16566 0.0
O501 O 0.32562 0.90324 0.16104 0.0
O502 O 0.34342 0.89945 0.19924 0.0
O503 O 0.31737 0.88293 0.20498 0.0
C504 C 0.281 0.91631 0.21337 0.0
O505 O 0.3285 0.94137 0.20237 0.0
O506 O 0.31486 0.94211 0.17413 0.0
In507 In 0.06585 0.3316 0.18551 0.0
O508 O 0.03667 0.34008 0.19987 0.0
O509 O 0.03595 0.32771 0.17094 0.0
C510 C 0.08123 0.36826 0.18735 0.0
C511 C 0.06937 0.30236 0.21206 0.0
C512 C 0.08913 0.31704 0.15676 0.0
O513 O 0.07095 0.36238 0.17295 0.0
O514 O 0.08287 0.35597 0.20129 0.0
O515 O 0.0946 0.31844 0.17452 0.0
O516 O 0.07174 0.32301 0.15337 0.0
C517 C 0.02628 0.33402 0.18561 0.0
O518 O 0.07439 0.31995 0.21598 0.0
O519 O 0.06257 0.2997 0.1949 0.0
In520 In 0.80038 0.70284 0.90946 0.0
O521 O 0.7879 0.73418 0.90778 0.0
O522 O 0.76821 0.71066 0.91475 0.0
C523 C 0.83437 0.70817 0.88938 0.0
C524 C 0.80877 0.69944 0.94807 0.0
C525 C 0.78662 0.67242 0.88777 0.0
O526 O 0.8192 0.71865 0.8864 0.0
O527 O 0.83257 0.69554 0.90295 0.0
O528 O 0.79427 0.67006 0.90462 0.0
O529 O 0.78568 0.69014 0.882 0.0
C530 C 0.77044 0.72895 0.91186 0.0
O531 O 0.80002 0.68611 0.93838 0.0
O532 O 0.8135 0.71457 0.93821 0.0
In533 In 0.8186 0.2827 0.07483 0.0
O534 O 0.8248 0.30226 0.04854 0.0
O535 O 0.83369 0.27215 0.04642 0.0
C536 C 0.80926 0.31718 0.09229 0.0
C537 C 0.78656 0.26052 0.06719 0.0
C538 C 0.84305 0.26879 0.10311 0.0
O539 O 0.82553 0.31441 0.08356 0.0
O540 O 0.79772 0.30251 0.09224 0.0
O541 O 0.82451 0.26885 0.10488 0.0
O542 O 0.84928 0.27499 0.08668 0.0
C543 C 0.83275 0.28891 0.03824 0.0
O544 O 0.78632 0.27916 0.06669 0.0
O545 O 0.80318 0.25293 0.07113 0.0
In546 In 0.68101 0.80279 0.07858 0.0
O547 O 0.694 0.77173 0.07817 0.0
O548 O 0.71396 0.796 0.07692 0.0
C549 C 0.6887 0.83322 0.10293 0.0
C550 C 0.675 0.80788 0.03978 0.0
C551 C 0.64652 0.79385 0.09618 0.0
O552 O 0.69189 0.81544 0.10763 0.0
O553 O 0.68241 0.83573 0.08554 0.0
O554 O 0.648 0.80703 0.08308 0.0
O555 O 0.66234 0.78461 0.09985 0.0
C556 C 0.71172 0.77748 0.07713 0.0
O557 O 0.66736 0.79382 0.04936 0.0
O558 O 0.68573 0.81942 0.0498 0.0
In559 In 0.18063 0.69914 0.07733 0.0
O560 O 0.17898 0.67975 0.05015 0.0
O561 O 0.16406 0.70752 0.04922 0.0
C562 C 0.20205 0.67474 0.10035 0.0
C563 C 0.20614 0.72891 0.07104 0.0
C564 C 0.14723 0.69848 0.09888 0.0
O565 O 0.19639 0.66993 0.08323 0.0
O566 O 0.19722 0.69197 0.10565 0.0
O567 O 0.15862 0.71328 0.09872 0.0
O568 O 0.15235 0.68452 0.08762 0.0
C569 C 0.16857 0.69171 0.0403 0.0
O570 O 0.18942 0.73178 0.07891 0.0
O571 O 0.20967 0.71124 0.06621 0.0
In572 In 0.29504 0.19148 0.0808 0.0
O573 O 0.3098 0.19747 0.05126 0.0
O574 O 0.28709 0.1757 0.05221 0.0
C575 C 0.32765 0.2022 0.10108 0.0
C576 C 0.26614 0.21891 0.07891 0.0
C577 C 0.28789 0.15869 0.10221 0.0
O578 O 0.32834 0.19131 0.08595 0.0
O579 O 0.31056 0.20821 0.1056 0.0
O580 O 0.28103 0.17544 0.10682 0.0
O581 O 0.29782 0.15838 0.08643 0.0
C582 C 0.29959 0.18495 0.04191 0.0
O583 O 0.28425 0.22324 0.07768 0.0
O584 O 0.2626 0.20073 0.08122 0.0
In585 In 0.17485 0.29114 0.90864 0.0
O586 O 0.1782 0.30868 0.93683 0.0
O587 O 0.15965 0.28333 0.93787 0.0
C588 C 0.18426 0.32527 0.89063 0.0
C589 C 0.20388 0.26427 0.91253 0.0
C590 C 0.14714 0.28007 0.88226 0.0
O591 O 0.16877 0.32328 0.90086 0.0
O592 O 0.1951 0.31008 0.88966 0.0
O593 O 0.16531 0.27657 0.87997 0.0
O594 O 0.14277 0.28844 0.89838 0.0
C595 C 0.16726 0.29767 0.9471 0.0
O596 O 0.20716 0.28256 0.91087 0.0
O597 O 0.18585 0.25944 0.91222 0.0
In598 In 0.69503 0.20922 0.90546 0.0
O599 O 0.68273 0.21965 0.93493 0.0
O600 O 0.693 0.18991 0.93271 0.0
C601 C 0.66204 0.22117 0.88644 0.0
C602 C 0.7277 0.23164 0.90993 0.0
C603 C 0.70307 0.17719 0.88321 0.0
O604 O 0.66173 0.21011 0.9014 0.0
O605 O 0.67909 0.22661 0.88115 0.0
O606 O 0.70542 0.19461 0.87693 0.0
O607 O 0.69693 0.17598 0.90078 0.0
C608 C 0.68529 0.20318 0.94336 0.0
O609 O 0.71062 0.239 0.90843 0.0
O610 O 0.72831 0.21303 0.90901 0.0
In611 In 0.29475 0.79282 0.91055 0.0
O612 O 0.31196 0.79224 0.93933 0.0
O613 O 0.28663 0.81092 0.9376 0.0
C614 C 0.32138 0.77361 0.88794 0.0
C615 C 0.26421 0.768 0.91616 0.0
C616 C 0.29347 0.82642 0.88939 0.0
O617 O 0.32576 0.78096 0.90453 0.0
O618 O 0.30348 0.77551 0.88307 0.0
O619 O 0.28038 0.8132 0.88791 0.0
O620 O 0.30695 0.82278 0.90173 0.0
C621 C 0.30088 0.80462 0.94787 0.0
O622 O 0.26198 0.7853 0.90952 0.0
O623 O 0.28185 0.76325 0.92002 0.0
In624 In 0.78938 0.58303 0.80416 0.0
O625 O 0.75785 0.57901 0.79291 0.0
O626 O 0.78127 0.57847 0.77193 0.0
C627 C 0.77893 0.60861 0.83288 0.0
C628 C 0.79621 0.54508 0.81354 0.0
C629 C 0.82313 0.60156 0.79444 0.0
O630 O 0.78679 0.59207 0.8365 0.0
O631 O 0.77554 0.61182 0.81484 0.0
O632 O 0.8222 0.58876 0.80796 0.0
O633 O 0.80702 0.60483 0.78556 0.0
C634 C 0.76294 0.57713 0.77506 0.0
O635 O 0.80707 0.55477 0.8019 0.0
O636 O 0.78179 0.5546 0.82068 0.0
In637 In 0.18958 0.4109 0.80321 0.0
O638 O 0.22082 0.4073 0.79121 0.0
O639 O 0.19842 0.41791 0.77173 0.0
C640 C 0.1933 0.38964 0.83662 0.0
C641 C 0.18701 0.44947 0.81243 0.0
C642 C 0.16075 0.38878 0.78704 0.0
O643 O 0.20599 0.38907 0.82295 0.0
O644 O 0.17926 0.4016 0.83378 0.0
O645 O 0.15719 0.40486 0.7959 0.0
O646 O 0.17879 0.38413 0.78614 0.0
C647 C 0.21629 0.413 0.77401 0.0
O648 O 0.17367 0.44044 0.80302 0.0
O649 O 0.20154 0.43893 0.81755 0.0
In650 In 0.21049 0.58943 0.18622 0.0
O651 O 0.24083 0.58954 0.20104 0.0
O652 O 0.2167 0.57674 0.21659 0.0
C653 C 0.21971 0.61633 0.15813 0.0
C654 C 0.20569 0.55403 0.16904 0.0
C655 C 0.17618 0.60347 0.20104 0.0
O656 O 0.21659 0.59839 0.15427 0.0
O657 O 0.21906 0.62054 0.17624 0.0
O658 O 0.17718 0.58805 0.19062 0.0
O659 O 0.1926 0.61171 0.20432 0.0
C660 C 0.23486 0.5809 0.21646 0.0
O661 O 0.19166 0.56607 0.17173 0.0
O662 O 0.22249 0.56006 0.17463 0.0
In663 In 0.79977 0.40734 0.17476 0.0
O664 O 0.76787 0.40574 0.18542 0.0
O665 O 0.78993 0.4156 0.20565 0.0
C666 C 0.79727 0.3843 0.14247 0.0
C667 C 0.80341 0.44527 0.16368 0.0
C668 C 0.82808 0.38567 0.19232 0.0
O669 O 0.78428 0.38413 0.15587 0.0
O670 O 0.81087 0.39681 0.14493 0.0
O671 O 0.83186 0.40146 0.18309 0.0
O672 O 0.81 0.38118 0.19311 0.0
C673 C 0.77192 0.41173 0.20265 0.0
O674 O 0.81594 0.43664 0.17448 0.0
O675 O 0.78912 0.43462 0.15813 0.0
In676 In 0.30366 0.56751 0.6838 0.0
O677 O 0.29598 0.56959 0.71656 0.0
O678 O 0.27243 0.56568 0.69609 0.0
C679 C 0.34035 0.58241 0.68706 0.0
C680 C 0.30643 0.52843 0.67715 0.0
C681 C 0.29101 0.59357 0.65647 0.0
O682 O 0.32739 0.5846 0.70031 0.0
O683 O 0.33496 0.57217 0.67242 0.0
O684 O 0.29613 0.57614 0.65214 0.0
O685 O 0.2918 0.59767 0.67464 0.0
C686 C 0.27761 0.5677 0.7139 0.0
O687 O 0.29481 0.53944 0.66758 0.0
O688 O 0.3167 0.53716 0.69004 0.0
In689 In 0.68974 0.39996 0.69729 0.0
O690 O 0.6991 0.40051 0.72979 0.0
O691 O 0.72109 0.40562 0.70798 0.0
C692 C 0.65565 0.38013 0.70266 0.0
C693 C 0.68207 0.43825 0.69054 0.0
C694 C 0.70266 0.37853 0.66618 0.0
O695 O 0.67174 0.37464 0.71038 0.0
O696 O 0.65669 0.39592 0.69283 0.0
O697 O 0.69449 0.3952 0.66438 0.0
O698 O 0.7048 0.37277 0.6838 0.0
C699 C 0.71696 0.40443 0.7261 0.0
O700 O 0.69349 0.42814 0.67977 0.0
O701 O 0.67449 0.42903 0.7049 0.0
In702 In 0.27517 0.39269 0.29278 0.0
O703 O 0.2657 0.38996 0.2606 0.0
O704 O 0.24557 0.40354 0.28052 0.0
C705 C 0.311 0.37579 0.28846 0.0
C706 C 0.28556 0.43025 0.29991 0.0
C707 C 0.26123 0.36869 0.32149 0.0
O708 O 0.2964 0.37094 0.27786 0.0
O709 O 0.30746 0.38908 0.30104 0.0
O710 O 0.26573 0.38652 0.32448 0.0
O711 O 0.26272 0.36322 0.30373 0.0
C712 C 0.24927 0.39847 0.26297 0.0
O713 O 0.27334 0.4211 0.31068 0.0
O714 O 0.2921 0.42057 0.28532 0.0
In715 In 0.68642 0.57625 0.2884 0.0
O716 O 0.69341 0.54769 0.30437 0.0
O717 O 0.67061 0.5471 0.28266 0.0
C718 C 0.69882 0.59745 0.31966 0.0
C719 C 0.71246 0.57252 0.25865 0.0
C720 C 0.6542 0.5986 0.28178 0.0
O721 O 0.6876 0.58264 0.32131 0.0
O722 O 0.70431 0.60122 0.30223 0.0
O723 O 0.67055 0.60181 0.27342 0.0
O724 O 0.65386 0.58355 0.29279 0.0
C725 C 0.68072 0.53759 0.29516 0.0
O726 O 0.71766 0.57348 0.27654 0.0
O727 O 0.69405 0.57367 0.25571 0.0
In728 In 0.18582 0.80525 0.56462 0.0
O729 O 0.17172 0.80006 0.53451 0.0
O730 O 0.19602 0.81986 0.53601 0.0
C731 C 0.15119 0.79773 0.58292 0.0
C732 C 0.21257 0.77583 0.56529 0.0
C733 C 0.19751 0.83433 0.58917 0.0
O734 O 0.15376 0.81281 0.57223 0.0
O735 O 0.16588 0.78626 0.58389 0.0
O736 O 0.18738 0.83775 0.57386 0.0
O737 O 0.20195 0.81641 0.59177 0.0
C738 C 0.18336 0.81133 0.52532 0.0
O739 O 0.21743 0.79385 0.5649 0.0
O740 O 0.19417 0.77264 0.565 0.0
In741 In 0.18254 0.16346 0.40951 0.0
O742 O 0.16249 0.16224 0.43616 0.0
O743 O 0.19005 0.14704 0.43786 0.0
C744 C 0.16017 0.18542 0.38522 0.0
C745 C 0.21107 0.19013 0.41611 0.0
C746 C 0.18301 0.13074 0.38704 0.0
O747 O 0.15354 0.17844 0.40122 0.0
O748 O 0.17804 0.18142 0.38168 0.0
O749 O 0.1985 0.14055 0.39061 0.0
O750 O 0.16768 0.13684 0.39574 0.0
C751 C 0.17421 0.152 0.44644 0.0
O752 O 0.21469 0.17365 0.40801 0.0
O753 O 0.19335 0.19266 0.42136 0.0
In754 In 0.29342 0.67528 0.40939 0.0
O755 O 0.2824 0.66526 0.4395 0.0
O756 O 0.30915 0.68185 0.43819 0.0
C757 C 0.28599 0.63921 0.39418 0.0
C758 C 0.26882 0.70652 0.40668 0.0
C759 C 0.32502 0.68178 0.38628 0.0
O760 O 0.29853 0.64207 0.40768 0.0
O761 O 0.27647 0.65445 0.38902 0.0
O762 O 0.30749 0.68384 0.38024 0.0
O763 O 0.32665 0.67701 0.40424 0.0
C764 C 0.29658 0.67306 0.44881 0.0
O765 O 0.26264 0.68889 0.40666 0.0
O766 O 0.28733 0.70832 0.40798 0.0
In767 In 0.80105 0.81083 0.41884 0.0
O768 O 0.79364 0.77815 0.41985 0.0
O769 O 0.76967 0.79863 0.41955 0.0
C770 C 0.79096 0.84319 0.39788 0.0
C771 C 0.80592 0.81582 0.45799 0.0
C772 C 0.83153 0.79993 0.39576 0.0
O773 O 0.78135 0.82723 0.39712 0.0
O774 O 0.8053 0.8431 0.40982 0.0
O775 O 0.83369 0.81169 0.41012 0.0
O776 O 0.81417 0.79361 0.39333 0.0
C777 C 0.77516 0.78076 0.41979 0.0
O778 O 0.81734 0.80526 0.4477 0.0
O779 O 0.79241 0.8244 0.44842 0.0
In780 In 0.69433 0.30414 0.41068 0.0
O781 O 0.70525 0.31687 0.44001 0.0
O782 O 0.67909 0.29946 0.44015 0.0
C783 C 0.70478 0.33493 0.38763 0.0
C784 C 0.72004 0.27372 0.40998 0.0
C785 C 0.65939 0.29713 0.39287 0.0
O786 O 0.69603 0.33719 0.40395 0.0
O787 O 0.70882 0.31723 0.38332 0.0
O788 O 0.67472 0.28708 0.3893 0.0
O789 O 0.6616 0.31053 0.40568 0.0
C790 C 0.69138 0.30941 0.45001 0.0
O791 O 0.70155 0.27129 0.41038 0.0
O792 O 0.72561 0.29155 0.41011 0.0
In793 In 0.78874 0.16557 0.56538 0.0
O794 O 0.75824 0.17988 0.56695 0.0
O795 O 0.78307 0.19828 0.56092 0.0
C796 C 0.78108 0.13112 0.58376 0.0
C797 C 0.79419 0.15907 0.52667 0.0
C798 C 0.81685 0.17845 0.59028 0.0
O799 O 0.76919 0.14551 0.58403 0.0
O800 O 0.7964 0.13384 0.57349 0.0
O801 O 0.82095 0.17085 0.57371 0.0
O802 O 0.79864 0.1795 0.59419 0.0
C803 C 0.76467 0.19713 0.56369 0.0
O804 O 0.80735 0.16633 0.53768 0.0
O805 O 0.77825 0.15462 0.53529 0.0
In806 In 0.28135 0.28597 0.57253 0.0
O807 O 0.27262 0.25356 0.5706 0.0
O808 O 0.24947 0.27482 0.5714 0.0
C809 C 0.31483 0.27662 0.59201 0.0
C810 C 0.28658 0.29213 0.53372 0.0
C811 C 0.27254 0.31867 0.59366 0.0
O812 O 0.298 0.27087 0.59768 0.0
O813 O 0.31473 0.28686 0.57644 0.0
O814 O 0.28184 0.31928 0.57752 0.0
O815 O 0.26717 0.30158 0.59889 0.0
C816 C 0.25426 0.2568 0.57037 0.0
O817 O 0.27304 0.30063 0.5434 0.0
O818 O 0.29735 0.28056 0.54363 0.0
In819 In 0.69512 0.6667 0.56522 0.0
O820 O 0.70707 0.6561 0.53555 0.0
O821 O 0.67787 0.66779 0.53659 0.0
C822 C 0.69956 0.6317 0.58379 0.0
C823 C 0.7209 0.69689 0.56479 0.0
C824 C 0.6667 0.68185 0.58855 0.0
O825 O 0.68503 0.63547 0.57273 0.0
O826 O 0.71233 0.64526 0.58474 0.0
O827 O 0.68466 0.6813 0.59355 0.0
O828 O 0.66299 0.67466 0.57172 0.0
C829 C 0.69164 0.66077 0.52614 0.0
O830 O 0.72616 0.67944 0.56898 0.0
O831 O 0.70284 0.69889 0.56054 0.0
In832 In 0.18101 0.43357 0.16445 0.0
O833 O 0.20303 0.41332 0.17965 0.0
O834 O 0.19066 0.43694 0.19656 0.0
C835 C 0.14415 0.42199 0.17493 0.0
C836 C 0.18924 0.47208 0.1577 0.0
C837 C 0.18834 0.41072 0.13253 0.0
O838 O 0.1585 0.42206 0.18676 0.0
O839 O 0.14824 0.42815 0.15784 0.0
O840 O 0.17384 0.42244 0.1334 0.0
O841 O 0.19952 0.41113 0.14743 0.0
C842 C 0.20216 0.42217 0.19608 0.0
O843 O 0.20214 0.45872 0.15626 0.0
O844 O 0.17226 0.46598 0.16219 0.0
In845 In 0.79694 0.56856 0.16715 0.0
O846 O 0.78779 0.56581 0.1992 0.0
O847 O 0.76491 0.56794 0.17765 0.0
C848 C 0.82973 0.58731 0.17947 0.0
C849 C 0.80171 0.52978 0.15968 0.0
C850 C 0.78877 0.59374 0.1374 0.0
O851 O 0.81316 0.58958 0.18772 0.0
O852 O 0.82982 0.57535 0.16514 0.0
O853 O 0.79929 0.57851 0.13496 0.0
O854 O 0.78169 0.59566 0.15452 0.0
C855 C 0.76947 0.56656 0.19571 0.0
O856 O 0.78754 0.53957 0.15245 0.0
O857 O 0.81342 0.53964 0.1703 0.0
In858 In 0.80472 0.42151 0.81331 0.0
O859 O 0.773 0.41417 0.8044 0.0
O860 O 0.79274 0.42449 0.78217 0.0
C861 C 0.83483 0.40168 0.79634 0.0
C862 C 0.80474 0.46089 0.81896 0.0
C863 C 0.80424 0.40167 0.84786 0.0
O864 O 0.81706 0.3962 0.79507 0.0
O865 O 0.83753 0.41731 0.80621 0.0
O866 O 0.81759 0.41393 0.84356 0.0
O867 O 0.79078 0.40001 0.83507 0.0
C868 C 0.77563 0.41835 0.78639 0.0
O869 O 0.79193 0.44979 0.82671 0.0
O870 O 0.8176 0.45207 0.80875 0.0
In871 In 0.19328 0.57301 0.80603 0.0
O872 O 0.22519 0.57438 0.79501 0.0
O873 O 0.20246 0.56813 0.77418 0.0
C874 C 0.16342 0.59484 0.79123 0.0
C875 C 0.18925 0.53423 0.81355 0.0
C876 C 0.19747 0.5931 0.84024 0.0
O877 O 0.18123 0.60035 0.79058 0.0
O878 O 0.16069 0.57816 0.79913 0.0
O879 O 0.18502 0.5794 0.83803 0.0
O880 O 0.20836 0.59616 0.82541 0.0
C881 C 0.22067 0.57066 0.77728 0.0
O882 O 0.2042 0.54393 0.81914 0.0
O883 O 0.17635 0.54419 0.80446 0.0
In884 In 0.68809 0.41379 0.29504 0.0
O885 O 0.69624 0.41133 0.26253 0.0
O886 O 0.71924 0.41767 0.28306 0.0
C887 C 0.70105 0.39297 0.32645 0.0
C888 C 0.68192 0.45285 0.29848 0.0
C889 C 0.65461 0.39315 0.28951 0.0
O890 O 0.70563 0.38863 0.30891 0.0
O891 O 0.69036 0.40819 0.3282 0.0
O892 O 0.65546 0.40797 0.30083 0.0
O893 O 0.67053 0.38908 0.28067 0.0
C894 C 0.71438 0.41473 0.26529 0.0
O895 O 0.6726 0.44229 0.28625 0.0
O896 O 0.69419 0.44364 0.30911 0.0
In897 In 0.30977 0.5511 0.31172 0.0
O898 O 0.30332 0.56723 0.28301 0.0
O899 O 0.28075 0.54878 0.29493 0.0
C900 C 0.29621 0.57428 0.34129 0.0
C901 C 0.30732 0.51133 0.31303 0.0
C902 C 0.34736 0.56367 0.30741 0.0
O903 O 0.29132 0.57661 0.32348 0.0
O904 O 0.30787 0.56001 0.34436 0.0
O905 O 0.34029 0.55887 0.324 0.0
O906 O 0.33574 0.56126 0.29305 0.0
C907 C 0.28608 0.5603 0.28123 0.0
O908 O 0.31894 0.52031 0.30158 0.0
O909 O 0.29763 0.52238 0.3245 0.0
In910 In 0.68088 0.56183 0.6824 0.0
O911 O 0.6657 0.53335 0.69233 0.0
O912 O 0.68816 0.53135 0.67047 0.0
C913 C 0.65186 0.58802 0.68991 0.0
C914 C 0.70715 0.56435 0.71203 0.0
C915 C 0.6912 0.57676 0.64703 0.0
O916 O 0.64857 0.57183 0.68117 0.0
O917 O 0.66955 0.59063 0.69514 0.0
O918 O 0.70208 0.57817 0.66212 0.0
O919 O 0.67529 0.56737 0.64967 0.0
C920 C 0.67592 0.52236 0.68124 0.0
O921 O 0.6888 0.56258 0.71502 0.0
O922 O 0.71224 0.56455 0.69407 0.0
In923 In 0.29507 0.40512 0.67759 0.0
O924 O 0.31235 0.43298 0.68454 0.0
O925 O 0.28947 0.43494 0.66304 0.0
C926 C 0.3287 0.3844 0.68171 0.0
C927 C 0.27028 0.40853 0.70839 0.0
C928 C 0.27932 0.38197 0.64921 0.0
O929 O 0.32615 0.39665 0.66788 0.0
O930 O 0.31447 0.38301 0.69369 0.0
O931 O 0.27685 0.37874 0.6674 0.0
O932 O 0.28915 0.39735 0.64531 0.0
C933 C 0.30271 0.44377 0.67278 0.0
O934 O 0.28816 0.40354 0.71038 0.0
O935 O 0.26485 0.41163 0.6908 0.0
In936 In 0.80006 0.17751 0.40459 0.0
O937 O 0.78674 0.16082 0.43066 0.0
O938 O 0.81268 0.17797 0.43547 0.0
C939 C 0.79178 0.15201 0.37524 0.0
C940 C 0.77463 0.20821 0.40573 0.0
C941 C 0.8378 0.18283 0.39353 0.0
O942 O 0.79416 0.14651 0.3929 0.0
O943 O 0.79262 0.17046 0.37261 0.0
O944 O 0.82463 0.19585 0.39092 0.0
O945 O 0.83198 0.16735 0.40217 0.0
C946 C 0.79972 0.16672 0.4427 0.0
O947 O 0.76899 0.19055 0.40354 0.0
O948 O 0.7931 0.21039 0.40717 0.0
In949 In 0.7948 0.79643 0.57976 0.0
O950 O 0.79012 0.76316 0.57716 0.0
O951 O 0.76514 0.78195 0.57348 0.0
C952 C 0.82944 0.79355 0.59894 0.0
C953 C 0.80149 0.80667 0.54202 0.0
C954 C 0.77826 0.82182 0.60569 0.0
O955 O 0.81616 0.78051 0.60023 0.0
O956 O 0.82544 0.80775 0.58752 0.0
O957 O 0.78505 0.82725 0.5892 0.0
O958 O 0.77912 0.80344 0.60878 0.0
C959 C 0.77183 0.76452 0.57375 0.0
O960 O 0.78756 0.814 0.55207 0.0
O961 O 0.81207 0.79423 0.55105 0.0
In962 In 0.69256 0.29871 0.57346 0.0
O963 O 0.69701 0.26554 0.57093 0.0
O964 O 0.72265 0.28378 0.57076 0.0
C965 C 0.70511 0.32543 0.60035 0.0
C966 C 0.68995 0.30773 0.53484 0.0
C967 C 0.65687 0.29263 0.58977 0.0
O968 O 0.70688 0.30703 0.60282 0.0
O969 O 0.69775 0.33038 0.58393 0.0
O970 O 0.66043 0.30724 0.5787 0.0
O971 O 0.67124 0.28099 0.59235 0.0
C972 C 0.7156 0.26651 0.56982 0.0
O973 O 0.67697 0.29788 0.54386 0.0
O974 O 0.70418 0.31353 0.54544 0.0
In975 In 0.17133 0.16338 0.56874 0.0
O976 O 0.20261 0.17546 0.56695 0.0
O977 O 0.17894 0.19622 0.56759 0.0
C978 C 0.13521 0.16873 0.5844 0.0
C979 C 0.16849 0.15326 0.53045 0.0
C980 C 0.18374 0.13851 0.59709 0.0
O981 O 0.14785 0.18244 0.58342 0.0
O982 O 0.14059 0.15252 0.57682 0.0
O983 O 0.17753 0.13245 0.58056 0.0
O984 O 0.18417 0.15706 0.59903 0.0
C985 C 0.19739 0.19339 0.56696 0.0
O986 O 0.18159 0.14618 0.54166 0.0
O987 O 0.15679 0.16528 0.5386 0.0
In988 In 0.29683 0.68368 0.57264 0.0
O989 O 0.31018 0.68895 0.5424 0.0
O990 O 0.2865 0.66833 0.54454 0.0
C991 C 0.33335 0.6893 0.5873 0.0
C992 C 0.27002 0.71314 0.57198 0.0
C993 C 0.28697 0.65457 0.5979 0.0
O994 O 0.32929 0.67553 0.57535 0.0
O995 O 0.31903 0.70058 0.59149 0.0
O996 O 0.28636 0.67263 0.60263 0.0
O997 O 0.29193 0.65125 0.58022 0.0
C998 C 0.29879 0.6771 0.53359 0.0
O999 O 0.28841 0.7163 0.57188 0.0
O1000 O 0.26518 0.69514 0.57285 0.0
In1001 In 0.19152 0.80491 0.40144 0.0
O1002 O 0.198 0.77201 0.4027 0.0
O1003 O 0.2226 0.79161 0.4024 0.0
C1004 C 0.15812 0.79633 0.38171 0.0
C1005 C 0.18707 0.8109 0.44047 0.0
C1006 C 0.20116 0.83639 0.37886 0.0
O1007 O 0.17462 0.78875 0.37739 0.0
O1008 O 0.15839 0.80805 0.39624 0.0
O1009 O 0.19108 0.83798 0.39447 0.0
O1010 O 0.20722 0.81911 0.37525 0.0
C1011 C 0.21655 0.77394 0.40292 0.0
O1012 O 0.20125 0.81833 0.43086 0.0
O1013 O 0.17519 0.80073 0.43033 0.0
In1014 In 0.69499 0.68621 0.40524 0.0
O1015 O 0.72604 0.69906 0.40613 0.0
O1016 O 0.70205 0.71805 0.41359 0.0
C1017 C 0.70286 0.65547 0.38111 0.0
C1018 C 0.69204 0.67308 0.44251 0.0
C1019 C 0.66303 0.69986 0.3858 0.0
O1020 O 0.69159 0.65412 0.39588 0.0
O1021 O 0.71057 0.67228 0.3787 0.0
O1022 O 0.66169 0.68949 0.40125 0.0
O1023 O 0.68048 0.70367 0.38043 0.0
C1024 C 0.72048 0.71608 0.41146 0.0
O1025 O 0.67857 0.68306 0.43429 0.0
O1026 O 0.70702 0.6697 0.43189 0.0
In1027 In 0.2872 0.28847 0.41024 0.0
O1028 O 0.28176 0.25531 0.40724 0.0
O1029 O 0.25819 0.27349 0.41756 0.0
C1030 C 0.26985 0.31323 0.3842 0.0
C1031 C 0.29135 0.2951 0.44914 0.0
C1032 C 0.32362 0.28782 0.39435 0.0
O1033 O 0.27201 0.29499 0.38087 0.0
O1034 O 0.27608 0.3189 0.40084 0.0
O1035 O 0.3172 0.3024 0.40412 0.0
O1036 O 0.31178 0.27346 0.39295 0.0
C1037 C 0.26417 0.2563 0.41341 0.0
O1038 O 0.30203 0.28296 0.43978 0.0
O1039 O 0.27897 0.30439 0.43871 0.0
In1040 In 0.57032 0.20492 0.80816 0.0
O1041 O 0.54259 0.18621 0.8075 0.0
O1042 O 0.54084 0.21426 0.82166 0.0
C1043 C 0.59029 0.17105 0.80264 0.0
C1044 C 0.56563 0.22682 0.77544 0.0
C1045 C 0.59529 0.22037 0.83512 0.0
O1046 O 0.57907 0.17376 0.81732 0.0
O1047 O 0.59121 0.18534 0.79069 0.0
O1048 O 0.59766 0.22258 0.81677 0.0
O1049 O 0.57981 0.21113 0.83988 0.0
C1050 C 0.53198 0.19868 0.81643 0.0
O1051 O 0.56841 0.20838 0.77492 0.0
O1052 O 0.56521 0.23431 0.79255 0.0
In1053 In 0.40312 0.7742 0.79822 0.0
O1054 O 0.43094 0.78941 0.7878 0.0
O1055 O 0.43342 0.76975 0.81228 0.0
C1056 C 0.38837 0.81069 0.79222 0.0
C1057 C 0.40392 0.7466 0.76959 0.0
C1058 C 0.37952 0.76254 0.82822 0.0
O1059 O 0.39894 0.80642 0.80698 0.0
O1060 O 0.38515 0.7965 0.7805 0.0
O1061 O 0.37435 0.76153 0.81035 0.0
O1062 O 0.39694 0.76861 0.8309 0.0
C1063 C 0.44198 0.78157 0.80062 0.0
O1064 O 0.3949 0.76283 0.76781 0.0
O1065 O 0.41215 0.74396 0.78613 0.0
In1066 In 0.55818 0.8053 0.18155 0.0
O1067 O 0.52661 0.81693 0.18316 0.0
O1068 O 0.53146 0.78966 0.16834 0.0
C1069 C 0.57431 0.84036 0.19183 0.0
C1070 C 0.56063 0.77882 0.21096 0.0
C1071 C 0.58261 0.79658 0.15136 0.0
O1072 O 0.56372 0.83832 0.1766 0.0
O1073 O 0.57624 0.8249 0.20206 0.0
O1074 O 0.58565 0.79095 0.16885 0.0
O1075 O 0.56702 0.8066 0.14894 0.0
C1076 C 0.51916 0.80239 0.17417 0.0
O1077 O 0.56514 0.77483 0.1933 0.0
O1078 O 0.55469 0.79632 0.21388 0.0
In1079 In 0.41434 0.19248 0.18805 0.0
O1080 O 0.41473 0.20123 0.22041 0.0
O1081 O 0.41665 0.22424 0.19904 0.0
C1082 C 0.39059 0.20262 0.15765 0.0
C1083 C 0.45336 0.18815 0.18186 0.0
C1084 C 0.39559 0.15866 0.1972 0.0
O1085 O 0.38761 0.2084 0.17513 0.0
O1086 O 0.40592 0.19221 0.15538 0.0
O1087 O 0.40906 0.15946 0.18431 0.0
O1088 O 0.39185 0.17485 0.2057 0.0
C1089 C 0.41612 0.21954 0.21709 0.0
O1090 O 0.44389 0.17769 0.19403 0.0
O1091 O 0.44308 0.20065 0.17256 0.0
In1092 In 0.40754 0.29014 0.67073 0.0
O1093 O 0.43667 0.28087 0.65641 0.0
O1094 O 0.43564 0.30832 0.67175 0.0
C1095 C 0.3822 0.27664 0.64307 0.0
C1096 C 0.4114 0.26663 0.70252 0.0
C1097 C 0.38764 0.3238 0.67787 0.0
O1098 O 0.39769 0.28607 0.63872 0.0
O1099 O 0.38006 0.27321 0.66124 0.0
O1100 O 0.3868 0.30899 0.68917 0.0
O1101 O 0.39887 0.32178 0.6631 0.0
C1102 C 0.44585 0.29614 0.662 0.0
O1103 O 0.41016 0.28521 0.70375 0.0
O1104 O 0.41097 0.25982 0.68513 0.0
In1105 In 0.58282 0.68947 0.67683 0.0
O1106 O 0.55435 0.67241 0.67982 0.0
O1107 O 0.55372 0.69862 0.66236 0.0
C1108 C 0.60697 0.69742 0.64623 0.0
C1109 C 0.57997 0.71659 0.70584 0.0
C1110 C 0.60055 0.65525 0.68657 0.0
O1111 O 0.58971 0.69078 0.6439 0.0
O1112 O 0.6116 0.70106 0.66391 0.0
O1113 O 0.60493 0.67149 0.6947 0.0
O1114 O 0.58698 0.65626 0.67381 0.0
C1115 C 0.54433 0.684 0.66919 0.0
O1116 O 0.57999 0.69823 0.70909 0.0
O1117 O 0.5815 0.72137 0.68787 0.0
In1118 In 0.57082 0.30501 0.30818 0.0
O1119 O 0.56984 0.27312 0.29719 0.0
O1120 O 0.56858 0.29626 0.27589 0.0
C1121 C 0.59298 0.33581 0.2964 0.0
C1122 C 0.53205 0.31083 0.31509 0.0
C1123 C 0.59337 0.29639 0.33991 0.0
O1124 O 0.5958 0.3184 0.29033 0.0
O1125 O 0.57862 0.33782 0.30816 0.0
O1126 O 0.58057 0.30997 0.34009 0.0
O1127 O 0.59415 0.28662 0.32404 0.0
C1128 C 0.56897 0.27788 0.27916 0.0
O1129 O 0.54191 0.29759 0.3238 0.0
O1130 O 0.54179 0.32117 0.30304 0.0
In1131 In 0.41667 0.66209 0.30535 0.0
O1132 O 0.44438 0.67203 0.32154 0.0
O1133 O 0.44784 0.65348 0.29636 0.0
C1134 C 0.38929 0.67367 0.33166 0.0
C1135 C 0.41278 0.68959 0.27692 0.0
C1136 C 0.40507 0.62406 0.30301 0.0
O1137 O 0.40671 0.6692 0.33676 0.0
O1138 O 0.38588 0.67245 0.31336 0.0
O1139 O 0.40423 0.63573 0.28847 0.0
O1140 O 0.41258 0.63137 0.31844 0.0
C1141 C 0.45608 0.66333 0.30989 0.0
O1142 O 0.41699 0.69379 0.2946 0.0
O1143 O 0.4106 0.67135 0.27344 0.0
In1144 In 0.39856 0.7793 0.19082 0.0
O1145 O 0.42493 0.79955 0.18884 0.0
O1146 O 0.42838 0.7703 0.17755 0.0
C1147 C 0.37647 0.77436 0.15794 0.0
C1148 C 0.40265 0.75043 0.2181 0.0
C1149 C 0.38044 0.81181 0.20526 0.0
O1150 O 0.39402 0.78055 0.15742 0.0
O1151 O 0.3703 0.77002 0.17495 0.0
O1152 O 0.37208 0.79511 0.20483 0.0
O1153 O 0.39799 0.81184 0.19902 0.0
C1154 C 0.43612 0.78705 0.18068 0.0
O1155 O 0.4038 0.76856 0.22229 0.0
O1156 O 0.39932 0.7468 0.20014 0.0
In1157 In 0.5772 0.19465 0.18609 0.0
O1158 O 0.54776 0.20254 0.17203 0.0
O1159 O 0.54846 0.17837 0.19218 0.0
C1160 C 0.59649 0.20487 0.1528 0.0
C1161 C 0.57472 0.22101 0.21585 0.0
C1162 C 0.59997 0.1629 0.1939 0.0
O1163 O 0.58195 0.19318 0.15284 0.0
O1164 O 0.60089 0.21193 0.16951 0.0
O1165 O 0.60425 0.18008 0.19982 0.0
O1166 O 0.58383 0.16163 0.18462 0.0
C1167 C 0.53824 0.18918 0.1809 0.0
O1168 O 0.57531 0.20258 0.21877 0.0
O1169 O 0.57569 0.22613 0.19793 0.0
In1170 In 0.40914 0.19308 0.80342 0.0
O1171 O 0.43641 0.20714 0.81707 0.0
O1172 O 0.43934 0.17853 0.80415 0.0
C1173 C 0.38729 0.20097 0.83579 0.0
C1174 C 0.41118 0.21672 0.77152 0.0
C1175 C 0.38966 0.16 0.79305 0.0
O1176 O 0.38383 0.20887 0.81925 0.0
O1177 O 0.40214 0.18968 0.83609 0.0
O1178 O 0.38356 0.1771 0.78874 0.0
O1179 O 0.40589 0.15953 0.80225 0.0
C1180 C 0.44762 0.19278 0.81293 0.0
O1181 O 0.40701 0.22322 0.78853 0.0
O1182 O 0.41428 0.19833 0.77065 0.0
In1183 In 0.56514 0.79964 0.79813 0.0
O1184 O 0.53755 0.78607 0.81169 0.0
O1185 O 0.53376 0.80849 0.79 0.0
C1186 C 0.58798 0.79153 0.8297 0.0
C1187 C 0.57049 0.77344 0.76869 0.0
C1188 C 0.57876 0.8366 0.79203 0.0
O1189 O 0.57096 0.79904 0.83132 0.0
O1190 O 0.59328 0.78782 0.8122 0.0
O1191 O 0.58441 0.82188 0.78203 0.0
O1192 O 0.56577 0.83279 0.80487 0.0
C1193 C 0.5257 0.79629 0.80157 0.0
O1194 O 0.57027 0.76845 0.78666 0.0
O1195 O 0.56804 0.79169 0.76556 0.0
In1196 In 0.57636 0.69316 0.30041 0.0
O1197 O 0.57609 0.70364 0.26873 0.0
O1198 O 0.56801 0.72455 0.29082 0.0
C1199 C 0.59947 0.70485 0.33071 0.0
C1200 C 0.53875 0.68189 0.30597 0.0
C1201 C 0.59775 0.66115 0.29036 0.0
O1202 O 0.60271 0.70985 0.31306 0.0
O1203 O 0.58406 0.69466 0.33318 0.0
O1204 O 0.59996 0.67771 0.28206 0.0
O1205 O 0.58472 0.66074 0.3037 0.0
C1206 C 0.57062 0.72102 0.27267 0.0
O1207 O 0.54676 0.69511 0.31647 0.0
O1208 O 0.54968 0.6746 0.29274 0.0
In1209 In 0.40907 0.30434 0.30826 0.0
O1210 O 0.43738 0.32221 0.30427 0.0
O1211 O 0.4378 0.29812 0.32443 0.0
C1212 C 0.38221 0.33043 0.29479 0.0
C1213 C 0.41385 0.27733 0.27959 0.0
C1214 C 0.38885 0.29549 0.34127 0.0
O1215 O 0.3968 0.33568 0.30523 0.0
O1216 O 0.38169 0.31226 0.29063 0.0
O1217 O 0.39081 0.28345 0.32714 0.0
O1218 O 0.39778 0.31173 0.33907 0.0
C1219 C 0.44734 0.31181 0.31614 0.0
O1220 O 0.41002 0.27264 0.29725 0.0
O1221 O 0.41543 0.29568 0.27645 0.0
In1222 In 0.42097 0.67267 0.67049 0.0
O1223 O 0.45187 0.65976 0.67214 0.0
O1224 O 0.44873 0.68815 0.65912 0.0
C1225 C 0.40242 0.6386 0.67987 0.0
C1226 C 0.41562 0.69564 0.70241 0.0
C1227 C 0.40011 0.68366 0.63838 0.0
O1228 O 0.41309 0.64024 0.66469 0.0
O1229 O 0.40147 0.65393 0.69039 0.0
O1230 O 0.40117 0.69412 0.65378 0.0
O1231 O 0.41024 0.66798 0.63888 0.0
C1232 C 0.46024 0.67441 0.66429 0.0
O1233 O 0.40648 0.69837 0.68636 0.0
O1234 O 0.42773 0.68138 0.70232 0.0
In1235 In 0.56821 0.2984 0.67396 0.0
O1236 O 0.56991 0.26825 0.68875 0.0
O1237 O 0.55917 0.29267 0.70563 0.0
C1238 C 0.59021 0.29145 0.64163 0.0
C1239 C 0.53024 0.30118 0.66278 0.0
C1240 C 0.59191 0.32636 0.6893 0.0
O1241 O 0.58911 0.27929 0.65575 0.0
O1242 O 0.57955 0.30667 0.64352 0.0
O1243 O 0.57643 0.3307 0.67973 0.0
O1244 O 0.59509 0.30808 0.69126 0.0
C1245 C 0.56349 0.27451 0.70517 0.0
O1246 O 0.53904 0.31499 0.67178 0.0
O1247 O 0.54079 0.28625 0.65897 0.0
C1248 C 0.06609 0.26668 0.22064 0.0
C1249 C 0.07171 0.28592 0.22615 0.0
H1250 H 0.06442 0.23619 0.2289 0.0
C1251 C 0.07989 0.28912 0.24496 0.0
H1252 H 0.05972 0.26377 0.20623 0.0
C1253 C 0.08258 0.27329 0.25796 0.0
C1254 C 0.07715 0.25402 0.25233 0.0
H1255 H 0.08435 0.30381 0.24957 0.0
H1256 H 0.08904 0.27611 0.27235 0.0
C1257 C 0.06879 0.25088 0.2336 0.0
C1258 C 0.73588 0.08376 0.23363 0.0
C1259 C 0.73833 0.07817 0.2138 0.0
H1260 H 0.74941 0.08769 0.26185 0.0
C1261 C 0.75721 0.07253 0.20707 0.0
H1262 H 0.72155 0.08826 0.23923 0.0
C1263 C 0.77331 0.07229 0.2201 0.0
C1264 C 0.77069 0.07759 0.24002 0.0
H1265 H 0.7595 0.06821 0.19181 0.0
H1266 H 0.78769 0.06771 0.21468 0.0
C1267 C 0.75187 0.08343 0.24659 0.0
C1268 C 0.91818 0.73975 0.22438 0.0
C1269 C 0.91516 0.72005 0.23023 0.0
H1270 H 0.91856 0.77021 0.23308 0.0
C1271 C 0.91057 0.71596 0.25006 0.0
H1272 H 0.92169 0.74334 0.20917 0.0
C1273 C 0.90883 0.73135 0.26376 0.0
C1274 C 0.91152 0.75108 0.25783 0.0
H1275 H 0.90817 0.7009 0.25497 0.0
H1276 H 0.90518 0.7278 0.27895 0.0
C1277 C 0.91631 0.75514 0.23804 0.0
C1278 C 0.26396 0.92384 0.2453 0.0
C1279 C 0.26302 0.91735 0.22559 0.0
H1280 H 0.2481 0.92887 0.27224 0.0
C1281 C 0.24475 0.91139 0.2177 0.0
H1282 H 0.27786 0.92856 0.25172 0.0
C1283 C 0.22778 0.91151 0.22942 0.0
C1284 C 0.22876 0.91767 0.24921 0.0
H1285 H 0.2436 0.90635 0.20253 0.0
H1286 H 0.21395 0.90657 0.22302 0.0
C1287 C 0.24694 0.92404 0.25701 0.0
C1288 C 0.07235 0.74387 0.75271 0.0
C1289 C 0.07203 0.72394 0.74684 0.0
H1290 H 0.07225 0.77416 0.74363 0.0
C1291 C 0.07095 0.71933 0.7266 0.0
H1292 H 0.07313 0.74787 0.76821 0.0
C1293 C 0.07043 0.73443 0.71249 0.0
C1294 C 0.07097 0.75436 0.7184 0.0
H1295 H 0.07066 0.70408 0.72167 0.0
H1296 H 0.06977 0.7305 0.69696 0.0
C1297 C 0.07182 0.75893 0.73864 0.0
C1298 C 0.26266 0.07013 0.74408 0.0
C1299 C 0.25956 0.06729 0.76439 0.0
H1300 H 0.2495 0.07287 0.71546 0.0
C1301 C 0.24017 0.06487 0.77147 0.0
H1302 H 0.27746 0.07207 0.73822 0.0
C1303 C 0.22414 0.0654 0.75844 0.0
C1304 C 0.22726 0.06835 0.73814 0.0
H1305 H 0.23736 0.06269 0.78708 0.0
H1306 H 0.20934 0.06352 0.76428 0.0
C1307 C 0.24666 0.07064 0.73106 0.0
C1308 C 0.90616 0.23026 0.74035 0.0
C1309 C 0.90376 0.233 0.71993 0.0
H1310 H 0.91142 0.24384 0.76841 0.0
C1311 C 0.90489 0.25221 0.71206 0.0
H1312 H 0.90543 0.21562 0.74681 0.0
C1313 C 0.90831 0.26842 0.72445 0.0
C1314 C 0.91075 0.26564 0.74488 0.0
H1315 H 0.90313 0.25473 0.69634 0.0
H1316 H 0.90902 0.28309 0.71805 0.0
C1317 C 0.90967 0.24642 0.7527 0.0
C1318 C 0.72564 0.91521 0.77384 0.0
C1319 C 0.70628 0.91876 0.76715 0.0
H1320 H 0.75551 0.90815 0.76601 0.0
C1321 C 0.70228 0.91787 0.74679 0.0
H1322 H 0.72914 0.91572 0.78947 0.0
C1323 C 0.71736 0.91342 0.73339 0.0
C1324 C 0.73671 0.9098 0.74009 0.0
H1325 H 0.68748 0.92046 0.74123 0.0
H1326 H 0.71387 0.91287 0.71776 0.0
C1327 C 0.74072 0.91078 0.76044 0.0
C1328 C 0.23882 0.0641 0.21429 0.0
C1329 C 0.257 0.0684 0.22339 0.0
H1330 H 0.20743 0.06147 0.2178 0.0
C1331 C 0.25744 0.07266 0.24369 0.0
H1332 H 0.23806 0.06077 0.19863 0.0
C1333 C 0.23996 0.07302 0.25463 0.0
C1334 C 0.22171 0.06921 0.24544 0.0
H1335 H 0.27126 0.076 0.25109 0.0
H1336 H 0.24072 0.07661 0.27023 0.0
C1337 C 0.22129 0.06454 0.22522 0.0
C1338 C 0.91572 0.25493 0.26412 0.0
C1339 C 0.92134 0.25166 0.24441 0.0
H1340 H 0.91381 0.24302 0.29334 0.0
C1341 C 0.93015 0.23356 0.23917 0.0
H1342 H 0.90893 0.26876 0.26856 0.0
C1343 C 0.93298 0.21883 0.25334 0.0
C1344 C 0.92701 0.22197 0.27297 0.0
H1345 H 0.93467 0.23068 0.22406 0.0
H1346 H 0.93958 0.20492 0.24887 0.0
C1347 C 0.91853 0.2402 0.27828 0.0
C1348 C 0.71114 0.91843 0.25248 0.0
C1349 C 0.71435 0.91609 0.2321 0.0
H1350 H 0.72424 0.91959 0.28133 0.0
C1351 C 0.73368 0.91294 0.22514 0.0
H1352 H 0.69638 0.92087 0.25822 0.0
C1353 C 0.74952 0.9121 0.23829 0.0
C1354 C 0.74638 0.9145 0.25866 0.0
H1355 H 0.73659 0.91105 0.2095 0.0
H1356 H 0.76425 0.90965 0.23247 0.0
C1357 C 0.72706 0.9177 0.26567 0.0
C1358 C 0.06736 0.71593 0.25492 0.0
C1359 C 0.06698 0.7187 0.23435 0.0
H1360 H 0.06717 0.72974 0.28342 0.0
C1361 C 0.06517 0.73793 0.2267 0.0
H1362 H 0.06871 0.70125 0.26119 0.0
C1363 C 0.06434 0.75419 0.23937 0.0
C1364 C 0.06525 0.75149 0.25991 0.0
H1365 H 0.06478 0.74048 0.21088 0.0
H1366 H 0.06332 0.76888 0.23305 0.0
C1367 C 0.06648 0.73222 0.26761 0.0
C1368 C 0.25903 0.91025 0.72371 0.0
C1369 C 0.23935 0.90775 0.72986 0.0
H1370 H 0.28935 0.91294 0.7325 0.0
C1371 C 0.23512 0.90647 0.75014 0.0
H1372 H 0.26269 0.91132 0.70815 0.0
C1373 C 0.25031 0.90752 0.76403 0.0
C1374 C 0.27003 0.90979 0.75789 0.0
H1375 H 0.22006 0.90463 0.75529 0.0
H1376 H 0.24662 0.90635 0.77957 0.0
C1377 C 0.27427 0.91121 0.73762 0.0
C1378 C 0.06002 0.21637 0.73729 0.0
C1379 C 0.06572 0.21757 0.71738 0.0
H1380 H 0.05853 0.23102 0.7653 0.0
C1381 C 0.07444 0.23507 0.71035 0.0
H1382 H 0.05329 0.20304 0.74311 0.0
C1383 C 0.07744 0.25109 0.72305 0.0
C1384 C 0.07182 0.24985 0.74299 0.0
H1385 H 0.079 0.23638 0.69505 0.0
H1386 H 0.08419 0.26442 0.71726 0.0
C1387 C 0.06307 0.23236 0.74999 0.0
C1388 C 0.7539 0.06627 0.74904 0.0
C1389 C 0.74873 0.06958 0.72921 0.0
H1390 H 0.74453 0.06697 0.77926 0.0
C1391 C 0.72951 0.07601 0.72463 0.0
H1392 H 0.76863 0.0613 0.75297 0.0
C1393 C 0.71575 0.07929 0.73966 0.0
C1394 C 0.72098 0.07618 0.7595 0.0
H1395 H 0.72514 0.07869 0.70945 0.0
H1396 H 0.70107 0.08438 0.73572 0.0
C1397 C 0.74013 0.06953 0.76407 0.0
C1398 C 0.92166 0.76525 0.74982 0.0
C1399 C 0.91755 0.7616 0.7298 0.0
H1400 H 0.92478 0.75292 0.7788 0.0
C1401 C 0.91419 0.74209 0.72347 0.0
H1402 H 0.92435 0.78015 0.75508 0.0
C1403 C 0.91441 0.72654 0.737 0.0
C1404 C 0.91803 0.73023 0.7571 0.0
H1405 H 0.91104 0.73885 0.7081 0.0
H1406 H 0.91143 0.71168 0.73177 0.0
C1407 C 0.92191 0.74967 0.76337 0.0
C1408 C 0.24023 0.26813 0.07275 0.0
C1409 C 0.22026 0.2627 0.07463 0.0
H1410 H 0.2704 0.25851 0.07269 0.0
C1411 C 0.21547 0.24277 0.07802 0.0
H1412 H 0.24436 0.28339 0.07015 0.0
C1413 C 0.23039 0.2285 0.07945 0.0
C1414 C 0.25036 0.23394 0.07756 0.0
H1415 H 0.20019 0.23817 0.07954 0.0
H1416 H 0.22629 0.21323 0.08203 0.0
C1417 C 0.25513 0.25388 0.07422 0.0
C1418 C 0.2355 0.72114 0.92601 0.0
C1419 C 0.21625 0.72683 0.92064 0.0
H1420 H 0.2658 0.72979 0.92887 0.0
C1421 C 0.2127 0.74643 0.9147 0.0
H1422 H 0.23864 0.70613 0.9307 0.0
C1423 C 0.22826 0.75996 0.91361 0.0
C1424 C 0.2476 0.75412 0.91849 0.0
H1425 H 0.19799 0.75122 0.91051 0.0
H1426 H 0.22518 0.77489 0.90864 0.0
C1427 C 0.25104 0.73467 0.92496 0.0
C1428 C 0.23975 0.25613 0.91496 0.0
C1429 C 0.22001 0.24972 0.91438 0.0
H1430 H 0.27024 0.24782 0.91649 0.0
C1431 C 0.2159 0.22937 0.91529 0.0
H1432 H 0.24334 0.27174 0.91432 0.0
C1433 C 0.23133 0.21565 0.91652 0.0
C1434 C 0.25108 0.22209 0.91688 0.0
H1435 H 0.2008 0.22404 0.91489 0.0
H1436 H 0.2278 0.20002 0.91704 0.0
C1437 C 0.25514 0.24244 0.91621 0.0
C1438 C 0.74393 0.26418 0.91624 0.0
C1439 C 0.74557 0.2438 0.91254 0.0
H1440 H 0.75916 0.2915 0.92107 0.0
C1441 C 0.76444 0.23516 0.91125 0.0
H1442 H 0.72955 0.2712 0.9174 0.0
C1443 C 0.7814 0.24679 0.91322 0.0
C1444 C 0.77974 0.26721 0.91673 0.0
H1445 H 0.76612 0.21946 0.90843 0.0
H1446 H 0.79578 0.23982 0.91187 0.0
C1447 C 0.76086 0.27577 0.91842 0.0
C1448 C 0.73461 0.73607 0.91688 0.0
C1449 C 0.7538 0.74299 0.91294 0.0
H1450 H 0.70406 0.74345 0.92062 0.0
C1451 C 0.75683 0.76331 0.90987 0.0
H1452 H 0.73184 0.72048 0.91931 0.0
C1453 C 0.7409 0.77649 0.91066 0.0
C1454 C 0.7217 0.76953 0.91447 0.0
H1455 H 0.77148 0.76903 0.90681 0.0
H1456 H 0.74362 0.79208 0.90818 0.0
C1457 C 0.71871 0.74922 0.91762 0.0
C1458 C 0.72512 0.74312 0.07502 0.0
C1459 C 0.72852 0.76359 0.07611 0.0
H1460 H 0.7379 0.71422 0.07313 0.0
C1461 C 0.74807 0.77064 0.07612 0.0
H1462 H 0.7102 0.73728 0.07496 0.0
C1463 C 0.76395 0.75741 0.07513 0.0
C1464 C 0.76053 0.73695 0.07402 0.0
H1465 H 0.75111 0.78635 0.07695 0.0
H1466 H 0.77889 0.76322 0.07521 0.0
C1467 C 0.74098 0.72993 0.07394 0.0
C1468 C 0.23301 0.77778 0.07584 0.0
C1469 C 0.25138 0.77307 0.06732 0.0
H1470 H 0.20407 0.7674 0.08365 0.0
C1471 C 0.2542 0.75429 0.05891 0.0
H1472 H 0.23045 0.7922 0.08238 0.0
C1473 C 0.23919 0.7402 0.0596 0.0
C1474 C 0.22106 0.74461 0.06873 0.0
H1475 H 0.26816 0.75028 0.05212 0.0
H1476 H 0.24199 0.72569 0.05336 0.0
C1477 C 0.21793 0.76363 0.07654 0.0
C1478 C 0.76942 0.22796 0.06409 0.0
C1479 C 0.76846 0.24869 0.06483 0.0
H1480 H 0.75322 0.20078 0.06308 0.0
C1481 C 0.7499 0.25808 0.0644 0.0
H1482 H 0.78355 0.22037 0.06436 0.0
C1483 C 0.73257 0.24691 0.06389 0.0
C1484 C 0.73352 0.22616 0.06357 0.0
H1485 H 0.74874 0.27407 0.06499 0.0
H1486 H 0.71845 0.2545 0.06395 0.0
C1487 C 0.75208 0.21678 0.06335 0.0
C1488 C 0.74171 0.56873 0.72412 0.0
C1489 C 0.72144 0.5669 0.72825 0.0
H1490 H 0.77074 0.57343 0.73576 0.0
C1491 C 0.71491 0.56818 0.74792 0.0
H1492 H 0.74715 0.56781 0.70908 0.0
C1493 C 0.7284 0.57148 0.7632 0.0
C1494 C 0.74865 0.5735 0.75903 0.0
H1495 H 0.69934 0.56684 0.75151 0.0
H1496 H 0.72297 0.57252 0.77823 0.0
C1497 C 0.7552 0.57198 0.73938 0.0
C1498 C 0.22416 0.41805 0.73838 0.0
C1499 C 0.23045 0.41288 0.75748 0.0
H1500 H 0.23187 0.42066 0.70782 0.0
C1501 C 0.2501 0.40682 0.76044 0.0
H1502 H 0.20909 0.42278 0.73568 0.0
C1503 C 0.26315 0.40561 0.74448 0.0
C1504 C 0.25673 0.4104 0.72532 0.0
H1505 H 0.25533 0.40275 0.77503 0.0
H1506 H 0.27818 0.40069 0.74713 0.0
C1507 C 0.23718 0.41679 0.72243 0.0
C1508 C 0.24094 0.5641 0.24865 0.0
C1509 C 0.24804 0.57572 0.23298 0.0
H1510 H 0.24751 0.55 0.27619 0.0
C1511 C 0.26776 0.58219 0.23322 0.0
H1512 H 0.2258 0.55886 0.24881 0.0
C1513 C 0.28016 0.57719 0.24896 0.0
C1514 C 0.27306 0.56553 0.26461 0.0
H1515 H 0.27359 0.59117 0.22131 0.0
H1516 H 0.29531 0.58241 0.24883 0.0
C1517 C 0.25337 0.55899 0.2643 0.0
C1518 C 0.73704 0.40901 0.21453 0.0
C1519 C 0.75697 0.41337 0.21839 0.0
H1520 H 0.70784 0.40609 0.22644 0.0
C1521 C 0.76267 0.41878 0.23762 0.0
H1522 H 0.73225 0.40482 0.19983 0.0
C1523 C 0.74875 0.41944 0.25282 0.0
C1524 C 0.72888 0.41477 0.24905 0.0
H1525 H 0.77794 0.42224 0.241 0.0
H1526 H 0.75361 0.42342 0.26756 0.0
C1527 C 0.72309 0.40974 0.22975 0.0
C1528 C 0.24301 0.56526 0.7264 0.0
C1529 C 0.26321 0.5681 0.73026 0.0
H1530 H 0.21375 0.56379 0.73828 0.0
C1531 C 0.26943 0.57155 0.74978 0.0
H1532 H 0.23779 0.56254 0.71149 0.0
C1533 C 0.25563 0.5723 0.76516 0.0
C1534 C 0.23541 0.56957 0.76124 0.0
H1535 H 0.28493 0.5738 0.75316 0.0
H1536 H 0.26078 0.5751 0.78007 0.0
C1537 C 0.22924 0.56596 0.74174 0.0
C1538 C 0.72709 0.40529 0.76172 0.0
C1539 C 0.73181 0.40798 0.74167 0.0
H1540 H 0.73732 0.40651 0.7917 0.0
C1541 C 0.75086 0.41447 0.73653 0.0
H1542 H 0.71249 0.40035 0.76608 0.0
C1543 C 0.76495 0.41814 0.75114 0.0
C1544 C 0.76032 0.41529 0.77117 0.0
H1545 H 0.75489 0.41676 0.72121 0.0
H1546 H 0.77954 0.42303 0.74669 0.0
C1547 C 0.74126 0.40886 0.77636 0.0
C1548 C 0.20994 0.42364 0.2322 0.0
C1549 C 0.21359 0.41554 0.21342 0.0
H1550 H 0.21821 0.42427 0.26278 0.0
C1551 C 0.22836 0.40105 0.21128 0.0
H1552 H 0.19855 0.43474 0.23429 0.0
C1553 C 0.23967 0.39517 0.22751 0.0
C1554 C 0.23624 0.40348 0.24624 0.0
H1555 H 0.23144 0.39451 0.19697 0.0
H1556 H 0.25124 0.38428 0.22536 0.0
C1557 C 0.22109 0.41756 0.24851 0.0
C1558 C 0.73442 0.56864 0.20738 0.0
C1559 C 0.75468 0.56699 0.21169 0.0
H1560 H 0.70508 0.57169 0.21896 0.0
C1561 C 0.76086 0.56665 0.23151 0.0
H1562 H 0.72927 0.56895 0.19221 0.0
C1563 C 0.74708 0.56831 0.24675 0.0
C1564 C 0.72685 0.57028 0.24247 0.0
H1565 H 0.77639 0.5654 0.23527 0.0
H1566 H 0.7523 0.5682 0.2619 0.0
C1567 C 0.7206 0.57025 0.22266 0.0
C1568 C 0.22111 0.73997 0.56804 0.0
C1569 C 0.22726 0.75977 0.56674 0.0
H1570 H 0.22988 0.70966 0.57085 0.0
C1571 C 0.24756 0.76415 0.56732 0.0
H1572 H 0.20554 0.73618 0.56769 0.0
C1573 C 0.26147 0.74898 0.56917 0.0
C1574 C 0.25532 0.72918 0.5705 0.0
H1575 H 0.25271 0.7793 0.56638 0.0
H1576 H 0.27704 0.75277 0.56952 0.0
C1577 C 0.23502 0.7248 0.56992 0.0
C1578 C 0.22004 0.22455 0.42537 0.0
C1579 C 0.22568 0.2062 0.41739 0.0
H1580 H 0.22781 0.25479 0.43026 0.0
C1581 C 0.24463 0.20405 0.40914 0.0
H1582 H 0.20553 0.22663 0.43187 0.0
C1583 C 0.25744 0.22026 0.40823 0.0
C1584 C 0.2514 0.23881 0.41546 0.0
H1585 H 0.24933 0.19006 0.40288 0.0
H1586 H 0.27182 0.2184 0.4014 0.0
C1587 C 0.23275 0.24071 0.42437 0.0
C1588 C 0.22227 0.73744 0.40379 0.0
C1589 C 0.22999 0.75675 0.40371 0.0
H1590 H 0.22853 0.70639 0.40475 0.0
C1591 C 0.25057 0.75942 0.40445 0.0
H1592 H 0.20646 0.73494 0.40321 0.0
C1593 C 0.2632 0.74307 0.40535 0.0
C1594 C 0.25547 0.72376 0.40549 0.0
H1595 H 0.25692 0.77414 0.4044 0.0
H1596 H 0.27902 0.74555 0.40598 0.0
C1597 C 0.2349 0.7211 0.40466 0.0
C1598 C 0.74067 0.76751 0.41994 0.0
C1599 C 0.76114 0.76412 0.41887 0.0
H1600 H 0.71169 0.75484 0.41854 0.0
C1601 C 0.76814 0.74474 0.41606 0.0
H1602 H 0.73489 0.78231 0.42213 0.0
C1603 C 0.7549 0.72908 0.41384 0.0
C1604 C 0.73443 0.73251 0.41457 0.0
H1605 H 0.78386 0.74171 0.41516 0.0
H1606 H 0.7607 0.71433 0.4114 0.0
C1607 C 0.72742 0.75181 0.41788 0.0
C1608 C 0.75453 0.26035 0.40931 0.0
C1609 C 0.73403 0.25699 0.40906 0.0
H1610 H 0.78349 0.24749 0.40847 0.0
C1611 C 0.72698 0.23748 0.40768 0.0
H1612 H 0.76037 0.27524 0.41036 0.0
C1613 C 0.74019 0.22162 0.4065 0.0
C1614 C 0.76069 0.22498 0.40677 0.0
H1615 H 0.71125 0.23446 0.40742 0.0
H1616 H 0.73434 0.20674 0.40544 0.0
C1617 C 0.76775 0.24447 0.40822 0.0
C1618 C 0.76034 0.23376 0.56293 0.0
C1619 C 0.75193 0.2148 0.56425 0.0
H1620 H 0.75541 0.26504 0.56379 0.0
C1621 C 0.73143 0.21296 0.56696 0.0
H1622 H 0.77613 0.23561 0.56088 0.0
C1623 C 0.71958 0.22981 0.56857 0.0
C1624 C 0.72805 0.24877 0.56763 0.0
H1625 H 0.72457 0.19851 0.56803 0.0
H1626 H 0.70381 0.22799 0.5708 0.0
C1627 C 0.74851 0.2506 0.56467 0.0
C1628 C 0.23219 0.20559 0.5669 0.0
C1629 C 0.21183 0.20972 0.56708 0.0
H1630 H 0.26157 0.21727 0.56783 0.0
C1631 C 0.20547 0.2295 0.568 0.0
H1632 H 0.23753 0.19048 0.5662 0.0
C1633 C 0.21925 0.24488 0.56896 0.0
C1634 C 0.23962 0.2407 0.56902 0.0
H1635 H 0.18984 0.23311 0.56817 0.0
H1636 H 0.21397 0.25999 0.56979 0.0
C1637 C 0.24595 0.22093 0.56786 0.0
C1638 C 0.73926 0.74957 0.56524 0.0
C1639 C 0.75916 0.74709 0.57058 0.0
H1640 H 0.71162 0.73558 0.55901 0.0
C1641 C 0.7667 0.72787 0.57318 0.0
H1642 H 0.73308 0.76421 0.56304 0.0
C1643 C 0.75437 0.71143 0.57093 0.0
C1644 C 0.73437 0.71397 0.56593 0.0
H1645 H 0.78202 0.72555 0.57727 0.0
H1646 H 0.76043 0.69678 0.57336 0.0
C1647 C 0.72699 0.73317 0.56288 0.0
C1648 C 0.55909 0.25895 0.75852 0.0
C1649 C 0.56374 0.23875 0.75735 0.0
H1650 H 0.55512 0.2861 0.74278 0.0
C1651 C 0.56718 0.23011 0.73876 0.0
H1652 H 0.55627 0.26595 0.77267 0.0
C1653 C 0.56663 0.24165 0.72167 0.0
C1654 C 0.56247 0.26196 0.7229 0.0
H1655 H 0.57076 0.21453 0.73745 0.0
H1656 H 0.5698 0.23473 0.70756 0.0
C1657 C 0.55838 0.27046 0.74142 0.0
C1658 C 0.4222 0.7044 0.73774 0.0
C1659 C 0.4121 0.70806 0.71996 0.0
H1660 H 0.42735 0.71369 0.7676 0.0
C1661 C 0.39855 0.7238 0.71901 0.0
H1662 H 0.43265 0.69229 0.73889 0.0
C1663 C 0.39551 0.73598 0.73537 0.0
C1664 C 0.40591 0.73261 0.75302 0.0
H1665 H 0.39046 0.72688 0.70553 0.0
H1666 H 0.38524 0.74822 0.73409 0.0
C1667 C 0.41909 0.71657 0.75417 0.0
C1668 C 0.57183 0.73103 0.23734 0.0
C1669 C 0.56768 0.73594 0.25708 0.0
H1670 H 0.57282 0.74075 0.20733 0.0
C1671 C 0.56086 0.75506 0.26162 0.0
H1672 H 0.57711 0.71641 0.2334 0.0
C1673 C 0.55835 0.76907 0.24661 0.0
C1674 C 0.56267 0.76413 0.22689 0.0
H1675 H 0.55752 0.7592 0.27674 0.0
H1676 H 0.55317 0.78375 0.25045 0.0
C1677 C 0.56937 0.74498 0.22241 0.0
C1678 C 0.41798 0.26853 0.24397 0.0
C1679 C 0.4155 0.26253 0.26369 0.0
H1680 H 0.42011 0.25956 0.21367 0.0
C1681 C 0.41392 0.24228 0.26803 0.0
H1682 H 0.41925 0.28406 0.24023 0.0
C1683 C 0.41445 0.22828 0.25287 0.0
C1684 C 0.41651 0.2343 0.23311 0.0
H1685 H 0.41202 0.23724 0.28311 0.0
H1686 H 0.41296 0.21277 0.25661 0.0
C1687 C 0.41845 0.25452 0.22879 0.0
C1688 C 0.41005 0.25012 0.75584 0.0
C1689 C 0.41203 0.22953 0.75393 0.0
H1690 H 0.4085 0.27803 0.74102 0.0
C1691 C 0.41449 0.22124 0.73502 0.0
H1692 H 0.40821 0.25691 0.77024 0.0
C1693 C 0.41457 0.23332 0.71827 0.0
C1694 C 0.41232 0.25389 0.72017 0.0
H1695 H 0.41607 0.2054 0.73313 0.0
H1696 H 0.4162 0.22653 0.70384 0.0
C1697 C 0.41027 0.26221 0.73911 0.0
C1698 C 0.57661 0.75154 0.71758 0.0
C1699 C 0.57797 0.73125 0.72186 0.0
H1700 H 0.57312 0.78086 0.72912 0.0
C1701 C 0.57709 0.72498 0.74163 0.0
H1702 H 0.57723 0.75677 0.70245 0.0
C1703 C 0.5748 0.73873 0.75685 0.0
C1704 C 0.57326 0.759 0.75258 0.0
H1705 H 0.57812 0.70943 0.74536 0.0
H1706 H 0.57409 0.73345 0.77196 0.0
C1707 C 0.57424 0.76531 0.73282 0.0
C1708 C 0.57222 0.22911 0.25184 0.0
C1709 C 0.57282 0.23546 0.23207 0.0
H1710 H 0.57043 0.23761 0.28232 0.0
C1711 C 0.57151 0.25577 0.22792 0.0
H1712 H 0.57314 0.21353 0.25546 0.0
C1713 C 0.56987 0.26952 0.24324 0.0
C1714 C 0.56954 0.26321 0.26302 0.0
H1715 H 0.57186 0.26109 0.21281 0.0
H1716 H 0.5691 0.2851 0.23959 0.0
C1717 C 0.57062 0.24288 0.26719 0.0
C1718 C 0.40977 0.73978 0.25264 0.0
C1719 C 0.4052 0.73476 0.23303 0.0
H1720 H 0.41582 0.72939 0.28186 0.0
C1721 C 0.40323 0.71471 0.22785 0.0
H1722 H 0.41142 0.75511 0.25705 0.0
C1723 C 0.40573 0.69994 0.24209 0.0
C1724 C 0.4103 0.705 0.26171 0.0
H1725 H 0.39971 0.71044 0.21281 0.0
H1726 H 0.40408 0.68459 0.23775 0.0
C1727 C 0.41232 0.72505 0.26684 0.0
C1728 C 0.10394 0.13904 0.26563 0.0
C1729 C 0.11366 0.15742 0.26483 0.0
H1730 H 0.10707 0.10749 0.26604 0.0
C1731 C 0.13395 0.15791 0.26051 0.0
H1732 H 0.08826 0.13823 0.26884 0.0
C1733 C 0.14468 0.14032 0.25878 0.0
C1734 C 0.13531 0.12195 0.26149 0.0
H1735 H 0.14179 0.17186 0.25965 0.0
H1736 H 0.16054 0.14119 0.25664 0.0
C1737 C 0.1147 0.12143 0.26402 0.0
C1738 C 0.88433 0.09741 0.29637 0.0
C1739 C 0.87105 0.10114 0.2808 0.0
H1740 H 0.90812 0.10859 0.31406 0.0
C1741 C 0.8737 0.11811 0.26913 0.0
H1742 H 0.8827 0.0844 0.30557 0.0
C1743 C 0.88817 0.13199 0.27406 0.0
C1744 C 0.90029 0.12909 0.29069 0.0
H1745 H 0.86376 0.12133 0.25698 0.0
H1746 H 0.88911 0.1455 0.2655 0.0
C1747 C 0.89886 0.11128 0.30126 0.0
C1748 C 0.84936 0.83908 0.27643 0.0
C1749 C 0.86869 0.84328 0.28278 0.0
H1750 H 0.81987 0.84998 0.27256 0.0
C1751 C 0.87362 0.86277 0.28805 0.0
H1752 H 0.84517 0.82419 0.27223 0.0
C1753 C 0.85914 0.87752 0.28826 0.0
C1754 C 0.83951 0.87301 0.28321 0.0
H1755 H 0.88844 0.86645 0.29292 0.0
H1756 H 0.86316 0.89222 0.29325 0.0
C1757 C 0.83487 0.85384 0.27665 0.0
C1758 C 0.13063 0.86173 0.26465 0.0
C1759 C 0.12941 0.87882 0.27641 0.0
H1760 H 0.11802 0.83352 0.25773 0.0
C1761 C 0.11269 0.88178 0.28838 0.0
H1762 H 0.14332 0.85914 0.2552 0.0
C1763 C 0.09822 0.86716 0.2898 0.0
C1764 C 0.10026 0.84935 0.2793 0.0
H1765 H 0.11128 0.89491 0.29747 0.0
H1766 H 0.08603 0.86937 0.29997 0.0
C1767 C 0.11615 0.84707 0.26609 0.0
C1768 C 0.11043 0.86247 0.6901 0.0
C1769 C 0.1135 0.84252 0.69499 0.0
H1770 H 0.12338 0.89118 0.68705 0.0
C1771 C 0.13181 0.83666 0.70289 0.0
H1772 H 0.09642 0.86741 0.68408 0.0
C1773 C 0.14721 0.85028 0.70466 0.0
C1774 C 0.14455 0.86993 0.69849 0.0
H1775 H 0.13452 0.82137 0.70691 0.0
H1776 H 0.16146 0.84517 0.70994 0.0
C1777 C 0.12586 0.87607 0.6918 0.0
C1778 C 0.11034 0.0924 0.69794 0.0
C1779 C 0.12757 0.0983 0.70797 0.0
H1780 H 0.08219 0.10122 0.68636 0.0
C1781 C 0.12832 0.11723 0.71652 0.0
H1782 H 0.10933 0.07785 0.69127 0.0
C1783 C 0.11286 0.13061 0.71361 0.0
C1784 C 0.09635 0.12525 0.7022 0.0
H1785 H 0.14136 0.12215 0.72442 0.0
H1786 H 0.11433 0.14549 0.71942 0.0
C1787 C 0.09481 0.10578 0.69511 0.0
C1788 C 0.85476 0.10059 0.68943 0.0
C1789 C 0.83575 0.10355 0.69725 0.0
H1790 H 0.88277 0.11362 0.68255 0.0
C1791 C 0.83122 0.12166 0.70645 0.0
H1792 H 0.85867 0.08675 0.68233 0.0
C1793 C 0.84505 0.13699 0.70669 0.0
C1794 C 0.86356 0.1345 0.69762 0.0
H1795 H 0.81671 0.12428 0.71273 0.0
H1796 H 0.84083 0.1511 0.71305 0.0
C1797 C 0.86854 0.11597 0.68956 0.0
C1798 C 0.83696 0.85544 0.72048 0.0
C1799 C 0.83634 0.87355 0.71035 0.0
H1800 H 0.85359 0.82919 0.72666 0.0
C1801 C 0.85346 0.88032 0.7007 0.0
H1802 H 0.82402 0.84991 0.72813 0.0
C1803 C 0.87042 0.86852 0.69994 0.0
C1804 C 0.8705 0.84971 0.70874 0.0
H1805 H 0.85345 0.89432 0.6929 0.0
H1806 H 0.88302 0.87366 0.69149 0.0
C1807 C 0.8539 0.84359 0.71964 0.0
C1808 C 0.27998 0.12856 0.14833 0.0
C1809 C 0.29054 0.11122 0.14382 0.0
H1810 H 0.27059 0.15714 0.1385 0.0
C1811 C 0.298 0.10857 0.12463 0.0
H1812 H 0.27393 0.13093 0.16298 0.0
C1813 C 0.29613 0.12363 0.1106 0.0
C1814 C 0.2867 0.14151 0.11555 0.0
H1815 H 0.30614 0.09531 0.12074 0.0
H1816 H 0.30287 0.12162 0.0962 0.0
C1817 C 0.27803 0.14356 0.13431 0.0
C1818 C 0.87672 0.26847 0.11817 0.0
C1819 C 0.85626 0.26549 0.12011 0.0
H1820 H 0.90408 0.27396 0.13308 0.0
C1821 C 0.84819 0.26249 0.13902 0.0
H1822 H 0.88335 0.27067 0.10376 0.0
C1823 C 0.86003 0.26447 0.1558 0.0
C1824 C 0.88011 0.26938 0.1539 0.0
H1825 H 0.83248 0.26001 0.14094 0.0
H1826 H 0.85317 0.2634 0.17024 0.0
C1827 C 0.88858 0.27038 0.13496 0.0
C1828 C 0.68066 0.88291 0.12704 0.0
C1829 C 0.68433 0.87834 0.14697 0.0
H1830 H 0.67944 0.87213 0.09729 0.0
C1831 C 0.69169 0.85955 0.1519 0.0
H1832 H 0.6751 0.89734 0.12283 0.0
C1833 C 0.69426 0.84518 0.13731 0.0
C1834 C 0.68948 0.84936 0.11754 0.0
H1835 H 0.69479 0.85568 0.16713 0.0
H1836 H 0.69917 0.83055 0.14166 0.0
C1837 C 0.68321 0.86851 0.11243 0.0
C1838 C 0.10651 0.67501 0.12868 0.0
C1839 C 0.10479 0.68837 0.14449 0.0
H1840 H 0.1212 0.66794 0.10159 0.0
C1841 C 0.11527 0.7063 0.14387 0.0
H1842 H 0.09849 0.66114 0.12871 0.0
C1843 C 0.12824 0.71024 0.12829 0.0
C1844 C 0.13093 0.69628 0.11314 0.0
H1845 H 0.11411 0.71692 0.15582 0.0
H1846 H 0.13686 0.72375 0.12864 0.0
C1847 C 0.11948 0.67893 0.11314 0.0
C1848 C 0.30926 0.85789 0.87851 0.0
C1849 C 0.29411 0.84384 0.87636 0.0
H1850 H 0.324 0.88294 0.86602 0.0
C1851 C 0.2807 0.84564 0.86062 0.0
H1852 H 0.31972 0.85691 0.8906 0.0
C1853 C 0.28318 0.86051 0.84654 0.0
C1854 C 0.29905 0.87383 0.84804 0.0
H1855 H 0.26884 0.83505 0.85868 0.0
H1856 H 0.27316 0.86104 0.83405 0.0
C1857 C 0.31168 0.87281 0.86447 0.0
C1858 C 0.11362 0.28537 0.86764 0.0
C1859 C 0.13281 0.27755 0.86603 0.0
H1860 H 0.08717 0.29378 0.8524 0.0
C1861 C 0.13908 0.26971 0.84783 0.0
H1862 H 0.10838 0.29147 0.88151 0.0
C1863 C 0.12697 0.27106 0.83117 0.0
C1864 C 0.10839 0.28027 0.83245 0.0
H1865 H 0.15377 0.26348 0.84618 0.0
H1866 H 0.13259 0.26579 0.81711 0.0
C1867 C 0.1015 0.28674 0.85097 0.0
C1868 C 0.71018 0.1619 0.85038 0.0
C1869 C 0.70522 0.15966 0.87041 0.0
H1870 H 0.71176 0.14821 0.82191 0.0
C1871 C 0.70042 0.14077 0.87761 0.0
H1872 H 0.71409 0.17626 0.84447 0.0
C1873 C 0.6991 0.12468 0.8647 0.0
C1874 C 0.70258 0.12726 0.8444 0.0
H1875 H 0.69669 0.1386 0.89304 0.0
H1876 H 0.69431 0.11052 0.87045 0.0
C1877 C 0.70889 0.14581 0.83749 0.0
C1878 C 0.86591 0.71771 0.84451 0.0
C1879 C 0.88085 0.70344 0.8469 0.0
H1880 H 0.83953 0.73064 0.85634 0.0
C1881 C 0.88195 0.69281 0.8647 0.0
H1882 H 0.8648 0.72623 0.83098 0.0
C1883 C 0.86746 0.69532 0.8792 0.0
C1884 C 0.85169 0.70854 0.87615 0.0
H1885 H 0.89337 0.68179 0.86697 0.0
H1886 H 0.86806 0.68616 0.89233 0.0
C1887 C 0.85146 0.72027 0.85903 0.0
C1888 C 0.11131 0.30769 0.10633 0.0
C1889 C 0.13053 0.30158 0.11143 0.0
H1890 H 0.08297 0.31734 0.11681 0.0
C1891 C 0.13526 0.29864 0.13142 0.0
H1892 H 0.10727 0.31006 0.09101 0.0
C1893 C 0.12145 0.30292 0.14612 0.0
C1894 C 0.10262 0.31013 0.1411 0.0
H1895 H 0.14994 0.2939 0.13579 0.0
H1896 H 0.12578 0.30123 0.16145 0.0
C1897 C 0.09743 0.31191 0.12107 0.0
C1898 C 0.12919 0.70693 0.86135 0.0
C1899 C 0.12624 0.6939 0.87725 0.0
H1900 H 0.12033 0.71546 0.8322 0.0
C1901 C 0.11026 0.68066 0.87669 0.0
H1902 H 0.14136 0.71735 0.86144 0.0
C1903 C 0.09829 0.6795 0.8599 0.0
C1904 C 0.10207 0.69163 0.84347 0.0
H1905 H 0.10762 0.67047 0.88876 0.0
H1906 H 0.08663 0.66852 0.85948 0.0
C1907 C 0.11718 0.70583 0.8446 0.0
C1908 C 0.2771 0.12996 0.86917 0.0
C1909 C 0.29094 0.13036 0.88465 0.0
H1910 H 0.2682 0.11632 0.84207 0.0
C1911 C 0.30531 0.11537 0.88582 0.0
H1912 H 0.26579 0.14127 0.86797 0.0
C1913 C 0.30671 0.10107 0.87094 0.0
C1914 C 0.29376 0.10157 0.85471 0.0
H1915 H 0.31613 0.11529 0.89764 0.0
H1916 H 0.31855 0.09028 0.87165 0.0
C1917 C 0.2785 0.11568 0.85433 0.0
C1918 C 0.88793 0.30514 0.87232 0.0
C1919 C 0.87027 0.29421 0.8724 0.0
H1920 H 0.91187 0.31646 0.85497 0.0
C1921 C 0.86439 0.28426 0.85514 0.0
H1922 H 0.89281 0.31295 0.88544 0.0
C1923 C 0.87524 0.2863 0.83774 0.0
C1924 C 0.89214 0.29835 0.8373 0.0
H1925 H 0.85087 0.27565 0.85482 0.0
H1926 H 0.86989 0.27914 0.82444 0.0
C1927 C 0.89878 0.30721 0.85488 0.0
C1928 C 0.69161 0.86432 0.87143 0.0
C1929 C 0.67704 0.86177 0.88598 0.0
H1930 H 0.70059 0.88017 0.84563 0.0
C1931 C 0.66118 0.87519 0.88701 0.0
H1932 H 0.70405 0.85427 0.87036 0.0
C1933 C 0.65919 0.89007 0.87282 0.0
C1934 C 0.67301 0.89166 0.85741 0.0
H1935 H 0.64976 0.87358 0.89815 0.0
H1936 H 0.64632 0.89962 0.87333 0.0
C1937 C 0.68959 0.87913 0.85725 0.0
C1938 C 0.85233 0.71194 0.12839 0.0
C1939 C 0.85537 0.70361 0.1096 0.0
H1940 H 0.86276 0.71453 0.15812 0.0
C1941 C 0.87307 0.69337 0.10578 0.0
H1942 H 0.83887 0.72 0.13174 0.0
C1943 C 0.8868 0.69025 0.12093 0.0
C1944 C 0.88298 0.69728 0.14011 0.0
H1945 H 0.87582 0.68684 0.09141 0.0
H1946 H 0.89983 0.68142 0.11787 0.0
C1947 C 0.86599 0.70877 0.14352 0.0
C1948 C 0.32245 0.88415 0.12327 0.0
C1949 C 0.30602 0.88923 0.13492 0.0
H1950 H 0.33328 0.86697 0.09899 0.0
C1951 C 0.2871 0.8829 0.12911 0.0
H1952 H 0.33719 0.88898 0.12733 0.0
C1953 C 0.28486 0.87029 0.11292 0.0
C1954 C 0.3015 0.86389 0.10225 0.0
H1955 H 0.27414 0.88675 0.13771 0.0
H1956 H 0.27026 0.86466 0.10949 0.0
C1957 C 0.3202 0.87161 0.10701 0.0
C1958 C 0.68189 0.12453 0.09564 0.0
C1959 C 0.6948 0.14078 0.09648 0.0
H1960 H 0.67238 0.09769 0.10953 0.0
C1961 C 0.71011 0.14089 0.11051 0.0
H1962 H 0.67004 0.12404 0.08488 0.0
C1963 C 0.71151 0.12583 0.12451 0.0
C1964 C 0.69758 0.11044 0.12475 0.0
H1965 H 0.72043 0.15313 0.11133 0.0
H1966 H 0.7228 0.12689 0.13583 0.0
C1967 C 0.68326 0.10945 0.10972 0.0
C1968 C 0.11189 0.61562 0.78561 0.0
C1969 C 0.11598 0.63502 0.77938 0.0
H1970 H 0.12383 0.58754 0.79416 0.0
C1971 C 0.13553 0.6402 0.77463 0.0
H1972 H 0.09694 0.6112 0.78932 0.0
C1973 C 0.1509 0.6267 0.77746 0.0
C1974 C 0.14698 0.60778 0.78506 0.0
H1975 H 0.13911 0.65503 0.76972 0.0
H1976 H 0.16594 0.63142 0.77458 0.0
C1977 C 0.12728 0.6021 0.78842 0.0
C1978 C 0.87464 0.622 0.8003 0.0
C1979 C 0.87366 0.63903 0.78846 0.0
H1980 H 0.85933 0.59664 0.81137 0.0
C1981 C 0.85682 0.6423 0.77673 0.0
H1982 H 0.88748 0.61907 0.80943 0.0
C1983 C 0.8407 0.62945 0.77783 0.0
C1984 C 0.84117 0.61318 0.79072 0.0
H1985 H 0.8557 0.65528 0.76741 0.0
H1986 H 0.82754 0.6328 0.76932 0.0
C1987 C 0.85851 0.60919 0.80144 0.0
C1988 C 0.8857 0.37966 0.78942 0.0
C1989 C 0.88117 0.36245 0.77866 0.0
H1990 H 0.87442 0.40581 0.80343 0.0
C1991 C 0.86187 0.35981 0.77145 0.0
H1992 H 0.90047 0.38208 0.79513 0.0
C1993 C 0.84699 0.37325 0.77633 0.0
C1994 C 0.85117 0.38964 0.78839 0.0
H1995 H 0.85797 0.34674 0.76302 0.0
H1996 H 0.83203 0.37029 0.77141 0.0
C1997 C 0.87079 0.3932 0.79422 0.0
C1998 C 0.15002 0.35754 0.77063 0.0
C1999 C 0.14505 0.37529 0.78027 0.0
H2000 H 0.14011 0.32914 0.76078 0.0
C2001 C 0.12522 0.37897 0.78521 0.0
H2002 H 0.1652 0.35439 0.7665 0.0
C2003 C 0.11086 0.36449 0.78197 0.0
C2004 C 0.11612 0.34615 0.77365 0.0
H2005 H 0.12096 0.39258 0.79256 0.0
H2006 H 0.09587 0.36727 0.78691 0.0
C2007 C 0.13566 0.3431 0.76729 0.0
C2008 C 0.09516 0.39652 0.16823 0.0
C2009 C 0.09372 0.38608 0.18613 0.0
H2010 H 0.11241 0.41637 0.15063 0.0
C2011 C 0.10686 0.39059 0.20156 0.0
H2012 H 0.08513 0.39344 0.15612 0.0
C2013 C 0.12247 0.40372 0.19842 0.0
C2014 C 0.12516 0.41249 0.17979 0.0
H2015 H 0.10598 0.3829 0.21559 0.0
H2016 H 0.13318 0.40588 0.21013 0.0
C2017 C 0.11081 0.40962 0.16506 0.0
C2018 C 0.13927 0.60376 0.20054 0.0
C2019 C 0.15712 0.61248 0.20666 0.0
H2020 H 0.10811 0.60756 0.19635 0.0
C2021 C 0.15665 0.63095 0.21615 0.0
H2022 H 0.13919 0.58944 0.19333 0.0
C2023 C 0.13884 0.64129 0.21794 0.0
C2024 C 0.12125 0.63332 0.21024 0.0
H2025 H 0.17017 0.63794 0.22117 0.0
H2026 H 0.1391 0.65603 0.22425 0.0
C2027 C 0.12146 0.61411 0.20232 0.0
C2028 C 0.86468 0.59769 0.17388 0.0
C2029 C 0.84712 0.59924 0.18488 0.0
H2030 H 0.89303 0.61021 0.16758 0.0
C2031 C 0.84573 0.61354 0.19989 0.0
H2032 H 0.86619 0.58671 0.16231 0.0
C2033 C 0.8611 0.62697 0.20294 0.0
C2034 C 0.87808 0.62629 0.19101 0.0
H2035 H 0.8324 0.61496 0.20869 0.0
H2036 H 0.85924 0.63847 0.21396 0.0
C2037 C 0.88004 0.61113 0.17693 0.0
C2038 C 0.86345 0.37537 0.19393 0.0
C2039 C 0.84366 0.37211 0.19927 0.0
H2040 H 0.89259 0.36319 0.19196 0.0
C2041 C 0.83859 0.35461 0.20927 0.0
H2042 H 0.86777 0.38876 0.18627 0.0
C2043 C 0.85283 0.34001 0.21264 0.0
C2044 C 0.87228 0.34266 0.2059 0.0
H2045 H 0.82344 0.35179 0.21366 0.0
H2046 H 0.84834 0.32624 0.21949 0.0
C2047 C 0.87763 0.36072 0.19714 0.0
C2048 C 0.28713 0.61874 0.60686 0.0
C2049 C 0.28457 0.63859 0.61252 0.0
H2050 H 0.291 0.58881 0.61644 0.0
C2051 C 0.28179 0.64316 0.63259 0.0
H2052 H 0.28923 0.61479 0.59147 0.0
C2053 C 0.28284 0.62829 0.64687 0.0
C2054 C 0.28665 0.60861 0.64132 0.0
H2055 H 0.27973 0.65832 0.63736 0.0
H2056 H 0.28152 0.63235 0.66232 0.0
C2057 C 0.28815 0.60387 0.62115 0.0
C2058 C 0.86455 0.78011 0.64002 0.0
C2059 C 0.87697 0.79675 0.64037 0.0
H2060 H 0.83978 0.76593 0.62636 0.0
C2061 C 0.87517 0.81111 0.62549 0.0
H2062 H 0.8657 0.76875 0.65125 0.0
C2063 C 0.86034 0.80949 0.61124 0.0
C2064 C 0.8471 0.79348 0.61166 0.0
H2065 H 0.88463 0.82405 0.62537 0.0
H2066 H 0.85869 0.82123 0.60046 0.0
C2067 C 0.84973 0.77848 0.62576 0.0
C2068 C 0.71361 0.33314 0.63547 0.0
C2069 C 0.70843 0.33977 0.61647 0.0
H2070 H 0.71599 0.34034 0.66624 0.0
C2071 C 0.70399 0.35988 0.61364 0.0
H2072 H 0.71716 0.31772 0.63808 0.0
C2073 C 0.7033 0.3728 0.62975 0.0
C2074 C 0.70705 0.36584 0.64896 0.0
H2075 H 0.70003 0.36543 0.59915 0.0
H2076 H 0.69888 0.38801 0.62725 0.0
C2077 C 0.71293 0.34608 0.6516 0.0
C2078 C 0.11275 0.18836 0.60607 0.0
C2079 C 0.11706 0.17054 0.5963 0.0
H2080 H 0.09604 0.20261 0.62885 0.0
C2081 C 0.10546 0.15374 0.6002 0.0
H2082 H 0.12136 0.20158 0.60323 0.0
C2083 C 0.09098 0.15432 0.61491 0.0
C2084 C 0.08789 0.1717 0.62588 0.0
H2085 H 0.10839 0.13983 0.59278 0.0
H2086 H 0.08307 0.14084 0.61847 0.0
C2087 C 0.09826 0.18895 0.62075 0.0
C2088 C 0.26232 0.34757 0.3729 0.0
C2089 C 0.26311 0.3272 0.36886 0.0
H2090 H 0.26065 0.37681 0.36094 0.0
C2091 C 0.25972 0.32057 0.34945 0.0
H2092 H 0.26467 0.35308 0.38777 0.0
C2093 C 0.2574 0.33417 0.33407 0.0
C2094 C 0.25841 0.35459 0.33789 0.0
H2095 H 0.26009 0.30493 0.34593 0.0
H2096 H 0.25614 0.32868 0.31907 0.0
C2097 C 0.25995 0.36116 0.35754 0.0
C2098 C 0.12553 0.78023 0.33952 0.0
C2099 C 0.10838 0.79146 0.343 0.0
H2100 H 0.15471 0.77287 0.34921 0.0
C2101 C 0.10688 0.80262 0.36046 0.0
H2102 H 0.12704 0.77141 0.32621 0.0
C2103 C 0.12277 0.80349 0.37363 0.0
C2104 C 0.14036 0.79318 0.36952 0.0
H2105 H 0.0938 0.81139 0.36352 0.0
H2106 H 0.12157 0.81286 0.38658 0.0
C2107 C 0.14138 0.78107 0.35267 0.0
C2108 C 0.69467 0.6069 0.35502 0.0
C2109 C 0.70301 0.61075 0.33641 0.0
H2110 H 0.68825 0.61809 0.3839 0.0
C2111 C 0.71348 0.62845 0.33345 0.0
H2112 H 0.6866 0.59333 0.35775 0.0
C2113 C 0.71445 0.64264 0.34846 0.0
C2114 C 0.70492 0.63933 0.36661 0.0
H2115 H 0.72011 0.63176 0.31925 0.0
H2116 H 0.72181 0.65656 0.34549 0.0
C2117 C 0.6956 0.62108 0.36999 0.0
C2118 C 0.87975 0.20096 0.36191 0.0
C2119 C 0.89216 0.18427 0.36158 0.0
H2120 H 0.85283 0.21368 0.37259 0.0
C2121 C 0.88809 0.16832 0.37422 0.0
H2122 H 0.88266 0.21355 0.35242 0.0
C2123 C 0.87094 0.16839 0.38575 0.0
C2124 C 0.85769 0.18442 0.38481 0.0
H2125 H 0.89745 0.1553 0.37428 0.0
H2126 H 0.8675 0.15542 0.39451 0.0
C2127 C 0.86267 0.20105 0.37345 0.0
C2128 C 0.11888 0.80979 0.59634 0.0
C2129 C 0.13347 0.795 0.59537 0.0
H2130 H 0.09366 0.82107 0.61186 0.0
C2131 C 0.13213 0.7786 0.60805 0.0
H2132 H 0.11949 0.82256 0.58668 0.0
C2133 C 0.11735 0.77774 0.62243 0.0
C2134 C 0.10365 0.79326 0.62439 0.0
H2135 H 0.1431 0.7669 0.60754 0.0
H2136 H 0.11731 0.76542 0.63268 0.0
C2137 C 0.10408 0.80892 0.61074 0.0
C2138 C 0.15557 0.20174 0.35256 0.0
C2139 C 0.14753 0.19546 0.37065 0.0
H2140 H 0.14967 0.21149 0.32306 0.0
C2141 C 0.12706 0.19693 0.37375 0.0
H2142 H 0.17135 0.20095 0.34985 0.0
C2143 C 0.11466 0.20297 0.35842 0.0
C2144 C 0.12258 0.20766 0.3398 0.0
H2145 H 0.12051 0.19235 0.38764 0.0
H2146 H 0.09881 0.20289 0.36082 0.0
C2147 C 0.14318 0.20783 0.33724 0.0
C2148 C 0.30028 0.5888 0.37504 0.0
C2149 C 0.29054 0.58863 0.35671 0.0
H2150 H 0.30627 0.60505 0.40155 0.0
C2151 C 0.27686 0.60368 0.35235 0.0
H2152 H 0.31082 0.57732 0.37881 0.0
C2153 C 0.27415 0.61946 0.36539 0.0
C2154 C 0.28517 0.62052 0.38295 0.0
H2155 H 0.26899 0.6038 0.3384 0.0
H2156 H 0.26436 0.63142 0.36112 0.0
C2157 C 0.29765 0.60466 0.38805 0.0
C2158 C 0.86538 0.80584 0.38215 0.0
C2159 C 0.84746 0.79536 0.38162 0.0
H2160 H 0.89233 0.81276 0.36705 0.0
C2161 C 0.84409 0.78176 0.36628 0.0
H2162 H 0.86838 0.81636 0.39387 0.0
C2163 C 0.85779 0.77962 0.35102 0.0
C2164 C 0.87506 0.79113 0.3508 0.0
H2165 H 0.83046 0.77335 0.3656 0.0
H2166 H 0.85436 0.7697 0.33891 0.0
C2167 C 0.87907 0.80376 0.36682 0.0
C2168 C 0.69916 0.36992 0.37716 0.0
C2169 C 0.70744 0.35122 0.3734 0.0
H2170 H 0.69077 0.39801 0.36515 0.0
C2171 C 0.71612 0.34749 0.35489 0.0
H2172 H 0.69244 0.37323 0.39133 0.0
C2173 C 0.7152 0.36168 0.33994 0.0
C2174 C 0.70553 0.37979 0.34322 0.0
H2175 H 0.72272 0.33325 0.35162 0.0
H2176 H 0.72112 0.35801 0.3255 0.0
C2177 C 0.69819 0.3841 0.36218 0.0
C2178 C 0.86618 0.18328 0.61592 0.0
C2179 C 0.86041 0.19093 0.63435 0.0
H2180 H 0.8568 0.17339 0.58732 0.0
C2181 C 0.84061 0.19649 0.63733 0.0
H2182 H 0.88137 0.17892 0.61322 0.0
C2183 C 0.82656 0.1932 0.6226 0.0
C2184 C 0.8321 0.18439 0.60462 0.0
H2185 H 0.83575 0.20247 0.65139 0.0
H2186 H 0.81124 0.19686 0.6256 0.0
C2187 C 0.85212 0.18007 0.60113 0.0
C2188 C 0.26302 0.33403 0.62587 0.0
C2189 C 0.27056 0.33611 0.60663 0.0
H2190 H 0.2597 0.34715 0.65448 0.0
C2191 C 0.27832 0.35446 0.60074 0.0
H2192 H 0.25685 0.32009 0.63077 0.0
C2193 C 0.27992 0.36998 0.6143 0.0
C2194 C 0.27381 0.36737 0.63398 0.0
H2195 H 0.28412 0.35652 0.58596 0.0
H2196 H 0.28695 0.3836 0.60966 0.0
C2197 C 0.26465 0.34954 0.63944 0.0
C2198 C 0.68145 0.58814 0.6133 0.0
C2199 C 0.69548 0.58757 0.62859 0.0
H2200 H 0.67191 0.6025 0.58678 0.0
C2201 C 0.71254 0.59934 0.62715 0.0
H2202 H 0.66822 0.5791 0.61396 0.0
C2203 C 0.71467 0.61271 0.61157 0.0
C2204 C 0.69977 0.61452 0.59721 0.0
H2205 H 0.72369 0.59907 0.63864 0.0
H2206 H 0.72738 0.62246 0.61147 0.0
C2207 C 0.68357 0.60151 0.59772 0.0
C2208 C 0.62921 0.13602 0.7834 0.0
C2209 C 0.63048 0.12233 0.79895 0.0
H2210 H 0.61531 0.16222 0.77236 0.0
C2211 C 0.61697 0.12356 0.81469 0.0
H2212 H 0.63941 0.13537 0.77105 0.0
C2213 C 0.60319 0.13893 0.81543 0.0
C2214 C 0.60273 0.15331 0.80048 0.0
H2215 H 0.61759 0.11316 0.82684 0.0
H2216 H 0.59347 0.14 0.82813 0.0
C2217 C 0.61545 0.1514 0.78416 0.0
C2218 C 0.3591 0.14386 0.78027 0.0
C2219 C 0.37754 0.14221 0.78969 0.0
H2220 H 0.33151 0.12992 0.77361 0.0
C2221 C 0.38326 0.1239 0.7977 0.0
H2222 H 0.35437 0.15776 0.77384 0.0
C2223 C 0.37015 0.10794 0.79759 0.0
C2224 C 0.35115 0.11006 0.78943 0.0
H2225 H 0.39745 0.1222 0.80496 0.0
H2226 H 0.37452 0.0943 0.80477 0.0
C2227 C 0.34602 0.12791 0.78013 0.0
C2228 C 0.36536 0.83359 0.77465 0.0
C2229 C 0.37943 0.83039 0.78958 0.0
H2230 H 0.34334 0.85305 0.76287 0.0
C2231 C 0.38389 0.8458 0.8028 0.0
H2232 H 0.36176 0.82201 0.76416 0.0
C2233 C 0.3735 0.86365 0.80192 0.0
C2234 C 0.3584 0.86629 0.78792 0.0
H2235 H 0.39483 0.84379 0.81433 0.0
H2236 H 0.3765 0.87489 0.81296 0.0
C2237 C 0.35488 0.85138 0.77387 0.0
C2238 C 0.59744 0.88732 0.80598 0.0
C2239 C 0.61343 0.88934 0.79286 0.0
H2240 H 0.57365 0.8689 0.81591 0.0
C2241 C 0.61584 0.87544 0.7776 0.0
H2242 H 0.59521 0.89786 0.81785 0.0
C2243 C 0.60357 0.85891 0.7765 0.0
C2244 C 0.58866 0.85598 0.79064 0.0
H2245 H 0.62794 0.87672 0.76717 0.0
H2246 H 0.60649 0.84788 0.76523 0.0
C2247 C 0.58513 0.87074 0.80488 0.0
C2248 C 0.60059 0.88885 0.18361 0.0
C2249 C 0.61447 0.88853 0.19908 0.0
H2250 H 0.57672 0.87377 0.16925 0.0
C2251 C 0.61277 0.87407 0.21388 0.0
H2252 H 0.60149 0.89989 0.17204 0.0
C2253 C 0.59861 0.85912 0.21226 0.0
C2254 C 0.58593 0.8584 0.19583 0.0
H2255 H 0.62317 0.87354 0.22605 0.0
H2256 H 0.59843 0.84749 0.22327 0.0
C2257 C 0.58642 0.87388 0.18199 0.0
C2258 C 0.63266 0.14902 0.20399 0.0
C2259 C 0.61394 0.14621 0.19542 0.0
H2260 H 0.66171 0.13723 0.20849 0.0
C2261 C 0.60954 0.12799 0.18642 0.0
H2262 H 0.63643 0.16289 0.21108 0.0
C2263 C 0.62402 0.11331 0.18493 0.0
C2264 C 0.64312 0.11661 0.1924 0.0
H2265 H 0.5952 0.12541 0.17975 0.0
H2266 H 0.62049 0.09973 0.17717 0.0
C2267 C 0.64713 0.13434 0.20248 0.0
C2268 C 0.37302 0.10841 0.18901 0.0
C2269 C 0.35632 0.10941 0.20133 0.0
H2270 H 0.39876 0.12325 0.1782 0.0
C2271 C 0.35419 0.12551 0.2143 0.0
H2272 H 0.37508 0.09609 0.17895 0.0
C2273 C 0.36771 0.14111 0.21381 0.0
C2274 C 0.38358 0.14078 0.2004 0.0
H2275 H 0.34148 0.12663 0.224 0.0
H2276 H 0.36516 0.15385 0.22321 0.0
C2277 C 0.38656 0.12396 0.18857 0.0
C2278 C 0.34941 0.83003 0.21371 0.0
C2279 C 0.36979 0.83032 0.20978 0.0
H2280 H 0.32268 0.84687 0.21573 0.0
C2281 C 0.37942 0.84863 0.20764 0.0
H2282 H 0.34164 0.81614 0.21555 0.0
C2283 C 0.36858 0.86623 0.20768 0.0
C2284 C 0.34794 0.86579 0.20992 0.0
H2285 H 0.39517 0.8493 0.20475 0.0
H2286 H 0.3762 0.88002 0.2048 0.0
C2287 C 0.33857 0.84764 0.21381 0.0
C2288 C 0.79461 0.10038 0.59899 0.0
C2289 C 0.77912 0.11415 0.59727 0.0
H2290 H 0.80793 0.07771 0.61662 0.0
C2291 C 0.76328 0.11335 0.61068 0.0
H2292 H 0.80696 0.10057 0.58877 0.0
C2293 C 0.76386 0.10028 0.62663 0.0
C2294 C 0.78027 0.08782 0.62939 0.0
H2295 H 0.75108 0.1237 0.60962 0.0
H2296 H 0.75203 0.10082 0.63744 0.0
C2297 C 0.79519 0.08731 0.61495 0.0
C2298 C 0.36771 0.28054 0.60937 0.0
C2299 C 0.36627 0.27296 0.62863 0.0
H2300 H 0.35244 0.28758 0.58257 0.0
C2301 C 0.34844 0.26426 0.63479 0.0
H2302 H 0.38129 0.2873 0.60421 0.0
C2303 C 0.33191 0.26444 0.6224 0.0
C2304 C 0.33295 0.27336 0.60369 0.0
H2305 H 0.34693 0.25824 0.64954 0.0
H2306 H 0.31808 0.25848 0.62787 0.0
C2307 C 0.35117 0.28077 0.597 0.0
C2308 C 0.19304 0.86834 0.603 0.0
C2309 C 0.20185 0.84955 0.60414 0.0
H2310 H 0.18645 0.89539 0.61816 0.0
C2311 C 0.21317 0.84463 0.62085 0.0
H2312 H 0.18431 0.87254 0.59024 0.0
C2313 C 0.21445 0.8577 0.63676 0.0
C2314 C 0.20438 0.87588 0.63626 0.0
H2315 H 0.22027 0.8303 0.62204 0.0
H2316 H 0.22246 0.8531 0.64985 0.0
C2317 C 0.19427 0.88141 0.61897 0.0
C2318 C 0.61646 0.69078 0.61119 0.0
C2319 C 0.6217 0.69739 0.63018 0.0
H2320 H 0.62673 0.68071 0.58296 0.0
C2321 C 0.64167 0.70116 0.63446 0.0
H2322 H 0.60116 0.6878 0.60748 0.0
C2323 C 0.65628 0.69696 0.62051 0.0
C2324 C 0.65115 0.68902 0.60202 0.0
H2325 H 0.64613 0.7063 0.64897 0.0
H2326 H 0.67163 0.69915 0.62454 0.0
C2327 C 0.63109 0.68665 0.59719 0.0
C2328 C 0.80078 0.87539 0.38265 0.0
C2329 C 0.78754 0.85942 0.38371 0.0
H2330 H 0.81107 0.90006 0.36567 0.0
C2331 C 0.77252 0.85774 0.36947 0.0
H2332 H 0.81246 0.87709 0.39348 0.0
C2333 C 0.77174 0.87085 0.35355 0.0
C2334 C 0.78595 0.88586 0.35163 0.0
H2335 H 0.76202 0.84565 0.36999 0.0
H2336 H 0.76065 0.86854 0.34222 0.0
C2337 C 0.79999 0.88853 0.36672 0.0
C2338 C 0.62355 0.28015 0.35363 0.0
C2339 C 0.60828 0.29412 0.35566 0.0
H2340 H 0.65173 0.27007 0.36398 0.0
C2341 C 0.60882 0.30751 0.37156 0.0
H2342 H 0.62349 0.2696 0.34155 0.0
C2343 C 0.62502 0.3078 0.38438 0.0
C2344 C 0.64093 0.29472 0.38151 0.0
H2345 H 0.59723 0.31842 0.37351 0.0
H2346 H 0.62549 0.31889 0.39596 0.0
C2347 C 0.63974 0.28044 0.36644 0.0
C2348 C 0.16153 0.0974 0.34807 0.0
C2349 C 0.17781 0.09499 0.33543 0.0
H2350 H 0.15055 0.11036 0.37475 0.0
C2351 C 0.19649 0.10182 0.34146 0.0
H2352 H 0.14701 0.09209 0.34387 0.0
C2353 C 0.19855 0.11222 0.35917 0.0
C2354 C 0.18196 0.11593 0.3711 0.0
H2355 H 0.20934 0.09996 0.33206 0.0
H2356 H 0.21289 0.11831 0.36293 0.0
C2357 C 0.16359 0.10777 0.36579 0.0
C2358 C 0.33905 0.68575 0.3525 0.0
C2359 C 0.34209 0.68262 0.37279 0.0
H2360 H 0.35172 0.68543 0.32356 0.0
C2361 C 0.36124 0.67844 0.37968 0.0
H2362 H 0.32445 0.68906 0.34678 0.0
C2363 C 0.37691 0.67638 0.36636 0.0
C2364 C 0.37359 0.67842 0.34597 0.0
H2365 H 0.36399 0.676 0.39528 0.0
H2366 H 0.39139 0.67243 0.37196 0.0
C2367 C 0.35466 0.68364 0.33921 0.0
C2368 C 0.61895 0.27418 0.6262 0.0
C2369 C 0.60504 0.28961 0.62578 0.0
H2370 H 0.64635 0.263 0.61494 0.0
C2371 C 0.60701 0.30469 0.61163 0.0
H2372 H 0.61776 0.26233 0.63693 0.0
C2373 C 0.62338 0.30508 0.59907 0.0
C2374 C 0.63804 0.29042 0.60049 0.0
H2375 H 0.59645 0.31674 0.61093 0.0
H2376 H 0.62502 0.31739 0.58894 0.0
C2377 C 0.63535 0.27458 0.61366 0.0
C2378 C 0.61124 0.69922 0.36522 0.0
C2379 C 0.61425 0.70765 0.34648 0.0
H2380 H 0.62443 0.69029 0.39256 0.0
C2381 C 0.63265 0.71624 0.34209 0.0
H2382 H 0.59716 0.69259 0.36904 0.0
C2383 C 0.64826 0.71487 0.35552 0.0
C2384 C 0.64571 0.70493 0.37356 0.0
H2385 H 0.63535 0.72294 0.3278 0.0
H2386 H 0.66261 0.72062 0.35128 0.0
C2387 C 0.62686 0.69787 0.37866 0.0
C2388 C 0.79162 0.1449 0.33908 0.0
C2389 C 0.79129 0.13792 0.35864 0.0
H2390 H 0.79579 0.13772 0.30855 0.0
C2391 C 0.79303 0.11751 0.36216 0.0
H2392 H 0.79031 0.16056 0.33594 0.0
C2393 C 0.79624 0.10444 0.34649 0.0
C2394 C 0.79776 0.11159 0.32706 0.0
H2395 H 0.7928 0.11173 0.3771 0.0
H2396 H 0.79827 0.08887 0.34969 0.0
C2397 C 0.79484 0.13184 0.32342 0.0
C2398 C 0.37022 0.30738 0.37084 0.0
C2399 C 0.37479 0.29206 0.35755 0.0
H2400 H 0.35036 0.31799 0.3931 0.0
C2401 C 0.364 0.27433 0.35837 0.0
H2402 H 0.37834 0.3212 0.37056 0.0
C2403 C 0.34799 0.27251 0.37126 0.0
C2404 C 0.34251 0.28838 0.38351 0.0
H2405 H 0.36727 0.26224 0.34836 0.0
H2406 H 0.33933 0.25902 0.37091 0.0
C2407 C 0.35418 0.30557 0.38371 0.0
C2408 C 0.19144 0.88471 0.35264 0.0
C2409 C 0.19819 0.88025 0.33351 0.0
H2410 H 0.18727 0.87425 0.38224 0.0
C2411 C 0.20855 0.8625 0.33028 0.0
H2412 H 0.18349 0.89833 0.35556 0.0
C2413 C 0.21084 0.84881 0.34554 0.0
C2414 C 0.20271 0.85256 0.36429 0.0
H2415 H 0.21409 0.85876 0.31571 0.0
H2416 H 0.21798 0.83481 0.34232 0.0
C2417 C 0.19363 0.87094 0.36791 0.0
C2418 C 0.36689 0.67568 0.59445 0.0
C2419 C 0.35254 0.69042 0.59756 0.0
H2420 H 0.39351 0.66211 0.60494 0.0
C2421 C 0.35574 0.70479 0.61222 0.0
H2422 H 0.36488 0.66449 0.58314 0.0
C2423 C 0.37218 0.70347 0.62463 0.0
C2424 C 0.38563 0.68772 0.62262 0.0
H2425 H 0.34499 0.7164 0.61482 0.0
H2426 H 0.37368 0.71409 0.63656 0.0
C2427 C 0.3833 0.67432 0.60691 0.0
C2428 C 0.77398 0.85649 0.61758 0.0
C2429 C 0.77267 0.83608 0.62123 0.0
H2430 H 0.77477 0.88558 0.63003 0.0
C2431 C 0.7685 0.8295 0.64049 0.0
H2432 H 0.77707 0.862 0.60285 0.0
C2433 C 0.76719 0.84303 0.65607 0.0
C2434 C 0.77005 0.86332 0.65262 0.0
H2435 H 0.76733 0.81385 0.64371 0.0
H2436 H 0.76502 0.83749 0.67094 0.0
C2437 C 0.77269 0.87 0.63314 0.0
C2438 C 0.18357 0.10482 0.61212 0.0
C2439 C 0.18782 0.12509 0.61372 0.0
H2440 H 0.18018 0.07729 0.62734 0.0
C2441 C 0.19404 0.13279 0.63198 0.0
H2442 H 0.17878 0.0985 0.5982 0.0
C2443 C 0.19489 0.12066 0.64864 0.0
C2444 C 0.18944 0.10067 0.6473 0.0
H2445 H 0.19749 0.14836 0.6336 0.0
H2446 H 0.19897 0.12716 0.66271 0.0
C2447 C 0.18433 0.0927 0.6288 0.0
C2448 C 0.60787 0.62611 0.29609 0.0
C2449 C 0.61042 0.64399 0.28586 0.0
H2450 H 0.61967 0.59744 0.30254 0.0
C2451 C 0.62607 0.64579 0.27232 0.0
H2452 H 0.59583 0.62427 0.3065 0.0
C2453 C 0.6397 0.63043 0.27004 0.0
C2454 C 0.63786 0.61302 0.28121 0.0
H2455 H 0.62828 0.65937 0.26412 0.0
H2456 H 0.65217 0.63257 0.2602 0.0
C2457 C 0.62147 0.61072 0.29376 0.0
C2458 C 0.38524 0.59808 0.28591 0.0
C2459 C 0.39462 0.60491 0.30313 0.0
H2460 H 0.36305 0.57914 0.27373 0.0
C2461 C 0.39113 0.5951 0.32111 0.0
H2462 H 0.38781 0.60524 0.27181 0.0
C2463 C 0.37686 0.58021 0.32224 0.0
C2464 C 0.36596 0.57487 0.30538 0.0
H2465 H 0.39827 0.59995 0.3346 0.0
H2466 H 0.37335 0.57396 0.33656 0.0
C2467 C 0.37107 0.58312 0.28702 0.0
C2468 C 0.34992 0.33707 0.27823 0.0
C2469 C 0.36553 0.34371 0.29025 0.0
H2470 H 0.32034 0.3422 0.26806 0.0
C2471 C 0.36388 0.36208 0.2998 0.0
H2472 H 0.35085 0.32297 0.27064 0.0
C2473 C 0.34637 0.37297 0.29848 0.0
C2474 C 0.33031 0.36574 0.28743 0.0
H2475 H 0.37568 0.36756 0.30915 0.0
H2476 H 0.34515 0.38668 0.30671 0.0
C2477 C 0.33246 0.34805 0.27676 0.0
C2478 C 0.62044 0.38417 0.30019 0.0
C2479 C 0.63718 0.38016 0.28854 0.0
H2480 H 0.59305 0.3732 0.31167 0.0
C2481 C 0.63797 0.36255 0.27754 0.0
H2482 H 0.61942 0.3977 0.30874 0.0
C2483 C 0.62294 0.34855 0.27925 0.0
C2484 C 0.60685 0.35196 0.29194 0.0
H2485 H 0.65066 0.35913 0.26835 0.0
H2486 H 0.62438 0.33468 0.27132 0.0
C2487 C 0.60536 0.37017 0.30185 0.0
C2488 C 0.623 0.33526 0.70692 0.0
C2489 C 0.60642 0.34121 0.69588 0.0
H2490 H 0.65156 0.34312 0.71802 0.0
C2491 C 0.60498 0.36092 0.68951 0.0
H2492 H 0.6244 0.32018 0.71216 0.0
C2493 C 0.62058 0.37406 0.69284 0.0
C2494 C 0.63777 0.36768 0.70266 0.0
H2495 H 0.59232 0.36591 0.68105 0.0
H2496 H 0.61957 0.3889 0.68687 0.0
C2497 C 0.63853 0.34841 0.71033 0.0
C2498 C 0.61919 0.60287 0.68111 0.0
C2499 C 0.63695 0.60379 0.69182 0.0
H2500 H 0.59359 0.61861 0.67107 0.0
C2501 C 0.64138 0.62094 0.70271 0.0
H2502 H 0.61543 0.58981 0.67261 0.0
C2503 C 0.62889 0.63735 0.70191 0.0
C2504 C 0.61183 0.63694 0.69009 0.0
H2505 H 0.65492 0.62198 0.71121 0.0
H2506 H 0.6331 0.65067 0.70978 0.0
C2507 C 0.60674 0.61936 0.6802 0.0
C2508 C 0.38685 0.60699 0.66885 0.0
C2509 C 0.38971 0.62133 0.68361 0.0
H2510 H 0.36885 0.5831 0.65848 0.0
C2511 C 0.37833 0.62051 0.70095 0.0
H2512 H 0.39551 0.60724 0.65537 0.0
C2513 C 0.36314 0.60669 0.70275 0.0
C2514 C 0.35906 0.59354 0.68721 0.0
H2515 H 0.3804 0.63127 0.71265 0.0
H2516 H 0.35383 0.60716 0.71579 0.0
C2517 C 0.37159 0.59319 0.67063 0.0
C2518 C 0.35992 0.37104 0.66721 0.0
C2519 C 0.34588 0.37103 0.68252 0.0
H2520 H 0.38439 0.35601 0.65381 0.0
C2521 C 0.34725 0.35677 0.69754 0.0
H2522 H 0.35924 0.38192 0.65548 0.0
C2523 C 0.36161 0.34197 0.69659 0.0
C2524 C 0.37482 0.3412 0.68059 0.0
H2525 H 0.33668 0.3565 0.70958 0.0
H2526 H 0.36178 0.33066 0.70791 0.0
C2527 C 0.3743 0.35621 0.66625 0.0
C2528 C 0.7768 0.627 0.12699 0.0
C2529 C 0.78758 0.60974 0.12267 0.0
H2530 H 0.77107 0.65718 0.11944 0.0
C2531 C 0.79933 0.60912 0.10555 0.0
H2532 H 0.76755 0.62787 0.14006 0.0
C2533 C 0.8014 0.62597 0.09377 0.0
C2534 C 0.79173 0.64364 0.09894 0.0
H2535 H 0.80777 0.596 0.10186 0.0
H2536 H 0.8113 0.6254 0.08118 0.0
C2537 C 0.77886 0.64381 0.11523 0.0
C2538 C 0.32993 0.77682 0.1275 0.0
C2539 C 0.33722 0.78425 0.10955 0.0
H2540 H 0.33679 0.7675 0.15693 0.0
C2541 C 0.35775 0.78564 0.10672 0.0
H2542 H 0.31416 0.77544 0.13002 0.0
C2543 C 0.37071 0.78115 0.12215 0.0
C2544 C 0.36333 0.7751 0.14059 0.0
H2545 H 0.36378 0.79122 0.09297 0.0
H2546 H 0.38643 0.78338 0.11995 0.0
C2547 C 0.34289 0.77222 0.14289 0.0
C2548 C 0.20491 0.38084 0.11854 0.0
C2549 C 0.19019 0.39546 0.11706 0.0
H2550 H 0.21504 0.35244 0.10882 0.0
C2551 C 0.17567 0.39376 0.10229 0.0
H2552 H 0.21634 0.38183 0.12973 0.0
C2553 C 0.17495 0.37693 0.09031 0.0
C2554 C 0.18869 0.36155 0.09295 0.0
H2555 H 0.1642 0.40486 0.10076 0.0
H2556 H 0.16293 0.37549 0.0798 0.0
C2557 C 0.20415 0.364 0.10659 0.0
C2558 C 0.6043 0.19817 0.11736 0.0
C2559 C 0.60895 0.20783 0.13516 0.0
H2560 H 0.61432 0.18948 0.08862 0.0
C2561 C 0.62676 0.21843 0.13659 0.0
H2562 H 0.59062 0.18997 0.1158 0.0
C2563 C 0.64033 0.21813 0.12103 0.0
C2564 C 0.6363 0.20725 0.10378 0.0
H2565 H 0.63068 0.22608 0.15011 0.0
H2566 H 0.65439 0.22558 0.12293 0.0
C2567 C 0.61787 0.19789 0.10179 0.0
C2568 C 0.82296 0.38796 0.87663 0.0
C2569 C 0.80584 0.3881 0.86483 0.0
H2570 H 0.84017 0.3721 0.898 0.0
C2571 C 0.79144 0.37342 0.8677 0.0
H2572 H 0.83427 0.39915 0.87478 0.0
C2573 C 0.79483 0.35797 0.88092 0.0
C2574 C 0.81266 0.35695 0.89154 0.0
H2575 H 0.77804 0.37324 0.85892 0.0
H2576 H 0.78392 0.34629 0.88204 0.0
C2577 C 0.82634 0.37249 0.88991 0.0
C2578 C 0.60984 0.79674 0.88077 0.0
C2579 C 0.62945 0.79072 0.8774 0.0
H2580 H 0.58117 0.8016 0.8682 0.0
C2581 C 0.63458 0.78269 0.85894 0.0
H2582 H 0.60547 0.80294 0.8949 0.0
C2583 C 0.62071 0.78196 0.84369 0.0
C2584 C 0.60148 0.78923 0.84664 0.0
H2585 H 0.64957 0.77784 0.85596 0.0
H2586 H 0.62534 0.77651 0.82934 0.0
C2587 C 0.59595 0.796 0.8655 0.0
C2588 C 0.1802 0.61813 0.88698 0.0
C2589 C 0.19095 0.63588 0.88629 0.0
H2590 H 0.17403 0.59042 0.87294 0.0
C2591 C 0.20587 0.63812 0.872 0.0
H2592 H 0.16868 0.61596 0.89791 0.0
C2593 C 0.20898 0.62349 0.85775 0.0
C2594 C 0.19717 0.60641 0.85752 0.0
H2595 H 0.2145 0.65161 0.87122 0.0
H2596 H 0.21987 0.62607 0.84629 0.0
C2597 C 0.18327 0.60351 0.87269 0.0
C2598 C 0.34072 0.21028 0.865 0.0
C2599 C 0.34437 0.19908 0.88211 0.0
H2600 H 0.35166 0.21992 0.83692 0.0
C2601 C 0.3632 0.19078 0.88499 0.0
H2602 H 0.32636 0.21695 0.86247 0.0
C2603 C 0.37767 0.19244 0.87035 0.0
C2604 C 0.37355 0.2025 0.85265 0.0
H2605 H 0.36646 0.18215 0.89809 0.0
H2606 H 0.39173 0.18505 0.87252 0.0
C2607 C 0.35521 0.21201 0.8504 0.0
C2608 C 0.59606 0.80381 0.11775 0.0
C2609 C 0.59721 0.79323 0.13556 0.0
H2610 H 0.6109 0.81217 0.09108 0.0
C2611 C 0.6135 0.78076 0.13896 0.0
H2612 H 0.58362 0.81347 0.11474 0.0
C2613 C 0.62901 0.77989 0.12539 0.0
C2614 C 0.62855 0.7916 0.10827 0.0
H2615 H 0.61466 0.77229 0.15251 0.0
H2616 H 0.64181 0.77088 0.12886 0.0
C2617 C 0.61166 0.80305 0.10423 0.0
C2618 C 0.64557 0.23297 0.85555 0.0
C2619 C 0.6441 0.22514 0.87471 0.0
H2620 H 0.63097 0.23781 0.82788 0.0
C2621 C 0.62558 0.21886 0.88171 0.0
H2622 H 0.65966 0.23802 0.84983 0.0
C2623 C 0.60916 0.21883 0.86921 0.0
C2624 C 0.61103 0.22499 0.84948 0.0
H2625 H 0.62399 0.21295 0.89651 0.0
H2626 H 0.59535 0.2128 0.87465 0.0
C2627 C 0.62915 0.23286 0.843 0.0
C2628 C 0.78294 0.62051 0.86758 0.0
C2629 C 0.77697 0.62418 0.84803 0.0
H2630 H 0.79054 0.63303 0.89564 0.0
C2631 C 0.77167 0.6435 0.8425 0.0
H2632 H 0.78704 0.60574 0.87226 0.0
C2633 C 0.77377 0.65913 0.85584 0.0
C2634 C 0.78113 0.65566 0.87494 0.0
H2635 H 0.76695 0.64674 0.82753 0.0
H2636 H 0.77052 0.67402 0.85088 0.0
C2637 C 0.78499 0.63614 0.88094 0.0
C2638 C 0.35666 0.76772 0.87869 0.0
C2639 C 0.33646 0.76614 0.87406 0.0
H2640 H 0.38634 0.76751 0.86767 0.0
C2641 C 0.33089 0.75985 0.85506 0.0
H2642 H 0.36138 0.77238 0.89327 0.0
C2643 C 0.34518 0.75701 0.84043 0.0
C2644 C 0.36524 0.76045 0.84456 0.0
H2645 H 0.31543 0.75832 0.85114 0.0
H2646 H 0.34036 0.75341 0.82558 0.0
C2647 C 0.37095 0.7649 0.86404 0.0
C2648 C 0.20737 0.36013 0.85376 0.0
C2649 C 0.19314 0.37526 0.85298 0.0
H2650 H 0.21573 0.33236 0.86646 0.0
C2651 C 0.17728 0.37501 0.8664 0.0
H2652 H 0.21978 0.35998 0.84361 0.0
C2653 C 0.17494 0.35918 0.87943 0.0
C2654 C 0.18842 0.34336 0.87924 0.0
H2655 H 0.16612 0.38653 0.86617 0.0
H2656 H 0.16208 0.35893 0.88899 0.0
C2657 C 0.20503 0.34429 0.86679 0.0
C2658 C 0.35825 0.21584 0.14566 0.0
C2659 C 0.37595 0.20563 0.14177 0.0
H2660 H 0.32906 0.22293 0.13565 0.0
C2661 C 0.37853 0.1965 0.12328 0.0
H2662 H 0.35589 0.2231 0.15976 0.0
C2663 C 0.36316 0.19641 0.10948 0.0
C2664 C 0.34497 0.20545 0.11393 0.0
H2665 H 0.39205 0.18859 0.11985 0.0
H2666 H 0.36522 0.18842 0.09572 0.0
C2667 C 0.34289 0.21575 0.13186 0.0
C2668 C 0.78428 0.35373 0.12635 0.0
C2669 C 0.79837 0.36898 0.12702 0.0
H2670 H 0.77669 0.32528 0.11468 0.0
C2671 C 0.81495 0.36802 0.11454 0.0
H2672 H 0.77135 0.35411 0.1358 0.0
C2673 C 0.81808 0.35148 0.10258 0.0
C2674 C 0.80464 0.33567 0.10285 0.0
H2675 H 0.82604 0.37959 0.11472 0.0
H2676 H 0.83142 0.35076 0.09372 0.0
C2677 C 0.78738 0.33721 0.11433 0.0
C2678 C 0.21967 0.65175 0.14786 0.0
C2679 C 0.22019 0.63164 0.14263 0.0
H2680 H 0.21362 0.68133 0.13837 0.0
C2681 C 0.21799 0.62627 0.12268 0.0
H2682 H 0.22143 0.65632 0.16312 0.0
C2683 C 0.21349 0.64059 0.10852 0.0
C2684 C 0.21112 0.66047 0.11411 0.0
H2685 H 0.21846 0.61087 0.11822 0.0
H2686 H 0.21066 0.6359 0.09345 0.0
C2687 C 0.21515 0.66607 0.1337 0.0
C2688 C 0.00421 0.16703 0.31338 0.0
C2689 C 0.99159 0.18145 0.3214 0.0
H2690 H 0.03299 0.16051 0.30201 0.0
C2691 C -0.00077 0.20019 0.32618 0.0
H2692 H -0.00131 0.15245 0.30962 0.0
C2693 C 0.01879 0.20492 0.32154 0.0
C2694 C 0.031 0.19089 0.31228 0.0
H2695 H 0.9898 0.2116 0.33237 0.0
H2696 H 0.02408 0.21976 0.3245 0.0
C2697 C 0.0238 0.17169 0.30894 0.0
C2698 C 0.82235 0.00036 0.27631 0.0
C2699 C 0.81472 0.01349 0.29048 0.0
H2700 H 0.82502 0.97021 0.26693 0.0
C2701 C 0.80458 0.00593 0.30695 0.0
H2702 H 0.83025 0.00582 0.26348 0.0
C2703 C 0.80154 0.98562 0.30888 0.0
C2704 C 0.80863 0.97252 0.29442 0.0
H2705 H 0.79857 0.01572 0.31812 0.0
H2706 H 0.7933 0.98023 0.32152 0.0
C2707 C 0.81934 0.98001 0.27827 0.0
C2708 C -0.00276 0.81937 0.29227 0.0
C2709 C 0.00805 0.80746 0.30539 0.0
H2710 H 0.96865 0.82766 0.28157 0.0
C2711 C -0.00206 0.79573 0.31921 0.0
H2712 H 0.00469 0.82863 0.28152 0.0
C2713 C 0.97731 0.79513 0.31918 0.0
C2714 C 0.96652 0.80629 0.30538 0.0
H2715 H 0.00594 0.78645 0.32952 0.0
H2716 H 0.96985 0.78543 0.32952 0.0
C2717 C 0.97663 0.81883 0.29229 0.0
C2718 C 0.15719 0.98186 0.26639 0.0
C2719 C 0.162 0.97259 0.28436 0.0
H2720 H 0.15243 0.00936 0.25131 0.0
C2721 C 0.16323 0.98399 0.30165 0.0
H2722 H 0.15602 0.97336 0.25285 0.0
C2723 C 0.16105 0.00447 0.30078 0.0
C2724 C 0.15768 0.01392 0.2826 0.0
H2725 H 0.16667 0.9772 0.31574 0.0
H2726 H 0.16299 0.01297 0.31423 0.0
C2727 C 0.15505 0.00242 0.26551 0.0
C2728 C 0.97992 0.8037 0.66261 0.0
C2729 C 0.97123 0.81519 0.6776 0.0
H2730 H 0.00674 0.79276 0.64983 0.0
C2731 C 0.98341 0.82619 0.69033 0.0
H2732 H 0.97087 0.79514 0.65252 0.0
C2733 C 0.00397 0.82483 0.68876 0.0
C2734 C 0.01263 0.81243 0.67447 0.0
H2735 H 0.97709 0.8352 0.70198 0.0
H2736 H 0.01304 0.83289 0.69923 0.0
C2737 C 0.00045 0.80231 0.66107 0.0
C2738 C 0.17098 0.97448 0.70374 0.0
C2739 C 0.18229 0.96586 0.68858 0.0
H2740 H 0.16075 0.00135 0.7171 0.0
C2741 C 0.19115 0.97802 0.67431 0.0
H2742 H 0.16394 0.96541 0.7149 0.0
C2743 C 0.18931 -0.00148 0.67556 0.0
C2744 C 0.17859 0.00719 0.69111 0.0
H2745 H 0.19988 0.97173 0.66242 0.0
H2746 H 0.19668 0.00758 0.6646 0.0
C2747 C 0.16914 -0.00498 0.705 0.0
C2748 C 0.9676 0.18103 0.6619 0.0
C2749 C 0.95652 0.17179 0.67682 0.0
H2750 H -0.00362 0.1866 0.65001 0.0
C2751 C 0.96617 0.15965 0.69063 0.0
H2752 H 0.9605 0.1904 0.65102 0.0
C2753 C 0.98668 0.15741 0.69002 0.0
C2754 C -0.00216 0.16733 0.67561 0.0
H2755 H 0.95795 0.15227 0.70224 0.0
H2756 H -0.00618 0.14842 0.70119 0.0
C2757 C 0.98811 0.17883 0.66132 0.0
C2758 C 0.80442 0.97192 0.70096 0.0
C2759 C 0.79167 0.96091 0.68881 0.0
H2760 H 0.81538 0.00063 0.70862 0.0
C2761 C 0.78092 0.97057 0.67392 0.0
H2762 H 0.81296 0.9648 0.71249 0.0
C2763 C 0.78223 0.99105 0.67175 0.0
C2764 C 0.79443 0.00216 0.68437 0.0
H2765 H 0.77103 0.9624 0.6643 0.0
H2766 H 0.77333 -0.00178 0.66053 0.0
C2767 C 0.80584 -0.00761 0.6987 0.0
C2768 C 0.33185 0.98393 0.20321 0.0
C2769 C 0.32656 0.97307 0.18632 0.0
H2770 H 0.33373 0.01257 0.21665 0.0
C2771 C 0.32131 0.98319 0.16896 0.0
H2772 H 0.33598 0.97647 0.21677 0.0
C2773 C 0.31999 0.00377 0.16889 0.0
C2774 C 0.32388 0.01457 0.18618 0.0
H2775 H 0.3173 0.97517 0.15567 0.0
H2776 H 0.31506 0.01113 0.15554 0.0
C2777 C 0.3305 0.00456 0.20315 0.0
C2778 C 0.9747 0.31689 0.17403 0.0
C2779 C 0.96551 0.31882 0.19255 0.0
H2780 H 0.0012 0.32059 0.1572 0.0
C2781 C 0.97569 0.32814 0.20806 0.0
H2782 H 0.9671 0.30995 0.16175 0.0
C2783 C -0.00482 0.33438 0.20541 0.0
C2784 C 0.00477 0.33131 0.18723 0.0
H2785 H 0.96885 0.32999 0.22243 0.0
H2786 H 0.00303 0.3407 0.21787 0.0
C2787 C -0.00583 0.32308 0.17139 0.0
C2788 C 0.66125 0.99124 0.19663 0.0
C2789 C 0.66832 0.97822 0.18207 0.0
H2790 H 0.65932 0.02124 0.20659 0.0
C2791 C 0.67809 0.9859 0.16543 0.0
H2792 H 0.65367 0.9857 0.20961 0.0
C2793 C 0.68136 0.00621 0.16372 0.0
C2794 C 0.67492 0.01916 0.17862 0.0
H2795 H 0.68366 0.97619 0.15396 0.0
H2796 H 0.68932 0.0117 0.15095 0.0
C2797 C 0.66452 0.01156 0.19492 0.0
C2798 C 0.98404 0.65306 0.20341 0.0
C2799 C 0.97467 0.66098 0.18664 0.0
H2800 H 0.01161 0.64657 0.21765 0.0
C2801 C 0.9861 0.66623 0.17015 0.0
H2802 H 0.97552 0.64878 0.21628 0.0
C2803 C 0.00665 0.66484 0.17089 0.0
C2804 C 0.01613 0.65826 0.18815 0.0
H2805 H 0.97924 0.67215 0.15695 0.0
H2806 H 0.01513 0.66985 0.15825 0.0
C2807 C 0.00466 0.65174 0.20417 0.0
C2808 C 0.31327 0.9781 0.8227 0.0
C2809 C 0.32292 0.96841 0.80706 0.0
H2810 H 0.30374 0.0057 0.83488 0.0
C2811 C 0.33212 0.9797 0.79226 0.0
H2812 H 0.30615 0.96975 0.83438 0.0
C2813 C 0.33067 0.00033 0.79252 0.0
C2814 C 0.32006 0.00993 0.8076 0.0
H2815 H 0.33968 0.97259 0.78005 0.0
H2816 H 0.33723 0.00869 0.78053 0.0
C2817 C 0.31186 -0.00133 0.82298 0.0
C2818 C 0.98901 0.31294 0.80067 0.0
C2819 C 0.97873 0.31786 0.78333 0.0
H2820 H 0.01692 0.30649 0.81392 0.0
C2821 C 0.98938 0.32171 0.76593 0.0
H2822 H 0.98117 0.31006 0.81435 0.0
C2823 C 0.00996 0.31961 0.76568 0.0
C2824 C 0.02008 0.31369 0.78283 0.0
H2825 H 0.98177 0.32556 0.75237 0.0
H2826 H 0.01783 0.32193 0.75192 0.0
C2827 C 0.00948 0.3109 0.80044 0.0
C2828 C 0.64829 -0.00143 0.79999 0.0
C2829 C 0.65859 0.98698 0.81378 0.0
H2830 H 0.64338 0.02757 0.78832 0.0
C2831 C 0.67071 -0.00372 0.82786 0.0
H2832 H 0.63878 0.99177 0.78902 0.0
C2833 C 0.67336 0.01675 0.82745 0.0
C2834 C 0.66392 0.02822 0.81297 0.0
H2835 H 0.67875 0.98769 0.83874 0.0
H2836 H 0.68337 0.02347 0.83802 0.0
C2837 C 0.65093 0.01905 0.79958 0.0
C2838 C 0.00323 0.66137 0.7836 0.0
C2839 C 0.01479 0.67112 0.79783 0.0
H2840 H 0.97396 0.65483 0.77339 0.0
C2841 C 0.0055 0.68018 0.81405 0.0
H2842 H 0.01006 0.6542 0.77099 0.0
C2843 C 0.98495 0.68048 0.81547 0.0
C2844 C 0.97332 0.67178 0.80065 0.0
H2845 H 0.01408 0.68765 0.82534 0.0
H2846 H 0.97818 0.68822 0.82777 0.0
C2847 C 0.9826 0.66172 0.78499 0.0
C2848 C 0.17458 0.31873 -0.00195 0.0
C2849 C 0.16629 0.30392 0.00998 0.0
H2850 H 0.18112 0.32842 0.96876 0.0
C2851 C 0.15655 0.28788 0.00104 0.0
H2852 H 0.18203 0.33135 0.00455 0.0
C2853 C 0.15601 0.28619 0.98044 0.0
C2854 C 0.16521 0.30054 0.96857 0.0
H2855 H 0.14996 0.27631 0.00994 0.0
H2856 H 0.14909 0.27333 0.97385 0.0
C2857 C 0.17403 0.31706 0.97755 0.0
C2858 C 0.15437 0.70288 0.00807 0.0
C2859 C 0.16373 0.68817 0.01938 0.0
H2860 H 0.1463 0.71268 0.97907 0.0
C2861 C 0.17004 0.67066 0.01013 0.0
H2862 H 0.14923 0.71647 0.01488 0.0
C2863 C 0.16835 0.66849 0.98971 0.0
C2864 C 0.16029 0.68378 0.9782 0.0
H2865 H 0.17713 0.65899 0.01852 0.0
H2866 H 0.17424 0.65523 0.98285 0.0
C2867 C 0.15264 0.70068 0.98761 0.0
C2868 C 0.28935 0.16833 0.01057 0.0
C2869 C 0.30148 0.18202 0.02042 0.0
H2870 H 0.28014 0.15643 0.98272 0.0
C2871 C 0.31483 0.19352 0.00946 0.0
H2872 H 0.27898 0.15921 0.01869 0.0
C2873 C 0.3155 0.19191 0.98891 0.0
C2874 C 0.30285 0.17877 0.97898 0.0
H2875 H 0.32442 0.20412 0.0167 0.0
H2876 H 0.32556 0.20136 0.98076 0.0
C2877 C 0.29004 0.16671 0.99001 0.0
C2878 C 0.83684 0.31152 0.00961 0.0
C2879 C 0.83852 0.29241 0.01757 0.0
H2880 H 0.83631 0.32924 0.98347 0.0
C2881 C 0.84377 0.27659 0.00516 0.0
H2882 H 0.83306 0.32404 0.01889 0.0
C2883 C 0.84572 0.2796 0.98481 0.0
C2884 C 0.8424 0.29845 0.97669 0.0
H2885 H 0.84529 0.26173 0.01097 0.0
H2886 H 0.84863 0.26697 0.97536 0.0
C2887 C 0.83875 0.31451 0.98933 0.0
C2888 C 0.65881 0.7978 0.98739 0.0
C2889 C 0.66966 0.81206 0.97691 0.0
H2890 H 0.65202 0.78532 0.01563 0.0
C2891 C 0.6812 0.82581 0.98736 0.0
H2892 H 0.64977 0.78705 0.97969 0.0
C2893 C 0.68249 0.82483 0.00792 0.0
C2894 C 0.67229 0.81006 0.01832 0.0
H2895 H 0.68968 0.83699 0.97963 0.0
H2896 H 0.69189 0.8353 0.01559 0.0
C2897 C 0.66014 0.7968 0.00794 0.0
C2898 C 0.82116 0.71285 0.00089 0.0
C2899 C 0.81412 0.69614 0.011 0.0
H2900 H 0.82501 0.72701 0.97281 0.0
C2901 C 0.80687 0.67997 0.00017 0.0
H2902 H 0.82685 0.72551 0.00891 0.0
C2903 C 0.80583 0.68082 0.97963 0.0
C2904 C 0.81199 0.69787 0.96953 0.0
H2905 H 0.80145 0.66684 0.00759 0.0
H2906 H 0.79965 0.66832 0.97171 0.0
C2907 C 0.82008 0.71372 0.98027 0.0
C2908 C 0.31924 0.80226 0.9797 0.0
C2909 C 0.30362 0.81034 0.96867 0.0
H2910 H 0.33207 0.79847 0.00833 0.0
C2911 C 0.28992 0.8229 0.97799 0.0
H2912 H 0.33012 0.79269 0.97282 0.0
C2913 C 0.29107 0.82627 -0.00169 0.0
C2914 C 0.30593 0.81711 0.00957 0.0
H2915 H 0.27784 0.82946 0.96976 0.0
H2916 H 0.27976 0.83523 0.00532 0.0
C2917 C 0.32039 0.80563 0.0 0.0
C2918 C 0.6697 0.21266 -0.00394 0.0
C2919 C 0.67447 0.19452 0.00502 0.0
H2920 H 0.66949 0.22965 0.96938 0.0
C2921 C 0.6811 0.17873 -0.00676 0.0
H2922 H 0.66456 0.22507 0.00481 0.0
C2923 C 0.68399 0.18138 0.973 0.0
C2924 C 0.68031 0.19985 0.96425 0.0
H2925 H 0.68484 0.16458 -0.00023 0.0
H2926 H 0.68973 0.16914 0.96436 0.0
C2927 C 0.67262 0.21531 0.97582 0.0
C2928 C 0.81614 0.51447 0.80917 0.0
C2929 C 0.7995 0.52389 0.81728 0.0
H2930 H 0.83093 0.48709 0.80358 0.0
C2931 C 0.78551 0.51265 0.82771 0.0
H2932 H 0.82726 0.52281 0.80119 0.0
C2933 C 0.78763 0.49212 0.82909 0.0
C2934 C 0.80377 0.48262 0.82006 0.0
H2935 H 0.77258 0.5196 0.83416 0.0
H2936 H 0.77627 0.48365 0.83655 0.0
C2937 C 0.81827 0.49402 0.81056 0.0
C2938 C 0.20344 0.50163 0.82371 0.0
C2939 C 0.18766 0.51264 0.81588 0.0
H2940 H 0.21556 0.4728 0.82889 0.0
C2941 C 0.17084 0.5027 0.80882 0.0
H2942 H 0.21656 0.50895 0.82933 0.0
C2943 C 0.17028 0.48208 0.80859 0.0
C2944 C 0.1865 0.47105 0.8154 0.0
H2945 H 0.1584 0.51082 0.80282 0.0
H2946 H 0.15741 0.4748 0.80238 0.0
C2947 C 0.20288 0.48097 0.82348 0.0
C2948 C 0.17857 0.50723 0.15628 0.0
C2949 C 0.19395 0.49328 0.15668 0.0
H2950 H 0.17035 0.53758 0.15949 0.0
C2951 C 0.2136 0.49981 0.15838 0.0
H2952 H 0.1633 0.50259 0.15479 0.0
C2953 C 0.21765 0.51988 0.16125 0.0
C2954 C 0.20211 0.53365 0.16227 0.0
H2955 H 0.22573 0.48931 0.15867 0.0
H2956 H 0.23282 0.52445 0.16366 0.0
C2957 C 0.18262 0.52726 0.15895 0.0
C2958 C 0.78823 0.497 0.14913 0.0
C2959 C 0.80351 0.50817 0.15769 0.0
H2960 H 0.77628 0.46806 0.14421 0.0
C2961 C 0.81979 0.49839 0.1661 0.0
H2962 H 0.77555 0.50421 0.14249 0.0
C2963 C 0.82023 0.47781 0.16708 0.0
C2964 C 0.80437 0.46664 0.15968 0.0
H2965 H 0.83186 0.50665 0.17266 0.0
H2966 H 0.8326 0.4707 0.17437 0.0
C2967 C 0.78866 0.47635 0.15013 0.0
C2968 C 0.29408 0.49762 0.66101 0.0
C2969 C 0.30706 0.50685 0.67436 0.0
H2970 H 0.28264 0.47025 0.64994 0.0
C2971 C 0.31985 0.49519 0.68583 0.0
H2972 H 0.28413 0.50629 0.65192 0.0
C2973 C 0.31904 0.4746 0.68465 0.0
C2974 C 0.3054 0.46535 0.672 0.0
H2975 H 0.33008 0.50194 0.69616 0.0
H2976 H 0.32862 0.46595 0.69414 0.0
C2977 C 0.29325 0.47702 0.65986 0.0
C2978 C 0.68659 0.48937 0.6689 0.0
C2979 C 0.67527 0.50063 0.68219 0.0
H2980 H 0.6975 0.46073 0.66111 0.0
C2981 C 0.66486 0.49103 0.69738 0.0
H2982 H 0.69469 0.4964 0.657 0.0
C2983 C 0.66657 0.47057 0.69981 0.0
C2984 C 0.67864 0.45946 0.68703 0.0
H2985 H 0.65604 0.4994 0.70782 0.0
H2986 H 0.65892 0.46356 0.71201 0.0
C2987 C 0.68823 0.46896 0.67128 0.0
C2988 C 0.30671 0.45949 0.29253 0.0
C2989 C 0.292 0.4506 0.30417 0.0
H2990 H 0.32338 0.48566 0.28649 0.0
C2991 C 0.28351 0.46133 0.3198 0.0
H2992 H 0.31364 0.45147 0.2805 0.0
C2993 C 0.28914 0.48091 0.32328 0.0
C2994 C 0.30339 0.49 0.31121 0.0
H2995 H 0.27224 0.45476 0.3291 0.0
H2996 H 0.28193 0.48907 0.33504 0.0
C2997 C 0.31239 0.47901 0.29605 0.0
C2998 C 0.66665 0.50491 0.28532 0.0
C2999 C 0.67911 0.51604 0.29766 0.0
H3000 H 0.65773 0.47599 0.27598 0.0
C3001 C 0.69117 0.50627 0.31145 0.0
H3002 H 0.65717 0.5121 0.2746 0.0
C3003 C 0.69149 0.48566 0.31225 0.0
C3004 C 0.67977 0.4745 0.29925 0.0
H3005 H 0.70084 0.51451 0.32122 0.0
H3006 H 0.7014 0.47849 0.32261 0.0
C3007 C 0.66699 0.48427 0.28611 0.0
C3008 C 0.16961 0.8031 0.47193 0.0
C3009 C 0.1851 0.81281 0.46207 0.0
H3010 H 0.15688 0.79513 0.49975 0.0
C3011 C 0.19917 0.82335 0.47313 0.0
H3012 H 0.1585 0.79494 0.46378 0.0
C3013 C 0.1982 0.82352 0.49376 0.0
C3014 C 0.18317 0.8131 0.50363 0.0
H3015 H 0.21122 0.83101 0.46588 0.0
H3016 H 0.20955 0.83128 0.50198 0.0
C3017 C 0.16868 0.80322 0.49252 0.0
C3018 C 0.15422 0.157 0.47688 0.0
C3019 C 0.17087 0.14867 0.46765 0.0
H3020 H 0.14038 0.16489 0.50419 0.0
C3021 C 0.18539 0.13938 0.47924 0.0
H3022 H 0.14272 0.16413 0.46829 0.0
C3023 C 0.18401 0.13976 0.49982 0.0
C3024 C 0.16814 0.14952 0.50905 0.0
H3025 H 0.19833 0.13275 0.47246 0.0
H3026 H 0.1959 0.13338 0.50848 0.0
C3027 C 0.15289 0.15747 0.49743 0.0
C3028 C 0.31365 0.68417 0.50068 0.0
C3029 C 0.2991 0.67464 0.51199 0.0
H3030 H 0.32431 0.69101 0.47173 0.0
C3031 C 0.28432 0.66363 0.50242 0.0
H3032 H 0.32525 0.6927 0.5077 0.0
C3033 C 0.28372 0.66273 0.48181 0.0
C3034 C 0.29795 0.67275 0.4705 0.0
H3035 H 0.27293 0.65612 0.51083 0.0
H3036 H 0.27192 0.65451 0.47476 0.0
C3037 C 0.31311 0.68319 0.48011 0.0
C3038 C 0.81945 0.80189 0.51017 0.0
C3039 C 0.80431 0.81122 0.52093 0.0
H3040 H 0.83198 0.79627 0.48168 0.0
C3041 C 0.7911 0.82387 0.51109 0.0
H3042 H 0.82993 0.79216 0.51743 0.0
C3043 C 0.79229 0.82625 0.49064 0.0
C3044 C 0.80673 0.81602 0.47973 0.0
H3045 H 0.77937 0.83136 0.51907 0.0
H3046 H 0.78141 0.83545 0.4833 0.0
C3047 C 0.82065 0.80428 0.48973 0.0
C3048 C 0.70525 0.31936 0.50324 0.0
C3049 C 0.68935 0.3105 0.51326 0.0
H3050 H 0.71833 0.32603 0.47516 0.0
C3051 C 0.67346 0.3028 0.50233 0.0
H3052 H 0.71767 0.32542 0.51133 0.0
C3053 C 0.67387 0.30308 0.48173 0.0
C3054 C 0.69015 0.31111 0.47168 0.0
H3055 H 0.66097 0.29597 0.50966 0.0
H3056 H 0.66166 0.29651 0.4737 0.0
C3057 C 0.70563 0.31968 0.48258 0.0
C3058 C 0.78224 0.15367 0.47247 0.0
C3059 C 0.79919 0.16204 0.46388 0.0
H3060 H 0.76736 0.14609 0.49937 0.0
C3061 C 0.81524 0.16727 0.47594 0.0
H3062 H 0.7697 0.14945 0.46344 0.0
C3063 C 0.81397 0.16524 0.49637 0.0
C3064 C 0.79657 0.15805 0.5051 0.0
H3065 H 0.82857 0.17356 0.46965 0.0
H3066 H 0.82632 0.17008 0.50535 0.0
C3067 C 0.78091 0.15175 0.49299 0.0
C3068 C 0.27747 0.30777 0.48092 0.0
C3069 C 0.29176 0.29652 0.47084 0.0
H3070 H 0.2646 0.31518 0.5089 0.0
C3071 C 0.30531 0.28512 0.4817 0.0
H3072 H 0.26685 0.31669 0.47289 0.0
C3073 C 0.304 0.28424 0.50224 0.0
C3074 C 0.28911 0.29471 0.51227 0.0
H3075 H 0.31651 0.27635 0.47429 0.0
H3076 H 0.31429 0.27487 0.5102 0.0
C3077 C 0.27614 0.30685 0.5015 0.0
C3078 C 0.67389 0.67118 0.47448 0.0
C3079 C 0.69097 0.66712 0.46339 0.0
H3080 H 0.66062 0.672 0.50314 0.0
C3081 C 0.70745 0.65862 0.47276 0.0
H3082 H 0.6609 0.67755 0.46757 0.0
C3083 C 0.70731 0.65543 0.49315 0.0
C3084 C 0.69065 0.66066 0.50442 0.0
H3085 H 0.72077 0.65522 0.46451 0.0
H3086 H 0.72053 0.64974 0.50019 0.0
C3087 C 0.67372 0.66794 0.49482 0.0
C3088 C 0.4986 0.21167 0.82544 0.0
C3089 C 0.51048 0.19609 0.81851 0.0
H3090 H 0.46916 0.22279 0.82917 0.0
C3091 C 0.5015 0.17864 0.81172 0.0
H3092 H 0.50517 0.22528 0.83081 0.0
C3093 C 0.48095 0.17723 0.81076 0.0
C3094 C 0.46907 0.19325 0.81657 0.0
H3095 H 0.51032 0.16635 0.8064 0.0
H3096 H 0.47443 0.16386 0.80476 0.0
C3097 C 0.47801 0.21027 0.82448 0.0
C3098 C 0.49585 0.77943 0.81527 0.0
C3099 C 0.50416 0.79336 0.80228 0.0
H3100 H 0.46949 0.76477 0.82495 0.0
C3101 C 0.49181 0.80379 0.78928 0.0
H3102 H 0.50507 0.77119 0.82544 0.0
C3103 C 0.47154 0.80006 0.78893 0.0
C3104 C 0.46327 0.78587 0.80163 0.0
H3105 H 0.49783 0.81461 0.7791 0.0
H3106 H 0.4624 0.80815 0.77856 0.0
C3107 C 0.47553 0.77575 0.81496 0.0
C3108 C 0.49003 0.78075 0.16739 0.0
C3109 C 0.49766 0.79932 0.17282 0.0
H3110 H 0.46437 0.76221 0.16568 0.0
C3111 C 0.48465 0.8143 0.17893 0.0
H3112 H 0.49977 0.76893 0.16261 0.0
C3113 C 0.46447 0.81047 0.18064 0.0
C3114 C 0.45697 0.79156 0.17636 0.0
H3115 H 0.49014 0.82878 0.18309 0.0
H3116 H 0.45487 0.82215 0.186 0.0
C3117 C 0.46981 0.77688 0.16919 0.0
C3118 C 0.50643 0.17351 0.19102 0.0
C3119 C 0.5166 0.18737 0.17938 0.0
H3120 H 0.47832 0.16283 0.20083 0.0
C3121 C 0.50581 0.20039 0.16732 0.0
H3122 H 0.51439 0.16326 0.20041 0.0
C3123 C 0.48517 0.20014 0.16753 0.0
C3124 C 0.475 0.18688 0.17985 0.0
H3125 H 0.51329 0.21118 0.15813 0.0
H3126 H 0.4772 0.21074 0.15854 0.0
C3127 C 0.4858 0.17328 0.19125 0.0
C3128 C 0.47664 0.31594 0.66607 0.0
C3129 C 0.46726 0.29874 0.6591 0.0
H3130 H 0.50408 0.3303 0.67245 0.0
C3131 C 0.47875 0.28343 0.651 0.0
H3132 H 0.46811 0.32804 0.67223 0.0
C3133 C 0.49936 0.28473 0.65112 0.0
C3134 C 0.50875 0.30137 0.65931 0.0
H3135 H 0.47188 0.27006 0.64542 0.0
H3136 H 0.50791 0.27231 0.64565 0.0
C3137 C 0.49722 0.31724 0.66615 0.0
C3138 C 0.51134 0.69582 0.65735 0.0
C3139 C 0.52307 0.68093 0.66583 0.0
H3140 H 0.48199 0.7054 0.65014 0.0
C3141 C 0.51418 0.66325 0.67209 0.0
H3142 H 0.51788 0.70957 0.65235 0.0
C3143 C 0.49378 0.66083 0.67072 0.0
C3144 C 0.48189 0.67607 0.66316 0.0
H3145 H 0.52292 0.65144 0.67851 0.0
H3146 H 0.48728 0.64724 0.6762 0.0
C3147 C 0.49084 0.69344 0.65607 0.0
C3148 C 0.4794 0.32737 0.30662 0.0
C3149 C 0.46892 0.31376 0.31827 0.0
H3150 H 0.50776 0.33715 0.29655 0.0
C3151 C 0.47943 0.30059 0.33044 0.0
H3152 H 0.47168 0.33771 0.29714 0.0
C3153 C 0.50006 0.30022 0.33008 0.0
C3154 C 0.51052 0.31303 0.31754 0.0
H3155 H 0.47171 0.28999 0.33964 0.0
H3156 H 0.50777 0.2894 0.33903 0.0
C3157 C 0.50005 0.327 0.30626 0.0
C3158 C 0.48984 0.65688 0.2967 0.0
C3159 C 0.47761 0.66629 0.3106 0.0
H3160 H 0.51885 0.65445 0.2844 0.0
C3161 C 0.48592 0.67989 0.32395 0.0
H3162 H 0.48382 0.64631 0.28625 0.0
C3163 C 0.50598 0.68464 0.32283 0.0
C3164 C 0.51801 0.67582 0.30837 0.0
H3165 H 0.47679 0.68736 0.33481 0.0
H3166 H 0.51194 0.69557 0.33292 0.0
C3167 C 0.50987 0.66159 0.29561 0.0
loop_
_geom_bond_atom_site_label_1
_geom_bond_atom_site_label_2
_geom_bond_distance
_geom_bond_site_symmetry_2
_ccdc_geom_bond_type
In0 O1 2.294 . S
In0 O2 2.326 . S
In0 O6 2.266 . S
In0 O7 2.326 . S
In0 O8 2.266 . S
In0 O9 2.326 . S
In0 O11 2.294 . S
In0 O12 2.326 . S
O1 In0 2.294 . S
O1 C10 1.240 . S
O2 In0 2.326 . S
O2 C10 1.252 . S
C3 O6 1.252 . S
C3 O7 1.260 . S
C4 O11 1.240 . S
C4 O12 1.252 . S
C5 O8 1.252 . S
C5 O9 1.260 . S
O6 In0 2.266 . S
O6 C3 1.252 . S
O7 In0 2.326 . S
O7 C3 1.260 . S
O8 In0 2.266 . S
O8 C5 1.252 . S
O9 In0 2.326 . S
O9 C5 1.260 . S
C10 O1 1.240 . S
C10 O2 1.252 . S
O11 In0 2.294 . S
O11 C4 1.240 . S
O12 In0 2.326 . S
O12 C4 1.252 . S
In13 O14 2.294 . S
In13 O15 2.326 . S
In13 O19 2.266 . S
In13 O20 2.326 . S
In13 O21 2.266 . S
In13 O22 2.326 . S
In13 O24 2.294 . S
In13 O25 2.326 . S
O14 In13 2.294 . S
O14 C23 1.240 . S
O15 In13 2.326 . S
O15 C23 1.252 . S
C16 O19 1.252 . S
C16 O20 1.260 . S
C17 O24 1.240 . S
C17 O25 1.252 . S
C18 O21 1.252 . S
C18 O22 1.260 . S
O19 In13 2.266 . S
O19 C16 1.252 . S
O20 In13 2.326 . S
O20 C16 1.260 . S
O21 In13 2.266 . S
O21 C18 1.252 . S
O22 In13 2.326 . S
O22 C18 1.260 . S
C23 O14 1.240 . S
C23 O15 1.252 . S
O24 In13 2.294 . S
O24 C17 1.240 . S
O25 In13 2.326 . S
O25 C17 1.252 . S
In26 O27 2.294 . S
In26 O28 2.326 . S
In26 O32 2.266 . S
In26 O33 2.326 . S
In26 O34 2.266 . S
In26 O35 2.326 . S
In26 O37 2.294 . S
In26 O38 2.326 . S
O27 In26 2.294 . S
O27 C36 1.240 . S
O28 In26 2.326 . S
O28 C36 1.252 . S
C29 O32 1.252 . S
C29 O33 1.260 . S
C30 O37 1.240 . S
C30 O38 1.252 . S
C31 O34 1.252 . S
C31 O35 1.260 . S
O32 In26 2.266 . S
O32 C29 1.252 . S
O33 In26 2.326 . S
O33 C29 1.260 . S
O34 In26 2.266 . S
O34 C31 1.252 . S
O35 In26 2.326 . S
O35 C31 1.260 . S
C36 O27 1.240 . S
C36 O28 1.252 . S
O37 In26 2.294 . S
O37 C30 1.240 . S
O38 In26 2.326 . S
O38 C30 1.252 . S
In39 O40 2.294 . S
In39 O41 2.326 . S
In39 O45 2.266 . S
In39 O46 2.326 . S
In39 O47 2.266 . S
In39 O48 2.326 . S
In39 O50 2.294 . S
In39 O51 2.326 . S
O40 In39 2.294 . S
O40 C49 1.240 . S
O41 In39 2.326 . S
O41 C49 1.252 . S
C42 O45 1.252 . S
C42 O46 1.260 . S
C43 O50 1.240 . S
C43 O51 1.252 . S
C44 O47 1.252 . S
C44 O48 1.260 . S
O45 In39 2.266 . S
O45 C42 1.252 . S
O46 In39 2.326 . S
O46 C42 1.260 . S
O47 In39 2.266 . S
O47 C44 1.252 . S
O48 In39 2.326 . S
O48 C44 1.260 . S
C49 O40 1.240 . S
C49 O41 1.252 . S
O50 In39 2.294 . S
O50 C43 1.240 . S
O51 In39 2.326 . S
O51 C43 1.252 . S
In52 O53 2.294 . S
In52 O54 2.326 . S
In52 O58 2.266 . S
In52 O59 2.326 . S
In52 O60 2.266 . S
In52 O61 2.326 . S
In52 O63 2.294 . S
In52 O64 2.326 . S
O53 In52 2.294 . S
O53 C62 1.240 . S
O54 In52 2.326 . S
O54 C62 1.252 . S
C55 O58 1.252 . S
C55 O59 1.260 . S
C56 O63 1.240 . S
C56 O64 1.252 . S
C57 O60 1.252 . S
C57 O61 1.260 . S
O58 In52 2.266 . S
O58 C55 1.252 . S
O59 In52 2.326 . S
O59 C55 1.260 . S
O60 In52 2.266 . S
O60 C57 1.252 . S
O61 In52 2.326 . S
O61 C57 1.260 . S
C62 O53 1.240 . S
C62 O54 1.252 . S
O63 In52 2.294 . S
O63 C56 1.240 . S
O64 In52 2.326 . S
O64 C56 1.252 . S
In65 O66 2.294 . S
In65 O67 2.326 . S
In65 O71 2.266 . S
In65 O72 2.326 . S
In65 O73 2.266 . S
In65 O74 2.326 . S
In65 O76 2.294 . S
In65 O77 2.326 . S
O66 In65 2.294 . S
O66 C75 1.240 . S
O67 In65 2.326 . S
O67 C75 1.252 . S
C68 O71 1.252 . S
C68 O72 1.260 . S
C69 O76 1.240 . S
C69 O77 1.252 . S
C70 O73 1.252 . S
C70 O74 1.260 . S
O71 In65 2.266 . S
O71 C68 1.252 . S
O72 In65 2.326 . S
O72 C68 1.260 . S
O73 In65 2.266 . S
O73 C70 1.252 . S
O74 In65 2.326 . S
O74 C70 1.260 . S
C75 O66 1.240 . S
C75 O67 1.252 . S
O76 In65 2.294 . S
O76 C69 1.240 . S
O77 In65 2.326 . S
O77 C69 1.252 . S
In78 O79 2.294 . S
In78 O80 2.326 . S
In78 O84 2.266 . S
In78 O85 2.326 . S
In78 O86 2.266 . S
In78 O87 2.326 . S
In78 O89 2.294 . S
In78 O90 2.326 . S
O79 In78 2.294 . S
O79 C88 1.240 . S
O80 In78 2.326 . S
O80 C88 1.252 . S
C81 O84 1.252 . S
C81 O85 1.260 . S
C82 O89 1.240 . S
C82 O90 1.252 . S
C83 O86 1.252 . S
C83 O87 1.260 . S
O84 In78 2.266 . S
O84 C81 1.252 . S
O85 In78 2.326 . S
O85 C81 1.260 . S
O86 In78 2.266 . S
O86 C83 1.252 . S
O87 In78 2.326 . S
O87 C83 1.260 . S
C88 O79 1.240 . S
C88 O80 1.252 . S
O89 In78 2.294 . S
O89 C82 1.240 . S
O90 In78 2.326 . S
O90 C82 1.252 . S
In91 O92 2.294 . S
In91 O93 2.326 . S
In91 O97 2.266 . S
In91 O98 2.326 . S
In91 O99 2.266 . S
In91 O100 2.326 . S
In91 O102 2.294 . S
In91 O103 2.326 . S
O92 In91 2.294 . S
O92 C101 1.240 . S
O93 In91 2.326 . S
O93 C101 1.252 . S
C94 O97 1.252 . S
C94 O98 1.260 . S
C95 O102 1.240 . S
C95 O103 1.252 . S
C96 O99 1.252 . S
C96 O100 1.260 . S
O97 In91 2.266 . S
O97 C94 1.252 . S
O98 In91 2.326 . S
O98 C94 1.260 . S
O99 In91 2.266 . S
O99 C96 1.252 . S
O100 In91 2.326 . S
O100 C96 1.260 . S
C101 O92 1.240 . S
C101 O93 1.252 . S
O102 In91 2.294 . S
O102 C95 1.240 . S
O103 In91 2.326 . S
O103 C95 1.252 . S
In104 O105 2.294 . S
In104 O106 2.326 . S
In104 O110 2.266 . S
In104 O111 2.326 . S
In104 O112 2.266 . S
In104 O113 2.326 . S
In104 O115 2.294 . S
In104 O116 2.326 . S
O105 In104 2.294 . S
O105 C114 1.240 . S
O106 In104 2.326 . S
O106 C114 1.252 . S
C107 O110 1.252 . S
C107 O111 1.260 . S
C108 O115 1.240 . S
C108 O116 1.252 . S
C109 O112 1.252 . S
C109 O113 1.260 . S
O110 In104 2.266 . S
O110 C107 1.252 . S
O111 In104 2.326 . S
O111 C107 1.260 . S
O112 In104 2.266 . S
O112 C109 1.252 . S
O113 In104 2.326 . S
O113 C109 1.260 . S
C114 O105 1.240 . S
C114 O106 1.252 . S
O115 In104 2.294 . S
O115 C108 1.240 . S
O116 In104 2.326 . S
O116 C108 1.252 . S
In117 O118 2.294 . S
In117 O119 2.326 . S
In117 O123 2.266 . S
In117 O124 2.326 . S
In117 O125 2.266 . S
In117 O126 2.326 . S
In117 O128 2.294 . S
In117 O129 2.326 . S
O118 In117 2.294 . S
O118 C127 1.240 . S
O119 In117 2.326 . S
O119 C127 1.252 . S
C120 O123 1.252 . S
C120 O124 1.260 . S
C121 O128 1.240 . S
C121 O129 1.252 . S
C122 O125 1.252 . S
C122 O126 1.260 . S
O123 In117 2.266 . S
O123 C120 1.252 . S
O124 In117 2.326 . S
O124 C120 1.260 . S
O125 In117 2.266 . S
O125 C122 1.252 . S
O126 In117 2.326 . S
O126 C122 1.260 . S
C127 O118 1.240 . S
C127 O119 1.252 . S
O128 In117 2.294 . S
O128 C121 1.240 . S
O129 In117 2.326 . S
O129 C121 1.252 . S
In130 O131 2.294 . S
In130 O132 2.326 . S
In130 O136 2.266 . S
In130 O137 2.326 . S
In130 O138 2.266 . S
In130 O139 2.326 . S
In130 O141 2.294 . S
In130 O142 2.326 . S
O131 In130 2.294 . S
O131 C140 1.240 . S
O132 In130 2.326 . S
O132 C140 1.252 . S
C133 O136 1.252 . S
C133 O137 1.260 . S
C134 O141 1.240 . S
C134 O142 1.252 . S
C135 O138 1.252 . S
C135 O139 1.260 . S
O136 In130 2.266 . S
O136 C133 1.252 . S
O137 In130 2.326 . S
O137 C133 1.260 . S
O138 In130 2.266 . S
O138 C135 1.252 . S
O139 In130 2.326 . S
O139 C135 1.260 . S
C140 O131 1.240 . S
C140 O132 1.252 . S
O141 In130 2.294 . S
O141 C134 1.240 . S
O142 In130 2.326 . S
O142 C134 1.252 . S
In143 O144 2.294 . S
In143 O145 2.326 . S
In143 O149 2.266 . S
In143 O150 2.326 . S
In143 O151 2.266 . S
In143 O152 2.326 . S
In143 O154 2.294 . S
In143 O155 2.326 . S
O144 In143 2.294 . S
O144 C153 1.240 . S
O145 In143 2.326 . S
O145 C153 1.252 . S
C146 O149 1.252 . S
C146 O150 1.260 . S
C147 O154 1.240 . S
C147 O155 1.252 . S
C148 O151 1.252 . S
C148 O152 1.260 . S
O149 In143 2.266 . S
O149 C146 1.252 . S
O150 In143 2.326 . S
O150 C146 1.260 . S
O151 In143 2.266 . S
O151 C148 1.252 . S
O152 In143 2.326 . S
O152 C148 1.260 . S
C153 O144 1.240 . S
C153 O145 1.252 . S
O154 In143 2.294 . S
O154 C147 1.240 . S
O155 In143 2.326 . S
O155 C147 1.252 . S
In156 O157 2.294 . S
In156 O158 2.326 . S
In156 O162 2.266 . S
In156 O163 2.326 . S
In156 O164 2.266 . S
In156 O165 2.326 . S
In156 O167 2.294 . S
In156 O168 2.326 . S
O157 In156 2.294 . S
O157 C166 1.240 . S
O158 In156 2.326 . S
O158 C166 1.252 . S
C159 O162 1.252 . S
C159 O163 1.260 . S
C160 O167 1.240 . S
C160 O168 1.252 . S
C161 O164 1.252 . S
C161 O165 1.260 . S
O162 In156 2.266 . S
O162 C159 1.252 . S
O163 In156 2.326 . S
O163 C159 1.260 . S
O164 In156 2.266 . S
O164 C161 1.252 . S
O165 In156 2.326 . S
O165 C161 1.260 . S
C166 O157 1.240 . S
C166 O158 1.252 . S
O167 In156 2.294 . S
O167 C160 1.240 . S
O168 In156 2.326 . S
O168 C160 1.252 . S
In169 O170 2.294 . S
In169 O171 2.326 . S
In169 O175 2.266 . S
In169 O176 2.326 . S
In169 O177 2.266 . S
In169 O178 2.326 . S
In169 O180 2.294 . S
In169 O181 2.326 . S
O170 In169 2.294 . S
O170 C179 1.240 . S
O171 In169 2.326 . S
O171 C179 1.252 . S
C172 O175 1.252 . S
C172 O176 1.260 . S
C173 O180 1.240 . S
C173 O181 1.252 . S
C174 O177 1.252 . S
C174 O178 1.260 . S
O175 In169 2.266 . S
O175 C172 1.252 . S
O176 In169 2.326 . S
O176 C172 1.260 . S
O177 In169 2.266 . S
O177 C174 1.252 . S
O178 In169 2.326 . S
O178 C174 1.260 . S
C179 O170 1.240 . S
C179 O171 1.252 . S
O180 In169 2.294 . S
O180 C173 1.240 . S
O181 In169 2.326 . S
O181 C173 1.252 . S
In182 O183 2.294 . S
In182 O184 2.326 . S
In182 O188 2.266 . S
In182 O189 2.326 . S
In182 O190 2.266 . S
In182 O191 2.326 . S
In182 O193 2.294 . S
In182 O194 2.326 . S
O183 In182 2.294 . S
O183 C192 1.240 . S
O184 In182 2.326 . S
O184 C192 1.252 . S
C185 O188 1.252 . S
C185 O189 1.260 . S
C186 O193 1.240 . S
C186 O194 1.252 . S
C187 O190 1.252 . S
C187 O191 1.260 . S
O188 In182 2.266 . S
O188 C185 1.252 . S
O189 In182 2.326 . S
O189 C185 1.260 . S
O190 In182 2.266 . S
O190 C187 1.252 . S
O191 In182 2.326 . S
O191 C187 1.260 . S
C192 O183 1.240 . S
C192 O184 1.252 . S
O193 In182 2.294 . S
O193 C186 1.240 . S
O194 In182 2.326 . S
O194 C186 1.252 . S
In195 O196 2.294 . S
In195 O197 2.326 . S
In195 O201 2.266 . S
In195 O202 2.326 . S
In195 O203 2.266 . S
In195 O204 2.326 . S
In195 O206 2.294 . S
In195 O207 2.326 . S
O196 In195 2.294 . S
O196 C205 1.240 . S
O197 In195 2.326 . S
O197 C205 1.252 . S
C198 O201 1.252 . S
C198 O202 1.260 . S
C199 O206 1.240 . S
C199 O207 1.252 . S
C200 O203 1.252 . S
C200 O204 1.260 . S
O201 In195 2.266 . S
O201 C198 1.252 . S
O202 In195 2.326 . S
O202 C198 1.260 . S
O203 In195 2.266 . S
O203 C200 1.252 . S
O204 In195 2.326 . S
O204 C200 1.260 . S
C205 O196 1.240 . S
C205 O197 1.252 . S
O206 In195 2.294 . S
O206 C199 1.240 . S
O207 In195 2.326 . S
O207 C199 1.252 . S
In208 O209 2.294 . S
In208 O210 2.326 . S
In208 O214 2.266 . S
In208 O215 2.326 . S
In208 O216 2.266 . S
In208 O217 2.326 . S
In208 O219 2.294 . S
In208 O220 2.326 . S
O209 In208 2.294 . S
O209 C218 1.240 . S
O210 In208 2.326 . S
O210 C218 1.252 . S
C211 O214 1.252 . S
C211 O215 1.260 . S
C212 O219 1.240 . S
C212 O220 1.252 . S
C213 O216 1.252 . S
C213 O217 1.260 . S
O214 In208 2.266 . S
O214 C211 1.252 . S
O215 In208 2.326 . S
O215 C211 1.260 . S
O216 In208 2.266 . S
O216 C213 1.252 . S
O217 In208 2.326 . S
O217 C213 1.260 . S
C218 O209 1.240 . S
C218 O210 1.252 . S
O219 In208 2.294 . S
O219 C212 1.240 . S
O220 In208 2.326 . S
O220 C212 1.252 . S
In221 O222 2.294 . S
In221 O223 2.326 . S
In221 O227 2.266 . S
In221 O228 2.326 . S
In221 O229 2.266 . S
In221 O230 2.326 . S
In221 O232 2.294 . S
In221 O233 2.326 . S
O222 In221 2.294 . S
O222 C231 1.240 . S
O223 In221 2.326 . S
O223 C231 1.252 . S
C224 O227 1.252 . S
C224 O228 1.260 . S
C225 O232 1.240 . S
C225 O233 1.252 . S
C226 O229 1.252 . S
C226 O230 1.260 . S
O227 In221 2.266 . S
O227 C224 1.252 . S
O228 In221 2.326 . S
O228 C224 1.260 . S
O229 In221 2.266 . S
O229 C226 1.252 . S
O230 In221 2.326 . S
O230 C226 1.260 . S
C231 O222 1.240 . S
C231 O223 1.252 . S
O232 In221 2.294 . S
O232 C225 1.240 . S
O233 In221 2.326 . S
O233 C225 1.252 . S
In234 O235 2.294 . S
In234 O236 2.326 . S
In234 O240 2.266 . S
In234 O241 2.326 . S
In234 O242 2.266 . S
In234 O243 2.326 . S
In234 O245 2.294 . S
In234 O246 2.326 . S
O235 In234 2.294 . S
O235 C244 1.240 . S
O236 In234 2.326 . S
O236 C244 1.252 . S
C237 O240 1.252 . S
C237 O241 1.260 . S
C238 O245 1.240 . S
C238 O246 1.252 . S
C239 O242 1.252 . S
C239 O243 1.260 . S
O240 In234 2.266 . S
O240 C237 1.252 . S
O241 In234 2.326 . S
O241 C237 1.260 . S
O242 In234 2.266 . S
O242 C239 1.252 . S
O243 In234 2.326 . S
O243 C239 1.260 . S
C244 O235 1.240 . S
C244 O236 1.252 . S
O245 In234 2.294 . S
O245 C238 1.240 . S
O246 In234 2.326 . S
O246 C238 1.252 . S
In247 O248 2.294 . S
In247 O249 2.326 . S
In247 O253 2.266 . S
In247 O254 2.326 . S
In247 O255 2.266 . S
In247 O256 2.326 . S
In247 O258 2.294 . S
In247 O259 2.326 . S
O248 In247 2.294 . S
O248 C257 1.240 . S
O249 In247 2.326 . S
O249 C257 1.252 . S
C250 O253 1.252 . S
C250 O254 1.260 . S
C251 O258 1.240 . S
C251 O259 1.252 . S
C252 O255 1.252 . S
C252 O256 1.260 . S
O253 In247 2.266 . S
O253 C250 1.252 . S
O254 In247 2.326 . S
O254 C250 1.260 . S
O255 In247 2.266 . S
O255 C252 1.252 . S
O256 In247 2.326 . S
O256 C252 1.260 . S
C257 O248 1.240 . S
C257 O249 1.252 . S
O258 In247 2.294 . S
O258 C251 1.240 . S
O259 In247 2.326 . S
O259 C251 1.252 . S
In260 O261 2.294 . S
In260 O262 2.326 . S
In260 O266 2.266 . S
In260 O267 2.326 . S
In260 O268 2.266 . S
In260 O269 2.326 . S
In260 O271 2.294 . S
In260 O272 2.326 . S
O261 In260 2.294 . S
O261 C270 1.240 . S
O262 In260 2.326 . S
O262 C270 1.252 . S
C263 O266 1.252 . S
C263 O267 1.260 . S
C264 O271 1.240 . S
C264 O272 1.252 . S
C265 O268 1.252 . S
C265 O269 1.260 . S
O266 In260 2.266 . S
O266 C263 1.252 . S
O267 In260 2.326 . S
O267 C263 1.260 . S
O268 In260 2.266 . S
O268 C265 1.252 . S
O269 In260 2.326 . S
O269 C265 1.260 . S
C270 O261 1.240 . S
C270 O262 1.252 . S
O271 In260 2.294 . S
O271 C264 1.240 . S
O272 In260 2.326 . S
O272 C264 1.252 . S
In273 O274 2.294 . S
In273 O275 2.326 . S
In273 O279 2.266 . S
In273 O280 2.326 . S
In273 O281 2.266 . S
In273 O282 2.326 . S
In273 O284 2.294 . S
In273 O285 2.326 . S
O274 In273 2.294 . S
O274 C283 1.240 . S
O275 In273 2.326 . S
O275 C283 1.252 . S
C276 O279 1.252 . S
C276 O280 1.260 . S
C277 O284 1.240 . S
C277 O285 1.252 . S
C278 O281 1.252 . S
C278 O282 1.260 . S
O279 In273 2.266 . S
O279 C276 1.252 . S
O280 In273 2.326 . S
O280 C276 1.260 . S
O281 In273 2.266 . S
O281 C278 1.252 . S
O282 In273 2.326 . S
O282 C278 1.260 . S
C283 O274 1.240 . S
C283 O275 1.252 . S
O284 In273 2.294 . S
O284 C277 1.240 . S
O285 In273 2.326 . S
O285 C277 1.252 . S
In286 O287 2.294 . S
In286 O288 2.326 . S
In286 O292 2.266 . S
In286 O293 2.326 . S
In286 O294 2.266 . S
In286 O295 2.326 . S
In286 O297 2.294 . S
In286 O298 2.326 . S
O287 In286 2.294 . S
O287 C296 1.240 . S
O288 In286 2.326 . S
O288 C296 1.252 . S
C289 O292 1.252 . S
C289 O293 1.260 . S
C290 O297 1.240 . S
C290 O298 1.252 . S
C291 O294 1.252 . S
C291 O295 1.260 . S
O292 In286 2.266 . S
O292 C289 1.252 . S
O293 In286 2.326 . S
O293 C289 1.260 . S
O294 In286 2.266 . S
O294 C291 1.252 . S
O295 In286 2.326 . S
O295 C291 1.260 . S
C296 O287 1.240 . S
C296 O288 1.252 . S
O297 In286 2.294 . S
O297 C290 1.240 . S
O298 In286 2.326 . S
O298 C290 1.252 . S
In299 O300 2.294 . S
In299 O301 2.326 . S
In299 O305 2.266 . S
In299 O306 2.326 . S
In299 O307 2.266 . S
In299 O308 2.326 . S
In299 O310 2.294 . S
In299 O311 2.326 . S
O300 In299 2.294 . S
O300 C309 1.240 . S
O301 In299 2.326 . S
O301 C309 1.252 . S
C302 O305 1.252 . S
C302 O306 1.260 . S
C303 O310 1.240 . S
C303 O311 1.252 . S
C304 O307 1.252 . S
C304 O308 1.260 . S
O305 In299 2.266 . S
O305 C302 1.252 . S
O306 In299 2.326 . S
O306 C302 1.260 . S
O307 In299 2.266 . S
O307 C304 1.252 . S
O308 In299 2.326 . S
O308 C304 1.260 . S
C309 O300 1.240 . S
C309 O301 1.252 . S
O310 In299 2.294 . S
O310 C303 1.240 . S
O311 In299 2.326 . S
O311 C303 1.252 . S
In312 O313 2.294 . S
In312 O314 2.326 . S
In312 O318 2.266 . S
In312 O319 2.326 . S
In312 O320 2.266 . S
In312 O321 2.326 . S
In312 O323 2.294 . S
In312 O324 2.326 . S
O313 In312 2.294 . S
O313 C322 1.240 . S
O314 In312 2.326 . S
O314 C322 1.252 . S
C315 O318 1.252 . S
C315 O319 1.260 . S
C316 O323 1.240 . S
C316 O324 1.252 . S
C317 O320 1.252 . S
C317 O321 1.260 . S
O318 In312 2.266 . S
O318 C315 1.252 . S
O319 In312 2.326 . S
O319 C315 1.260 . S
O320 In312 2.266 . S
O320 C317 1.252 . S
O321 In312 2.326 . S
O321 C317 1.260 . S
C322 O313 1.240 . S
C322 O314 1.252 . S
O323 In312 2.294 . S
O323 C316 1.240 . S
O324 In312 2.326 . S
O324 C316 1.252 . S
In325 O326 2.294 . S
In325 O327 2.326 . S
In325 O331 2.266 . S
In325 O332 2.326 . S
In325 O333 2.266 . S
In325 O334 2.326 . S
In325 O336 2.294 . S
In325 O337 2.326 . S
O326 In325 2.294 . S
O326 C335 1.240 . S
O327 In325 2.326 . S
O327 C335 1.252 . S
C328 O331 1.252 . S
C328 O332 1.260 . S
C329 O336 1.240 . S
C329 O337 1.252 . S
C330 O333 1.252 . S
C330 O334 1.260 . S
O331 In325 2.266 . S
O331 C328 1.252 . S
O332 In325 2.326 . S
O332 C328 1.260 . S
O333 In325 2.266 . S
O333 C330 1.252 . S
O334 In325 2.326 . S
O334 C330 1.260 . S
C335 O326 1.240 . S
C335 O327 1.252 . S
O336 In325 2.294 . S
O336 C329 1.240 . S
O337 In325 2.326 . S
O337 C329 1.252 . S
In338 O339 2.294 . S
In338 O340 2.326 . S
In338 O344 2.266 . S
In338 O345 2.326 . S
In338 O346 2.266 . S
In338 O347 2.326 . S
In338 O349 2.294 . S
In338 O350 2.326 . S
O339 In338 2.294 . S
O339 C348 1.240 . S
O340 In338 2.326 . S
O340 C348 1.252 . S
C341 O344 1.252 . S
C341 O345 1.260 . S
C342 O349 1.240 . S
C342 O350 1.252 . S
C343 O346 1.252 . S
C343 O347 1.260 . S
O344 In338 2.266 . S
O344 C341 1.252 . S
O345 In338 2.326 . S
O345 C341 1.260 . S
O346 In338 2.266 . S
O346 C343 1.252 . S
O347 In338 2.326 . S
O347 C343 1.260 . S
C348 O339 1.240 . S
C348 O340 1.252 . S
O349 In338 2.294 . S
O349 C342 1.240 . S
O350 In338 2.326 . S
O350 C342 1.252 . S
In351 O352 2.294 . S
In351 O353 2.326 . S
In351 O357 2.266 . S
In351 O358 2.326 . S
In351 O359 2.266 . S
In351 O360 2.326 . S
In351 O362 2.294 . S
In351 O363 2.326 . S
O352 In351 2.294 . S
O352 C361 1.240 . S
O353 In351 2.326 . S
O353 C361 1.252 . S
C354 O357 1.252 . S
C354 O358 1.260 . S
C355 O362 1.240 . S
C355 O363 1.252 . S
C356 O359 1.252 . S
C356 O360 1.260 . S
O357 In351 2.266 . S
O357 C354 1.252 . S
O358 In351 2.326 . S
O358 C354 1.260 . S
O359 In351 2.266 . S
O359 C356 1.252 . S
O360 In351 2.326 . S
O360 C356 1.260 . S
C361 O352 1.240 . S
C361 O353 1.252 . S
O362 In351 2.294 . S
O362 C355 1.240 . S
O363 In351 2.326 . S
O363 C355 1.252 . S
In364 O365 2.294 . S
In364 O366 2.326 . S
In364 O370 2.266 . S
In364 O371 2.326 . S
In364 O372 2.266 . S
In364 O373 2.326 . S
In364 O375 2.294 . S
In364 O376 2.326 . S
O365 In364 2.294 . S
O365 C374 1.240 . S
O366 In364 2.326 . S
O366 C374 1.252 . S
C367 O370 1.252 . S
C367 O371 1.260 . S
C368 O375 1.240 . S
C368 O376 1.252 . S
C369 O372 1.252 . S
C369 O373 1.260 . S
O370 In364 2.266 . S
O370 C367 1.252 . S
O371 In364 2.326 . S
O371 C367 1.260 . S
O372 In364 2.266 . S
O372 C369 1.252 . S
O373 In364 2.326 . S
O373 C369 1.260 . S
C374 O365 1.240 . S
C374 O366 1.252 . S
O375 In364 2.294 . S
O375 C368 1.240 . S
O376 In364 2.326 . S
O376 C368 1.252 . S
In377 O378 2.294 . S
In377 O379 2.326 . S
In377 O383 2.266 . S
In377 O384 2.326 . S
In377 O385 2.266 . S
In377 O386 2.326 . S
In377 O388 2.294 . S
In377 O389 2.326 . S
O378 In377 2.294 . S
O378 C387 1.240 . S
O379 In377 2.326 . S
O379 C387 1.252 . S
C380 O383 1.252 . S
C380 O384 1.260 . S
C381 O388 1.240 . S
C381 O389 1.252 . S
C382 O385 1.252 . S
C382 O386 1.260 . S
O383 In377 2.266 . S
O383 C380 1.252 . S
O384 In377 2.326 . S
O384 C380 1.260 . S
O385 In377 2.266 . S
O385 C382 1.252 . S
O386 In377 2.326 . S
O386 C382 1.260 . S
C387 O378 1.240 . S
C387 O379 1.252 . S
O388 In377 2.294 . S
O388 C381 1.240 . S
O389 In377 2.326 . S
O389 C381 1.252 . S
In390 O391 2.294 . S
In390 O392 2.326 . S
In390 O396 2.266 . S
In390 O397 2.326 . S
In390 O398 2.266 . S
In390 O399 2.326 . S
In390 O401 2.294 . S
In390 O402 2.326 . S
O391 In390 2.294 . S
O391 C400 1.240 . S
O392 In390 2.326 . S
O392 C400 1.252 . S
C393 O396 1.252 . S
C393 O397 1.260 . S
C394 O401 1.240 . S
C394 O402 1.252 . S
C395 O398 1.252 . S
C395 O399 1.260 . S
O396 In390 2.266 . S
O396 C393 1.252 . S
O397 In390 2.326 . S
O397 C393 1.260 . S
O398 In390 2.266 . S
O398 C395 1.252 . S
O399 In390 2.326 . S
O399 C395 1.260 . S
C400 O391 1.240 . S
C400 O392 1.252 . S
O401 In390 2.294 . S
O401 C394 1.240 . S
O402 In390 2.326 . S
O402 C394 1.252 . S
In403 O404 2.294 . S
In403 O405 2.326 . S
In403 O409 2.266 . S
In403 O410 2.326 . S
In403 O411 2.266 . S
In403 O412 2.326 . S
In403 O414 2.294 . S
In403 O415 2.326 . S
O404 In403 2.294 . S
O404 C413 1.240 . S
O405 In403 2.326 . S
O405 C413 1.252 . S
C406 O409 1.252 . S
C406 O410 1.260 . S
C407 O414 1.240 . S
C407 O415 1.252 . S
C408 O411 1.252 . S
C408 O412 1.260 . S
O409 In403 2.266 . S
O409 C406 1.252 . S
O410 In403 2.326 . S
O410 C406 1.260 . S
O411 In403 2.266 . S
O411 C408 1.252 . S
O412 In403 2.326 . S
O412 C408 1.260 . S
C413 O404 1.240 . S
C413 O405 1.252 . S
O414 In403 2.294 . S
O414 C407 1.240 . S
O415 In403 2.326 . S
O415 C407 1.252 . S
In416 O417 2.294 . S
In416 O418 2.326 . S
In416 O422 2.266 . S
In416 O423 2.326 . S
In416 O424 2.266 . S
In416 O425 2.326 . S
In416 O427 2.294 . S
In416 O428 2.326 . S
O417 In416 2.294 . S
O417 C426 1.240 . S
O418 In416 2.326 . S
O418 C426 1.252 . S
C419 O422 1.252 . S
C419 O423 1.260 . S
C420 O427 1.240 . S
C420 O428 1.252 . S
C421 O424 1.252 . S
C421 O425 1.260 . S
O422 In416 2.266 . S
O422 C419 1.252 . S
O423 In416 2.326 . S
O423 C419 1.260 . S
O424 In416 2.266 . S
O424 C421 1.252 . S
O425 In416 2.326 . S
O425 C421 1.260 . S
C426 O417 1.240 . S
C426 O418 1.252 . S
O427 In416 2.294 . S
O427 C420 1.240 . S
O428 In416 2.326 . S
O428 C420 1.252 . S
In429 O430 2.294 . S
In429 O431 2.326 . S
In429 O435 2.266 . S
In429 O436 2.326 . S
In429 O437 2.266 . S
In429 O438 2.326 . S
In429 O440 2.294 . S
In429 O441 2.326 . S
O430 In429 2.294 . S
O430 C439 1.240 . S
O431 In429 2.326 . S
O431 C439 1.252 . S
C432 O435 1.252 . S
C432 O436 1.260 . S
C433 O440 1.240 . S
C433 O441 1.252 . S
C434 O437 1.252 . S
C434 O438 1.260 . S
O435 In429 2.266 . S
O435 C432 1.252 . S
O436 In429 2.326 . S
O436 C432 1.260 . S
O437 In429 2.266 . S
O437 C434 1.252 . S
O438 In429 2.326 . S
O438 C434 1.260 . S
C439 O430 1.240 . S
C439 O431 1.252 . S
O440 In429 2.294 . S
O440 C433 1.240 . S
O441 In429 2.326 . S
O441 C433 1.252 . S
In442 O443 2.294 . S
In442 O444 2.326 . S
In442 O448 2.266 . S
In442 O449 2.326 . S
In442 O450 2.266 . S
In442 O451 2.326 . S
In442 O453 2.294 . S
In442 O454 2.326 . S
O443 In442 2.294 . S
O443 C452 1.240 . S
O444 In442 2.326 . S
O444 C452 1.252 . S
C445 O448 1.252 . S
C445 O449 1.260 . S
C446 O453 1.240 . S
C446 O454 1.252 . S
C447 O450 1.252 . S
C447 O451 1.260 . S
O448 In442 2.266 . S
O448 C445 1.252 . S
O449 In442 2.326 . S
O449 C445 1.260 . S
O450 In442 2.266 . S
O450 C447 1.252 . S
O451 In442 2.326 . S
O451 C447 1.260 . S
C452 O443 1.240 . S
C452 O444 1.252 . S
O453 In442 2.294 . S
O453 C446 1.240 . S
O454 In442 2.326 . S
O454 C446 1.252 . S
In455 O456 2.294 . S
In455 O457 2.326 . S
In455 O461 2.266 . S
In455 O462 2.326 . S
In455 O463 2.266 . S
In455 O464 2.326 . S
In455 O466 2.294 . S
In455 O467 2.326 . S
O456 In455 2.294 . S
O456 C465 1.240 . S
O457 In455 2.326 . S
O457 C465 1.252 . S
C458 O461 1.252 . S
C458 O462 1.260 . S
C459 O466 1.240 . S
C459 O467 1.252 . S
C460 O463 1.252 . S
C460 O464 1.260 . S
O461 In455 2.266 . S
O461 C458 1.252 . S
O462 In455 2.326 . S
O462 C458 1.260 . S
O463 In455 2.266 . S
O463 C460 1.252 . S
O464 In455 2.326 . S
O464 C460 1.260 . S
C465 O456 1.240 . S
C465 O457 1.252 . S
O466 In455 2.294 . S
O466 C459 1.240 . S
O467 In455 2.326 . S
O467 C459 1.252 . S
In468 O469 2.294 . S
In468 O470 2.326 . S
In468 O474 2.266 . S
In468 O475 2.326 . S
In468 O476 2.266 . S
In468 O477 2.326 . S
In468 O479 2.294 . S
In468 O480 2.326 . S
O469 In468 2.294 . S
O469 C478 1.240 . S
O470 In468 2.326 . S
O470 C478 1.252 . S
C471 O474 1.252 . S
C471 O475 1.260 . S
C472 O479 1.240 . S
C472 O480 1.252 . S
C473 O476 1.252 . S
C473 O477 1.260 . S
O474 In468 2.266 . S
O474 C471 1.252 . S
O475 In468 2.326 . S
O475 C471 1.260 . S
O476 In468 2.266 . S
O476 C473 1.252 . S
O477 In468 2.326 . S
O477 C473 1.260 . S
C478 O469 1.240 . S
C478 O470 1.252 . S
O479 In468 2.294 . S
O479 C472 1.240 . S
O480 In468 2.326 . S
O480 C472 1.252 . S
In481 O482 2.294 . S
In481 O483 2.326 . S
In481 O487 2.266 . S
In481 O488 2.326 . S
In481 O489 2.266 . S
In481 O490 2.326 . S
In481 O492 2.294 . S
In481 O493 2.326 . S
O482 In481 2.294 . S
O482 C491 1.240 . S
O483 In481 2.326 . S
O483 C491 1.252 . S
C484 O487 1.252 . S
C484 O488 1.260 . S
C485 O492 1.240 . S
C485 O493 1.252 . S
C486 O489 1.252 . S
C486 O490 1.260 . S
O487 In481 2.266 . S
O487 C484 1.252 . S
O488 In481 2.326 . S
O488 C484 1.260 . S
O489 In481 2.266 . S
O489 C486 1.252 . S
O490 In481 2.326 . S
O490 C486 1.260 . S
C491 O482 1.240 . S
C491 O483 1.252 . S
O492 In481 2.294 . S
O492 C485 1.240 . S
O493 In481 2.326 . S
O493 C485 1.252 . S
In494 O495 2.294 . S
In494 O496 2.326 . S
In494 O500 2.266 . S
In494 O501 2.326 . S
In494 O502 2.266 . S
In494 O503 2.326 . S
In494 O505 2.294 . S
In494 O506 2.326 . S
O495 In494 2.294 . S
O495 C504 1.240 . S
O496 In494 2.326 . S
O496 C504 1.252 . S
C497 O500 1.252 . S
C497 O501 1.260 . S
C498 O505 1.240 . S
C498 O506 1.252 . S
C499 O502 1.252 . S
C499 O503 1.260 . S
O500 In494 2.266 . S
O500 C497 1.252 . S
O501 In494 2.326 . S
O501 C497 1.260 . S
O502 In494 2.266 . S
O502 C499 1.252 . S
O503 In494 2.326 . S
O503 C499 1.260 . S
C504 O495 1.240 . S
C504 O496 1.252 . S
O505 In494 2.294 . S
O505 C498 1.240 . S
O506 In494 2.326 . S
O506 C498 1.252 . S
In507 O508 2.294 . S
In507 O509 2.326 . S
In507 O513 2.266 . S
In507 O514 2.326 . S
In507 O515 2.266 . S
In507 O516 2.326 . S
In507 O518 2.294 . S
In507 O519 2.326 . S
O508 In507 2.294 . S
O508 C517 1.240 . S
O509 In507 2.326 . S
O509 C517 1.252 . S
C510 O513 1.252 . S
C510 O514 1.260 . S
C511 O518 1.240 . S
C511 O519 1.252 . S
C512 O515 1.252 . S
C512 O516 1.260 . S
O513 In507 2.266 . S
O513 C510 1.252 . S
O514 In507 2.326 . S
O514 C510 1.260 . S
O515 In507 2.266 . S
O515 C512 1.252 . S
O516 In507 2.326 . S
O516 C512 1.260 . S
C517 O508 1.240 . S
C517 O509 1.252 . S
O518 In507 2.294 . S
O518 C511 1.240 . S
O519 In507 2.326 . S
O519 C511 1.252 . S
In520 O521 2.294 . S
In520 O522 2.326 . S
In520 O526 2.266 . S
In520 O527 2.326 . S
In520 O528 2.266 . S
In520 O529 2.326 . S
In520 O531 2.294 . S
In520 O532 2.326 . S
O521 In520 2.294 . S
O521 C530 1.240 . S
O522 In520 2.326 . S
O522 C530 1.252 . S
C523 O526 1.252 . S
C523 O527 1.260 . S
C524 O531 1.240 . S
C524 O532 1.252 . S
C525 O528 1.252 . S
C525 O529 1.260 . S
O526 In520 2.266 . S
O526 C523 1.252 . S
O527 In520 2.326 . S
O527 C523 1.260 . S
O528 In520 2.266 . S
O528 C525 1.252 . S
O529 In520 2.326 . S
O529 C525 1.260 . S
C530 O521 1.240 . S
C530 O522 1.252 . S
O531 In520 2.294 . S
O531 C524 1.240 . S
O532 In520 2.326 . S
O532 C524 1.252 . S
In533 O534 2.294 . S
In533 O535 2.326 . S
In533 O539 2.266 . S
In533 O540 2.326 . S
In533 O541 2.266 . S
In533 O542 2.326 . S
In533 O544 2.294 . S
In533 O545 2.326 . S
O534 In533 2.294 . S
O534 C543 1.240 . S
O535 In533 2.326 . S
O535 C543 1.252 . S
C536 O539 1.252 . S
C536 O540 1.260 . S
C537 O544 1.240 . S
C537 O545 1.252 . S
C538 O541 1.252 . S
C538 O542 1.260 . S
O539 In533 2.266 . S
O539 C536 1.252 . S
O540 In533 2.326 . S
O540 C536 1.260 . S
O541 In533 2.266 . S
O541 C538 1.252 . S
O542 In533 2.326 . S
O542 C538 1.260 . S
C543 O534 1.240 . S
C543 O535 1.252 . S
O544 In533 2.294 . S
O544 C537 1.240 . S
O545 In533 2.326 . S
O545 C537 1.252 . S
In546 O547 2.294 . S
In546 O548 2.326 . S
In546 O552 2.266 . S
In546 O553 2.326 . S
In546 O554 2.266 . S
In546 O555 2.326 . S
In546 O557 2.294 . S
In546 O558 2.326 . S
O547 In546 2.294 . S
O547 C556 1.240 . S
O548 In546 2.326 . S
O548 C556 1.252 . S
C549 O552 1.252 . S
C549 O553 1.260 . S
C550 O557 1.240 . S
C550 O558 1.252 . S
C551 O554 1.252 . S
C551 O555 1.260 . S
O552 In546 2.266 . S
O552 C549 1.252 . S
O553 In546 2.326 . S
O553 C549 1.260 . S
O554 In546 2.266 . S
O554 C551 1.252 . S
O555 In546 2.326 . S
O555 C551 1.260 . S
C556 O547 1.240 . S
C556 O548 1.252 . S
O557 In546 2.294 . S
O557 C550 1.240 . S
O558 In546 2.326 . S
O558 C550 1.252 . S
In559 O560 2.294 . S
In559 O561 2.326 . S
In559 O565 2.266 . S
In559 O566 2.326 . S
In559 O567 2.266 . S
In559 O568 2.326 . S
In559 O570 2.294 . S
In559 O571 2.326 . S
O560 In559 2.294 . S
O560 C569 1.240 . S
O561 In559 2.326 . S
O561 C569 1.252 . S
C562 O565 1.252 . S
C562 O566 1.260 . S
C563 O570 1.240 . S
C563 O571 1.252 . S
C564 O567 1.252 . S
C564 O568 1.260 . S
O565 In559 2.266 . S
O565 C562 1.252 . S
O566 In559 2.326 . S
O566 C562 1.260 . S
O567 In559 2.266 . S
O567 C564 1.252 . S
O568 In559 2.326 . S
O568 C564 1.260 . S
C569 O560 1.240 . S
C569 O561 1.252 . S
O570 In559 2.294 . S
O570 C563 1.240 . S
O571 In559 2.326 . S
O571 C563 1.252 . S
In572 O573 2.294 . S
In572 O574 2.326 . S
In572 O578 2.266 . S
In572 O579 2.326 . S
In572 O580 2.266 . S
In572 O581 2.326 . S
In572 O583 2.294 . S
In572 O584 2.326 . S
O573 In572 2.294 . S
O573 C582 1.240 . S
O574 In572 2.326 . S
O574 C582 1.252 . S
C575 O578 1.252 . S
C575 O579 1.260 . S
C576 O583 1.240 . S
C576 O584 1.252 . S
C577 O580 1.252 . S
C577 O581 1.260 . S
O578 In572 2.266 . S
O578 C575 1.252 . S
O579 In572 2.326 . S
O579 C575 1.260 . S
O580 In572 2.266 . S
O580 C577 1.252 . S
O581 In572 2.326 . S
O581 C577 1.260 . S
C582 O573 1.240 . S
C582 O574 1.252 . S
O583 In572 2.294 . S
O583 C576 1.240 . S
O584 In572 2.326 . S
O584 C576 1.252 . S
In585 O586 2.294 . S
In585 O587 2.326 . S
In585 O591 2.266 . S
In585 O592 2.326 . S
In585 O593 2.266 . S
In585 O594 2.326 . S
In585 O596 2.294 . S
In585 O597 2.326 . S
O586 In585 2.294 . S
O586 C595 1.240 . S
O587 In585 2.326 . S
O587 C595 1.252 . S
C588 O591 1.252 . S
C588 O592 1.260 . S
C589 O596 1.240 . S
C589 O597 1.252 . S
C590 O593 1.252 . S
C590 O594 1.260 . S
O591 In585 2.266 . S
O591 C588 1.252 . S
O592 In585 2.326 . S
O592 C588 1.260 . S
O593 In585 2.266 . S
O593 C590 1.252 . S
O594 In585 2.326 . S
O594 C590 1.260 . S
C595 O586 1.240 . S
C595 O587 1.252 . S
O596 In585 2.294 . S
O596 C589 1.240 . S
O597 In585 2.326 . S
O597 C589 1.252 . S
In598 O599 2.294 . S
In598 O600 2.326 . S
In598 O604 2.266 . S
In598 O605 2.326 . S
In598 O606 2.266 . S
In598 O607 2.326 . S
In598 O609 2.294 . S
In598 O610 2.326 . S
O599 In598 2.294 . S
O599 C608 1.240 . S
O600 In598 2.326 . S
O600 C608 1.252 . S
C601 O604 1.252 . S
C601 O605 1.260 . S
C602 O609 1.240 . S
C602 O610 1.252 . S
C603 O606 1.252 . S
C603 O607 1.260 . S
O604 In598 2.266 . S
O604 C601 1.252 . S
O605 In598 2.326 . S
O605 C601 1.260 . S
O606 In598 2.266 . S
O606 C603 1.252 . S
O607 In598 2.326 . S
O607 C603 1.260 . S
C608 O599 1.240 . S
C608 O600 1.252 . S
O609 In598 2.294 . S
O609 C602 1.240 . S
O610 In598 2.326 . S
O610 C602 1.252 . S
In611 O612 2.294 . S
In611 O613 2.326 . S
In611 O617 2.266 . S
In611 O618 2.326 . S
In611 O619 2.266 . S
In611 O620 2.326 . S
In611 O622 2.294 . S
In611 O623 2.326 . S
O612 In611 2.294 . S
O612 C621 1.240 . S
O613 In611 2.326 . S
O613 C621 1.252 . S
C614 O617 1.252 . S
C614 O618 1.260 . S
C615 O622 1.240 . S
C615 O623 1.252 . S
C616 O619 1.252 . S
C616 O620 1.260 . S
O617 In611 2.266 . S
O617 C614 1.252 . S
O618 In611 2.326 . S
O618 C614 1.260 . S
O619 In611 2.266 . S
O619 C616 1.252 . S
O620 In611 2.326 . S
O620 C616 1.260 . S
C621 O612 1.240 . S
C621 O613 1.252 . S
O622 In611 2.294 . S
O622 C615 1.240 . S
O623 In611 2.326 . S
O623 C615 1.252 . S
In624 O625 2.294 . S
In624 O626 2.326 . S
In624 O630 2.266 . S
In624 O631 2.326 . S
In624 O632 2.266 . S
In624 O633 2.326 . S
In624 O635 2.294 . S
In624 O636 2.326 . S
O625 In624 2.294 . S
O625 C634 1.240 . S
O626 In624 2.326 . S
O626 C634 1.252 . S
C627 O630 1.252 . S
C627 O631 1.260 . S
C628 O635 1.240 . S
C628 O636 1.252 . S
C629 O632 1.252 . S
C629 O633 1.260 . S
O630 In624 2.266 . S
O630 C627 1.252 . S
O631 In624 2.326 . S
O631 C627 1.260 . S
O632 In624 2.266 . S
O632 C629 1.252 . S
O633 In624 2.326 . S
O633 C629 1.260 . S
C634 O625 1.240 . S
C634 O626 1.252 . S
O635 In624 2.294 . S
O635 C628 1.240 . S
O636 In624 2.326 . S
O636 C628 1.252 . S
In637 O638 2.294 . S
In637 O639 2.326 . S
In637 O643 2.266 . S
In637 O644 2.326 . S
In637 O645 2.266 . S
In637 O646 2.326 . S
In637 O648 2.294 . S
In637 O649 2.326 . S
O638 In637 2.294 . S
O638 C647 1.240 . S
O639 In637 2.326 . S
O639 C647 1.252 . S
C640 O643 1.252 . S
C640 O644 1.260 . S
C641 O648 1.240 . S
C641 O649 1.252 . S
C642 O645 1.252 . S
C642 O646 1.260 . S
O643 In637 2.266 . S
O643 C640 1.252 . S
O644 In637 2.326 . S
O644 C640 1.260 . S
O645 In637 2.266 . S
O645 C642 1.252 . S
O646 In637 2.326 . S
O646 C642 1.260 . S
C647 O638 1.240 . S
C647 O639 1.252 . S
O648 In637 2.294 . S
O648 C641 1.240 . S
O649 In637 2.326 . S
O649 C641 1.252 . S
In650 O651 2.294 . S
In650 O652 2.326 . S
In650 O656 2.266 . S
In650 O657 2.326 . S
In650 O658 2.266 . S
In650 O659 2.326 . S
In650 O661 2.294 . S
In650 O662 2.326 . S
O651 In650 2.294 . S
O651 C660 1.240 . S
O652 In650 2.326 . S
O652 C660 1.252 . S
C653 O656 1.252 . S
C653 O657 1.260 . S
C654 O661 1.240 . S
C654 O662 1.252 . S
C655 O658 1.252 . S
C655 O659 1.260 . S
O656 In650 2.266 . S
O656 C653 1.252 . S
O657 In650 2.326 . S
O657 C653 1.260 . S
O658 In650 2.266 . S
O658 C655 1.252 . S
O659 In650 2.326 . S
O659 C655 1.260 . S
C660 O651 1.240 . S
C660 O652 1.252 . S
O661 In650 2.294 . S
O661 C654 1.240 . S
O662 In650 2.326 . S
O662 C654 1.252 . S
In663 O664 2.294 . S
In663 O665 2.326 . S
In663 O669 2.266 . S
In663 O670 2.326 . S
In663 O671 2.266 . S
In663 O672 2.326 . S
In663 O674 2.294 . S
In663 O675 2.326 . S
O664 In663 2.294 . S
O664 C673 1.240 . S
O665 In663 2.326 . S
O665 C673 1.252 . S
C666 O669 1.252 . S
C666 O670 1.260 . S
C667 O674 1.240 . S
C667 O675 1.252 . S
C668 O671 1.252 . S
C668 O672 1.260 . S
O669 In663 2.266 . S
O669 C666 1.252 . S
O670 In663 2.326 . S
O670 C666 1.260 . S
O671 In663 2.266 . S
O671 C668 1.252 . S
O672 In663 2.326 . S
O672 C668 1.260 . S
C673 O664 1.240 . S
C673 O665 1.252 . S
O674 In663 2.294 . S
O674 C667 1.240 . S
O675 In663 2.326 . S
O675 C667 1.252 . S
In676 O677 2.294 . S
In676 O678 2.326 . S
In676 O682 2.266 . S
In676 O683 2.326 . S
In676 O684 2.266 . S
In676 O685 2.326 . S
In676 O687 2.294 . S
In676 O688 2.326 . S
O677 In676 2.294 . S
O677 C686 1.240 . S
O678 In676 2.326 . S
O678 C686 1.252 . S
C679 O682 1.252 . S
C679 O683 1.260 . S
C680 O687 1.240 . S
C680 O688 1.252 . S
C681 O684 1.252 . S
C681 O685 1.260 . S
O682 In676 2.266 . S
O682 C679 1.252 . S
O683 In676 2.326 . S
O683 C679 1.260 . S
O684 In676 2.266 . S
O684 C681 1.252 . S
O685 In676 2.326 . S
O685 C681 1.260 . S
C686 O677 1.240 . S
C686 O678 1.252 . S
O687 In676 2.294 . S
O687 C680 1.240 . S
O688 In676 2.326 . S
O688 C680 1.252 . S
In689 O690 2.294 . S
In689 O691 2.326 . S
In689 O695 2.266 . S
In689 O696 2.326 . S
In689 O697 2.266 . S
In689 O698 2.326 . S
In689 O700 2.294 . S
In689 O701 2.326 . S
O690 In689 2.294 . S
O690 C699 1.240 . S
O691 In689 2.326 . S
O691 C699 1.252 . S
C692 O695 1.252 . S
C692 O696 1.260 . S
C693 O700 1.240 . S
C693 O701 1.252 . S
C694 O697 1.252 . S
C694 O698 1.260 . S
O695 In689 2.266 . S
O695 C692 1.252 . S
O696 In689 2.326 . S
O696 C692 1.260 . S
O697 In689 2.266 . S
O697 C694 1.252 . S
O698 In689 2.326 . S
O698 C694 1.260 . S
C699 O690 1.240 . S
C699 O691 1.252 . S
O700 In689 2.294 . S
O700 C693 1.240 . S
O701 In689 2.326 . S
O701 C693 1.252 . S
In702 O703 2.294 . S
In702 O704 2.326 . S
In702 O708 2.266 . S
In702 O709 2.326 . S
In702 O710 2.266 . S
In702 O711 2.326 . S
In702 O713 2.294 . S
In702 O714 2.326 . S
O703 In702 2.294 . S
O703 C712 1.240 . S
O704 In702 2.326 . S
O704 C712 1.252 . S
C705 O708 1.252 . S
C705 O709 1.260 . S
C706 O713 1.240 . S
C706 O714 1.252 . S
C707 O710 1.252 . S
C707 O711 1.260 . S
O708 In702 2.266 . S
O708 C705 1.252 . S
O709 In702 2.326 . S
O709 C705 1.260 . S
O710 In702 2.266 . S
O710 C707 1.252 . S
O711 In702 2.326 . S
O711 C707 1.260 . S
C712 O703 1.240 . S
C712 O704 1.252 . S
O713 In702 2.294 . S
O713 C706 1.240 . S
O714 In702 2.326 . S
O714 C706 1.252 . S
In715 O716 2.294 . S
In715 O717 2.326 . S
In715 O721 2.266 . S
In715 O722 2.326 . S
In715 O723 2.266 . S
In715 O724 2.326 . S
In715 O726 2.294 . S
In715 O727 2.326 . S
O716 In715 2.294 . S
O716 C725 1.240 . S
O717 In715 2.326 . S
O717 C725 1.252 . S
C718 O721 1.252 . S
C718 O722 1.260 . S
C719 O726 1.240 . S
C719 O727 1.252 . S
C720 O723 1.252 . S
C720 O724 1.260 . S
O721 In715 2.266 . S
O721 C718 1.252 . S
O722 In715 2.326 . S
O722 C718 1.260 . S
O723 In715 2.266 . S
O723 C720 1.252 . S
O724 In715 2.326 . S
O724 C720 1.260 . S
C725 O716 1.240 . S
C725 O717 1.252 . S
O726 In715 2.294 . S
O726 C719 1.240 . S
O727 In715 2.326 . S
O727 C719 1.252 . S
In728 O729 2.294 . S
In728 O730 2.326 . S
In728 O734 2.266 . S
In728 O735 2.326 . S
In728 O736 2.266 . S
In728 O737 2.326 . S
In728 O739 2.294 . S
In728 O740 2.326 . S
O729 In728 2.294 . S
O729 C738 1.240 . S
O730 In728 2.326 . S
O730 C738 1.252 . S
C731 O734 1.252 . S
C731 O735 1.260 . S
C732 O739 1.240 . S
C732 O740 1.252 . S
C733 O736 1.252 . S
C733 O737 1.260 . S
O734 In728 2.266 . S
O734 C731 1.252 . S
O735 In728 2.326 . S
O735 C731 1.260 . S
O736 In728 2.266 . S
O736 C733 1.252 . S
O737 In728 2.326 . S
O737 C733 1.260 . S
C738 O729 1.240 . S
C738 O730 1.252 . S
O739 In728 2.294 . S
O739 C732 1.240 . S
O740 In728 2.326 . S
O740 C732 1.252 . S
In741 O742 2.294 . S
In741 O743 2.326 . S
In741 O747 2.266 . S
In741 O748 2.326 . S
In741 O749 2.266 . S
In741 O750 2.326 . S
In741 O752 2.294 . S
In741 O753 2.326 . S
O742 In741 2.294 . S
O742 C751 1.240 . S
O743 In741 2.326 . S
O743 C751 1.252 . S
C744 O747 1.252 . S
C744 O748 1.260 . S
C745 O752 1.240 . S
C745 O753 1.252 . S
C746 O749 1.252 . S
C746 O750 1.260 . S
O747 In741 2.266 . S
O747 C744 1.252 . S
O748 In741 2.326 . S
O748 C744 1.260 . S
O749 In741 2.266 . S
O749 C746 1.252 . S
O750 In741 2.326 . S
O750 C746 1.260 . S
C751 O742 1.240 . S
C751 O743 1.252 . S
O752 In741 2.294 . S
O752 C745 1.240 . S
O753 In741 2.326 . S
O753 C745 1.252 . S
In754 O755 2.294 . S
In754 O756 2.326 . S
In754 O760 2.266 . S
In754 O761 2.326 . S
In754 O762 2.266 . S
In754 O763 2.326 . S
In754 O765 2.294 . S
In754 O766 2.326 . S
O755 In754 2.294 . S
O755 C764 1.240 . S
O756 In754 2.326 . S
O756 C764 1.252 . S
C757 O760 1.252 . S
C757 O761 1.260 . S
C758 O765 1.240 . S
C758 O766 1.252 . S
C759 O762 1.252 . S
C759 O763 1.260 . S
O760 In754 2.266 . S
O760 C757 1.252 . S
O761 In754 2.326 . S
O761 C757 1.260 . S
O762 In754 2.266 . S
O762 C759 1.252 . S
O763 In754 2.326 . S
O763 C759 1.260 . S
C764 O755 1.240 . S
C764 O756 1.252 . S
O765 In754 2.294 . S
O765 C758 1.240 . S
O766 In754 2.326 . S
O766 C758 1.252 . S
In767 O768 2.294 . S
In767 O769 2.326 . S
In767 O773 2.266 . S
In767 O774 2.326 . S
In767 O775 2.266 . S
In767 O776 2.326 . S
In767 O778 2.294 . S
In767 O779 2.326 . S
O768 In767 2.294 . S
O768 C777 1.240 . S
O769 In767 2.326 . S
O769 C777 1.252 . S
C770 O773 1.252 . S
C770 O774 1.260 . S
C771 O778 1.240 . S
C771 O779 1.252 . S
C772 O775 1.252 . S
C772 O776 1.260 . S
O773 In767 2.266 . S
O773 C770 1.252 . S
O774 In767 2.326 . S
O774 C770 1.260 . S
O775 In767 2.266 . S
O775 C772 1.252 . S
O776 In767 2.326 . S
O776 C772 1.260 . S
C777 O768 1.240 . S
C777 O769 1.252 . S
O778 In767 2.294 . S
O778 C771 1.240 . S
O779 In767 2.326 . S
O779 C771 1.252 . S
In780 O781 2.294 . S
In780 O782 2.326 . S
In780 O786 2.266 . S
In780 O787 2.326 . S
In780 O788 2.266 . S
In780 O789 2.326 . S
In780 O791 2.294 . S
In780 O792 2.326 . S
O781 In780 2.294 . S
O781 C790 1.240 . S
O782 In780 2.326 . S
O782 C790 1.252 . S
C783 O786 1.252 . S
C783 O787 1.260 . S
C784 O791 1.240 . S
C784 O792 1.252 . S
C785 O788 1.252 . S
C785 O789 1.260 . S
O786 In780 2.266 . S
O786 C783 1.252 . S
O787 In780 2.326 . S
O787 C783 1.260 . S
O788 In780 2.266 . S
O788 C785 1.252 . S
O789 In780 2.326 . S
O789 C785 1.260 . S
C790 O781 1.240 . S
C790 O782 1.252 . S
O791 In780 2.294 . S
O791 C784 1.240 . S
O792 In780 2.326 . S
O792 C784 1.252 . S
In793 O794 2.294 . S
In793 O795 2.326 . S
In793 O799 2.266 . S
In793 O800 2.326 . S
In793 O801 2.266 . S
In793 O802 2.326 . S
In793 O804 2.294 . S
In793 O805 2.326 . S
O794 In793 2.294 . S
O794 C803 1.240 . S
O795 In793 2.326 . S
O795 C803 1.252 . S
C796 O799 1.252 . S
C796 O800 1.260 . S
C797 O804 1.240 . S
C797 O805 1.252 . S
C798 O801 1.252 . S
C798 O802 1.260 . S
O799 In793 2.266 . S
O799 C796 1.252 . S
O800 In793 2.326 . S
O800 C796 1.260 . S
O801 In793 2.266 . S
O801 C798 1.252 . S
O802 In793 2.326 . S
O802 C798 1.260 . S
C803 O794 1.240 . S
C803 O795 1.252 . S
O804 In793 2.294 . S
O804 C797 1.240 . S
O805 In793 2.326 . S
O805 C797 1.252 . S
In806 O807 2.294 . S
In806 O808 2.326 . S
In806 O812 2.266 . S
In806 O813 2.326 . S
In806 O814 2.266 . S
In806 O815 2.326 . S
In806 O817 2.294 . S
In806 O818 2.326 . S
O807 In806 2.294 . S
O807 C816 1.240 . S
O808 In806 2.326 . S
O808 C816 1.252 . S
C809 O812 1.252 . S
C809 O813 1.260 . S
C810 O817 1.240 . S
C810 O818 1.252 . S
C811 O814 1.252 . S
C811 O815 1.260 . S
O812 In806 2.266 . S
O812 C809 1.252 . S
O813 In806 2.326 . S
O813 C809 1.260 . S
O814 In806 2.266 . S
O814 C811 1.252 . S
O815 In806 2.326 . S
O815 C811 1.260 . S
C816 O807 1.240 . S
C816 O808 1.252 . S
O817 In806 2.294 . S
O817 C810 1.240 . S
O818 In806 2.326 . S
O818 C810 1.252 . S
In819 O820 2.294 . S
In819 O821 2.326 . S
In819 O825 2.266 . S
In819 O826 2.326 . S
In819 O827 2.266 . S
In819 O828 2.326 . S
In819 O830 2.294 . S
In819 O831 2.326 . S
O820 In819 2.294 . S
O820 C829 1.240 . S
O821 In819 2.326 . S
O821 C829 1.252 . S
C822 O825 1.252 . S
C822 O826 1.260 . S
C823 O830 1.240 . S
C823 O831 1.252 . S
C824 O827 1.252 . S
C824 O828 1.260 . S
O825 In819 2.266 . S
O825 C822 1.252 . S
O826 In819 2.326 . S
O826 C822 1.260 . S
O827 In819 2.266 . S
O827 C824 1.252 . S
O828 In819 2.326 . S
O828 C824 1.260 . S
C829 O820 1.240 . S
C829 O821 1.252 . S
O830 In819 2.294 . S
O830 C823 1.240 . S
O831 In819 2.326 . S
O831 C823 1.252 . S
In832 O833 2.294 . S
In832 O834 2.326 . S
In832 O838 2.266 . S
In832 O839 2.326 . S
In832 O840 2.266 . S
In832 O841 2.326 . S
In832 O843 2.294 . S
In832 O844 2.326 . S
O833 In832 2.294 . S
O833 C842 1.240 . S
O834 In832 2.326 . S
O834 C842 1.252 . S
C835 O838 1.252 . S
C835 O839 1.260 . S
C836 O843 1.240 . S
C836 O844 1.252 . S
C837 O840 1.252 . S
C837 O841 1.260 . S
O838 In832 2.266 . S
O838 C835 1.252 . S
O839 In832 2.326 . S
O839 C835 1.260 . S
O840 In832 2.266 . S
O840 C837 1.252 . S
O841 In832 2.326 . S
O841 C837 1.260 . S
C842 O833 1.240 . S
C842 O834 1.252 . S
O843 In832 2.294 . S
O843 C836 1.240 . S
O844 In832 2.326 . S
O844 C836 1.252 . S
In845 O846 2.294 . S
In845 O847 2.326 . S
In845 O851 2.266 . S
In845 O852 2.326 . S
In845 O853 2.266 . S
In845 O854 2.326 . S
In845 O856 2.294 . S
In845 O857 2.326 . S
O846 In845 2.294 . S
O846 C855 1.240 . S
O847 In845 2.326 . S
O847 C855 1.252 . S
C848 O851 1.252 . S
C848 O852 1.260 . S
C849 O856 1.240 . S
C849 O857 1.252 . S
C850 O853 1.252 . S
C850 O854 1.260 . S
O851 In845 2.266 . S
O851 C848 1.252 . S
O852 In845 2.326 . S
O852 C848 1.260 . S
O853 In845 2.266 . S
O853 C850 1.252 . S
O854 In845 2.326 . S
O854 C850 1.260 . S
C855 O846 1.240 . S
C855 O847 1.252 . S
O856 In845 2.294 . S
O856 C849 1.240 . S
O857 In845 2.326 . S
O857 C849 1.252 . S
In858 O859 2.294 . S
In858 O860 2.326 . S
In858 O864 2.266 . S
In858 O865 2.326 . S
In858 O866 2.266 . S
In858 O867 2.326 . S
In858 O869 2.294 . S
In858 O870 2.326 . S
O859 In858 2.294 . S
O859 C868 1.240 . S
O860 In858 2.326 . S
O860 C868 1.252 . S
C861 O864 1.252 . S
C861 O865 1.260 . S
C862 O869 1.240 . S
C862 O870 1.252 . S
C863 O866 1.252 . S
C863 O867 1.260 . S
O864 In858 2.266 . S
O864 C861 1.252 . S
O865 In858 2.326 . S
O865 C861 1.260 . S
O866 In858 2.266 . S
O866 C863 1.252 . S
O867 In858 2.326 . S
O867 C863 1.260 . S
C868 O859 1.240 . S
C868 O860 1.252 . S
O869 In858 2.294 . S
O869 C862 1.240 . S
O870 In858 2.326 . S
O870 C862 1.252 . S
In871 O872 2.294 . S
In871 O873 2.326 . S
In871 O877 2.266 . S
In871 O878 2.326 . S
In871 O879 2.266 . S
In871 O880 2.326 . S
In871 O882 2.294 . S
In871 O883 2.326 . S
O872 In871 2.294 . S
O872 C881 1.240 . S
O873 In871 2.326 . S
O873 C881 1.252 . S
C874 O877 1.252 . S
C874 O878 1.260 . S
C875 O882 1.240 . S
C875 O883 1.252 . S
C876 O879 1.252 . S
C876 O880 1.260 . S
O877 In871 2.266 . S
O877 C874 1.252 . S
O878 In871 2.326 . S
O878 C874 1.260 . S
O879 In871 2.266 . S
O879 C876 1.252 . S
O880 In871 2.326 . S
O880 C876 1.260 . S
C881 O872 1.240 . S
C881 O873 1.252 . S
O882 In871 2.294 . S
O882 C875 1.240 . S
O883 In871 2.326 . S
O883 C875 1.252 . S
In884 O885 2.294 . S
In884 O886 2.326 . S
In884 O890 2.266 . S
In884 O891 2.326 . S
In884 O892 2.266 . S
In884 O893 2.326 . S
In884 O895 2.294 . S
In884 O896 2.326 . S
O885 In884 2.294 . S
O885 C894 1.240 . S
O886 In884 2.326 . S
O886 C894 1.252 . S
C887 O890 1.252 . S
C887 O891 1.260 . S
C888 O895 1.240 . S
C888 O896 1.252 . S
C889 O892 1.252 . S
C889 O893 1.260 . S
O890 In884 2.266 . S
O890 C887 1.252 . S
O891 In884 2.326 . S
O891 C887 1.260 . S
O892 In884 2.266 . S
O892 C889 1.252 . S
O893 In884 2.326 . S
O893 C889 1.260 . S
C894 O885 1.240 . S
C894 O886 1.252 . S
O895 In884 2.294 . S
O895 C888 1.240 . S
O896 In884 2.326 . S
O896 C888 1.252 . S
In897 O898 2.294 . S
In897 O899 2.326 . S
In897 O903 2.266 . S
In897 O904 2.326 . S
In897 O905 2.266 . S
In897 O906 2.326 . S
In897 O908 2.294 . S
In897 O909 2.326 . S
O898 In897 2.294 . S
O898 C907 1.240 . S
O899 In897 2.326 . S
O899 C907 1.252 . S
C900 O903 1.252 . S
C900 O904 1.260 . S
C901 O908 1.240 . S
C901 O909 1.252 . S
C902 O905 1.252 . S
C902 O906 1.260 . S
O903 In897 2.266 . S
O903 C900 1.252 . S
O904 In897 2.326 . S
O904 C900 1.260 . S
O905 In897 2.266 . S
O905 C902 1.252 . S
O906 In897 2.326 . S
O906 C902 1.260 . S
C907 O898 1.240 . S
C907 O899 1.252 . S
O908 In897 2.294 . S
O908 C901 1.240 . S
O909 In897 2.326 . S
O909 C901 1.252 . S
In910 O911 2.294 . S
In910 O912 2.326 . S
In910 O916 2.266 . S
In910 O917 2.326 . S
In910 O918 2.266 . S
In910 O919 2.326 . S
In910 O921 2.294 . S
In910 O922 2.326 . S
O911 In910 2.294 . S
O911 C920 1.240 . S
O912 In910 2.326 . S
O912 C920 1.252 . S
C913 O916 1.252 . S
C913 O917 1.260 . S
C914 O921 1.240 . S
C914 O922 1.252 . S
C915 O918 1.252 . S
C915 O919 1.260 . S
O916 In910 2.266 . S
O916 C913 1.252 . S
O917 In910 2.326 . S
O917 C913 1.260 . S
O918 In910 2.266 . S
O918 C915 1.252 . S
O919 In910 2.326 . S
O919 C915 1.260 . S
C920 O911 1.240 . S
C920 O912 1.252 . S
O921 In910 2.294 . S
O921 C914 1.240 . S
O922 In910 2.326 . S
O922 C914 1.252 . S
In923 O924 2.294 . S
In923 O925 2.326 . S
In923 O929 2.266 . S
In923 O930 2.326 . S
In923 O931 2.266 . S
In923 O932 2.326 . S
In923 O934 2.294 . S
In923 O935 2.326 . S
O924 In923 2.294 . S
O924 C933 1.240 . S
O925 In923 2.326 . S
O925 C933 1.252 . S
C926 O929 1.252 . S
C926 O930 1.260 . S
C927 O934 1.240 . S
C927 O935 1.252 . S
C928 O931 1.252 . S
C928 O932 1.260 . S
O929 In923 2.266 . S
O929 C926 1.252 . S
O930 In923 2.326 . S
O930 C926 1.260 . S
O931 In923 2.266 . S
O931 C928 1.252 . S
O932 In923 2.326 . S
O932 C928 1.260 . S
C933 O924 1.240 . S
C933 O925 1.252 . S
O934 In923 2.294 . S
O934 C927 1.240 . S
O935 In923 2.326 . S
O935 C927 1.252 . S
In936 O937 2.294 . S
In936 O938 2.326 . S
In936 O942 2.266 . S
In936 O943 2.326 . S
In936 O944 2.266 . S
In936 O945 2.326 . S
In936 O947 2.294 . S
In936 O948 2.326 . S
O937 In936 2.294 . S
O937 C946 1.240 . S
O938 In936 2.326 . S
O938 C946 1.252 . S
C939 O942 1.252 . S
C939 O943 1.260 . S
C940 O947 1.240 . S
C940 O948 1.252 . S
C941 O944 1.252 . S
C941 O945 1.260 . S
O942 In936 2.266 . S
O942 C939 1.252 . S
O943 In936 2.326 . S
O943 C939 1.260 . S
O944 In936 2.266 . S
O944 C941 1.252 . S
O945 In936 2.326 . S
O945 C941 1.260 . S
C946 O937 1.240 . S
C946 O938 1.252 . S
O947 In936 2.294 . S
O947 C940 1.240 . S
O948 In936 2.326 . S
O948 C940 1.252 . S
In949 O950 2.294 . S
In949 O951 2.326 . S
In949 O955 2.266 . S
In949 O956 2.326 . S
In949 O957 2.266 . S
In949 O958 2.326 . S
In949 O960 2.294 . S
In949 O961 2.326 . S
O950 In949 2.294 . S
O950 C959 1.240 . S
O951 In949 2.326 . S
O951 C959 1.252 . S
C952 O955 1.252 . S
C952 O956 1.260 . S
C953 O960 1.240 . S
C953 O961 1.252 . S
C954 O957 1.252 . S
C954 O958 1.260 . S
O955 In949 2.266 . S
O955 C952 1.252 . S
O956 In949 2.326 . S
O956 C952 1.260 . S
O957 In949 2.266 . S
O957 C954 1.252 . S
O958 In949 2.326 . S
O958 C954 1.260 . S
C959 O950 1.240 . S
C959 O951 1.252 . S
O960 In949 2.294 . S
O960 C953 1.240 . S
O961 In949 2.326 . S
O961 C953 1.252 . S
In962 O963 2.294 . S
In962 O964 2.326 . S
In962 O968 2.266 . S
In962 O969 2.326 . S
In962 O970 2.266 . S
In962 O971 2.326 . S
In962 O973 2.294 . S
In962 O974 2.326 . S
O963 In962 2.294 . S
O963 C972 1.240 . S
O964 In962 2.326 . S
O964 C972 1.252 . S
C965 O968 1.252 . S
C965 O969 1.260 . S
C966 O973 1.240 . S
C966 O974 1.252 . S
C967 O970 1.252 . S
C967 O971 1.260 . S
O968 In962 2.266 . S
O968 C965 1.252 . S
O969 In962 2.326 . S
O969 C965 1.260 . S
O970 In962 2.266 . S
O970 C967 1.252 . S
O971 In962 2.326 . S
O971 C967 1.260 . S
C972 O963 1.240 . S
C972 O964 1.252 . S
O973 In962 2.294 . S
O973 C966 1.240 . S
O974 In962 2.326 . S
O974 C966 1.252 . S
In975 O976 2.294 . S
In975 O977 2.326 . S
In975 O981 2.266 . S
In975 O982 2.326 . S
In975 O983 2.266 . S
In975 O984 2.326 . S
In975 O986 2.294 . S
In975 O987 2.326 . S
O976 In975 2.294 . S
O976 C985 1.240 . S
O977 In975 2.326 . S
O977 C985 1.252 . S
C978 O981 1.252 . S
C978 O982 1.260 . S
C979 O986 1.240 . S
C979 O987 1.252 . S
C980 O983 1.252 . S
C980 O984 1.260 . S
O981 In975 2.266 . S
O981 C978 1.252 . S
O982 In975 2.326 . S
O982 C978 1.260 . S
O983 In975 2.266 . S
O983 C980 1.252 . S
O984 In975 2.326 . S
O984 C980 1.260 . S
C985 O976 1.240 . S
C985 O977 1.252 . S
O986 In975 2.294 . S
O986 C979 1.240 . S
O987 In975 2.326 . S
O987 C979 1.252 . S
In988 O989 2.294 . S
In988 O990 2.326 . S
In988 O994 2.266 . S
In988 O995 2.326 . S
In988 O996 2.266 . S
In988 O997 2.326 . S
In988 O999 2.294 . S
In988 O1000 2.326 . S
O989 In988 2.294 . S
O989 C998 1.240 . S
O990 In988 2.326 . S
O990 C998 1.252 . S
C991 O994 1.252 . S
C991 O995 1.260 . S
C992 O999 1.240 . S
C992 O1000 1.252 . S
C993 O996 1.252 . S
C993 O997 1.260 . S
O994 In988 2.266 . S
O994 C991 1.252 . S
O995 In988 2.326 . S
O995 C991 1.260 . S
O996 In988 2.266 . S
O996 C993 1.252 . S
O997 In988 2.326 . S
O997 C993 1.260 . S
C998 O989 1.240 . S
C998 O990 1.252 . S
O999 In988 2.294 . S
O999 C992 1.240 . S
O1000 In988 2.326 . S
O1000 C992 1.252 . S
In1001 O1002 2.294 . S
In1001 O1003 2.326 . S
In1001 O1007 2.266 . S
In1001 O1008 2.326 . S
In1001 O1009 2.266 . S
In1001 O1010 2.326 . S
In1001 O1012 2.294 . S
In1001 O1013 2.326 . S
O1002 In1001 2.294 . S
O1002 C1011 1.240 . S
O1003 In1001 2.326 . S
O1003 C1011 1.252 . S
C1004 O1007 1.252 . S
C1004 O1008 1.260 . S
C1005 O1012 1.240 . S
C1005 O1013 1.252 . S
C1006 O1009 1.252 . S
C1006 O1010 1.260 . S
O1007 In1001 2.266 . S
O1007 C1004 1.252 . S
O1008 In1001 2.326 . S
O1008 C1004 1.260 . S
O1009 In1001 2.266 . S
O1009 C1006 1.252 . S
O1010 In1001 2.326 . S
O1010 C1006 1.260 . S
C1011 O1002 1.240 . S
C1011 O1003 1.252 . S
O1012 In1001 2.294 . S
O1012 C1005 1.240 . S
O1013 In1001 2.326 . S
O1013 C1005 1.252 . S
In1014 O1015 2.294 . S
In1014 O1016 2.326 . S
In1014 O1020 2.266 . S
In1014 O1021 2.326 . S
In1014 O1022 2.266 . S
In1014 O1023 2.326 . S
In1014 O1025 2.294 . S
In1014 O1026 2.326 . S
O1015 In1014 2.294 . S
O1015 C1024 1.240 . S
O1016 In1014 2.326 . S
O1016 C1024 1.252 . S
C1017 O1020 1.252 . S
C1017 O1021 1.260 . S
C1018 O1025 1.240 . S
C1018 O1026 1.252 . S
C1019 O1022 1.252 . S
C1019 O1023 1.260 . S
O1020 In1014 2.266 . S
O1020 C1017 1.252 . S
O1021 In1014 2.326 . S
O1021 C1017 1.260 . S
O1022 In1014 2.266 . S
O1022 C1019 1.252 . S
O1023 In1014 2.326 . S
O1023 C1019 1.260 . S
C1024 O1015 1.240 . S
C1024 O1016 1.252 . S
O1025 In1014 2.294 . S
O1025 C1018 1.240 . S
O1026 In1014 2.326 . S
O1026 C1018 1.252 . S
In1027 O1028 2.294 . S
In1027 O1029 2.326 . S
In1027 O1033 2.266 . S
In1027 O1034 2.326 . S
In1027 O1035 2.266 . S
In1027 O1036 2.326 . S
In1027 O1038 2.294 . S
In1027 O1039 2.326 . S
O1028 In1027 2.294 . S
O1028 C1037 1.240 . S
O1029 In1027 2.326 . S
O1029 C1037 1.252 . S
C1030 O1033 1.252 . S
C1030 O1034 1.260 . S
C1031 O1038 1.240 . S
C1031 O1039 1.252 . S
C1032 O1035 1.252 . S
C1032 O1036 1.260 . S
O1033 In1027 2.266 . S
O1033 C1030 1.252 . S
O1034 In1027 2.326 . S
O1034 C1030 1.260 . S
O1035 In1027 2.266 . S
O1035 C1032 1.252 . S
O1036 In1027 2.326 . S
O1036 C1032 1.260 . S
C1037 O1028 1.240 . S
C1037 O1029 1.252 . S
O1038 In1027 2.294 . S
O1038 C1031 1.240 . S
O1039 In1027 2.326 . S
O1039 C1031 1.252 . S
In1040 O1041 2.294 . S
In1040 O1042 2.326 . S
In1040 O1046 2.266 . S
In1040 O1047 2.326 . S
In1040 O1048 2.266 . S
In1040 O1049 2.326 . S
In1040 O1051 2.294 . S
In1040 O1052 2.326 . S
O1041 In1040 2.294 . S
O1041 C1050 1.240 . S
O1042 In1040 2.326 . S
O1042 C1050 1.252 . S
C1043 O1046 1.252 . S
C1043 O1047 1.260 . S
C1044 O1051 1.240 . S
C1044 O1052 1.252 . S
C1045 O1048 1.252 . S
C1045 O1049 1.260 . S
O1046 In1040 2.266 . S
O1046 C1043 1.252 . S
O1047 In1040 2.326 . S
O1047 C1043 1.260 . S
O1048 In1040 2.266 . S
O1048 C1045 1.252 . S
O1049 In1040 2.326 . S
O1049 C1045 1.260 . S
C1050 O1041 1.240 . S
C1050 O1042 1.252 . S
O1051 In1040 2.294 . S
O1051 C1044 1.240 . S
O1052 In1040 2.326 . S
O1052 C1044 1.252 . S
In1053 O1054 2.294 . S
In1053 O1055 2.326 . S
In1053 O1059 2.266 . S
In1053 O1060 2.326 . S
In1053 O1061 2.266 . S
In1053 O1062 2.326 . S
In1053 O1064 2.294 . S
In1053 O1065 2.326 . S
O1054 In1053 2.294 . S
O1054 C1063 1.240 . S
O1055 In1053 2.326 . S
O1055 C1063 1.252 . S
C1056 O1059 1.252 . S
C1056 O1060 1.260 . S
C1057 O1064 1.240 . S
C1057 O1065 1.252 . S
C1058 O1061 1.252 . S
C1058 O1062 1.260 . S
O1059 In1053 2.266 . S
O1059 C1056 1.252 . S
O1060 In1053 2.326 . S
O1060 C1056 1.260 . S
O1061 In1053 2.266 . S
O1061 C1058 1.252 . S
O1062 In1053 2.326 . S
O1062 C1058 1.260 . S
C1063 O1054 1.240 . S
C1063 O1055 1.252 . S
O1064 In1053 2.294 . S
O1064 C1057 1.240 . S
O1065 In1053 2.326 . S
O1065 C1057 1.252 . S
In1066 O1067 2.294 . S
In1066 O1068 2.326 . S
In1066 O1072 2.266 . S
In1066 O1073 2.326 . S
In1066 O1074 2.266 . S
In1066 O1075 2.326 . S
In1066 O1077 2.294 . S
In1066 O1078 2.326 . S
O1067 In1066 2.294 . S
O1067 C1076 1.240 . S
O1068 In1066 2.326 . S
O1068 C1076 1.252 . S
C1069 O1072 1.252 . S
C1069 O1073 1.260 . S
C1070 O1077 1.240 . S
C1070 O1078 1.252 . S
C1071 O1074 1.252 . S
C1071 O1075 1.260 . S
O1072 In1066 2.266 . S
O1072 C1069 1.252 . S
O1073 In1066 2.326 . S
O1073 C1069 1.260 . S
O1074 In1066 2.266 . S
O1074 C1071 1.252 . S
O1075 In1066 2.326 . S
O1075 C1071 1.260 . S
C1076 O1067 1.240 . S
C1076 O1068 1.252 . S
O1077 In1066 2.294 . S
O1077 C1070 1.240 . S
O1078 In1066 2.326 . S
O1078 C1070 1.252 . S
In1079 O1080 2.294 . S
In1079 O1081 2.326 . S
In1079 O1085 2.266 . S
In1079 O1086 2.326 . S
In1079 O1087 2.266 . S
In1079 O1088 2.326 . S
In1079 O1090 2.294 . S
In1079 O1091 2.326 . S
O1080 In1079 2.294 . S
O1080 C1089 1.240 . S
O1081 In1079 2.326 . S
O1081 C1089 1.252 . S
C1082 O1085 1.252 . S
C1082 O1086 1.260 . S
C1083 O1090 1.240 . S
C1083 O1091 1.252 . S
C1084 O1087 1.252 . S
C1084 O1088 1.260 . S
O1085 In1079 2.266 . S
O1085 C1082 1.252 . S
O1086 In1079 2.326 . S
O1086 C1082 1.260 . S
O1087 In1079 2.266 . S
O1087 C1084 1.252 . S
O1088 In1079 2.326 . S
O1088 C1084 1.260 . S
C1089 O1080 1.240 . S
C1089 O1081 1.252 . S
O1090 In1079 2.294 . S
O1090 C1083 1.240 . S
O1091 In1079 2.326 . S
O1091 C1083 1.252 . S
In1092 O1093 2.294 . S
In1092 O1094 2.326 . S
In1092 O1098 2.266 . S
In1092 O1099 2.326 . S
In1092 O1100 2.266 . S
In1092 O1101 2.326 . S
In1092 O1103 2.294 . S
In1092 O1104 2.326 . S
O1093 In1092 2.294 . S
O1093 C1102 1.240 . S
O1094 In1092 2.326 . S
O1094 C1102 1.252 . S
C1095 O1098 1.252 . S
C1095 O1099 1.260 . S
C1096 O1103 1.240 . S
C1096 O1104 1.252 . S
C1097 O1100 1.252 . S
C1097 O1101 1.260 . S
O1098 In1092 2.266 . S
O1098 C1095 1.252 . S
O1099 In1092 2.326 . S
O1099 C1095 1.260 . S
O1100 In1092 2.266 . S
O1100 C1097 1.252 . S
O1101 In1092 2.326 . S
O1101 C1097 1.260 . S
C1102 O1093 1.240 . S
C1102 O1094 1.252 . S
O1103 In1092 2.294 . S
O1103 C1096 1.240 . S
O1104 In1092 2.326 . S
O1104 C1096 1.252 . S
In1105 O1106 2.294 . S
In1105 O1107 2.326 . S
In1105 O1111 2.266 . S
In1105 O1112 2.326 . S
In1105 O1113 2.266 . S
In1105 O1114 2.326 . S
In1105 O1116 2.294 . S
In1105 O1117 2.326 . S
O1106 In1105 2.294 . S
O1106 C1115 1.240 . S
O1107 In1105 2.326 . S
O1107 C1115 1.252 . S
C1108 O1111 1.252 . S
C1108 O1112 1.260 . S
C1109 O1116 1.240 . S
C1109 O1117 1.252 . S
C1110 O1113 1.252 . S
C1110 O1114 1.260 . S
O1111 In1105 2.266 . S
O1111 C1108 1.252 . S
O1112 In1105 2.326 . S
O1112 C1108 1.260 . S
O1113 In1105 2.266 . S
O1113 C1110 1.252 . S
O1114 In1105 2.326 . S
O1114 C1110 1.260 . S
C1115 O1106 1.240 . S
C1115 O1107 1.252 . S
O1116 In1105 2.294 . S
O1116 C1109 1.240 . S
O1117 In1105 2.326 . S
O1117 C1109 1.252 . S
In1118 O1119 2.294 . S
In1118 O1120 2.326 . S
In1118 O1124 2.266 . S
In1118 O1125 2.326 . S
In1118 O1126 2.266 . S
In1118 O1127 2.326 . S
In1118 O1129 2.294 . S
In1118 O1130 2.326 . S
O1119 In1118 2.294 . S
O1119 C1128 1.240 . S
O1120 In1118 2.326 . S
O1120 C1128 1.252 . S
C1121 O1124 1.252 . S
C1121 O1125 1.260 . S
C1122 O1129 1.240 . S
C1122 O1130 1.252 . S
C1123 O1126 1.252 . S
C1123 O1127 1.260 . S
O1124 In1118 2.266 . S
O1124 C1121 1.252 . S
O1125 In1118 2.326 . S
O1125 C1121 1.260 . S
O1126 In1118 2.266 . S
O1126 C1123 1.252 . S
O1127 In1118 2.326 . S
O1127 C1123 1.260 . S
C1128 O1119 1.240 . S
C1128 O1120 1.252 . S
O1129 In1118 2.294 . S
O1129 C1122 1.240 . S
O1130 In1118 2.326 . S
O1130 C1122 1.252 . S
In1131 O1132 2.294 . S
In1131 O1133 2.326 . S
In1131 O1137 2.266 . S
In1131 O1138 2.326 . S
In1131 O1139 2.266 . S
In1131 O1140 2.326 . S
In1131 O1142 2.294 . S
In1131 O1143 2.326 . S
O1132 In1131 2.294 . S
O1132 C1141 1.240 . S
O1133 In1131 2.326 . S
O1133 C1141 1.252 . S
C1134 O1137 1.252 . S
C1134 O1138 1.260 . S
C1135 O1142 1.240 . S
C1135 O1143 1.252 . S
C1136 O1139 1.252 . S
C1136 O1140 1.260 . S
O1137 In1131 2.266 . S
O1137 C1134 1.252 . S
O1138 In1131 2.326 . S
O1138 C1134 1.260 . S
O1139 In1131 2.266 . S
O1139 C1136 1.252 . S
O1140 In1131 2.326 . S
O1140 C1136 1.260 . S
C1141 O1132 1.240 . S
C1141 O1133 1.252 . S
O1142 In1131 2.294 . S
O1142 C1135 1.240 . S
O1143 In1131 2.326 . S
O1143 C1135 1.252 . S
In1144 O1145 2.294 . S
In1144 O1146 2.326 . S
In1144 O1150 2.266 . S
In1144 O1151 2.326 . S
In1144 O1152 2.266 . S
In1144 O1153 2.326 . S
In1144 O1155 2.294 . S
In1144 O1156 2.326 . S
O1145 In1144 2.294 . S
O1145 C1154 1.240 . S
O1146 In1144 2.326 . S
O1146 C1154 1.252 . S
C1147 O1150 1.252 . S
C1147 O1151 1.260 . S
C1148 O1155 1.240 . S
C1148 O1156 1.252 . S
C1149 O1152 1.252 . S
C1149 O1153 1.260 . S
O1150 In1144 2.266 . S
O1150 C1147 1.252 . S
O1151 In1144 2.326 . S
O1151 C1147 1.260 . S
O1152 In1144 2.266 . S
O1152 C1149 1.252 . S
O1153 In1144 2.326 . S
O1153 C1149 1.260 . S
C1154 O1145 1.240 . S
C1154 O1146 1.252 . S
O1155 In1144 2.294 . S
O1155 C1148 1.240 . S
O1156 In1144 2.326 . S
O1156 C1148 1.252 . S
In1157 O1158 2.294 . S
In1157 O1159 2.326 . S
In1157 O1163 2.266 . S
In1157 O1164 2.326 . S
In1157 O1165 2.266 . S
In1157 O1166 2.326 . S
In1157 O1168 2.294 . S
In1157 O1169 2.326 . S
O1158 In1157 2.294 . S
O1158 C1167 1.240 . S
O1159 In1157 2.326 . S
O1159 C1167 1.252 . S
C1160 O1163 1.252 . S
C1160 O1164 1.260 . S
C1161 O1168 1.240 . S
C1161 O1169 1.252 . S
C1162 O1165 1.252 . S
C1162 O1166 1.260 . S
O1163 In1157 2.266 . S
O1163 C1160 1.252 . S
O1164 In1157 2.326 . S
O1164 C1160 1.260 . S
O1165 In1157 2.266 . S
O1165 C1162 1.252 . S
O1166 In1157 2.326 . S
O1166 C1162 1.260 . S
C1167 O1158 1.240 . S
C1167 O1159 1.252 . S
O1168 In1157 2.294 . S
O1168 C1161 1.240 . S
O1169 In1157 2.326 . S
O1169 C1161 1.252 . S
In1170 O1171 2.294 . S
In1170 O1172 2.326 . S
In1170 O1176 2.266 . S
In1170 O1177 2.326 . S
In1170 O1178 2.266 . S
In1170 O1179 2.326 . S
In1170 O1181 2.294 . S
In1170 O1182 2.326 . S
O1171 In1170 2.294 . S
O1171 C1180 1.240 . S
O1172 In1170 2.326 . S
O1172 C1180 1.252 . S
C1173 O1176 1.252 . S
C1173 O1177 1.260 . S
C1174 O1181 1.240 . S
C1174 O1182 1.252 . S
C1175 O1178 1.252 . S
C1175 O1179 1.260 . S
O1176 In1170 2.266 . S
O1176 C1173 1.252 . S
O1177 In1170 2.326 . S
O1177 C1173 1.260 . S
O1178 In1170 2.266 . S
O1178 C1175 1.252 . S
O1179 In1170 2.326 . S
O1179 C1175 1.260 . S
C1180 O1171 1.240 . S
C1180 O1172 1.252 . S
O1181 In1170 2.294 . S
O1181 C1174 1.240 . S
O1182 In1170 2.326 . S
O1182 C1174 1.252 . S
In1183 O1184 2.294 . S
In1183 O1185 2.326 . S
In1183 O1189 2.266 . S
In1183 O1190 2.326 . S
In1183 O1191 2.266 . S
In1183 O1192 2.326 . S
In1183 O1194 2.294 . S
In1183 O1195 2.326 . S
O1184 In1183 2.294 . S
O1184 C1193 1.240 . S
O1185 In1183 2.326 . S
O1185 C1193 1.252 . S
C1186 O1189 1.252 . S
C1186 O1190 1.260 . S
C1187 O1194 1.240 . S
C1187 O1195 1.252 . S
C1188 O1191 1.252 . S
C1188 O1192 1.260 . S
O1189 In1183 2.266 . S
O1189 C1186 1.252 . S
O1190 In1183 2.326 . S
O1190 C1186 1.260 . S
O1191 In1183 2.266 . S
O1191 C1188 1.252 . S
O1192 In1183 2.326 . S
O1192 C1188 1.260 . S
C1193 O1184 1.240 . S
C1193 O1185 1.252 . S
O1194 In1183 2.294 . S
O1194 C1187 1.240 . S
O1195 In1183 2.326 . S
O1195 C1187 1.252 . S
In1196 O1197 2.294 . S
In1196 O1198 2.326 . S
In1196 O1202 2.266 . S
In1196 O1203 2.326 . S
In1196 O1204 2.266 . S
In1196 O1205 2.326 . S
In1196 O1207 2.294 . S
In1196 O1208 2.326 . S
O1197 In1196 2.294 . S
O1197 C1206 1.240 . S
O1198 In1196 2.326 . S
O1198 C1206 1.252 . S
C1199 O1202 1.252 . S
C1199 O1203 1.260 . S
C1200 O1207 1.240 . S
C1200 O1208 1.252 . S
C1201 O1204 1.252 . S
C1201 O1205 1.260 . S
O1202 In1196 2.266 . S
O1202 C1199 1.252 . S
O1203 In1196 2.326 . S
O1203 C1199 1.260 . S
O1204 In1196 2.266 . S
O1204 C1201 1.252 . S
O1205 In1196 2.326 . S
O1205 C1201 1.260 . S
C1206 O1197 1.240 . S
C1206 O1198 1.252 . S
O1207 In1196 2.294 . S
O1207 C1200 1.240 . S
O1208 In1196 2.326 . S
O1208 C1200 1.252 . S
In1209 O1210 2.294 . S
In1209 O1211 2.326 . S
In1209 O1215 2.266 . S
In1209 O1216 2.326 . S
In1209 O1217 2.266 . S
In1209 O1218 2.326 . S
In1209 O1220 2.294 . S
In1209 O1221 2.326 . S
O1210 In1209 2.294 . S
O1210 C1219 1.240 . S
O1211 In1209 2.326 . S
O1211 C1219 1.252 . S
C1212 O1215 1.252 . S
C1212 O1216 1.260 . S
C1213 O1220 1.240 . S
C1213 O1221 1.252 . S
C1214 O1217 1.252 . S
C1214 O1218 1.260 . S
O1215 In1209 2.266 . S
O1215 C1212 1.252 . S
O1216 In1209 2.326 . S
O1216 C1212 1.260 . S
O1217 In1209 2.266 . S
O1217 C1214 1.252 . S
O1218 In1209 2.326 . S
O1218 C1214 1.260 . S
C1219 O1210 1.240 . S
C1219 O1211 1.252 . S
O1220 In1209 2.294 . S
O1220 C1213 1.240 . S
O1221 In1209 2.326 . S
O1221 C1213 1.252 . S
In1222 O1223 2.294 . S
In1222 O1224 2.326 . S
In1222 O1228 2.266 . S
In1222 O1229 2.326 . S
In1222 O1230 2.266 . S
In1222 O1231 2.326 . S
In1222 O1233 2.294 . S
In1222 O1234 2.326 . S
O1223 In1222 2.294 . S
O1223 C1232 1.240 . S
O1224 In1222 2.326 . S
O1224 C1232 1.252 . S
C1225 O1228 1.252 . S
C1225 O1229 1.260 . S
C1226 O1233 1.240 . S
C1226 O1234 1.252 . S
C1227 O1230 1.252 . S
C1227 O1231 1.260 . S
O1228 In1222 2.266 . S
O1228 C1225 1.252 . S
O1229 In1222 2.326 . S
O1229 C1225 1.260 . S
O1230 In1222 2.266 . S
O1230 C1227 1.252 . S
O1231 In1222 2.326 . S
O1231 C1227 1.260 . S
C1232 O1223 1.240 . S
C1232 O1224 1.252 . S
O1233 In1222 2.294 . S
O1233 C1226 1.240 . S
O1234 In1222 2.326 . S
O1234 C1226 1.252 . S
In1235 O1236 2.294 . S
In1235 O1237 2.326 . S
In1235 O1241 2.266 . S
In1235 O1242 2.326 . S
In1235 O1243 2.266 . S
In1235 O1244 2.326 . S
In1235 O1246 2.294 . S
In1235 O1247 2.326 . S
O1236 In1235 2.294 . S
O1236 C1245 1.240 . S
O1237 In1235 2.326 . S
O1237 C1245 1.252 . S
C1238 O1241 1.252 . S
C1238 O1242 1.260 . S
C1239 O1246 1.240 . S
C1239 O1247 1.252 . S
C1240 O1243 1.252 . S
C1240 O1244 1.260 . S
O1241 In1235 2.266 . S
O1241 C1238 1.252 . S
O1242 In1235 2.326 . S
O1242 C1238 1.260 . S
O1243 In1235 2.266 . S
O1243 C1240 1.252 . S
O1244 In1235 2.326 . S
O1244 C1240 1.260 . S
C1245 O1236 1.240 . S
C1245 O1237 1.252 . S
O1246 In1235 2.294 . S
O1246 C1239 1.240 . S
O1247 In1235 2.326 . S
O1247 C1239 1.252 . S
C1248 C1249 1.387 . S
C1248 H1252 0.950 . S
C1248 C1257 1.390 . S
C1249 C1248 1.387 . S
C1249 C1251 1.387 . S
H1250 C1257 0.950 . S
C1251 C1249 1.387 . S
C1251 C1253 1.390 . S
C1251 H1255 0.950 . S
H1252 C1248 0.950 . S
C1253 C1251 1.390 . S
C1253 C1254 1.387 . S
C1253 H1256 0.950 . S
C1254 C1253 1.387 . S
C1254 C1257 1.387 . S
H1255 C1251 0.950 . S
H1256 C1253 0.950 . S
C1257 C1248 1.390 . S
C1257 H1250 0.950 . S
C1257 C1254 1.387 . S
C1258 C1259 1.387 . S
C1258 H1262 0.950 . S
C1258 C1267 1.390 . S
C1259 C1258 1.387 . S
C1259 C1261 1.387 . S
H1260 C1267 0.950 . S
C1261 C1259 1.387 . S
C1261 C1263 1.390 . S
C1261 H1265 0.950 . S
H1262 C1258 0.950 . S
C1263 C1261 1.390 . S
C1263 C1264 1.387 . S
C1263 H1266 0.950 . S
C1264 C1263 1.387 . S
C1264 C1267 1.387 . S
H1265 C1261 0.950 . S
H1266 C1263 0.950 . S
C1267 C1258 1.390 . S
C1267 H1260 0.950 . S
C1267 C1264 1.387 . S
C1268 C1269 1.387 . S
C1268 H1272 0.950 . S
C1268 C1277 1.390 . S
C1269 C1268 1.387 . S
C1269 C1271 1.387 . S
H1270 C1277 0.950 . S
C1271 C1269 1.387 . S
C1271 C1273 1.390 . S
C1271 H1275 0.950 . S
H1272 C1268 0.950 . S
C1273 C1271 1.390 . S
C1273 C1274 1.387 . S
C1273 H1276 0.950 . S
C1274 C1273 1.387 . S
C1274 C1277 1.387 . S
H1275 C1271 0.950 . S
H1276 C1273 0.950 . S
C1277 C1268 1.390 . S
C1277 H1270 0.950 . S
C1277 C1274 1.387 . S
C1278 C1279 1.387 . S
C1278 H1282 0.950 . S
C1278 C1287 1.390 . S
C1279 C1278 1.387 . S
C1279 C1281 1.387 . S
H1280 C1287 0.950 . S
C1281 C1279 1.387 . S
C1281 C1283 1.390 . S
C1281 H1285 0.950 . S
H1282 C1278 0.950 . S
C1283 C1281 1.390 . S
C1283 C1284 1.387 . S
C1283 H1286 0.950 . S
C1284 C1283 1.387 . S
C1284 C1287 1.387 . S
H1285 C1281 0.950 . S
H1286 C1283 0.950 . S
C1287 C1278 1.390 . S
C1287 H1280 0.950 . S
C1287 C1284 1.387 . S
C1288 C1289 1.387 . S
C1288 H1292 0.950 . S
C1288 C1297 1.390 . S
C1289 C1288 1.387 . S
C1289 C1291 1.387 . S
H1290 C1297 0.950 . S
C1291 C1289 1.387 . S
C1291 C1293 1.390 . S
C1291 H1295 0.950 . S
H1292 C1288 0.950 . S
C1293 C1291 1.390 . S
C1293 C1294 1.387 . S
C1293 H1296 0.950 . S
C1294 C1293 1.387 . S
C1294 C1297 1.387 . S
H1295 C1291 0.950 . S
H1296 C1293 0.950 . S
C1297 C1288 1.390 . S
C1297 H1290 0.950 . S
C1297 C1294 1.387 . S
C1298 C1299 1.387 . S
C1298 H1302 0.950 . S
C1298 C1307 1.390 . S
C1299 C1298 1.387 . S
C1299 C1301 1.387 . S
H1300 C1307 0.950 . S
C1301 C1299 1.387 . S
C1301 C1303 1.390 . S
C1301 H1305 0.950 . S
H1302 C1298 0.950 . S
C1303 C1301 1.390 . S
C1303 C1304 1.387 . S
C1303 H1306 0.950 . S
C1304 C1303 1.387 . S
C1304 C1307 1.387 . S
H1305 C1301 0.950 . S
H1306 C1303 0.950 . S
C1307 C1298 1.390 . S
C1307 H1300 0.950 . S
C1307 C1304 1.387 . S
C1308 C1309 1.387 . S
C1308 H1312 0.950 . S
C1308 C1317 1.390 . S
C1309 C1308 1.387 . S
C1309 C1311 1.387 . S
H1310 C1317 0.950 . S
C1311 C1309 1.387 . S
C1311 C1313 1.390 . S
C1311 H1315 0.950 . S
H1312 C1308 0.950 . S
C1313 C1311 1.390 . S
C1313 C1314 1.387 . S
C1313 H1316 0.950 . S
C1314 C1313 1.387 . S
C1314 C1317 1.387 . S
H1315 C1311 0.950 . S
H1316 C1313 0.950 . S
C1317 C1308 1.390 . S
C1317 H1310 0.950 . S
C1317 C1314 1.387 . S
C1318 C1319 1.387 . S
C1318 H1322 0.950 . S
C1318 C1327 1.390 . S
C1319 C1318 1.387 . S
C1319 C1321 1.387 . S
H1320 C1327 0.950 . S
C1321 C1319 1.387 . S
C1321 C1323 1.390 . S
C1321 H1325 0.950 . S
H1322 C1318 0.950 . S
C1323 C1321 1.390 . S
C1323 C1324 1.387 . S
C1323 H1326 0.950 . S
C1324 C1323 1.387 . S
C1324 C1327 1.387 . S
H1325 C1321 0.950 . S
H1326 C1323 0.950 . S
C1327 C1318 1.390 . S
C1327 H1320 0.950 . S
C1327 C1324 1.387 . S
C1328 C1329 1.387 . S
C1328 H1332 0.950 . S
C1328 C1337 1.390 . S
C1329 C1328 1.387 . S
C1329 C1331 1.387 . S
H1330 C1337 0.950 . S
C1331 C1329 1.387 . S
C1331 C1333 1.390 . S
C1331 H1335 0.950 . S
H1332 C1328 0.950 . S
C1333 C1331 1.390 . S
C1333 C1334 1.387 . S
C1333 H1336 0.950 . S
C1334 C1333 1.387 . S
C1334 C1337 1.387 . S
H1335 C1331 0.950 . S
H1336 C1333 0.950 . S
C1337 C1328 1.390 . S
C1337 H1330 0.950 . S
C1337 C1334 1.387 . S
C1338 C1339 1.387 . S
C1338 H1342 0.950 . S
C1338 C1347 1.390 . S
C1339 C1338 1.387 . S
C1339 C1341 1.387 . S
H1340 C1347 0.950 . S
C1341 C1339 1.387 . S
C1341 C1343 1.390 . S
C1341 H1345 0.950 . S
H1342 C1338 0.950 . S
C1343 C1341 1.390 . S
C1343 C1344 1.387 . S
C1343 H1346 0.950 . S
C1344 C1343 1.387 . S
C1344 C1347 1.387 . S
H1345 C1341 0.950 . S
H1346 C1343 0.950 . S
C1347 C1338 1.390 . S
C1347 H1340 0.950 . S
C1347 C1344 1.387 . S
C1348 C1349 1.387 . S
C1348 H1352 0.950 . S
C1348 C1357 1.390 . S
C1349 C1348 1.387 . S
C1349 C1351 1.387 . S
H1350 C1357 0.950 . S
C1351 C1349 1.387 . S
C1351 C1353 1.390 . S
C1351 H1355 0.950 . S
H1352 C1348 0.950 . S
C1353 C1351 1.390 . S
C1353 C1354 1.387 . S
C1353 H1356 0.950 . S
C1354 C1353 1.387 . S
C1354 C1357 1.387 . S
H1355 C1351 0.950 . S
H1356 C1353 0.950 . S
C1357 C1348 1.390 . S
C1357 H1350 0.950 . S
C1357 C1354 1.387 . S
C1358 C1359 1.387 . S
C1358 H1362 0.950 . S
C1358 C1367 1.390 . S
C1359 C1358 1.387 . S
C1359 C1361 1.387 . S
H1360 C1367 0.950 . S
C1361 C1359 1.387 . S
C1361 C1363 1.390 . S
C1361 H1365 0.950 . S
H1362 C1358 0.950 . S
C1363 C1361 1.390 . S
C1363 C1364 1.387 . S
C1363 H1366 0.950 . S
C1364 C1363 1.387 . S
C1364 C1367 1.387 . S
H1365 C1361 0.950 . S
H1366 C1363 0.950 . S
C1367 C1358 1.390 . S
C1367 H1360 0.950 . S
C1367 C1364 1.387 . S
C1368 C1369 1.387 . S
C1368 H1372 0.950 . S
C1368 C1377 1.390 . S
C1369 C1368 1.387 . S
C1369 C1371 1.387 . S
H1370 C1377 0.950 . S
C1371 C1369 1.387 . S
C1371 C1373 1.390 . S
C1371 H1375 0.950 . S
H1372 C1368 0.950 . S
C1373 C1371 1.390 . S
C1373 C1374 1.387 . S
C1373 H1376 0.950 . S
C1374 C1373 1.387 . S
C1374 C1377 1.387 . S
H1375 C1371 0.950 . S
H1376 C1373 0.950 . S
C1377 C1368 1.390 . S
C1377 H1370 0.950 . S
C1377 C1374 1.387 . S
C1378 C1379 1.387 . S
C1378 H1382 0.950 . S
C1378 C1387 1.390 . S
C1379 C1378 1.387 . S
C1379 C1381 1.387 . S
H1380 C1387 0.950 . S
C1381 C1379 1.387 . S
C1381 C1383 1.390 . S
C1381 H1385 0.950 . S
H1382 C1378 0.950 . S
C1383 C1381 1.390 . S
C1383 C1384 1.387 . S
C1383 H1386 0.950 . S
C1384 C1383 1.387 . S
C1384 C1387 1.387 . S
H1385 C1381 0.950 . S
H1386 C1383 0.950 . S
C1387 C1378 1.390 . S
C1387 H1380 0.950 . S
C1387 C1384 1.387 . S
C1388 C1389 1.387 . S
C1388 H1392 0.950 . S
C1388 C1397 1.390 . S
C1389 C1388 1.387 . S
C1389 C1391 1.387 . S
H1390 C1397 0.950 . S
C1391 C1389 1.387 . S
C1391 C1393 1.390 . S
C1391 H1395 0.950 . S
H1392 C1388 0.950 . S
C1393 C1391 1.390 . S
C1393 C1394 1.387 . S
C1393 H1396 0.950 . S
C1394 C1393 1.387 . S
C1394 C1397 1.387 . S
H1395 C1391 0.950 . S
H1396 C1393 0.950 . S
C1397 C1388 1.390 . S
C1397 H1390 0.950 . S
C1397 C1394 1.387 . S
C1398 C1399 1.387 . S
C1398 H1402 0.950 . S
C1398 C1407 1.390 . S
C1399 C1398 1.387 . S
C1399 C1401 1.387 . S
H1400 C1407 0.950 . S
C1401 C1399 1.387 . S
C1401 C1403 1.390 . S
C1401 H1405 0.950 . S
H1402 C1398 0.950 . S
C1403 C1401 1.390 . S
C1403 C1404 1.387 . S
C1403 H1406 0.950 . S
C1404 C1403 1.387 . S
C1404 C1407 1.387 . S
H1405 C1401 0.950 . S
H1406 C1403 0.950 . S
C1407 C1398 1.390 . S
C1407 H1400 0.950 . S
C1407 C1404 1.387 . S
C1408 C1409 1.387 . S
C1408 H1412 0.950 . S
C1408 C1417 1.390 . S
C1409 C1408 1.387 . S
C1409 C1411 1.387 . S
H1410 C1417 0.950 . S
C1411 C1409 1.387 . S
C1411 C1413 1.390 . S
C1411 H1415 0.950 . S
H1412 C1408 0.950 . S
C1413 C1411 1.390 . S
C1413 C1414 1.387 . S
C1413 H1416 0.950 . S
C1414 C1413 1.387 . S
C1414 C1417 1.387 . S
H1415 C1411 0.950 . S
H1416 C1413 0.950 . S
C1417 C1408 1.390 . S
C1417 H1410 0.950 . S
C1417 C1414 1.387 . S
C1418 C1419 1.387 . S
C1418 H1422 0.950 . S
C1418 C1427 1.390 . S
C1419 C1418 1.387 . S
C1419 C1421 1.387 . S
H1420 C1427 0.950 . S
C1421 C1419 1.387 . S
C1421 C1423 1.390 . S
C1421 H1425 0.950 . S
H1422 C1418 0.950 . S
C1423 C1421 1.390 . S
C1423 C1424 1.387 . S
C1423 H1426 0.950 . S
C1424 C1423 1.387 . S
C1424 C1427 1.387 . S
H1425 C1421 0.950 . S
H1426 C1423 0.950 . S
C1427 C1418 1.390 . S
C1427 H1420 0.950 . S
C1427 C1424 1.387 . S
C1428 C1429 1.387 . S
C1428 H1432 0.950 . S
C1428 C1437 1.390 . S
C1429 C1428 1.387 . S
C1429 C1431 1.387 . S
H1430 C1437 0.950 . S
C1431 C1429 1.387 . S
C1431 C1433 1.390 . S
C1431 H1435 0.950 . S
H1432 C1428 0.950 . S
C1433 C1431 1.390 . S
C1433 C1434 1.387 . S
C1433 H1436 0.950 . S
C1434 C1433 1.387 . S
C1434 C1437 1.387 . S
H1435 C1431 0.950 . S
H1436 C1433 0.950 . S
C1437 C1428 1.390 . S
C1437 H1430 0.950 . S
C1437 C1434 1.387 . S
C1438 C1439 1.387 . S
C1438 H1442 0.950 . S
C1438 C1447 1.390 . S
C1439 C1438 1.387 . S
C1439 C1441 1.387 . S
H1440 C1447 0.950 . S
C1441 C1439 1.387 . S
C1441 C1443 1.390 . S
C1441 H1445 0.950 . S
H1442 C1438 0.950 . S
C1443 C1441 1.390 . S
C1443 C1444 1.387 . S
C1443 H1446 0.950 . S
C1444 C1443 1.387 . S
C1444 C1447 1.387 . S
H1445 C1441 0.950 . S
H1446 C1443 0.950 . S
C1447 C1438 1.390 . S
C1447 H1440 0.950 . S
C1447 C1444 1.387 . S
C1448 C1449 1.387 . S
C1448 H1452 0.950 . S
C1448 C1457 1.390 . S
C1449 C1448 1.387 . S
C1449 C1451 1.387 . S
H1450 C1457 0.950 . S
C1451 C1449 1.387 . S
C1451 C1453 1.390 . S
C1451 H1455 0.950 . S
H1452 C1448 0.950 . S
C1453 C1451 1.390 . S
C1453 C1454 1.387 . S
C1453 H1456 0.950 . S
C1454 C1453 1.387 . S
C1454 C1457 1.387 . S
H1455 C1451 0.950 . S
H1456 C1453 0.950 . S
C1457 C1448 1.390 . S
C1457 H1450 0.950 . S
C1457 C1454 1.387 . S
C1458 C1459 1.387 . S
C1458 H1462 0.950 . S
C1458 C1467 1.390 . S
C1459 C1458 1.387 . S
C1459 C1461 1.387 . S
H1460 C1467 0.950 . S
C1461 C1459 1.387 . S
C1461 C1463 1.390 . S
C1461 H1465 0.950 . S
H1462 C1458 0.950 . S
C1463 C1461 1.390 . S
C1463 C1464 1.387 . S
C1463 H1466 0.950 . S
C1464 C1463 1.387 . S
C1464 C1467 1.387 . S
H1465 C1461 0.950 . S
H1466 C1463 0.950 . S
C1467 C1458 1.390 . S
C1467 H1460 0.950 . S
C1467 C1464 1.387 . S
C1468 C1469 1.387 . S
C1468 H1472 0.950 . S
C1468 C1477 1.390 . S
C1469 C1468 1.387 . S
C1469 C1471 1.387 . S
H1470 C1477 0.950 . S
C1471 C1469 1.387 . S
C1471 C1473 1.390 . S
C1471 H1475 0.950 . S
H1472 C1468 0.950 . S
C1473 C1471 1.390 . S
C1473 C1474 1.387 . S
C1473 H1476 0.950 . S
C1474 C1473 1.387 . S
C1474 C1477 1.387 . S
H1475 C1471 0.950 . S
H1476 C1473 0.950 . S
C1477 C1468 1.390 . S
C1477 H1470 0.950 . S
C1477 C1474 1.387 . S
C1478 C1479 1.387 . S
C1478 H1482 0.950 . S
C1478 C1487 1.390 . S
C1479 C1478 1.387 . S
C1479 C1481 1.387 . S
H1480 C1487 0.950 . S
C1481 C1479 1.387 . S
C1481 C1483 1.390 . S
C1481 H1485 0.950 . S
H1482 C1478 0.950 . S
C1483 C1481 1.390 . S
C1483 C1484 1.387 . S
C1483 H1486 0.950 . S
C1484 C1483 1.387 . S
C1484 C1487 1.387 . S
H1485 C1481 0.950 . S
H1486 C1483 0.950 . S
C1487 C1478 1.390 . S
C1487 H1480 0.950 . S
C1487 C1484 1.387 . S
C1488 C1489 1.387 . S
C1488 H1492 0.950 . S
C1488 C1497 1.390 . S
C1489 C1488 1.387 . S
C1489 C1491 1.387 . S
H1490 C1497 0.950 . S
C1491 C1489 1.387 . S
C1491 C1493 1.390 . S
C1491 H1495 0.950 . S
H1492 C1488 0.950 . S
C1493 C1491 1.390 . S
C1493 C1494 1.387 . S
C1493 H1496 0.950 . S
C1494 C1493 1.387 . S
C1494 C1497 1.387 . S
H1495 C1491 0.950 . S
H1496 C1493 0.950 . S
C1497 C1488 1.390 . S
C1497 H1490 0.950 . S
C1497 C1494 1.387 . S
C1498 C1499 1.387 . S
C1498 H1502 0.950 . S
C1498 C1507 1.390 . S
C1499 C1498 1.387 . S
C1499 C1501 1.387 . S
H1500 C1507 0.950 . S
C1501 C1499 1.387 . S
C1501 C1503 1.390 . S
C1501 H1505 0.950 . S
H1502 C1498 0.950 . S
C1503 C1501 1.390 . S
C1503 C1504 1.387 . S
C1503 H1506 0.950 . S
C1504 C1503 1.387 . S
C1504 C1507 1.387 . S
H1505 C1501 0.950 . S
H1506 C1503 0.950 . S
C1507 C1498 1.390 . S
C1507 H1500 0.950 . S
C1507 C1504 1.387 . S
C1508 C1509 1.387 . S
C1508 H1512 0.950 . S
C1508 C1517 1.390 . S
C1509 C1508 1.387 . S
C1509 C1511 1.387 . S
H1510 C1517 0.950 . S
C1511 C1509 1.387 . S
C1511 C1513 1.390 . S
C1511 H1515 0.950 . S
H1512 C1508 0.950 . S
C1513 C1511 1.390 . S
C1513 C1514 1.387 . S
C1513 H1516 0.950 . S
C1514 C1513 1.387 . S
C1514 C1517 1.387 . S
H1515 C1511 0.950 . S
H1516 C1513 0.950 . S
C1517 C1508 1.390 . S
C1517 H1510 0.950 . S
C1517 C1514 1.387 . S
C1518 C1519 1.387 . S
C1518 H1522 0.950 . S
C1518 C1527 1.390 . S
C1519 C1518 1.387 . S
C1519 C1521 1.387 . S
H1520 C1527 0.950 . S
C1521 C1519 1.387 . S
C1521 C1523 1.390 . S
C1521 H1525 0.950 . S
H1522 C1518 0.950 . S
C1523 C1521 1.390 . S
C1523 C1524 1.387 . S
C1523 H1526 0.950 . S
C1524 C1523 1.387 . S
C1524 C1527 1.387 . S
H1525 C1521 0.950 . S
H1526 C1523 0.950 . S
C1527 C1518 1.390 . S
C1527 H1520 0.950 . S
C1527 C1524 1.387 . S
C1528 C1529 1.387 . S
C1528 H1532 0.950 . S
C1528 C1537 1.390 . S
C1529 C1528 1.387 . S
C1529 C1531 1.387 . S
H1530 C1537 0.950 . S
C1531 C1529 1.387 . S
C1531 C1533 1.390 . S
C1531 H1535 0.950 . S
H1532 C1528 0.950 . S
C1533 C1531 1.390 . S
C1533 C1534 1.387 . S
C1533 H1536 0.950 . S
C1534 C1533 1.387 . S
C1534 C1537 1.387 . S
H1535 C1531 0.950 . S
H1536 C1533 0.950 . S
C1537 C1528 1.390 . S
C1537 H1530 0.950 . S
C1537 C1534 1.387 . S
C1538 C1539 1.387 . S
C1538 H1542 0.950 . S
C1538 C1547 1.390 . S
C1539 C1538 1.387 . S
C1539 C1541 1.387 . S
H1540 C1547 0.950 . S
C1541 C1539 1.387 . S
C1541 C1543 1.390 . S
C1541 H1545 0.950 . S
H1542 C1538 0.950 . S
C1543 C1541 1.390 . S
C1543 C1544 1.387 . S
C1543 H1546 0.950 . S
C1544 C1543 1.387 . S
C1544 C1547 1.387 . S
H1545 C1541 0.950 . S
H1546 C1543 0.950 . S
C1547 C1538 1.390 . S
C1547 H1540 0.950 . S
C1547 C1544 1.387 . S
C1548 C1549 1.387 . S
C1548 H1552 0.950 . S
C1548 C1557 1.390 . S
C1549 C1548 1.387 . S
C1549 C1551 1.387 . S
H1550 C1557 0.950 . S
C1551 C1549 1.387 . S
C1551 C1553 1.390 . S
C1551 H1555 0.950 . S
H1552 C1548 0.950 . S
C1553 C1551 1.390 . S
C1553 C1554 1.387 . S
C1553 H1556 0.950 . S
C1554 C1553 1.387 . S
C1554 C1557 1.387 . S
H1555 C1551 0.950 . S
H1556 C1553 0.950 . S
C1557 C1548 1.390 . S
C1557 H1550 0.950 . S
C1557 C1554 1.387 . S
C1558 C1559 1.387 . S
C1558 H1562 0.950 . S
C1558 C1567 1.390 . S
C1559 C1558 1.387 . S
C1559 C1561 1.387 . S
H1560 C1567 0.950 . S
C1561 C1559 1.387 . S
C1561 C1563 1.390 . S
C1561 H1565 0.950 . S
H1562 C1558 0.950 . S
C1563 C1561 1.390 . S
C1563 C1564 1.387 . S
C1563 H1566 0.950 . S
C1564 C1563 1.387 . S
C1564 C1567 1.387 . S
H1565 C1561 0.950 . S
H1566 C1563 0.950 . S
C1567 C1558 1.390 . S
C1567 H1560 0.950 . S
C1567 C1564 1.387 . S
C1568 C1569 1.387 . S
C1568 H1572 0.950 . S
C1568 C1577 1.390 . S
C1569 C1568 1.387 . S
C1569 C1571 1.387 . S
H1570 C1577 0.950 . S
C1571 C1569 1.387 . S
C1571 C1573 1.390 . S
C1571 H1575 0.950 . S
H1572 C1568 0.950 . S
C1573 C1571 1.390 . S
C1573 C1574 1.387 . S
C1573 H1576 0.950 . S
C1574 C1573 1.387 . S
C1574 C1577 1.387 . S
H1575 C1571 0.950 . S
H1576 C1573 0.950 . S
C1577 C1568 1.390 . S
C1577 H1570 0.950 . S
C1577 C1574 1.387 . S
C1578 C1579 1.387 . S
C1578 H1582 0.950 . S
C1578 C1587 1.390 . S
C1579 C1578 1.387 . S
C1579 C1581 1.387 . S
H1580 C1587 0.950 . S
C1581 C1579 1.387 . S
C1581 C1583 1.390 . S
C1581 H1585 0.950 . S
H1582 C1578 0.950 . S
C1583 C1581 1.390 . S
C1583 C1584 1.387 . S
C1583 H1586 0.950 . S
C1584 C1583 1.387 . S
C1584 C1587 1.387 . S
H1585 C1581 0.950 . S
H1586 C1583 0.950 . S
C1587 C1578 1.390 . S
C1587 H1580 0.950 . S
C1587 C1584 1.387 . S
C1588 C1589 1.387 . S
C1588 H1592 0.950 . S
C1588 C1597 1.390 . S
C1589 C1588 1.387 . S
C1589 C1591 1.387 . S
H1590 C1597 0.950 . S
C1591 C1589 1.387 . S
C1591 C1593 1.390 . S
C1591 H1595 0.950 . S
H1592 C1588 0.950 . S
C1593 C1591 1.390 . S
C1593 C1594 1.387 . S
C1593 H1596 0.950 . S
C1594 C1593 1.387 . S
C1594 C1597 1.387 . S
H1595 C1591 0.950 . S
H1596 C1593 0.950 . S
C1597 C1588 1.390 . S
C1597 H1590 0.950 . S
C1597 C1594 1.387 . S
C1598 C1599 1.387 . S
C1598 H1602 0.950 . S
C1598 C1607 1.390 . S
C1599 C1598 1.387 . S
C1599 C1601 1.387 . S
H1600 C1607 0.950 . S
C1601 C1599 1.387 . S
C1601 C1603 1.390 . S
C1601 H1605 0.950 . S
H1602 C1598 0.950 . S
C1603 C1601 1.390 . S
C1603 C1604 1.387 . S
C1603 H1606 0.950 . S
C1604 C1603 1.387 . S
C1604 C1607 1.387 . S
H1605 C1601 0.950 . S
H1606 C1603 0.950 . S
C1607 C1598 1.390 . S
C1607 H1600 0.950 . S
C1607 C1604 1.387 . S
C1608 C1609 1.387 . S
C1608 H1612 0.950 . S
C1608 C1617 1.390 . S
C1609 C1608 1.387 . S
C1609 C1611 1.387 . S
H1610 C1617 0.950 . S
C1611 C1609 1.387 . S
C1611 C1613 1.390 . S
C1611 H1615 0.950 . S
H1612 C1608 0.950 . S
C1613 C1611 1.390 . S
C1613 C1614 1.387 . S
C1613 H1616 0.950 . S
C1614 C1613 1.387 . S
C1614 C1617 1.387 . S
H1615 C1611 0.950 . S
H1616 C1613 0.950 . S
C1617 C1608 1.390 . S
C1617 H1610 0.950 . S
C1617 C1614 1.387 . S
C1618 C1619 1.387 . S
C1618 H1622 0.950 . S
C1618 C1627 1.390 . S
C1619 C1618 1.387 . S
C1619 C1621 1.387 . S
H1620 C1627 0.950 . S
C1621 C1619 1.387 . S
C1621 C1623 1.390 . S
C1621 H1625 0.950 . S
H1622 C1618 0.950 . S
C1623 C1621 1.390 . S
C1623 C1624 1.387 . S
C1623 H1626 0.950 . S
C1624 C1623 1.387 . S
C1624 C1627 1.387 . S
H1625 C1621 0.950 . S
H1626 C1623 0.950 . S
C1627 C1618 1.390 . S
C1627 H1620 0.950 . S
C1627 C1624 1.387 . S
C1628 C1629 1.387 . S
C1628 H1632 0.950 . S
C1628 C1637 1.390 . S
C1629 C1628 1.387 . S
C1629 C1631 1.387 . S
H1630 C1637 0.950 . S
C1631 C1629 1.387 . S
C1631 C1633 1.390 . S
C1631 H1635 0.950 . S
H1632 C1628 0.950 . S
C1633 C1631 1.390 . S
C1633 C1634 1.387 . S
C1633 H1636 0.950 . S
C1634 C1633 1.387 . S
C1634 C1637 1.387 . S
H1635 C1631 0.950 . S
H1636 C1633 0.950 . S
C1637 C1628 1.390 . S
C1637 H1630 0.950 . S
C1637 C1634 1.387 . S
C1638 C1639 1.387 . S
C1638 H1642 0.950 . S
C1638 C1647 1.390 . S
C1639 C1638 1.387 . S
C1639 C1641 1.387 . S
H1640 C1647 0.950 . S
C1641 C1639 1.387 . S
C1641 C1643 1.390 . S
C1641 H1645 0.950 . S
H1642 C1638 0.950 . S
C1643 C1641 1.390 . S
C1643 C1644 1.387 . S
C1643 H1646 0.950 . S
C1644 C1643 1.387 . S
C1644 C1647 1.387 . S
H1645 C1641 0.950 . S
H1646 C1643 0.950 . S
C1647 C1638 1.390 . S
C1647 H1640 0.950 . S
C1647 C1644 1.387 . S
C1648 C1649 1.387 . S
C1648 H1652 0.950 . S
C1648 C1657 1.390 . S
C1649 C1648 1.387 . S
C1649 C1651 1.387 . S
H1650 C1657 0.950 . S
C1651 C1649 1.387 . S
C1651 C1653 1.390 . S
C1651 H1655 0.950 . S
H1652 C1648 0.950 . S
C1653 C1651 1.390 . S
C1653 C1654 1.387 . S
C1653 H1656 0.950 . S
C1654 C1653 1.387 . S
C1654 C1657 1.387 . S
H1655 C1651 0.950 . S
H1656 C1653 0.950 . S
C1657 C1648 1.390 . S
C1657 H1650 0.950 . S
C1657 C1654 1.387 . S
C1658 C1659 1.387 . S
C1658 H1662 0.950 . S
C1658 C1667 1.390 . S
C1659 C1658 1.387 . S
C1659 C1661 1.387 . S
H1660 C1667 0.950 . S
C1661 C1659 1.387 . S
C1661 C1663 1.390 . S
C1661 H1665 0.950 . S
H1662 C1658 0.950 . S
C1663 C1661 1.390 . S
C1663 C1664 1.387 . S
C1663 H1666 0.950 . S
C1664 C1663 1.387 . S
C1664 C1667 1.387 . S
H1665 C1661 0.950 . S
H1666 C1663 0.950 . S
C1667 C1658 1.390 . S
C1667 H1660 0.950 . S
C1667 C1664 1.387 . S
C1668 C1669 1.387 . S
C1668 H1672 0.950 . S
C1668 C1677 1.390 . S
C1669 C1668 1.387 . S
C1669 C1671 1.387 . S
H1670 C1677 0.950 . S
C1671 C1669 1.387 . S
C1671 C1673 1.390 . S
C1671 H1675 0.950 . S
H1672 C1668 0.950 . S
C1673 C1671 1.390 . S
C1673 C1674 1.387 . S
C1673 H1676 0.950 . S
C1674 C1673 1.387 . S
C1674 C1677 1.387 . S
H1675 C1671 0.950 . S
H1676 C1673 0.950 . S
C1677 C1668 1.390 . S
C1677 H1670 0.950 . S
C1677 C1674 1.387 . S
C1678 C1679 1.387 . S
C1678 H1682 0.950 . S
C1678 C1687 1.390 . S
C1679 C1678 1.387 . S
C1679 C1681 1.387 . S
H1680 C1687 0.950 . S
C1681 C1679 1.387 . S
C1681 C1683 1.390 . S
C1681 H1685 0.950 . S
H1682 C1678 0.950 . S
C1683 C1681 1.390 . S
C1683 C1684 1.387 . S
C1683 H1686 0.950 . S
C1684 C1683 1.387 . S
C1684 C1687 1.387 . S
H1685 C1681 0.950 . S
H1686 C1683 0.950 . S
C1687 C1678 1.390 . S
C1687 H1680 0.950 . S
C1687 C1684 1.387 . S
C1688 C1689 1.387 . S
C1688 H1692 0.950 . S
C1688 C1697 1.390 . S
C1689 C1688 1.387 . S
C1689 C1691 1.387 . S
H1690 C1697 0.950 . S
C1691 C1689 1.387 . S
C1691 C1693 1.390 . S
C1691 H1695 0.950 . S
H1692 C1688 0.950 . S
C1693 C1691 1.390 . S
C1693 C1694 1.387 . S
C1693 H1696 0.950 . S
C1694 C1693 1.387 . S
C1694 C1697 1.387 . S
H1695 C1691 0.950 . S
H1696 C1693 0.950 . S
C1697 C1688 1.390 . S
C1697 H1690 0.950 . S
C1697 C1694 1.387 . S
C1698 C1699 1.387 . S
C1698 H1702 0.950 . S
C1698 C1707 1.390 . S
C1699 C1698 1.387 . S
C1699 C1701 1.387 . S
H1700 C1707 0.950 . S
C1701 C1699 1.387 . S
C1701 C1703 1.390 . S
C1701 H1705 0.950 . S
H1702 C1698 0.950 . S
C1703 C1701 1.390 . S
C1703 C1704 1.387 . S
C1703 H1706 0.950 . S
C1704 C1703 1.387 . S
C1704 C1707 1.387 . S
H1705 C1701 0.950 . S
H1706 C1703 0.950 . S
C1707 C1698 1.390 . S
C1707 H1700 0.950 . S
C1707 C1704 1.387 . S
C1708 C1709 1.387 . S
C1708 H1712 0.950 . S
C1708 C1717 1.390 . S
C1709 C1708 1.387 . S
C1709 C1711 1.387 . S
H1710 C1717 0.950 . S
C1711 C1709 1.387 . S
C1711 C1713 1.390 . S
C1711 H1715 0.950 . S
H1712 C1708 0.950 . S
C1713 C1711 1.390 . S
C1713 C1714 1.387 . S
C1713 H1716 0.950 . S
C1714 C1713 1.387 . S
C1714 C1717 1.387 . S
H1715 C1711 0.950 . S
H1716 C1713 0.950 . S
C1717 C1708 1.390 . S
C1717 H1710 0.950 . S
C1717 C1714 1.387 . S
C1718 C1719 1.387 . S
C1718 H1722 0.950 . S
C1718 C1727 1.390 . S
C1719 C1718 1.387 . S
C1719 C1721 1.387 . S
H1720 C1727 0.950 . S
C1721 C1719 1.387 . S
C1721 C1723 1.390 . S
C1721 H1725 0.950 . S
H1722 C1718 0.950 . S
C1723 C1721 1.390 . S
C1723 C1724 1.387 . S
C1723 H1726 0.950 . S
C1724 C1723 1.387 . S
C1724 C1727 1.387 . S
H1725 C1721 0.950 . S
H1726 C1723 0.950 . S
C1727 C1718 1.390 . S
C1727 H1720 0.950 . S
C1727 C1724 1.387 . S
C1728 C1729 1.387 . S
C1728 H1732 0.950 . S
C1728 C1737 1.390 . S
C1729 C1728 1.387 . S
C1729 C1731 1.387 . S
H1730 C1737 0.950 . S
C1731 C1729 1.387 . S
C1731 C1733 1.390 . S
C1731 H1735 0.950 . S
H1732 C1728 0.950 . S
C1733 C1731 1.390 . S
C1733 C1734 1.387 . S
C1733 H1736 0.950 . S
C1734 C1733 1.387 . S
C1734 C1737 1.387 . S
H1735 C1731 0.950 . S
H1736 C1733 0.950 . S
C1737 C1728 1.390 . S
C1737 H1730 0.950 . S
C1737 C1734 1.387 . S
C1738 C1739 1.387 . S
C1738 H1742 0.950 . S
C1738 C1747 1.390 . S
C1739 C1738 1.387 . S
C1739 C1741 1.387 . S
H1740 C1747 0.950 . S
C1741 C1739 1.387 . S
C1741 C1743 1.390 . S
C1741 H1745 0.950 . S
H1742 C1738 0.950 . S
C1743 C1741 1.390 . S
C1743 C1744 1.387 . S
C1743 H1746 0.950 . S
C1744 C1743 1.387 . S
C1744 C1747 1.387 . S
H1745 C1741 0.950 . S
H1746 C1743 0.950 . S
C1747 C1738 1.390 . S
C1747 H1740 0.950 . S
C1747 C1744 1.387 . S
C1748 C1749 1.387 . S
C1748 H1752 0.950 . S
C1748 C1757 1.390 . S
C1749 C1748 1.387 . S
C1749 C1751 1.387 . S
H1750 C1757 0.950 . S
C1751 C1749 1.387 . S
C1751 C1753 1.390 . S
C1751 H1755 0.950 . S
H1752 C1748 0.950 . S
C1753 C1751 1.390 . S
C1753 C1754 1.387 . S
C1753 H1756 0.950 . S
C1754 C1753 1.387 . S
C1754 C1757 1.387 . S
H1755 C1751 0.950 . S
H1756 C1753 0.950 . S
C1757 C1748 1.390 . S
C1757 H1750 0.950 . S
C1757 C1754 1.387 . S
C1758 C1759 1.387 . S
C1758 H1762 0.950 . S
C1758 C1767 1.390 . S
C1759 C1758 1.387 . S
C1759 C1761 1.387 . S
H1760 C1767 0.950 . S
C1761 C1759 1.387 . S
C1761 C1763 1.390 . S
C1761 H1765 0.950 . S
H1762 C1758 0.950 . S
C1763 C1761 1.390 . S
C1763 C1764 1.387 . S
C1763 H1766 0.950 . S
C1764 C1763 1.387 . S
C1764 C1767 1.387 . S
H1765 C1761 0.950 . S
H1766 C1763 0.950 . S
C1767 C1758 1.390 . S
C1767 H1760 0.950 . S
C1767 C1764 1.387 . S
C1768 C1769 1.387 . S
C1768 H1772 0.950 . S
C1768 C1777 1.390 . S
C1769 C1768 1.387 . S
C1769 C1771 1.387 . S
H1770 C1777 0.950 . S
C1771 C1769 1.387 . S
C1771 C1773 1.390 . S
C1771 H1775 0.950 . S
H1772 C1768 0.950 . S
C1773 C1771 1.390 . S
C1773 C1774 1.387 . S
C1773 H1776 0.950 . S
C1774 C1773 1.387 . S
C1774 C1777 1.387 . S
H1775 C1771 0.950 . S
H1776 C1773 0.950 . S
C1777 C1768 1.390 . S
C1777 H1770 0.950 . S
C1777 C1774 1.387 . S
C1778 C1779 1.387 . S
C1778 H1782 0.950 . S
C1778 C1787 1.390 . S
C1779 C1778 1.387 . S
C1779 C1781 1.387 . S
H1780 C1787 0.950 . S
C1781 C1779 1.387 . S
C1781 C1783 1.390 . S
C1781 H1785 0.950 . S
H1782 C1778 0.950 . S
C1783 C1781 1.390 . S
C1783 C1784 1.387 . S
C1783 H1786 0.950 . S
C1784 C1783 1.387 . S
C1784 C1787 1.387 . S
H1785 C1781 0.950 . S
H1786 C1783 0.950 . S
C1787 C1778 1.390 . S
C1787 H1780 0.950 . S
C1787 C1784 1.387 . S
C1788 C1789 1.387 . S
C1788 H1792 0.950 . S
C1788 C1797 1.390 . S
C1789 C1788 1.387 . S
C1789 C1791 1.387 . S
H1790 C1797 0.950 . S
C1791 C1789 1.387 . S
C1791 C1793 1.390 . S
C1791 H1795 0.950 . S
H1792 C1788 0.950 . S
C1793 C1791 1.390 . S
C1793 C1794 1.387 . S
C1793 H1796 0.950 . S
C1794 C1793 1.387 . S
C1794 C1797 1.387 . S
H1795 C1791 0.950 . S
H1796 C1793 0.950 . S
C1797 C1788 1.390 . S
C1797 H1790 0.950 . S
C1797 C1794 1.387 . S
C1798 C1799 1.387 . S
C1798 H1802 0.950 . S
C1798 C1807 1.390 . S
C1799 C1798 1.387 . S
C1799 C1801 1.387 . S
H1800 C1807 0.950 . S
C1801 C1799 1.387 . S
C1801 C1803 1.390 . S
C1801 H1805 0.950 . S
H1802 C1798 0.950 . S
C1803 C1801 1.390 . S
C1803 C1804 1.387 . S
C1803 H1806 0.950 . S
C1804 C1803 1.387 . S
C1804 C1807 1.387 . S
H1805 C1801 0.950 . S
H1806 C1803 0.950 . S
C1807 C1798 1.390 . S
C1807 H1800 0.950 . S
C1807 C1804 1.387 . S
C1808 C1809 1.387 . S
C1808 H1812 0.950 . S
C1808 C1817 1.390 . S
C1809 C1808 1.387 . S
C1809 C1811 1.387 . S
H1810 C1817 0.950 . S
C1811 C1809 1.387 . S
C1811 C1813 1.390 . S
C1811 H1815 0.950 . S
H1812 C1808 0.950 . S
C1813 C1811 1.390 . S
C1813 C1814 1.387 . S
C1813 H1816 0.950 . S
C1814 C1813 1.387 . S
C1814 C1817 1.387 . S
H1815 C1811 0.950 . S
H1816 C1813 0.950 . S
C1817 C1808 1.390 . S
C1817 H1810 0.950 . S
C1817 C1814 1.387 . S
C1818 C1819 1.387 . S
C1818 H1822 0.950 . S
C1818 C1827 1.390 . S
C1819 C1818 1.387 . S
C1819 C1821 1.387 . S
H1820 C1827 0.950 . S
C1821 C1819 1.387 . S
C1821 C1823 1.390 . S
C1821 H1825 0.950 . S
H1822 C1818 0.950 . S
C1823 C1821 1.390 . S
C1823 C1824 1.387 . S
C1823 H1826 0.950 . S
C1824 C1823 1.387 . S
C1824 C1827 1.387 . S
H1825 C1821 0.950 . S
H1826 C1823 0.950 . S
C1827 C1818 1.390 . S
C1827 H1820 0.950 . S
C1827 C1824 1.387 . S
C1828 C1829 1.387 . S
C1828 H1832 0.950 . S
C1828 C1837 1.390 . S
C1829 C1828 1.387 . S
C1829 C1831 1.387 . S
H1830 C1837 0.950 . S
C1831 C1829 1.387 . S
C1831 C1833 1.390 . S
C1831 H1835 0.950 . S
H1832 C1828 0.950 . S
C1833 C1831 1.390 . S
C1833 C1834 1.387 . S
C1833 H1836 0.950 . S
C1834 C1833 1.387 . S
C1834 C1837 1.387 . S
H1835 C1831 0.950 . S
H1836 C1833 0.950 . S
C1837 C1828 1.390 . S
C1837 H1830 0.950 . S
C1837 C1834 1.387 . S
C1838 C1839 1.387 . S
C1838 H1842 0.950 . S
C1838 C1847 1.390 . S
C1839 C1838 1.387 . S
C1839 C1841 1.387 . S
H1840 C1847 0.950 . S
C1841 C1839 1.387 . S
C1841 C1843 1.390 . S
C1841 H1845 0.950 . S
H1842 C1838 0.950 . S
C1843 C1841 1.390 . S
C1843 C1844 1.387 . S
C1843 H1846 0.950 . S
C1844 C1843 1.387 . S
C1844 C1847 1.387 . S
H1845 C1841 0.950 . S
H1846 C1843 0.950 . S
C1847 C1838 1.390 . S
C1847 H1840 0.950 . S
C1847 C1844 1.387 . S
C1848 C1849 1.387 . S
C1848 H1852 0.950 . S
C1848 C1857 1.390 . S
C1849 C1848 1.387 . S
C1849 C1851 1.387 . S
H1850 C1857 0.950 . S
C1851 C1849 1.387 . S
C1851 C1853 1.390 . S
C1851 H1855 0.950 . S
H1852 C1848 0.950 . S
C1853 C1851 1.390 . S
C1853 C1854 1.387 . S
C1853 H1856 0.950 . S
C1854 C1853 1.387 . S
C1854 C1857 1.387 . S
H1855 C1851 0.950 . S
H1856 C1853 0.950 . S
C1857 C1848 1.390 . S
C1857 H1850 0.950 . S
C1857 C1854 1.387 . S
C1858 C1859 1.387 . S
C1858 H1862 0.950 . S
C1858 C1867 1.390 . S
C1859 C1858 1.387 . S
C1859 C1861 1.387 . S
H1860 C1867 0.950 . S
C1861 C1859 1.387 . S
C1861 C1863 1.390 . S
C1861 H1865 0.950 . S
H1862 C1858 0.950 . S
C1863 C1861 1.390 . S
C1863 C1864 1.387 . S
C1863 H1866 0.950 . S
C1864 C1863 1.387 . S
C1864 C1867 1.387 . S
H1865 C1861 0.950 . S
H1866 C1863 0.950 . S
C1867 C1858 1.390 . S
C1867 H1860 0.950 . S
C1867 C1864 1.387 . S
C1868 C1869 1.387 . S
C1868 H1872 0.950 . S
C1868 C1877 1.390 . S
C1869 C1868 1.387 . S
C1869 C1871 1.387 . S
H1870 C1877 0.950 . S
C1871 C1869 1.387 . S
C1871 C1873 1.390 . S
C1871 H1875 0.950 . S
H1872 C1868 0.950 . S
C1873 C1871 1.390 . S
C1873 C1874 1.387 . S
C1873 H1876 0.950 . S
C1874 C1873 1.387 . S
C1874 C1877 1.387 . S
H1875 C1871 0.950 . S
H1876 C1873 0.950 . S
C1877 C1868 1.390 . S
C1877 H1870 0.950 . S
C1877 C1874 1.387 . S
C1878 C1879 1.387 . S
C1878 H1882 0.950 . S
C1878 C1887 1.390 . S
C1879 C1878 1.387 . S
C1879 C1881 1.387 . S
H1880 C1887 0.950 . S
C1881 C1879 1.387 . S
C1881 C1883 1.390 . S
C1881 H1885 0.950 . S
H1882 C1878 0.950 . S
C1883 C1881 1.390 . S
C1883 C1884 1.387 . S
C1883 H1886 0.950 . S
C1884 C1883 1.387 . S
C1884 C1887 1.387 . S
H1885 C1881 0.950 . S
H1886 C1883 0.950 . S
C1887 C1878 1.390 . S
C1887 H1880 0.950 . S
C1887 C1884 1.387 . S
C1888 C1889 1.387 . S
C1888 H1892 0.950 . S
C1888 C1897 1.390 . S
C1889 C1888 1.387 . S
C1889 C1891 1.387 . S
H1890 C1897 0.950 . S
C1891 C1889 1.387 . S
C1891 C1893 1.390 . S
C1891 H1895 0.950 . S
H1892 C1888 0.950 . S
C1893 C1891 1.390 . S
C1893 C1894 1.387 . S
C1893 H1896 0.950 . S
C1894 C1893 1.387 . S
C1894 C1897 1.387 . S
H1895 C1891 0.950 . S
H1896 C1893 0.950 . S
C1897 C1888 1.390 . S
C1897 H1890 0.950 . S
C1897 C1894 1.387 . S
C1898 C1899 1.387 . S
C1898 H1902 0.950 . S
C1898 C1907 1.390 . S
C1899 C1898 1.387 . S
C1899 C1901 1.387 . S
H1900 C1907 0.950 . S
C1901 C1899 1.387 . S
C1901 C1903 1.390 . S
C1901 H1905 0.950 . S
H1902 C1898 0.950 . S
C1903 C1901 1.390 . S
C1903 C1904 1.387 . S
C1903 H1906 0.950 . S
C1904 C1903 1.387 . S
C1904 C1907 1.387 . S
H1905 C1901 0.950 . S
H1906 C1903 0.950 . S
C1907 C1898 1.390 . S
C1907 H1900 0.950 . S
C1907 C1904 1.387 . S
C1908 C1909 1.387 . S
C1908 H1912 0.950 . S
C1908 C1917 1.390 . S
C1909 C1908 1.387 . S
C1909 C1911 1.387 . S
H1910 C1917 0.950 . S
C1911 C1909 1.387 . S
C1911 C1913 1.390 . S
C1911 H1915 0.950 . S
H1912 C1908 0.950 . S
C1913 C1911 1.390 . S
C1913 C1914 1.387 . S
C1913 H1916 0.950 . S
C1914 C1913 1.387 . S
C1914 C1917 1.387 . S
H1915 C1911 0.950 . S
H1916 C1913 0.950 . S
C1917 C1908 1.390 . S
C1917 H1910 0.950 . S
C1917 C1914 1.387 . S
C1918 C1919 1.387 . S
C1918 H1922 0.950 . S
C1918 C1927 1.390 . S
C1919 C1918 1.387 . S
C1919 C1921 1.387 . S
H1920 C1927 0.950 . S
C1921 C1919 1.387 . S
C1921 C1923 1.390 . S
C1921 H1925 0.950 . S
H1922 C1918 0.950 . S
C1923 C1921 1.390 . S
C1923 C1924 1.387 . S
C1923 H1926 0.950 . S
C1924 C1923 1.387 . S
C1924 C1927 1.387 . S
H1925 C1921 0.950 . S
H1926 C1923 0.950 . S
C1927 C1918 1.390 . S
C1927 H1920 0.950 . S
C1927 C1924 1.387 . S
C1928 C1929 1.387 . S
C1928 H1932 0.950 . S
C1928 C1937 1.390 . S
C1929 C1928 1.387 . S
C1929 C1931 1.387 . S
H1930 C1937 0.950 . S
C1931 C1929 1.387 . S
C1931 C1933 1.390 . S
C1931 H1935 0.950 . S
H1932 C1928 0.950 . S
C1933 C1931 1.390 . S
C1933 C1934 1.387 . S
C1933 H1936 0.950 . S
C1934 C1933 1.387 . S
C1934 C1937 1.387 . S
H1935 C1931 0.950 . S
H1936 C1933 0.950 . S
C1937 C1928 1.390 . S
C1937 H1930 0.950 . S
C1937 C1934 1.387 . S
C1938 C1939 1.387 . S
C1938 H1942 0.950 . S
C1938 C1947 1.390 . S
C1939 C1938 1.387 . S
C1939 C1941 1.387 . S
H1940 C1947 0.950 . S
C1941 C1939 1.387 . S
C1941 C1943 1.390 . S
C1941 H1945 0.950 . S
H1942 C1938 0.950 . S
C1943 C1941 1.390 . S
C1943 C1944 1.387 . S
C1943 H1946 0.950 . S
C1944 C1943 1.387 . S
C1944 C1947 1.387 . S
H1945 C1941 0.950 . S
H1946 C1943 0.950 . S
C1947 C1938 1.390 . S
C1947 H1940 0.950 . S
C1947 C1944 1.387 . S
C1948 C1949 1.387 . S
C1948 H1952 0.950 . S
C1948 C1957 1.390 . S
C1949 C1948 1.387 . S
C1949 C1951 1.387 . S
H1950 C1957 0.950 . S
C1951 C1949 1.387 . S
C1951 C1953 1.390 . S
C1951 H1955 0.950 . S
H1952 C1948 0.950 . S
C1953 C1951 1.390 . S
C1953 C1954 1.387 . S
C1953 H1956 0.950 . S
C1954 C1953 1.387 . S
C1954 C1957 1.387 . S
H1955 C1951 0.950 . S
H1956 C1953 0.950 . S
C1957 C1948 1.390 . S
C1957 H1950 0.950 . S
C1957 C1954 1.387 . S
C1958 C1959 1.387 . S
C1958 H1962 0.950 . S
C1958 C1967 1.390 . S
C1959 C1958 1.387 . S
C1959 C1961 1.387 . S
H1960 C1967 0.950 . S
C1961 C1959 1.387 . S
C1961 C1963 1.390 . S
C1961 H1965 0.950 . S
H1962 C1958 0.950 . S
C1963 C1961 1.390 . S
C1963 C1964 1.387 . S
C1963 H1966 0.950 . S
C1964 C1963 1.387 . S
C1964 C1967 1.387 . S
H1965 C1961 0.950 . S
H1966 C1963 0.950 . S
C1967 C1958 1.390 . S
C1967 H1960 0.950 . S
C1967 C1964 1.387 . S
C1968 C1969 1.387 . S
C1968 H1972 0.950 . S
C1968 C1977 1.390 . S
C1969 C1968 1.387 . S
C1969 C1971 1.387 . S
H1970 C1977 0.950 . S
C1971 C1969 1.387 . S
C1971 C1973 1.390 . S
C1971 H1975 0.950 . S
H1972 C1968 0.950 . S
C1973 C1971 1.390 . S
C1973 C1974 1.387 . S
C1973 H1976 0.950 . S
C1974 C1973 1.387 . S
C1974 C1977 1.387 . S
H1975 C1971 0.950 . S
H1976 C1973 0.950 . S
C1977 C1968 1.390 . S
C1977 H1970 0.950 . S
C1977 C1974 1.387 . S
C1978 C1979 1.387 . S
C1978 H1982 0.950 . S
C1978 C1987 1.390 . S
C1979 C1978 1.387 . S
C1979 C1981 1.387 . S
H1980 C1987 0.950 . S
C1981 C1979 1.387 . S
C1981 C1983 1.390 . S
C1981 H1985 0.950 . S
H1982 C1978 0.950 . S
C1983 C1981 1.390 . S
C1983 C1984 1.387 . S
C1983 H1986 0.950 . S
C1984 C1983 1.387 . S
C1984 C1987 1.387 . S
H1985 C1981 0.950 . S
H1986 C1983 0.950 . S
C1987 C1978 1.390 . S
C1987 H1980 0.950 . S
C1987 C1984 1.387 . S
C1988 C1989 1.387 . S
C1988 H1992 0.950 . S
C1988 C1997 1.390 . S
C1989 C1988 1.387 . S
C1989 C1991 1.387 . S
H1990 C1997 0.950 . S
C1991 C1989 1.387 . S
C1991 C1993 1.390 . S
C1991 H1995 0.950 . S
H1992 C1988 0.950 . S
C1993 C1991 1.390 . S
C1993 C1994 1.387 . S
C1993 H1996 0.950 . S
C1994 C1993 1.387 . S
C1994 C1997 1.387 . S
H1995 C1991 0.950 . S
H1996 C1993 0.950 . S
C1997 C1988 1.390 . S
C1997 H1990 0.950 . S
C1997 C1994 1.387 . S
C1998 C1999 1.387 . S
C1998 H2002 0.950 . S
C1998 C2007 1.390 . S
C1999 C1998 1.387 . S
C1999 C2001 1.387 . S
H2000 C2007 0.950 . S
C2001 C1999 1.387 . S
C2001 C2003 1.390 . S
C2001 H2005 0.950 . S
H2002 C1998 0.950 . S
C2003 C2001 1.390 . S
C2003 C2004 1.387 . S
C2003 H2006 0.950 . S
C2004 C2003 1.387 . S
C2004 C2007 1.387 . S
H2005 C2001 0.950 . S
H2006 C2003 0.950 . S
C2007 C1998 1.390 . S
C2007 H2000 0.950 . S
C2007 C2004 1.387 . S
C2008 C2009 1.387 . S
C2008 H2012 0.950 . S
C2008 C2017 1.390 . S
C2009 C2008 1.387 . S
C2009 C2011 1.387 . S
H2010 C2017 0.950 . S
C2011 C2009 1.387 . S
C2011 C2013 1.390 . S
C2011 H2015 0.950 . S
H2012 C2008 0.950 . S
C2013 C2011 1.390 . S
C2013 C2014 1.387 . S
C2013 H2016 0.950 . S
C2014 C2013 1.387 . S
C2014 C2017 1.387 . S
H2015 C2011 0.950 . S
H2016 C2013 0.950 . S
C2017 C2008 1.390 . S
C2017 H2010 0.950 . S
C2017 C2014 1.387 . S
C2018 C2019 1.387 . S
C2018 H2022 0.950 . S
C2018 C2027 1.390 . S
C2019 C2018 1.387 . S
C2019 C2021 1.387 . S
H2020 C2027 0.950 . S
C2021 C2019 1.387 . S
C2021 C2023 1.390 . S
C2021 H2025 0.950 . S
H2022 C2018 0.950 . S
C2023 C2021 1.390 . S
C2023 C2024 1.387 . S
C2023 H2026 0.950 . S
C2024 C2023 1.387 . S
C2024 C2027 1.387 . S
H2025 C2021 0.950 . S
H2026 C2023 0.950 . S
C2027 C2018 1.390 . S
C2027 H2020 0.950 . S
C2027 C2024 1.387 . S
C2028 C2029 1.387 . S
C2028 H2032 0.950 . S
C2028 C2037 1.390 . S
C2029 C2028 1.387 . S
C2029 C2031 1.387 . S
H2030 C2037 0.950 . S
C2031 C2029 1.387 . S
C2031 C2033 1.390 . S
C2031 H2035 0.950 . S
H2032 C2028 0.950 . S
C2033 C2031 1.390 . S
C2033 C2034 1.387 . S
C2033 H2036 0.950 . S
C2034 C2033 1.387 . S
C2034 C2037 1.387 . S
H2035 C2031 0.950 . S
H2036 C2033 0.950 . S
C2037 C2028 1.390 . S
C2037 H2030 0.950 . S
C2037 C2034 1.387 . S
C2038 C2039 1.387 . S
C2038 H2042 0.950 . S
C2038 C2047 1.390 . S
C2039 C2038 1.387 . S
C2039 C2041 1.387 . S
H2040 C2047 0.950 . S
C2041 C2039 1.387 . S
C2041 C2043 1.390 . S
C2041 H2045 0.950 . S
H2042 C2038 0.950 . S
C2043 C2041 1.390 . S
C2043 C2044 1.387 . S
C2043 H2046 0.950 . S
C2044 C2043 1.387 . S
C2044 C2047 1.387 . S
H2045 C2041 0.950 . S
H2046 C2043 0.950 . S
C2047 C2038 1.390 . S
C2047 H2040 0.950 . S
C2047 C2044 1.387 . S
C2048 C2049 1.387 . S
C2048 H2052 0.950 . S
C2048 C2057 1.390 . S
C2049 C2048 1.387 . S
C2049 C2051 1.387 . S
H2050 C2057 0.950 . S
C2051 C2049 1.387 . S
C2051 C2053 1.390 . S
C2051 H2055 0.950 . S
H2052 C2048 0.950 . S
C2053 C2051 1.390 . S
C2053 C2054 1.387 . S
C2053 H2056 0.950 . S
C2054 C2053 1.387 . S
C2054 C2057 1.387 . S
H2055 C2051 0.950 . S
H2056 C2053 0.950 . S
C2057 C2048 1.390 . S
C2057 H2050 0.950 . S
C2057 C2054 1.387 . S
C2058 C2059 1.387 . S
C2058 H2062 0.950 . S
C2058 C2067 1.390 . S
C2059 C2058 1.387 . S
C2059 C2061 1.387 . S
H2060 C2067 0.950 . S
C2061 C2059 1.387 . S
C2061 C2063 1.390 . S
C2061 H2065 0.950 . S
H2062 C2058 0.950 . S
C2063 C2061 1.390 . S
C2063 C2064 1.387 . S
C2063 H2066 0.950 . S
C2064 C2063 1.387 . S
C2064 C2067 1.387 . S
H2065 C2061 0.950 . S
H2066 C2063 0.950 . S
C2067 C2058 1.390 . S
C2067 H2060 0.950 . S
C2067 C2064 1.387 . S
C2068 C2069 1.387 . S
C2068 H2072 0.950 . S
C2068 C2077 1.390 . S
C2069 C2068 1.387 . S
C2069 C2071 1.387 . S
H2070 C2077 0.950 . S
C2071 C2069 1.387 . S
C2071 C2073 1.390 . S
C2071 H2075 0.950 . S
H2072 C2068 0.950 . S
C2073 C2071 1.390 . S
C2073 C2074 1.387 . S
C2073 H2076 0.950 . S
C2074 C2073 1.387 . S
C2074 C2077 1.387 . S
H2075 C2071 0.950 . S
H2076 C2073 0.950 . S
C2077 C2068 1.390 . S
C2077 H2070 0.950 . S
C2077 C2074 1.387 . S
C2078 C2079 1.387 . S
C2078 H2082 0.950 . S
C2078 C2087 1.390 . S
C2079 C2078 1.387 . S
C2079 C2081 1.387 . S
H2080 C2087 0.950 . S
C2081 C2079 1.387 . S
C2081 C2083 1.390 . S
C2081 H2085 0.950 . S
H2082 C2078 0.950 . S
C2083 C2081 1.390 . S
C2083 C2084 1.387 . S
C2083 H2086 0.950 . S
C2084 C2083 1.387 . S
C2084 C2087 1.387 . S
H2085 C2081 0.950 . S
H2086 C2083 0.950 . S
C2087 C2078 1.390 . S
C2087 H2080 0.950 . S
C2087 C2084 1.387 . S
C2088 C2089 1.387 . S
C2088 H2092 0.950 . S
C2088 C2097 1.390 . S
C2089 C2088 1.387 . S
C2089 C2091 1.387 . S
H2090 C2097 0.950 . S
C2091 C2089 1.387 . S
C2091 C2093 1.390 . S
C2091 H2095 0.950 . S
H2092 C2088 0.950 . S
C2093 C2091 1.390 . S
C2093 C2094 1.387 . S
C2093 H2096 0.950 . S
C2094 C2093 1.387 . S
C2094 C2097 1.387 . S
H2095 C2091 0.950 . S
H2096 C2093 0.950 . S
C2097 C2088 1.390 . S
C2097 H2090 0.950 . S
C2097 C2094 1.387 . S
C2098 C2099 1.387 . S
C2098 H2102 0.950 . S
C2098 C2107 1.390 . S
C2099 C2098 1.387 . S
C2099 C2101 1.387 . S
H2100 C2107 0.950 . S
C2101 C2099 1.387 . S
C2101 C2103 1.390 . S
C2101 H2105 0.950 . S
H2102 C2098 0.950 . S
C2103 C2101 1.390 . S
C2103 C2104 1.387 . S
C2103 H2106 0.950 . S
C2104 C2103 1.387 . S
C2104 C2107 1.387 . S
H2105 C2101 0.950 . S
H2106 C2103 0.950 . S
C2107 C2098 1.390 . S
C2107 H2100 0.950 . S
C2107 C2104 1.387 . S
C2108 C2109 1.387 . S
C2108 H2112 0.950 . S
C2108 C2117 1.390 . S
C2109 C2108 1.387 . S
C2109 C2111 1.387 . S
H2110 C2117 0.950 . S
C2111 C2109 1.387 . S
C2111 C2113 1.390 . S
C2111 H2115 0.950 . S
H2112 C2108 0.950 . S
C2113 C2111 1.390 . S
C2113 C2114 1.387 . S
C2113 H2116 0.950 . S
C2114 C2113 1.387 . S
C2114 C2117 1.387 . S
H2115 C2111 0.950 . S
H2116 C2113 0.950 . S
C2117 C2108 1.390 . S
C2117 H2110 0.950 . S
C2117 C2114 1.387 . S
C2118 C2119 1.387 . S
C2118 H2122 0.950 . S
C2118 C2127 1.390 . S
C2119 C2118 1.387 . S
C2119 C2121 1.387 . S
H2120 C2127 0.950 . S
C2121 C2119 1.387 . S
C2121 C2123 1.390 . S
C2121 H2125 0.950 . S
H2122 C2118 0.950 . S
C2123 C2121 1.390 . S
C2123 C2124 1.387 . S
C2123 H2126 0.950 . S
C2124 C2123 1.387 . S
C2124 C2127 1.387 . S
H2125 C2121 0.950 . S
H2126 C2123 0.950 . S
C2127 C2118 1.390 . S
C2127 H2120 0.950 . S
C2127 C2124 1.387 . S
C2128 C2129 1.387 . S
C2128 H2132 0.950 . S
C2128 C2137 1.390 . S
C2129 C2128 1.387 . S
C2129 C2131 1.387 . S
H2130 C2137 0.950 . S
C2131 C2129 1.387 . S
C2131 C2133 1.390 . S
C2131 H2135 0.950 . S
H2132 C2128 0.950 . S
C2133 C2131 1.390 . S
C2133 C2134 1.387 . S
C2133 H2136 0.950 . S
C2134 C2133 1.387 . S
C2134 C2137 1.387 . S
H2135 C2131 0.950 . S
H2136 C2133 0.950 . S
C2137 C2128 1.390 . S
C2137 H2130 0.950 . S
C2137 C2134 1.387 . S
C2138 C2139 1.387 . S
C2138 H2142 0.950 . S
C2138 C2147 1.390 . S
C2139 C2138 1.387 . S
C2139 C2141 1.387 . S
H2140 C2147 0.950 . S
C2141 C2139 1.387 . S
C2141 C2143 1.390 . S
C2141 H2145 0.950 . S
H2142 C2138 0.950 . S
C2143 C2141 1.390 . S
C2143 C2144 1.387 . S
C2143 H2146 0.950 . S
C2144 C2143 1.387 . S
C2144 C2147 1.387 . S
H2145 C2141 0.950 . S
H2146 C2143 0.950 . S
C2147 C2138 1.390 . S
C2147 H2140 0.950 . S
C2147 C2144 1.387 . S
C2148 C2149 1.387 . S
C2148 H2152 0.950 . S
C2148 C2157 1.390 . S
C2149 C2148 1.387 . S
C2149 C2151 1.387 . S
H2150 C2157 0.950 . S
C2151 C2149 1.387 . S
C2151 C2153 1.390 . S
C2151 H2155 0.950 . S
H2152 C2148 0.950 . S
C2153 C2151 1.390 . S
C2153 C2154 1.387 . S
C2153 H2156 0.950 . S
C2154 C2153 1.387 . S
C2154 C2157 1.387 . S
H2155 C2151 0.950 . S
H2156 C2153 0.950 . S
C2157 C2148 1.390 . S
C2157 H2150 0.950 . S
C2157 C2154 1.387 . S
C2158 C2159 1.387 . S
C2158 H2162 0.950 . S
C2158 C2167 1.390 . S
C2159 C2158 1.387 . S
C2159 C2161 1.387 . S
H2160 C2167 0.950 . S
C2161 C2159 1.387 . S
C2161 C2163 1.390 . S
C2161 H2165 0.950 . S
H2162 C2158 0.950 . S
C2163 C2161 1.390 . S
C2163 C2164 1.387 . S
C2163 H2166 0.950 . S
C2164 C2163 1.387 . S
C2164 C2167 1.387 . S
H2165 C2161 0.950 . S
H2166 C2163 0.950 . S
C2167 C2158 1.390 . S
C2167 H2160 0.950 . S
C2167 C2164 1.387 . S
C2168 C2169 1.387 . S
C2168 H2172 0.950 . S
C2168 C2177 1.390 . S
C2169 C2168 1.387 . S
C2169 C2171 1.387 . S
H2170 C2177 0.950 . S
C2171 C2169 1.387 . S
C2171 C2173 1.390 . S
C2171 H2175 0.950 . S
H2172 C2168 0.950 . S
C2173 C2171 1.390 . S
C2173 C2174 1.387 . S
C2173 H2176 0.950 . S
C2174 C2173 1.387 . S
C2174 C2177 1.387 . S
H2175 C2171 0.950 . S
H2176 C2173 0.950 . S
C2177 C2168 1.390 . S
C2177 H2170 0.950 . S
C2177 C2174 1.387 . S
C2178 C2179 1.387 . S
C2178 H2182 0.950 . S
C2178 C2187 1.390 . S
C2179 C2178 1.387 . S
C2179 C2181 1.387 . S
H2180 C2187 0.950 . S
C2181 C2179 1.387 . S
C2181 C2183 1.390 . S
C2181 H2185 0.950 . S
H2182 C2178 0.950 . S
C2183 C2181 1.390 . S
C2183 C2184 1.387 . S
C2183 H2186 0.950 . S
C2184 C2183 1.387 . S
C2184 C2187 1.387 . S
H2185 C2181 0.950 . S
H2186 C2183 0.950 . S
C2187 C2178 1.390 . S
C2187 H2180 0.950 . S
C2187 C2184 1.387 . S
C2188 C2189 1.387 . S
C2188 H2192 0.950 . S
C2188 C2197 1.390 . S
C2189 C2188 1.387 . S
C2189 C2191 1.387 . S
H2190 C2197 0.950 . S
C2191 C2189 1.387 . S
C2191 C2193 1.390 . S
C2191 H2195 0.950 . S
H2192 C2188 0.950 . S
C2193 C2191 1.390 . S
C2193 C2194 1.387 . S
C2193 H2196 0.950 . S
C2194 C2193 1.387 . S
C2194 C2197 1.387 . S
H2195 C2191 0.950 . S
H2196 C2193 0.950 . S
C2197 C2188 1.390 . S
C2197 H2190 0.950 . S
C2197 C2194 1.387 . S
C2198 C2199 1.387 . S
C2198 H2202 0.950 . S
C2198 C2207 1.390 . S
C2199 C2198 1.387 . S
C2199 C2201 1.387 . S
H2200 C2207 0.950 . S
C2201 C2199 1.387 . S
C2201 C2203 1.390 . S
C2201 H2205 0.950 . S
H2202 C2198 0.950 . S
C2203 C2201 1.390 . S
C2203 C2204 1.387 . S
C2203 H2206 0.950 . S
C2204 C2203 1.387 . S
C2204 C2207 1.387 . S
H2205 C2201 0.950 . S
H2206 C2203 0.950 . S
C2207 C2198 1.390 . S
C2207 H2200 0.950 . S
C2207 C2204 1.387 . S
C2208 C2209 1.387 . S
C2208 H2212 0.950 . S
C2208 C2217 1.390 . S
C2209 C2208 1.387 . S
C2209 C2211 1.387 . S
H2210 C2217 0.950 . S
C2211 C2209 1.387 . S
C2211 C2213 1.390 . S
C2211 H2215 0.950 . S
H2212 C2208 0.950 . S
C2213 C2211 1.390 . S
C2213 C2214 1.387 . S
C2213 H2216 0.950 . S
C2214 C2213 1.387 . S
C2214 C2217 1.387 . S
H2215 C2211 0.950 . S
H2216 C2213 0.950 . S
C2217 C2208 1.390 . S
C2217 H2210 0.950 . S
C2217 C2214 1.387 . S
C2218 C2219 1.387 . S
C2218 H2222 0.950 . S
C2218 C2227 1.390 . S
C2219 C2218 1.387 . S
C2219 C2221 1.387 . S
H2220 C2227 0.950 . S
C2221 C2219 1.387 . S
C2221 C2223 1.390 . S
C2221 H2225 0.950 . S
H2222 C2218 0.950 . S
C2223 C2221 1.390 . S
C2223 C2224 1.387 . S
C2223 H2226 0.950 . S
C2224 C2223 1.387 . S
C2224 C2227 1.387 . S
H2225 C2221 0.950 . S
H2226 C2223 0.950 . S
C2227 C2218 1.390 . S
C2227 H2220 0.950 . S
C2227 C2224 1.387 . S
C2228 C2229 1.387 . S
C2228 H2232 0.950 . S
C2228 C2237 1.390 . S
C2229 C2228 1.387 . S
C2229 C2231 1.387 . S
H2230 C2237 0.950 . S
C2231 C2229 1.387 . S
C2231 C2233 1.390 . S
C2231 H2235 0.950 . S
H2232 C2228 0.950 . S
C2233 C2231 1.390 . S
C2233 C2234 1.387 . S
C2233 H2236 0.950 . S
C2234 C2233 1.387 . S
C2234 C2237 1.387 . S
H2235 C2231 0.950 . S
H2236 C2233 0.950 . S
C2237 C2228 1.390 . S
C2237 H2230 0.950 . S
C2237 C2234 1.387 . S
C2238 C2239 1.387 . S
C2238 H2242 0.950 . S
C2238 C2247 1.390 . S
C2239 C2238 1.387 . S
C2239 C2241 1.387 . S
H2240 C2247 0.950 . S
C2241 C2239 1.387 . S
C2241 C2243 1.390 . S
C2241 H2245 0.950 . S
H2242 C2238 0.950 . S
C2243 C2241 1.390 . S
C2243 C2244 1.387 . S
C2243 H2246 0.950 . S
C2244 C2243 1.387 . S
C2244 C2247 1.387 . S
H2245 C2241 0.950 . S
H2246 C2243 0.950 . S
C2247 C2238 1.390 . S
C2247 H2240 0.950 . S
C2247 C2244 1.387 . S
C2248 C2249 1.387 . S
C2248 H2252 0.950 . S
C2248 C2257 1.390 . S
C2249 C2248 1.387 . S
C2249 C2251 1.387 . S
H2250 C2257 0.950 . S
C2251 C2249 1.387 . S
C2251 C2253 1.390 . S
C2251 H2255 0.950 . S
H2252 C2248 0.950 . S
C2253 C2251 1.390 . S
C2253 C2254 1.387 . S
C2253 H2256 0.950 . S
C2254 C2253 1.387 . S
C2254 C2257 1.387 . S
H2255 C2251 0.950 . S
H2256 C2253 0.950 . S
C2257 C2248 1.390 . S
C2257 H2250 0.950 . S
C2257 C2254 1.387 . S
C2258 C2259 1.387 . S
C2258 H2262 0.950 . S
C2258 C2267 1.390 . S
C2259 C2258 1.387 . S
C2259 C2261 1.387 . S
H2260 C2267 0.950 . S
C2261 C2259 1.387 . S
C2261 C2263 1.390 . S
C2261 H2265 0.950 . S
H2262 C2258 0.950 . S
C2263 C2261 1.390 . S
C2263 C2264 1.387 . S
C2263 H2266 0.950 . S
C2264 C2263 1.387 . S
C2264 C2267 1.387 . S
H2265 C2261 0.950 . S
H2266 C2263 0.950 . S
C2267 C2258 1.390 . S
C2267 H2260 0.950 . S
C2267 C2264 1.387 . S
C2268 C2269 1.387 . S
C2268 H2272 0.950 . S
C2268 C2277 1.390 . S
C2269 C2268 1.387 . S
C2269 C2271 1.387 . S
H2270 C2277 0.950 . S
C2271 C2269 1.387 . S
C2271 C2273 1.390 . S
C2271 H2275 0.950 . S
H2272 C2268 0.950 . S
C2273 C2271 1.390 . S
C2273 C2274 1.387 . S
C2273 H2276 0.950 . S
C2274 C2273 1.387 . S
C2274 C2277 1.387 . S
H2275 C2271 0.950 . S
H2276 C2273 0.950 . S
C2277 C2268 1.390 . S
C2277 H2270 0.950 . S
C2277 C2274 1.387 . S
C2278 C2279 1.387 . S
C2278 H2282 0.950 . S
C2278 C2287 1.390 . S
C2279 C2278 1.387 . S
C2279 C2281 1.387 . S
H2280 C2287 0.950 . S
C2281 C2279 1.387 . S
C2281 C2283 1.390 . S
C2281 H2285 0.950 . S
H2282 C2278 0.950 . S
C2283 C2281 1.390 . S
C2283 C2284 1.387 . S
C2283 H2286 0.950 . S
C2284 C2283 1.387 . S
C2284 C2287 1.387 . S
H2285 C2281 0.950 . S
H2286 C2283 0.950 . S
C2287 C2278 1.390 . S
C2287 H2280 0.950 . S
C2287 C2284 1.387 . S
C2288 C2289 1.387 . S
C2288 H2292 0.950 . S
C2288 C2297 1.390 . S
C2289 C2288 1.387 . S
C2289 C2291 1.387 . S
H2290 C2297 0.950 . S
C2291 C2289 1.387 . S
C2291 C2293 1.390 . S
C2291 H2295 0.950 . S
H2292 C2288 0.950 . S
C2293 C2291 1.390 . S
C2293 C2294 1.387 . S
C2293 H2296 0.950 . S
C2294 C2293 1.387 . S
C2294 C2297 1.387 . S
H2295 C2291 0.950 . S
H2296 C2293 0.950 . S
C2297 C2288 1.390 . S
C2297 H2290 0.950 . S
C2297 C2294 1.387 . S
C2298 C2299 1.387 . S
C2298 H2302 0.950 . S
C2298 C2307 1.390 . S
C2299 C2298 1.387 . S
C2299 C2301 1.387 . S
H2300 C2307 0.950 . S
C2301 C2299 1.387 . S
C2301 C2303 1.390 . S
C2301 H2305 0.950 . S
H2302 C2298 0.950 . S
C2303 C2301 1.390 . S
C2303 C2304 1.387 . S
C2303 H2306 0.950 . S
C2304 C2303 1.387 . S
C2304 C2307 1.387 . S
H2305 C2301 0.950 . S
H2306 C2303 0.950 . S
C2307 C2298 1.390 . S
C2307 H2300 0.950 . S
C2307 C2304 1.387 . S
C2308 C2309 1.387 . S
C2308 H2312 0.950 . S
C2308 C2317 1.390 . S
C2309 C2308 1.387 . S
C2309 C2311 1.387 . S
H2310 C2317 0.950 . S
C2311 C2309 1.387 . S
C2311 C2313 1.390 . S
C2311 H2315 0.950 . S
H2312 C2308 0.950 . S
C2313 C2311 1.390 . S
C2313 C2314 1.387 . S
C2313 H2316 0.950 . S
C2314 C2313 1.387 . S
C2314 C2317 1.387 . S
H2315 C2311 0.950 . S
H2316 C2313 0.950 . S
C2317 C2308 1.390 . S
C2317 H2310 0.950 . S
C2317 C2314 1.387 . S
C2318 C2319 1.387 . S
C2318 H2322 0.950 . S
C2318 C2327 1.390 . S
C2319 C2318 1.387 . S
C2319 C2321 1.387 . S
H2320 C2327 0.950 . S
C2321 C2319 1.387 . S
C2321 C2323 1.390 . S
C2321 H2325 0.950 . S
H2322 C2318 0.950 . S
C2323 C2321 1.390 . S
C2323 C2324 1.387 . S
C2323 H2326 0.950 . S
C2324 C2323 1.387 . S
C2324 C2327 1.387 . S
H2325 C2321 0.950 . S
H2326 C2323 0.950 . S
C2327 C2318 1.390 . S
C2327 H2320 0.950 . S
C2327 C2324 1.387 . S
C2328 C2329 1.387 . S
C2328 H2332 0.950 . S
C2328 C2337 1.390 . S
C2329 C2328 1.387 . S
C2329 C2331 1.387 . S
H2330 C2337 0.950 . S
C2331 C2329 1.387 . S
C2331 C2333 1.390 . S
C2331 H2335 0.950 . S
H2332 C2328 0.950 . S
C2333 C2331 1.390 . S
C2333 C2334 1.387 . S
C2333 H2336 0.950 . S
C2334 C2333 1.387 . S
C2334 C2337 1.387 . S
H2335 C2331 0.950 . S
H2336 C2333 0.950 . S
C2337 C2328 1.390 . S
C2337 H2330 0.950 . S
C2337 C2334 1.387 . S
C2338 C2339 1.387 . S
C2338 H2342 0.950 . S
C2338 C2347 1.390 . S
C2339 C2338 1.387 . S
C2339 C2341 1.387 . S
H2340 C2347 0.950 . S
C2341 C2339 1.387 . S
C2341 C2343 1.390 . S
C2341 H2345 0.950 . S
H2342 C2338 0.950 . S
C2343 C2341 1.390 . S
C2343 C2344 1.387 . S
C2343 H2346 0.950 . S
C2344 C2343 1.387 . S
C2344 C2347 1.387 . S
H2345 C2341 0.950 . S
H2346 C2343 0.950 . S
C2347 C2338 1.390 . S
C2347 H2340 0.950 . S
C2347 C2344 1.387 . S
C2348 C2349 1.387 . S
C2348 H2352 0.950 . S
C2348 C2357 1.390 . S
C2349 C2348 1.387 . S
C2349 C2351 1.387 . S
H2350 C2357 0.950 . S
C2351 C2349 1.387 . S
C2351 C2353 1.390 . S
C2351 H2355 0.950 . S
H2352 C2348 0.950 . S
C2353 C2351 1.390 . S
C2353 C2354 1.387 . S
C2353 H2356 0.950 . S
C2354 C2353 1.387 . S
C2354 C2357 1.387 . S
H2355 C2351 0.950 . S
H2356 C2353 0.950 . S
C2357 C2348 1.390 . S
C2357 H2350 0.950 . S
C2357 C2354 1.387 . S
C2358 C2359 1.387 . S
C2358 H2362 0.950 . S
C2358 C2367 1.390 . S
C2359 C2358 1.387 . S
C2359 C2361 1.387 . S
H2360 C2367 0.950 . S
C2361 C2359 1.387 . S
C2361 C2363 1.390 . S
C2361 H2365 0.950 . S
H2362 C2358 0.950 . S
C2363 C2361 1.390 . S
C2363 C2364 1.387 . S
C2363 H2366 0.950 . S
C2364 C2363 1.387 . S
C2364 C2367 1.387 . S
H2365 C2361 0.950 . S
H2366 C2363 0.950 . S
C2367 C2358 1.390 . S
C2367 H2360 0.950 . S
C2367 C2364 1.387 . S
C2368 C2369 1.387 . S
C2368 H2372 0.950 . S
C2368 C2377 1.390 . S
C2369 C2368 1.387 . S
C2369 C2371 1.387 . S
H2370 C2377 0.950 . S
C2371 C2369 1.387 . S
C2371 C2373 1.390 . S
C2371 H2375 0.950 . S
H2372 C2368 0.950 . S
C2373 C2371 1.390 . S
C2373 C2374 1.387 . S
C2373 H2376 0.950 . S
C2374 C2373 1.387 . S
C2374 C2377 1.387 . S
H2375 C2371 0.950 . S
H2376 C2373 0.950 . S
C2377 C2368 1.390 . S
C2377 H2370 0.950 . S
C2377 C2374 1.387 . S
C2378 C2379 1.387 . S
C2378 H2382 0.950 . S
C2378 C2387 1.390 . S
C2379 C2378 1.387 . S
C2379 C2381 1.387 . S
H2380 C2387 0.950 . S
C2381 C2379 1.387 . S
C2381 C2383 1.390 . S
C2381 H2385 0.950 . S
H2382 C2378 0.950 . S
C2383 C2381 1.390 . S
C2383 C2384 1.387 . S
C2383 H2386 0.950 . S
C2384 C2383 1.387 . S
C2384 C2387 1.387 . S
H2385 C2381 0.950 . S
H2386 C2383 0.950 . S
C2387 C2378 1.390 . S
C2387 H2380 0.950 . S
C2387 C2384 1.387 . S
C2388 C2389 1.387 . S
C2388 H2392 0.950 . S
C2388 C2397 1.390 . S
C2389 C2388 1.387 . S
C2389 C2391 1.387 . S
H2390 C2397 0.950 . S
C2391 C2389 1.387 . S
C2391 C2393 1.390 . S
C2391 H2395 0.950 . S
H2392 C2388 0.950 . S
C2393 C2391 1.390 . S
C2393 C2394 1.387 . S
C2393 H2396 0.950 . S
C2394 C2393 1.387 . S
C2394 C2397 1.387 . S
H2395 C2391 0.950 . S
H2396 C2393 0.950 . S
C2397 C2388 1.390 . S
C2397 H2390 0.950 . S
C2397 C2394 1.387 . S
C2398 C2399 1.387 . S
C2398 H2402 0.950 . S
C2398 C2407 1.390 . S
C2399 C2398 1.387 . S
C2399 C2401 1.387 . S
H2400 C2407 0.950 . S
C2401 C2399 1.387 . S
C2401 C2403 1.390 . S
C2401 H2405 0.950 . S
H2402 C2398 0.950 . S
C2403 C2401 1.390 . S
C2403 C2404 1.387 . S
C2403 H2406 0.950 . S
C2404 C2403 1.387 . S
C2404 C2407 1.387 . S
H2405 C2401 0.950 . S
H2406 C2403 0.950 . S
C2407 C2398 1.390 . S
C2407 H2400 0.950 . S
C2407 C2404 1.387 . S
C2408 C2409 1.387 . S
C2408 H2412 0.950 . S
C2408 C2417 1.390 . S
C2409 C2408 1.387 . S
C2409 C2411 1.387 . S
H2410 C2417 0.950 . S
C2411 C2409 1.387 . S
C2411 C2413 1.390 . S
C2411 H2415 0.950 . S
H2412 C2408 0.950 . S
C2413 C2411 1.390 . S
C2413 C2414 1.387 . S
C2413 H2416 0.950 . S
C2414 C2413 1.387 . S
C2414 C2417 1.387 . S
H2415 C2411 0.950 . S
H2416 C2413 0.950 . S
C2417 C2408 1.390 . S
C2417 H2410 0.950 . S
C2417 C2414 1.387 . S
C2418 C2419 1.387 . S
C2418 H2422 0.950 . S
C2418 C2427 1.390 . S
C2419 C2418 1.387 . S
C2419 C2421 1.387 . S
H2420 C2427 0.950 . S
C2421 C2419 1.387 . S
C2421 C2423 1.390 . S
C2421 H2425 0.950 . S
H2422 C2418 0.950 . S
C2423 C2421 1.390 . S
C2423 C2424 1.387 . S
C2423 H2426 0.950 . S
C2424 C2423 1.387 . S
C2424 C2427 1.387 . S
H2425 C2421 0.950 . S
H2426 C2423 0.950 . S
C2427 C2418 1.390 . S
C2427 H2420 0.950 . S
C2427 C2424 1.387 . S
C2428 C2429 1.387 . S
C2428 H2432 0.950 . S
C2428 C2437 1.390 . S
C2429 C2428 1.387 . S
C2429 C2431 1.387 . S
H2430 C2437 0.950 . S
C2431 C2429 1.387 . S
C2431 C2433 1.390 . S
C2431 H2435 0.950 . S
H2432 C2428 0.950 . S
C2433 C2431 1.390 . S
C2433 C2434 1.387 . S
C2433 H2436 0.950 . S
C2434 C2433 1.387 . S
C2434 C2437 1.387 . S
H2435 C2431 0.950 . S
H2436 C2433 0.950 . S
C2437 C2428 1.390 . S
C2437 H2430 0.950 . S
C2437 C2434 1.387 . S
C2438 C2439 1.387 . S
C2438 H2442 0.950 . S
C2438 C2447 1.390 . S
C2439 C2438 1.387 . S
C2439 C2441 1.387 . S
H2440 C2447 0.950 . S
C2441 C2439 1.387 . S
C2441 C2443 1.390 . S
C2441 H2445 0.950 . S
H2442 C2438 0.950 . S
C2443 C2441 1.390 . S
C2443 C2444 1.387 . S
C2443 H2446 0.950 . S
C2444 C2443 1.387 . S
C2444 C2447 1.387 . S
H2445 C2441 0.950 . S
H2446 C2443 0.950 . S
C2447 C2438 1.390 . S
C2447 H2440 0.950 . S
C2447 C2444 1.387 . S
C2448 C2449 1.387 . S
C2448 H2452 0.950 . S
C2448 C2457 1.390 . S
C2449 C2448 1.387 . S
C2449 C2451 1.387 . S
H2450 C2457 0.950 . S
C2451 C2449 1.387 . S
C2451 C2453 1.390 . S
C2451 H2455 0.950 . S
H2452 C2448 0.950 . S
C2453 C2451 1.390 . S
C2453 C2454 1.387 . S
C2453 H2456 0.950 . S
C2454 C2453 1.387 . S
C2454 C2457 1.387 . S
H2455 C2451 0.950 . S
H2456 C2453 0.950 . S
C2457 C2448 1.390 . S
C2457 H2450 0.950 . S
C2457 C2454 1.387 . S
C2458 C2459 1.387 . S
C2458 H2462 0.950 . S
C2458 C2467 1.390 . S
C2459 C2458 1.387 . S
C2459 C2461 1.387 . S
H2460 C2467 0.950 . S
C2461 C2459 1.387 . S
C2461 C2463 1.390 . S
C2461 H2465 0.950 . S
H2462 C2458 0.950 . S
C2463 C2461 1.390 . S
C2463 C2464 1.387 . S
C2463 H2466 0.950 . S
C2464 C2463 1.387 . S
C2464 C2467 1.387 . S
H2465 C2461 0.950 . S
H2466 C2463 0.950 . S
C2467 C2458 1.390 . S
C2467 H2460 0.950 . S
C2467 C2464 1.387 . S
C2468 C2469 1.387 . S
C2468 H2472 0.950 . S
C2468 C2477 1.390 . S
C2469 C2468 1.387 . S
C2469 C2471 1.387 . S
H2470 C2477 0.950 . S
C2471 C2469 1.387 . S
C2471 C2473 1.390 . S
C2471 H2475 0.950 . S
H2472 C2468 0.950 . S
C2473 C2471 1.390 . S
C2473 C2474 1.387 . S
C2473 H2476 0.950 . S
C2474 C2473 1.387 . S
C2474 C2477 1.387 . S
H2475 C2471 0.950 . S
H2476 C2473 0.950 . S
C2477 C2468 1.390 . S
C2477 H2470 0.950 . S
C2477 C2474 1.387 . S
C2478 C2479 1.387 . S
C2478 H2482 0.950 . S
C2478 C2487 1.390 . S
C2479 C2478 1.387 . S
C2479 C2481 1.387 . S
H2480 C2487 0.950 . S
C2481 C2479 1.387 . S
C2481 C2483 1.390 . S
C2481 H2485 0.950 . S
H2482 C2478 0.950 . S
C2483 C2481 1.390 . S
C2483 C2484 1.387 . S
C2483 H2486 0.950 . S
C2484 C2483 1.387 . S
C2484 C2487 1.387 . S
H2485 C2481 0.950 . S
H2486 C2483 0.950 . S
C2487 C2478 1.390 . S
C2487 H2480 0.950 . S
C2487 C2484 1.387 . S
C2488 C2489 1.387 . S
C2488 H2492 0.950 . S
C2488 C2497 1.390 . S
C2489 C2488 1.387 . S
C2489 C2491 1.387 . S
H2490 C2497 0.950 . S
C2491 C2489 1.387 . S
C2491 C2493 1.390 . S
C2491 H2495 0.950 . S
H2492 C2488 0.950 . S
C2493 C2491 1.390 . S
C2493 C2494 1.387 . S
C2493 H2496 0.950 . S
C2494 C2493 1.387 . S
C2494 C2497 1.387 . S
H2495 C2491 0.950 . S
H2496 C2493 0.950 . S
C2497 C2488 1.390 . S
C2497 H2490 0.950 . S
C2497 C2494 1.387 . S
C2498 C2499 1.387 . S
C2498 H2502 0.950 . S
C2498 C2507 1.390 . S
C2499 C2498 1.387 . S
C2499 C2501 1.387 . S
H2500 C2507 0.950 . S
C2501 C2499 1.387 . S
C2501 C2503 1.390 . S
C2501 H2505 0.950 . S
H2502 C2498 0.950 . S
C2503 C2501 1.390 . S
C2503 C2504 1.387 . S
C2503 H2506 0.950 . S
C2504 C2503 1.387 . S
C2504 C2507 1.387 . S
H2505 C2501 0.950 . S
H2506 C2503 0.950 . S
C2507 C2498 1.390 . S
C2507 H2500 0.950 . S
C2507 C2504 1.387 . S
C2508 C2509 1.387 . S
C2508 H2512 0.950 . S
C2508 C2517 1.390 . S
C2509 C2508 1.387 . S
C2509 C2511 1.387 . S
H2510 C2517 0.950 . S
C2511 C2509 1.387 . S
C2511 C2513 1.390 . S
C2511 H2515 0.950 . S
H2512 C2508 0.950 . S
C2513 C2511 1.390 . S
C2513 C2514 1.387 . S
C2513 H2516 0.950 . S
C2514 C2513 1.387 . S
C2514 C2517 1.387 . S
H2515 C2511 0.950 . S
H2516 C2513 0.950 . S
C2517 C2508 1.390 . S
C2517 H2510 0.950 . S
C2517 C2514 1.387 . S
C2518 C2519 1.387 . S
C2518 H2522 0.950 . S
C2518 C2527 1.390 . S
C2519 C2518 1.387 . S
C2519 C2521 1.387 . S
H2520 C2527 0.950 . S
C2521 C2519 1.387 . S
C2521 C2523 1.390 . S
C2521 H2525 0.950 . S
H2522 C2518 0.950 . S
C2523 C2521 1.390 . S
C2523 C2524 1.387 . S
C2523 H2526 0.950 . S
C2524 C2523 1.387 . S
C2524 C2527 1.387 . S
H2525 C2521 0.950 . S
H2526 C2523 0.950 . S
C2527 C2518 1.390 . S
C2527 H2520 0.950 . S
C2527 C2524 1.387 . S
C2528 C2529 1.387 . S
C2528 H2532 0.950 . S
C2528 C2537 1.390 . S
C2529 C2528 1.387 . S
C2529 C2531 1.387 . S
H2530 C2537 0.950 . S
C2531 C2529 1.387 . S
C2531 C2533 1.390 . S
C2531 H2535 0.950 . S
H2532 C2528 0.950 . S
C2533 C2531 1.390 . S
C2533 C2534 1.387 . S
C2533 H2536 0.950 . S
C2534 C2533 1.387 . S
C2534 C2537 1.387 . S
H2535 C2531 0.950 . S
H2536 C2533 0.950 . S
C2537 C2528 1.390 . S
C2537 H2530 0.950 . S
C2537 C2534 1.387 . S
C2538 C2539 1.387 . S
C2538 H2542 0.950 . S
C2538 C2547 1.390 . S
C2539 C2538 1.387 . S
C2539 C2541 1.387 . S
H2540 C2547 0.950 . S
C2541 C2539 1.387 . S
C2541 C2543 1.390 . S
C2541 H2545 0.950 . S
H2542 C2538 0.950 . S
C2543 C2541 1.390 . S
C2543 C2544 1.387 . S
C2543 H2546 0.950 . S
C2544 C2543 1.387 . S
C2544 C2547 1.387 . S
H2545 C2541 0.950 . S
H2546 C2543 0.950 . S
C2547 C2538 1.390 . S
C2547 H2540 0.950 . S
C2547 C2544 1.387 . S
C2548 C2549 1.387 . S
C2548 H2552 0.950 . S
C2548 C2557 1.390 . S
C2549 C2548 1.387 . S
C2549 C2551 1.387 . S
H2550 C2557 0.950 . S
C2551 C2549 1.387 . S
C2551 C2553 1.390 . S
C2551 H2555 0.950 . S
H2552 C2548 0.950 . S
C2553 C2551 1.390 . S
C2553 C2554 1.387 . S
C2553 H2556 0.950 . S
C2554 C2553 1.387 . S
C2554 C2557 1.387 . S
H2555 C2551 0.950 . S
H2556 C2553 0.950 . S
C2557 C2548 1.390 . S
C2557 H2550 0.950 . S
C2557 C2554 1.387 . S
C2558 C2559 1.387 . S
C2558 H2562 0.950 . S
C2558 C2567 1.390 . S
C2559 C2558 1.387 . S
C2559 C2561 1.387 . S
H2560 C2567 0.950 . S
C2561 C2559 1.387 . S
C2561 C2563 1.390 . S
C2561 H2565 0.950 . S
H2562 C2558 0.950 . S
C2563 C2561 1.390 . S
C2563 C2564 1.387 . S
C2563 H2566 0.950 . S
C2564 C2563 1.387 . S
C2564 C2567 1.387 . S
H2565 C2561 0.950 . S
H2566 C2563 0.950 . S
C2567 C2558 1.390 . S
C2567 H2560 0.950 . S
C2567 C2564 1.387 . S
C2568 C2569 1.387 . S
C2568 H2572 0.950 . S
C2568 C2577 1.390 . S
C2569 C2568 1.387 . S
C2569 C2571 1.387 . S
H2570 C2577 0.950 . S
C2571 C2569 1.387 . S
C2571 C2573 1.390 . S
C2571 H2575 0.950 . S
H2572 C2568 0.950 . S
C2573 C2571 1.390 . S
C2573 C2574 1.387 . S
C2573 H2576 0.950 . S
C2574 C2573 1.387 . S
C2574 C2577 1.387 . S
H2575 C2571 0.950 . S
H2576 C2573 0.950 . S
C2577 C2568 1.390 . S
C2577 H2570 0.950 . S
C2577 C2574 1.387 . S
C2578 C2579 1.387 . S
C2578 H2582 0.950 . S
C2578 C2587 1.390 . S
C2579 C2578 1.387 . S
C2579 C2581 1.387 . S
H2580 C2587 0.950 . S
C2581 C2579 1.387 . S
C2581 C2583 1.390 . S
C2581 H2585 0.950 . S
H2582 C2578 0.950 . S
C2583 C2581 1.390 . S
C2583 C2584 1.387 . S
C2583 H2586 0.950 . S
C2584 C2583 1.387 . S
C2584 C2587 1.387 . S
H2585 C2581 0.950 . S
H2586 C2583 0.950 . S
C2587 C2578 1.390 . S
C2587 H2580 0.950 . S
C2587 C2584 1.387 . S
C2588 C2589 1.387 . S
C2588 H2592 0.950 . S
C2588 C2597 1.390 . S
C2589 C2588 1.387 . S
C2589 C2591 1.387 . S
H2590 C2597 0.950 . S
C2591 C2589 1.387 . S
C2591 C2593 1.390 . S
C2591 H2595 0.950 . S
H2592 C2588 0.950 . S
C2593 C2591 1.390 . S
C2593 C2594 1.387 . S
C2593 H2596 0.950 . S
C2594 C2593 1.387 . S
C2594 C2597 1.387 . S
H2595 C2591 0.950 . S
H2596 C2593 0.950 . S
C2597 C2588 1.390 . S
C2597 H2590 0.950 . S
C2597 C2594 1.387 . S
C2598 C2599 1.387 . S
C2598 H2602 0.950 . S
C2598 C2607 1.390 . S
C2599 C2598 1.387 . S
C2599 C2601 1.387 . S
H2600 C2607 0.950 . S
C2601 C2599 1.387 . S
C2601 C2603 1.390 . S
C2601 H2605 0.950 . S
H2602 C2598 0.950 . S
C2603 C2601 1.390 . S
C2603 C2604 1.387 . S
C2603 H2606 0.950 . S
C2604 C2603 1.387 . S
C2604 C2607 1.387 . S
H2605 C2601 0.950 . S
H2606 C2603 0.950 . S
C2607 C2598 1.390 . S
C2607 H2600 0.950 . S
C2607 C2604 1.387 . S
C2608 C2609 1.387 . S
C2608 H2612 0.950 . S
C2608 C2617 1.390 . S
C2609 C2608 1.387 . S
C2609 C2611 1.387 . S
H2610 C2617 0.950 . S
C2611 C2609 1.387 . S
C2611 C2613 1.390 . S
C2611 H2615 0.950 . S
H2612 C2608 0.950 . S
C2613 C2611 1.390 . S
C2613 C2614 1.387 . S
C2613 H2616 0.950 . S
C2614 C2613 1.387 . S
C2614 C2617 1.387 . S
H2615 C2611 0.950 . S
H2616 C2613 0.950 . S
C2617 C2608 1.390 . S
C2617 H2610 0.950 . S
C2617 C2614 1.387 . S
C2618 C2619 1.387 . S
C2618 H2622 0.950 . S
C2618 C2627 1.390 . S
C2619 C2618 1.387 . S
C2619 C2621 1.387 . S
H2620 C2627 0.950 . S
C2621 C2619 1.387 . S
C2621 C2623 1.390 . S
C2621 H2625 0.950 . S
H2622 C2618 0.950 . S
C2623 C2621 1.390 . S
C2623 C2624 1.387 . S
C2623 H2626 0.950 . S
C2624 C2623 1.387 . S
C2624 C2627 1.387 . S
H2625 C2621 0.950 . S
H2626 C2623 0.950 . S
C2627 C2618 1.390 . S
C2627 H2620 0.950 . S
C2627 C2624 1.387 . S
C2628 C2629 1.387 . S
C2628 H2632 0.950 . S
C2628 C2637 1.390 . S
C2629 C2628 1.387 . S
C2629 C2631 1.387 . S
H2630 C2637 0.950 . S
C2631 C2629 1.387 . S
C2631 C2633 1.390 . S
C2631 H2635 0.950 . S
H2632 C2628 0.950 . S
C2633 C2631 1.390 . S
C2633 C2634 1.387 . S
C2633 H2636 0.950 . S
C2634 C2633 1.387 . S
C2634 C2637 1.387 . S
H2635 C2631 0.950 . S
H2636 C2633 0.950 . S
C2637 C2628 1.390 . S
C2637 H2630 0.950 . S
C2637 C2634 1.387 . S
C2638 C2639 1.387 . S
C2638 H2642 0.950 . S
C2638 C2647 1.390 . S
C2639 C2638 1.387 . S
C2639 C2641 1.387 . S
H2640 C2647 0.950 . S
C2641 C2639 1.387 . S
C2641 C2643 1.390 . S
C2641 H2645 0.950 . S
H2642 C2638 0.950 . S
C2643 C2641 1.390 . S
C2643 C2644 1.387 . S
C2643 H2646 0.950 . S
C2644 C2643 1.387 . S
C2644 C2647 1.387 . S
H2645 C2641 0.950 . S
H2646 C2643 0.950 . S
C2647 C2638 1.390 . S
C2647 H2640 0.950 . S
C2647 C2644 1.387 . S
C2648 C2649 1.387 . S
C2648 H2652 0.950 . S
C2648 C2657 1.390 . S
C2649 C2648 1.387 . S
C2649 C2651 1.387 . S
H2650 C2657 0.950 . S
C2651 C2649 1.387 . S
C2651 C2653 1.390 . S
C2651 H2655 0.950 . S
H2652 C2648 0.950 . S
C2653 C2651 1.390 . S
C2653 C2654 1.387 . S
C2653 H2656 0.950 . S
C2654 C2653 1.387 . S
C2654 C2657 1.387 . S
H2655 C2651 0.950 . S
H2656 C2653 0.950 . S
C2657 C2648 1.390 . S
C2657 H2650 0.950 . S
C2657 C2654 1.387 . S
C2658 C2659 1.387 . S
C2658 H2662 0.950 . S
C2658 C2667 1.390 . S
C2659 C2658 1.387 . S
C2659 C2661 1.387 . S
H2660 C2667 0.950 . S
C2661 C2659 1.387 . S
C2661 C2663 1.390 . S
C2661 H2665 0.950 . S
H2662 C2658 0.950 . S
C2663 C2661 1.390 . S
C2663 C2664 1.387 . S
C2663 H2666 0.950 . S
C2664 C2663 1.387 . S
C2664 C2667 1.387 . S
H2665 C2661 0.950 . S
H2666 C2663 0.950 . S
C2667 C2658 1.390 . S
C2667 H2660 0.950 . S
C2667 C2664 1.387 . S
C2668 C2669 1.387 . S
C2668 H2672 0.950 . S
C2668 C2677 1.390 . S
C2669 C2668 1.387 . S
C2669 C2671 1.387 . S
H2670 C2677 0.950 . S
C2671 C2669 1.387 . S
C2671 C2673 1.390 . S
C2671 H2675 0.950 . S
H2672 C2668 0.950 . S
C2673 C2671 1.390 . S
C2673 C2674 1.387 . S
C2673 H2676 0.950 . S
C2674 C2673 1.387 . S
C2674 C2677 1.387 . S
H2675 C2671 0.950 . S
H2676 C2673 0.950 . S
C2677 C2668 1.390 . S
C2677 H2670 0.950 . S
C2677 C2674 1.387 . S
C2678 C2679 1.387 . S
C2678 H2682 0.950 . S
C2678 C2687 1.390 . S
C2679 C2678 1.387 . S
C2679 C2681 1.387 . S
H2680 C2687 0.950 . S
C2681 C2679 1.387 . S
C2681 C2683 1.390 . S
C2681 H2685 0.950 . S
H2682 C2678 0.950 . S
C2683 C2681 1.390 . S
C2683 C2684 1.387 . S
C2683 H2686 0.950 . S
C2684 C2683 1.387 . S
C2684 C2687 1.387 . S
H2685 C2681 0.950 . S
H2686 C2683 0.950 . S
C2687 C2678 1.390 . S
C2687 H2680 0.950 . S
C2687 C2684 1.387 . S
C2688 C2689 1.387 . S
C2688 H2692 0.950 . S
C2688 C2697 1.390 1_655 S
C2689 C2688 1.387 . S
C2689 C2691 1.387 . S
H2690 C2697 0.950 . S
C2691 C2689 1.387 . S
C2691 C2693 1.390 1_655 S
C2691 H2695 0.950 . S
H2692 C2688 0.950 . S
C2693 C2691 1.390 1_455 S
C2693 C2694 1.387 . S
C2693 H2696 0.950 . S
C2694 C2693 1.387 . S
C2694 C2697 1.387 . S
H2695 C2691 0.950 . S
H2696 C2693 0.950 . S
C2697 C2688 1.390 1_455 S
C2697 H2690 0.950 . S
C2697 C2694 1.387 . S
C2698 C2699 1.387 . S
C2698 H2702 0.950 . S
C2698 C2707 1.390 1_545 S
C2699 C2698 1.387 . S
C2699 C2701 1.387 . S
H2700 C2707 0.950 . S
C2701 C2699 1.387 . S
C2701 C2703 1.390 1_545 S
C2701 H2705 0.950 . S
H2702 C2698 0.950 . S
C2703 C2701 1.390 1_565 S
C2703 C2704 1.387 . S
C2703 H2706 0.950 . S
C2704 C2703 1.387 . S
C2704 C2707 1.387 . S
H2705 C2701 0.950 . S
H2706 C2703 0.950 . S
C2707 C2698 1.390 1_565 S
C2707 H2700 0.950 . S
C2707 C2704 1.387 . S
C2708 C2709 1.387 . S
C2708 H2712 0.950 . S
C2708 C2717 1.390 1_455 S
C2709 C2708 1.387 . S
C2709 C2711 1.387 . S
H2710 C2717 0.950 . S
C2711 C2709 1.387 . S
C2711 C2713 1.390 1_455 S
C2711 H2715 0.950 . S
H2712 C2708 0.950 . S
C2713 C2711 1.390 1_655 S
C2713 C2714 1.387 . S
C2713 H2716 0.950 . S
C2714 C2713 1.387 . S
C2714 C2717 1.387 . S
H2715 C2711 0.950 . S
H2716 C2713 0.950 . S
C2717 C2708 1.390 1_655 S
C2717 H2710 0.950 . S
C2717 C2714 1.387 . S
C2718 C2719 1.387 . S
C2718 H2722 0.950 . S
C2718 C2727 1.390 1_565 S
C2719 C2718 1.387 . S
C2719 C2721 1.387 . S
H2720 C2727 0.950 . S
C2721 C2719 1.387 . S
C2721 C2723 1.390 1_565 S
C2721 H2725 0.950 . S
H2722 C2718 0.950 . S
C2723 C2721 1.390 1_545 S
C2723 C2724 1.387 . S
C2723 H2726 0.950 . S
C2724 C2723 1.387 . S
C2724 C2727 1.387 . S
H2725 C2721 0.950 . S
H2726 C2723 0.950 . S
C2727 C2718 1.390 1_545 S
C2727 H2720 0.950 . S
C2727 C2724 1.387 . S
C2728 C2729 1.387 . S
C2728 H2732 0.950 . S
C2728 C2737 1.390 1_655 S
C2729 C2728 1.387 . S
C2729 C2731 1.387 . S
H2730 C2737 0.950 . S
C2731 C2729 1.387 . S
C2731 C2733 1.390 1_655 S
C2731 H2735 0.950 . S
H2732 C2728 0.950 . S
C2733 C2731 1.390 1_455 S
C2733 C2734 1.387 . S
C2733 H2736 0.950 . S
C2734 C2733 1.387 . S
C2734 C2737 1.387 . S
H2735 C2731 0.950 . S
H2736 C2733 0.950 . S
C2737 C2728 1.390 1_455 S
C2737 H2730 0.950 . S
C2737 C2734 1.387 . S
C2738 C2739 1.387 . S
C2738 H2742 0.950 . S
C2738 C2747 1.390 1_565 S
C2739 C2738 1.387 . S
C2739 C2741 1.387 . S
H2740 C2747 0.950 . S
C2741 C2739 1.387 . S
C2741 C2743 1.390 1_565 S
C2741 H2745 0.950 . S
H2742 C2738 0.950 . S
C2743 C2741 1.390 1_545 S
C2743 C2744 1.387 . S
C2743 H2746 0.950 . S
C2744 C2743 1.387 . S
C2744 C2747 1.387 . S
H2745 C2741 0.950 . S
H2746 C2743 0.950 . S
C2747 C2738 1.390 1_545 S
C2747 H2740 0.950 . S
C2747 C2744 1.387 . S
C2748 C2749 1.387 . S
C2748 H2752 0.950 . S
C2748 C2757 1.390 1_655 S
C2749 C2748 1.387 . S
C2749 C2751 1.387 . S
H2750 C2757 0.950 . S
C2751 C2749 1.387 . S
C2751 C2753 1.390 1_655 S
C2751 H2755 0.950 . S
H2752 C2748 0.950 . S
C2753 C2751 1.390 1_455 S
C2753 C2754 1.387 . S
C2753 H2756 0.950 . S
C2754 C2753 1.387 . S
C2754 C2757 1.387 . S
H2755 C2751 0.950 . S
H2756 C2753 0.950 . S
C2757 C2748 1.390 1_455 S
C2757 H2750 0.950 . S
C2757 C2754 1.387 . S
C2758 C2759 1.387 . S
C2758 H2762 0.950 . S
C2758 C2767 1.390 1_565 S
C2759 C2758 1.387 . S
C2759 C2761 1.387 . S
H2760 C2767 0.950 . S
C2761 C2759 1.387 . S
C2761 C2763 1.390 1_565 S
C2761 H2765 0.950 . S
H2762 C2758 0.950 . S
C2763 C2761 1.390 1_545 S
C2763 C2764 1.387 . S
C2763 H2766 0.950 . S
C2764 C2763 1.387 . S
C2764 C2767 1.387 . S
H2765 C2761 0.950 . S
H2766 C2763 0.950 . S
C2767 C2758 1.390 1_545 S
C2767 H2760 0.950 . S
C2767 C2764 1.387 . S
C2768 C2769 1.387 . S
C2768 H2772 0.950 . S
C2768 C2777 1.390 1_565 S
C2769 C2768 1.387 . S
C2769 C2771 1.387 . S
H2770 C2777 0.950 . S
C2771 C2769 1.387 . S
C2771 C2773 1.390 1_565 S
C2771 H2775 0.950 . S
H2772 C2768 0.950 . S
C2773 C2771 1.390 1_545 S
C2773 C2774 1.387 . S
C2773 H2776 0.950 . S
C2774 C2773 1.387 . S
C2774 C2777 1.387 . S
H2775 C2771 0.950 . S
H2776 C2773 0.950 . S
C2777 C2768 1.390 1_545 S
C2777 H2770 0.950 . S
C2777 C2774 1.387 . S
C2778 C2779 1.387 . S
C2778 H2782 0.950 . S
C2778 C2787 1.390 1_655 S
C2779 C2778 1.387 . S
C2779 C2781 1.387 . S
H2780 C2787 0.950 . S
C2781 C2779 1.387 . S
C2781 C2783 1.390 1_655 S
C2781 H2785 0.950 . S
H2782 C2778 0.950 . S
C2783 C2781 1.390 1_455 S
C2783 C2784 1.387 . S
C2783 H2786 0.950 . S
C2784 C2783 1.387 . S
C2784 C2787 1.387 . S
H2785 C2781 0.950 . S
H2786 C2783 0.950 . S
C2787 C2778 1.390 1_455 S
C2787 H2780 0.950 . S
C2787 C2784 1.387 . S
C2788 C2789 1.387 . S
C2788 H2792 0.950 . S
C2788 C2797 1.390 1_565 S
C2789 C2788 1.387 . S
C2789 C2791 1.387 . S
H2790 C2797 0.950 . S
C2791 C2789 1.387 . S
C2791 C2793 1.390 1_565 S
C2791 H2795 0.950 . S
H2792 C2788 0.950 . S
C2793 C2791 1.390 1_545 S
C2793 C2794 1.387 . S
C2793 H2796 0.950 . S
C2794 C2793 1.387 . S
C2794 C2797 1.387 . S
H2795 C2791 0.950 . S
H2796 C2793 0.950 . S
C2797 C2788 1.390 1_545 S
C2797 H2790 0.950 . S
C2797 C2794 1.387 . S
C2798 C2799 1.387 . S
C2798 H2802 0.950 . S
C2798 C2807 1.390 1_655 S
C2799 C2798 1.387 . S
C2799 C2801 1.387 . S
H2800 C2807 0.950 . S
C2801 C2799 1.387 . S
C2801 C2803 1.390 1_655 S
C2801 H2805 0.950 . S
H2802 C2798 0.950 . S
C2803 C2801 1.390 1_455 S
C2803 C2804 1.387 . S
C2803 H2806 0.950 . S
C2804 C2803 1.387 . S
C2804 C2807 1.387 . S
H2805 C2801 0.950 . S
H2806 C2803 0.950 . S
C2807 C2798 1.390 1_455 S
C2807 H2800 0.950 . S
C2807 C2804 1.387 . S
C2808 C2809 1.387 . S
C2808 H2812 0.950 . S
C2808 C2817 1.390 1_565 S
C2809 C2808 1.387 . S
C2809 C2811 1.387 . S
H2810 C2817 0.950 . S
C2811 C2809 1.387 . S
C2811 C2813 1.390 1_565 S
C2811 H2815 0.950 . S
H2812 C2808 0.950 . S
C2813 C2811 1.390 1_545 S
C2813 C2814 1.387 . S
C2813 H2816 0.950 . S
C2814 C2813 1.387 . S
C2814 C2817 1.387 . S
H2815 C2811 0.950 . S
H2816 C2813 0.950 . S
C2817 C2808 1.390 1_545 S
C2817 H2810 0.950 . S
C2817 C2814 1.387 . S
C2818 C2819 1.387 . S
C2818 H2822 0.950 . S
C2818 C2827 1.390 1_655 S
C2819 C2818 1.387 . S
C2819 C2821 1.387 . S
H2820 C2827 0.950 . S
C2821 C2819 1.387 . S
C2821 C2823 1.390 1_655 S
C2821 H2825 0.950 . S
H2822 C2818 0.950 . S
C2823 C2821 1.390 1_455 S
C2823 C2824 1.387 . S
C2823 H2826 0.950 . S
C2824 C2823 1.387 . S
C2824 C2827 1.387 . S
H2825 C2821 0.950 . S
H2826 C2823 0.950 . S
C2827 C2818 1.390 1_455 S
C2827 H2820 0.950 . S
C2827 C2824 1.387 . S
C2828 C2829 1.387 . S
C2828 H2832 0.950 . S
C2828 C2837 1.390 1_565 S
C2829 C2828 1.387 . S
C2829 C2831 1.387 . S
H2830 C2837 0.950 . S
C2831 C2829 1.387 . S
C2831 C2833 1.390 1_565 S
C2831 H2835 0.950 . S
H2832 C2828 0.950 . S
C2833 C2831 1.390 1_545 S
C2833 C2834 1.387 . S
C2833 H2836 0.950 . S
C2834 C2833 1.387 . S
C2834 C2837 1.387 . S
H2835 C2831 0.950 . S
H2836 C2833 0.950 . S
C2837 C2828 1.390 1_545 S
C2837 H2830 0.950 . S
C2837 C2834 1.387 . S
C2838 C2839 1.387 . S
C2838 H2842 0.950 . S
C2838 C2847 1.390 1_455 S
C2839 C2838 1.387 . S
C2839 C2841 1.387 . S
H2840 C2847 0.950 . S
C2841 C2839 1.387 . S
C2841 C2843 1.390 1_455 S
C2841 H2845 0.950 . S
H2842 C2838 0.950 . S
C2843 C2841 1.390 1_655 S
C2843 C2844 1.387 . S
C2843 H2846 0.950 . S
C2844 C2843 1.387 . S
C2844 C2847 1.387 . S
H2845 C2841 0.950 . S
H2846 C2843 0.950 . S
C2847 C2838 1.390 1_655 S
C2847 H2840 0.950 . S
C2847 C2844 1.387 . S
C2848 C2849 1.387 . S
C2848 H2852 0.950 . S
C2848 C2857 1.390 1_554 S
C2849 C2848 1.387 . S
C2849 C2851 1.387 . S
H2850 C2857 0.950 . S
C2851 C2849 1.387 . S
C2851 C2853 1.390 1_554 S
C2851 H2855 0.950 . S
H2852 C2848 0.950 . S
C2853 C2851 1.390 1_556 S
C2853 C2854 1.387 . S
C2853 H2856 0.950 . S
C2854 C2853 1.387 . S
C2854 C2857 1.387 . S
H2855 C2851 0.950 . S
H2856 C2853 0.950 . S
C2857 C2848 1.390 1_556 S
C2857 H2850 0.950 . S
C2857 C2854 1.387 . S
C2858 C2859 1.387 . S
C2858 H2862 0.950 . S
C2858 C2867 1.390 1_554 S
C2859 C2858 1.387 . S
C2859 C2861 1.387 . S
H2860 C2867 0.950 . S
C2861 C2859 1.387 . S
C2861 C2863 1.390 1_554 S
C2861 H2865 0.950 . S
H2862 C2858 0.950 . S
C2863 C2861 1.390 1_556 S
C2863 C2864 1.387 . S
C2863 H2866 0.950 . S
C2864 C2863 1.387 . S
C2864 C2867 1.387 . S
H2865 C2861 0.950 . S
H2866 C2863 0.950 . S
C2867 C2858 1.390 1_556 S
C2867 H2860 0.950 . S
C2867 C2864 1.387 . S
C2868 C2869 1.387 . S
C2868 H2872 0.950 . S
C2868 C2877 1.390 1_554 S
C2869 C2868 1.387 . S
C2869 C2871 1.387 . S
H2870 C2877 0.950 . S
C2871 C2869 1.387 . S
C2871 C2873 1.390 1_554 S
C2871 H2875 0.950 . S
H2872 C2868 0.950 . S
C2873 C2871 1.390 1_556 S
C2873 C2874 1.387 . S
C2873 H2876 0.950 . S
C2874 C2873 1.387 . S
C2874 C2877 1.387 . S
H2875 C2871 0.950 . S
H2876 C2873 0.950 . S
C2877 C2868 1.390 1_556 S
C2877 H2870 0.950 . S
C2877 C2874 1.387 . S
C2878 C2879 1.387 . S
C2878 H2882 0.950 . S
C2878 C2887 1.390 1_554 S
C2879 C2878 1.387 . S
C2879 C2881 1.387 . S
H2880 C2887 0.950 . S
C2881 C2879 1.387 . S
C2881 C2883 1.390 1_554 S
C2881 H2885 0.950 . S
H2882 C2878 0.950 . S
C2883 C2881 1.390 1_556 S
C2883 C2884 1.387 . S
C2883 H2886 0.950 . S
C2884 C2883 1.387 . S
C2884 C2887 1.387 . S
H2885 C2881 0.950 . S
H2886 C2883 0.950 . S
C2887 C2878 1.390 1_556 S
C2887 H2880 0.950 . S
C2887 C2884 1.387 . S
C2888 C2889 1.387 . S
C2888 H2892 0.950 . S
C2888 C2897 1.390 1_556 S
C2889 C2888 1.387 . S
C2889 C2891 1.387 . S
H2890 C2897 0.950 . S
C2891 C2889 1.387 . S
C2891 C2893 1.390 1_556 S
C2891 H2895 0.950 . S
H2892 C2888 0.950 . S
C2893 C2891 1.390 1_554 S
C2893 C2894 1.387 . S
C2893 H2896 0.950 . S
C2894 C2893 1.387 . S
C2894 C2897 1.387 . S
H2895 C2891 0.950 . S
H2896 C2893 0.950 . S
C2897 C2888 1.390 1_554 S
C2897 H2890 0.950 . S
C2897 C2894 1.387 . S
C2898 C2899 1.387 . S
C2898 H2902 0.950 . S
C2898 C2907 1.390 1_554 S
C2899 C2898 1.387 . S
C2899 C2901 1.387 . S
H2900 C2907 0.950 . S
C2901 C2899 1.387 . S
C2901 C2903 1.390 1_554 S
C2901 H2905 0.950 . S
H2902 C2898 0.950 . S
C2903 C2901 1.390 1_556 S
C2903 C2904 1.387 . S
C2903 H2906 0.950 . S
C2904 C2903 1.387 . S
C2904 C2907 1.387 . S
H2905 C2901 0.950 . S
H2906 C2903 0.950 . S
C2907 C2898 1.390 1_556 S
C2907 H2900 0.950 . S
C2907 C2904 1.387 . S
C2908 C2909 1.387 . S
C2908 H2912 0.950 . S
C2908 C2917 1.390 1_556 S
C2909 C2908 1.387 . S
C2909 C2911 1.387 . S
H2910 C2917 0.950 . S
C2911 C2909 1.387 . S
C2911 C2913 1.390 1_556 S
C2911 H2915 0.950 . S
H2912 C2908 0.950 . S
C2913 C2911 1.390 1_554 S
C2913 C2914 1.387 . S
C2913 H2916 0.950 . S
C2914 C2913 1.387 . S
C2914 C2917 1.387 . S
H2915 C2911 0.950 . S
H2916 C2913 0.950 . S
C2917 C2908 1.390 1_554 S
C2917 H2910 0.950 . S
C2917 C2914 1.387 . S
C2918 C2919 1.387 . S
C2918 H2922 0.950 . S
C2918 C2927 1.390 1_554 S
C2919 C2918 1.387 . S
C2919 C2921 1.387 . S
H2920 C2927 0.950 . S
C2921 C2919 1.387 . S
C2921 C2923 1.390 1_554 S
C2921 H2925 0.950 . S
H2922 C2918 0.950 . S
C2923 C2921 1.390 1_556 S
C2923 C2924 1.387 . S
C2923 H2926 0.950 . S
C2924 C2923 1.387 . S
C2924 C2927 1.387 . S
H2925 C2921 0.950 . S
H2926 C2923 0.950 . S
C2927 C2918 1.390 1_556 S
C2927 H2920 0.950 . S
C2927 C2924 1.387 . S
C2928 C2929 1.387 . S
C2928 H2932 0.950 . S
C2928 C2937 1.390 . S
C2929 C2928 1.387 . S
C2929 C2931 1.387 . S
H2930 C2937 0.950 . S
C2931 C2929 1.387 . S
C2931 C2933 1.390 . S
C2931 H2935 0.950 . S
H2932 C2928 0.950 . S
C2933 C2931 1.390 . S
C2933 C2934 1.387 . S
C2933 H2936 0.950 . S
C2934 C2933 1.387 . S
C2934 C2937 1.387 . S
H2935 C2931 0.950 . S
H2936 C2933 0.950 . S
C2937 C2928 1.390 . S
C2937 H2930 0.950 . S
C2937 C2934 1.387 . S
C2938 C2939 1.387 . S
C2938 H2942 0.950 . S
C2938 C2947 1.390 . S
C2939 C2938 1.387 . S
C2939 C2941 1.387 . S
H2940 C2947 0.950 . S
C2941 C2939 1.387 . S
C2941 C2943 1.390 . S
C2941 H2945 0.950 . S
H2942 C2938 0.950 . S
C2943 C2941 1.390 . S
C2943 C2944 1.387 . S
C2943 H2946 0.950 . S
C2944 C2943 1.387 . S
C2944 C2947 1.387 . S
H2945 C2941 0.950 . S
H2946 C2943 0.950 . S
C2947 C2938 1.390 . S
C2947 H2940 0.950 . S
C2947 C2944 1.387 . S
C2948 C2949 1.387 . S
C2948 H2952 0.950 . S
C2948 C2957 1.390 . S
C2949 C2948 1.387 . S
C2949 C2951 1.387 . S
H2950 C2957 0.950 . S
C2951 C2949 1.387 . S
C2951 C2953 1.390 . S
C2951 H2955 0.950 . S
H2952 C2948 0.950 . S
C2953 C2951 1.390 . S
C2953 C2954 1.387 . S
C2953 H2956 0.950 . S
C2954 C2953 1.387 . S
C2954 C2957 1.387 . S
H2955 C2951 0.950 . S
H2956 C2953 0.950 . S
C2957 C2948 1.390 . S
C2957 H2950 0.950 . S
C2957 C2954 1.387 . S
C2958 C2959 1.387 . S
C2958 H2962 0.950 . S
C2958 C2967 1.390 . S
C2959 C2958 1.387 . S
C2959 C2961 1.387 . S
H2960 C2967 0.950 . S
C2961 C2959 1.387 . S
C2961 C2963 1.390 . S
C2961 H2965 0.950 . S
H2962 C2958 0.950 . S
C2963 C2961 1.390 . S
C2963 C2964 1.387 . S
C2963 H2966 0.950 . S
C2964 C2963 1.387 . S
C2964 C2967 1.387 . S
H2965 C2961 0.950 . S
H2966 C2963 0.950 . S
C2967 C2958 1.390 . S
C2967 H2960 0.950 . S
C2967 C2964 1.387 . S
C2968 C2969 1.387 . S
C2968 H2972 0.950 . S
C2968 C2977 1.390 . S
C2969 C2968 1.387 . S
C2969 C2971 1.387 . S
H2970 C2977 0.950 . S
C2971 C2969 1.387 . S
C2971 C2973 1.390 . S
C2971 H2975 0.950 . S
H2972 C2968 0.950 . S
C2973 C2971 1.390 . S
C2973 C2974 1.387 . S
C2973 H2976 0.950 . S
C2974 C2973 1.387 . S
C2974 C2977 1.387 . S
H2975 C2971 0.950 . S
H2976 C2973 0.950 . S
C2977 C2968 1.390 . S
C2977 H2970 0.950 . S
C2977 C2974 1.387 . S
C2978 C2979 1.387 . S
C2978 H2982 0.950 . S
C2978 C2987 1.390 . S
C2979 C2978 1.387 . S
C2979 C2981 1.387 . S
H2980 C2987 0.950 . S
C2981 C2979 1.387 . S
C2981 C2983 1.390 . S
C2981 H2985 0.950 . S
H2982 C2978 0.950 . S
C2983 C2981 1.390 . S
C2983 C2984 1.387 . S
C2983 H2986 0.950 . S
C2984 C2983 1.387 . S
C2984 C2987 1.387 . S
H2985 C2981 0.950 . S
H2986 C2983 0.950 . S
C2987 C2978 1.390 . S
C2987 H2980 0.950 . S
C2987 C2984 1.387 . S
C2988 C2989 1.387 . S
C2988 H2992 0.950 . S
C2988 C2997 1.390 . S
C2989 C2988 1.387 . S
C2989 C2991 1.387 . S
H2990 C2997 0.950 . S
C2991 C2989 1.387 . S
C2991 C2993 1.390 . S
C2991 H2995 0.950 . S
H2992 C2988 0.950 . S
C2993 C2991 1.390 . S
C2993 C2994 1.387 . S
C2993 H2996 0.950 . S
C2994 C2993 1.387 . S
C2994 C2997 1.387 . S
H2995 C2991 0.950 . S
H2996 C2993 0.950 . S
C2997 C2988 1.390 . S
C2997 H2990 0.950 . S
C2997 C2994 1.387 . S
C2998 C2999 1.387 . S
C2998 H3002 0.950 . S
C2998 C3007 1.390 . S
C2999 C2998 1.387 . S
C2999 C3001 1.387 . S
H3000 C3007 0.950 . S
C3001 C2999 1.387 . S
C3001 C3003 1.390 . S
C3001 H3005 0.950 . S
H3002 C2998 0.950 . S
C3003 C3001 1.390 . S
C3003 C3004 1.387 . S
C3003 H3006 0.950 . S
C3004 C3003 1.387 . S
C3004 C3007 1.387 . S
H3005 C3001 0.950 . S
H3006 C3003 0.950 . S
C3007 C2998 1.390 . S
C3007 H3000 0.950 . S
C3007 C3004 1.387 . S
C3008 C3009 1.387 . S
C3008 H3012 0.950 . S
C3008 C3017 1.390 . S
C3009 C3008 1.387 . S
C3009 C3011 1.387 . S
H3010 C3017 0.950 . S
C3011 C3009 1.387 . S
C3011 C3013 1.390 . S
C3011 H3015 0.950 . S
H3012 C3008 0.950 . S
C3013 C3011 1.390 . S
C3013 C3014 1.387 . S
C3013 H3016 0.950 . S
C3014 C3013 1.387 . S
C3014 C3017 1.387 . S
H3015 C3011 0.950 . S
H3016 C3013 0.950 . S
C3017 C3008 1.390 . S
C3017 H3010 0.950 . S
C3017 C3014 1.387 . S
C3018 C3019 1.387 . S
C3018 H3022 0.950 . S
C3018 C3027 1.390 . S
C3019 C3018 1.387 . S
C3019 C3021 1.387 . S
H3020 C3027 0.950 . S
C3021 C3019 1.387 . S
C3021 C3023 1.390 . S
C3021 H3025 0.950 . S
H3022 C3018 0.950 . S
C3023 C3021 1.390 . S
C3023 C3024 1.387 . S
C3023 H3026 0.950 . S
C3024 C3023 1.387 . S
C3024 C3027 1.387 . S
H3025 C3021 0.950 . S
H3026 C3023 0.950 . S
C3027 C3018 1.390 . S
C3027 H3020 0.950 . S
C3027 C3024 1.387 . S
C3028 C3029 1.387 . S
C3028 H3032 0.950 . S
C3028 C3037 1.390 . S
C3029 C3028 1.387 . S
C3029 C3031 1.387 . S
H3030 C3037 0.950 . S
C3031 C3029 1.387 . S
C3031 C3033 1.390 . S
C3031 H3035 0.950 . S
H3032 C3028 0.950 . S
C3033 C3031 1.390 . S
C3033 C3034 1.387 . S
C3033 H3036 0.950 . S
C3034 C3033 1.387 . S
C3034 C3037 1.387 . S
H3035 C3031 0.950 . S
H3036 C3033 0.950 . S
C3037 C3028 1.390 . S
C3037 H3030 0.950 . S
C3037 C3034 1.387 . S
C3038 C3039 1.387 . S
C3038 H3042 0.950 . S
C3038 C3047 1.390 . S
C3039 C3038 1.387 . S
C3039 C3041 1.387 . S
H3040 C3047 0.950 . S
C3041 C3039 1.387 . S
C3041 C3043 1.390 . S
C3041 H3045 0.950 . S
H3042 C3038 0.950 . S
C3043 C3041 1.390 . S
C3043 C3044 1.387 . S
C3043 H3046 0.950 . S
C3044 C3043 1.387 . S
C3044 C3047 1.387 . S
H3045 C3041 0.950 . S
H3046 C3043 0.950 . S
C3047 C3038 1.390 . S
C3047 H3040 0.950 . S
C3047 C3044 1.387 . S
C3048 C3049 1.387 . S
C3048 H3052 0.950 . S
C3048 C3057 1.390 . S
C3049 C3048 1.387 . S
C3049 C3051 1.387 . S
H3050 C3057 0.950 . S
C3051 C3049 1.387 . S
C3051 C3053 1.390 . S
C3051 H3055 0.950 . S
H3052 C3048 0.950 . S
C3053 C3051 1.390 . S
C3053 C3054 1.387 . S
C3053 H3056 0.950 . S
C3054 C3053 1.387 . S
C3054 C3057 1.387 . S
H3055 C3051 0.950 . S
H3056 C3053 0.950 . S
C3057 C3048 1.390 . S
C3057 H3050 0.950 . S
C3057 C3054 1.387 . S
C3058 C3059 1.387 . S
C3058 H3062 0.950 . S
C3058 C3067 1.390 . S
C3059 C3058 1.387 . S
C3059 C3061 1.387 . S
H3060 C3067 0.950 . S
C3061 C3059 1.387 . S
C3061 C3063 1.390 . S
C3061 H3065 0.950 . S
H3062 C3058 0.950 . S
C3063 C3061 1.390 . S
C3063 C3064 1.387 . S
C3063 H3066 0.950 . S
C3064 C3063 1.387 . S
C3064 C3067 1.387 . S
H3065 C3061 0.950 . S
H3066 C3063 0.950 . S
C3067 C3058 1.390 . S
C3067 H3060 0.950 . S
C3067 C3064 1.387 . S
C3068 C3069 1.387 . S
C3068 H3072 0.950 . S
C3068 C3077 1.390 . S
C3069 C3068 1.387 . S
C3069 C3071 1.387 . S
H3070 C3077 0.950 . S
C3071 C3069 1.387 . S
C3071 C3073 1.390 . S
C3071 H3075 0.950 . S
H3072 C3068 0.950 . S
C3073 C3071 1.390 . S
C3073 C3074 1.387 . S
C3073 H3076 0.950 . S
C3074 C3073 1.387 . S
C3074 C3077 1.387 . S
H3075 C3071 0.950 . S
H3076 C3073 0.950 . S
C3077 C3068 1.390 . S
C3077 H3070 0.950 . S
C3077 C3074 1.387 . S
C3078 C3079 1.387 . S
C3078 H3082 0.950 . S
C3078 C3087 1.390 . S
C3079 C3078 1.387 . S
C3079 C3081 1.387 . S
H3080 C3087 0.950 . S
C3081 C3079 1.387 . S
C3081 C3083 1.390 . S
C3081 H3085 0.950 . S
H3082 C3078 0.950 . S
C3083 C3081 1.390 . S
C3083 C3084 1.387 . S
C3083 H3086 0.950 . S
C3084 C3083 1.387 . S
C3084 C3087 1.387 . S
H3085 C3081 0.950 . S
H3086 C3083 0.950 . S
C3087 C3078 1.390 . S
C3087 H3080 0.950 . S
C3087 C3084 1.387 . S
C3088 C3089 1.387 . S
C3088 H3092 0.950 . S
C3088 C3097 1.390 . S
C3089 C3088 1.387 . S
C3089 C3091 1.387 . S
H3090 C3097 0.950 . S
C3091 C3089 1.387 . S
C3091 C3093 1.390 . S
C3091 H3095 0.950 . S
H3092 C3088 0.950 . S
C3093 C3091 1.390 . S
C3093 C3094 1.387 . S
C3093 H3096 0.950 . S
C3094 C3093 1.387 . S
C3094 C3097 1.387 . S
H3095 C3091 0.950 . S
H3096 C3093 0.950 . S
C3097 C3088 1.390 . S
C3097 H3090 0.950 . S
C3097 C3094 1.387 . S
C3098 C3099 1.387 . S
C3098 H3102 0.950 . S
C3098 C3107 1.390 . S
C3099 C3098 1.387 . S
C3099 C3101 1.387 . S
H3100 C3107 0.950 . S
C3101 C3099 1.387 . S
C3101 C3103 1.390 . S
C3101 H3105 0.950 . S
H3102 C3098 0.950 . S
C3103 C3101 1.390 . S
C3103 C3104 1.387 . S
C3103 H3106 0.950 . S
C3104 C3103 1.387 . S
C3104 C3107 1.387 . S
H3105 C3101 0.950 . S
H3106 C3103 0.950 . S
C3107 C3098 1.390 . S
C3107 H3100 0.950 . S
C3107 C3104 1.387 . S
C3108 C3109 1.387 . S
C3108 H3112 0.950 . S
C3108 C3117 1.390 . S
C3109 C3108 1.387 . S
C3109 C3111 1.387 . S
H3110 C3117 0.950 . S
C3111 C3109 1.387 . S
C3111 C3113 1.390 . S
C3111 H3115 0.950 . S
H3112 C3108 0.950 . S
C3113 C3111 1.390 . S
C3113 C3114 1.387 . S
C3113 H3116 0.950 . S
C3114 C3113 1.387 . S
C3114 C3117 1.387 . S
H3115 C3111 0.950 . S
H3116 C3113 0.950 . S
C3117 C3108 1.390 . S
C3117 H3110 0.950 . S
C3117 C3114 1.387 . S
C3118 C3119 1.387 . S
C3118 H3122 0.950 . S
C3118 C3127 1.390 . S
C3119 C3118 1.387 . S
C3119 C3121 1.387 . S
H3120 C3127 0.950 . S
C3121 C3119 1.387 . S
C3121 C3123 1.390 . S
C3121 H3125 0.950 . S
H3122 C3118 0.950 . S
C3123 C3121 1.390 . S
C3123 C3124 1.387 . S
C3123 H3126 0.950 . S
C3124 C3123 1.387 . S
C3124 C3127 1.387 . S
H3125 C3121 0.950 . S
H3126 C3123 0.950 . S
C3127 C3118 1.390 . S
C3127 H3120 0.950 . S
C3127 C3124 1.387 . S
C3128 C3129 1.387 . S
C3128 H3132 0.950 . S
C3128 C3137 1.390 . S
C3129 C3128 1.387 . S
C3129 C3131 1.387 . S
H3130 C3137 0.950 . S
C3131 C3129 1.387 . S
C3131 C3133 1.390 . S
C3131 H3135 0.950 . S
H3132 C3128 0.950 . S
C3133 C3131 1.390 . S
C3133 C3134 1.387 . S
C3133 H3136 0.950 . S
C3134 C3133 1.387 . S
C3134 C3137 1.387 . S
H3135 C3131 0.950 . S
H3136 C3133 0.950 . S
C3137 C3128 1.390 . S
C3137 H3130 0.950 . S
C3137 C3134 1.387 . S
C3138 C3139 1.387 . S
C3138 H3142 0.950 . S
C3138 C3147 1.390 . S
C3139 C3138 1.387 . S
C3139 C3141 1.387 . S
H3140 C3147 0.950 . S
C3141 C3139 1.387 . S
C3141 C3143 1.390 . S
C3141 H3145 0.950 . S
H3142 C3138 0.950 . S
C3143 C3141 1.390 . S
C3143 C3144 1.387 . S
C3143 H3146 0.950 . S
C3144 C3143 1.387 . S
C3144 C3147 1.387 . S
H3145 C3141 0.950 . S
H3146 C3143 0.950 . S
C3147 C3138 1.390 . S
C3147 H3140 0.950 . S
C3147 C3144 1.387 . S
C3148 C3149 1.387 . S
C3148 H3152 0.950 . S
C3148 C3157 1.390 . S
C3149 C3148 1.387 . S
C3149 C3151 1.387 . S
H3150 C3157 0.950 . S
C3151 C3149 1.387 . S
C3151 C3153 1.390 . S
C3151 H3155 0.950 . S
H3152 C3148 0.950 . S
C3153 C3151 1.390 . S
C3153 C3154 1.387 . S
C3153 H3156 0.950 . S
C3154 C3153 1.387 . S
C3154 C3157 1.387 . S
H3155 C3151 0.950 . S
H3156 C3153 0.950 . S
C3157 C3148 1.390 . S
C3157 H3150 0.950 . S
C3157 C3154 1.387 . S
C3158 C3159 1.387 . S
C3158 H3162 0.950 . S
C3158 C3167 1.390 . S
C3159 C3158 1.387 . S
C3159 C3161 1.387 . S
H3160 C3167 0.950 . S
C3161 C3159 1.387 . S
C3161 C3163 1.390 . S
C3161 H3165 0.950 . S
H3162 C3158 0.950 . S
C3163 C3161 1.390 . S
C3163 C3164 1.387 . S
C3163 H3166 0.950 . S
C3164 C3163 1.387 . S
C3164 C3167 1.387 . S
H3165 C3161 0.950 . S
H3166 C3163 0.950 . S
C3167 C3158 1.390 . S
C3167 H3160 0.950 . S
C3167 C3164 1.387 . S
C1249 C511 1.636 . S
C1254 C10 1.636 . S
C1259 C472 1.633 . S
C1264 C23 1.633 . S
C1269 C485 1.633 . S
C1274 C30 1.633 . S
C1279 C504 1.636 . S
C1284 C43 1.636 . S
C1289 C433 1.633 . S
C1294 C56 1.633 . S
C1299 C446 1.636 . S
C1304 C75 1.636 . S
C1309 C88 1.633 . S
C1314 C459 1.633 . S
C1319 C420 1.633 . S
C1324 C101 1.633 . S
C1329 C114 1.636 . S
C1334 C413 1.636 . S
C1339 C127 1.633 . S
C1344 C368 1.633 . S
C1349 C134 1.636 . S
C1354 C387 1.636 . S
C1359 C153 1.636 . S
C1364 C394 1.636 . S
C1369 C335 1.636 . S
C1374 C166 1.636 . S
C1379 C348 1.636 . S
C1384 C179 1.636 . S
C1389 C355 1.636 . S
C1394 C186 1.636 . S
C1399 C322 1.636 . S
C1404 C205 1.636 . S
C1409 C218 1.633 . S
C1414 C576 1.633 . S
C1419 C225 1.636 . S
C1424 C615 1.636 . S
C1429 C589 1.633 . S
C1434 C238 1.633 . S
C1439 C602 1.633 . S
C1444 C251 1.633 . S
C1449 C530 1.636 . S
C1454 C270 1.636 . S
C1459 C556 1.633 . S
C1464 C283 1.633 . S
C1469 C296 1.633 . S
C1474 C563 1.633 . S
C1479 C537 1.636 . S
C1484 C309 1.636 . S
C1489 C914 1.636 . S
C1494 C634 1.636 . S
C1499 C647 1.636 . S
C1504 C927 1.636 . S
C1509 C660 1.636 . S
C1514 C907 1.636 . S
C1519 C673 1.633 . S
C1524 C894 1.633 . S
C1529 C686 1.636 . S
C1534 C881 1.636 . S
C1539 C699 1.633 . S
C1544 C868 1.633 . S
C1549 C842 1.636 . S
C1554 C712 1.636 . S
C1559 C855 1.636 . S
C1564 C719 1.636 . S
C1569 C732 1.636 . S
C1574 C992 1.636 . S
C1579 C745 1.636 . S
C1584 C1037 1.636 . S
C1589 C1011 1.633 . S
C1594 C758 1.633 . S
C1599 C777 1.636 . S
C1604 C1024 1.636 . S
C1609 C784 1.636 . S
C1614 C940 1.636 . S
C1619 C803 1.636 . S
C1624 C972 1.636 . S
C1629 C985 1.633 . S
C1634 C816 1.633 . S
C1639 C959 1.636 . S
C1644 C823 1.636 . S
C1649 C1044 1.636 . S
C1654 C1245 1.636 . S
C1659 C1226 1.636 . S
C1664 C1057 1.636 . S
C1669 C1206 1.633 . S
C1674 C1070 1.633 . S
C1679 C1213 1.636 . S
C1684 C1089 1.636 . S
C1689 C1174 1.633 . S
C1694 C1096 1.633 . S
C1699 C1109 1.636 . S
C1704 C1187 1.636 . S
C1709 C1161 1.633 . S
C1714 C1128 1.633 . S
C1719 C1148 1.633 . S
C1724 C1135 1.633 . S
C1729 C5 1.327 . S
C1734 C406 1.310 . S
C1739 C18 1.327 . S
C1744 C369 1.310 . S
C1749 C29 1.327 . S
C1754 C380 1.306 . S
C1759 C42 1.327 . S
C1764 C395 1.307 . S
C1769 C55 1.328 . S
C1774 C328 1.310 . S
C1779 C70 1.327 . S
C1784 C341 1.310 . S
C1789 C356 1.307 . S
C1794 C83 1.325 . S
C1799 C96 1.328 . S
C1804 C315 1.307 . S
C1809 C109 1.328 . S
C1814 C577 1.308 . S
C1819 C538 1.310 . S
C1824 C122 1.327 . S
C1829 C133 1.328 . S
C1834 C549 1.310 . S
C1839 C148 1.328 . S
C1844 C564 1.310 . S
C1849 C616 1.310 . S
C1854 C161 1.328 . S
C1859 C590 1.310 . S
C1864 C174 1.327 . S
C1869 C603 1.309 . S
C1874 C185 1.328 . S
C1879 C200 1.326 . S
C1884 C523 1.306 . S
C1889 C213 1.327 . S
C1894 C512 1.310 . S
C1899 C224 1.326 . S
C1904 C434 1.306 . S
C1909 C237 1.326 . S
C1914 C447 1.306 . S
C1919 C250 1.326 . S
C1924 C460 1.310 . S
C1929 C265 1.326 . S
C1934 C421 1.307 . S
C1939 C278 1.326 . S
C1944 C486 1.306 . S
C1949 C497 1.307 . S
C1954 C291 1.325 . S
C1959 C304 1.326 . S
C1964 C473 1.309 . S
C1969 C432 1.325 . S
C1974 C874 1.307 . S
C1979 C198 1.310 . S
C1984 C629 1.327 . S
C1989 C458 1.328 . S
C1994 C861 1.310 . S
C1999 C642 1.328 . S
C2004 C172 1.310 . S
C2009 C510 1.326 . S
C2014 C835 1.309 . S
C2019 C655 1.327 . S
C2024 C146 1.310 . S
C2029 C848 1.310 . S
C2034 C484 1.328 . S
C2039 C668 1.328 . S
C2044 C120 1.310 . S
C2049 C993 1.310 . S
C2054 C681 1.328 . S
C2059 C317 1.326 . S
C2064 C952 1.306 . S
C2069 C965 1.307 . S
C2074 C694 1.327 . S
C2079 C978 1.306 . S
C2084 C343 1.327 . S
C2089 C1030 1.307 . S
C2094 C707 1.325 . S
C2099 C393 1.326 . S
C2104 C1004 1.306 . S
C2109 C718 1.326 . S
C2114 C1017 1.307 . S
C2119 C367 1.326 . S
C2124 C941 1.306 . S
C2129 C731 1.327 . S
C2134 C57 1.310 . S
C2139 C744 1.328 . S
C2144 C3 1.310 . S
C2149 C900 1.310 . S
C2154 C757 1.327 . S
C2159 C772 1.327 . S
C2164 C31 1.310 . S
C2169 C783 1.326 . S
C2174 C887 1.308 . S
C2179 C81 1.310 . S
C2184 C798 1.327 . S
C2189 C811 1.327 . S
C2194 C928 1.306 . S
C2199 C915 1.310 . S
C2204 C822 1.328 . S
C2209 C187 1.306 . S
C2214 C1043 1.327 . S
C2219 C1175 1.307 . S
C2224 C445 1.327 . S
C2229 C1056 1.327 . S
C2234 C159 1.307 . S
C2239 C419 1.327 . S
C2244 C1188 1.310 . S
C2249 C135 1.310 . S
C2254 C1069 1.327 . S
C2259 C1162 1.307 . S
C2264 C471 1.327 . S
C2269 C107 1.310 . S
C2274 C1084 1.327 . S
C2279 C1149 1.306 . S
C2284 C499 1.327 . S
C2289 C796 1.310 . S
C2294 C354 1.328 . S
C2299 C1095 1.328 . S
C2304 C809 1.310 . S
C2309 C733 1.307 . S
C2314 C330 1.325 . S
C2319 C1108 1.327 . S
C2324 C824 1.310 . S
C2329 C770 1.308 . S
C2334 C382 1.326 . S
C2339 C1123 1.327 . S
C2344 C785 1.306 . S
C2349 C408 1.328 . S
C2354 C746 1.310 . S
C2359 C759 1.306 . S
C2364 C1134 1.326 . S
C2369 C1238 1.306 . S
C2374 C967 1.327 . S
C2379 C1199 1.308 . S
C2384 C1019 1.325 . S
C2389 C939 1.328 . S
C2394 C16 1.308 . S
C2399 C1214 1.309 . S
C2404 C1032 1.326 . S
C2409 C44 1.307 . S
C2414 C1006 1.325 . S
C2419 C991 1.327 . S
C2424 C1227 1.310 . S
C2429 C954 1.326 . S
C2434 C94 1.308 . S
C2439 C980 1.327 . S
C2444 C68 1.310 . S
C2449 C1201 1.328 . S
C2454 C720 1.310 . S
C2459 C1136 1.306 . S
C2464 C902 1.326 . S
C2469 C1212 1.327 . S
C2474 C705 1.306 . S
C2479 C889 1.326 . S
C2484 C1121 1.310 . S
C2489 C1240 1.326 . S
C2494 C692 1.306 . S
C2499 C913 1.326 . S
C2504 C1110 1.310 . S
C2509 C1225 1.326 . S
C2514 C679 1.310 . S
C2519 C926 1.327 . S
C2524 C1097 1.310 . S
C2529 C850 1.328 . S
C2534 C276 1.310 . S
C2539 C289 1.306 . S
C2544 C1147 1.326 . S
C2549 C837 1.327 . S
C2554 C211 1.307 . S
C2559 C1160 1.328 . S
C2564 C302 1.310 . S
C2569 C863 1.328 . S
C2574 C252 1.310 . S
C2579 C263 1.309 . S
C2584 C1186 1.326 . S
C2589 C226 1.310 . S
C2594 C876 1.328 . S
C2599 C239 1.307 . S
C2604 C1173 1.326 . S
C2609 C1071 1.310 . S
C2614 C551 1.327 . S
C2619 C601 1.327 . S
C2624 C1045 1.306 . S
C2629 C627 1.307 . S
C2634 C525 1.326 . S
C2639 C614 1.327 . S
C2644 C1058 1.310 . S
C2649 C640 1.307 . S
C2654 C588 1.326 . S
C2659 C1082 1.306 . S
C2664 C575 1.327 . S
C2669 C666 1.307 . S
C2674 C536 1.327 . S
C2679 C653 1.309 . S
C2684 C562 1.328 . S
C2689 C374 1.321 . S
C2694 C4 1.320 . S
C2699 C17 1.322 . S
C2704 C381 1.322 . S
C2709 C400 1.323 . S
C2714 C36 1.322 . S
C2719 C49 1.322 . S
C2724 C407 1.323 . S
C2729 C316 1.320 . S
C2734 C62 1.321 . S
C2739 C329 1.323 . S
C2744 C69 1.322 . S
C2749 C82 1.321 . S
C2754 C342 1.320 . S
C2759 C95 1.322 . S
C2764 C361 1.322 . S
C2769 C498 1.322 . S
C2774 C108 1.323 . S
C2779 C121 1.320 . S
C2784 C517 1.321 . S
C2789 C140 1.322 . S
C2794 C478 1.322 . S
C2799 C491 1.321 . S
C2804 C147 1.321 . S
C2809 C160 1.321 . S
C2814 C452 1.321 . S
C2819 C465 1.320 . S
C2824 C173 1.320 . S
C2829 C426 1.322 . S
C2834 C192 1.322 . S
C2839 C439 1.323 . S
C2844 C199 1.323 . S
C2849 C212 1.321 . S
C2854 C595 1.321 . S
C2859 C569 1.322 . S
C2864 C231 1.322 . S
C2869 C582 1.321 . S
C2874 C244 1.321 . S
C2879 C543 1.321 . S
C2884 C257 1.321 . S
C2889 C264 1.322 . S
C2894 C550 1.322 . S
C2899 C277 1.323 . S
C2904 C524 1.323 . S
C2909 C621 1.322 . S
C2914 C290 1.322 . S
C2919 C303 1.322 . S
C2924 C608 1.322 . S
C2929 C628 1.320 . S
C2934 C862 1.321 . S
C2939 C875 1.321 . S
C2944 C641 1.321 . S
C2949 C836 1.321 . S
C2954 C654 1.320 . S
C2959 C849 1.321 . S
C2964 C667 1.321 . S
C2969 C680 1.321 . S
C2974 C933 1.321 . S
C2979 C920 1.321 . S
C2984 C693 1.320 . S
C2989 C706 1.322 . S
C2994 C901 1.322 . S
C2999 C725 1.323 . S
C3004 C888 1.322 . S
C3009 C1005 1.322 . S
C3014 C738 1.321 . S
C3019 C751 1.322 . S
C3024 C979 1.322 . S
C3029 C998 1.322 . S
C3034 C764 1.323 . S
C3039 C953 1.322 . S
C3044 C771 1.321 . S
C3049 C966 1.321 . S
C3054 C790 1.321 . S
C3059 C946 1.322 . S
C3064 C797 1.323 . S
C3069 C1031 1.322 . S
C3074 C810 1.321 . S
C3079 C1018 1.321 . S
C3084 C829 1.321 . S
C3089 C1050 1.323 . S
C3094 C1180 1.322 . S
C3099 C1193 1.320 . S
C3104 C1063 1.321 . S
C3109 C1076 1.323 . S
C3114 C1154 1.322 . S
C3119 C1167 1.323 . S
C3124 C1083 1.322 . S
C3129 C1102 1.321 . S
C3134 C1239 1.320 . S
C3139 C1115 1.322 . S
C3144 C1232 1.323 . S
C3149 C1219 1.320 . S
C3154 C1122 1.321 . S
C3159 C1141 1.323 . S
C3164 C1200 1.323 . S
