# Generated by pormake.
# Topology bsn, (6)-cn, num edge types: 1
# Building blocks:
#     Node 0, Type 0, BuildingBlock: FUNLAD_clean_sbu_0, # of connection points: 6
#     Node 1, Type 0, BuildingBlock: FUNLAD_clean_sbu_0, # of connection points: 6
#     Node 2, Type 0, BuildingBlock: FUNLAD_clean_sbu_0, # of connection points: 6
#     Node 3, Type 0, BuildingBlock: FUNLAD_clean_sbu_0, # of connection points: 6
#     Edge 4, Type (0, 0), BuildingBlock: XUDNAN_clean_linker_2, # of connection points: 2
#     Edge 5, Type (0, 0), BuildingBlock: XUDNAN_clean_linker_2, # of connection points: 2
#     Edge 6, Type (0, 0), BuildingBlock: XUDNAN_clean_linker_2, # of connection points: 2
#     Edge 7, Type (0, 0), BuildingBlock: XUDNAN_clean_linker_2, # of connection points: 2
#     Edge 8, Type (0, 0), BuildingBlock: XUDNAN_clean_linker_2, # of connection points: 2
#     Edge 9, Type (0, 0), BuildingBlock: XUDNAN_clean_linker_2, # of connection points: 2
#     Edge 10, Type (0, 0), BuildingBlock: XUDNAN_clean_linker_2, # of connection points: 2
#     Edge 11, Type (0, 0), BuildingBlock: XUDNAN_clean_linker_2, # of connection points: 2
#     Edge 12, Type (0, 0), BuildingBlock: XUDNAN_clean_linker_2, # of connection points: 2
#     Edge 13, Type (0, 0), BuildingBlock: XUDNAN_clean_linker_2, # of connection points: 2
#     Edge 14, Type (0, 0), BuildingBlock: XUDNAN_clean_linker_2, # of connection points: 2
#     Edge 15, Type (0, 0), BuildingBlock: XUDNAN_clean_linker_2, # of connection points: 2
# Relax obj value: 0.466
# Max RMSD: 0.274
# Mean RMSD: 0.274
data_MOF--net-bsn--node1-FUNLAD_clean_sbu_0--edge1-XUDNAN_clean_linker_2
_symmetry_space_group_name_H-M    P1
_symmetry_Int_Tables_number       1
_symmetry_cell_setting            triclinic
loop_
_symmetry_equiv_pos_as_xyz
'x, y, z'
_cell_length_a     27.246432
_cell_length_b     27.259429
_cell_length_c     21.207195
_cell_angle_alpha  90.570217
_cell_angle_beta   93.644219
_cell_angle_gamma 93.93782
loop_
_atom_site_label
_atom_site_type_symbol
_atom_site_fract_x
_atom_site_fract_y
_atom_site_fract_z
_atom_type_partial_charge
C0 C 0.15979 0.30292 0.36808 0.0
N1 N 0.06573 0.28876 0.21903 0.0
C2 C 0.09246 0.32406 0.18861 0.0
C3 C 0.10083 0.31778 0.12504 0.0
C4 C 0.0809 0.27508 0.09263 0.0
C5 C 0.05213 0.24011 0.12485 0.0
C6 C 0.04532 0.24753 0.18849 0.0
Zn7 Zn 0.06143 0.29274 0.31316 0.0
C8 C 0.06503 0.19227 0.37197 0.0
N9 N 0.05507 0.29231 0.50552 0.0
C10 C 0.09105 0.32006 0.53946 0.0
C11 C 1.02298 0.2605 0.53383 0.0
C12 C 1.02838 0.2534 0.59867 0.0
C13 C 0.06646 0.28009 0.63424 0.0
C14 C 0.09715 0.31482 0.60459 0.0
Zn15 Zn 0.05562 0.29184 0.41083 0.0
O16 O 0.13407 0.315 0.32023 0.0
C17 C 0.0526 0.3924 0.3653 0.0
O18 O 0.13774 0.28716 0.41614 0.0
H19 H 0.99462 0.23894 0.50572 0.0
H20 H 0.10855 0.3564 0.21414 0.0
H21 H 0.11636 0.34471 0.51568 0.0
O22 O 0.04354 0.37081 0.31154 0.0
O23 O 0.06386 0.36706 0.41283 0.0
H24 H 1.02452 0.21984 0.21387 0.0
O25 O 0.97426 0.29407 0.3977 0.0
O26 O 0.98805 0.27101 0.30155 0.0
O27 O 0.04686 0.21761 0.41318 0.0
O28 O 0.08019 0.21368 0.32273 0.0
C29 C 0.95788 0.2787 0.34262 0.0
H30 H 0.12354 0.34548 0.10202 0.0
H31 H 1.03508 0.20725 0.10127 0.0
H32 H 1.00379 0.2267 0.6206 0.0
H33 H 0.12692 0.33588 0.63103 0.0
C34 C 0.14239 0.79168 0.60473 0.0
N35 N 1.02647 0.81214 0.46481 0.0
C36 C 0.06133 0.83899 0.43428 0.0
C37 C 0.06342 0.83389 0.36907 0.0
C38 C 1.02947 0.80065 0.33565 0.0
C39 C 0.99148 0.77658 0.36764 0.0
C40 C 0.99062 0.78295 0.43272 0.0
Zn41 Zn 1.0346 0.80604 0.55968 0.0
C42 C 1.02487 0.69972 0.58886 0.0
N43 N 0.05883 0.78612 0.75424 0.0
C44 C 0.09624 0.81145 0.78879 0.0
C45 C 1.02617 0.75444 0.78169 0.0
C46 C 1.0304 0.74705 0.84644 0.0
C47 C 0.0684 0.77277 0.88337 0.0
C48 C 0.1016 0.80548 0.85412 0.0
Zn49 Zn 0.04973 0.79366 0.65972 0.0
O50 O 0.117 0.80665 0.55671 0.0
C51 C 0.05973 0.90078 0.61691 0.0
O52 O 0.12087 0.77977 0.65358 0.0
H53 H 0.99643 0.73511 0.75335 0.0
H54 H 0.08941 0.86197 0.46093 0.0
H55 H 0.12185 0.83627 0.76568 0.0
O56 O 1.04028 0.87949 0.56772 0.0
O57 O 0.07104 0.87513 0.6654 0.0
H58 H 0.9633 0.76199 0.45813 0.0
O59 O 0.97751 0.80721 0.67123 0.0
O60 O 0.95454 0.80761 0.57032 0.0
O61 O 1.03021 0.71383 0.64658 0.0
O62 O 1.02769 0.73127 0.5461 0.0
C63 C 0.9439 0.81011 0.62804 0.0
H64 H 0.0933 0.85302 0.34592 0.0
H65 H 0.96419 0.75126 0.34308 0.0
H66 H 1.00352 0.72227 0.8676 0.0
H67 H 0.13135 0.8259 0.88138 0.0
C68 C 0.65459 0.78342 0.86862 0.0
N69 N 0.55856 0.77697 0.71943 0.0
C70 C 0.59676 0.80153 0.69237 0.0
C71 C 0.60364 0.79432 0.62861 0.0
C72 C 0.57089 0.76147 0.5928 0.0
C73 C 0.53131 0.73725 0.62163 0.0
C74 C 0.52575 0.74565 0.68551 0.0
Zn75 Zn 0.55426 0.78287 0.81337 0.0
C76 C 0.54088 0.68804 0.8769 0.0
N77 N 0.55239 0.79667 0.00772 0.0
C78 C 0.58905 0.82235 0.0431 0.0
C79 C 0.51877 0.76557 0.03441 0.0
C80 C 0.52318 0.75672 0.0988 0.0
C81 C 0.5625 0.78021 0.13583 0.0
C82 C 0.59474 0.81471 0.10796 0.0
Zn83 Zn 0.55305 0.79444 0.91304 0.0
O84 O 0.62666 0.76825 0.822 0.0
C85 C 0.56773 0.8898 0.8628 0.0
O86 O 0.63524 0.80003 0.91708 0.0
H87 H 0.49018 0.74534 0.00515 0.0
H88 H 0.62265 0.82581 0.72065 0.0
H89 H 0.61534 0.84678 0.02057 0.0
O90 O 0.57481 0.86459 0.8132 0.0
O91 O 0.55396 0.86798 0.91128 0.0
H92 H 0.4957 0.72661 0.70826 0.0
O93 O 0.47109 0.79223 0.90076 0.0
O94 O 0.48196 0.79651 0.79933 0.0
O95 O 0.55254 0.7189 0.92075 0.0
O96 O 0.53397 0.70332 0.82062 0.0
C97 C 0.45348 0.7966 0.84384 0.0
H98 H 0.63473 0.81341 0.60785 0.0
H99 H 0.50486 0.7123 0.59503 0.0
H100 H 0.49704 0.73062 0.11906 0.0
H101 H 0.62544 0.83356 0.1353 0.0
C102 C 0.64589 0.3042 0.1096 0.0
N103 N 0.52847 0.2894 0.96854 0.0
C104 C 0.56014 0.31987 0.93759 0.0
C105 C 0.5626 0.3152 0.8725 0.0
C106 C 0.53284 0.27824 0.83955 0.0
C107 C 0.49878 0.24887 0.87198 0.0
C108 C 0.49686 0.25546 0.93699 0.0
Zn109 Zn 0.53655 0.28864 0.06389 0.0
C110 C 0.55575 0.18996 0.09873 0.0
N111 N 0.56434 0.28449 0.25722 0.0
C112 C 0.58874 0.32066 0.29394 0.0
C113 C 0.54624 0.24186 0.28243 0.0
C114 C 0.55165 0.23445 0.34706 0.0
C115 C 0.57641 0.27106 0.38639 0.0
C116 C 0.59531 0.31463 0.35919 0.0
Zn117 Zn 0.55383 0.29031 0.16251 0.0
O118 O 0.61888 0.2888 0.06082 0.0
C119 C 0.5353 0.3891 0.11439 0.0
O120 O 0.62537 0.31427 0.15914 0.0
H121 H 0.52699 0.21357 0.25235 0.0
H122 H 0.58535 0.34613 0.96379 0.0
H123 H 0.60307 0.35411 0.27261 0.0
O124 O 0.54007 0.36388 0.06528 0.0
O125 O 0.53478 0.36791 0.16795 0.0
H126 H 0.47199 0.23168 0.96268 0.0
O127 O 0.48115 0.2667 0.17058 0.0
O128 O 0.45624 0.28666 0.07467 0.0
O129 O 0.57417 0.21235 0.14893 0.0
O130 O 0.53189 0.21388 0.05832 0.0
C131 C 0.44627 0.2719 0.12974 0.0
H132 H 0.58956 0.33818 0.84885 0.0
H133 H 0.47511 0.22019 0.84764 0.0
H134 H 0.53551 0.20078 0.36607 0.0
H135 H 0.61492 0.34363 0.38793 0.0
H136 H 0.11112 0.4552 0.4408 0.0
H137 H 0.97339 0.44404 0.32609 0.0
H138 H 0.94803 0.51887 0.37947 0.0
H139 H 0.0633 0.48819 0.58124 0.0
H140 H 0.11403 0.53068 0.60838 0.0
H141 H 0.12432 0.48041 0.5562 0.0
H142 H 0.16152 0.54068 0.4753 0.0
H143 H 0.15339 0.59094 0.52852 0.0
H144 H 0.12727 0.5916 0.4483 0.0
H145 H 0.93495 0.59006 0.45382 0.0
H146 H 0.94169 0.66189 0.52662 0.0
H147 H 0.08798 0.62564 0.59362 0.0
C148 C 0.07648 0.46977 0.42504 0.0
C149 C 0.04457 0.4445 0.37835 0.0
C150 C 0.99895 0.46369 0.36025 0.0
C151 C 0.98395 0.50559 0.39128 0.0
C152 C 1.01518 0.52779 0.43992 0.0
C153 C 0.06112 0.51132 0.45537 0.0
C154 C 0.08751 0.54084 0.51005 0.0
C155 C 0.09789 0.50805 0.56733 0.0
C156 C 0.13524 0.56762 0.48929 0.0
C157 C 0.0492 0.57662 0.5235 0.0
C158 C 1.00748 0.56806 0.48302 0.0
C159 C 0.96739 0.5969 0.48567 0.0
C160 C 0.97117 0.6371 0.52802 0.0
C161 C 1.0146 0.64824 0.56736 0.0
C162 C 0.05355 0.61674 0.5662 0.0
H163 H 0.70901 0.7211 0.80727 0.0
H164 H 0.71561 0.8663 0.89335 0.0
H165 H 0.7872 0.8914 0.83161 0.0
H166 H 0.84457 0.71346 0.79507 0.0
H167 H 0.83457 0.68079 0.72053 0.0
H168 H 0.78931 0.67393 0.77868 0.0
H169 H 0.72318 0.69952 0.69439 0.0
H170 H 0.76866 0.70907 0.63693 0.0
H171 H 0.73129 0.75832 0.65691 0.0
H172 H 0.85111 0.90317 0.74925 0.0
H173 H 0.91519 0.89537 0.67297 0.0
H174 H 0.86659 0.74221 0.64069 0.0
C175 C 0.72717 0.75741 0.81559 0.0
C176 C 0.70732 0.79152 0.85611 0.0
C177 C 0.731 0.8392 0.8641 0.0
C178 C 0.77104 0.85401 0.82809 0.0
C179 C 0.78716 0.82048 0.78489 0.0
C180 C 0.76697 0.77263 0.78013 0.0
C181 C 0.78978 0.74401 0.72901 0.0
C182 C 0.81615 0.70049 0.75753 0.0
C183 C 0.7509 0.72672 0.67621 0.0
C184 C 0.82611 0.78316 0.70541 0.0
C185 C 0.82342 0.82725 0.73753 0.0
C186 C 0.85345 0.86878 0.72403 0.0
C187 C 0.8891 0.86431 0.67963 0.0
C188 C 0.89465 0.81872 0.64915 0.0
C189 C 0.86179 0.77801 0.66111 0.0
H190 H 0.60275 0.46498 0.09788 0.0
H191 H 0.44614 0.42556 0.09458 0.0
H192 H 0.43018 0.49592 0.0252 0.0
H193 H 0.5916 0.60341 0.0919 0.0
H194 H 0.64381 0.61063 0.0439 0.0
H195 H 0.64062 0.56237 0.10122 0.0
H196 H 0.65241 0.49944 0.01197 0.0
H197 H 0.65286 0.54703 0.95375 0.0
H198 H 0.60891 0.49455 0.94411 0.0
H199 H 0.43304 0.56297 0.94159 0.0
H200 H 0.45277 0.63394 0.87295 0.0
H201 H 0.60721 0.63042 0.93333 0.0
C202 C 0.56497 0.47321 0.08599 0.0
C203 C 0.52552 0.44091 0.10359 0.0
C204 C 0.47667 0.45108 0.08391 0.0
C205 C 0.46739 0.49037 0.04329 0.0
C206 C 0.5074 0.51956 0.02331 0.0
C207 C 0.55512 0.51265 0.04605 0.0
C208 C 0.59179 0.54813 0.01598 0.0
C209 C 0.61851 0.58323 0.06623 0.0
C210 C 0.62865 0.52061 0.9793 0.0
C211 C 0.55752 0.57508 0.97144 0.0
C212 C 0.50899 0.55783 0.97575 0.0
C213 C 0.47093 0.57691 0.93827 0.0
C214 C 0.4825 0.61649 0.89829 0.0
C215 C 0.53164 0.63656 0.89629 0.0
C216 C 0.56954 0.61469 0.93234 0.0
H217 H 0.88856 0.34746 0.33196 0.0
H218 H 0.91236 0.19453 0.29603 0.0
H219 H 0.83979 0.18786 0.21993 0.0
H220 H 0.7498 0.33067 0.31716 0.0
H221 H 0.74519 0.38994 0.28123 0.0
H222 H 0.79582 0.37998 0.33735 0.0
H223 H 0.85618 0.40979 0.25373 0.0
H224 H 0.8057 0.41731 0.19636 0.0
H225 H 0.8539 0.37832 0.1783 0.0
H226 H 0.77064 0.20041 0.13794 0.0
H227 H 0.6952 0.22475 0.07853 0.0
H228 H 0.71447 0.36854 0.1689 0.0
C229 C 0.87677 0.31197 0.31068 0.0
C230 C 0.9053 0.27109 0.32114 0.0
C231 C 0.89013 0.22583 0.28997 0.0
C232 C 0.84953 0.22196 0.24572 0.0
C233 C 0.82404 0.26368 0.23326 0.0
C234 C 0.8358 0.30733 0.2665 0.0
C235 C 0.80197 0.34646 0.2441 0.0
C236 C 0.77136 0.3627 0.29816 0.0
C237 C 0.83121 0.39057 0.2165 0.0
C238 C 0.76994 0.31814 0.19284 0.0
C239 C 0.78385 0.27071 0.1865 0.0
C240 C 0.75923 0.23744 0.14273 0.0
C241 C 0.71697 0.25186 0.10805 0.0
C242 C 0.69941 0.2987 0.1183 0.0
C243 C 0.72779 0.33292 0.1589 0.0
H244 H 0.37577 0.33867 0.13844 0.0
H245 H 0.40846 0.18881 0.18036 0.0
H246 H 0.34391 0.18359 0.25702 0.0
H247 H 0.35757 0.37598 0.29033 0.0
H248 H 0.30616 0.41273 0.27185 0.0
H249 H 0.35017 0.4036 0.2137 0.0
H250 H 0.2809 0.36812 0.13305 0.0
H251 H 0.23648 0.37954 0.18987 0.0
H252 H 0.23866 0.31879 0.15639 0.0
H253 H 0.2819 0.19782 0.33841 0.0
H254 H 0.2128 0.22379 0.39854 0.0
H255 H 0.22095 0.36427 0.30476 0.0
C256 C 0.36733 0.30396 0.16112 0.0
C257 C 0.39616 0.26362 0.15208 0.0
C258 C 0.38575 0.21958 0.18521 0.0
C259 C 0.34977 0.21659 0.22976 0.0
C260 C 0.32413 0.25796 0.24068 0.0
C261 C 0.33117 0.30026 0.20579 0.0
C262 C 0.2989 0.33958 0.22733 0.0
C263 C 0.33009 0.38569 0.25227 0.0
C264 C 0.26152 0.35223 0.17348 0.0
C265 C 0.27357 0.31314 0.28038 0.0
C266 C 0.28887 0.26622 0.2878 0.0
C267 C 0.26952 0.23451 0.33287 0.0
C268 C 0.23097 0.24988 0.36797 0.0
C269 C 0.21204 0.2963 0.35724 0.0
C270 C 0.2355 0.32902 0.31516 0.0
H271 H 0.37764 0.72821 0.81336 0.0
H272 H 0.41728 0.88468 0.82272 0.0
H273 H 0.34653 0.89917 0.74791 0.0
H274 H 0.34323 0.71941 0.65384 0.0
H275 H 0.29089 0.6758 0.65912 0.0
H276 H 0.34114 0.67721 0.7187 0.0
H277 H 0.28191 0.69062 0.80738 0.0
H278 H 0.23124 0.68636 0.74837 0.0
H279 H 0.24056 0.73944 0.80021 0.0
H280 H 0.27731 0.8952 0.66116 0.0
H281 H 0.2004 0.87592 0.59436 0.0
H282 H 0.20389 0.72273 0.64467 0.0
C283 C 0.36962 0.76568 0.80246 0.0
C284 C 0.40185 0.80555 0.82563 0.0
C285 C 0.39185 0.85389 0.80749 0.0
C286 C 0.3524 0.86232 0.76387 0.0
C287 C 0.32302 0.82196 0.73897 0.0
C288 C 0.32993 0.77477 0.75949 0.0
C289 C 0.29281 0.73785 0.72574 0.0
C290 C 0.31859 0.70036 0.68708 0.0
C291 C 0.25965 0.71207 0.77324 0.0
C292 C 0.26426 0.77155 0.68276 0.0
C293 C 0.28291 0.81981 0.69002 0.0
C294 C 0.26222 0.85753 0.6555 0.0
C295 C 0.21909 0.84616 0.61647 0.0
C296 C 0.19661 0.7978 0.61347 0.0
C297 C 0.22105 0.75979 0.6446 0.0
H298 H 0.50251 0.95914 0.87044 0.0
H299 H 0.6582 0.9365 0.88659 0.0
H300 H 0.67303 1.01009 0.95637 0.0
H301 H 0.51574 0.09902 0.87979 0.0
H302 H 0.46138 0.0996 0.92387 0.0
H303 H 0.46644 0.05183 0.86583 0.0
H304 H 0.44977 0.98722 0.95211 0.0
H305 H 0.44752 1.03459 0.0113 0.0
H306 H 0.49043 0.98749 0.02263 0.0
H307 H 0.66765 0.07928 0.03974 0.0
H308 H 0.64512 0.14797 0.1078 0.0
H309 H 0.49275 0.12232 0.03735 0.0
C310 C 0.54013 0.97176 0.88503 0.0
C311 C 0.57946 0.94311 0.87117 0.0
C312 C 0.62788 0.95906 0.89436 0.0
C313 C 0.63641 1.00024 0.93532 0.0
C314 C 0.59611 1.02539 0.95214 0.0
C315 C 0.54912 1.01269 0.92578 0.0
C316 C 0.5115 0.04346 0.95384 0.0
C317 C 0.48736 0.07538 0.90281 0.0
C318 C 0.47253 1.01124 -0.01309 0.0
C319 C 0.54425 0.07455 0.0013 0.0
C320 C 0.59297 0.06376 9e-05 0.0
C321 C 0.62959 0.08818 0.04049 0.0
C322 C 0.61641 0.12652 0.08004 0.0
C323 C 0.5671 0.13999 0.07866 0.0
C324 C 0.53062 0.11226 0.04035 0.0
H325 H 0.9978 0.97159 0.59201 0.0
H326 H 0.15242 0.94491 0.61329 0.0
H327 H 0.17168 1.01458 0.54269 0.0
H328 H 0.99232 0.99092 0.4359 0.0
H329 H 0.95024 0.03919 0.43378 0.0
H330 H 0.94915 0.99518 0.49641 0.0
H331 H 0.96392 0.06427 0.58183 0.0
H332 H 0.96176 0.10873 0.51966 0.0
H333 H 1.01426 0.11017 0.57595 0.0
H334 H 0.17111 0.08093 0.45531 0.0
H335 H 0.15281 0.14808 0.38082 0.0
H336 H 0.99793 0.12589 0.41426 0.0
C337 C 1.03608 0.98258 0.5853 0.0
C338 C 0.07377 0.95354 0.60947 0.0
C339 C 0.12318 0.96751 0.59697 0.0
C340 C 0.13424 1.00643 0.55565 0.0
C341 C 0.09543 1.03133 0.5278 0.0
C342 C 0.04748 1.02089 0.54399 0.0
C343 C 1.01175 0.05049 0.50526 0.0
C344 C 0.97364 1.01691 0.46552 0.0
C345 C 0.98645 0.0855 0.54822 0.0
C346 C 0.04669 0.07848 0.46361 0.0
C347 C 0.09489 0.06721 0.47695 0.0
C348 C 0.13342 0.08991 0.44477 0.0
C349 C 0.12265 0.12725 0.40129 0.0
C350 C 0.0738 0.14129 0.39037 0.0
C351 C 1.03541 0.11488 0.42006 0.0
H352 H 0.08172 0.34367 -0.00054 0.0
H353 H 0.09793 0.18858 0.03358 0.0
H354 H 0.10188 0.17395 0.91919 0.0
H355 H 1.00528 0.33083 0.86513 0.0
H356 H 1.03239 0.38249 0.8241 0.0
H357 H 1.03638 0.38214 0.90903 0.0
H358 H 0.13162 0.39492 0.9108 0.0
H359 H 0.12796 0.39598 0.82566 0.0
H360 H 0.16556 0.35315 0.86693 0.0
H361 H 0.09313 0.17439 0.80183 0.0
H362 H 0.07902 0.19136 0.68795 0.0
H363 H 0.07361 0.34663 0.73119 0.0
C364 C 0.0876 0.30689 0.98319 0.0
C365 C 0.08909 0.26721 0.02526 0.0
C366 C 0.09575 0.21939 0.00192 0.0
C367 C 0.09852 0.21077 0.93719 0.0
C368 C 0.0955 0.25052 0.89686 0.0
C369 C 0.09105 0.29777 0.91894 0.0
C370 C 0.08601 0.3336 0.86541 0.0
C371 C 1.0371 0.3587 0.86598 0.0
C372 C 0.13044 0.37165 0.86732 0.0
C373 C 0.08626 0.29871 0.80974 0.0
C374 C 0.09204 0.25099 0.82887 0.0
C375 C 0.08957 0.21169 0.78609 0.0
C376 C 0.08115 0.22154 0.72187 0.0
C377 C 0.07555 0.27023 0.70161 0.0
C378 C 0.07858 0.30925 0.74591 0.0
H379 H 0.07823 0.84532 0.97376 0.0
H380 H 0.06318 0.68681 0.94785 0.0
H381 H 0.05582 0.67689 0.06254 0.0
H382 H 0.14813 0.84636 0.1306 0.0
H383 H 0.11676 0.89756 0.15884 0.0
H384 H 0.12694 0.89182 0.07602 0.0
H385 H 1.03324 0.89598 0.04893 0.0
H386 H 1.02262 0.90091 0.13155 0.0
H387 H 0.99039 0.85243 0.08367 0.0
H388 H 1.04146 0.68426 0.17629 0.0
H389 H 1.02627 0.70824 0.28536 0.0
H390 H 0.0504 0.86218 0.23783 0.0
C391 C 0.07491 0.80855 -0.00736 0.0
C392 C 0.07138 0.76677 0.95242 0.0
C393 C 0.06576 0.71919 0.97823 0.0
C394 C 0.06171 0.71322 0.04313 0.0
C395 C 0.06364 0.75522 0.0813 0.0
C396 C 0.07069 0.80196 0.05731 0.0
C397 C 0.06822 0.84097 0.10808 0.0
C398 C 0.11799 0.87094 0.11903 0.0
C399 C 1.02611 0.87452 0.09208 0.0
C400 C 0.05742 0.80882 0.16391 0.0
C401 C 0.05519 0.7595 0.14741 0.0
C402 C 0.04356 0.72272 0.19005 0.0
C403 C 1.03444 0.73672 0.25157 0.0
C404 C 1.03688 0.78703 0.26964 0.0
C405 C 0.04865 0.82347 0.22523 0.0
H406 H 0.58351 0.84249 0.23698 0.0
H407 H 0.55976 0.68799 0.18453 0.0
H408 H 0.56801 0.66564 0.297 0.0
H409 H 0.67313 0.82605 0.37371 0.0
H410 H 0.6486 0.87383 0.41916 0.0
H411 H 0.64681 0.87727 0.33421 0.0
H412 H 0.55227 0.88455 0.33077 0.0
H413 H 0.55374 0.881 0.41546 0.0
H414 H 0.51395 0.83794 0.3675 0.0
H415 H 0.56988 0.66067 0.41396 0.0
H416 H 0.56579 0.67356 0.52899 0.0
H417 H 0.58906 0.83112 0.50469 0.0
C418 C 0.58122 0.80395 0.24922 0.0
C419 C 0.57082 0.76694 0.20255 0.0
C420 C 0.5671 0.71688 0.22002 0.0
C421 C 0.57221 0.70382 0.28354 0.0
C422 C 0.58146 0.74128 0.32863 0.0
C423 C 0.58624 0.7903 0.31235 0.0
C424 C 0.59234 0.82354 0.37013 0.0
C425 C 0.64325 0.85184 0.37455 0.0
C426 C 0.55058 0.8588 0.37099 0.0
C427 C 0.58839 0.78561 0.42131 0.0
C428 C 0.5828 0.73836 0.39646 0.0
C429 C 0.57497 0.69741 0.4342 0.0
C430 C 0.57232 0.70507 0.49918 0.0
C431 C 0.5773 0.75327 0.52526 0.0
C432 C 0.58615 0.79386 0.48593 0.0
H433 H 0.56435 0.33967 0.47831 0.0
H434 H 0.59485 0.18691 0.45065 0.0
H435 H 0.58772 0.17248 0.56439 0.0
H436 H 0.63289 0.35513 0.63467 0.0
H437 H 0.58892 0.395 0.66349 0.0
H438 H 0.60007 0.39387 0.58066 0.0
H439 H 0.50665 0.37414 0.55358 0.0
H440 H 0.49528 0.37424 0.63625 0.0
H441 H 0.47592 0.32097 0.58755 0.0
H442 H 0.5688 0.17254 0.67784 0.0
H443 H 0.54921 0.18969 0.78782 0.0
H444 H 0.53526 0.34312 0.74241 0.0
C445 C 0.57095 0.30354 0.49638 0.0
C446 C 0.57971 0.26431 0.45559 0.0
C447 C 0.58723 0.2173 0.48097 0.0
C448 C 0.58349 0.20878 0.54546 0.0
C449 C 0.57301 0.24783 0.58392 0.0
C450 C 0.56784 0.29451 0.56069 0.0
C451 C 0.55556 0.32978 0.61193 0.0
C452 C 0.59683 0.37087 0.62337 0.0
C453 C 0.50537 0.351 0.59637 0.0
C454 C 0.55348 0.29531 0.6672 0.0
C455 C 0.5635 0.24817 0.64998 0.0
C456 C 0.56152 0.2094 0.6922 0.0
C457 C 0.54991 0.21934 0.75417 0.0
C458 C 0.54079 0.26764 0.77301 0.0
C459 C 0.54246 0.30598 0.72896 0.0
loop_
_geom_bond_atom_site_label_1
_geom_bond_atom_site_label_2
_geom_bond_distance
_geom_bond_site_symmetry_2
_ccdc_geom_bond_type
C0 O16 1.251 . S
C0 O18 1.254 . S
N1 C2 1.333 . S
N1 C6 1.307 1_455 S
N1 Zn7 2.020 . S
C2 N1 1.333 . S
C2 C3 1.379 . S
C2 H20 0.952 . S
C3 C2 1.379 . S
C3 C4 1.390 . S
C3 H30 0.949 . S
C4 C3 1.390 . S
C4 C5 1.357 1_455 S
C5 C4 1.357 1_655 S
C5 C6 1.370 . S
C5 H31 0.950 . S
C6 N1 1.307 1_655 S
C6 C5 1.370 . S
C6 H24 0.948 . S
Zn7 N1 2.020 . S
Zn7 O16 2.039 . S
Zn7 O22 2.034 . S
Zn7 O26 2.025 1_455 S
Zn7 O28 2.024 . S
C8 O27 1.246 . S
C8 O28 1.249 . S
N9 C10 1.307 . S
N9 C11 1.333 1_455 S
N9 Zn15 2.020 . S
C10 N9 1.307 . S
C10 C14 1.370 . S
C10 H21 0.948 . S
C11 N9 1.333 1_655 S
C11 C12 1.379 . S
C11 H19 0.952 . S
C12 C11 1.379 . S
C12 C13 1.390 1_655 S
C12 H32 0.949 . S
C13 C12 1.390 1_455 S
C13 C14 1.357 . S
C14 C10 1.370 . S
C14 C13 1.357 . S
C14 H33 0.950 . S
Zn15 N9 2.020 . S
Zn15 O18 2.025 . S
Zn15 O23 2.024 . S
Zn15 O25 2.039 1_455 S
Zn15 O27 2.034 . S
O16 C0 1.251 . S
O16 Zn7 2.039 . S
C17 O22 1.246 . S
C17 O23 1.249 . S
O18 C0 1.254 . S
O18 Zn15 2.025 . S
H19 C11 0.952 . S
H20 C2 0.952 . S
H21 C10 0.948 . S
O22 Zn7 2.034 . S
O22 C17 1.246 . S
O23 Zn15 2.024 . S
O23 C17 1.249 . S
H24 C6 0.948 . S
O25 Zn15 2.039 1_655 S
O25 C29 1.251 . S
O26 Zn7 2.025 1_655 S
O26 C29 1.254 . S
O27 C8 1.246 . S
O27 Zn15 2.034 . S
O28 Zn7 2.024 . S
O28 C8 1.249 . S
C29 O25 1.251 . S
C29 O26 1.254 . S
H30 C3 0.949 . S
H31 C5 0.950 . S
H32 C12 0.949 . S
H33 C14 0.950 . S
C34 O50 1.251 . S
C34 O52 1.254 . S
N35 C36 1.333 . S
N35 C40 1.307 1_455 S
N35 Zn41 2.020 . S
C36 N35 1.333 . S
C36 C37 1.379 . S
C36 H54 0.952 . S
C37 C36 1.379 . S
C37 C38 1.390 . S
C37 H64 0.949 . S
C38 C37 1.390 . S
C38 C39 1.357 1_455 S
C39 C38 1.357 1_655 S
C39 C40 1.370 . S
C39 H65 0.950 . S
C40 N35 1.307 1_655 S
C40 C39 1.370 . S
C40 H58 0.948 . S
Zn41 N35 2.020 . S
Zn41 O50 2.039 . S
Zn41 O56 2.034 . S
Zn41 O60 2.025 1_455 S
Zn41 O62 2.024 . S
C42 O61 1.246 . S
C42 O62 1.249 . S
N43 C44 1.307 . S
N43 C45 1.333 1_455 S
N43 Zn49 2.020 . S
C44 N43 1.307 . S
C44 C48 1.370 . S
C44 H55 0.948 . S
C45 N43 1.333 1_655 S
C45 C46 1.379 . S
C45 H53 0.952 . S
C46 C45 1.379 . S
C46 C47 1.390 1_655 S
C46 H66 0.949 . S
C47 C46 1.390 1_455 S
C47 C48 1.357 . S
C48 C44 1.370 . S
C48 C47 1.357 . S
C48 H67 0.950 . S
Zn49 N43 2.020 . S
Zn49 O52 2.025 . S
Zn49 O57 2.024 . S
Zn49 O59 2.039 1_455 S
Zn49 O61 2.034 . S
O50 C34 1.251 . S
O50 Zn41 2.039 . S
C51 O56 1.246 . S
C51 O57 1.249 . S
O52 C34 1.254 . S
O52 Zn49 2.025 . S
H53 C45 0.952 . S
H54 C36 0.952 . S
H55 C44 0.948 . S
O56 Zn41 2.034 . S
O56 C51 1.246 . S
O57 Zn49 2.024 . S
O57 C51 1.249 . S
H58 C40 0.948 . S
O59 Zn49 2.039 1_655 S
O59 C63 1.251 . S
O60 Zn41 2.025 1_655 S
O60 C63 1.254 . S
O61 C42 1.246 . S
O61 Zn49 2.034 . S
O62 Zn41 2.024 . S
O62 C42 1.249 . S
C63 O59 1.251 . S
C63 O60 1.254 . S
H64 C37 0.949 . S
H65 C39 0.950 . S
H66 C46 0.949 . S
H67 C48 0.950 . S
C68 O84 1.251 . S
C68 O86 1.254 . S
N69 C70 1.333 . S
N69 C74 1.307 . S
N69 Zn75 2.020 . S
C70 N69 1.333 . S
C70 C71 1.379 . S
C70 H88 0.952 . S
C71 C70 1.379 . S
C71 C72 1.390 . S
C71 H98 0.949 . S
C72 C71 1.390 . S
C72 C73 1.357 . S
C73 C72 1.357 . S
C73 C74 1.370 . S
C73 H99 0.950 . S
C74 N69 1.307 . S
C74 C73 1.370 . S
C74 H92 0.948 . S
Zn75 N69 2.020 . S
Zn75 O84 2.039 . S
Zn75 O90 2.034 . S
Zn75 O94 2.025 . S
Zn75 O96 2.024 . S
C76 O95 1.246 . S
C76 O96 1.249 . S
N77 C78 1.307 . S
N77 C79 1.333 . S
N77 Zn83 2.020 1_554 S
C78 N77 1.307 . S
C78 C82 1.370 . S
C78 H89 0.948 . S
C79 N77 1.333 . S
C79 C80 1.379 . S
C79 H87 0.952 . S
C80 C79 1.379 . S
C80 C81 1.390 . S
C80 H100 0.949 . S
C81 C80 1.390 . S
C81 C82 1.357 . S
C82 C78 1.370 . S
C82 C81 1.357 . S
C82 H101 0.950 . S
Zn83 N77 2.020 1_556 S
Zn83 O86 2.025 . S
Zn83 O91 2.024 . S
Zn83 O93 2.039 . S
Zn83 O95 2.034 . S
O84 C68 1.251 . S
O84 Zn75 2.039 . S
C85 O90 1.246 . S
C85 O91 1.249 . S
O86 C68 1.254 . S
O86 Zn83 2.025 . S
H87 C79 0.952 . S
H88 C70 0.952 . S
H89 C78 0.948 . S
O90 Zn75 2.034 . S
O90 C85 1.246 . S
O91 Zn83 2.024 . S
O91 C85 1.249 . S
H92 C74 0.948 . S
O93 Zn83 2.039 . S
O93 C97 1.251 . S
O94 Zn75 2.025 . S
O94 C97 1.254 . S
O95 C76 1.246 . S
O95 Zn83 2.034 . S
O96 Zn75 2.024 . S
O96 C76 1.249 . S
C97 O93 1.251 . S
C97 O94 1.254 . S
H98 C71 0.949 . S
H99 C73 0.950 . S
H100 C80 0.949 . S
H101 C82 0.950 . S
C102 O118 1.251 . S
C102 O120 1.254 . S
N103 C104 1.333 . S
N103 C108 1.307 . S
N103 Zn109 2.020 1_556 S
C104 N103 1.333 . S
C104 C105 1.379 . S
C104 H122 0.952 . S
C105 C104 1.379 . S
C105 C106 1.390 . S
C105 H132 0.949 . S
C106 C105 1.390 . S
C106 C107 1.357 . S
C107 C106 1.357 . S
C107 C108 1.370 . S
C107 H133 0.950 . S
C108 N103 1.307 . S
C108 C107 1.370 . S
C108 H126 0.948 . S
Zn109 N103 2.020 1_554 S
Zn109 O118 2.039 . S
Zn109 O124 2.034 . S
Zn109 O128 2.025 . S
Zn109 O130 2.024 . S
C110 O129 1.246 . S
C110 O130 1.249 . S
N111 C112 1.307 . S
N111 C113 1.333 . S
N111 Zn117 2.020 . S
C112 N111 1.307 . S
C112 C116 1.370 . S
C112 H123 0.948 . S
C113 N111 1.333 . S
C113 C114 1.379 . S
C113 H121 0.952 . S
C114 C113 1.379 . S
C114 C115 1.390 . S
C114 H134 0.949 . S
C115 C114 1.390 . S
C115 C116 1.357 . S
C116 C112 1.370 . S
C116 C115 1.357 . S
C116 H135 0.950 . S
Zn117 N111 2.020 . S
Zn117 O120 2.025 . S
Zn117 O125 2.024 . S
Zn117 O127 2.039 . S
Zn117 O129 2.034 . S
O118 C102 1.251 . S
O118 Zn109 2.039 . S
C119 O124 1.246 . S
C119 O125 1.249 . S
O120 C102 1.254 . S
O120 Zn117 2.025 . S
H121 C113 0.952 . S
H122 C104 0.952 . S
H123 C112 0.948 . S
O124 Zn109 2.034 . S
O124 C119 1.246 . S
O125 Zn117 2.024 . S
O125 C119 1.249 . S
H126 C108 0.948 . S
O127 Zn117 2.039 . S
O127 C131 1.251 . S
O128 Zn109 2.025 . S
O128 C131 1.254 . S
O129 C110 1.246 . S
O129 Zn117 2.034 . S
O130 Zn109 2.024 . S
O130 C110 1.249 . S
C131 O127 1.251 . S
C131 O128 1.254 . S
H132 C105 0.949 . S
H133 C107 0.950 . S
H134 C114 0.949 . S
H135 C116 0.950 . S
H136 C148 0.930 . S
H137 C150 0.930 . S
H138 C151 0.930 . S
H139 C155 0.959 . S
H140 C155 0.959 . S
H141 C155 0.961 . S
H142 C156 0.960 . S
H143 C156 0.961 . S
H144 C156 0.959 . S
H145 C159 0.929 . S
H146 C160 0.931 . S
H147 C162 0.930 . S
C148 H136 0.930 . S
C148 C149 1.399 . S
C148 C153 1.399 . S
C149 C148 1.399 . S
C149 C150 1.376 1_455 S
C150 H137 0.930 . S
C150 C149 1.376 1_655 S
C150 C151 1.388 . S
C151 H138 0.930 . S
C151 C150 1.388 . S
C151 C152 1.390 . S
C152 C151 1.390 . S
C152 C153 1.394 1_655 S
C152 C158 1.465 . S
C153 C148 1.399 . S
C153 C152 1.394 1_455 S
C153 C154 1.516 . S
C154 C153 1.516 . S
C154 C155 1.502 . S
C154 C156 1.561 . S
C154 C157 1.526 . S
C155 H139 0.959 . S
C155 H140 0.959 . S
C155 H141 0.961 . S
C155 C154 1.502 . S
C156 H142 0.960 . S
C156 H143 0.961 . S
C156 H144 0.959 . S
C156 C154 1.561 . S
C157 C154 1.526 . S
C157 C158 1.396 1_455 S
C157 C162 1.390 . S
C158 C152 1.465 . S
C158 C157 1.396 1_655 S
C158 C159 1.399 . S
C159 H145 0.929 . S
C159 C158 1.399 . S
C159 C160 1.385 . S
C160 H146 0.931 . S
C160 C159 1.385 . S
C160 C161 1.389 1_655 S
C161 C160 1.389 1_455 S
C161 C162 1.387 . S
C162 H147 0.930 . S
C162 C157 1.390 . S
C162 C161 1.387 . S
H163 C175 0.930 . S
H164 C177 0.930 . S
H165 C178 0.930 . S
H166 C182 0.959 . S
H167 C182 0.959 . S
H168 C182 0.961 . S
H169 C183 0.960 . S
H170 C183 0.961 . S
H171 C183 0.959 . S
H172 C186 0.929 . S
H173 C187 0.931 . S
H174 C189 0.930 . S
C175 H163 0.930 . S
C175 C176 1.399 . S
C175 C180 1.399 . S
C176 C175 1.399 . S
C176 C177 1.376 . S
C177 H164 0.930 . S
C177 C176 1.376 . S
C177 C178 1.388 . S
C178 H165 0.930 . S
C178 C177 1.388 . S
C178 C179 1.390 . S
C179 C178 1.390 . S
C179 C180 1.394 . S
C179 C185 1.465 . S
C180 C175 1.399 . S
C180 C179 1.394 . S
C180 C181 1.516 . S
C181 C180 1.516 . S
C181 C182 1.502 . S
C181 C183 1.561 . S
C181 C184 1.526 . S
C182 H166 0.959 . S
C182 H167 0.959 . S
C182 H168 0.961 . S
C182 C181 1.502 . S
C183 H169 0.960 . S
C183 H170 0.961 . S
C183 H171 0.959 . S
C183 C181 1.561 . S
C184 C181 1.526 . S
C184 C185 1.396 . S
C184 C189 1.390 . S
C185 C179 1.465 . S
C185 C184 1.396 . S
C185 C186 1.399 . S
C186 H172 0.929 . S
C186 C185 1.399 . S
C186 C187 1.385 . S
C187 H173 0.931 . S
C187 C186 1.385 . S
C187 C188 1.389 . S
C188 C187 1.389 . S
C188 C189 1.387 . S
C189 H174 0.930 . S
C189 C184 1.390 . S
C189 C188 1.387 . S
H190 C202 0.930 . S
H191 C204 0.930 . S
H192 C205 0.930 . S
H193 C209 0.959 . S
H194 C209 0.959 . S
H195 C209 0.961 . S
H196 C210 0.960 . S
H197 C210 0.961 . S
H198 C210 0.959 . S
H199 C213 0.929 . S
H200 C214 0.931 . S
H201 C216 0.930 . S
C202 H190 0.930 . S
C202 C203 1.399 . S
C202 C207 1.399 . S
C203 C202 1.399 . S
C203 C204 1.376 . S
C204 H191 0.930 . S
C204 C203 1.376 . S
C204 C205 1.388 1_554 S
C205 H192 0.930 . S
C205 C204 1.388 1_556 S
C205 C206 1.390 . S
C206 C205 1.390 . S
C206 C207 1.394 1_556 S
C206 C212 1.465 . S
C207 C202 1.399 . S
C207 C206 1.394 1_554 S
C207 C208 1.516 . S
C208 C207 1.516 . S
C208 C209 1.502 . S
C208 C210 1.561 . S
C208 C211 1.526 1_554 S
C209 H193 0.959 . S
C209 H194 0.959 . S
C209 H195 0.961 . S
C209 C208 1.502 . S
C210 H196 0.960 . S
C210 H197 0.961 . S
C210 H198 0.959 . S
C210 C208 1.561 . S
C211 C208 1.526 1_556 S
C211 C212 1.396 . S
C211 C216 1.390 . S
C212 C206 1.465 . S
C212 C211 1.396 . S
C212 C213 1.399 . S
C213 H199 0.929 . S
C213 C212 1.399 . S
C213 C214 1.385 . S
C214 H200 0.931 . S
C214 C213 1.385 . S
C214 C215 1.389 . S
C215 C214 1.389 . S
C215 C216 1.387 . S
C216 H201 0.930 . S
C216 C211 1.390 . S
C216 C215 1.387 . S
H217 C229 0.930 . S
H218 C231 0.930 . S
H219 C232 0.930 . S
H220 C236 0.959 . S
H221 C236 0.959 . S
H222 C236 0.961 . S
H223 C237 0.960 . S
H224 C237 0.961 . S
H225 C237 0.959 . S
H226 C240 0.929 . S
H227 C241 0.931 . S
H228 C243 0.930 . S
C229 H217 0.930 . S
C229 C230 1.399 . S
C229 C234 1.399 . S
C230 C229 1.399 . S
C230 C231 1.376 . S
C231 H218 0.930 . S
C231 C230 1.376 . S
C231 C232 1.388 . S
C232 H219 0.930 . S
C232 C231 1.388 . S
C232 C233 1.390 . S
C233 C232 1.390 . S
C233 C234 1.394 . S
C233 C239 1.465 . S
C234 C229 1.399 . S
C234 C233 1.394 . S
C234 C235 1.516 . S
C235 C234 1.516 . S
C235 C236 1.502 . S
C235 C237 1.561 . S
C235 C238 1.526 . S
C236 H220 0.959 . S
C236 H221 0.959 . S
C236 H222 0.961 . S
C236 C235 1.502 . S
C237 H223 0.960 . S
C237 H224 0.961 . S
C237 H225 0.959 . S
C237 C235 1.561 . S
C238 C235 1.526 . S
C238 C239 1.396 . S
C238 C243 1.390 . S
C239 C233 1.465 . S
C239 C238 1.396 . S
C239 C240 1.399 . S
C240 H226 0.929 . S
C240 C239 1.399 . S
C240 C241 1.385 . S
C241 H227 0.931 . S
C241 C240 1.385 . S
C241 C242 1.389 . S
C242 C241 1.389 . S
C242 C243 1.387 . S
C243 H228 0.930 . S
C243 C238 1.390 . S
C243 C242 1.387 . S
H244 C256 0.930 . S
H245 C258 0.930 . S
H246 C259 0.930 . S
H247 C263 0.959 . S
H248 C263 0.959 . S
H249 C263 0.961 . S
H250 C264 0.960 . S
H251 C264 0.961 . S
H252 C264 0.959 . S
H253 C267 0.929 . S
H254 C268 0.931 . S
H255 C270 0.930 . S
C256 H244 0.930 . S
C256 C257 1.399 . S
C256 C261 1.399 . S
C257 C256 1.399 . S
C257 C258 1.376 . S
C258 H245 0.930 . S
C258 C257 1.376 . S
C258 C259 1.388 . S
C259 H246 0.930 . S
C259 C258 1.388 . S
C259 C260 1.390 . S
C260 C259 1.390 . S
C260 C261 1.394 . S
C260 C266 1.465 . S
C261 C256 1.399 . S
C261 C260 1.394 . S
C261 C262 1.516 . S
C262 C261 1.516 . S
C262 C263 1.502 . S
C262 C264 1.561 . S
C262 C265 1.526 . S
C263 H247 0.959 . S
C263 H248 0.959 . S
C263 H249 0.961 . S
C263 C262 1.502 . S
C264 H250 0.960 . S
C264 H251 0.961 . S
C264 H252 0.959 . S
C264 C262 1.561 . S
C265 C262 1.526 . S
C265 C266 1.396 . S
C265 C270 1.390 . S
C266 C260 1.465 . S
C266 C265 1.396 . S
C266 C267 1.399 . S
C267 H253 0.929 . S
C267 C266 1.399 . S
C267 C268 1.385 . S
C268 H254 0.931 . S
C268 C267 1.385 . S
C268 C269 1.389 . S
C269 C268 1.389 . S
C269 C270 1.387 . S
C270 H255 0.930 . S
C270 C265 1.390 . S
C270 C269 1.387 . S
H271 C283 0.930 . S
H272 C285 0.930 . S
H273 C286 0.930 . S
H274 C290 0.959 . S
H275 C290 0.959 . S
H276 C290 0.961 . S
H277 C291 0.960 . S
H278 C291 0.961 . S
H279 C291 0.959 . S
H280 C294 0.929 . S
H281 C295 0.931 . S
H282 C297 0.930 . S
C283 H271 0.930 . S
C283 C284 1.399 . S
C283 C288 1.399 . S
C284 C283 1.399 . S
C284 C285 1.376 . S
C285 H272 0.930 . S
C285 C284 1.376 . S
C285 C286 1.388 . S
C286 H273 0.930 . S
C286 C285 1.388 . S
C286 C287 1.390 . S
C287 C286 1.390 . S
C287 C288 1.394 . S
C287 C293 1.465 . S
C288 C283 1.399 . S
C288 C287 1.394 . S
C288 C289 1.516 . S
C289 C288 1.516 . S
C289 C290 1.502 . S
C289 C291 1.561 . S
C289 C292 1.526 . S
C290 H274 0.959 . S
C290 H275 0.959 . S
C290 H276 0.961 . S
C290 C289 1.502 . S
C291 H277 0.960 . S
C291 H278 0.961 . S
C291 H279 0.959 . S
C291 C289 1.561 . S
C292 C289 1.526 . S
C292 C293 1.396 . S
C292 C297 1.390 . S
C293 C287 1.465 . S
C293 C292 1.396 . S
C293 C294 1.399 . S
C294 H280 0.929 . S
C294 C293 1.399 . S
C294 C295 1.385 . S
C295 H281 0.931 . S
C295 C294 1.385 . S
C295 C296 1.389 . S
C296 C295 1.389 . S
C296 C297 1.387 . S
C297 H282 0.930 . S
C297 C292 1.390 . S
C297 C296 1.387 . S
H298 C310 0.930 . S
H299 C312 0.930 . S
H300 C313 0.930 1_545 S
H301 C317 0.959 . S
H302 C317 0.959 . S
H303 C317 0.961 . S
H304 C318 0.960 . S
H305 C318 0.961 . S
H306 C318 0.959 . S
H307 C321 0.929 . S
H308 C322 0.931 . S
H309 C324 0.930 . S
C310 H298 0.930 . S
C310 C311 1.399 . S
C310 C315 1.399 . S
C311 C310 1.399 . S
C311 C312 1.376 . S
C312 H299 0.930 . S
C312 C311 1.376 . S
C312 C313 1.388 . S
C313 H300 0.930 1_565 S
C313 C312 1.388 . S
C313 C314 1.390 . S
C314 C313 1.390 . S
C314 C315 1.394 . S
C314 C320 1.465 1_565 S
C315 C310 1.399 . S
C315 C314 1.394 . S
C315 C316 1.516 1_556 S
C316 C315 1.516 1_554 S
C316 C317 1.502 . S
C316 C318 1.561 . S
C316 C319 1.526 1_565 S
C317 H301 0.959 . S
C317 H302 0.959 . S
C317 H303 0.961 . S
C317 C316 1.502 . S
C318 H304 0.960 . S
C318 H305 0.961 . S
C318 H306 0.959 . S
C318 C316 1.561 . S
C319 C316 1.526 1_545 S
C319 C320 1.396 1_554 S
C319 C324 1.390 . S
C320 C314 1.465 1_545 S
C320 C319 1.396 1_556 S
C320 C321 1.399 . S
C321 H307 0.929 . S
C321 C320 1.399 . S
C321 C322 1.385 1_556 S
C322 H308 0.931 . S
C322 C321 1.385 1_554 S
C322 C323 1.389 . S
C323 C322 1.389 . S
C323 C324 1.387 . S
C324 H309 0.930 . S
C324 C319 1.390 . S
C324 C323 1.387 . S
H325 C337 0.930 . S
H326 C339 0.930 . S
H327 C340 0.930 . S
H328 C344 0.959 . S
H329 C344 0.959 . S
H330 C344 0.961 . S
H331 C345 0.960 . S
H332 C345 0.961 . S
H333 C345 0.959 . S
H334 C348 0.929 1_565 S
H335 C349 0.931 . S
H336 C351 0.930 . S
C337 H325 0.930 . S
C337 C338 1.399 . S
C337 C342 1.399 . S
C338 C337 1.399 . S
C338 C339 1.376 . S
C339 H326 0.930 . S
C339 C338 1.376 . S
C339 C340 1.388 . S
C340 H327 0.930 . S
C340 C339 1.388 . S
C340 C341 1.390 . S
C341 C340 1.390 . S
C341 C342 1.394 . S
C341 C347 1.465 1_565 S
C342 C337 1.399 . S
C342 C341 1.394 . S
C342 C343 1.516 1_565 S
C343 C342 1.516 1_545 S
C343 C344 1.502 1_455 S
C343 C345 1.561 . S
C343 C346 1.526 . S
C344 H328 0.959 . S
C344 H329 0.959 . S
C344 H330 0.961 . S
C344 C343 1.502 1_655 S
C345 H331 0.960 . S
C345 H332 0.961 . S
C345 H333 0.959 . S
C345 C343 1.561 . S
C346 C343 1.526 . S
C346 C347 1.396 . S
C346 C351 1.390 . S
C347 C341 1.465 1_545 S
C347 C346 1.396 . S
C347 C348 1.399 . S
C348 H334 0.929 1_545 S
C348 C347 1.399 . S
C348 C349 1.385 . S
C349 H335 0.931 . S
C349 C348 1.385 . S
C349 C350 1.389 . S
C350 C349 1.389 . S
C350 C351 1.387 . S
C351 H336 0.930 . S
C351 C346 1.390 . S
C351 C350 1.387 . S
H352 C364 0.930 1_554 S
H353 C366 0.930 . S
H354 C367 0.930 . S
H355 C371 0.959 . S
H356 C371 0.959 . S
H357 C371 0.961 . S
H358 C372 0.960 . S
H359 C372 0.961 . S
H360 C372 0.959 . S
H361 C375 0.929 . S
H362 C376 0.931 . S
H363 C378 0.930 . S
C364 H352 0.930 1_556 S
C364 C365 1.399 1_556 S
C364 C369 1.399 . S
C365 C364 1.399 1_554 S
C365 C366 1.376 . S
C366 H353 0.930 . S
C366 C365 1.376 . S
C366 C367 1.388 1_554 S
C367 H354 0.930 . S
C367 C366 1.388 1_556 S
C367 C368 1.390 . S
C368 C367 1.390 . S
C368 C369 1.394 . S
C368 C374 1.465 . S
C369 C364 1.399 . S
C369 C368 1.394 . S
C369 C370 1.516 . S
C370 C369 1.516 . S
C370 C371 1.502 1_455 S
C370 C372 1.561 . S
C370 C373 1.526 . S
C371 H355 0.959 . S
C371 H356 0.959 . S
C371 H357 0.961 . S
C371 C370 1.502 1_655 S
C372 H358 0.960 . S
C372 H359 0.961 . S
C372 H360 0.959 . S
C372 C370 1.561 . S
C373 C370 1.526 . S
C373 C374 1.396 . S
C373 C378 1.390 . S
C374 C368 1.465 . S
C374 C373 1.396 . S
C374 C375 1.399 . S
C375 H361 0.929 . S
C375 C374 1.399 . S
C375 C376 1.385 . S
C376 H362 0.931 . S
C376 C375 1.385 . S
C376 C377 1.389 . S
C377 C376 1.389 . S
C377 C378 1.387 . S
C378 H363 0.930 . S
C378 C373 1.390 . S
C378 C377 1.387 . S
H379 C391 0.930 1_556 S
H380 C393 0.930 . S
H381 C394 0.930 . S
H382 C398 0.959 . S
H383 C398 0.959 . S
H384 C398 0.961 . S
H385 C399 0.960 . S
H386 C399 0.961 . S
H387 C399 0.959 . S
H388 C402 0.930 . S
H389 C403 0.931 . S
H390 C405 0.930 . S
C391 H379 0.930 1_554 S
C391 C392 1.399 1_554 S
C391 C396 1.399 . S
C392 C391 1.399 1_556 S
C392 C393 1.376 1_455 S
C393 H380 0.930 . S
C393 C392 1.376 1_655 S
C393 C394 1.388 1_556 S
C394 H381 0.930 . S
C394 C393 1.388 1_554 S
C394 C395 1.390 1_655 S
C395 C394 1.390 1_455 S
C395 C396 1.394 . S
C395 C401 1.465 . S
C396 C391 1.399 . S
C396 C395 1.394 . S
C396 C397 1.516 . S
C397 C396 1.516 . S
C397 C398 1.502 . S
C397 C399 1.561 1_455 S
C397 C400 1.526 . S
C398 H382 0.959 . S
C398 H383 0.959 . S
C398 H384 0.961 . S
C398 C397 1.502 . S
C399 H385 0.960 . S
C399 H386 0.961 . S
C399 H387 0.959 . S
C399 C397 1.561 1_655 S
C400 C397 1.526 . S
C400 C401 1.396 . S
C400 C405 1.390 . S
C401 C395 1.465 . S
C401 C400 1.396 . S
C401 C402 1.398 1_455 S
C402 H388 0.930 . S
C402 C401 1.398 1_655 S
C402 C403 1.385 1_655 S
C403 H389 0.931 . S
C403 C402 1.385 1_455 S
C403 C404 1.389 . S
C404 C403 1.389 . S
C404 C405 1.387 . S
C405 H390 0.930 . S
C405 C400 1.390 . S
C405 C404 1.387 . S
H406 C418 0.930 . S
H407 C420 0.930 . S
H408 C421 0.930 . S
H409 C425 0.959 . S
H410 C425 0.959 . S
H411 C425 0.961 . S
H412 C426 0.960 . S
H413 C426 0.961 . S
H414 C426 0.959 . S
H415 C429 0.929 . S
H416 C430 0.931 . S
H417 C432 0.930 . S
C418 H406 0.930 . S
C418 C419 1.399 . S
C418 C423 1.399 . S
C419 C418 1.399 . S
C419 C420 1.376 . S
C420 H407 0.930 . S
C420 C419 1.376 . S
C420 C421 1.388 . S
C421 H408 0.930 . S
C421 C420 1.388 . S
C421 C422 1.390 . S
C422 C421 1.390 . S
C422 C423 1.394 . S
C422 C428 1.465 . S
C423 C418 1.399 . S
C423 C422 1.394 . S
C423 C424 1.516 . S
C424 C423 1.516 . S
C424 C425 1.502 . S
C424 C426 1.561 . S
C424 C427 1.526 . S
C425 H409 0.959 . S
C425 H410 0.959 . S
C425 H411 0.961 . S
C425 C424 1.502 . S
C426 H412 0.960 . S
C426 H413 0.961 . S
C426 H414 0.959 . S
C426 C424 1.561 . S
C427 C424 1.526 . S
C427 C428 1.396 . S
C427 C432 1.390 . S
C428 C422 1.465 . S
C428 C427 1.396 . S
C428 C429 1.399 . S
C429 H415 0.929 . S
C429 C428 1.399 . S
C429 C430 1.385 . S
C430 H416 0.931 . S
C430 C429 1.385 . S
C430 C431 1.389 . S
C431 C430 1.389 . S
C431 C432 1.387 . S
C432 H417 0.930 . S
C432 C427 1.390 . S
C432 C431 1.387 . S
H433 C445 0.930 . S
H434 C447 0.930 . S
H435 C448 0.930 . S
H436 C452 0.959 . S
H437 C452 0.959 . S
H438 C452 0.961 . S
H439 C453 0.960 . S
H440 C453 0.961 . S
H441 C453 0.959 . S
H442 C456 0.929 . S
H443 C457 0.931 . S
H444 C459 0.930 . S
C445 H433 0.930 . S
C445 C446 1.399 . S
C445 C450 1.399 . S
C446 C445 1.399 . S
C446 C447 1.376 . S
C447 H434 0.930 . S
C447 C446 1.376 . S
C447 C448 1.388 . S
C448 H435 0.930 . S
C448 C447 1.388 . S
C448 C449 1.390 . S
C449 C448 1.390 . S
C449 C450 1.394 . S
C449 C455 1.465 . S
C450 C445 1.399 . S
C450 C449 1.394 . S
C450 C451 1.516 . S
C451 C450 1.516 . S
C451 C452 1.502 . S
C451 C453 1.561 . S
C451 C454 1.526 . S
C452 H436 0.959 . S
C452 H437 0.959 . S
C452 H438 0.961 . S
C452 C451 1.502 . S
C453 H439 0.960 . S
C453 H440 0.961 . S
C453 H441 0.959 . S
C453 C451 1.561 . S
C454 C451 1.526 . S
C454 C455 1.396 . S
C454 C459 1.390 . S
C455 C449 1.465 . S
C455 C454 1.396 . S
C455 C456 1.399 . S
C456 H442 0.929 . S
C456 C455 1.399 . S
C456 C457 1.385 . S
C457 H443 0.931 . S
C457 C456 1.385 . S
C457 C458 1.389 . S
C458 C457 1.389 . S
C458 C459 1.387 . S
C459 H444 0.930 . S
C459 C454 1.390 . S
C459 C458 1.387 . S
C149 C17 1.988 . S
C161 C42 1.969 . S
C176 C68 2.124 . S
C188 C63 2.096 . S
C203 C119 2.026 . S
C215 C76 2.079 . S
C230 C29 1.897 . S
C242 C102 1.934 . S
C257 C131 2.093 . S
C269 C0 2.126 . S
C284 C97 1.928 . S
C296 C34 1.923 . S
C311 C85 1.996 . S
C323 C110 1.946 . S
C338 C51 2.027 . S
C350 C8 2.080 . S
C365 C4 0.635 . S
C377 C13 0.612 . S
C392 C47 0.630 . S
C404 C38 0.618 . S
C419 C81 0.630 . S
C431 C72 0.619 . S
C446 C115 0.640 . S
C458 C106 0.606 . S
