# Generated by pormake.
# Topology ung, (4)-cn, num edge types: 1
# Building blocks:
#     Node 0, Type 0, BuildingBlock: KUFVIS_clean_sbu_0, # of connection points: 4
#     Node 1, Type 0, BuildingBlock: KUFVIS_clean_sbu_0, # of connection points: 4
#     Node 2, Type 0, BuildingBlock: KUFVIS_clean_sbu_0, # of connection points: 4
#     Node 3, Type 0, BuildingBlock: KUFVIS_clean_sbu_0, # of connection points: 4
#     Node 4, Type 0, BuildingBlock: KUFVIS_clean_sbu_0, # of connection points: 4
#     Node 5, Type 0, BuildingBlock: KUFVIS_clean_sbu_0, # of connection points: 4
#     Node 6, Type 0, BuildingBlock: KUFVIS_clean_sbu_0, # of connection points: 4
#     Node 7, Type 0, BuildingBlock: KUFVIS_clean_sbu_0, # of connection points: 4
#     Node 8, Type 0, BuildingBlock: KUFVIS_clean_sbu_0, # of connection points: 4
#     Node 9, Type 0, BuildingBlock: KUFVIS_clean_sbu_0, # of connection points: 4
#     Node 10, Type 0, BuildingBlock: KUFVIS_clean_sbu_0, # of connection points: 4
#     Node 11, Type 0, BuildingBlock: KUFVIS_clean_sbu_0, # of connection points: 4
#     Node 12, Type 0, BuildingBlock: KUFVIS_clean_sbu_0, # of connection points: 4
#     Node 13, Type 0, BuildingBlock: KUFVIS_clean_sbu_0, # of connection points: 4
#     Node 14, Type 0, BuildingBlock: KUFVIS_clean_sbu_0, # of connection points: 4
#     Node 15, Type 0, BuildingBlock: KUFVIS_clean_sbu_0, # of connection points: 4
#     Node 16, Type 0, BuildingBlock: KUFVIS_clean_sbu_0, # of connection points: 4
#     Node 17, Type 0, BuildingBlock: KUFVIS_clean_sbu_0, # of connection points: 4
#     Edge 18, Type (0, 0), BuildingBlock: XIVTED_clean_linker_0, # of connection points: 2
#     Edge 19, Type (0, 0), BuildingBlock: XIVTED_clean_linker_0, # of connection points: 2
#     Edge 20, Type (0, 0), BuildingBlock: XIVTED_clean_linker_0, # of connection points: 2
#     Edge 21, Type (0, 0), BuildingBlock: XIVTED_clean_linker_0, # of connection points: 2
#     Edge 22, Type (0, 0), BuildingBlock: XIVTED_clean_linker_0, # of connection points: 2
#     Edge 23, Type (0, 0), BuildingBlock: XIVTED_clean_linker_0, # of connection points: 2
#     Edge 24, Type (0, 0), BuildingBlock: XIVTED_clean_linker_0, # of connection points: 2
#     Edge 25, Type (0, 0), BuildingBlock: XIVTED_clean_linker_0, # of connection points: 2
#     Edge 26, Type (0, 0), BuildingBlock: XIVTED_clean_linker_0, # of connection points: 2
#     Edge 27, Type (0, 0), BuildingBlock: XIVTED_clean_linker_0, # of connection points: 2
#     Edge 28, Type (0, 0), BuildingBlock: XIVTED_clean_linker_0, # of connection points: 2
#     Edge 29, Type (0, 0), BuildingBlock: XIVTED_clean_linker_0, # of connection points: 2
#     Edge 30, Type (0, 0), BuildingBlock: XIVTED_clean_linker_0, # of connection points: 2
#     Edge 31, Type (0, 0), BuildingBlock: XIVTED_clean_linker_0, # of connection points: 2
#     Edge 32, Type (0, 0), BuildingBlock: XIVTED_clean_linker_0, # of connection points: 2
#     Edge 33, Type (0, 0), BuildingBlock: XIVTED_clean_linker_0, # of connection points: 2
#     Edge 34, Type (0, 0), BuildingBlock: XIVTED_clean_linker_0, # of connection points: 2
#     Edge 35, Type (0, 0), BuildingBlock: XIVTED_clean_linker_0, # of connection points: 2
#     Edge 36, Type (0, 0), BuildingBlock: XIVTED_clean_linker_0, # of connection points: 2
#     Edge 37, Type (0, 0), BuildingBlock: XIVTED_clean_linker_0, # of connection points: 2
#     Edge 38, Type (0, 0), BuildingBlock: XIVTED_clean_linker_0, # of connection points: 2
#     Edge 39, Type (0, 0), BuildingBlock: XIVTED_clean_linker_0, # of connection points: 2
#     Edge 40, Type (0, 0), BuildingBlock: XIVTED_clean_linker_0, # of connection points: 2
#     Edge 41, Type (0, 0), BuildingBlock: XIVTED_clean_linker_0, # of connection points: 2
#     Edge 42, Type (0, 0), BuildingBlock: XIVTED_clean_linker_0, # of connection points: 2
#     Edge 43, Type (0, 0), BuildingBlock: XIVTED_clean_linker_0, # of connection points: 2
#     Edge 44, Type (0, 0), BuildingBlock: XIVTED_clean_linker_0, # of connection points: 2
#     Edge 45, Type (0, 0), BuildingBlock: XIVTED_clean_linker_0, # of connection points: 2
#     Edge 46, Type (0, 0), BuildingBlock: XIVTED_clean_linker_0, # of connection points: 2
#     Edge 47, Type (0, 0), BuildingBlock: XIVTED_clean_linker_0, # of connection points: 2
#     Edge 48, Type (0, 0), BuildingBlock: XIVTED_clean_linker_0, # of connection points: 2
#     Edge 49, Type (0, 0), BuildingBlock: XIVTED_clean_linker_0, # of connection points: 2
#     Edge 50, Type (0, 0), BuildingBlock: XIVTED_clean_linker_0, # of connection points: 2
#     Edge 51, Type (0, 0), BuildingBlock: XIVTED_clean_linker_0, # of connection points: 2
#     Edge 52, Type (0, 0), BuildingBlock: XIVTED_clean_linker_0, # of connection points: 2
#     Edge 53, Type (0, 0), BuildingBlock: XIVTED_clean_linker_0, # of connection points: 2
# Relax obj value: 0.111
# Max RMSD: 0.233
# Mean RMSD: 0.223
data_MOF--net-ung--node1-KUFVIS_clean_sbu_0--edge1-XIVTED_clean_linker_0
_symmetry_space_group_name_H-M    P1
_symmetry_Int_Tables_number       1
_symmetry_cell_setting            triclinic
loop_
_symmetry_equiv_pos_as_xyz
'x, y, z'
_cell_length_a     72.06706
_cell_length_b     73.332915
_cell_length_c     22.223217
_cell_angle_alpha  89.897256
_cell_angle_beta   89.457632
_cell_angle_gamma 120.59428
loop_
_atom_site_label
_atom_site_type_symbol
_atom_site_fract_x
_atom_site_fract_y
_atom_site_fract_z
_atom_type_partial_charge
Mn0 Mn 0.06279 0.6275 0.27563 0.0
Mn1 Mn 0.00972 0.59098 0.27913 0.0
C2 C 0.0399 0.6298 0.20834 0.0
C3 C 0.09099 0.65923 0.31117 0.0
C4 C 0.04347 0.58324 0.22184 0.0
O5 O 0.05894 0.61297 0.35617 0.0
O6 O 0.02312 0.59017 0.35639 0.0
C7 C 0.99644 0.61056 0.37365 0.0
N8 N 0.99462 0.60319 0.31653 0.0
C9 C 0.96793 0.61247 0.29284 0.0
C10 C 0.9694 0.62002 0.35157 0.0
C11 C 0.98374 0.61908 0.39211 0.0
C12 C 0.98089 0.60403 0.27714 0.0
H13 H 0.00755 0.61001 0.40483 0.0
C14 C 0.04165 0.59855 0.38114 0.0
O15 O 0.09472 0.64514 0.28787 0.0
O16 O 0.07114 0.65463 0.31498 0.0
N17 N 0.99462 0.59006 0.20773 0.0
C18 C 0.99558 0.58267 0.15226 0.0
C19 C 0.98248 0.58283 0.10615 0.0
C20 C 0.96845 0.59047 0.11762 0.0
C21 C 0.96751 0.5977 0.1753 0.0
C22 C 0.98077 0.59693 0.21966 0.0
H23 H 0.00639 0.57685 0.14311 0.0
O24 O 0.06048 0.63956 0.19747 0.0
O25 O 0.03343 0.6194 0.259 0.0
O26 O 0.05978 0.6015 0.23241 0.0
O27 O 0.02421 0.57762 0.23831 0.0
C28 C 0.95415 0.60591 0.19029 0.0
C29 C 0.95438 0.61332 0.24899 0.0
H30 H 0.95973 0.62672 0.36587 0.0
H31 H 0.98505 0.62498 0.4374 0.0
H32 H 0.98328 0.5772 0.06177 0.0
H33 H 0.95854 0.59079 0.08176 0.0
H34 H 0.94379 0.60679 0.15686 0.0
H35 H 0.9442 0.61979 0.25981 0.0
Mn36 Mn 0.5089 0.48171 0.29159 0.0
Mn37 Mn 0.50804 0.52621 0.32634 0.0
C38 C 0.47889 0.47912 0.33699 0.0
C39 C 0.50333 0.45661 0.21894 0.0
C40 C 0.5288 0.508 0.40491 0.0
O41 O 0.5347 0.50426 0.24558 0.0
O42 O 0.53272 0.53277 0.27179 0.0
C43 C 0.49763 0.5337 0.20351 0.0
N44 N 0.4928 0.53065 0.26344 0.0
C45 C 0.4609 0.5328 0.24943 0.0
C46 C 0.46561 0.53611 0.18764 0.0
C47 C 0.48403 0.53652 0.16458 0.0
C48 C 0.475 0.53001 0.28598 0.0
H49 H 0.51171 0.53393 0.18547 0.0
C50 C 0.54173 0.52403 0.24381 0.0
O51 O 0.51559 0.4595 0.26484 0.0
O52 O 0.49472 0.46833 0.21556 0.0
N53 N 0.48527 0.52313 0.3783 0.0
C54 C 0.48379 0.5212 0.4394 0.0
C55 C 0.4664 0.52078 0.46975 0.0
C56 C 0.45103 0.52296 0.43715 0.0
C57 C 0.45347 0.52601 0.37464 0.0
C58 C 0.47119 0.52636 0.34692 0.0
H59 H 0.49572 0.51986 0.46472 0.0
O60 O 0.48186 0.46312 0.33686 0.0
O61 O 0.493 0.49599 0.30758 0.0
O62 O 0.52546 0.49247 0.37123 0.0
O63 O 0.52296 0.5214 0.39266 0.0
C64 C 0.43907 0.52879 0.33876 0.0
C65 C 0.44273 0.5321 0.27616 0.0
H66 H 0.45517 0.5383 0.15747 0.0
H67 H 0.48774 0.53898 0.11691 0.0
H68 H 0.46485 0.51881 0.51815 0.0
H69 H 0.43757 0.52252 0.46066 0.0
H70 H 0.42514 0.52844 0.35887 0.0
H71 H 0.43153 0.53419 0.24903 0.0
Mn72 Mn 0.65683 0.0725 0.22867 0.0
Mn73 Mn 0.67127 0.12408 0.22099 0.0
C74 C 0.68947 0.09651 0.18709 0.0
C75 C 0.65457 0.04513 0.28729 0.0
C76 C 0.64009 0.09075 0.13446 0.0
O77 O 0.63518 0.07425 0.28226 0.0
O78 O 0.64803 0.10937 0.28294 0.0
C79 C 0.69073 0.13676 0.3415 0.0
N80 N 0.69257 0.13924 0.28058 0.0
C81 C 0.72975 0.16687 0.28748 0.0
C82 C 0.72821 0.16472 0.35033 0.0
C83 C 0.70863 0.14957 0.37743 0.0
C84 C 0.71136 0.15369 0.25402 0.0
H85 H 0.67575 0.12503 0.36247 0.0
C86 C 0.63472 0.09041 0.30077 0.0
O87 O 0.64203 0.0411 0.24138 0.0
O88 O 0.66826 0.06481 0.29859 0.0
N89 N 0.69365 0.1405 0.16343 0.0
C90 C 0.69242 0.14063 0.10228 0.0
C91 C 0.7107 0.15484 0.06827 0.0
C92 C 0.72995 0.16893 0.09746 0.0
C93 C 0.73064 0.16892 0.16049 0.0
C94 C 0.71186 0.15454 0.19202 0.0
H95 H 0.67767 0.12985 0.07958 0.0
O96 O 0.68133 0.07642 0.1778 0.0
O97 O 0.67876 0.1019 0.22309 0.0
O98 O 0.64161 0.07522 0.15472 0.0
O99 O 0.64985 0.10932 0.1573 0.0
C100 C 0.74929 0.18246 0.19327 0.0
C101 C 0.74886 0.18139 0.2567 0.0
H102 H 0.742 0.17452 0.3782 0.0
H103 H 0.70735 0.14775 0.42589 0.0
H104 H 0.70999 0.15485 0.01965 0.0
H105 H 0.74406 0.1797 0.07102 0.0
H106 H 0.76408 0.19368 0.17019 0.0
H107 H 0.76335 0.19177 0.28137 0.0
Mn108 Mn 0.06475 0.48965 0.77415 0.0
Mn109 Mn 0.01122 0.47079 0.78459 0.0
C110 C 0.04145 0.46344 0.71014 0.0
C111 C 0.09466 0.48805 0.80483 0.0
C112 C 0.04262 0.5125 0.7235 0.0
O113 O 0.06153 0.50023 0.85546 0.0
O114 O 0.02548 0.48577 0.86011 0.0
C115 C 0.00062 0.43866 0.88015 0.0
N116 N -0.00237 0.44367 0.82343 0.0
C117 C 0.9714 0.40726 0.80286 0.0
C118 C 0.97409 0.40173 0.86122 0.0
C119 C 0.98878 0.4175 0.89998 0.0
C120 C 0.98352 0.42863 0.78577 0.0
H121 H 0.01199 0.45071 0.90995 0.0
C122 C 0.04434 0.4967 0.88262 0.0
O123 O 0.09695 0.50537 0.78164 0.0
O124 O 0.07523 0.47216 0.81158 0.0
N125 N 0.9954 0.45582 0.71492 0.0
C126 C 0.99535 0.46365 0.65928 0.0
C127 C 0.98189 0.44983 0.61466 0.0
C128 C 0.96853 0.42816 0.62779 0.0
C129 C 0.96864 0.42053 0.68561 0.0
C130 C 0.98224 0.43509 0.72843 0.0
H131 H 0.00564 0.48027 0.64882 0.0
O132 O 0.06175 0.47503 0.69622 0.0
O133 O 0.03549 0.4673 0.76162 0.0
O134 O 0.05965 0.51158 0.73179 0.0
O135 O 0.02392 0.49832 0.74244 0.0
C136 C 0.95604 0.39901 0.70213 0.0
C137 C 0.95745 0.39236 0.76066 0.0
H138 H 0.96509 0.38541 0.87657 0.0
H139 H 0.99102 0.41333 0.94497 0.0
H140 H 0.9819 0.45585 0.57016 0.0
H141 H 0.95834 0.41751 0.59307 0.0
H142 H 0.94537 0.38742 0.66995 0.0
H143 H 0.94787 0.37572 0.77258 0.0
Mn144 Mn 0.6508 0.62919 0.78764 0.0
Mn145 Mn 0.60496 0.62996 0.81394 0.0
C146 C 0.65271 0.65882 0.82824 0.0
C147 C 0.67725 0.63346 0.7197 0.0
C148 C 0.62204 0.60994 0.89927 0.0
O149 O 0.62878 0.60373 0.74235 0.0
O150 O 0.59905 0.60522 0.76274 0.0
C151 C 0.59952 0.63944 0.6879 0.0
N152 N 0.60177 0.64465 0.74728 0.0
C153 C 0.60101 0.67647 0.72619 0.0
C154 C 0.59855 0.67136 0.66489 0.0
C155 C 0.59783 0.65278 0.64568 0.0
C156 C 0.60268 0.6626 0.76614 0.0
H157 H 0.59909 0.62525 0.67277 0.0
C158 C 0.6087 0.59651 0.73794 0.0
O159 O 0.67326 0.62188 0.76783 0.0
O160 O 0.66603 0.64253 0.71156 0.0
N161 N 0.60736 0.65274 0.8618 0.0
C162 C 0.60793 0.65446 0.92287 0.0
C163 C 0.60836 0.672 0.94964 0.0
C164 C 0.60753 0.68727 0.91344 0.0
C165 C 0.60573 0.68457 0.85091 0.0
C166 C 0.60534 0.66673 0.82686 0.0
H167 H 0.60821 0.64261 0.95085 0.0
O168 O 0.66895 0.65589 0.83146 0.0
O169 O 0.63609 0.64487 0.79806 0.0
O170 O 0.63835 0.61325 0.86741 0.0
O171 O 0.60858 0.61563 0.88431 0.0
C172 C 0.60415 0.69878 0.81154 0.0
C173 C 0.60187 0.69478 0.74919 0.0
H174 H 0.59722 0.6816 0.63219 0.0
H175 H 0.59602 0.64876 0.59842 0.0
H176 H 0.6093 0.67373 -0.00195 0.0
H177 H 0.60796 0.70083 0.93419 0.0
H178 H 0.60458 0.7128 0.82878 0.0
H179 H 0.60065 0.70581 0.71936 0.0
Mn180 Mn 0.51064 0.07794 0.72637 0.0
Mn181 Mn 0.50231 0.02826 0.72937 0.0
C182 C 0.48306 0.05238 0.78419 0.0
C183 C 0.50503 0.10248 0.67564 0.0
C184 C 0.53754 0.06481 0.79971 0.0
O185 O 0.52886 0.07777 0.65713 0.0
O186 O 0.51927 0.04338 0.65614 0.0
C187 C 0.47382 0.01131 0.6239 0.0
N188 N 0.47733 0.01013 0.68352 0.0
C189 C 0.4422 0.97913 0.69681 0.0
C190 C 0.43826 0.97992 0.63545 0.0
C191 C 0.45413 0.99611 0.59889 0.0
C192 C 0.46214 0.99469 0.71916 0.0
H193 H 0.48594 0.02379 0.59573 0.0
C194 C 0.52938 0.06218 0.63402 0.0
O195 O 0.52114 0.10871 0.71205 0.0
O196 O 0.49229 0.08227 0.66953 0.0
N197 N 0.48603 0.01152 0.79744 0.0
C198 C 0.49226 0.01317 0.85587 0.0
C199 C 0.4781 0.99831 0.89851 0.0
C200 C 0.45784 0.98178 0.88055 0.0
C201 C 0.452 0.98011 0.81993 0.0
C202 C 0.46684 0.99529 0.77937 0.0
H203 H 0.50782 0.02581 0.86996 0.0
O204 O 0.48983 0.07226 0.79327 0.0
O205 O 0.49187 0.04801 0.7395 0.0
O206 O 0.53262 0.07878 0.78599 0.0
O207 O 0.5278 0.04595 0.779 0.0
C208 C 0.43193 0.96415 0.79828 0.0
C209 C 0.42701 0.9637 0.7368 0.0
H210 H 0.42307 0.96827 0.61602 0.0
H211 H 0.45117 0.99688 0.55156 0.0
H212 H 0.48278 -0.00036 0.94516 0.0
H213 H 0.44688 0.97047 0.91368 0.0
H214 H 0.42008 0.95227 0.82864 0.0
H215 H 0.41144 0.95147 0.72081 0.0
Mn216 Mn 0.73388 0.96852 0.57752 0.0
Mn217 Mn 0.68317 0.92654 0.57391 0.0
C218 C 0.70851 0.97033 0.52031 0.0
C219 C 0.75955 -0.00114 0.62619 0.0
C220 C 0.71986 0.92934 0.4992 0.0
O221 O 0.73315 0.95041 0.64674 0.0
O222 O 0.69903 0.92324 0.64263 0.0
C223 C 0.66764 0.93582 0.68701 0.0
N224 N 0.66583 0.93251 0.62653 0.0
C225 C 0.63556 0.93784 0.62262 0.0
C226 C 0.63701 0.94116 0.68494 0.0
C227 C 0.65314 0.94017 0.71724 0.0
C228 C 0.65043 0.93353 0.59497 0.0
H229 H 0.68009 0.9352 0.71197 0.0
C230 C 0.7178 0.93278 0.66611 0.0
O231 O 0.7653 0.98841 0.591 0.0
O232 O 0.73908 0.99167 0.63285 0.0
N233 N 0.66567 0.92719 0.51069 0.0
C234 C 0.66622 0.92323 0.45099 0.0
C235 C 0.65114 0.92363 0.41229 0.0
C236 C 0.63549 0.92781 0.43545 0.0
C237 C 0.63486 0.93124 0.4973 0.0
C238 C 0.6502 0.93048 0.53374 0.0
H239 H 0.67822 0.92001 0.43293 0.0
O240 O 0.7289 0.98339 0.51069 0.0
O241 O 0.70348 0.95711 0.56528 0.0
O242 O 0.7344 0.94749 0.51799 0.0
O243 O 0.70021 0.91993 0.5174 0.0
C244 C 0.61967 0.93546 0.52419 0.0
C245 C 0.62004 0.9388 0.58679 0.0
H246 H 0.62589 0.94457 0.70841 0.0
H247 H 0.65442 0.9428 0.76531 0.0
H248 H 0.65164 0.92082 0.36467 0.0
H249 H 0.62399 0.92828 0.40538 0.0
H250 H 0.60766 0.93624 0.49712 0.0
H251 H 0.60834 0.94212 0.60691 0.0
Mn252 Mn 0.18067 0.8233 0.57886 0.0
Mn253 Mn 0.17274 0.86431 0.59856 0.0
C254 C 0.15318 0.81944 0.6417 0.0
C255 C 0.17401 0.79504 0.51726 0.0
C256 C 0.20916 0.86103 0.65537 0.0
O257 O 0.19878 0.84422 0.51257 0.0
O258 O 0.18665 0.86706 0.51933 0.0
C259 C 0.14067 0.85513 0.50363 0.0
N260 N 0.14644 0.85878 0.56251 0.0
C261 C 0.11273 0.85595 0.59037 0.0
C262 C 0.10652 0.85241 0.52993 0.0
C263 C 0.12052 0.85191 0.48642 0.0
C264 C 0.13301 0.85908 0.60482 0.0
H265 H 0.15134 0.85461 0.47015 0.0
C266 C 0.19728 0.85974 0.49269 0.0
O267 O 0.1904 0.80318 0.55324 0.0
O268 O 0.16172 0.80315 0.51794 0.0
N269 N 0.15906 0.86336 0.67369 0.0
C270 C 0.16694 0.86578 0.73046 0.0
C271 C 0.15455 0.86585 0.77951 0.0
C272 C 0.13432 0.8637 0.76965 0.0
C273 C 0.12669 0.86154 0.71077 0.0
C274 C 0.13975 0.86161 0.66367 0.0
H275 H 0.18253 0.86762 0.73833 0.0
O276 O 0.15972 0.80594 0.64437 0.0
O277 O 0.1623 0.8341 0.60084 0.0
O278 O 0.20295 0.8419 0.6414 0.0
O279 O 0.19989 0.87106 0.63828 0.0
C280 C 0.10653 0.85911 0.69704 0.0
C281 C 0.09946 0.85616 0.63698 0.0
H282 H 0.09096 0.84985 0.51652 0.0
H283 H 0.11578 0.84901 0.43975 0.0
H284 H 0.1606 0.86757 0.82479 0.0
H285 H 0.12474 0.86365 0.80761 0.0
H286 H 0.09632 0.85937 0.73243 0.0
H287 H 0.08374 0.85393 0.62723 0.0
Mn288 Mn 0.30273 0.38311 0.52855 0.0
Mn289 Mn 0.26717 0.33084 0.5159 0.0
C290 C 0.30413 0.3597 0.59467 0.0
C291 C 0.33493 0.41259 0.50049 0.0
C292 C 0.25619 0.36136 0.57495 0.0
O293 O 0.29041 0.38106 0.44604 0.0
O294 O 0.26758 0.34591 0.44031 0.0
C295 C 0.29049 0.32172 0.42142 0.0
N296 N 0.28143 0.31795 0.47749 0.0
C297 C 0.29134 0.2918 0.49785 0.0
C298 C 0.30064 0.29528 0.44016 0.0
C299 C 0.30024 0.31033 0.40183 0.0
C300 C 0.28176 0.30354 0.51478 0.0
H301 H 0.29033 0.33336 0.39195 0.0
C302 C 0.27647 0.36472 0.41822 0.0
O303 O 0.31931 0.41464 0.52222 0.0
O304 O 0.33173 0.39364 0.49424 0.0
N305 N 0.26504 0.31418 0.58487 0.0
C306 C 0.25602 0.31324 0.63983 0.0
C307 C 0.25546 0.29921 0.68386 0.0
C308 C 0.26399 0.28617 0.67079 0.0
C309 C 0.27295 0.28723 0.6137 0.0
C310 C 0.2729 0.3014 0.57145 0.0
H311 H 0.24949 0.32326 0.65019 0.0
O312 O 0.31289 0.37959 0.60798 0.0
O313 O 0.29524 0.35412 0.54191 0.0
O314 O 0.27464 0.37793 0.56689 0.0
O315 O 0.25156 0.34291 0.55755 0.0
C316 C 0.28225 0.27504 0.59736 0.0
C317 C 0.29147 0.27736 0.53953 0.0
H318 H 0.30826 0.28661 0.42498 0.0
H319 H 0.30748 0.31319 0.35736 0.0
H320 H 0.24852 0.29848 0.72783 0.0
H321 H 0.26358 0.27544 0.70494 0.0
H322 H 0.28258 0.26399 0.6291 0.0
H323 H 0.29877 0.26806 0.52772 0.0
Mn324 Mn 0.74206 0.82537 0.07344 0.0
Mn325 Mn 0.79224 0.8682 0.07614 0.0
C326 C 0.7688 0.82324 0.12248 0.0
C327 C 0.71643 0.79599 0.02163 0.0
C328 C 0.75597 0.86263 0.15892 0.0
O329 O 0.74095 0.84487 0.0113 0.0
O330 O 0.77532 0.87173 0.01107 0.0
C331 C 0.80729 0.86124 0.95873 0.0
N332 N 0.80964 0.86378 0.01942 0.0
C333 C 0.84062 0.85954 0.01701 0.0
C334 C 0.83864 0.85704 0.95443 0.0
C335 C 0.82188 0.85787 0.92519 0.0
C336 C 0.82563 0.86289 0.04803 0.0
H337 H 0.79434 0.86171 0.93614 0.0
C338 C 0.75601 0.86256 0.99117 0.0
O339 O 0.7107 0.80466 0.06317 0.0
O340 O 0.73686 0.80434 0.01044 0.0
N341 N 0.81067 0.86733 0.13606 0.0
C342 C 0.8106 0.87046 0.19648 0.0
C343 C 0.82636 0.87013 0.23239 0.0
C344 C 0.8422 0.8669 0.20574 0.0
C345 C 0.84235 0.86438 0.14324 0.0
C346 C 0.82633 0.86503 0.1097 0.0
H347 H 0.79848 0.87296 0.21724 0.0
O348 O 0.7487 0.80929 0.1326 0.0
O349 O 0.77276 0.83745 0.08113 0.0
O350 O 0.74172 0.84428 0.14055 0.0
O351 O 0.77512 0.87316 0.13693 0.0
C352 C 0.85768 0.86114 0.11293 0.0
C353 C 0.85679 0.85867 0.04988 0.0
H354 H 0.84982 0.85439 0.92841 0.0
H355 H 0.82017 0.85585 0.87694 0.0
H356 H 0.82625 0.87227 0.28054 0.0
H357 H 0.85421 0.86647 0.23365 0.0
H358 H 0.87018 0.86045 0.13771 0.0
H359 H 0.8686 0.85608 0.02712 0.0
Mn360 Mn 0.32154 0.97852 0.07409 0.0
Mn361 Mn 0.27956 0.98673 0.07207 0.0
C362 C 0.32336 0.00579 0.12909 0.0
C363 C 0.35192 0.98314 0.02495 0.0
C364 C 0.28024 0.95266 0.14784 0.0
O365 O 0.30368 0.96051 0.00535 0.0
O366 O 0.27732 0.96836 0.00313 0.0
C367 C 0.29199 0.01273 0.96082 0.0
N368 N 0.28699 0.01044 0.02065 0.0
C369 C 0.29179 0.04535 0.0254 0.0
C370 C 0.29682 0.04804 0.9637 0.0
C371 C 0.29697 0.03167 0.93133 0.0
C372 C 0.28696 0.02613 0.05232 0.0
H373 H 0.29222 0.00022 0.9359 0.0
C374 C 0.28676 0.9588 0.98282 0.0
O375 O 0.34163 0.96758 0.06299 0.0
O376 O 0.34499 0.99616 0.01722 0.0
N377 N 0.27904 0.004 0.13565 0.0
C378 C 0.27391 -0.00112 0.19487 0.0
C379 C 0.2731 0.01357 0.23362 0.0
C380 C 0.27723 0.03319 0.21088 0.0
C381 C 0.28205 0.03793 0.14958 0.0
C382 C 0.28246 0.02261 0.11306 0.0
H383 H 0.27059 0.98376 0.21245 0.0
O384 O 0.33642 -0.00108 0.13975 0.0
O385 O 0.3103 0.99722 0.084 0.0
O386 O 0.29937 0.95707 0.13412 0.0
O387 O 0.27139 0.96261 0.12667 0.0
C388 C 0.28662 0.05732 0.12336 0.0
C389 C 0.29157 0.06106 0.06135 0.0
H390 H 0.3007 0.06264 0.94081 0.0
H391 H 0.30094 0.03367 0.88377 0.0
H392 H 0.26927 0.00978 0.28086 0.0
H393 H 0.27654 0.04444 0.24077 0.0
H394 H 0.28653 0.06952 0.15054 0.0
H395 H 0.29523 0.07609 0.0418 0.0
Mn396 Mn 0.17588 0.40122 0.01926 0.0
Mn397 Mn 0.15271 0.34817 0.03082 0.0
C398 C 0.14977 0.38321 0.09151 0.0
C399 C 0.17571 0.42894 0.96891 0.0
C400 C 0.19742 0.3793 0.07787 0.0
O401 O 0.18494 0.39292 0.94251 0.0
O402 O 0.16488 0.35737 0.94834 0.0
C403 C 0.11668 0.33564 0.94663 0.0
N404 N 0.12377 0.33482 0.00258 0.0
C405 C 0.0875 0.31186 0.03878 0.0
C406 C 0.07981 0.31233 0.98141 0.0
C407 C 0.09447 0.32432 0.9352 0.0
C408 C 0.10981 0.32344 0.04748 0.0
H409 H 0.1279 0.3449 0.91106 0.0
C410 C 0.17772 0.37458 0.92012 0.0
O411 O 0.19304 0.43205 0.99576 0.0
O412 O 0.15887 0.41017 0.97206 0.0
N413 N 0.14007 0.33684 0.10814 0.0
C414 C 0.15007 0.33841 0.16126 0.0
C415 C 0.13766 0.32754 0.21228 0.0
C416 C 0.11514 0.31499 0.20804 0.0
C417 C 0.10524 0.31327 0.15265 0.0
C418 C 0.11846 0.32433 0.10322 0.0
H419 H 0.16737 0.34795 0.16483 0.0
O420 O 0.16237 0.40356 0.09537 0.0
O421 O 0.1523 0.37425 0.04433 0.0
O422 O 0.19731 0.39643 0.06739 0.0
O423 O 0.18219 0.36091 0.06261 0.0
C424 C 0.08276 0.30125 0.14473 0.0
C425 C 0.07389 0.3006 0.08789 0.0
H426 H 0.06269 0.30367 0.97246 0.0
H427 H 0.08865 0.32485 0.89089 0.0
H428 H 0.14543 0.32888 0.25482 0.0
H429 H 0.1056 0.3068 0.24763 0.0
H430 H 0.07213 0.29265 0.18223 0.0
H431 H 0.05657 0.29151 0.08253 0.0
Mn432 Mn 0.39021 0.29772 0.93981 0.0
Mn433 Mn 0.33693 0.26169 0.93979 0.0
C434 C 0.36825 0.30142 0.87234 0.0
C435 C 0.41846 0.32831 0.98081 0.0
C436 C 0.37068 0.25411 0.8817 0.0
O437 O 0.38553 0.28175 0.01813 0.0
O438 O 0.3496 0.25986 0.01741 0.0
C439 C 0.32337 0.2808 0.03495 0.0
N440 N 0.32173 0.27371 0.97756 0.0
C441 C 0.29467 0.28254 0.95449 0.0
C442 C 0.29595 0.2898 0.01351 0.0
C443 C 0.31039 0.28896 0.05386 0.0
C444 C 0.30794 0.27451 0.9383 0.0
H445 H 0.33453 0.28027 0.06599 0.0
C446 C 0.36803 0.2674 0.04223 0.0
O447 O 0.42197 0.31445 0.95488 0.0
O448 O 0.39875 0.32425 0.98327 0.0
N449 N 0.32227 0.26138 0.86811 0.0
C450 C 0.32345 0.2543 0.81233 0.0
C451 C 0.31028 0.25442 0.76636 0.0
C452 C 0.29587 0.26155 0.77837 0.0
C453 C 0.29464 0.26838 0.83638 0.0
C454 C 0.30806 0.26776 0.88051 0.0
H455 H 0.33448 0.24877 0.80285 0.0
O456 O 0.38895 0.31127 0.86349 0.0
O457 O 0.36105 0.29027 0.92176 0.0
O458 O 0.38709 0.27224 0.89294 0.0
O459 O 0.35147 0.2485 0.8986 0.0
C460 C 0.28092 0.27612 0.8519 0.0
C461 C 0.28097 0.28325 0.91086 0.0
H462 H 0.28603 0.29619 0.0282 0.0
H463 H 0.31155 0.29463 0.09938 0.0
H464 H 0.31127 0.24907 0.72172 0.0
H465 H 0.28586 0.26174 0.74269 0.0
H466 H 0.27044 0.27689 0.81867 0.0
H467 H 0.27052 0.28939 0.92207 0.0
Mn468 Mn 0.85842 0.15167 0.95137 0.0
Mn469 Mn 0.86272 0.1983 0.98853 0.0
C470 C 0.83175 0.15198 0.00772 0.0
C471 C 0.84744 0.12541 0.87855 0.0
C472 C 0.88626 0.17969 0.05306 0.0
O473 O 0.88261 0.17268 0.8974 0.0
O474 O 0.88275 0.20261 0.92071 0.0
C475 C 0.84451 0.2046 0.87699 0.0
N476 N 0.844 0.20269 0.93803 0.0
C477 C 0.81275 0.20639 0.94572 0.0
C478 C 0.81304 0.20857 0.88296 0.0
C479 C 0.82897 0.20764 0.84846 0.0
C480 C 0.82869 0.20346 0.97163 0.0
H481 H 0.85664 0.20374 0.85029 0.0
C482 C 0.88976 0.19239 0.89079 0.0
O483 O 0.86149 0.12772 0.91878 0.0
O484 O 0.84023 0.13831 0.88095 0.0
N485 N 0.84433 0.19679 0.05348 0.0
C486 C 0.84627 0.19435 0.11347 0.0
C487 C 0.83144 0.1947 0.15424 0.0
C488 C 0.81496 0.19784 0.13302 0.0
C489 C 0.81366 0.20091 0.07126 0.0
C490 C 0.82901 0.20058 0.03284 0.0
H491 H 0.85893 0.19201 0.13005 0.0
O492 O 0.8332 0.13509 0.00579 0.0
O493 O 0.84539 0.1679 0.97454 0.0
O494 O 0.87871 0.16231 0.02409 0.0
O495 O 0.8816 0.19405 0.04261 0.0
C496 C 0.79763 0.20409 0.04623 0.0
C497 C 0.79712 0.20675 0.9835 0.0
H498 H 0.80103 0.21084 0.86077 0.0
H499 H 0.82923 0.20919 0.79997 0.0
H500 H 0.83266 0.19248 0.20189 0.0
H501 H 0.80343 0.19789 0.16453 0.0
H502 H 0.78554 0.20439 0.07475 0.0
H503 H 0.78459 0.20898 0.96475 0.0
Mn504 Mn 0.98435 0.73001 0.90521 0.0
Mn505 Mn 0.99433 0.78017 0.89936 0.0
C506 C 0.01476 0.75542 0.85639 0.0
C507 C 0.9864 0.70452 0.96203 0.0
C508 C 0.96223 0.74506 0.81863 0.0
O509 O 0.96333 0.73009 0.96533 0.0
O510 O 0.97357 0.7646 0.96627 0.0
C511 C 0.01732 0.79495 0.01474 0.0
N512 N 0.01698 0.797 0.9539 0.0
C513 C 0.05297 0.82721 0.95281 0.0
C514 C 0.05366 0.82552 0.01551 0.0
C515 C 0.03578 0.80928 0.04658 0.0
C516 C 0.03416 0.81244 0.92351 0.0
H517 H 0.00362 0.78244 0.03873 0.0
C518 C 0.96202 0.74556 0.98586 0.0
O519 O 0.97229 0.69898 0.91948 0.0
O520 O -0.00073 0.72457 0.97054 0.0
N521 N 0.01413 0.79736 0.83726 0.0
C522 C 0.01081 0.7968 0.77686 0.0
C523 C 0.02712 0.812 0.73921 0.0
C524 C 0.04652 0.82778 0.7641 0.0
C525 C 0.04945 0.82828 0.82652 0.0
C526 C 0.03255 0.81279 0.86182 0.0
H527 H 0.99586 0.7848 0.75749 0.0
O528 O 0.00783 0.7355 0.84764 0.0
O529 O 0.00431 0.75989 0.89613 0.0
O530 O 0.96582 0.73052 0.83636 0.0
O531 O 0.9714 0.7637 0.84088 0.0
C532 C 0.06842 0.8435 0.85517 0.0
C533 C 0.07023 0.84289 0.9182 0.0
H534 H 0.06787 0.83655 0.04023 0.0
H535 H 0.03622 0.80782 0.09494 0.0
H536 H 0.02472 0.8116 0.69112 0.0
H537 H 0.05894 0.8395 0.73477 0.0
H538 H 0.08176 0.85575 0.82933 0.0
H539 H 0.08497 0.85458 0.9396 0.0
Mn540 Mn 0.3994 0.16228 0.43932 0.0
Mn541 Mn 0.34533 0.14019 0.44634 0.0
C542 C 0.37791 0.13417 0.3779 0.0
C543 C 0.43008 0.16399 0.4779 0.0
C544 C 0.37493 0.18126 0.37928 0.0
O545 O 0.39475 0.17424 0.51629 0.0
O546 O 0.35853 0.15692 0.52031 0.0
C547 C 0.33671 0.11047 0.54743 0.0
N548 N 0.33322 0.11397 0.48953 0.0
C549 C 0.30828 0.07683 0.47473 0.0
C550 C 0.31148 0.07284 0.53434 0.0
C551 C 0.3258 0.08974 0.57078 0.0
C552 C 0.31956 0.09782 0.45399 0.0
H553 H 0.34776 0.1234 0.57552 0.0
C554 C 0.37707 0.16963 0.54235 0.0
O555 O 0.43145 0.17994 0.4483 0.0
O556 O 0.41117 0.14738 0.48522 0.0
N557 N 0.33015 0.12335 0.37843 0.0
C558 C 0.32937 0.12981 0.32144 0.0
C559 C 0.31607 0.11477 0.27894 0.0
C560 C 0.30352 0.09333 0.29565 0.0
C561 C 0.3043 0.08711 0.35483 0.0
C562 C 0.31776 0.10282 0.39532 0.0
H563 H 0.33894 0.14627 0.30836 0.0
O564 O 0.39825 0.14637 0.36559 0.0
O565 O 0.37087 0.13829 0.4272 0.0
O566 O 0.39264 0.18177 0.38948 0.0
O567 O 0.35662 0.16677 0.39973 0.0
C568 C 0.29251 0.06591 0.37506 0.0
C569 C 0.29455 0.06077 0.43487 0.0
H570 H 0.30315 0.05686 0.55246 0.0
H571 H 0.32844 0.08678 0.61673 0.0
H572 H 0.3155 0.11969 0.23338 0.0
H573 H 0.29338 0.08181 0.26262 0.0
H574 H 0.28196 0.05339 0.34494 0.0
H575 H 0.28559 0.04438 0.44965 0.0
Mn576 Mn 0.99705 0.3063 0.44458 0.0
Mn577 Mn 0.94725 0.29804 0.47159 0.0
C578 C 0.99346 0.33148 0.49528 0.0
C579 C 0.02539 0.31729 0.37712 0.0
C580 C 0.96724 0.27726 0.54287 0.0
O581 O 0.97797 0.28146 0.39184 0.0
O582 O 0.94595 0.27949 0.40422 0.0
C583 C 0.9418 0.31595 0.35828 0.0
N584 N 0.94236 0.3159 0.41949 0.0
C585 C 0.93594 0.345 0.425 0.0
C586 C 0.93511 0.34526 0.36199 0.0
C587 C 0.93808 0.33068 0.3285 0.0
C588 C 0.93959 0.32989 0.45215 0.0
H589 H 0.94424 0.30486 0.33243 0.0
C590 C 0.95809 0.27341 0.37994 0.0
O591 O 0.02261 0.30427 0.42074 0.0
O592 O 0.01177 0.32381 0.37301 0.0
N593 N 0.94585 0.3147 0.53571 0.0
C594 C 0.94738 0.31249 0.59606 0.0
C595 C 0.94501 0.32602 0.63597 0.0
C596 C 0.94087 0.3415 0.61347 0.0
C597 C 0.9389 0.34316 0.55128 0.0
C598 C 0.94121 0.3291 0.51374 0.0
H599 H 0.95057 0.30063 0.61361 0.0
O600 O 0.01147 0.33153 0.4966 0.0
O601 O 0.97835 0.31726 0.46148 0.0
O602 O 0.98598 0.28696 0.51867 0.0
O603 O 0.95158 0.2797 0.52751 0.0
C604 C 0.93502 0.35839 0.52498 0.0
C605 C 0.93358 0.35933 0.46188 0.0
H606 H 0.93235 0.35667 0.33884 0.0
H607 H 0.93759 0.33086 0.27986 0.0
H608 H 0.94645 0.32457 0.68393 0.0
H609 H 0.93922 0.35199 0.64439 0.0
H610 H 0.9333 0.36957 0.55283 0.0
H611 H 0.93077 0.37122 0.44215 0.0
Mn612 Mn 0.83394 0.72874 0.40369 0.0
Mn613 Mn 0.82381 0.6784 0.40778 0.0
C614 C 0.80485 0.70372 0.45798 0.0
C615 C 0.83105 0.75435 0.34981 0.0
C616 C 0.85788 0.71376 0.48384 0.0
O617 O 0.85333 0.72824 0.33887 0.0
O618 O 0.84298 0.69371 0.33774 0.0
C619 C 0.798 0.66357 0.29685 0.0
N620 N 0.79982 0.66156 0.35712 0.0
C621 C 0.76364 0.63174 0.3638 0.0
C622 C 0.76144 0.63338 0.30171 0.0
C623 C 0.77868 0.6494 0.26813 0.0
C624 C 0.78327 0.64633 0.38993 0.0
H625 H 0.81118 0.67593 0.27096 0.0
C626 C 0.85408 0.71263 0.31697 0.0
O627 O 0.84607 0.75975 0.38953 0.0
O628 O 0.81768 0.73431 0.34244 0.0
N629 N 0.8055 0.66126 0.47257 0.0
C630 C 0.81046 0.66148 0.53171 0.0
C631 C 0.79499 0.64635 0.57147 0.0
C632 C 0.77474 0.63097 0.54987 0.0
C633 C 0.77027 0.63063 0.48848 0.0
C634 C 0.7864 0.64597 0.45091 0.0
H635 H 0.82603 0.6732 0.54855 0.0
O636 O 0.812 0.72371 0.46623 0.0
O637 O 0.81412 0.6989 0.41539 0.0
O638 O 0.85398 0.72826 0.46787 0.0
O639 O 0.84813 0.69498 0.46239 0.0
C640 C 0.75043 0.6157 0.46311 0.0
C641 C 0.74709 0.6163 0.40085 0.0
H642 H 0.74656 0.62249 0.2794 0.0
H643 H 0.77707 0.65083 0.22025 0.0
H644 H 0.79865 0.64661 0.61868 0.0
H645 H 0.76278 0.61946 0.58078 0.0
H646 H 0.7376 0.60373 0.49111 0.0
H647 H 0.73173 0.60481 0.38192 0.0
H648 H 0.08122 0.52298 0.94502 0.0
H649 H 0.08034 0.59018 0.16353 0.0
H650 H 0.01188 0.49324 0.95586 0.0
H651 H 0.0134 0.54253 0.19189 0.0
H652 H 0.08328 0.56769 0.08855 0.0
H653 H 0.08403 0.54211 0.03714 0.0
C654 C 0.06656 0.52045 0.96674 0.0
C655 C 0.04629 0.50677 0.94177 0.0
C656 C 0.06809 0.56178 0.11217 0.0
C657 C 0.04941 0.52916 0.04672 0.0
C658 C 0.06637 0.57477 0.15502 0.0
C659 C 0.04653 0.5684 0.18374 0.0
C660 C 0.04981 0.54221 0.09803 0.0
C661 C 0.02899 0.54826 0.17059 0.0
C662 C 0.0682 0.53159 0.01924 0.0
C663 C 0.02789 0.50387 0.97268 0.0
N664 N 0.03098 0.53605 0.12821 0.0
N665 N 0.02992 0.51509 0.02315 0.0
H666 H 0.61611 0.57066 0.91976 0.0
H667 H 0.56694 0.56714 0.24412 0.0
H668 H 0.6193 0.62423 0.00922 0.0
H669 H 0.55876 0.51164 0.15267 0.0
H670 H 0.59356 0.58936 0.16834 0.0
H671 H 0.60265 0.5501 0.0138 0.0
C672 C 0.61436 0.57816 0.95966 0.0
C673 C 0.61819 0.59887 0.95694 0.0
C674 C 0.58616 0.57233 0.16517 0.0
C675 C 0.60287 0.57573 0.06356 0.0
C676 C 0.57091 0.55962 0.20842 0.0
C677 C 0.56025 0.5375 0.20393 0.0
C678 C 0.59058 0.56287 0.11652 0.0
C679 C 0.56639 0.52864 0.1574 0.0
C680 C 0.60664 0.56646 0.01308 0.0
C681 C 0.61581 0.60804 0.00932 0.0
N682 N 0.58089 0.54137 0.11477 0.0
N683 N 0.60807 0.59634 0.06039 0.0
H684 H 0.61737 0.0545 0.06822 0.0
H685 H 0.56187 0.10218 0.86068 0.0
H686 H 0.63122 0.11905 0.08034 0.0
H687 H 0.55223 0.03932 0.84097 0.0
H688 H 0.58815 0.10916 0.93931 0.0
H689 H 0.594 0.04902 0.98314 0.0
C690 C 0.61554 0.06754 0.05305 0.0
C691 C 0.62622 0.08723 0.08188 0.0
C692 C 0.58035 0.09389 0.91744 0.0
C693 C 0.59943 0.08105 0.9843 0.0
C694 C 0.56535 0.0899 0.87247 0.0
C695 C 0.55468 0.07009 0.84424 0.0
C696 C 0.58464 0.07794 0.93442 0.0
C697 C 0.55992 0.05481 0.86149 0.0
C698 C 0.60221 0.06441 0.00432 0.0
C699 C 0.62327 0.10356 0.05982 0.0
N700 N 0.57441 0.05902 0.9056 0.0
N701 N 0.61009 0.10007 0.01256 0.0
H702 H 0.6289 0.12008 0.35994 0.0
H703 H 0.53242 0.03304 0.5644 0.0
H704 H 0.60231 0.05253 0.34433 0.0
H705 H 0.55727 0.1003 0.57998 0.0
H706 H 0.55668 0.04006 0.47926 0.0
H707 H 0.6016 0.11333 0.43686 0.0
C708 C 0.61731 0.10386 0.37242 0.0
C709 C 0.61802 0.08687 0.34585 0.0
C710 C 0.55677 0.05329 0.50112 0.0
C711 C 0.58681 0.07907 0.43363 0.0
C712 C 0.54291 0.04929 0.54984 0.0
C713 C 0.54294 0.06611 0.57984 0.0
C714 C 0.57085 0.07428 0.48233 0.0
C715 C 0.55677 0.08683 0.55845 0.0
C716 C 0.60173 0.10002 0.41629 0.0
C717 C 0.60254 0.06617 0.36375 0.0
N718 N 0.57029 0.09034 0.51122 0.0
N719 N 0.58765 0.06288 0.40663 0.0
H720 H 0.078 0.60504 0.43911 0.0
H721 H 0.01044 0.52067 0.69808 0.0
H722 H 0.00869 0.57294 0.4586 0.0
H723 H 0.07771 0.54344 0.6605 0.0
H724 H 0.01124 0.54527 0.62307 0.0
H725 H 0.07956 0.58791 0.53184 0.0
C726 C 0.06312 0.5946 0.46317 0.0
C727 C 0.04314 0.5902 0.44048 0.0
C728 C 0.02589 0.54504 0.63163 0.0
C729 C 0.04488 0.57059 0.54662 0.0
C730 C 0.02549 0.53101 0.67466 0.0
C731 C 0.04397 0.5297 0.68513 0.0
C732 C 0.04489 0.55789 0.59857 0.0
C733 C 0.06302 0.54373 0.65364 0.0
C734 C 0.06405 0.58479 0.51604 0.0
C735 C 0.02444 0.57659 0.47382 0.0
N736 N 0.06292 0.55709 0.61126 0.0
N737 N 0.02577 0.56717 0.52493 0.0
H738 H 0.56476 0.57167 0.72893 0.0
H739 H 0.57124 0.52182 0.42224 0.0
H740 H 0.62418 0.57864 0.65894 0.0
H741 H 0.51155 0.50284 0.51634 0.0
H742 H 0.59095 0.53852 0.51454 0.0
H743 H 0.54479 0.5432 0.65742 0.0
C744 C 0.5736 0.5671 0.69893 0.0
C745 C 0.5962 0.5778 0.69938 0.0
C746 C 0.5735 0.53021 0.51556 0.0
C747 C 0.57344 0.54527 0.61708 0.0
C748 C 0.5623 0.52051 0.4631 0.0
C749 C 0.53988 0.5112 0.46213 0.0
C750 C 0.56208 0.53081 0.56652 0.0
C751 C 0.52892 0.51018 0.51553 0.0
C752 C 0.56219 0.55074 0.65828 0.0
C753 C 0.60677 0.57099 0.65989 0.0
N754 N 0.54015 0.52025 0.56538 0.0
N755 N 0.59533 0.55539 0.61969 0.0
H756 H 0.71704 0.84652 0.21806 0.0
H757 H 0.75941 0.94391 0.44521 0.0
H758 H 0.78201 0.9003 0.21549 0.0
H759 H 0.6938 0.89127 0.4443 0.0
H760 H 0.76825 0.9275 0.36322 0.0
H761 H 0.70842 0.86222 0.3026 0.0
C762 C 0.7295 0.86163 0.23511 0.0
C763 C 0.75029 0.87209 0.20939 0.0
C764 C 0.75193 0.91951 0.38109 0.0
C765 C 0.74051 0.89011 0.30645 0.0
C766 C 0.74687 0.92886 0.42808 0.0
C767 C 0.7258 0.91901 0.45179 0.0
C768 C 0.73584 0.90016 0.35751 0.0
C769 C 0.71026 0.89949 0.42756 0.0
C770 C 0.72456 0.87057 0.28348 0.0
C771 C 0.76574 0.89164 0.23361 0.0
N772 N 0.71559 0.89075 0.38167 0.0
N773 N 0.76054 0.89999 0.28075 0.0
H774 H 0.18575 0.88055 0.41474 0.0
H775 H 0.29365 0.93107 0.22035 0.0
H776 H 0.23337 0.86225 0.44102 0.0
H777 H 0.2376 0.93506 0.17517 0.0
H778 H 0.27228 0.90502 0.29905 0.0
H779 H 0.20487 0.89994 0.32473 0.0
C780 C 0.20024 0.88055 0.40133 0.0
C781 C 0.20812 0.86997 0.43563 0.0
C782 C 0.26469 0.91147 0.27129 0.0
C783 C 0.23032 0.89237 0.33245 0.0
C784 C 0.27685 0.92635 0.2265 0.0
C785 C 0.26751 0.93554 0.19176 0.0
C786 C 0.24316 0.90592 0.28123 0.0
C787 C 0.24566 0.92873 0.20141 0.0
C788 C 0.21113 0.89157 0.34967 0.0
C789 C 0.22682 0.87028 0.41571 0.0
N790 N 0.23434 0.91451 0.24548 0.0
N791 N 0.23753 0.88161 0.36562 0.0
H792 H 0.25223 0.33469 0.33442 0.0
H793 H 0.22768 0.41215 0.1464 0.0
H794 H 0.28408 0.40198 0.3669 0.0
H795 H 0.20624 0.34763 0.09564 0.0
H796 H 0.25101 0.40991 0.22185 0.0
H797 H 0.23738 0.33992 0.24216 0.0
C798 C 0.25625 0.35059 0.32196 0.0
C799 C 0.26922 0.36786 0.35895 0.0
C800 C 0.24143 0.39637 0.19349 0.0
C801 C 0.25213 0.37398 0.25338 0.0
C802 C 0.22817 0.39768 0.1502 0.0
C803 C 0.21469 0.37996 0.11519 0.0
C804 C 0.24108 0.37718 0.20195 0.0
C805 C 0.21605 0.36161 0.12221 0.0
C806 C 0.24781 0.35359 0.26911 0.0
C807 C 0.27405 0.38815 0.34003 0.0
N808 N 0.22873 0.36062 0.16525 0.0
N809 N 0.26527 0.39061 0.28901 0.0
H810 H 0.20501 0.40701 0.84436 0.0
H811 H 0.21706 0.32957 0.61761 0.0
H812 H 0.16732 0.33868 0.85641 0.0
H813 H 0.25859 0.39766 0.61632 0.0
H814 H 0.19393 0.33296 0.69202 0.0
H815 H 0.22005 0.40403 0.74873 0.0
C816 C 0.19975 0.39137 0.82678 0.0
C817 C 0.1852 0.37306 0.85921 0.0
C818 C 0.20796 0.34717 0.67484 0.0
C819 C 0.20238 0.36958 0.74961 0.0
C820 C 0.22117 0.34526 0.63218 0.0
C821 C 0.24009 0.36333 0.61155 0.0
C822 C 0.21371 0.36726 0.69702 0.0
C823 C 0.24441 0.38325 0.6317 0.0
C824 C 0.20833 0.3897 0.77204 0.0
C825 C 0.17875 0.35325 0.83355 0.0
N826 N 0.23148 0.38465 0.67391 0.0
N827 N 0.18758 0.35204 0.78059 0.0
H828 H 0.78251 0.90117 0.9369 0.0
H829 H 0.69081 0.89414 0.7202 0.0
H830 H 0.71719 0.84804 0.93555 0.0
H831 H 0.75557 0.94805 0.72749 0.0
H832 H 0.69996 0.87702 0.79966 0.0
H833 H 0.77285 0.91847 0.8596 0.0
C834 C 0.76616 0.8931 0.92037 0.0
C835 C 0.75067 0.8731 0.94302 0.0
C836 C 0.71213 0.89263 0.78392 0.0
C837 C 0.73946 0.8929 0.85444 0.0
C838 C 0.70689 0.90244 0.73861 0.0
C839 C 0.72243 0.92256 0.71679 0.0
C840 C 0.73305 0.90299 0.80755 0.0
C841 C 0.74303 0.93252 0.74256 0.0
C842 C 0.76063 0.90302 0.87626 0.0
C843 C 0.72971 0.86347 0.91967 0.0
N844 N 0.74773 0.92261 0.78631 0.0
N845 N 0.72474 0.87345 0.87674 0.0
H846 H 0.2442 0.93083 0.96591 0.0
H847 H 0.24762 0.89747 0.6414 0.0
H848 H 0.30718 0.9526 0.88804 0.0
H849 H 0.20715 0.84984 0.77197 0.0
H850 H 0.26932 0.92067 0.72375 0.0
H851 H 0.22831 0.90402 0.88678 0.0
C852 C 0.2546 0.93009 0.93169 0.0
C853 C 0.27694 0.94392 0.9329 0.0
C854 C 0.25608 0.90489 0.73408 0.0
C855 C 0.25902 0.91356 0.84313 0.0
C856 C 0.24388 0.89166 0.68737 0.0
C857 C 0.22591 0.87173 0.7004 0.0
C858 C 0.24957 0.89835 0.79373 0.0
C859 C 0.22118 0.865 0.76048 0.0
C860 C 0.24561 0.91468 0.88731 0.0
C861 C 0.28985 0.94217 0.88825 0.0
N862 N 0.23262 0.87855 0.80528 0.0
N863 N 0.28065 0.9274 0.84438 0.0
H864 H 0.34078 0.21299 0.85606 0.0
H865 H 0.41218 0.20301 0.59556 0.0
H866 H 0.40677 0.26139 0.81772 0.0
H867 H 0.34384 0.15992 0.62112 0.0
H868 H 0.41229 0.22169 0.68676 0.0
H869 H 0.34372 0.19048 0.781 0.0
C870 C 0.356 0.21884 0.83236 0.0
C871 C 0.37347 0.23929 0.84275 0.0
C872 C 0.39733 0.20805 0.67257 0.0
C873 C 0.37684 0.21351 0.75605 0.0
C874 C 0.39723 0.19734 0.62056 0.0
C875 C 0.3779 0.18002 0.6001 0.0
C876 C 0.37798 0.20131 0.7045 0.0
C877 C 0.35907 0.17336 0.63458 0.0
C878 C 0.35763 0.20594 0.78932 0.0
C879 C 0.39283 0.24582 0.81097 0.0
N880 N 0.35957 0.18409 0.6848 0.0
N881 N 0.39392 0.23305 0.76852 0.0
H882 H 0.9189 0.23481 0.88571 0.0
H883 H 0.9408 0.23485 0.54429 0.0
H884 H 0.8988 0.17638 0.79113 0.0
H885 H 0.98323 0.28762 0.65536 0.0
H886 H 0.92691 0.21236 0.63427 0.0
H887 H 0.94404 0.25427 0.8034 0.0
C888 C 0.91993 0.22607 0.84783 0.0
C889 C 0.90653 0.20402 0.84464 0.0
C890 C 0.93971 0.22869 0.63893 0.0
C891 C 0.93512 0.22613 0.75051 0.0
C892 C 0.94761 0.24143 0.58772 0.0
C893 C 0.96314 0.26289 0.59316 0.0
C894 C 0.94692 0.23778 0.69575 0.0
C895 C 0.97135 0.271 0.64993 0.0
C896 C 0.93442 0.23715 0.80119 0.0
C897 C 0.90874 0.19342 0.79507 0.0
N898 N 0.96277 0.2585 0.69952 0.0
N899 N 0.92248 0.20463 0.74927 0.0
H900 H 0.95107 0.77199 0.76701 0.0
H901 H 0.87029 0.68717 0.5315 0.0
H902 H 0.93863 0.70789 0.75623 0.0
H903 H 0.88223 0.75105 0.54472 0.0
H904 H 0.89581 0.69468 0.61205 0.0
H905 H 0.92635 0.76466 0.68461 0.0
C906 C 0.94313 0.75632 0.74748 0.0
C907 C 0.94696 0.7405 0.76891 0.0
C908 C 0.89289 0.70707 0.59725 0.0
C909 C 0.91855 0.73206 0.67393 0.0
C910 C 0.87832 0.70283 0.55109 0.0
C911 C 0.87403 0.71851 0.53114 0.0
C912 C 0.90331 0.72714 0.62387 0.0
C913 C 0.88498 0.73846 0.55851 0.0
C914 C 0.929 0.75218 0.70023 0.0
C915 C 0.93618 0.72057 0.74139 0.0
N916 N 0.89908 0.74218 0.60353 0.0
N917 N 0.92246 0.71692 0.69533 0.0
H918 H 0.86205 0.68451 0.2574 0.0
H919 H 0.95302 0.77343 0.04274 0.0
H920 H 0.88022 0.7505 0.25988 0.0
H921 H 0.93467 0.70739 0.03984 0.0
H922 H 0.9261 0.76525 0.12176 0.0
H923 H 0.88811 0.69248 0.176 0.0
C924 C 0.87144 0.70065 0.24078 0.0
C925 C 0.86899 0.71686 0.26581 0.0
C926 C 0.92797 0.75256 0.10375 0.0
C927 C 0.89888 0.72609 0.1728 0.0
C928 C 0.94337 0.75723 0.05867 0.0
C929 C 0.94612 0.74109 0.03448 0.0
C930 C 0.91526 0.73162 0.12481 0.0
C931 C 0.93313 0.72038 0.057 0.0
C932 C 0.88634 0.70519 0.19433 0.0
C933 C 0.88159 0.73747 0.24224 0.0
N934 N 0.91828 0.71625 0.10087 0.0
N935 N 0.89602 0.74149 0.1972 0.0
H936 H 0.40952 0.21412 0.31946 0.0
H937 H 0.33469 0.23949 0.11564 0.0
H938 H 0.34065 0.18507 0.34501 0.0
H939 H 0.40418 0.2736 0.10062 0.0
H940 H 0.33697 0.22126 0.20465 0.0
H941 H 0.40838 0.23789 0.24418 0.0
C942 C 0.3942 0.21285 0.30981 0.0
C943 C 0.37513 0.19738 0.33837 0.0
C944 C 0.35175 0.23287 0.18222 0.0
C945 C 0.37372 0.22447 0.25189 0.0
C946 C 0.35045 0.24329 0.13126 0.0
C947 C 0.36925 0.25796 0.10005 0.0
C948 C 0.37198 0.23698 0.20197 0.0
C949 C 0.38923 0.26234 0.12293 0.0
C950 C 0.39357 0.22644 0.26675 0.0
C951 C 0.35578 0.19659 0.324 0.0
N952 N 0.39004 0.25173 0.17208 0.0
N953 N 0.35556 0.20978 0.28148 0.0
H954 H 0.91563 0.24296 0.36827 0.0
H955 H 0.92972 0.20367 0.05639 0.0
H956 H 0.97893 0.26332 0.2945 0.0
H957 H 0.87322 0.16695 0.16723 0.0
H958 H 0.94948 0.22336 0.1453 0.0
H959 H 0.90024 0.21387 0.29644 0.0
C960 C 0.92628 0.24132 0.33693 0.0
C961 C 0.94855 0.25573 0.33683 0.0
C962 C 0.933 0.21046 0.15073 0.0
C963 C 0.93109 0.22241 0.25485 0.0
C964 C 0.92186 0.19903 0.10015 0.0
C965 C 0.89998 0.18363 0.10505 0.0
C966 C 0.92185 0.2068 0.20575 0.0
C967 C 0.8902 0.17859 0.16214 0.0
C968 C 0.91753 0.22455 0.29648 0.0
C969 C 0.96165 0.25263 0.29587 0.0
N970 N 0.90104 0.19057 0.2102 0.0
N971 N 0.95268 0.23648 0.2559 0.0
H972 H 0.0931 0.69612 0.28837 0.0
H973 H 0.18102 0.76163 0.53322 0.0
H974 H 0.1276 0.67004 0.37619 0.0
H975 H 0.1547 0.78783 0.40984 0.0
H976 H 0.16512 0.72905 0.47259 0.0
H977 H 0.1185 0.73076 0.32798 0.0
C978 C 0.10626 0.69783 0.31573 0.0
C979 C 0.10826 0.68032 0.32949 0.0
C980 C 0.16326 0.74214 0.45828 0.0
C981 C 0.1373 0.71995 0.37657 0.0
C982 C 0.17236 0.7607 0.49268 0.0
C983 C 0.16877 0.77718 0.47692 0.0
C984 C 0.15064 0.74032 0.40816 0.0
C985 C 0.15746 0.77529 0.42421 0.0
C986 C 0.12084 0.71764 0.33833 0.0
C987 C 0.12564 0.68331 0.36471 0.0
N988 N 0.14865 0.75715 0.39222 0.0
N989 N 0.13936 0.70277 0.38818 0.0
H990 H 0.46851 0.47018 0.45407 0.0
H991 H 0.34699 0.43922 0.40366 0.0
H992 H 0.44568 0.4814 0.2876 0.0
H993 H 0.37085 0.42566 0.56434 0.0
H994 H 0.38435 0.46254 0.36857 0.0
H995 H 0.43436 0.46123 0.50274 0.0
C996 C 0.4563 0.47106 0.42823 0.0
C997 C 0.45984 0.47691 0.36749 0.0
C998 C 0.38142 0.45492 0.41224 0.0
C999 C 0.42052 0.46596 0.42167 0.0
C1000 C 0.36018 0.44182 0.43232 0.0
C1001 C 0.35616 0.43072 0.48671 0.0
C1002 C 0.39845 0.45657 0.44685 0.0
C1003 C 0.37352 0.4341 0.52211 0.0
C1004 C 0.43685 0.46599 0.45582 0.0
C1005 C 0.44354 0.4774 0.33507 0.0
N1006 N 0.39395 0.44655 0.50124 0.0
N1007 N 0.42442 0.4718 0.36251 0.0
H1008 H 0.70341 0.96924 0.39967 0.0
H1009 H 0.65954 0.04556 0.40789 0.0
H1010 H 0.67996 0.98069 0.5659 0.0
H1011 H 0.64961 0.00722 0.25122 0.0
H1012 H 0.66576 0.02116 0.46747 0.0
H1013 H 0.68286 0.98183 0.34369 0.0
C1014 C 0.69343 0.97391 0.42416 0.0
C1015 C 0.69288 0.97354 0.48715 0.0
C1016 C 0.66175 0.01778 0.42039 0.0
C1017 C 0.67024 0.98879 0.424 0.0
C1018 C 0.65828 0.03173 0.3864 0.0
C1019 C 0.65422 0.02838 0.32468 0.0
C1020 C 0.66187 0.00078 0.39196 0.0
C1021 C 0.65269 0.01026 0.2988 0.0
C1022 C 0.68171 0.98103 0.39235 0.0
C1023 C 0.68031 0.98031 0.51721 0.0
N1024 N 0.65706 0.99736 0.33231 0.0
N1025 N 0.66972 0.988 0.48534 0.0
H1026 H 0.72589 0.12129 0.24985 0.0
H1027 H 0.80061 0.15645 0.95504 0.0
H1028 H 0.70144 0.10343 0.0702 0.0
H1029 H 0.81986 0.14327 0.12492 0.0
H1030 H 0.76631 0.14887 0.00147 0.0
H1031 H 0.76277 0.1412 0.20795 0.0
C1032 C 0.72835 0.12211 0.20152 0.0
C1033 C 0.71087 0.11128 0.16292 0.0
C1034 C 0.77826 0.14809 0.02877 0.0
C1035 C 0.75242 0.13341 0.11537 0.0
C1036 C 0.79775 0.1525 0.00253 0.0
C1037 C 0.81299 0.15086 0.03693 0.0
C1038 C 0.77411 0.14185 0.08945 0.0
C1039 C 0.80846 0.14496 0.09757 0.0
C1040 C 0.74925 0.13329 0.17781 0.0
C1041 C 0.71466 0.11199 0.10093 0.0
N1042 N 0.78934 0.14067 0.12215 0.0
N1043 N 0.7351 0.12296 0.07888 0.0
H1044 H 0.99412 0.7078 0.08107 0.0
H1045 H 0.03382 0.62635 0.08714 0.0
H1046 H 0.98297 0.66675 0.93018 0.0
H1047 H 0.01708 0.64736 0.24871 0.0
H1048 H 0.01516 0.64036 0.02752 0.0
H1049 H 0.00215 0.6853 0.14321 0.0
C1050 C 0.99311 0.69383 0.06134 0.0
C1051 C 0.98802 0.6891 0.00057 0.0
C1052 C 0.01515 0.64145 0.0761 0.0
C1053 C -0.00233 0.66355 0.07085 0.0
C1054 C 0.02581 0.63356 0.10991 0.0
C1055 C 0.02641 0.63531 0.17268 0.0
C1056 C 0.00586 0.65189 0.1054 0.0
C1057 C 0.0164 0.64524 0.20041 0.0
C1058 C -0.00238 0.68095 0.0968 0.0
C1059 C 0.98681 0.67081 0.97703 0.0
N1060 N 0.00668 0.65333 0.16654 0.0
N1061 N 0.99206 0.65886 0.01201 0.0
H1062 H 0.45519 0.3355 0.03888 0.0
H1063 H 0.48863 0.45532 0.10671 0.0
H1064 H 0.42085 0.36616 0.98031 0.0
H1065 H 0.50518 0.41999 0.2283 0.0
H1066 H 0.47264 0.42519 0.03922 0.0
H1067 H 0.48137 0.36855 0.0899 0.0
C1068 C 0.45342 0.34928 0.03593 0.0
C1069 C 0.43584 0.3482 0.00592 0.0
C1070 C 0.48 0.42407 0.08028 0.0
C1071 C 0.46556 0.38568 0.06259 0.0
C1072 C 0.48917 0.44128 0.11882 0.0
C1073 C 0.49785 0.43996 0.17372 0.0
C1074 C 0.47929 0.40526 0.09676 0.0
C1075 C 0.49846 0.42152 0.18654 0.0
C1076 C 0.46823 0.368 0.06512 0.0
C1077 C 0.43408 0.36632 0.00352 0.0
N1078 N 0.48892 0.40464 0.14868 0.0
N1079 N 0.44873 0.38428 0.03143 0.0
H1080 H 0.98664 0.36169 0.44642 0.0
H1081 H 0.03424 0.45907 0.58962 0.0
H1082 H -0.00048 0.34045 0.61323 0.0
H1083 H 0.02018 0.42359 0.75513 0.0
H1084 H 0.01618 0.42582 0.53388 0.0
H1085 H 0.99216 0.3938 0.4968 0.0
C1086 C 0.99017 0.36367 0.49405 0.0
C1087 C 0.99225 0.34841 0.52636 0.0
C1088 C 0.01627 0.42516 0.58247 0.0
C1089 C -2e-05 0.38543 0.58322 0.0
C1090 C 0.02676 0.44417 0.6141 0.0
C1091 C 0.02806 0.44388 0.67684 0.0
C1092 C 0.00756 0.40582 0.61406 0.0
C1093 C 0.01885 0.42435 0.70681 0.0
C1094 C 0.99371 0.38213 0.52256 0.0
C1095 C -0.00248 0.35183 0.58727 0.0
N1096 N 0.00912 0.40609 0.67509 0.0
N1097 N 0.00123 0.37 0.61374 0.0
H1098 H 0.67842 0.64109 0.59996 0.0
H1099 H 0.80309 0.69898 0.57851 0.0
H1100 H 0.71517 0.63488 0.74227 0.0
H1101 H 0.76483 0.67497 0.4189 0.0
H1102 H 0.77108 0.67614 0.64023 0.0
H1103 H 0.70946 0.65332 0.53201 0.0
C1104 C 0.69297 0.64201 0.61652 0.0
C1105 C 0.69445 0.63724 0.67674 0.0
C1106 C 0.76977 0.67551 0.59168 0.0
C1107 C 0.72996 0.65157 0.59998 0.0
C1108 C 0.78794 0.68854 0.55669 0.0
C1109 C 0.78649 0.6882 0.49396 0.0
C1110 C 0.74991 0.66284 0.56358 0.0
C1111 C 0.76652 0.67508 0.46728 0.0
C1112 C 0.71059 0.64888 0.57774 0.0
C1113 C 0.7135 0.63849 0.69608 0.0
N1114 N 0.74885 0.66299 0.50239 0.0
N1115 N 0.73077 0.64603 0.65805 0.0
H1116 H 0.45383 0.15116 0.41667 0.0
H1117 H 0.51089 0.1409 0.71167 0.0
H1118 H 0.44769 0.17421 0.58938 0.0
H1119 H 0.48952 0.09745 0.56296 0.0
H1120 H 0.49853 0.16224 0.65811 0.0
H1121 H 0.47854 0.14119 0.46063 0.0
C1122 C 0.45835 0.15479 0.4634 0.0
C1123 C 0.44904 0.16365 0.49956 0.0
C1124 C 0.49695 0.14823 0.63698 0.0
C1125 C 0.47666 0.15189 0.55038 0.0
C1126 C 0.50404 0.13615 0.66729 0.0
C1127 C 0.50095 0.11735 0.64176 0.0
C1128 C 0.48724 0.1416 0.58045 0.0
C1129 C 0.49192 0.11174 0.58439 0.0
C1130 C 0.47225 0.14895 0.48857 0.0
C1131 C 0.45486 0.16761 0.56017 0.0
N1132 N 0.48534 0.12377 0.55574 0.0
N1133 N 0.4682 0.1615 0.58403 0.0
H1134 H 0.38861 0.98444 0.06272 0.0
H1135 H 0.44452 0.02336 0.73875 0.0
H1136 H 0.35628 0.98815 0.90503 0.0
H1137 H 0.47882 0.04645 0.90498 0.0
H1138 H 0.41166 -0.00046 0.79636 0.0
H1139 H 0.42149 0.99614 0.00118 0.0
C1140 C 0.38834 0.98717 0.01489 0.0
C1141 C 0.37007 0.98568 0.98854 0.0
C1142 C 0.42649 0.00952 0.82013 0.0
C1143 C 0.40695 -0.00128 0.91883 0.0
C1144 C 0.44514 0.02297 0.78741 0.0
C1145 C 0.46425 0.03635 0.8176 0.0
C1146 C 0.42706 0.00974 0.88327 0.0
C1147 C 0.4643 0.03601 0.88054 0.0
C1148 C 0.40699 0.9939 0.98006 0.0
C1149 C 0.37029 0.98943 0.92672 0.0
N1150 N 0.44591 0.02284 0.91156 0.0
N1151 N 0.38853 0.99592 0.89389 0.0
H1152 H 0.13046 0.51336 0.87297 0.0
H1153 H 0.16704 0.42735 0.8514 0.0
H1154 H 0.10008 0.45623 0.76814 0.0
H1155 H 0.17983 0.46628 0.00813 0.0
H1156 H 0.1533 0.44751 0.80037 0.0
H1157 H 0.15786 0.50462 0.90489 0.0
C1158 C 0.12989 0.49928 0.85574 0.0
C1159 C 0.11304 0.48535 0.81837 0.0
C1160 C 0.1596 0.45205 0.84538 0.0
C1161 C 0.14414 0.47559 0.85327 0.0
C1162 C 0.16762 0.44069 0.87421 0.0
C1163 C 0.17453 0.44526 0.93376 0.0
C1164 C 0.15803 0.4678 0.87685 0.0
C1165 C 0.17476 0.46248 0.96188 0.0
C1166 C 0.1454 0.49429 0.874 0.0
C1167 C 0.11276 0.46724 0.79743 0.0
N1168 N 0.16615 0.47294 0.93353 0.0
N1169 N 0.12803 0.46288 0.81518 0.0
H1170 H 0.65421 0.69233 0.77073 0.0
H1171 H 0.68013 0.76174 0.06771 0.0
H1172 H 0.65764 0.66899 0.94584 0.0
H1173 H 0.71763 0.78655 0.90427 0.0
H1174 H 0.65841 0.72726 0.01813 0.0
H1175 H 0.66455 0.72689 0.81592 0.0
C1176 C 0.65651 0.69436 0.81889 0.0
C1177 C 0.65466 0.67788 0.8552 0.0
C1178 C 0.67107 0.74049 0.99296 0.0
C1179 C 0.66633 0.71681 0.90644 0.0
C1180 C 0.68335 0.76007 0.02095 0.0
C1181 C 0.70074 0.77677 0.98997 0.0
C1182 C 0.67598 0.73796 0.9334 0.0
C1183 C 0.70446 0.77388 0.92966 0.0
C1184 C 0.66245 0.71396 0.84443 0.0
C1185 C 0.65856 0.68133 0.9169 0.0
N1186 N 0.69221 0.75477 0.90325 0.0
N1187 N 0.66411 0.70043 0.94081 0.0
H1188 H 0.80087 0.01091 0.66057 0.0
H1189 H 0.82212 0.12153 0.78472 0.0
H1190 H 0.75387 0.03077 0.66322 0.0
H1191 H 0.8527 0.09058 0.86876 0.0
H1192 H 0.80341 0.09166 0.7177 0.0
H1193 H 0.82564 0.04298 0.71765 0.0
C1194 C 0.79589 0.02209 0.67266 0.0
C1195 C 0.77533 0.01825 0.65743 0.0
C1196 C 0.81432 0.09142 0.75049 0.0
C1197 C 0.80341 0.05468 0.72109 0.0
C1198 C 0.82507 0.1085 0.78883 0.0
C1199 C 0.83873 0.10839 0.83323 0.0
C1200 C 0.81719 0.074 0.75607 0.0
C1201 C 0.84215 0.09118 0.83547 0.0
C1202 C 0.80992 0.04023 0.70531 0.0
C1203 C 0.76952 0.03307 0.67435 0.0
N1204 N 0.83125 0.07446 0.7976 0.0
N1205 N 0.78351 0.05065 0.70493 0.0
H1206 H 0.116 0.81252 0.59323 0.0
H1207 H 0.05263 0.78376 0.90843 0.0
H1208 H 0.14589 0.81551 0.76273 0.0
H1209 H 0.02227 0.76097 0.73699 0.0
H1210 H 0.08765 0.8046 0.85636 0.0
H1211 H 0.0822 0.80243 0.64663 0.0
C1212 C 0.11543 0.81138 0.64191 0.0
C1213 C 0.13363 0.8152 0.67413 0.0
C1214 C 0.07324 0.79536 0.83018 0.0
C1215 C 0.09518 0.80324 0.73512 0.0
C1216 C 0.05335 0.7837 0.85971 0.0
C1217 C 0.03472 0.77112 0.82644 0.0
C1218 C 0.07432 0.79411 0.76729 0.0
C1219 C 0.03636 0.77081 0.76377 0.0
C1220 C 0.09621 0.80556 0.67226 0.0
C1221 C 0.13212 0.81291 0.73678 0.0
N1222 N 0.05585 0.78214 0.73611 0.0
N1223 N 0.11315 0.80707 0.76549 0.0
H1224 H 0.32258 0.33671 0.56221 0.0
H1225 H 0.34249 0.31703 0.90349 0.0
H1226 H 0.2977 0.35385 0.71515 0.0
H1227 H 0.36562 0.29796 0.75078 0.0
H1228 H 0.32304 0.32762 0.83531 0.0
H1229 H 0.3351 0.31889 0.62995 0.0
C1230 C 0.31925 0.33616 0.61002 0.0
C1231 C 0.30856 0.34611 0.63328 0.0
C1232 C 0.33212 0.32086 0.81659 0.0
C1233 C 0.3237 0.32679 0.71125 0.0
C1234 C 0.34305 0.3147 0.85554 0.0
C1235 C 0.35496 0.30599 0.8325 0.0
C1236 C 0.33355 0.31871 0.75411 0.0
C1237 C 0.35614 0.30419 0.77005 0.0
C1238 C 0.32659 0.32623 0.64875 0.0
C1239 C 0.30553 0.34594 0.69566 0.0
N1240 N 0.3455 0.31044 0.73293 0.0
N1241 N 0.3131 0.33646 0.73256 0.0
H1242 H 0.06371 0.31848 0.39104 0.0
H1243 H 0.10775 0.36383 0.06248 0.0
H1244 H 0.02789 0.33336 0.26545 0.0
H1245 H 0.15037 0.37924 0.21289 0.0
H1246 H 0.07673 0.34619 0.13165 0.0
H1247 H 0.09445 0.33392 0.32012 0.0
C1248 C 0.06228 0.32481 0.3484 0.0
C1249 C 0.04341 0.32486 0.33403 0.0
C1250 C 0.09288 0.35337 0.14945 0.0
C1251 C 0.0781 0.34225 0.25355 0.0
C1252 C 0.11045 0.36326 0.11016 0.0
C1253 C 0.13136 0.37228 0.13244 0.0
C1254 C 0.0964 0.35252 0.21111 0.0
C1255 C 0.13432 0.37194 0.19444 0.0
C1256 C 0.07979 0.3337 0.30836 0.0
C1257 C 0.04228 0.33324 0.27837 0.0
N1258 N 0.11694 0.36189 0.23189 0.0
N1259 N 0.05941 0.34158 0.24 0.0
H1260 H 0.83625 0.79241 0.38563 0.0
H1261 H 0.79785 0.81453 0.0714 0.0
H1262 H 0.82073 0.75148 0.23213 0.0
H1263 H 0.77536 0.82402 0.24218 0.0
H1264 H 0.81954 0.80253 0.12492 0.0
H1265 H 0.82691 0.81516 0.32698 0.0
C1266 C 0.83138 0.78854 0.33923 0.0
C1267 C 0.82895 0.77001 0.31363 0.0
C1268 C 0.8103 0.80781 0.1505 0.0
C1269 C 0.81883 0.79591 0.24669 0.0
C1270 C 0.7981 0.81474 0.12014 0.0
C1271 C 0.78529 0.82064 0.15279 0.0
C1272 C 0.80959 0.80684 0.21368 0.0
C1273 C 0.7854 0.8199 0.21576 0.0
C1274 C 0.82603 0.80142 0.30604 0.0
C1275 C 0.82251 0.76553 0.25353 0.0
N1276 N 0.79741 0.81315 0.24434 0.0
N1277 N 0.81761 0.77837 0.22204 0.0
H1278 H 0.3328 0.0446 0.08747 0.0
H1279 H 0.35633 0.09357 0.41864 0.0
H1280 H 0.32112 0.00799 0.24984 0.0
H1281 H 0.37261 0.13131 0.25686 0.0
H1282 H 0.33844 0.06141 0.35784 0.0
H1283 H 0.34233 0.07596 0.14866 0.0
C1284 C 0.33173 0.04313 0.13607 0.0
C1285 C 0.32563 0.02372 0.16402 0.0
C1286 C 0.34566 0.0767 0.33552 0.0
C1287 C 0.33728 0.05942 0.23407 0.0
C1288 C 0.35568 0.09498 0.37027 0.0
C1289 C 0.36526 0.11492 0.34253 0.0
C1290 C 0.3457 0.07845 0.27249 0.0
C1291 C 0.36495 0.11609 0.27968 0.0
C1292 C 0.33735 0.061 0.17097 0.0
C1293 C 0.32537 0.02268 0.22693 0.0
N1294 N 0.35527 0.09808 0.24665 0.0
N1295 N 0.33112 0.04029 0.25991 0.0
loop_
_geom_bond_atom_site_label_1
_geom_bond_atom_site_label_2
_geom_bond_distance
_geom_bond_site_symmetry_2
_ccdc_geom_bond_type
Mn0 O5 2.095 . S
Mn0 O15 2.162 . S
Mn0 O16 2.297 . S
Mn0 O24 2.385 . S
Mn0 O25 2.209 . S
Mn0 O26 2.094 . S
Mn1 O6 2.121 . S
Mn1 N8 2.257 1_455 S
Mn1 N17 2.282 . S
Mn1 O25 2.215 . S
Mn1 O27 2.117 . S
C2 O24 1.234 . S
C2 O25 1.283 . S
C3 O15 1.281 . S
C3 O16 1.236 . S
C4 O26 1.240 . S
C4 O27 1.264 . S
O5 Mn0 2.095 . S
O5 C14 1.250 . S
O6 Mn1 2.121 . S
O6 C14 1.258 . S
C7 N8 1.326 . S
C7 C11 1.460 . S
C7 H13 0.963 . S
N8 Mn1 2.257 1_655 S
N8 C7 1.326 . S
N8 C12 1.362 . S
C9 C10 1.258 . S
C9 C12 1.431 . S
C9 C29 1.449 . S
C10 C9 1.258 . S
C10 C11 1.477 . S
C10 H30 0.931 . S
C11 C7 1.460 . S
C11 C10 1.477 . S
C11 H31 0.930 . S
C12 N8 1.362 . S
C12 C9 1.431 . S
C12 C22 1.476 . S
H13 C7 0.963 . S
C14 O5 1.250 . S
C14 O6 1.258 . S
O15 Mn0 2.162 . S
O15 C3 1.281 . S
O16 Mn0 2.297 . S
O16 C3 1.236 . S
N17 Mn1 2.282 . S
N17 C18 1.328 . S
N17 C22 1.318 1_455 S
C18 N17 1.328 . S
C18 C19 1.457 . S
C18 H23 0.929 . S
C19 C18 1.457 . S
C19 C20 1.291 1_455 S
C19 H32 0.931 1_554 S
C20 C19 1.291 1_655 S
C20 C21 1.373 . S
C20 H33 0.929 1_554 S
C21 C20 1.373 . S
C21 C22 1.396 . S
C21 C28 1.403 . S
C22 C12 1.476 . S
C22 N17 1.318 1_655 S
C22 C21 1.396 . S
H23 C18 0.929 . S
O24 Mn0 2.385 . S
O24 C2 1.234 . S
O25 Mn0 2.209 . S
O25 Mn1 2.215 . S
O25 C2 1.283 . S
O26 Mn0 2.094 . S
O26 C4 1.240 . S
O27 Mn1 2.117 . S
O27 C4 1.264 . S
C28 C21 1.403 . S
C28 C29 1.399 . S
C28 H34 0.929 . S
C29 C9 1.449 . S
C29 C28 1.399 . S
C29 H35 0.930 . S
H30 C10 0.931 . S
H31 C11 0.930 . S
H32 C19 0.931 1_556 S
H33 C20 0.929 1_556 S
H34 C28 0.929 . S
H35 C29 0.930 . S
Mn36 O41 2.095 . S
Mn36 O51 2.162 . S
Mn36 O52 2.297 . S
Mn36 O60 2.385 . S
Mn36 O61 2.209 . S
Mn36 O62 2.094 . S
Mn37 O42 2.121 . S
Mn37 N44 2.257 . S
Mn37 N53 2.282 . S
Mn37 O61 2.215 . S
Mn37 O63 2.117 . S
C38 O60 1.234 . S
C38 O61 1.283 . S
C39 O51 1.281 . S
C39 O52 1.236 . S
C40 O62 1.240 . S
C40 O63 1.264 . S
O41 Mn36 2.095 . S
O41 C50 1.250 . S
O42 Mn37 2.121 . S
O42 C50 1.258 . S
C43 N44 1.326 . S
C43 C47 1.460 . S
C43 H49 0.929 . S
N44 Mn37 2.257 . S
N44 C43 1.326 . S
N44 C48 1.362 . S
C45 C46 1.258 . S
C45 C48 1.431 . S
C45 C65 1.449 . S
C46 C45 1.258 . S
C46 C47 1.477 . S
C46 H66 0.931 . S
C47 C43 1.460 . S
C47 C46 1.477 . S
C47 H67 0.930 . S
C48 N44 1.362 . S
C48 C45 1.431 . S
C48 C58 1.476 . S
H49 C43 0.929 . S
C50 O41 1.250 . S
C50 O42 1.258 . S
O51 Mn36 2.162 . S
O51 C39 1.281 . S
O52 Mn36 2.297 . S
O52 C39 1.236 . S
N53 Mn37 2.282 . S
N53 C54 1.328 . S
N53 C58 1.318 . S
C54 N53 1.328 . S
C54 C55 1.457 . S
C54 H59 0.929 . S
C55 C54 1.457 . S
C55 C56 1.291 . S
C55 H68 0.931 . S
C56 C55 1.291 . S
C56 C57 1.373 . S
C56 H69 0.929 . S
C57 C56 1.373 . S
C57 C58 1.396 . S
C57 C64 1.403 . S
C58 C48 1.476 . S
C58 N53 1.318 . S
C58 C57 1.396 . S
H59 C54 0.929 . S
O60 Mn36 2.385 . S
O60 C38 1.234 . S
O61 Mn36 2.209 . S
O61 Mn37 2.215 . S
O61 C38 1.283 . S
O62 Mn36 2.094 . S
O62 C40 1.240 . S
O63 Mn37 2.117 . S
O63 C40 1.264 . S
C64 C57 1.403 . S
C64 C65 1.399 . S
C64 H70 0.929 . S
C65 C45 1.449 . S
C65 C64 1.399 . S
C65 H71 0.930 . S
H66 C46 0.931 . S
H67 C47 0.930 . S
H68 C55 0.931 . S
H69 C56 0.929 . S
H70 C64 0.929 . S
H71 C65 0.930 . S
Mn72 O77 2.095 . S
Mn72 O87 2.162 . S
Mn72 O88 2.297 . S
Mn72 O96 2.385 . S
Mn72 O97 2.209 . S
Mn72 O98 2.094 . S
Mn73 O78 2.121 . S
Mn73 N80 2.257 . S
Mn73 N89 2.282 . S
Mn73 O97 2.215 . S
Mn73 O99 2.117 . S
C74 O96 1.234 . S
C74 O97 1.283 . S
C75 O87 1.281 . S
C75 O88 1.236 . S
C76 O98 1.240 . S
C76 O99 1.264 . S
O77 Mn72 2.095 . S
O77 C86 1.250 . S
O78 Mn73 2.121 . S
O78 C86 1.258 . S
C79 N80 1.326 . S
C79 C83 1.460 . S
C79 H85 0.929 . S
N80 Mn73 2.257 . S
N80 C79 1.326 . S
N80 C84 1.362 . S
C81 C82 1.258 . S
C81 C84 1.431 . S
C81 C101 1.449 . S
C82 C81 1.258 . S
C82 C83 1.477 . S
C82 H102 0.931 . S
C83 C79 1.460 . S
C83 C82 1.477 . S
C83 H103 0.930 . S
C84 N80 1.362 . S
C84 C81 1.431 . S
C84 C94 1.476 . S
H85 C79 0.929 . S
C86 O77 1.250 . S
C86 O78 1.258 . S
O87 Mn72 2.162 . S
O87 C75 1.281 . S
O88 Mn72 2.297 . S
O88 C75 1.236 . S
N89 Mn73 2.282 . S
N89 C90 1.328 . S
N89 C94 1.318 . S
C90 N89 1.328 . S
C90 C91 1.457 . S
C90 H95 0.929 . S
C91 C90 1.457 . S
C91 C92 1.291 . S
C91 H104 0.931 . S
C92 C91 1.291 . S
C92 C93 1.373 . S
C92 H105 0.929 . S
C93 C92 1.373 . S
C93 C94 1.396 . S
C93 C100 1.403 . S
C94 C84 1.476 . S
C94 N89 1.318 . S
C94 C93 1.396 . S
H95 C90 0.929 . S
O96 Mn72 2.385 . S
O96 C74 1.234 . S
O97 Mn72 2.209 . S
O97 Mn73 2.215 . S
O97 C74 1.283 . S
O98 Mn72 2.094 . S
O98 C76 1.240 . S
O99 Mn73 2.117 . S
O99 C76 1.264 . S
C100 C93 1.403 . S
C100 C101 1.399 . S
C100 H106 0.929 . S
C101 C81 1.449 . S
C101 C100 1.399 . S
C101 H107 0.930 . S
H102 C82 0.931 . S
H103 C83 0.930 . S
H104 C91 0.931 . S
H105 C92 0.929 . S
H106 C100 0.929 . S
H107 C101 0.930 . S
Mn108 O113 2.095 . S
Mn108 O123 2.162 . S
Mn108 O124 2.297 . S
Mn108 O132 2.385 . S
Mn108 O133 2.209 . S
Mn108 O134 2.094 . S
Mn109 O114 2.121 . S
Mn109 N116 2.257 1_455 S
Mn109 N125 2.282 . S
Mn109 O133 2.215 . S
Mn109 O135 2.117 . S
C110 O132 1.234 . S
C110 O133 1.283 . S
C111 O123 1.281 . S
C111 O124 1.236 . S
C112 O134 1.240 . S
C112 O135 1.264 . S
O113 Mn108 2.095 . S
O113 C122 1.250 . S
O114 Mn109 2.121 . S
O114 C122 1.258 . S
C115 N116 1.326 . S
C115 C119 1.460 . S
C115 H121 0.929 . S
N116 Mn109 2.257 1_655 S
N116 C115 1.326 . S
N116 C120 1.362 . S
C117 C118 1.258 . S
C117 C120 1.431 . S
C117 C137 1.449 . S
C118 C117 1.258 . S
C118 C119 1.477 . S
C118 H138 0.931 . S
C119 C115 1.460 . S
C119 C118 1.477 . S
C119 H139 0.930 . S
C120 N116 1.362 . S
C120 C117 1.431 . S
C120 C130 1.476 . S
H121 C115 0.929 . S
C122 O113 1.250 . S
C122 O114 1.258 . S
O123 Mn108 2.162 . S
O123 C111 1.281 . S
O124 Mn108 2.297 . S
O124 C111 1.236 . S
N125 Mn109 2.282 . S
N125 C126 1.328 . S
N125 C130 1.318 1_455 S
C126 N125 1.328 . S
C126 C127 1.457 . S
C126 H131 0.929 . S
C127 C126 1.457 . S
C127 C128 1.291 1_455 S
C127 H140 0.931 . S
C128 C127 1.291 1_655 S
C128 C129 1.373 . S
C128 H141 0.929 . S
C129 C128 1.373 . S
C129 C130 1.396 . S
C129 C136 1.403 . S
C130 C120 1.476 . S
C130 N125 1.318 1_655 S
C130 C129 1.396 . S
H131 C126 0.929 . S
O132 Mn108 2.385 . S
O132 C110 1.234 . S
O133 Mn108 2.209 . S
O133 Mn109 2.215 . S
O133 C110 1.283 . S
O134 Mn108 2.094 . S
O134 C112 1.240 . S
O135 Mn109 2.117 . S
O135 C112 1.264 . S
C136 C129 1.403 . S
C136 C137 1.399 . S
C136 H142 0.929 . S
C137 C117 1.449 . S
C137 C136 1.399 . S
C137 H143 0.930 . S
H138 C118 0.931 . S
H139 C119 0.930 . S
H140 C127 0.931 . S
H141 C128 0.929 . S
H142 C136 0.929 . S
H143 C137 0.930 . S
Mn144 O149 2.095 . S
Mn144 O159 2.162 . S
Mn144 O160 2.297 . S
Mn144 O168 2.385 . S
Mn144 O169 2.209 . S
Mn144 O170 2.094 . S
Mn145 O150 2.121 . S
Mn145 N152 2.257 . S
Mn145 N161 2.282 . S
Mn145 O169 2.215 . S
Mn145 O171 2.117 . S
C146 O168 1.234 . S
C146 O169 1.283 . S
C147 O159 1.281 . S
C147 O160 1.236 . S
C148 O170 1.240 . S
C148 O171 1.264 . S
O149 Mn144 2.095 . S
O149 C158 1.250 . S
O150 Mn145 2.121 . S
O150 C158 1.258 . S
C151 N152 1.326 . S
C151 C155 1.460 . S
C151 H157 0.929 . S
N152 Mn145 2.257 . S
N152 C151 1.326 . S
N152 C156 1.362 . S
C153 C154 1.258 . S
C153 C156 1.431 . S
C153 C173 1.449 . S
C154 C153 1.258 . S
C154 C155 1.477 . S
C154 H174 0.931 . S
C155 C151 1.460 . S
C155 C154 1.477 . S
C155 H175 0.930 . S
C156 N152 1.362 . S
C156 C153 1.431 . S
C156 C166 1.476 . S
H157 C151 0.929 . S
C158 O149 1.250 . S
C158 O150 1.258 . S
O159 Mn144 2.162 . S
O159 C147 1.281 . S
O160 Mn144 2.297 . S
O160 C147 1.236 . S
N161 Mn145 2.282 . S
N161 C162 1.328 . S
N161 C166 1.318 . S
C162 N161 1.328 . S
C162 C163 1.457 . S
C162 H167 0.929 . S
C163 C162 1.457 . S
C163 C164 1.291 . S
C163 H176 0.931 . S
C164 C163 1.291 . S
C164 C165 1.373 . S
C164 H177 0.929 . S
C165 C164 1.373 . S
C165 C166 1.396 . S
C165 C172 1.403 . S
C166 C156 1.476 . S
C166 N161 1.318 . S
C166 C165 1.396 . S
H167 C162 0.929 . S
O168 Mn144 2.385 . S
O168 C146 1.234 . S
O169 Mn144 2.209 . S
O169 Mn145 2.215 . S
O169 C146 1.283 . S
O170 Mn144 2.094 . S
O170 C148 1.240 . S
O171 Mn145 2.117 . S
O171 C148 1.264 . S
C172 C165 1.403 . S
C172 C173 1.399 . S
C172 H178 0.929 . S
C173 C153 1.449 . S
C173 C172 1.399 . S
C173 H179 0.930 . S
H174 C154 0.931 . S
H175 C155 0.930 . S
H176 C163 0.931 . S
H177 C164 0.929 . S
H178 C172 0.929 . S
H179 C173 0.930 . S
Mn180 O185 2.095 . S
Mn180 O195 2.162 . S
Mn180 O196 2.297 . S
Mn180 O204 2.385 . S
Mn180 O205 2.209 . S
Mn180 O206 2.094 . S
Mn181 O186 2.121 . S
Mn181 N188 2.257 1_545 S
Mn181 N197 2.282 . S
Mn181 O205 2.215 . S
Mn181 O207 2.117 . S
C182 O204 1.234 . S
C182 O205 1.283 . S
C183 O195 1.281 . S
C183 O196 1.236 . S
C184 O206 1.240 . S
C184 O207 1.264 . S
O185 Mn180 2.095 . S
O185 C194 1.250 . S
O186 Mn181 2.121 . S
O186 C194 1.258 . S
C187 N188 1.326 . S
C187 C191 1.460 . S
C187 H193 0.942 . S
N188 Mn181 2.257 1_565 S
N188 C187 1.326 . S
N188 C192 1.362 . S
C189 C190 1.258 . S
C189 C192 1.431 . S
C189 C209 1.449 . S
C190 C189 1.258 . S
C190 C191 1.477 . S
C190 H210 0.931 . S
C191 C187 1.460 . S
C191 C190 1.477 . S
C191 H211 0.930 . S
C192 N188 1.362 . S
C192 C189 1.431 . S
C192 C202 1.476 . S
H193 C187 0.942 . S
C194 O185 1.250 . S
C194 O186 1.258 . S
O195 Mn180 2.162 . S
O195 C183 1.281 . S
O196 Mn180 2.297 . S
O196 C183 1.236 . S
N197 Mn181 2.282 . S
N197 C198 1.328 . S
N197 C202 1.318 1_545 S
C198 N197 1.328 . S
C198 C199 1.457 . S
C198 H203 0.929 . S
C199 C198 1.457 . S
C199 C200 1.291 1_545 S
C199 H212 0.931 1_556 S
C200 C199 1.291 1_565 S
C200 C201 1.373 . S
C200 H213 0.918 1_556 S
C201 C200 1.373 . S
C201 C202 1.396 . S
C201 C208 1.403 . S
C202 C192 1.476 . S
C202 N197 1.318 1_565 S
C202 C201 1.396 . S
H203 C198 0.929 . S
O204 Mn180 2.385 . S
O204 C182 1.234 . S
O205 Mn180 2.209 . S
O205 Mn181 2.215 . S
O205 C182 1.283 . S
O206 Mn180 2.094 . S
O206 C184 1.240 . S
O207 Mn181 2.117 . S
O207 C184 1.264 . S
C208 C201 1.403 . S
C208 C209 1.399 . S
C208 H214 0.929 . S
C209 C189 1.449 . S
C209 C208 1.399 . S
C209 H215 0.930 . S
H210 C190 0.931 . S
H211 C191 0.930 . S
H212 C199 0.931 1_554 S
H213 C200 0.918 1_554 S
H214 C208 0.929 . S
H215 C209 0.930 . S
Mn216 O221 2.095 . S
Mn216 O231 2.162 . S
Mn216 O232 2.297 . S
Mn216 O240 2.385 . S
Mn216 O241 2.209 . S
Mn216 O242 2.094 . S
Mn217 O222 2.121 . S
Mn217 N224 2.257 . S
Mn217 N233 2.282 . S
Mn217 O241 2.215 . S
Mn217 O243 2.117 . S
C218 O240 1.234 . S
C218 O241 1.283 . S
C219 O231 1.281 1_545 S
C219 O232 1.236 1_545 S
C220 O242 1.240 . S
C220 O243 1.264 . S
O221 Mn216 2.095 . S
O221 C230 1.250 . S
O222 Mn217 2.121 . S
O222 C230 1.258 . S
C223 N224 1.326 . S
C223 C227 1.460 . S
C223 H229 0.929 . S
N224 Mn217 2.257 . S
N224 C223 1.326 . S
N224 C228 1.362 . S
C225 C226 1.258 . S
C225 C228 1.431 . S
C225 C245 1.449 . S
C226 C225 1.258 . S
C226 C227 1.477 . S
C226 H246 0.931 . S
C227 C223 1.460 . S
C227 C226 1.477 . S
C227 H247 0.930 . S
C228 N224 1.362 . S
C228 C225 1.431 . S
C228 C238 1.476 . S
H229 C223 0.929 . S
C230 O221 1.250 . S
C230 O222 1.258 . S
O231 Mn216 2.162 . S
O231 C219 1.281 1_565 S
O232 Mn216 2.297 . S
O232 C219 1.236 1_565 S
N233 Mn217 2.282 . S
N233 C234 1.328 . S
N233 C238 1.318 . S
C234 N233 1.328 . S
C234 C235 1.457 . S
C234 H239 0.929 . S
C235 C234 1.457 . S
C235 C236 1.291 . S
C235 H248 0.931 . S
C236 C235 1.291 . S
C236 C237 1.373 . S
C236 H249 0.929 . S
C237 C236 1.373 . S
C237 C238 1.396 . S
C237 C244 1.403 . S
C238 C228 1.476 . S
C238 N233 1.318 . S
C238 C237 1.396 . S
H239 C234 0.929 . S
O240 Mn216 2.385 . S
O240 C218 1.234 . S
O241 Mn216 2.209 . S
O241 Mn217 2.215 . S
O241 C218 1.283 . S
O242 Mn216 2.094 . S
O242 C220 1.240 . S
O243 Mn217 2.117 . S
O243 C220 1.264 . S
C244 C237 1.403 . S
C244 C245 1.399 . S
C244 H250 0.929 . S
C245 C225 1.449 . S
C245 C244 1.399 . S
C245 H251 0.930 . S
H246 C226 0.931 . S
H247 C227 0.930 . S
H248 C235 0.931 . S
H249 C236 0.929 . S
H250 C244 0.929 . S
H251 C245 0.930 . S
Mn252 O257 2.095 . S
Mn252 O267 2.162 . S
Mn252 O268 2.297 . S
Mn252 O276 2.385 . S
Mn252 O277 2.209 . S
Mn252 O278 2.094 . S
Mn253 O258 2.121 . S
Mn253 N260 2.257 . S
Mn253 N269 2.282 . S
Mn253 O277 2.215 . S
Mn253 O279 2.117 . S
C254 O276 1.234 . S
C254 O277 1.283 . S
C255 O267 1.281 . S
C255 O268 1.236 . S
C256 O278 1.240 . S
C256 O279 1.264 . S
O257 Mn252 2.095 . S
O257 C266 1.250 . S
O258 Mn253 2.121 . S
O258 C266 1.258 . S
C259 N260 1.326 . S
C259 C263 1.460 . S
C259 H265 0.929 . S
N260 Mn253 2.257 . S
N260 C259 1.326 . S
N260 C264 1.362 . S
C261 C262 1.258 . S
C261 C264 1.431 . S
C261 C281 1.449 . S
C262 C261 1.258 . S
C262 C263 1.477 . S
C262 H282 0.931 . S
C263 C259 1.460 . S
C263 C262 1.477 . S
C263 H283 0.930 . S
C264 N260 1.362 . S
C264 C261 1.431 . S
C264 C274 1.476 . S
H265 C259 0.929 . S
C266 O257 1.250 . S
C266 O258 1.258 . S
O267 Mn252 2.162 . S
O267 C255 1.281 . S
O268 Mn252 2.297 . S
O268 C255 1.236 . S
N269 Mn253 2.282 . S
N269 C270 1.328 . S
N269 C274 1.318 . S
C270 N269 1.328 . S
C270 C271 1.457 . S
C270 H275 0.929 . S
C271 C270 1.457 . S
C271 C272 1.291 . S
C271 H284 0.931 . S
C272 C271 1.291 . S
C272 C273 1.373 . S
C272 H285 0.929 . S
C273 C272 1.373 . S
C273 C274 1.396 . S
C273 C280 1.403 . S
C274 C264 1.476 . S
C274 N269 1.318 . S
C274 C273 1.396 . S
H275 C270 0.929 . S
O276 Mn252 2.385 . S
O276 C254 1.234 . S
O277 Mn252 2.209 . S
O277 Mn253 2.215 . S
O277 C254 1.283 . S
O278 Mn252 2.094 . S
O278 C256 1.240 . S
O279 Mn253 2.117 . S
O279 C256 1.264 . S
C280 C273 1.403 . S
C280 C281 1.399 . S
C280 H286 0.929 . S
C281 C261 1.449 . S
C281 C280 1.399 . S
C281 H287 0.930 . S
H282 C262 0.931 . S
H283 C263 0.930 . S
H284 C271 0.931 . S
H285 C272 0.929 . S
H286 C280 0.929 . S
H287 C281 0.930 . S
Mn288 O293 2.095 . S
Mn288 O303 2.162 . S
Mn288 O304 2.297 . S
Mn288 O312 2.385 . S
Mn288 O313 2.209 . S
Mn288 O314 2.094 . S
Mn289 O294 2.121 . S
Mn289 N296 2.257 . S
Mn289 N305 2.282 . S
Mn289 O313 2.215 . S
Mn289 O315 2.117 . S
C290 O312 1.234 . S
C290 O313 1.283 . S
C291 O303 1.281 . S
C291 O304 1.236 . S
C292 O314 1.240 . S
C292 O315 1.264 . S
O293 Mn288 2.095 . S
O293 C302 1.250 . S
O294 Mn289 2.121 . S
O294 C302 1.258 . S
C295 N296 1.326 . S
C295 C299 1.460 . S
C295 H301 0.929 . S
N296 Mn289 2.257 . S
N296 C295 1.326 . S
N296 C300 1.362 . S
C297 C298 1.258 . S
C297 C300 1.431 . S
C297 C317 1.449 . S
C298 C297 1.258 . S
C298 C299 1.477 . S
C298 H318 0.931 . S
C299 C295 1.460 . S
C299 C298 1.477 . S
C299 H319 0.930 . S
C300 N296 1.362 . S
C300 C297 1.431 . S
C300 C310 1.476 . S
H301 C295 0.929 . S
C302 O293 1.250 . S
C302 O294 1.258 . S
O303 Mn288 2.162 . S
O303 C291 1.281 . S
O304 Mn288 2.297 . S
O304 C291 1.236 . S
N305 Mn289 2.282 . S
N305 C306 1.328 . S
N305 C310 1.318 . S
C306 N305 1.328 . S
C306 C307 1.457 . S
C306 H311 0.929 . S
C307 C306 1.457 . S
C307 C308 1.291 . S
C307 H320 0.931 . S
C308 C307 1.291 . S
C308 C309 1.373 . S
C308 H321 0.929 . S
C309 C308 1.373 . S
C309 C310 1.396 . S
C309 C316 1.403 . S
C310 C300 1.476 . S
C310 N305 1.318 . S
C310 C309 1.396 . S
H311 C306 0.929 . S
O312 Mn288 2.385 . S
O312 C290 1.234 . S
O313 Mn288 2.209 . S
O313 Mn289 2.215 . S
O313 C290 1.283 . S
O314 Mn288 2.094 . S
O314 C292 1.240 . S
O315 Mn289 2.117 . S
O315 C292 1.264 . S
C316 C309 1.403 . S
C316 C317 1.399 . S
C316 H322 0.929 . S
C317 C297 1.449 . S
C317 C316 1.399 . S
C317 H323 0.930 . S
H318 C298 0.931 . S
H319 C299 0.930 . S
H320 C307 0.931 . S
H321 C308 0.929 . S
H322 C316 0.929 . S
H323 C317 0.930 . S
Mn324 O329 2.095 . S
Mn324 O339 2.162 . S
Mn324 O340 2.297 . S
Mn324 O348 2.385 . S
Mn324 O349 2.209 . S
Mn324 O350 2.094 . S
Mn325 O330 2.121 . S
Mn325 N332 2.257 . S
Mn325 N341 2.282 . S
Mn325 O349 2.215 . S
Mn325 O351 2.117 . S
C326 O348 1.234 . S
C326 O349 1.283 . S
C327 O339 1.281 . S
C327 O340 1.236 . S
C328 O350 1.240 . S
C328 O351 1.264 . S
O329 Mn324 2.095 . S
O329 C338 1.250 1_554 S
O330 Mn325 2.121 . S
O330 C338 1.258 1_554 S
C331 N332 1.326 . S
C331 C335 1.460 . S
C331 H337 0.929 1_554 S
N332 Mn325 2.257 . S
N332 C331 1.326 . S
N332 C336 1.362 . S
C333 C334 1.258 . S
C333 C336 1.431 . S
C333 C353 1.449 . S
C334 C333 1.258 . S
C334 C335 1.477 . S
C334 H354 0.931 . S
C335 C331 1.460 . S
C335 C334 1.477 . S
C335 H355 0.930 1_554 S
C336 N332 1.362 . S
C336 C333 1.431 . S
C336 C346 1.476 . S
H337 C331 0.929 1_556 S
C338 O329 1.250 1_556 S
C338 O330 1.258 1_556 S
O339 Mn324 2.162 . S
O339 C327 1.281 . S
O340 Mn324 2.297 . S
O340 C327 1.236 . S
N341 Mn325 2.282 . S
N341 C342 1.328 . S
N341 C346 1.318 . S
C342 N341 1.328 . S
C342 C343 1.457 . S
C342 H347 0.929 . S
C343 C342 1.457 . S
C343 C344 1.291 . S
C343 H356 0.931 . S
C344 C343 1.291 . S
C344 C345 1.373 . S
C344 H357 0.929 . S
C345 C344 1.373 . S
C345 C346 1.396 . S
C345 C352 1.403 . S
C346 C336 1.476 . S
C346 N341 1.318 . S
C346 C345 1.396 . S
H347 C342 0.929 . S
O348 Mn324 2.385 . S
O348 C326 1.234 . S
O349 Mn324 2.209 . S
O349 Mn325 2.215 . S
O349 C326 1.283 . S
O350 Mn324 2.094 . S
O350 C328 1.240 . S
O351 Mn325 2.117 . S
O351 C328 1.264 . S
C352 C345 1.403 . S
C352 C353 1.399 . S
C352 H358 0.929 . S
C353 C333 1.449 . S
C353 C352 1.399 . S
C353 H359 0.930 . S
H354 C334 0.931 . S
H355 C335 0.930 1_556 S
H356 C343 0.931 . S
H357 C344 0.929 . S
H358 C352 0.929 . S
H359 C353 0.930 . S
Mn360 O365 2.095 . S
Mn360 O375 2.162 . S
Mn360 O376 2.297 . S
Mn360 O384 2.385 . S
Mn360 O385 2.209 . S
Mn360 O386 2.094 . S
Mn361 O366 2.121 . S
Mn361 N368 2.257 . S
Mn361 N377 2.282 . S
Mn361 O385 2.215 . S
Mn361 O387 2.117 . S
C362 O384 1.211 1_545 S
C362 O385 1.273 1_545 S
C363 O375 1.281 . S
C363 O376 1.236 . S
C364 O386 1.240 . S
C364 O387 1.264 . S
O365 Mn360 2.095 . S
O365 C374 1.250 . S
O366 Mn361 2.121 . S
O366 C374 1.258 . S
C367 N368 1.326 . S
C367 C371 1.460 1_565 S
C367 H373 0.929 . S
N368 Mn361 2.257 . S
N368 C367 1.326 . S
N368 C372 1.362 1_565 S
C369 C370 1.258 . S
C369 C372 1.431 . S
C369 C389 1.449 . S
C370 C369 1.258 . S
C370 C371 1.477 . S
C370 H390 0.931 . S
C371 C367 1.460 1_545 S
C371 C370 1.477 . S
C371 H391 0.930 1_554 S
C372 N368 1.362 1_545 S
C372 C369 1.431 . S
C372 C382 1.471 1_545 S
H373 C367 0.929 . S
C374 O365 1.250 . S
C374 O366 1.258 . S
O375 Mn360 2.162 . S
O375 C363 1.281 . S
O376 Mn360 2.297 . S
O376 C363 1.236 . S
N377 Mn361 2.282 . S
N377 C378 1.328 . S
N377 C382 1.335 . S
C378 N377 1.328 . S
C378 C379 1.457 . S
C378 H383 0.929 . S
C379 C378 1.457 . S
C379 C380 1.291 1_565 S
C379 H392 0.931 . S
C380 C379 1.291 1_545 S
C380 C381 1.373 . S
C380 H393 0.929 . S
C381 C380 1.373 . S
C381 C382 1.383 1_545 S
C381 C388 1.403 . S
C382 C372 1.471 1_565 S
C382 N377 1.335 . S
C382 C381 1.383 1_565 S
H383 C378 0.929 . S
O384 Mn360 2.385 . S
O384 C362 1.211 1_565 S
O385 Mn360 2.209 . S
O385 Mn361 2.215 . S
O385 C362 1.273 1_565 S
O386 Mn360 2.094 . S
O386 C364 1.240 . S
O387 Mn361 2.117 . S
O387 C364 1.264 . S
C388 C381 1.403 . S
C388 C389 1.399 . S
C388 H394 0.929 . S
C389 C369 1.449 . S
C389 C388 1.399 . S
C389 H395 0.930 . S
H390 C370 0.931 . S
H391 C371 0.930 1_556 S
H392 C379 0.931 . S
H393 C380 0.929 . S
H394 C388 0.929 . S
H395 C389 0.930 . S
Mn396 O401 2.095 . S
Mn396 O411 2.162 . S
Mn396 O412 2.297 . S
Mn396 O420 2.385 . S
Mn396 O421 2.209 . S
Mn396 O422 2.094 . S
Mn397 O402 2.121 . S
Mn397 N404 2.257 . S
Mn397 N413 2.282 . S
Mn397 O421 2.215 . S
Mn397 O423 2.117 . S
C398 O420 1.234 . S
C398 O421 1.283 . S
C399 O411 1.281 . S
C399 O412 1.236 . S
C400 O422 1.240 . S
C400 O423 1.264 . S
O401 Mn396 2.095 . S
O401 C410 1.250 . S
O402 Mn397 2.121 . S
O402 C410 1.258 . S
C403 N404 1.326 . S
C403 C407 1.460 . S
C403 H409 0.929 . S
N404 Mn397 2.257 . S
N404 C403 1.326 . S
N404 C408 1.362 . S
C405 C406 1.258 . S
C405 C408 1.431 . S
C405 C425 1.449 . S
C406 C405 1.258 . S
C406 C407 1.477 . S
C406 H426 0.931 . S
C407 C403 1.460 . S
C407 C406 1.477 . S
C407 H427 0.930 . S
C408 N404 1.362 . S
C408 C405 1.431 . S
C408 C418 1.476 . S
H409 C403 0.929 . S
C410 O401 1.250 . S
C410 O402 1.258 . S
O411 Mn396 2.162 . S
O411 C399 1.281 . S
O412 Mn396 2.297 . S
O412 C399 1.236 . S
N413 Mn397 2.282 . S
N413 C414 1.328 . S
N413 C418 1.318 . S
C414 N413 1.328 . S
C414 C415 1.457 . S
C414 H419 0.929 . S
C415 C414 1.457 . S
C415 C416 1.291 . S
C415 H428 0.931 . S
C416 C415 1.291 . S
C416 C417 1.373 . S
C416 H429 0.929 . S
C417 C416 1.373 . S
C417 C418 1.396 . S
C417 C424 1.403 . S
C418 C408 1.476 . S
C418 N413 1.318 . S
C418 C417 1.396 . S
H419 C414 0.929 . S
O420 Mn396 2.385 . S
O420 C398 1.234 . S
O421 Mn396 2.209 . S
O421 Mn397 2.215 . S
O421 C398 1.283 . S
O422 Mn396 2.094 . S
O422 C400 1.240 . S
O423 Mn397 2.117 . S
O423 C400 1.264 . S
C424 C417 1.403 . S
C424 C425 1.399 . S
C424 H430 0.929 . S
C425 C405 1.449 . S
C425 C424 1.399 . S
C425 H431 0.930 . S
H426 C406 0.931 . S
H427 C407 0.930 . S
H428 C415 0.931 . S
H429 C416 0.929 . S
H430 C424 0.929 . S
H431 C425 0.930 . S
Mn432 O437 2.095 . S
Mn432 O447 2.162 . S
Mn432 O448 2.297 . S
Mn432 O456 2.385 . S
Mn432 O457 2.209 . S
Mn432 O458 2.094 . S
Mn433 O438 2.121 . S
Mn433 N440 2.257 . S
Mn433 N449 2.282 . S
Mn433 O457 2.215 . S
Mn433 O459 2.117 . S
C434 O456 1.234 . S
C434 O457 1.283 . S
C435 O447 1.281 . S
C435 O448 1.236 . S
C436 O458 1.240 . S
C436 O459 1.264 . S
O437 Mn432 2.095 . S
O437 C446 1.250 . S
O438 Mn433 2.121 . S
O438 C446 1.258 . S
C439 N440 1.326 . S
C439 C443 1.460 . S
C439 H445 0.929 . S
N440 Mn433 2.257 . S
N440 C439 1.326 . S
N440 C444 1.362 . S
C441 C442 1.258 . S
C441 C444 1.431 . S
C441 C461 1.449 . S
C442 C441 1.258 . S
C442 C443 1.477 . S
C442 H462 0.931 . S
C443 C439 1.460 . S
C443 C442 1.477 . S
C443 H463 0.935 . S
C444 N440 1.362 . S
C444 C441 1.431 . S
C444 C454 1.476 . S
H445 C439 0.929 . S
C446 O437 1.250 . S
C446 O438 1.258 . S
O447 Mn432 2.162 . S
O447 C435 1.281 . S
O448 Mn432 2.297 . S
O448 C435 1.236 . S
N449 Mn433 2.282 . S
N449 C450 1.328 . S
N449 C454 1.318 . S
C450 N449 1.328 . S
C450 C451 1.457 . S
C450 H455 0.929 . S
C451 C450 1.457 . S
C451 C452 1.291 . S
C451 H464 0.931 . S
C452 C451 1.291 . S
C452 C453 1.373 . S
C452 H465 0.929 . S
C453 C452 1.373 . S
C453 C454 1.396 . S
C453 C460 1.403 . S
C454 C444 1.476 . S
C454 N449 1.318 . S
C454 C453 1.396 . S
H455 C450 0.929 . S
O456 Mn432 2.385 . S
O456 C434 1.234 . S
O457 Mn432 2.209 . S
O457 Mn433 2.215 . S
O457 C434 1.283 . S
O458 Mn432 2.094 . S
O458 C436 1.240 . S
O459 Mn433 2.117 . S
O459 C436 1.264 . S
C460 C453 1.403 . S
C460 C461 1.399 . S
C460 H466 0.929 . S
C461 C441 1.449 . S
C461 C460 1.399 . S
C461 H467 0.930 . S
H462 C442 0.931 . S
H463 C443 0.935 . S
H464 C451 0.931 . S
H465 C452 0.929 . S
H466 C460 0.929 . S
H467 C461 0.930 . S
Mn468 O473 2.095 . S
Mn468 O483 2.162 . S
Mn468 O484 2.297 . S
Mn468 O492 2.385 1_556 S
Mn468 O493 2.209 . S
Mn468 O494 2.094 1_556 S
Mn469 O474 2.121 . S
Mn469 N476 2.257 . S
Mn469 N485 2.282 1_556 S
Mn469 O493 2.215 . S
Mn469 O495 2.117 1_556 S
C470 O492 1.234 1_556 S
C470 O493 1.283 . S
C471 O483 1.281 . S
C471 O484 1.236 . S
C472 O494 1.240 . S
C472 O495 1.264 . S
O473 Mn468 2.095 . S
O473 C482 1.250 . S
O474 Mn469 2.121 . S
O474 C482 1.258 . S
C475 N476 1.326 . S
C475 C479 1.460 . S
C475 H481 0.929 . S
N476 Mn469 2.257 . S
N476 C475 1.326 . S
N476 C480 1.354 1_556 S
C477 C478 1.258 . S
C477 C480 1.429 1_556 S
C477 C497 1.449 1_556 S
C478 C477 1.258 . S
C478 C479 1.477 . S
C478 H498 0.931 . S
C479 C475 1.460 . S
C479 C478 1.477 . S
C479 H499 0.930 . S
C480 N476 1.354 1_554 S
C480 C477 1.429 1_554 S
C480 C490 1.486 . S
H481 C475 0.929 . S
C482 O473 1.250 . S
C482 O474 1.258 . S
O483 Mn468 2.162 . S
O483 C471 1.281 . S
O484 Mn468 2.297 . S
O484 C471 1.236 . S
N485 Mn469 2.282 1_554 S
N485 C486 1.328 . S
N485 C490 1.318 . S
C486 N485 1.328 . S
C486 C487 1.457 . S
C486 H491 0.929 . S
C487 C486 1.457 . S
C487 C488 1.291 . S
C487 H500 0.931 . S
C488 C487 1.291 . S
C488 C489 1.373 . S
C488 H501 0.929 . S
C489 C488 1.373 . S
C489 C490 1.396 . S
C489 C496 1.403 . S
C490 C480 1.486 . S
C490 N485 1.318 . S
C490 C489 1.396 . S
H491 C486 0.929 . S
O492 Mn468 2.385 1_554 S
O492 C470 1.234 1_554 S
O493 Mn468 2.209 . S
O493 Mn469 2.215 . S
O493 C470 1.283 . S
O494 Mn468 2.094 1_554 S
O494 C472 1.240 . S
O495 Mn469 2.117 1_554 S
O495 C472 1.264 . S
C496 C489 1.403 . S
C496 C497 1.399 . S
C496 H502 0.929 . S
C497 C477 1.449 1_554 S
C497 C496 1.399 . S
C497 H503 0.930 . S
H498 C478 0.931 . S
H499 C479 0.930 . S
H500 C487 0.931 . S
H501 C488 0.929 . S
H502 C496 0.929 . S
H503 C497 0.930 . S
Mn504 O509 2.095 . S
Mn504 O519 2.162 . S
Mn504 O520 2.297 . S
Mn504 O528 2.385 1_655 S
Mn504 O529 2.209 1_655 S
Mn504 O530 2.094 . S
Mn505 O510 2.121 . S
Mn505 N512 2.257 1_655 S
Mn505 N521 2.282 1_655 S
Mn505 O529 2.215 1_655 S
Mn505 O531 2.117 . S
C506 O528 1.234 . S
C506 O529 1.283 . S
C507 O519 1.281 . S
C507 O520 1.236 . S
C508 O530 1.240 . S
C508 O531 1.264 . S
O509 Mn504 2.095 . S
O509 C518 1.250 . S
O510 Mn505 2.121 . S
O510 C518 1.258 . S
C511 N512 1.326 . S
C511 C515 1.460 . S
C511 H517 0.929 . S
N512 Mn505 2.257 1_455 S
N512 C511 1.326 . S
N512 C516 1.362 . S
C513 C514 1.258 . S
C513 C516 1.431 . S
C513 C533 1.449 . S
C514 C513 1.258 . S
C514 C515 1.477 . S
C514 H534 0.931 . S
C515 C511 1.460 . S
C515 C514 1.477 . S
C515 H535 0.930 1_556 S
C516 N512 1.362 . S
C516 C513 1.431 . S
C516 C526 1.476 . S
H517 C511 0.929 . S
C518 O509 1.250 . S
C518 O510 1.258 . S
O519 Mn504 2.162 . S
O519 C507 1.281 . S
O520 Mn504 2.297 . S
O520 C507 1.236 . S
N521 Mn505 2.282 1_455 S
N521 C522 1.328 . S
N521 C526 1.318 . S
C522 N521 1.328 . S
C522 C523 1.457 . S
C522 H527 0.929 1_455 S
C523 C522 1.457 . S
C523 C524 1.291 . S
C523 H536 0.931 . S
C524 C523 1.291 . S
C524 C525 1.373 . S
C524 H537 0.929 . S
C525 C524 1.373 . S
C525 C526 1.396 . S
C525 C532 1.403 . S
C526 C516 1.476 . S
C526 N521 1.318 . S
C526 C525 1.396 . S
H527 C522 0.929 1_655 S
O528 Mn504 2.385 1_455 S
O528 C506 1.234 . S
O529 Mn504 2.209 1_455 S
O529 Mn505 2.215 1_455 S
O529 C506 1.283 . S
O530 Mn504 2.094 . S
O530 C508 1.240 . S
O531 Mn505 2.117 . S
O531 C508 1.264 . S
C532 C525 1.403 . S
C532 C533 1.399 . S
C532 H538 0.929 . S
C533 C513 1.449 . S
C533 C532 1.399 . S
C533 H539 0.930 . S
H534 C514 0.931 . S
H535 C515 0.930 1_554 S
H536 C523 0.931 . S
H537 C524 0.929 . S
H538 C532 0.929 . S
H539 C533 0.930 . S
Mn540 O545 2.095 . S
Mn540 O555 2.162 . S
Mn540 O556 2.297 . S
Mn540 O564 2.385 . S
Mn540 O565 2.209 . S
Mn540 O566 2.094 . S
Mn541 O546 2.121 . S
Mn541 N548 2.257 . S
Mn541 N557 2.282 . S
Mn541 O565 2.215 . S
Mn541 O567 2.117 . S
C542 O564 1.234 . S
C542 O565 1.283 . S
C543 O555 1.281 . S
C543 O556 1.236 . S
C544 O566 1.240 . S
C544 O567 1.264 . S
O545 Mn540 2.095 . S
O545 C554 1.250 . S
O546 Mn541 2.121 . S
O546 C554 1.258 . S
C547 N548 1.326 . S
C547 C551 1.460 . S
C547 H553 0.929 . S
N548 Mn541 2.257 . S
N548 C547 1.326 . S
N548 C552 1.362 . S
C549 C550 1.258 . S
C549 C552 1.431 . S
C549 C569 1.449 . S
C550 C549 1.258 . S
C550 C551 1.477 . S
C550 H570 0.931 . S
C551 C547 1.460 . S
C551 C550 1.477 . S
C551 H571 0.930 . S
C552 N548 1.362 . S
C552 C549 1.431 . S
C552 C562 1.476 . S
H553 C547 0.929 . S
C554 O545 1.250 . S
C554 O546 1.258 . S
O555 Mn540 2.162 . S
O555 C543 1.281 . S
O556 Mn540 2.297 . S
O556 C543 1.236 . S
N557 Mn541 2.282 . S
N557 C558 1.328 . S
N557 C562 1.318 . S
C558 N557 1.328 . S
C558 C559 1.457 . S
C558 H563 0.929 . S
C559 C558 1.457 . S
C559 C560 1.291 . S
C559 H572 0.931 . S
C560 C559 1.291 . S
C560 C561 1.373 . S
C560 H573 0.929 . S
C561 C560 1.373 . S
C561 C562 1.396 . S
C561 C568 1.403 . S
C562 C552 1.476 . S
C562 N557 1.318 . S
C562 C561 1.396 . S
H563 C558 0.929 . S
O564 Mn540 2.385 . S
O564 C542 1.234 . S
O565 Mn540 2.209 . S
O565 Mn541 2.215 . S
O565 C542 1.283 . S
O566 Mn540 2.094 . S
O566 C544 1.240 . S
O567 Mn541 2.117 . S
O567 C544 1.264 . S
C568 C561 1.403 . S
C568 C569 1.399 . S
C568 H574 0.929 . S
C569 C549 1.449 . S
C569 C568 1.399 . S
C569 H575 0.930 . S
H570 C550 0.931 . S
H571 C551 0.930 . S
H572 C559 0.931 . S
H573 C560 0.929 . S
H574 C568 0.929 . S
H575 C569 0.930 . S
Mn576 O581 2.095 . S
Mn576 O591 2.162 1_655 S
Mn576 O592 2.297 1_655 S
Mn576 O600 2.385 1_655 S
Mn576 O601 2.209 . S
Mn576 O602 2.094 . S
Mn577 O582 2.121 . S
Mn577 N584 2.257 . S
Mn577 N593 2.282 . S
Mn577 O601 2.215 . S
Mn577 O603 2.117 . S
C578 O600 1.234 1_655 S
C578 O601 1.283 . S
C579 O591 1.281 . S
C579 O592 1.236 . S
C580 O602 1.240 . S
C580 O603 1.264 . S
O581 Mn576 2.095 . S
O581 C590 1.250 . S
O582 Mn577 2.121 . S
O582 C590 1.258 . S
C583 N584 1.326 . S
C583 C587 1.460 . S
C583 H589 0.929 . S
N584 Mn577 2.257 . S
N584 C583 1.326 . S
N584 C588 1.362 . S
C585 C586 1.258 . S
C585 C588 1.431 . S
C585 C605 1.449 . S
C586 C585 1.258 . S
C586 C587 1.477 . S
C586 H606 0.931 . S
C587 C583 1.460 . S
C587 C586 1.477 . S
C587 H607 0.930 . S
C588 N584 1.362 . S
C588 C585 1.431 . S
C588 C598 1.476 . S
H589 C583 0.929 . S
C590 O581 1.250 . S
C590 O582 1.258 . S
O591 Mn576 2.162 1_455 S
O591 C579 1.281 . S
O592 Mn576 2.297 1_455 S
O592 C579 1.236 . S
N593 Mn577 2.282 . S
N593 C594 1.328 . S
N593 C598 1.318 . S
C594 N593 1.328 . S
C594 C595 1.457 . S
C594 H599 0.929 . S
C595 C594 1.457 . S
C595 C596 1.291 . S
C595 H608 0.931 . S
C596 C595 1.291 . S
C596 C597 1.373 . S
C596 H609 0.929 . S
C597 C596 1.373 . S
C597 C598 1.396 . S
C597 C604 1.403 . S
C598 C588 1.476 . S
C598 N593 1.318 . S
C598 C597 1.396 . S
H599 C594 0.929 . S
O600 Mn576 2.385 1_455 S
O600 C578 1.234 1_455 S
O601 Mn576 2.209 . S
O601 Mn577 2.215 . S
O601 C578 1.283 . S
O602 Mn576 2.094 . S
O602 C580 1.240 . S
O603 Mn577 2.117 . S
O603 C580 1.264 . S
C604 C597 1.403 . S
C604 C605 1.399 . S
C604 H610 0.929 . S
C605 C585 1.449 . S
C605 C604 1.399 . S
C605 H611 0.930 . S
H606 C586 0.931 . S
H607 C587 0.930 . S
H608 C595 0.931 . S
H609 C596 0.929 . S
H610 C604 0.929 . S
H611 C605 0.930 . S
Mn612 O617 2.095 . S
Mn612 O627 2.162 . S
Mn612 O628 2.297 . S
Mn612 O636 2.385 . S
Mn612 O637 2.209 . S
Mn612 O638 2.094 . S
Mn613 O618 2.121 . S
Mn613 N620 2.257 . S
Mn613 N629 2.282 . S
Mn613 O637 2.215 . S
Mn613 O639 2.117 . S
C614 O636 1.234 . S
C614 O637 1.283 . S
C615 O627 1.281 . S
C615 O628 1.236 . S
C616 O638 1.240 . S
C616 O639 1.264 . S
O617 Mn612 2.095 . S
O617 C626 1.250 . S
O618 Mn613 2.121 . S
O618 C626 1.258 . S
C619 N620 1.326 . S
C619 C623 1.460 . S
C619 H625 0.929 . S
N620 Mn613 2.257 . S
N620 C619 1.326 . S
N620 C624 1.362 . S
C621 C622 1.258 . S
C621 C624 1.431 . S
C621 C641 1.449 . S
C622 C621 1.258 . S
C622 C623 1.477 . S
C622 H642 0.931 . S
C623 C619 1.460 . S
C623 C622 1.477 . S
C623 H643 0.930 . S
C624 N620 1.362 . S
C624 C621 1.431 . S
C624 C634 1.476 . S
H625 C619 0.929 . S
C626 O617 1.250 . S
C626 O618 1.258 . S
O627 Mn612 2.162 . S
O627 C615 1.281 . S
O628 Mn612 2.297 . S
O628 C615 1.236 . S
N629 Mn613 2.282 . S
N629 C630 1.328 . S
N629 C634 1.318 . S
C630 N629 1.328 . S
C630 C631 1.457 . S
C630 H635 0.929 . S
C631 C630 1.457 . S
C631 C632 1.291 . S
C631 H644 0.931 . S
C632 C631 1.291 . S
C632 C633 1.373 . S
C632 H645 0.929 . S
C633 C632 1.373 . S
C633 C634 1.396 . S
C633 C640 1.403 . S
C634 C624 1.476 . S
C634 N629 1.318 . S
C634 C633 1.396 . S
H635 C630 0.929 . S
O636 Mn612 2.385 . S
O636 C614 1.234 . S
O637 Mn612 2.209 . S
O637 Mn613 2.215 . S
O637 C614 1.283 . S
O638 Mn612 2.094 . S
O638 C616 1.240 . S
O639 Mn613 2.117 . S
O639 C616 1.264 . S
C640 C633 1.403 . S
C640 C641 1.399 . S
C640 H646 0.929 . S
C641 C621 1.449 . S
C641 C640 1.399 . S
C641 H647 0.930 . S
H642 C622 0.931 . S
H643 C623 0.930 . S
H644 C631 0.931 . S
H645 C632 0.929 . S
H646 C640 0.929 . S
H647 C641 0.930 . S
H648 C654 0.930 . S
H649 C658 0.930 . S
H650 C663 0.929 . S
H651 C661 0.929 . S
H652 C656 0.929 1_556 S
H653 C662 0.929 . S
C654 H648 0.930 . S
C654 C655 1.367 . S
C654 C662 1.378 . S
C655 C654 1.367 . S
C655 C663 1.433 . S
C656 H652 0.929 1_554 S
C656 C658 1.378 . S
C656 C660 1.350 . S
C657 C660 1.463 1_556 S
C657 C662 1.350 . S
C657 N665 1.427 . S
C658 H649 0.930 . S
C658 C656 1.378 . S
C658 C659 1.367 . S
C659 C658 1.367 . S
C659 C661 1.433 . S
C660 C656 1.350 . S
C660 C657 1.463 1_554 S
C660 N664 1.427 . S
C661 H651 0.929 . S
C661 C659 1.433 . S
C661 N664 1.384 . S
C662 H653 0.929 . S
C662 C654 1.378 . S
C662 C657 1.350 . S
C663 H650 0.929 . S
C663 C655 1.433 . S
C663 N665 1.384 . S
N664 C660 1.427 . S
N664 C661 1.384 . S
N665 C657 1.427 . S
N665 C663 1.384 . S
H666 C672 0.930 . S
H667 C676 0.930 . S
H668 C681 0.929 . S
H669 C679 0.929 . S
H670 C674 0.929 . S
H671 C680 0.929 . S
C672 H666 0.930 . S
C672 C673 1.367 . S
C672 C680 1.378 . S
C673 C672 1.367 . S
C673 C681 1.433 . S
C674 H670 0.929 . S
C674 C676 1.378 . S
C674 C678 1.350 . S
C675 C678 1.463 1_556 S
C675 C680 1.350 . S
C675 N683 1.427 . S
C676 H667 0.930 . S
C676 C674 1.378 . S
C676 C677 1.367 . S
C677 C676 1.367 . S
C677 C679 1.433 . S
C678 C674 1.350 . S
C678 C675 1.463 1_554 S
C678 N682 1.427 . S
C679 H669 0.929 . S
C679 C677 1.433 . S
C679 N682 1.384 . S
C680 H671 0.929 . S
C680 C672 1.378 . S
C680 C675 1.350 . S
C681 H668 0.929 . S
C681 C673 1.433 . S
C681 N683 1.384 . S
N682 C678 1.427 . S
N682 C679 1.384 . S
N683 C675 1.427 . S
N683 C681 1.384 . S
H684 C690 0.930 . S
H685 C694 0.930 . S
H686 C699 0.929 . S
H687 C697 0.929 . S
H688 C692 0.929 . S
H689 C698 0.929 . S
C690 H684 0.930 . S
C690 C691 1.367 . S
C690 C698 1.378 . S
C691 C690 1.367 . S
C691 C699 1.433 . S
C692 H688 0.929 . S
C692 C694 1.378 . S
C692 C696 1.350 . S
C693 C696 1.463 1_554 S
C693 C698 1.350 . S
C693 N701 1.427 . S
C694 H685 0.930 . S
C694 C692 1.378 . S
C694 C695 1.367 . S
C695 C694 1.367 . S
C695 C697 1.433 . S
C696 C692 1.350 . S
C696 C693 1.463 1_556 S
C696 N700 1.427 . S
C697 H687 0.929 . S
C697 C695 1.433 . S
C697 N700 1.384 . S
C698 H689 0.929 . S
C698 C690 1.378 . S
C698 C693 1.350 . S
C699 H686 0.929 . S
C699 C691 1.433 . S
C699 N701 1.384 . S
N700 C696 1.427 . S
N700 C697 1.384 . S
N701 C693 1.427 . S
N701 C699 1.384 . S
H702 C708 0.930 . S
H703 C712 0.930 . S
H704 C717 0.929 . S
H705 C715 0.929 . S
H706 C710 0.929 . S
H707 C716 0.929 . S
C708 H702 0.930 . S
C708 C709 1.367 . S
C708 C716 1.378 . S
C709 C708 1.367 . S
C709 C717 1.433 . S
C710 H706 0.929 . S
C710 C712 1.378 . S
C710 C714 1.350 . S
C711 C714 1.463 . S
C711 C716 1.350 . S
C711 N719 1.427 . S
C712 H703 0.930 . S
C712 C710 1.378 . S
C712 C713 1.367 . S
C713 C712 1.367 . S
C713 C715 1.433 . S
C714 C710 1.350 . S
C714 C711 1.463 . S
C714 N718 1.427 . S
C715 H705 0.929 . S
C715 C713 1.433 . S
C715 N718 1.384 . S
C716 H707 0.929 . S
C716 C708 1.378 . S
C716 C711 1.350 . S
C717 H704 0.929 . S
C717 C709 1.433 . S
C717 N719 1.384 . S
N718 C714 1.427 . S
N718 C715 1.384 . S
N719 C711 1.427 . S
N719 C717 1.384 . S
H720 C726 0.930 . S
H721 C730 0.930 . S
H722 C735 0.929 . S
H723 C733 0.929 . S
H724 C728 0.929 . S
H725 C734 0.929 . S
C726 H720 0.930 . S
C726 C727 1.367 . S
C726 C734 1.378 . S
C727 C726 1.367 . S
C727 C735 1.433 . S
C728 H724 0.929 . S
C728 C730 1.378 . S
C728 C732 1.350 . S
C729 C732 1.463 . S
C729 C734 1.350 . S
C729 N737 1.427 . S
C730 H721 0.930 . S
C730 C728 1.378 . S
C730 C731 1.367 . S
C731 C730 1.367 . S
C731 C733 1.433 . S
C732 C728 1.350 . S
C732 C729 1.463 . S
C732 N736 1.427 . S
C733 H723 0.929 . S
C733 C731 1.433 . S
C733 N736 1.384 . S
C734 H725 0.929 . S
C734 C726 1.378 . S
C734 C729 1.350 . S
C735 H722 0.929 . S
C735 C727 1.433 . S
C735 N737 1.384 . S
N736 C732 1.427 . S
N736 C733 1.384 . S
N737 C729 1.427 . S
N737 C735 1.384 . S
H738 C744 0.930 . S
H739 C748 0.930 . S
H740 C753 0.929 . S
H741 C751 0.929 . S
H742 C746 0.929 . S
H743 C752 0.929 . S
C744 H738 0.930 . S
C744 C745 1.367 . S
C744 C752 1.378 . S
C745 C744 1.367 . S
C745 C753 1.433 . S
C746 H742 0.929 . S
C746 C748 1.378 . S
C746 C750 1.350 . S
C747 C750 1.463 . S
C747 C752 1.350 . S
C747 N755 1.427 . S
C748 H739 0.930 . S
C748 C746 1.378 . S
C748 C749 1.367 . S
C749 C748 1.367 . S
C749 C751 1.433 . S
C750 C746 1.350 . S
C750 C747 1.463 . S
C750 N754 1.427 . S
C751 H741 0.929 . S
C751 C749 1.433 . S
C751 N754 1.384 . S
C752 H743 0.929 . S
C752 C744 1.378 . S
C752 C747 1.350 . S
C753 H740 0.929 . S
C753 C745 1.433 . S
C753 N755 1.384 . S
N754 C750 1.427 . S
N754 C751 1.384 . S
N755 C747 1.427 . S
N755 C753 1.384 . S
H756 C762 0.930 . S
H757 C766 0.930 . S
H758 C771 0.929 . S
H759 C769 0.929 . S
H760 C764 0.929 . S
H761 C770 0.929 . S
C762 H756 0.930 . S
C762 C763 1.367 . S
C762 C770 1.378 . S
C763 C762 1.367 . S
C763 C771 1.433 . S
C764 H760 0.929 . S
C764 C766 1.378 . S
C764 C768 1.350 . S
C765 C768 1.463 . S
C765 C770 1.350 . S
C765 N773 1.427 . S
C766 H757 0.930 . S
C766 C764 1.378 . S
C766 C767 1.367 . S
C767 C766 1.367 . S
C767 C769 1.433 . S
C768 C764 1.350 . S
C768 C765 1.463 . S
C768 N772 1.427 . S
C769 H759 0.929 . S
C769 C767 1.433 . S
C769 N772 1.384 . S
C770 H761 0.929 . S
C770 C762 1.378 . S
C770 C765 1.350 . S
C771 H758 0.929 . S
C771 C763 1.433 . S
C771 N773 1.384 . S
N772 C768 1.427 . S
N772 C769 1.384 . S
N773 C765 1.427 . S
N773 C771 1.384 . S
H774 C780 0.930 . S
H775 C784 0.930 . S
H776 C789 0.929 . S
H777 C787 0.929 . S
H778 C782 0.929 . S
H779 C788 0.929 . S
C780 H774 0.930 . S
C780 C781 1.367 . S
C780 C788 1.378 . S
C781 C780 1.367 . S
C781 C789 1.433 . S
C782 H778 0.929 . S
C782 C784 1.378 . S
C782 C786 1.350 . S
C783 C786 1.463 . S
C783 C788 1.350 . S
C783 N791 1.427 . S
C784 H775 0.930 . S
C784 C782 1.378 . S
C784 C785 1.367 . S
C785 C784 1.367 . S
C785 C787 1.433 . S
C786 C782 1.350 . S
C786 C783 1.463 . S
C786 N790 1.427 . S
C787 H777 0.929 . S
C787 C785 1.433 . S
C787 N790 1.384 . S
C788 H779 0.929 . S
C788 C780 1.378 . S
C788 C783 1.350 . S
C789 H776 0.929 . S
C789 C781 1.433 . S
C789 N791 1.384 . S
N790 C786 1.427 . S
N790 C787 1.384 . S
N791 C783 1.427 . S
N791 C789 1.384 . S
H792 C798 0.930 . S
H793 C802 0.930 . S
H794 C807 0.929 . S
H795 C805 0.929 . S
H796 C800 0.929 . S
H797 C806 0.929 . S
C798 H792 0.930 . S
C798 C799 1.367 . S
C798 C806 1.378 . S
C799 C798 1.367 . S
C799 C807 1.433 . S
C800 H796 0.929 . S
C800 C802 1.378 . S
C800 C804 1.350 . S
C801 C804 1.463 . S
C801 C806 1.350 . S
C801 N809 1.427 . S
C802 H793 0.930 . S
C802 C800 1.378 . S
C802 C803 1.367 . S
C803 C802 1.367 . S
C803 C805 1.433 . S
C804 C800 1.350 . S
C804 C801 1.463 . S
C804 N808 1.427 . S
C805 H795 0.929 . S
C805 C803 1.433 . S
C805 N808 1.384 . S
C806 H797 0.929 . S
C806 C798 1.378 . S
C806 C801 1.350 . S
C807 H794 0.929 . S
C807 C799 1.433 . S
C807 N809 1.384 . S
N808 C804 1.427 . S
N808 C805 1.384 . S
N809 C801 1.427 . S
N809 C807 1.384 . S
H810 C816 0.930 . S
H811 C820 0.930 . S
H812 C825 0.929 . S
H813 C823 0.929 . S
H814 C818 0.929 . S
H815 C824 0.929 . S
C816 H810 0.930 . S
C816 C817 1.367 . S
C816 C824 1.378 . S
C817 C816 1.367 . S
C817 C825 1.433 . S
C818 H814 0.929 . S
C818 C820 1.378 . S
C818 C822 1.350 . S
C819 C822 1.463 . S
C819 C824 1.350 . S
C819 N827 1.427 . S
C820 H811 0.930 . S
C820 C818 1.378 . S
C820 C821 1.367 . S
C821 C820 1.367 . S
C821 C823 1.433 . S
C822 C818 1.350 . S
C822 C819 1.463 . S
C822 N826 1.427 . S
C823 H813 0.929 . S
C823 C821 1.433 . S
C823 N826 1.384 . S
C824 H815 0.929 . S
C824 C816 1.378 . S
C824 C819 1.350 . S
C825 H812 0.929 . S
C825 C817 1.433 . S
C825 N827 1.384 . S
N826 C822 1.427 . S
N826 C823 1.384 . S
N827 C819 1.427 . S
N827 C825 1.384 . S
H828 C834 0.930 . S
H829 C838 0.930 . S
H830 C843 0.929 . S
H831 C841 0.929 . S
H832 C836 0.929 . S
H833 C842 0.929 . S
C834 H828 0.930 . S
C834 C835 1.367 . S
C834 C842 1.378 . S
C835 C834 1.367 . S
C835 C843 1.433 . S
C836 H832 0.929 . S
C836 C838 1.378 . S
C836 C840 1.350 . S
C837 C840 1.463 . S
C837 C842 1.350 . S
C837 N845 1.427 . S
C838 H829 0.930 . S
C838 C836 1.378 . S
C838 C839 1.367 . S
C839 C838 1.367 . S
C839 C841 1.433 . S
C840 C836 1.350 . S
C840 C837 1.463 . S
C840 N844 1.427 . S
C841 H831 0.929 . S
C841 C839 1.433 . S
C841 N844 1.384 . S
C842 H833 0.929 . S
C842 C834 1.378 . S
C842 C837 1.350 . S
C843 H830 0.929 . S
C843 C835 1.433 . S
C843 N845 1.384 . S
N844 C840 1.427 . S
N844 C841 1.384 . S
N845 C837 1.427 . S
N845 C843 1.384 . S
H846 C852 0.930 1_554 S
H847 C856 0.930 . S
H848 C861 0.929 . S
H849 C859 0.929 . S
H850 C854 0.929 . S
H851 C860 0.929 . S
C852 H846 0.930 1_556 S
C852 C853 1.367 . S
C852 C860 1.378 . S
C853 C852 1.367 . S
C853 C861 1.433 . S
C854 H850 0.929 . S
C854 C856 1.378 . S
C854 C858 1.350 . S
C855 C858 1.463 . S
C855 C860 1.350 . S
C855 N863 1.427 . S
C856 H847 0.930 . S
C856 C854 1.378 . S
C856 C857 1.367 . S
C857 C856 1.367 . S
C857 C859 1.433 . S
C858 C854 1.350 . S
C858 C855 1.463 . S
C858 N862 1.427 . S
C859 H849 0.929 . S
C859 C857 1.433 . S
C859 N862 1.384 . S
C860 H851 0.929 . S
C860 C852 1.378 . S
C860 C855 1.350 . S
C861 H848 0.929 . S
C861 C853 1.433 . S
C861 N863 1.384 . S
N862 C858 1.427 . S
N862 C859 1.384 . S
N863 C855 1.427 . S
N863 C861 1.384 . S
H864 C870 0.930 . S
H865 C874 0.930 . S
H866 C879 0.929 . S
H867 C877 0.929 . S
H868 C872 0.929 . S
H869 C878 0.929 . S
C870 H864 0.930 . S
C870 C871 1.367 . S
C870 C878 1.378 . S
C871 C870 1.367 . S
C871 C879 1.433 . S
C872 H868 0.929 . S
C872 C874 1.378 . S
C872 C876 1.350 . S
C873 C876 1.463 . S
C873 C878 1.350 . S
C873 N881 1.427 . S
C874 H865 0.930 . S
C874 C872 1.378 . S
C874 C875 1.367 . S
C875 C874 1.367 . S
C875 C877 1.433 . S
C876 C872 1.350 . S
C876 C873 1.463 . S
C876 N880 1.427 . S
C877 H867 0.929 . S
C877 C875 1.433 . S
C877 N880 1.384 . S
C878 H869 0.929 . S
C878 C870 1.378 . S
C878 C873 1.350 . S
C879 H866 0.929 . S
C879 C871 1.433 . S
C879 N881 1.384 . S
N880 C876 1.427 . S
N880 C877 1.384 . S
N881 C873 1.427 . S
N881 C879 1.384 . S
H882 C888 0.930 . S
H883 C892 0.930 . S
H884 C897 0.929 . S
H885 C895 0.929 . S
H886 C890 0.929 . S
H887 C896 0.929 . S
C888 H882 0.930 . S
C888 C889 1.367 . S
C888 C896 1.378 . S
C889 C888 1.367 . S
C889 C897 1.433 . S
C890 H886 0.929 . S
C890 C892 1.378 . S
C890 C894 1.350 . S
C891 C894 1.463 . S
C891 C896 1.350 . S
C891 N899 1.427 . S
C892 H883 0.930 . S
C892 C890 1.378 . S
C892 C893 1.367 . S
C893 C892 1.367 . S
C893 C895 1.433 . S
C894 C890 1.350 . S
C894 C891 1.463 . S
C894 N898 1.427 . S
C895 H885 0.929 . S
C895 C893 1.433 . S
C895 N898 1.384 . S
C896 H887 0.929 . S
C896 C888 1.378 . S
C896 C891 1.350 . S
C897 H884 0.929 . S
C897 C889 1.433 . S
C897 N899 1.384 . S
N898 C894 1.427 . S
N898 C895 1.384 . S
N899 C891 1.427 . S
N899 C897 1.384 . S
H900 C906 0.930 . S
H901 C910 0.930 . S
H902 C915 0.929 . S
H903 C913 0.929 . S
H904 C908 0.929 . S
H905 C914 0.929 . S
C906 H900 0.930 . S
C906 C907 1.367 . S
C906 C914 1.378 . S
C907 C906 1.367 . S
C907 C915 1.433 . S
C908 H904 0.929 . S
C908 C910 1.378 . S
C908 C912 1.350 . S
C909 C912 1.463 . S
C909 C914 1.350 . S
C909 N917 1.427 . S
C910 H901 0.930 . S
C910 C908 1.378 . S
C910 C911 1.367 . S
C911 C910 1.367 . S
C911 C913 1.433 . S
C912 C908 1.350 . S
C912 C909 1.463 . S
C912 N916 1.427 . S
C913 H903 0.929 . S
C913 C911 1.433 . S
C913 N916 1.384 . S
C914 H905 0.929 . S
C914 C906 1.378 . S
C914 C909 1.350 . S
C915 H902 0.929 . S
C915 C907 1.433 . S
C915 N917 1.384 . S
N916 C912 1.427 . S
N916 C913 1.384 . S
N917 C909 1.427 . S
N917 C915 1.384 . S
H918 C924 0.930 . S
H919 C928 0.930 . S
H920 C933 0.929 . S
H921 C931 0.929 1_556 S
H922 C926 0.929 . S
H923 C932 0.929 . S
C924 H918 0.930 . S
C924 C925 1.367 . S
C924 C932 1.378 . S
C925 C924 1.367 . S
C925 C933 1.433 . S
C926 H922 0.929 . S
C926 C928 1.378 . S
C926 C930 1.350 . S
C927 C930 1.463 . S
C927 C932 1.350 . S
C927 N935 1.427 . S
C928 H919 0.930 . S
C928 C926 1.378 . S
C928 C929 1.367 . S
C929 C928 1.367 . S
C929 C931 1.433 . S
C930 C926 1.350 . S
C930 C927 1.463 . S
C930 N934 1.427 . S
C931 H921 0.929 1_554 S
C931 C929 1.433 . S
C931 N934 1.384 . S
C932 H923 0.929 . S
C932 C924 1.378 . S
C932 C927 1.350 . S
C933 H920 0.929 . S
C933 C925 1.433 . S
C933 N935 1.384 . S
N934 C930 1.427 . S
N934 C931 1.384 . S
N935 C927 1.427 . S
N935 C933 1.384 . S
H936 C942 0.930 . S
H937 C946 0.930 . S
H938 C951 0.929 . S
H939 C949 0.929 . S
H940 C944 0.929 . S
H941 C950 0.929 . S
C942 H936 0.930 . S
C942 C943 1.367 . S
C942 C950 1.378 . S
C943 C942 1.367 . S
C943 C951 1.433 . S
C944 H940 0.929 . S
C944 C946 1.378 . S
C944 C948 1.350 . S
C945 C948 1.463 . S
C945 C950 1.350 . S
C945 N953 1.427 . S
C946 H937 0.930 . S
C946 C944 1.378 . S
C946 C947 1.367 . S
C947 C946 1.367 . S
C947 C949 1.433 . S
C948 C944 1.350 . S
C948 C945 1.463 . S
C948 N952 1.427 . S
C949 H939 0.929 . S
C949 C947 1.433 . S
C949 N952 1.384 . S
C950 H941 0.929 . S
C950 C942 1.378 . S
C950 C945 1.350 . S
C951 H938 0.929 . S
C951 C943 1.433 . S
C951 N953 1.384 . S
N952 C948 1.427 . S
N952 C949 1.384 . S
N953 C945 1.427 . S
N953 C951 1.384 . S
H954 C960 0.930 . S
H955 C964 0.930 . S
H956 C969 0.929 . S
H957 C967 0.929 . S
H958 C962 0.929 . S
H959 C968 0.929 . S
C960 H954 0.930 . S
C960 C961 1.367 . S
C960 C968 1.378 . S
C961 C960 1.367 . S
C961 C969 1.433 . S
C962 H958 0.929 . S
C962 C964 1.378 . S
C962 C966 1.350 . S
C963 C966 1.463 . S
C963 C968 1.350 . S
C963 N971 1.427 . S
C964 H955 0.930 . S
C964 C962 1.378 . S
C964 C965 1.367 . S
C965 C964 1.367 . S
C965 C967 1.433 . S
C966 C962 1.350 . S
C966 C963 1.463 . S
C966 N970 1.427 . S
C967 H957 0.929 . S
C967 C965 1.433 . S
C967 N970 1.384 . S
C968 H959 0.929 . S
C968 C960 1.378 . S
C968 C963 1.350 . S
C969 H956 0.929 . S
C969 C961 1.433 . S
C969 N971 1.384 . S
N970 C966 1.427 . S
N970 C967 1.384 . S
N971 C963 1.427 . S
N971 C969 1.384 . S
H972 C978 0.930 . S
H973 C982 0.930 . S
H974 C987 0.929 . S
H975 C985 0.929 . S
H976 C980 0.929 . S
H977 C986 0.929 . S
C978 H972 0.930 . S
C978 C979 1.367 . S
C978 C986 1.378 . S
C979 C978 1.367 . S
C979 C987 1.433 . S
C980 H976 0.929 . S
C980 C982 1.378 . S
C980 C984 1.350 . S
C981 C984 1.463 . S
C981 C986 1.350 . S
C981 N989 1.427 . S
C982 H973 0.930 . S
C982 C980 1.378 . S
C982 C983 1.367 . S
C983 C982 1.367 . S
C983 C985 1.433 . S
C984 C980 1.350 . S
C984 C981 1.463 . S
C984 N988 1.427 . S
C985 H975 0.929 . S
C985 C983 1.433 . S
C985 N988 1.384 . S
C986 H977 0.929 . S
C986 C978 1.378 . S
C986 C981 1.350 . S
C987 H974 0.929 . S
C987 C979 1.433 . S
C987 N989 1.384 . S
N988 C984 1.427 . S
N988 C985 1.384 . S
N989 C981 1.427 . S
N989 C987 1.384 . S
H990 C996 0.930 . S
H991 C1000 0.930 . S
H992 C1005 0.929 . S
H993 C1003 0.929 . S
H994 C998 0.929 . S
H995 C1004 0.929 . S
C996 H990 0.930 . S
C996 C997 1.367 . S
C996 C1004 1.378 . S
C997 C996 1.367 . S
C997 C1005 1.433 . S
C998 H994 0.929 . S
C998 C1000 1.378 . S
C998 C1002 1.350 . S
C999 C1002 1.463 . S
C999 C1004 1.350 . S
C999 N1007 1.427 . S
C1000 H991 0.930 . S
C1000 C998 1.378 . S
C1000 C1001 1.367 . S
C1001 C1000 1.367 . S
C1001 C1003 1.433 . S
C1002 C998 1.350 . S
C1002 C999 1.463 . S
C1002 N1006 1.427 . S
C1003 H993 0.929 . S
C1003 C1001 1.433 . S
C1003 N1006 1.384 . S
C1004 H995 0.929 . S
C1004 C996 1.378 . S
C1004 C999 1.350 . S
C1005 H992 0.929 . S
C1005 C997 1.433 . S
C1005 N1007 1.384 . S
N1006 C1002 1.427 . S
N1006 C1003 1.384 . S
N1007 C999 1.427 . S
N1007 C1005 1.384 . S
H1008 C1014 0.930 . S
H1009 C1018 0.930 . S
H1010 C1023 0.929 1_545 S
H1011 C1021 0.929 1_565 S
H1012 C1016 0.929 . S
H1013 C1022 0.929 . S
C1014 H1008 0.930 . S
C1014 C1015 1.367 . S
C1014 C1022 1.378 . S
C1015 C1014 1.367 . S
C1015 C1023 1.433 . S
C1016 H1012 0.929 . S
C1016 C1018 1.378 . S
C1016 C1020 1.350 . S
C1017 C1020 1.463 1_565 S
C1017 C1022 1.350 . S
C1017 N1025 1.427 1_565 S
C1018 H1009 0.930 . S
C1018 C1016 1.378 . S
C1018 C1019 1.367 . S
C1019 C1018 1.367 . S
C1019 C1021 1.433 . S
C1020 C1016 1.350 . S
C1020 C1017 1.463 1_545 S
C1020 N1024 1.427 1_545 S
C1021 H1011 0.929 1_545 S
C1021 C1019 1.433 . S
C1021 N1024 1.384 1_545 S
C1022 H1013 0.929 . S
C1022 C1014 1.378 . S
C1022 C1017 1.350 . S
C1023 H1010 0.929 1_565 S
C1023 C1015 1.433 . S
C1023 N1025 1.384 1_565 S
N1024 C1020 1.427 1_565 S
N1024 C1021 1.384 1_565 S
N1025 C1017 1.427 1_545 S
N1025 C1023 1.384 1_545 S
H1026 C1032 0.930 . S
H1027 C1036 0.930 . S
H1028 C1041 0.929 . S
H1029 C1039 0.929 . S
H1030 C1034 0.929 . S
H1031 C1040 0.929 . S
C1032 H1026 0.930 . S
C1032 C1033 1.367 . S
C1032 C1040 1.378 . S
C1033 C1032 1.367 . S
C1033 C1041 1.433 . S
C1034 H1030 0.929 . S
C1034 C1036 1.378 1_554 S
C1034 C1038 1.350 . S
C1035 C1038 1.463 . S
C1035 C1040 1.350 . S
C1035 N1043 1.427 . S
C1036 H1027 0.930 . S
C1036 C1034 1.378 1_556 S
C1036 C1037 1.367 1_556 S
C1037 C1036 1.367 1_554 S
C1037 C1039 1.433 . S
C1038 C1034 1.350 . S
C1038 C1035 1.463 . S
C1038 N1042 1.427 . S
C1039 H1029 0.929 . S
C1039 C1037 1.433 . S
C1039 N1042 1.384 . S
C1040 H1031 0.929 . S
C1040 C1032 1.378 . S
C1040 C1035 1.350 . S
C1041 H1028 0.929 . S
C1041 C1033 1.433 . S
C1041 N1043 1.384 . S
N1042 C1038 1.427 . S
N1042 C1039 1.384 . S
N1043 C1035 1.427 . S
N1043 C1041 1.384 . S
H1044 C1050 0.928 1_655 S
H1045 C1054 0.930 . S
H1046 C1059 0.932 . S
H1047 C1057 0.929 . S
H1048 C1052 0.929 . S
H1049 C1058 0.929 . S
C1050 H1044 0.928 1_455 S
C1050 C1051 1.366 1_454 S
C1050 C1058 1.381 . S
C1051 C1050 1.366 1_656 S
C1051 C1059 1.447 . S
C1052 H1048 0.929 . S
C1052 C1054 1.378 . S
C1052 C1056 1.350 . S
C1053 C1056 1.463 . S
C1053 C1058 1.350 . S
C1053 N1061 1.427 . S
C1054 H1045 0.930 . S
C1054 C1052 1.378 . S
C1054 C1055 1.367 . S
C1055 C1054 1.367 . S
C1055 C1057 1.433 . S
C1056 C1052 1.350 . S
C1056 C1053 1.463 . S
C1056 N1060 1.427 . S
C1057 H1047 0.929 . S
C1057 C1055 1.433 . S
C1057 N1060 1.384 . S
C1058 H1049 0.929 . S
C1058 C1050 1.381 . S
C1058 C1053 1.350 . S
C1059 H1046 0.932 . S
C1059 C1051 1.447 . S
C1059 N1061 1.367 1_656 S
N1060 C1056 1.427 . S
N1060 C1057 1.384 . S
N1061 C1053 1.427 . S
N1061 C1059 1.367 1_454 S
H1062 C1068 0.930 . S
H1063 C1072 0.930 . S
H1064 C1077 0.929 . S
H1065 C1075 0.929 . S
H1066 C1070 0.929 . S
H1067 C1076 0.929 . S
C1068 H1062 0.930 . S
C1068 C1069 1.367 1_554 S
C1068 C1076 1.378 . S
C1069 C1068 1.367 1_556 S
C1069 C1077 1.433 . S
C1070 H1066 0.929 . S
C1070 C1072 1.378 . S
C1070 C1074 1.350 . S
C1071 C1074 1.463 . S
C1071 C1076 1.350 . S
C1071 N1079 1.427 1_554 S
C1072 H1063 0.930 . S
C1072 C1070 1.378 . S
C1072 C1073 1.367 . S
C1073 C1072 1.367 . S
C1073 C1075 1.433 . S
C1074 C1070 1.350 . S
C1074 C1071 1.463 . S
C1074 N1078 1.427 . S
C1075 H1065 0.929 . S
C1075 C1073 1.433 . S
C1075 N1078 1.384 . S
C1076 H1067 0.929 . S
C1076 C1068 1.378 . S
C1076 C1071 1.350 . S
C1077 H1064 0.929 . S
C1077 C1069 1.433 . S
C1077 N1079 1.384 . S
N1078 C1074 1.427 . S
N1078 C1075 1.384 . S
N1079 C1071 1.427 1_556 S
N1079 C1077 1.384 . S
H1080 C1086 0.930 . S
H1081 C1090 0.930 . S
H1082 C1095 0.929 . S
H1083 C1093 0.929 . S
H1084 C1088 0.929 . S
H1085 C1094 0.929 . S
C1086 H1080 0.930 . S
C1086 C1087 1.367 . S
C1086 C1094 1.378 . S
C1087 C1086 1.367 . S
C1087 C1095 1.433 1_655 S
C1088 H1084 0.929 . S
C1088 C1090 1.378 . S
C1088 C1092 1.350 . S
C1089 C1092 1.463 . S
C1089 C1094 1.350 1_455 S
C1089 N1097 1.427 . S
C1090 H1081 0.930 . S
C1090 C1088 1.378 . S
C1090 C1091 1.367 . S
C1091 C1090 1.367 . S
C1091 C1093 1.433 . S
C1092 C1088 1.350 . S
C1092 C1089 1.463 . S
C1092 N1096 1.427 . S
C1093 H1083 0.929 . S
C1093 C1091 1.433 . S
C1093 N1096 1.384 . S
C1094 H1085 0.929 . S
C1094 C1086 1.378 . S
C1094 C1089 1.350 1_655 S
C1095 H1082 0.929 . S
C1095 C1087 1.433 1_455 S
C1095 N1097 1.384 . S
N1096 C1092 1.427 . S
N1096 C1093 1.384 . S
N1097 C1089 1.427 . S
N1097 C1095 1.384 . S
H1098 C1104 0.930 . S
H1099 C1108 0.930 . S
H1100 C1113 0.929 . S
H1101 C1111 0.929 . S
H1102 C1106 0.929 . S
H1103 C1112 0.929 . S
C1104 H1098 0.930 . S
C1104 C1105 1.367 . S
C1104 C1112 1.378 . S
C1105 C1104 1.367 . S
C1105 C1113 1.433 . S
C1106 H1102 0.929 . S
C1106 C1108 1.378 . S
C1106 C1110 1.350 . S
C1107 C1110 1.463 . S
C1107 C1112 1.350 . S
C1107 N1115 1.427 . S
C1108 H1099 0.930 . S
C1108 C1106 1.378 . S
C1108 C1109 1.367 . S
C1109 C1108 1.367 . S
C1109 C1111 1.433 . S
C1110 C1106 1.350 . S
C1110 C1107 1.463 . S
C1110 N1114 1.427 . S
C1111 H1101 0.929 . S
C1111 C1109 1.433 . S
C1111 N1114 1.384 . S
C1112 H1103 0.929 . S
C1112 C1104 1.378 . S
C1112 C1107 1.350 . S
C1113 H1100 0.929 . S
C1113 C1105 1.433 . S
C1113 N1115 1.384 . S
N1114 C1110 1.427 . S
N1114 C1111 1.384 . S
N1115 C1107 1.427 . S
N1115 C1113 1.384 . S
H1116 C1122 0.930 . S
H1117 C1126 0.930 . S
H1118 C1131 0.929 . S
H1119 C1129 0.929 . S
H1120 C1124 0.929 . S
H1121 C1130 0.929 . S
C1122 H1116 0.930 . S
C1122 C1123 1.367 . S
C1122 C1130 1.378 . S
C1123 C1122 1.367 . S
C1123 C1131 1.433 . S
C1124 H1120 0.929 . S
C1124 C1126 1.378 . S
C1124 C1128 1.350 . S
C1125 C1128 1.463 . S
C1125 C1130 1.350 . S
C1125 N1133 1.427 . S
C1126 H1117 0.930 . S
C1126 C1124 1.378 . S
C1126 C1127 1.367 . S
C1127 C1126 1.367 . S
C1127 C1129 1.433 . S
C1128 C1124 1.350 . S
C1128 C1125 1.463 . S
C1128 N1132 1.427 . S
C1129 H1119 0.929 . S
C1129 C1127 1.433 . S
C1129 N1132 1.384 . S
C1130 H1121 0.929 . S
C1130 C1122 1.378 . S
C1130 C1125 1.350 . S
C1131 H1118 0.929 . S
C1131 C1123 1.433 . S
C1131 N1133 1.384 . S
N1132 C1128 1.427 . S
N1132 C1129 1.384 . S
N1133 C1125 1.427 . S
N1133 C1131 1.384 . S
H1134 C1140 0.930 . S
H1135 C1144 0.930 . S
H1136 C1149 0.929 . S
H1137 C1147 0.929 . S
H1138 C1142 0.929 . S
H1139 C1148 0.929 1_554 S
C1140 H1134 0.930 . S
C1140 C1141 1.367 1_545 S
C1140 C1148 1.378 1_554 S
C1141 C1140 1.367 1_565 S
C1141 C1149 1.433 1_554 S
C1142 H1138 0.929 . S
C1142 C1144 1.378 . S
C1142 C1146 1.350 . S
C1143 C1146 1.463 . S
C1143 C1148 1.350 . S
C1143 N1151 1.427 1_545 S
C1144 H1135 0.930 . S
C1144 C1142 1.378 . S
C1144 C1145 1.367 . S
C1145 C1144 1.367 . S
C1145 C1147 1.433 . S
C1146 C1142 1.350 . S
C1146 C1143 1.463 . S
C1146 N1150 1.427 . S
C1147 H1137 0.929 . S
C1147 C1145 1.433 . S
C1147 N1150 1.384 . S
C1148 H1139 0.929 1_556 S
C1148 C1140 1.378 1_556 S
C1148 C1143 1.350 . S
C1149 H1136 0.929 . S
C1149 C1141 1.433 1_556 S
C1149 N1151 1.384 . S
N1150 C1146 1.427 . S
N1150 C1147 1.384 . S
N1151 C1143 1.427 1_565 S
N1151 C1149 1.384 . S
H1152 C1158 0.930 . S
H1153 C1162 0.930 . S
H1154 C1167 0.929 . S
H1155 C1165 0.929 . S
H1156 C1160 0.929 . S
H1157 C1166 0.929 . S
C1158 H1152 0.930 . S
C1158 C1159 1.367 . S
C1158 C1166 1.378 . S
C1159 C1158 1.367 . S
C1159 C1167 1.433 . S
C1160 H1156 0.929 . S
C1160 C1162 1.378 . S
C1160 C1164 1.350 . S
C1161 C1164 1.463 . S
C1161 C1166 1.350 . S
C1161 N1169 1.427 . S
C1162 H1153 0.930 . S
C1162 C1160 1.378 . S
C1162 C1163 1.367 1_556 S
C1163 C1162 1.367 1_554 S
C1163 C1165 1.433 . S
C1164 C1160 1.350 . S
C1164 C1161 1.463 . S
C1164 N1168 1.427 . S
C1165 H1155 0.929 . S
C1165 C1163 1.433 . S
C1165 N1168 1.384 1_554 S
C1166 H1157 0.929 . S
C1166 C1158 1.378 . S
C1166 C1161 1.350 . S
C1167 H1154 0.929 . S
C1167 C1159 1.433 . S
C1167 N1169 1.384 . S
N1168 C1164 1.427 . S
N1168 C1165 1.384 1_556 S
N1169 C1161 1.427 . S
N1169 C1167 1.384 . S
H1170 C1176 0.930 . S
H1171 C1180 0.930 1_554 S
H1172 C1185 0.929 . S
H1173 C1183 0.929 . S
H1174 C1178 0.929 . S
H1175 C1184 0.929 . S
C1176 H1170 0.930 . S
C1176 C1177 1.367 . S
C1176 C1184 1.378 . S
C1177 C1176 1.367 . S
C1177 C1185 1.433 . S
C1178 H1174 0.929 . S
C1178 C1180 1.378 . S
C1178 C1182 1.350 . S
C1179 C1182 1.463 . S
C1179 C1184 1.350 . S
C1179 N1187 1.427 . S
C1180 H1171 0.930 1_556 S
C1180 C1178 1.378 . S
C1180 C1181 1.367 . S
C1181 C1180 1.367 . S
C1181 C1183 1.433 . S
C1182 C1178 1.350 . S
C1182 C1179 1.463 . S
C1182 N1186 1.427 . S
C1183 H1173 0.929 . S
C1183 C1181 1.433 . S
C1183 N1186 1.384 . S
C1184 H1175 0.929 . S
C1184 C1176 1.378 . S
C1184 C1179 1.350 . S
C1185 H1172 0.929 . S
C1185 C1177 1.433 . S
C1185 N1187 1.384 . S
N1186 C1182 1.427 . S
N1186 C1183 1.384 . S
N1187 C1179 1.427 . S
N1187 C1185 1.384 . S
H1188 C1194 0.930 . S
H1189 C1198 0.930 . S
H1190 C1203 0.929 . S
H1191 C1201 0.929 . S
H1192 C1196 0.929 . S
H1193 C1202 0.929 . S
C1194 H1188 0.930 . S
C1194 C1195 1.367 . S
C1194 C1202 1.378 . S
C1195 C1194 1.367 . S
C1195 C1203 1.433 . S
C1196 H1192 0.929 . S
C1196 C1198 1.378 . S
C1196 C1200 1.350 . S
C1197 C1200 1.463 . S
C1197 C1202 1.350 . S
C1197 N1205 1.427 . S
C1198 H1189 0.930 . S
C1198 C1196 1.378 . S
C1198 C1199 1.367 . S
C1199 C1198 1.367 . S
C1199 C1201 1.433 . S
C1200 C1196 1.350 . S
C1200 C1197 1.463 . S
C1200 N1204 1.427 . S
C1201 H1191 0.929 . S
C1201 C1199 1.433 . S
C1201 N1204 1.384 . S
C1202 H1193 0.929 . S
C1202 C1194 1.378 . S
C1202 C1197 1.350 . S
C1203 H1190 0.929 . S
C1203 C1195 1.433 . S
C1203 N1205 1.384 . S
N1204 C1200 1.427 . S
N1204 C1201 1.384 . S
N1205 C1197 1.427 . S
N1205 C1203 1.384 . S
H1206 C1212 0.930 . S
H1207 C1216 0.930 . S
H1208 C1221 0.929 . S
H1209 C1219 0.929 . S
H1210 C1214 0.929 . S
H1211 C1220 0.929 . S
C1212 H1206 0.930 . S
C1212 C1213 1.367 . S
C1212 C1220 1.378 . S
C1213 C1212 1.367 . S
C1213 C1221 1.433 . S
C1214 H1210 0.929 . S
C1214 C1216 1.378 . S
C1214 C1218 1.350 . S
C1215 C1218 1.463 . S
C1215 C1220 1.350 . S
C1215 N1223 1.427 . S
C1216 H1207 0.930 . S
C1216 C1214 1.378 . S
C1216 C1217 1.367 . S
C1217 C1216 1.367 . S
C1217 C1219 1.433 . S
C1218 C1214 1.350 . S
C1218 C1215 1.463 . S
C1218 N1222 1.427 . S
C1219 H1209 0.929 . S
C1219 C1217 1.433 . S
C1219 N1222 1.384 . S
C1220 H1211 0.929 . S
C1220 C1212 1.378 . S
C1220 C1215 1.350 . S
C1221 H1208 0.929 . S
C1221 C1213 1.433 . S
C1221 N1223 1.384 . S
N1222 C1218 1.427 . S
N1222 C1219 1.384 . S
N1223 C1215 1.427 . S
N1223 C1221 1.384 . S
H1224 C1230 0.930 . S
H1225 C1234 0.930 . S
H1226 C1239 0.929 . S
H1227 C1237 0.929 . S
H1228 C1232 0.929 . S
H1229 C1238 0.929 . S
C1230 H1224 0.930 . S
C1230 C1231 1.367 . S
C1230 C1238 1.378 . S
C1231 C1230 1.367 . S
C1231 C1239 1.433 . S
C1232 H1228 0.929 . S
C1232 C1234 1.378 . S
C1232 C1236 1.350 . S
C1233 C1236 1.463 . S
C1233 C1238 1.350 . S
C1233 N1241 1.427 . S
C1234 H1225 0.930 . S
C1234 C1232 1.378 . S
C1234 C1235 1.367 . S
C1235 C1234 1.367 . S
C1235 C1237 1.433 . S
C1236 C1232 1.350 . S
C1236 C1233 1.463 . S
C1236 N1240 1.427 . S
C1237 H1227 0.929 . S
C1237 C1235 1.433 . S
C1237 N1240 1.384 . S
C1238 H1229 0.929 . S
C1238 C1230 1.378 . S
C1238 C1233 1.350 . S
C1239 H1226 0.929 . S
C1239 C1231 1.433 . S
C1239 N1241 1.384 . S
N1240 C1236 1.427 . S
N1240 C1237 1.384 . S
N1241 C1233 1.427 . S
N1241 C1239 1.384 . S
H1242 C1248 0.930 . S
H1243 C1252 0.930 . S
H1244 C1257 0.929 . S
H1245 C1255 0.929 . S
H1246 C1250 0.929 . S
H1247 C1256 0.929 . S
C1248 H1242 0.930 . S
C1248 C1249 1.367 . S
C1248 C1256 1.378 . S
C1249 C1248 1.367 . S
C1249 C1257 1.433 . S
C1250 H1246 0.929 . S
C1250 C1252 1.378 . S
C1250 C1254 1.350 . S
C1251 C1254 1.463 . S
C1251 C1256 1.350 . S
C1251 N1259 1.427 . S
C1252 H1243 0.930 . S
C1252 C1250 1.378 . S
C1252 C1253 1.367 . S
C1253 C1252 1.367 . S
C1253 C1255 1.433 . S
C1254 C1250 1.350 . S
C1254 C1251 1.463 . S
C1254 N1258 1.427 . S
C1255 H1245 0.929 . S
C1255 C1253 1.433 . S
C1255 N1258 1.384 . S
C1256 H1247 0.929 . S
C1256 C1248 1.378 . S
C1256 C1251 1.350 . S
C1257 H1244 0.929 . S
C1257 C1249 1.433 . S
C1257 N1259 1.384 . S
N1258 C1254 1.427 . S
N1258 C1255 1.384 . S
N1259 C1251 1.427 . S
N1259 C1257 1.384 . S
H1260 C1266 0.930 . S
H1261 C1270 0.930 . S
H1262 C1275 0.929 . S
H1263 C1273 0.929 . S
H1264 C1268 0.929 . S
H1265 C1274 0.929 . S
C1266 H1260 0.930 . S
C1266 C1267 1.367 . S
C1266 C1274 1.378 . S
C1267 C1266 1.367 . S
C1267 C1275 1.433 . S
C1268 H1264 0.929 . S
C1268 C1270 1.378 . S
C1268 C1272 1.350 . S
C1269 C1272 1.463 . S
C1269 C1274 1.350 . S
C1269 N1277 1.427 . S
C1270 H1261 0.930 . S
C1270 C1268 1.378 . S
C1270 C1271 1.367 . S
C1271 C1270 1.367 . S
C1271 C1273 1.433 . S
C1272 C1268 1.350 . S
C1272 C1269 1.463 . S
C1272 N1276 1.427 . S
C1273 H1263 0.929 . S
C1273 C1271 1.433 . S
C1273 N1276 1.384 . S
C1274 H1265 0.929 . S
C1274 C1266 1.378 . S
C1274 C1269 1.350 . S
C1275 H1262 0.929 . S
C1275 C1267 1.433 . S
C1275 N1277 1.384 . S
N1276 C1272 1.427 . S
N1276 C1273 1.384 . S
N1277 C1269 1.427 . S
N1277 C1275 1.384 . S
H1278 C1284 0.930 . S
H1279 C1288 0.930 . S
H1280 C1293 0.929 . S
H1281 C1291 0.929 . S
H1282 C1286 0.929 . S
H1283 C1292 0.929 . S
C1284 H1278 0.930 . S
C1284 C1285 1.367 . S
C1284 C1292 1.378 . S
C1285 C1284 1.367 . S
C1285 C1293 1.433 . S
C1286 H1282 0.929 . S
C1286 C1288 1.378 . S
C1286 C1290 1.350 . S
C1287 C1290 1.463 . S
C1287 C1292 1.350 . S
C1287 N1295 1.427 . S
C1288 H1279 0.930 . S
C1288 C1286 1.378 . S
C1288 C1289 1.367 . S
C1289 C1288 1.367 . S
C1289 C1291 1.433 . S
C1290 C1286 1.350 . S
C1290 C1287 1.463 . S
C1290 N1294 1.427 . S
C1291 H1281 0.929 . S
C1291 C1289 1.433 . S
C1291 N1294 1.384 . S
C1292 H1283 0.929 . S
C1292 C1284 1.378 . S
C1292 C1287 1.350 . S
C1293 H1280 0.929 . S
C1293 C1285 1.433 . S
C1293 N1295 1.384 . S
N1294 C1290 1.427 . S
N1294 C1291 1.384 . S
N1295 C1287 1.427 . S
N1295 C1293 1.384 . S
C655 C122 1.302 . S
C659 C4 1.267 . S
C673 C148 1.266 . S
C677 C50 1.280 . S
C691 C76 1.298 . S
C695 C184 1.291 . S
C709 C86 1.268 . S
C713 C194 1.267 . S
C727 C14 1.298 . S
C731 C112 1.277 . S
C745 C158 1.286 . S
C749 C40 1.268 . S
C763 C328 1.285 . S
C767 C220 1.290 . S
C781 C266 1.289 . S
C785 C364 1.269 . S
C799 C302 1.297 . S
C803 C400 1.267 . S
C817 C410 1.284 1_556 S
C821 C292 1.262 . S
C835 C338 1.280 . S
C839 C230 1.281 . S
C853 C374 1.286 1_556 S
C857 C256 1.273 . S
C871 C436 1.276 . S
C875 C554 1.295 . S
C889 C482 1.283 . S
C893 C580 1.271 . S
C907 C508 1.276 . S
C911 C616 1.264 . S
C925 C626 1.278 . S
C929 C518 1.280 1_554 S
C943 C544 1.285 . S
C947 C446 1.297 1_554 S
C961 C590 1.288 . S
C965 C472 1.275 . S
C979 C3 1.265 . S
C983 C255 1.268 . S
C997 C38 1.201 . S
C1001 C291 1.232 . S
C1015 C218 1.213 . S
C1019 C75 1.243 . S
C1033 C74 1.214 . S
C1037 C470 1.207 1_554 S
C1051 C507 1.245 . S
C1055 C2 1.209 . S
C1069 C435 1.257 . S
C1073 C39 1.249 . S
C1087 C578 1.216 . S
C1091 C110 1.194 . S
C1105 C147 1.236 . S
C1109 C614 1.208 . S
C1123 C543 1.272 . S
C1127 C183 1.268 . S
C1141 C363 1.254 . S
C1145 C182 1.226 . S
C1159 C111 1.261 . S
C1163 C399 1.253 . S
C1177 C146 1.220 . S
C1181 C327 1.238 1_556 S
C1195 C219 1.259 . S
C1199 C471 1.255 . S
C1213 C254 1.203 . S
C1217 C506 1.199 . S
C1231 C290 1.211 . S
C1235 C434 1.197 . S
C1249 C579 1.241 . S
C1253 C398 1.214 . S
C1267 C615 1.266 . S
C1271 C326 1.244 . S
C1285 C362 1.236 . S
C1289 C542 1.194 . S
