# Generated by pormake.
# Topology wna, (6)-cn, num edge types: 1
# Building blocks:
#     Node 0, Type 0, BuildingBlock: CUWYAW_clean_sbu_0, # of connection points: 6
#     Node 1, Type 0, BuildingBlock: CUWYAW_clean_sbu_0, # of connection points: 6
#     Node 2, Type 0, BuildingBlock: CUWYAW_clean_sbu_0, # of connection points: 6
#     Node 3, Type 0, BuildingBlock: CUWYAW_clean_sbu_0, # of connection points: 6
#     Node 4, Type 0, BuildingBlock: CUWYAW_clean_sbu_0, # of connection points: 6
#     Node 5, Type 0, BuildingBlock: CUWYAW_clean_sbu_0, # of connection points: 6
#     Node 6, Type 0, BuildingBlock: CUWYAW_clean_sbu_0, # of connection points: 6
#     Node 7, Type 0, BuildingBlock: CUWYAW_clean_sbu_0, # of connection points: 6
#     Node 8, Type 0, BuildingBlock: CUWYAW_clean_sbu_0, # of connection points: 6
#     Node 9, Type 0, BuildingBlock: CUWYAW_clean_sbu_0, # of connection points: 6
#     Node 10, Type 0, BuildingBlock: CUWYAW_clean_sbu_0, # of connection points: 6
#     Node 11, Type 0, BuildingBlock: CUWYAW_clean_sbu_0, # of connection points: 6
#     Node 12, Type 0, BuildingBlock: CUWYAW_clean_sbu_0, # of connection points: 6
#     Node 13, Type 0, BuildingBlock: CUWYAW_clean_sbu_0, # of connection points: 6
#     Node 14, Type 0, BuildingBlock: CUWYAW_clean_sbu_0, # of connection points: 6
#     Node 15, Type 0, BuildingBlock: CUWYAW_clean_sbu_0, # of connection points: 6
#     Node 16, Type 0, BuildingBlock: CUWYAW_clean_sbu_0, # of connection points: 6
#     Node 17, Type 0, BuildingBlock: CUWYAW_clean_sbu_0, # of connection points: 6
#     Node 18, Type 0, BuildingBlock: CUWYAW_clean_sbu_0, # of connection points: 6
#     Node 19, Type 0, BuildingBlock: CUWYAW_clean_sbu_0, # of connection points: 6
#     Node 20, Type 0, BuildingBlock: CUWYAW_clean_sbu_0, # of connection points: 6
#     Node 21, Type 0, BuildingBlock: CUWYAW_clean_sbu_0, # of connection points: 6
#     Node 22, Type 0, BuildingBlock: CUWYAW_clean_sbu_0, # of connection points: 6
#     Node 23, Type 0, BuildingBlock: CUWYAW_clean_sbu_0, # of connection points: 6
#     Node 24, Type 0, BuildingBlock: CUWYAW_clean_sbu_0, # of connection points: 6
#     Node 25, Type 0, BuildingBlock: CUWYAW_clean_sbu_0, # of connection points: 6
#     Node 26, Type 0, BuildingBlock: CUWYAW_clean_sbu_0, # of connection points: 6
#     Node 27, Type 0, BuildingBlock: CUWYAW_clean_sbu_0, # of connection points: 6
#     Node 28, Type 0, BuildingBlock: CUWYAW_clean_sbu_0, # of connection points: 6
#     Node 29, Type 0, BuildingBlock: CUWYAW_clean_sbu_0, # of connection points: 6
#     Node 30, Type 0, BuildingBlock: CUWYAW_clean_sbu_0, # of connection points: 6
#     Node 31, Type 0, BuildingBlock: CUWYAW_clean_sbu_0, # of connection points: 6
#     Node 32, Type 0, BuildingBlock: CUWYAW_clean_sbu_0, # of connection points: 6
#     Node 33, Type 0, BuildingBlock: CUWYAW_clean_sbu_0, # of connection points: 6
#     Node 34, Type 0, BuildingBlock: CUWYAW_clean_sbu_0, # of connection points: 6
#     Node 35, Type 0, BuildingBlock: CUWYAW_clean_sbu_0, # of connection points: 6
#     Edge 36, Type (0, 0), BuildingBlock: CIFDUS_clean_linker_0, # of connection points: 2
#     Edge 37, Type (0, 0), BuildingBlock: CIFDUS_clean_linker_0, # of connection points: 2
#     Edge 38, Type (0, 0), BuildingBlock: CIFDUS_clean_linker_0, # of connection points: 2
#     Edge 39, Type (0, 0), BuildingBlock: CIFDUS_clean_linker_0, # of connection points: 2
#     Edge 40, Type (0, 0), BuildingBlock: CIFDUS_clean_linker_0, # of connection points: 2
#     Edge 41, Type (0, 0), BuildingBlock: CIFDUS_clean_linker_0, # of connection points: 2
#     Edge 42, Type (0, 0), BuildingBlock: CIFDUS_clean_linker_0, # of connection points: 2
#     Edge 43, Type (0, 0), BuildingBlock: CIFDUS_clean_linker_0, # of connection points: 2
#     Edge 44, Type (0, 0), BuildingBlock: CIFDUS_clean_linker_0, # of connection points: 2
#     Edge 45, Type (0, 0), BuildingBlock: CIFDUS_clean_linker_0, # of connection points: 2
#     Edge 46, Type (0, 0), BuildingBlock: CIFDUS_clean_linker_0, # of connection points: 2
#     Edge 47, Type (0, 0), BuildingBlock: CIFDUS_clean_linker_0, # of connection points: 2
#     Edge 48, Type (0, 0), BuildingBlock: CIFDUS_clean_linker_0, # of connection points: 2
#     Edge 49, Type (0, 0), BuildingBlock: CIFDUS_clean_linker_0, # of connection points: 2
#     Edge 50, Type (0, 0), BuildingBlock: CIFDUS_clean_linker_0, # of connection points: 2
#     Edge 51, Type (0, 0), BuildingBlock: CIFDUS_clean_linker_0, # of connection points: 2
#     Edge 52, Type (0, 0), BuildingBlock: CIFDUS_clean_linker_0, # of connection points: 2
#     Edge 53, Type (0, 0), BuildingBlock: CIFDUS_clean_linker_0, # of connection points: 2
#     Edge 54, Type (0, 0), BuildingBlock: CIFDUS_clean_linker_0, # of connection points: 2
#     Edge 55, Type (0, 0), BuildingBlock: CIFDUS_clean_linker_0, # of connection points: 2
#     Edge 56, Type (0, 0), BuildingBlock: CIFDUS_clean_linker_0, # of connection points: 2
#     Edge 57, Type (0, 0), BuildingBlock: CIFDUS_clean_linker_0, # of connection points: 2
#     Edge 58, Type (0, 0), BuildingBlock: CIFDUS_clean_linker_0, # of connection points: 2
#     Edge 59, Type (0, 0), BuildingBlock: CIFDUS_clean_linker_0, # of connection points: 2
#     Edge 60, Type (0, 0), BuildingBlock: CIFDUS_clean_linker_0, # of connection points: 2
#     Edge 61, Type (0, 0), BuildingBlock: CIFDUS_clean_linker_0, # of connection points: 2
#     Edge 62, Type (0, 0), BuildingBlock: CIFDUS_clean_linker_0, # of connection points: 2
#     Edge 63, Type (0, 0), BuildingBlock: CIFDUS_clean_linker_0, # of connection points: 2
#     Edge 64, Type (0, 0), BuildingBlock: CIFDUS_clean_linker_0, # of connection points: 2
#     Edge 65, Type (0, 0), BuildingBlock: CIFDUS_clean_linker_0, # of connection points: 2
#     Edge 66, Type (0, 0), BuildingBlock: CIFDUS_clean_linker_0, # of connection points: 2
#     Edge 67, Type (0, 0), BuildingBlock: CIFDUS_clean_linker_0, # of connection points: 2
#     Edge 68, Type (0, 0), BuildingBlock: CIFDUS_clean_linker_0, # of connection points: 2
#     Edge 69, Type (0, 0), BuildingBlock: CIFDUS_clean_linker_0, # of connection points: 2
#     Edge 70, Type (0, 0), BuildingBlock: CIFDUS_clean_linker_0, # of connection points: 2
#     Edge 71, Type (0, 0), BuildingBlock: CIFDUS_clean_linker_0, # of connection points: 2
#     Edge 72, Type (0, 0), BuildingBlock: CIFDUS_clean_linker_0, # of connection points: 2
#     Edge 73, Type (0, 0), BuildingBlock: CIFDUS_clean_linker_0, # of connection points: 2
#     Edge 74, Type (0, 0), BuildingBlock: CIFDUS_clean_linker_0, # of connection points: 2
#     Edge 75, Type (0, 0), BuildingBlock: CIFDUS_clean_linker_0, # of connection points: 2
#     Edge 76, Type (0, 0), BuildingBlock: CIFDUS_clean_linker_0, # of connection points: 2
#     Edge 77, Type (0, 0), BuildingBlock: CIFDUS_clean_linker_0, # of connection points: 2
#     Edge 78, Type (0, 0), BuildingBlock: CIFDUS_clean_linker_0, # of connection points: 2
#     Edge 79, Type (0, 0), BuildingBlock: CIFDUS_clean_linker_0, # of connection points: 2
#     Edge 80, Type (0, 0), BuildingBlock: CIFDUS_clean_linker_0, # of connection points: 2
#     Edge 81, Type (0, 0), BuildingBlock: CIFDUS_clean_linker_0, # of connection points: 2
#     Edge 82, Type (0, 0), BuildingBlock: CIFDUS_clean_linker_0, # of connection points: 2
#     Edge 83, Type (0, 0), BuildingBlock: CIFDUS_clean_linker_0, # of connection points: 2
#     Edge 84, Type (0, 0), BuildingBlock: CIFDUS_clean_linker_0, # of connection points: 2
#     Edge 85, Type (0, 0), BuildingBlock: CIFDUS_clean_linker_0, # of connection points: 2
#     Edge 86, Type (0, 0), BuildingBlock: CIFDUS_clean_linker_0, # of connection points: 2
#     Edge 87, Type (0, 0), BuildingBlock: CIFDUS_clean_linker_0, # of connection points: 2
#     Edge 88, Type (0, 0), BuildingBlock: CIFDUS_clean_linker_0, # of connection points: 2
#     Edge 89, Type (0, 0), BuildingBlock: CIFDUS_clean_linker_0, # of connection points: 2
#     Edge 90, Type (0, 0), BuildingBlock: CIFDUS_clean_linker_0, # of connection points: 2
#     Edge 91, Type (0, 0), BuildingBlock: CIFDUS_clean_linker_0, # of connection points: 2
#     Edge 92, Type (0, 0), BuildingBlock: CIFDUS_clean_linker_0, # of connection points: 2
#     Edge 93, Type (0, 0), BuildingBlock: CIFDUS_clean_linker_0, # of connection points: 2
#     Edge 94, Type (0, 0), BuildingBlock: CIFDUS_clean_linker_0, # of connection points: 2
#     Edge 95, Type (0, 0), BuildingBlock: CIFDUS_clean_linker_0, # of connection points: 2
#     Edge 96, Type (0, 0), BuildingBlock: CIFDUS_clean_linker_0, # of connection points: 2
#     Edge 97, Type (0, 0), BuildingBlock: CIFDUS_clean_linker_0, # of connection points: 2
#     Edge 98, Type (0, 0), BuildingBlock: CIFDUS_clean_linker_0, # of connection points: 2
#     Edge 99, Type (0, 0), BuildingBlock: CIFDUS_clean_linker_0, # of connection points: 2
#     Edge 100, Type (0, 0), BuildingBlock: CIFDUS_clean_linker_0, # of connection points: 2
#     Edge 101, Type (0, 0), BuildingBlock: CIFDUS_clean_linker_0, # of connection points: 2
#     Edge 102, Type (0, 0), BuildingBlock: CIFDUS_clean_linker_0, # of connection points: 2
#     Edge 103, Type (0, 0), BuildingBlock: CIFDUS_clean_linker_0, # of connection points: 2
#     Edge 104, Type (0, 0), BuildingBlock: CIFDUS_clean_linker_0, # of connection points: 2
#     Edge 105, Type (0, 0), BuildingBlock: CIFDUS_clean_linker_0, # of connection points: 2
#     Edge 106, Type (0, 0), BuildingBlock: CIFDUS_clean_linker_0, # of connection points: 2
#     Edge 107, Type (0, 0), BuildingBlock: CIFDUS_clean_linker_0, # of connection points: 2
#     Edge 108, Type (0, 0), BuildingBlock: CIFDUS_clean_linker_0, # of connection points: 2
#     Edge 109, Type (0, 0), BuildingBlock: CIFDUS_clean_linker_0, # of connection points: 2
#     Edge 110, Type (0, 0), BuildingBlock: CIFDUS_clean_linker_0, # of connection points: 2
#     Edge 111, Type (0, 0), BuildingBlock: CIFDUS_clean_linker_0, # of connection points: 2
#     Edge 112, Type (0, 0), BuildingBlock: CIFDUS_clean_linker_0, # of connection points: 2
#     Edge 113, Type (0, 0), BuildingBlock: CIFDUS_clean_linker_0, # of connection points: 2
#     Edge 114, Type (0, 0), BuildingBlock: CIFDUS_clean_linker_0, # of connection points: 2
#     Edge 115, Type (0, 0), BuildingBlock: CIFDUS_clean_linker_0, # of connection points: 2
#     Edge 116, Type (0, 0), BuildingBlock: CIFDUS_clean_linker_0, # of connection points: 2
#     Edge 117, Type (0, 0), BuildingBlock: CIFDUS_clean_linker_0, # of connection points: 2
#     Edge 118, Type (0, 0), BuildingBlock: CIFDUS_clean_linker_0, # of connection points: 2
#     Edge 119, Type (0, 0), BuildingBlock: CIFDUS_clean_linker_0, # of connection points: 2
#     Edge 120, Type (0, 0), BuildingBlock: CIFDUS_clean_linker_0, # of connection points: 2
#     Edge 121, Type (0, 0), BuildingBlock: CIFDUS_clean_linker_0, # of connection points: 2
#     Edge 122, Type (0, 0), BuildingBlock: CIFDUS_clean_linker_0, # of connection points: 2
#     Edge 123, Type (0, 0), BuildingBlock: CIFDUS_clean_linker_0, # of connection points: 2
#     Edge 124, Type (0, 0), BuildingBlock: CIFDUS_clean_linker_0, # of connection points: 2
#     Edge 125, Type (0, 0), BuildingBlock: CIFDUS_clean_linker_0, # of connection points: 2
#     Edge 126, Type (0, 0), BuildingBlock: CIFDUS_clean_linker_0, # of connection points: 2
#     Edge 127, Type (0, 0), BuildingBlock: CIFDUS_clean_linker_0, # of connection points: 2
#     Edge 128, Type (0, 0), BuildingBlock: CIFDUS_clean_linker_0, # of connection points: 2
#     Edge 129, Type (0, 0), BuildingBlock: CIFDUS_clean_linker_0, # of connection points: 2
#     Edge 130, Type (0, 0), BuildingBlock: CIFDUS_clean_linker_0, # of connection points: 2
#     Edge 131, Type (0, 0), BuildingBlock: CIFDUS_clean_linker_0, # of connection points: 2
#     Edge 132, Type (0, 0), BuildingBlock: CIFDUS_clean_linker_0, # of connection points: 2
#     Edge 133, Type (0, 0), BuildingBlock: CIFDUS_clean_linker_0, # of connection points: 2
#     Edge 134, Type (0, 0), BuildingBlock: CIFDUS_clean_linker_0, # of connection points: 2
#     Edge 135, Type (0, 0), BuildingBlock: CIFDUS_clean_linker_0, # of connection points: 2
#     Edge 136, Type (0, 0), BuildingBlock: CIFDUS_clean_linker_0, # of connection points: 2
#     Edge 137, Type (0, 0), BuildingBlock: CIFDUS_clean_linker_0, # of connection points: 2
#     Edge 138, Type (0, 0), BuildingBlock: CIFDUS_clean_linker_0, # of connection points: 2
#     Edge 139, Type (0, 0), BuildingBlock: CIFDUS_clean_linker_0, # of connection points: 2
#     Edge 140, Type (0, 0), BuildingBlock: CIFDUS_clean_linker_0, # of connection points: 2
#     Edge 141, Type (0, 0), BuildingBlock: CIFDUS_clean_linker_0, # of connection points: 2
#     Edge 142, Type (0, 0), BuildingBlock: CIFDUS_clean_linker_0, # of connection points: 2
#     Edge 143, Type (0, 0), BuildingBlock: CIFDUS_clean_linker_0, # of connection points: 2
# Relax obj value: 0.142
# Max RMSD: 0.227
# Mean RMSD: 0.209
data_MOF--net-wna--node1-CUWYAW_clean_sbu_0--edge1-CIFDUS_clean_linker_0
_symmetry_space_group_name_H-M    P1
_symmetry_Int_Tables_number       1
_symmetry_cell_setting            triclinic
loop_
_symmetry_equiv_pos_as_xyz
'x, y, z'
_cell_length_a     36.034629
_cell_length_b     35.960435
_cell_length_c     141.78978
_cell_angle_alpha  90.047334
_cell_angle_beta   90.03549
_cell_angle_gamma 119.87338
loop_
_atom_site_label
_atom_site_type_symbol
_atom_site_fract_x
_atom_site_fract_y
_atom_site_fract_z
_atom_type_partial_charge
C0 C 0.12918 0.23384 0.21142 0.0
Eu1 Eu 0.1244 0.24553 0.19327 0.0
C2 C 0.10389 0.22067 0.22038 0.0
C3 C 0.09937 0.25051 0.22601 0.0
C4 C 0.08005 0.239 0.23496 0.0
C5 C 0.06505 0.19744 0.23858 0.0
C6 C 0.06852 0.16737 0.23281 0.0
C7 C 0.08775 0.17883 0.22389 0.0
C8 C 0.09094 0.29517 0.18715 0.0
C9 C 0.0408 0.18428 0.18182 0.0
C10 C 0.11861 0.27616 0.15501 0.0
Eu11 Eu 0.12984 0.25982 0.17246 0.0
C12 C 0.13738 0.29081 0.14549 0.0
C13 C 0.15159 0.26774 0.13999 0.0
C14 C 0.16298 0.27862 0.1305 0.0
C15 C 0.1601 0.31256 0.12629 0.0
C16 C 0.1475 0.33655 0.13193 0.0
C17 C 0.13623 0.32575 0.1414 0.0
C18 C 0.15799 0.20492 0.17754 0.0
C19 C 0.21829 0.30786 0.18352 0.0
O20 O 0.12071 0.2044 0.20502 0.0
O21 O 0.13888 0.27084 0.20768 0.0
O22 O 0.07459 0.26665 0.19375 0.0
O23 O 0.12529 0.29754 0.18427 0.0
O24 O 0.06186 0.18713 0.18963 0.0
O25 O 0.05885 0.21277 0.17496 0.0
O26 O 0.13061 0.30441 0.16182 0.0
O27 O 0.1113 0.23864 0.15794 0.0
O28 O 0.17375 0.23264 0.17073 0.0
O29 O 0.12648 0.20618 0.18121 0.0
O30 O 0.19822 0.30928 0.17584 0.0
O31 O 0.19676 0.28248 0.19066 0.0
H32 H 0.11186 0.2832 0.22363 0.0
H33 H 0.07838 0.26322 0.23919 0.0
H34 H 0.05678 0.13486 0.23524 0.0
H35 H 0.09094 0.15506 0.21983 0.0
H36 H 0.15258 0.24042 0.14291 0.0
H37 H 0.17233 0.25929 0.12637 0.0
H38 H 0.14564 0.36337 0.12899 0.0
H39 H 0.12516 0.34393 0.14544 0.0
C40 C 0.78509 0.89746 0.21267 0.0
Eu41 Eu 0.77191 0.88269 0.19444 0.0
C42 C 0.79389 0.88202 0.22173 0.0
C43 C 0.76797 0.83981 0.225 0.0
C44 C 0.77471 0.82757 0.23399 0.0
C45 C 0.80747 0.85718 0.23999 0.0
C46 C 0.83389 0.89912 0.23657 0.0
C47 C 0.82715 0.91128 0.2276 0.0
C48 C 0.72046 0.80145 0.18728 0.0
C49 C 0.84633 0.86629 0.18549 0.0
C50 C 0.75749 0.84727 0.15582 0.0
Eu51 Eu 0.77614 0.87415 0.17327 0.0
C52 C 0.73997 0.85022 0.14653 0.0
C53 C 0.75717 0.88888 0.14145 0.0
C54 C 0.7444 0.88927 0.13209 0.0
C55 C 0.71442 0.85097 0.12759 0.0
C56 C 0.69612 0.81271 0.13285 0.0
C57 C 0.70877 0.81237 0.14218 0.0
C58 C 0.83445 0.95278 0.17959 0.0
C59 C 0.71541 0.91098 0.18181 0.0
O60 O 0.81553 0.91396 0.20636 0.0
O61 O 0.74722 0.87518 0.20882 0.0
O62 O 0.70963 0.81778 0.19415 0.0
O63 O 0.75811 0.82775 0.18487 0.0
O64 O 0.83457 0.88217 0.19256 0.0
O65 O 0.82349 0.85329 0.17763 0.0
O66 O 0.73102 0.82897 0.16287 0.0
O67 O 0.79444 0.87924 0.1585 0.0
O68 O 0.83932 0.93454 0.17217 0.0
O69 O 0.79672 0.931 0.18283 0.0
O70 O 0.72294 0.89105 0.17481 0.0
O71 O 0.73485 0.91643 0.19007 0.0
H72 H 0.74203 0.81637 0.22068 0.0
H73 H 0.75403 0.7948 0.23624 0.0
H74 H 0.85904 0.92318 0.24094 0.0
H75 H 0.84742 0.94414 0.22533 0.0
H76 H 0.7815 0.91861 0.14457 0.0
H77 H 0.75936 0.9193 0.12827 0.0
H78 H 0.67243 0.78273 0.12969 0.0
H79 H 0.69514 0.78208 0.1459 0.0
C80 C 0.10758 0.89353 0.21286 0.0
Eu81 Eu 0.1365 0.89613 0.19584 0.0
C82 C 0.12234 0.91548 0.22209 0.0
C83 C 0.16593 0.93859 0.22451 0.0
C84 C 0.1789 0.95916 0.23332 0.0
C85 C 0.14856 0.95712 0.2399 0.0
C86 C 0.10495 0.93403 0.23737 0.0
C87 C 0.09208 0.91351 0.22859 0.0
C88 C 0.22189 0.92455 0.19143 0.0
C89 C 0.15977 0.98346 0.18429 0.0
C90 C 0.19085 0.90819 0.15676 0.0
Eu91 Eu 0.15315 0.90008 0.17298 0.0
C92 C 0.18356 0.89137 0.14695 0.0
C93 C 0.14613 0.88166 0.14193 0.0
C94 C 0.14239 0.87101 0.13231 0.0
C95 C 0.17594 0.86976 0.12747 0.0
C96 C 0.21265 0.87793 0.13264 0.0
C97 C 0.21639 0.88866 0.14225 0.0
C98 C 0.06967 0.875 0.17675 0.0
C99 C 0.10545 0.80661 0.18398 0.0
O100 O 0.1042 0.91602 0.20599 0.0
O101 O 0.12335 0.8694 0.21006 0.0
O102 O 0.20649 0.91866 0.19991 0.0
O103 O 0.19067 0.91432 0.18599 0.0
O104 O 0.14412 0.95998 0.19198 0.0
O105 O 0.17015 0.96925 0.17659 0.0
O106 O 0.19124 0.88367 0.16358 0.0
O107 O 0.17249 0.93035 0.15923 0.0
O108 O 0.08502 0.87828 0.16828 0.0
O109 O 0.09951 0.88433 0.18262 0.0
O110 O 0.12682 0.82863 0.17634 0.0
O111 O 0.10262 0.82567 0.19177 0.0
H112 H 0.18993 0.9407 0.2196 0.0
H113 H 0.2127 0.97624 0.235 0.0
H114 H 0.08064 0.9323 0.24212 0.0
H115 H 0.0583 0.89614 0.22686 0.0
H116 H 0.12018 0.88334 0.14538 0.0
H117 H 0.11336 0.86429 0.12863 0.0
H118 H 0.23938 0.87781 0.12918 0.0
H119 H 0.24569 0.89627 0.14593 0.0
C120 C 0.20945 0.1155 0.31993 0.0
Eu121 Eu 0.24075 0.11778 0.33668 0.0
C122 C 0.20095 0.09224 0.31077 0.0
C123 C 0.23405 0.0941 0.30514 0.0
C124 C 0.22493 0.07291 0.29638 0.0
C125 C 0.18252 0.0492 0.29305 0.0
C126 C 0.14962 0.0476 0.2987 0.0
C127 C 0.15873 0.06886 0.30741 0.0
C128 C 0.29921 0.08988 0.34027 0.0
C129 C 0.18306 0.03614 0.35031 0.0
C130 C 0.29872 0.11941 0.37487 0.0
Eu131 Eu 0.26379 0.12303 0.35903 0.0
C132 C 0.30741 0.13689 0.38457 0.0
C133 C 0.27875 0.14606 0.38935 0.0
C134 C 0.28492 0.15735 0.39893 0.0
C135 C 0.31993 0.15982 0.40391 0.0
C136 C 0.34944 0.1523 0.39897 0.0
C137 C 0.34317 0.14089 0.38941 0.0
C138 C 0.20222 0.1456 0.35617 0.0
C139 C 0.30535 0.21141 0.34669 0.0
O140 O 0.18592 0.09372 0.32715 0.0
O141 O 0.24937 0.14216 0.32228 0.0
O142 O 0.28543 0.09245 0.332 0.0
O143 O 0.28161 0.10317 0.34597 0.0
O144 O 0.18556 0.05579 0.34224 0.0
O145 O 0.21262 0.05338 0.35702 0.0
O146 O 0.32068 0.14528 0.36796 0.0
O147 O 0.25853 0.09354 0.37268 0.0
O148 O 0.21849 0.14539 0.36436 0.0
O149 O 0.22064 0.13486 0.35002 0.0
O150 O 0.30861 0.19162 0.3543 0.0
O151 O 0.2792 0.19011 0.33955 0.0
H152 H 0.26701 0.11192 0.30748 0.0
H153 H 0.25107 0.07462 0.29227 0.0
H154 H 0.11666 0.03035 0.29634 0.0
H155 H 0.13261 0.06725 0.31151 0.0
H156 H 0.25097 0.14335 0.38576 0.0
H157 H 0.26188 0.16349 0.40247 0.0
H158 H 0.37646 0.15339 0.40257 0.0
H159 H 0.36554 0.13374 0.38588 0.0
C160 C 0.89633 0.10635 0.31759 0.0
Eu161 Eu 0.89859 0.1325 0.33496 0.0
C162 C 0.91638 0.12235 0.3082 0.0
C163 C 0.9299 0.16437 0.30515 0.0
C164 C 0.94827 0.17813 0.29617 0.0
C165 C 0.95371 0.15026 0.29003 0.0
C166 C 0.94034 0.10832 0.2932 0.0
C167 C 0.92199 0.09464 0.30215 0.0
C168 C 0.92308 0.21653 0.33943 0.0
C169 C 0.987 0.15599 0.34612 0.0
C170 C 0.9136 0.17168 0.3748 0.0
Eu171 Eu 0.90027 0.14251 0.3574 0.0
C172 C 0.89694 0.16941 0.3846 0.0
C173 C 0.882 0.13249 0.39026 0.0
C174 C 0.87181 0.13315 0.39984 0.0
C175 C 0.87659 0.17083 0.40409 0.0
C176 C 0.89063 0.20737 0.39834 0.0
C177 C 0.90064 0.20664 0.38877 0.0
C178 C 0.87347 0.06145 0.35079 0.0
C179 C 0.80811 0.0991 0.34675 0.0
O180 O 0.92076 0.10457 0.32418 0.0
O181 O 0.8704 0.11907 0.32083 0.0
O182 O 0.91865 0.20116 0.33099 0.0
O183 O 0.91352 0.18596 0.34514 0.0
O184 O 0.96558 0.14572 0.33805 0.0
O185 O 0.96989 0.15984 0.35416 0.0
O186 O 0.90103 0.18761 0.368 0.0
O187 O 0.92024 0.1409 0.37187 0.0
O188 O 0.8605 0.06934 0.35874 0.0
O189 O 0.90145 0.09648 0.3473 0.0
O190 O 0.83023 0.12143 0.35425 0.0
O191 O 0.8276 0.09535 0.33912 0.0
H192 H 0.92627 0.18656 0.3097 0.0
H193 H 0.95859 0.2108 0.29407 0.0
H194 H 0.94327 0.08561 0.28869 0.0
H195 H 0.91182 0.06207 0.30433 0.0
H196 H 0.87915 0.10332 0.38736 0.0
H197 H 0.8615 0.10439 0.40398 0.0
H198 H 0.89413 0.23682 0.40123 0.0
H199 H 0.91242 0.23576 0.38467 0.0
C200 C 0.90685 0.79289 0.31999 0.0
Eu201 Eu 0.88716 0.76974 0.33773 0.0
C202 C 0.89265 0.80308 0.3109 0.0
C203 C 0.85989 0.7711 0.30531 0.0
C204 C 0.85112 0.78056 0.29621 0.0
C205 C 0.8751 0.82215 0.2924 0.0
C206 C 0.90684 0.85428 0.29815 0.0
C207 C 0.91551 0.84486 0.30722 0.0
C208 C 0.80576 0.70772 0.34276 0.0
C209 C 0.85714 0.83088 0.3484 0.0
C210 C 0.84421 0.73602 0.37585 0.0
Eu211 Eu 0.87209 0.76124 0.35865 0.0
C212 C 0.85012 0.72249 0.38538 0.0
C213 C 0.88843 0.74588 0.39048 0.0
C214 C 0.89059 0.73707 0.40006 0.0
C215 C 0.85444 0.7048 0.4048 0.0
C216 C 0.81677 0.68021 0.39953 0.0
C217 C 0.81469 0.689 0.38996 0.0
C218 C 0.95163 0.82581 0.35381 0.0
C219 C 0.91431 0.70863 0.34884 0.0
O220 O 0.91757 0.82006 0.32699 0.0
O221 O 0.88785 0.75315 0.3229 0.0
O222 O 0.8277 0.70471 0.33589 0.0
O223 O 0.82712 0.74421 0.34653 0.0
O224 O 0.87943 0.82763 0.34135 0.0
O225 O 0.84247 0.80198 0.35519 0.0
O226 O 0.83378 0.70945 0.36872 0.0
O227 O 0.8692 0.77599 0.37341 0.0
O228 O 0.93085 0.82612 0.36123 0.0
O229 O 0.93185 0.78963 0.34983 0.0
O230 O 0.89002 0.70968 0.35573 0.0
O231 O 0.92362 0.73452 0.34146 0.0
H232 H 0.8418 0.73842 0.30784 0.0
H233 H 0.82665 0.75483 0.29202 0.0
H234 H 0.92557 0.88685 0.2956 0.0
H235 H 0.94114 0.87021 0.31128 0.0
H236 H 0.91633 0.77198 0.38717 0.0
H237 H 0.92042 0.75624 0.4038 0.0
H238 H 0.78809 0.65547 0.40289 0.0
H239 H 0.7846 0.67079 0.38624 0.0
C240 C 0.91473 0.73395 0.87376 0.0
Eu241 Eu 0.91246 0.76158 0.85681 0.0
C242 C 0.89423 0.72075 0.88322 0.0
C243 C 0.8935 0.7506 0.88956 0.0
C244 C 0.88028 0.73912 0.89894 0.0
C245 C 0.86748 0.69754 0.90226 0.0
C246 C 0.86695 0.66741 0.89582 0.0
C247 C 0.88025 0.67891 0.88646 0.0
C248 C 0.90287 0.82884 0.85145 0.0
C249 C 0.8165 0.71589 0.84709 0.0
C250 C 0.90223 0.79908 0.81756 0.0
Eu251 Eu 0.90494 0.77203 0.83455 0.0
C252 C 0.923 0.8073 0.80808 0.0
C253 C 0.92546 0.77521 0.80286 0.0
C254 C 0.94206 0.78329 0.79362 0.0
C255 C 0.95637 0.82355 0.78932 0.0
C256 C 0.95493 0.85581 0.7947 0.0
C257 C 0.93845 0.84776 0.8039 0.0
C258 C 0.93326 0.71459 0.83816 0.0
C259 C 0.99496 0.83002 0.84589 0.0
O260 O 0.89704 0.70826 0.86653 0.0
O261 O 0.93275 0.77453 0.87147 0.0
O262 O 0.9225 0.82835 0.8591 0.0
O263 O 0.88569 0.79249 0.84755 0.0
O264 O 0.84053 0.72135 0.85465 0.0
O265 O 0.8335 0.73297 0.83872 0.0
O266 O 0.92454 0.82473 0.8245 0.0
O267 O 0.87818 0.75917 0.8203 0.0
O268 O 0.926 0.72432 0.82984 0.0
O269 O 0.9243 0.73537 0.84396 0.0
O270 O 0.96981 0.82883 0.83891 0.0
O271 O 0.98128 0.79901 0.85224 0.0
H272 H 0.9043 0.78324 0.88735 0.0
H273 H 0.88056 0.76305 0.90363 0.0
H274 H 0.85789 0.63526 0.8981 0.0
H275 H 0.8811 0.65538 0.88182 0.0
H276 H 0.91382 0.7436 0.80585 0.0
H277 H 0.94237 0.75751 0.78973 0.0
H278 H 0.96633 0.88747 0.79177 0.0
H279 H 0.93706 0.87316 0.80772 0.0
C280 C 0.28722 0.16814 0.87573 0.0
Eu281 Eu 0.26069 0.14304 0.8585 0.0
C282 C 0.29922 0.16011 0.88521 0.0
C283 C 0.27266 0.12251 0.8903 0.0
C284 C 0.2806 0.11926 0.89987 0.0
C285 C 0.31514 0.15359 0.9046 0.0
C286 C 0.34279 0.19028 0.89934 0.0
C287 C 0.33486 0.19345 0.88978 0.0
C288 C 0.19548 0.06766 0.85172 0.0
C289 C 0.3109 0.10326 0.84653 0.0
C290 C 0.22862 0.11694 0.81843 0.0
Eu291 Eu 0.25155 0.13828 0.83599 0.0
C292 C 0.22379 0.13376 0.80919 0.0
C293 C 0.25848 0.16836 0.80463 0.0
C294 C 0.25361 0.18116 0.79557 0.0
C295 C 0.21396 0.15976 0.79083 0.0
C296 C 0.17918 0.12566 0.7955 0.0
C297 C 0.18409 0.11284 0.80453 0.0
C298 C 0.30552 0.22206 0.84199 0.0
C299 C 0.19083 0.16087 0.84875 0.0
O300 O 0.31349 0.17663 0.86862 0.0
O301 O 0.24686 0.14646 0.87327 0.0
O302 O 0.19695 0.08185 0.86023 0.0
O303 O 0.23111 0.09086 0.84771 0.0
O304 O 0.30543 0.11739 0.85479 0.0
O305 O 0.29204 0.10601 0.83866 0.0
O306 O 0.2017 0.11241 0.82515 0.0
O307 O 0.26747 0.13002 0.82159 0.0
O308 O 0.29723 0.21046 0.83324 0.0
O309 O 0.28567 0.18837 0.84678 0.0
O310 O 0.19315 0.1414 0.84102 0.0
O311 O 0.22042 0.17372 0.85544 0.0
H312 H 0.24486 0.09624 0.88698 0.0
H313 H 0.25901 0.0902 0.90363 0.0
H314 H 0.36938 0.21759 0.90271 0.0
H315 H 0.35553 0.22299 0.88606 0.0
H316 H 0.28955 0.18523 0.80801 0.0
H317 H 0.28101 0.20789 0.79228 0.0
H318 H 0.14833 0.10794 0.79206 0.0
H319 H 0.1569 0.08581 0.80782 0.0
C320 C 0.85186 0.10802 0.87614 0.0
Eu321 Eu 0.87893 0.11485 0.8588 0.0
C322 C 0.85173 0.12857 0.8852 0.0
C323 C 0.88488 0.14048 0.89183 0.0
C324 C 0.8801 0.15088 0.90111 0.0
C325 C 0.84195 0.14923 0.90398 0.0
C326 C 0.81004 0.14002 0.89718 0.0
C327 C 0.81481 0.12967 0.88792 0.0
C328 C 0.95872 0.13704 0.85284 0.0
C329 C 0.91004 0.2081 0.84925 0.0
C330 C 0.90267 0.12272 0.81967 0.0
Eu331 Eu 0.8864 0.12153 0.83775 0.0
C332 C 0.89025 0.10041 0.8104 0.0
C333 C 0.85018 0.0872 0.80619 0.0
C334 C 0.84189 0.07137 0.79689 0.0
C335 C 0.87361 0.06883 0.79157 0.0
C336 C 0.91303 0.08068 0.79596 0.0
C337 C 0.9212 0.09626 0.80523 0.0
C338 C 0.80453 0.09019 0.84466 0.0
C339 C 0.8771 0.03647 0.84813 0.0
O340 O 0.83152 0.11187 0.86887 0.0
O341 O 0.88632 0.10683 0.87376 0.0
O342 O 0.94142 0.11613 0.86053 0.0
O343 O 0.93539 0.15034 0.84911 0.0
O344 O 0.88996 0.18234 0.85642 0.0
O345 O 0.91794 0.19272 0.84148 0.0
O346 O 0.9181 0.10817 0.82612 0.0
O347 O 0.87946 0.13788 0.82326 0.0
O348 O 0.8203 0.1163 0.83762 0.0
O349 O 0.83199 0.08081 0.84745 0.0
O350 O 0.89064 0.06125 0.84058 0.0
O351 O 0.86316 0.04733 0.85565 0.0
H352 H 0.91361 0.13958 0.89001 0.0
H353 H 0.90518 0.15758 0.90618 0.0
H354 H 0.78053 0.13912 0.89911 0.0
H355 H 0.78855 0.12031 0.88301 0.0
H356 H 0.82569 0.0902 0.80997 0.0
H357 H 0.81125 0.06273 0.79374 0.0
H358 H 0.93798 0.0785 0.79218 0.0
H359 H 0.95241 0.10636 0.80826 0.0
C360 C 0.7403 0.90047 0.65484 0.0
Eu361 Eu 0.76564 0.90251 0.67219 0.0
C362 C 0.72095 0.87956 0.64569 0.0
C363 C 0.74439 0.8708 0.63897 0.0
C364 C 0.72991 0.86068 0.62962 0.0
C365 C 0.69197 0.85959 0.62677 0.0
C366 C 0.66727 0.86557 0.63364 0.0
C367 C 0.68162 0.87551 0.64297 0.0
C368 C 0.82984 0.89097 0.67868 0.0
C369 C 0.7147 0.81209 0.68386 0.0
C370 C 0.79221 0.91316 0.71142 0.0
Eu371 Eu 0.77201 0.90573 0.69346 0.0
C372 C 0.79823 0.93642 0.72049 0.0
C373 C 0.76403 0.93708 0.72511 0.0
C374 C 0.76912 0.95376 0.73429 0.0
C375 C 0.80847 0.97006 0.73909 0.0
C376 C 0.84295 0.97052 0.73431 0.0
C377 C 0.83784 0.95388 0.72515 0.0
C378 C 0.71421 0.92722 0.68605 0.0
C379 C 0.83791 0.99007 0.6814 0.0
O380 O 0.71578 0.89446 0.66218 0.0
O381 O 0.77842 0.90729 0.6571 0.0
O382 O 0.83 0.90757 0.67054 0.0
O383 O 0.79362 0.87625 0.68259 0.0
O384 O 0.71631 0.83292 0.676 0.0
O385 O 0.73811 0.83334 0.69127 0.0
O386 O 0.82035 0.93183 0.7047 0.0
O387 O 0.75335 0.88935 0.70817 0.0
O388 O 0.7085 0.90623 0.69383 0.0
O389 O 0.75068 0.93751 0.68295 0.0
O390 O 0.83186 0.96806 0.68928 0.0
O391 O 0.81093 0.97352 0.67424 0.0
H392 H 0.77505 0.87404 0.64079 0.0
H393 H 0.74978 0.85643 0.6245 0.0
H394 H 0.63758 0.86434 0.63172 0.0
H395 H 0.663 0.88244 0.64793 0.0
H396 H 0.73297 0.92372 0.72176 0.0
H397 H 0.74199 0.95341 0.73765 0.0
H398 H 0.87357 0.98217 0.73777 0.0
H399 H 0.8646 0.95325 0.72183 0.0
C400 C 0.11257 0.84267 0.65311 0.0
Eu401 Eu 0.11486 0.86847 0.67048 0.0
C402 C 0.13521 0.84832 0.644 0.0
C403 C 0.14508 0.88326 0.63801 0.0
C404 C 0.15961 0.88421 0.62878 0.0
C405 C 0.16449 0.8502 0.62529 0.0
C406 C 0.15615 0.81614 0.63143 0.0
C407 C 0.14163 0.8152 0.64064 0.0
C408 C 0.13169 0.94811 0.67579 0.0
C409 C 0.20861 0.90675 0.68033 0.0
C410 C 0.11781 0.89573 0.70938 0.0
Eu411 Eu 0.12056 0.87906 0.69139 0.0
C412 C 0.09398 0.88016 0.71846 0.0
C413 C 0.08088 0.83896 0.72204 0.0
C414 C 0.06259 0.82702 0.73108 0.0
C415 C 0.05698 0.85596 0.73683 0.0
C416 C 0.06931 0.89683 0.7331 0.0
C417 C 0.08751 0.90868 0.72407 0.0
C418 C 0.0953 0.79701 0.68506 0.0
C419 C 0.03193 0.85686 0.68065 0.0
O420 O 0.1227 0.82678 0.66033 0.0
O421 O 0.1023 0.87144 0.65556 0.0
O422 O 0.10957 0.92731 0.66847 0.0
O423 O 0.14757 0.92749 0.67974 0.0
O424 O 0.18326 0.88397 0.6733 0.0
O425 O 0.19219 0.91453 0.68794 0.0
O426 O 0.10123 0.90786 0.70268 0.0
O427 O 0.13774 0.87651 0.70607 0.0
O428 O 0.1203 0.81496 0.69221 0.0
O429 O 0.08365 0.82225 0.68199 0.0
O430 O 0.05709 0.87648 0.68796 0.0
O431 O 0.0453 0.84194 0.67374 0.0
H432 H 0.14028 0.90926 0.64033 0.0
H433 H 0.1663 0.91128 0.62433 0.0
H434 H 0.1589 0.78906 0.629 0.0
H435 H 0.13366 0.78753 0.64501 0.0
H436 H 0.08542 0.81616 0.71792 0.0
H437 H 0.05299 0.79505 0.73358 0.0
H438 H 0.06628 0.92039 0.73727 0.0
H439 H 0.0977 0.9408 0.72156 0.0
C440 C 0.17493 0.2563 0.65394 0.0
Eu441 Eu 0.14967 0.2489 0.67145 0.0
C442 C 0.16818 0.26572 0.64407 0.0
C443 C 0.15311 0.23275 0.63732 0.0
C444 C 0.15233 0.24156 0.62773 0.0
C445 C 0.16682 0.28371 0.62459 0.0
C446 C 0.18012 0.31653 0.63139 0.0
C447 C 0.181 0.30769 0.64101 0.0
C448 C 0.06953 0.20068 0.6788 0.0
C449 C 0.11551 0.30759 0.68106 0.0
C450 C 0.11912 0.23383 0.71172 0.0
Eu451 Eu 0.14379 0.25006 0.69411 0.0
C452 C 0.13052 0.22446 0.72116 0.0
C453 C 0.17146 0.2491 0.72517 0.0
C454 C 0.17984 0.24049 0.73438 0.0
C455 C 0.14742 0.20725 0.73977 0.0
C456 C 0.1069 0.18213 0.73559 0.0
C457 C 0.09862 0.19068 0.72644 0.0
C458 C 0.22661 0.30382 0.68782 0.0
C459 C 0.167 0.1823 0.68434 0.0
O460 O 0.19187 0.28789 0.66007 0.0
O461 O 0.1459 0.22003 0.65768 0.0
O462 O 0.07732 0.21884 0.67054 0.0
O463 O 0.1043 0.20698 0.6824 0.0
O464 O 0.13659 0.3036 0.67381 0.0
O465 O 0.1098 0.28611 0.68907 0.0
O466 O 0.10787 0.2042 0.70525 0.0
O467 O 0.14154 0.27273 0.70831 0.0
O468 O 0.21546 0.29823 0.69663 0.0
O469 O 0.19311 0.28113 0.68316 0.0
O470 O 0.15729 0.19555 0.69221 0.0
O471 O 0.16942 0.20022 0.67598 0.0
H472 H 0.14329 0.20017 0.63941 0.0
H473 H 0.14125 0.21538 0.62273 0.0
H474 H 0.19174 0.34938 0.62923 0.0
H475 H 0.19311 0.33397 0.64601 0.0
H476 H 0.19675 0.27534 0.72127 0.0
H477 H 0.21135 0.26063 0.73736 0.0
H478 H 0.08133 0.15576 0.73941 0.0
H479 H 0.06685 0.17109 0.72351 0.0
C480 C 0.7973 0.56932 0.54608 0.0
Eu481 Eu 0.79156 0.57884 0.52788 0.0
C482 C 0.77366 0.56111 0.55521 0.0
C483 C 0.7633 0.59075 0.55914 0.0
C484 C 0.74436 0.58381 0.56813 0.0
C485 C 0.73529 0.5471 0.57346 0.0
C486 C 0.74507 0.5172 0.56941 0.0
C487 C 0.76402 0.52418 0.56045 0.0
C488 C 0.75215 0.62229 0.52106 0.0
C489 C 0.71349 0.50956 0.51596 0.0
C490 C 0.78555 0.61949 0.4895 0.0
Eu491 Eu 0.79378 0.59145 0.50599 0.0
C492 C 0.7995 0.62674 0.47948 0.0
C493 C 0.80576 0.59699 0.47429 0.0
C494 C 0.81479 0.603 0.46459 0.0
C495 C 0.81771 0.63885 0.45983 0.0
C496 C 0.81255 0.66906 0.46515 0.0
C497 C 0.80358 0.66304 0.47483 0.0
C498 C 0.81886 0.53272 0.50953 0.0
C499 C 0.88424 0.6384 0.51716 0.0
O500 O 0.78346 0.53773 0.53999 0.0
O501 O 0.81154 0.60667 0.54197 0.0
O502 O 0.73819 0.59581 0.52808 0.0
O503 O 0.78687 0.62571 0.51823 0.0
O504 O 0.73791 0.5151 0.52334 0.0
O505 O 0.72484 0.5392 0.50929 0.0
O506 O 0.81283 0.64416 0.49592 0.0
O507 O 0.76164 0.5799 0.49237 0.0
O508 O 0.81724 0.54681 0.50119 0.0
O509 O 0.80831 0.55153 0.51565 0.0
O510 O 0.86392 0.63574 0.50917 0.0
O511 O 0.86351 0.61822 0.52495 0.0
H512 H 0.7703 0.61965 0.55535 0.0
H513 H 0.73688 0.60738 0.5709 0.0
H514 H 0.73932 0.48888 0.57328 0.0
H515 H 0.77205 0.50096 0.55769 0.0
H516 H 0.8029 0.56872 0.4777 0.0
H517 H 0.81917 0.57933 0.46079 0.0
H518 H 0.81388 0.69672 0.46179 0.0
H519 H 0.7986 0.6863 0.47865 0.0
C520 C 0.45869 0.22859 0.54356 0.0
Eu521 Eu 0.44081 0.2133 0.52547 0.0
C522 C 0.46647 0.21255 0.55267 0.0
C523 C 0.43547 0.17381 0.55679 0.0
C524 C 0.4415 0.16216 0.56591 0.0
C525 C 0.47863 0.18893 0.57121 0.0
C526 C 0.51005 0.22711 0.56693 0.0
C527 C 0.504 0.23871 0.55783 0.0
C528 C 0.38529 0.13211 0.51871 0.0
C529 C 0.50834 0.19152 0.515 0.0
C530 C 0.41867 0.18158 0.48686 0.0
Eu531 Eu 0.43871 0.20477 0.50445 0.0
C532 C 0.4035 0.18873 0.47769 0.0
C533 C 0.42452 0.2287 0.47311 0.0
C534 C 0.41487 0.23254 0.4637 0.0
C535 C 0.38407 0.19654 0.45866 0.0
C536 C 0.36148 0.15718 0.46345 0.0
C537 C 0.37117 0.15335 0.47284 0.0
C538 C 0.50055 0.28268 0.51057 0.0
C539 C 0.38057 0.24075 0.51422 0.0
O540 O 0.48786 0.2414 0.53697 0.0
O541 O 0.41993 0.20961 0.54009 0.0
O542 O 0.37756 0.14915 0.52593 0.0
O543 O 0.42227 0.15752 0.5158 0.0
O544 O 0.50201 0.21094 0.52225 0.0
O545 O 0.48081 0.17702 0.50794 0.0
O546 O 0.39135 0.16435 0.4938 0.0
O547 O 0.45691 0.2103 0.48971 0.0
O548 O 0.50409 0.26273 0.50333 0.0
O549 O 0.46311 0.26245 0.51398 0.0
O550 O 0.38496 0.2197 0.50704 0.0
O551 O 0.40395 0.24805 0.52195 0.0
H552 H 0.40608 0.15283 0.55307 0.0
H553 H 0.41677 0.13216 0.56882 0.0
H554 H 0.53881 0.24902 0.57074 0.0
H555 H 0.52828 0.26901 0.55492 0.0
H556 H 0.4496 0.25662 0.47666 0.0
H557 H 0.43241 0.2635 0.4603 0.0
H558 H 0.33791 0.12865 0.4598 0.0
H559 H 0.3548 0.12211 0.47617 0.0
C560 C 0.77865 0.21931 0.54578 0.0
Eu561 Eu 0.80688 0.22688 0.52847 0.0
C562 C 0.79072 0.23963 0.55532 0.0
C563 C 0.82797 0.24668 0.56011 0.0
C564 C 0.83659 0.26346 0.56935 0.0
C565 C 0.80807 0.27333 0.57406 0.0
C566 C 0.77147 0.26716 0.56912 0.0
C567 C 0.76295 0.25054 0.55992 0.0
C568 C 0.89186 0.25712 0.52413 0.0
C569 C 0.83304 0.3202 0.51884 0.0
C570 C 0.84657 0.2482 0.48846 0.0
Eu571 Eu 0.82121 0.24095 0.50609 0.0
C572 C 0.85115 0.23163 0.47907 0.0
C573 C 0.81589 0.20861 0.47299 0.0
C574 C 0.82185 0.20073 0.46351 0.0
C575 C 0.86325 0.21605 0.4598 0.0
C576 C 0.89821 0.23717 0.46604 0.0
C577 C 0.89225 0.2449 0.47549 0.0
C578 C 0.7461 0.2303 0.51289 0.0
C579 C 0.77738 0.14272 0.51486 0.0
O580 O 0.77177 0.24061 0.53918 0.0
O581 O 0.7976 0.19875 0.54257 0.0
O582 O 0.87559 0.24739 0.5325 0.0
O583 O 0.86177 0.24974 0.5185 0.0
O584 O 0.8148 0.29291 0.52592 0.0
O585 O 0.84559 0.30938 0.511 0.0
O586 O 0.87082 0.25095 0.49564 0.0
O587 O 0.80894 0.24163 0.49105 0.0
O588 O 0.76504 0.25258 0.50542 0.0
O589 O 0.76529 0.21115 0.51584 0.0
O590 O 0.79517 0.16893 0.50755 0.0
O591 O 0.77642 0.1571 0.52346 0.0
H592 H 0.85012 0.23867 0.55678 0.0
H593 H 0.86497 0.2675 0.57291 0.0
H594 H 0.74909 0.27507 0.57237 0.0
H595 H 0.73408 0.24561 0.55643 0.0
H596 H 0.7837 0.19821 0.47542 0.0
H597 H 0.79408 0.18454 0.45897 0.0
H598 H 0.93057 0.24882 0.46357 0.0
H599 H 0.92017 0.26304 0.4799 0.0
C600 C 0.8975 0.44373 0.65315 0.0
Eu601 Eu 0.91786 0.44928 0.67113 0.0
C602 C 0.88993 0.41923 0.64417 0.0
C603 C 0.92064 0.41039 0.64028 0.0
C604 C 0.91449 0.39152 0.6313 0.0
C605 C 0.87753 0.38104 0.62592 0.0
C606 C 0.84647 0.38909 0.62997 0.0
C607 C 0.85264 0.40791 0.63894 0.0
C608 C 0.97405 0.42449 0.67788 0.0
C609 C 0.8507 0.36414 0.68291 0.0
C610 C 0.94635 0.44846 0.7099 0.0
Eu611 Eu 0.92368 0.44889 0.69236 0.0
C612 C 0.96479 0.47079 0.71899 0.0
C613 C 0.9428 0.48495 0.72486 0.0
C614 C 0.95712 0.4991 0.73409 0.0
C615 C 0.99366 0.49928 0.7377 0.0
C616 C 0.01629 0.48639 0.73168 0.0
C617 C 1.00201 0.47232 0.72248 0.0
C618 C 0.86233 0.46615 0.68604 0.0
C619 C 0.98104 0.53938 0.68156 0.0
O620 O 0.86929 0.42667 0.65991 0.0
O621 O 0.93661 0.46558 0.65639 0.0
O622 O 0.97998 0.44687 0.67032 0.0
O623 O 0.93788 0.41442 0.68123 0.0
O624 O 0.85662 0.38726 0.6752 0.0
O625 O 0.87901 0.37886 0.68981 0.0
O626 O 0.97178 0.45513 0.70271 0.0
O627 O 0.90852 0.44152 0.70736 0.0
O628 O 0.86052 0.44738 0.69396 0.0
O629 O 0.89866 0.47966 0.68228 0.0
O630 O 0.97828 0.51553 0.6889 0.0
O631 O 0.9557 0.52174 0.67412 0.0
H632 H 0.94981 0.41876 0.6441 0.0
H633 H 0.93891 0.38533 0.62854 0.0
H634 H 0.8179 0.38223 0.62607 0.0
H635 H 0.82864 0.41478 0.64168 0.0
H636 H 0.91376 0.48388 0.72245 0.0
H637 H 0.93915 0.50932 0.73845 0.0
H638 H 0.04413 0.48535 0.73419 0.0
H639 H 0.0192 0.46087 0.71821 0.0
C640 C 0.56887 0.44164 0.65293 0.0
Eu641 Eu 0.57115 0.47167 0.66988 0.0
C642 C 0.58985 0.4543 0.64349 0.0
C643 C 0.59671 0.49165 0.63877 0.0
C644 C 0.61415 0.50092 0.6296 0.0
C645 C 0.62497 0.47298 0.62491 0.0
C646 C 0.61902 0.4363 0.62981 0.0
C647 C 0.6017 0.42712 0.63893 0.0
C648 C 0.60217 0.55812 0.67331 0.0
C649 C 0.6598 0.50064 0.68151 0.0
C650 C 0.58074 0.52005 0.70908 0.0
Eu651 Eu 0.5775 0.48953 0.69211 0.0
C652 C 0.56112 0.51516 0.71861 0.0
C653 C 0.57718 0.50305 0.72636 0.0
C654 C 0.5648 0.50563 0.73561 0.0
C655 C 0.53617 0.52073 0.73741 0.0
C656 C 0.51859 0.53095 0.72961 0.0
C657 C 0.531 0.52838 0.72035 0.0
C658 C 0.56279 0.41015 0.68687 0.0
C659 C 0.48288 0.44664 0.68189 0.0
O660 O 0.5914 0.43885 0.65988 0.0
O661 O 0.54453 0.4573 0.65562 0.0
O662 O 0.5946 0.54051 0.66506 0.0
O663 O 0.59217 0.52851 0.67924 0.0
O664 O 0.63459 0.47705 0.6745 0.0
O665 O 0.64652 0.51837 0.68786 0.0
O666 O 0.56424 0.52907 0.70178 0.0
O667 O 0.59669 0.49549 0.70689 0.0
O668 O 0.58126 0.42903 0.69471 0.0
O669 O 0.54872 0.4318 0.68279 0.0
O670 O 0.50712 0.46544 0.68941 0.0
O671 O 0.49955 0.44263 0.67379 0.0
H672 H 0.58802 0.51336 0.64209 0.0
H673 H 0.61798 0.52934 0.62609 0.0
H674 H 0.62766 0.41438 0.62658 0.0
H675 H 0.59697 0.39822 0.64239 0.0
H676 H 0.60094 0.49336 0.72531 0.0
H677 H 0.57945 0.49787 0.74138 0.0
H678 H 0.49589 0.54199 0.73067 0.0
H679 H 0.51813 0.53828 0.7146 0.0
C680 C 0.57401 0.13229 0.65232 0.0
Eu681 Eu 0.54854 0.10836 0.6697 0.0
C682 C 0.56171 0.14049 0.6428 0.0
C683 C 0.52457 0.11018 0.63801 0.0
C684 C 0.51634 0.11778 0.62868 0.0
C685 C 0.54522 0.15568 0.62388 0.0
C686 C 0.58166 0.18629 0.62884 0.0
C687 C 0.58974 0.17878 0.63812 0.0
C688 C 0.46368 0.05672 0.6751 0.0
C689 C 0.52782 0.17234 0.68215 0.0
C690 C 0.50829 0.07233 0.70954 0.0
Eu691 Eu 0.53678 0.09869 0.69247 0.0
C692 C 0.51577 0.0585 0.71892 0.0
C693 C 0.54415 0.08855 0.72552 0.0
C694 C 0.54567 0.07641 0.73485 0.0
C695 C 0.51878 0.03393 0.73787 0.0
C696 C 0.49162 1.00358 0.73117 0.0
C697 C 0.49003 0.01575 0.72184 0.0
C698 C 0.61516 0.16063 0.68645 0.0
C699 C 0.57295 0.04315 0.68129 0.0
O700 O 0.57933 0.15919 0.65914 0.0
O701 O 0.55714 0.09253 0.65527 0.0
O702 O 0.47654 0.06305 0.66641 0.0
O703 O 0.49653 0.07799 0.67998 0.0
O704 O 0.54789 0.16859 0.67466 0.0
O705 O 0.51075 0.1421 0.68868 0.0
O706 O 0.49837 0.04628 0.7023 0.0
O707 O 0.53201 0.11272 0.70719 0.0
O708 O 0.59947 0.16 0.69473 0.0
O709 O 0.59143 0.12545 0.68227 0.0
O710 O 0.55636 0.04927 0.6891 0.0
O711 O 0.57651 0.06442 0.67329 0.0
H712 H 0.50229 0.08026 0.64139 0.0
H713 H 0.48806 0.0933 0.62512 0.0
H714 H 0.60433 0.21621 0.62551 0.0
H715 H 0.61862 0.20274 0.6416 0.0
H716 H 0.56429 0.12187 0.72357 0.0
H717 H 0.56749 0.10057 0.73975 0.0
H718 H 0.47008 0.97068 0.73322 0.0
H719 H 0.46733 0.99194 0.717 0.0
C720 C 0.55204 0.07086 0.20906 0.0
Eu721 Eu 0.56024 0.09467 0.19154 0.0
C722 C 0.54699 0.0574 0.2191 0.0
C723 C 0.51935 0.06349 0.22509 0.0
C724 C 0.51723 0.05416 0.23474 0.0
C725 C 0.54279 0.0386 0.23865 0.0
C726 C 0.56942 0.03129 0.23257 0.0
C727 C 0.57152 0.04061 0.22292 0.0
C728 C 0.55415 0.1617 0.18451 0.0
C729 C 0.47398 0.04172 0.17881 0.0
C730 C 0.57128 0.12821 0.1516 0.0
Eu731 Eu 0.56826 0.10492 0.1692 0.0
C732 C 0.59334 0.13354 0.14242 0.0
C733 C 0.60321 0.10289 0.13892 0.0
C734 C 0.62181 0.1079 0.12996 0.0
C735 C 0.63088 0.14361 0.12426 0.0
C736 C 0.62142 0.17443 0.12788 0.0
C737 C 0.60292 0.16942 0.13683 0.0
C738 C 0.59599 0.04935 0.17531 0.0
C739 C 0.64837 0.17013 0.1829 0.0
O740 O 0.57824 0.06699 0.20325 0.0
O741 O 0.52977 0.08675 0.20527 0.0
O742 O 0.56892 0.16101 0.19283 0.0
O743 O 0.5396 0.12542 0.18057 0.0
O744 O 0.49406 0.04308 0.18676 0.0
O745 O 0.49529 0.06533 0.17137 0.0
O746 O 0.59307 0.15504 0.1584 0.0
O747 O 0.54588 0.0891 0.15466 0.0
O748 O 0.59467 0.05908 0.16658 0.0
O749 O 0.58144 0.06876 0.18008 0.0
O750 O 0.62931 0.16382 0.17455 0.0
O751 O 0.6304 0.14328 0.19005 0.0
H752 H 0.50006 0.07647 0.22237 0.0
H753 H 0.49663 0.06055 0.23919 0.0
H754 H 0.58901 0.01863 0.23527 0.0
H755 H 0.59302 0.03539 0.2185 0.0
H756 H 0.59612 0.07481 0.14306 0.0
H757 H 0.62826 0.08329 0.12741 0.0
H758 H 0.62856 0.20273 0.12383 0.0
H759 H 0.59566 0.19354 0.13935 0.0
C760 C 0.95442 0.51176 0.20863 0.0
Eu761 Eu 0.92518 0.48164 0.19175 0.0
C762 C 0.96846 0.50604 0.21812 0.0
C763 C 0.94545 0.46791 0.22332 0.0
C764 C 0.95574 0.46593 0.23282 0.0
C765 C 0.98898 0.50215 0.23736 0.0
C766 C 1.01283 0.53968 0.23201 0.0
C767 C 1.00271 0.54154 0.22253 0.0
C768 C 0.85761 0.40441 0.18648 0.0
C769 C 0.97081 0.43285 0.18138 0.0
C770 C 0.88527 0.43825 0.15249 0.0
Eu771 Eu 0.91306 0.46595 0.16957 0.0
C772 C 0.87746 0.45301 0.14322 0.0
C773 C 0.91074 0.48521 0.1378 0.0
C774 C 0.90231 0.49703 0.12892 0.0
C775 C 0.86039 0.4771 0.12523 0.0
C776 C 0.82734 0.44482 0.13068 0.0
C777 C 0.83577 0.43298 0.1395 0.0
C778 C 0.96998 0.55184 0.17315 0.0
C779 C 0.85499 0.49582 0.18154 0.0
O780 O 0.97944 0.51901 0.20132 0.0
O781 O 0.91375 0.4888 0.20652 0.0
O782 O 0.85965 0.42373 0.19438 0.0
O783 O 0.89322 0.42434 0.18228 0.0
O784 O 0.96559 0.45031 0.18916 0.0
O785 O 0.95299 0.43355 0.17317 0.0
O786 O 0.86018 0.43503 0.15952 0.0
O787 O 0.92495 0.45245 0.15519 0.0
O788 O 0.9592 0.53463 0.16488 0.0
O789 O 0.95063 0.52209 0.17907 0.0
O790 O 0.85622 0.47297 0.17432 0.0
O791 O 0.88587 0.51218 0.18792 0.0
H792 H 0.91865 0.44007 0.22015 0.0
H793 H 0.93652 0.43654 0.2367 0.0
H794 H 0.03907 0.56797 0.23519 0.0
H795 H 0.02082 0.5714 0.21872 0.0
H796 H 0.94333 0.50129 0.14041 0.0
H797 H 0.9286 0.52224 0.12501 0.0
H798 H 0.79477 0.42807 0.12806 0.0
H799 H 0.80951 0.40769 0.14341 0.0
C800 C 0.51146 0.44838 0.20864 0.0
Eu801 Eu 0.5409 0.45167 0.19158 0.0
C802 C 0.52033 0.46616 0.21838 0.0
C803 C 0.5564 0.47222 0.2235 0.0
C804 C 0.5604 0.48237 0.23315 0.0
C805 C 0.52839 0.48657 0.23796 0.0
C806 C 0.4933 0.48229 0.23269 0.0
C807 C 0.48935 0.47217 0.22305 0.0
C808 C 0.62015 0.4668 0.18626 0.0
C809 C 0.58046 0.54519 0.18116 0.0
C810 C 0.5853 0.45889 0.1522 0.0
Eu811 Eu 0.55715 0.45724 0.1693 0.0
C812 C 0.57071 0.43658 0.1429 0.0
C813 C 0.54045 0.44007 0.13723 0.0
C814 C 0.52862 0.41984 0.12835 0.0
C815 C 0.54662 0.39551 0.12491 0.0
C816 C 0.57703 0.39239 0.13061 0.0
C817 C 0.58891 0.41264 0.13943 0.0
C818 C 0.47124 0.42627 0.17303 0.0
C819 C 0.52718 0.36862 0.18073 0.0
O820 O 0.50752 0.47072 0.20181 0.0
O821 O 0.52998 0.42682 0.20589 0.0
O822 O 0.60204 0.44945 0.19421 0.0
O823 O 0.59814 0.48027 0.1821 0.0
O824 O 0.56171 0.52133 0.1887 0.0
O825 O 0.58574 0.52858 0.17318 0.0
O826 O 0.58918 0.43698 0.15915 0.0
O827 O 0.57027 0.48365 0.15501 0.0
O828 O 0.48805 0.43369 0.16471 0.0
O829 O 0.50127 0.43655 0.17883 0.0
O830 O 0.55141 0.39377 0.17383 0.0
O831 O 0.51013 0.38252 0.18711 0.0
H832 H 0.58088 0.46782 0.22012 0.0
H833 H 0.58828 0.48613 0.23689 0.0
H834 H 0.46772 0.48474 0.2361 0.0
H835 H 0.46101 0.46726 0.21931 0.0
H836 H 0.52589 0.45844 0.13962 0.0
H837 H 0.50489 0.42279 0.12423 0.0
H838 H 0.59229 0.37471 0.12819 0.0
H839 H 0.61275 0.40981 0.14354 0.0
C840 C 0.41221 0.23956 0.98789 0.0
Eu841 Eu 0.43535 0.23868 1.00536 0.0
C842 C 0.39887 0.21772 0.9786 0.0
C843 C 0.42337 0.20301 0.97384 0.0
C844 C 0.41476 0.18997 0.96438 0.0
C845 C 0.38155 0.1914 0.95943 0.0
C846 C 0.35578 0.20407 0.96438 0.0
C847 C 0.36443 0.21713 0.97383 0.0
C848 C 0.49655 0.22086 1.01134 0.0
C849 C 0.37873 0.14732 0.016 0.0
C850 C 0.46281 0.24121 0.04453 0.0
Eu851 Eu 0.44163 0.23692 0.02665 0.0
C852 C 0.47254 0.26603 0.05348 0.0
C853 C 0.45198 0.28903 0.05605 0.0
C854 C 0.46031 0.30987 0.06485 0.0
C855 C 0.48921 0.308 0.07131 0.0
C856 C 0.51003 0.28534 0.0686 0.0
C857 C 0.50181 0.26472 0.05982 0.0
C858 C 0.38468 0.26103 0.02008 0.0
C859 C 0.50806 0.32289 1.01503 0.0
O860 O 0.38506 0.22586 0.99493 0.0
O861 O 0.45172 0.25368 0.99059 0.0
O862 O 0.49772 0.23919 1.0034 0.0
O863 O 0.46059 0.2075 1.01525 0.0
O864 O 0.3813 0.17151 1.00873 0.0
O865 O 0.40397 0.16466 0.02347 0.0
O866 O 0.49068 0.2571 0.03769 0.0
O867 O 0.42337 0.22172 0.04145 0.0
O868 O 0.37912 0.23869 0.02763 0.0
O869 O 0.42098 0.27176 0.01674 0.0
O870 O 0.50254 0.29924 0.02263 0.0
O871 O 0.47918 0.30873 1.00824 0.0
H872 H 0.4502 0.20309 0.97731 0.0
H873 H 0.43485 0.17973 0.96087 0.0
H874 H 0.33024 0.20608 0.96082 0.0
H875 H 0.34535 0.22876 0.97728 0.0
H876 H 0.42913 0.29047 0.05132 0.0
H877 H 0.44338 0.32669 0.06668 0.0
H878 H 0.53303 0.2837 0.07324 0.0
H879 H 0.51808 0.2472 0.05801 0.0
C880 C 0.78135 0.17373 0.98758 0.0
Eu881 Eu 0.78378 0.19971 1.00488 0.0
C882 C 0.80326 0.1785 0.97848 0.0
C883 C 0.82596 0.21828 0.97387 0.0
C884 C 0.83974 0.22035 0.96453 0.0
C885 C 0.83068 0.18267 0.95963 0.0
C886 C 0.80991 0.14333 0.96445 0.0
C887 C 0.79638 0.14131 0.97377 0.0
C888 C 0.80141 0.27887 1.01063 0.0
C889 C 0.87636 0.23568 1.01514 0.0
C890 C 0.78419 0.2264 0.04388 0.0
Eu891 Eu 0.78757 0.20911 0.026 0.0
C892 C 0.75827 0.21295 0.05271 0.0
C893 C 0.74922 0.17529 0.0576 0.0
C894 C 0.72839 0.16581 0.0664 0.0
C895 C 0.71613 0.19374 0.07053 0.0
C896 C 0.72496 0.23115 0.06554 0.0
C897 C 0.74574 0.24059 0.05679 0.0
C898 C 0.76277 0.12771 0.0195 0.0
C899 C 0.70008 0.18829 1.01471 0.0
O900 O 0.79131 0.15763 0.99479 0.0
O901 O 0.77211 0.20333 0.98997 0.0
O902 O 0.78111 0.26044 1.00294 0.0
O903 O 0.81583 0.25694 1.01449 0.0
O904 O 0.85149 0.21384 1.00796 0.0
O905 O 0.8596 0.24335 0.02273 0.0
O906 O 0.77158 0.24166 0.037 0.0
O907 O 0.80084 0.20359 0.04083 0.0
O908 O 0.78679 0.14498 0.02682 0.0
O909 O 0.75152 0.1532 0.01634 0.0
O910 O 0.72409 0.2065 0.02227 0.0
O911 O 0.71416 0.17394 1.00783 0.0
H912 H 0.83155 0.24748 0.97733 0.0
H913 H 0.8556 0.25112 0.96099 0.0
H914 H 0.80309 0.11383 0.96093 0.0
H915 H 0.77881 0.11028 0.97716 0.0
H916 H 0.75872 0.15339 0.05472 0.0
H917 H 0.7218 0.1365 0.06995 0.0
H918 H 0.71683 0.25392 0.06851 0.0
H919 H 0.75292 0.27022 0.0533 0.0
C920 C 0.83645 0.60418 0.98603 0.0
Eu921 Eu 0.82048 0.58662 1.00398 0.0
C922 C 0.84103 0.62849 0.97718 0.0
C923 C 0.80514 0.61825 0.97148 0.0
C924 C 0.81008 0.63476 0.96231 0.0
C925 C 0.85105 0.66191 0.95856 0.0
C926 C 0.88684 0.67346 0.9644 0.0
C927 C 0.88189 0.65684 0.97356 0.0
C928 C 0.74635 0.5221 1.01134 0.0
C929 C 0.79011 0.64497 0.01558 0.0
C930 C 0.79245 0.55748 0.04413 0.0
Eu931 Eu 0.81541 0.5801 0.02658 0.0
C932 C 0.807 0.55026 0.05343 0.0
C933 C 0.85008 0.57289 0.05629 0.0
C934 C 0.86228 0.56569 0.06525 0.0
C935 C 0.83172 0.53575 0.07157 0.0
C936 C 0.78868 0.51313 0.0686 0.0
C937 C 0.77659 0.5203 0.05967 0.0
C938 C 0.89865 0.63354 0.02064 0.0
C939 C 0.83583 0.51598 1.01392 0.0
O940 O 0.86642 0.61971 0.99252 0.0
O941 O 0.79815 0.57966 0.98949 0.0
O942 O 0.76295 0.52005 1.00338 0.0
O943 O 0.76803 0.55932 1.01484 0.0
O944 O 0.80763 0.64022 1.00779 0.0
O945 O 0.78558 0.62231 0.02337 0.0
O946 O 0.78637 0.53017 0.03735 0.0
O947 O 0.80911 0.59704 0.04107 0.0
O948 O 0.88709 0.62605 0.02939 0.0
O949 O 0.86533 0.61298 0.01577 0.0
O950 O 0.81906 0.52114 0.02182 0.0
O951 O 0.8475 0.54347 1.00684 0.0
H952 H 0.77315 0.59607 0.97395 0.0
H953 H 0.78173 0.62559 0.9581 0.0
H954 H 0.91894 0.69384 0.96176 0.0
H955 H 0.91027 0.66475 0.97766 0.0
H956 H 0.87424 0.59624 0.05163 0.0
H957 H 0.89565 0.58408 0.06726 0.0
H958 H 0.76422 0.48931 0.07313 0.0
H959 H 0.74318 0.50233 0.05764 0.0
C960 C 0.45394 0.88679 0.87841 0.0
Eu961 Eu 0.45889 0.91288 0.86086 0.0
C962 C 0.43001 0.87788 0.88754 0.0
C963 C 0.43029 0.91063 0.89307 0.0
C964 C 0.41072 0.90165 0.90204 0.0
C965 C 0.39035 0.85967 0.90575 0.0
C966 C 0.39011 0.82708 0.90015 0.0
C967 C 0.40959 0.83606 0.89123 0.0
C968 C 0.43943 0.9754 0.85581 0.0
C969 C 0.37335 0.84931 0.84853 0.0
C970 C 0.45093 0.95788 0.8228 0.0
Eu971 Eu 0.45768 0.92827 0.83917 0.0
C972 C 0.46884 0.96975 0.81307 0.0
C973 C 0.44959 0.94057 0.80558 0.0
C974 C 0.46185 0.95313 0.79621 0.0
C975 C 0.49354 0.99538 0.79403 0.0
C976 C 0.51389 0.02415 0.80156 0.0
C977 C 0.50161 0.01157 0.81095 0.0
C978 C 0.4872 0.87182 0.84202 0.0
C979 C 0.54764 0.97616 0.85022 0.0
O980 O 0.43523 0.86093 0.87129 0.0
O981 O 0.47782 0.92658 0.8757 0.0
O982 O 0.46115 0.97647 0.86318 0.0
O983 O 0.42704 0.94014 0.85163 0.0
O984 O 0.39401 0.85607 0.85666 0.0
O985 O 0.3897 0.87593 0.84133 0.0
O986 O 0.47259 0.9827 0.82991 0.0
O987 O 0.43077 0.91712 0.82502 0.0
O988 O 0.48376 0.88586 0.83383 0.0
O989 O 0.47623 0.88968 0.84821 0.0
O990 O 0.5233 0.98048 0.84382 0.0
O991 O 0.53024 0.94656 0.85694 0.0
H992 H 0.44602 0.94336 0.89053 0.0
H993 H 0.41137 0.92764 0.90603 0.0
H994 H 0.37566 0.79451 0.90275 0.0
H995 H 0.40943 0.81019 0.88727 0.0
H996 H 0.42379 0.90829 0.80692 0.0
H997 H 0.44497 0.93016 0.79065 0.0
H998 H 0.53886 0.05678 0.80021 0.0
H999 H 0.51695 0.03506 0.8165 0.0
C1000 C 0.12916 0.55995 0.87828 0.0
Eu1001 Eu 0.10793 0.54505 0.86041 0.0
C1002 C 0.13632 0.54271 0.88718 0.0
C1003 C 0.10806 0.50083 0.89032 0.0
C1004 C 0.11347 0.4872 0.89925 0.0
C1005 C 0.1472 0.51514 0.90525 0.0
C1006 C 0.17589 0.5567 0.90195 0.0
C1007 C 0.17048 0.57023 0.89304 0.0
C1008 C 0.04947 0.46525 0.8535 0.0
C1009 C 0.17214 0.52303 0.84865 0.0
C1010 C 0.0762 0.51552 0.82173 0.0
Eu1011 Eu 0.10132 0.53929 0.83911 0.0
C1012 C 0.05787 0.51972 0.81265 0.0
C1013 C 0.08078 0.55511 0.80665 0.0
C1014 C 0.06648 0.55481 0.79741 0.0
C1015 C 0.02905 0.51906 0.79393 0.0
C1016 C 1.00545 0.48443 0.8001 0.0
C1017 C 0.01972 0.48477 0.80931 0.0
C1018 C 0.1658 0.61574 0.84536 0.0
C1019 C 0.04972 0.57904 0.85041 0.0
O1020 O 0.15706 0.57003 0.87148 0.0
O1021 O 0.08994 0.54335 0.87515 0.0
O1022 O 0.04446 0.48153 0.86121 0.0
O1023 O 0.08578 0.49065 0.85019 0.0
O1024 O 0.16685 0.54062 0.85636 0.0
O1025 O 0.14491 0.51185 0.84153 0.0
O1026 O 0.05107 0.4984 0.82904 0.0
O1027 O 0.11495 0.5452 0.82406 0.0
O1028 O 0.16609 0.59811 0.8374 0.0
O1029 O 0.12941 0.5948 0.84922 0.0
O1030 O 0.05151 0.55901 0.84271 0.0
O1031 O 0.07342 0.58266 0.85787 0.0
H1032 H 0.08139 0.47888 0.88595 0.0
H1033 H 0.09106 0.45479 0.90146 0.0
H1034 H 0.20184 0.57944 0.90636 0.0
H1035 H 0.19246 0.6028 0.89083 0.0
H1036 H 0.11051 0.58248 0.80896 0.0
H1037 H 0.08521 0.58234 0.79295 0.0
H1038 H 0.97685 0.45604 0.79768 0.0
H1039 H 1.00177 0.4567 0.81369 0.0
C1040 C 0.4668 0.55502 0.87885 0.0
Eu1041 Eu 0.47946 0.56701 0.86058 0.0
C1042 C 0.47978 0.579 0.88798 0.0
C1043 C 0.52287 0.60766 0.89023 0.0
C1044 C 0.53425 0.6282 0.89907 0.0
C1045 C 0.50292 0.62075 0.90594 0.0
C1046 C 0.45978 0.59225 0.90361 0.0
C1047 C 0.44845 0.57172 0.89477 0.0
C1048 C 0.56011 0.60384 0.85309 0.0
C1049 C 0.49607 0.65628 0.85167 0.0
C1050 C 0.5037 0.59049 0.82134 0.0
Eu1051 Eu 0.48272 0.57343 0.83919 0.0
C1052 C 0.50177 0.57141 0.81187 0.0
C1053 C 0.47922 0.57762 0.80452 0.0
C1054 C 0.48062 0.56429 0.79529 0.0
C1055 C 0.50487 0.54451 0.7931 0.0
C1056 C 0.52664 0.53736 0.80053 0.0
C1057 C 0.5252 0.5507 0.80978 0.0
C1058 C 0.40285 0.54262 0.84663 0.0
C1059 C 0.44875 0.47972 0.84769 0.0
O1060 O 0.44216 0.56206 0.87323 0.0
O1061 O 0.49552 0.55022 0.87421 0.0
O1062 O 0.55001 0.61618 0.86077 0.0
O1063 O 0.52729 0.57138 0.84976 0.0
O1064 O 0.48193 0.63094 0.85914 0.0
O1065 O 0.50407 0.64262 0.84363 0.0
O1066 O 0.52889 0.58884 0.82778 0.0
O1067 O 0.46816 0.58574 0.82491 0.0
O1068 O 0.41052 0.52959 0.83869 0.0
O1069 O 0.4374 0.57235 0.84997 0.0
O1070 O 0.46854 0.50528 0.84048 0.0
O1071 O 0.44527 0.49574 0.8559 0.0
H1072 H 0.54791 0.61396 0.88519 0.0
H1073 H 0.56785 0.64941 0.90058 0.0
H1074 H 0.43454 0.58603 0.90858 0.0
H1075 H 0.41498 0.5498 0.89326 0.0
H1076 H 0.46114 0.59375 0.80587 0.0
H1077 H 0.46281 0.56976 0.78985 0.0
H1078 H 0.54603 0.52268 0.79916 0.0
H1079 H 0.54331 0.5457 0.81523 0.0
C1080 C 0.57125 0.77667 0.98657 0.0
Eu1081 Eu 0.5902 0.78165 1.00465 0.0
C1082 C 0.56082 0.75025 0.97775 0.0
C1083 C 0.59293 0.75737 0.97115 0.0
C1084 C 0.5826 0.73613 0.96238 0.0
C1085 C 0.53976 0.70722 0.9599 0.0
C1086 C 0.50772 0.69989 0.96655 0.0
C1087 C 0.51805 0.72112 0.9753 0.0
C1088 C 0.64591 0.75717 1.01172 0.0
C1089 C 0.52199 0.69493 0.01593 0.0
C1090 C 0.61528 0.77654 0.04357 0.0
Eu1091 Eu 0.59405 0.77904 0.02602 0.0
C1092 C 0.63481 0.79551 0.05287 0.0
C1093 C 0.61457 0.8096 0.05929 0.0
C1094 C 0.62828 0.81852 0.06873 0.0
C1095 C 0.66218 0.81304 0.07198 0.0
C1096 C 0.68387 0.8014 0.0654 0.0
C1097 C 0.67032 0.79269 0.05599 0.0
C1098 C 0.53275 0.79553 0.01955 0.0
C1099 C 0.65165 0.87076 0.01548 0.0
O1100 O 0.54284 0.76359 0.99333 0.0
O1101 O 0.61036 0.79504 0.98985 0.0
O1102 O 0.65312 0.78061 1.00428 0.0
O1103 O 0.60912 0.7462 1.01476 0.0
O1104 O 0.52951 0.71862 1.00825 0.0
O1105 O 0.54836 0.70925 0.02321 0.0
O1106 O 0.63973 0.77999 0.0364 0.0
O1107 O 0.5795 0.77475 0.04104 0.0
O1108 O 0.53023 0.77566 0.02735 0.0
O1109 O 0.56958 0.81023 0.01594 0.0
O1110 O 0.64828 0.84646 0.02281 0.0
O1111 O 0.62736 0.85365 1.00789 0.0
H1112 H 0.62617 0.78004 0.97269 0.0
H1113 H 0.60832 0.74241 0.95755 0.0
H1114 H 0.4743 0.67855 0.96491 0.0
H1115 H 0.49227 0.7154 0.98007 0.0
H1116 H 0.58682 0.81173 0.05716 0.0
H1117 H 0.61075 0.82726 0.0736 0.0
H1118 H 0.71051 0.7975 0.0676 0.0
H1119 H 0.68638 0.78154 0.05127 0.0
C1120 C 0.24702 0.79213 0.9874 0.0
Eu1121 Eu 0.24317 0.80848 1.0054 0.0
C1122 C 0.27112 0.80711 0.97833 0.0
C1123 C 0.28906 0.8497 0.97516 0.0
C1124 C 0.30821 0.86166 0.96618 0.0
C1125 C 0.30973 0.83133 0.96008 0.0
C1126 C 0.2922 0.78889 0.96337 0.0
C1127 C 0.27327 0.77704 0.97234 0.0
C1128 C 0.26784 0.89017 1.01182 0.0
C1129 C 0.33048 0.82973 0.01661 0.0
C1130 C 0.24836 0.84321 0.04386 0.0
Eu1131 Eu 0.24678 0.81809 0.02643 0.0
C1132 C 0.22751 0.83671 0.05323 0.0
C1133 C 0.21225 0.79807 0.05824 0.0
C1134 C 0.20051 0.79548 0.06776 0.0
C1135 C 0.20387 0.83148 0.07253 0.0
C1136 C 0.21699 0.86937 0.06733 0.0
C1137 C 0.22872 0.87192 0.05782 0.0
C1138 C 0.22965 0.73842 0.02094 0.0
C1139 C 0.15419 0.78123 0.01606 0.0
O1140 O 0.26281 0.77951 0.99418 0.0
O1141 O 0.2277 0.81211 0.99063 0.0
O1142 O 0.24387 0.87267 1.00451 0.0
O1143 O 0.27905 0.86479 1.01504 0.0
O1144 O 0.30613 0.81053 1.00917 0.0
O1145 O 0.31659 0.84479 0.02339 0.0
O1146 O 0.23532 0.8571 0.03676 0.0
O1147 O 0.26106 0.81645 0.04126 0.0
O1148 O 0.25057 0.7583 0.02845 0.0
O1149 O 0.21464 0.75975 0.01697 0.0
O1150 O 0.17891 0.80343 0.02322 0.0
O1151 O 0.17119 0.77348 1.00854 0.0
H1152 H 0.28768 0.87363 0.97955 0.0
H1153 H 0.32093 0.89456 0.96393 0.0
H1154 H 0.29323 0.76466 0.95903 0.0
H1155 H 0.25956 0.74394 0.97455 0.0
H1156 H 0.21094 0.7703 0.05492 0.0
H1157 H 0.18983 0.76551 0.07146 0.0
H1158 H 0.22045 0.8979 0.07073 0.0
H1159 H 0.24081 0.90224 0.05417 0.0
C1160 C 0.23903 0.44937 0.98543 0.0
Eu1161 Eu 0.21498 0.43327 1.00304 0.0
C1162 C 0.22696 0.45831 0.976 0.0
C1163 C 0.19328 0.42644 0.9706 0.0
C1164 C 0.18544 0.43524 0.96137 0.0
C1165 C 0.21132 0.47595 0.95731 0.0
C1166 C 0.24418 0.50794 0.96284 0.0
C1167 C 0.25194 0.4992 0.97202 0.0
C1168 C 0.13168 0.38243 1.00927 0.0
C1169 C 0.19423 0.50395 1.0128 0.0
C1170 C 0.19247 0.42714 0.04352 0.0
Eu1171 Eu 0.20951 0.43849 0.02549 0.0
C1172 C 0.18584 0.40262 0.05241 0.0
C1173 C 0.22029 0.41354 0.05862 0.0
C1174 C 0.21315 0.3973 0.06784 0.0
C1175 C 0.17133 0.36992 0.07111 0.0
C1176 C 0.13713 0.35711 0.06471 0.0
C1177 C 0.14426 0.37339 0.05551 0.0
C1178 C 0.28293 0.49978 0.01737 0.0
C1179 C 0.24215 0.37595 0.01616 0.0
O1180 O 0.24977 0.47906 0.99189 0.0
O1181 O 0.21775 0.41037 0.98888 0.0
O1182 O 0.14336 0.38551 1.00053 0.0
O1183 O 0.16491 0.40569 1.01397 0.0
O1184 O 0.20883 0.49251 1.00541 0.0
O1185 O 0.18549 0.48318 0.02096 0.0
O1186 O 0.16275 0.41216 0.03697 0.0
O1187 O 0.23124 0.44875 0.04007 0.0
O1188 O 0.26619 0.50541 0.02496 0.0
O1189 O 0.26205 0.46082 1.01484 0.0
O1190 O 0.22534 0.38487 0.02358 0.0
O1191 O 0.24484 0.39336 1.00774 0.0
H1192 H 0.17354 0.39449 0.97341 0.0
H1193 H 0.16004 0.40973 0.95731 0.0
H1194 H 0.26432 0.53987 0.96005 0.0
H1195 H 0.27823 0.5244 0.97596 0.0
H1196 H 0.25272 0.43646 0.05654 0.0
H1197 H 0.24027 0.4082 0.07256 0.0
H1198 H 0.10454 0.33548 0.06692 0.0
H1199 H 0.11693 0.36456 0.05096 0.0
C1200 C 0.2323 0.40313 0.5425 0.0
Eu1201 Eu 0.23478 0.42846 0.5251 0.0
C1202 C 0.21061 0.38842 0.5518 0.0
C1203 C 0.2133 0.41831 0.55858 0.0
C1204 C 0.20068 0.40583 0.56793 0.0
C1205 C 0.18511 0.36311 0.5708 0.0
C1206 C 0.18056 0.33285 0.5639 0.0
C1207 C 0.19334 0.34538 0.55455 0.0
C1208 C 0.22212 0.4927 0.51891 0.0
C1209 C 0.14478 0.37715 0.51326 0.0
C1210 C 0.24522 0.45931 0.48605 0.0
Eu1211 Eu 0.23784 0.43638 0.5038 0.0
C1212 C 0.26989 0.4713 0.47708 0.0
C1213 C 0.27736 0.44217 0.47194 0.0
C1214 C 0.29474 0.45238 0.46279 0.0
C1215 C 0.30456 0.4917 0.45858 0.0
C1216 C 0.29864 0.52133 0.46392 0.0
C1217 C 0.28151 0.51124 0.47303 0.0
C1218 C 0.25904 0.37761 0.51078 0.0
C1219 C 0.32265 0.49967 0.51597 0.0
O1220 O 0.21989 0.37678 0.53528 0.0
O1221 O 0.24637 0.443 0.54004 0.0
O1222 O 0.2386 0.49249 0.52703 0.0
O1223 O 0.20811 0.45674 0.51488 0.0
O1224 O 0.16565 0.37867 0.52111 0.0
O1225 O 0.16569 0.40111 0.5059 0.0
O1226 O 0.25927 0.4866 0.49306 0.0
O1227 O 0.22635 0.41939 0.48886 0.0
O1228 O 0.23831 0.37287 0.503 0.0
O1229 O 0.26929 0.41381 0.51415 0.0
O1230 O 0.30063 0.49496 0.50816 0.0
O1231 O 0.30593 0.47182 0.52295 0.0
H1232 H 0.22706 0.45189 0.55679 0.0
H1233 H 0.20518 0.43025 0.57301 0.0
H1234 H 0.16802 0.29951 0.56578 0.0
H1235 H 0.19129 0.32161 0.54956 0.0
H1236 H 0.26846 0.41096 0.47483 0.0
H1237 H 0.29871 0.42871 0.45888 0.0
H1238 H 0.30647 0.55219 0.46098 0.0
H1239 H 0.27586 0.53422 0.47678 0.0
C1240 C 0.60541 0.83568 0.54268 0.0
Eu1241 Eu 0.59148 0.8097 0.52512 0.0
C1242 C 0.62077 0.8317 0.55212 0.0
C1243 C 0.60583 0.79194 0.55664 0.0
C1244 C 0.61756 0.79019 0.56602 0.0
C1245 C 0.64408 0.82815 0.57106 0.0
C1246 C 0.66007 0.86765 0.56637 0.0
C1247 C 0.64855 0.86935 0.55703 0.0
C1248 C 0.53478 0.72958 0.51867 0.0
C1249 C 0.63733 0.76478 0.51507 0.0
C1250 C 0.57356 0.78793 0.48552 0.0
Eu1251 Eu 0.58276 0.80349 0.50374 0.0
C1252 C 0.56383 0.80224 0.47641 0.0
C1253 C 0.59159 0.84275 0.47248 0.0
C1254 C 0.58368 0.85378 0.46348 0.0
C1255 C 0.54784 0.82465 0.45812 0.0
C1256 C 0.51971 0.78449 0.46217 0.0
C1257 C 0.52767 0.77347 0.47115 0.0
C1258 C 0.63285 0.88522 0.51039 0.0
C1259 C 0.51935 0.826 0.51509 0.0
O1260 O 0.63373 0.85367 0.53598 0.0
O1261 O 0.56892 0.80434 0.53961 0.0
O1262 O 0.55761 0.73685 0.52627 0.0
O1263 O 0.54076 0.76461 0.51534 0.0
O1264 O 0.6378 0.78627 0.52265 0.0
O1265 O 0.61576 0.76386 0.50734 0.0
O1266 O 0.54248 0.76872 0.49162 0.0
O1267 O 0.61041 0.81277 0.48961 0.0
O1268 O 0.60708 0.87472 0.50327 0.0
O1269 O 0.63276 0.85208 0.51353 0.0
O1270 O 0.52379 0.80875 0.50721 0.0
O1271 O 0.54708 0.83622 0.5221 0.0
H1272 H 0.5843 0.76236 0.55302 0.0
H1273 H 0.60459 0.75926 0.56943 0.0
H1274 H 0.68114 0.89743 0.56997 0.0
H1275 H 0.66049 0.90038 0.55371 0.0
H1276 H 0.61984 0.86578 0.47629 0.0
H1277 H 0.60583 0.88524 0.46071 0.0
H1278 H 0.49213 0.76085 0.45827 0.0
H1279 H 0.50592 0.74183 0.4739 0.0
C1280 C 0.17338 0.77863 0.54129 0.0
Eu1281 Eu 0.20504 0.78226 0.52451 0.0
C1282 C 0.17688 0.80002 0.55047 0.0
C1283 C 0.2142 0.81724 0.55602 0.0
C1284 C 0.21428 0.83164 0.56524 0.0
C1285 C 0.17705 0.82907 0.56911 0.0
C1286 C 0.14024 0.81295 0.5634 0.0
C1287 C 0.14021 0.79865 0.55421 0.0
C1288 C 0.28463 0.79783 0.51943 0.0
C1289 C 0.24457 0.87546 0.51407 0.0
C1290 C 0.25262 0.7906 0.48537 0.0
Eu1291 Eu 0.22278 0.78732 0.50233 0.0
C1292 C 0.2368 0.7699 0.47604 0.0
C1293 C 0.194 0.75364 0.47328 0.0
C1294 C 0.17985 0.73441 0.46439 0.0
C1295 C 0.20811 0.73088 0.45805 0.0
C1296 C 0.25094 0.74715 0.4609 0.0
C1297 C 0.26504 0.76638 0.46978 0.0
C1298 C 0.13649 0.75493 0.50575 0.0
C1299 C 0.19528 0.69984 0.51416 0.0
O1300 O 0.16183 0.79179 0.53381 0.0
O1301 O 0.20119 0.76633 0.5394 0.0
O1302 O 0.26585 0.77965 0.52729 0.0
O1303 O 0.26282 0.81132 0.5152 0.0
O1304 O 0.22631 0.85195 0.52167 0.0
O1305 O 0.24976 0.85858 0.50612 0.0
O1306 O 0.25405 0.76638 0.49211 0.0
O1307 O 0.23901 0.81626 0.48835 0.0
O1308 O 0.15373 0.76218 0.49747 0.0
O1309 O 0.16633 0.76607 0.51163 0.0
O1310 O 0.2189 0.72483 0.50715 0.0
O1311 O 0.17724 0.71311 0.52042 0.0
H1312 H 0.24298 0.81859 0.55334 0.0
H1313 H 0.24339 0.84436 0.56936 0.0
H1314 H 0.11073 0.80971 0.56613 0.0
H1315 H 0.11086 0.78498 0.55014 0.0
H1316 H 0.17151 0.75591 0.47797 0.0
H1317 H 0.14679 0.72276 0.46244 0.0
H1318 H 0.27354 0.74447 0.45632 0.0
H1319 H 0.29814 0.77848 0.47177 0.0
C1320 C 0.08249 0.56911 0.322 0.0
Eu1321 Eu 0.10533 0.56567 0.33938 0.0
C1322 C 0.06358 0.55227 0.31253 0.0
C1323 C 0.08079 0.53407 0.30634 0.0
C1324 C 0.06811 0.52653 0.29681 0.0
C1325 C 0.03839 0.53757 0.29323 0.0
C1326 C 0.01965 0.55359 0.29957 0.0
C1327 C 0.03208 0.56082 0.30906 0.0
C1328 C 0.16605 0.5487 0.34561 0.0
C1329 C 0.04917 0.47183 0.35016 0.0
C1330 C 0.12537 0.56715 0.37867 0.0
Eu1331 Eu 0.10756 0.56266 0.36059 0.0
C1332 C 0.13886 0.59504 0.38723 0.0
C1333 C 0.10902 0.59938 0.39286 0.0
C1334 C 0.12147 0.62186 0.40145 0.0
C1335 C 0.16404 0.64048 0.40468 0.0
C1336 C 0.19385 0.63644 0.39897 0.0
C1337 C 0.18142 0.61399 0.39041 0.0
C1338 C 0.05367 0.58944 0.3533 0.0
C1339 C 0.18014 0.64877 0.35004 0.0
O1340 O 0.05796 0.56392 0.32929 0.0
O1341 O 0.11886 0.57169 0.32431 0.0
O1342 O 0.16839 0.56846 0.33778 0.0
O1343 O 0.12946 0.53429 0.3494 0.0
O1344 O 0.05425 0.49467 0.34237 0.0
O1345 O 0.07044 0.49102 0.35794 0.0
O1346 O 0.15355 0.57633 0.37197 0.0
O1347 O 0.08673 0.5528 0.37534 0.0
O1348 O 0.04503 0.5648 0.36058 0.0
O1349 O 0.09061 0.59965 0.35045 0.0
O1350 O 0.16888 0.6247 0.35769 0.0
O1351 O 0.15655 0.63536 0.34225 0.0
H1352 H 0.10542 0.5274 0.30874 0.0
H1353 H 0.08332 0.51431 0.29213 0.0
H1354 H 0.99624 0.56189 0.29711 0.0
H1355 H 0.01848 0.57519 0.31361 0.0
H1356 H 0.07582 0.58476 0.39071 0.0
H1357 H 0.09766 0.62461 0.40557 0.0
H1358 H 0.22672 0.64957 0.40125 0.0
H1359 H 0.20508 0.61056 0.38638 0.0
C1360 C 0.46009 0.50845 0.32222 0.0
Eu1361 Eu 0.45941 0.53827 0.33905 0.0
C1362 C 0.47909 0.51515 0.31265 0.0
C1363 C 0.49442 0.55415 0.3078 0.0
C1364 C 0.50541 0.55719 0.2982 0.0
C1365 C 0.50105 0.52123 0.29321 0.0
C1366 C 0.48736 0.4828 0.29825 0.0
C1367 C 0.47657 0.47988 0.30782 0.0
C1368 C 0.46843 0.61546 0.34426 0.0
C1369 C 0.55016 0.58303 0.35075 0.0
C1370 C 0.45735 0.57863 0.37832 0.0
Eu1371 Eu 0.4573 0.55132 0.36124 0.0
C1372 C 0.43776 0.56265 0.38772 0.0
C1373 C 0.43078 0.52324 0.39131 0.0
C1374 C 0.41462 0.5102 0.40046 0.0
C1375 C 0.40494 0.5362 0.40623 0.0
C1376 C 0.41134 0.57529 0.40251 0.0
C1377 C 0.42755 0.5883 0.39338 0.0
C1378 C 0.42914 0.46584 0.35722 0.0
C1379 C 0.37268 0.52288 0.34872 0.0
O1380 O 0.48018 0.50393 0.32945 0.0
O1381 O 0.43963 0.52884 0.32435 0.0
O1382 O 0.45449 0.59772 0.33606 0.0
O1383 O 0.48221 0.59444 0.34877 0.0
O1384 O 0.5302 0.56597 0.34266 0.0
O1385 O 0.52911 0.58297 0.35846 0.0
O1386 O 0.43234 0.57855 0.37158 0.0
O1387 O 0.48483 0.56741 0.37533 0.0
O1388 O 0.43369 0.48174 0.3656 0.0
O1389 O 0.4411 0.49657 0.35152 0.0
O1390 O 0.39531 0.54567 0.35605 0.0
O1391 O 0.38882 0.5079 0.34235 0.0
H1392 H 0.4966 0.58189 0.31133 0.0
H1393 H 0.51653 0.58757 0.29466 0.0
H1394 H 0.48295 0.45421 0.2947 0.0
H1395 H 0.46434 0.44929 0.31136 0.0
H1396 H 0.4382 0.50269 0.38708 0.0
H1397 H 0.40959 0.47965 0.403 0.0
H1398 H 0.40488 0.5965 0.40675 0.0
H1399 H 0.43282 0.6189 0.3908 0.0
C1400 C 0.52518 0.96509 0.3235 0.0
Eu1401 Eu 0.48563 0.93059 0.33926 0.0
C1402 C 0.51782 0.97476 0.31375 0.0
C1403 C 0.48279 0.94494 0.30835 0.0
C1404 C 0.47945 0.95265 0.29877 0.0
C1405 C 0.51105 0.99032 0.29438 0.0
C1406 C 0.54516 0.02075 0.29992 0.0
C1407 C 0.54851 0.01299 0.30948 0.0
C1408 C 0.40198 0.86894 0.34193 0.0
C1409 C 0.43626 0.97126 0.35116 0.0
C1410 C 0.43734 0.87744 0.37842 0.0
Eu1411 Eu 0.46682 0.90798 0.36163 0.0
C1412 C 0.45072 0.86993 0.38786 0.0
C1413 C 0.48709 0.90158 0.39264 0.0
C1414 C 0.49688 0.89413 0.40183 0.0
C1415 C 0.47045 0.85495 0.40648 0.0
C1416 C 0.4348 0.82309 0.40152 0.0
C1417 C 0.42511 0.83052 0.39238 0.0
C1418 C 0.55322 0.96611 0.35819 0.0
C1419 C 0.48948 0.84842 0.34814 0.0
O1420 O 0.52195 0.98756 0.33043 0.0
O1421 O 0.50967 0.92459 0.32565 0.0
O1422 O 0.41863 0.8852 0.33377 0.0
O1423 O 0.43062 0.88751 0.34818 0.0
O1424 O 0.45928 0.97417 0.34356 0.0
O1425 O 0.4325 0.94619 0.35846 0.0
O1426 O 0.43726 0.85371 0.37138 0.0
O1427 O 0.44997 0.91711 0.3759 0.0
O1428 O 0.53656 0.95241 0.36643 0.0
O1429 O 0.52257 0.94866 0.35244 0.0
O1430 O 0.47225 0.85152 0.35615 0.0
O1431 O 0.50271 0.8782 0.34144 0.0
H1432 H 0.45863 0.91511 0.31146 0.0
H1433 H 0.45289 0.92833 0.29474 0.0
H1434 H 0.56964 0.05049 0.29685 0.0
H1435 H 0.57579 0.03647 0.31349 0.0
H1436 H 0.50757 0.93232 0.38935 0.0
H1437 H 0.52446 0.91956 0.40539 0.0
H1438 H 0.41408 0.79221 0.40473 0.0
H1439 H 0.39699 0.80548 0.38887 0.0
H1440 H 0.14967 0.15211 0.19226 0.0
H1441 H 0.1759 0.16974 0.16246 0.0
H1442 H 0.1804 0.10425 0.16178 0.0
H1443 H 0.17472 0.03994 0.16958 0.0
H1444 H 0.15236 0.02509 0.19962 0.0
H1445 H 0.14944 0.09099 0.20025 0.0
C1446 C 0.15654 0.14163 0.18564 0.0
C1447 C 0.16225 0.16579 0.17744 0.0
C1448 C 0.16003 0.10418 0.18532 0.0
C1449 C 0.17153 0.15194 0.16891 0.0
C1450 C 0.17405 0.11433 0.1685 0.0
C1451 C 0.16972 0.05134 0.17628 0.0
C1452 C 0.16333 0.02681 0.1845 0.0
C1453 C 0.1682 0.08994 0.17666 0.0
C1454 C 0.15692 0.04256 0.19311 0.0
C1455 C 0.15516 0.08049 0.19351 0.0
H1456 H 0.98436 0.1284 0.1949 0.0
H1457 H 1.0015 0.1534 0.16497 0.0
H1458 H 0.937 0.08542 0.16177 0.0
H1459 H 0.87988 0.01591 0.16728 0.0
H1460 H 0.85909 0.99041 0.19704 0.0
H1461 H 0.92042 0.06168 0.20053 0.0
C1462 C 0.9736 0.11919 0.18769 0.0
C1463 C 0.99813 0.1459 0.18018 0.0
C1464 C 0.93594 0.0799 0.18587 0.0
C1465 C 0.98343 0.13367 0.17089 0.0
C1466 C 0.94656 0.09461 0.16903 0.0
C1467 C 0.88835 0.02626 0.17454 0.0
C1468 C 0.86538 0.99796 0.18191 0.0
C1469 C 0.92321 0.06709 0.17644 0.0
C1470 C 0.87629 0.01178 0.19127 0.0
C1471 C 0.91153 0.05237 0.19325 0.0
H1472 H 0.03474 0.89742 0.1916 0.0
H1473 H 1.00304 0.82633 0.16551 0.0
H1474 H 0.9305 0.81457 0.1662 0.0
H1475 H 0.87768 0.82978 0.17331 0.0
H1476 H 0.90815 0.90206 0.19923 0.0
H1477 H 0.97866 0.90777 0.19952 0.0
C1478 C 1.01158 0.87859 0.1862 0.0
C1479 C 0.02436 0.8628 0.17851 0.0
C1480 C 0.96961 0.8726 0.18652 0.0
C1481 C 0.99412 0.83896 0.17149 0.0
C1482 C 0.95256 0.8323 0.17185 0.0
C1483 C 0.89948 0.84642 0.17909 0.0
C1484 C 0.8874 0.86564 0.18619 0.0
C1485 C 0.94021 0.84989 0.17919 0.0
C1486 C 0.91632 0.88688 0.19364 0.0
C1487 C 0.95687 0.8903 0.19381 0.0
H1488 H 0.15124 0.13471 0.34047 0.0
H1489 H 0.17115 0.17611 0.3695 0.0
H1490 H 0.10873 0.18529 0.36899 0.0
H1491 H 0.04521 0.17768 0.36069 0.0
H1492 H 0.025 0.13712 0.33158 0.0
H1493 H 0.08976 0.13184 0.33177 0.0
C1494 C 0.14215 0.14619 0.34663 0.0
C1495 C 0.16601 0.15441 0.35503 0.0
C1496 C 0.10556 0.1514 0.34633 0.0
C1497 C 0.15347 0.1692 0.36294 0.0
C1498 C 0.11756 0.17449 0.36268 0.0
C1499 C 0.05514 0.16818 0.35434 0.0
C1500 C 0.02966 0.15784 0.34615 0.0
C1501 C 0.09284 0.16509 0.35447 0.0
C1502 C 0.04358 0.14553 0.33802 0.0
C1503 C 0.0808 0.14228 0.33811 0.0
H1504 H 0.8941 0.90424 0.33775 0.0
H1505 H 0.80613 0.84335 0.36079 0.0
H1506 H 0.80095 0.90784 0.36316 0.0
H1507 H 0.82518 0.98373 0.35944 0.0
H1508 H 0.91436 0.04491 0.33666 0.0
H1509 H 0.91494 0.97853 0.33343 0.0
C1510 C 0.87334 0.9048 0.34321 0.0
C1511 C 0.8507 0.86876 0.34909 0.0
C1512 C 0.87086 0.94239 0.34464 0.0
C1513 C 0.82414 0.87046 0.35616 0.0
C1514 C 0.82117 0.90748 0.35755 0.0
C1515 C 0.84431 0.98234 0.3537 0.0
C1516 C 0.86965 0.0194 0.3483 0.0
C1517 C 0.84495 0.94396 0.35194 0.0
C1518 C 0.89433 0.01695 0.3409 0.0
C1519 C 0.89487 0.97895 0.33907 0.0
H1520 H 1.01063 0.88245 0.36596 0.0
H1521 H 0.99177 0.84634 0.33664 0.0
H1522 H 0.06212 0.90791 0.33283 0.0
H1523 H 0.12786 0.97454 0.33786 0.0
H1524 H 0.14807 1.00572 0.36751 0.0
H1525 H 0.07889 0.9435 0.37117 0.0
C1526 C 0.02207 0.88789 0.35874 0.0
C1527 C 0.99577 0.86028 0.35156 0.0
C1528 C 0.06295 0.92255 0.35667 0.0
C1529 C 1.01129 0.86731 0.34227 0.0
C1530 C 0.05151 0.90256 0.3401 0.0
C1531 C 0.11728 0.96739 0.34513 0.0
C1532 C 0.14323 0.99503 0.35239 0.0
C1533 C 0.07747 0.93079 0.34724 0.0
C1534 C 0.12909 0.98502 0.36178 0.0
C1535 C 0.0893 0.9495 0.36388 0.0
H1536 H 0.93888 0.90709 0.85941 0.0
H1537 H 0.84912 0.82992 0.83782 0.0
H1538 H 0.83371 0.88792 0.83449 0.0
H1539 H 0.84446 0.96066 0.8382 0.0
H1540 H 0.9324 0.03469 0.86037 0.0
H1541 H 0.9503 0.97841 0.8629 0.0
C1542 C 0.91605 0.90299 0.85395 0.0
C1543 C 0.89507 0.8643 0.8489 0.0
C1544 C 0.90707 0.9361 0.85217 0.0
C1545 C 0.86574 0.85952 0.8418 0.0
C1546 C 0.85686 0.89264 0.83991 0.0
C1547 C 0.86752 0.96421 0.84355 0.0
C1548 C 0.8869 1.00146 0.84916 0.0
C1549 C 0.87708 0.93105 0.84512 0.0
C1550 C 0.91676 1.00598 0.85607 0.0
C1551 C 0.92708 0.97389 0.85751 0.0
H1552 H 0.15327 0.99683 0.86252 0.0
H1553 H 0.16262 0.04062 0.83393 0.0
H1554 H 0.10217 0.97067 0.82934 0.0
H1555 H 0.04344 0.89767 0.83382 0.0
H1556 H 0.03982 0.85366 0.86232 0.0
H1557 H 0.10119 0.92233 0.8665 0.0
C1558 C 0.1423 0.99095 0.85526 0.0
C1559 C 0.16207 0.02413 0.84859 0.0
C1560 C 0.10838 0.95032 0.85265 0.0
C1561 C 0.14792 0.01576 0.83919 0.0
C1562 C 0.11323 0.9757 0.83658 0.0
C1563 C 0.05648 0.9029 0.8409 0.0
C1564 C 0.03651 0.87017 0.84773 0.0
C1565 C 0.09273 0.94278 0.84329 0.0
C1566 C 0.05423 0.87777 0.85687 0.0
C1567 C 0.08936 0.91733 0.85931 0.0
H1568 H 0.02324 0.15227 0.86461 0.0
H1569 H 0.99385 0.14857 0.83508 0.0
H1570 H 0.06391 0.15675 0.83101 0.0
H1571 H 0.13174 0.15939 0.83606 0.0
H1572 H 0.16091 0.1679 0.86581 0.0
H1573 H 0.09318 0.1638 0.86955 0.0
C1574 C 0.0324 0.1539 0.85727 0.0
C1575 C 1.00325 0.14943 0.85015 0.0
C1576 C 0.07277 0.15924 0.85503 0.0
C1577 C 0.01572 0.15199 0.84068 0.0
C1578 C 0.05571 0.15641 0.83837 0.0
C1579 C 0.12346 0.16089 0.84335 0.0
C1580 C 0.15157 0.16371 0.85064 0.0
C1581 C 0.08425 0.1592 0.8455 0.0
C1582 C 0.1403 0.16593 0.86003 0.0
C1583 C 0.10133 0.16337 0.86221 0.0
H1584 H 0.86767 0.86102 0.66708 0.0
H1585 H 0.86588 0.89625 0.69602 0.0
H1586 H 0.92786 0.88722 0.69951 0.0
H1587 H 0.98616 0.87445 0.69381 0.0
H1588 H 0.98302 0.8352 0.66487 0.0
H1589 H 0.91934 0.84013 0.66195 0.0
C1590 C 0.88054 0.86618 0.67418 0.0
C1591 C 0.86266 0.8796 0.68127 0.0
C1592 C 0.91549 0.86034 0.67612 0.0
C1593 C 0.87918 0.88576 0.69047 0.0
C1594 C 0.91474 0.88083 0.69243 0.0
C1595 C 0.97119 0.86647 0.68691 0.0
C1596 C 0.98989 0.85488 0.67956 0.0
C1597 C 0.93375 0.8689 0.68525 0.0
C1598 C 0.96971 0.8443 0.67068 0.0
C1599 C 0.9332 0.84725 0.66897 0.0
H1600 H 0.1786 0.13961 0.66972 0.0
H1601 H 0.16022 0.13349 0.69987 0.0
H1602 H 0.15255 0.06208 0.70016 0.0
H1603 H 0.14305 0.99744 0.69155 0.0
H1604 H 0.15822 1.00392 0.66133 0.0
H1605 H 0.17558 0.07862 0.66141 0.0
C1606 C 0.17367 0.12313 0.6764 0.0
C1607 C 0.16975 0.14218 0.68473 0.0
C1608 C 0.16837 0.08157 0.6765 0.0
C1609 C 0.16332 0.11988 0.6933 0.0
C1610 C 0.15872 0.07877 0.69348 0.0
C1611 C 0.15113 0.01564 0.68504 0.0
C1612 C 0.1493 0.99514 0.67645 0.0
C1613 C 0.16004 0.05872 0.68509 0.0
C1614 C 0.15923 0.0189 0.66804 0.0
C1615 C 0.16908 0.06167 0.66807 0.0
H1616 H 0.90872 0.02872 0.6928 0.0
H1617 H 0.85435 0.04912 0.66754 0.0
H1618 H 0.91957 0.11755 0.66496 0.0
H1619 H 0.99402 0.16977 0.66928 0.0
H1620 H 0.04971 0.1477 0.69405 0.0
H1621 H 0.9822 0.08259 0.69748 0.0
C1622 C 0.91088 0.04834 0.68679 0.0
C1623 C 0.87645 0.03348 0.68037 0.0
C1624 C 0.94895 0.0876 0.68525 0.0
C1625 C 0.8802 0.05942 0.67259 0.0
C1626 C 0.91761 0.0987 0.6711 0.0
C1627 C 0.99123 0.15102 0.6755 0.0
C1628 C 0.02699 0.16392 0.68143 0.0
C1629 C 0.95247 0.11284 0.67729 0.0
C1630 C 0.02274 0.13896 0.68942 0.0
C1631 C 0.98412 0.10143 0.69135 0.0
H1632 H 0.86412 0.38493 0.50576 0.0
H1633 H 0.80331 0.35042 0.53305 0.0
H1634 H 0.79619 0.41443 0.53309 0.0
H1635 H 0.802 0.47816 0.52475 0.0
H1636 H 0.86181 0.51069 0.49737 0.0
H1637 H 0.87473 0.4505 0.49807 0.0
C1638 C 0.84986 0.3916 0.51179 0.0
C1639 C 0.83425 0.36243 0.51936 0.0
C1640 C 0.84537 0.42844 0.51175 0.0
C1641 C 0.81578 0.37202 0.52709 0.0
C1642 C 0.81148 0.40873 0.52712 0.0
C1643 C 0.8185 0.47241 0.51904 0.0
C1644 C 0.83077 0.49896 0.51101 0.0
C1645 C 0.82542 0.43689 0.51941 0.0
C1646 C 0.85177 0.49074 0.50362 0.0
C1647 C 0.85918 0.45618 0.50399 0.0
H1648 H 0.58473 0.31262 0.51038 0.0
H1649 H 0.49151 0.35174 0.51566 0.0
H1650 H 0.54921 0.42683 0.51723 0.0
H1651 H 0.62723 0.48176 0.5167 0.0
H1652 H 0.71887 0.43956 0.51237 0.0
H1653 H 0.66106 0.36541 0.51081 0.0
C1654 C 0.57713 0.33761 0.51198 0.0
C1655 C 0.53415 0.32689 0.51292 0.0
C1656 C 0.61029 0.38022 0.51292 0.0
C1657 C 0.52451 0.3593 0.51503 0.0
C1658 C 0.55747 0.40221 0.51583 0.0
C1659 C 0.6342 0.45622 0.51531 0.0
C1660 C 0.67706 0.46597 0.51441 0.0
C1661 C 0.60058 0.41318 0.51468 0.0
C1662 C 0.68603 0.4327 0.51289 0.0
C1663 C 0.65305 0.39033 0.51205 0.0
H1664 H 0.57674 0.22303 0.52722 0.0
H1665 H 0.53058 0.15524 0.50082 0.0
H1666 H 0.59895 0.15883 0.49821 0.0
H1667 H 0.67406 0.18605 0.5027 0.0
H1668 H 0.72136 0.25428 0.52886 0.0
H1669 H 0.65072 0.24527 0.53236 0.0
C1670 C 0.58139 0.20845 0.52097 0.0
C1671 C 0.54834 0.1891 0.51422 0.0
C1672 C 0.62122 0.21073 0.51945 0.0
C1673 C 0.55521 0.17047 0.50615 0.0
C1674 C 0.59448 0.17257 0.50462 0.0
C1675 C 0.66851 0.19816 0.50924 0.0
C1676 C 0.70244 0.21995 0.51562 0.0
C1677 C 0.62797 0.19331 0.51111 0.0
C1678 C 0.69532 0.23621 0.524 0.0
C1679 C 0.65503 0.23151 0.52593 0.0
H1680 H 0.81739 0.48904 0.69752 0.0
H1681 H 0.83384 0.46912 0.66824 0.0
H1682 H 0.77297 0.47878 0.66401 0.0
H1683 H 0.71161 0.48838 0.66895 0.0
H1684 H 0.70099 0.51442 0.69826 0.0
H1685 H 0.76295 0.50747 0.70211 0.0
C1686 C 0.80797 0.48734 0.69019 0.0
C1687 C 0.82978 0.47793 0.68321 0.0
C1688 C 0.77375 0.49398 0.68782 0.0
C1689 C 0.81756 0.47632 0.67374 0.0
C1690 C 0.78261 0.48167 0.67134 0.0
C1691 C 0.72324 0.49308 0.67615 0.0
C1692 C 0.70122 0.50173 0.68329 0.0
C1693 C 0.75991 0.48984 0.67835 0.0
C1694 C 0.7171 0.50798 0.69258 0.0
C1695 C 0.75256 0.50376 0.69483 0.0
H1696 H 0.52646 0.23126 0.66984 0.0
H1697 H 0.53743 0.20837 0.69932 0.0
H1698 H 0.54993 0.27954 0.7033 0.0
H1699 H 0.56036 0.34949 0.69849 0.0
H1700 H 0.5411 0.37105 0.66949 0.0
H1701 H 0.52942 0.2998 0.66522 0.0
C1702 C 0.53117 0.24181 0.67713 0.0
C1703 C 0.53096 0.21436 0.68426 0.0
C1704 C 0.53729 0.28282 0.67945 0.0
C1705 C 0.53693 0.22849 0.69369 0.0
C1706 C 0.5444 0.2694 0.69598 0.0
C1707 C 0.55351 0.33859 0.69123 0.0
C1708 C 0.5527 0.366 0.68427 0.0
C1709 C 0.54505 0.29699 0.68893 0.0
C1710 C 0.54281 0.35096 0.67494 0.0
C1711 C 0.53594 0.31009 0.67252 0.0
H1712 H 0.78891 0.31171 0.66995 0.0
H1713 H 0.82043 0.32428 0.69962 0.0
H1714 H 0.75167 0.26219 0.70313 0.0
H1715 H 0.68073 0.207 0.69814 0.0
H1716 H 0.64856 0.18817 0.66863 0.0
H1717 H 0.71903 0.24952 0.66468 0.0
C1718 C 0.78083 0.30053 0.67715 0.0
C1719 C 0.81002 0.32313 0.6845 0.0
C1720 C 0.74088 0.26378 0.67918 0.0
C1721 C 0.79899 0.30782 0.69379 0.0
C1722 C 0.75942 0.27224 0.69585 0.0
C1723 C 0.68922 0.21606 0.69082 0.0
C1724 C 0.65917 0.19362 0.68369 0.0
C1725 C 0.7299 0.25045 0.68864 0.0
C1726 C 0.67095 0.20523 0.67425 0.0
C1727 C 0.71127 0.24037 0.67201 0.0
H1728 H 0.52766 0.20395 0.19578 0.0
H1729 H 0.55977 0.19604 0.1669 0.0
H1730 H 0.55293 0.2589 0.16292 0.0
H1731 H 0.54245 0.31939 0.1681 0.0
H1732 H 0.50518 0.32221 0.19692 0.0
H1733 H 0.50879 0.25796 0.20043 0.0
C1734 C 0.53273 0.21573 0.18859 0.0
C1735 C 0.54474 0.19579 0.18166 0.0
C1736 C 0.52782 0.25111 0.18635 0.0
C1737 C 0.55059 0.21093 0.17235 0.0
C1738 C 0.54682 0.24697 0.1701 0.0
C1739 C 0.53458 0.30559 0.17511 0.0
C1740 C 0.52386 0.32605 0.18224 0.0
C1741 C 0.53614 0.26785 0.17709 0.0
C1742 C 0.51344 0.30739 0.19127 0.0
C1743 C 0.51571 0.27063 0.19332 0.0
H1744 H 0.7985 0.34638 0.19837 0.0
H1745 H 0.8375 0.36349 0.16926 0.0
H1746 H 0.77636 0.29273 0.16539 0.0
H1747 H 0.70997 0.22607 0.17037 0.0
H1748 H 0.67666 0.2084 0.19992 0.0
H1749 H 0.73729 0.27856 0.2035 0.0
C1750 C 0.79373 0.33465 0.19117 0.0
C1751 C 0.82215 0.36061 0.18408 0.0
C1752 C 0.7594 0.29345 0.18908 0.0
C1753 C 0.81584 0.34446 0.17483 0.0
C1754 C 0.78087 0.30389 0.17263 0.0
C1755 C 0.71626 0.23745 0.1776 0.0
C1756 C 0.68844 0.2116 0.18485 0.0
C1757 C 0.75214 0.27809 0.1797 0.0
C1758 C 0.69741 0.22704 0.19418 0.0
C1759 C 0.73208 0.26748 0.19626 0.0
H1760 H 0.79505 0.49416 0.16911 0.0
H1761 H 0.82356 0.49722 0.19876 0.0
H1762 H 0.75402 0.48844 0.20279 0.0
H1763 H 0.68322 0.47578 0.19801 0.0
H1764 H 0.65655 0.48162 0.16864 0.0
H1765 H 0.72662 0.49081 0.16436 0.0
C1766 C 0.78618 0.49347 0.17644 0.0
C1767 C 0.81467 0.49627 0.18361 0.0
C1768 C 0.74611 0.48943 0.17876 0.0
C1769 C 0.80266 0.49554 0.19308 0.0
C1770 C 0.76263 0.49019 0.19541 0.0
C1771 C 0.69281 0.47927 0.19067 0.0
C1772 C 0.66413 0.47673 0.18362 0.0
C1773 C 0.73384 0.48645 0.18832 0.0
C1774 C 0.67753 0.48242 0.17417 0.0
C1775 C 0.71776 0.48788 0.17174 0.0
H1776 H 0.64854 0.19906 0.02771 0.0
H1777 H 0.65861 0.17649 0.99812 0.0
H1778 H 0.59614 0.18271 0.99465 0.0
H1779 H 0.54136 0.19946 0.99962 0.0
H1780 H 0.52524 0.21655 0.02907 0.0
H1781 H 0.58673 0.2074 0.03299 0.0
C1782 C 0.63672 0.19505 0.02053 0.0
C1783 C 0.65878 0.18762 1.0132 0.0
C1784 C 0.59971 0.19795 0.01853 0.0
C1785 C 0.64262 0.18216 1.00395 0.0
C1786 C 0.6068 0.18589 1.00191 0.0
C1787 C 0.551 0.20069 1.00691 0.0
C1788 C 0.5292 0.20919 1.01404 0.0
C1789 C 0.58556 0.19449 1.00909 0.0
C1790 C 0.54162 0.21013 0.02347 0.0
C1791 C 0.5769 0.20506 0.02569 0.0
H1792 H 0.81015 0.34032 0.9986 0.0
H1793 H 0.82032 0.31786 0.02806 0.0
H1794 H 0.83275 0.38993 0.0319 0.0
H1795 H 0.83669 0.45837 0.02674 0.0
H1796 H 0.83177 0.48017 0.99691 0.0
H1797 H 0.82174 0.40979 0.99338 0.0
C1798 C 0.81542 0.35128 1.00586 0.0
C1799 C 0.81371 0.32365 1.01305 0.0
C1800 C 0.8235 0.39282 1.00795 0.0
C1801 C 0.82126 0.33852 0.02241 0.0
C1802 C 0.82827 0.37969 0.02459 0.0
C1803 C 0.83396 0.44783 0.01947 0.0
C1804 C 0.83498 0.47478 1.01212 0.0
C1805 C 0.82886 0.40702 0.01741 0.0
C1806 C 0.83155 0.46058 1.00274 0.0
C1807 C 0.8255 0.42006 1.00068 0.0
H1808 H 0.5708 0.37422 0.02791 0.0
H1809 H 0.53835 0.3628 0.99831 0.0
H1810 H 0.60812 0.42348 0.99472 0.0
H1811 H 0.68021 0.47698 0.99964 0.0
H1812 H 0.71295 0.49474 0.02912 0.0
H1813 H 0.64168 0.43488 0.03311 0.0
C1814 C 0.57888 0.38538 0.0207 0.0
C1815 C 0.54914 0.36349 1.0134 0.0
C1816 C 0.61937 0.42131 0.01864 0.0
C1817 C 0.5602 0.37877 1.0041 0.0
C1818 C 0.60036 0.4135 1.00201 0.0
C1819 C 0.67164 0.46797 1.00696 0.0
C1820 C 0.70206 0.48971 1.01407 0.0
C1821 C 0.63042 0.4345 1.00917 0.0
C1822 C 0.69025 0.47827 0.02352 0.0
C1823 C 0.64946 0.44396 0.02579 0.0
H1824 H 0.47411 0.82 0.85756 0.0
H1825 H 0.52246 0.84395 0.82909 0.0
H1826 H 0.53226 0.78172 0.82971 0.0
H1827 H 0.52246 0.71723 0.83781 0.0
H1828 H 0.47315 0.69134 0.86621 0.0
H1829 H 0.46875 0.75699 0.86615 0.0
C1830 C 0.4874 0.8119 0.85157 0.0
C1831 C 0.49742 0.83671 0.84328 0.0
C1832 C 0.49251 0.77526 0.85191 0.0
C1833 C 0.51431 0.82547 0.83555 0.0
C1834 C 0.51988 0.78971 0.83588 0.0
C1835 C 0.51119 0.72606 0.84404 0.0
C1836 C 0.49805 0.69891 0.85198 0.0
C1837 C 0.50835 0.76384 0.84395 0.0
C1838 C 0.48357 0.71133 0.85997 0.0
C1839 C 0.48088 0.74899 0.85995 0.0
H1840 H 0.21557 0.67884 0.83341 0.0
H1841 H 0.19192 0.65124 0.86304 0.0
H1842 H 0.25386 0.72178 0.86688 0.0
H1843 H 0.31773 0.79017 0.86156 0.0
H1844 H 0.33585 0.81665 0.83167 0.0
H1845 H 0.27319 0.74819 0.82824 0.0
C1846 C 0.22372 0.68837 0.84072 0.0
C1847 C 0.19957 0.65977 0.84793 0.0
C1848 C 0.25861 0.72894 0.84283 0.0
C1849 C 0.21012 0.67277 0.85737 0.0
C1850 C 0.24563 0.71302 0.85955 0.0
C1851 C 0.30767 0.7811 0.85432 0.0
C1852 C 0.332 0.80885 0.84691 0.0
C1853 C 0.27062 0.74126 0.85231 0.0
C1854 C 0.3181 0.79644 0.83756 0.0
C1855 C 0.28216 0.757 0.83554 0.0
H1856 H 0.32789 0.49822 0.83693 0.0
H1857 H 0.38259 0.57516 0.86188 0.0
H1858 H 0.31502 0.57321 0.86513 0.0
H1859 H 0.24207 0.5543 0.86023 0.0
H1860 H 0.18844 0.47965 0.83492 0.0
H1861 H 0.25358 0.47599 0.8325 0.0
C1862 C 0.32484 0.5141 0.84314 0.0
C1863 C 0.36032 0.53691 0.84913 0.0
C1864 C 0.28607 0.51357 0.84487 0.0
C1865 C 0.35582 0.55739 0.85715 0.0
C1866 C 0.31719 0.55642 0.85899 0.0
C1867 C 0.24436 0.53677 0.85425 0.0
C1868 C 0.21026 0.51744 0.84775 0.0
C1869 C 0.28233 0.53531 0.85281 0.0
C1870 C 0.21409 0.49504 0.84002 0.0
C1871 C 0.25144 0.49293 0.83862 0.0
H1872 H 0.48824 0.81647 0.03144 0.0
H1873 H 0.50506 0.80216 1.00187 0.0
H1874 H 0.44407 0.81238 0.99809 0.0
H1875 H 0.38233 0.82043 1.00352 0.0
H1876 H 0.37118 0.83976 0.03323 0.0
H1877 H 0.43351 0.83297 0.03659 0.0
C1878 C 0.47888 0.81612 0.02414 0.0
C1879 C 0.50071 0.80811 0.01694 0.0
C1880 C 0.44455 0.82278 0.02206 0.0
C1881 C 0.48867 0.80826 1.00753 0.0
C1882 C 0.45366 0.81389 1.00538 0.0
C1883 C 0.39391 0.82364 1.0107 0.0
C1884 C 0.37168 0.83034 0.0181 0.0
C1885 C 0.43076 0.8204 1.01263 0.0
C1886 C 0.38745 0.83476 0.02736 0.0
C1887 C 0.42313 0.83068 0.02933 0.0
H1888 H 0.22453 0.69099 1.0053 0.0
H1889 H 0.19572 0.68076 0.03499 0.0
H1890 H 0.17745 0.60573 0.03491 0.0
H1891 H 0.17732 0.54533 0.0269 0.0
H1892 H 0.20936 0.55551 0.99734 0.0
H1893 H 0.21822 0.62735 0.99686 0.0
C1894 C 0.21325 0.6719 1.01167 0.0
C1895 C 0.21139 0.69136 0.02013 0.0
C1896 C 0.20388 0.6287 1.01164 0.0
C1897 C 0.19743 0.66651 0.02839 0.0
C1898 C 0.18711 0.62358 0.02836 0.0
C1899 C 0.1855 0.56283 0.0203 0.0
C1900 C 0.19287 0.54476 1.0122 0.0
C1901 C 0.1914 0.60464 0.0201 0.0
C1902 C 0.20358 0.56837 1.00373 0.0
C1903 C 0.20882 0.6097 1.00344 0.0
H1904 H 0.35157 0.53078 0.02871 0.0
H1905 H 0.31387 0.53893 1.00034 0.0
H1906 H 0.38601 0.59835 0.997 0.0
H1907 H 0.4581 0.65265 1.00277 0.0
H1908 H 0.4945 0.64275 0.0313 0.0
H1909 H 0.42509 0.57956 0.03391 0.0
C1910 C 0.35951 0.54508 0.02174 0.0
C1911 C 0.32771 0.53027 1.01474 0.0
C1912 C 0.40084 0.57935 0.01994 0.0
C1913 C 0.33808 0.54914 1.00576 0.0
C1914 C 0.37924 0.58348 1.0039 0.0
C1915 C 0.45109 0.63631 1.00951 0.0
C1916 C 0.48165 0.65299 0.01684 0.0
C1917 C 0.41069 0.59954 1.01101 0.0
C1918 C 0.47184 0.63107 0.02552 0.0
C1919 C 0.43196 0.59481 0.02705 0.0
H1920 H 0.2092 0.54435 0.53053 0.0
H1921 H 0.213 0.51722 0.50108 0.0
H1922 H 0.20487 0.57903 0.49678 0.0
H1923 H 0.20031 0.6436 0.50162 0.0
H1924 H 0.19009 0.66466 0.53126 0.0
H1925 H 0.19672 0.60252 0.53524 0.0
C1926 C 0.20792 0.55175 0.52316 0.0
C1927 C 0.21237 0.5267 0.51613 0.0
C1928 C 0.20209 0.58642 0.52078 0.0
C1929 C 0.20994 0.53623 0.50662 0.0
C1930 C 0.20537 0.57163 0.50417 0.0
C1931 C 0.19907 0.6342 0.50893 0.0
C1932 C 0.19477 0.65895 0.51612 0.0
C1933 C 0.20199 0.59742 0.51121 0.0
C1934 C 0.19297 0.64616 0.52556 0.0
C1935 C 0.19703 0.61067 0.52787 0.0
H1936 H 0.50342 0.6538 0.52818 0.0
H1937 H 0.48093 0.71127 0.50376 0.0
H1938 H 0.41512 0.64434 0.50034 0.0
H1939 H 0.36134 0.57098 0.50487 0.0
H1940 H 0.38186 0.51423 0.52971 0.0
H1941 H 0.45074 0.57902 0.53235 0.0
C1942 C 0.48431 0.65148 0.52206 0.0
C1943 C 0.49709 0.68754 0.51624 0.0
C1944 C 0.44587 0.613 0.52024 0.0
C1945 C 0.4719 0.68404 0.50835 0.0
C1946 C 0.43413 0.64577 0.50641 0.0
C1947 C 0.38105 0.57251 0.5108 0.0
C1948 C 0.36621 0.53764 0.51708 0.0
C1949 C 0.4204 0.61024 0.51239 0.0
C1950 C 0.39225 0.54052 0.52477 0.0
C1951 C 0.43173 0.57765 0.5263 0.0
H1952 H 0.46071 0.82692 0.50254 0.0
H1953 H 0.48572 0.82414 0.53226 0.0
H1954 H 0.41612 0.81505 0.53611 0.0
H1955 H 0.34627 0.80399 0.53122 0.0
H1956 H 0.32212 0.81456 0.50189 0.0
H1957 H 0.39258 0.82429 0.49772 0.0
C1958 C 0.45108 0.82486 0.50985 0.0
C1959 C 0.47873 0.82613 0.51707 0.0
C1960 C 0.41077 0.82049 0.51211 0.0
C1961 C 0.46561 0.82362 0.52652 0.0
C1962 C 0.42549 0.8181 0.52876 0.0
C1963 C 0.35647 0.8086 0.52391 0.0
C1964 C 0.32854 0.80746 0.51685 0.0
C1965 C 0.39756 0.81585 0.52163 0.0
C1966 C 0.34267 0.81447 0.50744 0.0
C1967 C 0.38307 0.82018 0.50506 0.0
H1968 H 0.21462 0.53404 0.33348 0.0
H1969 H 0.1898 0.5353 0.36315 0.0
H1970 H 0.25093 0.52529 0.36689 0.0
H1971 H 0.31534 0.52238 0.36154 0.0
H1972 H 0.3357 0.51656 0.3317 0.0
H1973 H 0.27226 0.5218 0.3282 0.0
C1974 C 0.22225 0.53159 0.34077 0.0
C1975 C 0.19817 0.53599 0.34805 0.0
C1976 C 0.25679 0.52519 0.34282 0.0
C1977 C 0.20798 0.53214 0.35745 0.0
C1978 C 0.24304 0.52661 0.35957 0.0
C1979 C 0.30542 0.52158 0.35428 0.0
C1980 C 0.33042 0.51927 0.34689 0.0
C1981 C 0.26828 0.52402 0.3523 0.0
C1982 C 0.317 0.51798 0.33753 0.0
C1983 C 0.28082 0.52128 0.33551 0.0
H1984 H 0.47515 0.67707 0.33226 0.0
H1985 H 0.479 0.65188 0.36183 0.0
H1986 H 0.48619 0.72173 0.36577 0.0
H1987 H 0.48884 0.78944 0.36071 0.0
H1988 H 0.49094 0.81561 0.33094 0.0
H1989 H 0.48458 0.74654 0.32721 0.0
C1990 C 0.47773 0.6869 0.33958 0.0
C1991 C 0.47585 0.65893 0.34675 0.0
C1992 C 0.48311 0.72756 0.34175 0.0
C1993 C 0.47997 0.67256 0.35618 0.0
C1994 C 0.48411 0.71257 0.35843 0.0
C1995 C 0.48831 0.78018 0.35341 0.0
C1996 C 0.49027 0.80797 0.34612 0.0
C1997 C 0.48534 0.74029 0.35127 0.0
C1998 C 0.4898 0.79533 0.33671 0.0
C1999 C 0.48589 0.75557 0.33455 0.0
H2000 H 0.21415 0.71251 0.3366 0.0
H2001 H 0.23955 0.68005 0.36423 0.0
H2002 H 0.30865 0.74585 0.36463 0.0
H2003 H 0.36476 0.81192 0.35678 0.0
H2004 H 0.33868 0.84354 0.32915 0.0
H2005 H 0.26787 0.78003 0.32921 0.0
C2006 C 0.2346 0.7199 0.34274 0.0
C2007 C 0.22122 0.69086 0.35033 0.0
C2008 C 0.27474 0.75816 0.34296 0.0
C2009 C 0.24853 0.70147 0.35824 0.0
C2010 C 0.28838 0.73929 0.35849 0.0
C2011 C 0.34328 0.80518 0.35086 0.0
C2012 C 0.35727 0.83261 0.34297 0.0
C2013 C 0.30219 0.76783 0.35086 0.0
C2014 C 0.329 0.82304 0.33532 0.0
C2015 C 0.28834 0.78652 0.33531 0.0
H2016 H 0.27344 0.36143 0.1701 0.0
H2017 H 0.27198 0.30812 0.19742 0.0
H2018 H 0.35012 0.34227 0.19714 0.0
H2019 H 0.41976 0.38423 0.18856 0.0
H2020 H 0.41841 0.43469 0.16105 0.0
H2021 H 0.34152 0.40542 0.16206 0.0
C2022 C 0.29006 0.35748 0.17606 0.0
C2023 C 0.26634 0.33193 0.18375 0.0
C2024 C 0.33508 0.37686 0.17581 0.0
C2025 C 0.28901 0.3275 0.19138 0.0
C2026 C 0.33392 0.34702 0.19122 0.0
C2027 C 0.40261 0.38928 0.18287 0.0
C2028 C 0.42509 0.4117 0.17472 0.0
C2029 C 0.35747 0.37139 0.1834 0.0
C2030 C 0.40214 0.4175 0.16738 0.0
C2031 C 0.35796 0.40066 0.16794 0.0
H2032 H 0.61219 0.99626 0.1648 0.0
H2033 H 0.62384 0.04339 0.19318 0.0
H2034 H 0.66026 1.00391 0.19792 0.0
H2035 H 0.69225 0.95808 0.19368 0.0
H2036 H 0.67812 0.91111 0.1651 0.0
H2037 H 0.63966 0.94807 0.16084 0.0
C2038 C 0.62233 0.99767 0.17206 0.0
C2039 C 0.61496 0.02277 0.17863 0.0
C2040 C 0.64328 0.97488 0.1747 0.0
C2041 C 0.62846 0.02404 0.18799 0.0
C2042 C 0.64964 1.0016 0.19068 0.0
C2043 C 0.68044 0.95559 0.18655 0.0
C2044 C 0.68862 0.93157 0.17975 0.0
C2045 C 0.6577 0.97715 0.18407 0.0
C2046 C 0.67275 0.92905 0.17054 0.0
C2047 C 0.65062 0.95038 0.16806 0.0
H2048 H 0.09821 0.75191 0.1695 0.0
H2049 H 0.05703 0.7513 0.19809 0.0
H2050 H 0.01384 0.67329 0.19773 0.0
H2051 H 0.98413 0.6038 0.18899 0.0
H2052 H 0.02534 0.60602 0.16034 0.0
H2053 H 0.07158 0.68335 0.16112 0.0
C2054 C 0.08011 0.73485 0.17569 0.0
C2055 C 0.08124 0.75822 0.18379 0.0
C2056 C 0.05484 0.68949 0.17545 0.0
C2057 C 0.05717 0.73482 0.19171 0.0
C2058 C 0.0322 0.68983 0.19153 0.0
C2059 C 1.00367 0.62119 0.18298 0.0
C2060 C 1.00097 0.59867 0.17461 0.0
C2061 C 0.0303 0.6666 0.1834 0.0
C2062 C 0.02641 0.62215 0.16688 0.0
C2063 C 0.05301 0.66667 0.16729 0.0
H2064 H 0.36093 0.26668 0.35995 0.0
H2065 H 0.30517 0.26594 0.33298 0.0
H2066 H 0.34096 0.3444 0.33325 0.0
H2067 H 0.38527 0.41431 0.34173 0.0
H2068 H 0.43784 0.41224 0.36893 0.0
H2069 H 0.40692 0.33489 0.36789 0.0
C2070 C 0.35674 0.28346 0.35406 0.0
C2071 C 0.33001 0.25976 0.34647 0.0
C2072 C 0.37712 0.32874 0.3543 0.0
C2073 C 0.32537 0.28281 0.33895 0.0
C2074 C 0.34588 0.32795 0.3391 0.0
C2075 C 0.39052 0.39693 0.34733 0.0
C2076 C 0.41414 0.41943 0.3554 0.0
C2077 C 0.37152 0.35147 0.3468 0.0
C2078 C 0.41993 0.39605 0.36264 0.0
C2079 C 0.40208 0.35157 0.36208 0.0
H2080 H 0.60426 0.97993 0.34213 0.0
H2081 H 0.60903 0.02066 0.37094 0.0
H2082 H 0.68639 0.06601 0.36997 0.0
H2083 H 0.75423 0.0921 0.36137 0.0
H2084 H 0.7515 0.05063 0.33271 0.0
H2085 H 0.67338 1.00844 0.33323 0.0
C2086 C 0.6222 0.99919 0.34814 0.0
C2087 C 0.60025 0.99669 0.35661 0.0
C2088 C 0.66773 0.02513 0.34762 0.0
C2089 C 0.62458 0.02166 0.36433 0.0
C2090 C 0.66915 0.04772 0.3638 0.0
C2091 C 0.73672 0.07417 0.35519 0.0
C2092 C 0.75959 0.07504 0.34701 0.0
C2093 C 0.69133 0.04937 0.35554 0.0
C2094 C 0.73549 0.05103 0.33914 0.0
C2095 C 0.69043 0.02665 0.33942 0.0
H2096 H 0.98107 0.70915 0.33894 0.0
H2097 H 0.89225 0.64454 0.36165 0.0
H2098 H 0.92579 0.60144 0.36476 0.0
H2099 H 0.98219 0.58333 0.36157 0.0
H2100 H 0.07236 0.64813 0.33917 0.0
H2101 H 0.03665 0.68917 0.33541 0.0
C2102 C 0.96877 0.68538 0.34451 0.0
C2103 C 0.93394 0.68049 0.35004 0.0
C2104 C 0.98871 0.66057 0.34637 0.0
C2105 C 0.91892 0.64948 0.35727 0.0
C2106 C 0.93817 0.62463 0.35907 0.0
C2107 C 0.99391 0.60623 0.35583 0.0
C2108 C 0.03012 0.61255 0.35069 0.0
C2109 C 0.97338 0.63013 0.35376 0.0
C2110 C 0.0447 0.64252 0.34327 0.0
C2111 C 0.02424 0.66612 0.34112 0.0
H2112 H 0.63136 0.66135 0.86233 0.0
H2113 H 0.59159 0.58353 0.83722 0.0
H2114 H 0.66693 0.61232 0.8327 0.0
H2115 H 0.74557 0.65984 0.83616 0.0
H2116 H 0.78183 0.73239 0.86211 0.0
H2117 H 0.70714 0.70568 0.86596 0.0
C2118 C 0.63898 0.6506 0.85585 0.0
C2119 C 0.60557 0.62052 0.85009 0.0
C2120 C 0.68224 0.66647 0.85344 0.0
C2121 C 0.61645 0.6069 0.84176 0.0
C2122 C 0.65968 0.62335 0.83919 0.0
C2123 C 0.73698 0.66974 0.84263 0.0
C2124 C 0.76966 0.69808 0.84885 0.0
C2125 C 0.69309 0.65322 0.84499 0.0
C2126 C 0.7577 0.71032 0.85723 0.0
C2127 C 0.71481 0.69515 0.85945 0.0
H2128 H 0.36549 0.1023 0.8599 0.0
H2129 H 0.31088 0.04925 0.83273 0.0
H2130 H 0.34546 1.00542 0.833 0.0
H2131 H 0.38959 0.97953 0.84131 0.0
H2132 H 0.44595 0.03589 0.86817 0.0
H2133 H 0.41264 0.08039 0.86762 0.0
C2134 C 0.36127 0.0814 0.85399 0.0
C2135 C 0.33525 0.07928 0.84632 0.0
C2136 C 0.38158 0.05635 0.85415 0.0
C2137 C 0.33069 0.05196 0.83873 0.0
C2138 C 0.35039 0.02659 0.83889 0.0
C2139 C 0.3947 1.0017 0.84701 0.0
C2140 C 0.42015 1.00383 0.85482 0.0
C2141 C 0.37564 0.02809 0.84661 0.0
C2142 C 0.42656 0.03317 0.86209 0.0
C2143 C 0.40741 0.05879 0.86179 0.0
H2144 H 0.97033 0.27417 0.83842 0.0
H2145 H 0.89203 0.2491 0.86322 0.0
H2146 H 0.92622 0.3258 0.86645 0.0
H2147 H 0.98127 0.40043 0.8628 0.0
H2148 H 0.06095 0.42569 0.83827 0.0
H2149 H 0.02342 0.34922 0.83439 0.0
C2150 C 0.96033 0.28545 0.84447 0.0
C2151 C 0.92848 0.25545 0.85055 0.0
C2152 C 0.98069 0.32998 0.84639 0.0
C2153 C 0.9164 0.27107 0.8584 0.0
C2154 C 0.93605 0.31513 0.86028 0.0
C2155 C 0.99017 0.38924 0.85656 0.0
C2156 C 0.02406 0.41894 0.85086 0.0
C2157 C 0.96868 0.34492 0.85441 0.0
C2158 C 0.03512 0.40369 0.8428 0.0
C2159 C 0.01365 0.35984 0.84058 0.0
H2160 H 0.63897 0.61026 0.68916 0.0
H2161 H 0.59887 0.61131 0.66053 0.0
H2162 H 0.62724 0.68823 0.66136 0.0
H2163 H 0.66725 0.75666 0.6697 0.0
H2164 H 0.7096 0.75819 0.69822 0.0
H2165 H 0.67685 0.68006 0.69794 0.0
C2166 C 0.63605 0.62734 0.68317 0.0
C2167 C 0.61677 0.60465 0.67478 0.0
C2168 C 0.65325 0.67255 0.68362 0.0
C2169 C 0.61363 0.62762 0.66707 0.0
C2170 C 0.62994 0.67188 0.66752 0.0
C2171 C 0.66907 0.74003 0.6759 0.0
C2172 C 0.69116 0.76385 0.68395 0.0
C2173 C 0.65044 0.6949 0.67568 0.0
C2174 C 0.69292 0.74114 0.69189 0.0
C2175 C 0.6742 0.6962 0.69174 0.0
H2176 H 0.39858 0.99584 0.66488 0.0
H2177 H 0.42744 0.05469 0.69237 0.0
H2178 H 0.35136 0.0125 0.69673 0.0
H2179 H 0.27525 0.96121 0.69225 0.0
H2180 H 0.24969 0.90151 0.66474 0.0
H2181 H 0.32526 0.94119 0.66097 0.0
C2182 C 0.38833 0.99921 0.67187 0.0
C2183 C 0.41865 0.02859 0.67827 0.0
C2184 C 0.34476 0.97462 0.67433 0.0
C2185 C 0.4048 0.03227 0.68731 0.0
C2186 C 0.36121 1.00822 0.68978 0.0
C2187 C 0.28626 0.95651 0.68548 0.0
C2188 C 0.25611 0.92833 0.67879 0.0
C2189 C 0.33063 0.97958 0.68329 0.0
C2190 C 0.27149 0.92283 0.67006 0.0
C2191 C 0.315 0.9457 0.66785 0.0
H2192 H 0.0418 0.42802 0.66839 0.0
H2193 H 0.96183 0.37099 0.69274 0.0
H2194 H 0.99949 0.33159 0.69622 0.0
H2195 H 0.05352 0.31075 0.69194 0.0
H2196 H 0.13178 0.36683 0.66725 0.0
H2197 H 0.09676 0.40884 0.66438 0.0
C2198 C 0.03276 0.40718 0.67449 0.0
C2199 C 0.99883 0.4025 0.68028 0.0
C2200 C 0.0543 0.38415 0.67639 0.0
C2201 C 0.98766 0.37522 0.68815 0.0
C2202 C 1.00923 0.3526 0.69014 0.0
C2203 C 0.06325 0.33245 0.68598 0.0
C2204 C 0.0955 0.33532 0.67984 0.0
C2205 C 0.04239 0.35642 0.68426 0.0
C2206 C 0.10715 0.36356 0.67211 0.0
C2207 C 0.08705 0.38774 0.67044 0.0
H2208 H 0.93762 0.68394 0.50271 0.0
H2209 H 0.93973 0.6469 0.53154 0.0
H2210 H 0.01794 0.68155 0.53098 0.0
H2211 H 0.08661 0.71966 0.52187 0.0
H2212 H 0.08134 0.75392 0.49293 0.0
H2213 H 1.00441 0.72361 0.49403 0.0
C2214 C 0.95498 0.68358 0.50893 0.0
C2215 C 0.93229 0.66253 0.51715 0.0
C2216 C 0.99996 0.7032 0.50854 0.0
C2217 C 0.95596 0.66276 0.5251 0.0
C2218 C 1.0009 0.68256 0.52478 0.0
C2219 C 0.06857 0.72085 0.51587 0.0
C2220 C 0.09001 0.73908 0.50731 0.0
C2221 C 0.0234 0.70252 0.51648 0.0
C2222 C 0.06594 0.74002 0.49959 0.0
C2223 C 0.02172 0.72261 0.5002 0.0
H2224 H 0.37493 0.30138 0.5252 0.0
H2225 H 0.32133 0.2229 0.50038 0.0
H2226 H 0.27788 0.2562 0.4974 0.0
H2227 H 0.25702 0.31017 0.50131 0.0
H2228 H 0.31111 0.38991 0.52589 0.0
H2229 H 0.35173 0.3537 0.52948 0.0
C2230 C 0.35344 0.29122 0.51919 0.0
C2231 C 0.35178 0.25951 0.51303 0.0
C2232 C 0.32852 0.31102 0.51743 0.0
C2233 C 0.32372 0.2472 0.50525 0.0
C2234 C 0.2987 0.26631 0.50352 0.0
C2235 C 0.27742 0.31939 0.5075 0.0
C2236 C 0.28099 0.35292 0.51329 0.0
C2237 C 0.30115 0.29864 0.50948 0.0
C2238 C 0.30772 0.36436 0.52128 0.0
C2239 C 0.33108 0.34364 0.52333 0.0
H2240 H 0.65407 0.9549 0.49961 0.0
H2241 H 0.68277 0.91923 0.52645 0.0
H2242 H 0.7291 0.99524 0.53047 0.0
H2243 H 0.76048 0.07318 0.52635 0.0
H2244 H 0.73572 0.10579 0.49866 0.0
H2245 H 0.68953 0.0303 0.495 0.0
C2246 C 0.6705 0.96357 0.50635 0.0
C2247 C 0.664 0.93105 0.5128 0.0
C2248 C 0.69814 1.00726 0.50845 0.0
C2249 C 0.68638 0.94327 0.52141 0.0
C2250 C 0.71307 0.98693 0.52369 0.0
C2251 C 0.74517 0.06367 0.5195 0.0
C2252 C 0.75181 0.09558 0.5128 0.0
C2253 C 0.719 0.01942 0.51729 0.0
C2254 C 0.73178 0.08236 0.50394 0.0
C2255 C 0.70503 0.03899 0.50184 0.0
H2256 H 0.10414 0.7334 0.69362 0.0
H2257 H 0.03778 0.75549 0.67094 0.0
H2258 H 0.99865 0.67874 0.66735 0.0
H2259 H 0.98012 0.60405 0.67117 0.0
H2260 H 0.04603 0.58257 0.69409 0.0
H2261 H 0.08814 0.65947 0.69696 0.0
C2262 C 0.08135 0.72146 0.68785 0.0
C2263 C 0.07387 0.75038 0.6826 0.0
C2264 C 0.05856 0.67697 0.68585 0.0
C2265 C 0.04414 0.73412 0.67514 0.0
C2266 C 0.02166 0.69008 0.67307 0.0
C2267 C 1.00409 0.6162 0.67671 0.0
C2268 C 1.00956 0.58705 0.6824 0.0
C2269 C 0.02815 0.66098 0.67844 0.0
C2270 C 0.04071 0.60381 0.6896 0.0
C2271 C 0.06494 0.64802 0.69127 0.0
H2272 H 0.29316 0.36702 0.6972 0.0
H2273 H 0.26191 0.29847 0.67085 0.0
H2274 H 0.33794 0.33759 0.66629 0.0
H2275 H 0.41498 0.38926 0.67035 0.0
H2276 H 0.44233 0.45802 0.69679 0.0
H2277 H 0.36699 0.42132 0.70063 0.0
C2278 C 0.30285 0.36083 0.69041 0.0
C2279 C 0.27174 0.32975 0.6844 0.0
C2280 C 0.34643 0.38356 0.68784 0.0
C2281 C 0.28502 0.32241 0.6756 0.0
C2282 C 0.32866 0.34469 0.67302 0.0
C2283 C 0.40442 0.39661 0.67689 0.0
C2284 C 0.4352 0.42641 0.68328 0.0
C2285 C 0.35997 0.37513 0.67914 0.0
C2286 C 0.42024 0.43519 0.69172 0.0
C2287 C 0.37678 0.4141 0.69397 0.0
H2288 H 0.6415 0.91914 0.69406 0.0
H2289 H 0.73095 0.98341 0.6715 0.0
H2290 H 0.69376 0.02263 0.66743 0.0
H2291 H 0.63795 0.04237 0.67094 0.0
H2292 H 0.5497 0.97798 0.69375 0.0
H2293 H 0.5837 0.93539 0.69693 0.0
C2294 C 0.65267 0.94146 0.6882 0.0
C2295 C 0.68923 0.94839 0.68315 0.0
C2296 C 0.63122 0.96421 0.68593 0.0
C2297 C 0.70304 0.97745 0.67556 0.0
C2298 C 0.68175 1.0 0.67322 0.0
C2299 C 0.62572 0.01853 0.6765 0.0
C2300 C 0.59119 0.01377 0.6821 0.0
C2301 C 0.64605 0.99416 0.67843 0.0
C2302 C 0.57627 0.98282 0.68934 0.0
C2303 C 0.59579 0.95832 0.69119 0.0
H2304 H 0.27091 0.96376 0.17523 0.0
H2305 H 0.27749 0.91902 0.20307 0.0
H2306 H 0.35405 0.94785 0.20139 0.0
H2307 H 0.42054 0.98988 0.19268 0.0
H2308 H 0.41758 0.03792 0.16501 0.0
H2309 H 0.33934 1.00384 0.16593 0.0
C2310 C 0.28907 0.95985 0.18085 0.0
C2311 C 0.26798 0.93908 0.1893 0.0
C2312 C 0.33424 0.97751 0.17991 0.0
C2313 C 0.29246 0.93484 0.19652 0.0
C2314 C 0.33653 0.95143 0.19557 0.0
C2315 C 0.403 0.99269 0.18677 0.0
C2316 C 0.42563 0.01678 0.17879 0.0
C2317 C 0.35798 0.9735 0.1874 0.0
C2318 C 0.40156 0.01965 0.17126 0.0
C2319 C 0.35656 1.00022 0.1718 0.0
H2320 H 0.03645 0.42875 0.17176 0.0
H2321 H 0.94508 0.37073 0.19431 0.0
H2322 H 0.97284 0.32289 0.19783 0.0
H2323 H 0.02382 0.29808 0.19495 0.0
H2324 H 0.11936 0.35763 0.1733 0.0
H2325 H 0.08966 0.40381 0.16901 0.0
C2326 C 0.02256 0.40541 0.17738 0.0
C2327 C 0.98853 0.4034 0.18275 0.0
C2328 C 0.03964 0.37824 0.17958 0.0
C2329 C 0.9713 0.37321 0.19009 0.0
C2330 C 0.98717 0.34571 0.19212 0.0
C2331 C 0.03824 0.32111 0.18927 0.0
C2332 C 0.07371 0.32398 0.18442 0.0
C2333 C 0.02151 0.3481 0.18699 0.0
C2334 C 0.09191 0.35433 0.17712 0.0
C2335 C 0.0749 0.38088 0.17468 0.0
H2336 H 0.64899 0.6114 0.17187 0.0
H2337 H 0.5538 0.58599 0.19316 0.0
H2338 H 0.58697 0.66232 0.19661 0.0
H2339 H 0.64547 0.73653 0.19435 0.0
H2340 H 0.74248 0.76275 0.17351 0.0
H2341 H 0.70641 0.68677 0.16914 0.0
C2342 C 0.63514 0.62264 0.17715 0.0
C2343 C 0.59879 0.5926 0.18223 0.0
C2344 C 0.65505 0.66705 0.17927 0.0
C2345 C 0.58177 0.60804 0.18915 0.0
C2346 C 0.6008 0.65187 0.19116 0.0
C2347 C 0.65856 0.72567 0.1888 0.0
C2348 C 0.69678 0.75546 0.1843 0.0
C2349 C 0.63786 0.68168 0.18639 0.0
C2350 C 0.71321 0.74064 0.17713 0.0
C2351 C 0.69255 0.69706 0.17462 0.0
H2352 H 0.25864 0.95364 1.00333 0.0
H2353 H 0.32422 0.93143 0.02616 0.0
H2354 H 0.36224 1.008 0.02996 0.0
H2355 H 0.38 0.08259 0.02628 0.0
H2356 H 0.31468 0.10416 1.00325 0.0
H2357 H 0.27372 0.02739 1.00016 0.0
C2358 C 0.28102 0.96551 1.00918 0.0
C2359 C 0.28864 0.93663 1.0144 0.0
C2360 C 0.30312 0.00988 1.01131 0.0
C2361 C 0.31779 0.95278 0.02197 0.0
C2362 C 0.33963 0.99671 0.02416 0.0
C2363 C 0.3564 0.07049 0.02067 0.0
C2364 C 0.35076 0.09963 1.01502 0.0
C2365 C 0.33299 0.02579 0.01881 0.0
C2366 C 0.3201 0.08293 1.00773 0.0
C2367 C 0.29654 0.03879 1.00592 0.0
H2368 H 0.0666 0.31603 1.00023 0.0
H2369 H 0.09506 0.39014 0.02577 0.0
H2370 H 0.0191 0.34995 0.03028 0.0
H2371 H 0.94298 0.29595 0.02634 0.0
H2372 H 0.91767 0.222 1.0007 0.0
H2373 H 0.99331 0.25951 0.99696 0.0
C2374 C 0.0563 0.32319 1.00684 0.0
C2375 C 0.08662 0.35607 1.01266 0.0
C2376 C 1.01271 0.29991 1.00936 0.0
C2377 C 0.07261 0.36472 0.0212 0.0
C2378 C 0.02901 0.34186 0.02375 0.0
C2379 C 0.95407 0.28763 0.02 0.0
C2380 C 0.92394 0.25609 1.0138 0.0
C2381 C 0.99848 0.30961 0.01781 0.0
C2382 C 0.93943 0.24607 1.00562 0.0
C2383 C 0.98298 0.26764 1.00343 0.0
H2384 H 0.72424 0.643 0.02594 0.0
H2385 H 0.81382 0.71219 1.00365 0.0
H2386 H 0.77891 0.7543 1.00085 0.0
H2387 H 0.71988 0.76846 1.00386 0.0
H2388 H 0.62875 0.69881 0.02581 0.0
H2389 H 0.66713 0.66047 0.02961 0.0
C2390 C 0.73658 0.66781 0.02059 0.0
C2391 C 0.77172 0.67415 1.01501 0.0
C2392 C 0.71568 0.6917 0.01886 0.0
C2393 C 0.7868 0.70625 1.00804 0.0
C2394 C 0.76676 0.73042 1.0064 0.0
C2395 C 0.70859 0.74514 1.00953 0.0
C2396 C 0.67126 0.73639 1.01449 0.0
C2397 C 0.73065 0.72288 1.01162 0.0
C2398 C 0.65726 0.7061 0.02183 0.0
C2399 C 0.67922 0.68409 0.02401 0.0
H2400 H 0.7403 0.10263 0.83805 0.0
H2401 H 0.7643 0.02485 0.85745 0.0
H2402 H 0.68792 0.98395 0.86135 0.0
H2403 H 0.61288 0.96801 0.85871 0.0
H2404 H 0.59061 0.04698 0.83919 0.0
H2405 H 0.66681 0.08918 0.83599 0.0
C2406 C 0.72889 0.07687 0.84317 0.0
C2407 C 0.75821 0.06681 0.8474 0.0
C2408 C 0.68477 0.05337 0.84538 0.0
C2409 C 0.74262 0.03333 0.85405 0.0
C2410 C 0.69879 0.00984 0.85628 0.0
C2411 C 0.62472 0.99475 0.85384 0.0
C2412 C 0.59537 1.00384 0.84921 0.0
C2413 C 0.66931 0.01923 0.85193 0.0
C2414 C 0.61183 0.03868 0.84287 0.0
C2415 C 0.65571 0.06305 0.84101 0.0
H2416 H 0.96988 0.70198 0.85426 0.0
H2417 H 0.93143 0.65731 0.82574 0.0
H2418 H 0.96108 0.60988 0.82716 0.0
H2419 H 1.00186 0.58379 0.83597 0.0
H2420 H 0.04292 0.6286 0.86437 0.0
H2421 H 1.00854 0.67249 0.86352 0.0
C2422 C 0.96761 0.68145 0.84842 0.0
C2423 C 0.94845 0.68343 0.83989 0.0
C2424 C 0.98558 0.65426 0.84921 0.0
C2425 C 0.94609 0.65674 0.83238 0.0
C2426 C 0.96313 0.62949 0.83316 0.0
C2427 C 1.00305 0.60279 0.84203 0.0
C2428 C 0.02526 0.60272 0.85021 0.0
C2429 C 0.98358 0.62843 0.84147 0.0
C2430 C 0.02619 0.6278 0.85796 0.0
C2431 C 1.00655 0.65312 0.85748 0.0
H2432 H 0.36128 0.28974 0.83157 0.0
H2433 H 0.31048 0.2571 0.85972 0.0
H2434 H 0.35079 0.33342 0.86424 0.0
H2435 H 0.39865 0.41093 0.8598 0.0
H2436 H 0.44984 0.43975 0.8315 0.0
H2437 H 0.41175 0.36426 0.82756 0.0
C2438 C 0.35921 0.29917 0.83874 0.0
C2439 C 0.33265 0.26754 0.84527 0.0
C2440 C 0.38268 0.34293 0.84128 0.0
C2441 C 0.3307 0.28059 0.85453 0.0
C2442 C 0.3537 0.32438 0.8571 0.0
C2443 C 0.40182 0.4007 0.85281 0.0
C2444 C 0.42732 0.43195 0.84598 0.0
C2445 C 0.37958 0.35614 0.85049 0.0
C2446 C 0.43068 0.41733 0.83696 0.0
C2447 C 0.40871 0.37377 0.83464 0.0
H2448 H 0.65076 0.9353 1.0051 0.0
H2449 H 0.71529 0.91388 0.02833 0.0
H2450 H 0.75643 0.99075 0.03134 0.0
H2451 H 0.77177 0.06441 0.02804 0.0
H2452 H 0.70661 0.08647 1.0051 0.0
H2453 H 0.66863 0.00982 1.00133 0.0
C2454 C 0.67422 0.94746 1.01074 0.0
C2455 C 0.67962 0.91838 0.01648 0.0
C2456 C 0.69764 0.99215 1.01256 0.0
C2457 C 0.71008 0.9351 0.0238 0.0
C2458 C 0.73372 0.97927 0.02556 0.0
C2459 C 0.74948 0.05249 0.02218 0.0
C2460 C 0.74197 0.08131 0.0169 0.0
C2461 C 0.72736 1.00812 0.02009 0.0
C2462 C 0.71295 0.06513 1.00932 0.0
C2463 C 0.69114 0.02117 1.00715 0.0
H2464 H 0.96303 0.69632 0.03055 0.0
H2465 H 0.93586 0.63263 1.00363 0.0
H2466 H 1.01227 0.67391 0.99947 0.0
H2467 H 0.08827 0.72549 1.00409 0.0
H2468 H 0.11199 0.78958 0.03106 0.0
H2469 H 0.03609 0.75122 0.0345 0.0
C2470 C 0.97371 0.69173 0.02372 0.0
C2471 C 0.94372 0.66133 0.01742 0.0
C2472 C 0.01747 0.71568 0.0214 0.0
C2473 C 0.95815 0.65603 1.00858 0.0
C2474 C 1.00197 0.67951 1.00624 0.0
C2475 C 0.07679 0.73145 1.01066 0.0
C2476 C 0.10655 0.76043 0.01731 0.0
C2477 C 0.0322 0.70909 1.01266 0.0
C2478 C 0.09055 0.76754 0.02578 0.0
C2479 C 0.04684 0.74546 0.0278 0.0
H2480 H 0.3008 0.36883 1.00501 0.0
H2481 H 0.22867 0.32097 0.03077 0.0
H2482 H 0.26441 0.27979 0.03399 0.0
H2483 H 0.31873 0.25961 0.02993 0.0
H2484 H 0.39318 0.3097 1.00457 0.0
H2485 H 0.35408 0.34728 1.00076 0.0
C2486 C 0.29248 0.34902 1.01128 0.0
C2487 C 0.2618 0.34815 0.01762 0.0
C2488 C 0.31391 0.32586 1.0132 0.0
C2489 C 0.25205 0.32252 0.02575 0.0
C2490 C 0.27258 0.29889 0.02761 0.0
C2491 C 0.3262 0.27852 0.02354 0.0
C2492 C 0.359 0.28182 0.01756 0.0
C2493 C 0.30396 0.30068 0.02146 0.0
C2494 C 0.36826 0.30664 1.00932 0.0
C2495 C 0.34586 0.32819 1.00714 0.0
H2496 H 0.09005 0.32254 0.52664 0.0
H2497 H 0.09066 0.37752 0.49959 0.0
H2498 H 1.01261 0.34355 0.5 0.0
H2499 H 0.94321 0.30125 0.50865 0.0
H2500 H 0.94514 0.24754 0.53572 0.0
H2501 H 0.02196 0.27731 0.53462 0.0
C2502 C 0.07323 0.32687 0.52078 0.0
C2503 C 0.09671 0.35289 0.51313 0.0
C2504 C 0.02816 0.30734 0.52106 0.0
C2505 C 0.07382 0.35775 0.5056 0.0
C2506 C 0.02894 0.33835 0.50584 0.0
C2507 C 0.96043 0.29558 0.51421 0.0
C2508 C 0.93807 0.27218 0.52228 0.0
C2509 C 1.00558 0.31346 0.51361 0.0
C2510 C 0.96122 0.26555 0.52945 0.0
C2511 C 1.00543 0.28266 0.52885 0.0
H2512 H 0.70046 0.75718 0.5053 0.0
H2513 H 0.60923 0.70206 0.52795 0.0
H2514 H 0.63459 0.65221 0.53146 0.0
H2515 H 0.6846 0.62569 0.52871 0.0
H2516 H 0.77944 0.68231 0.50683 0.0
H2517 H 0.75121 0.72951 0.50244 0.0
C2518 C 0.68597 0.73393 0.51093 0.0
C2519 C 0.65271 0.73336 0.51632 0.0
C2520 C 0.70167 0.70561 0.51312 0.0
C2521 C 0.63475 0.70333 0.52368 0.0
C2522 C 0.64932 0.67473 0.52572 0.0
C2523 C 0.69902 0.64819 0.52295 0.0
C2524 C 0.73411 0.65015 0.5181 0.0
C2525 C 0.68307 0.67583 0.52058 0.0
C2526 C 0.75234 0.6798 0.51067 0.0
C2527 C 0.73619 0.70696 0.50817 0.0
H2528 H 0.30942 0.94094 0.50383 0.0
H2529 H 0.22156 0.91717 0.52674 0.0
H2530 H 0.25542 0.99377 0.5299 0.0
H2531 H 0.31288 0.06788 0.5269 0.0
H2532 H 0.40212 0.09234 0.50431 0.0
H2533 H 0.36506 0.016 0.50031 0.0
C2534 C 0.29728 0.95256 0.50942 0.0
C2535 C 0.26291 0.92291 0.51503 0.0
C2536 C 0.31752 0.99712 0.51134 0.0
C2537 C 0.24804 0.93888 0.52231 0.0
C2538 C 0.26746 0.98289 0.52415 0.0
C2539 C 0.324 0.05654 0.52105 0.0
C2540 C 0.36044 0.08592 0.51596 0.0
C2541 C 0.3027 0.01233 0.51884 0.0
C2542 C 0.37432 0.07052 0.5084 0.0
C2543 C 0.35309 0.02674 0.5061 0.0
H2544 H 0.99801 0.41744 0.33599 0.0
H2545 H 0.04257 0.4161 0.36415 0.0
H2546 H 1.00593 0.33792 0.36388 0.0
H2547 H 0.96375 0.26828 0.35525 0.0
H2548 H 0.91953 0.27125 0.32714 0.0
H2549 H 0.95246 0.34878 0.32789 0.0
C2550 C 0.9995 0.40017 0.34211 0.0
C2551 C 0.0235 0.4234 0.35005 0.0
C2552 C 0.97808 0.35465 0.34195 0.0
C2553 C 0.02459 0.39973 0.35789 0.0
C2554 C 1.00355 0.35463 0.35776 0.0
C2555 C 0.96071 0.28585 0.34937 0.0
C2556 C 0.939 0.26339 0.34114 0.0
C2557 C 0.98045 0.33147 0.34978 0.0
C2558 C 0.93602 0.28724 0.33357 0.0
C2559 C 0.95504 0.33192 0.33396 0.0
H2560 H 0.75072 0.70744 0.3563 0.0
H2561 H 0.7538 0.64409 0.33071 0.0
H2562 H 0.67605 0.59992 0.33092 0.0
H2563 H 0.60626 0.58028 0.33803 0.0
H2564 H 0.60266 0.64091 0.36401 0.0
H2565 H 0.68061 0.68433 0.364 0.0
C2566 C 0.73433 0.68382 0.3508 0.0
C2567 C 0.75832 0.6795 0.34346 0.0
C2568 C 0.68915 0.65781 0.35101 0.0
C2569 C 0.73642 0.64838 0.33644 0.0
C2570 C 0.69175 0.62301 0.33654 0.0
C2571 C 0.62246 0.60281 0.34372 0.0
C2572 C 0.59815 0.60716 0.35099 0.0
C2573 C 0.66765 0.62761 0.34374 0.0
C2574 C 0.62014 0.6365 0.35833 0.0
C2575 C 0.66494 0.66162 0.35831 0.0
H2576 H 0.31222 0.05085 0.35615 0.0
H2577 H 0.35691 0.09326 0.32784 0.0
H2578 H 0.40403 0.06307 0.3288 0.0
H2579 H 0.43029 0.02095 0.33713 0.0
H2580 H 0.38497 0.97508 0.36522 0.0
H2581 H 0.34119 0.00974 0.36486 0.0
C2582 C 0.33276 0.05401 0.35026 0.0
C2583 C 0.33086 0.07472 0.34193 0.0
C2584 C 0.35969 0.03536 0.35076 0.0
C2585 C 0.35744 0.0777 0.33434 0.0
C2586 C 0.3845 0.06024 0.33486 0.0
C2587 C 0.4112 0.01867 0.34324 0.0
C2588 C 0.41143 0.99509 0.35119 0.0
C2589 C 0.38552 0.03838 0.34295 0.0
C2590 C 0.38591 0.99281 0.35897 0.0
C2591 C 0.36062 0.01272 0.35877 0.0
H2592 H 0.21676 0.34757 0.08325 0.0
H2593 H 0.10756 0.36651 0.08209 0.0
H2594 H 0.09452 0.35018 0.09882 0.0
H2595 H 0.1142 0.33152 0.11389 0.0
H2596 H 0.22387 0.31369 0.11541 0.0
H2597 H 0.23652 0.32853 0.09851 0.0
C2598 C 0.19017 0.34821 0.08666 0.0
C2599 C 0.16302 0.35797 0.08132 0.0
C2600 C 0.18292 0.33908 0.09639 0.0
C2601 C 0.12852 0.35827 0.0859 0.0
C2602 C 0.1212 0.34929 0.09553 0.0
C2603 C 0.14119 0.33131 0.11056 0.0
C2604 C 0.1682 0.32179 0.11598 0.0
C2605 C 0.14826 0.33986 0.10085 0.0
C2606 C 0.20238 0.32068 0.11144 0.0
C2607 C 0.20974 0.32934 0.10177 0.0
H2608 H 0.67024 0.8732 0.08516 0.0
H2609 H 0.67638 0.75699 0.08204 0.0
H2610 H 0.69255 0.7584 0.09876 0.0
H2611 H 0.70552 0.79236 0.11429 0.0
H2612 H 0.70001 0.90865 0.11776 0.0
H2613 H 0.68341 0.9076 0.10097 0.0
C2614 C 0.67503 0.84817 0.08815 0.0
C2615 C 0.67246 0.81526 0.08227 0.0
C2616 C 0.68454 0.84918 0.09786 0.0
C2617 C 0.67895 0.78319 0.08631 0.0
C2618 C 0.68794 0.78377 0.09591 0.0
C2619 C 0.70021 0.81727 0.11142 0.0
C2620 C 0.70376 0.85036 0.11735 0.0
C2621 C 0.69087 0.81657 0.10175 0.0
C2622 C 0.69774 0.88287 0.11339 0.0
C2623 C 0.68806 0.8822 0.10377 0.0
H2624 H 0.20366 0.82314 0.11729 0.0
H2625 H 0.144 0.9008 0.11396 0.0
H2626 H 0.14481 0.89372 0.09686 0.0
H2627 H 0.16587 0.86874 0.08271 0.0
H2628 H 0.22758 0.79298 0.08607 0.0
H2629 H 0.22222 0.7959 0.10316 0.0
C2630 C 0.19088 0.83862 0.11283 0.0
C2631 C 0.17392 0.86262 0.117 0.0
C2632 C 0.19181 0.8348 0.10294 0.0
C2633 C 0.15683 0.8817 0.11104 0.0
C2634 C 0.15757 0.87796 0.10122 0.0
C2635 C 0.1782 0.85287 0.08717 0.0
C2636 C 0.19719 0.83071 0.083 0.0
C2637 C 0.17551 0.85508 0.09707 0.0
C2638 C 0.21227 0.8098 0.08897 0.0
C2639 C 0.20957 0.81175 0.09879 0.0
H2640 H 0.30931 0.15829 0.44851 0.0
H2641 H 0.44585 0.2396 0.44537 0.0
H2642 H 0.43783 0.23804 0.42827 0.0
H2643 H 0.39279 0.20958 0.41411 0.0
H2644 H 0.25657 0.12626 0.41721 0.0
H2645 H 0.26378 0.13286 0.43433 0.0
C2646 C 0.33732 0.17575 0.44409 0.0
C2647 C 0.37815 0.19889 0.44828 0.0
C2648 C 0.3326 0.17425 0.43421 0.0
C2649 C 0.41395 0.2219 0.44241 0.0
C2650 C 0.40946 0.22074 0.43259 0.0
C2651 C 0.36465 0.19288 0.41852 0.0
C2652 C 0.32423 0.16727 0.41432 0.0
C2653 C 0.36906 0.19639 0.42841 0.0
C2654 C 0.28805 0.14653 0.42019 0.0
C2655 C 0.29217 0.15002 0.43002 0.0
H2656 H 0.9208 0.23657 0.41674 0.0
H2657 H 0.81266 0.10833 0.41505 0.0
H2658 H 0.79887 0.11042 0.43188 0.0
H2659 H 0.81743 0.14888 0.44728 0.0
H2660 H 0.92546 0.27741 0.44865 0.0
H2661 H 0.93886 0.27483 0.4319 0.0
C2662 C 0.89388 0.20913 0.41998 0.0
C2663 C 0.86787 0.17235 0.41448 0.0
C2664 C 0.88605 0.21049 0.42973 0.0
C2665 C 0.83368 0.13699 0.41901 0.0
C2666 C 0.82558 0.13823 0.42868 0.0
C2667 C 0.84382 0.17641 0.44392 0.0
C2668 C 0.87059 0.21317 0.44939 0.0
C2669 C 0.85155 0.17483 0.43414 0.0
C2670 C 0.90473 0.24829 0.4448 0.0
C2671 C 0.91231 0.24701 0.43514 0.0
H2672 H 0.81553 0.62964 0.41501 0.0
H2673 H 0.89408 0.76673 0.41838 0.0
H2674 H 0.8918 0.75837 0.43546 0.0
H2675 H 0.86501 0.71272 0.44958 0.0
H2676 H 0.78384 0.57595 0.44626 0.0
H2677 H 0.78994 0.58377 0.42916 0.0
C2678 C 0.83209 0.65777 0.41946 0.0
C2679 C 0.85498 0.69881 0.41529 0.0
C2680 C 0.83019 0.65286 0.42936 0.0
C2681 C 0.87674 0.73465 0.42127 0.0
C2682 C 0.87516 0.72996 0.4311 0.0
C2683 C 0.84845 0.68455 0.44514 0.0
C2684 C 0.82387 0.64376 0.44932 0.0
C2685 C 0.85159 0.68929 0.43524 0.0
C2686 C 0.80346 0.60772 0.44335 0.0
C2687 C 0.80663 0.61219 0.43352 0.0
H2688 H 0.90621 0.74653 0.91795 0.0
H2689 H 0.80368 0.62192 0.9096 0.0
H2690 H 0.78874 0.60059 0.92612 0.0
H2691 H 0.80678 0.6159 0.94296 0.0
H2692 H 0.90848 0.74089 0.95135 0.0
H2693 H 0.9214 0.76331 0.93486 0.0
C2694 C 0.88013 0.71492 0.91972 0.0
C2695 C 0.85637 0.68588 0.91245 0.0
C2696 C 0.87165 0.70272 0.92929 0.0
C2697 C 0.82307 0.64483 0.91497 0.0
C2698 C 0.81433 0.63261 0.92445 0.0
C2699 C 0.83135 0.6483 0.94122 0.0
C2700 C 0.85673 0.67649 0.94848 0.0
C2701 C 0.83873 0.66107 0.93168 0.0
C2702 C 0.88883 0.71815 0.94598 0.0
C2703 C 0.89614 0.73112 0.93652 0.0
H2704 H 0.38966 0.1847 0.9148 0.0
H2705 H 0.25247 0.12101 0.91811 0.0
H2706 H 0.2606 0.12444 0.93521 0.0
H2707 H 0.30664 0.14922 0.94933 0.0
H2708 H 0.44389 0.21549 0.94598 0.0
H2709 H 0.43561 0.20717 0.92892 0.0
C2710 C 0.36148 0.17158 0.91924 0.0
C2711 C 0.32049 0.15269 0.91508 0.0
C2712 C 0.36636 0.1742 0.92914 0.0
C2713 C 0.28444 0.13523 0.92103 0.0
C2714 C 0.28905 0.13751 0.93086 0.0
C2715 C 0.33479 0.16188 0.94488 0.0
C2716 C 0.37586 0.18303 0.94902 0.0
C2717 C 0.32985 0.15749 0.935 0.0
C2718 C 0.41184 0.19855 0.94308 0.0
C2719 C 0.40716 0.19413 0.93327 0.0
H2720 H 0.89592 0.20631 0.91728 0.0
H2721 H 0.76875 0.09813 0.91362 0.0
H2722 H 0.75426 0.09949 0.93034 0.0
H2723 H 0.77765 0.12999 0.94607 0.0
H2724 H 0.90428 0.23806 0.95012 0.0
H2725 H 0.91899 0.23825 0.93322 0.0
C2726 C 0.86507 0.1831 0.92016 0.0
C2727 C 0.83339 0.15236 0.91415 0.0
C2728 C 0.85686 0.18392 0.92986 0.0
C2729 C 0.79347 0.12266 0.918 0.0
C2730 C 0.78522 0.12316 0.92759 0.0
C2731 C 0.80864 0.15339 0.94328 0.0
C2732 C 0.84 0.18361 0.94937 0.0
C2733 C 0.81671 0.15341 0.93359 0.0
C2734 C 0.87958 0.21442 0.94558 0.0
C2735 C 0.88803 0.21445 0.93593 0.0
H2736 H 0.64217 0.87887 0.58501 0.0
H2737 H 0.66679 0.77477 0.58014 0.0
H2738 H 0.68354 0.77468 0.59691 0.0
H2739 H 0.69227 0.80539 0.61303 0.0
H2740 H 0.66673 0.90928 0.6175 0.0
H2741 H 0.64955 0.90832 0.60087 0.0
C2742 C 0.65154 0.85634 0.58759 0.0
C2743 C 0.6536 0.82715 0.58129 0.0
C2744 C 0.66091 0.85638 0.59721 0.0
C2745 C 0.66482 0.79753 0.58483 0.0
C2746 C 0.67457 0.79759 0.59442 0.0
C2747 C 0.68293 0.82776 0.61035 0.0
C2748 C 0.68046 0.85711 0.61657 0.0
C2749 C 0.67288 0.82702 0.60069 0.0
C2750 C 0.66814 0.88579 0.61296 0.0
C2751 C 0.65857 0.8855 0.60341 0.0
H2752 H 0.21402 0.81519 0.58465 0.0
H2753 H 0.13636 0.87012 0.57632 0.0
H2754 H 0.1272 0.88306 0.59282 0.0
H2755 H 0.13728 0.87469 0.60967 0.0
H2756 H 0.21681 0.82196 0.61803 0.0
H2757 H 0.22934 0.81268 0.6015 0.0
C2758 C 0.19575 0.83074 0.5864 0.0
C2759 C 0.17553 0.84113 0.57917 0.0
C2760 C 0.19062 0.83825 0.59595 0.0
C2761 C 0.1516 0.86087 0.58169 0.0
C2762 C 0.14648 0.86852 0.59114 0.0
C2763 C 0.15805 0.86193 0.60791 0.0
C2764 C 0.17569 0.84872 0.61517 0.0
C2765 C 0.16523 0.85669 0.59835 0.0
C2766 C 0.20206 0.8317 0.61265 0.0
C2767 C 0.20944 0.82654 0.60317 0.0
H2768 H 0.2017 0.30762 0.58064 0.0
H2769 H 0.14927 0.39164 0.58411 0.0
H2770 H 0.13935 0.37519 0.60095 0.0
H2771 H 0.14625 0.33725 0.61485 0.0
H2772 H 0.19766 0.25253 0.61105 0.0
H2773 H 0.20627 0.26824 0.59424 0.0
C2774 C 0.18737 0.32184 0.58501 0.0
C2775 C 0.17632 0.35092 0.58101 0.0
C2776 C 0.18147 0.31204 0.5947 0.0
C2777 C 0.15866 0.36958 0.58693 0.0
C2778 C 0.15278 0.36004 0.59659 0.0
C2779 C 0.15939 0.3223 0.61034 0.0
C2780 C 0.17101 0.29348 0.61426 0.0
C2781 C 0.16435 0.33152 0.60058 0.0
C2782 C 0.18774 0.27424 0.60826 0.0
C2783 C 0.19295 0.28342 0.59862 0.0
H2784 H 0.94279 0.47995 0.7534 0.0
H2785 H 0.07529 0.54438 0.74483 0.0
H2786 H 0.09775 0.55743 0.7613 0.0
H2787 H 0.08003 0.5472 0.7782 0.0
H2788 H 0.94761 0.48498 0.78679 0.0
H2789 H 0.92517 0.47482 0.7703 0.0
C2790 C 0.97662 0.49755 0.7551 0.0
C2791 C 1.00718 0.51074 0.74779 0.0
C2792 C 0.98946 0.50515 0.76464 0.0
C2793 C 0.05088 0.53302 0.75024 0.0
C2794 C 0.06384 0.54073 0.75969 0.0
C2795 C 0.04625 0.53212 0.77651 0.0
C2796 C 0.01566 0.5166 0.78382 0.0
C2797 C 0.03344 0.52642 0.76696 0.0
C2798 C 0.972 0.49659 0.78137 0.0
C2799 C 0.95907 0.49092 0.77192 0.0
H2800 H 0.52504 0.47276 0.75346 0.0
H2801 H 0.52845 0.58833 0.74386 0.0
H2802 H 0.51782 0.60483 0.75995 0.0
H2803 H 0.51077 0.58869 0.77689 0.0
H2804 H 0.50727 0.4734 0.78668 0.0
H2805 H 0.51573 0.4554 0.7705 0.0
C2806 C 0.52355 0.50161 0.75487 0.0
C2807 C 0.52739 0.52903 0.74734 0.0
C2808 C 0.51784 0.51134 0.76424 0.0
C2809 C 0.52484 0.56604 0.7494 0.0
C2810 C 0.51913 0.5758 0.75865 0.0
C2811 C 0.51121 0.55926 0.77551 0.0
C2812 C 0.50846 0.53262 0.78311 0.0
C2813 C 0.51586 0.54889 0.76614 0.0
C2814 C 0.50995 0.49502 0.78107 0.0
C2815 C 0.51454 0.48451 0.77178 0.0
H2816 H 0.52234 0.08022 0.75352 0.0
H2817 H 0.51154 0.95979 0.74519 0.0
H2818 H 0.50426 0.93781 0.7617 0.0
H2819 H 0.49876 0.95183 0.77856 0.0
H2820 H 0.50883 0.07221 0.78673 0.0
H2821 H 0.51981 0.09538 0.77033 0.0
C2822 C 0.5191 0.04942 0.7553 0.0
C2823 C 0.51735 0.02173 0.74804 0.0
C2824 C 0.51488 0.0369 0.76484 0.0
C2825 C 0.51239 0.98162 0.75056 0.0
C2826 C 0.5084 0.96906 0.76003 0.0
C2827 C 0.50329 0.98312 0.77677 0.0
C2828 C 0.50298 0.01013 0.78397 0.0
C2829 C 0.50907 0.99621 0.76724 0.0
C2830 C 0.50955 0.05084 0.78144 0.0
C2831 C 0.51548 0.06407 0.77202 0.0
H2832 H 0.47502 1.00444 0.251 0.0
H2833 H 0.61207 0.05843 0.2498 0.0
H2834 H 0.61417 0.04827 0.26673 0.0
H2835 H 0.57752 0.02387 0.28191 0.0
H2836 H 0.44083 0.97157 0.28341 0.0
H2837 H 0.43829 0.98121 0.26639 0.0
C2838 C 0.50539 0.01425 0.25445 0.0
C2839 C 0.54329 0.03191 0.24905 0.0
C2840 C 0.5065 1.00858 0.26427 0.0
C2841 C 0.58225 0.04399 0.25368 0.0
C2842 C 0.58357 0.0385 0.26341 0.0
C2843 C 0.54718 0.01507 0.27856 0.0
C2844 C 0.50946 0.99713 0.28401 0.0
C2845 C 0.54594 0.02082 0.26878 0.0
C2846 C 0.47037 0.98508 0.27943 0.0
C2847 C 0.4689 0.99077 0.26969 0.0
H2848 H 0.02216 0.47361 0.28029 0.0
H2849 H 0.03572 0.59941 0.28271 0.0
H2850 H 0.02211 0.5996 0.26589 0.0
H2851 H 1.00591 0.56444 0.25043 0.0
H2852 H 0.99118 0.43836 0.24768 0.0
H2853 H 1.00529 0.43781 0.26458 0.0
C2854 C 0.02223 0.50107 0.27712 0.0
C2855 C 0.02966 0.53632 0.28285 0.0
C2856 C 0.01404 0.50094 0.26734 0.0
C2857 C 0.02939 0.57151 0.27857 0.0
C2858 C 0.02185 0.5718 0.26891 0.0
C2859 C 1.0062 0.53694 0.25348 0.0
C2860 C 0.99774 0.50162 0.24771 0.0
C2861 C 0.01408 0.53674 0.26322 0.0
C2862 C 0.99733 0.46595 0.25191 0.0
C2863 C 1.00559 0.46569 0.26159 0.0
H2864 H 0.50424 0.53542 0.24848 0.0
H2865 H 0.55569 0.45024 0.25129 0.0
H2866 H 0.55445 0.45557 0.26841 0.0
H2867 H 0.53568 0.48152 0.28271 0.0
H2868 H 0.48103 0.56395 0.27991 0.0
H2869 H 0.48703 0.56275 0.2628 0.0
C2870 C 0.51511 0.51789 0.25282 0.0
C2871 C 0.53004 0.49243 0.24848 0.0
C2872 C 0.51378 0.52058 0.26274 0.0
C2873 C 0.54461 0.47063 0.25432 0.0
C2874 C 0.54359 0.47335 0.26416 0.0
C2875 C 0.5249 0.49915 0.27838 0.0
C2876 C 0.50782 0.52274 0.28272 0.0
C2877 C 0.52776 0.4978 0.26846 0.0
C2878 C 0.49489 0.54597 0.27689 0.0
C2879 C 0.49794 0.54501 0.26705 0.0
H2880 H 1.00826 0.13074 0.28052 0.0
H2881 H 0.94138 0.20168 0.27753 0.0
H2882 H 0.97016 0.22321 0.26163 0.0
H2883 H 1.01287 0.22033 0.24825 0.0
H2884 H 0.07913 0.1488 0.25137 0.0
H2885 H 0.05131 0.12851 0.26732 0.0
C2886 C 0.99959 0.15063 0.27639 0.0
C2887 C 0.97244 0.16437 0.28033 0.0
C2888 C 0.01595 0.16262 0.26716 0.0
C2889 C 0.96254 0.19091 0.27483 0.0
C2890 C 0.97879 0.20305 0.26566 0.0
C2891 C 0.02149 0.20054 0.25243 0.0
C2892 C 0.04786 0.18585 0.24846 0.0
C2893 C 1.00542 0.18898 0.26172 0.0
C2894 C 0.05826 0.15994 0.25406 0.0
C2895 C 0.04257 0.14852 0.26326 0.0
H2896 H 0.7998 0.79285 0.28231 0.0
H2897 H 0.93671 0.873 0.27965 0.0
H2898 H 0.92819 0.89032 0.26348 0.0
H2899 H 0.88229 0.88308 0.24993 0.0
H2900 H 0.74525 0.80381 0.25252 0.0
H2901 H 0.75367 0.78521 0.26862 0.0
C2902 C 0.82784 0.8139 0.27819 0.0
C2903 C 0.86889 0.83184 0.28236 0.0
C2904 C 0.82278 0.8238 0.26877 0.0
C2905 C 0.90463 0.85929 0.27681 0.0
C2906 C 0.89984 0.86905 0.26748 0.0
C2907 C 0.85411 0.86198 0.25401 0.0
C2908 C 0.81312 0.84497 0.24986 0.0
C2909 C 0.85909 0.8517 0.26338 0.0
C2910 C 0.7773 0.81703 0.25534 0.0
C2911 C 0.78205 0.80656 0.26464 0.0
H2912 H 0.22571 0.07601 0.27618 0.0
H2913 H 0.1158 0.96923 0.28904 0.0
H2914 H 0.09615 0.93162 0.27396 0.0
H2915 H 0.10934 0.92885 0.25705 0.0
H2916 H 0.21854 0.03566 0.244 0.0
H2917 H 0.23966 0.07259 0.25919 0.0
C2918 C 0.1977 0.04433 0.27571 0.0
C2919 C 0.17215 0.02582 0.28379 0.0
C2920 C 0.18642 0.02263 0.26695 0.0
C2921 C 0.13573 0.98479 0.28296 0.0
C2922 C 0.12454 0.96305 0.27432 0.0
C2923 C 0.1376 0.96037 0.25748 0.0
C2924 C 0.16211 0.97927 0.2493 0.0
C2925 C 0.1494 0.98176 0.26625 0.0
C2926 C 0.19917 0.01985 0.25013 0.0
C2927 C 0.21118 0.04123 0.25884 0.0
H2928 H 1.00569 0.79695 0.7796 0.0
H2929 H 0.93963 0.86844 0.77603 0.0
H2930 H 0.96404 0.88414 0.75975 0.0
H2931 H 1.00423 0.87815 0.74639 0.0
H2932 H 0.07129 0.80759 0.74985 0.0
H2933 H 0.04556 0.79027 0.76606 0.0
C2934 C 0.99633 0.81569 0.77526 0.0
C2935 C 0.97105 0.83177 0.7792 0.0
C2936 C 1.01049 0.82468 0.76577 0.0
C2937 C 0.9597 0.85627 0.77337 0.0
C2938 C 0.97344 0.86509 0.76398 0.0
C2939 C 0.0136 0.85923 0.75068 0.0
C2940 C 0.03986 0.84431 0.74676 0.0
C2941 C 0.99907 0.84973 0.7601 0.0
C2942 C 0.0507 0.81914 0.7525 0.0
C2943 C 0.03621 0.80943 0.76186 0.0
H2944 H 0.21823 0.20852 0.74752 0.0
H2945 H 0.09321 0.18839 0.75475 0.0
H2946 H 0.10276 0.17255 0.77097 0.0
H2947 H 0.14601 0.16365 0.7832 0.0
H2948 H 0.2709 0.18318 0.77612 0.0
H2949 H 0.26234 0.20089 0.75993 0.0
C2950 C 0.19323 0.20106 0.75265 0.0
C2951 C 0.15483 0.19929 0.7498 0.0
C2952 C 0.19893 0.19199 0.76208 0.0
C2953 C 0.12276 0.18921 0.75662 0.0
C2954 C 0.12827 0.18036 0.76595 0.0
C2955 C 0.17132 0.17151 0.77812 0.0
C2956 C 0.20908 0.17197 0.78097 0.0
C2957 C 0.16606 0.18133 0.76876 0.0
C2958 C 0.2417 0.18304 0.77424 0.0
C2959 C 0.23672 0.19292 0.76493 0.0
H2960 H 0.80204 1.00371 0.78301 0.0
H2961 H 0.93016 0.10572 0.77707 0.0
H2962 H 0.92125 0.08503 0.76049 0.0
H2963 H 0.87756 0.03787 0.74759 0.0
H2964 H 0.74985 0.93479 0.75345 0.0
H2965 H 0.75784 0.95663 0.76997 0.0
C2966 C 0.8279 0.0216 0.77808 0.0
C2967 C 0.86689 0.05605 0.78137 0.0
C2968 C 0.8226 0.00949 0.76847 0.0
C2969 C 0.90008 0.07859 0.77483 0.0
C2970 C 0.89494 0.06695 0.7653 0.0
C2971 C 0.85149 0.01992 0.75247 0.0
C2972 C 0.81309 0.98467 0.74917 0.0
C2973 C 0.85647 0.03229 0.76204 0.0
C2974 C 0.77955 0.96245 0.75566 0.0
C2975 C 0.7842 0.97473 0.76517 0.0
H2976 H 0.68116 0.54958 0.61622 0.0
H2977 H 0.60427 0.41376 0.61081 0.0
H2978 H 0.63087 0.42445 0.59469 0.0
H2979 H 0.67614 0.47191 0.58199 0.0
H2980 H 0.75353 0.60775 0.58726 0.0
H2981 H 0.72583 0.5975 0.60333 0.0
C2982 C 0.6699 0.52232 0.61151 0.0
C2983 C 0.64092 0.48076 0.61488 0.0
C2984 C 0.68531 0.52867 0.60212 0.0
C2985 C 0.62716 0.446 0.60858 0.0
C2986 C 0.64217 0.4521 0.59929 0.0
C2987 C 0.68728 0.49935 0.58664 0.0
C2988 C 0.71708 0.54063 0.58328 0.0
C2989 C 0.67147 0.49322 0.59597 0.0
C2990 C 0.73026 0.57566 0.58949 0.0
C2991 C 0.71462 0.56979 0.59876 0.0
H2992 H 0.47034 0.13718 0.61458 0.0
H2993 H 0.60583 0.19036 0.60999 0.0
H2994 H 0.59744 0.20474 0.59357 0.0
H2995 H 0.55209 0.20285 0.58037 0.0
H2996 H 0.41669 0.15073 0.58489 0.0
H2997 H 0.42461 0.13461 0.60123 0.0
C2998 C 0.49802 0.15161 0.60999 0.0
C2999 C 0.53881 0.16298 0.61367 0.0
C3000 C 0.49302 0.1599 0.60043 0.0
C3001 C 0.57416 0.18196 0.60751 0.0
C3002 C 0.56938 0.19 0.59805 0.0
C3003 C 0.52424 0.18823 0.58491 0.0
C3004 C 0.48376 0.17806 0.58124 0.0
C3005 C 0.52904 0.17941 0.59442 0.0
C3006 C 0.44819 0.15841 0.58734 0.0
C3007 C 0.45272 0.14943 0.59677 0.0
H3008 H 0.80367 0.32054 0.61716 0.0
H3009 H 0.93901 0.40189 0.61224 0.0
H3010 H 0.9302 0.37522 0.59609 0.0
H3011 H 0.88359 0.33041 0.58301 0.0
H3012 H 0.7482 0.24994 0.58804 0.0
H3013 H 0.75756 0.27529 0.60427 0.0
C3014 C 0.83131 0.33277 0.61257 0.0
C3015 C 0.87202 0.36337 0.61605 0.0
C3016 C 0.82599 0.31763 0.60318 0.0
C3017 C 0.90734 0.37796 0.60992 0.0
C3018 C 0.90229 0.36292 0.6006 0.0
C3019 C 0.85615 0.31811 0.58766 0.0
C3020 C 0.8151 0.28847 0.58416 0.0
C3021 C 0.86172 0.33286 0.59711 0.0
C3022 C 0.78006 0.27333 0.59038 0.0
C3023 C 0.78539 0.28765 0.59974 0.0
H3024 H 0.73247 0.15967 0.08634 0.0
H3025 H 0.65077 0.20692 0.07612 0.0
H3026 H 0.61776 0.19583 0.09162 0.0
H3027 H 0.61197 0.17322 0.10817 0.0
H3028 H 0.69324 0.12574 0.1185 0.0
H3029 H 0.72542 0.13535 0.10289 0.0
C3030 C 0.7071 0.16708 0.08745 0.0
C3031 C 0.69457 0.1845 0.07999 0.0
C3032 C 0.6879 0.16043 0.09645 0.0
C3033 C 0.66184 0.19426 0.0817 0.0
C3034 C 0.64266 0.18768 0.09058 0.0
C3035 C 0.63696 0.16525 0.10706 0.0
C3036 C 0.65007 0.14885 0.1146 0.0
C3037 C 0.65562 0.1711 0.09804 0.0
C3038 C 0.682 0.13798 0.11288 0.0
C3039 C 0.70068 0.14372 0.10393 0.0
H3040 H 0.90733 0.49778 0.10873 0.0
H3041 H 0.79124 0.48551 0.12045 0.0
H3042 H 0.77259 0.50262 0.10517 0.0
H3043 H 0.78833 0.52041 0.08837 0.0
H3044 H 0.90405 0.53254 0.07648 0.0
H3045 H 0.92394 0.51736 0.09188 0.0
C3046 C 0.87815 0.49925 0.10798 0.0
C3047 C 0.85063 0.4898 0.11582 0.0
C3048 C 0.86746 0.50932 0.09909 0.0
C3049 C 0.81278 0.49167 0.11459 0.0
C3050 C 0.80212 0.50176 0.10582 0.0
C3051 C 0.8178 0.51946 0.08909 0.0
C3052 C 0.84445 0.52761 0.08115 0.0
C3053 C 0.82898 0.51029 0.09799 0.0
C3054 C 0.88294 0.52698 0.08239 0.0
C3055 C 0.89428 0.51796 0.09123 0.0
H3056 H 0.53061 0.42404 0.10815 0.0
H3057 H 0.53319 0.31562 0.12047 0.0
H3058 H 0.51568 0.27947 0.10522 0.0
H3059 H 0.50027 0.27834 0.0883 0.0
H3060 H 0.49751 0.38629 0.07581 0.0
H3061 H 0.51331 0.42205 0.09116 0.0
C3062 C 0.52693 0.39232 0.10753 0.0
C3063 C 0.53377 0.373 0.11553 0.0
C3064 C 0.51663 0.37137 0.09867 0.0
C3065 C 0.52908 0.3319 0.11448 0.0
C3066 C 0.51877 0.31096 0.10574 0.0
C3067 C 0.50341 0.30984 0.08889 0.0
C3068 C 0.49779 0.32945 0.08081 0.0
C3069 C 0.51282 0.33047 0.09776 0.0
C3070 C 0.50118 0.37 0.08186 0.0
C3071 C 0.51051 0.39069 0.09066 0.0
H3072 H 0.41636 0.90829 0.92213 0.0
H3073 H 0.31622 0.78768 0.91117 0.0
H3074 H 0.28332 0.76846 0.92671 0.0
H3075 H 0.28244 0.78512 0.94354 0.0
H3076 H 0.38173 0.90582 0.9546 0.0
H3077 H 0.41439 0.9258 0.93898 0.0
C3078 C 0.38709 0.87797 0.92308 0.0
C3079 C 0.36936 0.84943 0.91536 0.0
C3080 C 0.36783 0.86699 0.93213 0.0
C3081 C 0.33147 0.81013 0.91691 0.0
C3082 C 0.3123 0.79911 0.92584 0.0
C3083 C 0.31142 0.81571 0.94259 0.0
C3084 C 0.32941 0.84372 0.95038 0.0
C3085 C 0.3303 0.82708 0.93353 0.0
C3086 C 0.36663 0.88358 0.94882 0.0
C3087 C 0.38558 0.89501 0.93985 0.0
H3088 H 0.13645 0.45137 0.94756 0.0
H3089 H 0.27376 0.52063 0.94429 0.0
H3090 H 0.26614 0.53794 0.92806 0.0
H3091 H 0.22093 0.5342 0.91473 0.0
H3092 H 0.08359 0.4661 0.9179 0.0
H3093 H 0.09086 0.44673 0.93402 0.0
C3094 C 0.16469 0.46994 0.94327 0.0
C3095 C 0.20566 0.48496 0.94725 0.0
C3096 C 0.16013 0.47986 0.93385 0.0
C3097 C 0.24183 0.50927 0.94155 0.0
C3098 C 0.23753 0.51901 0.93221 0.0
C3099 C 0.1925 0.51535 0.91895 0.0
C3100 C 0.15175 0.50178 0.91501 0.0
C3101 C 0.19689 0.50476 0.92829 0.0
C3102 C 0.1154 0.47662 0.92061 0.0
C3103 C 0.11953 0.46576 0.9299 0.0
H3104 H 0.46752 0.58857 0.92338 0.0
H3105 H 0.56609 0.70318 0.91002 0.0
H3106 H 0.58664 0.7392 0.92528 0.0
H3107 H 0.57605 0.73918 0.9425 0.0
H3108 H 0.47737 0.62455 0.95584 0.0
H3109 H 0.4571 0.58845 0.94058 0.0
C3110 C 0.49327 0.62157 0.92375 0.0
C3111 C 0.51514 0.64278 0.91542 0.0
C3112 C 0.5049 0.64246 0.93262 0.0
C3113 C 0.54891 0.68546 0.91622 0.0
C3114 C 0.56059 0.70634 0.92499 0.0
C3115 C 0.55039 0.70615 0.94212 0.0
C3116 C 0.52833 0.68497 0.95044 0.0
C3117 C 0.53887 0.68522 0.93325 0.0
C3118 C 0.49469 0.64223 0.94964 0.0
C3119 C 0.48315 0.62132 0.94088 0.0
H3120 H 0.36266 0.477 0.44907 0.0
H3121 H 0.27696 0.52713 0.44526 0.0
H3122 H 0.29959 0.54444 0.4289 0.0
H3123 H 0.34394 0.54608 0.4156 0.0
H3124 H 0.43075 0.49724 0.41929 0.0
H3125 H 0.40683 0.47798 0.43558 0.0
C3126 C 0.34876 0.49147 0.44464 0.0
C3127 C 0.31842 0.50112 0.44849 0.0
C3128 C 0.36199 0.50147 0.43515 0.0
C3129 C 0.30097 0.52008 0.44261 0.0
C3130 C 0.3137 0.52979 0.4332 0.0
C3131 C 0.35793 0.53151 0.41997 0.0
C3132 C 0.38924 0.52326 0.41614 0.0
C3133 C 0.34439 0.52093 0.4294 0.0
C3134 C 0.40624 0.50355 0.42194 0.0
C3135 C 0.39277 0.49276 0.43131 0.0
H3136 H 0.54766 0.87902 0.4153 0.0
H3137 H 0.41162 0.81425 0.42049 0.0
H3138 H 0.42326 0.79957 0.43666 0.0
H3139 H 0.47168 0.80455 0.44946 0.0
H3140 H 0.60776 0.86892 0.44439 0.0
H3141 H 0.59644 0.88501 0.42827 0.0
C3142 C 0.52054 0.862 0.41997 0.0
C3143 C 0.47869 0.84746 0.41653 0.0
C3144 C 0.52744 0.85367 0.42939 0.0
C3145 C 0.44412 0.82515 0.42278 0.0
C3146 C 0.45075 0.81693 0.4321 0.0
C3147 C 0.49895 0.82186 0.44484 0.0
C3148 C 0.5406 0.83542 0.44827 0.0
C3149 C 0.49222 0.83076 0.43548 0.0
C3150 C 0.57536 0.8585 0.4421 0.0
C3151 C 0.56889 0.8675 0.43281 0.0
H3152 H 0.25045 0.75438 0.4411 0.0
H3153 H 0.13134 0.65963 0.45361 0.0
H3154 H 0.10669 0.62459 0.43831 0.0
H3155 H 0.11969 0.61909 0.42142 0.0
H3156 H 0.23896 0.71389 0.40897 0.0
H3157 H 0.26288 0.74973 0.42419 0.0
C3158 C 0.2192 0.72588 0.44053 0.0
C3159 C 0.19295 0.70986 0.44859 0.0
C3160 C 0.20522 0.70554 0.43168 0.0
C3161 C 0.1522 0.67322 0.44757 0.0
C3162 C 0.13811 0.6529 0.43881 0.0
C3163 C 0.15071 0.6479 0.42199 0.0
C3164 C 0.17745 0.66343 0.41398 0.0
C3165 C 0.16437 0.66864 0.43081 0.0
C3166 C 0.21782 0.70058 0.41498 0.0
C3167 C 0.23152 0.72134 0.4237 0.0
loop_
_geom_bond_atom_site_label_1
_geom_bond_atom_site_label_2
_geom_bond_distance
_geom_bond_site_symmetry_2
_ccdc_geom_bond_type
C0 Eu1 2.835 . S
C0 C2 1.500 . S
C0 O20 1.257 . S
C0 O21 1.260 . S
Eu1 C0 2.835 . S
Eu1 O20 2.473 . S
Eu1 O21 2.480 . S
Eu1 O22 2.430 . S
Eu1 O23 2.670 . S
Eu1 O24 2.394 . S
Eu1 O29 2.355 . S
Eu1 O31 2.374 . S
C2 C0 1.500 . S
C2 C3 1.377 . S
C2 C7 1.377 . S
C3 C2 1.377 . S
C3 C4 1.395 . S
C3 H32 0.931 . S
C4 C3 1.395 . S
C4 C5 1.383 . S
C4 H33 0.931 . S
C5 C4 1.383 . S
C5 C6 1.394 . S
C6 C5 1.394 . S
C6 C7 1.378 . S
C6 H34 0.931 . S
C7 C2 1.377 . S
C7 C6 1.378 . S
C7 H35 0.931 . S
C8 O22 1.259 . S
C8 O23 1.270 . S
C9 O24 1.251 . S
C9 O25 1.251 . S
C10 Eu11 2.835 . S
C10 C12 1.500 . S
C10 O26 1.257 . S
C10 O27 1.260 . S
Eu11 C10 2.835 . S
Eu11 O23 2.355 . S
Eu11 O25 2.374 . S
Eu11 O26 2.473 . S
Eu11 O27 2.480 . S
Eu11 O28 2.430 . S
Eu11 O29 2.670 . S
Eu11 O30 2.394 . S
C12 C10 1.500 . S
C12 C13 1.377 . S
C12 C17 1.377 . S
C13 C12 1.377 . S
C13 C14 1.395 . S
C13 H36 0.931 . S
C14 C13 1.395 . S
C14 C15 1.383 . S
C14 H37 0.931 . S
C15 C14 1.383 . S
C15 C16 1.394 . S
C16 C15 1.394 . S
C16 C17 1.378 . S
C16 H38 0.931 . S
C17 C12 1.377 . S
C17 C16 1.378 . S
C17 H39 0.931 . S
C18 O28 1.259 . S
C18 O29 1.270 . S
C19 O30 1.251 . S
C19 O31 1.251 . S
O20 C0 1.257 . S
O20 Eu1 2.473 . S
O21 C0 1.260 . S
O21 Eu1 2.480 . S
O22 Eu1 2.430 . S
O22 C8 1.259 . S
O23 Eu1 2.670 . S
O23 C8 1.270 . S
O23 Eu11 2.355 . S
O24 Eu1 2.394 . S
O24 C9 1.251 . S
O25 C9 1.251 . S
O25 Eu11 2.374 . S
O26 C10 1.257 . S
O26 Eu11 2.473 . S
O27 C10 1.260 . S
O27 Eu11 2.480 . S
O28 Eu11 2.430 . S
O28 C18 1.259 . S
O29 Eu1 2.355 . S
O29 Eu11 2.670 . S
O29 C18 1.270 . S
O30 Eu11 2.394 . S
O30 C19 1.251 . S
O31 Eu1 2.374 . S
O31 C19 1.251 . S
H32 C3 0.931 . S
H33 C4 0.931 . S
H34 C6 0.931 . S
H35 C7 0.931 . S
H36 C13 0.931 . S
H37 C14 0.931 . S
H38 C16 0.931 . S
H39 C17 0.931 . S
C40 Eu41 2.835 . S
C40 C42 1.500 . S
C40 O60 1.257 . S
C40 O61 1.260 . S
Eu41 C40 2.835 . S
Eu41 O60 2.473 . S
Eu41 O61 2.480 . S
Eu41 O62 2.430 . S
Eu41 O63 2.670 . S
Eu41 O64 2.394 . S
Eu41 O69 2.355 . S
Eu41 O71 2.374 . S
C42 C40 1.500 . S
C42 C43 1.377 . S
C42 C47 1.377 . S
C43 C42 1.377 . S
C43 C44 1.395 . S
C43 H72 0.931 . S
C44 C43 1.395 . S
C44 C45 1.383 . S
C44 H73 0.931 . S
C45 C44 1.383 . S
C45 C46 1.394 . S
C46 C45 1.394 . S
C46 C47 1.378 . S
C46 H74 0.931 . S
C47 C42 1.377 . S
C47 C46 1.378 . S
C47 H75 0.931 . S
C48 O62 1.259 . S
C48 O63 1.270 . S
C49 O64 1.251 . S
C49 O65 1.251 . S
C50 Eu51 2.835 . S
C50 C52 1.500 . S
C50 O66 1.257 . S
C50 O67 1.260 . S
Eu51 C50 2.835 . S
Eu51 O63 2.355 . S
Eu51 O65 2.374 . S
Eu51 O66 2.473 . S
Eu51 O67 2.480 . S
Eu51 O68 2.430 . S
Eu51 O69 2.670 . S
Eu51 O70 2.394 . S
C52 C50 1.500 . S
C52 C53 1.377 . S
C52 C57 1.377 . S
C53 C52 1.377 . S
C53 C54 1.395 . S
C53 H76 0.931 . S
C54 C53 1.395 . S
C54 C55 1.383 . S
C54 H77 0.931 . S
C55 C54 1.383 . S
C55 C56 1.394 . S
C56 C55 1.394 . S
C56 C57 1.378 . S
C56 H78 0.931 . S
C57 C52 1.377 . S
C57 C56 1.378 . S
C57 H79 0.931 . S
C58 O68 1.259 . S
C58 O69 1.270 . S
C59 O70 1.251 . S
C59 O71 1.251 . S
O60 C40 1.257 . S
O60 Eu41 2.473 . S
O61 C40 1.260 . S
O61 Eu41 2.480 . S
O62 Eu41 2.430 . S
O62 C48 1.259 . S
O63 Eu41 2.670 . S
O63 C48 1.270 . S
O63 Eu51 2.355 . S
O64 Eu41 2.394 . S
O64 C49 1.251 . S
O65 C49 1.251 . S
O65 Eu51 2.374 . S
O66 C50 1.257 . S
O66 Eu51 2.473 . S
O67 C50 1.260 . S
O67 Eu51 2.480 . S
O68 Eu51 2.430 . S
O68 C58 1.259 . S
O69 Eu41 2.355 . S
O69 Eu51 2.670 . S
O69 C58 1.270 . S
O70 Eu51 2.394 . S
O70 C59 1.251 . S
O71 Eu41 2.374 . S
O71 C59 1.251 . S
H72 C43 0.931 . S
H73 C44 0.931 . S
H74 C46 0.931 . S
H75 C47 0.931 . S
H76 C53 0.931 . S
H77 C54 0.931 . S
H78 C56 0.931 . S
H79 C57 0.931 . S
C80 Eu81 2.835 . S
C80 C82 1.500 . S
C80 O100 1.257 . S
C80 O101 1.260 . S
Eu81 C80 2.835 . S
Eu81 O100 2.473 . S
Eu81 O101 2.480 . S
Eu81 O102 2.430 . S
Eu81 O103 2.670 . S
Eu81 O104 2.394 . S
Eu81 O109 2.355 . S
Eu81 O111 2.374 . S
C82 C80 1.500 . S
C82 C83 1.377 . S
C82 C87 1.377 . S
C83 C82 1.377 . S
C83 C84 1.395 . S
C83 H112 0.931 . S
C84 C83 1.395 . S
C84 C85 1.383 . S
C84 H113 0.931 . S
C85 C84 1.383 . S
C85 C86 1.394 . S
C86 C85 1.394 . S
C86 C87 1.378 . S
C86 H114 0.931 . S
C87 C82 1.377 . S
C87 C86 1.378 . S
C87 H115 0.931 . S
C88 O102 1.259 . S
C88 O103 1.270 . S
C89 O104 1.251 . S
C89 O105 1.251 . S
C90 Eu91 2.835 . S
C90 C92 1.500 . S
C90 O106 1.257 . S
C90 O107 1.260 . S
Eu91 C90 2.835 . S
Eu91 O103 2.355 . S
Eu91 O105 2.374 . S
Eu91 O106 2.473 . S
Eu91 O107 2.480 . S
Eu91 O108 2.430 . S
Eu91 O109 2.670 . S
Eu91 O110 2.394 . S
C92 C90 1.500 . S
C92 C93 1.377 . S
C92 C97 1.377 . S
C93 C92 1.377 . S
C93 C94 1.395 . S
C93 H116 0.931 . S
C94 C93 1.395 . S
C94 C95 1.383 . S
C94 H117 0.931 . S
C95 C94 1.383 . S
C95 C96 1.394 . S
C96 C95 1.394 . S
C96 C97 1.378 . S
C96 H118 0.931 . S
C97 C92 1.377 . S
C97 C96 1.378 . S
C97 H119 0.931 . S
C98 O108 1.259 . S
C98 O109 1.270 . S
C99 O110 1.251 . S
C99 O111 1.251 . S
O100 C80 1.257 . S
O100 Eu81 2.473 . S
O101 C80 1.260 . S
O101 Eu81 2.480 . S
O102 Eu81 2.430 . S
O102 C88 1.259 . S
O103 Eu81 2.670 . S
O103 C88 1.270 . S
O103 Eu91 2.355 . S
O104 Eu81 2.394 . S
O104 C89 1.251 . S
O105 C89 1.251 . S
O105 Eu91 2.374 . S
O106 C90 1.257 . S
O106 Eu91 2.473 . S
O107 C90 1.260 . S
O107 Eu91 2.480 . S
O108 Eu91 2.430 . S
O108 C98 1.259 . S
O109 Eu81 2.355 . S
O109 Eu91 2.670 . S
O109 C98 1.270 . S
O110 Eu91 2.394 . S
O110 C99 1.251 . S
O111 Eu81 2.374 . S
O111 C99 1.251 . S
H112 C83 0.931 . S
H113 C84 0.931 . S
H114 C86 0.931 . S
H115 C87 0.931 . S
H116 C93 0.931 . S
H117 C94 0.931 . S
H118 C96 0.931 . S
H119 C97 0.931 . S
C120 Eu121 2.835 . S
C120 C122 1.500 . S
C120 O140 1.257 . S
C120 O141 1.260 . S
Eu121 C120 2.835 . S
Eu121 O140 2.473 . S
Eu121 O141 2.480 . S
Eu121 O142 2.430 . S
Eu121 O143 2.670 . S
Eu121 O144 2.394 . S
Eu121 O149 2.355 . S
Eu121 O151 2.374 . S
C122 C120 1.500 . S
C122 C123 1.377 . S
C122 C127 1.377 . S
C123 C122 1.377 . S
C123 C124 1.395 . S
C123 H152 0.931 . S
C124 C123 1.395 . S
C124 C125 1.383 . S
C124 H153 0.931 . S
C125 C124 1.383 . S
C125 C126 1.394 . S
C126 C125 1.394 . S
C126 C127 1.378 . S
C126 H154 0.931 . S
C127 C122 1.377 . S
C127 C126 1.378 . S
C127 H155 0.931 . S
C128 O142 1.259 . S
C128 O143 1.270 . S
C129 O144 1.251 . S
C129 O145 1.251 . S
C130 Eu131 2.835 . S
C130 C132 1.500 . S
C130 O146 1.257 . S
C130 O147 1.260 . S
Eu131 C130 2.835 . S
Eu131 O143 2.355 . S
Eu131 O145 2.374 . S
Eu131 O146 2.473 . S
Eu131 O147 2.480 . S
Eu131 O148 2.430 . S
Eu131 O149 2.670 . S
Eu131 O150 2.394 . S
C132 C130 1.500 . S
C132 C133 1.377 . S
C132 C137 1.377 . S
C133 C132 1.377 . S
C133 C134 1.395 . S
C133 H156 0.931 . S
C134 C133 1.395 . S
C134 C135 1.383 . S
C134 H157 0.931 . S
C135 C134 1.383 . S
C135 C136 1.394 . S
C136 C135 1.394 . S
C136 C137 1.378 . S
C136 H158 0.931 . S
C137 C132 1.377 . S
C137 C136 1.378 . S
C137 H159 0.931 . S
C138 O148 1.259 . S
C138 O149 1.270 . S
C139 O150 1.251 . S
C139 O151 1.251 . S
O140 C120 1.257 . S
O140 Eu121 2.473 . S
O141 C120 1.260 . S
O141 Eu121 2.480 . S
O142 Eu121 2.430 . S
O142 C128 1.259 . S
O143 Eu121 2.670 . S
O143 C128 1.270 . S
O143 Eu131 2.355 . S
O144 Eu121 2.394 . S
O144 C129 1.251 . S
O145 C129 1.251 . S
O145 Eu131 2.374 . S
O146 C130 1.257 . S
O146 Eu131 2.473 . S
O147 C130 1.260 . S
O147 Eu131 2.480 . S
O148 Eu131 2.430 . S
O148 C138 1.259 . S
O149 Eu121 2.355 . S
O149 Eu131 2.670 . S
O149 C138 1.270 . S
O150 Eu131 2.394 . S
O150 C139 1.251 . S
O151 Eu121 2.374 . S
O151 C139 1.251 . S
H152 C123 0.931 . S
H153 C124 0.931 . S
H154 C126 0.931 . S
H155 C127 0.931 . S
H156 C133 0.931 . S
H157 C134 0.931 . S
H158 C136 0.931 . S
H159 C137 0.931 . S
C160 Eu161 2.835 . S
C160 C162 1.500 . S
C160 O180 1.257 . S
C160 O181 1.260 . S
Eu161 C160 2.835 . S
Eu161 O180 2.473 . S
Eu161 O181 2.480 . S
Eu161 O182 2.430 . S
Eu161 O183 2.670 . S
Eu161 O184 2.394 . S
Eu161 O189 2.355 . S
Eu161 O191 2.374 . S
C162 C160 1.500 . S
C162 C163 1.377 . S
C162 C167 1.377 . S
C163 C162 1.377 . S
C163 C164 1.395 . S
C163 H192 0.931 . S
C164 C163 1.395 . S
C164 C165 1.383 . S
C164 H193 0.931 . S
C165 C164 1.383 . S
C165 C166 1.394 . S
C166 C165 1.394 . S
C166 C167 1.378 . S
C166 H194 0.931 . S
C167 C162 1.377 . S
C167 C166 1.378 . S
C167 H195 0.931 . S
C168 O182 1.259 . S
C168 O183 1.270 . S
C169 O184 1.251 . S
C169 O185 1.251 . S
C170 Eu171 2.835 . S
C170 C172 1.500 . S
C170 O186 1.257 . S
C170 O187 1.260 . S
Eu171 C170 2.835 . S
Eu171 O183 2.355 . S
Eu171 O185 2.374 . S
Eu171 O186 2.473 . S
Eu171 O187 2.480 . S
Eu171 O188 2.430 . S
Eu171 O189 2.670 . S
Eu171 O190 2.394 . S
C172 C170 1.500 . S
C172 C173 1.377 . S
C172 C177 1.377 . S
C173 C172 1.377 . S
C173 C174 1.395 . S
C173 H196 0.931 . S
C174 C173 1.395 . S
C174 C175 1.383 . S
C174 H197 0.931 . S
C175 C174 1.383 . S
C175 C176 1.394 . S
C176 C175 1.394 . S
C176 C177 1.378 . S
C176 H198 0.931 . S
C177 C172 1.377 . S
C177 C176 1.378 . S
C177 H199 0.931 . S
C178 O188 1.259 . S
C178 O189 1.270 . S
C179 O190 1.251 . S
C179 O191 1.251 . S
O180 C160 1.257 . S
O180 Eu161 2.473 . S
O181 C160 1.260 . S
O181 Eu161 2.480 . S
O182 Eu161 2.430 . S
O182 C168 1.259 . S
O183 Eu161 2.670 . S
O183 C168 1.270 . S
O183 Eu171 2.355 . S
O184 Eu161 2.394 . S
O184 C169 1.251 . S
O185 C169 1.251 . S
O185 Eu171 2.374 . S
O186 C170 1.257 . S
O186 Eu171 2.473 . S
O187 C170 1.260 . S
O187 Eu171 2.480 . S
O188 Eu171 2.430 . S
O188 C178 1.259 . S
O189 Eu161 2.355 . S
O189 Eu171 2.670 . S
O189 C178 1.270 . S
O190 Eu171 2.394 . S
O190 C179 1.251 . S
O191 Eu161 2.374 . S
O191 C179 1.251 . S
H192 C163 0.931 . S
H193 C164 0.931 . S
H194 C166 0.931 . S
H195 C167 0.931 . S
H196 C173 0.931 . S
H197 C174 0.931 . S
H198 C176 0.931 . S
H199 C177 0.931 . S
C200 Eu201 2.835 . S
C200 C202 1.500 . S
C200 O220 1.257 . S
C200 O221 1.260 . S
Eu201 C200 2.835 . S
Eu201 O220 2.473 . S
Eu201 O221 2.480 . S
Eu201 O222 2.430 . S
Eu201 O223 2.670 . S
Eu201 O224 2.394 . S
Eu201 O229 2.355 . S
Eu201 O231 2.374 . S
C202 C200 1.500 . S
C202 C203 1.377 . S
C202 C207 1.377 . S
C203 C202 1.377 . S
C203 C204 1.395 . S
C203 H232 0.931 . S
C204 C203 1.395 . S
C204 C205 1.383 . S
C204 H233 0.931 . S
C205 C204 1.383 . S
C205 C206 1.394 . S
C206 C205 1.394 . S
C206 C207 1.378 . S
C206 H234 0.931 . S
C207 C202 1.377 . S
C207 C206 1.378 . S
C207 H235 0.931 . S
C208 O222 1.259 . S
C208 O223 1.270 . S
C209 O224 1.251 . S
C209 O225 1.251 . S
C210 Eu211 2.835 . S
C210 C212 1.500 . S
C210 O226 1.257 . S
C210 O227 1.260 . S
Eu211 C210 2.835 . S
Eu211 O223 2.355 . S
Eu211 O225 2.374 . S
Eu211 O226 2.473 . S
Eu211 O227 2.480 . S
Eu211 O228 2.430 . S
Eu211 O229 2.670 . S
Eu211 O230 2.394 . S
C212 C210 1.500 . S
C212 C213 1.377 . S
C212 C217 1.377 . S
C213 C212 1.377 . S
C213 C214 1.395 . S
C213 H236 0.931 . S
C214 C213 1.395 . S
C214 C215 1.383 . S
C214 H237 0.931 . S
C215 C214 1.383 . S
C215 C216 1.394 . S
C216 C215 1.394 . S
C216 C217 1.378 . S
C216 H238 0.931 . S
C217 C212 1.377 . S
C217 C216 1.378 . S
C217 H239 0.931 . S
C218 O228 1.259 . S
C218 O229 1.270 . S
C219 O230 1.251 . S
C219 O231 1.251 . S
O220 C200 1.257 . S
O220 Eu201 2.473 . S
O221 C200 1.260 . S
O221 Eu201 2.480 . S
O222 Eu201 2.430 . S
O222 C208 1.259 . S
O223 Eu201 2.670 . S
O223 C208 1.270 . S
O223 Eu211 2.355 . S
O224 Eu201 2.394 . S
O224 C209 1.251 . S
O225 C209 1.251 . S
O225 Eu211 2.374 . S
O226 C210 1.257 . S
O226 Eu211 2.473 . S
O227 C210 1.260 . S
O227 Eu211 2.480 . S
O228 Eu211 2.430 . S
O228 C218 1.259 . S
O229 Eu201 2.355 . S
O229 Eu211 2.670 . S
O229 C218 1.270 . S
O230 Eu211 2.394 . S
O230 C219 1.251 . S
O231 Eu201 2.374 . S
O231 C219 1.251 . S
H232 C203 0.931 . S
H233 C204 0.931 . S
H234 C206 0.931 . S
H235 C207 0.931 . S
H236 C213 0.931 . S
H237 C214 0.931 . S
H238 C216 0.931 . S
H239 C217 0.931 . S
C240 Eu241 2.835 . S
C240 C242 1.500 . S
C240 O260 1.257 . S
C240 O261 1.260 . S
Eu241 C240 2.835 . S
Eu241 O260 2.473 . S
Eu241 O261 2.480 . S
Eu241 O262 2.430 . S
Eu241 O263 2.670 . S
Eu241 O264 2.394 . S
Eu241 O269 2.355 . S
Eu241 O271 2.374 . S
C242 C240 1.500 . S
C242 C243 1.377 . S
C242 C247 1.377 . S
C243 C242 1.377 . S
C243 C244 1.395 . S
C243 H272 0.931 . S
C244 C243 1.395 . S
C244 C245 1.383 . S
C244 H273 0.931 . S
C245 C244 1.383 . S
C245 C246 1.394 . S
C246 C245 1.394 . S
C246 C247 1.378 . S
C246 H274 0.931 . S
C247 C242 1.377 . S
C247 C246 1.378 . S
C247 H275 0.931 . S
C248 O262 1.259 . S
C248 O263 1.270 . S
C249 O264 1.251 . S
C249 O265 1.251 . S
C250 Eu251 2.835 . S
C250 C252 1.500 . S
C250 O266 1.257 . S
C250 O267 1.260 . S
Eu251 C250 2.835 . S
Eu251 O263 2.355 . S
Eu251 O265 2.374 . S
Eu251 O266 2.473 . S
Eu251 O267 2.480 . S
Eu251 O268 2.430 . S
Eu251 O269 2.670 . S
Eu251 O270 2.394 . S
C252 C250 1.500 . S
C252 C253 1.377 . S
C252 C257 1.377 . S
C253 C252 1.377 . S
C253 C254 1.395 . S
C253 H276 0.931 . S
C254 C253 1.395 . S
C254 C255 1.383 . S
C254 H277 0.931 . S
C255 C254 1.383 . S
C255 C256 1.394 . S
C256 C255 1.394 . S
C256 C257 1.378 . S
C256 H278 0.931 . S
C257 C252 1.377 . S
C257 C256 1.378 . S
C257 H279 0.931 . S
C258 O268 1.259 . S
C258 O269 1.270 . S
C259 O270 1.251 . S
C259 O271 1.251 . S
O260 C240 1.257 . S
O260 Eu241 2.473 . S
O261 C240 1.260 . S
O261 Eu241 2.480 . S
O262 Eu241 2.430 . S
O262 C248 1.259 . S
O263 Eu241 2.670 . S
O263 C248 1.270 . S
O263 Eu251 2.355 . S
O264 Eu241 2.394 . S
O264 C249 1.251 . S
O265 C249 1.251 . S
O265 Eu251 2.374 . S
O266 C250 1.257 . S
O266 Eu251 2.473 . S
O267 C250 1.260 . S
O267 Eu251 2.480 . S
O268 Eu251 2.430 . S
O268 C258 1.259 . S
O269 Eu241 2.355 . S
O269 Eu251 2.670 . S
O269 C258 1.270 . S
O270 Eu251 2.394 . S
O270 C259 1.251 . S
O271 Eu241 2.374 . S
O271 C259 1.251 . S
H272 C243 0.931 . S
H273 C244 0.931 . S
H274 C246 0.931 . S
H275 C247 0.931 . S
H276 C253 0.931 . S
H277 C254 0.931 . S
H278 C256 0.931 . S
H279 C257 0.931 . S
C280 Eu281 2.835 . S
C280 C282 1.500 . S
C280 O300 1.257 . S
C280 O301 1.260 . S
Eu281 C280 2.835 . S
Eu281 O300 2.473 . S
Eu281 O301 2.480 . S
Eu281 O302 2.430 . S
Eu281 O303 2.670 . S
Eu281 O304 2.394 . S
Eu281 O309 2.355 . S
Eu281 O311 2.374 . S
C282 C280 1.500 . S
C282 C283 1.377 . S
C282 C287 1.377 . S
C283 C282 1.377 . S
C283 C284 1.395 . S
C283 H312 0.931 . S
C284 C283 1.395 . S
C284 C285 1.383 . S
C284 H313 0.931 . S
C285 C284 1.383 . S
C285 C286 1.394 . S
C286 C285 1.394 . S
C286 C287 1.378 . S
C286 H314 0.931 . S
C287 C282 1.377 . S
C287 C286 1.378 . S
C287 H315 0.931 . S
C288 O302 1.259 . S
C288 O303 1.270 . S
C289 O304 1.251 . S
C289 O305 1.251 . S
C290 Eu291 2.835 . S
C290 C292 1.500 . S
C290 O306 1.257 . S
C290 O307 1.260 . S
Eu291 C290 2.835 . S
Eu291 O303 2.355 . S
Eu291 O305 2.374 . S
Eu291 O306 2.473 . S
Eu291 O307 2.480 . S
Eu291 O308 2.430 . S
Eu291 O309 2.670 . S
Eu291 O310 2.394 . S
C292 C290 1.500 . S
C292 C293 1.377 . S
C292 C297 1.377 . S
C293 C292 1.377 . S
C293 C294 1.395 . S
C293 H316 0.931 . S
C294 C293 1.395 . S
C294 C295 1.383 . S
C294 H317 0.931 . S
C295 C294 1.383 . S
C295 C296 1.394 . S
C296 C295 1.394 . S
C296 C297 1.378 . S
C296 H318 0.931 . S
C297 C292 1.377 . S
C297 C296 1.378 . S
C297 H319 0.931 . S
C298 O308 1.259 . S
C298 O309 1.270 . S
C299 O310 1.251 . S
C299 O311 1.251 . S
O300 C280 1.257 . S
O300 Eu281 2.473 . S
O301 C280 1.260 . S
O301 Eu281 2.480 . S
O302 Eu281 2.430 . S
O302 C288 1.259 . S
O303 Eu281 2.670 . S
O303 C288 1.270 . S
O303 Eu291 2.355 . S
O304 Eu281 2.394 . S
O304 C289 1.251 . S
O305 C289 1.251 . S
O305 Eu291 2.374 . S
O306 C290 1.257 . S
O306 Eu291 2.473 . S
O307 C290 1.260 . S
O307 Eu291 2.480 . S
O308 Eu291 2.430 . S
O308 C298 1.259 . S
O309 Eu281 2.355 . S
O309 Eu291 2.670 . S
O309 C298 1.270 . S
O310 Eu291 2.394 . S
O310 C299 1.251 . S
O311 Eu281 2.374 . S
O311 C299 1.251 . S
H312 C283 0.931 . S
H313 C284 0.931 . S
H314 C286 0.931 . S
H315 C287 0.931 . S
H316 C293 0.931 . S
H317 C294 0.931 . S
H318 C296 0.931 . S
H319 C297 0.931 . S
C320 Eu321 2.835 . S
C320 C322 1.500 . S
C320 O340 1.257 . S
C320 O341 1.260 . S
Eu321 C320 2.835 . S
Eu321 O340 2.473 . S
Eu321 O341 2.480 . S
Eu321 O342 2.430 . S
Eu321 O343 2.670 . S
Eu321 O344 2.394 . S
Eu321 O349 2.355 . S
Eu321 O351 2.374 . S
C322 C320 1.500 . S
C322 C323 1.377 . S
C322 C327 1.377 . S
C323 C322 1.377 . S
C323 C324 1.395 . S
C323 H352 0.931 . S
C324 C323 1.395 . S
C324 C325 1.383 . S
C324 H353 0.931 . S
C325 C324 1.383 . S
C325 C326 1.394 . S
C326 C325 1.394 . S
C326 C327 1.378 . S
C326 H354 0.931 . S
C327 C322 1.377 . S
C327 C326 1.378 . S
C327 H355 0.931 . S
C328 O342 1.259 . S
C328 O343 1.270 . S
C329 O344 1.251 . S
C329 O345 1.251 . S
C330 Eu331 2.835 . S
C330 C332 1.500 . S
C330 O346 1.257 . S
C330 O347 1.260 . S
Eu331 C330 2.835 . S
Eu331 O343 2.355 . S
Eu331 O345 2.374 . S
Eu331 O346 2.473 . S
Eu331 O347 2.480 . S
Eu331 O348 2.430 . S
Eu331 O349 2.670 . S
Eu331 O350 2.394 . S
C332 C330 1.500 . S
C332 C333 1.377 . S
C332 C337 1.377 . S
C333 C332 1.377 . S
C333 C334 1.395 . S
C333 H356 0.931 . S
C334 C333 1.395 . S
C334 C335 1.383 . S
C334 H357 0.931 . S
C335 C334 1.383 . S
C335 C336 1.394 . S
C336 C335 1.394 . S
C336 C337 1.378 . S
C336 H358 0.931 . S
C337 C332 1.377 . S
C337 C336 1.378 . S
C337 H359 0.931 . S
C338 O348 1.259 . S
C338 O349 1.270 . S
C339 O350 1.251 . S
C339 O351 1.251 . S
O340 C320 1.257 . S
O340 Eu321 2.473 . S
O341 C320 1.260 . S
O341 Eu321 2.480 . S
O342 Eu321 2.430 . S
O342 C328 1.259 . S
O343 Eu321 2.670 . S
O343 C328 1.270 . S
O343 Eu331 2.355 . S
O344 Eu321 2.394 . S
O344 C329 1.251 . S
O345 C329 1.251 . S
O345 Eu331 2.374 . S
O346 C330 1.257 . S
O346 Eu331 2.473 . S
O347 C330 1.260 . S
O347 Eu331 2.480 . S
O348 Eu331 2.430 . S
O348 C338 1.259 . S
O349 Eu321 2.355 . S
O349 Eu331 2.670 . S
O349 C338 1.270 . S
O350 Eu331 2.394 . S
O350 C339 1.251 . S
O351 Eu321 2.374 . S
O351 C339 1.251 . S
H352 C323 0.931 . S
H353 C324 0.931 . S
H354 C326 0.931 . S
H355 C327 0.931 . S
H356 C333 0.931 . S
H357 C334 0.931 . S
H358 C336 0.931 . S
H359 C337 0.931 . S
C360 Eu361 2.835 . S
C360 C362 1.500 . S
C360 O380 1.257 . S
C360 O381 1.260 . S
Eu361 C360 2.835 . S
Eu361 O380 2.473 . S
Eu361 O381 2.480 . S
Eu361 O382 2.430 . S
Eu361 O383 2.670 . S
Eu361 O384 2.394 . S
Eu361 O389 2.355 . S
Eu361 O391 2.374 . S
C362 C360 1.500 . S
C362 C363 1.377 . S
C362 C367 1.377 . S
C363 C362 1.377 . S
C363 C364 1.395 . S
C363 H392 0.931 . S
C364 C363 1.395 . S
C364 C365 1.383 . S
C364 H393 0.931 . S
C365 C364 1.383 . S
C365 C366 1.394 . S
C366 C365 1.394 . S
C366 C367 1.378 . S
C366 H394 0.931 . S
C367 C362 1.377 . S
C367 C366 1.378 . S
C367 H395 0.931 . S
C368 O382 1.259 . S
C368 O383 1.270 . S
C369 O384 1.251 . S
C369 O385 1.251 . S
C370 Eu371 2.835 . S
C370 C372 1.500 . S
C370 O386 1.257 . S
C370 O387 1.260 . S
Eu371 C370 2.835 . S
Eu371 O383 2.355 . S
Eu371 O385 2.374 . S
Eu371 O386 2.473 . S
Eu371 O387 2.480 . S
Eu371 O388 2.430 . S
Eu371 O389 2.670 . S
Eu371 O390 2.394 . S
C372 C370 1.500 . S
C372 C373 1.377 . S
C372 C377 1.377 . S
C373 C372 1.377 . S
C373 C374 1.395 . S
C373 H396 0.931 . S
C374 C373 1.395 . S
C374 C375 1.383 . S
C374 H397 0.931 . S
C375 C374 1.383 . S
C375 C376 1.394 . S
C376 C375 1.394 . S
C376 C377 1.378 . S
C376 H398 0.931 . S
C377 C372 1.377 . S
C377 C376 1.378 . S
C377 H399 0.931 . S
C378 O388 1.259 . S
C378 O389 1.270 . S
C379 O390 1.251 . S
C379 O391 1.251 . S
O380 C360 1.257 . S
O380 Eu361 2.473 . S
O381 C360 1.260 . S
O381 Eu361 2.480 . S
O382 Eu361 2.430 . S
O382 C368 1.259 . S
O383 Eu361 2.670 . S
O383 C368 1.270 . S
O383 Eu371 2.355 . S
O384 Eu361 2.394 . S
O384 C369 1.251 . S
O385 C369 1.251 . S
O385 Eu371 2.374 . S
O386 C370 1.257 . S
O386 Eu371 2.473 . S
O387 C370 1.260 . S
O387 Eu371 2.480 . S
O388 Eu371 2.430 . S
O388 C378 1.259 . S
O389 Eu361 2.355 . S
O389 Eu371 2.670 . S
O389 C378 1.270 . S
O390 Eu371 2.394 . S
O390 C379 1.251 . S
O391 Eu361 2.374 . S
O391 C379 1.251 . S
H392 C363 0.931 . S
H393 C364 0.931 . S
H394 C366 0.931 . S
H395 C367 0.931 . S
H396 C373 0.931 . S
H397 C374 0.931 . S
H398 C376 0.931 . S
H399 C377 0.931 . S
C400 Eu401 2.835 . S
C400 C402 1.500 . S
C400 O420 1.257 . S
C400 O421 1.260 . S
Eu401 C400 2.835 . S
Eu401 O420 2.473 . S
Eu401 O421 2.480 . S
Eu401 O422 2.430 . S
Eu401 O423 2.670 . S
Eu401 O424 2.394 . S
Eu401 O429 2.355 . S
Eu401 O431 2.374 . S
C402 C400 1.500 . S
C402 C403 1.377 . S
C402 C407 1.377 . S
C403 C402 1.377 . S
C403 C404 1.395 . S
C403 H432 0.931 . S
C404 C403 1.395 . S
C404 C405 1.383 . S
C404 H433 0.931 . S
C405 C404 1.383 . S
C405 C406 1.394 . S
C406 C405 1.394 . S
C406 C407 1.378 . S
C406 H434 0.931 . S
C407 C402 1.377 . S
C407 C406 1.378 . S
C407 H435 0.931 . S
C408 O422 1.259 . S
C408 O423 1.270 . S
C409 O424 1.251 . S
C409 O425 1.251 . S
C410 Eu411 2.835 . S
C410 C412 1.500 . S
C410 O426 1.257 . S
C410 O427 1.260 . S
Eu411 C410 2.835 . S
Eu411 O423 2.355 . S
Eu411 O425 2.374 . S
Eu411 O426 2.473 . S
Eu411 O427 2.480 . S
Eu411 O428 2.430 . S
Eu411 O429 2.670 . S
Eu411 O430 2.394 . S
C412 C410 1.500 . S
C412 C413 1.377 . S
C412 C417 1.377 . S
C413 C412 1.377 . S
C413 C414 1.395 . S
C413 H436 0.931 . S
C414 C413 1.395 . S
C414 C415 1.383 . S
C414 H437 0.931 . S
C415 C414 1.383 . S
C415 C416 1.394 . S
C416 C415 1.394 . S
C416 C417 1.378 . S
C416 H438 0.931 . S
C417 C412 1.377 . S
C417 C416 1.378 . S
C417 H439 0.931 . S
C418 O428 1.259 . S
C418 O429 1.270 . S
C419 O430 1.251 . S
C419 O431 1.251 . S
O420 C400 1.257 . S
O420 Eu401 2.473 . S
O421 C400 1.260 . S
O421 Eu401 2.480 . S
O422 Eu401 2.430 . S
O422 C408 1.259 . S
O423 Eu401 2.670 . S
O423 C408 1.270 . S
O423 Eu411 2.355 . S
O424 Eu401 2.394 . S
O424 C409 1.251 . S
O425 C409 1.251 . S
O425 Eu411 2.374 . S
O426 C410 1.257 . S
O426 Eu411 2.473 . S
O427 C410 1.260 . S
O427 Eu411 2.480 . S
O428 Eu411 2.430 . S
O428 C418 1.259 . S
O429 Eu401 2.355 . S
O429 Eu411 2.670 . S
O429 C418 1.270 . S
O430 Eu411 2.394 . S
O430 C419 1.251 . S
O431 Eu401 2.374 . S
O431 C419 1.251 . S
H432 C403 0.931 . S
H433 C404 0.931 . S
H434 C406 0.931 . S
H435 C407 0.931 . S
H436 C413 0.931 . S
H437 C414 0.931 . S
H438 C416 0.931 . S
H439 C417 0.931 . S
C440 Eu441 2.835 . S
C440 C442 1.500 . S
C440 O460 1.257 . S
C440 O461 1.260 . S
Eu441 C440 2.835 . S
Eu441 O460 2.473 . S
Eu441 O461 2.480 . S
Eu441 O462 2.430 . S
Eu441 O463 2.670 . S
Eu441 O464 2.394 . S
Eu441 O469 2.355 . S
Eu441 O471 2.374 . S
C442 C440 1.500 . S
C442 C443 1.377 . S
C442 C447 1.377 . S
C443 C442 1.377 . S
C443 C444 1.395 . S
C443 H472 0.931 . S
C444 C443 1.395 . S
C444 C445 1.383 . S
C444 H473 0.931 . S
C445 C444 1.383 . S
C445 C446 1.394 . S
C446 C445 1.394 . S
C446 C447 1.378 . S
C446 H474 0.931 . S
C447 C442 1.377 . S
C447 C446 1.378 . S
C447 H475 0.931 . S
C448 O462 1.259 . S
C448 O463 1.270 . S
C449 O464 1.251 . S
C449 O465 1.251 . S
C450 Eu451 2.835 . S
C450 C452 1.500 . S
C450 O466 1.257 . S
C450 O467 1.260 . S
Eu451 C450 2.835 . S
Eu451 O463 2.355 . S
Eu451 O465 2.374 . S
Eu451 O466 2.473 . S
Eu451 O467 2.480 . S
Eu451 O468 2.430 . S
Eu451 O469 2.670 . S
Eu451 O470 2.394 . S
C452 C450 1.500 . S
C452 C453 1.377 . S
C452 C457 1.377 . S
C453 C452 1.377 . S
C453 C454 1.395 . S
C453 H476 0.931 . S
C454 C453 1.395 . S
C454 C455 1.383 . S
C454 H477 0.931 . S
C455 C454 1.383 . S
C455 C456 1.394 . S
C456 C455 1.394 . S
C456 C457 1.378 . S
C456 H478 0.931 . S
C457 C452 1.377 . S
C457 C456 1.378 . S
C457 H479 0.931 . S
C458 O468 1.259 . S
C458 O469 1.270 . S
C459 O470 1.251 . S
C459 O471 1.251 . S
O460 C440 1.257 . S
O460 Eu441 2.473 . S
O461 C440 1.260 . S
O461 Eu441 2.480 . S
O462 Eu441 2.430 . S
O462 C448 1.259 . S
O463 Eu441 2.670 . S
O463 C448 1.270 . S
O463 Eu451 2.355 . S
O464 Eu441 2.394 . S
O464 C449 1.251 . S
O465 C449 1.251 . S
O465 Eu451 2.374 . S
O466 C450 1.257 . S
O466 Eu451 2.473 . S
O467 C450 1.260 . S
O467 Eu451 2.480 . S
O468 Eu451 2.430 . S
O468 C458 1.259 . S
O469 Eu441 2.355 . S
O469 Eu451 2.670 . S
O469 C458 1.270 . S
O470 Eu451 2.394 . S
O470 C459 1.251 . S
O471 Eu441 2.374 . S
O471 C459 1.251 . S
H472 C443 0.931 . S
H473 C444 0.931 . S
H474 C446 0.931 . S
H475 C447 0.931 . S
H476 C453 0.931 . S
H477 C454 0.931 . S
H478 C456 0.931 . S
H479 C457 0.931 . S
C480 Eu481 2.835 . S
C480 C482 1.500 . S
C480 O500 1.257 . S
C480 O501 1.260 . S
Eu481 C480 2.835 . S
Eu481 O500 2.473 . S
Eu481 O501 2.480 . S
Eu481 O502 2.430 . S
Eu481 O503 2.670 . S
Eu481 O504 2.394 . S
Eu481 O509 2.355 . S
Eu481 O511 2.374 . S
C482 C480 1.500 . S
C482 C483 1.377 . S
C482 C487 1.377 . S
C483 C482 1.377 . S
C483 C484 1.395 . S
C483 H512 0.931 . S
C484 C483 1.395 . S
C484 C485 1.383 . S
C484 H513 0.931 . S
C485 C484 1.383 . S
C485 C486 1.394 . S
C486 C485 1.394 . S
C486 C487 1.378 . S
C486 H514 0.931 . S
C487 C482 1.377 . S
C487 C486 1.378 . S
C487 H515 0.931 . S
C488 O502 1.259 . S
C488 O503 1.270 . S
C489 O504 1.251 . S
C489 O505 1.251 . S
C490 Eu491 2.835 . S
C490 C492 1.500 . S
C490 O506 1.257 . S
C490 O507 1.260 . S
Eu491 C490 2.835 . S
Eu491 O503 2.355 . S
Eu491 O505 2.374 . S
Eu491 O506 2.473 . S
Eu491 O507 2.480 . S
Eu491 O508 2.430 . S
Eu491 O509 2.670 . S
Eu491 O510 2.394 . S
C492 C490 1.500 . S
C492 C493 1.377 . S
C492 C497 1.377 . S
C493 C492 1.377 . S
C493 C494 1.395 . S
C493 H516 0.931 . S
C494 C493 1.395 . S
C494 C495 1.383 . S
C494 H517 0.931 . S
C495 C494 1.383 . S
C495 C496 1.394 . S
C496 C495 1.394 . S
C496 C497 1.378 . S
C496 H518 0.931 . S
C497 C492 1.377 . S
C497 C496 1.378 . S
C497 H519 0.931 . S
C498 O508 1.259 . S
C498 O509 1.270 . S
C499 O510 1.251 . S
C499 O511 1.251 . S
O500 C480 1.257 . S
O500 Eu481 2.473 . S
O501 C480 1.260 . S
O501 Eu481 2.480 . S
O502 Eu481 2.430 . S
O502 C488 1.259 . S
O503 Eu481 2.670 . S
O503 C488 1.270 . S
O503 Eu491 2.355 . S
O504 Eu481 2.394 . S
O504 C489 1.251 . S
O505 C489 1.251 . S
O505 Eu491 2.374 . S
O506 C490 1.257 . S
O506 Eu491 2.473 . S
O507 C490 1.260 . S
O507 Eu491 2.480 . S
O508 Eu491 2.430 . S
O508 C498 1.259 . S
O509 Eu481 2.355 . S
O509 Eu491 2.670 . S
O509 C498 1.270 . S
O510 Eu491 2.394 . S
O510 C499 1.251 . S
O511 Eu481 2.374 . S
O511 C499 1.251 . S
H512 C483 0.931 . S
H513 C484 0.931 . S
H514 C486 0.931 . S
H515 C487 0.931 . S
H516 C493 0.931 . S
H517 C494 0.931 . S
H518 C496 0.931 . S
H519 C497 0.931 . S
C520 Eu521 2.835 . S
C520 C522 1.500 . S
C520 O540 1.257 . S
C520 O541 1.260 . S
Eu521 C520 2.835 . S
Eu521 O540 2.473 . S
Eu521 O541 2.480 . S
Eu521 O542 2.430 . S
Eu521 O543 2.670 . S
Eu521 O544 2.394 . S
Eu521 O549 2.355 . S
Eu521 O551 2.374 . S
C522 C520 1.500 . S
C522 C523 1.377 . S
C522 C527 1.377 . S
C523 C522 1.377 . S
C523 C524 1.395 . S
C523 H552 0.931 . S
C524 C523 1.395 . S
C524 C525 1.383 . S
C524 H553 0.931 . S
C525 C524 1.383 . S
C525 C526 1.394 . S
C526 C525 1.394 . S
C526 C527 1.378 . S
C526 H554 0.931 . S
C527 C522 1.377 . S
C527 C526 1.378 . S
C527 H555 0.931 . S
C528 O542 1.259 . S
C528 O543 1.270 . S
C529 O544 1.251 . S
C529 O545 1.251 . S
C530 Eu531 2.835 . S
C530 C532 1.500 . S
C530 O546 1.257 . S
C530 O547 1.260 . S
Eu531 C530 2.835 . S
Eu531 O543 2.355 . S
Eu531 O545 2.374 . S
Eu531 O546 2.473 . S
Eu531 O547 2.480 . S
Eu531 O548 2.430 . S
Eu531 O549 2.670 . S
Eu531 O550 2.394 . S
C532 C530 1.500 . S
C532 C533 1.377 . S
C532 C537 1.377 . S
C533 C532 1.377 . S
C533 C534 1.395 . S
C533 H556 0.931 . S
C534 C533 1.395 . S
C534 C535 1.383 . S
C534 H557 0.931 . S
C535 C534 1.383 . S
C535 C536 1.394 . S
C536 C535 1.394 . S
C536 C537 1.378 . S
C536 H558 0.931 . S
C537 C532 1.377 . S
C537 C536 1.378 . S
C537 H559 0.931 . S
C538 O548 1.259 . S
C538 O549 1.270 . S
C539 O550 1.251 . S
C539 O551 1.251 . S
O540 C520 1.257 . S
O540 Eu521 2.473 . S
O541 C520 1.260 . S
O541 Eu521 2.480 . S
O542 Eu521 2.430 . S
O542 C528 1.259 . S
O543 Eu521 2.670 . S
O543 C528 1.270 . S
O543 Eu531 2.355 . S
O544 Eu521 2.394 . S
O544 C529 1.251 . S
O545 C529 1.251 . S
O545 Eu531 2.374 . S
O546 C530 1.257 . S
O546 Eu531 2.473 . S
O547 C530 1.260 . S
O547 Eu531 2.480 . S
O548 Eu531 2.430 . S
O548 C538 1.259 . S
O549 Eu521 2.355 . S
O549 Eu531 2.670 . S
O549 C538 1.270 . S
O550 Eu531 2.394 . S
O550 C539 1.251 . S
O551 Eu521 2.374 . S
O551 C539 1.251 . S
H552 C523 0.931 . S
H553 C524 0.931 . S
H554 C526 0.931 . S
H555 C527 0.931 . S
H556 C533 0.931 . S
H557 C534 0.931 . S
H558 C536 0.931 . S
H559 C537 0.931 . S
C560 Eu561 2.835 . S
C560 C562 1.500 . S
C560 O580 1.257 . S
C560 O581 1.260 . S
Eu561 C560 2.835 . S
Eu561 O580 2.473 . S
Eu561 O581 2.480 . S
Eu561 O582 2.430 . S
Eu561 O583 2.670 . S
Eu561 O584 2.394 . S
Eu561 O589 2.355 . S
Eu561 O591 2.374 . S
C562 C560 1.500 . S
C562 C563 1.377 . S
C562 C567 1.377 . S
C563 C562 1.377 . S
C563 C564 1.395 . S
C563 H592 0.931 . S
C564 C563 1.395 . S
C564 C565 1.383 . S
C564 H593 0.931 . S
C565 C564 1.383 . S
C565 C566 1.394 . S
C566 C565 1.394 . S
C566 C567 1.378 . S
C566 H594 0.931 . S
C567 C562 1.377 . S
C567 C566 1.378 . S
C567 H595 0.931 . S
C568 O582 1.259 . S
C568 O583 1.270 . S
C569 O584 1.251 . S
C569 O585 1.251 . S
C570 Eu571 2.835 . S
C570 C572 1.500 . S
C570 O586 1.257 . S
C570 O587 1.260 . S
Eu571 C570 2.835 . S
Eu571 O583 2.355 . S
Eu571 O585 2.374 . S
Eu571 O586 2.473 . S
Eu571 O587 2.480 . S
Eu571 O588 2.430 . S
Eu571 O589 2.670 . S
Eu571 O590 2.394 . S
C572 C570 1.500 . S
C572 C573 1.377 . S
C572 C577 1.377 . S
C573 C572 1.377 . S
C573 C574 1.395 . S
C573 H596 0.931 . S
C574 C573 1.395 . S
C574 C575 1.383 . S
C574 H597 0.931 . S
C575 C574 1.383 . S
C575 C576 1.394 . S
C576 C575 1.394 . S
C576 C577 1.378 . S
C576 H598 0.931 . S
C577 C572 1.377 . S
C577 C576 1.378 . S
C577 H599 0.931 . S
C578 O588 1.259 . S
C578 O589 1.270 . S
C579 O590 1.251 . S
C579 O591 1.251 . S
O580 C560 1.257 . S
O580 Eu561 2.473 . S
O581 C560 1.260 . S
O581 Eu561 2.480 . S
O582 Eu561 2.430 . S
O582 C568 1.259 . S
O583 Eu561 2.670 . S
O583 C568 1.270 . S
O583 Eu571 2.355 . S
O584 Eu561 2.394 . S
O584 C569 1.251 . S
O585 C569 1.251 . S
O585 Eu571 2.374 . S
O586 C570 1.257 . S
O586 Eu571 2.473 . S
O587 C570 1.260 . S
O587 Eu571 2.480 . S
O588 Eu571 2.430 . S
O588 C578 1.259 . S
O589 Eu561 2.355 . S
O589 Eu571 2.670 . S
O589 C578 1.270 . S
O590 Eu571 2.394 . S
O590 C579 1.251 . S
O591 Eu561 2.374 . S
O591 C579 1.251 . S
H592 C563 0.931 . S
H593 C564 0.931 . S
H594 C566 0.931 . S
H595 C567 0.931 . S
H596 C573 0.931 . S
H597 C574 0.931 . S
H598 C576 0.931 . S
H599 C577 0.931 . S
C600 Eu601 2.835 . S
C600 C602 1.500 . S
C600 O620 1.257 . S
C600 O621 1.260 . S
Eu601 C600 2.835 . S
Eu601 O620 2.473 . S
Eu601 O621 2.480 . S
Eu601 O622 2.430 . S
Eu601 O623 2.670 . S
Eu601 O624 2.394 . S
Eu601 O629 2.355 . S
Eu601 O631 2.374 . S
C602 C600 1.500 . S
C602 C603 1.377 . S
C602 C607 1.377 . S
C603 C602 1.377 . S
C603 C604 1.395 . S
C603 H632 0.931 . S
C604 C603 1.395 . S
C604 C605 1.383 . S
C604 H633 0.931 . S
C605 C604 1.383 . S
C605 C606 1.394 . S
C606 C605 1.394 . S
C606 C607 1.378 . S
C606 H634 0.931 . S
C607 C602 1.377 . S
C607 C606 1.378 . S
C607 H635 0.931 . S
C608 O622 1.259 . S
C608 O623 1.270 . S
C609 O624 1.251 . S
C609 O625 1.251 . S
C610 Eu611 2.835 . S
C610 C612 1.500 . S
C610 O626 1.257 . S
C610 O627 1.260 . S
Eu611 C610 2.835 . S
Eu611 O623 2.355 . S
Eu611 O625 2.374 . S
Eu611 O626 2.473 . S
Eu611 O627 2.480 . S
Eu611 O628 2.430 . S
Eu611 O629 2.670 . S
Eu611 O630 2.394 . S
C612 C610 1.500 . S
C612 C613 1.377 . S
C612 C617 1.367 1_655 S
C613 C612 1.377 . S
C613 C614 1.395 . S
C613 H636 0.931 . S
C614 C613 1.395 . S
C614 C615 1.383 . S
C614 H637 0.931 . S
C615 C614 1.383 . S
C615 C616 1.394 1_655 S
C616 C615 1.394 1_455 S
C616 C617 1.381 . S
C616 H638 0.931 . S
C617 C612 1.367 1_455 S
C617 C616 1.381 . S
C617 H639 0.938 . S
C618 O628 1.259 . S
C618 O629 1.270 . S
C619 O630 1.251 . S
C619 O631 1.251 . S
O620 C600 1.257 . S
O620 Eu601 2.473 . S
O621 C600 1.260 . S
O621 Eu601 2.480 . S
O622 Eu601 2.430 . S
O622 C608 1.259 . S
O623 Eu601 2.670 . S
O623 C608 1.270 . S
O623 Eu611 2.355 . S
O624 Eu601 2.394 . S
O624 C609 1.251 . S
O625 C609 1.251 . S
O625 Eu611 2.374 . S
O626 C610 1.257 . S
O626 Eu611 2.473 . S
O627 C610 1.260 . S
O627 Eu611 2.480 . S
O628 Eu611 2.430 . S
O628 C618 1.259 . S
O629 Eu601 2.355 . S
O629 Eu611 2.670 . S
O629 C618 1.270 . S
O630 Eu611 2.394 . S
O630 C619 1.251 . S
O631 Eu601 2.374 . S
O631 C619 1.251 . S
H632 C603 0.931 . S
H633 C604 0.931 . S
H634 C606 0.931 . S
H635 C607 0.931 . S
H636 C613 0.931 . S
H637 C614 0.931 . S
H638 C616 0.931 . S
H639 C617 0.938 . S
C640 Eu641 2.835 . S
C640 C642 1.500 . S
C640 O660 1.257 . S
C640 O661 1.260 . S
Eu641 C640 2.835 . S
Eu641 O660 2.473 . S
Eu641 O661 2.480 . S
Eu641 O662 2.430 . S
Eu641 O663 2.670 . S
Eu641 O664 2.394 . S
Eu641 O669 2.355 . S
Eu641 O671 2.374 . S
C642 C640 1.500 . S
C642 C643 1.377 . S
C642 C647 1.377 . S
C643 C642 1.377 . S
C643 C644 1.395 . S
C643 H672 0.931 . S
C644 C643 1.395 . S
C644 C645 1.383 . S
C644 H673 0.931 . S
C645 C644 1.383 . S
C645 C646 1.394 . S
C646 C645 1.394 . S
C646 C647 1.378 . S
C646 H674 0.931 . S
C647 C642 1.377 . S
C647 C646 1.378 . S
C647 H675 0.931 . S
C648 O662 1.259 . S
C648 O663 1.270 . S
C649 O664 1.251 . S
C649 O665 1.251 . S
C650 Eu651 2.835 . S
C650 C652 1.500 . S
C650 O666 1.257 . S
C650 O667 1.260 . S
Eu651 C650 2.835 . S
Eu651 O663 2.355 . S
Eu651 O665 2.374 . S
Eu651 O666 2.473 . S
Eu651 O667 2.480 . S
Eu651 O668 2.430 . S
Eu651 O669 2.670 . S
Eu651 O670 2.394 . S
C652 C650 1.500 . S
C652 C653 1.377 . S
C652 C657 1.377 . S
C653 C652 1.377 . S
C653 C654 1.395 . S
C653 H676 0.931 . S
C654 C653 1.395 . S
C654 C655 1.383 . S
C654 H677 0.931 . S
C655 C654 1.383 . S
C655 C656 1.394 . S
C656 C655 1.394 . S
C656 C657 1.378 . S
C656 H678 0.931 . S
C657 C652 1.377 . S
C657 C656 1.378 . S
C657 H679 0.931 . S
C658 O668 1.259 . S
C658 O669 1.270 . S
C659 O670 1.251 . S
C659 O671 1.251 . S
O660 C640 1.257 . S
O660 Eu641 2.473 . S
O661 C640 1.260 . S
O661 Eu641 2.480 . S
O662 Eu641 2.430 . S
O662 C648 1.259 . S
O663 Eu641 2.670 . S
O663 C648 1.270 . S
O663 Eu651 2.355 . S
O664 Eu641 2.394 . S
O664 C649 1.251 . S
O665 C649 1.251 . S
O665 Eu651 2.374 . S
O666 C650 1.257 . S
O666 Eu651 2.473 . S
O667 C650 1.260 . S
O667 Eu651 2.480 . S
O668 Eu651 2.430 . S
O668 C658 1.259 . S
O669 Eu641 2.355 . S
O669 Eu651 2.670 . S
O669 C658 1.270 . S
O670 Eu651 2.394 . S
O670 C659 1.251 . S
O671 Eu641 2.374 . S
O671 C659 1.251 . S
H672 C643 0.931 . S
H673 C644 0.931 . S
H674 C646 0.931 . S
H675 C647 0.931 . S
H676 C653 0.931 . S
H677 C654 0.931 . S
H678 C656 0.931 . S
H679 C657 0.931 . S
C680 Eu681 2.835 . S
C680 C682 1.500 . S
C680 O700 1.257 . S
C680 O701 1.260 . S
Eu681 C680 2.835 . S
Eu681 O700 2.473 . S
Eu681 O701 2.480 . S
Eu681 O702 2.430 . S
Eu681 O703 2.670 . S
Eu681 O704 2.394 . S
Eu681 O709 2.355 . S
Eu681 O711 2.374 . S
C682 C680 1.500 . S
C682 C683 1.377 . S
C682 C687 1.377 . S
C683 C682 1.377 . S
C683 C684 1.395 . S
C683 H712 0.931 . S
C684 C683 1.395 . S
C684 C685 1.383 . S
C684 H713 0.931 . S
C685 C684 1.383 . S
C685 C686 1.394 . S
C686 C685 1.394 . S
C686 C687 1.378 . S
C686 H714 0.931 . S
C687 C682 1.377 . S
C687 C686 1.378 . S
C687 H715 0.931 . S
C688 O702 1.259 . S
C688 O703 1.270 . S
C689 O704 1.251 . S
C689 O705 1.251 . S
C690 Eu691 2.835 . S
C690 C692 1.500 . S
C690 O706 1.257 . S
C690 O707 1.260 . S
Eu691 C690 2.835 . S
Eu691 O703 2.355 . S
Eu691 O705 2.374 . S
Eu691 O706 2.473 . S
Eu691 O707 2.480 . S
Eu691 O708 2.430 . S
Eu691 O709 2.670 . S
Eu691 O710 2.394 . S
C692 C690 1.500 . S
C692 C693 1.377 . S
C692 C697 1.376 1_545 S
C693 C692 1.377 . S
C693 C694 1.395 . S
C693 H716 0.931 . S
C694 C693 1.395 . S
C694 C695 1.383 . S
C694 H717 0.931 . S
C695 C694 1.383 . S
C695 C696 1.394 1_545 S
C696 C695 1.394 1_565 S
C696 C697 1.379 . S
C696 H718 0.931 . S
C697 C692 1.376 1_565 S
C697 C696 1.379 . S
C697 H719 0.931 . S
C698 O708 1.259 . S
C698 O709 1.270 . S
C699 O710 1.251 . S
C699 O711 1.251 . S
O700 C680 1.257 . S
O700 Eu681 2.473 . S
O701 C680 1.260 . S
O701 Eu681 2.480 . S
O702 Eu681 2.430 . S
O702 C688 1.259 . S
O703 Eu681 2.670 . S
O703 C688 1.270 . S
O703 Eu691 2.355 . S
O704 Eu681 2.394 . S
O704 C689 1.251 . S
O705 C689 1.251 . S
O705 Eu691 2.374 . S
O706 C690 1.257 . S
O706 Eu691 2.473 . S
O707 C690 1.260 . S
O707 Eu691 2.480 . S
O708 Eu691 2.430 . S
O708 C698 1.259 . S
O709 Eu681 2.355 . S
O709 Eu691 2.670 . S
O709 C698 1.270 . S
O710 Eu691 2.394 . S
O710 C699 1.251 . S
O711 Eu681 2.374 . S
O711 C699 1.251 . S
H712 C683 0.931 . S
H713 C684 0.931 . S
H714 C686 0.931 . S
H715 C687 0.931 . S
H716 C693 0.931 . S
H717 C694 0.931 . S
H718 C696 0.931 . S
H719 C697 0.931 . S
C720 Eu721 2.835 . S
C720 C722 1.500 . S
C720 O740 1.257 . S
C720 O741 1.260 . S
Eu721 C720 2.835 . S
Eu721 O740 2.473 . S
Eu721 O741 2.480 . S
Eu721 O742 2.430 . S
Eu721 O743 2.670 . S
Eu721 O744 2.394 . S
Eu721 O749 2.355 . S
Eu721 O751 2.374 . S
C722 C720 1.500 . S
C722 C723 1.377 . S
C722 C727 1.377 . S
C723 C722 1.377 . S
C723 C724 1.395 . S
C723 H752 0.931 . S
C724 C723 1.395 . S
C724 C725 1.383 . S
C724 H753 0.931 . S
C725 C724 1.383 . S
C725 C726 1.394 1_545 S
C726 C725 1.394 1_565 S
C726 C727 1.378 1_565 S
C726 H754 0.931 . S
C727 C722 1.377 . S
C727 C726 1.378 1_545 S
C727 H755 0.931 1_545 S
C728 O742 1.259 . S
C728 O743 1.270 . S
C729 O744 1.251 . S
C729 O745 1.251 . S
C730 Eu731 2.835 . S
C730 C732 1.500 . S
C730 O746 1.257 . S
C730 O747 1.260 . S
Eu731 C730 2.835 . S
Eu731 O743 2.355 . S
Eu731 O745 2.374 . S
Eu731 O746 2.473 . S
Eu731 O747 2.480 . S
Eu731 O748 2.430 . S
Eu731 O749 2.670 . S
Eu731 O750 2.394 . S
C732 C730 1.500 . S
C732 C733 1.377 . S
C732 C737 1.377 . S
C733 C732 1.377 . S
C733 C734 1.395 . S
C733 H756 0.931 . S
C734 C733 1.395 . S
C734 C735 1.383 . S
C734 H757 0.931 . S
C735 C734 1.383 . S
C735 C736 1.394 . S
C736 C735 1.394 . S
C736 C737 1.378 . S
C736 H758 0.931 . S
C737 C732 1.377 . S
C737 C736 1.378 . S
C737 H759 0.931 . S
C738 O748 1.259 . S
C738 O749 1.270 . S
C739 O750 1.251 . S
C739 O751 1.251 . S
O740 C720 1.257 . S
O740 Eu721 2.473 . S
O741 C720 1.260 . S
O741 Eu721 2.480 . S
O742 Eu721 2.430 . S
O742 C728 1.259 . S
O743 Eu721 2.670 . S
O743 C728 1.270 . S
O743 Eu731 2.355 . S
O744 Eu721 2.394 . S
O744 C729 1.251 . S
O745 C729 1.251 . S
O745 Eu731 2.374 . S
O746 C730 1.257 . S
O746 Eu731 2.473 . S
O747 C730 1.260 . S
O747 Eu731 2.480 . S
O748 Eu731 2.430 . S
O748 C738 1.259 . S
O749 Eu721 2.355 . S
O749 Eu731 2.670 . S
O749 C738 1.270 . S
O750 Eu731 2.394 . S
O750 C739 1.251 . S
O751 Eu721 2.374 . S
O751 C739 1.251 . S
H752 C723 0.931 . S
H753 C724 0.931 . S
H754 C726 0.931 . S
H755 C727 0.931 1_565 S
H756 C733 0.931 . S
H757 C734 0.931 . S
H758 C736 0.931 . S
H759 C737 0.931 . S
C760 Eu761 2.835 . S
C760 C762 1.500 . S
C760 O780 1.257 . S
C760 O781 1.260 . S
Eu761 C760 2.835 . S
Eu761 O780 2.473 . S
Eu761 O781 2.480 . S
Eu761 O782 2.430 . S
Eu761 O783 2.670 . S
Eu761 O784 2.394 . S
Eu761 O789 2.355 . S
Eu761 O791 2.374 . S
C762 C760 1.500 . S
C762 C763 1.377 . S
C762 C767 1.377 . S
C763 C762 1.377 . S
C763 C764 1.395 . S
C763 H792 0.931 . S
C764 C763 1.395 . S
C764 C765 1.383 . S
C764 H793 0.931 . S
C765 C764 1.383 . S
C765 C766 1.394 1_655 S
C766 C765 1.394 1_455 S
C766 C767 1.378 1_455 S
C766 H794 0.931 . S
C767 C762 1.377 . S
C767 C766 1.378 1_655 S
C767 H795 0.931 1_655 S
C768 O782 1.259 . S
C768 O783 1.270 . S
C769 O784 1.251 . S
C769 O785 1.251 . S
C770 Eu771 2.835 . S
C770 C772 1.500 . S
C770 O786 1.257 . S
C770 O787 1.260 . S
Eu771 C770 2.835 . S
Eu771 O783 2.355 . S
Eu771 O785 2.374 . S
Eu771 O786 2.473 . S
Eu771 O787 2.480 . S
Eu771 O788 2.430 . S
Eu771 O789 2.670 . S
Eu771 O790 2.394 . S
C772 C770 1.500 . S
C772 C773 1.377 . S
C772 C777 1.377 . S
C773 C772 1.377 . S
C773 C774 1.395 . S
C773 H796 0.931 . S
C774 C773 1.395 . S
C774 C775 1.383 . S
C774 H797 0.931 . S
C775 C774 1.383 . S
C775 C776 1.394 . S
C776 C775 1.394 . S
C776 C777 1.378 . S
C776 H798 0.931 . S
C777 C772 1.377 . S
C777 C776 1.378 . S
C777 H799 0.931 . S
C778 O788 1.259 . S
C778 O789 1.270 . S
C779 O790 1.251 . S
C779 O791 1.251 . S
O780 C760 1.257 . S
O780 Eu761 2.473 . S
O781 C760 1.260 . S
O781 Eu761 2.480 . S
O782 Eu761 2.430 . S
O782 C768 1.259 . S
O783 Eu761 2.670 . S
O783 C768 1.270 . S
O783 Eu771 2.355 . S
O784 Eu761 2.394 . S
O784 C769 1.251 . S
O785 C769 1.251 . S
O785 Eu771 2.374 . S
O786 C770 1.257 . S
O786 Eu771 2.473 . S
O787 C770 1.260 . S
O787 Eu771 2.480 . S
O788 Eu771 2.430 . S
O788 C778 1.259 . S
O789 Eu761 2.355 . S
O789 Eu771 2.670 . S
O789 C778 1.270 . S
O790 Eu771 2.394 . S
O790 C779 1.251 . S
O791 Eu761 2.374 . S
O791 C779 1.251 . S
H792 C763 0.931 . S
H793 C764 0.931 . S
H794 C766 0.931 . S
H795 C767 0.931 1_455 S
H796 C773 0.931 . S
H797 C774 0.931 . S
H798 C776 0.931 . S
H799 C777 0.931 . S
C800 Eu801 2.835 . S
C800 C802 1.500 . S
C800 O820 1.257 . S
C800 O821 1.260 . S
Eu801 C800 2.835 . S
Eu801 O820 2.473 . S
Eu801 O821 2.480 . S
Eu801 O822 2.430 . S
Eu801 O823 2.670 . S
Eu801 O824 2.394 . S
Eu801 O829 2.355 . S
Eu801 O831 2.374 . S
C802 C800 1.500 . S
C802 C803 1.377 . S
C802 C807 1.377 . S
C803 C802 1.377 . S
C803 C804 1.395 . S
C803 H832 0.931 . S
C804 C803 1.395 . S
C804 C805 1.383 . S
C804 H833 0.931 . S
C805 C804 1.383 . S
C805 C806 1.394 . S
C806 C805 1.394 . S
C806 C807 1.378 . S
C806 H834 0.931 . S
C807 C802 1.377 . S
C807 C806 1.378 . S
C807 H835 0.931 . S
C808 O822 1.259 . S
C808 O823 1.270 . S
C809 O824 1.251 . S
C809 O825 1.251 . S
C810 Eu811 2.835 . S
C810 C812 1.500 . S
C810 O826 1.257 . S
C810 O827 1.260 . S
Eu811 C810 2.835 . S
Eu811 O823 2.355 . S
Eu811 O825 2.374 . S
Eu811 O826 2.473 . S
Eu811 O827 2.480 . S
Eu811 O828 2.430 . S
Eu811 O829 2.670 . S
Eu811 O830 2.394 . S
C812 C810 1.500 . S
C812 C813 1.377 . S
C812 C817 1.377 . S
C813 C812 1.377 . S
C813 C814 1.395 . S
C813 H836 0.931 . S
C814 C813 1.395 . S
C814 C815 1.383 . S
C814 H837 0.931 . S
C815 C814 1.383 . S
C815 C816 1.394 . S
C816 C815 1.394 . S
C816 C817 1.378 . S
C816 H838 0.931 . S
C817 C812 1.377 . S
C817 C816 1.378 . S
C817 H839 0.931 . S
C818 O828 1.259 . S
C818 O829 1.270 . S
C819 O830 1.251 . S
C819 O831 1.251 . S
O820 C800 1.257 . S
O820 Eu801 2.473 . S
O821 C800 1.260 . S
O821 Eu801 2.480 . S
O822 Eu801 2.430 . S
O822 C808 1.259 . S
O823 Eu801 2.670 . S
O823 C808 1.270 . S
O823 Eu811 2.355 . S
O824 Eu801 2.394 . S
O824 C809 1.251 . S
O825 C809 1.251 . S
O825 Eu811 2.374 . S
O826 C810 1.257 . S
O826 Eu811 2.473 . S
O827 C810 1.260 . S
O827 Eu811 2.480 . S
O828 Eu811 2.430 . S
O828 C818 1.259 . S
O829 Eu801 2.355 . S
O829 Eu811 2.670 . S
O829 C818 1.270 . S
O830 Eu811 2.394 . S
O830 C819 1.251 . S
O831 Eu801 2.374 . S
O831 C819 1.251 . S
H832 C803 0.931 . S
H833 C804 0.931 . S
H834 C806 0.931 . S
H835 C807 0.931 . S
H836 C813 0.931 . S
H837 C814 0.931 . S
H838 C816 0.931 . S
H839 C817 0.931 . S
C840 Eu841 2.835 . S
C840 C842 1.500 . S
C840 O860 1.257 . S
C840 O861 1.260 . S
Eu841 C840 2.835 . S
Eu841 O860 2.473 . S
Eu841 O861 2.480 . S
Eu841 O862 2.430 . S
Eu841 O863 2.670 1_556 S
Eu841 O864 2.394 . S
Eu841 O869 2.355 . S
Eu841 O871 2.374 . S
C842 C840 1.500 . S
C842 C843 1.377 . S
C842 C847 1.377 . S
C843 C842 1.377 . S
C843 C844 1.395 . S
C843 H872 0.931 . S
C844 C843 1.395 . S
C844 C845 1.383 . S
C844 H873 0.931 . S
C845 C844 1.383 . S
C845 C846 1.394 . S
C846 C845 1.394 . S
C846 C847 1.378 . S
C846 H874 0.931 . S
C847 C842 1.377 . S
C847 C846 1.378 . S
C847 H875 0.931 . S
C848 O862 1.259 . S
C848 O863 1.270 1_556 S
C849 O864 1.251 . S
C849 O865 1.251 1_556 S
C850 Eu851 2.835 . S
C850 C852 1.500 . S
C850 O866 1.257 . S
C850 O867 1.260 . S
Eu851 C850 2.835 . S
Eu851 O863 2.355 . S
Eu851 O865 2.374 . S
Eu851 O866 2.473 . S
Eu851 O867 2.480 . S
Eu851 O868 2.430 . S
Eu851 O869 2.670 1_554 S
Eu851 O870 2.394 . S
C852 C850 1.500 . S
C852 C853 1.377 . S
C852 C857 1.377 . S
C853 C852 1.377 . S
C853 C854 1.395 . S
C853 H876 0.931 . S
C854 C853 1.395 . S
C854 C855 1.383 . S
C854 H877 0.931 . S
C855 C854 1.383 . S
C855 C856 1.394 . S
C856 C855 1.394 . S
C856 C857 1.378 . S
C856 H878 0.931 . S
C857 C852 1.377 . S
C857 C856 1.378 . S
C857 H879 0.931 . S
C858 O868 1.259 . S
C858 O869 1.270 1_554 S
C859 O870 1.251 . S
C859 O871 1.251 1_554 S
O860 C840 1.257 . S
O860 Eu841 2.473 . S
O861 C840 1.260 . S
O861 Eu841 2.480 . S
O862 Eu841 2.430 . S
O862 C848 1.259 . S
O863 Eu841 2.670 1_554 S
O863 C848 1.270 1_554 S
O863 Eu851 2.355 . S
O864 Eu841 2.394 . S
O864 C849 1.251 . S
O865 C849 1.251 1_554 S
O865 Eu851 2.374 . S
O866 C850 1.257 . S
O866 Eu851 2.473 . S
O867 C850 1.260 . S
O867 Eu851 2.480 . S
O868 Eu851 2.430 . S
O868 C858 1.259 . S
O869 Eu841 2.355 . S
O869 Eu851 2.670 1_556 S
O869 C858 1.270 1_556 S
O870 Eu851 2.394 . S
O870 C859 1.251 . S
O871 Eu841 2.374 . S
O871 C859 1.251 1_556 S
H872 C843 0.931 . S
H873 C844 0.931 . S
H874 C846 0.931 . S
H875 C847 0.931 . S
H876 C853 0.931 . S
H877 C854 0.931 . S
H878 C856 0.931 . S
H879 C857 0.931 . S
C880 Eu881 2.835 . S
C880 C882 1.500 . S
C880 O900 1.257 . S
C880 O901 1.260 . S
Eu881 C880 2.835 . S
Eu881 O900 2.473 . S
Eu881 O901 2.480 . S
Eu881 O902 2.430 . S
Eu881 O903 2.670 1_556 S
Eu881 O904 2.394 . S
Eu881 O909 2.355 . S
Eu881 O911 2.374 . S
C882 C880 1.500 . S
C882 C883 1.377 . S
C882 C887 1.377 . S
C883 C882 1.377 . S
C883 C884 1.395 . S
C883 H912 0.931 . S
C884 C883 1.395 . S
C884 C885 1.383 . S
C884 H913 0.931 . S
C885 C884 1.383 . S
C885 C886 1.394 . S
C886 C885 1.394 . S
C886 C887 1.378 . S
C886 H914 0.931 . S
C887 C882 1.377 . S
C887 C886 1.378 . S
C887 H915 0.931 . S
C888 O902 1.259 . S
C888 O903 1.270 1_556 S
C889 O904 1.251 . S
C889 O905 1.251 1_556 S
C890 Eu891 2.835 . S
C890 C892 1.500 . S
C890 O906 1.257 . S
C890 O907 1.260 . S
Eu891 C890 2.835 . S
Eu891 O903 2.355 . S
Eu891 O905 2.374 . S
Eu891 O906 2.473 . S
Eu891 O907 2.480 . S
Eu891 O908 2.430 . S
Eu891 O909 2.670 1_554 S
Eu891 O910 2.394 . S
C892 C890 1.500 . S
C892 C893 1.377 . S
C892 C897 1.377 . S
C893 C892 1.377 . S
C893 C894 1.395 . S
C893 H916 0.931 . S
C894 C893 1.395 . S
C894 C895 1.383 . S
C894 H917 0.931 . S
C895 C894 1.383 . S
C895 C896 1.394 . S
C896 C895 1.394 . S
C896 C897 1.378 . S
C896 H918 0.931 . S
C897 C892 1.377 . S
C897 C896 1.378 . S
C897 H919 0.931 . S
C898 O908 1.259 . S
C898 O909 1.270 1_554 S
C899 O910 1.251 . S
C899 O911 1.251 1_554 S
O900 C880 1.257 . S
O900 Eu881 2.473 . S
O901 C880 1.260 . S
O901 Eu881 2.480 . S
O902 Eu881 2.430 . S
O902 C888 1.259 . S
O903 Eu881 2.670 1_554 S
O903 C888 1.270 1_554 S
O903 Eu891 2.355 . S
O904 Eu881 2.394 . S
O904 C889 1.251 . S
O905 C889 1.251 1_554 S
O905 Eu891 2.374 . S
O906 C890 1.257 . S
O906 Eu891 2.473 . S
O907 C890 1.260 . S
O907 Eu891 2.480 . S
O908 Eu891 2.430 . S
O908 C898 1.259 . S
O909 Eu881 2.355 . S
O909 Eu891 2.670 1_556 S
O909 C898 1.270 1_556 S
O910 Eu891 2.394 . S
O910 C899 1.251 . S
O911 Eu881 2.374 . S
O911 C899 1.251 1_556 S
H912 C883 0.931 . S
H913 C884 0.931 . S
H914 C886 0.931 . S
H915 C887 0.931 . S
H916 C893 0.931 . S
H917 C894 0.931 . S
H918 C896 0.931 . S
H919 C897 0.931 . S
C920 Eu921 2.835 . S
C920 C922 1.500 . S
C920 O940 1.257 . S
C920 O941 1.260 . S
Eu921 C920 2.835 . S
Eu921 O940 2.473 . S
Eu921 O941 2.480 . S
Eu921 O942 2.430 . S
Eu921 O943 2.670 1_556 S
Eu921 O944 2.394 . S
Eu921 O949 2.355 . S
Eu921 O951 2.374 . S
C922 C920 1.500 . S
C922 C923 1.377 . S
C922 C927 1.377 . S
C923 C922 1.377 . S
C923 C924 1.395 . S
C923 H952 0.931 . S
C924 C923 1.395 . S
C924 C925 1.383 . S
C924 H953 0.931 . S
C925 C924 1.383 . S
C925 C926 1.394 . S
C926 C925 1.394 . S
C926 C927 1.378 . S
C926 H954 0.931 . S
C927 C922 1.377 . S
C927 C926 1.378 . S
C927 H955 0.931 . S
C928 O942 1.259 . S
C928 O943 1.270 1_556 S
C929 O944 1.251 . S
C929 O945 1.251 1_556 S
C930 Eu931 2.835 . S
C930 C932 1.500 . S
C930 O946 1.257 . S
C930 O947 1.260 . S
Eu931 C930 2.835 . S
Eu931 O943 2.355 . S
Eu931 O945 2.374 . S
Eu931 O946 2.473 . S
Eu931 O947 2.480 . S
Eu931 O948 2.430 . S
Eu931 O949 2.670 1_554 S
Eu931 O950 2.394 . S
C932 C930 1.500 . S
C932 C933 1.377 . S
C932 C937 1.377 . S
C933 C932 1.377 . S
C933 C934 1.395 . S
C933 H956 0.931 . S
C934 C933 1.395 . S
C934 C935 1.383 . S
C934 H957 0.931 . S
C935 C934 1.383 . S
C935 C936 1.394 . S
C936 C935 1.394 . S
C936 C937 1.378 . S
C936 H958 0.931 . S
C937 C932 1.377 . S
C937 C936 1.378 . S
C937 H959 0.931 . S
C938 O948 1.259 . S
C938 O949 1.270 1_554 S
C939 O950 1.251 . S
C939 O951 1.251 1_554 S
O940 C920 1.257 . S
O940 Eu921 2.473 . S
O941 C920 1.260 . S
O941 Eu921 2.480 . S
O942 Eu921 2.430 . S
O942 C928 1.259 . S
O943 Eu921 2.670 1_554 S
O943 C928 1.270 1_554 S
O943 Eu931 2.355 . S
O944 Eu921 2.394 . S
O944 C929 1.251 . S
O945 C929 1.251 1_554 S
O945 Eu931 2.374 . S
O946 C930 1.257 . S
O946 Eu931 2.473 . S
O947 C930 1.260 . S
O947 Eu931 2.480 . S
O948 Eu931 2.430 . S
O948 C938 1.259 . S
O949 Eu921 2.355 . S
O949 Eu931 2.670 1_556 S
O949 C938 1.270 1_556 S
O950 Eu931 2.394 . S
O950 C939 1.251 . S
O951 Eu921 2.374 . S
O951 C939 1.251 1_556 S
H952 C923 0.931 . S
H953 C924 0.931 . S
H954 C926 0.931 . S
H955 C927 0.931 . S
H956 C933 0.931 . S
H957 C934 0.931 . S
H958 C936 0.931 . S
H959 C937 0.931 . S
C960 Eu961 2.835 . S
C960 C962 1.500 . S
C960 O980 1.257 . S
C960 O981 1.260 . S
Eu961 C960 2.835 . S
Eu961 O980 2.473 . S
Eu961 O981 2.480 . S
Eu961 O982 2.430 . S
Eu961 O983 2.670 . S
Eu961 O984 2.394 . S
Eu961 O989 2.355 . S
Eu961 O991 2.374 . S
C962 C960 1.500 . S
C962 C963 1.377 . S
C962 C967 1.377 . S
C963 C962 1.377 . S
C963 C964 1.395 . S
C963 H992 0.931 . S
C964 C963 1.395 . S
C964 C965 1.383 . S
C964 H993 0.931 . S
C965 C964 1.383 . S
C965 C966 1.394 . S
C966 C965 1.394 . S
C966 C967 1.378 . S
C966 H994 0.931 . S
C967 C962 1.377 . S
C967 C966 1.378 . S
C967 H995 0.931 . S
C968 O982 1.259 . S
C968 O983 1.270 . S
C969 O984 1.251 . S
C969 O985 1.251 . S
C970 Eu971 2.835 . S
C970 C972 1.500 . S
C970 O986 1.257 . S
C970 O987 1.260 . S
Eu971 C970 2.835 . S
Eu971 O983 2.355 . S
Eu971 O985 2.374 . S
Eu971 O986 2.473 . S
Eu971 O987 2.480 . S
Eu971 O988 2.430 . S
Eu971 O989 2.670 . S
Eu971 O990 2.394 . S
C972 C970 1.500 . S
C972 C973 1.377 . S
C972 C977 1.377 . S
C973 C972 1.377 . S
C973 C974 1.395 . S
C973 H996 0.931 . S
C974 C973 1.395 . S
C974 C975 1.383 . S
C974 H997 0.931 . S
C975 C974 1.383 . S
C975 C976 1.394 1_565 S
C976 C975 1.394 1_545 S
C976 C977 1.378 1_545 S
C976 H998 0.931 . S
C977 C972 1.377 . S
C977 C976 1.378 1_565 S
C977 H999 0.931 1_565 S
C978 O988 1.259 . S
C978 O989 1.270 . S
C979 O990 1.251 . S
C979 O991 1.251 . S
O980 C960 1.257 . S
O980 Eu961 2.473 . S
O981 C960 1.260 . S
O981 Eu961 2.480 . S
O982 Eu961 2.430 . S
O982 C968 1.259 . S
O983 Eu961 2.670 . S
O983 C968 1.270 . S
O983 Eu971 2.355 . S
O984 Eu961 2.394 . S
O984 C969 1.251 . S
O985 C969 1.251 . S
O985 Eu971 2.374 . S
O986 C970 1.257 . S
O986 Eu971 2.473 . S
O987 C970 1.260 . S
O987 Eu971 2.480 . S
O988 Eu971 2.430 . S
O988 C978 1.259 . S
O989 Eu961 2.355 . S
O989 Eu971 2.670 . S
O989 C978 1.270 . S
O990 Eu971 2.394 . S
O990 C979 1.251 . S
O991 Eu961 2.374 . S
O991 C979 1.251 . S
H992 C963 0.931 . S
H993 C964 0.931 . S
H994 C966 0.931 . S
H995 C967 0.931 . S
H996 C973 0.931 . S
H997 C974 0.931 . S
H998 C976 0.931 . S
H999 C977 0.931 1_545 S
C1000 Eu1001 2.835 . S
C1000 C1002 1.500 . S
C1000 O1020 1.257 . S
C1000 O1021 1.260 . S
Eu1001 C1000 2.835 . S
Eu1001 O1020 2.473 . S
Eu1001 O1021 2.480 . S
Eu1001 O1022 2.430 . S
Eu1001 O1023 2.670 . S
Eu1001 O1024 2.394 . S
Eu1001 O1029 2.355 . S
Eu1001 O1031 2.374 . S
C1002 C1000 1.500 . S
C1002 C1003 1.377 . S
C1002 C1007 1.377 . S
C1003 C1002 1.377 . S
C1003 C1004 1.395 . S
C1003 H1032 0.931 . S
C1004 C1003 1.395 . S
C1004 C1005 1.383 . S
C1004 H1033 0.931 . S
C1005 C1004 1.383 . S
C1005 C1006 1.394 . S
C1006 C1005 1.394 . S
C1006 C1007 1.378 . S
C1006 H1034 0.931 . S
C1007 C1002 1.377 . S
C1007 C1006 1.378 . S
C1007 H1035 0.931 . S
C1008 O1022 1.259 . S
C1008 O1023 1.270 . S
C1009 O1024 1.251 . S
C1009 O1025 1.251 . S
C1010 Eu1011 2.835 . S
C1010 C1012 1.500 . S
C1010 O1026 1.257 . S
C1010 O1027 1.260 . S
Eu1011 C1010 2.835 . S
Eu1011 O1023 2.355 . S
Eu1011 O1025 2.374 . S
Eu1011 O1026 2.473 . S
Eu1011 O1027 2.480 . S
Eu1011 O1028 2.430 . S
Eu1011 O1029 2.670 . S
Eu1011 O1030 2.394 . S
C1012 C1010 1.500 . S
C1012 C1013 1.377 . S
C1012 C1017 1.377 . S
C1013 C1012 1.377 . S
C1013 C1014 1.395 . S
C1013 H1036 0.931 . S
C1014 C1013 1.395 . S
C1014 C1015 1.383 . S
C1014 H1037 0.931 . S
C1015 C1014 1.383 . S
C1015 C1016 1.394 1_455 S
C1016 C1015 1.394 1_655 S
C1016 C1017 1.378 1_655 S
C1016 H1038 0.931 . S
C1017 C1012 1.377 . S
C1017 C1016 1.378 1_455 S
C1017 H1039 0.931 1_455 S
C1018 O1028 1.259 . S
C1018 O1029 1.270 . S
C1019 O1030 1.251 . S
C1019 O1031 1.251 . S
O1020 C1000 1.257 . S
O1020 Eu1001 2.473 . S
O1021 C1000 1.260 . S
O1021 Eu1001 2.480 . S
O1022 Eu1001 2.430 . S
O1022 C1008 1.259 . S
O1023 Eu1001 2.670 . S
O1023 C1008 1.270 . S
O1023 Eu1011 2.355 . S
O1024 Eu1001 2.394 . S
O1024 C1009 1.251 . S
O1025 C1009 1.251 . S
O1025 Eu1011 2.374 . S
O1026 C1010 1.257 . S
O1026 Eu1011 2.473 . S
O1027 C1010 1.260 . S
O1027 Eu1011 2.480 . S
O1028 Eu1011 2.430 . S
O1028 C1018 1.259 . S
O1029 Eu1001 2.355 . S
O1029 Eu1011 2.670 . S
O1029 C1018 1.270 . S
O1030 Eu1011 2.394 . S
O1030 C1019 1.251 . S
O1031 Eu1001 2.374 . S
O1031 C1019 1.251 . S
H1032 C1003 0.931 . S
H1033 C1004 0.931 . S
H1034 C1006 0.931 . S
H1035 C1007 0.931 . S
H1036 C1013 0.931 . S
H1037 C1014 0.931 . S
H1038 C1016 0.931 . S
H1039 C1017 0.931 1_655 S
C1040 Eu1041 2.835 . S
C1040 C1042 1.500 . S
C1040 O1060 1.257 . S
C1040 O1061 1.260 . S
Eu1041 C1040 2.835 . S
Eu1041 O1060 2.473 . S
Eu1041 O1061 2.480 . S
Eu1041 O1062 2.430 . S
Eu1041 O1063 2.670 . S
Eu1041 O1064 2.394 . S
Eu1041 O1069 2.355 . S
Eu1041 O1071 2.374 . S
C1042 C1040 1.500 . S
C1042 C1043 1.377 . S
C1042 C1047 1.377 . S
C1043 C1042 1.377 . S
C1043 C1044 1.395 . S
C1043 H1072 0.931 . S
C1044 C1043 1.395 . S
C1044 C1045 1.383 . S
C1044 H1073 0.931 . S
C1045 C1044 1.383 . S
C1045 C1046 1.394 . S
C1046 C1045 1.394 . S
C1046 C1047 1.378 . S
C1046 H1074 0.931 . S
C1047 C1042 1.377 . S
C1047 C1046 1.378 . S
C1047 H1075 0.931 . S
C1048 O1062 1.259 . S
C1048 O1063 1.270 . S
C1049 O1064 1.251 . S
C1049 O1065 1.251 . S
C1050 Eu1051 2.835 . S
C1050 C1052 1.500 . S
C1050 O1066 1.257 . S
C1050 O1067 1.260 . S
Eu1051 C1050 2.835 . S
Eu1051 O1063 2.355 . S
Eu1051 O1065 2.374 . S
Eu1051 O1066 2.473 . S
Eu1051 O1067 2.480 . S
Eu1051 O1068 2.430 . S
Eu1051 O1069 2.670 . S
Eu1051 O1070 2.394 . S
C1052 C1050 1.500 . S
C1052 C1053 1.377 . S
C1052 C1057 1.377 . S
C1053 C1052 1.377 . S
C1053 C1054 1.395 . S
C1053 H1076 0.931 . S
C1054 C1053 1.395 . S
C1054 C1055 1.383 . S
C1054 H1077 0.931 . S
C1055 C1054 1.383 . S
C1055 C1056 1.394 . S
C1056 C1055 1.394 . S
C1056 C1057 1.378 . S
C1056 H1078 0.931 . S
C1057 C1052 1.377 . S
C1057 C1056 1.378 . S
C1057 H1079 0.931 . S
C1058 O1068 1.259 . S
C1058 O1069 1.270 . S
C1059 O1070 1.251 . S
C1059 O1071 1.251 . S
O1060 C1040 1.257 . S
O1060 Eu1041 2.473 . S
O1061 C1040 1.260 . S
O1061 Eu1041 2.480 . S
O1062 Eu1041 2.430 . S
O1062 C1048 1.259 . S
O1063 Eu1041 2.670 . S
O1063 C1048 1.270 . S
O1063 Eu1051 2.355 . S
O1064 Eu1041 2.394 . S
O1064 C1049 1.251 . S
O1065 C1049 1.251 . S
O1065 Eu1051 2.374 . S
O1066 C1050 1.257 . S
O1066 Eu1051 2.473 . S
O1067 C1050 1.260 . S
O1067 Eu1051 2.480 . S
O1068 Eu1051 2.430 . S
O1068 C1058 1.259 . S
O1069 Eu1041 2.355 . S
O1069 Eu1051 2.670 . S
O1069 C1058 1.270 . S
O1070 Eu1051 2.394 . S
O1070 C1059 1.251 . S
O1071 Eu1041 2.374 . S
O1071 C1059 1.251 . S
H1072 C1043 0.931 . S
H1073 C1044 0.931 . S
H1074 C1046 0.931 . S
H1075 C1047 0.931 . S
H1076 C1053 0.931 . S
H1077 C1054 0.931 . S
H1078 C1056 0.931 . S
H1079 C1057 0.931 . S
C1080 Eu1081 2.835 . S
C1080 C1082 1.500 . S
C1080 O1100 1.257 . S
C1080 O1101 1.260 . S
Eu1081 C1080 2.835 . S
Eu1081 O1100 2.473 . S
Eu1081 O1101 2.480 . S
Eu1081 O1102 2.430 . S
Eu1081 O1103 2.670 1_556 S
Eu1081 O1104 2.394 . S
Eu1081 O1109 2.355 . S
Eu1081 O1111 2.374 . S
C1082 C1080 1.500 . S
C1082 C1083 1.377 . S
C1082 C1087 1.377 . S
C1083 C1082 1.377 . S
C1083 C1084 1.395 . S
C1083 H1112 0.931 . S
C1084 C1083 1.395 . S
C1084 C1085 1.383 . S
C1084 H1113 0.931 . S
C1085 C1084 1.383 . S
C1085 C1086 1.394 . S
C1086 C1085 1.394 . S
C1086 C1087 1.378 . S
C1086 H1114 0.931 . S
C1087 C1082 1.377 . S
C1087 C1086 1.378 . S
C1087 H1115 0.931 . S
C1088 O1102 1.259 . S
C1088 O1103 1.270 1_556 S
C1089 O1104 1.251 . S
C1089 O1105 1.251 1_556 S
C1090 Eu1091 2.835 . S
C1090 C1092 1.500 . S
C1090 O1106 1.257 . S
C1090 O1107 1.260 . S
Eu1091 C1090 2.835 . S
Eu1091 O1103 2.355 . S
Eu1091 O1105 2.374 . S
Eu1091 O1106 2.473 . S
Eu1091 O1107 2.480 . S
Eu1091 O1108 2.430 . S
Eu1091 O1109 2.670 1_554 S
Eu1091 O1110 2.394 . S
C1092 C1090 1.500 . S
C1092 C1093 1.377 . S
C1092 C1097 1.377 . S
C1093 C1092 1.377 . S
C1093 C1094 1.395 . S
C1093 H1116 0.931 . S
C1094 C1093 1.395 . S
C1094 C1095 1.383 . S
C1094 H1117 0.931 . S
C1095 C1094 1.383 . S
C1095 C1096 1.394 . S
C1096 C1095 1.394 . S
C1096 C1097 1.378 . S
C1096 H1118 0.931 . S
C1097 C1092 1.377 . S
C1097 C1096 1.378 . S
C1097 H1119 0.931 . S
C1098 O1108 1.259 . S
C1098 O1109 1.270 1_554 S
C1099 O1110 1.251 . S
C1099 O1111 1.251 1_554 S
O1100 C1080 1.257 . S
O1100 Eu1081 2.473 . S
O1101 C1080 1.260 . S
O1101 Eu1081 2.480 . S
O1102 Eu1081 2.430 . S
O1102 C1088 1.259 . S
O1103 Eu1081 2.670 1_554 S
O1103 C1088 1.270 1_554 S
O1103 Eu1091 2.355 . S
O1104 Eu1081 2.394 . S
O1104 C1089 1.251 . S
O1105 C1089 1.251 1_554 S
O1105 Eu1091 2.374 . S
O1106 C1090 1.257 . S
O1106 Eu1091 2.473 . S
O1107 C1090 1.260 . S
O1107 Eu1091 2.480 . S
O1108 Eu1091 2.430 . S
O1108 C1098 1.259 . S
O1109 Eu1081 2.355 . S
O1109 Eu1091 2.670 1_556 S
O1109 C1098 1.270 1_556 S
O1110 Eu1091 2.394 . S
O1110 C1099 1.251 . S
O1111 Eu1081 2.374 . S
O1111 C1099 1.251 1_556 S
H1112 C1083 0.931 . S
H1113 C1084 0.931 . S
H1114 C1086 0.931 . S
H1115 C1087 0.931 . S
H1116 C1093 0.931 . S
H1117 C1094 0.931 . S
H1118 C1096 0.931 . S
H1119 C1097 0.931 . S
C1120 Eu1121 2.835 . S
C1120 C1122 1.500 . S
C1120 O1140 1.257 . S
C1120 O1141 1.260 . S
Eu1121 C1120 2.835 . S
Eu1121 O1140 2.473 . S
Eu1121 O1141 2.480 . S
Eu1121 O1142 2.430 . S
Eu1121 O1143 2.670 1_556 S
Eu1121 O1144 2.394 . S
Eu1121 O1149 2.355 . S
Eu1121 O1151 2.374 . S
C1122 C1120 1.500 . S
C1122 C1123 1.377 . S
C1122 C1127 1.377 . S
C1123 C1122 1.377 . S
C1123 C1124 1.395 . S
C1123 H1152 0.931 . S
C1124 C1123 1.395 . S
C1124 C1125 1.383 . S
C1124 H1153 0.931 . S
C1125 C1124 1.383 . S
C1125 C1126 1.394 . S
C1126 C1125 1.394 . S
C1126 C1127 1.378 . S
C1126 H1154 0.931 . S
C1127 C1122 1.377 . S
C1127 C1126 1.378 . S
C1127 H1155 0.931 . S
C1128 O1142 1.259 . S
C1128 O1143 1.270 1_556 S
C1129 O1144 1.251 . S
C1129 O1145 1.251 1_556 S
C1130 Eu1131 2.835 . S
C1130 C1132 1.500 . S
C1130 O1146 1.257 . S
C1130 O1147 1.260 . S
Eu1131 C1130 2.835 . S
Eu1131 O1143 2.355 . S
Eu1131 O1145 2.374 . S
Eu1131 O1146 2.473 . S
Eu1131 O1147 2.480 . S
Eu1131 O1148 2.430 . S
Eu1131 O1149 2.670 1_554 S
Eu1131 O1150 2.394 . S
C1132 C1130 1.500 . S
C1132 C1133 1.377 . S
C1132 C1137 1.377 . S
C1133 C1132 1.377 . S
C1133 C1134 1.395 . S
C1133 H1156 0.931 . S
C1134 C1133 1.395 . S
C1134 C1135 1.383 . S
C1134 H1157 0.931 . S
C1135 C1134 1.383 . S
C1135 C1136 1.394 . S
C1136 C1135 1.394 . S
C1136 C1137 1.378 . S
C1136 H1158 0.931 . S
C1137 C1132 1.377 . S
C1137 C1136 1.378 . S
C1137 H1159 0.931 . S
C1138 O1148 1.259 . S
C1138 O1149 1.270 1_554 S
C1139 O1150 1.251 . S
C1139 O1151 1.251 1_554 S
O1140 C1120 1.257 . S
O1140 Eu1121 2.473 . S
O1141 C1120 1.260 . S
O1141 Eu1121 2.480 . S
O1142 Eu1121 2.430 . S
O1142 C1128 1.259 . S
O1143 Eu1121 2.670 1_554 S
O1143 C1128 1.270 1_554 S
O1143 Eu1131 2.355 . S
O1144 Eu1121 2.394 . S
O1144 C1129 1.251 . S
O1145 C1129 1.251 1_554 S
O1145 Eu1131 2.374 . S
O1146 C1130 1.257 . S
O1146 Eu1131 2.473 . S
O1147 C1130 1.260 . S
O1147 Eu1131 2.480 . S
O1148 Eu1131 2.430 . S
O1148 C1138 1.259 . S
O1149 Eu1121 2.355 . S
O1149 Eu1131 2.670 1_556 S
O1149 C1138 1.270 1_556 S
O1150 Eu1131 2.394 . S
O1150 C1139 1.251 . S
O1151 Eu1121 2.374 . S
O1151 C1139 1.251 1_556 S
H1152 C1123 0.931 . S
H1153 C1124 0.931 . S
H1154 C1126 0.931 . S
H1155 C1127 0.931 . S
H1156 C1133 0.931 . S
H1157 C1134 0.931 . S
H1158 C1136 0.931 . S
H1159 C1137 0.931 . S
C1160 Eu1161 2.835 . S
C1160 C1162 1.500 . S
C1160 O1180 1.257 . S
C1160 O1181 1.260 . S
Eu1161 C1160 2.835 . S
Eu1161 O1180 2.473 . S
Eu1161 O1181 2.480 . S
Eu1161 O1182 2.430 . S
Eu1161 O1183 2.670 1_556 S
Eu1161 O1184 2.394 . S
Eu1161 O1189 2.355 . S
Eu1161 O1191 2.374 . S
C1162 C1160 1.500 . S
C1162 C1163 1.377 . S
C1162 C1167 1.377 . S
C1163 C1162 1.377 . S
C1163 C1164 1.395 . S
C1163 H1192 0.931 . S
C1164 C1163 1.395 . S
C1164 C1165 1.383 . S
C1164 H1193 0.931 . S
C1165 C1164 1.383 . S
C1165 C1166 1.394 . S
C1166 C1165 1.394 . S
C1166 C1167 1.378 . S
C1166 H1194 0.931 . S
C1167 C1162 1.377 . S
C1167 C1166 1.378 . S
C1167 H1195 0.931 . S
C1168 O1182 1.259 . S
C1168 O1183 1.270 1_556 S
C1169 O1184 1.251 . S
C1169 O1185 1.251 1_556 S
C1170 Eu1171 2.835 . S
C1170 C1172 1.500 . S
C1170 O1186 1.257 . S
C1170 O1187 1.260 . S
Eu1171 C1170 2.835 . S
Eu1171 O1183 2.355 . S
Eu1171 O1185 2.374 . S
Eu1171 O1186 2.473 . S
Eu1171 O1187 2.480 . S
Eu1171 O1188 2.430 . S
Eu1171 O1189 2.670 1_554 S
Eu1171 O1190 2.394 . S
C1172 C1170 1.500 . S
C1172 C1173 1.377 . S
C1172 C1177 1.377 . S
C1173 C1172 1.377 . S
C1173 C1174 1.395 . S
C1173 H1196 0.931 . S
C1174 C1173 1.395 . S
C1174 C1175 1.383 . S
C1174 H1197 0.931 . S
C1175 C1174 1.383 . S
C1175 C1176 1.394 . S
C1176 C1175 1.394 . S
C1176 C1177 1.378 . S
C1176 H1198 0.931 . S
C1177 C1172 1.377 . S
C1177 C1176 1.378 . S
C1177 H1199 0.931 . S
C1178 O1188 1.259 . S
C1178 O1189 1.270 1_554 S
C1179 O1190 1.251 . S
C1179 O1191 1.251 1_554 S
O1180 C1160 1.257 . S
O1180 Eu1161 2.473 . S
O1181 C1160 1.260 . S
O1181 Eu1161 2.480 . S
O1182 Eu1161 2.430 . S
O1182 C1168 1.259 . S
O1183 Eu1161 2.670 1_554 S
O1183 C1168 1.270 1_554 S
O1183 Eu1171 2.355 . S
O1184 Eu1161 2.394 . S
O1184 C1169 1.251 . S
O1185 C1169 1.251 1_554 S
O1185 Eu1171 2.374 . S
O1186 C1170 1.257 . S
O1186 Eu1171 2.473 . S
O1187 C1170 1.260 . S
O1187 Eu1171 2.480 . S
O1188 Eu1171 2.430 . S
O1188 C1178 1.259 . S
O1189 Eu1161 2.355 . S
O1189 Eu1171 2.670 1_556 S
O1189 C1178 1.270 1_556 S
O1190 Eu1171 2.394 . S
O1190 C1179 1.251 . S
O1191 Eu1161 2.374 . S
O1191 C1179 1.251 1_556 S
H1192 C1163 0.931 . S
H1193 C1164 0.931 . S
H1194 C1166 0.931 . S
H1195 C1167 0.931 . S
H1196 C1173 0.931 . S
H1197 C1174 0.931 . S
H1198 C1176 0.931 . S
H1199 C1177 0.931 . S
C1200 Eu1201 2.835 . S
C1200 C1202 1.500 . S
C1200 O1220 1.257 . S
C1200 O1221 1.260 . S
Eu1201 C1200 2.835 . S
Eu1201 O1220 2.473 . S
Eu1201 O1221 2.480 . S
Eu1201 O1222 2.430 . S
Eu1201 O1223 2.670 . S
Eu1201 O1224 2.394 . S
Eu1201 O1229 2.355 . S
Eu1201 O1231 2.374 . S
C1202 C1200 1.500 . S
C1202 C1203 1.377 . S
C1202 C1207 1.377 . S
C1203 C1202 1.377 . S
C1203 C1204 1.395 . S
C1203 H1232 0.931 . S
C1204 C1203 1.395 . S
C1204 C1205 1.383 . S
C1204 H1233 0.931 . S
C1205 C1204 1.383 . S
C1205 C1206 1.394 . S
C1206 C1205 1.394 . S
C1206 C1207 1.378 . S
C1206 H1234 0.931 . S
C1207 C1202 1.377 . S
C1207 C1206 1.378 . S
C1207 H1235 0.931 . S
C1208 O1222 1.259 . S
C1208 O1223 1.270 . S
C1209 O1224 1.251 . S
C1209 O1225 1.251 . S
C1210 Eu1211 2.835 . S
C1210 C1212 1.500 . S
C1210 O1226 1.257 . S
C1210 O1227 1.260 . S
Eu1211 C1210 2.835 . S
Eu1211 O1223 2.355 . S
Eu1211 O1225 2.374 . S
Eu1211 O1226 2.473 . S
Eu1211 O1227 2.480 . S
Eu1211 O1228 2.430 . S
Eu1211 O1229 2.670 . S
Eu1211 O1230 2.394 . S
C1212 C1210 1.500 . S
C1212 C1213 1.377 . S
C1212 C1217 1.377 . S
C1213 C1212 1.377 . S
C1213 C1214 1.395 . S
C1213 H1236 0.931 . S
C1214 C1213 1.395 . S
C1214 C1215 1.383 . S
C1214 H1237 0.931 . S
C1215 C1214 1.383 . S
C1215 C1216 1.394 . S
C1216 C1215 1.394 . S
C1216 C1217 1.378 . S
C1216 H1238 0.931 . S
C1217 C1212 1.377 . S
C1217 C1216 1.378 . S
C1217 H1239 0.931 . S
C1218 O1228 1.259 . S
C1218 O1229 1.270 . S
C1219 O1230 1.251 . S
C1219 O1231 1.251 . S
O1220 C1200 1.257 . S
O1220 Eu1201 2.473 . S
O1221 C1200 1.260 . S
O1221 Eu1201 2.480 . S
O1222 Eu1201 2.430 . S
O1222 C1208 1.259 . S
O1223 Eu1201 2.670 . S
O1223 C1208 1.270 . S
O1223 Eu1211 2.355 . S
O1224 Eu1201 2.394 . S
O1224 C1209 1.251 . S
O1225 C1209 1.251 . S
O1225 Eu1211 2.374 . S
O1226 C1210 1.257 . S
O1226 Eu1211 2.473 . S
O1227 C1210 1.260 . S
O1227 Eu1211 2.480 . S
O1228 Eu1211 2.430 . S
O1228 C1218 1.259 . S
O1229 Eu1201 2.355 . S
O1229 Eu1211 2.670 . S
O1229 C1218 1.270 . S
O1230 Eu1211 2.394 . S
O1230 C1219 1.251 . S
O1231 Eu1201 2.374 . S
O1231 C1219 1.251 . S
H1232 C1203 0.931 . S
H1233 C1204 0.931 . S
H1234 C1206 0.931 . S
H1235 C1207 0.931 . S
H1236 C1213 0.931 . S
H1237 C1214 0.931 . S
H1238 C1216 0.931 . S
H1239 C1217 0.931 . S
C1240 Eu1241 2.835 . S
C1240 C1242 1.500 . S
C1240 O1260 1.257 . S
C1240 O1261 1.260 . S
Eu1241 C1240 2.835 . S
Eu1241 O1260 2.473 . S
Eu1241 O1261 2.480 . S
Eu1241 O1262 2.430 . S
Eu1241 O1263 2.670 . S
Eu1241 O1264 2.394 . S
Eu1241 O1269 2.355 . S
Eu1241 O1271 2.374 . S
C1242 C1240 1.500 . S
C1242 C1243 1.377 . S
C1242 C1247 1.377 . S
C1243 C1242 1.377 . S
C1243 C1244 1.395 . S
C1243 H1272 0.931 . S
C1244 C1243 1.395 . S
C1244 C1245 1.383 . S
C1244 H1273 0.931 . S
C1245 C1244 1.383 . S
C1245 C1246 1.394 . S
C1246 C1245 1.394 . S
C1246 C1247 1.378 . S
C1246 H1274 0.931 . S
C1247 C1242 1.377 . S
C1247 C1246 1.378 . S
C1247 H1275 0.931 . S
C1248 O1262 1.259 . S
C1248 O1263 1.270 . S
C1249 O1264 1.251 . S
C1249 O1265 1.251 . S
C1250 Eu1251 2.835 . S
C1250 C1252 1.500 . S
C1250 O1266 1.257 . S
C1250 O1267 1.260 . S
Eu1251 C1250 2.835 . S
Eu1251 O1263 2.355 . S
Eu1251 O1265 2.374 . S
Eu1251 O1266 2.473 . S
Eu1251 O1267 2.480 . S
Eu1251 O1268 2.430 . S
Eu1251 O1269 2.670 . S
Eu1251 O1270 2.394 . S
C1252 C1250 1.500 . S
C1252 C1253 1.377 . S
C1252 C1257 1.377 . S
C1253 C1252 1.377 . S
C1253 C1254 1.395 . S
C1253 H1276 0.931 . S
C1254 C1253 1.395 . S
C1254 C1255 1.383 . S
C1254 H1277 0.931 . S
C1255 C1254 1.383 . S
C1255 C1256 1.394 . S
C1256 C1255 1.394 . S
C1256 C1257 1.378 . S
C1256 H1278 0.931 . S
C1257 C1252 1.377 . S
C1257 C1256 1.378 . S
C1257 H1279 0.931 . S
C1258 O1268 1.259 . S
C1258 O1269 1.270 . S
C1259 O1270 1.251 . S
C1259 O1271 1.251 . S
O1260 C1240 1.257 . S
O1260 Eu1241 2.473 . S
O1261 C1240 1.260 . S
O1261 Eu1241 2.480 . S
O1262 Eu1241 2.430 . S
O1262 C1248 1.259 . S
O1263 Eu1241 2.670 . S
O1263 C1248 1.270 . S
O1263 Eu1251 2.355 . S
O1264 Eu1241 2.394 . S
O1264 C1249 1.251 . S
O1265 C1249 1.251 . S
O1265 Eu1251 2.374 . S
O1266 C1250 1.257 . S
O1266 Eu1251 2.473 . S
O1267 C1250 1.260 . S
O1267 Eu1251 2.480 . S
O1268 Eu1251 2.430 . S
O1268 C1258 1.259 . S
O1269 Eu1241 2.355 . S
O1269 Eu1251 2.670 . S
O1269 C1258 1.270 . S
O1270 Eu1251 2.394 . S
O1270 C1259 1.251 . S
O1271 Eu1241 2.374 . S
O1271 C1259 1.251 . S
H1272 C1243 0.931 . S
H1273 C1244 0.931 . S
H1274 C1246 0.931 . S
H1275 C1247 0.931 . S
H1276 C1253 0.931 . S
H1277 C1254 0.931 . S
H1278 C1256 0.931 . S
H1279 C1257 0.931 . S
C1280 Eu1281 2.835 . S
C1280 C1282 1.500 . S
C1280 O1300 1.257 . S
C1280 O1301 1.260 . S
Eu1281 C1280 2.835 . S
Eu1281 O1300 2.473 . S
Eu1281 O1301 2.480 . S
Eu1281 O1302 2.430 . S
Eu1281 O1303 2.670 . S
Eu1281 O1304 2.394 . S
Eu1281 O1309 2.355 . S
Eu1281 O1311 2.374 . S
C1282 C1280 1.500 . S
C1282 C1283 1.377 . S
C1282 C1287 1.377 . S
C1283 C1282 1.377 . S
C1283 C1284 1.395 . S
C1283 H1312 0.931 . S
C1284 C1283 1.395 . S
C1284 C1285 1.383 . S
C1284 H1313 0.931 . S
C1285 C1284 1.383 . S
C1285 C1286 1.394 . S
C1286 C1285 1.394 . S
C1286 C1287 1.378 . S
C1286 H1314 0.931 . S
C1287 C1282 1.377 . S
C1287 C1286 1.378 . S
C1287 H1315 0.931 . S
C1288 O1302 1.259 . S
C1288 O1303 1.270 . S
C1289 O1304 1.251 . S
C1289 O1305 1.251 . S
C1290 Eu1291 2.835 . S
C1290 C1292 1.500 . S
C1290 O1306 1.257 . S
C1290 O1307 1.260 . S
Eu1291 C1290 2.835 . S
Eu1291 O1303 2.355 . S
Eu1291 O1305 2.374 . S
Eu1291 O1306 2.473 . S
Eu1291 O1307 2.480 . S
Eu1291 O1308 2.430 . S
Eu1291 O1309 2.670 . S
Eu1291 O1310 2.394 . S
C1292 C1290 1.500 . S
C1292 C1293 1.377 . S
C1292 C1297 1.377 . S
C1293 C1292 1.377 . S
C1293 C1294 1.395 . S
C1293 H1316 0.931 . S
C1294 C1293 1.395 . S
C1294 C1295 1.383 . S
C1294 H1317 0.931 . S
C1295 C1294 1.383 . S
C1295 C1296 1.394 . S
C1296 C1295 1.394 . S
C1296 C1297 1.378 . S
C1296 H1318 0.931 . S
C1297 C1292 1.377 . S
C1297 C1296 1.378 . S
C1297 H1319 0.931 . S
C1298 O1308 1.259 . S
C1298 O1309 1.270 . S
C1299 O1310 1.251 . S
C1299 O1311 1.251 . S
O1300 C1280 1.257 . S
O1300 Eu1281 2.473 . S
O1301 C1280 1.260 . S
O1301 Eu1281 2.480 . S
O1302 Eu1281 2.430 . S
O1302 C1288 1.259 . S
O1303 Eu1281 2.670 . S
O1303 C1288 1.270 . S
O1303 Eu1291 2.355 . S
O1304 Eu1281 2.394 . S
O1304 C1289 1.251 . S
O1305 C1289 1.251 . S
O1305 Eu1291 2.374 . S
O1306 C1290 1.257 . S
O1306 Eu1291 2.473 . S
O1307 C1290 1.260 . S
O1307 Eu1291 2.480 . S
O1308 Eu1291 2.430 . S
O1308 C1298 1.259 . S
O1309 Eu1281 2.355 . S
O1309 Eu1291 2.670 . S
O1309 C1298 1.270 . S
O1310 Eu1291 2.394 . S
O1310 C1299 1.251 . S
O1311 Eu1281 2.374 . S
O1311 C1299 1.251 . S
H1312 C1283 0.931 . S
H1313 C1284 0.931 . S
H1314 C1286 0.931 . S
H1315 C1287 0.931 . S
H1316 C1293 0.931 . S
H1317 C1294 0.931 . S
H1318 C1296 0.931 . S
H1319 C1297 0.931 . S
C1320 Eu1321 2.835 . S
C1320 C1322 1.500 . S
C1320 O1340 1.257 . S
C1320 O1341 1.260 . S
Eu1321 C1320 2.835 . S
Eu1321 O1340 2.473 . S
Eu1321 O1341 2.480 . S
Eu1321 O1342 2.430 . S
Eu1321 O1343 2.670 . S
Eu1321 O1344 2.394 . S
Eu1321 O1349 2.355 . S
Eu1321 O1351 2.374 . S
C1322 C1320 1.500 . S
C1322 C1323 1.377 . S
C1322 C1327 1.367 1_455 S
C1323 C1322 1.377 . S
C1323 C1324 1.395 . S
C1323 H1352 0.931 . S
C1324 C1323 1.395 . S
C1324 C1325 1.383 . S
C1324 H1353 0.931 . S
C1325 C1324 1.383 . S
C1325 C1326 1.394 1_455 S
C1326 C1325 1.394 1_655 S
C1326 C1327 1.381 . S
C1326 H1354 0.931 . S
C1327 C1322 1.367 1_655 S
C1327 C1326 1.381 . S
C1327 H1355 0.938 . S
C1328 O1342 1.259 . S
C1328 O1343 1.270 . S
C1329 O1344 1.251 . S
C1329 O1345 1.251 . S
C1330 Eu1331 2.835 . S
C1330 C1332 1.500 . S
C1330 O1346 1.257 . S
C1330 O1347 1.260 . S
Eu1331 C1330 2.835 . S
Eu1331 O1343 2.355 . S
Eu1331 O1345 2.374 . S
Eu1331 O1346 2.473 . S
Eu1331 O1347 2.480 . S
Eu1331 O1348 2.430 . S
Eu1331 O1349 2.670 . S
Eu1331 O1350 2.394 . S
C1332 C1330 1.500 . S
C1332 C1333 1.377 . S
C1332 C1337 1.377 . S
C1333 C1332 1.377 . S
C1333 C1334 1.395 . S
C1333 H1356 0.931 . S
C1334 C1333 1.395 . S
C1334 C1335 1.383 . S
C1334 H1357 0.931 . S
C1335 C1334 1.383 . S
C1335 C1336 1.394 . S
C1336 C1335 1.394 . S
C1336 C1337 1.378 . S
C1336 H1358 0.931 . S
C1337 C1332 1.377 . S
C1337 C1336 1.378 . S
C1337 H1359 0.931 . S
C1338 O1348 1.259 . S
C1338 O1349 1.270 . S
C1339 O1350 1.251 . S
C1339 O1351 1.251 . S
O1340 C1320 1.257 . S
O1340 Eu1321 2.473 . S
O1341 C1320 1.260 . S
O1341 Eu1321 2.480 . S
O1342 Eu1321 2.430 . S
O1342 C1328 1.259 . S
O1343 Eu1321 2.670 . S
O1343 C1328 1.270 . S
O1343 Eu1331 2.355 . S
O1344 Eu1321 2.394 . S
O1344 C1329 1.251 . S
O1345 C1329 1.251 . S
O1345 Eu1331 2.374 . S
O1346 C1330 1.257 . S
O1346 Eu1331 2.473 . S
O1347 C1330 1.260 . S
O1347 Eu1331 2.480 . S
O1348 Eu1331 2.430 . S
O1348 C1338 1.259 . S
O1349 Eu1321 2.355 . S
O1349 Eu1331 2.670 . S
O1349 C1338 1.270 . S
O1350 Eu1331 2.394 . S
O1350 C1339 1.251 . S
O1351 Eu1321 2.374 . S
O1351 C1339 1.251 . S
H1352 C1323 0.931 . S
H1353 C1324 0.931 . S
H1354 C1326 0.931 . S
H1355 C1327 0.938 . S
H1356 C1333 0.931 . S
H1357 C1334 0.931 . S
H1358 C1336 0.931 . S
H1359 C1337 0.931 . S
C1360 Eu1361 2.835 . S
C1360 C1362 1.500 . S
C1360 O1380 1.257 . S
C1360 O1381 1.260 . S
Eu1361 C1360 2.835 . S
Eu1361 O1380 2.473 . S
Eu1361 O1381 2.480 . S
Eu1361 O1382 2.430 . S
Eu1361 O1383 2.670 . S
Eu1361 O1384 2.394 . S
Eu1361 O1389 2.355 . S
Eu1361 O1391 2.374 . S
C1362 C1360 1.500 . S
C1362 C1363 1.377 . S
C1362 C1367 1.377 . S
C1363 C1362 1.377 . S
C1363 C1364 1.395 . S
C1363 H1392 0.931 . S
C1364 C1363 1.395 . S
C1364 C1365 1.383 . S
C1364 H1393 0.931 . S
C1365 C1364 1.383 . S
C1365 C1366 1.394 . S
C1366 C1365 1.394 . S
C1366 C1367 1.378 . S
C1366 H1394 0.931 . S
C1367 C1362 1.377 . S
C1367 C1366 1.378 . S
C1367 H1395 0.931 . S
C1368 O1382 1.259 . S
C1368 O1383 1.270 . S
C1369 O1384 1.251 . S
C1369 O1385 1.251 . S
C1370 Eu1371 2.835 . S
C1370 C1372 1.500 . S
C1370 O1386 1.257 . S
C1370 O1387 1.260 . S
Eu1371 C1370 2.835 . S
Eu1371 O1383 2.355 . S
Eu1371 O1385 2.374 . S
Eu1371 O1386 2.473 . S
Eu1371 O1387 2.480 . S
Eu1371 O1388 2.430 . S
Eu1371 O1389 2.670 . S
Eu1371 O1390 2.394 . S
C1372 C1370 1.500 . S
C1372 C1373 1.377 . S
C1372 C1377 1.377 . S
C1373 C1372 1.377 . S
C1373 C1374 1.395 . S
C1373 H1396 0.931 . S
C1374 C1373 1.395 . S
C1374 C1375 1.383 . S
C1374 H1397 0.931 . S
C1375 C1374 1.383 . S
C1375 C1376 1.394 . S
C1376 C1375 1.394 . S
C1376 C1377 1.378 . S
C1376 H1398 0.931 . S
C1377 C1372 1.377 . S
C1377 C1376 1.378 . S
C1377 H1399 0.931 . S
C1378 O1388 1.259 . S
C1378 O1389 1.270 . S
C1379 O1390 1.251 . S
C1379 O1391 1.251 . S
O1380 C1360 1.257 . S
O1380 Eu1361 2.473 . S
O1381 C1360 1.260 . S
O1381 Eu1361 2.480 . S
O1382 Eu1361 2.430 . S
O1382 C1368 1.259 . S
O1383 Eu1361 2.670 . S
O1383 C1368 1.270 . S
O1383 Eu1371 2.355 . S
O1384 Eu1361 2.394 . S
O1384 C1369 1.251 . S
O1385 C1369 1.251 . S
O1385 Eu1371 2.374 . S
O1386 C1370 1.257 . S
O1386 Eu1371 2.473 . S
O1387 C1370 1.260 . S
O1387 Eu1371 2.480 . S
O1388 Eu1371 2.430 . S
O1388 C1378 1.259 . S
O1389 Eu1361 2.355 . S
O1389 Eu1371 2.670 . S
O1389 C1378 1.270 . S
O1390 Eu1371 2.394 . S
O1390 C1379 1.251 . S
O1391 Eu1361 2.374 . S
O1391 C1379 1.251 . S
H1392 C1363 0.931 . S
H1393 C1364 0.931 . S
H1394 C1366 0.931 . S
H1395 C1367 0.931 . S
H1396 C1373 0.931 . S
H1397 C1374 0.931 . S
H1398 C1376 0.931 . S
H1399 C1377 0.931 . S
C1400 Eu1401 2.835 . S
C1400 C1402 1.500 . S
C1400 O1420 1.257 . S
C1400 O1421 1.260 . S
Eu1401 C1400 2.835 . S
Eu1401 O1420 2.473 . S
Eu1401 O1421 2.480 . S
Eu1401 O1422 2.430 . S
Eu1401 O1423 2.670 . S
Eu1401 O1424 2.394 . S
Eu1401 O1429 2.355 . S
Eu1401 O1431 2.374 . S
C1402 C1400 1.500 . S
C1402 C1403 1.377 . S
C1402 C1407 1.376 1_565 S
C1403 C1402 1.377 . S
C1403 C1404 1.395 . S
C1403 H1432 0.931 . S
C1404 C1403 1.395 . S
C1404 C1405 1.383 . S
C1404 H1433 0.931 . S
C1405 C1404 1.383 . S
C1405 C1406 1.394 1_565 S
C1406 C1405 1.394 1_545 S
C1406 C1407 1.379 . S
C1406 H1434 0.931 . S
C1407 C1402 1.376 1_545 S
C1407 C1406 1.379 . S
C1407 H1435 0.931 . S
C1408 O1422 1.259 . S
C1408 O1423 1.270 . S
C1409 O1424 1.251 . S
C1409 O1425 1.251 . S
C1410 Eu1411 2.835 . S
C1410 C1412 1.500 . S
C1410 O1426 1.257 . S
C1410 O1427 1.260 . S
Eu1411 C1410 2.835 . S
Eu1411 O1423 2.355 . S
Eu1411 O1425 2.374 . S
Eu1411 O1426 2.473 . S
Eu1411 O1427 2.480 . S
Eu1411 O1428 2.430 . S
Eu1411 O1429 2.670 . S
Eu1411 O1430 2.394 . S
C1412 C1410 1.500 . S
C1412 C1413 1.377 . S
C1412 C1417 1.377 . S
C1413 C1412 1.377 . S
C1413 C1414 1.395 . S
C1413 H1436 0.931 . S
C1414 C1413 1.395 . S
C1414 C1415 1.383 . S
C1414 H1437 0.931 . S
C1415 C1414 1.383 . S
C1415 C1416 1.394 . S
C1416 C1415 1.394 . S
C1416 C1417 1.378 . S
C1416 H1438 0.931 . S
C1417 C1412 1.377 . S
C1417 C1416 1.378 . S
C1417 H1439 0.931 . S
C1418 O1428 1.259 . S
C1418 O1429 1.270 . S
C1419 O1430 1.251 . S
C1419 O1431 1.251 . S
O1420 C1400 1.257 . S
O1420 Eu1401 2.473 . S
O1421 C1400 1.260 . S
O1421 Eu1401 2.480 . S
O1422 Eu1401 2.430 . S
O1422 C1408 1.259 . S
O1423 Eu1401 2.670 . S
O1423 C1408 1.270 . S
O1423 Eu1411 2.355 . S
O1424 Eu1401 2.394 . S
O1424 C1409 1.251 . S
O1425 C1409 1.251 . S
O1425 Eu1411 2.374 . S
O1426 C1410 1.257 . S
O1426 Eu1411 2.473 . S
O1427 C1410 1.260 . S
O1427 Eu1411 2.480 . S
O1428 Eu1411 2.430 . S
O1428 C1418 1.259 . S
O1429 Eu1401 2.355 . S
O1429 Eu1411 2.670 . S
O1429 C1418 1.270 . S
O1430 Eu1411 2.394 . S
O1430 C1419 1.251 . S
O1431 Eu1401 2.374 . S
O1431 C1419 1.251 . S
H1432 C1403 0.931 . S
H1433 C1404 0.931 . S
H1434 C1406 0.931 . S
H1435 C1407 0.931 . S
H1436 C1413 0.931 . S
H1437 C1414 0.931 . S
H1438 C1416 0.931 . S
H1439 C1417 0.931 . S
H1440 C1446 0.930 . S
H1441 C1449 0.930 . S
H1442 C1450 0.930 . S
H1443 C1451 0.930 1_565 S
H1444 C1454 0.930 . S
H1445 C1455 0.930 . S
C1446 H1440 0.930 . S
C1446 C1447 1.355 . S
C1446 C1448 1.415 . S
C1447 C1446 1.355 . S
C1447 C1449 1.419 . S
C1448 C1446 1.415 . S
C1448 C1453 1.425 . S
C1448 C1455 1.409 . S
C1449 H1441 0.930 . S
C1449 C1447 1.419 . S
C1449 C1450 1.362 . S
C1450 H1442 0.930 . S
C1450 C1449 1.362 . S
C1450 C1453 1.409 . S
C1451 H1443 0.930 1_545 S
C1451 C1452 1.355 1_545 S
C1451 C1453 1.415 . S
C1452 C1451 1.355 1_565 S
C1452 C1454 1.419 1_565 S
C1453 C1448 1.425 . S
C1453 C1450 1.409 . S
C1453 C1451 1.415 . S
C1454 H1444 0.930 . S
C1454 C1452 1.419 1_545 S
C1454 C1455 1.362 . S
C1455 H1445 0.930 . S
C1455 C1448 1.409 . S
C1455 C1454 1.362 . S
H1456 C1462 0.930 . S
H1457 C1465 0.930 . S
H1458 C1466 0.930 . S
H1459 C1467 0.961 . S
H1460 C1470 0.930 . S
H1461 C1471 0.930 . S
C1462 H1456 0.930 . S
C1462 C1463 1.355 1_655 S
C1462 C1464 1.415 . S
C1463 C1462 1.355 1_455 S
C1463 C1465 1.419 . S
C1464 C1462 1.415 . S
C1464 C1469 1.425 . S
C1464 C1471 1.409 . S
C1465 H1457 0.930 . S
C1465 C1463 1.419 . S
C1465 C1466 1.362 1_455 S
C1466 H1458 0.930 . S
C1466 C1465 1.362 1_655 S
C1466 C1469 1.409 . S
C1467 H1459 0.961 . S
C1467 C1468 1.355 . S
C1467 C1469 1.415 . S
C1468 C1467 1.355 . S
C1468 C1470 1.419 . S
C1469 C1464 1.425 . S
C1469 C1466 1.409 . S
C1469 C1467 1.415 . S
C1470 H1460 0.930 . S
C1470 C1468 1.419 . S
C1470 C1471 1.362 . S
C1471 H1461 0.930 . S
C1471 C1464 1.409 . S
C1471 C1470 1.362 . S
H1472 C1478 0.944 . S
H1473 C1481 0.930 . S
H1474 C1482 0.930 . S
H1475 C1483 0.930 . S
H1476 C1486 0.930 . S
H1477 C1487 0.930 . S
C1478 H1472 0.944 . S
C1478 C1479 1.355 . S
C1478 C1480 1.415 . S
C1479 C1478 1.355 . S
C1479 C1481 1.419 . S
C1480 C1478 1.415 . S
C1480 C1485 1.425 . S
C1480 C1487 1.409 . S
C1481 H1473 0.930 . S
C1481 C1479 1.419 . S
C1481 C1482 1.362 . S
C1482 H1474 0.930 . S
C1482 C1481 1.362 . S
C1482 C1485 1.409 . S
C1483 H1475 0.930 . S
C1483 C1484 1.355 . S
C1483 C1485 1.415 . S
C1484 C1483 1.355 . S
C1484 C1486 1.419 . S
C1485 C1480 1.425 . S
C1485 C1482 1.409 . S
C1485 C1483 1.415 . S
C1486 H1476 0.930 . S
C1486 C1484 1.419 . S
C1486 C1487 1.362 . S
C1487 H1477 0.930 . S
C1487 C1480 1.409 . S
C1487 C1486 1.362 . S
H1488 C1494 0.930 . S
H1489 C1497 0.930 . S
H1490 C1498 0.930 . S
H1491 C1499 0.930 . S
H1492 C1502 0.930 . S
H1493 C1503 0.930 . S
C1494 H1488 0.930 . S
C1494 C1495 1.355 . S
C1494 C1496 1.415 . S
C1495 C1494 1.355 . S
C1495 C1497 1.419 . S
C1496 C1494 1.415 . S
C1496 C1501 1.425 . S
C1496 C1503 1.409 . S
C1497 H1489 0.930 . S
C1497 C1495 1.419 . S
C1497 C1498 1.362 . S
C1498 H1490 0.930 . S
C1498 C1497 1.362 . S
C1498 C1501 1.409 . S
C1499 H1491 0.930 . S
C1499 C1500 1.355 1_455 S
C1499 C1501 1.415 . S
C1500 C1499 1.355 1_655 S
C1500 C1502 1.419 . S
C1501 C1496 1.425 . S
C1501 C1498 1.409 . S
C1501 C1499 1.415 . S
C1502 H1492 0.930 . S
C1502 C1500 1.419 . S
C1502 C1503 1.362 1_655 S
C1503 H1493 0.930 . S
C1503 C1496 1.409 . S
C1503 C1502 1.362 1_455 S
H1504 C1510 0.930 . S
H1505 C1513 0.930 . S
H1506 C1514 0.930 . S
H1507 C1515 0.930 . S
H1508 C1518 0.930 1_545 S
H1509 C1519 0.930 . S
C1510 H1504 0.930 . S
C1510 C1511 1.355 . S
C1510 C1512 1.415 . S
C1511 C1510 1.355 . S
C1511 C1513 1.419 . S
C1512 C1510 1.415 . S
C1512 C1517 1.425 . S
C1512 C1519 1.409 . S
C1513 H1505 0.930 . S
C1513 C1511 1.419 . S
C1513 C1514 1.362 . S
C1514 H1506 0.930 . S
C1514 C1513 1.362 . S
C1514 C1517 1.409 . S
C1515 H1507 0.930 . S
C1515 C1516 1.355 . S
C1515 C1517 1.415 . S
C1516 C1515 1.355 . S
C1516 C1518 1.419 . S
C1517 C1512 1.425 . S
C1517 C1514 1.409 . S
C1517 C1515 1.415 . S
C1518 H1508 0.930 1_565 S
C1518 C1516 1.419 . S
C1518 C1519 1.362 . S
C1519 H1509 0.930 . S
C1519 C1512 1.409 . S
C1519 C1518 1.362 . S
H1520 C1526 0.930 . S
H1521 C1529 0.930 . S
H1522 C1530 0.930 . S
H1523 C1531 0.930 . S
H1524 C1534 0.930 1_545 S
H1525 C1535 0.930 . S
C1526 H1520 0.930 . S
C1526 C1527 1.355 . S
C1526 C1528 1.415 . S
C1527 C1526 1.355 . S
C1527 C1529 1.419 . S
C1528 C1526 1.415 . S
C1528 C1533 1.425 . S
C1528 C1535 1.409 . S
C1529 H1521 0.930 . S
C1529 C1527 1.419 . S
C1529 C1530 1.362 . S
C1530 H1522 0.930 . S
C1530 C1529 1.362 . S
C1530 C1533 1.409 . S
C1531 H1523 0.930 . S
C1531 C1532 1.355 1_565 S
C1531 C1533 1.415 . S
C1532 C1531 1.355 1_545 S
C1532 C1534 1.419 1_545 S
C1533 C1528 1.425 . S
C1533 C1530 1.409 . S
C1533 C1531 1.415 . S
C1534 H1524 0.930 1_565 S
C1534 C1532 1.419 1_565 S
C1534 C1535 1.362 . S
C1535 H1525 0.930 . S
C1535 C1528 1.409 . S
C1535 C1534 1.362 . S
H1536 C1542 0.930 . S
H1537 C1545 0.930 . S
H1538 C1546 0.930 . S
H1539 C1547 0.930 . S
H1540 C1550 0.930 . S
H1541 C1551 0.930 . S
C1542 H1536 0.930 . S
C1542 C1543 1.355 . S
C1542 C1544 1.415 . S
C1543 C1542 1.355 . S
C1543 C1545 1.419 . S
C1544 C1542 1.415 . S
C1544 C1549 1.425 . S
C1544 C1551 1.409 . S
C1545 H1537 0.930 . S
C1545 C1543 1.419 . S
C1545 C1546 1.362 . S
C1546 H1538 0.930 . S
C1546 C1545 1.362 . S
C1546 C1549 1.409 . S
C1547 H1539 0.930 . S
C1547 C1548 1.355 1_565 S
C1547 C1549 1.415 . S
C1548 C1547 1.355 1_545 S
C1548 C1550 1.419 . S
C1549 C1544 1.425 . S
C1549 C1546 1.409 . S
C1549 C1547 1.415 . S
C1550 H1540 0.930 . S
C1550 C1548 1.419 . S
C1550 C1551 1.362 1_545 S
C1551 H1541 0.930 . S
C1551 C1544 1.409 . S
C1551 C1550 1.362 1_565 S
H1552 C1558 0.930 . S
H1553 C1561 0.930 1_545 S
H1554 C1562 0.930 . S
H1555 C1563 0.930 1_655 S
H1556 C1566 0.930 . S
H1557 C1567 0.930 . S
C1558 H1552 0.930 . S
C1558 C1559 1.355 . S
C1558 C1560 1.415 . S
C1559 C1558 1.355 . S
C1559 C1561 1.419 . S
C1560 C1558 1.415 . S
C1560 C1565 1.425 . S
C1560 C1567 1.409 . S
C1561 H1553 0.930 1_565 S
C1561 C1559 1.419 . S
C1561 C1562 1.362 . S
C1562 H1554 0.930 . S
C1562 C1561 1.362 . S
C1562 C1565 1.409 . S
C1563 H1555 0.930 1_455 S
C1563 C1564 1.355 1_455 S
C1563 C1565 1.415 . S
C1564 C1563 1.355 1_655 S
C1564 C1566 1.419 1_655 S
C1565 C1560 1.425 . S
C1565 C1562 1.409 . S
C1565 C1563 1.415 . S
C1566 H1556 0.930 . S
C1566 C1564 1.419 1_455 S
C1566 C1567 1.362 . S
C1567 H1557 0.930 . S
C1567 C1560 1.409 . S
C1567 C1566 1.362 . S
H1568 C1574 0.930 . S
H1569 C1577 0.930 . S
H1570 C1578 0.930 . S
H1571 C1579 0.930 . S
H1572 C1582 0.930 . S
H1573 C1583 0.930 . S
C1574 H1568 0.930 . S
C1574 C1575 1.355 . S
C1574 C1576 1.415 . S
C1575 C1574 1.355 . S
C1575 C1577 1.419 . S
C1576 C1574 1.415 . S
C1576 C1581 1.425 . S
C1576 C1583 1.409 . S
C1577 H1569 0.930 . S
C1577 C1575 1.419 . S
C1577 C1578 1.362 . S
C1578 H1570 0.930 . S
C1578 C1577 1.362 . S
C1578 C1581 1.409 . S
C1579 H1571 0.930 . S
C1579 C1580 1.355 . S
C1579 C1581 1.415 . S
C1580 C1579 1.355 . S
C1580 C1582 1.419 . S
C1581 C1576 1.425 . S
C1581 C1578 1.409 . S
C1581 C1579 1.415 . S
C1582 H1572 0.930 . S
C1582 C1580 1.419 . S
C1582 C1583 1.362 . S
C1583 H1573 0.930 . S
C1583 C1576 1.409 . S
C1583 C1582 1.362 . S
H1584 C1590 0.930 . S
H1585 C1593 0.930 . S
H1586 C1594 0.930 . S
H1587 C1595 0.930 1_455 S
H1588 C1598 0.930 . S
H1589 C1599 0.930 . S
C1590 H1584 0.930 . S
C1590 C1591 1.355 . S
C1590 C1592 1.415 . S
C1591 C1590 1.355 . S
C1591 C1593 1.419 . S
C1592 C1590 1.415 . S
C1592 C1597 1.425 . S
C1592 C1599 1.409 . S
C1593 H1585 0.930 . S
C1593 C1591 1.419 . S
C1593 C1594 1.362 . S
C1594 H1586 0.930 . S
C1594 C1593 1.362 . S
C1594 C1597 1.409 . S
C1595 H1587 0.930 1_655 S
C1595 C1596 1.355 1_655 S
C1595 C1597 1.415 . S
C1596 C1595 1.355 1_455 S
C1596 C1598 1.419 1_455 S
C1597 C1592 1.425 . S
C1597 C1594 1.409 . S
C1597 C1595 1.415 . S
C1598 H1588 0.930 . S
C1598 C1596 1.419 1_655 S
C1598 C1599 1.362 . S
C1599 H1589 0.930 . S
C1599 C1592 1.409 . S
C1599 C1598 1.362 . S
H1600 C1606 0.930 . S
H1601 C1609 0.930 . S
H1602 C1610 0.930 . S
H1603 C1611 0.930 . S
H1604 C1614 0.930 . S
H1605 C1615 0.930 . S
C1606 H1600 0.930 . S
C1606 C1607 1.355 . S
C1606 C1608 1.415 . S
C1607 C1606 1.355 . S
C1607 C1609 1.419 . S
C1608 C1606 1.415 . S
C1608 C1613 1.425 . S
C1608 C1615 1.409 . S
C1609 H1601 0.930 . S
C1609 C1607 1.419 . S
C1609 C1610 1.362 . S
C1610 H1602 0.930 . S
C1610 C1609 1.362 . S
C1610 C1613 1.409 . S
C1611 H1603 0.930 . S
C1611 C1612 1.355 . S
C1611 C1613 1.415 . S
C1612 C1611 1.355 . S
C1612 C1614 1.419 . S
C1613 C1608 1.425 . S
C1613 C1610 1.409 . S
C1613 C1611 1.415 . S
C1614 H1604 0.930 . S
C1614 C1612 1.419 . S
C1614 C1615 1.362 . S
C1615 H1605 0.930 . S
C1615 C1608 1.409 . S
C1615 C1614 1.362 . S
H1616 C1622 0.930 1_565 S
H1617 C1625 0.930 . S
H1618 C1626 0.930 . S
H1619 C1627 0.930 . S
H1620 C1630 0.930 1_455 S
H1621 C1631 0.930 . S
C1622 H1616 0.930 1_545 S
C1622 C1623 1.355 1_545 S
C1622 C1624 1.415 . S
C1623 C1622 1.355 1_565 S
C1623 C1625 1.419 1_565 S
C1624 C1622 1.415 . S
C1624 C1629 1.425 . S
C1624 C1631 1.409 . S
C1625 H1617 0.930 . S
C1625 C1623 1.419 1_545 S
C1625 C1626 1.362 . S
C1626 H1618 0.930 . S
C1626 C1625 1.362 . S
C1626 C1629 1.409 . S
C1627 H1619 0.930 . S
C1627 C1628 1.355 . S
C1627 C1629 1.415 . S
C1628 C1627 1.355 . S
C1628 C1630 1.419 . S
C1629 C1624 1.425 . S
C1629 C1626 1.409 . S
C1629 C1627 1.415 . S
C1630 H1620 0.930 1_655 S
C1630 C1628 1.419 . S
C1630 C1631 1.362 . S
C1631 H1621 0.930 . S
C1631 C1624 1.409 . S
C1631 C1630 1.362 . S
H1632 C1638 0.930 . S
H1633 C1641 0.930 . S
H1634 C1642 0.930 . S
H1635 C1643 0.930 . S
H1636 C1646 0.930 . S
H1637 C1647 0.930 . S
C1638 H1632 0.930 . S
C1638 C1639 1.355 . S
C1638 C1640 1.415 . S
C1639 C1638 1.355 . S
C1639 C1641 1.419 . S
C1640 C1638 1.415 . S
C1640 C1645 1.425 . S
C1640 C1647 1.409 . S
C1641 H1633 0.930 . S
C1641 C1639 1.419 . S
C1641 C1642 1.362 . S
C1642 H1634 0.930 . S
C1642 C1641 1.362 . S
C1642 C1645 1.409 . S
C1643 H1635 0.930 . S
C1643 C1644 1.355 . S
C1643 C1645 1.415 . S
C1644 C1643 1.355 . S
C1644 C1646 1.419 . S
C1645 C1640 1.425 . S
C1645 C1642 1.409 . S
C1645 C1643 1.415 . S
C1646 H1636 0.930 . S
C1646 C1644 1.419 . S
C1646 C1647 1.362 . S
C1647 H1637 0.930 . S
C1647 C1640 1.409 . S
C1647 C1646 1.362 . S
H1648 C1654 0.930 . S
H1649 C1657 0.930 . S
H1650 C1658 0.930 . S
H1651 C1659 0.930 . S
H1652 C1662 0.930 . S
H1653 C1663 0.930 . S
C1654 H1648 0.930 . S
C1654 C1655 1.355 . S
C1654 C1656 1.415 . S
C1655 C1654 1.355 . S
C1655 C1657 1.419 . S
C1656 C1654 1.415 . S
C1656 C1661 1.425 . S
C1656 C1663 1.409 . S
C1657 H1649 0.930 . S
C1657 C1655 1.419 . S
C1657 C1658 1.362 . S
C1658 H1650 0.930 . S
C1658 C1657 1.362 . S
C1658 C1661 1.409 . S
C1659 H1651 0.930 . S
C1659 C1660 1.355 . S
C1659 C1661 1.415 . S
C1660 C1659 1.355 . S
C1660 C1662 1.419 . S
C1661 C1656 1.425 . S
C1661 C1658 1.409 . S
C1661 C1659 1.415 . S
C1662 H1652 0.930 . S
C1662 C1660 1.419 . S
C1662 C1663 1.362 . S
C1663 H1653 0.930 . S
C1663 C1656 1.409 . S
C1663 C1662 1.362 . S
H1664 C1670 0.930 . S
H1665 C1673 0.930 . S
H1666 C1674 0.930 . S
H1667 C1675 0.930 . S
H1668 C1678 0.930 . S
H1669 C1679 0.930 . S
C1670 H1664 0.930 . S
C1670 C1671 1.355 . S
C1670 C1672 1.415 . S
C1671 C1670 1.355 . S
C1671 C1673 1.419 . S
C1672 C1670 1.415 . S
C1672 C1677 1.425 . S
C1672 C1679 1.409 . S
C1673 H1665 0.930 . S
C1673 C1671 1.419 . S
C1673 C1674 1.362 . S
C1674 H1666 0.930 . S
C1674 C1673 1.362 . S
C1674 C1677 1.409 . S
C1675 H1667 0.930 . S
C1675 C1676 1.355 . S
C1675 C1677 1.415 . S
C1676 C1675 1.355 . S
C1676 C1678 1.419 . S
C1677 C1672 1.425 . S
C1677 C1674 1.409 . S
C1677 C1675 1.415 . S
C1678 H1668 0.930 . S
C1678 C1676 1.419 . S
C1678 C1679 1.362 . S
C1679 H1669 0.930 . S
C1679 C1672 1.409 . S
C1679 C1678 1.362 . S
H1680 C1686 0.930 . S
H1681 C1689 0.930 . S
H1682 C1690 0.930 . S
H1683 C1691 0.930 . S
H1684 C1694 0.930 . S
H1685 C1695 0.930 . S
C1686 H1680 0.930 . S
C1686 C1687 1.355 . S
C1686 C1688 1.415 . S
C1687 C1686 1.355 . S
C1687 C1689 1.419 . S
C1688 C1686 1.415 . S
C1688 C1693 1.425 . S
C1688 C1695 1.409 . S
C1689 H1681 0.930 . S
C1689 C1687 1.419 . S
C1689 C1690 1.362 . S
C1690 H1682 0.930 . S
C1690 C1689 1.362 . S
C1690 C1693 1.409 . S
C1691 H1683 0.930 . S
C1691 C1692 1.355 . S
C1691 C1693 1.415 . S
C1692 C1691 1.355 . S
C1692 C1694 1.419 . S
C1693 C1688 1.425 . S
C1693 C1690 1.409 . S
C1693 C1691 1.415 . S
C1694 H1684 0.930 . S
C1694 C1692 1.419 . S
C1694 C1695 1.362 . S
C1695 H1685 0.930 . S
C1695 C1688 1.409 . S
C1695 C1694 1.362 . S
H1696 C1702 0.930 . S
H1697 C1705 0.930 . S
H1698 C1706 0.930 . S
H1699 C1707 0.930 . S
H1700 C1710 0.930 . S
H1701 C1711 0.930 . S
C1702 H1696 0.930 . S
C1702 C1703 1.355 . S
C1702 C1704 1.415 . S
C1703 C1702 1.355 . S
C1703 C1705 1.419 . S
C1704 C1702 1.415 . S
C1704 C1709 1.425 . S
C1704 C1711 1.409 . S
C1705 H1697 0.930 . S
C1705 C1703 1.419 . S
C1705 C1706 1.362 . S
C1706 H1698 0.930 . S
C1706 C1705 1.362 . S
C1706 C1709 1.409 . S
C1707 H1699 0.930 . S
C1707 C1708 1.355 . S
C1707 C1709 1.415 . S
C1708 C1707 1.355 . S
C1708 C1710 1.419 . S
C1709 C1704 1.425 . S
C1709 C1706 1.409 . S
C1709 C1707 1.415 . S
C1710 H1700 0.930 . S
C1710 C1708 1.419 . S
C1710 C1711 1.362 . S
C1711 H1701 0.930 . S
C1711 C1704 1.409 . S
C1711 C1710 1.362 . S
H1712 C1718 0.930 . S
H1713 C1721 0.930 . S
H1714 C1722 0.930 . S
H1715 C1723 0.930 . S
H1716 C1726 0.930 . S
H1717 C1727 0.930 . S
C1718 H1712 0.930 . S
C1718 C1719 1.355 . S
C1718 C1720 1.415 . S
C1719 C1718 1.355 . S
C1719 C1721 1.419 . S
C1720 C1718 1.415 . S
C1720 C1725 1.425 . S
C1720 C1727 1.409 . S
C1721 H1713 0.930 . S
C1721 C1719 1.419 . S
C1721 C1722 1.362 . S
C1722 H1714 0.930 . S
C1722 C1721 1.362 . S
C1722 C1725 1.409 . S
C1723 H1715 0.930 . S
C1723 C1724 1.355 . S
C1723 C1725 1.415 . S
C1724 C1723 1.355 . S
C1724 C1726 1.419 . S
C1725 C1720 1.425 . S
C1725 C1722 1.409 . S
C1725 C1723 1.415 . S
C1726 H1716 0.930 . S
C1726 C1724 1.419 . S
C1726 C1727 1.362 . S
C1727 H1717 0.930 . S
C1727 C1720 1.409 . S
C1727 C1726 1.362 . S
H1728 C1734 0.930 . S
H1729 C1737 0.930 . S
H1730 C1738 0.930 . S
H1731 C1739 0.930 . S
H1732 C1742 0.930 . S
H1733 C1743 0.930 . S
C1734 H1728 0.930 . S
C1734 C1735 1.355 . S
C1734 C1736 1.415 . S
C1735 C1734 1.355 . S
C1735 C1737 1.419 . S
C1736 C1734 1.415 . S
C1736 C1741 1.425 . S
C1736 C1743 1.409 . S
C1737 H1729 0.930 . S
C1737 C1735 1.419 . S
C1737 C1738 1.362 . S
C1738 H1730 0.930 . S
C1738 C1737 1.362 . S
C1738 C1741 1.409 . S
C1739 H1731 0.930 . S
C1739 C1740 1.355 . S
C1739 C1741 1.415 . S
C1740 C1739 1.355 . S
C1740 C1742 1.419 . S
C1741 C1736 1.425 . S
C1741 C1738 1.409 . S
C1741 C1739 1.415 . S
C1742 H1732 0.930 . S
C1742 C1740 1.419 . S
C1742 C1743 1.362 . S
C1743 H1733 0.930 . S
C1743 C1736 1.409 . S
C1743 C1742 1.362 . S
H1744 C1750 0.930 . S
H1745 C1753 0.930 . S
H1746 C1754 0.930 . S
H1747 C1755 0.930 . S
H1748 C1758 0.930 . S
H1749 C1759 0.930 . S
C1750 H1744 0.930 . S
C1750 C1751 1.355 . S
C1750 C1752 1.415 . S
C1751 C1750 1.355 . S
C1751 C1753 1.419 . S
C1752 C1750 1.415 . S
C1752 C1757 1.425 . S
C1752 C1759 1.409 . S
C1753 H1745 0.930 . S
C1753 C1751 1.419 . S
C1753 C1754 1.362 . S
C1754 H1746 0.930 . S
C1754 C1753 1.362 . S
C1754 C1757 1.409 . S
C1755 H1747 0.930 . S
C1755 C1756 1.355 . S
C1755 C1757 1.415 . S
C1756 C1755 1.355 . S
C1756 C1758 1.419 . S
C1757 C1752 1.425 . S
C1757 C1754 1.409 . S
C1757 C1755 1.415 . S
C1758 H1748 0.930 . S
C1758 C1756 1.419 . S
C1758 C1759 1.362 . S
C1759 H1749 0.930 . S
C1759 C1752 1.409 . S
C1759 C1758 1.362 . S
H1760 C1766 0.930 . S
H1761 C1769 0.930 . S
H1762 C1770 0.930 . S
H1763 C1771 0.930 . S
H1764 C1774 0.930 . S
H1765 C1775 0.930 . S
C1766 H1760 0.930 . S
C1766 C1767 1.355 . S
C1766 C1768 1.415 . S
C1767 C1766 1.355 . S
C1767 C1769 1.419 . S
C1768 C1766 1.415 . S
C1768 C1773 1.425 . S
C1768 C1775 1.409 . S
C1769 H1761 0.930 . S
C1769 C1767 1.419 . S
C1769 C1770 1.362 . S
C1770 H1762 0.930 . S
C1770 C1769 1.362 . S
C1770 C1773 1.409 . S
C1771 H1763 0.930 . S
C1771 C1772 1.355 . S
C1771 C1773 1.415 . S
C1772 C1771 1.355 . S
C1772 C1774 1.419 . S
C1773 C1768 1.425 . S
C1773 C1770 1.409 . S
C1773 C1771 1.415 . S
C1774 H1764 0.930 . S
C1774 C1772 1.419 . S
C1774 C1775 1.362 . S
C1775 H1765 0.930 . S
C1775 C1768 1.409 . S
C1775 C1774 1.362 . S
H1776 C1782 0.930 . S
H1777 C1785 0.930 . S
H1778 C1786 0.938 . S
H1779 C1787 0.912 1_556 S
H1780 C1790 0.930 . S
H1781 C1791 0.930 . S
C1782 H1776 0.930 . S
C1782 C1783 1.355 . S
C1782 C1784 1.415 . S
C1783 C1782 1.355 . S
C1783 C1785 1.419 . S
C1784 C1782 1.415 . S
C1784 C1789 1.425 . S
C1784 C1791 1.409 . S
C1785 H1777 0.930 . S
C1785 C1783 1.419 . S
C1785 C1786 1.362 . S
C1786 H1778 0.938 . S
C1786 C1785 1.362 . S
C1786 C1789 1.409 . S
C1787 H1779 0.912 1_554 S
C1787 C1788 1.362 . S
C1787 C1789 1.425 . S
C1788 C1787 1.362 . S
C1788 C1790 1.419 . S
C1789 C1784 1.425 . S
C1789 C1786 1.409 . S
C1789 C1787 1.425 . S
C1790 H1780 0.930 . S
C1790 C1788 1.419 . S
C1790 C1791 1.362 . S
C1791 H1781 0.930 . S
C1791 C1784 1.409 . S
C1791 C1790 1.362 . S
H1792 C1798 0.930 . S
H1793 C1801 0.923 1_556 S
H1794 C1802 0.924 1_556 S
H1795 C1803 0.930 . S
H1796 C1806 0.930 . S
H1797 C1807 0.930 . S
C1798 H1792 0.930 . S
C1798 C1799 1.355 . S
C1798 C1800 1.415 . S
C1799 C1798 1.355 . S
C1799 C1801 1.421 . S
C1800 C1798 1.415 . S
C1800 C1805 1.425 . S
C1800 C1807 1.409 . S
C1801 H1793 0.923 1_554 S
C1801 C1799 1.421 . S
C1801 C1802 1.361 . S
C1802 H1794 0.924 1_554 S
C1802 C1801 1.361 . S
C1802 C1805 1.423 . S
C1803 H1795 0.930 . S
C1803 C1804 1.355 . S
C1803 C1805 1.415 . S
C1804 C1803 1.355 . S
C1804 C1806 1.419 . S
C1805 C1800 1.425 . S
C1805 C1802 1.423 . S
C1805 C1803 1.415 . S
C1806 H1796 0.930 . S
C1806 C1804 1.419 . S
C1806 C1807 1.362 . S
C1807 H1797 0.930 . S
C1807 C1800 1.409 . S
C1807 C1806 1.362 . S
H1808 C1814 0.930 . S
H1809 C1817 0.952 . S
H1810 C1818 0.930 . S
H1811 C1819 0.930 . S
H1812 C1822 0.930 . S
H1813 C1823 0.930 . S
C1814 H1808 0.930 . S
C1814 C1815 1.355 . S
C1814 C1816 1.415 . S
C1815 C1814 1.355 . S
C1815 C1817 1.391 1_554 S
C1816 C1814 1.415 . S
C1816 C1821 1.450 . S
C1816 C1823 1.409 . S
C1817 H1809 0.952 . S
C1817 C1815 1.391 1_556 S
C1817 C1818 1.374 . S
C1818 H1810 0.930 . S
C1818 C1817 1.374 . S
C1818 C1821 1.396 1_556 S
C1819 H1811 0.930 . S
C1819 C1820 1.355 1_556 S
C1819 C1821 1.407 1_556 S
C1820 C1819 1.355 1_554 S
C1820 C1822 1.419 . S
C1821 C1816 1.450 . S
C1821 C1818 1.396 1_554 S
C1821 C1819 1.407 1_554 S
C1822 H1812 0.930 . S
C1822 C1820 1.419 . S
C1822 C1823 1.362 . S
C1823 H1813 0.930 . S
C1823 C1816 1.409 . S
C1823 C1822 1.362 . S
H1824 C1830 0.930 . S
H1825 C1833 0.930 . S
H1826 C1834 0.930 . S
H1827 C1835 0.930 . S
H1828 C1838 0.930 . S
H1829 C1839 0.930 . S
C1830 H1824 0.930 . S
C1830 C1831 1.355 . S
C1830 C1832 1.415 . S
C1831 C1830 1.355 . S
C1831 C1833 1.419 . S
C1832 C1830 1.415 . S
C1832 C1837 1.425 . S
C1832 C1839 1.409 . S
C1833 H1825 0.930 . S
C1833 C1831 1.419 . S
C1833 C1834 1.362 . S
C1834 H1826 0.930 . S
C1834 C1833 1.362 . S
C1834 C1837 1.409 . S
C1835 H1827 0.930 . S
C1835 C1836 1.355 . S
C1835 C1837 1.415 . S
C1836 C1835 1.355 . S
C1836 C1838 1.419 . S
C1837 C1832 1.425 . S
C1837 C1834 1.409 . S
C1837 C1835 1.415 . S
C1838 H1828 0.930 . S
C1838 C1836 1.419 . S
C1838 C1839 1.362 . S
C1839 H1829 0.930 . S
C1839 C1832 1.409 . S
C1839 C1838 1.362 . S
H1840 C1846 0.930 . S
H1841 C1849 0.930 . S
H1842 C1850 0.930 . S
H1843 C1851 0.930 . S
H1844 C1854 0.930 . S
H1845 C1855 0.930 . S
C1846 H1840 0.930 . S
C1846 C1847 1.355 . S
C1846 C1848 1.415 . S
C1847 C1846 1.355 . S
C1847 C1849 1.419 . S
C1848 C1846 1.415 . S
C1848 C1853 1.425 . S
C1848 C1855 1.409 . S
C1849 H1841 0.930 . S
C1849 C1847 1.419 . S
C1849 C1850 1.362 . S
C1850 H1842 0.930 . S
C1850 C1849 1.362 . S
C1850 C1853 1.409 . S
C1851 H1843 0.930 . S
C1851 C1852 1.355 . S
C1851 C1853 1.415 . S
C1852 C1851 1.355 . S
C1852 C1854 1.419 . S
C1853 C1848 1.425 . S
C1853 C1850 1.409 . S
C1853 C1851 1.415 . S
C1854 H1844 0.930 . S
C1854 C1852 1.419 . S
C1854 C1855 1.362 . S
C1855 H1845 0.930 . S
C1855 C1848 1.409 . S
C1855 C1854 1.362 . S
H1856 C1862 0.930 . S
H1857 C1865 0.930 . S
H1858 C1866 0.930 . S
H1859 C1867 0.930 . S
H1860 C1870 0.930 . S
H1861 C1871 0.930 . S
C1862 H1856 0.930 . S
C1862 C1863 1.355 . S
C1862 C1864 1.415 . S
C1863 C1862 1.355 . S
C1863 C1865 1.419 . S
C1864 C1862 1.415 . S
C1864 C1869 1.425 . S
C1864 C1871 1.409 . S
C1865 H1857 0.930 . S
C1865 C1863 1.419 . S
C1865 C1866 1.362 . S
C1866 H1858 0.930 . S
C1866 C1865 1.362 . S
C1866 C1869 1.409 . S
C1867 H1859 0.930 . S
C1867 C1868 1.355 . S
C1867 C1869 1.415 . S
C1868 C1867 1.355 . S
C1868 C1870 1.419 . S
C1869 C1864 1.425 . S
C1869 C1866 1.409 . S
C1869 C1867 1.415 . S
C1870 H1860 0.930 . S
C1870 C1868 1.419 . S
C1870 C1871 1.362 . S
C1871 H1861 0.930 . S
C1871 C1864 1.409 . S
C1871 C1870 1.362 . S
H1872 C1878 0.930 . S
H1873 C1881 0.930 . S
H1874 C1882 0.930 . S
H1875 C1883 0.930 . S
H1876 C1886 0.930 . S
H1877 C1887 0.930 . S
C1878 H1872 0.930 . S
C1878 C1879 1.355 1_554 S
C1878 C1880 1.415 . S
C1879 C1878 1.355 1_556 S
C1879 C1881 1.419 . S
C1880 C1878 1.415 . S
C1880 C1885 1.425 1_554 S
C1880 C1887 1.409 . S
C1881 H1873 0.930 . S
C1881 C1879 1.419 . S
C1881 C1882 1.362 . S
C1882 H1874 0.930 . S
C1882 C1881 1.362 . S
C1882 C1885 1.409 . S
C1883 H1875 0.930 . S
C1883 C1884 1.355 . S
C1883 C1885 1.415 . S
C1884 C1883 1.355 . S
C1884 C1886 1.419 1_556 S
C1885 C1880 1.425 1_556 S
C1885 C1882 1.409 . S
C1885 C1883 1.415 . S
C1886 H1876 0.930 . S
C1886 C1884 1.419 1_554 S
C1886 C1887 1.362 . S
C1887 H1877 0.930 . S
C1887 C1880 1.409 . S
C1887 C1886 1.362 . S
H1888 C1894 0.930 . S
H1889 C1897 0.930 . S
H1890 C1898 0.930 . S
H1891 C1899 0.930 . S
H1892 C1902 0.930 . S
H1893 C1903 0.930 . S
C1894 H1888 0.930 . S
C1894 C1895 1.422 . S
C1894 C1896 1.415 . S
C1895 C1894 1.422 . S
C1895 C1897 1.343 1_556 S
C1896 C1894 1.415 . S
C1896 C1901 1.425 1_556 S
C1896 C1903 1.409 . S
C1897 H1889 0.930 . S
C1897 C1895 1.343 1_554 S
C1897 C1898 1.362 . S
C1898 H1890 0.930 . S
C1898 C1897 1.362 . S
C1898 C1901 1.409 . S
C1899 H1891 0.930 . S
C1899 C1900 1.355 1_554 S
C1899 C1901 1.415 . S
C1900 C1899 1.355 1_556 S
C1900 C1902 1.419 . S
C1901 C1896 1.425 1_554 S
C1901 C1898 1.409 . S
C1901 C1899 1.415 . S
C1902 H1892 0.930 . S
C1902 C1900 1.419 . S
C1902 C1903 1.362 . S
C1903 H1893 0.930 . S
C1903 C1896 1.409 . S
C1903 C1902 1.362 . S
H1904 C1910 0.930 . S
H1905 C1913 0.930 . S
H1906 C1914 0.930 . S
H1907 C1915 0.930 . S
H1908 C1918 0.930 . S
H1909 C1919 0.930 . S
C1910 H1904 0.930 . S
C1910 C1911 1.355 1_554 S
C1910 C1912 1.410 1_554 S
C1911 C1910 1.355 1_556 S
C1911 C1913 1.419 . S
C1912 C1910 1.410 1_556 S
C1912 C1917 1.438 . S
C1912 C1919 1.401 1_556 S
C1913 H1905 0.930 . S
C1913 C1911 1.419 . S
C1913 C1914 1.362 . S
C1914 H1906 0.930 . S
C1914 C1913 1.362 . S
C1914 C1917 1.409 . S
C1915 H1907 0.930 . S
C1915 C1916 1.355 . S
C1915 C1917 1.415 . S
C1916 C1915 1.355 . S
C1916 C1918 1.419 1_556 S
C1917 C1912 1.438 . S
C1917 C1914 1.409 . S
C1917 C1915 1.415 . S
C1918 H1908 0.930 . S
C1918 C1916 1.419 1_554 S
C1918 C1919 1.362 . S
C1919 H1909 0.930 . S
C1919 C1912 1.401 1_554 S
C1919 C1918 1.362 . S
H1920 C1926 0.930 . S
H1921 C1929 0.930 . S
H1922 C1930 0.930 . S
H1923 C1931 0.930 . S
H1924 C1934 0.930 . S
H1925 C1935 0.930 . S
C1926 H1920 0.930 . S
C1926 C1927 1.355 . S
C1926 C1928 1.415 . S
C1927 C1926 1.355 . S
C1927 C1929 1.419 . S
C1928 C1926 1.415 . S
C1928 C1933 1.425 . S
C1928 C1935 1.409 . S
C1929 H1921 0.930 . S
C1929 C1927 1.419 . S
C1929 C1930 1.362 . S
C1930 H1922 0.930 . S
C1930 C1929 1.362 . S
C1930 C1933 1.409 . S
C1931 H1923 0.930 . S
C1931 C1932 1.355 . S
C1931 C1933 1.415 . S
C1932 C1931 1.355 . S
C1932 C1934 1.419 . S
C1933 C1928 1.425 . S
C1933 C1930 1.409 . S
C1933 C1931 1.415 . S
C1934 H1924 0.930 . S
C1934 C1932 1.419 . S
C1934 C1935 1.362 . S
C1935 H1925 0.930 . S
C1935 C1928 1.409 . S
C1935 C1934 1.362 . S
H1936 C1942 0.930 . S
H1937 C1945 0.930 . S
H1938 C1946 0.930 . S
H1939 C1947 0.930 . S
H1940 C1950 0.930 . S
H1941 C1951 0.930 . S
C1942 H1936 0.930 . S
C1942 C1943 1.355 . S
C1942 C1944 1.415 . S
C1943 C1942 1.355 . S
C1943 C1945 1.419 . S
C1944 C1942 1.415 . S
C1944 C1949 1.425 . S
C1944 C1951 1.409 . S
C1945 H1937 0.930 . S
C1945 C1943 1.419 . S
C1945 C1946 1.362 . S
C1946 H1938 0.930 . S
C1946 C1945 1.362 . S
C1946 C1949 1.409 . S
C1947 H1939 0.930 . S
C1947 C1948 1.355 . S
C1947 C1949 1.415 . S
C1948 C1947 1.355 . S
C1948 C1950 1.419 . S
C1949 C1944 1.425 . S
C1949 C1946 1.409 . S
C1949 C1947 1.415 . S
C1950 H1940 0.930 . S
C1950 C1948 1.419 . S
C1950 C1951 1.362 . S
C1951 H1941 0.930 . S
C1951 C1944 1.409 . S
C1951 C1950 1.362 . S
H1952 C1958 0.930 . S
H1953 C1961 0.930 . S
H1954 C1962 0.930 . S
H1955 C1963 0.930 . S
H1956 C1966 0.930 . S
H1957 C1967 0.930 . S
C1958 H1952 0.930 . S
C1958 C1959 1.355 . S
C1958 C1960 1.415 . S
C1959 C1958 1.355 . S
C1959 C1961 1.419 . S
C1960 C1958 1.415 . S
C1960 C1965 1.425 . S
C1960 C1967 1.409 . S
C1961 H1953 0.930 . S
C1961 C1959 1.419 . S
C1961 C1962 1.362 . S
C1962 H1954 0.930 . S
C1962 C1961 1.362 . S
C1962 C1965 1.409 . S
C1963 H1955 0.930 . S
C1963 C1964 1.355 . S
C1963 C1965 1.415 . S
C1964 C1963 1.355 . S
C1964 C1966 1.419 . S
C1965 C1960 1.425 . S
C1965 C1962 1.409 . S
C1965 C1963 1.415 . S
C1966 H1956 0.930 . S
C1966 C1964 1.419 . S
C1966 C1967 1.362 . S
C1967 H1957 0.930 . S
C1967 C1960 1.409 . S
C1967 C1966 1.362 . S
H1968 C1974 0.930 . S
H1969 C1977 0.930 . S
H1970 C1978 0.930 . S
H1971 C1979 0.930 . S
H1972 C1982 0.930 . S
H1973 C1983 0.930 . S
C1974 H1968 0.930 . S
C1974 C1975 1.355 . S
C1974 C1976 1.415 . S
C1975 C1974 1.355 . S
C1975 C1977 1.419 . S
C1976 C1974 1.415 . S
C1976 C1981 1.425 . S
C1976 C1983 1.409 . S
C1977 H1969 0.930 . S
C1977 C1975 1.419 . S
C1977 C1978 1.362 . S
C1978 H1970 0.930 . S
C1978 C1977 1.362 . S
C1978 C1981 1.409 . S
C1979 H1971 0.930 . S
C1979 C1980 1.355 . S
C1979 C1981 1.415 . S
C1980 C1979 1.355 . S
C1980 C1982 1.419 . S
C1981 C1976 1.425 . S
C1981 C1978 1.409 . S
C1981 C1979 1.415 . S
C1982 H1972 0.930 . S
C1982 C1980 1.419 . S
C1982 C1983 1.362 . S
C1983 H1973 0.930 . S
C1983 C1976 1.409 . S
C1983 C1982 1.362 . S
H1984 C1990 0.930 . S
H1985 C1993 0.930 . S
H1986 C1994 0.930 . S
H1987 C1995 0.930 . S
H1988 C1998 0.930 . S
H1989 C1999 0.930 . S
C1990 H1984 0.930 . S
C1990 C1991 1.355 . S
C1990 C1992 1.415 . S
C1991 C1990 1.355 . S
C1991 C1993 1.419 . S
C1992 C1990 1.415 . S
C1992 C1997 1.425 . S
C1992 C1999 1.409 . S
C1993 H1985 0.930 . S
C1993 C1991 1.419 . S
C1993 C1994 1.362 . S
C1994 H1986 0.930 . S
C1994 C1993 1.362 . S
C1994 C1997 1.409 . S
C1995 H1987 0.930 . S
C1995 C1996 1.355 . S
C1995 C1997 1.415 . S
C1996 C1995 1.355 . S
C1996 C1998 1.419 . S
C1997 C1992 1.425 . S
C1997 C1994 1.409 . S
C1997 C1995 1.415 . S
C1998 H1988 0.930 . S
C1998 C1996 1.419 . S
C1998 C1999 1.362 . S
C1999 H1989 0.930 . S
C1999 C1992 1.409 . S
C1999 C1998 1.362 . S
H2000 C2006 0.930 . S
H2001 C2009 0.930 . S
H2002 C2010 0.930 . S
H2003 C2011 0.930 . S
H2004 C2014 0.930 . S
H2005 C2015 0.930 . S
C2006 H2000 0.930 . S
C2006 C2007 1.355 . S
C2006 C2008 1.415 . S
C2007 C2006 1.355 . S
C2007 C2009 1.419 . S
C2008 C2006 1.415 . S
C2008 C2013 1.425 . S
C2008 C2015 1.409 . S
C2009 H2001 0.930 . S
C2009 C2007 1.419 . S
C2009 C2010 1.362 . S
C2010 H2002 0.930 . S
C2010 C2009 1.362 . S
C2010 C2013 1.409 . S
C2011 H2003 0.930 . S
C2011 C2012 1.355 . S
C2011 C2013 1.415 . S
C2012 C2011 1.355 . S
C2012 C2014 1.419 . S
C2013 C2008 1.425 . S
C2013 C2010 1.409 . S
C2013 C2011 1.415 . S
C2014 H2004 0.930 . S
C2014 C2012 1.419 . S
C2014 C2015 1.362 . S
C2015 H2005 0.930 . S
C2015 C2008 1.409 . S
C2015 C2014 1.362 . S
H2016 C2022 0.930 . S
H2017 C2025 0.930 . S
H2018 C2026 0.930 . S
H2019 C2027 0.930 . S
H2020 C2030 0.930 . S
H2021 C2031 0.930 . S
C2022 H2016 0.930 . S
C2022 C2023 1.355 . S
C2022 C2024 1.415 . S
C2023 C2022 1.355 . S
C2023 C2025 1.419 . S
C2024 C2022 1.415 . S
C2024 C2029 1.425 . S
C2024 C2031 1.409 . S
C2025 H2017 0.930 . S
C2025 C2023 1.419 . S
C2025 C2026 1.362 . S
C2026 H2018 0.930 . S
C2026 C2025 1.362 . S
C2026 C2029 1.409 . S
C2027 H2019 0.930 . S
C2027 C2028 1.355 . S
C2027 C2029 1.415 . S
C2028 C2027 1.355 . S
C2028 C2030 1.419 . S
C2029 C2024 1.425 . S
C2029 C2026 1.409 . S
C2029 C2027 1.415 . S
C2030 H2020 0.930 . S
C2030 C2028 1.419 . S
C2030 C2031 1.362 . S
C2031 H2021 0.930 . S
C2031 C2024 1.409 . S
C2031 C2030 1.362 . S
H2032 C2038 0.930 . S
H2033 C2041 0.930 . S
H2034 C2042 0.930 . S
H2035 C2043 0.930 . S
H2036 C2046 0.927 . S
H2037 C2047 0.930 . S
C2038 H2032 0.930 . S
C2038 C2039 1.355 . S
C2038 C2040 1.415 1_545 S
C2039 C2038 1.355 . S
C2039 C2041 1.419 1_545 S
C2040 C2038 1.415 1_565 S
C2040 C2045 1.425 . S
C2040 C2047 1.409 1_565 S
C2041 H2033 0.930 . S
C2041 C2039 1.419 1_565 S
C2041 C2042 1.362 . S
C2042 H2034 0.930 . S
C2042 C2041 1.362 . S
C2042 C2045 1.409 . S
C2043 H2035 0.930 . S
C2043 C2044 1.355 . S
C2043 C2045 1.415 . S
C2044 C2043 1.355 . S
C2044 C2046 1.419 . S
C2045 C2040 1.425 . S
C2045 C2042 1.409 . S
C2045 C2043 1.415 . S
C2046 H2036 0.927 . S
C2046 C2044 1.419 . S
C2046 C2047 1.362 1_565 S
C2047 H2037 0.930 . S
C2047 C2040 1.409 1_545 S
C2047 C2046 1.362 1_545 S
H2048 C2054 0.930 . S
H2049 C2057 0.930 . S
H2050 C2058 0.930 . S
H2051 C2059 0.930 . S
H2052 C2062 0.930 . S
H2053 C2063 0.930 . S
C2054 H2048 0.930 . S
C2054 C2055 1.355 . S
C2054 C2056 1.415 . S
C2055 C2054 1.355 . S
C2055 C2057 1.419 . S
C2056 C2054 1.415 . S
C2056 C2061 1.425 . S
C2056 C2063 1.409 . S
C2057 H2049 0.930 . S
C2057 C2055 1.419 . S
C2057 C2058 1.362 1_455 S
C2058 H2050 0.930 . S
C2058 C2057 1.362 1_655 S
C2058 C2061 1.409 1_655 S
C2059 H2051 0.930 . S
C2059 C2060 1.355 . S
C2059 C2061 1.415 1_655 S
C2060 C2059 1.355 . S
C2060 C2062 1.419 1_655 S
C2061 C2056 1.425 . S
C2061 C2058 1.409 1_455 S
C2061 C2059 1.415 1_455 S
C2062 H2052 0.930 . S
C2062 C2060 1.419 1_455 S
C2062 C2063 1.362 . S
C2063 H2053 0.930 . S
C2063 C2056 1.409 . S
C2063 C2062 1.362 . S
H2064 C2070 0.930 . S
H2065 C2073 0.930 . S
H2066 C2074 0.930 . S
H2067 C2075 0.930 . S
H2068 C2078 0.930 . S
H2069 C2079 0.930 . S
C2070 H2064 0.930 . S
C2070 C2071 1.355 . S
C2070 C2072 1.415 . S
C2071 C2070 1.355 . S
C2071 C2073 1.419 . S
C2072 C2070 1.415 . S
C2072 C2077 1.425 . S
C2072 C2079 1.409 . S
C2073 H2065 0.930 . S
C2073 C2071 1.419 . S
C2073 C2074 1.362 . S
C2074 H2066 0.930 . S
C2074 C2073 1.362 . S
C2074 C2077 1.409 . S
C2075 H2067 0.930 . S
C2075 C2076 1.355 . S
C2075 C2077 1.415 . S
C2076 C2075 1.355 . S
C2076 C2078 1.419 . S
C2077 C2072 1.425 . S
C2077 C2074 1.409 . S
C2077 C2075 1.415 . S
C2078 H2068 0.930 . S
C2078 C2076 1.419 . S
C2078 C2079 1.362 . S
C2079 H2069 0.930 . S
C2079 C2072 1.409 . S
C2079 C2078 1.362 . S
H2080 C2086 0.930 . S
H2081 C2089 0.930 . S
H2082 C2090 0.930 . S
H2083 C2091 0.930 . S
H2084 C2094 0.930 1_565 S
H2085 C2095 0.930 . S
C2086 H2080 0.930 . S
C2086 C2087 1.355 . S
C2086 C2088 1.415 1_565 S
C2087 C2086 1.355 . S
C2087 C2089 1.419 1_565 S
C2088 C2086 1.415 1_545 S
C2088 C2093 1.425 . S
C2088 C2095 1.409 1_545 S
C2089 H2081 0.930 . S
C2089 C2087 1.419 1_545 S
C2089 C2090 1.362 . S
C2090 H2082 0.930 . S
C2090 C2089 1.362 . S
C2090 C2093 1.409 . S
C2091 H2083 0.930 . S
C2091 C2092 1.355 . S
C2091 C2093 1.415 . S
C2092 C2091 1.355 . S
C2092 C2094 1.419 . S
C2093 C2088 1.425 . S
C2093 C2090 1.409 . S
C2093 C2091 1.415 . S
C2094 H2084 0.930 1_545 S
C2094 C2092 1.419 . S
C2094 C2095 1.362 1_545 S
C2095 H2085 0.930 . S
C2095 C2088 1.409 1_565 S
C2095 C2094 1.362 1_565 S
H2096 C2102 0.933 . S
H2097 C2105 0.930 . S
H2098 C2106 0.930 . S
H2099 C2107 0.930 . S
H2100 C2110 0.930 . S
H2101 C2111 0.930 . S
C2102 H2096 0.933 . S
C2102 C2103 1.355 . S
C2102 C2104 1.415 . S
C2103 C2102 1.355 . S
C2103 C2105 1.419 . S
C2104 C2102 1.415 . S
C2104 C2109 1.425 . S
C2104 C2111 1.409 1_655 S
C2105 H2097 0.930 . S
C2105 C2103 1.419 . S
C2105 C2106 1.362 . S
C2106 H2098 0.930 . S
C2106 C2105 1.362 . S
C2106 C2109 1.409 . S
C2107 H2099 0.930 . S
C2107 C2108 1.355 1_655 S
C2107 C2109 1.415 . S
C2108 C2107 1.355 1_455 S
C2108 C2110 1.419 . S
C2109 C2104 1.425 . S
C2109 C2106 1.409 . S
C2109 C2107 1.415 . S
C2110 H2100 0.930 . S
C2110 C2108 1.419 . S
C2110 C2111 1.362 . S
C2111 H2101 0.930 . S
C2111 C2104 1.409 1_455 S
C2111 C2110 1.362 . S
H2112 C2118 0.930 . S
H2113 C2121 0.930 . S
H2114 C2122 0.930 . S
H2115 C2123 0.930 . S
H2116 C2126 0.930 . S
H2117 C2127 0.930 . S
C2118 H2112 0.930 . S
C2118 C2119 1.355 . S
C2118 C2120 1.415 . S
C2119 C2118 1.355 . S
C2119 C2121 1.419 . S
C2120 C2118 1.415 . S
C2120 C2125 1.425 . S
C2120 C2127 1.409 . S
C2121 H2113 0.930 . S
C2121 C2119 1.419 . S
C2121 C2122 1.362 . S
C2122 H2114 0.930 . S
C2122 C2121 1.362 . S
C2122 C2125 1.409 . S
C2123 H2115 0.930 . S
C2123 C2124 1.355 . S
C2123 C2125 1.415 . S
C2124 C2123 1.355 . S
C2124 C2126 1.419 . S
C2125 C2120 1.425 . S
C2125 C2122 1.409 . S
C2125 C2123 1.415 . S
C2126 H2116 0.930 . S
C2126 C2124 1.419 . S
C2126 C2127 1.362 . S
C2127 H2117 0.930 . S
C2127 C2120 1.409 . S
C2127 C2126 1.362 . S
H2128 C2134 0.930 . S
H2129 C2137 0.930 . S
H2130 C2138 0.930 . S
H2131 C2139 0.930 . S
H2132 C2142 0.930 . S
H2133 C2143 0.932 1_565 S
C2134 H2128 0.930 . S
C2134 C2135 1.355 . S
C2134 C2136 1.415 . S
C2135 C2134 1.355 . S
C2135 C2137 1.419 . S
C2136 C2134 1.415 . S
C2136 C2141 1.425 . S
C2136 C2143 1.409 . S
C2137 H2129 0.930 . S
C2137 C2135 1.419 . S
C2137 C2138 1.362 . S
C2138 H2130 0.930 . S
C2138 C2137 1.362 . S
C2138 C2141 1.409 . S
C2139 H2131 0.930 . S
C2139 C2140 1.355 1_545 S
C2139 C2141 1.415 . S
C2140 C2139 1.355 1_565 S
C2140 C2142 1.419 . S
C2141 C2136 1.425 . S
C2141 C2138 1.409 . S
C2141 C2139 1.415 . S
C2142 H2132 0.930 . S
C2142 C2140 1.419 . S
C2142 C2143 1.362 1_565 S
C2143 H2133 0.932 1_545 S
C2143 C2136 1.409 . S
C2143 C2142 1.362 1_545 S
H2144 C2150 0.930 . S
H2145 C2153 0.930 . S
H2146 C2154 0.930 . S
H2147 C2155 0.930 . S
H2148 C2158 0.930 . S
H2149 C2159 0.930 . S
C2150 H2144 0.930 . S
C2150 C2151 1.355 . S
C2150 C2152 1.415 . S
C2151 C2150 1.355 . S
C2151 C2153 1.419 . S
C2152 C2150 1.415 . S
C2152 C2157 1.425 . S
C2152 C2159 1.409 1_655 S
C2153 H2145 0.930 . S
C2153 C2151 1.419 . S
C2153 C2154 1.362 . S
C2154 H2146 0.930 . S
C2154 C2153 1.362 . S
C2154 C2157 1.409 . S
C2155 H2147 0.930 . S
C2155 C2156 1.355 1_655 S
C2155 C2157 1.415 . S
C2156 C2155 1.355 1_455 S
C2156 C2158 1.419 . S
C2157 C2152 1.425 . S
C2157 C2154 1.409 . S
C2157 C2155 1.415 . S
C2158 H2148 0.930 . S
C2158 C2156 1.419 . S
C2158 C2159 1.362 . S
C2159 H2149 0.930 . S
C2159 C2152 1.409 1_455 S
C2159 C2158 1.362 . S
H2160 C2166 0.930 . S
H2161 C2169 0.930 . S
H2162 C2170 0.930 . S
H2163 C2171 0.930 . S
H2164 C2174 0.930 . S
H2165 C2175 0.930 . S
C2166 H2160 0.930 . S
C2166 C2167 1.355 . S
C2166 C2168 1.415 . S
C2167 C2166 1.355 . S
C2167 C2169 1.419 . S
C2168 C2166 1.415 . S
C2168 C2173 1.425 . S
C2168 C2175 1.409 . S
C2169 H2161 0.930 . S
C2169 C2167 1.419 . S
C2169 C2170 1.362 . S
C2170 H2162 0.930 . S
C2170 C2169 1.362 . S
C2170 C2173 1.409 . S
C2171 H2163 0.930 . S
C2171 C2172 1.355 . S
C2171 C2173 1.415 . S
C2172 C2171 1.355 . S
C2172 C2174 1.419 . S
C2173 C2168 1.425 . S
C2173 C2170 1.409 . S
C2173 C2171 1.415 . S
C2174 H2164 0.930 . S
C2174 C2172 1.419 . S
C2174 C2175 1.362 . S
C2175 H2165 0.930 . S
C2175 C2168 1.409 . S
C2175 C2174 1.362 . S
H2176 C2182 0.930 . S
H2177 C2185 0.930 . S
H2178 C2186 0.930 . S
H2179 C2187 0.930 . S
H2180 C2190 0.930 . S
H2181 C2191 0.930 . S
C2182 H2176 0.930 . S
C2182 C2183 1.355 1_565 S
C2182 C2184 1.415 . S
C2183 C2182 1.355 1_545 S
C2183 C2185 1.419 . S
C2184 C2182 1.415 . S
C2184 C2189 1.425 . S
C2184 C2191 1.409 . S
C2185 H2177 0.930 . S
C2185 C2183 1.419 . S
C2185 C2186 1.362 . S
C2186 H2178 0.930 . S
C2186 C2185 1.362 . S
C2186 C2189 1.409 1_545 S
C2187 H2179 0.930 . S
C2187 C2188 1.355 . S
C2187 C2189 1.415 . S
C2188 C2187 1.355 . S
C2188 C2190 1.419 . S
C2189 C2184 1.425 . S
C2189 C2186 1.409 1_565 S
C2189 C2187 1.415 . S
C2190 H2180 0.930 . S
C2190 C2188 1.419 . S
C2190 C2191 1.362 . S
C2191 H2181 0.930 . S
C2191 C2184 1.409 . S
C2191 C2190 1.362 . S
H2192 C2198 0.930 . S
H2193 C2201 0.930 . S
H2194 C2202 0.930 . S
H2195 C2203 0.930 . S
H2196 C2206 0.930 . S
H2197 C2207 0.930 . S
C2198 H2192 0.930 . S
C2198 C2199 1.355 1_455 S
C2198 C2200 1.415 . S
C2199 C2198 1.355 1_655 S
C2199 C2201 1.419 . S
C2200 C2198 1.415 . S
C2200 C2205 1.425 . S
C2200 C2207 1.409 . S
C2201 H2193 0.930 . S
C2201 C2199 1.419 . S
C2201 C2202 1.362 . S
C2202 H2194 0.930 . S
C2202 C2201 1.362 . S
C2202 C2205 1.409 1_655 S
C2203 H2195 0.930 . S
C2203 C2204 1.355 . S
C2203 C2205 1.415 . S
C2204 C2203 1.355 . S
C2204 C2206 1.419 . S
C2205 C2200 1.425 . S
C2205 C2202 1.409 1_455 S
C2205 C2203 1.415 . S
C2206 H2196 0.930 . S
C2206 C2204 1.419 . S
C2206 C2207 1.362 . S
C2207 H2197 0.930 . S
C2207 C2200 1.409 . S
C2207 C2206 1.362 . S
H2208 C2214 0.930 . S
H2209 C2217 0.930 . S
H2210 C2218 0.930 . S
H2211 C2219 0.930 . S
H2212 C2222 0.930 . S
H2213 C2223 0.930 . S
C2214 H2208 0.930 . S
C2214 C2215 1.355 . S
C2214 C2216 1.415 1_655 S
C2215 C2214 1.355 . S
C2215 C2217 1.419 . S
C2216 C2214 1.415 1_455 S
C2216 C2221 1.425 . S
C2216 C2223 1.409 . S
C2217 H2209 0.930 . S
C2217 C2215 1.419 . S
C2217 C2218 1.362 1_655 S
C2218 H2210 0.930 . S
C2218 C2217 1.362 1_455 S
C2218 C2221 1.409 . S
C2219 H2211 0.930 . S
C2219 C2220 1.355 . S
C2219 C2221 1.415 . S
C2220 C2219 1.355 . S
C2220 C2222 1.419 . S
C2221 C2216 1.425 . S
C2221 C2218 1.409 . S
C2221 C2219 1.415 . S
C2222 H2212 0.930 . S
C2222 C2220 1.419 . S
C2222 C2223 1.362 . S
C2223 H2213 0.930 . S
C2223 C2216 1.409 . S
C2223 C2222 1.362 . S
H2224 C2230 0.930 . S
H2225 C2233 0.930 . S
H2226 C2234 0.930 . S
H2227 C2235 0.930 . S
H2228 C2238 0.930 . S
H2229 C2239 0.930 . S
C2230 H2224 0.930 . S
C2230 C2231 1.355 . S
C2230 C2232 1.415 . S
C2231 C2230 1.355 . S
C2231 C2233 1.419 . S
C2232 C2230 1.415 . S
C2232 C2237 1.425 . S
C2232 C2239 1.409 . S
C2233 H2225 0.930 . S
C2233 C2231 1.419 . S
C2233 C2234 1.362 . S
C2234 H2226 0.930 . S
C2234 C2233 1.362 . S
C2234 C2237 1.409 . S
C2235 H2227 0.930 . S
C2235 C2236 1.355 . S
C2235 C2237 1.415 . S
C2236 C2235 1.355 . S
C2236 C2238 1.419 . S
C2237 C2232 1.425 . S
C2237 C2234 1.409 . S
C2237 C2235 1.415 . S
C2238 H2228 0.930 . S
C2238 C2236 1.419 . S
C2238 C2239 1.362 . S
C2239 H2229 0.930 . S
C2239 C2232 1.409 . S
C2239 C2238 1.362 . S
H2240 C2246 0.930 . S
H2241 C2249 0.930 . S
H2242 C2250 0.930 . S
H2243 C2251 0.930 . S
H2244 C2254 0.930 . S
H2245 C2255 0.931 . S
C2246 H2240 0.930 . S
C2246 C2247 1.355 . S
C2246 C2248 1.415 . S
C2247 C2246 1.355 . S
C2247 C2249 1.419 . S
C2248 C2246 1.415 . S
C2248 C2253 1.425 . S
C2248 C2255 1.421 . S
C2249 H2241 0.930 . S
C2249 C2247 1.419 . S
C2249 C2250 1.362 . S
C2250 H2242 0.930 . S
C2250 C2249 1.362 . S
C2250 C2253 1.409 . S
C2251 H2243 0.930 . S
C2251 C2252 1.355 . S
C2251 C2253 1.415 1_545 S
C2252 C2251 1.355 . S
C2252 C2254 1.419 . S
C2253 C2248 1.425 . S
C2253 C2250 1.409 . S
C2253 C2251 1.415 1_565 S
C2254 H2244 0.930 . S
C2254 C2252 1.419 . S
C2254 C2255 1.349 1_545 S
C2255 H2245 0.931 . S
C2255 C2248 1.421 . S
C2255 C2254 1.349 1_565 S
H2256 C2262 0.930 . S
H2257 C2265 0.930 . S
H2258 C2266 0.930 . S
H2259 C2267 0.930 1_655 S
H2260 C2270 0.930 . S
H2261 C2271 0.930 . S
C2262 H2256 0.930 . S
C2262 C2263 1.355 . S
C2262 C2264 1.415 . S
C2263 C2262 1.355 . S
C2263 C2265 1.419 . S
C2264 C2262 1.415 . S
C2264 C2269 1.425 . S
C2264 C2271 1.409 . S
C2265 H2257 0.930 . S
C2265 C2263 1.419 . S
C2265 C2266 1.362 . S
C2266 H2258 0.930 . S
C2266 C2265 1.362 . S
C2266 C2269 1.409 . S
C2267 H2259 0.930 1_455 S
C2267 C2268 1.355 . S
C2267 C2269 1.415 . S
C2268 C2267 1.355 . S
C2268 C2270 1.419 . S
C2269 C2264 1.425 . S
C2269 C2266 1.409 . S
C2269 C2267 1.415 . S
C2270 H2260 0.930 . S
C2270 C2268 1.419 . S
C2270 C2271 1.362 . S
C2271 H2261 0.930 . S
C2271 C2264 1.409 . S
C2271 C2270 1.362 . S
H2272 C2278 0.930 . S
H2273 C2281 0.930 . S
H2274 C2282 0.930 . S
H2275 C2283 0.930 . S
H2276 C2286 0.930 . S
H2277 C2287 0.930 . S
C2278 H2272 0.930 . S
C2278 C2279 1.355 . S
C2278 C2280 1.415 . S
C2279 C2278 1.355 . S
C2279 C2281 1.419 . S
C2280 C2278 1.415 . S
C2280 C2285 1.425 . S
C2280 C2287 1.409 . S
C2281 H2273 0.930 . S
C2281 C2279 1.419 . S
C2281 C2282 1.362 . S
C2282 H2274 0.930 . S
C2282 C2281 1.362 . S
C2282 C2285 1.409 . S
C2283 H2275 0.930 . S
C2283 C2284 1.355 . S
C2283 C2285 1.415 . S
C2284 C2283 1.355 . S
C2284 C2286 1.419 . S
C2285 C2280 1.425 . S
C2285 C2282 1.409 . S
C2285 C2283 1.415 . S
C2286 H2276 0.930 . S
C2286 C2284 1.419 . S
C2286 C2287 1.362 . S
C2287 H2277 0.930 . S
C2287 C2280 1.409 . S
C2287 C2286 1.362 . S
H2288 C2294 0.930 . S
H2289 C2297 0.930 . S
H2290 C2298 0.930 1_545 S
H2291 C2299 0.930 . S
H2292 C2302 0.930 . S
H2293 C2303 0.930 . S
C2294 H2288 0.930 . S
C2294 C2295 1.355 . S
C2294 C2296 1.415 . S
C2295 C2294 1.355 . S
C2295 C2297 1.419 . S
C2296 C2294 1.415 . S
C2296 C2301 1.425 . S
C2296 C2303 1.409 . S
C2297 H2289 0.930 . S
C2297 C2295 1.419 . S
C2297 C2298 1.362 . S
C2298 H2290 0.930 1_565 S
C2298 C2297 1.362 . S
C2298 C2301 1.409 . S
C2299 H2291 0.930 . S
C2299 C2300 1.355 1_545 S
C2299 C2301 1.415 1_545 S
C2300 C2299 1.355 1_565 S
C2300 C2302 1.419 . S
C2301 C2296 1.425 . S
C2301 C2298 1.409 . S
C2301 C2299 1.415 1_565 S
C2302 H2292 0.930 . S
C2302 C2300 1.419 . S
C2302 C2303 1.362 . S
C2303 H2293 0.930 . S
C2303 C2296 1.409 . S
C2303 C2302 1.362 . S
H2304 C2310 0.930 . S
H2305 C2313 0.930 . S
H2306 C2314 0.930 . S
H2307 C2315 0.930 . S
H2308 C2318 0.930 . S
H2309 C2319 0.930 . S
C2310 H2304 0.930 . S
C2310 C2311 1.355 . S
C2310 C2312 1.415 . S
C2311 C2310 1.355 . S
C2311 C2313 1.419 . S
C2312 C2310 1.415 . S
C2312 C2317 1.425 . S
C2312 C2319 1.409 1_565 S
C2313 H2305 0.930 . S
C2313 C2311 1.419 . S
C2313 C2314 1.362 . S
C2314 H2306 0.930 . S
C2314 C2313 1.362 . S
C2314 C2317 1.409 . S
C2315 H2307 0.930 . S
C2315 C2316 1.355 1_565 S
C2315 C2317 1.415 . S
C2316 C2315 1.355 1_545 S
C2316 C2318 1.419 . S
C2317 C2312 1.425 . S
C2317 C2314 1.409 . S
C2317 C2315 1.415 . S
C2318 H2308 0.930 . S
C2318 C2316 1.419 . S
C2318 C2319 1.362 . S
C2319 H2309 0.930 . S
C2319 C2312 1.409 1_545 S
C2319 C2318 1.362 . S
H2320 C2326 0.930 . S
H2321 C2329 0.930 . S
H2322 C2330 0.930 1_655 S
H2323 C2331 0.930 . S
H2324 C2334 0.930 . S
H2325 C2335 0.930 . S
C2326 H2320 0.930 . S
C2326 C2327 1.327 1_455 S
C2326 C2328 1.415 . S
C2327 C2326 1.327 1_655 S
C2327 C2329 1.420 . S
C2328 C2326 1.415 . S
C2328 C2333 1.425 . S
C2328 C2335 1.409 . S
C2329 H2321 0.930 . S
C2329 C2327 1.420 . S
C2329 C2330 1.362 1_655 S
C2330 H2322 0.930 1_455 S
C2330 C2329 1.362 1_455 S
C2330 C2333 1.409 . S
C2331 H2323 0.930 . S
C2331 C2332 1.355 . S
C2331 C2333 1.415 . S
C2332 C2331 1.355 . S
C2332 C2334 1.419 . S
C2333 C2328 1.425 . S
C2333 C2330 1.409 . S
C2333 C2331 1.415 . S
C2334 H2324 0.930 . S
C2334 C2332 1.419 . S
C2334 C2335 1.362 . S
C2335 H2325 0.930 . S
C2335 C2328 1.409 . S
C2335 C2334 1.362 . S
H2336 C2342 0.930 . S
H2337 C2345 0.930 . S
H2338 C2346 0.930 . S
H2339 C2347 0.930 . S
H2340 C2350 0.930 . S
H2341 C2351 0.930 . S
C2342 H2336 0.930 . S
C2342 C2343 1.355 . S
C2342 C2344 1.415 . S
C2343 C2342 1.355 . S
C2343 C2345 1.419 . S
C2344 C2342 1.415 . S
C2344 C2349 1.425 . S
C2344 C2351 1.409 . S
C2345 H2337 0.930 . S
C2345 C2343 1.419 . S
C2345 C2346 1.362 . S
C2346 H2338 0.930 . S
C2346 C2345 1.362 . S
C2346 C2349 1.409 . S
C2347 H2339 0.930 . S
C2347 C2348 1.355 . S
C2347 C2349 1.415 . S
C2348 C2347 1.355 . S
C2348 C2350 1.419 . S
C2349 C2344 1.425 . S
C2349 C2346 1.409 . S
C2349 C2347 1.415 . S
C2350 H2340 0.930 . S
C2350 C2348 1.419 . S
C2350 C2351 1.362 . S
C2351 H2341 0.930 . S
C2351 C2344 1.409 . S
C2351 C2350 1.362 . S
H2352 C2358 0.929 . S
H2353 C2361 0.926 . S
H2354 C2362 0.930 . S
H2355 C2363 0.930 . S
H2356 C2366 0.930 . S
H2357 C2367 0.936 1_565 S
C2358 H2352 0.929 . S
C2358 C2359 1.350 1_556 S
C2358 C2360 1.421 . S
C2359 C2358 1.350 1_554 S
C2359 C2361 1.419 . S
C2360 C2358 1.421 . S
C2360 C2365 1.425 . S
C2360 C2367 1.409 1_565 S
C2361 H2353 0.926 . S
C2361 C2359 1.419 . S
C2361 C2362 1.356 1_554 S
C2362 H2354 0.930 . S
C2362 C2361 1.356 1_556 S
C2362 C2365 1.418 . S
C2363 H2355 0.930 . S
C2363 C2364 1.355 . S
C2363 C2365 1.415 1_545 S
C2364 C2363 1.355 . S
C2364 C2366 1.419 . S
C2365 C2360 1.425 . S
C2365 C2362 1.418 . S
C2365 C2363 1.415 1_565 S
C2366 H2356 0.930 . S
C2366 C2364 1.419 . S
C2366 C2367 1.362 . S
C2367 H2357 0.936 1_545 S
C2367 C2360 1.409 1_545 S
C2367 C2366 1.362 . S
H2368 C2374 0.930 . S
H2369 C2377 0.930 . S
H2370 C2378 0.930 . S
H2371 C2379 0.930 . S
H2372 C2382 0.930 . S
H2373 C2383 0.930 . S
C2374 H2368 0.930 . S
C2374 C2375 1.355 1_556 S
C2374 C2376 1.415 . S
C2375 C2374 1.355 1_554 S
C2375 C2377 1.419 . S
C2376 C2374 1.415 . S
C2376 C2381 1.425 1_556 S
C2376 C2383 1.409 . S
C2377 H2369 0.930 . S
C2377 C2375 1.419 . S
C2377 C2378 1.362 . S
C2378 H2370 0.930 . S
C2378 C2377 1.362 . S
C2378 C2381 1.409 . S
C2379 H2371 0.930 . S
C2379 C2380 1.355 1_554 S
C2379 C2381 1.415 1_655 S
C2380 C2379 1.355 1_556 S
C2380 C2382 1.419 . S
C2381 C2376 1.425 1_554 S
C2381 C2378 1.409 . S
C2381 C2379 1.415 1_455 S
C2382 H2372 0.930 . S
C2382 C2380 1.419 . S
C2382 C2383 1.362 1_655 S
C2383 H2373 0.930 . S
C2383 C2376 1.409 . S
C2383 C2382 1.362 1_455 S
H2384 C2390 0.930 . S
H2385 C2393 0.930 . S
H2386 C2394 0.930 . S
H2387 C2395 0.930 . S
H2388 C2398 0.954 . S
H2389 C2399 0.929 . S
C2390 H2384 0.930 . S
C2390 C2391 1.355 . S
C2390 C2392 1.415 . S
C2391 C2390 1.355 . S
C2391 C2393 1.419 . S
C2392 C2390 1.415 . S
C2392 C2397 1.425 . S
C2392 C2399 1.409 1_556 S
C2393 H2385 0.930 . S
C2393 C2391 1.419 . S
C2393 C2394 1.362 . S
C2394 H2386 0.930 . S
C2394 C2393 1.362 . S
C2394 C2397 1.409 . S
C2395 H2387 0.930 . S
C2395 C2396 1.345 1_556 S
C2395 C2397 1.422 . S
C2396 C2395 1.345 1_554 S
C2396 C2398 1.418 . S
C2397 C2392 1.425 . S
C2397 C2394 1.409 . S
C2397 C2395 1.422 . S
C2398 H2388 0.954 . S
C2398 C2396 1.418 . S
C2398 C2399 1.356 . S
C2399 H2389 0.929 . S
C2399 C2392 1.409 1_554 S
C2399 C2398 1.356 . S
H2400 C2406 0.930 . S
H2401 C2409 0.930 . S
H2402 C2410 0.930 1_565 S
H2403 C2411 0.930 . S
H2404 C2414 0.930 . S
H2405 C2415 0.930 . S
C2406 H2400 0.930 . S
C2406 C2407 1.355 . S
C2406 C2408 1.415 . S
C2407 C2406 1.355 . S
C2407 C2409 1.419 . S
C2408 C2406 1.415 . S
C2408 C2413 1.425 . S
C2408 C2415 1.409 . S
C2409 H2401 0.930 . S
C2409 C2407 1.419 . S
C2409 C2410 1.362 . S
C2410 H2402 0.930 1_545 S
C2410 C2409 1.362 . S
C2410 C2413 1.409 . S
C2411 H2403 0.930 . S
C2411 C2412 1.355 1_565 S
C2411 C2413 1.415 1_565 S
C2412 C2411 1.355 1_545 S
C2412 C2414 1.419 . S
C2413 C2408 1.425 . S
C2413 C2410 1.409 . S
C2413 C2411 1.415 1_545 S
C2414 H2404 0.930 . S
C2414 C2412 1.419 . S
C2414 C2415 1.362 . S
C2415 H2405 0.930 . S
C2415 C2408 1.409 . S
C2415 C2414 1.362 . S
H2416 C2422 0.930 . S
H2417 C2425 0.930 . S
H2418 C2426 0.930 . S
H2419 C2427 0.930 . S
H2420 C2430 0.930 . S
H2421 C2431 0.930 . S
C2422 H2416 0.930 . S
C2422 C2423 1.355 . S
C2422 C2424 1.415 . S
C2423 C2422 1.355 . S
C2423 C2425 1.419 . S
C2424 C2422 1.415 . S
C2424 C2429 1.425 . S
C2424 C2431 1.409 1_655 S
C2425 H2417 0.930 . S
C2425 C2423 1.419 . S
C2425 C2426 1.362 . S
C2426 H2418 0.930 . S
C2426 C2425 1.362 . S
C2426 C2429 1.409 . S
C2427 H2419 0.930 . S
C2427 C2428 1.355 1_655 S
C2427 C2429 1.415 . S
C2428 C2427 1.355 1_455 S
C2428 C2430 1.419 . S
C2429 C2424 1.425 . S
C2429 C2426 1.409 . S
C2429 C2427 1.415 . S
C2430 H2420 0.930 . S
C2430 C2428 1.419 . S
C2430 C2431 1.362 . S
C2431 H2421 0.930 . S
C2431 C2424 1.409 1_455 S
C2431 C2430 1.362 . S
H2432 C2438 0.930 . S
H2433 C2441 0.930 . S
H2434 C2442 0.930 . S
H2435 C2443 0.930 . S
H2436 C2446 0.930 . S
H2437 C2447 0.930 . S
C2438 H2432 0.930 . S
C2438 C2439 1.355 . S
C2438 C2440 1.415 . S
C2439 C2438 1.355 . S
C2439 C2441 1.419 . S
C2440 C2438 1.415 . S
C2440 C2445 1.425 . S
C2440 C2447 1.409 . S
C2441 H2433 0.930 . S
C2441 C2439 1.419 . S
C2441 C2442 1.362 . S
C2442 H2434 0.930 . S
C2442 C2441 1.362 . S
C2442 C2445 1.409 . S
C2443 H2435 0.930 . S
C2443 C2444 1.355 . S
C2443 C2445 1.415 . S
C2444 C2443 1.355 . S
C2444 C2446 1.419 . S
C2445 C2440 1.425 . S
C2445 C2442 1.409 . S
C2445 C2443 1.415 . S
C2446 H2436 0.930 . S
C2446 C2444 1.419 . S
C2446 C2447 1.362 . S
C2447 H2437 0.930 . S
C2447 C2440 1.409 . S
C2447 C2446 1.362 . S
H2448 C2454 0.930 . S
H2449 C2457 0.930 . S
H2450 C2458 0.930 1_545 S
H2451 C2459 0.930 . S
H2452 C2462 0.930 . S
H2453 C2463 0.930 . S
C2454 H2448 0.930 . S
C2454 C2455 1.355 1_556 S
C2454 C2456 1.415 1_565 S
C2455 C2454 1.355 1_554 S
C2455 C2457 1.419 . S
C2456 C2454 1.415 1_545 S
C2456 C2461 1.425 1_556 S
C2456 C2463 1.409 . S
C2457 H2449 0.930 . S
C2457 C2455 1.419 . S
C2457 C2458 1.362 . S
C2458 H2450 0.930 1_565 S
C2458 C2457 1.362 . S
C2458 C2461 1.409 1_565 S
C2459 H2451 0.930 . S
C2459 C2460 1.316 1_554 S
C2459 C2461 1.415 . S
C2460 C2459 1.316 1_556 S
C2460 C2462 1.462 . S
C2461 C2456 1.425 1_554 S
C2461 C2458 1.409 1_545 S
C2461 C2459 1.415 . S
C2462 H2452 0.930 . S
C2462 C2460 1.462 . S
C2462 C2463 1.362 . S
C2463 H2453 0.930 . S
C2463 C2456 1.409 . S
C2463 C2462 1.362 . S
H2464 C2470 0.930 . S
H2465 C2473 0.930 . S
H2466 C2474 0.930 . S
H2467 C2475 0.930 . S
H2468 C2478 0.930 . S
H2469 C2479 0.945 . S
C2470 H2464 0.930 . S
C2470 C2471 1.355 1_554 S
C2470 C2472 1.415 . S
C2471 C2470 1.355 1_556 S
C2471 C2473 1.419 . S
C2472 C2470 1.415 . S
C2472 C2477 1.425 1_554 S
C2472 C2479 1.419 . S
C2473 H2465 0.930 . S
C2473 C2471 1.419 . S
C2473 C2474 1.362 . S
C2474 H2466 0.930 . S
C2474 C2473 1.362 . S
C2474 C2477 1.409 . S
C2475 H2467 0.930 . S
C2475 C2476 1.355 1_556 S
C2475 C2477 1.415 1_455 S
C2476 C2475 1.355 1_554 S
C2476 C2478 1.419 . S
C2477 C2472 1.425 1_556 S
C2477 C2474 1.409 . S
C2477 C2475 1.415 1_655 S
C2478 H2468 0.930 . S
C2478 C2476 1.419 . S
C2478 C2479 1.338 1_455 S
C2479 H2469 0.945 . S
C2479 C2472 1.419 . S
C2479 C2478 1.338 1_655 S
H2480 C2486 0.954 . S
H2481 C2489 0.930 . S
H2482 C2490 0.930 . S
H2483 C2491 0.930 . S
H2484 C2494 0.930 . S
H2485 C2495 0.930 . S
C2486 H2480 0.954 . S
C2486 C2487 1.332 1_556 S
C2486 C2488 1.415 . S
C2487 C2486 1.332 1_554 S
C2487 C2489 1.419 . S
C2488 C2486 1.415 . S
C2488 C2493 1.403 1_556 S
C2488 C2495 1.432 . S
C2489 H2481 0.930 . S
C2489 C2487 1.419 . S
C2489 C2490 1.362 . S
C2490 H2482 0.930 . S
C2490 C2489 1.362 . S
C2490 C2493 1.409 . S
C2491 H2483 0.930 . S
C2491 C2492 1.333 1_554 S
C2491 C2493 1.415 . S
C2492 C2491 1.333 1_556 S
C2492 C2494 1.441 . S
C2493 C2488 1.403 1_554 S
C2493 C2490 1.409 . S
C2493 C2491 1.415 . S
C2494 H2484 0.930 . S
C2494 C2492 1.441 . S
C2494 C2495 1.362 . S
C2495 H2485 0.930 . S
C2495 C2488 1.432 . S
C2495 C2494 1.362 . S
H2496 C2502 0.930 . S
H2497 C2505 0.930 . S
H2498 C2506 0.930 . S
H2499 C2507 0.930 . S
H2500 C2510 0.930 . S
H2501 C2511 0.930 . S
C2502 H2496 0.930 . S
C2502 C2503 1.355 . S
C2502 C2504 1.415 1_455 S
C2503 C2502 1.355 . S
C2503 C2505 1.419 . S
C2504 C2502 1.415 1_655 S
C2504 C2509 1.425 . S
C2504 C2511 1.409 . S
C2505 H2497 0.930 . S
C2505 C2503 1.419 . S
C2505 C2506 1.362 1_455 S
C2506 H2498 0.930 . S
C2506 C2505 1.362 1_655 S
C2506 C2509 1.409 . S
C2507 H2499 0.930 . S
C2507 C2508 1.355 . S
C2507 C2509 1.415 . S
C2508 C2507 1.355 . S
C2508 C2510 1.419 . S
C2509 C2504 1.425 . S
C2509 C2506 1.409 . S
C2509 C2507 1.415 . S
C2510 H2500 0.930 . S
C2510 C2508 1.419 . S
C2510 C2511 1.362 . S
C2511 H2501 0.930 . S
C2511 C2504 1.409 . S
C2511 C2510 1.362 . S
H2512 C2518 0.930 . S
H2513 C2521 0.930 . S
H2514 C2522 0.930 . S
H2515 C2523 0.930 . S
H2516 C2526 0.930 . S
H2517 C2527 0.930 . S
C2518 H2512 0.930 . S
C2518 C2519 1.355 . S
C2518 C2520 1.415 . S
C2519 C2518 1.355 . S
C2519 C2521 1.419 . S
C2520 C2518 1.415 . S
C2520 C2525 1.425 . S
C2520 C2527 1.409 . S
C2521 H2513 0.930 . S
C2521 C2519 1.419 . S
C2521 C2522 1.362 . S
C2522 H2514 0.930 . S
C2522 C2521 1.362 . S
C2522 C2525 1.409 . S
C2523 H2515 0.930 . S
C2523 C2524 1.355 . S
C2523 C2525 1.415 . S
C2524 C2523 1.355 . S
C2524 C2526 1.419 . S
C2525 C2520 1.425 . S
C2525 C2522 1.409 . S
C2525 C2523 1.415 . S
C2526 H2516 0.930 . S
C2526 C2524 1.419 . S
C2526 C2527 1.362 . S
C2527 H2517 0.930 . S
C2527 C2520 1.409 . S
C2527 C2526 1.362 . S
H2528 C2534 0.930 . S
H2529 C2537 0.930 . S
H2530 C2538 0.926 1_545 S
H2531 C2539 0.930 . S
H2532 C2542 0.930 . S
H2533 C2543 0.930 . S
C2534 H2528 0.930 . S
C2534 C2535 1.355 . S
C2534 C2536 1.415 1_565 S
C2535 C2534 1.355 . S
C2535 C2537 1.419 . S
C2536 C2534 1.415 1_545 S
C2536 C2541 1.425 . S
C2536 C2543 1.409 . S
C2537 H2529 0.930 . S
C2537 C2535 1.419 . S
C2537 C2538 1.362 . S
C2538 H2530 0.926 1_565 S
C2538 C2537 1.362 . S
C2538 C2541 1.409 1_565 S
C2539 H2531 0.930 . S
C2539 C2540 1.355 . S
C2539 C2541 1.415 . S
C2540 C2539 1.355 . S
C2540 C2542 1.419 . S
C2541 C2536 1.425 . S
C2541 C2538 1.409 1_545 S
C2541 C2539 1.415 . S
C2542 H2532 0.930 . S
C2542 C2540 1.419 . S
C2542 C2543 1.362 . S
C2543 H2533 0.930 . S
C2543 C2536 1.409 . S
C2543 C2542 1.362 . S
H2544 C2550 0.930 . S
H2545 C2553 0.930 . S
H2546 C2554 0.930 1_455 S
H2547 C2555 0.930 . S
H2548 C2558 0.930 . S
H2549 C2559 0.930 . S
C2550 H2544 0.930 . S
C2550 C2551 1.355 . S
C2550 C2552 1.415 . S
C2551 C2550 1.355 . S
C2551 C2553 1.419 1_655 S
C2552 C2550 1.415 . S
C2552 C2557 1.425 . S
C2552 C2559 1.409 . S
C2553 H2545 0.930 . S
C2553 C2551 1.419 1_455 S
C2553 C2554 1.362 1_455 S
C2554 H2546 0.930 1_655 S
C2554 C2553 1.362 1_655 S
C2554 C2557 1.409 . S
C2555 H2547 0.930 . S
C2555 C2556 1.355 . S
C2555 C2557 1.415 . S
C2556 C2555 1.355 . S
C2556 C2558 1.419 . S
C2557 C2552 1.425 . S
C2557 C2554 1.409 . S
C2557 C2555 1.415 . S
C2558 H2548 0.930 . S
C2558 C2556 1.419 . S
C2558 C2559 1.362 . S
C2559 H2549 0.930 . S
C2559 C2552 1.409 . S
C2559 C2558 1.362 . S
H2560 C2566 0.930 . S
H2561 C2569 0.930 . S
H2562 C2570 0.930 . S
H2563 C2571 0.930 . S
H2564 C2574 0.930 . S
H2565 C2575 0.930 . S
C2566 H2560 0.930 . S
C2566 C2567 1.355 . S
C2566 C2568 1.415 . S
C2567 C2566 1.355 . S
C2567 C2569 1.419 . S
C2568 C2566 1.415 . S
C2568 C2573 1.425 . S
C2568 C2575 1.409 . S
C2569 H2561 0.930 . S
C2569 C2567 1.419 . S
C2569 C2570 1.362 . S
C2570 H2562 0.930 . S
C2570 C2569 1.362 . S
C2570 C2573 1.409 . S
C2571 H2563 0.930 . S
C2571 C2572 1.355 . S
C2571 C2573 1.415 . S
C2572 C2571 1.355 . S
C2572 C2574 1.419 . S
C2573 C2568 1.425 . S
C2573 C2570 1.409 . S
C2573 C2571 1.415 . S
C2574 H2564 0.930 . S
C2574 C2572 1.419 . S
C2574 C2575 1.362 . S
C2575 H2565 0.930 . S
C2575 C2568 1.409 . S
C2575 C2574 1.362 . S
H2576 C2582 0.930 . S
H2577 C2585 0.930 . S
H2578 C2586 0.930 . S
H2579 C2587 0.930 . S
H2580 C2590 0.930 . S
H2581 C2591 0.930 1_565 S
C2582 H2576 0.930 . S
C2582 C2583 1.355 . S
C2582 C2584 1.415 . S
C2583 C2582 1.355 . S
C2583 C2585 1.419 . S
C2584 C2582 1.415 . S
C2584 C2589 1.425 . S
C2584 C2591 1.409 . S
C2585 H2577 0.930 . S
C2585 C2583 1.419 . S
C2585 C2586 1.362 . S
C2586 H2578 0.930 . S
C2586 C2585 1.362 . S
C2586 C2589 1.409 . S
C2587 H2579 0.930 . S
C2587 C2588 1.355 . S
C2587 C2589 1.415 . S
C2588 C2587 1.355 . S
C2588 C2590 1.419 1_545 S
C2589 C2584 1.425 . S
C2589 C2586 1.409 . S
C2589 C2587 1.415 . S
C2590 H2580 0.930 . S
C2590 C2588 1.419 1_565 S
C2590 C2591 1.362 1_565 S
C2591 H2581 0.930 1_545 S
C2591 C2584 1.409 . S
C2591 C2590 1.362 1_545 S
H2592 C2598 0.930 . S
H2593 C2601 0.930 . S
H2594 C2602 0.930 . S
H2595 C2603 0.930 . S
H2596 C2606 0.930 . S
H2597 C2607 0.930 . S
C2598 H2592 0.930 . S
C2598 C2599 1.355 . S
C2598 C2600 1.415 . S
C2599 C2598 1.355 . S
C2599 C2601 1.419 . S
C2600 C2598 1.415 . S
C2600 C2605 1.425 . S
C2600 C2607 1.409 . S
C2601 H2593 0.930 . S
C2601 C2599 1.419 . S
C2601 C2602 1.362 . S
C2602 H2594 0.930 . S
C2602 C2601 1.362 . S
C2602 C2605 1.409 . S
C2603 H2595 0.930 . S
C2603 C2604 1.355 . S
C2603 C2605 1.415 . S
C2604 C2603 1.355 . S
C2604 C2606 1.419 . S
C2605 C2600 1.425 . S
C2605 C2602 1.409 . S
C2605 C2603 1.415 . S
C2606 H2596 0.930 . S
C2606 C2604 1.419 . S
C2606 C2607 1.362 . S
C2607 H2597 0.930 . S
C2607 C2600 1.409 . S
C2607 C2606 1.362 . S
H2608 C2614 0.930 . S
H2609 C2617 0.930 . S
H2610 C2618 0.930 . S
H2611 C2619 0.930 . S
H2612 C2622 0.930 . S
H2613 C2623 0.930 . S
C2614 H2608 0.930 . S
C2614 C2615 1.355 . S
C2614 C2616 1.415 . S
C2615 C2614 1.355 . S
C2615 C2617 1.419 . S
C2616 C2614 1.415 . S
C2616 C2621 1.425 . S
C2616 C2623 1.409 . S
C2617 H2609 0.930 . S
C2617 C2615 1.419 . S
C2617 C2618 1.362 . S
C2618 H2610 0.930 . S
C2618 C2617 1.362 . S
C2618 C2621 1.409 . S
C2619 H2611 0.930 . S
C2619 C2620 1.355 . S
C2619 C2621 1.415 . S
C2620 C2619 1.355 . S
C2620 C2622 1.419 . S
C2621 C2616 1.425 . S
C2621 C2618 1.409 . S
C2621 C2619 1.415 . S
C2622 H2612 0.930 . S
C2622 C2620 1.419 . S
C2622 C2623 1.362 . S
C2623 H2613 0.930 . S
C2623 C2616 1.409 . S
C2623 C2622 1.362 . S
H2624 C2630 0.930 . S
H2625 C2633 0.930 . S
H2626 C2634 0.930 . S
H2627 C2635 0.930 . S
H2628 C2638 0.930 . S
H2629 C2639 0.930 . S
C2630 H2624 0.930 . S
C2630 C2631 1.355 . S
C2630 C2632 1.415 . S
C2631 C2630 1.355 . S
C2631 C2633 1.419 . S
C2632 C2630 1.415 . S
C2632 C2637 1.425 . S
C2632 C2639 1.409 . S
C2633 H2625 0.930 . S
C2633 C2631 1.419 . S
C2633 C2634 1.362 . S
C2634 H2626 0.930 . S
C2634 C2633 1.362 . S
C2634 C2637 1.409 . S
C2635 H2627 0.930 . S
C2635 C2636 1.355 . S
C2635 C2637 1.415 . S
C2636 C2635 1.355 . S
C2636 C2638 1.419 . S
C2637 C2632 1.425 . S
C2637 C2634 1.409 . S
C2637 C2635 1.415 . S
C2638 H2628 0.930 . S
C2638 C2636 1.419 . S
C2638 C2639 1.362 . S
C2639 H2629 0.930 . S
C2639 C2632 1.409 . S
C2639 C2638 1.362 . S
H2640 C2646 0.930 . S
H2641 C2649 0.930 . S
H2642 C2650 0.930 . S
H2643 C2651 0.930 . S
H2644 C2654 0.930 . S
H2645 C2655 0.930 . S
C2646 H2640 0.930 . S
C2646 C2647 1.355 . S
C2646 C2648 1.415 . S
C2647 C2646 1.355 . S
C2647 C2649 1.419 . S
C2648 C2646 1.415 . S
C2648 C2653 1.425 . S
C2648 C2655 1.409 . S
C2649 H2641 0.930 . S
C2649 C2647 1.419 . S
C2649 C2650 1.362 . S
C2650 H2642 0.930 . S
C2650 C2649 1.362 . S
C2650 C2653 1.409 . S
C2651 H2643 0.930 . S
C2651 C2652 1.355 . S
C2651 C2653 1.415 . S
C2652 C2651 1.355 . S
C2652 C2654 1.419 . S
C2653 C2648 1.425 . S
C2653 C2650 1.409 . S
C2653 C2651 1.415 . S
C2654 H2644 0.930 . S
C2654 C2652 1.419 . S
C2654 C2655 1.362 . S
C2655 H2645 0.930 . S
C2655 C2648 1.409 . S
C2655 C2654 1.362 . S
H2656 C2662 0.930 . S
H2657 C2665 0.930 . S
H2658 C2666 0.930 . S
H2659 C2667 0.930 . S
H2660 C2670 0.930 . S
H2661 C2671 0.930 . S
C2662 H2656 0.930 . S
C2662 C2663 1.355 . S
C2662 C2664 1.415 . S
C2663 C2662 1.355 . S
C2663 C2665 1.419 . S
C2664 C2662 1.415 . S
C2664 C2669 1.425 . S
C2664 C2671 1.409 . S
C2665 H2657 0.930 . S
C2665 C2663 1.419 . S
C2665 C2666 1.362 . S
C2666 H2658 0.930 . S
C2666 C2665 1.362 . S
C2666 C2669 1.409 . S
C2667 H2659 0.930 . S
C2667 C2668 1.355 . S
C2667 C2669 1.415 . S
C2668 C2667 1.355 . S
C2668 C2670 1.419 . S
C2669 C2664 1.425 . S
C2669 C2666 1.409 . S
C2669 C2667 1.415 . S
C2670 H2660 0.930 . S
C2670 C2668 1.419 . S
C2670 C2671 1.362 . S
C2671 H2661 0.930 . S
C2671 C2664 1.409 . S
C2671 C2670 1.362 . S
H2672 C2678 0.930 . S
H2673 C2681 0.930 . S
H2674 C2682 0.930 . S
H2675 C2683 0.930 . S
H2676 C2686 0.930 . S
H2677 C2687 0.930 . S
C2678 H2672 0.930 . S
C2678 C2679 1.355 . S
C2678 C2680 1.415 . S
C2679 C2678 1.355 . S
C2679 C2681 1.419 . S
C2680 C2678 1.415 . S
C2680 C2685 1.425 . S
C2680 C2687 1.409 . S
C2681 H2673 0.930 . S
C2681 C2679 1.419 . S
C2681 C2682 1.362 . S
C2682 H2674 0.930 . S
C2682 C2681 1.362 . S
C2682 C2685 1.409 . S
C2683 H2675 0.930 . S
C2683 C2684 1.355 . S
C2683 C2685 1.415 . S
C2684 C2683 1.355 . S
C2684 C2686 1.419 . S
C2685 C2680 1.425 . S
C2685 C2682 1.409 . S
C2685 C2683 1.415 . S
C2686 H2676 0.930 . S
C2686 C2684 1.419 . S
C2686 C2687 1.362 . S
C2687 H2677 0.930 . S
C2687 C2680 1.409 . S
C2687 C2686 1.362 . S
H2688 C2694 0.930 . S
H2689 C2697 0.930 . S
H2690 C2698 0.930 . S
H2691 C2699 0.930 . S
H2692 C2702 0.930 . S
H2693 C2703 0.930 . S
C2694 H2688 0.930 . S
C2694 C2695 1.355 . S
C2694 C2696 1.415 . S
C2695 C2694 1.355 . S
C2695 C2697 1.419 . S
C2696 C2694 1.415 . S
C2696 C2701 1.425 . S
C2696 C2703 1.409 . S
C2697 H2689 0.930 . S
C2697 C2695 1.419 . S
C2697 C2698 1.362 . S
C2698 H2690 0.930 . S
C2698 C2697 1.362 . S
C2698 C2701 1.409 . S
C2699 H2691 0.930 . S
C2699 C2700 1.355 . S
C2699 C2701 1.415 . S
C2700 C2699 1.355 . S
C2700 C2702 1.419 . S
C2701 C2696 1.425 . S
C2701 C2698 1.409 . S
C2701 C2699 1.415 . S
C2702 H2692 0.930 . S
C2702 C2700 1.419 . S
C2702 C2703 1.362 . S
C2703 H2693 0.930 . S
C2703 C2696 1.409 . S
C2703 C2702 1.362 . S
H2704 C2710 0.930 . S
H2705 C2713 0.930 . S
H2706 C2714 0.930 . S
H2707 C2715 0.930 . S
H2708 C2718 0.930 . S
H2709 C2719 0.930 . S
C2710 H2704 0.930 . S
C2710 C2711 1.355 . S
C2710 C2712 1.415 . S
C2711 C2710 1.355 . S
C2711 C2713 1.419 . S
C2712 C2710 1.415 . S
C2712 C2717 1.425 . S
C2712 C2719 1.409 . S
C2713 H2705 0.930 . S
C2713 C2711 1.419 . S
C2713 C2714 1.362 . S
C2714 H2706 0.930 . S
C2714 C2713 1.362 . S
C2714 C2717 1.409 . S
C2715 H2707 0.930 . S
C2715 C2716 1.355 . S
C2715 C2717 1.415 . S
C2716 C2715 1.355 . S
C2716 C2718 1.419 . S
C2717 C2712 1.425 . S
C2717 C2714 1.409 . S
C2717 C2715 1.415 . S
C2718 H2708 0.930 . S
C2718 C2716 1.419 . S
C2718 C2719 1.362 . S
C2719 H2709 0.930 . S
C2719 C2712 1.409 . S
C2719 C2718 1.362 . S
H2720 C2726 0.930 . S
H2721 C2729 0.930 . S
H2722 C2730 0.930 . S
H2723 C2731 0.930 . S
H2724 C2734 0.930 . S
H2725 C2735 0.930 . S
C2726 H2720 0.930 . S
C2726 C2727 1.355 . S
C2726 C2728 1.415 . S
C2727 C2726 1.355 . S
C2727 C2729 1.419 . S
C2728 C2726 1.415 . S
C2728 C2733 1.425 . S
C2728 C2735 1.409 . S
C2729 H2721 0.930 . S
C2729 C2727 1.419 . S
C2729 C2730 1.362 . S
C2730 H2722 0.930 . S
C2730 C2729 1.362 . S
C2730 C2733 1.409 . S
C2731 H2723 0.930 . S
C2731 C2732 1.355 . S
C2731 C2733 1.415 . S
C2732 C2731 1.355 . S
C2732 C2734 1.419 . S
C2733 C2728 1.425 . S
C2733 C2730 1.409 . S
C2733 C2731 1.415 . S
C2734 H2724 0.930 . S
C2734 C2732 1.419 . S
C2734 C2735 1.362 . S
C2735 H2725 0.930 . S
C2735 C2728 1.409 . S
C2735 C2734 1.362 . S
H2736 C2742 0.930 . S
H2737 C2745 0.930 . S
H2738 C2746 0.930 . S
H2739 C2747 0.930 . S
H2740 C2750 0.930 . S
H2741 C2751 0.930 . S
C2742 H2736 0.930 . S
C2742 C2743 1.355 . S
C2742 C2744 1.415 . S
C2743 C2742 1.355 . S
C2743 C2745 1.419 . S
C2744 C2742 1.415 . S
C2744 C2749 1.425 . S
C2744 C2751 1.409 . S
C2745 H2737 0.930 . S
C2745 C2743 1.419 . S
C2745 C2746 1.362 . S
C2746 H2738 0.930 . S
C2746 C2745 1.362 . S
C2746 C2749 1.409 . S
C2747 H2739 0.930 . S
C2747 C2748 1.355 . S
C2747 C2749 1.415 . S
C2748 C2747 1.355 . S
C2748 C2750 1.419 . S
C2749 C2744 1.425 . S
C2749 C2746 1.409 . S
C2749 C2747 1.415 . S
C2750 H2740 0.930 . S
C2750 C2748 1.419 . S
C2750 C2751 1.362 . S
C2751 H2741 0.930 . S
C2751 C2744 1.409 . S
C2751 C2750 1.362 . S
H2752 C2758 0.930 . S
H2753 C2761 0.930 . S
H2754 C2762 0.930 . S
H2755 C2763 0.930 . S
H2756 C2766 0.930 . S
H2757 C2767 0.930 . S
C2758 H2752 0.930 . S
C2758 C2759 1.355 . S
C2758 C2760 1.415 . S
C2759 C2758 1.355 . S
C2759 C2761 1.419 . S
C2760 C2758 1.415 . S
C2760 C2765 1.425 . S
C2760 C2767 1.409 . S
C2761 H2753 0.930 . S
C2761 C2759 1.419 . S
C2761 C2762 1.362 . S
C2762 H2754 0.930 . S
C2762 C2761 1.362 . S
C2762 C2765 1.409 . S
C2763 H2755 0.930 . S
C2763 C2764 1.355 . S
C2763 C2765 1.415 . S
C2764 C2763 1.355 . S
C2764 C2766 1.419 . S
C2765 C2760 1.425 . S
C2765 C2762 1.409 . S
C2765 C2763 1.415 . S
C2766 H2756 0.930 . S
C2766 C2764 1.419 . S
C2766 C2767 1.362 . S
C2767 H2757 0.930 . S
C2767 C2760 1.409 . S
C2767 C2766 1.362 . S
H2768 C2774 0.930 . S
H2769 C2777 0.930 . S
H2770 C2778 0.930 . S
H2771 C2779 0.930 . S
H2772 C2782 0.930 . S
H2773 C2783 0.930 . S
C2774 H2768 0.930 . S
C2774 C2775 1.355 . S
C2774 C2776 1.415 . S
C2775 C2774 1.355 . S
C2775 C2777 1.419 . S
C2776 C2774 1.415 . S
C2776 C2781 1.425 . S
C2776 C2783 1.409 . S
C2777 H2769 0.930 . S
C2777 C2775 1.419 . S
C2777 C2778 1.362 . S
C2778 H2770 0.930 . S
C2778 C2777 1.362 . S
C2778 C2781 1.409 . S
C2779 H2771 0.930 . S
C2779 C2780 1.355 . S
C2779 C2781 1.415 . S
C2780 C2779 1.355 . S
C2780 C2782 1.419 . S
C2781 C2776 1.425 . S
C2781 C2778 1.409 . S
C2781 C2779 1.415 . S
C2782 H2772 0.930 . S
C2782 C2780 1.419 . S
C2782 C2783 1.362 . S
C2783 H2773 0.930 . S
C2783 C2776 1.409 . S
C2783 C2782 1.362 . S
H2784 C2790 0.930 . S
H2785 C2793 0.930 . S
H2786 C2794 0.930 . S
H2787 C2795 0.930 . S
H2788 C2798 0.930 . S
H2789 C2799 0.930 . S
C2790 H2784 0.930 . S
C2790 C2791 1.355 1_655 S
C2790 C2792 1.415 . S
C2791 C2790 1.355 1_455 S
C2791 C2793 1.419 . S
C2792 C2790 1.415 . S
C2792 C2797 1.425 1_655 S
C2792 C2799 1.409 . S
C2793 H2785 0.930 . S
C2793 C2791 1.419 . S
C2793 C2794 1.362 . S
C2794 H2786 0.930 . S
C2794 C2793 1.362 . S
C2794 C2797 1.409 . S
C2795 H2787 0.930 . S
C2795 C2796 1.355 1_455 S
C2795 C2797 1.415 . S
C2796 C2795 1.355 1_655 S
C2796 C2798 1.419 . S
C2797 C2792 1.425 1_455 S
C2797 C2794 1.409 . S
C2797 C2795 1.415 . S
C2798 H2788 0.930 . S
C2798 C2796 1.419 . S
C2798 C2799 1.362 . S
C2799 H2789 0.930 . S
C2799 C2792 1.409 . S
C2799 C2798 1.362 . S
H2800 C2806 0.930 . S
H2801 C2809 0.930 . S
H2802 C2810 0.930 . S
H2803 C2811 0.930 . S
H2804 C2814 0.930 . S
H2805 C2815 0.930 . S
C2806 H2800 0.930 . S
C2806 C2807 1.355 . S
C2806 C2808 1.415 . S
C2807 C2806 1.355 . S
C2807 C2809 1.419 . S
C2808 C2806 1.415 . S
C2808 C2813 1.425 . S
C2808 C2815 1.409 . S
C2809 H2801 0.930 . S
C2809 C2807 1.419 . S
C2809 C2810 1.362 . S
C2810 H2802 0.930 . S
C2810 C2809 1.362 . S
C2810 C2813 1.409 . S
C2811 H2803 0.930 . S
C2811 C2812 1.355 . S
C2811 C2813 1.415 . S
C2812 C2811 1.355 . S
C2812 C2814 1.419 . S
C2813 C2808 1.425 . S
C2813 C2810 1.409 . S
C2813 C2811 1.415 . S
C2814 H2804 0.930 . S
C2814 C2812 1.419 . S
C2814 C2815 1.362 . S
C2815 H2805 0.930 . S
C2815 C2808 1.409 . S
C2815 C2814 1.362 . S
H2816 C2822 0.930 . S
H2817 C2825 0.930 . S
H2818 C2826 0.930 . S
H2819 C2827 0.930 . S
H2820 C2830 0.930 . S
H2821 C2831 0.930 . S
C2822 H2816 0.930 . S
C2822 C2823 1.355 1_545 S
C2822 C2824 1.415 . S
C2823 C2822 1.355 1_565 S
C2823 C2825 1.419 . S
C2824 C2822 1.415 . S
C2824 C2829 1.425 1_545 S
C2824 C2831 1.409 . S
C2825 H2817 0.930 . S
C2825 C2823 1.419 . S
C2825 C2826 1.362 . S
C2826 H2818 0.930 . S
C2826 C2825 1.362 . S
C2826 C2829 1.409 . S
C2827 H2819 0.930 . S
C2827 C2828 1.373 . S
C2827 C2829 1.415 . S
C2828 C2827 1.373 . S
C2828 C2830 1.397 1_565 S
C2829 C2824 1.425 1_565 S
C2829 C2826 1.409 . S
C2829 C2827 1.415 . S
C2830 H2820 0.930 . S
C2830 C2828 1.397 1_545 S
C2830 C2831 1.362 . S
C2831 H2821 0.930 . S
C2831 C2824 1.409 . S
C2831 C2830 1.362 . S
H2832 C2838 0.930 . S
H2833 C2841 0.930 . S
H2834 C2842 0.930 . S
H2835 C2843 0.930 . S
H2836 C2846 0.930 . S
H2837 C2847 0.930 . S
C2838 H2832 0.930 . S
C2838 C2839 1.355 1_565 S
C2838 C2840 1.415 . S
C2839 C2838 1.355 1_545 S
C2839 C2841 1.419 . S
C2840 C2838 1.415 . S
C2840 C2845 1.425 1_565 S
C2840 C2847 1.409 . S
C2841 H2833 0.930 . S
C2841 C2839 1.419 . S
C2841 C2842 1.362 . S
C2842 H2834 0.930 . S
C2842 C2841 1.362 . S
C2842 C2845 1.409 . S
C2843 H2835 0.930 . S
C2843 C2844 1.355 . S
C2843 C2845 1.415 . S
C2844 C2843 1.355 . S
C2844 C2846 1.419 1_545 S
C2845 C2840 1.425 1_545 S
C2845 C2842 1.409 . S
C2845 C2843 1.415 . S
C2846 H2836 0.930 . S
C2846 C2844 1.419 1_565 S
C2846 C2847 1.362 . S
C2847 H2837 0.930 . S
C2847 C2840 1.409 . S
C2847 C2846 1.362 . S
H2848 C2854 0.930 . S
H2849 C2857 0.930 . S
H2850 C2858 0.930 . S
H2851 C2859 0.930 . S
H2852 C2862 0.930 . S
H2853 C2863 0.930 . S
C2854 H2848 0.930 . S
C2854 C2855 1.355 . S
C2854 C2856 1.415 . S
C2855 C2854 1.355 . S
C2855 C2857 1.419 1_655 S
C2856 C2854 1.415 . S
C2856 C2861 1.425 1_655 S
C2856 C2863 1.409 . S
C2857 H2849 0.930 . S
C2857 C2855 1.419 1_455 S
C2857 C2858 1.362 . S
C2858 H2850 0.930 . S
C2858 C2857 1.362 . S
C2858 C2861 1.409 . S
C2859 H2851 0.930 . S
C2859 C2860 1.355 1_455 S
C2859 C2861 1.415 . S
C2860 C2859 1.355 1_655 S
C2860 C2862 1.419 . S
C2861 C2856 1.425 1_455 S
C2861 C2858 1.409 . S
C2861 C2859 1.415 . S
C2862 H2852 0.930 . S
C2862 C2860 1.419 . S
C2862 C2863 1.362 . S
C2863 H2853 0.930 . S
C2863 C2856 1.409 . S
C2863 C2862 1.362 . S
H2864 C2870 0.930 . S
H2865 C2873 0.930 . S
H2866 C2874 0.930 . S
H2867 C2875 0.930 . S
H2868 C2878 0.930 . S
H2869 C2879 0.930 . S
C2870 H2864 0.930 . S
C2870 C2871 1.355 . S
C2870 C2872 1.415 . S
C2871 C2870 1.355 . S
C2871 C2873 1.419 . S
C2872 C2870 1.415 . S
C2872 C2877 1.425 . S
C2872 C2879 1.409 . S
C2873 H2865 0.930 . S
C2873 C2871 1.419 . S
C2873 C2874 1.362 . S
C2874 H2866 0.930 . S
C2874 C2873 1.362 . S
C2874 C2877 1.409 . S
C2875 H2867 0.930 . S
C2875 C2876 1.355 . S
C2875 C2877 1.415 . S
C2876 C2875 1.355 . S
C2876 C2878 1.419 . S
C2877 C2872 1.425 . S
C2877 C2874 1.409 . S
C2877 C2875 1.415 . S
C2878 H2868 0.930 . S
C2878 C2876 1.419 . S
C2878 C2879 1.362 . S
C2879 H2869 0.930 . S
C2879 C2872 1.409 . S
C2879 C2878 1.362 . S
H2880 C2886 0.930 1_455 S
H2881 C2889 0.930 . S
H2882 C2890 0.930 . S
H2883 C2891 0.930 1_655 S
H2884 C2894 0.930 . S
H2885 C2895 0.930 . S
C2886 H2880 0.930 1_655 S
C2886 C2887 1.355 . S
C2886 C2888 1.415 1_655 S
C2887 C2886 1.355 . S
C2887 C2889 1.419 . S
C2888 C2886 1.415 1_455 S
C2888 C2893 1.425 1_455 S
C2888 C2895 1.409 . S
C2889 H2881 0.930 . S
C2889 C2887 1.419 . S
C2889 C2890 1.362 . S
C2890 H2882 0.930 . S
C2890 C2889 1.362 . S
C2890 C2893 1.409 . S
C2891 H2883 0.930 1_455 S
C2891 C2892 1.355 . S
C2891 C2893 1.415 1_455 S
C2892 C2891 1.355 . S
C2892 C2894 1.419 . S
C2893 C2888 1.425 1_655 S
C2893 C2890 1.409 . S
C2893 C2891 1.415 1_655 S
C2894 H2884 0.930 . S
C2894 C2892 1.419 . S
C2894 C2895 1.362 . S
C2895 H2885 0.930 . S
C2895 C2888 1.409 . S
C2895 C2894 1.362 . S
H2896 C2902 0.930 . S
H2897 C2905 0.930 . S
H2898 C2906 0.930 . S
H2899 C2907 0.930 . S
H2900 C2910 0.930 . S
H2901 C2911 0.930 . S
C2902 H2896 0.930 . S
C2902 C2903 1.355 . S
C2902 C2904 1.415 . S
C2903 C2902 1.355 . S
C2903 C2905 1.419 . S
C2904 C2902 1.415 . S
C2904 C2909 1.425 . S
C2904 C2911 1.409 . S
C2905 H2897 0.930 . S
C2905 C2903 1.419 . S
C2905 C2906 1.362 . S
C2906 H2898 0.930 . S
C2906 C2905 1.362 . S
C2906 C2909 1.409 . S
C2907 H2899 0.930 . S
C2907 C2908 1.355 . S
C2907 C2909 1.415 . S
C2908 C2907 1.355 . S
C2908 C2910 1.419 . S
C2909 C2904 1.425 . S
C2909 C2906 1.409 . S
C2909 C2907 1.415 . S
C2910 H2900 0.930 . S
C2910 C2908 1.419 . S
C2910 C2911 1.362 . S
C2911 H2901 0.930 . S
C2911 C2904 1.409 . S
C2911 C2910 1.362 . S
H2912 C2918 0.930 . S
H2913 C2921 0.930 . S
H2914 C2922 0.930 . S
H2915 C2923 0.930 . S
H2916 C2926 0.930 . S
H2917 C2927 0.930 . S
C2918 H2912 0.930 . S
C2918 C2919 1.355 . S
C2918 C2920 1.415 . S
C2919 C2918 1.355 . S
C2919 C2921 1.419 1_545 S
C2920 C2918 1.415 . S
C2920 C2925 1.425 1_545 S
C2920 C2927 1.409 . S
C2921 H2913 0.930 . S
C2921 C2919 1.419 1_565 S
C2921 C2922 1.362 . S
C2922 H2914 0.930 . S
C2922 C2921 1.362 . S
C2922 C2925 1.409 . S
C2923 H2915 0.930 . S
C2923 C2924 1.355 . S
C2923 C2925 1.415 . S
C2924 C2923 1.355 . S
C2924 C2926 1.419 1_565 S
C2925 C2920 1.425 1_565 S
C2925 C2922 1.409 . S
C2925 C2923 1.415 . S
C2926 H2916 0.930 . S
C2926 C2924 1.419 1_545 S
C2926 C2927 1.362 . S
C2927 H2917 0.930 . S
C2927 C2920 1.409 . S
C2927 C2926 1.362 . S
H2928 C2934 0.930 1_455 S
H2929 C2937 0.930 . S
H2930 C2938 0.930 . S
H2931 C2939 0.930 1_655 S
H2932 C2942 0.930 . S
H2933 C2943 0.930 . S
C2934 H2928 0.930 1_655 S
C2934 C2935 1.355 . S
C2934 C2936 1.415 1_655 S
C2935 C2934 1.355 . S
C2935 C2937 1.419 . S
C2936 C2934 1.415 1_455 S
C2936 C2941 1.425 1_455 S
C2936 C2943 1.409 . S
C2937 H2929 0.930 . S
C2937 C2935 1.419 . S
C2937 C2938 1.362 . S
C2938 H2930 0.930 . S
C2938 C2937 1.362 . S
C2938 C2941 1.409 . S
C2939 H2931 0.930 1_455 S
C2939 C2940 1.355 . S
C2939 C2941 1.415 1_455 S
C2940 C2939 1.355 . S
C2940 C2942 1.419 . S
C2941 C2936 1.425 1_655 S
C2941 C2938 1.409 . S
C2941 C2939 1.415 1_655 S
C2942 H2932 0.930 . S
C2942 C2940 1.419 . S
C2942 C2943 1.362 . S
C2943 H2933 0.930 . S
C2943 C2936 1.409 . S
C2943 C2942 1.362 . S
H2944 C2950 0.930 . S
H2945 C2953 0.930 . S
H2946 C2954 0.930 . S
H2947 C2955 0.930 . S
H2948 C2958 0.930 . S
H2949 C2959 0.930 . S
C2950 H2944 0.930 . S
C2950 C2951 1.355 . S
C2950 C2952 1.415 . S
C2951 C2950 1.355 . S
C2951 C2953 1.419 . S
C2952 C2950 1.415 . S
C2952 C2957 1.425 . S
C2952 C2959 1.409 . S
C2953 H2945 0.930 . S
C2953 C2951 1.419 . S
C2953 C2954 1.362 . S
C2954 H2946 0.930 . S
C2954 C2953 1.362 . S
C2954 C2957 1.409 . S
C2955 H2947 0.930 . S
C2955 C2956 1.355 . S
C2955 C2957 1.415 . S
C2956 C2955 1.355 . S
C2956 C2958 1.419 . S
C2957 C2952 1.425 . S
C2957 C2954 1.409 . S
C2957 C2955 1.415 . S
C2958 H2948 0.930 . S
C2958 C2956 1.419 . S
C2958 C2959 1.362 . S
C2959 H2949 0.930 . S
C2959 C2952 1.409 . S
C2959 C2958 1.362 . S
H2960 C2966 0.930 . S
H2961 C2969 0.930 . S
H2962 C2970 0.930 . S
H2963 C2971 0.930 . S
H2964 C2974 0.930 . S
H2965 C2975 0.930 . S
C2966 H2960 0.930 . S
C2966 C2967 1.355 1_565 S
C2966 C2968 1.415 . S
C2967 C2966 1.355 1_545 S
C2967 C2969 1.419 . S
C2968 C2966 1.415 . S
C2968 C2973 1.425 1_565 S
C2968 C2975 1.409 . S
C2969 H2961 0.930 . S
C2969 C2967 1.419 . S
C2969 C2970 1.362 . S
C2970 H2962 0.930 . S
C2970 C2969 1.362 . S
C2970 C2973 1.409 . S
C2971 H2963 0.930 . S
C2971 C2972 1.355 1_545 S
C2971 C2973 1.415 . S
C2972 C2971 1.355 1_565 S
C2972 C2974 1.419 . S
C2973 C2968 1.425 1_545 S
C2973 C2970 1.409 . S
C2973 C2971 1.415 . S
C2974 H2964 0.930 . S
C2974 C2972 1.419 . S
C2974 C2975 1.362 . S
C2975 H2965 0.930 . S
C2975 C2968 1.409 . S
C2975 C2974 1.362 . S
H2976 C2982 0.930 . S
H2977 C2985 0.930 . S
H2978 C2986 0.930 . S
H2979 C2987 0.930 . S
H2980 C2990 0.930 . S
H2981 C2991 0.930 . S
C2982 H2976 0.930 . S
C2982 C2983 1.355 . S
C2982 C2984 1.415 . S
C2983 C2982 1.355 . S
C2983 C2985 1.419 . S
C2984 C2982 1.415 . S
C2984 C2989 1.425 . S
C2984 C2991 1.409 . S
C2985 H2977 0.930 . S
C2985 C2983 1.419 . S
C2985 C2986 1.362 . S
C2986 H2978 0.930 . S
C2986 C2985 1.362 . S
C2986 C2989 1.409 . S
C2987 H2979 0.930 . S
C2987 C2988 1.355 . S
C2987 C2989 1.415 . S
C2988 C2987 1.355 . S
C2988 C2990 1.419 . S
C2989 C2984 1.425 . S
C2989 C2986 1.409 . S
C2989 C2987 1.415 . S
C2990 H2980 0.930 . S
C2990 C2988 1.419 . S
C2990 C2991 1.362 . S
C2991 H2981 0.930 . S
C2991 C2984 1.409 . S
C2991 C2990 1.362 . S
H2992 C2998 0.930 . S
H2993 C3001 0.930 . S
H2994 C3002 0.930 . S
H2995 C3003 0.930 . S
H2996 C3006 0.930 . S
H2997 C3007 0.930 . S
C2998 H2992 0.930 . S
C2998 C2999 1.355 . S
C2998 C3000 1.415 . S
C2999 C2998 1.355 . S
C2999 C3001 1.419 . S
C3000 C2998 1.415 . S
C3000 C3005 1.425 . S
C3000 C3007 1.409 . S
C3001 H2993 0.930 . S
C3001 C2999 1.419 . S
C3001 C3002 1.362 . S
C3002 H2994 0.930 . S
C3002 C3001 1.362 . S
C3002 C3005 1.409 . S
C3003 H2995 0.930 . S
C3003 C3004 1.355 . S
C3003 C3005 1.415 . S
C3004 C3003 1.355 . S
C3004 C3006 1.419 . S
C3005 C3000 1.425 . S
C3005 C3002 1.409 . S
C3005 C3003 1.415 . S
C3006 H2996 0.930 . S
C3006 C3004 1.419 . S
C3006 C3007 1.362 . S
C3007 H2997 0.930 . S
C3007 C3000 1.409 . S
C3007 C3006 1.362 . S
H3008 C3014 0.930 . S
H3009 C3017 0.930 . S
H3010 C3018 0.930 . S
H3011 C3019 0.930 . S
H3012 C3022 0.930 . S
H3013 C3023 0.930 . S
C3014 H3008 0.930 . S
C3014 C3015 1.355 . S
C3014 C3016 1.415 . S
C3015 C3014 1.355 . S
C3015 C3017 1.419 . S
C3016 C3014 1.415 . S
C3016 C3021 1.425 . S
C3016 C3023 1.409 . S
C3017 H3009 0.930 . S
C3017 C3015 1.419 . S
C3017 C3018 1.362 . S
C3018 H3010 0.930 . S
C3018 C3017 1.362 . S
C3018 C3021 1.409 . S
C3019 H3011 0.930 . S
C3019 C3020 1.355 . S
C3019 C3021 1.415 . S
C3020 C3019 1.355 . S
C3020 C3022 1.419 . S
C3021 C3016 1.425 . S
C3021 C3018 1.409 . S
C3021 C3019 1.415 . S
C3022 H3012 0.930 . S
C3022 C3020 1.419 . S
C3022 C3023 1.362 . S
C3023 H3013 0.930 . S
C3023 C3016 1.409 . S
C3023 C3022 1.362 . S
H3024 C3030 0.930 . S
H3025 C3033 0.930 . S
H3026 C3034 0.930 . S
H3027 C3035 0.930 . S
H3028 C3038 0.930 . S
H3029 C3039 0.930 . S
C3030 H3024 0.930 . S
C3030 C3031 1.355 . S
C3030 C3032 1.415 . S
C3031 C3030 1.355 . S
C3031 C3033 1.419 . S
C3032 C3030 1.415 . S
C3032 C3037 1.425 . S
C3032 C3039 1.409 . S
C3033 H3025 0.930 . S
C3033 C3031 1.419 . S
C3033 C3034 1.362 . S
C3034 H3026 0.930 . S
C3034 C3033 1.362 . S
C3034 C3037 1.409 . S
C3035 H3027 0.930 . S
C3035 C3036 1.355 . S
C3035 C3037 1.415 . S
C3036 C3035 1.355 . S
C3036 C3038 1.419 . S
C3037 C3032 1.425 . S
C3037 C3034 1.409 . S
C3037 C3035 1.415 . S
C3038 H3028 0.930 . S
C3038 C3036 1.419 . S
C3038 C3039 1.362 . S
C3039 H3029 0.930 . S
C3039 C3032 1.409 . S
C3039 C3038 1.362 . S
H3040 C3046 0.930 . S
H3041 C3049 0.930 . S
H3042 C3050 0.930 . S
H3043 C3051 0.930 . S
H3044 C3054 0.930 . S
H3045 C3055 0.930 . S
C3046 H3040 0.930 . S
C3046 C3047 1.355 . S
C3046 C3048 1.415 . S
C3047 C3046 1.355 . S
C3047 C3049 1.419 . S
C3048 C3046 1.415 . S
C3048 C3053 1.425 . S
C3048 C3055 1.409 . S
C3049 H3041 0.930 . S
C3049 C3047 1.419 . S
C3049 C3050 1.362 . S
C3050 H3042 0.930 . S
C3050 C3049 1.362 . S
C3050 C3053 1.409 . S
C3051 H3043 0.930 . S
C3051 C3052 1.355 . S
C3051 C3053 1.415 . S
C3052 C3051 1.355 . S
C3052 C3054 1.419 . S
C3053 C3048 1.425 . S
C3053 C3050 1.409 . S
C3053 C3051 1.415 . S
C3054 H3044 0.930 . S
C3054 C3052 1.419 . S
C3054 C3055 1.362 . S
C3055 H3045 0.930 . S
C3055 C3048 1.409 . S
C3055 C3054 1.362 . S
H3056 C3062 0.930 . S
H3057 C3065 0.930 . S
H3058 C3066 0.930 . S
H3059 C3067 0.930 . S
H3060 C3070 0.930 . S
H3061 C3071 0.930 . S
C3062 H3056 0.930 . S
C3062 C3063 1.355 . S
C3062 C3064 1.415 . S
C3063 C3062 1.355 . S
C3063 C3065 1.419 . S
C3064 C3062 1.415 . S
C3064 C3069 1.425 . S
C3064 C3071 1.409 . S
C3065 H3057 0.930 . S
C3065 C3063 1.419 . S
C3065 C3066 1.362 . S
C3066 H3058 0.930 . S
C3066 C3065 1.362 . S
C3066 C3069 1.409 . S
C3067 H3059 0.930 . S
C3067 C3068 1.355 . S
C3067 C3069 1.415 . S
C3068 C3067 1.355 . S
C3068 C3070 1.419 . S
C3069 C3064 1.425 . S
C3069 C3066 1.409 . S
C3069 C3067 1.415 . S
C3070 H3060 0.930 . S
C3070 C3068 1.419 . S
C3070 C3071 1.362 . S
C3071 H3061 0.930 . S
C3071 C3064 1.409 . S
C3071 C3070 1.362 . S
H3072 C3078 0.930 . S
H3073 C3081 0.930 . S
H3074 C3082 0.930 . S
H3075 C3083 0.930 . S
H3076 C3086 0.930 . S
H3077 C3087 0.930 . S
C3078 H3072 0.930 . S
C3078 C3079 1.355 . S
C3078 C3080 1.415 . S
C3079 C3078 1.355 . S
C3079 C3081 1.419 . S
C3080 C3078 1.415 . S
C3080 C3085 1.425 . S
C3080 C3087 1.409 . S
C3081 H3073 0.930 . S
C3081 C3079 1.419 . S
C3081 C3082 1.362 . S
C3082 H3074 0.930 . S
C3082 C3081 1.362 . S
C3082 C3085 1.409 . S
C3083 H3075 0.930 . S
C3083 C3084 1.355 . S
C3083 C3085 1.415 . S
C3084 C3083 1.355 . S
C3084 C3086 1.419 . S
C3085 C3080 1.425 . S
C3085 C3082 1.409 . S
C3085 C3083 1.415 . S
C3086 H3076 0.930 . S
C3086 C3084 1.419 . S
C3086 C3087 1.362 . S
C3087 H3077 0.930 . S
C3087 C3080 1.409 . S
C3087 C3086 1.362 . S
H3088 C3094 0.930 . S
H3089 C3097 0.930 . S
H3090 C3098 0.930 . S
H3091 C3099 0.930 . S
H3092 C3102 0.930 . S
H3093 C3103 0.930 . S
C3094 H3088 0.930 . S
C3094 C3095 1.355 . S
C3094 C3096 1.415 . S
C3095 C3094 1.355 . S
C3095 C3097 1.419 . S
C3096 C3094 1.415 . S
C3096 C3101 1.425 . S
C3096 C3103 1.409 . S
C3097 H3089 0.930 . S
C3097 C3095 1.419 . S
C3097 C3098 1.362 . S
C3098 H3090 0.930 . S
C3098 C3097 1.362 . S
C3098 C3101 1.409 . S
C3099 H3091 0.930 . S
C3099 C3100 1.355 . S
C3099 C3101 1.415 . S
C3100 C3099 1.355 . S
C3100 C3102 1.419 . S
C3101 C3096 1.425 . S
C3101 C3098 1.409 . S
C3101 C3099 1.415 . S
C3102 H3092 0.930 . S
C3102 C3100 1.419 . S
C3102 C3103 1.362 . S
C3103 H3093 0.930 . S
C3103 C3096 1.409 . S
C3103 C3102 1.362 . S
H3104 C3110 0.930 . S
H3105 C3113 0.930 . S
H3106 C3114 0.930 . S
H3107 C3115 0.930 . S
H3108 C3118 0.930 . S
H3109 C3119 0.930 . S
C3110 H3104 0.930 . S
C3110 C3111 1.355 . S
C3110 C3112 1.415 . S
C3111 C3110 1.355 . S
C3111 C3113 1.419 . S
C3112 C3110 1.415 . S
C3112 C3117 1.425 . S
C3112 C3119 1.409 . S
C3113 H3105 0.930 . S
C3113 C3111 1.419 . S
C3113 C3114 1.362 . S
C3114 H3106 0.930 . S
C3114 C3113 1.362 . S
C3114 C3117 1.409 . S
C3115 H3107 0.930 . S
C3115 C3116 1.355 . S
C3115 C3117 1.415 . S
C3116 C3115 1.355 . S
C3116 C3118 1.419 . S
C3117 C3112 1.425 . S
C3117 C3114 1.409 . S
C3117 C3115 1.415 . S
C3118 H3108 0.930 . S
C3118 C3116 1.419 . S
C3118 C3119 1.362 . S
C3119 H3109 0.930 . S
C3119 C3112 1.409 . S
C3119 C3118 1.362 . S
H3120 C3126 0.930 . S
H3121 C3129 0.930 . S
H3122 C3130 0.930 . S
H3123 C3131 0.930 . S
H3124 C3134 0.930 . S
H3125 C3135 0.930 . S
C3126 H3120 0.930 . S
C3126 C3127 1.355 . S
C3126 C3128 1.415 . S
C3127 C3126 1.355 . S
C3127 C3129 1.419 . S
C3128 C3126 1.415 . S
C3128 C3133 1.425 . S
C3128 C3135 1.409 . S
C3129 H3121 0.930 . S
C3129 C3127 1.419 . S
C3129 C3130 1.362 . S
C3130 H3122 0.930 . S
C3130 C3129 1.362 . S
C3130 C3133 1.409 . S
C3131 H3123 0.930 . S
C3131 C3132 1.355 . S
C3131 C3133 1.415 . S
C3132 C3131 1.355 . S
C3132 C3134 1.419 . S
C3133 C3128 1.425 . S
C3133 C3130 1.409 . S
C3133 C3131 1.415 . S
C3134 H3124 0.930 . S
C3134 C3132 1.419 . S
C3134 C3135 1.362 . S
C3135 H3125 0.930 . S
C3135 C3128 1.409 . S
C3135 C3134 1.362 . S
H3136 C3142 0.930 . S
H3137 C3145 0.930 . S
H3138 C3146 0.930 . S
H3139 C3147 0.930 . S
H3140 C3150 0.930 . S
H3141 C3151 0.930 . S
C3142 H3136 0.930 . S
C3142 C3143 1.355 . S
C3142 C3144 1.415 . S
C3143 C3142 1.355 . S
C3143 C3145 1.419 . S
C3144 C3142 1.415 . S
C3144 C3149 1.425 . S
C3144 C3151 1.409 . S
C3145 H3137 0.930 . S
C3145 C3143 1.419 . S
C3145 C3146 1.362 . S
C3146 H3138 0.930 . S
C3146 C3145 1.362 . S
C3146 C3149 1.409 . S
C3147 H3139 0.930 . S
C3147 C3148 1.355 . S
C3147 C3149 1.415 . S
C3148 C3147 1.355 . S
C3148 C3150 1.419 . S
C3149 C3144 1.425 . S
C3149 C3146 1.409 . S
C3149 C3147 1.415 . S
C3150 H3140 0.930 . S
C3150 C3148 1.419 . S
C3150 C3151 1.362 . S
C3151 H3141 0.930 . S
C3151 C3144 1.409 . S
C3151 C3150 1.362 . S
H3152 C3158 0.930 . S
H3153 C3161 0.930 . S
H3154 C3162 0.930 . S
H3155 C3163 0.930 . S
H3156 C3166 0.930 . S
H3157 C3167 0.930 . S
C3158 H3152 0.930 . S
C3158 C3159 1.355 . S
C3158 C3160 1.415 . S
C3159 C3158 1.355 . S
C3159 C3161 1.419 . S
C3160 C3158 1.415 . S
C3160 C3165 1.425 . S
C3160 C3167 1.409 . S
C3161 H3153 0.930 . S
C3161 C3159 1.419 . S
C3161 C3162 1.362 . S
C3162 H3154 0.930 . S
C3162 C3161 1.362 . S
C3162 C3165 1.409 . S
C3163 H3155 0.930 . S
C3163 C3164 1.355 . S
C3163 C3165 1.415 . S
C3164 C3163 1.355 . S
C3164 C3166 1.419 . S
C3165 C3160 1.425 . S
C3165 C3162 1.409 . S
C3165 C3163 1.415 . S
C3166 H3156 0.930 . S
C3166 C3164 1.419 . S
C3166 C3167 1.362 . S
C3167 H3157 0.930 . S
C3167 C3160 1.409 . S
C3167 C3166 1.362 . S
C1447 C18 1.593 . S
C1452 C89 1.751 . S
C1463 C9 1.751 . S
C1468 C58 1.665 1_545 S
C1479 C98 1.670 1_655 S
C1484 C49 1.749 . S
C1495 C138 1.736 . S
C1500 C169 1.822 . S
C1511 C209 1.816 . S
C1516 C178 1.668 1_565 S
C1527 C218 1.727 1_455 S
C1532 C129 1.793 . S
C1543 C248 1.649 . S
C1548 C339 1.759 . S
C1559 C288 1.624 1_565 S
C1564 C259 1.725 . S
C1575 C328 1.666 1_455 S
C1580 C299 1.751 . S
C1591 C368 1.690 . S
C1596 C419 1.800 . S
C1607 C459 1.829 . S
C1612 C408 1.719 1_545 S
C1623 C379 1.821 . S
C1628 C448 1.666 1_655 S
C1639 C569 1.824 . S
C1644 C498 1.670 . S
C1655 C538 1.694 . S
C1660 C489 1.824 . S
C1671 C529 1.786 . S
C1676 C578 1.695 . S
C1687 C618 1.702 . S
C1692 C649 1.822 . S
C1703 C689 1.833 . S
C1708 C658 1.764 . S
C1719 C609 1.813 . S
C1724 C698 1.758 . S
C1735 C728 1.657 . S
C1740 C819 1.758 . S
C1751 C768 1.705 . S
C1756 C739 1.777 . S
C1767 C779 1.757 . S
C1772 C808 1.661 . S
C1783 C899 1.669 . S
C1788 C848 1.546 1_554 S
C1799 C888 1.599 1_554 S
C1804 C939 1.685 . S
C1815 C859 1.664 . S
C1820 C928 1.555 1_554 S
C1831 C978 1.662 . S
C1836 C1049 1.795 . S
C1847 C1018 1.695 . S
C1852 C969 1.753 . S
C1863 C1058 1.625 . S
C1868 C1009 1.783 . S
C1879 C1098 1.612 1_556 S
C1884 C1129 1.652 . S
C1895 C1138 1.557 1_556 S
C1900 C1169 1.691 . S
C1911 C1178 1.556 1_556 S
C1916 C1089 1.663 . S
C1927 C1208 1.728 . S
C1932 C1299 1.811 . S
C1943 C1248 1.667 . S
C1948 C1219 1.798 . S
C1959 C1259 1.784 . S
C1964 C1288 1.718 . S
C1975 C1328 1.727 . S
C1980 C1379 1.849 . S
C1991 C1368 1.768 . S
C1996 C1419 1.825 . S
C2007 C1339 1.846 . S
C2012 C1408 1.739 . S
C2023 C19 1.784 . S
C2028 C818 1.797 . S
C2039 C738 1.803 . S
C2044 C59 1.786 . S
C2055 C99 1.784 . S
C2060 C778 1.797 . S
C2071 C139 1.694 . S
C2076 C1378 1.703 . S
C2087 C1418 1.692 . S
C2092 C179 1.692 . S
C2103 C219 1.729 . S
C2108 C1338 1.681 . S
C2119 C1048 1.812 . S
C2124 C249 1.792 . S
C2135 C289 1.808 . S
C2140 C968 1.772 . S
C2151 C329 1.826 . S
C2156 C1008 1.791 . S
C2167 C648 1.710 . S
C2172 C369 1.697 . S
C2183 C688 1.711 . S
C2188 C409 1.742 . S
C2199 C608 1.676 . S
C2204 C449 1.724 . S
C2215 C499 1.740 . S
C2220 C1298 1.729 . S
C2231 C539 1.776 . S
C2236 C1218 1.733 . S
C2247 C1258 1.771 . S
C2252 C579 1.755 . S
C2263 C418 1.759 . S
C2268 C619 1.776 1_455 S
C2279 C458 1.767 . S
C2284 C659 1.759 . S
C2295 C378 1.735 . S
C2300 C699 1.775 1_565 S
C2311 C88 1.797 . S
C2316 C729 1.779 . S
C2327 C769 1.820 . S
C2332 C8 1.811 . S
C2343 C809 1.823 . S
C2348 C48 1.803 . S
C2359 C1128 1.739 1_554 S
C2364 C849 1.800 . S
C2375 C1168 1.787 1_554 S
C2380 C889 1.811 . S
C2391 C929 1.815 . S
C2396 C1088 1.751 1_554 S
C2407 C338 1.804 . S
C2412 C979 1.823 1_545 S
C2423 C258 1.789 . S
C2428 C1019 1.777 . S
C2439 C298 1.812 . S
C2444 C1059 1.818 . S
C2455 C1099 1.813 . S
C2460 C898 1.748 1_556 S
C2471 C938 1.792 1_556 S
C2476 C1139 1.807 . S
C2487 C1179 1.812 . S
C2492 C858 1.748 1_556 S
C2503 C1209 1.737 . S
C2508 C568 1.737 . S
C2519 C1249 1.744 . S
C2524 C488 1.761 . S
C2535 C1289 1.782 . S
C2540 C528 1.766 . S
C2551 C1329 1.730 1_655 S
C2556 C168 1.720 . S
C2567 C208 1.712 . S
C2572 C1369 1.735 . S
C2583 C128 1.735 . S
C2588 C1409 1.729 1_545 S
C2599 C1175 2.210 . S
C2604 C15 2.219 . S
C2615 C1095 2.212 . S
C2620 C55 2.221 . S
C2631 C95 2.209 . S
C2636 C1135 2.186 . S
C2647 C535 2.405 . S
C2652 C135 2.408 . S
C2663 C175 2.415 . S
C2668 C575 2.406 . S
C2679 C215 2.402 . S
C2684 C495 2.413 . S
C2695 C245 2.244 . S
C2700 C925 2.225 . S
C2711 C285 2.216 . S
C2716 C845 2.185 . S
C2727 C325 2.210 . S
C2732 C885 2.206 . S
C2743 C1245 2.436 . S
C2748 C365 2.419 . S
C2759 C1285 2.429 . S
C2764 C405 2.439 . S
C2775 C1205 2.427 . S
C2780 C445 2.409 . S
C2791 C615 2.480 1_455 S
C2796 C1015 2.482 1_655 S
C2807 C655 2.472 . S
C2812 C1055 2.484 . S
C2823 C695 2.475 1_565 S
C2828 C975 2.465 . S
C2839 C725 2.451 . S
C2844 C1405 2.456 1_545 S
C2855 C1325 2.447 1_655 S
C2860 C765 2.462 . S
C2871 C805 2.450 . S
C2876 C1365 2.452 . S
C2887 C165 1.192 . S
C2892 C5 1.227 . S
C2903 C205 1.224 . S
C2908 C45 1.200 . S
C2919 C125 1.215 . S
C2924 C85 1.197 . S
C2935 C255 1.227 . S
C2940 C415 1.192 . S
C2951 C455 1.218 . S
C2956 C295 1.207 . S
C2967 C335 1.219 . S
C2972 C375 1.206 . S
C2983 C645 1.287 . S
C2988 C485 1.278 . S
C2999 C685 1.284 . S
C3004 C525 1.283 . S
C3015 C605 1.268 . S
C3020 C565 1.296 . S
C3031 C895 1.527 . S
C3036 C735 1.531 . S
C3047 C775 1.525 . S
C3052 C935 1.527 . S
C3063 C815 1.523 . S
C3068 C855 1.531 . S
C3079 C965 1.532 . S
C3084 C1125 1.510 . S
C3095 C1165 1.518 . S
C3100 C1005 1.529 . S
C3111 C1045 1.527 . S
C3116 C1085 1.521 . S
C3127 C1215 1.292 . S
C3132 C1375 1.272 . S
C3143 C1415 1.296 . S
C3148 C1255 1.269 . S
C3159 C1295 1.265 . S
C3164 C1335 1.296 . S
