# Generated by pormake.
# Topology crs, (6)-cn, num edge types: 1
# Building blocks:
#     Node 0, Type 0, BuildingBlock: CIFDUS_clean_sbu_1, # of connection points: 6
#     Node 1, Type 0, BuildingBlock: CIFDUS_clean_sbu_1, # of connection points: 6
#     Node 2, Type 0, BuildingBlock: CIFDUS_clean_sbu_1, # of connection points: 6
#     Node 3, Type 0, BuildingBlock: CIFDUS_clean_sbu_1, # of connection points: 6
#     Node 4, Type 0, BuildingBlock: CIFDUS_clean_sbu_1, # of connection points: 6
#     Node 5, Type 0, BuildingBlock: CIFDUS_clean_sbu_1, # of connection points: 6
#     Node 6, Type 0, BuildingBlock: CIFDUS_clean_sbu_1, # of connection points: 6
#     Node 7, Type 0, BuildingBlock: CIFDUS_clean_sbu_1, # of connection points: 6
#     Node 8, Type 0, BuildingBlock: CIFDUS_clean_sbu_1, # of connection points: 6
#     Node 9, Type 0, BuildingBlock: CIFDUS_clean_sbu_1, # of connection points: 6
#     Node 10, Type 0, BuildingBlock: CIFDUS_clean_sbu_1, # of connection points: 6
#     Node 11, Type 0, BuildingBlock: CIFDUS_clean_sbu_1, # of connection points: 6
#     Node 12, Type 0, BuildingBlock: CIFDUS_clean_sbu_1, # of connection points: 6
#     Node 13, Type 0, BuildingBlock: CIFDUS_clean_sbu_1, # of connection points: 6
#     Node 14, Type 0, BuildingBlock: CIFDUS_clean_sbu_1, # of connection points: 6
#     Node 15, Type 0, BuildingBlock: CIFDUS_clean_sbu_1, # of connection points: 6
#     Edge 16, Type (0, 0), BuildingBlock: UVAHIK_clean_linker_0, # of connection points: 2
#     Edge 17, Type (0, 0), BuildingBlock: UVAHIK_clean_linker_0, # of connection points: 2
#     Edge 18, Type (0, 0), BuildingBlock: UVAHIK_clean_linker_0, # of connection points: 2
#     Edge 19, Type (0, 0), BuildingBlock: UVAHIK_clean_linker_0, # of connection points: 2
#     Edge 20, Type (0, 0), BuildingBlock: UVAHIK_clean_linker_0, # of connection points: 2
#     Edge 21, Type (0, 0), BuildingBlock: UVAHIK_clean_linker_0, # of connection points: 2
#     Edge 22, Type (0, 0), BuildingBlock: UVAHIK_clean_linker_0, # of connection points: 2
#     Edge 23, Type (0, 0), BuildingBlock: UVAHIK_clean_linker_0, # of connection points: 2
#     Edge 24, Type (0, 0), BuildingBlock: UVAHIK_clean_linker_0, # of connection points: 2
#     Edge 25, Type (0, 0), BuildingBlock: UVAHIK_clean_linker_0, # of connection points: 2
#     Edge 26, Type (0, 0), BuildingBlock: UVAHIK_clean_linker_0, # of connection points: 2
#     Edge 27, Type (0, 0), BuildingBlock: UVAHIK_clean_linker_0, # of connection points: 2
#     Edge 28, Type (0, 0), BuildingBlock: UVAHIK_clean_linker_0, # of connection points: 2
#     Edge 29, Type (0, 0), BuildingBlock: UVAHIK_clean_linker_0, # of connection points: 2
#     Edge 30, Type (0, 0), BuildingBlock: UVAHIK_clean_linker_0, # of connection points: 2
#     Edge 31, Type (0, 0), BuildingBlock: UVAHIK_clean_linker_0, # of connection points: 2
#     Edge 32, Type (0, 0), BuildingBlock: UVAHIK_clean_linker_0, # of connection points: 2
#     Edge 33, Type (0, 0), BuildingBlock: UVAHIK_clean_linker_0, # of connection points: 2
#     Edge 34, Type (0, 0), BuildingBlock: UVAHIK_clean_linker_0, # of connection points: 2
#     Edge 35, Type (0, 0), BuildingBlock: UVAHIK_clean_linker_0, # of connection points: 2
#     Edge 36, Type (0, 0), BuildingBlock: UVAHIK_clean_linker_0, # of connection points: 2
#     Edge 37, Type (0, 0), BuildingBlock: UVAHIK_clean_linker_0, # of connection points: 2
#     Edge 38, Type (0, 0), BuildingBlock: UVAHIK_clean_linker_0, # of connection points: 2
#     Edge 39, Type (0, 0), BuildingBlock: UVAHIK_clean_linker_0, # of connection points: 2
#     Edge 40, Type (0, 0), BuildingBlock: UVAHIK_clean_linker_0, # of connection points: 2
#     Edge 41, Type (0, 0), BuildingBlock: UVAHIK_clean_linker_0, # of connection points: 2
#     Edge 42, Type (0, 0), BuildingBlock: UVAHIK_clean_linker_0, # of connection points: 2
#     Edge 43, Type (0, 0), BuildingBlock: UVAHIK_clean_linker_0, # of connection points: 2
#     Edge 44, Type (0, 0), BuildingBlock: UVAHIK_clean_linker_0, # of connection points: 2
#     Edge 45, Type (0, 0), BuildingBlock: UVAHIK_clean_linker_0, # of connection points: 2
#     Edge 46, Type (0, 0), BuildingBlock: UVAHIK_clean_linker_0, # of connection points: 2
#     Edge 47, Type (0, 0), BuildingBlock: UVAHIK_clean_linker_0, # of connection points: 2
#     Edge 48, Type (0, 0), BuildingBlock: UVAHIK_clean_linker_0, # of connection points: 2
#     Edge 49, Type (0, 0), BuildingBlock: UVAHIK_clean_linker_0, # of connection points: 2
#     Edge 50, Type (0, 0), BuildingBlock: UVAHIK_clean_linker_0, # of connection points: 2
#     Edge 51, Type (0, 0), BuildingBlock: UVAHIK_clean_linker_0, # of connection points: 2
#     Edge 52, Type (0, 0), BuildingBlock: UVAHIK_clean_linker_0, # of connection points: 2
#     Edge 53, Type (0, 0), BuildingBlock: UVAHIK_clean_linker_0, # of connection points: 2
#     Edge 54, Type (0, 0), BuildingBlock: UVAHIK_clean_linker_0, # of connection points: 2
#     Edge 55, Type (0, 0), BuildingBlock: UVAHIK_clean_linker_0, # of connection points: 2
#     Edge 56, Type (0, 0), BuildingBlock: UVAHIK_clean_linker_0, # of connection points: 2
#     Edge 57, Type (0, 0), BuildingBlock: UVAHIK_clean_linker_0, # of connection points: 2
#     Edge 58, Type (0, 0), BuildingBlock: UVAHIK_clean_linker_0, # of connection points: 2
#     Edge 59, Type (0, 0), BuildingBlock: UVAHIK_clean_linker_0, # of connection points: 2
#     Edge 60, Type (0, 0), BuildingBlock: UVAHIK_clean_linker_0, # of connection points: 2
#     Edge 61, Type (0, 0), BuildingBlock: UVAHIK_clean_linker_0, # of connection points: 2
#     Edge 62, Type (0, 0), BuildingBlock: UVAHIK_clean_linker_0, # of connection points: 2
#     Edge 63, Type (0, 0), BuildingBlock: UVAHIK_clean_linker_0, # of connection points: 2
# Relax obj value: 0.275
# Max RMSD: 0.232
# Mean RMSD: 0.228
data_MOF--net-crs--node1-CIFDUS_clean_sbu_1--edge1-UVAHIK_clean_linker_0
_symmetry_space_group_name_H-M    P1
_symmetry_Int_Tables_number       1
_symmetry_cell_setting            triclinic
loop_
_symmetry_equiv_pos_as_xyz
'x, y, z'
_cell_length_a     52.043796
_cell_length_b     52.442403
_cell_length_c     52.882719
_cell_angle_alpha  90.300578
_cell_angle_beta   89.804296
_cell_angle_gamma 88.815558
loop_
_atom_site_label
_atom_site_type_symbol
_atom_site_fract_x
_atom_site_fract_y
_atom_site_fract_z
_atom_type_partial_charge
O0 O 0.99376 0.01702 0.96678 0.0
Mn1 Mn 0.00359 0.00435 0.00276 0.0
O2 O 0.95477 0.0359 0.96993 0.0
Mn3 Mn 0.94523 0.01659 0.99756 0.0
O4 O 0.0146 0.99164 0.03857 0.0
O5 O 0.03553 0.98982 0.98772 0.0
Mn6 Mn 0.06329 0.99537 0.00546 0.0
O7 O 0.02163 0.03873 0.00845 0.0
O8 O 0.05591 0.97789 0.03497 0.0
O9 O 0.98477 0.97023 0.99657 0.0
O10 O 0.94299 0.98166 0.99137 0.0
O11 O 0.07335 0.97982 0.97481 0.0
O12 O 0.06436 0.03081 0.00921 0.0
C13 C 0.9566 0.02901 0.03503 0.0
C14 C 0.97576 0.03144 0.95809 0.0
C15 C 0.03482 0.9803 0.04736 0.0
C16 C 0.04911 0.98043 0.96965 0.0
C17 C 0.04489 0.04607 0.01034 0.0
C18 C 0.96123 0.96491 0.99184 0.0
O19 O 0.97155 0.01921 0.01806 0.0
O20 O 0.933 0.03114 0.02763 0.0
O21 O 0.0299 0.26524 0.21393 0.0
Mn22 Mn 0.00546 0.25921 0.24402 0.0
O23 O 0.00569 0.2652 0.17851 0.0
Mn24 Mn 0.97431 0.2567 0.19323 0.0
O25 O 0.98048 0.25315 0.27381 0.0
O26 O 0.03536 0.24787 0.265 0.0
Mn27 Mn 0.03449 0.26159 0.29544 0.0
O28 O 0.00961 0.29696 0.25614 0.0
O29 O 0.00383 0.25054 0.30955 0.0
O30 O 0.00087 0.22149 0.23169 0.0
O31 O 0.97135 0.22234 0.20047 0.0
O32 O 0.06418 0.24136 0.29359 0.0
O33 O 0.03566 0.29644 0.29012 0.0
C34 C 0.95646 0.28482 0.21838 0.0
C35 C 0.02729 0.26719 0.18987 0.0
C36 C 0.98246 0.24963 0.29773 0.0
C37 C 0.05661 0.2365 0.27083 0.0
C38 C 0.02254 0.30826 0.2734 0.0
C39 C 0.98595 0.21035 0.21591 0.0
O40 O 0.97598 0.27061 0.22326 0.0
O41 O 0.94698 0.28045 0.19629 0.0
O42 O 0.75187 0.24667 0.53202 0.0
Mn43 Mn 0.7449 0.25778 0.49457 0.0
O44 O 0.76531 0.20561 0.53053 0.0
Mn45 Mn 0.7528 0.19906 0.49855 0.0
O46 O 0.73894 0.26904 0.45699 0.0
O47 O 0.72761 0.28961 0.50781 0.0
Mn48 Mn 0.73662 0.31652 0.49054 0.0
O49 O 0.78023 0.27552 0.49559 0.0
O50 O 0.72564 0.31013 0.45793 0.0
O51 O 0.70933 0.24017 0.4941 0.0
O52 O 0.71743 0.19778 0.495 0.0
O53 O 0.71456 0.32809 0.51587 0.0
O54 O 0.7719 0.31789 0.49537 0.0
C55 C 0.77483 0.21072 0.4663 0.0
C56 C 0.76196 0.2267 0.54229 0.0
C57 C 0.73001 0.28922 0.44613 0.0
C58 C 0.7143 0.3044 0.52255 0.0
C59 C 0.78743 0.29877 0.49689 0.0
C60 C 0.70198 0.21694 0.49373 0.0
O61 O 0.76184 0.22583 0.48103 0.0
O62 O 0.77399 0.18701 0.47283 0.0
O63 O 0.7591 0.99431 0.77294 0.0
Mn64 Mn 0.76768 0.0276 0.75369 0.0
O65 O 0.75583 0.00694 0.81382 0.0
Mn66 Mn 0.75829 0.04223 0.81023 0.0
O67 O 0.77608 0.06179 0.73599 0.0
O68 O 0.78766 0.00752 0.72796 0.0
Mn69 Mn 0.78253 0.01918 0.69723 0.0
O70 O 0.73437 0.02488 0.73228 0.0
O71 O 0.79358 0.05265 0.6981 0.0
O72 O 0.8016 0.03132 0.77403 0.0
O73 O 0.79132 0.05478 0.80842 0.0
O74 O 0.80664 0.99251 0.69475 0.0
O75 O 0.74729 0.01631 0.69228 0.0
C76 C 0.72805 0.05977 0.78745 0.0
C77 C 0.75562 0.98964 0.79659 0.0
C78 C 0.78739 0.06849 0.71559 0.0
C79 C 0.80443 0.99149 0.71909 0.0
C80 C 0.72967 0.0209 0.70875 0.0
C81 C 0.80771 0.04586 0.79252 0.0
O82 O 0.74775 0.04733 0.77926 0.0
O83 O 0.72815 0.06237 0.81175 0.0
O84 O 0.54374 0.76746 0.24074 0.0
Mn85 Mn 0.50775 0.76083 0.25675 0.0
O86 O 0.53697 0.79003 0.20511 0.0
Mn87 Mn 0.50357 0.77923 0.20061 0.0
O88 O 0.47169 0.75397 0.27276 0.0
O89 O 0.5247 0.73909 0.28239 0.0
Mn90 Mn 0.51305 0.74387 0.3132 0.0
O91 O 0.51198 0.79268 0.27998 0.0
O92 O 0.47883 0.7351 0.31043 0.0
O93 O 0.50417 0.72913 0.23325 0.0
O94 O 0.5014 0.7445 0.19348 0.0
O95 O 0.54016 0.71995 0.31481 0.0
O96 O 0.5186 0.77832 0.31958 0.0
C97 C 0.47225 0.79638 0.22254 0.0
C98 C 0.55188 0.78044 0.22187 0.0
C99 C 0.46379 0.74266 0.29281 0.0
C100 C 0.54171 0.72341 0.29069 0.0
C101 C 0.51662 0.79645 0.30356 0.0
C102 C 0.50243 0.72599 0.20916 0.0
O103 O 0.49069 0.78251 0.23108 0.0
O104 O 0.47426 0.80048 0.19856 0.0
O105 O 0.26304 0.73481 0.53107 0.0
Mn106 Mn 0.25018 0.74925 0.49644 0.0
O107 O 0.28236 0.69672 0.52286 0.0
Mn108 Mn 0.26567 0.69134 0.49238 0.0
O109 O 0.23768 0.76342 0.46162 0.0
O110 O 0.23198 0.77746 0.51525 0.0
Mn111 Mn 0.23544 0.80687 0.49993 0.0
O112 O 0.28326 0.7707 0.49477 0.0
O113 O 0.22014 0.80235 0.46872 0.0
O114 O 0.21731 0.72762 0.4981 0.0
O115 O 0.23036 0.68644 0.49433 0.0
O116 O 0.21663 0.8133 0.52923 0.0
O117 O 0.27068 0.81181 0.49971 0.0
C118 C 0.27853 0.71048 0.45849 0.0
C119 C 0.27712 0.71552 0.53758 0.0
C120 C 0.22489 0.78324 0.45432 0.0
C121 C 0.21964 0.7891 0.53316 0.0
C122 C 0.28816 0.79449 0.49721 0.0
C123 C 0.21275 0.70369 0.49665 0.0
O124 O 0.26814 0.72116 0.47788 0.0
O125 O 0.28213 0.68621 0.46123 0.0
O126 O 0.24649 0.47826 0.76409 0.0
Mn127 Mn 0.26038 0.51244 0.74995 0.0
O128 O 0.22843 0.48714 0.80209 0.0
Mn129 Mn 0.24128 0.51983 0.80587 0.0
O130 O 0.27441 0.54688 0.73632 0.0
O131 O 0.28064 0.49248 0.72458 0.0
Mn132 Mn 0.28216 0.50759 0.69509 0.0
O133 O 0.2301 0.5151 0.72492 0.0
O134 O 0.29959 0.53708 0.70285 0.0
O135 O 0.29114 0.51068 0.77465 0.0
O136 O 0.27614 0.52037 0.81369 0.0
O137 O 0.29845 0.47558 0.69182 0.0
O138 O 0.24796 0.51381 0.68588 0.0
C139 C 0.22453 0.54999 0.78257 0.0
C140 C 0.23394 0.47168 0.78395 0.0
C141 C 0.29132 0.55276 0.71968 0.0
C142 C 0.29282 0.47303 0.71548 0.0
C143 C 0.22867 0.51668 0.70078 0.0
C144 C 0.29448 0.51494 0.7983 0.0
O145 O 0.23969 0.532 0.77508 0.0
O146 O 0.22001 0.5492 0.80657 0.0
O147 O 0.9972 0.50232 0.55162 0.0
Mn148 Mn 0.00191 0.49326 0.51301 0.0
O149 O 0.95607 0.51533 0.55708 0.0
Mn150 Mn 0.95373 0.52831 0.52463 0.0
O151 O 0.00712 0.48396 0.47472 0.0
O152 O 0.03815 0.48431 0.51923 0.0
Mn153 Mn 0.05005 0.45681 0.5039 0.0
O154 O 0.99216 0.45594 0.52017 0.0
O155 O 0.04683 0.46621 0.47021 0.0
O156 O 0.01142 0.53045 0.50613 0.0
O157 O 0.97688 0.55454 0.51804 0.0
O158 O 0.07518 0.46798 0.52664 0.0
O159 O 0.02772 0.43122 0.51384 0.0
C160 C 0.94671 0.50515 0.49123 0.0
C161 C 0.97791 0.50843 0.56594 0.0
C162 C 0.0259 0.47531 0.461 0.0
C163 C 0.05836 0.48546 0.53257 0.0
C164 C 0.00398 0.43417 0.51979 0.0
C165 C -0.0 0.5521 0.50978 0.0
O166 O 0.9655 0.50247 0.50655 0.0
O167 O 0.92953 0.52128 0.49949 0.0
O168 O 0.26172 0.22508 0.02473 0.0
Mn169 Mn 0.25613 0.24629 0.99162 0.0
O170 O 0.25773 0.18357 0.01451 0.0
Mn171 Mn 0.2403 0.18938 0.98458 0.0
O172 O 0.25113 0.26728 0.95845 0.0
O173 O 0.25478 0.27845 0.01209 0.0
Mn174 Mn 0.27505 0.30177 -6e-05 0.0
O175 O 0.29638 0.24821 0.98837 0.0
O176 O 0.26435 0.30712 0.96692 0.0
O177 O 0.21622 0.24375 0.99561 0.0
O178 O 0.20716 0.20218 0.9892 0.0
O179 O 0.25783 0.31642 0.02738 0.0
O180 O 0.30744 0.28717 0.00245 0.0
C181 C 0.25945 0.20139 0.95046 0.0
C182 C 0.26292 0.20122 0.03033 0.0
C183 C 0.25558 0.29033 0.95182 0.0
C184 C 0.24682 0.29459 0.02892 0.0
C185 C 0.31319 0.26468 0.99482 0.0
C186 C 0.20044 0.22524 0.99411 0.0
O187 O 0.25678 0.21456 0.97084 0.0
O188 O 0.25078 0.17855 0.95249 0.0
O189 O 0.23984 0.96551 0.27297 0.0
Mn190 Mn 0.25158 0.99917 0.25653 0.0
O191 O 0.22187 0.97512 0.31071 0.0
Mn192 Mn 0.23494 0.00787 0.31303 0.0
O193 O 0.26351 0.03269 0.23919 0.0
O194 O 0.27118 0.97837 0.23125 0.0
Mn195 Mn 0.26621 0.98798 0.19995 0.0
O196 O 0.21883 0.99847 0.23393 0.0
O197 O 0.27801 0.02124 0.20029 0.0
O198 O 0.28378 0.99917 0.27986 0.0
O199 O 0.27003 0.00874 0.31949 0.0
O200 O 0.28785 0.9591 0.19908 0.0
O201 O 0.2311 0.98413 0.19537 0.0
C202 C 0.217 0.03747 0.29034 0.0
C203 C 0.22746 0.9593 0.29295 0.0
C204 C 0.27423 0.03781 0.21785 0.0
C205 C 0.28519 0.95959 0.22338 0.0
C206 C 0.2138 0.99047 0.21151 0.0
C207 C 0.28782 0.00345 0.30347 0.0
O208 O 0.23211 0.0197 0.28215 0.0
O209 O 0.21331 0.03675 0.31449 0.0
O210 O 0.53234 0.25852 0.73477 0.0
Mn211 Mn 0.4988 0.25064 0.75479 0.0
O212 O 0.52051 0.27115 0.69568 0.0
Mn213 Mn 0.48789 0.25777 0.69733 0.0
O214 O 0.46535 0.24299 0.77413 0.0
O215 O 0.51965 0.23384 0.78144 0.0
Mn216 Mn 0.51058 0.24168 0.81244 0.0
O217 O 0.50113 0.28551 0.77402 0.0
O218 O 0.47591 0.2336 0.81437 0.0
O219 O 0.49716 0.21551 0.73691 0.0
O220 O 0.48762 0.22218 0.69603 0.0
O221 O 0.53539 0.21528 0.81394 0.0
O222 O 0.51682 0.27644 0.813 0.0
C223 C 0.45785 0.27849 0.71781 0.0
C224 C 0.5374 0.26755 0.71279 0.0
C225 C 0.45948 0.23625 0.79662 0.0
C226 C 0.53457 0.21604 0.78955 0.0
C227 C 0.50969 0.29219 0.79588 0.0
C228 C 0.49294 0.20735 0.71447 0.0
O229 O 0.47712 0.26661 0.72781 0.0
O230 O 0.45797 0.27735 0.69337 0.0
O231 O 0.03056 0.75376 0.73103 0.0
Mn232 Mn 0.00048 0.75205 0.75698 0.0
O233 O 0.0124 0.76039 0.69291 0.0
Mn234 Mn 0.97816 0.75851 0.70274 0.0
O235 O 0.97016 0.7501 0.7827 0.0
O236 O 0.02405 0.73339 0.78029 0.0
Mn237 Mn 0.01935 0.742 0.81207 0.0
O238 O 0.01073 0.78673 0.77325 0.0
O239 O 0.98575 0.73275 0.81854 0.0
O240 O 0.98984 0.71696 0.74135 0.0
O241 O 0.96689 0.72539 0.70629 0.0
O242 O 0.04773 0.7198 0.8107 0.0
O243 O 0.02467 0.777 0.81258 0.0
C244 C 0.96187 0.78879 0.72608 0.0
C245 C 0.03208 0.75682 0.70697 0.0
C246 C 0.96712 0.74053 0.80478 0.0
C247 C 0.0441 0.72029 0.78653 0.0
C248 C 0.01967 0.79302 0.79502 0.0
C249 C 0.97593 0.70978 0.72263 0.0
O250 O 0.97726 0.77099 0.73357 0.0
O251 O 0.95628 0.78713 0.70234 0.0
O252 O 0.76692 0.48298 0.27727 0.0
Mn253 Mn 0.76822 0.51885 0.26062 0.0
O254 O 0.75883 0.48904 0.31892 0.0
Mn255 Mn 0.76456 0.52398 0.31971 0.0
O256 O 0.76902 0.55481 0.24395 0.0
O257 O 0.78479 0.50354 0.23047 0.0
Mn258 Mn 0.77202 0.51312 0.20143 0.0
O259 O 0.73216 0.51238 0.24536 0.0
O260 O 0.77553 0.54838 0.2021 0.0
O261 O 0.80457 0.52429 0.27588 0.0
O262 O 0.79901 0.53233 0.31755 0.0
O263 O 0.80068 0.49158 0.19498 0.0
O264 O 0.73852 0.50155 0.20427 0.0
C265 C 0.73765 0.55082 0.30237 0.0
C266 C 0.76226 0.47455 0.29958 0.0
C267 C 0.77281 0.56302 0.22139 0.0
C268 C 0.80243 0.49057 0.21929 0.0
C269 C 0.72424 0.50412 0.22391 0.0
C270 C 0.81319 0.53005 0.29787 0.0
O271 O 0.75171 0.53423 0.29087 0.0
O272 O 0.73996 0.54971 0.32665 0.0
O273 O 0.73412 0.74678 0.03557 0.0
Mn274 Mn 0.72918 0.76191 -0.0004 0.0
O275 O 0.73571 0.70394 0.03082 0.0
Mn276 Mn 0.73184 0.70216 0.99583 0.0
O277 O 0.72385 0.77743 0.96346 0.0
O278 O 0.71404 0.7931 0.01499 0.0
Mn279 Mn 0.72319 0.82166 0.00103 0.0
O280 O 0.76558 0.77751 0.00106 0.0
O281 O 0.70849 0.8177 0.96933 0.0
O282 O 0.69237 0.74623 0.99772 0.0
O283 O 0.69804 0.70524 0.98526 0.0
O284 O 0.70797 0.82956 0.03238 0.0
O285 O 0.75905 0.82025 0.00108 0.0
C286 C 0.76116 0.71795 0.97163 0.0
C287 C 0.73562 0.72411 0.04455 0.0
C288 C 0.71356 0.79834 0.95521 0.0
C289 C 0.7075 0.80512 0.03511 0.0
C290 C 0.77379 0.80044 0.00136 0.0
C291 C 0.68364 0.72476 0.9899 0.0
O292 O 0.74455 0.73056 0.98464 0.0
O293 O 0.75923 0.69357 0.97405 0.0
O294 O 0.49434 0.00548 0.5607 0.0
Mn295 Mn 0.49991 0.0014 0.5215 0.0
O296 O 0.45464 0.02236 0.56679 0.0
Mn297 Mn 0.45226 0.03649 0.53484 0.0
O298 O 0.50526 0.997 0.48227 0.0
O299 O 0.53628 0.99138 0.52777 0.0
Mn300 Mn 0.54756 0.96662 0.50796 0.0
O301 O 0.4898 0.96363 0.52386 0.0
O302 O 0.54542 0.98124 0.47624 0.0
O303 O 0.50999 0.03923 0.51882 0.0
O304 O 0.47478 0.06314 0.52876 0.0
O305 O 0.5731 0.97283 0.53173 0.0
O306 O 0.52495 0.9399 0.51335 0.0
C307 C 0.44329 0.01322 0.50205 0.0
C308 C 0.47538 0.01214 0.57524 0.0
C309 C 0.52439 0.99076 0.46779 0.0
C310 C 0.55678 0.98933 0.54097 0.0
C311 C 0.50134 0.94207 0.51999 0.0
C312 C 0.49837 0.06086 0.52205 0.0
O313 O 0.46362 0.01143 0.51545 0.0
O314 O 0.42684 0.02976 0.51093 0.0
O315 O 0.48404 0.49469 0.98977 0.0
Mn316 Mn 0.50074 0.4856 0.0244 0.0
O317 O 0.44193 0.50298 0.99756 0.0
Mn318 Mn 0.44063 0.48934 0.02999 0.0
O319 O 0.51651 0.47714 0.05969 0.0
O320 O 0.53198 0.47216 0.00624 0.0
Mn321 Mn 0.56022 0.48023 0.02246 0.0
O322 O 0.51647 0.52164 0.02534 0.0
O323 O 0.55742 0.4641 0.05338 0.0
O324 O 0.48519 0.44925 0.0234 0.0
O325 O 0.44278 0.45389 0.03165 0.0
O326 O 0.57031 0.46291 0.99323 0.0
O327 O 0.55951 0.5158 0.02387 0.0
C328 C 0.45826 0.511 0.06028 0.0
C329 C 0.46155 0.50248 0.98285 0.0
C330 C 0.53768 0.46707 0.06747 0.0
C331 C 0.54594 0.46178 0.98872 0.0
C332 C 0.53941 0.53022 0.02514 0.0
C333 C 0.46286 0.44001 0.02741 0.0
O334 O 0.46994 0.49903 0.04241 0.0
O335 O 0.4336 0.50919 0.05899 0.0
C336 C 0.94623 0.03644 0.08029 0.0
C337 C 0.96439 0.037 0.06064 0.0
C338 C 0.9513 0.04777 0.10361 0.0
C339 C 0.00085 0.07874 0.14326 0.0
H340 H 0.94343 0.12342 0.16152 0.0
C341 C 0.0101 0.17252 0.19978 0.0
C342 C 0.98823 0.18266 0.21207 0.0
C343 C 0.00929 0.14867 0.18784 0.0
C344 C 0.95952 0.11065 0.15736 0.0
H345 H 0.00265 0.04867 0.05048 0.0
H346 H 0.01145 0.06908 0.09108 0.0
H347 H 0.93853 0.09262 0.128 0.0
H348 H 0.94926 0.17527 0.22369 0.0
H349 H 0.94821 0.13294 0.20433 0.0
H350 H 0.02205 0.09758 0.17238 0.0
C351 C 0.99341 0.05944 0.0886 0.0
C352 C 0.9567 0.09294 0.13792 0.0
C353 C 0.98838 0.04781 0.06525 0.0
C354 C 0.96641 0.16767 0.21445 0.0
C355 C 0.96575 0.14362 0.20301 0.0
C356 C 0.00366 0.09648 0.16298 0.0
C357 C 0.97451 0.06035 0.1077 0.0
C358 C 0.97739 0.07704 0.13031 0.0
C359 C 0.98657 0.13453 0.18815 0.0
C360 C 0.98311 0.113 0.16998 0.0
H361 H 0.92764 0.02798 0.07734 0.0
H362 H 0.93653 0.04765 0.11809 0.0
H363 H 0.0171 0.06661 0.13794 0.0
H364 H 0.02693 0.18407 0.19723 0.0
H365 H 0.02567 0.1425 0.17654 0.0
C366 C 0.79472 0.19986 0.42506 0.0
C367 C 0.78916 0.21839 0.44364 0.0
C368 C 0.81192 0.20484 0.40562 0.0
C369 C 0.84935 0.25392 0.37322 0.0
H370 H 0.90079 0.19935 0.3692 0.0
C371 C 0.93455 0.25184 0.30196 0.0
C372 C 0.95871 0.24566 0.31241 0.0
C373 C 0.91217 0.24935 0.31629 0.0
C374 C 0.8866 0.21474 0.37013 0.0
H375 H 0.79546 0.25737 0.45516 0.0
H376 H 0.82627 0.26603 0.42144 0.0
H377 H 0.86331 0.19452 0.39615 0.0
H378 H 0.9783 0.23188 0.34599 0.0
H379 H 0.93919 0.22726 0.37085 0.0
H380 H 0.87324 0.2743 0.34743 0.0
C381 C 0.81714 0.24767 0.42191 0.0
C382 C 0.865 0.21189 0.38533 0.0
C383 C 0.79964 0.24269 0.44134 0.0
C384 C 0.96 0.23674 0.33737 0.0
C385 C 0.93762 0.23402 0.35158 0.0
C386 C 0.871 0.25671 0.35779 0.0
C387 C 0.82417 0.22838 0.40449 0.0
C388 C 0.84622 0.23146 0.38715 0.0
C389 C 0.91352 0.24037 0.3412 0.0
C390 C 0.88993 0.23722 0.35638 0.0
H391 H 0.78653 0.18106 0.42608 0.0
H392 H 0.81652 0.18983 0.39208 0.0
H393 H 0.83511 0.26925 0.37428 0.0
H394 H 0.93292 0.25897 0.28283 0.0
H395 H 0.89379 0.25419 0.30782 0.0
C396 C 0.77712 0.11472 0.72423 0.0
C397 C 0.79164 0.09591 0.71113 0.0
C398 C 0.77789 0.14026 0.71679 0.0
C399 C 0.76572 0.1811 0.67713 0.0
H400 H 0.82593 0.2119 0.64789 0.0
C401 C 0.75558 0.2399 0.5877 0.0
C402 C 0.77031 0.22747 0.56887 0.0
C403 C 0.76118 0.23581 0.61331 0.0
C404 C 0.80889 0.20393 0.65632 0.0
H405 H 0.82034 0.08951 0.68183 0.0
H406 H 0.82191 0.13388 0.66911 0.0
H407 H 0.8311 0.17978 0.68084 0.0
H408 H 0.80407 0.20366 0.56167 0.0
H409 H 0.81401 0.19676 0.60578 0.0
H410 H 0.74363 0.20317 0.65088 0.0
C411 C 0.80976 0.12898 0.68497 0.0
C412 C 0.81187 0.18557 0.67517 0.0
C413 C 0.80864 0.10347 0.69206 0.0
C414 C 0.79215 0.21314 0.57586 0.0
C415 C 0.79803 0.20947 0.60122 0.0
C416 C 0.76275 0.19934 0.65815 0.0
C417 C 0.79366 0.14748 0.69657 0.0
C418 C 0.79041 0.17273 0.68443 0.0
C419 C 0.78198 0.21977 0.62028 0.0
C420 C 0.78444 0.20948 0.64626 0.0
H421 H 0.76408 0.10957 0.73926 0.0
H422 H 0.76534 0.15416 0.72607 0.0
H423 H 0.7488 0.17156 0.68395 0.0
H424 H 0.73883 0.25129 0.58274 0.0
H425 H 0.74853 0.24409 0.62759 0.0
C426 C 0.97447 0.06686 0.9274 0.0
C427 C 0.97772 0.04079 0.93219 0.0
C428 C 0.96911 0.07521 0.90295 0.0
C429 C 0.92798 0.08074 0.86486 0.0
H430 H 0.93385 0.04105 0.80304 0.0
C431 C 0.85392 0.03272 0.79499 0.0
C432 C 0.83482 0.05192 0.79618 0.0
C433 C 0.87901 0.03795 0.80248 0.0
C434 C 0.93207 0.05246 0.8201 0.0
H435 H 0.98093 0.00313 0.91548 0.0
H436 H 0.96963 0.01727 0.87313 0.0
H437 H 0.96851 0.03907 0.83409 0.0
H438 H 0.82713 0.09213 0.80266 0.0
H439 H 0.87116 0.10171 0.81434 0.0
H440 H 0.89111 0.09274 0.85225 0.0
C441 C 0.97203 0.0316 0.88769 0.0
C442 C 0.95196 0.05138 0.83787 0.0
C443 C 0.97828 0.02337 0.91203 0.0
C444 C 0.84154 0.07691 0.80233 0.0
C445 C 0.86673 0.08233 0.80901 0.0
C446 C 0.90827 0.0818 0.84725 0.0
C447 C 0.96559 0.05743 0.88328 0.0
C448 C 0.94946 0.06443 0.8611 0.0
C449 C 0.88541 0.06263 0.81068 0.0
C450 C 0.90939 0.06664 0.82527 0.0
H451 H 0.97443 0.08058 0.9428 0.0
H452 H 0.96528 0.09536 0.90002 0.0
H453 H 0.92494 0.09087 0.88253 0.0
H454 H 0.84908 0.01334 0.78999 0.0
H455 H 0.89275 0.02222 0.80361 0.0
C456 C 0.02367 0.98826 0.0927 0.0
C457 C 0.03549 0.97273 0.07414 0.0
C458 C 0.03144 0.98641 0.11794 0.0
C459 C 0.07503 0.99672 0.15403 0.0
H460 H 0.1065 0.93711 0.18514 0.0
C461 C 0.17994 0.96599 0.18957 0.0
C462 C 0.18675 0.98705 0.20436 0.0
C463 C 0.15439 0.96252 0.18271 0.0
C464 C 0.09768 0.95398 0.17687 0.0
H465 H 0.06146 0.94055 0.06768 0.0
H466 H 0.07476 0.93702 0.11141 0.0
H467 H 0.06955 0.93215 0.15734 0.0
H468 H 0.17259 0.02117 0.22295 0.0
H469 H 0.12762 0.01515 0.2114 0.0
H470 H 0.10429 0.01833 0.1718 0.0
C471 C 0.0598 0.95087 0.1068 0.0
C472 C 0.07643 0.95115 0.16111 0.0
C473 C 0.05235 0.953 0.08163 0.0
C474 C 0.16758 0.00448 0.21227 0.0
C475 C 0.14196 0.00111 0.20538 0.0
C476 C 0.09627 -0.00046 0.16975 0.0
C477 C 0.05079 0.96869 0.12488 0.0
C478 C 0.06595 0.9723 0.14827 0.0
C479 C 0.13511 0.98015 0.19036 0.0
C480 C 0.10876 0.978 0.18005 0.0
H481 H 0.01041 0.00345 0.08743 0.0
H482 H 0.02393 0.00018 0.13155 0.0
H483 H 0.06754 0.01343 0.14436 0.0
H484 H 0.19439 0.95219 0.18325 0.0
H485 H 0.14993 0.9465 0.17061 0.0
C486 C 0.04246 0.47637 0.41673 0.0
C487 C 0.02212 0.47223 0.43357 0.0
C488 C 0.04078 0.46848 0.39152 0.0
C489 C 0.99749 0.43951 0.34326 0.0
H490 H 0.05856 0.39871 0.32799 0.0
C491 C 0.04044 0.35175 0.27522 0.0
C492 C 0.01924 0.33586 0.2771 0.0
C493 C 0.03947 0.37617 0.28596 0.0
C494 C 0.04153 0.41048 0.33129 0.0
H495 H 0.98378 0.45744 0.43727 0.0
H496 H 0.98081 0.44344 0.39338 0.0
H497 H 0.05907 0.42846 0.36283 0.0
H498 H 0.98013 0.33297 0.2905 0.0
H499 H 0.97843 0.37521 0.30976 0.0
H500 H 0.97964 0.42039 0.31219 0.0
C501 C -0.00215 0.45331 0.39931 0.0
C502 C 0.04183 0.42765 0.35147 0.0
C503 C -0.00048 0.46133 0.42449 0.0
C504 C 0.9965 0.34523 0.28833 0.0
C505 C 0.99559 0.36949 0.29939 0.0
C506 C 0.99722 0.42232 0.32287 0.0
C507 C 0.0189 0.45583 0.3828 0.0
C508 C 0.01959 0.44174 0.35829 0.0
C509 C 0.01754 0.38476 0.29949 0.0
C510 C 0.019 0.40692 0.3172 0.0
H511 H 0.06011 0.48471 0.42335 0.0
H512 H 0.05717 0.47109 0.3792 0.0
H513 H 0.98013 0.45035 0.34781 0.0
H514 H 0.05826 0.34469 0.26686 0.0
H515 H 0.05652 0.38763 0.28512 0.0
C516 C 0.69342 0.31542 0.56344 0.0
C517 C 0.70168 0.29652 0.54617 0.0
C518 C 0.68159 0.30885 0.58604 0.0
C519 C 0.6447 0.25787 0.61488 0.0
H520 H 0.65231 0.3001 0.6748 0.0
C521 C 0.57448 0.2924 0.69761 0.0
C522 C 0.5642 0.26902 0.70469 0.0
C523 C 0.59744 0.29292 0.68384 0.0
C524 C 0.65019 0.28802 0.65829 0.0
H525 H 0.70372 0.25587 0.53905 0.0
H526 H 0.68322 0.24418 0.57876 0.0
H527 H 0.68144 0.30529 0.63895 0.0
H528 H 0.56923 0.22804 0.70303 0.0
H529 H 0.60968 0.22883 0.67964 0.0
H530 H 0.61309 0.24103 0.63396 0.0
C531 C 0.68588 0.26417 0.57471 0.0
C532 C 0.66672 0.29104 0.63772 0.0
C533 C 0.69779 0.27082 0.55198 0.0
C534 C 0.57757 0.24627 0.69884 0.0
C535 C 0.60041 0.24673 0.68505 0.0
C536 C 0.62838 0.25465 0.63554 0.0
C537 C 0.6777 0.28316 0.59202 0.0
C538 C 0.6635 0.27669 0.61542 0.0
C539 C 0.61003 0.27 0.6766 0.0
C540 C 0.63043 0.27028 0.65708 0.0
H541 H 0.69604 0.33545 0.55951 0.0
H542 H 0.67491 0.32403 0.59853 0.0
H543 H 0.64149 0.24667 0.59797 0.0
H544 H 0.56402 0.31009 0.70142 0.0
H545 H 0.60423 0.3111 0.67723 0.0
C546 C 0.74536 0.9435 0.78742 0.0
C547 C 0.74999 0.96331 0.80483 0.0
C548 C 0.73792 0.91941 0.79594 0.0
C549 C 0.70459 0.89126 0.84912 0.0
H550 H 0.74397 0.82858 0.83857 0.0
C551 C 0.68875 0.81155 0.91727 0.0
C552 C 0.71182 0.80254 0.92784 0.0
C553 C 0.68877 0.8233 0.89361 0.0
C554 C 0.73258 0.84585 0.84153 0.0
H555 H 0.75152 0.97275 0.8449 0.0
H556 H 0.73838 0.93135 0.85938 0.0
H557 H 0.75405 0.86654 0.81381 0.0
H558 H 0.75265 0.79717 0.9217 0.0
H559 H 0.75307 0.81842 0.88103 0.0
H560 H 0.6845 0.87198 0.87805 0.0
C561 C 0.74022 0.93446 0.83921 0.0
C562 C 0.73823 0.86746 0.82718 0.0
C563 C 0.74783 0.95821 0.83083 0.0
C564 C 0.73454 0.80346 0.91359 0.0
C565 C 0.7347 0.81575 0.89021 0.0
C566 C 0.69899 0.86986 0.86343 0.0
C567 C 0.73469 0.91499 0.82193 0.0
C568 C 0.72504 0.89064 0.83179 0.0
C569 C 0.71205 0.82719 0.88062 0.0
C570 C 0.71368 0.84716 0.86071 0.0
H571 H 0.74682 0.94676 0.76727 0.0
H572 H 0.73388 0.90456 0.78229 0.0
H573 H 0.69397 0.9089 0.85283 0.0
H574 H 0.67102 0.81105 0.92804 0.0
H575 H 0.67081 0.83115 0.88648 0.0
C576 C 0.21439 0.31119 0.05969 0.0
C577 C 0.22596 0.2902 0.04719 0.0
C578 C 0.19419 0.30775 0.07658 0.0
C579 C 0.14317 0.26342 0.09142 0.0
H580 H 0.1377 0.30284 0.15358 0.0
C581 C 0.04899 0.27291 0.14801 0.0
C582 C 0.05067 0.27066 0.17443 0.0
C583 C 0.07118 0.27462 0.13333 0.0
C584 C 0.13907 0.29155 0.13639 0.0
H585 H 0.22604 0.24909 0.04354 0.0
H586 H 0.19113 0.24297 0.07355 0.0
H587 H 0.17598 0.30618 0.12714 0.0
H588 H 0.07709 0.26867 0.20616 0.0
H589 H 0.11575 0.27166 0.18044 0.0
H590 H 0.1063 0.24873 0.10071 0.0
C591 C 0.19724 0.26213 0.06955 0.0
C592 C 0.16085 0.29362 0.12118 0.0
C593 C 0.21733 0.26563 0.05243 0.0
C594 C 0.07504 0.27054 0.18587 0.0
C595 C 0.09722 0.27229 0.17117 0.0
C596 C 0.12135 0.2614 0.1066 0.0
C597 C 0.18528 0.2832 0.08151 0.0
C598 C 0.16299 0.27977 0.09844 0.0
C599 C 0.0955 0.27415 0.14475 0.0
C600 C 0.119 0.27563 0.12911 0.0
H601 H 0.22061 0.33042 0.05606 0.0
H602 H 0.18516 0.32438 0.08534 0.0
H603 H 0.14422 0.25268 0.07388 0.0
H604 H 0.03054 0.27311 0.13858 0.0
H605 H 0.0693 0.27644 0.11302 0.0
C606 C 0.75353 0.43003 0.28439 0.0
C607 C 0.76175 0.44671 0.3035 0.0
C608 C 0.75199 0.4038 0.28906 0.0
C609 C 0.77446 0.35332 0.33269 0.0
H610 H 0.70508 0.32799 0.33022 0.0
C611 C 0.7473 0.2791 0.40301 0.0
C612 C 0.72793 0.29012 0.41833 0.0
C613 C 0.75066 0.28757 0.37815 0.0
C614 C 0.72471 0.33445 0.33057 0.0
H615 H 0.77602 0.449 0.34189 0.0
H616 H 0.7737 0.40353 0.34987 0.0
H617 H 0.71585 0.36631 0.30667 0.0
H618 H 0.69455 0.31544 0.41876 0.0
H619 H 0.70011 0.32999 0.37576 0.0
H620 H 0.78286 0.32317 0.35843 0.0
C621 C 0.76834 0.41056 0.33135 0.0
C622 C 0.7309 0.35631 0.31696 0.0
C623 C 0.76936 0.43665 0.3269 0.0
C624 C 0.70984 0.30688 0.4074 0.0
C625 C 0.71298 0.31509 0.38259 0.0
C626 C 0.76831 0.3315 0.34623 0.0
C627 C 0.75933 0.39388 0.31265 0.0
C628 C 0.75537 0.36685 0.31932 0.0
C629 C 0.73448 0.30692 0.36829 0.0
C630 C 0.74289 0.32288 0.34674 0.0
H631 H 0.74757 0.43734 0.26615 0.0
H632 H 0.74482 0.39133 0.27441 0.0
H633 H 0.79358 0.3609 0.33449 0.0
H634 H 0.76137 0.26599 0.41092 0.0
H635 H 0.76718 0.2806 0.36747 0.0
C636 C 0.57143 0.98516 0.58493 0.0
C637 C 0.56029 0.00053 0.56621 0.0
C638 C 0.57807 0.99548 0.60819 0.0
C639 C 0.60375 0.0531 0.63218 0.0
H640 H 0.61031 0.00985 0.6912 0.0
C641 C 0.6989 0.02801 0.67341 0.0
C642 C 0.70303 0.02474 0.69944 0.0
C643 C 0.67453 0.03394 0.66422 0.0
C644 C 0.60821 0.02273 0.67536 0.0
H645 H 0.54623 0.03852 0.55718 0.0
H646 H 0.55879 0.05714 0.59813 0.0
H647 H 0.5749 0.00373 0.66187 0.0
H648 H 0.6845 0.02514 0.73628 0.0
H649 H 0.64126 0.03478 0.71985 0.0
H650 H 0.63816 0.07081 0.64469 0.0
C651 C 0.56196 0.03693 0.59479 0.0
C652 C 0.588 0.01914 0.65846 0.0
C653 C 0.55478 0.02634 0.57146 0.0
C654 C 0.68194 0.02739 0.7161 0.0
C655 C 0.65727 0.03309 0.70677 0.0
C656 C 0.62385 0.05679 0.64915 0.0
C657 C 0.57418 0.02162 0.61319 0.0
C658 C 0.587 0.03276 0.63559 0.0
C659 C 0.65344 0.03662 0.6807 0.0
C660 C 0.62747 0.04014 0.66966 0.0
H661 H 0.57572 0.96515 0.58132 0.0
H662 H 0.58786 0.98319 0.62163 0.0
H663 H 0.60337 0.06413 0.61492 0.0
H664 H 0.7146 0.02636 0.65996 0.0
H665 H 0.67212 0.0358 0.64397 0.0
C666 C 0.01939 0.95419 0.94384 0.0
C667 C 0.03906 0.97198 0.9451 0.0
C668 C 0.01353 0.94241 0.92082 0.0
C669 C 0.04732 0.92527 0.86164 0.0
H670 H 0.98324 0.89198 0.8469 0.0
C671 C 0.04354 0.82697 0.81699 0.0
C672 C 0.02309 0.82015 0.80132 0.0
C673 C 0.04442 0.85131 0.82756 0.0
C674 C 0.00115 0.90156 0.85034 0.0
H675 H 0.06669 0.99304 0.92338 0.0
H676 H 0.05579 0.97346 0.88298 0.0
H677 H 0.98411 0.92573 0.87887 0.0
H678 H 0.98799 0.83365 0.78352 0.0
H679 H 0.98939 0.87658 0.80225 0.0
H680 H 0.06444 0.90082 0.83354 0.0
C681 C 0.04537 0.96784 0.89973 0.0
C682 C 0.00173 0.92067 0.86893 0.0
C683 C 0.05152 0.97921 0.92281 0.0
C684 C 0.00415 0.8386 0.79529 0.0
C685 C 0.00482 0.86302 0.80621 0.0
C686 C 0.04668 0.90636 0.84302 0.0
C687 C 0.02715 0.94839 0.89861 0.0
C688 C 0.02506 0.93204 0.87555 0.0
C689 C 0.02468 0.86939 0.82297 0.0
C690 C 0.02387 0.89347 0.83795 0.0
H691 H 0.00999 0.94786 0.96088 0.0
H692 H -0.00037 0.92733 0.9209 0.0
H693 H 0.06574 0.93331 0.86619 0.0
H694 H 0.05833 0.81306 0.822 0.0
H695 H 0.0598 0.85539 0.84063 0.0
C696 C 0.07036 0.08196 0.02763 0.0
C697 C 0.04944 0.07359 0.01337 0.0
C698 C 0.07579 0.10788 0.02906 0.0
C699 C 0.07478 0.1667 0.03553 0.0
H700 H 0.10042 0.18774 0.97022 0.0
C701 C 0.15471 0.23379 0.98331 0.0
C702 C 0.17354 0.22903 0.00164 0.0
C703 C 0.12938 0.22622 0.9875 0.0
C704 C 0.09264 0.18301 0.98856 0.0
H705 H 0.01733 0.08569 0.98998 0.0
H706 H 0.02777 0.13115 0.99145 0.0
H707 H 0.07383 0.15054 0.97309 0.0
H708 H 0.18069 0.21487 0.03925 0.0
H709 H 0.13734 0.20156 0.04668 0.0
H710 H 0.09389 0.19878 0.05121 0.0
C711 C 0.03944 0.11761 0.00202 0.0
C712 C 0.07745 0.16143 0.99014 0.0
C713 C 0.03357 0.09169 0.00115 0.0
C714 C 0.16626 0.21936 0.02515 0.0
C715 C 0.14119 0.21156 0.02927 0.0
C716 C 0.0894 0.18873 0.03391 0.0
C717 C 0.06075 0.12584 0.0158 0.0
C718 C 0.06972 0.15229 0.01376 0.0
C719 C 0.12284 0.21309 0.00977 0.0
C720 C 0.1001 0.19613 0.0106 0.0
H721 H 0.08276 0.0684 0.03737 0.0
H722 H 0.09255 0.11378 0.03952 0.0
H723 H 0.06871 0.1601 0.05394 0.0
H724 H 0.16005 0.24096 0.96488 0.0
H725 H 0.11562 0.22854 0.97234 0.0
C726 C 0.72796 0.59664 0.29683 0.0
C727 C 0.72318 0.57141 0.28989 0.0
C728 C 0.7124 0.61648 0.28782 0.0
C729 C 0.65649 0.63258 0.24557 0.0
H730 H 0.64214 0.681 0.29968 0.0
C731 C 0.56124 0.68919 0.26382 0.0
C732 C 0.56321 0.71295 0.27583 0.0
C733 C 0.58352 0.67548 0.25673 0.0
C734 C 0.64624 0.66807 0.28406 0.0
H735 H 0.69923 0.54679 0.26758 0.0
H736 H 0.67077 0.58134 0.25289 0.0
H737 H 0.6762 0.64981 0.30465 0.0
H738 H 0.58912 0.74224 0.28798 0.0
H739 H 0.628 0.71872 0.27502 0.0
H740 H 0.62471 0.65028 0.22595 0.0
C741 C 0.68711 0.58609 0.26448 0.0
C742 C 0.66597 0.65008 0.28687 0.0
C743 C 0.70328 0.56624 0.27295 0.0
C744 C 0.58731 0.72393 0.27861 0.0
C745 C 0.60949 0.71043 0.27131 0.0
C746 C 0.63631 0.65053 0.24292 0.0
C747 C 0.69097 0.6114 0.27254 0.0
C748 C 0.67132 0.6319 0.26782 0.0
C749 C 0.60789 0.68544 0.26177 0.0
C750 C 0.63091 0.66833 0.26229 0.0
H751 H 0.74352 0.60098 0.30961 0.0
H752 H 0.71667 0.63575 0.29364 0.0
H753 H 0.66018 0.61904 0.2304 0.0
H754 H 0.54271 0.68035 0.26187 0.0
H755 H 0.5817 0.65622 0.24955 0.0
C756 C 0.32064 0.82719 0.50729 0.0
C757 C 0.31523 0.8023 0.49922 0.0
C758 C 0.3458 0.83433 0.51162 0.0
C759 C 0.4098 0.82888 0.49302 0.0
H760 H 0.42343 0.85676 0.55967 0.0
C761 C 0.49465 0.89556 0.5114 0.0
C762 C 0.48614 0.91873 0.52241 0.0
C763 C 0.47888 0.87429 0.51156 0.0
C764 C 0.4201 0.84877 0.54106 0.0
H765 H 0.33227 0.76557 0.48868 0.0
H766 H 0.37681 0.7787 0.49548 0.0
H767 H 0.38514 0.83153 0.55282 0.0
H768 H 0.45502 0.93737 0.54332 0.0
H769 H 0.42768 0.90051 0.54355 0.0
H770 H 0.44353 0.84801 0.48069 0.0
C771 C 0.36119 0.79229 0.49877 0.0
C772 C 0.39833 0.83425 0.53721 0.0
C773 C 0.33579 0.78491 0.49481 0.0
C774 C 0.46212 0.91986 0.53456 0.0
C775 C 0.44654 0.89862 0.53493 0.0
C776 C 0.43156 0.8436 0.49683 0.0
C777 C 0.3662 0.81691 0.50768 0.0
C778 C 0.39244 0.82526 0.51294 0.0
C779 C 0.45452 0.87576 0.52304 0.0
C780 C 0.43612 0.85476 0.5206 0.0
H781 H 0.30539 0.84111 0.51094 0.0
H782 H 0.34938 0.85355 0.51816 0.0
H783 H 0.40541 0.82222 0.47413 0.0
H784 H 0.51308 0.8941 0.50186 0.0
H785 H 0.48548 0.85688 0.50229 0.0
C786 C 0.08941 0.71102 0.77549 0.0
C787 C 0.06344 0.70951 0.76887 0.0
C788 C 0.10815 0.69724 0.7621 0.0
C789 C 0.11439 0.63574 0.73389 0.0
H790 H 0.18552 0.65561 0.72818 0.0
C791 C 0.19493 0.56136 0.74723 0.0
C792 C 0.21214 0.56899 0.76602 0.0
C793 C 0.1792 0.57942 0.73502 0.0
C794 C 0.16574 0.6497 0.72939 0.0
H795 H 0.03674 0.69409 0.74186 0.0
H796 H 0.06961 0.66859 0.71889 0.0
H797 H 0.15136 0.68826 0.7281 0.0
H798 H 0.22716 0.60117 0.78643 0.0
H799 H 0.19979 0.63275 0.76547 0.0
H800 H 0.12868 0.59744 0.73734 0.0
C801 C 0.07542 0.68084 0.73431 0.0
C802 C 0.14618 0.66839 0.7292 0.0
C803 C 0.05663 0.69532 0.74743 0.0
C804 C 0.21427 0.59495 0.77169 0.0
C805 C 0.19867 0.61302 0.75949 0.0
C806 C 0.13394 0.61704 0.73414 0.0
C807 C 0.10128 0.68109 0.74208 0.0
C808 C 0.12044 0.6617 0.73303 0.0
C809 C 0.18028 0.60541 0.74163 0.0
C810 C 0.15992 0.62396 0.73347 0.0
H811 H 0.09517 0.72206 0.79183 0.0
H812 H 0.12778 0.6977 0.76879 0.0
H813 H 0.09476 0.62996 0.73697 0.0
H814 H 0.19221 0.54134 0.74335 0.0
H815 H 0.16527 0.57289 0.72139 0.0
C816 C 0.83429 0.28578 0.4973 0.0
C817 C 0.81461 0.30391 0.50242 0.0
C818 C 0.85984 0.29103 0.50342 0.0
C819 C 0.89842 0.33082 0.54509 0.0
H820 H 0.94565 0.33903 0.48903 0.0
C821 C 0.96503 0.41378 0.53749 0.0
C822 C 0.98887 0.41128 0.52516 0.0
C823 C 0.94917 0.39286 0.53985 0.0
C824 C 0.93311 0.33615 0.50511 0.0
H825 H 0.80618 0.34137 0.51849 0.0
H826 H 0.85033 0.3502 0.52937 0.0
H827 H 0.9064 0.31506 0.48288 0.0
H828 H 0.01544 0.38456 0.50681 0.0
H829 H 0.98735 0.34793 0.51066 0.0
H830 H 0.92416 0.35327 0.56691 0.0
C831 C 0.84611 0.33204 0.5206 0.0
C832 C 0.91065 0.32243 0.50155 0.0
C833 C 0.82087 0.32709 0.51406 0.0
C834 C 0.99712 0.38708 0.51639 0.0
C835 C 0.98107 0.36614 0.51852 0.0
C836 C 0.92087 0.34438 0.54869 0.0
C837 C 0.86581 0.31412 0.51537 0.0
C838 C 0.8925 0.32097 0.52112 0.0
C839 C 0.9567 0.36898 0.52978 0.0
C840 C 0.93764 0.34847 0.52832 0.0
H841 H 0.83 0.26772 0.48841 0.0
H842 H 0.87485 0.27707 0.49903 0.0
H843 H 0.88475 0.32964 0.56052 0.0
H844 H 0.95821 0.43212 0.54463 0.0
H845 H 0.93035 0.3958 0.54831 0.0
C846 C 0.29455 0.91406 0.23186 0.0
C847 C 0.29639 0.93957 0.23946 0.0
C848 C 0.309 0.89505 0.24391 0.0
C849 C 0.37145 0.89002 0.27468 0.0
H850 H 0.35673 0.81808 0.2687 0.0
C851 C 0.45278 0.81652 0.26129 0.0
C852 C 0.44988 0.8053 0.23737 0.0
C853 C 0.43179 0.82854 0.27332 0.0
C854 C 0.36104 0.83808 0.27102 0.0
H855 H 0.31445 0.96533 0.26557 0.0
H856 H 0.33905 0.93211 0.28745 0.0
H857 H 0.32132 0.84939 0.27004 0.0
H858 H 0.42279 0.79613 0.20791 0.0
H859 H 0.38601 0.81649 0.22902 0.0
H860 H 0.41114 0.8788 0.27436 0.0
C861 C 0.32632 0.92666 0.27231 0.0
C862 C 0.34082 0.85603 0.27159 0.0
C863 C 0.31185 0.94569 0.26014 0.0
C864 C 0.42545 0.80473 0.22637 0.0
C865 C 0.40439 0.81613 0.23859 0.0
C866 C 0.3916 0.87207 0.27446 0.0
C867 C 0.32585 0.90124 0.26368 0.0
C868 C 0.34589 0.8823 0.27165 0.0
C869 C 0.40751 0.8289 0.26177 0.0
C870 C 0.38661 0.84611 0.27096 0.0
H871 H 0.28285 0.90897 0.21577 0.0
H872 H 0.30836 0.87587 0.23632 0.0
H873 H 0.37627 0.91 0.27469 0.0
H874 H 0.47142 0.8173 0.27 0.0
H875 H 0.43471 0.8384 0.2911 0.0
C876 C 0.29843 0.42609 0.71773 0.0
C877 C 0.30019 0.44992 0.72966 0.0
C878 C 0.31013 0.40448 0.72829 0.0
C879 C 0.36793 0.38921 0.76246 0.0
H880 H 0.34445 0.31999 0.75435 0.0
C881 C 0.44099 0.3061 0.75345 0.0
C882 C 0.43662 0.2914 0.73172 0.0
C883 C 0.4214 0.322 0.76343 0.0
C884 C 0.35131 0.33918 0.75691 0.0
H885 H 0.31482 0.4698 0.76235 0.0
H886 H 0.3357 0.432 0.78079 0.0
H887 H 0.31336 0.35553 0.75361 0.0
H888 H 0.40806 0.28045 0.70428 0.0
H889 H 0.37413 0.30795 0.72134 0.0
H890 H 0.406 0.37321 0.76383 0.0
C891 C 0.32484 0.42997 0.76348 0.0
C892 C 0.33348 0.35952 0.75656 0.0
C893 C 0.31267 0.45157 0.75308 0.0
C894 C 0.41196 0.29161 0.72109 0.0
C895 C 0.3924 0.30725 0.73107 0.0
C896 C 0.38578 0.3689 0.76264 0.0
C897 C 0.32438 0.40636 0.75074 0.0
C898 C 0.34175 0.38481 0.75812 0.0
C899 C 0.39707 0.32334 0.75184 0.0
C900 C 0.37781 0.34373 0.75858 0.0
H901 H 0.28901 0.42439 0.69958 0.0
H902 H 0.30964 0.38669 0.71781 0.0
H903 H 0.37497 0.40848 0.76354 0.0
H904 H 0.45988 0.30665 0.76168 0.0
H905 H 0.42562 0.33405 0.77952 0.0
C906 C 0.20298 0.79316 0.57696 0.0
C907 C 0.21039 0.77726 0.55667 0.0
C908 C 0.19157 0.78311 0.59844 0.0
C909 C 0.14992 0.73132 0.61464 0.0
H910 H 0.1509 0.76581 0.67972 0.0
C911 C 0.05891 0.75573 0.66782 0.0
C912 C 0.05745 0.75413 0.69431 0.0
C913 C 0.08206 0.75123 0.65524 0.0
C914 C 0.1507 0.75547 0.66194 0.0
H915 H 0.2132 0.73808 0.5438 0.0
H916 H 0.19276 0.72034 0.58127 0.0
H917 H 0.18689 0.77034 0.65047 0.0
H918 H 0.07955 0.74685 0.72836 0.0
H919 H 0.12044 0.73924 0.7061 0.0
H920 H 0.11326 0.71735 0.62567 0.0
C921 C 0.19574 0.7407 0.58043 0.0
C922 C 0.17119 0.75823 0.64509 0.0
C923 C 0.20742 0.75084 0.5589 0.0
C924 C 0.07998 0.74825 0.70795 0.0
C925 C 0.10336 0.74382 0.69525 0.0
C926 C 0.12954 0.72847 0.63152 0.0
C927 C 0.18713 0.75685 0.60018 0.0
C928 C 0.17022 0.74749 0.62066 0.0
C929 C 0.1045 0.74503 0.66872 0.0
C930 C 0.12901 0.74181 0.65465 0.0
H931 H 0.20522 0.81362 0.57595 0.0
H932 H 0.18482 0.79624 0.613 0.0
H933 H 0.14852 0.7227 0.59605 0.0
H934 H 0.04207 0.76026 0.65659 0.0
H935 H 0.08244 0.75303 0.63484 0.0
C936 C 0.23469 0.91283 0.28354 0.0
C937 C 0.22075 0.9323 0.29627 0.0
C938 C 0.23068 0.88723 0.28932 0.0
C939 C 0.2346 0.84261 0.32602 0.0
H940 H 0.169 0.81675 0.34799 0.0
C941 C 0.1967 0.80182 0.42105 0.0
C942 C 0.21731 0.78553 0.42757 0.0
C943 C 0.19289 0.80894 0.396 0.0
C944 C 0.18748 0.82343 0.34165 0.0
H945 H 0.19031 0.9402 0.32346 0.0
H946 H 0.18327 0.89569 0.33349 0.0
H947 H 0.17014 0.85227 0.31836 0.0
H948 H 0.24854 0.76191 0.4128 0.0
H949 H 0.242 0.77442 0.36878 0.0
H950 H 0.25199 0.81562 0.35102 0.0
C951 C 0.19727 0.9001 0.31903 0.0
C952 C 0.18811 0.84373 0.32468 0.0
C953 C 0.20152 0.92564 0.31354 0.0
C954 C 0.23254 0.77452 0.40827 0.0
C955 C 0.22886 0.7818 0.3831 0.0
C956 C 0.23397 0.82246 0.34312 0.0
C957 C 0.21236 0.88067 0.30761 0.0
C958 C 0.21165 0.85454 0.31803 0.0
C959 C 0.20974 0.80006 0.37689 0.0
C960 C 0.21036 0.81386 0.35245 0.0
H961 H 0.24963 0.91739 0.27009 0.0
H962 H 0.24259 0.87264 0.28026 0.0
H963 H 0.25305 0.85053 0.32123 0.0
H964 H 0.18446 0.81035 0.43554 0.0
H965 H 0.1781 0.8232 0.39209 0.0
C966 C 0.95659 0.67426 0.69791 0.0
C967 C 0.97251 0.6821 0.71778 0.0
C968 C 0.95648 0.64883 0.69011 0.0
C969 C -0.0013 0.59217 0.68766 0.0
H970 H 0.93844 0.56386 0.65627 0.0
C971 C 0.96248 0.51095 0.61062 0.0
C972 C 0.9823 0.5141 0.59293 0.0
C973 C 0.96304 0.52365 0.63393 0.0
C974 C 0.9555 0.57086 0.6654 0.0
H975 H -0.00069 0.6687 0.74638 0.0
H976 H -0.00077 0.6241 0.73254 0.0
H977 H 0.93384 0.60106 0.68316 0.0
H978 H 0.01906 0.53136 0.58642 0.0
H979 H 0.01991 0.55402 0.62644 0.0
H980 H 0.02041 0.56198 0.66971 0.0
C981 C 0.98713 0.63789 0.72278 0.0
C982 C 0.95283 0.59259 0.6806 0.0
C983 C 0.9871 0.66345 0.73075 0.0
C984 C 0.0038 0.5282 0.5999 0.0
C985 C 0.00415 0.54134 0.62297 0.0
C986 C 0.00136 0.57017 0.67263 0.0
C987 C 0.97224 0.6304 0.70196 0.0
C988 C 0.9745 0.60424 0.69092 0.0
C989 C 0.98304 0.54041 0.6397 0.0
C990 C 0.97992 0.55986 0.66034 0.0
H991 H 0.94493 0.68796 0.68754 0.0
H992 H 0.94498 0.64394 0.67382 0.0
H993 H 0.01583 0.60059 0.69537 0.0
H994 H 0.94572 0.50007 0.60573 0.0
H995 H 0.94688 0.52165 0.64666 0.0
C996 C 0.27505 0.71214 0.41199 0.0
C997 C 0.28382 0.72318 0.43446 0.0
C998 C 0.2845 0.72008 0.38868 0.0
C999 C 0.3319 0.76379 0.35815 0.0
H1000 H 0.3509 0.7016 0.3221 0.0
C1001 C 0.41814 0.75851 0.28889 0.0
C1002 C 0.43596 0.73991 0.29722 0.0
C1003 C 0.39274 0.75864 0.29781 0.0
C1004 C 0.34548 0.71924 0.33166 0.0
H1005 H 0.3077 0.75226 0.45051 0.0
H1006 H 0.32568 0.76518 0.40999 0.0
H1007 H 0.31731 0.70075 0.35371 0.0
H1008 H 0.44073 0.70556 0.31945 0.0
H1009 H 0.39664 0.70533 0.33445 0.0
H1010 H 0.36209 0.7815 0.33735 0.0
C1011 C 0.31081 0.75105 0.41 0.0
C1012 C 0.32595 0.7189 0.34972 0.0
C1013 C 0.30068 0.74359 0.43332 0.0
C1014 C 0.42747 0.72025 0.31285 0.0
C1015 C 0.40212 0.72006 0.32132 0.0
C1016 C 0.35165 0.76407 0.34009 0.0
C1017 C 0.30381 0.73843 0.38748 0.0
C1018 C 0.31972 0.74086 0.36413 0.0
C1019 C 0.3847 0.73969 0.31461 0.0
C1020 C 0.35948 0.74143 0.32768 0.0
H1021 H 0.26172 0.69655 0.41253 0.0
H1022 H 0.27792 0.71059 0.37174 0.0
H1023 H 0.32722 0.7812 0.36843 0.0
H1024 H 0.42417 0.77376 0.27675 0.0
H1025 H 0.37968 0.77394 0.29225 0.0
C1026 C 0.29937 0.06928 0.19339 0.0
C1027 C 0.28076 0.06445 0.21195 0.0
C1028 C 0.30176 0.09366 0.18337 0.0
C1029 C 0.2583 0.14552 0.16821 0.0
H1030 H 0.31851 0.16955 0.13283 0.0
C1031 C 0.28001 0.20964 0.0742 0.0
C1032 C 0.26771 0.19356 0.05682 0.0
C1033 C 0.28332 0.20204 0.09944 0.0
C1034 C 0.3016 0.16363 0.14306 0.0
H1035 H 0.2518 0.08182 0.23631 0.0
H1036 H 0.25574 0.1246 0.21865 0.0
H1037 H 0.32378 0.14154 0.16946 0.0
H1038 H 0.24877 0.15726 0.05249 0.0
H1039 H 0.25412 0.14449 0.09614 0.0
H1040 H 0.23619 0.16592 0.14059 0.0
C1041 C 0.26843 0.10945 0.21177 0.0
C1042 C 0.30456 0.14745 0.16388 0.0
C1043 C 0.26622 0.08499 0.22198 0.0
C1044 C 0.25859 0.17003 0.06521 0.0
C1045 C 0.26138 0.16278 0.09031 0.0
C1046 C 0.25538 0.16154 0.1474 0.0
C1047 C 0.28543 0.11377 0.19155 0.0
C1048 C 0.28291 0.13702 0.17571 0.0
C1049 C 0.27368 0.17866 0.10766 0.0
C1050 C 0.27697 0.16953 0.13384 0.0
H1051 H 0.31109 0.05387 0.18549 0.0
H1052 H 0.31492 0.09613 0.16771 0.0
H1053 H 0.24119 0.13782 0.17673 0.0
H1054 H 0.28716 0.22793 0.06826 0.0
H1055 H 0.29307 0.21446 0.11255 0.0
C1056 C 0.7727 0.74441 0.93475 0.0
C1057 C 0.78041 0.72942 0.95534 0.0
C1058 C 0.79074 0.75177 0.91673 0.0
C1059 C 0.85766 0.76234 0.90342 0.0
H1060 H 0.84905 0.72573 0.84007 0.0
C1061 C 0.92896 0.76577 0.81897 0.0
C1062 C 0.94156 0.74196 0.81639 0.0
C1063 C 0.90647 0.76813 0.83332 0.0
C1064 C 0.85139 0.73638 0.8575 0.0
H1065 H 0.81257 0.71095 0.97411 0.0
H1066 H 0.84445 0.72471 0.94305 0.0
H1067 H 0.81474 0.7255 0.87203 0.0
H1068 H 0.94066 0.70194 0.82596 0.0
H1069 H 0.90052 0.70587 0.85039 0.0
H1070 H 0.89455 0.77276 0.88906 0.0
C1071 C 0.82453 0.73066 0.9408 0.0
C1072 C 0.83186 0.73635 0.87564 0.0
C1073 C 0.8064 0.72277 0.95843 0.0
C1074 C 0.93098 0.72037 0.82753 0.0
C1075 C 0.90815 0.72263 0.84138 0.0
C1076 C 0.87695 0.76287 0.88502 0.0
C1077 C 0.8167 0.74462 0.91951 0.0
C1078 C 0.83519 0.74875 0.89895 0.0
C1079 C 0.89612 0.74661 0.84481 0.0
C1080 C 0.87419 0.7493 0.86227 0.0
H1081 H 0.75257 0.74903 0.93177 0.0
H1082 H 0.78437 0.76226 0.90023 0.0
H1083 H 0.86057 0.77184 0.92139 0.0
H1084 H 0.9373 0.78275 0.8111 0.0
H1085 H 0.89753 0.7868 0.83598 0.0
C1086 C 0.27915 0.59876 0.71688 0.0
C1087 C 0.29837 0.57958 0.71669 0.0
C1088 C 0.28388 0.62246 0.70599 0.0
C1089 C 0.29744 0.67179 0.67931 0.0
H1090 H 0.33045 0.65426 0.61561 0.0
C1091 C 0.31185 0.70621 0.5684 0.0
C1092 C 0.28629 0.71363 0.56375 0.0
C1093 C 0.31943 0.69885 0.5926 0.0
C1094 C 0.32182 0.66007 0.63343 0.0
H1095 H 0.33841 0.57102 0.70859 0.0
H1096 H 0.34714 0.61281 0.69089 0.0
H1097 H 0.3334 0.625 0.65021 0.0
H1098 H 0.24903 0.72099 0.58072 0.0
H1099 H 0.2617 0.70683 0.62276 0.0
H1100 H 0.28472 0.7065 0.66158 0.0
C1101 C 0.32811 0.60933 0.69831 0.0
C1102 C 0.32353 0.6431 0.6535 0.0
C1103 C 0.32322 0.58547 0.70859 0.0
C1104 C 0.26887 0.71546 0.58398 0.0
C1105 C 0.27625 0.70743 0.60811 0.0
C1106 C 0.29578 0.68895 0.6591 0.0
C1107 C 0.30802 0.62739 0.69515 0.0
C1108 C 0.31064 0.64826 0.67642 0.0
C1109 C 0.30134 0.69783 0.61241 0.0
C1110 C 0.30723 0.68284 0.63561 0.0
H1111 H 0.25979 0.5946 0.72301 0.0
H1112 H 0.26792 0.63585 0.70393 0.0
H1113 H 0.28754 0.6765 0.69681 0.0
H1114 H 0.32566 0.70497 0.55304 0.0
H1115 H 0.33911 0.69238 0.59538 0.0
C1116 C 0.33035 0.01727 0.31955 0.0
C1117 C 0.31336 0.99775 0.31378 0.0
C1118 C 0.35242 0.01195 0.3338 0.0
C1119 C 0.4017 0.99395 0.36036 0.0
H1120 H 0.38153 0.96057 0.42237 0.0
C1121 C 0.44157 0.02034 0.45623 0.0
C1122 C 0.44101 0.00313 0.47635 0.0
C1123 C 0.43388 0.01285 0.43216 0.0
C1124 C 0.38797 0.96921 0.40498 0.0
H1125 H 0.30584 0.95756 0.31759 0.0
H1126 H 0.34454 0.94809 0.34218 0.0
H1127 H 0.35284 0.96051 0.38643 0.0
H1128 H 0.43364 0.96432 0.48736 0.0
H1129 H 0.42016 0.95085 0.44492 0.0
H1130 H 0.43652 0.00342 0.37936 0.0
C1131 C 0.34106 0.96741 0.3357 0.0
C1132 C 0.37138 0.96928 0.38432 0.0
C1133 C 0.31908 0.97276 0.3215 0.0
C1134 C 0.43425 0.9778 0.47192 0.0
C1135 C 0.42639 0.97023 0.44773 0.0
C1136 C 0.41847 0.99363 0.38098 0.0
C1137 C 0.35753 0.98709 0.34272 0.0
C1138 C 0.37757 0.98259 0.36219 0.0
C1139 C 0.42519 0.98799 0.42779 0.0
C1140 C 0.41122 0.98235 0.40397 0.0
H1141 H 0.32592 0.03676 0.3141 0.0
H1142 H 0.36454 0.02759 0.33924 0.0
H1143 H 0.40713 0.00397 0.34336 0.0
H1144 H 0.44659 0.04004 0.45945 0.0
H1145 H 0.4329 0.02719 0.41753 0.0
C1146 C 0.81087 0.82409 0.01798 0.0
C1147 C 0.80164 0.80475 0.00228 0.0
C1148 C 0.83653 0.83102 0.01675 0.0
C1149 C 0.88679 0.83679 0.97062 0.0
H1150 H 0.92273 0.86392 0.02864 0.0
C1151 C 0.96605 0.91798 0.00052 0.0
C1152 C 0.95416 0.93815 0.9873 0.0
C1153 C 0.9558 0.89347 -0.00049 0.0
C1154 C 0.9135 0.85594 0.01216 0.0
H1155 H 0.81192 0.77685 0.97352 0.0
H1156 H 0.85713 0.78944 0.97081 0.0
H1157 H 0.88839 0.83372 0.03496 0.0
H1158 H 0.92398 0.94811 0.96078 0.0
H1159 H 0.90631 0.90572 0.95886 0.0
H1160 H 0.91084 0.86025 0.94793 0.0
C1161 C 0.84451 0.79893 0.98437 0.0
C1162 C 0.89366 0.83878 0.01582 0.0
C1163 C 0.81877 0.79164 0.98598 0.0
C1164 C 0.93333 0.93297 0.97142 0.0
C1165 C 0.92338 0.90855 0.9701 0.0
C1166 C 0.90662 0.85401 0.96696 0.0
C1167 C 0.8535 0.81904 -0.00054 0.0
C1168 C 0.87912 0.83022 0.9952 0.0
C1169 C 0.93383 0.88872 0.98487 0.0
C1170 C 0.91915 0.86489 0.98781 0.0
H1171 H 0.798 0.83445 0.0307 0.0
H1172 H 0.84267 0.84687 0.02831 0.0
H1173 H 0.87599 0.83051 0.95434 0.0
H1174 H 0.9822 0.92148 0.01284 0.0
H1175 H 0.96433 0.87852 0.01099 0.0
C1176 C 0.66711 0.18992 0.47782 0.0
C1177 C 0.67446 0.21153 0.4915 0.0
C1178 C 0.64167 0.18238 0.47788 0.0
C1179 C 0.58516 0.17355 0.47433 0.0
H1180 H 0.56103 0.16032 0.54238 0.0
C1181 C 0.50517 0.10782 0.52768 0.0
C1182 C 0.51288 0.08421 0.51706 0.0
C1183 C 0.51928 0.12974 0.52293 0.0
C1184 C 0.56711 0.16441 0.52324 0.0
H1185 H 0.66095 0.24295 0.51511 0.0
H1186 H 0.61602 0.22921 0.51583 0.0
H1187 H 0.59625 0.18974 0.53584 0.0
H1188 H 0.54103 0.06515 0.49276 0.0
H1189 H 0.56531 0.10332 0.48427 0.0
H1190 H 0.55741 0.1467 0.46193 0.0
C1191 C 0.63008 0.21835 0.50485 0.0
C1192 C 0.58719 0.18131 0.51947 0.0
C1193 C 0.65567 0.22622 0.50439 0.0
C1194 C 0.53465 0.08301 0.50132 0.0
C1195 C 0.54841 0.10491 0.49624 0.0
C1196 C 0.56526 0.15659 0.4781 0.0
C1197 C 0.62299 0.19609 0.49189 0.0
C1198 C 0.59728 0.18495 0.49509 0.0
C1199 C 0.54093 0.12844 0.50704 0.0
C1200 C 0.55697 0.15092 0.50268 0.0
H1201 H 0.68123 0.17837 0.46759 0.0
H1202 H 0.63696 0.16492 0.46805 0.0
H1203 H 0.59231 0.17635 0.4553 0.0
H1204 H 0.4885 0.10928 0.53996 0.0
H1205 H 0.51328 0.14767 0.53157 0.0
C1206 C 0.81678 0.45529 0.24734 0.0
C1207 C 0.8228 0.47616 0.23221 0.0
C1208 C 0.83626 0.43872 0.25577 0.0
C1209 C 0.90119 0.41835 0.23474 0.0
H1210 H 0.89389 0.36972 0.28913 0.0
C1211 C 0.96317 0.32852 0.23427 0.0
C1212 C 0.94807 0.30674 0.23373 0.0
C1213 C 0.95287 0.35165 0.24322 0.0
C1214 C 0.89633 0.38337 0.27406 0.0
H1215 H 0.85348 0.49764 0.21555 0.0
H1216 H 0.88777 0.46981 0.23156 0.0
H1217 H 0.86656 0.40824 0.28852 0.0
H1218 H 0.91105 0.29127 0.24296 0.0
H1219 H 0.89291 0.33171 0.25891 0.0
H1220 H 0.93038 0.39334 0.21993 0.0
C1221 C 0.86808 0.46532 0.23609 0.0
C1222 C 0.88059 0.40535 0.27357 0.0
C1223 C 0.84853 0.48142 0.22707 0.0
C1224 C 0.92309 0.30787 0.24366 0.0
C1225 C 0.91282 0.33095 0.25287 0.0
C1226 C 0.9171 0.39671 0.23547 0.0
C1227 C 0.86215 0.44301 0.24945 0.0
C1228 C 0.88213 0.42262 0.25331 0.0
C1229 C 0.92726 0.3533 0.2517 0.0
C1230 C 0.91422 0.37852 0.25458 0.0
H1231 H 0.79694 0.45071 0.25105 0.0
H1232 H 0.83073 0.42167 0.26568 0.0
H1233 H 0.90281 0.4307 0.21851 0.0
H1234 H 0.98228 0.32814 0.22607 0.0
H1235 H 0.96443 0.36855 0.24215 0.0
C1236 C 0.00833 0.59862 0.51651 0.0
C1237 C 0.01477 0.57525 0.5047 0.0
C1238 C 0.02398 0.61976 0.51334 0.0
C1239 C 0.07611 0.64473 0.47328 0.0
H1240 H 0.10294 0.67297 0.53555 0.0
C1241 C 0.17967 0.67244 0.48455 0.0
C1242 C 0.18581 0.69551 0.49642 0.0
C1243 C 0.15437 0.66449 0.48372 0.0
C1244 C 0.09519 0.6658 0.51797 0.0
H1245 H 0.04189 0.556 0.47945 0.0
H1246 H 0.06896 0.59266 0.4739 0.0
H1247 H 0.06484 0.64644 0.53687 0.0
H1248 H 0.17028 0.72839 0.51685 0.0
H1249 H 0.12567 0.71382 0.51608 0.0
H1250 H 0.10749 0.66257 0.45463 0.0
C1251 C 0.05185 0.5948 0.48551 0.0
C1252 C 0.0734 0.65064 0.5187 0.0
C1253 C 0.03647 0.5737 0.4889 0.0
C1254 C 0.16605 0.71052 0.50754 0.0
C1255 C 0.14062 0.70225 0.50711 0.0
C1256 C 0.09787 0.65974 0.47258 0.0
C1257 C 0.04603 0.61793 0.49798 0.0
C1258 C 0.06447 0.63897 0.4965 0.0
C1259 C 0.13463 0.67924 0.495 0.0
C1260 C 0.10828 0.66936 0.49505 0.0
H1261 H 0.99174 0.60034 0.52887 0.0
H1262 H 0.01911 0.63739 0.52317 0.0
H1263 H 0.06931 0.63635 0.45584 0.0
H1264 H 0.19442 0.66055 0.47566 0.0
H1265 H 0.1503 0.64645 0.47464 0.0
C1266 C 0.68122 0.06628 0.78225 0.0
C1267 C 0.70597 0.068 0.77199 0.0
C1268 C 0.66018 0.0772 0.76988 0.0
C1269 C 0.64641 0.13385 0.73642 0.0
H1270 H 0.5769 0.10879 0.73952 0.0
C1271 C 0.56286 0.204 0.75297 0.0
C1272 C 0.54779 0.1968 0.7736 0.0
C1273 C 0.57861 0.18596 0.74046 0.0
C1274 C 0.59617 0.1161 0.7383 0.0
H1275 H 0.72813 0.08101 0.74005 0.0
H1276 H 0.69123 0.10157 0.71883 0.0
H1277 H 0.61329 0.07856 0.73903 0.0
H1278 H 0.53618 0.1652 0.79681 0.0
H1279 H 0.56369 0.13378 0.77546 0.0
H1280 H 0.62974 0.17131 0.73821 0.0
C1281 C 0.68815 0.09126 0.73624 0.0
C1282 C 0.61697 0.09878 0.73783 0.0
C1283 C 0.70922 0.07963 0.74837 0.0
C1284 C 0.54764 0.17115 0.78082 0.0
C1285 C 0.56321 0.1531 0.76833 0.0
C1286 C 0.62566 0.15117 0.73714 0.0
C1287 C 0.66353 0.09068 0.74727 0.0
C1288 C 0.64228 0.10758 0.73845 0.0
C1289 C 0.5796 0.16042 0.74854 0.0
C1290 C 0.60037 0.1425 0.7397 0.0
H1291 H 0.67824 0.05721 0.80036 0.0
H1292 H 0.64154 0.07671 0.77905 0.0
H1293 H 0.66571 0.14119 0.737 0.0
H1294 H 0.5639 0.22381 0.74776 0.0
H1295 H 0.591 0.19225 0.72533 0.0
C1296 C 0.75571 0.60729 0.22976 0.0
C1297 C 0.77278 0.59074 0.21678 0.0
C1298 C 0.75227 0.63259 0.22185 0.0
C1299 C 0.77755 0.68089 0.17661 0.0
H1300 H 0.70575 0.69103 0.15947 0.0
C1301 C 0.72278 0.69998 0.08253 0.0
C1302 C 0.73573 0.72068 0.0722 0.0
C1303 C 0.72416 0.69492 0.10828 0.0
C1304 C 0.72584 0.68888 0.16451 0.0
H1305 H 0.80118 0.58802 0.18683 0.0
H1306 H 0.79541 0.63179 0.17306 0.0
H1307 H 0.71771 0.66075 0.19233 0.0
H1308 H 0.75881 0.75348 0.08082 0.0
H1309 H 0.76215 0.74398 0.12624 0.0
H1310 H 0.78582 0.70699 0.14689 0.0
C1311 C 0.78464 0.6256 0.1894 0.0
C1312 C 0.73272 0.67164 0.1835 0.0
C1313 C 0.78779 0.60036 0.19709 0.0
C1314 C 0.74895 0.73718 0.08836 0.0
C1315 C 0.75076 0.73182 0.11427 0.0
C1316 C 0.77068 0.69803 0.15753 0.0
C1317 C 0.76616 0.64178 0.20103 0.0
C1318 C 0.75877 0.66611 0.18843 0.0
C1319 C 0.73885 0.71024 0.12434 0.0
C1320 C 0.74489 0.70073 0.15007 0.0
H1321 H 0.74379 0.60021 0.24482 0.0
H1322 H 0.7379 0.64457 0.23122 0.0
H1323 H 0.79776 0.67748 0.18046 0.0
H1324 H 0.71202 0.68725 0.07054 0.0
H1325 H 0.71504 0.67795 0.11526 0.0
C1326 C 0.96588 0.51282 0.44923 0.0
C1327 C 0.94852 0.49935 0.46417 0.0
C1328 C 0.96407 0.51223 0.4229 0.0
C1329 C 0.92695 0.48338 0.36943 0.0
H1330 H 0.92677 0.55284 0.34477 0.0
C1331 C 0.85721 0.51132 0.29247 0.0
C1332 C 0.84109 0.53097 0.30188 0.0
C1333 C 0.88176 0.50737 0.30267 0.0
C1334 C 0.92704 0.53323 0.35112 0.0
H1335 H 0.91576 0.47477 0.46379 0.0
H1336 H 0.91214 0.47382 0.41788 0.0
H1337 H 0.9488 0.5426 0.38376 0.0
H1338 H 0.8386 0.56352 0.3271 0.0
H1339 H 0.88103 0.55694 0.34482 0.0
H1340 H 0.90259 0.47477 0.33828 0.0
C1341 C 0.92788 0.48409 0.42617 0.0
C1342 C 0.93994 0.52722 0.37346 0.0
C1343 C 0.92978 0.48467 0.45251 0.0
C1344 C 0.85075 0.54824 0.31956 0.0
C1345 C 0.87523 0.54449 0.32957 0.0
C1346 C 0.91368 0.4895 0.34727 0.0
C1347 C 0.94448 0.49854 0.41102 0.0
C1348 C 0.93849 0.50261 0.38382 0.0
C1349 C 0.89046 0.52315 0.32233 0.0
C1350 C 0.91204 0.51493 0.33896 0.0
H1351 H 0.98001 0.52491 0.45795 0.0
H1352 H 0.97738 0.52332 0.41193 0.0
H1353 H 0.92631 0.46401 0.37637 0.0
H1354 H 0.84996 0.49755 0.27914 0.0
H1355 H 0.89308 0.49091 0.29651 0.0
C1356 C 0.18137 0.51241 0.69508 0.0
C1357 C 0.20414 0.52509 0.68977 0.0
C1358 C 0.15844 0.5201 0.68342 0.0
C1359 C 0.11003 0.54034 0.65891 0.0
H1360 H 0.12253 0.55371 0.58798 0.0
C1361 C 0.06322 0.49033 0.57856 0.0
C1362 C 0.06096 0.50178 0.55482 0.0
C1363 C 0.07118 0.50451 0.59931 0.0
C1364 C 0.11838 0.55087 0.60784 0.0
H1365 H 0.22075 0.55725 0.6707 0.0
H1366 H 0.18063 0.57154 0.65127 0.0
H1367 H 0.15726 0.55714 0.61763 0.0
H1368 H 0.06295 0.53708 0.53401 0.0
H1369 H 0.07803 0.562 0.57038 0.0
H1370 H 0.07152 0.53146 0.6481 0.0
C1371 C 0.18044 0.55486 0.66324 0.0
C1372 C 0.13846 0.55277 0.62503 0.0
C1373 C 0.20344 0.54669 0.67429 0.0
C1374 C 0.06471 0.52802 0.55231 0.0
C1375 C 0.07321 0.5422 0.57305 0.0
C1376 C 0.08996 0.5381 0.64157 0.0
C1377 C 0.15782 0.54106 0.66679 0.0
C1378 C 0.13496 0.54603 0.65053 0.0
C1379 C 0.07763 0.53023 0.59646 0.0
C1380 C 0.09446 0.54182 0.61564 0.0
H1381 H 0.18154 0.49595 0.70738 0.0
H1382 H 0.14159 0.50875 0.68649 0.0
H1383 H 0.10639 0.5359 0.67856 0.0
H1384 H 0.06026 0.47006 0.58072 0.0
H1385 H 0.07465 0.49464 0.61696 0.0
C1386 C 0.58991 0.80208 0.20426 0.0
C1387 C 0.57967 0.78112 0.21679 0.0
C1388 C 0.61446 0.80046 0.19372 0.0
C1389 C 0.65532 0.75199 0.16398 0.0
H1390 H 0.6934 0.81244 0.14787 0.0
C1391 C 0.68702 0.7742 0.06414 0.0
C1392 C 0.7049 0.79327 0.05999 0.0
C1393 C 0.68175 0.76623 0.08878 0.0
C1394 C 0.68374 0.79496 0.15237 0.0
H1395 H 0.58735 0.74247 0.22922 0.0
H1396 H 0.63068 0.73973 0.21128 0.0
H1397 H 0.66654 0.81224 0.18511 0.0
H1398 H 0.73366 0.81683 0.07727 0.0
H1399 H 0.72568 0.80198 0.12011 0.0
H1400 H 0.67238 0.73478 0.13101 0.0
C1401 C 0.61974 0.75743 0.20959 0.0
C1402 C 0.66798 0.79503 0.17372 0.0
C1403 C 0.59511 0.75912 0.22023 0.0
C1404 C 0.71927 0.8025 0.08029 0.0
C1405 C 0.7146 0.79405 0.10479 0.0
C1406 C 0.67153 0.75172 0.14281 0.0
C1407 C 0.62927 0.77774 0.19533 0.0
C1408 C 0.65216 0.77429 0.17869 0.0
C1409 C 0.69471 0.77693 0.10958 0.0
C1410 C 0.68448 0.77387 0.13574 0.0
H1411 H 0.57832 0.81919 0.20126 0.0
H1412 H 0.62091 0.8164 0.18259 0.0
H1413 H 0.64363 0.73551 0.16738 0.0
H1414 H 0.67596 0.76674 0.04858 0.0
H1415 H 0.66622 0.7531 0.0915 0.0
C1416 C 0.6775 0.51332 0.21865 0.0
C1417 C 0.69773 0.49566 0.22197 0.0
C1418 C 0.65308 0.50487 0.21206 0.0
C1419 C 0.60105 0.48153 0.20016 0.0
H1420 H 0.61108 0.43507 0.14365 0.0
C1421 C 0.55189 0.43934 0.10276 0.0
C1422 C 0.54119 0.46255 0.09456 0.0
C1423 C 0.56271 0.43749 0.1268 0.0
C1424 C 0.60739 0.44737 0.15982 0.0
H1425 H 0.70848 0.45565 0.22339 0.0
H1426 H 0.66572 0.44072 0.21252 0.0
H1427 H 0.64633 0.44329 0.17142 0.0
H1428 H 0.53097 0.50129 0.10537 0.0
H1429 H 0.55135 0.49878 0.14662 0.0
H1430 H 0.56214 0.48631 0.18765 0.0
C1431 C 0.66861 0.46104 0.2144 0.0
C1432 C 0.62787 0.45219 0.17583 0.0
C1433 C 0.69301 0.46951 0.22065 0.0
C1434 C 0.53913 0.48316 0.11147 0.0
C1435 C 0.55077 0.48162 0.13521 0.0
C1436 C 0.58032 0.4765 0.18417 0.0
C1437 C 0.64869 0.47864 0.20883 0.0
C1438 C 0.62528 0.47001 0.19561 0.0
C1439 C 0.56415 0.45921 0.14249 0.0
C1440 C 0.58354 0.4601 0.16316 0.0
H1441 H 0.68095 0.53361 0.21961 0.0
H1442 H 0.63824 0.51893 0.2077 0.0
H1443 H 0.5984 0.49514 0.21547 0.0
H1444 H 0.5534 0.42316 0.08998 0.0
H1445 H 0.57186 0.4196 0.13216 0.0
C1446 C 0.43807 0.40133 0.03799 0.0
C1447 C 0.45973 0.41201 0.02664 0.0
C1448 C 0.43351 0.37536 0.03574 0.0
C1449 C 0.43066 0.31859 0.03613 0.0
H1450 H 0.43025 0.29384 0.96701 0.0
C1451 C 0.35503 0.24974 0.01184 0.0
C1452 C 0.3407 0.25922 0.99145 0.0
C1453 C 0.38091 0.25609 0.01441 0.0
C1454 C 0.43033 0.30029 0.98649 0.0
H1455 H 0.49417 0.40353 0.00466 0.0
H1456 H 0.48595 0.35779 0.00044 0.0
H1457 H 0.45393 0.33202 0.97753 0.0
H1458 H 0.34246 0.27967 0.95618 0.0
H1459 H 0.38681 0.29143 0.96074 0.0
H1460 H 0.40494 0.28899 0.04486 0.0
C1461 C 0.47256 0.36971 0.01116 0.0
C1462 C 0.44423 0.32207 0.99257 0.0
C1463 C 0.47729 0.39585 0.01364 0.0
C1464 C 0.35331 0.27201 0.97198 0.0
C1465 C 0.37893 0.27877 0.97473 0.0
C1466 C 0.41646 0.29717 0.03002 0.0
C1467 C 0.45043 0.35924 0.02198 0.0
C1468 C 0.44308 0.33239 0.01714 0.0
C1469 C 0.39244 0.27275 0.99705 0.0
C1470 C 0.41461 0.28875 0.00475 0.0
H1471 H 0.42422 0.41315 0.04826 0.0
H1472 H 0.416 0.36815 0.04389 0.0
H1473 H 0.43008 0.32562 0.05543 0.0
H1474 H 0.34558 0.23992 0.02715 0.0
H1475 H 0.39095 0.25015 0.03135 0.0
C1476 C 0.05966 0.19733 0.24404 0.0
C1477 C 0.07129 0.21883 0.2544 0.0
C1478 C 0.07479 0.17687 0.23498 0.0
C1479 C 0.14282 0.15388 0.22484 0.0
H1480 H 0.119 0.09492 0.26125 0.0
C1481 C 0.21081 0.08029 0.27119 0.0
C1482 C 0.20266 0.05522 0.27421 0.0
C1483 C 0.19486 0.09835 0.25932 0.0
C1484 C 0.12587 0.11083 0.25035 0.0
H1485 H 0.10747 0.23691 0.26184 0.0
H1486 H 0.13393 0.20133 0.2464 0.0
H1487 H 0.09004 0.13079 0.25471 0.0
H1488 H 0.17179 0.0291 0.26798 0.0
H1489 H 0.14413 0.06021 0.24637 0.0
H1490 H 0.17918 0.13414 0.22167 0.0
C1491 C 0.11325 0.20016 0.2447 0.0
C1492 C 0.10911 0.13151 0.24652 0.0
C1493 C 0.09812 0.22053 0.2537 0.0
C1494 C 0.17863 0.04825 0.26506 0.0
C1495 C 0.16274 0.06616 0.25302 0.0
C1496 C 0.15963 0.13307 0.2286 0.0
C1497 C 0.10178 0.17754 0.2365 0.0
C1498 C 0.11764 0.1537 0.23461 0.0
C1499 C 0.17032 0.09163 0.25063 0.0
C1500 C 0.1516 0.11168 0.24226 0.0
H1501 H 0.0391 0.19518 0.24521 0.0
H1502 H 0.06536 0.15979 0.22859 0.0
H1503 H 0.14987 0.17058 0.21529 0.0
H1504 H 0.22904 0.08613 0.27891 0.0
H1505 H 0.20117 0.11786 0.25834 0.0
C1506 C 0.26752 0.31707 0.91524 0.0
C1507 C 0.25201 0.29794 0.92517 0.0
C1508 C 0.26373 0.32599 0.89081 0.0
C1509 C 0.25788 0.33778 0.83581 0.0
H1510 H 0.18847 0.36409 0.82649 0.0
C1511 C 0.24145 0.42514 0.77421 0.0
C1512 C 0.228 0.44443 0.78767 0.0
C1513 C 0.24003 0.39964 0.78178 0.0
C1514 C 0.20792 0.35667 0.82859 0.0
H1515 H 0.22122 0.27207 0.91677 0.0
H1516 H 0.21389 0.28847 0.87377 0.0
H1517 H 0.19688 0.33142 0.85823 0.0
H1518 H 0.20039 0.45172 0.8178 0.0
H1519 H 0.19823 0.40781 0.83116 0.0
H1520 H 0.26947 0.36466 0.80811 0.0
C1521 C 0.22912 0.29636 0.8851 0.0
C1522 C 0.21268 0.3377 0.84658 0.0
C1523 C 0.23327 0.28703 0.90964 0.0
C1524 C 0.21128 0.4374 0.80722 0.0
C1525 C 0.20982 0.41203 0.81472 0.0
C1526 C 0.25318 0.35684 0.81798 0.0
C1527 C 0.24415 0.31621 0.8756 0.0
C1528 C 0.23796 0.32926 0.85146 0.0
C1529 C 0.22504 0.39295 0.80286 0.0
C1530 C 0.22838 0.36766 0.8153 0.0
H1531 H 0.28245 0.32555 0.92657 0.0
H1532 H 0.2754 0.34153 0.88431 0.0
H1533 H 0.27751 0.33122 0.83882 0.0
H1534 H 0.25437 0.42986 0.75893 0.0
H1535 H 0.25171 0.38539 0.77195 0.0
C1536 C 0.26271 0.19874 0.90373 0.0
C1537 C 0.26932 0.21109 0.92634 0.0
C1538 C 0.27443 0.20527 0.88101 0.0
C1539 C 0.32064 0.24964 0.85138 0.0
H1540 H 0.35163 0.18673 0.82563 0.0
C1541 C 0.41287 0.24608 0.78963 0.0
C1542 C 0.43223 0.23239 0.80259 0.0
C1543 C 0.38718 0.24424 0.79704 0.0
C1544 C 0.34276 0.20445 0.8322 0.0
H1545 H 0.29202 0.24104 0.9426 0.0
H1546 H 0.31294 0.25219 0.90324 0.0
H1547 H 0.31428 0.18498 0.85314 0.0
H1548 H 0.43997 0.20519 0.83246 0.0
H1549 H 0.39513 0.20153 0.84501 0.0
H1550 H 0.35069 0.26883 0.83182 0.0
C1551 C 0.29833 0.23779 0.90286 0.0
C1552 C 0.32124 0.20352 0.84781 0.0
C1553 C 0.28648 0.23129 0.92556 0.0
C1554 C 0.42543 0.21601 0.82226 0.0
C1555 C 0.3998 0.21378 0.82927 0.0
C1556 C 0.34217 0.25055 0.83558 0.0
C1557 C 0.29323 0.22407 0.88056 0.0
C1558 C 0.3108 0.22601 0.85864 0.0
C1559 C 0.38054 0.22818 0.81703 0.0
C1560 C 0.35413 0.22785 0.82704 0.0
H1561 H 0.24913 0.18335 0.90372 0.0
H1562 H 0.26984 0.19464 0.86405 0.0
H1563 H 0.31275 0.26726 0.85922 0.0
H1564 H 0.41765 0.25891 0.77445 0.0
H1565 H 0.37261 0.2556 0.78746 0.0
C1566 C 0.47307 0.49985 0.93675 0.0
C1567 C 0.45747 0.51 0.95627 0.0
C1568 C 0.46599 0.50312 0.91145 0.0
C1569 C 0.42249 0.53842 0.86849 0.0
H1570 H 0.40056 0.47197 0.84556 0.0
C1571 C 0.32472 0.50381 0.83293 0.0
C1572 C 0.32075 0.51305 0.8084 0.0
C1573 C 0.34937 0.50264 0.84304 0.0
C1574 C 0.40727 0.49059 0.85116 0.0
H1575 H 0.42415 0.53416 0.96461 0.0
H1576 H 0.41231 0.54049 0.92064 0.0
H1577 H 0.43301 0.47486 0.87868 0.0
H1578 H 0.33927 0.52796 0.77494 0.0
H1579 H 0.38266 0.52713 0.79343 0.0
H1580 H 0.3951 0.55404 0.84231 0.0
C1581 C 0.42967 0.52957 0.92481 0.0
C1582 C 0.42585 0.49227 0.87002 0.0
C1583 C 0.43629 0.5257 0.95 0.0
C1584 C 0.34193 0.52075 0.79393 0.0
C1585 C 0.36663 0.52023 0.80438 0.0
C1586 C 0.40422 0.53671 0.8493 0.0
C1587 C 0.4438 0.51744 0.90537 0.0
C1588 C 0.43236 0.51618 0.87991 0.0
C1589 C 0.3704 0.51118 0.82901 0.0
C1590 C 0.39544 0.51279 0.84165 0.0
H1591 H 0.48983 0.48821 0.941 0.0
H1592 H 0.47715 0.49357 0.89674 0.0
H1593 H 0.42723 0.55704 0.87588 0.0
H1594 H 0.30874 0.49754 0.84435 0.0
H1595 H 0.35191 0.4959 0.86223 0.0
C1596 C 0.63982 0.72983 0.00904 0.0
C1597 C 0.6557 0.72061 0.98936 0.0
C1598 C 0.61579 0.71904 0.01326 0.0
C1599 C 0.5705 0.67012 0.98847 0.0
H1600 H 0.57529 0.6437 0.05666 0.0
C1601 C 0.52434 0.57509 0.0162 0.0
C1602 C 0.54298 0.55809 0.02602 0.0
C1603 C 0.52915 0.60124 0.01488 0.0
C1604 C 0.57336 0.65115 0.03767 0.0
H1605 H 0.65771 0.69554 0.95673 0.0
H1606 H 0.61607 0.67696 0.96381 0.0
H1607 H 0.59882 0.68158 0.04538 0.0
H1608 H 0.58049 0.55527 0.0436 0.0
H1609 H 0.58884 0.6006 0.04141 0.0
H1610 H 0.54683 0.63822 0.98028 0.0
C1611 C 0.62188 0.6923 0.97619 0.0
C1612 C 0.58662 0.67307 0.03124 0.0
C1613 C 0.6459 0.70284 0.97217 0.0
C1614 C 0.56586 0.56786 0.0357 0.0
C1615 C 0.5705 0.59391 0.03472 0.0
C1616 C 0.55721 0.64816 0.99493 0.0
C1617 C 0.60724 0.69912 0.99767 0.0
C1618 C 0.58659 0.6819 0.00616 0.0
C1619 C 0.55249 0.61084 0.02379 0.0
C1620 C 0.55979 0.63764 0.0192 0.0
H1621 H 0.64689 0.74355 0.02255 0.0
H1622 H 0.60478 0.72495 0.02978 0.0
H1623 H 0.56975 0.67671 0.9691 0.0
H1624 H 0.5065 0.56807 0.0086 0.0
H1625 H 0.51493 0.61386 0.00638 0.0
C1626 C 0.95814 0.83505 0.73447 0.0
C1627 C 0.95224 0.81019 0.74168 0.0
C1628 C 0.94436 0.8559 0.74445 0.0
C1629 C 0.87909 0.87054 0.76504 0.0
H1630 H 0.90578 0.93883 0.77033 0.0
C1631 C 0.81275 0.95942 0.75351 0.0
C1632 C 0.82187 0.97528 0.73432 0.0
C1633 C 0.82914 0.941 0.7645 0.0
C1634 C 0.89798 0.91986 0.76916 0.0
H1635 H 0.92797 0.78732 0.76532 0.0
H1636 H 0.90364 0.82391 0.7831 0.0
H1637 H 0.93522 0.90204 0.77252 0.0
H1638 H 0.85533 0.98547 0.71249 0.0
H1639 H 0.8839 0.95393 0.7317 0.0
H1640 H 0.84206 0.8884 0.76023 0.0
C1641 C 0.91914 0.82736 0.76992 0.0
C1642 C 0.91485 0.89879 0.7704 0.0
C1643 C 0.93323 0.80646 0.76006 0.0
C1644 C 0.84786 0.97348 0.72732 0.0
C1645 C 0.86427 0.95551 0.7385 0.0
C1646 C 0.86221 0.89164 0.76385 0.0
C1647 C 0.92396 0.85227 0.76152 0.0
C1648 C 0.90576 0.87392 0.7671 0.0
C1649 C 0.855 0.93851 0.75668 0.0
C1650 C 0.87163 0.91656 0.76466 0.0
H1651 H 0.97248 0.83827 0.71998 0.0
H1652 H 0.94842 0.87468 0.73723 0.0
H1653 H 0.8714 0.85171 0.76226 0.0
H1654 H 0.7927 0.96011 0.75884 0.0
H1655 H 0.82141 0.92817 0.77844 0.0
C1656 C 0.49906 0.17068 0.68455 0.0
C1657 C 0.49601 0.17964 0.70947 0.0
C1658 C 0.50311 0.14477 0.67968 0.0
C1659 C 0.48675 0.08303 0.70177 0.0
H1660 H 0.53431 0.06187 0.64873 0.0
C1661 C 0.46007 0.0241 0.61858 0.0
C1662 C 0.47928 0.01303 0.60302 0.0
C1663 C 0.46626 0.03388 0.6423 0.0
C1664 C 0.52138 0.06693 0.66414 0.0
H1665 H 0.49511 0.1683 0.74891 0.0
H1666 H 0.50132 0.12261 0.74014 0.0
H1667 H 0.53931 0.10294 0.66936 0.0
H1668 H 0.51845 0.99831 0.60251 0.0
H1669 H 0.52934 0.01561 0.64409 0.0
H1670 H 0.46762 0.04784 0.69519 0.0
C1671 C 0.50087 0.1359 0.72452 0.0
C1672 C 0.52413 0.09066 0.67575 0.0
C1673 C 0.49721 0.16199 0.72947 0.0
C1674 C 0.50359 0.00789 0.61352 0.0
C1675 C 0.50982 0.01772 0.63735 0.0
C1676 C 0.4839 0.05928 0.69005 0.0
C1677 C 0.50394 0.12711 0.69956 0.0
C1678 C 0.50589 0.09955 0.69349 0.0
C1679 C 0.49174 0.03263 0.651 0.0
C1680 C 0.50016 0.05177 0.6699 0.0
H1681 H 0.49853 0.18371 0.66873 0.0
H1682 H 0.50497 0.13844 0.66021 0.0
H1683 H 0.47253 0.08941 0.71554 0.0
H1684 H 0.44083 0.02767 0.6115 0.0
H1685 H 0.45166 0.04496 0.65234 0.0
C1686 C 0.53089 0.33159 0.8101 0.0
C1687 C 0.50834 0.31909 0.80348 0.0
C1688 C 0.52958 0.35415 0.82426 0.0
C1689 C 0.52019 0.40551 0.85096 0.0
H1690 H 0.48607 0.38959 0.9141 0.0
C1691 C 0.55356 0.44643 0.94485 0.0
C1692 C 0.53623 0.45088 0.96486 0.0
C1693 C 0.54542 0.4356 0.92224 0.0
C1694 C 0.49513 0.39483 0.89647 0.0
H1695 H 0.46681 0.32031 0.80571 0.0
H1696 H 0.46446 0.35974 0.83069 0.0
H1697 H 0.47988 0.36253 0.87721 0.0
H1698 H 0.49665 0.44738 0.97676 0.0
H1699 H 0.48212 0.42873 0.937 0.0
H1700 H 0.53588 0.4375 0.87026 0.0
C1701 C 0.48308 0.35245 0.82449 0.0
C1702 C 0.49159 0.37925 0.8753 0.0
C1703 C 0.4844 0.33012 0.80995 0.0
C1704 C 0.51042 0.44434 0.9617 0.0
C1705 C 0.50216 0.43351 0.93891 0.0
C1706 C 0.52342 0.42132 0.87201 0.0
C1707 C 0.5057 0.36413 0.83254 0.0
C1708 C 0.5049 0.38387 0.85267 0.0
C1709 C 0.51963 0.42893 0.91892 0.0
C1710 C 0.51188 0.41549 0.89536 0.0
H1711 H 0.54952 0.32304 0.80574 0.0
H1712 H 0.54733 0.36257 0.83048 0.0
H1713 H 0.53045 0.4096 0.83364 0.0
H1714 H 0.57365 0.45113 0.94668 0.0
H1715 H 0.55965 0.43175 0.90765 0.0
C1716 C 0.51372 0.84416 0.29749 0.0
C1717 C 0.51925 0.82299 0.313 0.0
C1718 C 0.51485 0.86903 0.30721 0.0
C1719 C 0.54453 0.90634 0.35747 0.0
H1720 H 0.48341 0.94994 0.35705 0.0
C1721 C 0.54159 0.9899 0.4238 0.0
C1722 C 0.52044 0.98848 0.44026 0.0
C1723 C 0.5409 0.97823 0.40001 0.0
C1724 C 0.50075 0.93816 0.35704 0.0
H1725 H 0.53125 0.81163 0.35068 0.0
H1726 H 0.53377 0.85475 0.36724 0.0
H1727 H 0.48467 0.91058 0.33175 0.0
H1728 H 0.48118 0.97642 0.44368 0.0
H1729 H 0.47984 0.95593 0.40246 0.0
H1730 H 0.56021 0.93258 0.38376 0.0
C1731 C 0.52829 0.8521 0.34766 0.0
C1732 C 0.50151 0.91574 0.34247 0.0
C1733 C 0.52673 0.82735 0.33815 0.0
C1734 C 0.49755 0.97814 0.43125 0.0
C1735 C 0.49691 0.96621 0.40756 0.0
C1736 C 0.54387 0.9287 0.37183 0.0
C1737 C 0.52219 0.87317 0.3324 0.0
C1738 C 0.52305 0.89917 0.34339 0.0
C1739 C 0.51923 0.96454 0.39249 0.0
C1740 C 0.52164 0.94445 0.37256 0.0
H1741 H 0.50828 0.8416 0.27792 0.0
H1742 H 0.51018 0.88501 0.29505 0.0
H1743 H 0.56145 0.89398 0.35833 0.0
H1744 H 0.55944 0.99797 0.43022 0.0
H1745 H 0.55817 0.97795 0.38851 0.0
C1746 C 0.46556 0.52221 0.10536 0.0
C1747 C 0.47095 0.52623 0.07973 0.0
C1748 C 0.47462 0.53903 0.12373 0.0
C1749 C 0.51745 0.5947 0.13329 0.0
H1750 H 0.46502 0.61594 0.18176 0.0
C1751 C 0.50827 0.69594 0.17279 0.0
C1752 C 0.50266 0.69979 0.19857 0.0
C1753 C 0.50871 0.6715 0.16235 0.0
C1754 C 0.48008 0.6099 0.16873 0.0
H1755 H 0.48922 0.55096 0.05294 0.0
H1756 H 0.50514 0.58036 0.08463 0.0
H1757 H 0.45862 0.57812 0.15583 0.0
H1758 H 0.49349 0.68082 0.23373 0.0
H1759 H 0.49358 0.63783 0.21511 0.0
H1760 H 0.53809 0.62754 0.14522 0.0
C1761 C 0.49486 0.5638 0.09093 0.0
C1762 C 0.47648 0.58816 0.15386 0.0
C1763 C 0.48595 0.54686 0.07268 0.0
C1764 C 0.49775 0.67849 0.21378 0.0
C1765 C 0.49782 0.65393 0.20317 0.0
C1766 C 0.52091 0.61655 0.14799 0.0
C1767 C 0.48879 0.56045 0.11666 0.0
C1768 C 0.49475 0.58075 0.13539 0.0
C1769 C 0.50331 0.65027 0.17733 0.0
C1770 C 0.50189 0.62479 0.16528 0.0
H1771 H 0.4538 0.50643 0.11111 0.0
H1772 H 0.46987 0.53568 0.14336 0.0
H1773 H 0.53216 0.58924 0.11966 0.0
H1774 H 0.5124 0.71183 0.16053 0.0
H1775 H 0.51263 0.6693 0.14231 0.0
loop_
_geom_bond_atom_site_label_1
_geom_bond_atom_site_label_2
_geom_bond_distance
_geom_bond_site_symmetry_2
_ccdc_geom_bond_type
O0 Mn1 2.163 1_656 S
O0 C14 1.244 . S
Mn1 O0 2.163 1_454 S
Mn1 O4 2.160 1_545 S
Mn1 O5 2.221 1_544 S
Mn1 O7 2.163 . S
Mn1 O9 2.160 1_445 S
Mn1 O19 2.221 1_455 S
O2 Mn3 2.087 1_556 S
O2 C14 1.256 . S
Mn3 O2 2.087 1_554 S
Mn3 O10 2.089 1_545 S
Mn3 O19 2.290 . S
Mn3 O20 2.251 . S
O4 Mn1 2.160 1_565 S
O4 C15 1.239 . S
O5 Mn1 2.221 1_566 S
O5 Mn6 2.290 . S
O5 C16 1.278 . S
Mn6 O5 2.290 . S
Mn6 O8 2.089 1_556 S
Mn6 O11 2.251 . S
Mn6 O12 2.087 1_565 S
O7 Mn1 2.163 . S
O7 C17 1.244 1_554 S
O8 Mn6 2.089 1_554 S
O8 C15 1.256 . S
O9 Mn1 2.160 1_665 S
O9 C18 1.239 . S
O10 Mn3 2.089 1_565 S
O10 C18 1.256 . S
O11 Mn6 2.251 . S
O11 C16 1.241 . S
O12 Mn6 2.087 1_545 S
O12 C17 1.256 . S
C13 O19 1.278 . S
C13 O20 1.241 . S
C14 O0 1.244 . S
C14 O2 1.256 . S
C15 O4 1.239 . S
C15 O8 1.256 . S
C16 O5 1.278 . S
C16 O11 1.241 . S
C17 O7 1.244 1_556 S
C17 O12 1.256 . S
C18 O9 1.239 . S
C18 O10 1.256 . S
O19 Mn1 2.221 1_655 S
O19 Mn3 2.290 . S
O19 C13 1.278 . S
O20 Mn3 2.251 . S
O20 C13 1.241 . S
O21 Mn22 2.163 . S
O21 C35 1.244 . S
Mn22 O21 2.163 . S
Mn22 O25 2.160 1_455 S
Mn22 O26 2.221 . S
Mn22 O28 2.163 . S
Mn22 O30 2.160 1_455 S
Mn22 O40 2.221 1_455 S
O23 Mn24 2.087 1_455 S
O23 C35 1.256 . S
Mn24 O23 2.087 1_655 S
Mn24 O31 2.089 . S
Mn24 O40 2.290 . S
Mn24 O41 2.251 . S
O25 Mn22 2.160 1_655 S
O25 C36 1.239 . S
O26 Mn22 2.221 . S
O26 Mn27 2.290 . S
O26 C37 1.278 . S
Mn27 O26 2.290 . S
Mn27 O29 2.089 1_455 S
Mn27 O32 2.251 . S
Mn27 O33 2.087 . S
O28 Mn22 2.163 . S
O28 C38 1.244 . S
O29 Mn27 2.089 1_655 S
O29 C36 1.256 . S
O30 Mn22 2.160 1_655 S
O30 C39 1.239 . S
O31 Mn24 2.089 . S
O31 C39 1.256 . S
O32 Mn27 2.251 . S
O32 C37 1.241 . S
O33 Mn27 2.087 . S
O33 C38 1.256 . S
C34 O40 1.278 . S
C34 O41 1.241 . S
C35 O21 1.244 . S
C35 O23 1.256 . S
C36 O25 1.239 . S
C36 O29 1.256 . S
C37 O26 1.278 . S
C37 O32 1.241 . S
C38 O28 1.244 . S
C38 O33 1.256 . S
C39 O30 1.239 . S
C39 O31 1.256 . S
O40 Mn22 2.221 1_655 S
O40 Mn24 2.290 . S
O40 C34 1.278 . S
O41 Mn24 2.251 . S
O41 C34 1.241 . S
O42 Mn43 2.163 . S
O42 C56 1.244 . S
Mn43 O42 2.163 . S
Mn43 O46 2.160 . S
Mn43 O47 2.221 . S
Mn43 O49 2.163 . S
Mn43 O51 2.160 . S
Mn43 O61 2.221 . S
O44 Mn45 2.087 . S
O44 C56 1.256 . S
Mn45 O44 2.087 . S
Mn45 O52 2.089 . S
Mn45 O61 2.290 . S
Mn45 O62 2.251 . S
O46 Mn43 2.160 . S
O46 C57 1.239 . S
O47 Mn43 2.221 . S
O47 Mn48 2.290 . S
O47 C58 1.278 . S
Mn48 O47 2.290 . S
Mn48 O50 2.089 . S
Mn48 O53 2.251 . S
Mn48 O54 2.087 . S
O49 Mn43 2.163 . S
O49 C59 1.244 . S
O50 Mn48 2.089 . S
O50 C57 1.256 . S
O51 Mn43 2.160 . S
O51 C60 1.239 . S
O52 Mn45 2.089 . S
O52 C60 1.256 . S
O53 Mn48 2.251 . S
O53 C58 1.241 . S
O54 Mn48 2.087 . S
O54 C59 1.256 . S
C55 O61 1.278 . S
C55 O62 1.241 . S
C56 O42 1.244 . S
C56 O44 1.256 . S
C57 O46 1.239 . S
C57 O50 1.256 . S
C58 O47 1.278 . S
C58 O53 1.241 . S
C59 O49 1.244 . S
C59 O54 1.256 . S
C60 O51 1.239 . S
C60 O52 1.256 . S
O61 Mn43 2.221 . S
O61 Mn45 2.290 . S
O61 C55 1.278 . S
O62 Mn45 2.251 . S
O62 C55 1.241 . S
O63 Mn64 2.163 1_565 S
O63 C77 1.244 . S
Mn64 O63 2.163 1_545 S
Mn64 O67 2.160 . S
Mn64 O68 2.221 1_545 S
Mn64 O70 2.163 . S
Mn64 O72 2.160 . S
Mn64 O82 2.221 . S
O65 Mn66 2.087 1_565 S
O65 C77 1.256 . S
Mn66 O65 2.087 1_545 S
Mn66 O73 2.089 . S
Mn66 O82 2.290 . S
Mn66 O83 2.251 . S
O67 Mn64 2.160 . S
O67 C78 1.239 . S
O68 Mn64 2.221 1_565 S
O68 Mn69 2.290 . S
O68 C79 1.278 . S
Mn69 O68 2.290 . S
Mn69 O71 2.089 1_565 S
Mn69 O74 2.251 . S
Mn69 O75 2.087 . S
O70 Mn64 2.163 . S
O70 C80 1.244 1_545 S
O71 Mn69 2.089 1_545 S
O71 C78 1.256 . S
O72 Mn64 2.160 . S
O72 C81 1.239 . S
O73 Mn66 2.089 . S
O73 C81 1.256 . S
O74 Mn69 2.251 . S
O74 C79 1.241 . S
O75 Mn69 2.087 . S
O75 C80 1.256 . S
C76 O82 1.278 . S
C76 O83 1.241 . S
C77 O63 1.244 . S
C77 O65 1.256 . S
C78 O67 1.239 . S
C78 O71 1.256 . S
C79 O68 1.278 . S
C79 O74 1.241 . S
C80 O70 1.244 1_565 S
C80 O75 1.256 . S
C81 O72 1.239 . S
C81 O73 1.256 . S
O82 Mn64 2.221 . S
O82 Mn66 2.290 . S
O82 C76 1.278 . S
O83 Mn66 2.251 . S
O83 C76 1.241 . S
O84 Mn85 2.163 . S
O84 C98 1.244 . S
Mn85 O84 2.163 . S
Mn85 O88 2.160 . S
Mn85 O89 2.221 . S
Mn85 O91 2.163 . S
Mn85 O93 2.160 . S
Mn85 O103 2.221 . S
O86 Mn87 2.087 . S
O86 C98 1.256 . S
Mn87 O86 2.087 . S
Mn87 O94 2.089 . S
Mn87 O103 2.290 . S
Mn87 O104 2.251 . S
O88 Mn85 2.160 . S
O88 C99 1.239 . S
O89 Mn85 2.221 . S
O89 Mn90 2.290 . S
O89 C100 1.278 . S
Mn90 O89 2.290 . S
Mn90 O92 2.089 . S
Mn90 O95 2.251 . S
Mn90 O96 2.087 . S
O91 Mn85 2.163 . S
O91 C101 1.244 . S
O92 Mn90 2.089 . S
O92 C99 1.256 . S
O93 Mn85 2.160 . S
O93 C102 1.239 . S
O94 Mn87 2.089 . S
O94 C102 1.256 . S
O95 Mn90 2.251 . S
O95 C100 1.241 . S
O96 Mn90 2.087 . S
O96 C101 1.256 . S
C97 O103 1.278 . S
C97 O104 1.241 . S
C98 O84 1.244 . S
C98 O86 1.256 . S
C99 O88 1.239 . S
C99 O92 1.256 . S
C100 O89 1.278 . S
C100 O95 1.241 . S
C101 O91 1.244 . S
C101 O96 1.256 . S
C102 O93 1.239 . S
C102 O94 1.256 . S
O103 Mn85 2.221 . S
O103 Mn87 2.290 . S
O103 C97 1.278 . S
O104 Mn87 2.251 . S
O104 C97 1.241 . S
O105 Mn106 2.163 . S
O105 C119 1.244 . S
Mn106 O105 2.163 . S
Mn106 O109 2.160 . S
Mn106 O110 2.221 . S
Mn106 O112 2.163 . S
Mn106 O114 2.160 . S
Mn106 O124 2.221 . S
O107 Mn108 2.087 . S
O107 C119 1.256 . S
Mn108 O107 2.087 . S
Mn108 O115 2.089 . S
Mn108 O124 2.290 . S
Mn108 O125 2.251 . S
O109 Mn106 2.160 . S
O109 C120 1.239 . S
O110 Mn106 2.221 . S
O110 Mn111 2.290 . S
O110 C121 1.278 . S
Mn111 O110 2.290 . S
Mn111 O113 2.089 . S
Mn111 O116 2.251 . S
Mn111 O117 2.087 . S
O112 Mn106 2.163 . S
O112 C122 1.244 . S
O113 Mn111 2.089 . S
O113 C120 1.256 . S
O114 Mn106 2.160 . S
O114 C123 1.239 . S
O115 Mn108 2.089 . S
O115 C123 1.256 . S
O116 Mn111 2.251 . S
O116 C121 1.241 . S
O117 Mn111 2.087 . S
O117 C122 1.256 . S
C118 O124 1.278 . S
C118 O125 1.241 . S
C119 O105 1.244 . S
C119 O107 1.256 . S
C120 O109 1.239 . S
C120 O113 1.256 . S
C121 O110 1.278 . S
C121 O116 1.241 . S
C122 O112 1.244 . S
C122 O117 1.256 . S
C123 O114 1.239 . S
C123 O115 1.256 . S
O124 Mn106 2.221 . S
O124 Mn108 2.290 . S
O124 C118 1.278 . S
O125 Mn108 2.251 . S
O125 C118 1.241 . S
O126 Mn127 2.163 . S
O126 C140 1.244 . S
Mn127 O126 2.163 . S
Mn127 O130 2.160 . S
Mn127 O131 2.221 . S
Mn127 O133 2.163 . S
Mn127 O135 2.160 . S
Mn127 O145 2.221 . S
O128 Mn129 2.087 . S
O128 C140 1.256 . S
Mn129 O128 2.087 . S
Mn129 O136 2.089 . S
Mn129 O145 2.290 . S
Mn129 O146 2.251 . S
O130 Mn127 2.160 . S
O130 C141 1.239 . S
O131 Mn127 2.221 . S
O131 Mn132 2.290 . S
O131 C142 1.278 . S
Mn132 O131 2.290 . S
Mn132 O134 2.089 . S
Mn132 O137 2.251 . S
Mn132 O138 2.087 . S
O133 Mn127 2.163 . S
O133 C143 1.244 . S
O134 Mn132 2.089 . S
O134 C141 1.256 . S
O135 Mn127 2.160 . S
O135 C144 1.239 . S
O136 Mn129 2.089 . S
O136 C144 1.256 . S
O137 Mn132 2.251 . S
O137 C142 1.241 . S
O138 Mn132 2.087 . S
O138 C143 1.256 . S
C139 O145 1.278 . S
C139 O146 1.241 . S
C140 O126 1.244 . S
C140 O128 1.256 . S
C141 O130 1.239 . S
C141 O134 1.256 . S
C142 O131 1.278 . S
C142 O137 1.241 . S
C143 O133 1.244 . S
C143 O138 1.256 . S
C144 O135 1.239 . S
C144 O136 1.256 . S
O145 Mn127 2.221 . S
O145 Mn129 2.290 . S
O145 C139 1.278 . S
O146 Mn129 2.251 . S
O146 C139 1.241 . S
O147 Mn148 2.165 . S
O147 C161 1.238 1_455 S
Mn148 O147 2.165 . S
Mn148 O151 2.160 . S
Mn148 O152 2.221 . S
Mn148 O154 2.163 1_455 S
Mn148 O156 2.160 . S
Mn148 O166 2.221 1_455 S
O149 Mn150 2.087 . S
O149 C161 1.256 . S
Mn150 O149 2.087 . S
Mn150 O157 2.089 1_655 S
Mn150 O166 2.290 . S
Mn150 O167 2.251 . S
O151 Mn148 2.160 . S
O151 C162 1.239 . S
O152 Mn148 2.221 . S
O152 Mn153 2.290 . S
O152 C163 1.278 . S
Mn153 O152 2.290 . S
Mn153 O155 2.089 . S
Mn153 O158 2.251 . S
Mn153 O159 2.087 1_455 S
O154 Mn148 2.163 1_655 S
O154 C164 1.244 . S
O155 Mn153 2.089 . S
O155 C162 1.256 . S
O156 Mn148 2.160 . S
O156 C165 1.239 . S
O157 Mn150 2.089 1_455 S
O157 C165 1.256 . S
O158 Mn153 2.251 . S
O158 C163 1.241 . S
O159 Mn153 2.087 1_655 S
O159 C164 1.256 . S
C160 O166 1.278 . S
C160 O167 1.241 . S
C161 O147 1.238 1_655 S
C161 O149 1.256 . S
C162 O151 1.239 . S
C162 O155 1.256 . S
C163 O152 1.278 . S
C163 O158 1.241 . S
C164 O154 1.244 . S
C164 O159 1.256 . S
C165 O156 1.239 . S
C165 O157 1.256 . S
O166 Mn148 2.221 1_655 S
O166 Mn150 2.290 . S
O166 C160 1.278 . S
O167 Mn150 2.251 . S
O167 C160 1.241 . S
O168 Mn169 2.163 . S
O168 C182 1.244 . S
Mn169 O168 2.163 . S
Mn169 O172 2.160 1_554 S
Mn169 O173 2.221 . S
Mn169 O175 2.163 . S
Mn169 O177 2.160 1_554 S
Mn169 O187 2.221 1_554 S
O170 Mn171 2.087 1_554 S
O170 C182 1.256 . S
Mn171 O170 2.087 1_556 S
Mn171 O178 2.089 . S
Mn171 O187 2.290 . S
Mn171 O188 2.251 . S
O172 Mn169 2.160 1_556 S
O172 C183 1.239 . S
O173 Mn169 2.221 . S
O173 Mn174 2.290 . S
O173 C184 1.278 . S
Mn174 O173 2.290 . S
Mn174 O176 2.089 1_554 S
Mn174 O179 2.251 . S
Mn174 O180 2.087 . S
O175 Mn169 2.163 . S
O175 C185 1.244 . S
O176 Mn174 2.089 1_556 S
O176 C183 1.256 . S
O177 Mn169 2.160 1_556 S
O177 C186 1.239 . S
O178 Mn171 2.089 . S
O178 C186 1.256 . S
O179 Mn174 2.251 . S
O179 C184 1.241 . S
O180 Mn174 2.087 . S
O180 C185 1.256 . S
C181 O187 1.278 . S
C181 O188 1.241 . S
C182 O168 1.244 . S
C182 O170 1.256 . S
C183 O172 1.239 . S
C183 O176 1.256 . S
C184 O173 1.278 . S
C184 O179 1.241 . S
C185 O175 1.244 . S
C185 O180 1.256 . S
C186 O177 1.239 . S
C186 O178 1.256 . S
O187 Mn169 2.221 1_556 S
O187 Mn171 2.290 . S
O187 C181 1.278 . S
O188 Mn171 2.251 . S
O188 C181 1.241 . S
O189 Mn190 2.163 1_565 S
O189 C203 1.244 . S
Mn190 O189 2.163 1_545 S
Mn190 O193 2.160 . S
Mn190 O194 2.221 1_545 S
Mn190 O196 2.163 . S
Mn190 O198 2.160 . S
Mn190 O208 2.221 . S
O191 Mn192 2.087 1_565 S
O191 C203 1.256 . S
Mn192 O191 2.087 1_545 S
Mn192 O199 2.089 . S
Mn192 O208 2.290 . S
Mn192 O209 2.251 . S
O193 Mn190 2.160 . S
O193 C204 1.239 . S
O194 Mn190 2.221 1_565 S
O194 Mn195 2.290 . S
O194 C205 1.278 . S
Mn195 O194 2.290 . S
Mn195 O197 2.089 1_565 S
Mn195 O200 2.251 . S
Mn195 O201 2.087 . S
O196 Mn190 2.163 . S
O196 C206 1.244 1_545 S
O197 Mn195 2.089 1_545 S
O197 C204 1.256 . S
O198 Mn190 2.160 . S
O198 C207 1.239 . S
O199 Mn192 2.089 . S
O199 C207 1.256 . S
O200 Mn195 2.251 . S
O200 C205 1.241 . S
O201 Mn195 2.087 . S
O201 C206 1.256 . S
C202 O208 1.278 . S
C202 O209 1.241 . S
C203 O189 1.244 . S
C203 O191 1.256 . S
C204 O193 1.239 . S
C204 O197 1.256 . S
C205 O194 1.278 . S
C205 O200 1.241 . S
C206 O196 1.244 1_565 S
C206 O201 1.256 . S
C207 O198 1.239 . S
C207 O199 1.256 . S
O208 Mn190 2.221 . S
O208 Mn192 2.290 . S
O208 C202 1.278 . S
O209 Mn192 2.251 . S
O209 C202 1.241 . S
O210 Mn211 2.163 . S
O210 C224 1.244 . S
Mn211 O210 2.163 . S
Mn211 O214 2.160 . S
Mn211 O215 2.221 . S
Mn211 O217 2.163 . S
Mn211 O219 2.160 . S
Mn211 O229 2.221 . S
O212 Mn213 2.087 . S
O212 C224 1.256 . S
Mn213 O212 2.087 . S
Mn213 O220 2.089 . S
Mn213 O229 2.290 . S
Mn213 O230 2.251 . S
O214 Mn211 2.160 . S
O214 C225 1.239 . S
O215 Mn211 2.221 . S
O215 Mn216 2.290 . S
O215 C226 1.278 . S
Mn216 O215 2.290 . S
Mn216 O218 2.089 . S
Mn216 O221 2.251 . S
Mn216 O222 2.087 . S
O217 Mn211 2.163 . S
O217 C227 1.244 . S
O218 Mn216 2.089 . S
O218 C225 1.256 . S
O219 Mn211 2.160 . S
O219 C228 1.239 . S
O220 Mn213 2.089 . S
O220 C228 1.256 . S
O221 Mn216 2.251 . S
O221 C226 1.241 . S
O222 Mn216 2.087 . S
O222 C227 1.256 . S
C223 O229 1.278 . S
C223 O230 1.241 . S
C224 O210 1.244 . S
C224 O212 1.256 . S
C225 O214 1.239 . S
C225 O218 1.256 . S
C226 O215 1.278 . S
C226 O221 1.241 . S
C227 O217 1.244 . S
C227 O222 1.256 . S
C228 O219 1.239 . S
C228 O220 1.256 . S
O229 Mn211 2.221 . S
O229 Mn213 2.290 . S
O229 C223 1.278 . S
O230 Mn213 2.251 . S
O230 C223 1.241 . S
O231 Mn232 2.163 . S
O231 C245 1.244 . S
Mn232 O231 2.163 . S
Mn232 O235 2.160 1_455 S
Mn232 O236 2.221 . S
Mn232 O238 2.163 . S
Mn232 O240 2.160 1_455 S
Mn232 O250 2.221 1_455 S
O233 Mn234 2.087 1_455 S
O233 C245 1.256 . S
Mn234 O233 2.087 1_655 S
Mn234 O241 2.089 . S
Mn234 O250 2.290 . S
Mn234 O251 2.251 . S
O235 Mn232 2.160 1_655 S
O235 C246 1.239 . S
O236 Mn232 2.221 . S
O236 Mn237 2.290 . S
O236 C247 1.278 . S
Mn237 O236 2.290 . S
Mn237 O239 2.089 1_455 S
Mn237 O242 2.251 . S
Mn237 O243 2.087 . S
O238 Mn232 2.163 . S
O238 C248 1.244 . S
O239 Mn237 2.089 1_655 S
O239 C246 1.256 . S
O240 Mn232 2.160 1_655 S
O240 C249 1.239 . S
O241 Mn234 2.089 . S
O241 C249 1.256 . S
O242 Mn237 2.251 . S
O242 C247 1.241 . S
O243 Mn237 2.087 . S
O243 C248 1.256 . S
C244 O250 1.278 . S
C244 O251 1.241 . S
C245 O231 1.244 . S
C245 O233 1.256 . S
C246 O235 1.239 . S
C246 O239 1.256 . S
C247 O236 1.278 . S
C247 O242 1.241 . S
C248 O238 1.244 . S
C248 O243 1.256 . S
C249 O240 1.239 . S
C249 O241 1.256 . S
O250 Mn232 2.221 1_655 S
O250 Mn234 2.290 . S
O250 C244 1.278 . S
O251 Mn234 2.251 . S
O251 C244 1.241 . S
O252 Mn253 2.163 . S
O252 C266 1.244 . S
Mn253 O252 2.163 . S
Mn253 O256 2.160 . S
Mn253 O257 2.221 . S
Mn253 O259 2.163 . S
Mn253 O261 2.160 . S
Mn253 O271 2.221 . S
O254 Mn255 2.087 . S
O254 C266 1.256 . S
Mn255 O254 2.087 . S
Mn255 O262 2.089 . S
Mn255 O271 2.290 . S
Mn255 O272 2.251 . S
O256 Mn253 2.160 . S
O256 C267 1.239 . S
O257 Mn253 2.221 . S
O257 Mn258 2.290 . S
O257 C268 1.278 . S
Mn258 O257 2.290 . S
Mn258 O260 2.089 . S
Mn258 O263 2.251 . S
Mn258 O264 2.087 . S
O259 Mn253 2.163 . S
O259 C269 1.244 . S
O260 Mn258 2.089 . S
O260 C267 1.256 . S
O261 Mn253 2.160 . S
O261 C270 1.239 . S
O262 Mn255 2.089 . S
O262 C270 1.256 . S
O263 Mn258 2.251 . S
O263 C268 1.241 . S
O264 Mn258 2.087 . S
O264 C269 1.256 . S
C265 O271 1.278 . S
C265 O272 1.241 . S
C266 O252 1.244 . S
C266 O254 1.256 . S
C267 O256 1.239 . S
C267 O260 1.256 . S
C268 O257 1.278 . S
C268 O263 1.241 . S
C269 O259 1.244 . S
C269 O264 1.256 . S
C270 O261 1.239 . S
C270 O262 1.256 . S
O271 Mn253 2.221 . S
O271 Mn255 2.290 . S
O271 C265 1.278 . S
O272 Mn255 2.251 . S
O272 C265 1.241 . S
O273 Mn274 2.163 . S
O273 C287 1.244 . S
Mn274 O273 2.163 . S
Mn274 O277 2.160 1_554 S
Mn274 O278 2.221 . S
Mn274 O280 2.163 . S
Mn274 O282 2.160 1_554 S
Mn274 O292 2.221 1_554 S
O275 Mn276 2.087 1_554 S
O275 C287 1.256 . S
Mn276 O275 2.087 1_556 S
Mn276 O283 2.089 . S
Mn276 O292 2.290 . S
Mn276 O293 2.251 . S
O277 Mn274 2.160 1_556 S
O277 C288 1.239 . S
O278 Mn274 2.221 . S
O278 Mn279 2.290 . S
O278 C289 1.278 . S
Mn279 O278 2.290 . S
Mn279 O281 2.089 1_554 S
Mn279 O284 2.251 . S
Mn279 O285 2.087 . S
O280 Mn274 2.163 . S
O280 C290 1.244 . S
O281 Mn279 2.089 1_556 S
O281 C288 1.256 . S
O282 Mn274 2.160 1_556 S
O282 C291 1.239 . S
O283 Mn276 2.089 . S
O283 C291 1.256 . S
O284 Mn279 2.251 . S
O284 C289 1.241 . S
O285 Mn279 2.087 . S
O285 C290 1.256 . S
C286 O292 1.278 . S
C286 O293 1.241 . S
C287 O273 1.244 . S
C287 O275 1.256 . S
C288 O277 1.239 . S
C288 O281 1.256 . S
C289 O278 1.278 . S
C289 O284 1.241 . S
C290 O280 1.244 . S
C290 O285 1.256 . S
C291 O282 1.239 . S
C291 O283 1.256 . S
O292 Mn274 2.221 1_556 S
O292 Mn276 2.290 . S
O292 C286 1.278 . S
O293 Mn276 2.251 . S
O293 C286 1.241 . S
O294 Mn295 2.163 . S
O294 C308 1.244 . S
Mn295 O294 2.163 . S
Mn295 O298 2.160 1_545 S
Mn295 O299 2.221 1_545 S
Mn295 O301 2.163 1_545 S
Mn295 O303 2.160 . S
Mn295 O313 2.221 . S
O296 Mn297 2.087 . S
O296 C308 1.256 . S
Mn297 O296 2.087 . S
Mn297 O304 2.089 . S
Mn297 O313 2.290 . S
Mn297 O314 2.251 . S
O298 Mn295 2.160 1_565 S
O298 C309 1.239 . S
O299 Mn295 2.221 1_565 S
O299 Mn300 2.290 . S
O299 C310 1.278 . S
Mn300 O299 2.290 . S
Mn300 O302 2.089 . S
Mn300 O305 2.251 . S
Mn300 O306 2.087 . S
O301 Mn295 2.163 1_565 S
O301 C311 1.244 . S
O302 Mn300 2.089 . S
O302 C309 1.256 . S
O303 Mn295 2.160 . S
O303 C312 1.239 . S
O304 Mn297 2.089 . S
O304 C312 1.256 . S
O305 Mn300 2.251 . S
O305 C310 1.241 . S
O306 Mn300 2.087 . S
O306 C311 1.256 . S
C307 O313 1.278 . S
C307 O314 1.241 . S
C308 O294 1.244 . S
C308 O296 1.256 . S
C309 O298 1.239 . S
C309 O302 1.256 . S
C310 O299 1.278 . S
C310 O305 1.241 . S
C311 O301 1.244 . S
C311 O306 1.256 . S
C312 O303 1.239 . S
C312 O304 1.256 . S
O313 Mn295 2.221 . S
O313 Mn297 2.290 . S
O313 C307 1.278 . S
O314 Mn297 2.251 . S
O314 C307 1.241 . S
O315 Mn316 2.163 1_556 S
O315 C329 1.244 . S
Mn316 O315 2.163 1_554 S
Mn316 O319 2.160 . S
Mn316 O320 2.221 1_554 S
Mn316 O322 2.163 . S
Mn316 O324 2.160 . S
Mn316 O334 2.221 . S
O317 Mn318 2.087 1_556 S
O317 C329 1.256 . S
Mn318 O317 2.087 1_554 S
Mn318 O325 2.089 . S
Mn318 O334 2.290 . S
Mn318 O335 2.251 . S
O319 Mn316 2.160 . S
O319 C330 1.239 . S
O320 Mn316 2.221 1_556 S
O320 Mn321 2.290 . S
O320 C331 1.278 . S
Mn321 O320 2.290 . S
Mn321 O323 2.089 1_556 S
Mn321 O326 2.251 . S
Mn321 O327 2.087 . S
O322 Mn316 2.163 . S
O322 C332 1.244 1_554 S
O323 Mn321 2.089 1_554 S
O323 C330 1.256 . S
O324 Mn316 2.160 . S
O324 C333 1.239 . S
O325 Mn318 2.089 . S
O325 C333 1.256 . S
O326 Mn321 2.251 . S
O326 C331 1.241 . S
O327 Mn321 2.087 . S
O327 C332 1.256 . S
C328 O334 1.278 . S
C328 O335 1.241 . S
C329 O315 1.244 . S
C329 O317 1.256 . S
C330 O319 1.239 . S
C330 O323 1.256 . S
C331 O320 1.278 . S
C331 O326 1.241 . S
C332 O322 1.244 1_556 S
C332 O327 1.256 . S
C333 O324 1.239 . S
C333 O325 1.256 . S
O334 Mn316 2.221 . S
O334 Mn318 2.290 . S
O334 C328 1.278 . S
O335 Mn318 2.251 . S
O335 C328 1.241 . S
C336 C337 1.349 . S
C336 C338 1.327 . S
C336 H361 0.950 . S
C337 C336 1.349 . S
C337 C353 1.336 1_655 S
C338 C336 1.327 . S
C338 C357 1.429 . S
C338 H362 0.950 . S
C339 C356 1.574 . S
C339 C358 1.368 1_455 S
C339 H363 0.949 . S
H340 C344 0.949 . S
C341 C342 1.354 . S
C341 C343 1.327 1_655 S
C341 H364 0.945 1_655 S
C342 C341 1.354 . S
C342 C354 1.349 . S
C343 C341 1.327 1_455 S
C343 C359 1.427 1_455 S
C343 H365 0.951 . S
C344 H340 0.949 . S
C344 C352 1.574 . S
C344 C360 1.368 . S
H345 C353 0.962 . S
H346 C351 0.968 . S
H347 C352 0.949 . S
H348 C354 0.950 . S
H349 C355 0.950 . S
H350 C356 0.949 . S
C351 H346 0.968 . S
C351 C353 1.327 . S
C351 C357 1.412 1_455 S
C352 C344 1.574 . S
C352 H347 0.949 . S
C352 C358 1.368 . S
C353 C337 1.336 1_455 S
C353 H345 0.962 . S
C353 C351 1.327 . S
C354 C342 1.349 . S
C354 H348 0.950 . S
C354 C355 1.327 . S
C355 H349 0.950 . S
C355 C354 1.327 . S
C355 C359 1.429 . S
C356 C339 1.574 . S
C356 H350 0.949 . S
C356 C360 1.368 1_455 S
C357 C338 1.429 . S
C357 C351 1.412 1_655 S
C357 C358 1.523 . S
C358 C339 1.368 1_655 S
C358 C352 1.368 . S
C358 C357 1.523 . S
C359 C343 1.427 1_655 S
C359 C355 1.429 . S
C359 C360 1.523 . S
C360 C344 1.368 . S
C360 C356 1.368 1_655 S
C360 C359 1.523 . S
H361 C336 0.950 . S
H362 C338 0.950 . S
H363 C339 0.949 . S
H364 C341 0.945 1_455 S
H365 C343 0.951 . S
C366 C367 1.349 . S
C366 C368 1.327 . S
C366 H391 0.950 . S
C367 C366 1.349 . S
C367 C383 1.349 . S
C368 C366 1.327 . S
C368 C387 1.429 . S
C368 H392 0.950 . S
C369 C386 1.574 . S
C369 C388 1.368 . S
C369 H393 0.949 . S
H370 C374 0.949 . S
C371 C372 1.349 . S
C371 C373 1.327 . S
C371 H394 0.950 . S
C372 C371 1.349 . S
C372 C384 1.349 . S
C373 C371 1.327 . S
C373 C389 1.429 . S
C373 H395 0.950 . S
C374 H370 0.949 . S
C374 C382 1.574 . S
C374 C390 1.368 . S
H375 C383 0.950 . S
H376 C381 0.950 . S
H377 C382 0.949 . S
H378 C384 0.950 . S
H379 C385 0.950 . S
H380 C386 0.949 . S
C381 H376 0.950 . S
C381 C383 1.327 . S
C381 C387 1.429 . S
C382 C374 1.574 . S
C382 H377 0.949 . S
C382 C388 1.368 . S
C383 C367 1.349 . S
C383 H375 0.950 . S
C383 C381 1.327 . S
C384 C372 1.349 . S
C384 H378 0.950 . S
C384 C385 1.327 . S
C385 H379 0.950 . S
C385 C384 1.327 . S
C385 C389 1.429 . S
C386 C369 1.574 . S
C386 H380 0.949 . S
C386 C390 1.368 . S
C387 C368 1.429 . S
C387 C381 1.429 . S
C387 C388 1.523 . S
C388 C369 1.368 . S
C388 C382 1.368 . S
C388 C387 1.523 . S
C389 C373 1.429 . S
C389 C385 1.429 . S
C389 C390 1.523 . S
C390 C374 1.368 . S
C390 C386 1.368 . S
C390 C389 1.523 . S
H391 C366 0.950 . S
H392 C368 0.950 . S
H393 C369 0.949 . S
H394 C371 0.950 . S
H395 C373 0.950 . S
C396 C397 1.349 . S
C396 C398 1.327 . S
C396 H421 0.950 . S
C397 C396 1.349 . S
C397 C413 1.349 . S
C398 C396 1.327 . S
C398 C417 1.429 . S
C398 H422 0.950 . S
C399 C416 1.574 . S
C399 C418 1.368 . S
C399 H423 0.949 . S
H400 C404 0.949 . S
C401 C402 1.349 . S
C401 C403 1.327 . S
C401 H424 0.950 . S
C402 C401 1.349 . S
C402 C414 1.349 . S
C403 C401 1.327 . S
C403 C419 1.429 . S
C403 H425 0.950 . S
C404 H400 0.949 . S
C404 C412 1.574 . S
C404 C420 1.368 . S
H405 C413 0.950 . S
H406 C411 0.950 . S
H407 C412 0.949 . S
H408 C414 0.950 . S
H409 C415 0.950 . S
H410 C416 0.949 . S
C411 H406 0.950 . S
C411 C413 1.327 . S
C411 C417 1.429 . S
C412 C404 1.574 . S
C412 H407 0.949 . S
C412 C418 1.368 . S
C413 C397 1.349 . S
C413 H405 0.950 . S
C413 C411 1.327 . S
C414 C402 1.349 . S
C414 H408 0.950 . S
C414 C415 1.327 . S
C415 H409 0.950 . S
C415 C414 1.327 . S
C415 C419 1.429 . S
C416 C399 1.574 . S
C416 H410 0.949 . S
C416 C420 1.368 . S
C417 C398 1.429 . S
C417 C411 1.429 . S
C417 C418 1.523 . S
C418 C399 1.368 . S
C418 C412 1.368 . S
C418 C417 1.523 . S
C419 C403 1.429 . S
C419 C415 1.429 . S
C419 C420 1.523 . S
C420 C404 1.368 . S
C420 C416 1.368 . S
C420 C419 1.523 . S
H421 C396 0.950 . S
H422 C398 0.950 . S
H423 C399 0.949 . S
H424 C401 0.950 . S
H425 C403 0.950 . S
C426 C427 1.349 . S
C426 C428 1.327 . S
C426 H451 0.950 . S
C427 C426 1.349 . S
C427 C443 1.349 . S
C428 C426 1.327 . S
C428 C447 1.429 . S
C428 H452 0.950 . S
C429 C446 1.574 . S
C429 C448 1.368 . S
C429 H453 0.949 1_545 S
H430 C434 0.949 . S
C431 C432 1.349 . S
C431 C433 1.327 . S
C431 H454 0.950 1_545 S
C432 C431 1.349 . S
C432 C444 1.349 . S
C433 C431 1.327 . S
C433 C449 1.429 . S
C433 H455 0.950 1_545 S
C434 H430 0.949 . S
C434 C442 1.574 . S
C434 C450 1.368 . S
H435 C443 0.950 1_565 S
H436 C441 0.950 1_565 S
H437 C442 0.949 . S
H438 C444 0.950 . S
H439 C445 0.950 . S
H440 C446 0.949 1_565 S
C441 H436 0.950 1_545 S
C441 C443 1.327 . S
C441 C447 1.429 . S
C442 C434 1.574 . S
C442 H437 0.949 . S
C442 C448 1.368 . S
C443 C427 1.349 . S
C443 H435 0.950 1_545 S
C443 C441 1.327 . S
C444 C432 1.349 . S
C444 H438 0.950 . S
C444 C445 1.327 . S
C445 H439 0.950 . S
C445 C444 1.327 . S
C445 C449 1.429 . S
C446 C429 1.574 . S
C446 H440 0.949 1_545 S
C446 C450 1.368 . S
C447 C428 1.429 . S
C447 C441 1.429 . S
C447 C448 1.523 . S
C448 C429 1.368 . S
C448 C442 1.368 . S
C448 C447 1.523 . S
C449 C433 1.429 . S
C449 C445 1.429 . S
C449 C450 1.523 . S
C450 C434 1.368 . S
C450 C446 1.368 . S
C450 C449 1.523 . S
H451 C426 0.950 . S
H452 C428 0.950 . S
H453 C429 0.949 1_565 S
H454 C431 0.950 1_565 S
H455 C433 0.950 1_565 S
C456 C457 1.349 1_545 S
C456 C458 1.327 . S
C456 H481 0.950 . S
C457 C456 1.349 1_565 S
C457 C473 1.349 . S
C458 C456 1.327 . S
C458 C477 1.429 1_545 S
C458 H482 0.950 . S
C459 C476 1.574 . S
C459 C478 1.368 . S
C459 H483 0.949 . S
H460 C464 0.949 . S
C461 C462 1.349 . S
C461 C463 1.327 . S
C461 H484 0.950 . S
C462 C461 1.349 . S
C462 C474 1.349 1_565 S
C463 C461 1.327 . S
C463 C479 1.429 . S
C463 H485 0.950 . S
C464 H460 0.949 . S
C464 C472 1.574 . S
C464 C480 1.368 1_545 S
H465 C473 0.950 . S
H466 C471 0.950 . S
H467 C472 0.949 . S
H468 C474 0.950 . S
H469 C475 0.950 . S
H470 C476 0.949 . S
C471 H466 0.950 . S
C471 C473 1.327 . S
C471 C477 1.429 . S
C472 C464 1.574 . S
C472 H467 0.949 . S
C472 C478 1.368 1_545 S
C473 C457 1.349 . S
C473 H465 0.950 . S
C473 C471 1.327 . S
C474 C462 1.349 1_545 S
C474 H468 0.950 . S
C474 C475 1.327 . S
C475 H469 0.950 . S
C475 C474 1.327 . S
C475 C479 1.429 1_545 S
C476 C459 1.574 . S
C476 H470 0.949 . S
C476 C480 1.368 . S
C477 C458 1.429 1_565 S
C477 C471 1.429 . S
C477 C478 1.523 . S
C478 C459 1.368 . S
C478 C472 1.368 1_565 S
C478 C477 1.523 . S
C479 C463 1.429 . S
C479 C475 1.429 1_565 S
C479 C480 1.523 . S
C480 C464 1.368 1_565 S
C480 C476 1.368 . S
C480 C479 1.523 . S
H481 C456 0.950 . S
H482 C458 0.950 . S
H483 C459 0.949 . S
H484 C461 0.950 . S
H485 C463 0.950 . S
C486 C487 1.349 . S
C486 C488 1.327 . S
C486 H511 0.950 . S
C487 C486 1.349 . S
C487 C503 1.349 . S
C488 C486 1.327 . S
C488 C507 1.429 . S
C488 H512 0.950 . S
C489 C506 1.574 . S
C489 C508 1.368 . S
C489 H513 0.949 . S
H490 C494 0.949 . S
C491 C492 1.349 . S
C491 C493 1.327 . S
C491 H514 0.950 . S
C492 C491 1.349 . S
C492 C504 1.349 . S
C493 C491 1.327 . S
C493 C509 1.429 . S
C493 H515 0.950 . S
C494 H490 0.949 . S
C494 C502 1.574 . S
C494 C510 1.368 . S
H495 C503 0.950 . S
H496 C501 0.950 . S
H497 C502 0.949 . S
H498 C504 0.950 . S
H499 C505 0.950 . S
H500 C506 0.949 . S
C501 H496 0.950 . S
C501 C503 1.327 . S
C501 C507 1.429 . S
C502 C494 1.574 . S
C502 H497 0.949 . S
C502 C508 1.368 . S
C503 C487 1.349 . S
C503 H495 0.950 . S
C503 C501 1.327 . S
C504 C492 1.349 . S
C504 H498 0.950 . S
C504 C505 1.327 . S
C505 H499 0.950 . S
C505 C504 1.327 . S
C505 C509 1.429 . S
C506 C489 1.574 . S
C506 H500 0.949 . S
C506 C510 1.368 . S
C507 C488 1.429 . S
C507 C501 1.429 . S
C507 C508 1.523 . S
C508 C489 1.368 . S
C508 C502 1.368 . S
C508 C507 1.523 . S
C509 C493 1.429 . S
C509 C505 1.429 . S
C509 C510 1.523 . S
C510 C494 1.368 . S
C510 C506 1.368 . S
C510 C509 1.523 . S
H511 C486 0.950 . S
H512 C488 0.950 . S
H513 C489 0.949 . S
H514 C491 0.950 . S
H515 C493 0.950 . S
C516 C517 1.349 . S
C516 C518 1.327 . S
C516 H541 0.950 . S
C517 C516 1.349 . S
C517 C533 1.349 . S
C518 C516 1.327 . S
C518 C537 1.429 . S
C518 H542 0.950 . S
C519 C536 1.574 . S
C519 C538 1.368 . S
C519 H543 0.949 . S
H520 C524 0.949 . S
C521 C522 1.349 . S
C521 C523 1.327 . S
C521 H544 0.950 . S
C522 C521 1.349 . S
C522 C534 1.349 . S
C523 C521 1.327 . S
C523 C539 1.429 . S
C523 H545 0.950 . S
C524 H520 0.949 . S
C524 C532 1.574 . S
C524 C540 1.368 . S
H525 C533 0.950 . S
H526 C531 0.950 . S
H527 C532 0.949 . S
H528 C534 0.950 . S
H529 C535 0.950 . S
H530 C536 0.949 . S
C531 H526 0.950 . S
C531 C533 1.327 . S
C531 C537 1.429 . S
C532 C524 1.574 . S
C532 H527 0.949 . S
C532 C538 1.368 . S
C533 C517 1.349 . S
C533 H525 0.950 . S
C533 C531 1.327 . S
C534 C522 1.349 . S
C534 H528 0.950 . S
C534 C535 1.327 . S
C535 H529 0.950 . S
C535 C534 1.327 . S
C535 C539 1.429 . S
C536 C519 1.574 . S
C536 H530 0.949 . S
C536 C540 1.368 . S
C537 C518 1.429 . S
C537 C531 1.429 . S
C537 C538 1.523 . S
C538 C519 1.368 . S
C538 C532 1.368 . S
C538 C537 1.523 . S
C539 C523 1.429 . S
C539 C535 1.429 . S
C539 C540 1.523 . S
C540 C524 1.368 . S
C540 C536 1.368 . S
C540 C539 1.523 . S
H541 C516 0.950 . S
H542 C518 0.950 . S
H543 C519 0.949 . S
H544 C521 0.950 . S
H545 C523 0.950 . S
C546 C547 1.349 . S
C546 C548 1.327 . S
C546 H571 0.950 . S
C547 C546 1.349 . S
C547 C563 1.349 . S
C548 C546 1.327 . S
C548 C567 1.429 . S
C548 H572 0.950 . S
C549 C566 1.574 . S
C549 C568 1.368 . S
C549 H573 0.949 . S
H550 C554 0.949 . S
C551 C552 1.349 . S
C551 C553 1.327 . S
C551 H574 0.950 . S
C552 C551 1.349 . S
C552 C564 1.349 . S
C553 C551 1.327 . S
C553 C569 1.429 . S
C553 H575 0.950 . S
C554 H550 0.949 . S
C554 C562 1.574 . S
C554 C570 1.368 . S
H555 C563 0.950 . S
H556 C561 0.950 . S
H557 C562 0.949 . S
H558 C564 0.950 . S
H559 C565 0.950 . S
H560 C566 0.949 . S
C561 H556 0.950 . S
C561 C563 1.327 . S
C561 C567 1.429 . S
C562 C554 1.574 . S
C562 H557 0.949 . S
C562 C568 1.368 . S
C563 C547 1.349 . S
C563 H555 0.950 . S
C563 C561 1.327 . S
C564 C552 1.349 . S
C564 H558 0.950 . S
C564 C565 1.327 . S
C565 H559 0.950 . S
C565 C564 1.327 . S
C565 C569 1.429 . S
C566 C549 1.574 . S
C566 H560 0.949 . S
C566 C570 1.368 . S
C567 C548 1.429 . S
C567 C561 1.429 . S
C567 C568 1.523 . S
C568 C549 1.368 . S
C568 C562 1.368 . S
C568 C567 1.523 . S
C569 C553 1.429 . S
C569 C565 1.429 . S
C569 C570 1.523 . S
C570 C554 1.368 . S
C570 C566 1.368 . S
C570 C569 1.523 . S
H571 C546 0.950 . S
H572 C548 0.950 . S
H573 C549 0.949 . S
H574 C551 0.950 . S
H575 C553 0.950 . S
C576 C577 1.349 . S
C576 C578 1.327 . S
C576 H601 0.950 . S
C577 C576 1.349 . S
C577 C593 1.349 . S
C578 C576 1.327 . S
C578 C597 1.429 . S
C578 H602 0.950 . S
C579 C596 1.574 . S
C579 C598 1.368 . S
C579 H603 0.949 . S
H580 C584 0.949 . S
C581 C582 1.349 . S
C581 C583 1.327 . S
C581 H604 0.950 . S
C582 C581 1.349 . S
C582 C594 1.349 . S
C583 C581 1.327 . S
C583 C599 1.429 . S
C583 H605 0.950 . S
C584 H580 0.949 . S
C584 C592 1.574 . S
C584 C600 1.368 . S
H585 C593 0.950 . S
H586 C591 0.950 . S
H587 C592 0.949 . S
H588 C594 0.950 . S
H589 C595 0.950 . S
H590 C596 0.949 . S
C591 H586 0.950 . S
C591 C593 1.327 . S
C591 C597 1.429 . S
C592 C584 1.574 . S
C592 H587 0.949 . S
C592 C598 1.368 . S
C593 C577 1.349 . S
C593 H585 0.950 . S
C593 C591 1.327 . S
C594 C582 1.349 . S
C594 H588 0.950 . S
C594 C595 1.327 . S
C595 H589 0.950 . S
C595 C594 1.327 . S
C595 C599 1.429 . S
C596 C579 1.574 . S
C596 H590 0.949 . S
C596 C600 1.368 . S
C597 C578 1.429 . S
C597 C591 1.429 . S
C597 C598 1.523 . S
C598 C579 1.368 . S
C598 C592 1.368 . S
C598 C597 1.523 . S
C599 C583 1.429 . S
C599 C595 1.429 . S
C599 C600 1.523 . S
C600 C584 1.368 . S
C600 C596 1.368 . S
C600 C599 1.523 . S
H601 C576 0.950 . S
H602 C578 0.950 . S
H603 C579 0.949 . S
H604 C581 0.950 . S
H605 C583 0.950 . S
C606 C607 1.349 . S
C606 C608 1.327 . S
C606 H631 0.950 . S
C607 C606 1.349 . S
C607 C623 1.349 . S
C608 C606 1.327 . S
C608 C627 1.429 . S
C608 H632 0.950 . S
C609 C626 1.574 . S
C609 C628 1.368 . S
C609 H633 0.949 . S
H610 C614 0.949 . S
C611 C612 1.349 . S
C611 C613 1.327 . S
C611 H634 0.950 . S
C612 C611 1.349 . S
C612 C624 1.349 . S
C613 C611 1.327 . S
C613 C629 1.429 . S
C613 H635 0.950 . S
C614 H610 0.949 . S
C614 C622 1.574 . S
C614 C630 1.368 . S
H615 C623 0.950 . S
H616 C621 0.950 . S
H617 C622 0.949 . S
H618 C624 0.950 . S
H619 C625 0.950 . S
H620 C626 0.949 . S
C621 H616 0.950 . S
C621 C623 1.327 . S
C621 C627 1.429 . S
C622 C614 1.574 . S
C622 H617 0.949 . S
C622 C628 1.368 . S
C623 C607 1.349 . S
C623 H615 0.950 . S
C623 C621 1.327 . S
C624 C612 1.349 . S
C624 H618 0.950 . S
C624 C625 1.327 . S
C625 H619 0.950 . S
C625 C624 1.327 . S
C625 C629 1.429 . S
C626 C609 1.574 . S
C626 H620 0.949 . S
C626 C630 1.368 . S
C627 C608 1.429 . S
C627 C621 1.429 . S
C627 C628 1.523 . S
C628 C609 1.368 . S
C628 C622 1.368 . S
C628 C627 1.523 . S
C629 C613 1.429 . S
C629 C625 1.429 . S
C629 C630 1.523 . S
C630 C614 1.368 . S
C630 C626 1.368 . S
C630 C629 1.523 . S
H631 C606 0.950 . S
H632 C608 0.950 . S
H633 C609 0.949 . S
H634 C611 0.950 . S
H635 C613 0.950 . S
C636 C637 1.349 1_545 S
C636 C638 1.327 . S
C636 H661 0.950 . S
C637 C636 1.349 1_565 S
C637 C653 1.349 . S
C638 C636 1.327 . S
C638 C657 1.429 1_545 S
C638 H662 0.950 . S
C639 C656 1.574 . S
C639 C658 1.368 . S
C639 H663 0.949 . S
H640 C644 0.949 . S
C641 C642 1.349 . S
C641 C643 1.327 . S
C641 H664 0.950 . S
C642 C641 1.349 . S
C642 C654 1.349 1_565 S
C643 C641 1.327 . S
C643 C659 1.429 . S
C643 H665 0.950 . S
C644 H640 0.949 . S
C644 C652 1.574 . S
C644 C660 1.368 1_545 S
H645 C653 0.950 . S
H646 C651 0.950 . S
H647 C652 0.949 . S
H648 C654 0.950 . S
H649 C655 0.950 . S
H650 C656 0.949 . S
C651 H646 0.950 . S
C651 C653 1.327 . S
C651 C657 1.429 . S
C652 C644 1.574 . S
C652 H647 0.949 . S
C652 C658 1.368 1_545 S
C653 C637 1.349 . S
C653 H645 0.950 . S
C653 C651 1.327 . S
C654 C642 1.349 1_545 S
C654 H648 0.950 . S
C654 C655 1.327 . S
C655 H649 0.950 . S
C655 C654 1.327 . S
C655 C659 1.429 1_545 S
C656 C639 1.574 . S
C656 H650 0.949 . S
C656 C660 1.368 . S
C657 C638 1.429 1_565 S
C657 C651 1.429 . S
C657 C658 1.523 . S
C658 C639 1.368 . S
C658 C652 1.368 1_565 S
C658 C657 1.523 . S
C659 C643 1.429 . S
C659 C655 1.429 1_565 S
C659 C660 1.523 . S
C660 C644 1.368 1_565 S
C660 C656 1.368 . S
C660 C659 1.523 . S
H661 C636 0.950 . S
H662 C638 0.950 . S
H663 C639 0.949 . S
H664 C641 0.950 . S
H665 C643 0.950 . S
C666 C667 1.349 . S
C666 C668 1.327 . S
C666 H691 0.950 1_455 S
C667 C666 1.349 . S
C667 C683 1.349 . S
C668 C666 1.327 . S
C668 C687 1.429 . S
C668 H692 0.950 1_455 S
C669 C686 1.574 . S
C669 C688 1.368 . S
C669 H693 0.949 . S
H670 C674 0.949 1_655 S
C671 C672 1.349 . S
C671 C673 1.327 . S
C671 H694 0.950 . S
C672 C671 1.349 . S
C672 C684 1.349 . S
C673 C671 1.327 . S
C673 C689 1.429 . S
C673 H695 0.950 . S
C674 H670 0.949 1_455 S
C674 C682 1.574 . S
C674 C690 1.368 . S
H675 C683 0.950 . S
H676 C681 0.950 . S
H677 C682 0.949 1_655 S
H678 C684 0.950 1_655 S
H679 C685 0.950 1_655 S
H680 C686 0.949 . S
C681 H676 0.950 . S
C681 C683 1.327 . S
C681 C687 1.429 . S
C682 C674 1.574 . S
C682 H677 0.949 1_455 S
C682 C688 1.368 . S
C683 C667 1.349 . S
C683 H675 0.950 . S
C683 C681 1.327 . S
C684 C672 1.349 . S
C684 H678 0.950 1_455 S
C684 C685 1.327 . S
C685 H679 0.950 1_455 S
C685 C684 1.327 . S
C685 C689 1.429 . S
C686 C669 1.574 . S
C686 H680 0.949 . S
C686 C690 1.368 . S
C687 C668 1.429 . S
C687 C681 1.429 . S
C687 C688 1.523 . S
C688 C669 1.368 . S
C688 C682 1.368 . S
C688 C687 1.523 . S
C689 C673 1.429 . S
C689 C685 1.429 . S
C689 C690 1.523 . S
C690 C674 1.368 . S
C690 C686 1.368 . S
C690 C689 1.523 . S
H691 C666 0.950 1_655 S
H692 C668 0.950 1_655 S
H693 C669 0.949 . S
H694 C671 0.950 . S
H695 C673 0.950 . S
C696 C697 1.349 1_554 S
C696 C698 1.327 . S
C696 H721 0.950 . S
C697 C696 1.349 1_556 S
C697 C713 1.349 . S
C698 C696 1.327 . S
C698 C717 1.429 1_554 S
C698 H722 0.950 . S
C699 C716 1.574 . S
C699 C718 1.368 . S
C699 H723 0.949 . S
H700 C704 0.949 . S
C701 C702 1.349 . S
C701 C703 1.327 . S
C701 H724 0.950 . S
C702 C701 1.349 . S
C702 C714 1.349 1_556 S
C703 C701 1.327 . S
C703 C719 1.429 . S
C703 H725 0.950 . S
C704 H700 0.949 . S
C704 C712 1.574 . S
C704 C720 1.368 1_554 S
H705 C713 0.950 . S
H706 C711 0.950 . S
H707 C712 0.949 . S
H708 C714 0.950 . S
H709 C715 0.950 . S
H710 C716 0.949 . S
C711 H706 0.950 . S
C711 C713 1.327 . S
C711 C717 1.429 . S
C712 C704 1.574 . S
C712 H707 0.949 . S
C712 C718 1.368 1_554 S
C713 C697 1.349 . S
C713 H705 0.950 . S
C713 C711 1.327 . S
C714 C702 1.349 1_554 S
C714 H708 0.950 . S
C714 C715 1.327 . S
C715 H709 0.950 . S
C715 C714 1.327 . S
C715 C719 1.429 1_554 S
C716 C699 1.574 . S
C716 H710 0.949 . S
C716 C720 1.368 . S
C717 C698 1.429 1_556 S
C717 C711 1.429 . S
C717 C718 1.523 . S
C718 C699 1.368 . S
C718 C712 1.368 1_556 S
C718 C717 1.523 . S
C719 C703 1.429 . S
C719 C715 1.429 1_556 S
C719 C720 1.523 . S
C720 C704 1.368 1_556 S
C720 C716 1.368 . S
C720 C719 1.523 . S
H721 C696 0.950 . S
H722 C698 0.950 . S
H723 C699 0.949 . S
H724 C701 0.950 . S
H725 C703 0.950 . S
C726 C727 1.349 . S
C726 C728 1.327 . S
C726 H751 0.950 . S
C727 C726 1.349 . S
C727 C743 1.349 . S
C728 C726 1.327 . S
C728 C747 1.429 . S
C728 H752 0.950 . S
C729 C746 1.574 . S
C729 C748 1.368 . S
C729 H753 0.949 . S
H730 C734 0.949 . S
C731 C732 1.349 . S
C731 C733 1.327 . S
C731 H754 0.950 . S
C732 C731 1.349 . S
C732 C744 1.349 . S
C733 C731 1.327 . S
C733 C749 1.429 . S
C733 H755 0.950 . S
C734 H730 0.949 . S
C734 C742 1.574 . S
C734 C750 1.368 . S
H735 C743 0.950 . S
H736 C741 0.950 . S
H737 C742 0.949 . S
H738 C744 0.950 . S
H739 C745 0.950 . S
H740 C746 0.949 . S
C741 H736 0.950 . S
C741 C743 1.327 . S
C741 C747 1.429 . S
C742 C734 1.574 . S
C742 H737 0.949 . S
C742 C748 1.368 . S
C743 C727 1.349 . S
C743 H735 0.950 . S
C743 C741 1.327 . S
C744 C732 1.349 . S
C744 H738 0.950 . S
C744 C745 1.327 . S
C745 H739 0.950 . S
C745 C744 1.327 . S
C745 C749 1.429 . S
C746 C729 1.574 . S
C746 H740 0.949 . S
C746 C750 1.368 . S
C747 C728 1.429 . S
C747 C741 1.429 . S
C747 C748 1.523 . S
C748 C729 1.368 . S
C748 C742 1.368 . S
C748 C747 1.523 . S
C749 C733 1.429 . S
C749 C745 1.429 . S
C749 C750 1.523 . S
C750 C734 1.368 . S
C750 C746 1.368 . S
C750 C749 1.523 . S
H751 C726 0.950 . S
H752 C728 0.950 . S
H753 C729 0.949 . S
H754 C731 0.950 . S
H755 C733 0.950 . S
C756 C757 1.349 . S
C756 C758 1.327 . S
C756 H781 0.950 . S
C757 C756 1.349 . S
C757 C773 1.349 . S
C758 C756 1.327 . S
C758 C777 1.429 . S
C758 H782 0.950 . S
C759 C776 1.574 . S
C759 C778 1.368 . S
C759 H783 0.949 . S
H760 C764 0.949 . S
C761 C762 1.349 . S
C761 C763 1.327 . S
C761 H784 0.950 . S
C762 C761 1.349 . S
C762 C774 1.349 . S
C763 C761 1.327 . S
C763 C779 1.429 . S
C763 H785 0.950 . S
C764 H760 0.949 . S
C764 C772 1.574 . S
C764 C780 1.368 . S
H765 C773 0.950 . S
H766 C771 0.950 . S
H767 C772 0.949 . S
H768 C774 0.950 . S
H769 C775 0.950 . S
H770 C776 0.949 . S
C771 H766 0.950 . S
C771 C773 1.327 . S
C771 C777 1.429 . S
C772 C764 1.574 . S
C772 H767 0.949 . S
C772 C778 1.368 . S
C773 C757 1.349 . S
C773 H765 0.950 . S
C773 C771 1.327 . S
C774 C762 1.349 . S
C774 H768 0.950 . S
C774 C775 1.327 . S
C775 H769 0.950 . S
C775 C774 1.327 . S
C775 C779 1.429 . S
C776 C759 1.574 . S
C776 H770 0.949 . S
C776 C780 1.368 . S
C777 C758 1.429 . S
C777 C771 1.429 . S
C777 C778 1.523 . S
C778 C759 1.368 . S
C778 C772 1.368 . S
C778 C777 1.523 . S
C779 C763 1.429 . S
C779 C775 1.429 . S
C779 C780 1.523 . S
C780 C764 1.368 . S
C780 C776 1.368 . S
C780 C779 1.523 . S
H781 C756 0.950 . S
H782 C758 0.950 . S
H783 C759 0.949 . S
H784 C761 0.950 . S
H785 C763 0.950 . S
C786 C787 1.349 . S
C786 C788 1.327 . S
C786 H811 0.950 . S
C787 C786 1.349 . S
C787 C803 1.349 . S
C788 C786 1.327 . S
C788 C807 1.429 . S
C788 H812 0.950 . S
C789 C806 1.574 . S
C789 C808 1.368 . S
C789 H813 0.949 . S
H790 C794 0.949 . S
C791 C792 1.349 . S
C791 C793 1.327 . S
C791 H814 0.950 . S
C792 C791 1.349 . S
C792 C804 1.349 . S
C793 C791 1.327 . S
C793 C809 1.429 . S
C793 H815 0.950 . S
C794 H790 0.949 . S
C794 C802 1.574 . S
C794 C810 1.368 . S
H795 C803 0.950 . S
H796 C801 0.950 . S
H797 C802 0.949 . S
H798 C804 0.950 . S
H799 C805 0.950 . S
H800 C806 0.949 . S
C801 H796 0.950 . S
C801 C803 1.327 . S
C801 C807 1.429 . S
C802 C794 1.574 . S
C802 H797 0.949 . S
C802 C808 1.368 . S
C803 C787 1.349 . S
C803 H795 0.950 . S
C803 C801 1.327 . S
C804 C792 1.349 . S
C804 H798 0.950 . S
C804 C805 1.327 . S
C805 H799 0.950 . S
C805 C804 1.327 . S
C805 C809 1.429 . S
C806 C789 1.574 . S
C806 H800 0.949 . S
C806 C810 1.368 . S
C807 C788 1.429 . S
C807 C801 1.429 . S
C807 C808 1.523 . S
C808 C789 1.368 . S
C808 C802 1.368 . S
C808 C807 1.523 . S
C809 C793 1.429 . S
C809 C805 1.429 . S
C809 C810 1.523 . S
C810 C794 1.368 . S
C810 C806 1.368 . S
C810 C809 1.523 . S
H811 C786 0.950 . S
H812 C788 0.950 . S
H813 C789 0.949 . S
H814 C791 0.950 . S
H815 C793 0.950 . S
C816 C817 1.349 . S
C816 C818 1.327 . S
C816 H841 0.950 . S
C817 C816 1.349 . S
C817 C833 1.349 . S
C818 C816 1.327 . S
C818 C837 1.429 . S
C818 H842 0.950 . S
C819 C836 1.574 . S
C819 C838 1.368 . S
C819 H843 0.949 . S
H820 C824 0.949 . S
C821 C822 1.349 . S
C821 C823 1.327 . S
C821 H844 0.950 . S
C822 C821 1.349 . S
C822 C834 1.349 . S
C823 C821 1.327 . S
C823 C839 1.429 . S
C823 H845 0.950 . S
C824 H820 0.949 . S
C824 C832 1.574 . S
C824 C840 1.368 . S
H825 C833 0.950 . S
H826 C831 0.950 . S
H827 C832 0.949 . S
H828 C834 0.950 . S
H829 C835 0.950 . S
H830 C836 0.949 . S
C831 H826 0.950 . S
C831 C833 1.327 . S
C831 C837 1.429 . S
C832 C824 1.574 . S
C832 H827 0.949 . S
C832 C838 1.368 . S
C833 C817 1.349 . S
C833 H825 0.950 . S
C833 C831 1.327 . S
C834 C822 1.349 . S
C834 H828 0.950 . S
C834 C835 1.327 . S
C835 H829 0.950 . S
C835 C834 1.327 . S
C835 C839 1.429 . S
C836 C819 1.574 . S
C836 H830 0.949 . S
C836 C840 1.368 . S
C837 C818 1.429 . S
C837 C831 1.429 . S
C837 C838 1.523 . S
C838 C819 1.368 . S
C838 C832 1.368 . S
C838 C837 1.523 . S
C839 C823 1.429 . S
C839 C835 1.429 . S
C839 C840 1.523 . S
C840 C824 1.368 . S
C840 C836 1.368 . S
C840 C839 1.523 . S
H841 C816 0.950 . S
H842 C818 0.950 . S
H843 C819 0.949 . S
H844 C821 0.950 . S
H845 C823 0.950 . S
C846 C847 1.349 . S
C846 C848 1.327 . S
C846 H871 0.950 . S
C847 C846 1.349 . S
C847 C863 1.349 . S
C848 C846 1.327 . S
C848 C867 1.429 . S
C848 H872 0.950 . S
C849 C866 1.574 . S
C849 C868 1.368 . S
C849 H873 0.949 . S
H850 C854 0.949 . S
C851 C852 1.349 . S
C851 C853 1.327 . S
C851 H874 0.950 . S
C852 C851 1.349 . S
C852 C864 1.349 . S
C853 C851 1.327 . S
C853 C869 1.429 . S
C853 H875 0.950 . S
C854 H850 0.949 . S
C854 C862 1.574 . S
C854 C870 1.368 . S
H855 C863 0.950 . S
H856 C861 0.950 . S
H857 C862 0.949 . S
H858 C864 0.950 . S
H859 C865 0.950 . S
H860 C866 0.949 . S
C861 H856 0.950 . S
C861 C863 1.327 . S
C861 C867 1.429 . S
C862 C854 1.574 . S
C862 H857 0.949 . S
C862 C868 1.368 . S
C863 C847 1.349 . S
C863 H855 0.950 . S
C863 C861 1.327 . S
C864 C852 1.349 . S
C864 H858 0.950 . S
C864 C865 1.327 . S
C865 H859 0.950 . S
C865 C864 1.327 . S
C865 C869 1.429 . S
C866 C849 1.574 . S
C866 H860 0.949 . S
C866 C870 1.368 . S
C867 C848 1.429 . S
C867 C861 1.429 . S
C867 C868 1.523 . S
C868 C849 1.368 . S
C868 C862 1.368 . S
C868 C867 1.523 . S
C869 C853 1.429 . S
C869 C865 1.429 . S
C869 C870 1.523 . S
C870 C854 1.368 . S
C870 C866 1.368 . S
C870 C869 1.523 . S
H871 C846 0.950 . S
H872 C848 0.950 . S
H873 C849 0.949 . S
H874 C851 0.950 . S
H875 C853 0.950 . S
C876 C877 1.349 . S
C876 C878 1.327 . S
C876 H901 0.950 . S
C877 C876 1.349 . S
C877 C893 1.349 . S
C878 C876 1.327 . S
C878 C897 1.429 . S
C878 H902 0.950 . S
C879 C896 1.574 . S
C879 C898 1.368 . S
C879 H903 0.949 . S
H880 C884 0.949 . S
C881 C882 1.349 . S
C881 C883 1.327 . S
C881 H904 0.950 . S
C882 C881 1.349 . S
C882 C894 1.349 . S
C883 C881 1.327 . S
C883 C899 1.429 . S
C883 H905 0.950 . S
C884 H880 0.949 . S
C884 C892 1.574 . S
C884 C900 1.368 . S
H885 C893 0.950 . S
H886 C891 0.950 . S
H887 C892 0.949 . S
H888 C894 0.950 . S
H889 C895 0.950 . S
H890 C896 0.949 . S
C891 H886 0.950 . S
C891 C893 1.327 . S
C891 C897 1.429 . S
C892 C884 1.574 . S
C892 H887 0.949 . S
C892 C898 1.368 . S
C893 C877 1.349 . S
C893 H885 0.950 . S
C893 C891 1.327 . S
C894 C882 1.349 . S
C894 H888 0.950 . S
C894 C895 1.327 . S
C895 H889 0.950 . S
C895 C894 1.327 . S
C895 C899 1.429 . S
C896 C879 1.574 . S
C896 H890 0.949 . S
C896 C900 1.368 . S
C897 C878 1.429 . S
C897 C891 1.429 . S
C897 C898 1.523 . S
C898 C879 1.368 . S
C898 C892 1.368 . S
C898 C897 1.523 . S
C899 C883 1.429 . S
C899 C895 1.429 . S
C899 C900 1.523 . S
C900 C884 1.368 . S
C900 C896 1.368 . S
C900 C899 1.523 . S
H901 C876 0.950 . S
H902 C878 0.950 . S
H903 C879 0.949 . S
H904 C881 0.950 . S
H905 C883 0.950 . S
C906 C907 1.349 . S
C906 C908 1.327 . S
C906 H931 0.950 . S
C907 C906 1.349 . S
C907 C923 1.349 . S
C908 C906 1.327 . S
C908 C927 1.429 . S
C908 H932 0.950 . S
C909 C926 1.574 . S
C909 C928 1.368 . S
C909 H933 0.949 . S
H910 C914 0.949 . S
C911 C912 1.349 . S
C911 C913 1.327 . S
C911 H934 0.950 . S
C912 C911 1.349 . S
C912 C924 1.349 . S
C913 C911 1.327 . S
C913 C929 1.429 . S
C913 H935 0.950 . S
C914 H910 0.949 . S
C914 C922 1.574 . S
C914 C930 1.368 . S
H915 C923 0.950 . S
H916 C921 0.950 . S
H917 C922 0.949 . S
H918 C924 0.950 . S
H919 C925 0.950 . S
H920 C926 0.949 . S
C921 H916 0.950 . S
C921 C923 1.327 . S
C921 C927 1.429 . S
C922 C914 1.574 . S
C922 H917 0.949 . S
C922 C928 1.368 . S
C923 C907 1.349 . S
C923 H915 0.950 . S
C923 C921 1.327 . S
C924 C912 1.349 . S
C924 H918 0.950 . S
C924 C925 1.327 . S
C925 H919 0.950 . S
C925 C924 1.327 . S
C925 C929 1.429 . S
C926 C909 1.574 . S
C926 H920 0.949 . S
C926 C930 1.368 . S
C927 C908 1.429 . S
C927 C921 1.429 . S
C927 C928 1.523 . S
C928 C909 1.368 . S
C928 C922 1.368 . S
C928 C927 1.523 . S
C929 C913 1.429 . S
C929 C925 1.429 . S
C929 C930 1.523 . S
C930 C914 1.368 . S
C930 C926 1.368 . S
C930 C929 1.523 . S
H931 C906 0.950 . S
H932 C908 0.950 . S
H933 C909 0.949 . S
H934 C911 0.950 . S
H935 C913 0.950 . S
C936 C937 1.349 . S
C936 C938 1.327 . S
C936 H961 0.950 . S
C937 C936 1.349 . S
C937 C953 1.349 . S
C938 C936 1.327 . S
C938 C957 1.429 . S
C938 H962 0.950 . S
C939 C956 1.574 . S
C939 C958 1.368 . S
C939 H963 0.949 . S
H940 C944 0.949 . S
C941 C942 1.349 . S
C941 C943 1.327 . S
C941 H964 0.950 . S
C942 C941 1.349 . S
C942 C954 1.349 . S
C943 C941 1.327 . S
C943 C959 1.429 . S
C943 H965 0.950 . S
C944 H940 0.949 . S
C944 C952 1.574 . S
C944 C960 1.368 . S
H945 C953 0.950 . S
H946 C951 0.950 . S
H947 C952 0.949 . S
H948 C954 0.950 . S
H949 C955 0.950 . S
H950 C956 0.949 . S
C951 H946 0.950 . S
C951 C953 1.327 . S
C951 C957 1.429 . S
C952 C944 1.574 . S
C952 H947 0.949 . S
C952 C958 1.368 . S
C953 C937 1.349 . S
C953 H945 0.950 . S
C953 C951 1.327 . S
C954 C942 1.349 . S
C954 H948 0.950 . S
C954 C955 1.327 . S
C955 H949 0.950 . S
C955 C954 1.327 . S
C955 C959 1.429 . S
C956 C939 1.574 . S
C956 H950 0.949 . S
C956 C960 1.368 . S
C957 C938 1.429 . S
C957 C951 1.429 . S
C957 C958 1.523 . S
C958 C939 1.368 . S
C958 C952 1.368 . S
C958 C957 1.523 . S
C959 C943 1.429 . S
C959 C955 1.429 . S
C959 C960 1.523 . S
C960 C944 1.368 . S
C960 C956 1.368 . S
C960 C959 1.523 . S
H961 C936 0.950 . S
H962 C938 0.950 . S
H963 C939 0.949 . S
H964 C941 0.950 . S
H965 C943 0.950 . S
C966 C967 1.349 . S
C966 C968 1.327 . S
C966 H991 0.950 1_655 S
C967 C966 1.349 . S
C967 C983 1.349 . S
C968 C966 1.327 . S
C968 C987 1.429 . S
C968 H992 0.950 1_655 S
C969 C986 1.574 . S
C969 C988 1.368 . S
C969 H993 0.949 . S
H970 C974 0.946 1_455 S
C971 C972 1.349 . S
C971 C973 1.327 . S
C971 H994 0.950 . S
C972 C971 1.349 . S
C972 C984 1.354 . S
C973 C971 1.327 . S
C973 C989 1.429 . S
C973 H995 0.950 . S
C974 H970 0.946 1_655 S
C974 C982 1.574 . S
C974 C990 1.372 . S
H975 C983 0.950 . S
H976 C981 0.950 . S
H977 C982 0.942 1_455 S
H978 C984 0.945 1_455 S
H979 C985 0.945 1_455 S
H980 C986 0.949 . S
C981 H976 0.950 . S
C981 C983 1.327 . S
C981 C987 1.429 . S
C982 C974 1.574 . S
C982 H977 0.942 1_655 S
C982 C988 1.376 . S
C983 C967 1.349 . S
C983 H975 0.950 . S
C983 C981 1.327 . S
C984 C972 1.354 . S
C984 H978 0.945 1_655 S
C984 C985 1.327 . S
C985 H979 0.945 1_655 S
C985 C984 1.327 . S
C985 C989 1.433 . S
C986 C969 1.574 . S
C986 H980 0.949 . S
C986 C990 1.368 . S
C987 C968 1.429 . S
C987 C981 1.429 . S
C987 C988 1.523 . S
C988 C969 1.368 . S
C988 C982 1.376 . S
C988 C987 1.523 . S
C989 C973 1.429 . S
C989 C985 1.433 . S
C989 C990 1.523 . S
C990 C974 1.372 . S
C990 C986 1.368 . S
C990 C989 1.523 . S
H991 C966 0.950 1_455 S
H992 C968 0.950 1_455 S
H993 C969 0.949 . S
H994 C971 0.950 . S
H995 C973 0.950 . S
C996 C997 1.349 . S
C996 C998 1.327 . S
C996 H1021 0.950 . S
C997 C996 1.349 . S
C997 C1013 1.349 . S
C998 C996 1.327 . S
C998 C1017 1.429 . S
C998 H1022 0.950 . S
C999 C1016 1.574 . S
C999 C1018 1.368 . S
C999 H1023 0.949 . S
H1000 C1004 0.949 . S
C1001 C1002 1.349 . S
C1001 C1003 1.327 . S
C1001 H1024 0.950 . S
C1002 C1001 1.349 . S
C1002 C1014 1.349 . S
C1003 C1001 1.327 . S
C1003 C1019 1.429 . S
C1003 H1025 0.950 . S
C1004 H1000 0.949 . S
C1004 C1012 1.574 . S
C1004 C1020 1.368 . S
H1005 C1013 0.950 . S
H1006 C1011 0.950 . S
H1007 C1012 0.949 . S
H1008 C1014 0.950 . S
H1009 C1015 0.950 . S
H1010 C1016 0.949 . S
C1011 H1006 0.950 . S
C1011 C1013 1.327 . S
C1011 C1017 1.429 . S
C1012 C1004 1.574 . S
C1012 H1007 0.949 . S
C1012 C1018 1.368 . S
C1013 C997 1.349 . S
C1013 H1005 0.950 . S
C1013 C1011 1.327 . S
C1014 C1002 1.349 . S
C1014 H1008 0.950 . S
C1014 C1015 1.327 . S
C1015 H1009 0.950 . S
C1015 C1014 1.327 . S
C1015 C1019 1.429 . S
C1016 C999 1.574 . S
C1016 H1010 0.949 . S
C1016 C1020 1.368 . S
C1017 C998 1.429 . S
C1017 C1011 1.429 . S
C1017 C1018 1.523 . S
C1018 C999 1.368 . S
C1018 C1012 1.368 . S
C1018 C1017 1.523 . S
C1019 C1003 1.429 . S
C1019 C1015 1.429 . S
C1019 C1020 1.523 . S
C1020 C1004 1.368 . S
C1020 C1016 1.368 . S
C1020 C1019 1.523 . S
H1021 C996 0.950 . S
H1022 C998 0.950 . S
H1023 C999 0.949 . S
H1024 C1001 0.950 . S
H1025 C1003 0.950 . S
C1026 C1027 1.349 . S
C1026 C1028 1.327 . S
C1026 H1051 0.950 . S
C1027 C1026 1.349 . S
C1027 C1043 1.349 . S
C1028 C1026 1.327 . S
C1028 C1047 1.429 . S
C1028 H1052 0.950 . S
C1029 C1046 1.574 . S
C1029 C1048 1.368 . S
C1029 H1053 0.949 . S
H1030 C1034 0.949 . S
C1031 C1032 1.349 . S
C1031 C1033 1.327 . S
C1031 H1054 0.950 . S
C1032 C1031 1.349 . S
C1032 C1044 1.349 . S
C1033 C1031 1.327 . S
C1033 C1049 1.429 . S
C1033 H1055 0.950 . S
C1034 H1030 0.949 . S
C1034 C1042 1.574 . S
C1034 C1050 1.368 . S
H1035 C1043 0.950 . S
H1036 C1041 0.950 . S
H1037 C1042 0.949 . S
H1038 C1044 0.950 . S
H1039 C1045 0.950 . S
H1040 C1046 0.949 . S
C1041 H1036 0.950 . S
C1041 C1043 1.327 . S
C1041 C1047 1.429 . S
C1042 C1034 1.574 . S
C1042 H1037 0.949 . S
C1042 C1048 1.368 . S
C1043 C1027 1.349 . S
C1043 H1035 0.950 . S
C1043 C1041 1.327 . S
C1044 C1032 1.349 . S
C1044 H1038 0.950 . S
C1044 C1045 1.327 . S
C1045 H1039 0.950 . S
C1045 C1044 1.327 . S
C1045 C1049 1.429 . S
C1046 C1029 1.574 . S
C1046 H1040 0.949 . S
C1046 C1050 1.368 . S
C1047 C1028 1.429 . S
C1047 C1041 1.429 . S
C1047 C1048 1.523 . S
C1048 C1029 1.368 . S
C1048 C1042 1.368 . S
C1048 C1047 1.523 . S
C1049 C1033 1.429 . S
C1049 C1045 1.429 . S
C1049 C1050 1.523 . S
C1050 C1034 1.368 . S
C1050 C1046 1.368 . S
C1050 C1049 1.523 . S
H1051 C1026 0.950 . S
H1052 C1028 0.950 . S
H1053 C1029 0.949 . S
H1054 C1031 0.950 . S
H1055 C1033 0.950 . S
C1056 C1057 1.349 . S
C1056 C1058 1.327 . S
C1056 H1081 0.950 . S
C1057 C1056 1.349 . S
C1057 C1073 1.349 . S
C1058 C1056 1.327 . S
C1058 C1077 1.429 . S
C1058 H1082 0.950 . S
C1059 C1076 1.574 . S
C1059 C1078 1.368 . S
C1059 H1083 0.949 . S
H1060 C1064 0.949 . S
C1061 C1062 1.349 . S
C1061 C1063 1.327 . S
C1061 H1084 0.950 . S
C1062 C1061 1.349 . S
C1062 C1074 1.349 . S
C1063 C1061 1.327 . S
C1063 C1079 1.429 . S
C1063 H1085 0.950 . S
C1064 H1060 0.949 . S
C1064 C1072 1.574 . S
C1064 C1080 1.368 . S
H1065 C1073 0.950 . S
H1066 C1071 0.950 . S
H1067 C1072 0.949 . S
H1068 C1074 0.950 . S
H1069 C1075 0.950 . S
H1070 C1076 0.949 . S
C1071 H1066 0.950 . S
C1071 C1073 1.327 . S
C1071 C1077 1.429 . S
C1072 C1064 1.574 . S
C1072 H1067 0.949 . S
C1072 C1078 1.368 . S
C1073 C1057 1.349 . S
C1073 H1065 0.950 . S
C1073 C1071 1.327 . S
C1074 C1062 1.349 . S
C1074 H1068 0.950 . S
C1074 C1075 1.327 . S
C1075 H1069 0.950 . S
C1075 C1074 1.327 . S
C1075 C1079 1.429 . S
C1076 C1059 1.574 . S
C1076 H1070 0.949 . S
C1076 C1080 1.368 . S
C1077 C1058 1.429 . S
C1077 C1071 1.429 . S
C1077 C1078 1.523 . S
C1078 C1059 1.368 . S
C1078 C1072 1.368 . S
C1078 C1077 1.523 . S
C1079 C1063 1.429 . S
C1079 C1075 1.429 . S
C1079 C1080 1.523 . S
C1080 C1064 1.368 . S
C1080 C1076 1.368 . S
C1080 C1079 1.523 . S
H1081 C1056 0.950 . S
H1082 C1058 0.950 . S
H1083 C1059 0.949 . S
H1084 C1061 0.950 . S
H1085 C1063 0.950 . S
C1086 C1087 1.349 . S
C1086 C1088 1.327 . S
C1086 H1111 0.950 . S
C1087 C1086 1.349 . S
C1087 C1103 1.349 . S
C1088 C1086 1.327 . S
C1088 C1107 1.429 . S
C1088 H1112 0.950 . S
C1089 C1106 1.574 . S
C1089 C1108 1.368 . S
C1089 H1113 0.949 . S
H1090 C1094 0.949 . S
C1091 C1092 1.349 . S
C1091 C1093 1.327 . S
C1091 H1114 0.950 . S
C1092 C1091 1.349 . S
C1092 C1104 1.349 . S
C1093 C1091 1.327 . S
C1093 C1109 1.429 . S
C1093 H1115 0.950 . S
C1094 H1090 0.949 . S
C1094 C1102 1.574 . S
C1094 C1110 1.368 . S
H1095 C1103 0.950 . S
H1096 C1101 0.950 . S
H1097 C1102 0.949 . S
H1098 C1104 0.950 . S
H1099 C1105 0.950 . S
H1100 C1106 0.949 . S
C1101 H1096 0.950 . S
C1101 C1103 1.327 . S
C1101 C1107 1.429 . S
C1102 C1094 1.574 . S
C1102 H1097 0.949 . S
C1102 C1108 1.368 . S
C1103 C1087 1.349 . S
C1103 H1095 0.950 . S
C1103 C1101 1.327 . S
C1104 C1092 1.349 . S
C1104 H1098 0.950 . S
C1104 C1105 1.327 . S
C1105 H1099 0.950 . S
C1105 C1104 1.327 . S
C1105 C1109 1.429 . S
C1106 C1089 1.574 . S
C1106 H1100 0.949 . S
C1106 C1110 1.368 . S
C1107 C1088 1.429 . S
C1107 C1101 1.429 . S
C1107 C1108 1.523 . S
C1108 C1089 1.368 . S
C1108 C1102 1.368 . S
C1108 C1107 1.523 . S
C1109 C1093 1.429 . S
C1109 C1105 1.429 . S
C1109 C1110 1.523 . S
C1110 C1094 1.368 . S
C1110 C1106 1.368 . S
C1110 C1109 1.523 . S
H1111 C1086 0.950 . S
H1112 C1088 0.950 . S
H1113 C1089 0.949 . S
H1114 C1091 0.950 . S
H1115 C1093 0.950 . S
C1116 C1117 1.349 . S
C1116 C1118 1.327 . S
C1116 H1141 0.950 . S
C1117 C1116 1.349 . S
C1117 C1133 1.349 . S
C1118 C1116 1.327 . S
C1118 C1137 1.429 . S
C1118 H1142 0.950 . S
C1119 C1136 1.574 . S
C1119 C1138 1.368 . S
C1119 H1143 0.949 1_545 S
H1120 C1124 0.949 . S
C1121 C1122 1.349 . S
C1121 C1123 1.327 . S
C1121 H1144 0.950 1_545 S
C1122 C1121 1.349 . S
C1122 C1134 1.349 . S
C1123 C1121 1.327 . S
C1123 C1139 1.429 . S
C1123 H1145 0.950 1_545 S
C1124 H1120 0.949 . S
C1124 C1132 1.574 . S
C1124 C1140 1.368 . S
H1125 C1133 0.950 1_565 S
H1126 C1131 0.950 1_565 S
H1127 C1132 0.949 . S
H1128 C1134 0.950 . S
H1129 C1135 0.950 . S
H1130 C1136 0.949 1_565 S
C1131 H1126 0.950 1_545 S
C1131 C1133 1.327 . S
C1131 C1137 1.429 . S
C1132 C1124 1.574 . S
C1132 H1127 0.949 . S
C1132 C1138 1.368 . S
C1133 C1117 1.349 . S
C1133 H1125 0.950 1_545 S
C1133 C1131 1.327 . S
C1134 C1122 1.349 . S
C1134 H1128 0.950 . S
C1134 C1135 1.327 . S
C1135 H1129 0.950 . S
C1135 C1134 1.327 . S
C1135 C1139 1.429 . S
C1136 C1119 1.574 . S
C1136 H1130 0.949 1_545 S
C1136 C1140 1.368 . S
C1137 C1118 1.429 . S
C1137 C1131 1.429 . S
C1137 C1138 1.523 . S
C1138 C1119 1.368 . S
C1138 C1132 1.368 . S
C1138 C1137 1.523 . S
C1139 C1123 1.429 . S
C1139 C1135 1.429 . S
C1139 C1140 1.523 . S
C1140 C1124 1.368 . S
C1140 C1136 1.368 . S
C1140 C1139 1.523 . S
H1141 C1116 0.950 . S
H1142 C1118 0.950 . S
H1143 C1119 0.949 1_565 S
H1144 C1121 0.950 1_565 S
H1145 C1123 0.950 1_565 S
C1146 C1147 1.349 . S
C1146 C1148 1.327 . S
C1146 H1171 0.950 1_554 S
C1147 C1146 1.349 . S
C1147 C1163 1.349 . S
C1148 C1146 1.327 . S
C1148 C1167 1.429 . S
C1148 H1172 0.950 1_554 S
C1149 C1166 1.574 . S
C1149 C1168 1.368 . S
C1149 H1173 0.949 . S
H1150 C1154 0.949 1_556 S
C1151 C1152 1.349 . S
C1151 C1153 1.327 . S
C1151 H1174 0.950 . S
C1152 C1151 1.349 . S
C1152 C1164 1.349 . S
C1153 C1151 1.327 . S
C1153 C1169 1.429 . S
C1153 H1175 0.950 . S
C1154 H1150 0.949 1_554 S
C1154 C1162 1.574 . S
C1154 C1170 1.368 . S
H1155 C1163 0.950 . S
H1156 C1161 0.950 . S
H1157 C1162 0.949 1_556 S
H1158 C1164 0.950 1_556 S
H1159 C1165 0.950 1_556 S
H1160 C1166 0.949 . S
C1161 H1156 0.950 . S
C1161 C1163 1.327 . S
C1161 C1167 1.429 . S
C1162 C1154 1.574 . S
C1162 H1157 0.949 1_554 S
C1162 C1168 1.368 . S
C1163 C1147 1.349 . S
C1163 H1155 0.950 . S
C1163 C1161 1.327 . S
C1164 C1152 1.349 . S
C1164 H1158 0.950 1_554 S
C1164 C1165 1.327 . S
C1165 H1159 0.950 1_554 S
C1165 C1164 1.327 . S
C1165 C1169 1.429 . S
C1166 C1149 1.574 . S
C1166 H1160 0.949 . S
C1166 C1170 1.368 . S
C1167 C1148 1.429 . S
C1167 C1161 1.429 . S
C1167 C1168 1.523 . S
C1168 C1149 1.368 . S
C1168 C1162 1.368 . S
C1168 C1167 1.523 . S
C1169 C1153 1.429 . S
C1169 C1165 1.429 . S
C1169 C1170 1.523 . S
C1170 C1154 1.368 . S
C1170 C1166 1.368 . S
C1170 C1169 1.523 . S
H1171 C1146 0.950 1_556 S
H1172 C1148 0.950 1_556 S
H1173 C1149 0.949 . S
H1174 C1151 0.950 . S
H1175 C1153 0.950 . S
C1176 C1177 1.349 . S
C1176 C1178 1.327 . S
C1176 H1201 0.950 . S
C1177 C1176 1.349 . S
C1177 C1193 1.349 . S
C1178 C1176 1.327 . S
C1178 C1197 1.429 . S
C1178 H1202 0.950 . S
C1179 C1196 1.574 . S
C1179 C1198 1.368 . S
C1179 H1203 0.949 . S
H1180 C1184 0.949 . S
C1181 C1182 1.349 . S
C1181 C1183 1.327 . S
C1181 H1204 0.950 . S
C1182 C1181 1.349 . S
C1182 C1194 1.349 . S
C1183 C1181 1.327 . S
C1183 C1199 1.429 . S
C1183 H1205 0.950 . S
C1184 H1180 0.949 . S
C1184 C1192 1.574 . S
C1184 C1200 1.368 . S
H1185 C1193 0.950 . S
H1186 C1191 0.950 . S
H1187 C1192 0.949 . S
H1188 C1194 0.950 . S
H1189 C1195 0.950 . S
H1190 C1196 0.949 . S
C1191 H1186 0.950 . S
C1191 C1193 1.327 . S
C1191 C1197 1.429 . S
C1192 C1184 1.574 . S
C1192 H1187 0.949 . S
C1192 C1198 1.368 . S
C1193 C1177 1.349 . S
C1193 H1185 0.950 . S
C1193 C1191 1.327 . S
C1194 C1182 1.349 . S
C1194 H1188 0.950 . S
C1194 C1195 1.327 . S
C1195 H1189 0.950 . S
C1195 C1194 1.327 . S
C1195 C1199 1.429 . S
C1196 C1179 1.574 . S
C1196 H1190 0.949 . S
C1196 C1200 1.368 . S
C1197 C1178 1.429 . S
C1197 C1191 1.429 . S
C1197 C1198 1.523 . S
C1198 C1179 1.368 . S
C1198 C1192 1.368 . S
C1198 C1197 1.523 . S
C1199 C1183 1.429 . S
C1199 C1195 1.429 . S
C1199 C1200 1.523 . S
C1200 C1184 1.368 . S
C1200 C1196 1.368 . S
C1200 C1199 1.523 . S
H1201 C1176 0.950 . S
H1202 C1178 0.950 . S
H1203 C1179 0.949 . S
H1204 C1181 0.950 . S
H1205 C1183 0.950 . S
C1206 C1207 1.349 . S
C1206 C1208 1.327 . S
C1206 H1231 0.950 . S
C1207 C1206 1.349 . S
C1207 C1223 1.349 . S
C1208 C1206 1.327 . S
C1208 C1227 1.429 . S
C1208 H1232 0.950 . S
C1209 C1226 1.574 . S
C1209 C1228 1.368 . S
C1209 H1233 0.949 . S
H1210 C1214 0.949 . S
C1211 C1212 1.349 . S
C1211 C1213 1.327 . S
C1211 H1234 0.950 . S
C1212 C1211 1.349 . S
C1212 C1224 1.349 . S
C1213 C1211 1.327 . S
C1213 C1229 1.429 . S
C1213 H1235 0.950 . S
C1214 H1210 0.949 . S
C1214 C1222 1.574 . S
C1214 C1230 1.368 . S
H1215 C1223 0.950 . S
H1216 C1221 0.950 . S
H1217 C1222 0.949 . S
H1218 C1224 0.950 . S
H1219 C1225 0.950 . S
H1220 C1226 0.949 . S
C1221 H1216 0.950 . S
C1221 C1223 1.327 . S
C1221 C1227 1.429 . S
C1222 C1214 1.574 . S
C1222 H1217 0.949 . S
C1222 C1228 1.368 . S
C1223 C1207 1.349 . S
C1223 H1215 0.950 . S
C1223 C1221 1.327 . S
C1224 C1212 1.349 . S
C1224 H1218 0.950 . S
C1224 C1225 1.327 . S
C1225 H1219 0.950 . S
C1225 C1224 1.327 . S
C1225 C1229 1.429 . S
C1226 C1209 1.574 . S
C1226 H1220 0.949 . S
C1226 C1230 1.368 . S
C1227 C1208 1.429 . S
C1227 C1221 1.429 . S
C1227 C1228 1.523 . S
C1228 C1209 1.368 . S
C1228 C1222 1.368 . S
C1228 C1227 1.523 . S
C1229 C1213 1.429 . S
C1229 C1225 1.429 . S
C1229 C1230 1.523 . S
C1230 C1214 1.368 . S
C1230 C1226 1.368 . S
C1230 C1229 1.523 . S
H1231 C1206 0.950 . S
H1232 C1208 0.950 . S
H1233 C1209 0.949 . S
H1234 C1211 0.950 . S
H1235 C1213 0.950 . S
C1236 C1237 1.349 . S
C1236 C1238 1.327 . S
C1236 H1261 0.950 . S
C1237 C1236 1.349 . S
C1237 C1253 1.349 . S
C1238 C1236 1.327 . S
C1238 C1257 1.429 . S
C1238 H1262 0.950 . S
C1239 C1256 1.574 . S
C1239 C1258 1.368 . S
C1239 H1263 0.949 . S
H1240 C1244 0.949 . S
C1241 C1242 1.349 . S
C1241 C1243 1.327 . S
C1241 H1264 0.950 . S
C1242 C1241 1.349 . S
C1242 C1254 1.349 . S
C1243 C1241 1.327 . S
C1243 C1259 1.429 . S
C1243 H1265 0.950 . S
C1244 H1240 0.949 . S
C1244 C1252 1.574 . S
C1244 C1260 1.368 . S
H1245 C1253 0.950 . S
H1246 C1251 0.950 . S
H1247 C1252 0.949 . S
H1248 C1254 0.950 . S
H1249 C1255 0.950 . S
H1250 C1256 0.949 . S
C1251 H1246 0.950 . S
C1251 C1253 1.327 . S
C1251 C1257 1.429 . S
C1252 C1244 1.574 . S
C1252 H1247 0.949 . S
C1252 C1258 1.368 . S
C1253 C1237 1.349 . S
C1253 H1245 0.950 . S
C1253 C1251 1.327 . S
C1254 C1242 1.349 . S
C1254 H1248 0.950 . S
C1254 C1255 1.327 . S
C1255 H1249 0.950 . S
C1255 C1254 1.327 . S
C1255 C1259 1.429 . S
C1256 C1239 1.574 . S
C1256 H1250 0.949 . S
C1256 C1260 1.368 . S
C1257 C1238 1.429 . S
C1257 C1251 1.429 . S
C1257 C1258 1.523 . S
C1258 C1239 1.368 . S
C1258 C1252 1.368 . S
C1258 C1257 1.523 . S
C1259 C1243 1.429 . S
C1259 C1255 1.429 . S
C1259 C1260 1.523 . S
C1260 C1244 1.368 . S
C1260 C1256 1.368 . S
C1260 C1259 1.523 . S
H1261 C1236 0.950 . S
H1262 C1238 0.950 . S
H1263 C1239 0.949 . S
H1264 C1241 0.950 . S
H1265 C1243 0.950 . S
C1266 C1267 1.349 . S
C1266 C1268 1.327 . S
C1266 H1291 0.950 . S
C1267 C1266 1.349 . S
C1267 C1283 1.349 . S
C1268 C1266 1.327 . S
C1268 C1287 1.429 . S
C1268 H1292 0.950 . S
C1269 C1286 1.574 . S
C1269 C1288 1.368 . S
C1269 H1293 0.949 . S
H1270 C1274 0.949 . S
C1271 C1272 1.349 . S
C1271 C1273 1.327 . S
C1271 H1294 0.950 . S
C1272 C1271 1.349 . S
C1272 C1284 1.349 . S
C1273 C1271 1.327 . S
C1273 C1289 1.429 . S
C1273 H1295 0.950 . S
C1274 H1270 0.949 . S
C1274 C1282 1.574 . S
C1274 C1290 1.368 . S
H1275 C1283 0.950 . S
H1276 C1281 0.950 . S
H1277 C1282 0.949 . S
H1278 C1284 0.950 . S
H1279 C1285 0.950 . S
H1280 C1286 0.949 . S
C1281 H1276 0.950 . S
C1281 C1283 1.327 . S
C1281 C1287 1.429 . S
C1282 C1274 1.574 . S
C1282 H1277 0.949 . S
C1282 C1288 1.368 . S
C1283 C1267 1.349 . S
C1283 H1275 0.950 . S
C1283 C1281 1.327 . S
C1284 C1272 1.349 . S
C1284 H1278 0.950 . S
C1284 C1285 1.327 . S
C1285 H1279 0.950 . S
C1285 C1284 1.327 . S
C1285 C1289 1.429 . S
C1286 C1269 1.574 . S
C1286 H1280 0.949 . S
C1286 C1290 1.368 . S
C1287 C1268 1.429 . S
C1287 C1281 1.429 . S
C1287 C1288 1.523 . S
C1288 C1269 1.368 . S
C1288 C1282 1.368 . S
C1288 C1287 1.523 . S
C1289 C1273 1.429 . S
C1289 C1285 1.429 . S
C1289 C1290 1.523 . S
C1290 C1274 1.368 . S
C1290 C1286 1.368 . S
C1290 C1289 1.523 . S
H1291 C1266 0.950 . S
H1292 C1268 0.950 . S
H1293 C1269 0.949 . S
H1294 C1271 0.950 . S
H1295 C1273 0.950 . S
C1296 C1297 1.349 . S
C1296 C1298 1.327 . S
C1296 H1321 0.950 . S
C1297 C1296 1.349 . S
C1297 C1313 1.349 . S
C1298 C1296 1.327 . S
C1298 C1317 1.429 . S
C1298 H1322 0.950 . S
C1299 C1316 1.574 . S
C1299 C1318 1.368 . S
C1299 H1323 0.949 . S
H1300 C1304 0.949 . S
C1301 C1302 1.349 . S
C1301 C1303 1.327 . S
C1301 H1324 0.950 . S
C1302 C1301 1.349 . S
C1302 C1314 1.349 . S
C1303 C1301 1.327 . S
C1303 C1319 1.429 . S
C1303 H1325 0.950 . S
C1304 H1300 0.949 . S
C1304 C1312 1.574 . S
C1304 C1320 1.368 . S
H1305 C1313 0.950 . S
H1306 C1311 0.950 . S
H1307 C1312 0.949 . S
H1308 C1314 0.950 . S
H1309 C1315 0.950 . S
H1310 C1316 0.949 . S
C1311 H1306 0.950 . S
C1311 C1313 1.327 . S
C1311 C1317 1.429 . S
C1312 C1304 1.574 . S
C1312 H1307 0.949 . S
C1312 C1318 1.368 . S
C1313 C1297 1.349 . S
C1313 H1305 0.950 . S
C1313 C1311 1.327 . S
C1314 C1302 1.349 . S
C1314 H1308 0.950 . S
C1314 C1315 1.327 . S
C1315 H1309 0.950 . S
C1315 C1314 1.327 . S
C1315 C1319 1.429 . S
C1316 C1299 1.574 . S
C1316 H1310 0.949 . S
C1316 C1320 1.368 . S
C1317 C1298 1.429 . S
C1317 C1311 1.429 . S
C1317 C1318 1.523 . S
C1318 C1299 1.368 . S
C1318 C1312 1.368 . S
C1318 C1317 1.523 . S
C1319 C1303 1.429 . S
C1319 C1315 1.429 . S
C1319 C1320 1.523 . S
C1320 C1304 1.368 . S
C1320 C1316 1.368 . S
C1320 C1319 1.523 . S
H1321 C1296 0.950 . S
H1322 C1298 0.950 . S
H1323 C1299 0.949 . S
H1324 C1301 0.950 . S
H1325 C1303 0.950 . S
C1326 C1327 1.349 . S
C1326 C1328 1.327 . S
C1326 H1351 0.950 . S
C1327 C1326 1.349 . S
C1327 C1343 1.349 . S
C1328 C1326 1.327 . S
C1328 C1347 1.429 . S
C1328 H1352 0.950 . S
C1329 C1346 1.574 . S
C1329 C1348 1.368 . S
C1329 H1353 0.949 . S
H1330 C1334 0.949 . S
C1331 C1332 1.349 . S
C1331 C1333 1.327 . S
C1331 H1354 0.950 . S
C1332 C1331 1.349 . S
C1332 C1344 1.349 . S
C1333 C1331 1.327 . S
C1333 C1349 1.429 . S
C1333 H1355 0.950 . S
C1334 H1330 0.949 . S
C1334 C1342 1.574 . S
C1334 C1350 1.368 . S
H1335 C1343 0.950 . S
H1336 C1341 0.950 . S
H1337 C1342 0.949 . S
H1338 C1344 0.950 . S
H1339 C1345 0.950 . S
H1340 C1346 0.949 . S
C1341 H1336 0.950 . S
C1341 C1343 1.327 . S
C1341 C1347 1.429 . S
C1342 C1334 1.574 . S
C1342 H1337 0.949 . S
C1342 C1348 1.368 . S
C1343 C1327 1.349 . S
C1343 H1335 0.950 . S
C1343 C1341 1.327 . S
C1344 C1332 1.349 . S
C1344 H1338 0.950 . S
C1344 C1345 1.327 . S
C1345 H1339 0.950 . S
C1345 C1344 1.327 . S
C1345 C1349 1.429 . S
C1346 C1329 1.574 . S
C1346 H1340 0.949 . S
C1346 C1350 1.368 . S
C1347 C1328 1.429 . S
C1347 C1341 1.429 . S
C1347 C1348 1.523 . S
C1348 C1329 1.368 . S
C1348 C1342 1.368 . S
C1348 C1347 1.523 . S
C1349 C1333 1.429 . S
C1349 C1345 1.429 . S
C1349 C1350 1.523 . S
C1350 C1334 1.368 . S
C1350 C1346 1.368 . S
C1350 C1349 1.523 . S
H1351 C1326 0.950 . S
H1352 C1328 0.950 . S
H1353 C1329 0.949 . S
H1354 C1331 0.950 . S
H1355 C1333 0.950 . S
C1356 C1357 1.349 . S
C1356 C1358 1.327 . S
C1356 H1381 0.950 . S
C1357 C1356 1.349 . S
C1357 C1373 1.349 . S
C1358 C1356 1.327 . S
C1358 C1377 1.429 . S
C1358 H1382 0.950 . S
C1359 C1376 1.574 . S
C1359 C1378 1.368 . S
C1359 H1383 0.949 . S
H1360 C1364 0.949 . S
C1361 C1362 1.349 . S
C1361 C1363 1.327 . S
C1361 H1384 0.950 . S
C1362 C1361 1.349 . S
C1362 C1374 1.349 . S
C1363 C1361 1.327 . S
C1363 C1379 1.429 . S
C1363 H1385 0.950 . S
C1364 H1360 0.949 . S
C1364 C1372 1.574 . S
C1364 C1380 1.368 . S
H1365 C1373 0.950 . S
H1366 C1371 0.950 . S
H1367 C1372 0.949 . S
H1368 C1374 0.950 . S
H1369 C1375 0.950 . S
H1370 C1376 0.949 . S
C1371 H1366 0.950 . S
C1371 C1373 1.327 . S
C1371 C1377 1.429 . S
C1372 C1364 1.574 . S
C1372 H1367 0.949 . S
C1372 C1378 1.368 . S
C1373 C1357 1.349 . S
C1373 H1365 0.950 . S
C1373 C1371 1.327 . S
C1374 C1362 1.349 . S
C1374 H1368 0.950 . S
C1374 C1375 1.327 . S
C1375 H1369 0.950 . S
C1375 C1374 1.327 . S
C1375 C1379 1.429 . S
C1376 C1359 1.574 . S
C1376 H1370 0.949 . S
C1376 C1380 1.368 . S
C1377 C1358 1.429 . S
C1377 C1371 1.429 . S
C1377 C1378 1.523 . S
C1378 C1359 1.368 . S
C1378 C1372 1.368 . S
C1378 C1377 1.523 . S
C1379 C1363 1.429 . S
C1379 C1375 1.429 . S
C1379 C1380 1.523 . S
C1380 C1364 1.368 . S
C1380 C1376 1.368 . S
C1380 C1379 1.523 . S
H1381 C1356 0.950 . S
H1382 C1358 0.950 . S
H1383 C1359 0.949 . S
H1384 C1361 0.950 . S
H1385 C1363 0.950 . S
C1386 C1387 1.349 . S
C1386 C1388 1.327 . S
C1386 H1411 0.950 . S
C1387 C1386 1.349 . S
C1387 C1403 1.349 . S
C1388 C1386 1.327 . S
C1388 C1407 1.429 . S
C1388 H1412 0.950 . S
C1389 C1406 1.574 . S
C1389 C1408 1.368 . S
C1389 H1413 0.949 . S
H1390 C1394 0.949 . S
C1391 C1392 1.349 . S
C1391 C1393 1.327 . S
C1391 H1414 0.950 . S
C1392 C1391 1.349 . S
C1392 C1404 1.349 . S
C1393 C1391 1.327 . S
C1393 C1409 1.429 . S
C1393 H1415 0.950 . S
C1394 H1390 0.949 . S
C1394 C1402 1.574 . S
C1394 C1410 1.368 . S
H1395 C1403 0.950 . S
H1396 C1401 0.950 . S
H1397 C1402 0.949 . S
H1398 C1404 0.950 . S
H1399 C1405 0.950 . S
H1400 C1406 0.949 . S
C1401 H1396 0.950 . S
C1401 C1403 1.327 . S
C1401 C1407 1.429 . S
C1402 C1394 1.574 . S
C1402 H1397 0.949 . S
C1402 C1408 1.368 . S
C1403 C1387 1.349 . S
C1403 H1395 0.950 . S
C1403 C1401 1.327 . S
C1404 C1392 1.349 . S
C1404 H1398 0.950 . S
C1404 C1405 1.327 . S
C1405 H1399 0.950 . S
C1405 C1404 1.327 . S
C1405 C1409 1.429 . S
C1406 C1389 1.574 . S
C1406 H1400 0.949 . S
C1406 C1410 1.368 . S
C1407 C1388 1.429 . S
C1407 C1401 1.429 . S
C1407 C1408 1.523 . S
C1408 C1389 1.368 . S
C1408 C1402 1.368 . S
C1408 C1407 1.523 . S
C1409 C1393 1.429 . S
C1409 C1405 1.429 . S
C1409 C1410 1.523 . S
C1410 C1394 1.368 . S
C1410 C1406 1.368 . S
C1410 C1409 1.523 . S
H1411 C1386 0.950 . S
H1412 C1388 0.950 . S
H1413 C1389 0.949 . S
H1414 C1391 0.950 . S
H1415 C1393 0.950 . S
C1416 C1417 1.349 . S
C1416 C1418 1.327 . S
C1416 H1441 0.950 . S
C1417 C1416 1.349 . S
C1417 C1433 1.349 . S
C1418 C1416 1.327 . S
C1418 C1437 1.429 . S
C1418 H1442 0.950 . S
C1419 C1436 1.574 . S
C1419 C1438 1.368 . S
C1419 H1443 0.949 . S
H1420 C1424 0.949 . S
C1421 C1422 1.349 . S
C1421 C1423 1.327 . S
C1421 H1444 0.950 . S
C1422 C1421 1.349 . S
C1422 C1434 1.349 . S
C1423 C1421 1.327 . S
C1423 C1439 1.429 . S
C1423 H1445 0.950 . S
C1424 H1420 0.949 . S
C1424 C1432 1.574 . S
C1424 C1440 1.368 . S
H1425 C1433 0.950 . S
H1426 C1431 0.950 . S
H1427 C1432 0.949 . S
H1428 C1434 0.950 . S
H1429 C1435 0.950 . S
H1430 C1436 0.949 . S
C1431 H1426 0.950 . S
C1431 C1433 1.327 . S
C1431 C1437 1.429 . S
C1432 C1424 1.574 . S
C1432 H1427 0.949 . S
C1432 C1438 1.368 . S
C1433 C1417 1.349 . S
C1433 H1425 0.950 . S
C1433 C1431 1.327 . S
C1434 C1422 1.349 . S
C1434 H1428 0.950 . S
C1434 C1435 1.327 . S
C1435 H1429 0.950 . S
C1435 C1434 1.327 . S
C1435 C1439 1.429 . S
C1436 C1419 1.574 . S
C1436 H1430 0.949 . S
C1436 C1440 1.368 . S
C1437 C1418 1.429 . S
C1437 C1431 1.429 . S
C1437 C1438 1.523 . S
C1438 C1419 1.368 . S
C1438 C1432 1.368 . S
C1438 C1437 1.523 . S
C1439 C1423 1.429 . S
C1439 C1435 1.429 . S
C1439 C1440 1.523 . S
C1440 C1424 1.368 . S
C1440 C1436 1.368 . S
C1440 C1439 1.523 . S
H1441 C1416 0.950 . S
H1442 C1418 0.950 . S
H1443 C1419 0.949 . S
H1444 C1421 0.950 . S
H1445 C1423 0.950 . S
C1446 C1447 1.349 . S
C1446 C1448 1.327 . S
C1446 H1471 0.950 . S
C1447 C1446 1.349 . S
C1447 C1463 1.349 . S
C1448 C1446 1.327 . S
C1448 C1467 1.429 . S
C1448 H1472 0.950 . S
C1449 C1466 1.574 . S
C1449 C1468 1.368 . S
C1449 H1473 0.949 1_554 S
H1450 C1454 0.949 . S
C1451 C1452 1.349 . S
C1451 C1453 1.327 . S
C1451 H1474 0.950 1_554 S
C1452 C1451 1.349 . S
C1452 C1464 1.349 . S
C1453 C1451 1.327 . S
C1453 C1469 1.429 . S
C1453 H1475 0.950 1_554 S
C1454 H1450 0.949 . S
C1454 C1462 1.574 . S
C1454 C1470 1.368 . S
H1455 C1463 0.950 1_556 S
H1456 C1461 0.950 1_556 S
H1457 C1462 0.949 . S
H1458 C1464 0.950 . S
H1459 C1465 0.950 . S
H1460 C1466 0.949 1_556 S
C1461 H1456 0.950 1_554 S
C1461 C1463 1.327 . S
C1461 C1467 1.429 . S
C1462 C1454 1.574 . S
C1462 H1457 0.949 . S
C1462 C1468 1.368 . S
C1463 C1447 1.349 . S
C1463 H1455 0.950 1_554 S
C1463 C1461 1.327 . S
C1464 C1452 1.349 . S
C1464 H1458 0.950 . S
C1464 C1465 1.327 . S
C1465 H1459 0.950 . S
C1465 C1464 1.327 . S
C1465 C1469 1.429 . S
C1466 C1449 1.574 . S
C1466 H1460 0.949 1_554 S
C1466 C1470 1.368 . S
C1467 C1448 1.429 . S
C1467 C1461 1.429 . S
C1467 C1468 1.523 . S
C1468 C1449 1.368 . S
C1468 C1462 1.368 . S
C1468 C1467 1.523 . S
C1469 C1453 1.429 . S
C1469 C1465 1.429 . S
C1469 C1470 1.523 . S
C1470 C1454 1.368 . S
C1470 C1466 1.368 . S
C1470 C1469 1.523 . S
H1471 C1446 0.950 . S
H1472 C1448 0.950 . S
H1473 C1449 0.949 1_556 S
H1474 C1451 0.950 1_556 S
H1475 C1453 0.950 1_556 S
C1476 C1477 1.349 . S
C1476 C1478 1.327 . S
C1476 H1501 0.950 . S
C1477 C1476 1.349 . S
C1477 C1493 1.349 . S
C1478 C1476 1.327 . S
C1478 C1497 1.429 . S
C1478 H1502 0.950 . S
C1479 C1496 1.574 . S
C1479 C1498 1.368 . S
C1479 H1503 0.949 . S
H1480 C1484 0.949 . S
C1481 C1482 1.349 . S
C1481 C1483 1.327 . S
C1481 H1504 0.950 . S
C1482 C1481 1.349 . S
C1482 C1494 1.349 . S
C1483 C1481 1.327 . S
C1483 C1499 1.429 . S
C1483 H1505 0.950 . S
C1484 H1480 0.949 . S
C1484 C1492 1.574 . S
C1484 C1500 1.368 . S
H1485 C1493 0.950 . S
H1486 C1491 0.950 . S
H1487 C1492 0.949 . S
H1488 C1494 0.950 . S
H1489 C1495 0.950 . S
H1490 C1496 0.949 . S
C1491 H1486 0.950 . S
C1491 C1493 1.327 . S
C1491 C1497 1.429 . S
C1492 C1484 1.574 . S
C1492 H1487 0.949 . S
C1492 C1498 1.368 . S
C1493 C1477 1.349 . S
C1493 H1485 0.950 . S
C1493 C1491 1.327 . S
C1494 C1482 1.349 . S
C1494 H1488 0.950 . S
C1494 C1495 1.327 . S
C1495 H1489 0.950 . S
C1495 C1494 1.327 . S
C1495 C1499 1.429 . S
C1496 C1479 1.574 . S
C1496 H1490 0.949 . S
C1496 C1500 1.368 . S
C1497 C1478 1.429 . S
C1497 C1491 1.429 . S
C1497 C1498 1.523 . S
C1498 C1479 1.368 . S
C1498 C1492 1.368 . S
C1498 C1497 1.523 . S
C1499 C1483 1.429 . S
C1499 C1495 1.429 . S
C1499 C1500 1.523 . S
C1500 C1484 1.368 . S
C1500 C1496 1.368 . S
C1500 C1499 1.523 . S
H1501 C1476 0.950 . S
H1502 C1478 0.950 . S
H1503 C1479 0.949 . S
H1504 C1481 0.950 . S
H1505 C1483 0.950 . S
C1506 C1507 1.349 . S
C1506 C1508 1.327 . S
C1506 H1531 0.950 . S
C1507 C1506 1.349 . S
C1507 C1523 1.349 . S
C1508 C1506 1.327 . S
C1508 C1527 1.429 . S
C1508 H1532 0.950 . S
C1509 C1526 1.574 . S
C1509 C1528 1.368 . S
C1509 H1533 0.949 . S
H1510 C1514 0.949 . S
C1511 C1512 1.349 . S
C1511 C1513 1.327 . S
C1511 H1534 0.950 . S
C1512 C1511 1.349 . S
C1512 C1524 1.349 . S
C1513 C1511 1.327 . S
C1513 C1529 1.429 . S
C1513 H1535 0.950 . S
C1514 H1510 0.949 . S
C1514 C1522 1.574 . S
C1514 C1530 1.368 . S
H1515 C1523 0.950 . S
H1516 C1521 0.950 . S
H1517 C1522 0.949 . S
H1518 C1524 0.950 . S
H1519 C1525 0.950 . S
H1520 C1526 0.949 . S
C1521 H1516 0.950 . S
C1521 C1523 1.327 . S
C1521 C1527 1.429 . S
C1522 C1514 1.574 . S
C1522 H1517 0.949 . S
C1522 C1528 1.368 . S
C1523 C1507 1.349 . S
C1523 H1515 0.950 . S
C1523 C1521 1.327 . S
C1524 C1512 1.349 . S
C1524 H1518 0.950 . S
C1524 C1525 1.327 . S
C1525 H1519 0.950 . S
C1525 C1524 1.327 . S
C1525 C1529 1.429 . S
C1526 C1509 1.574 . S
C1526 H1520 0.949 . S
C1526 C1530 1.368 . S
C1527 C1508 1.429 . S
C1527 C1521 1.429 . S
C1527 C1528 1.523 . S
C1528 C1509 1.368 . S
C1528 C1522 1.368 . S
C1528 C1527 1.523 . S
C1529 C1513 1.429 . S
C1529 C1525 1.429 . S
C1529 C1530 1.523 . S
C1530 C1514 1.368 . S
C1530 C1526 1.368 . S
C1530 C1529 1.523 . S
H1531 C1506 0.950 . S
H1532 C1508 0.950 . S
H1533 C1509 0.949 . S
H1534 C1511 0.950 . S
H1535 C1513 0.950 . S
C1536 C1537 1.349 . S
C1536 C1538 1.327 . S
C1536 H1561 0.950 . S
C1537 C1536 1.349 . S
C1537 C1553 1.349 . S
C1538 C1536 1.327 . S
C1538 C1557 1.429 . S
C1538 H1562 0.950 . S
C1539 C1556 1.574 . S
C1539 C1558 1.368 . S
C1539 H1563 0.949 . S
H1540 C1544 0.949 . S
C1541 C1542 1.349 . S
C1541 C1543 1.327 . S
C1541 H1564 0.950 . S
C1542 C1541 1.349 . S
C1542 C1554 1.349 . S
C1543 C1541 1.327 . S
C1543 C1559 1.429 . S
C1543 H1565 0.950 . S
C1544 H1540 0.949 . S
C1544 C1552 1.574 . S
C1544 C1560 1.368 . S
H1545 C1553 0.950 . S
H1546 C1551 0.950 . S
H1547 C1552 0.949 . S
H1548 C1554 0.950 . S
H1549 C1555 0.950 . S
H1550 C1556 0.949 . S
C1551 H1546 0.950 . S
C1551 C1553 1.327 . S
C1551 C1557 1.429 . S
C1552 C1544 1.574 . S
C1552 H1547 0.949 . S
C1552 C1558 1.368 . S
C1553 C1537 1.349 . S
C1553 H1545 0.950 . S
C1553 C1551 1.327 . S
C1554 C1542 1.349 . S
C1554 H1548 0.950 . S
C1554 C1555 1.327 . S
C1555 H1549 0.950 . S
C1555 C1554 1.327 . S
C1555 C1559 1.429 . S
C1556 C1539 1.574 . S
C1556 H1550 0.949 . S
C1556 C1560 1.368 . S
C1557 C1538 1.429 . S
C1557 C1551 1.429 . S
C1557 C1558 1.523 . S
C1558 C1539 1.368 . S
C1558 C1552 1.368 . S
C1558 C1557 1.523 . S
C1559 C1543 1.429 . S
C1559 C1555 1.429 . S
C1559 C1560 1.523 . S
C1560 C1544 1.368 . S
C1560 C1556 1.368 . S
C1560 C1559 1.523 . S
H1561 C1536 0.950 . S
H1562 C1538 0.950 . S
H1563 C1539 0.949 . S
H1564 C1541 0.950 . S
H1565 C1543 0.950 . S
C1566 C1567 1.349 . S
C1566 C1568 1.327 . S
C1566 H1591 0.950 . S
C1567 C1566 1.349 . S
C1567 C1583 1.349 . S
C1568 C1566 1.327 . S
C1568 C1587 1.429 . S
C1568 H1592 0.950 . S
C1569 C1586 1.574 . S
C1569 C1588 1.368 . S
C1569 H1593 0.949 . S
H1570 C1574 0.949 . S
C1571 C1572 1.349 . S
C1571 C1573 1.327 . S
C1571 H1594 0.950 . S
C1572 C1571 1.349 . S
C1572 C1584 1.349 . S
C1573 C1571 1.327 . S
C1573 C1589 1.429 . S
C1573 H1595 0.950 . S
C1574 H1570 0.949 . S
C1574 C1582 1.574 . S
C1574 C1590 1.368 . S
H1575 C1583 0.950 . S
H1576 C1581 0.950 . S
H1577 C1582 0.949 . S
H1578 C1584 0.950 . S
H1579 C1585 0.950 . S
H1580 C1586 0.949 . S
C1581 H1576 0.950 . S
C1581 C1583 1.327 . S
C1581 C1587 1.429 . S
C1582 C1574 1.574 . S
C1582 H1577 0.949 . S
C1582 C1588 1.368 . S
C1583 C1567 1.349 . S
C1583 H1575 0.950 . S
C1583 C1581 1.327 . S
C1584 C1572 1.349 . S
C1584 H1578 0.950 . S
C1584 C1585 1.327 . S
C1585 H1579 0.950 . S
C1585 C1584 1.327 . S
C1585 C1589 1.429 . S
C1586 C1569 1.574 . S
C1586 H1580 0.949 . S
C1586 C1590 1.368 . S
C1587 C1568 1.429 . S
C1587 C1581 1.429 . S
C1587 C1588 1.523 . S
C1588 C1569 1.368 . S
C1588 C1582 1.368 . S
C1588 C1587 1.523 . S
C1589 C1573 1.429 . S
C1589 C1585 1.429 . S
C1589 C1590 1.523 . S
C1590 C1574 1.368 . S
C1590 C1586 1.368 . S
C1590 C1589 1.523 . S
H1591 C1566 0.950 . S
H1592 C1568 0.950 . S
H1593 C1569 0.949 . S
H1594 C1571 0.950 . S
H1595 C1573 0.950 . S
C1596 C1597 1.349 1_554 S
C1596 C1598 1.327 . S
C1596 H1621 0.950 . S
C1597 C1596 1.349 1_556 S
C1597 C1613 1.349 . S
C1598 C1596 1.327 . S
C1598 C1617 1.429 1_554 S
C1598 H1622 0.950 . S
C1599 C1616 1.574 . S
C1599 C1618 1.368 . S
C1599 H1623 0.949 . S
H1600 C1604 0.949 . S
C1601 C1602 1.349 . S
C1601 C1603 1.327 . S
C1601 H1624 0.950 . S
C1602 C1601 1.349 . S
C1602 C1614 1.349 1_556 S
C1603 C1601 1.327 . S
C1603 C1619 1.429 . S
C1603 H1625 0.950 . S
C1604 H1600 0.949 . S
C1604 C1612 1.574 . S
C1604 C1620 1.368 1_554 S
H1605 C1613 0.950 . S
H1606 C1611 0.950 . S
H1607 C1612 0.949 . S
H1608 C1614 0.950 . S
H1609 C1615 0.950 . S
H1610 C1616 0.949 . S
C1611 H1606 0.950 . S
C1611 C1613 1.327 . S
C1611 C1617 1.429 . S
C1612 C1604 1.574 . S
C1612 H1607 0.949 . S
C1612 C1618 1.368 1_554 S
C1613 C1597 1.349 . S
C1613 H1605 0.950 . S
C1613 C1611 1.327 . S
C1614 C1602 1.349 1_554 S
C1614 H1608 0.950 . S
C1614 C1615 1.327 . S
C1615 H1609 0.950 . S
C1615 C1614 1.327 . S
C1615 C1619 1.429 1_554 S
C1616 C1599 1.574 . S
C1616 H1610 0.949 . S
C1616 C1620 1.368 . S
C1617 C1598 1.429 1_556 S
C1617 C1611 1.429 . S
C1617 C1618 1.523 . S
C1618 C1599 1.368 . S
C1618 C1612 1.368 1_556 S
C1618 C1617 1.523 . S
C1619 C1603 1.429 . S
C1619 C1615 1.429 1_556 S
C1619 C1620 1.523 . S
C1620 C1604 1.368 1_556 S
C1620 C1616 1.368 . S
C1620 C1619 1.523 . S
H1621 C1596 0.950 . S
H1622 C1598 0.950 . S
H1623 C1599 0.949 . S
H1624 C1601 0.950 . S
H1625 C1603 0.950 . S
C1626 C1627 1.349 . S
C1626 C1628 1.327 . S
C1626 H1651 0.950 . S
C1627 C1626 1.349 . S
C1627 C1643 1.349 . S
C1628 C1626 1.327 . S
C1628 C1647 1.429 . S
C1628 H1652 0.950 . S
C1629 C1646 1.574 . S
C1629 C1648 1.368 . S
C1629 H1653 0.949 . S
H1630 C1634 0.949 . S
C1631 C1632 1.349 . S
C1631 C1633 1.327 . S
C1631 H1654 0.950 . S
C1632 C1631 1.349 . S
C1632 C1644 1.349 . S
C1633 C1631 1.327 . S
C1633 C1649 1.429 . S
C1633 H1655 0.950 . S
C1634 H1630 0.949 . S
C1634 C1642 1.574 . S
C1634 C1650 1.368 . S
H1635 C1643 0.950 . S
H1636 C1641 0.950 . S
H1637 C1642 0.949 . S
H1638 C1644 0.950 . S
H1639 C1645 0.950 . S
H1640 C1646 0.949 . S
C1641 H1636 0.950 . S
C1641 C1643 1.327 . S
C1641 C1647 1.429 . S
C1642 C1634 1.574 . S
C1642 H1637 0.949 . S
C1642 C1648 1.368 . S
C1643 C1627 1.349 . S
C1643 H1635 0.950 . S
C1643 C1641 1.327 . S
C1644 C1632 1.349 . S
C1644 H1638 0.950 . S
C1644 C1645 1.327 . S
C1645 H1639 0.950 . S
C1645 C1644 1.327 . S
C1645 C1649 1.429 . S
C1646 C1629 1.574 . S
C1646 H1640 0.949 . S
C1646 C1650 1.368 . S
C1647 C1628 1.429 . S
C1647 C1641 1.429 . S
C1647 C1648 1.523 . S
C1648 C1629 1.368 . S
C1648 C1642 1.368 . S
C1648 C1647 1.523 . S
C1649 C1633 1.429 . S
C1649 C1645 1.429 . S
C1649 C1650 1.523 . S
C1650 C1634 1.368 . S
C1650 C1646 1.368 . S
C1650 C1649 1.523 . S
H1651 C1626 0.950 . S
H1652 C1628 0.950 . S
H1653 C1629 0.949 . S
H1654 C1631 0.950 . S
H1655 C1633 0.950 . S
C1656 C1657 1.349 . S
C1656 C1658 1.327 . S
C1656 H1681 0.950 . S
C1657 C1656 1.349 . S
C1657 C1673 1.349 . S
C1658 C1656 1.327 . S
C1658 C1677 1.429 . S
C1658 H1682 0.950 . S
C1659 C1676 1.574 . S
C1659 C1678 1.368 . S
C1659 H1683 0.949 . S
H1660 C1664 0.949 . S
C1661 C1662 1.349 . S
C1661 C1663 1.327 . S
C1661 H1684 0.950 . S
C1662 C1661 1.349 . S
C1662 C1674 1.349 . S
C1663 C1661 1.327 . S
C1663 C1679 1.429 . S
C1663 H1685 0.950 . S
C1664 H1660 0.949 . S
C1664 C1672 1.574 . S
C1664 C1680 1.368 . S
H1665 C1673 0.950 . S
H1666 C1671 0.950 . S
H1667 C1672 0.949 . S
H1668 C1674 0.950 . S
H1669 C1675 0.950 . S
H1670 C1676 0.949 . S
C1671 H1666 0.950 . S
C1671 C1673 1.327 . S
C1671 C1677 1.429 . S
C1672 C1664 1.574 . S
C1672 H1667 0.949 . S
C1672 C1678 1.368 . S
C1673 C1657 1.349 . S
C1673 H1665 0.950 . S
C1673 C1671 1.327 . S
C1674 C1662 1.349 . S
C1674 H1668 0.950 . S
C1674 C1675 1.327 . S
C1675 H1669 0.950 . S
C1675 C1674 1.327 . S
C1675 C1679 1.429 . S
C1676 C1659 1.574 . S
C1676 H1670 0.949 . S
C1676 C1680 1.368 . S
C1677 C1658 1.429 . S
C1677 C1671 1.429 . S
C1677 C1678 1.523 . S
C1678 C1659 1.368 . S
C1678 C1672 1.368 . S
C1678 C1677 1.523 . S
C1679 C1663 1.429 . S
C1679 C1675 1.429 . S
C1679 C1680 1.523 . S
C1680 C1664 1.368 . S
C1680 C1676 1.368 . S
C1680 C1679 1.523 . S
H1681 C1656 0.950 . S
H1682 C1658 0.950 . S
H1683 C1659 0.949 . S
H1684 C1661 0.950 . S
H1685 C1663 0.950 . S
C1686 C1687 1.349 . S
C1686 C1688 1.327 . S
C1686 H1711 0.950 . S
C1687 C1686 1.349 . S
C1687 C1703 1.349 . S
C1688 C1686 1.327 . S
C1688 C1707 1.429 . S
C1688 H1712 0.950 . S
C1689 C1706 1.574 . S
C1689 C1708 1.368 . S
C1689 H1713 0.949 . S
H1690 C1694 0.949 . S
C1691 C1692 1.349 . S
C1691 C1693 1.327 . S
C1691 H1714 0.950 . S
C1692 C1691 1.349 . S
C1692 C1704 1.349 . S
C1693 C1691 1.327 . S
C1693 C1709 1.429 . S
C1693 H1715 0.950 . S
C1694 H1690 0.949 . S
C1694 C1702 1.574 . S
C1694 C1710 1.368 . S
H1695 C1703 0.950 . S
H1696 C1701 0.950 . S
H1697 C1702 0.949 . S
H1698 C1704 0.950 . S
H1699 C1705 0.950 . S
H1700 C1706 0.949 . S
C1701 H1696 0.950 . S
C1701 C1703 1.327 . S
C1701 C1707 1.429 . S
C1702 C1694 1.574 . S
C1702 H1697 0.949 . S
C1702 C1708 1.368 . S
C1703 C1687 1.349 . S
C1703 H1695 0.950 . S
C1703 C1701 1.327 . S
C1704 C1692 1.349 . S
C1704 H1698 0.950 . S
C1704 C1705 1.327 . S
C1705 H1699 0.950 . S
C1705 C1704 1.327 . S
C1705 C1709 1.429 . S
C1706 C1689 1.574 . S
C1706 H1700 0.949 . S
C1706 C1710 1.368 . S
C1707 C1688 1.429 . S
C1707 C1701 1.429 . S
C1707 C1708 1.523 . S
C1708 C1689 1.368 . S
C1708 C1702 1.368 . S
C1708 C1707 1.523 . S
C1709 C1693 1.429 . S
C1709 C1705 1.429 . S
C1709 C1710 1.523 . S
C1710 C1694 1.368 . S
C1710 C1706 1.368 . S
C1710 C1709 1.523 . S
H1711 C1686 0.950 . S
H1712 C1688 0.950 . S
H1713 C1689 0.949 . S
H1714 C1691 0.950 . S
H1715 C1693 0.950 . S
C1716 C1717 1.349 . S
C1716 C1718 1.327 . S
C1716 H1741 0.950 . S
C1717 C1716 1.349 . S
C1717 C1733 1.349 . S
C1718 C1716 1.327 . S
C1718 C1737 1.429 . S
C1718 H1742 0.950 . S
C1719 C1736 1.574 . S
C1719 C1738 1.368 . S
C1719 H1743 0.949 . S
H1720 C1724 0.949 . S
C1721 C1722 1.349 . S
C1721 C1723 1.327 . S
C1721 H1744 0.950 . S
C1722 C1721 1.349 . S
C1722 C1734 1.349 . S
C1723 C1721 1.327 . S
C1723 C1739 1.429 . S
C1723 H1745 0.950 . S
C1724 H1720 0.949 . S
C1724 C1732 1.574 . S
C1724 C1740 1.368 . S
H1725 C1733 0.950 . S
H1726 C1731 0.950 . S
H1727 C1732 0.949 . S
H1728 C1734 0.950 . S
H1729 C1735 0.950 . S
H1730 C1736 0.949 . S
C1731 H1726 0.950 . S
C1731 C1733 1.327 . S
C1731 C1737 1.429 . S
C1732 C1724 1.574 . S
C1732 H1727 0.949 . S
C1732 C1738 1.368 . S
C1733 C1717 1.349 . S
C1733 H1725 0.950 . S
C1733 C1731 1.327 . S
C1734 C1722 1.349 . S
C1734 H1728 0.950 . S
C1734 C1735 1.327 . S
C1735 H1729 0.950 . S
C1735 C1734 1.327 . S
C1735 C1739 1.429 . S
C1736 C1719 1.574 . S
C1736 H1730 0.949 . S
C1736 C1740 1.368 . S
C1737 C1718 1.429 . S
C1737 C1731 1.429 . S
C1737 C1738 1.523 . S
C1738 C1719 1.368 . S
C1738 C1732 1.368 . S
C1738 C1737 1.523 . S
C1739 C1723 1.429 . S
C1739 C1735 1.429 . S
C1739 C1740 1.523 . S
C1740 C1724 1.368 . S
C1740 C1736 1.368 . S
C1740 C1739 1.523 . S
H1741 C1716 0.950 . S
H1742 C1718 0.950 . S
H1743 C1719 0.949 . S
H1744 C1721 0.950 . S
H1745 C1723 0.950 . S
C1746 C1747 1.349 . S
C1746 C1748 1.327 . S
C1746 H1771 0.950 . S
C1747 C1746 1.349 . S
C1747 C1763 1.349 . S
C1748 C1746 1.327 . S
C1748 C1767 1.429 . S
C1748 H1772 0.950 . S
C1749 C1766 1.574 . S
C1749 C1768 1.368 . S
C1749 H1773 0.949 . S
H1750 C1754 0.949 . S
C1751 C1752 1.349 . S
C1751 C1753 1.327 . S
C1751 H1774 0.950 . S
C1752 C1751 1.349 . S
C1752 C1764 1.349 . S
C1753 C1751 1.327 . S
C1753 C1769 1.429 . S
C1753 H1775 0.950 . S
C1754 H1750 0.949 . S
C1754 C1762 1.574 . S
C1754 C1770 1.368 . S
H1755 C1763 0.950 . S
H1756 C1761 0.950 . S
H1757 C1762 0.949 . S
H1758 C1764 0.950 . S
H1759 C1765 0.950 . S
H1760 C1766 0.949 . S
C1761 H1756 0.950 . S
C1761 C1763 1.327 . S
C1761 C1767 1.429 . S
C1762 C1754 1.574 . S
C1762 H1757 0.949 . S
C1762 C1768 1.368 . S
C1763 C1747 1.349 . S
C1763 H1755 0.950 . S
C1763 C1761 1.327 . S
C1764 C1752 1.349 . S
C1764 H1758 0.950 . S
C1764 C1765 1.327 . S
C1765 H1759 0.950 . S
C1765 C1764 1.327 . S
C1765 C1769 1.429 . S
C1766 C1749 1.574 . S
C1766 H1760 0.949 . S
C1766 C1770 1.368 . S
C1767 C1748 1.429 . S
C1767 C1761 1.429 . S
C1767 C1768 1.523 . S
C1768 C1749 1.368 . S
C1768 C1762 1.368 . S
C1768 C1767 1.523 . S
C1769 C1753 1.429 . S
C1769 C1765 1.429 . S
C1769 C1770 1.523 . S
C1770 C1754 1.368 . S
C1770 C1766 1.368 . S
C1770 C1769 1.523 . S
H1771 C1746 0.950 . S
H1772 C1748 0.950 . S
H1773 C1749 0.949 . S
H1774 C1751 0.950 . S
H1775 C1753 0.950 . S
C337 C13 0.706 . S
C342 C39 0.696 . S
C367 C55 0.663 . S
C372 C36 0.638 . S
C397 C78 0.726 . S
C402 C56 0.724 . S
C427 C14 0.662 . S
C432 C81 0.666 . S
C457 C15 0.774 . S
C462 C206 0.775 . S
C487 C162 0.742 . S
C492 C38 0.742 . S
C517 C58 0.821 . S
C522 C224 0.839 . S
C547 C77 0.761 . S
C552 C288 0.760 . S
C577 C184 0.796 . S
C582 C35 0.808 . S
C607 C266 0.729 . S
C612 C57 0.731 . S
C637 C310 0.810 . S
C642 C80 0.825 . S
C667 C16 0.786 . S
C672 C248 0.797 . S
C697 C17 0.688 . S
C702 C186 0.690 . S
C727 C265 0.724 . S
C732 C100 0.724 . S
C757 C122 0.803 . S
C762 C311 0.803 . S
C787 C247 0.733 . S
C792 C139 0.733 . S
C817 C59 0.803 . S
C822 C164 0.803 . S
C847 C205 0.804 . S
C852 C97 0.805 . S
C877 C142 0.814 . S
C882 C223 0.812 . S
C907 C121 0.821 . S
C912 C245 0.839 . S
C937 C203 0.729 . S
C942 C120 0.730 . S
C967 C249 0.732 . S
C972 C161 0.731 . S
C997 C118 0.663 . S
C1002 C99 0.638 . S
C1027 C204 0.672 . S
C1032 C182 0.666 . S
C1057 C286 0.702 . S
C1062 C246 0.689 . S
C1087 C141 0.726 . S
C1092 C119 0.724 . S
C1117 C207 0.631 . S
C1122 C307 0.659 . S
C1147 C290 0.696 . S
C1152 C18 0.697 . S
C1177 C60 0.591 . S
C1182 C312 0.591 . S
C1207 C268 0.804 . S
C1212 C34 0.805 . S
C1237 C165 0.591 . S
C1242 C123 0.591 . S
C1267 C76 0.733 . S
C1272 C226 0.733 . S
C1297 C267 0.672 . S
C1302 C287 0.666 . S
C1327 C160 0.659 . S
C1332 C270 0.631 . S
C1357 C143 0.825 . S
C1362 C163 0.810 . S
C1387 C98 0.808 . S
C1392 C289 0.796 . S
C1417 C269 0.775 . S
C1422 C330 0.774 . S
C1447 C333 0.697 . S
C1452 C185 0.696 . S
C1477 C37 0.724 . S
C1482 C202 0.724 . S
C1507 C183 0.760 . S
C1512 C140 0.761 . S
C1537 C181 0.702 . S
C1542 C225 0.689 . S
C1567 C329 0.662 . S
C1572 C144 0.666 . S
C1597 C291 0.690 . S
C1602 C332 0.688 . S
C1627 C244 0.812 . S
C1632 C79 0.814 . S
C1657 C228 0.732 . S
C1662 C308 0.731 . S
C1687 C227 0.796 . S
C1692 C331 0.786 . S
C1717 C101 0.742 . S
C1722 C309 0.742 . S
C1747 C328 0.706 . S
C1752 C102 0.696 . S
