# Generated by pormake.
# Topology pbz, (3)-cn, num edge types: 1
# Building blocks:
#     Node 0, Type 0, BuildingBlock: OLANEW_clean_sbu_2, # of connection points: 3
#     Node 1, Type 0, BuildingBlock: OLANEW_clean_sbu_2, # of connection points: 3
#     Node 2, Type 0, BuildingBlock: OLANEW_clean_sbu_2, # of connection points: 3
#     Node 3, Type 0, BuildingBlock: OLANEW_clean_sbu_2, # of connection points: 3
#     Node 4, Type 0, BuildingBlock: OLANEW_clean_sbu_2, # of connection points: 3
#     Node 5, Type 0, BuildingBlock: OLANEW_clean_sbu_2, # of connection points: 3
#     Node 6, Type 0, BuildingBlock: OLANEW_clean_sbu_2, # of connection points: 3
#     Node 7, Type 0, BuildingBlock: OLANEW_clean_sbu_2, # of connection points: 3
#     Node 8, Type 0, BuildingBlock: OLANEW_clean_sbu_2, # of connection points: 3
#     Node 9, Type 0, BuildingBlock: OLANEW_clean_sbu_2, # of connection points: 3
#     Node 10, Type 0, BuildingBlock: OLANEW_clean_sbu_2, # of connection points: 3
#     Node 11, Type 0, BuildingBlock: OLANEW_clean_sbu_2, # of connection points: 3
#     Node 12, Type 0, BuildingBlock: OLANEW_clean_sbu_2, # of connection points: 3
#     Node 13, Type 0, BuildingBlock: OLANEW_clean_sbu_2, # of connection points: 3
#     Node 14, Type 0, BuildingBlock: OLANEW_clean_sbu_2, # of connection points: 3
#     Node 15, Type 0, BuildingBlock: OLANEW_clean_sbu_2, # of connection points: 3
#     Node 16, Type 0, BuildingBlock: OLANEW_clean_sbu_2, # of connection points: 3
#     Node 17, Type 0, BuildingBlock: OLANEW_clean_sbu_2, # of connection points: 3
#     Node 18, Type 0, BuildingBlock: OLANEW_clean_sbu_2, # of connection points: 3
#     Node 19, Type 0, BuildingBlock: OLANEW_clean_sbu_2, # of connection points: 3
#     Node 20, Type 0, BuildingBlock: OLANEW_clean_sbu_2, # of connection points: 3
#     Node 21, Type 0, BuildingBlock: OLANEW_clean_sbu_2, # of connection points: 3
#     Node 22, Type 0, BuildingBlock: OLANEW_clean_sbu_2, # of connection points: 3
#     Node 23, Type 0, BuildingBlock: OLANEW_clean_sbu_2, # of connection points: 3
#     Edge 24, Type (0, 0), BuildingBlock: XIVTED_clean_linker_0, # of connection points: 2
#     Edge 25, Type (0, 0), BuildingBlock: XIVTED_clean_linker_0, # of connection points: 2
#     Edge 26, Type (0, 0), BuildingBlock: XIVTED_clean_linker_0, # of connection points: 2
#     Edge 27, Type (0, 0), BuildingBlock: XIVTED_clean_linker_0, # of connection points: 2
#     Edge 28, Type (0, 0), BuildingBlock: XIVTED_clean_linker_0, # of connection points: 2
#     Edge 29, Type (0, 0), BuildingBlock: XIVTED_clean_linker_0, # of connection points: 2
#     Edge 30, Type (0, 0), BuildingBlock: XIVTED_clean_linker_0, # of connection points: 2
#     Edge 31, Type (0, 0), BuildingBlock: XIVTED_clean_linker_0, # of connection points: 2
#     Edge 32, Type (0, 0), BuildingBlock: XIVTED_clean_linker_0, # of connection points: 2
#     Edge 33, Type (0, 0), BuildingBlock: XIVTED_clean_linker_0, # of connection points: 2
#     Edge 34, Type (0, 0), BuildingBlock: XIVTED_clean_linker_0, # of connection points: 2
#     Edge 35, Type (0, 0), BuildingBlock: XIVTED_clean_linker_0, # of connection points: 2
#     Edge 36, Type (0, 0), BuildingBlock: XIVTED_clean_linker_0, # of connection points: 2
#     Edge 37, Type (0, 0), BuildingBlock: XIVTED_clean_linker_0, # of connection points: 2
#     Edge 38, Type (0, 0), BuildingBlock: XIVTED_clean_linker_0, # of connection points: 2
#     Edge 39, Type (0, 0), BuildingBlock: XIVTED_clean_linker_0, # of connection points: 2
#     Edge 40, Type (0, 0), BuildingBlock: XIVTED_clean_linker_0, # of connection points: 2
#     Edge 41, Type (0, 0), BuildingBlock: XIVTED_clean_linker_0, # of connection points: 2
#     Edge 42, Type (0, 0), BuildingBlock: XIVTED_clean_linker_0, # of connection points: 2
#     Edge 43, Type (0, 0), BuildingBlock: XIVTED_clean_linker_0, # of connection points: 2
#     Edge 44, Type (0, 0), BuildingBlock: XIVTED_clean_linker_0, # of connection points: 2
#     Edge 45, Type (0, 0), BuildingBlock: XIVTED_clean_linker_0, # of connection points: 2
#     Edge 46, Type (0, 0), BuildingBlock: XIVTED_clean_linker_0, # of connection points: 2
#     Edge 47, Type (0, 0), BuildingBlock: XIVTED_clean_linker_0, # of connection points: 2
#     Edge 48, Type (0, 0), BuildingBlock: XIVTED_clean_linker_0, # of connection points: 2
#     Edge 49, Type (0, 0), BuildingBlock: XIVTED_clean_linker_0, # of connection points: 2
#     Edge 50, Type (0, 0), BuildingBlock: XIVTED_clean_linker_0, # of connection points: 2
#     Edge 51, Type (0, 0), BuildingBlock: XIVTED_clean_linker_0, # of connection points: 2
#     Edge 52, Type (0, 0), BuildingBlock: XIVTED_clean_linker_0, # of connection points: 2
#     Edge 53, Type (0, 0), BuildingBlock: XIVTED_clean_linker_0, # of connection points: 2
#     Edge 54, Type (0, 0), BuildingBlock: XIVTED_clean_linker_0, # of connection points: 2
#     Edge 55, Type (0, 0), BuildingBlock: XIVTED_clean_linker_0, # of connection points: 2
#     Edge 56, Type (0, 0), BuildingBlock: XIVTED_clean_linker_0, # of connection points: 2
#     Edge 57, Type (0, 0), BuildingBlock: XIVTED_clean_linker_0, # of connection points: 2
#     Edge 58, Type (0, 0), BuildingBlock: XIVTED_clean_linker_0, # of connection points: 2
#     Edge 59, Type (0, 0), BuildingBlock: XIVTED_clean_linker_0, # of connection points: 2
# Relax obj value: 0.055
# Max RMSD: 0.148
# Mean RMSD: 0.109
data_MOF--net-pbz--node1-OLANEW_clean_sbu_2--edge1-XIVTED_clean_linker_0
_symmetry_space_group_name_H-M    P1
_symmetry_Int_Tables_number       1
_symmetry_cell_setting            triclinic
loop_
_symmetry_equiv_pos_as_xyz
'x, y, z'
_cell_length_a     66.781518
_cell_length_b     65.120104
_cell_length_c     63.586759
_cell_angle_alpha  90.829132
_cell_angle_beta   90.071571
_cell_angle_gamma 94.693747
loop_
_atom_site_label
_atom_site_type_symbol
_atom_site_fract_x
_atom_site_fract_y
_atom_site_fract_z
_atom_type_partial_charge
O0 O 0.02167 0.26297 0.78181 0.0
Cd1 Cd 0.02183 0.22915 0.76467 0.0
O2 O 0.02917 0.27916 0.75237 0.0
Cd3 Cd 0.02548 0.25124 0.73288 0.0
O4 O 0.01054 0.23011 0.70979 0.0
C5 C 0.99255 0.22324 0.71353 0.0
O6 O 0.98439 0.22809 0.73153 0.0
C7 C 0.02586 0.27968 0.77205 0.0
C8 C 0.05902 0.21342 0.77014 0.0
O9 O 0.05609 0.22588 0.75524 0.0
O10 O 0.04428 0.20819 0.78236 0.0
O11 O 0.92201 0.55431 0.2164 0.0
Cd12 Cd 0.88849 0.53607 0.21676 0.0
O13 O 0.91636 0.55724 0.25006 0.0
Cd14 Cd 0.92082 0.56874 0.28231 0.0
O15 O 0.91224 0.57875 0.31363 0.0
C16 C 0.90872 0.59742 0.31684 0.0
O17 O 0.91163 0.61059 0.30146 0.0
C18 C 0.92796 0.56081 0.23446 0.0
C19 C 0.87714 0.5147 0.17983 0.0
O20 O 0.87312 0.53346 0.18269 0.0
O21 O 0.88688 0.50622 0.19427 0.0
O22 O 0.53571 0.30659 0.75564 0.0
Cd23 Cd 0.53125 0.32681 0.72417 0.0
O24 O 0.53602 0.33346 0.77705 0.0
Cd25 Cd 0.52754 0.35434 0.75262 0.0
O26 O 0.51007 0.37503 0.73473 0.0
C27 C 0.51222 0.37799 0.71513 0.0
O28 O 0.52588 0.36854 0.70478 0.0
C29 C 0.53765 0.31432 0.77408 0.0
C30 C 0.56651 0.32896 0.7006 0.0
O31 O 0.5638 0.34223 0.71519 0.0
O32 O 0.55239 0.31482 0.69693 0.0
O33 O 0.78317 0.08313 0.29825 0.0
Cd34 Cd 0.74967 0.08653 0.28392 0.0
O35 O 0.77442 0.05976 0.32191 0.0
Cd36 Cd 0.74222 0.05823 0.31554 0.0
O37 O 0.71091 0.05027 0.32398 0.0
C38 C 0.69885 0.03883 0.31257 0.0
O39 O 0.70498 0.0322 0.29425 0.0
C40 C 0.78792 0.07134 0.31288 0.0
C41 C 0.7545 0.10443 0.24447 0.0
O42 O 0.75445 0.11555 0.26126 0.0
O43 O 0.75165 0.08483 0.24626 0.0
O44 O 0.00328 0.41532 0.86262 0.0
Cd45 Cd 0.99508 0.44605 0.88224 0.0
O46 O 0.99971 0.42915 0.83161 0.0
Cd47 Cd 0.98357 0.45381 0.84547 0.0
O48 O 0.95556 0.46052 0.86077 0.0
C49 C 0.95451 0.47102 0.87768 0.0
O50 O 0.97108 0.47985 0.88609 0.0
C51 C 0.00481 0.41431 0.8427 0.0
C52 C 0.02919 0.47373 0.8848 0.0
O53 O 0.0254 0.46021 0.899 0.0
O54 O 0.01664 0.47444 0.86962 0.0
O55 O 0.80617 0.61099 0.44252 0.0
Cd56 Cd 0.77761 0.61121 0.46638 0.0
O57 O 0.80429 0.64221 0.43026 0.0
Cd58 Cd 0.77549 0.64683 0.44506 0.0
O59 O 0.74464 0.65546 0.44247 0.0
C60 C 0.73896 0.65851 0.42377 0.0
O61 O 0.75162 0.6561 0.40829 0.0
C62 C 0.81316 0.62569 0.43104 0.0
C63 C 0.7776 0.57645 0.49151 0.0
O64 O 0.76715 0.5761 0.47458 0.0
O65 O 0.78763 0.59336 0.4968 0.0
O66 O 0.54859 0.20386 0.89579 0.0
Cd67 Cd 0.54864 0.17885 0.92409 0.0
O68 O 0.54318 0.22983 0.91699 0.0
Cd69 Cd 0.53651 0.20932 0.94335 0.0
O70 O 0.51856 0.18635 0.96148 0.0
C71 C 0.50399 0.19212 0.9723 0.0
O72 O 0.50113 0.21183 0.97326 0.0
C73 C 0.54676 0.223 0.89865 0.0
C74 C 0.58677 0.17996 0.94221 0.0
O75 O 0.58183 0.16766 0.92681 0.0
O76 O 0.57359 0.19153 0.94921 0.0
O77 O 0.02181 0.0864 0.42305 0.0
Cd78 Cd 0.04278 0.06797 0.39891 0.0
O79 O 0.99616 0.07272 0.40483 0.0
Cd80 Cd 0.96469 0.06927 0.39493 0.0
O81 O 0.93389 0.0666 0.38316 0.0
C82 C 0.92947 0.07692 0.36725 0.0
O83 O 0.9436 0.08902 0.35832 0.0
C84 C 0.00296 0.08436 0.41987 0.0
C85 C 0.05595 0.03166 0.41476 0.0
O86 O 0.06686 0.04875 0.41636 0.0
O87 O 0.03867 0.03182 0.40598 0.0
O88 O 0.26517 0.68298 0.08289 0.0
Cd89 Cd 0.24362 0.65088 0.07919 0.0
O90 O 0.2911 0.66691 0.09329 0.0
Cd91 Cd 0.27202 0.63863 0.09853 0.0
O92 O 0.24687 0.62538 0.11714 0.0
C93 C 0.2501 0.62122 0.13625 0.0
O94 O 0.26866 0.62319 0.14335 0.0
C95 C 0.28365 0.68346 0.08799 0.0
C96 C 0.23764 0.6399 0.037 0.0
O97 O 0.25372 0.636 0.04664 0.0
O98 O 0.22429 0.64888 0.0473 0.0
O99 O 0.24321 0.81832 0.74825 0.0
Cd100 Cd 0.21858 0.82982 0.77319 0.0
O101 O 0.22669 0.83089 0.72227 0.0
Cd102 Cd 0.22059 0.839 0.68973 0.0
O103 O 0.21022 0.84543 0.65809 0.0
C104 C 0.21869 0.83815 0.64207 0.0
O105 O 0.234 0.82702 0.6448 0.0
C106 C 0.24138 0.82135 0.72867 0.0
C107 C 0.22457 0.87194 0.78167 0.0
O108 O 0.23322 0.85895 0.79277 0.0
O109 O 0.2131 0.86498 0.76657 0.0
O110 O 0.38206 0.68565 0.63153 0.0
Cd111 Cd 0.38219 0.72299 0.62824 0.0
O112 O 0.35579 0.67978 0.61073 0.0
Cd113 Cd 0.3477 0.7116 0.61304 0.0
O114 O 0.33139 0.73697 0.62536 0.0
C115 C 0.33686 0.74536 0.64283 0.0
O116 O 0.35276 0.73926 0.65235 0.0
C117 C 0.37003 0.67308 0.62128 0.0
C118 C 0.40435 0.73549 0.59285 0.0
O119 O 0.41273 0.73487 0.61095 0.0
O120 O 0.38541 0.73055 0.59156 0.0
O121 O 0.41569 0.86829 0.15434 0.0
Cd122 Cd 0.39768 0.85799 0.1218 0.0
O123 O 0.38782 0.87043 0.17237 0.0
Cd124 Cd 0.36903 0.85655 0.14702 0.0
O125 O 0.35323 0.83163 0.12872 0.0
C126 C 0.36248 0.81558 0.12551 0.0
O127 O 0.381 0.81533 0.13244 0.0
C128 C 0.4069 0.87255 0.17141 0.0
C129 C 0.39012 0.89178 0.09733 0.0
O130 O 0.37795 0.88549 0.11189 0.0
O131 O 0.40587 0.88211 0.09437 0.0
O132 O 0.14122 0.85945 0.49648 0.0
Cd133 Cd 0.12412 0.8599 0.46246 0.0
O134 O 0.16089 0.83599 0.48552 0.0
Cd135 Cd 0.14631 0.82998 0.45504 0.0
O136 O 0.13604 0.81136 0.42765 0.0
C137 C 0.12661 0.79398 0.43106 0.0
O138 O 0.12273 0.78867 0.45059 0.0
C139 C 0.15562 0.84827 0.49983 0.0
C140 C 0.10961 0.89801 0.45433 0.0
O141 O 0.12777 0.89455 0.44995 0.0
O142 O 0.0983 0.88348 0.46262 0.0
O143 O 0.23653 0.59046 0.82156 0.0
Cd144 Cd 0.20824 0.6035 0.84066 0.0
O145 O 0.22909 0.55777 0.82872 0.0
Cd146 Cd 0.20109 0.56288 0.84489 0.0
O147 O 0.16975 0.55727 0.85443 0.0
C148 C 0.16529 0.54736 0.87109 0.0
O149 O 0.17984 0.5417 0.88307 0.0
C150 C 0.24056 0.57175 0.82012 0.0
C151 C 0.21535 0.60921 0.88369 0.0
O152 O 0.20486 0.5932 0.87671 0.0
O153 O 0.22256 0.62241 0.87038 0.0
O154 O 0.55977 0.74889 0.37994 0.0
Cd155 Cd 0.56254 0.71176 0.38224 0.0
O156 O 0.54272 0.74672 0.40925 0.0
Cd157 Cd 0.52393 0.7563 0.43523 0.0
O158 O 0.50542 0.75862 0.46333 0.0
C159 C 0.48639 0.75625 0.46191 0.0
O160 O 0.47809 0.7531 0.44328 0.0
C161 C 0.55019 0.75763 0.39431 0.0
C162 C 0.60114 0.70157 0.39234 0.0
O163 O 0.59576 0.70356 0.37317 0.0
O164 O 0.5883 0.70458 0.4068 0.0
O165 O 0.38698 0.07423 0.99137 0.0
Cd166 Cd 0.35781 0.04929 0.98712 0.0
O167 O 0.36934 0.10024 0.99972 0.0
Cd168 Cd 0.34071 0.08419 0.99021 0.0
O169 O 0.31615 0.08331 0.96738 0.0
C170 C 0.318 0.07408 0.94983 0.0
O171 O 0.33391 0.06385 0.94663 0.0
C172 C 0.38627 0.0929 0.99726 0.0
C173 C 0.36296 0.0143 0.01077 0.0
O174 O 0.36962 0.01589 0.99192 0.0
O175 O 0.35363 0.02915 0.01837 0.0
O176 O 0.12454 0.64673 0.23156 0.0
Cd177 Cd 0.09987 0.66249 0.25362 0.0
O178 O 0.14717 0.6467 0.25672 0.0
Cd179 Cd 0.12993 0.66395 0.27905 0.0
O180 O 0.12324 0.6882 0.30143 0.0
C181 C 0.11546 0.68423 0.31929 0.0
O182 O 0.11049 0.66495 0.32418 0.0
C183 C 0.14168 0.64224 0.23794 0.0
C184 C 0.06207 0.6412 0.24964 0.0
O185 O 0.0677 0.65581 0.23714 0.0
O186 O 0.07429 0.63674 0.26413 0.0
O187 O 0.38442 0.51044 0.61464 0.0
Cd188 Cd 0.38234 0.47281 0.61511 0.0
O189 O 0.37528 0.51124 0.64774 0.0
Cd190 Cd 0.36404 0.52618 0.67596 0.0
O191 O 0.34783 0.53834 0.70264 0.0
C192 C 0.34156 0.52616 0.71708 0.0
O193 O 0.34548 0.50674 0.71579 0.0
C194 C 0.38009 0.52073 0.6309 0.0
C195 C 0.41332 0.45645 0.63712 0.0
O196 O 0.41485 0.45989 0.61736 0.0
O197 O 0.39728 0.46108 0.6465 0.0
O198 O 0.54051 0.92075 0.39878 0.0
Cd199 Cd 0.53712 0.95762 0.39531 0.0
O200 O 0.52882 0.91771 0.36671 0.0
Cd201 Cd 0.51663 0.90316 0.33767 0.0
O202 O 0.5011 0.89638 0.30781 0.0
C203 C 0.48313 0.90126 0.30613 0.0
O204 O 0.47467 0.90965 0.32242 0.0
C205 C 0.53539 0.90931 0.38301 0.0
C206 C 0.57103 0.97754 0.37679 0.0
O207 O 0.56939 0.97644 0.39684 0.0
O208 O 0.55657 0.96927 0.36547 0.0
O209 O 0.24412 0.13431 0.82044 0.0
Cd210 Cd 0.23267 0.1454 0.7862 0.0
O211 O 0.23912 0.10339 0.80666 0.0
Cd212 Cd 0.23746 0.06976 0.80574 0.0
O213 O 0.2337 0.03657 0.80023 0.0
C214 C 0.24306 0.02419 0.81107 0.0
O215 O 0.25526 0.03155 0.82609 0.0
C216 C 0.24497 0.11498 0.82212 0.0
C217 C 0.19502 0.16093 0.78642 0.0
O218 O 0.19671 0.14148 0.7853 0.0
O219 O 0.21113 0.17302 0.78783 0.0
O220 O 0.84008 0.43015 0.98621 0.0
Cd221 Cd 0.81897 0.41364 0.01344 0.0
O222 O 0.82333 0.41614 0.95912 0.0
Cd223 Cd 0.80521 0.39511 0.9793 0.0
O224 O 0.79905 0.36568 0.99509 0.0
C225 C 0.81455 0.35667 -5e-05 0.0
O226 O 0.83235 0.3659 0.99592 0.0
C227 C 0.83748 0.42846 0.96644 0.0
C228 C 0.82938 0.43328 0.05157 0.0
O229 O 0.81577 0.4398 0.03974 0.0
O230 O 0.83768 0.41712 0.04563 0.0
O231 O 0.91003 0.18636 0.57403 0.0
Cd232 Cd 0.89269 0.18698 0.54025 0.0
O233 O 0.88435 0.19205 0.59439 0.0
Cd234 Cd 0.8644 0.20064 0.56931 0.0
O235 O 0.84555 0.22545 0.56158 0.0
C236 C 0.83037 0.22769 0.5732 0.0
O237 O 0.82585 0.21405 0.58784 0.0
C238 C 0.90256 0.18805 0.59228 0.0
C239 C 0.91451 0.16572 0.51081 0.0
O240 O 0.91844 0.18507 0.51423 0.0
O241 O 0.89991 0.15649 0.52093 0.0
O242 O 0.79538 0.38244 0.58771 0.0
Cd243 Cd 0.78753 0.4155 0.60313 0.0
O244 O 0.7672 0.37171 0.60269 0.0
Cd245 Cd 0.74118 0.35224 0.61371 0.0
O246 O 0.71305 0.34608 0.63082 0.0
C247 C 0.69782 0.33548 0.62329 0.0
O248 O 0.69898 0.32696 0.60452 0.0
C249 C 0.78264 0.36759 0.5922 0.0
C250 C 0.78614 0.44825 0.57561 0.0
O251 O 0.80235 0.44518 0.58548 0.0
O252 O 0.77073 0.43548 0.57832 0.0
O253 O 0.82035 0.20428 0.05829 0.0
Cd254 Cd 0.82246 0.16836 0.06799 0.0
O255 O 0.78928 0.19813 0.04752 0.0
Cd256 Cd 0.76093 0.20365 0.03211 0.0
O257 O 0.7311 0.2038 0.01803 0.0
C258 C 0.72562 0.19009 0.00432 0.0
O259 O 0.73822 0.17651 0.99878 0.0
C260 C 0.80466 0.21076 0.05024 0.0
C261 C 0.80341 0.1578 0.10574 0.0
O262 O 0.82126 0.16666 0.1055 0.0
O263 O 0.79439 0.15415 0.08811 0.0
H264 H 0.01189 0.40746 0.80081 0.0
H265 H 0.02149 0.28697 0.81435 0.0
H266 H 0.01219 0.37793 0.86116 0.0
H267 H 0.0301 0.31826 0.75524 0.0
H268 H 0.01907 0.32027 0.83197 0.0
H269 H 0.01965 0.37512 0.78397 0.0
C270 C 0.01374 0.39423 0.81055 0.0
C271 C 0.01125 0.3954 0.83243 0.0
C272 C 0.02164 0.31986 0.81517 0.0
C273 C 0.01999 0.35825 0.81321 0.0
C274 C 0.023 0.30084 0.80509 0.0
C275 C 0.02587 0.29978 0.78325 0.0
C276 C 0.023 0.33796 0.80331 0.0
C277 C 0.02781 0.31829 0.77208 0.0
C278 C 0.01818 0.37576 0.8009 0.0
C279 C 0.0139 0.37775 0.84424 0.0
N280 N 0.02618 0.33659 0.78222 0.0
N281 N 0.01795 0.35987 0.83446 0.0
H282 H 0.83529 0.59215 0.42788 0.0
H283 H 0.8964 0.63525 0.3277 0.0
H284 H 0.83121 0.6531 0.40319 0.0
H285 H 0.89839 0.57343 0.35082 0.0
H286 H 0.87626 0.64369 0.35819 0.0
H287 H 0.86199 0.58668 0.40273 0.0
C288 C 0.84013 0.60447 0.41731 0.0
C289 C 0.8308 0.62303 0.41749 0.0
C290 C 0.88127 0.62834 0.3567 0.0
C291 C 0.86134 0.61681 0.38856 0.0
C292 C 0.89281 0.62351 0.3393 0.0
C293 C 0.89888 0.60352 0.33654 0.0
C294 C 0.8757 0.61305 0.37142 0.0
C295 C 0.89389 0.58899 0.35218 0.0
C296 C 0.85538 0.60133 0.40293 0.0
C297 C 0.83783 0.63848 0.40351 0.0
N298 N 0.88242 0.59398 0.36883 0.0
N299 N 0.85254 0.63495 0.38949 0.0
H300 H 0.54292 0.27297 0.77362 0.0
H301 H 0.54462 0.26487 0.89903 0.0
H302 H 0.54038 0.32524 0.81582 0.0
H303 H 0.55123 0.21325 0.85693 0.0
H304 H 0.54427 0.28743 0.86873 0.0
H305 H 0.54713 0.25104 0.80389 0.0
C306 C 0.54333 0.27987 0.78924 0.0
C307 C 0.54118 0.30099 0.79217 0.0
C308 C 0.54591 0.27119 0.86612 0.0
C309 C 0.54595 0.27592 0.82692 0.0
C310 C 0.54611 0.25828 0.88343 0.0
C311 C 0.54785 0.23709 0.88054 0.0
C312 C 0.54736 0.26286 0.84572 0.0
C313 C 0.5498 0.22946 0.85993 0.0
C314 C 0.54575 0.26733 0.80652 0.0
C315 C 0.5419 0.30905 0.81279 0.0
N316 N 0.54938 0.24232 0.84332 0.0
N317 N 0.54412 0.29649 0.82936 0.0
H318 H 0.89681 0.05295 0.38154 0.0
H319 H 0.82084 0.09419 0.29741 0.0
H320 H 0.91476 0.09735 0.33397 0.0
H321 H 0.80333 0.04891 0.34429 0.0
H322 H 0.85545 0.09508 0.31008 0.0
H323 H 0.86258 0.05088 0.3677 0.0
C324 C 0.89357 0.06226 0.36817 0.0
C325 C 0.90869 0.07538 0.35893 0.0
C326 C 0.84405 0.08491 0.31756 0.0
C327 C 0.86947 0.07308 0.34299 0.0
C328 C 0.82427 0.08438 0.31032 0.0
C329 C 0.80911 0.0715 0.31983 0.0
C330 C 0.84874 0.07249 0.33446 0.0
C331 C 0.81448 0.05911 0.33649 0.0
C332 C 0.874 0.06106 0.36026 0.0
C333 C 0.90359 0.08705 0.34161 0.0
N334 N 0.83383 0.05996 0.3433 0.0
N335 N 0.88441 0.08565 0.33423 0.0
H336 H 0.27173 0.72228 0.08201 0.0
H337 H 0.37746 0.77825 0.11853 0.0
H338 H 0.3238 0.69009 0.09709 0.0
H339 H 0.32365 0.80995 0.11096 0.0
H340 H 0.35917 0.74646 0.10595 0.0
H341 H 0.29169 0.75504 0.08778 0.0
C342 C 0.28741 0.72208 0.08632 0.0
C343 C 0.29604 0.70337 0.08925 0.0
C344 C 0.35139 0.76039 0.1069 0.0
C345 C 0.31895 0.74085 0.09596 0.0
C346 C 0.36183 0.77858 0.11406 0.0
C347 C 0.35203 0.79677 0.11601 0.0
C348 C 0.33096 0.76033 0.10164 0.0
C349 C 0.33179 0.79626 0.10985 0.0
C350 C 0.29878 0.7408 0.08967 0.0
C351 C 0.31645 0.7041 0.0948 0.0
N352 N 0.32188 0.7783 0.10308 0.0
N353 N 0.32716 0.72252 0.0981 0.0
H354 H 0.34498 0.76687 0.67949 0.0
H355 H 0.23533 0.80702 0.68806 0.0
H356 H 0.30013 0.75729 0.6306 0.0
H357 H 0.28084 0.81682 0.73616 0.0
H358 H 0.25976 0.79189 0.66519 0.0
H359 H 0.32273 0.78822 0.69881 0.0
C360 C 0.3305 0.76938 0.67272 0.0
C361 C 0.32434 0.76009 0.65349 0.0
C362 C 0.26449 0.79762 0.68063 0.0
C363 C 0.29865 0.78445 0.67566 0.0
C364 C 0.2506 0.80653 0.6936 0.0
C365 C 0.25616 0.81355 0.71391 0.0
C366 C 0.28402 0.79555 0.68812 0.0
C367 C 0.27593 0.81161 0.72061 0.0
C368 C 0.31778 0.78159 0.68379 0.0
C369 C 0.30546 0.76405 0.64543 0.0
N370 N 0.28911 0.80274 0.70779 0.0
N371 N 0.29321 0.77578 0.65665 0.0
H372 H 0.13405 0.79904 0.38893 0.0
H373 H 0.10092 0.68123 0.35953 0.0
H374 H 0.10831 0.75492 0.43338 0.0
H375 H 0.12619 0.72546 0.31493 0.0
H376 H 0.10087 0.70873 0.38608 0.0
H377 H 0.12864 0.77307 0.36093 0.0
C378 C 0.12711 0.78395 0.39279 0.0
C379 C 0.12179 0.77911 0.41359 0.0
C380 C 0.1063 0.71245 0.37044 0.0
C381 C 0.11564 0.74925 0.3816 0.0
C382 C 0.10631 0.69675 0.35526 0.0
C383 C 0.11372 0.70099 0.335 0.0
C384 C 0.1138 0.73257 0.36538 0.0
C385 C 0.12045 0.72143 0.33036 0.0
C386 C 0.12404 0.76911 0.37678 0.0
C387 C 0.11278 0.75932 0.41761 0.0
N388 N 0.12046 0.73641 0.34547 0.0
N389 N 0.11012 0.74508 0.40181 0.0
H390 H 0.32393 0.50354 0.74903 0.0
H391 H 0.26596 0.59683 0.79593 0.0
H392 H 0.33034 0.56522 0.72456 0.0
H393 H 0.25452 0.53358 0.81499 0.0
H394 H 0.29249 0.5864 0.77259 0.0
H395 H 0.30137 0.51518 0.77607 0.0
C396 C 0.3207 0.51957 0.7494 0.0
C397 C 0.32893 0.53339 0.73437 0.0
C398 C 0.28425 0.57483 0.78198 0.0
C399 C 0.30304 0.54683 0.76534 0.0
C400 C 0.26913 0.58078 0.79537 0.0
C401 C 0.25786 0.56603 0.80734 0.0
C402 C 0.2882 0.554 0.78058 0.0
C403 C 0.2627 0.54547 0.80596 0.0
C404 C 0.30778 0.5262 0.76485 0.0
C405 C 0.32424 0.554 0.73573 0.0
N406 N 0.27742 0.54006 0.79275 0.0
N407 N 0.31154 0.56007 0.75087 0.0
H408 H 0.54071 0.88179 0.35066 0.0
H409 H 0.5458 0.78536 0.42667 0.0
H410 H 0.53429 0.88565 0.41806 0.0
H411 H 0.54939 0.78086 0.35906 0.0
H412 H 0.54118 0.82202 0.42383 0.0
H413 H 0.54345 0.84476 0.35331 0.0
C414 C 0.53944 0.87481 0.36597 0.0
C415 C 0.53677 0.88678 0.38411 0.0
C416 C 0.54281 0.81299 0.40959 0.0
C417 C 0.54059 0.84444 0.38737 0.0
C418 C 0.54519 0.79196 0.41121 0.0
C419 C 0.54746 0.7799 0.39306 0.0
C420 C 0.54285 0.82207 0.38967 0.0
C421 C 0.54758 0.78958 0.37346 0.0
C422 C 0.54127 0.85367 0.36752 0.0
C423 C 0.53623 0.87699 0.40365 0.0
N424 N 0.54526 0.81007 0.37228 0.0
N425 N 0.53809 0.85641 0.40476 0.0
H426 H 0.28691 0.09912 0.94908 0.0
H427 H 0.26639 0.08111 0.8259 0.0
H428 H 0.31732 0.05636 0.91049 0.0
H429 H 0.24285 0.13008 0.86225 0.0
H430 H 0.28118 0.06845 0.85784 0.0
H431 H 0.26674 0.10713 0.91863 0.0
C432 C 0.2892 0.09123 0.93428 0.0
C433 C 0.30399 0.07718 0.9323 0.0
C434 C 0.27257 0.08181 0.8589 0.0
C435 C 0.28099 0.08638 0.89734 0.0
C436 C 0.26387 0.08888 0.84069 0.0
C437 C 0.25301 0.10643 0.84149 0.0
C438 C 0.27052 0.09243 0.87806 0.0
C439 C 0.25107 0.11646 0.86097 0.0
C440 C 0.27772 0.09588 0.91687 0.0
C441 C 0.30622 0.06741 0.91272 0.0
N442 N 0.25975 0.10933 0.87849 0.0
N443 N 0.29495 0.07229 0.89598 0.0
H444 H 0.77324 0.23565 0.04669 0.0
H445 H 0.84498 0.3332 0.0104 0.0
H446 H 0.83743 0.23566 0.03914 0.0
H447 H 0.78026 0.33222 0.00948 0.0
H448 H 0.84221 0.29806 0.02325 0.0
H449 H 0.77515 0.27138 0.03488 0.0
C450 C 0.78766 0.24297 0.04216 0.0
C451 C 0.80512 0.23242 0.04337 0.0
C452 C 0.82858 0.3055 0.02029 0.0
C453 C 0.80754 0.27355 0.03061 0.0
C454 C 0.83015 0.32563 0.01298 0.0
C455 C 0.81282 0.33568 0.00877 0.0
C456 C 0.80953 0.29524 0.0235 0.0
C457 C 0.79402 0.32504 0.01247 0.0
C458 C 0.78878 0.26348 0.03569 0.0
C459 C 0.82355 0.24312 0.03834 0.0
N460 N 0.79287 0.30536 0.01959 0.0
N461 N 0.82426 0.26302 0.03215 0.0
H462 H 0.80658 0.35512 0.56051 0.0
H463 H 0.798 0.23757 0.59647 0.0
H464 H 0.76824 0.33141 0.61061 0.0
H465 H 0.83877 0.26153 0.54845 0.0
H466 H 0.78362 0.27081 0.59847 0.0
H467 H 0.81552 0.32012 0.55282 0.0
C468 C 0.79979 0.34252 0.5697 0.0
C469 C 0.78642 0.34622 0.58609 0.0
C470 C 0.79559 0.26876 0.58735 0.0
C471 C 0.79675 0.30611 0.57749 0.0
C472 C 0.80379 0.24974 0.58616 0.0
C473 C 0.81979 0.2468 0.57243 0.0
C474 C 0.80346 0.28504 0.57478 0.0
C475 C 0.82656 0.26313 0.55937 0.0
C476 C 0.80491 0.32254 0.56529 0.0
C477 C 0.77815 0.32931 0.5975 0.0
N478 N 0.8185 0.2816 0.56102 0.0
N479 N 0.78356 0.31004 0.59309 0.0
H480 H 0.18659 0.20038 0.77807 0.0
H481 H 0.06817 0.18023 0.79318 0.0
H482 H 0.1581 0.1403 0.79227 0.0
H483 H 0.09514 0.22874 0.75433 0.0
H484 H 0.10141 0.16755 0.79812 0.0
H485 H 0.15338 0.21337 0.77468 0.0
C486 C 0.17336 0.18996 0.78062 0.0
C487 C 0.17509 0.16921 0.78539 0.0
C488 C 0.09999 0.18095 0.78851 0.0
C489 C 0.13714 0.184 0.78164 0.0
C490 C 0.08108 0.18822 0.78573 0.0
C491 C 0.07891 0.20551 0.77326 0.0
C492 C 0.11687 0.19127 0.77908 0.0
C493 C 0.09613 0.21528 0.76396 0.0
C494 C 0.15444 0.19736 0.77857 0.0
C495 C 0.15743 0.15638 0.78846 0.0
N496 N 0.11441 0.20809 0.76715 0.0
N497 N 0.13917 0.164 0.78661 0.0
H498 H 0.03437 0.64427 0.21828 0.0
H499 H 0.95322 0.56199 0.26846 0.0
H500 H 0.04431 0.61195 0.27568 0.0
H501 H 0.94783 0.58598 0.20603 0.0
H502 H 0.98558 0.58203 0.27248 0.0
H503 H 0.00163 0.62484 0.21456 0.0
C504 C 0.02966 0.63312 0.23013 0.0
C505 C 0.04212 0.62972 0.24732 0.0
C506 C 0.97729 0.583 0.25793 0.0
C507 C 0.00463 0.60744 0.24316 0.0
C508 C 0.95869 0.57175 0.25573 0.0
C509 C 0.94763 0.57268 0.23706 0.0
C510 C 0.9849 0.5953 0.24133 0.0
C511 C 0.95586 0.58491 0.22073 0.0
C512 C 0.01098 0.62199 0.22796 0.0
C513 C 0.03523 0.61505 0.26216 0.0
N514 N 0.97396 0.59583 0.22328 0.0
N515 N 0.01694 0.60448 0.25975 0.0
H516 H 0.48187 0.39883 0.73179 0.0
H517 H 0.4478 0.44215 0.62125 0.0
H518 H 0.51186 0.38739 0.67317 0.0
H519 H 0.41512 0.44851 0.6792 0.0
H520 H 0.47297 0.42444 0.64034 0.0
H521 H 0.45888 0.41941 0.7131 0.0
C522 C 0.48368 0.4007 0.71499 0.0
C523 C 0.49878 0.39126 0.70402 0.0
C524 C 0.46033 0.42978 0.64888 0.0
C525 C 0.47241 0.41486 0.68248 0.0
C526 C 0.44597 0.43993 0.63801 0.0
C527 C 0.42926 0.44675 0.64862 0.0
C528 C 0.45801 0.42645 0.67055 0.0
C529 C 0.42769 0.44345 0.67034 0.0
C530 C 0.47051 0.41246 0.70431 0.0
C531 C 0.50041 0.39431 0.68226 0.0
N532 N 0.44184 0.4335 0.68056 0.0
N533 N 0.48734 0.4058 0.67219 0.0
H534 H 0.66871 0.01483 0.29251 0.0
H535 H 0.6021 0.00026 0.39634 0.0
H536 H 0.68345 0.04604 0.35157 0.0
H537 H 0.58134 0.97839 0.33506 0.0
H538 H 0.63234 0.01657 0.38014 0.0
H539 H 0.6368 0.00097 0.30761 0.0
C540 C 0.6652 0.01889 0.30859 0.0
C541 C 0.67884 0.03155 0.32082 0.0
C542 C 0.62114 0.00829 0.3702 0.0
C543 C 0.64244 0.0156 0.33822 0.0
C544 C 0.60388 0.99891 0.37946 0.0
C545 C 0.58918 0.9879 0.36705 0.0
C546 C 0.62385 0.00651 0.34836 0.0
C547 C 0.59229 0.98673 0.34523 0.0
C548 C 0.64697 0.01096 0.3172 0.0
C549 C 0.67345 0.03631 0.34156 0.0
N550 N 0.60934 0.99583 0.33659 0.0
N551 N 0.65576 0.02822 0.34963 0.0
H552 H 0.05958 0.47494 0.9139 0.0
H553 H 0.1317 0.55454 0.8484 0.0
H554 H 0.04176 0.50363 0.85681 0.0
H555 H 0.15062 0.52348 0.90364 0.0
H556 H 0.09751 0.53922 0.85368 0.0
H557 H 0.09178 0.49562 0.91274 0.0
C558 C 0.06236 0.48571 0.90121 0.0
C559 C 0.04801 0.48742 0.88533 0.0
C560 C 0.1091 0.53588 0.86475 0.0
C561 C 0.08489 0.51111 0.88386 0.0
C562 C 0.12865 0.54466 0.86177 0.0
C563 C 0.14413 0.54012 0.87547 0.0
C564 C 0.10498 0.5224 0.88154 0.0
C565 C 0.13921 0.52729 0.89259 0.0
C566 C 0.08077 0.49751 0.90055 0.0
C567 C 0.05243 0.5017 0.86932 0.0
N568 N 0.12011 0.51875 0.89503 0.0
N569 N 0.07052 0.51288 0.86892 0.0
H570 H 0.617 0.69526 0.43133 0.0
H571 H 0.72276 0.66589 0.38545 0.0
H572 H 0.63162 0.69431 0.36523 0.0
H573 H 0.70881 0.66568 0.45173 0.0
H574 H 0.68942 0.6766 0.37801 0.0
H575 H 0.65054 0.68485 0.43936 0.0
C576 C 0.62726 0.69291 0.4185 0.0
C577 C 0.62148 0.69566 0.39756 0.0
C578 C 0.6936 0.67422 0.3942 0.0
C579 C 0.65985 0.68371 0.40665 0.0
C580 C 0.71268 0.66809 0.39848 0.0
C581 C 0.71862 0.66487 0.41927 0.0
C582 C 0.68027 0.6772 0.41081 0.0
C583 C 0.70486 0.66797 0.43547 0.0
C584 C 0.6464 0.68694 0.42311 0.0
C585 C 0.6354 0.69237 0.3816 0.0
N586 N 0.68632 0.67397 0.43089 0.0
N587 N 0.6539 0.68657 0.38648 0.0
H588 H 0.50396 0.14998 0.97117 0.0
H589 H 0.3904 0.13336 0.0102 0.0
H590 H 0.46955 0.19913 0.99358 0.0
H591 H 0.42486 0.08389 0.98863 0.0
H592 H 0.42067 0.15695 0.0087 0.0
H593 H 0.47674 0.12497 0.98187 0.0
C594 C 0.4908 0.15552 0.97857 0.0
C595 C 0.48893 0.17672 0.98122 0.0
C596 C 0.42167 0.14089 0.00451 0.0
C597 C 0.45764 0.14816 0.99338 0.0
C598 C 0.40437 0.12738 0.00539 0.0
C599 C 0.405 0.10664 0.99927 0.0
C600 C 0.43975 0.13367 0.99734 0.0
C601 C 0.42361 0.09978 0.99333 0.0
C602 C 0.47524 0.14122 0.98466 0.0
C603 C 0.47157 0.18296 0.99103 0.0
N604 N 0.44018 0.11331 0.99227 0.0
N605 N 0.45652 0.16877 0.99654 0.0
H606 H 0.03462 0.99425 0.41936 0.0
H607 H 0.13108 0.93382 0.44325 0.0
H608 H 0.09414 0.02471 0.42684 0.0
H609 H 0.07055 0.908 0.45474 0.0
H610 H 0.11792 0.9667 0.43486 0.0
H611 H 0.04755 0.9619 0.43011 0.0
C612 C 0.05039 0.99416 0.42333 0.0
C613 C 0.06333 0.01221 0.42218 0.0
C614 C 0.10753 0.95387 0.43931 0.0
C615 C 0.07824 0.97521 0.43429 0.0
C616 C 0.11502 0.93507 0.44403 0.0
C617 C 0.10189 0.91813 0.44968 0.0
C618 C 0.08673 0.95568 0.43997 0.0
C619 C 0.08122 0.92066 0.4505 0.0
C620 C 0.05775 0.9757 0.42951 0.0
C621 C 0.08362 0.01117 0.42755 0.0
N622 N 0.07427 0.93905 0.44556 0.0
N623 N 0.09048 0.99296 0.43322 0.0
H624 H 0.77056 0.1435 0.23662 0.0
H625 H 0.77136 0.12949 0.11165 0.0
H626 H 0.74872 0.08678 0.20531 0.0
H627 H 0.81371 0.17143 0.14544 0.0
H628 H 0.75719 0.11752 0.14531 0.0
H629 H 0.78059 0.15785 0.2025 0.0
C630 C 0.76766 0.13415 0.22255 0.0
C631 C 0.7589 0.11387 0.22381 0.0
C632 C 0.76951 0.12942 0.14529 0.0
C633 C 0.77026 0.13024 0.18479 0.0
C634 C 0.77754 0.13632 0.12613 0.0
C635 C 0.79381 0.15139 0.12578 0.0
C636 C 0.77759 0.13793 0.16417 0.0
C637 C 0.80128 0.15967 0.145 0.0
C638 C 0.77348 0.14232 0.20313 0.0
C639 C 0.75555 0.10244 0.20506 0.0
N640 N 0.79309 0.15286 0.16343 0.0
N641 N 0.76124 0.11078 0.1863 0.0
H642 H 0.00424 0.21156 0.67407 0.0
H643 H 0.89149 0.18932 0.63375 0.0
H644 H 0.95248 0.21056 0.71478 0.0
H645 H 0.94332 0.18549 0.59379 0.0
H646 H 0.9137 0.19309 0.6643 0.0
H647 H 0.98247 0.19808 0.64529 0.0
C648 C 0.98834 0.20827 0.67704 0.0
C649 C 0.98014 0.21247 0.69681 0.0
C650 C 0.92022 0.19118 0.64888 0.0
C651 C 0.9551 0.19719 0.66387 0.0
C652 C 0.90753 0.18902 0.6314 0.0
C653 C 0.91555 0.18736 0.61111 0.0
C654 C 0.94113 0.19188 0.64607 0.0
C655 C 0.93646 0.1869 0.6091 0.0
C656 C 0.97591 0.20057 0.66059 0.0
C657 C 0.95945 0.20776 0.69976 0.0
N658 N 0.94853 0.18942 0.62632 0.0
N659 N 0.94762 0.20061 0.68341 0.0
H660 H 0.85348 0.52715 0.148 0.0
H661 H 0.85612 0.42225 0.08124 0.0
H662 H 0.88502 0.47554 0.1681 0.0
H663 H 0.81763 0.47015 0.06623 0.0
H664 H 0.86785 0.44202 0.11248 0.0
H665 H 0.84143 0.50712 0.11705 0.0
C666 C 0.85793 0.51163 0.14587 0.0
C667 C 0.87028 0.50301 0.16067 0.0
C668 C 0.85678 0.44817 0.10239 0.0
C669 C 0.8565 0.47997 0.12529 0.0
C670 C 0.85006 0.43688 0.08455 0.0
C671 C 0.83587 0.44456 0.07109 0.0
C672 C 0.84935 0.46734 0.10675 0.0
C673 C 0.82856 0.46362 0.07618 0.0
C674 C 0.85099 0.50017 0.12823 0.0
C675 C 0.87552 0.48281 0.15712 0.0
N676 N 0.83545 0.47439 0.09355 0.0
N677 N 0.86862 0.47199 0.13978 0.0
H678 H 0.57601 0.30492 0.66687 0.0
H679 H 0.68943 0.35458 0.66046 0.0
H680 H 0.60052 0.35458 0.70733 0.0
H681 H 0.66256 0.31279 0.61309 0.0
H682 H 0.6575 0.35287 0.67914 0.0
H683 H 0.60803 0.30595 0.64807 0.0
C684 C 0.5881 0.31606 0.67178 0.0
C685 C 0.58557 0.3297 0.6887 0.0
C686 C 0.65856 0.34406 0.66466 0.0
C687 C 0.62227 0.33085 0.66735 0.0
C688 C 0.67684 0.34496 0.65401 0.0
C689 C 0.6787 0.33384 0.63513 0.0
C690 C 0.64198 0.33185 0.6565 0.0
C691 C 0.66182 0.32166 0.62756 0.0
C692 C 0.60637 0.31664 0.66104 0.0
C693 C 0.60177 0.3438 0.69437 0.0
N694 N 0.64416 0.32098 0.63827 0.0
N695 N 0.61942 0.34397 0.68376 0.0
H696 H 0.80301 0.57046 0.52422 0.0
H697 H 0.75583 0.45668 0.54877 0.0
H698 H 0.75464 0.53972 0.48767 0.0
H699 H 0.81367 0.48151 0.57214 0.0
H700 H 0.75353 0.48786 0.52817 0.0
H701 H 0.80532 0.53898 0.54423 0.0
C702 C 0.7928 0.55712 0.52046 0.0
C703 C 0.77861 0.55772 0.50424 0.0
C704 C 0.76676 0.48642 0.53774 0.0
C705 C 0.78118 0.52163 0.52709 0.0
C706 C 0.76808 0.46864 0.54951 0.0
C707 C 0.78498 0.46648 0.56219 0.0
C708 C 0.78233 0.50227 0.53886 0.0
C709 C 0.8004 0.48249 0.56254 0.0
C710 C 0.7942 0.53912 0.53182 0.0
C711 C 0.76583 0.53993 0.50002 0.0
N712 N 0.79864 0.49975 0.55115 0.0
N713 N 0.76738 0.52262 0.51141 0.0
H714 H 0.61779 0.1568 0.93159 0.0
H715 H 0.69519 0.21457 0.01352 0.0
H716 H 0.60235 0.20562 0.97372 0.0
H717 H 0.70943 0.16318 0.97419 0.0
H718 H 0.66135 0.21207 0.99854 0.0
H719 H 0.65163 0.15933 0.94656 0.0
C720 C 0.62149 0.16803 0.94402 0.0
C721 C 0.6072 0.18101 0.95142 0.0
C722 C 0.67188 0.20134 0.99318 0.0
C723 C 0.64596 0.18404 0.96858 0.0
C724 C 0.69122 0.20278 0.00171 0.0
C725 C 0.70518 0.18905 0.99512 0.0
C726 C 0.66643 0.18609 0.97791 0.0
C727 C 0.69917 0.17408 0.97977 0.0
C728 C 0.64083 0.16947 0.95255 0.0
C729 C 0.61287 0.19528 0.96754 0.0
N730 N 0.68026 0.173 0.9717 0.0
N731 N 0.63181 0.19643 0.97555 0.0
H732 H 0.94917 0.17981 0.49092 0.0
H733 H 0.9647 0.07239 0.43283 0.0
H734 H 0.90833 0.12541 0.49763 0.0
H735 H 0.01071 0.12273 0.43714 0.0
H736 H 0.94245 0.09252 0.45386 0.0
H737 H 0.97045 0.16012 0.46836 0.0
C738 C 0.9446 0.16375 0.48756 0.0
C739 C 0.92695 0.15424 0.49623 0.0
C740 C 0.95738 0.09921 0.45013 0.0
C741 C 0.95129 0.13159 0.47042 0.0
C742 C 0.97 0.08781 0.43792 0.0
C743 C 0.98941 0.09609 0.43289 0.0
C744 C 0.96422 0.11906 0.45731 0.0
C745 C 0.99581 0.11582 0.44063 0.0
C746 C 0.95681 0.1525 0.47474 0.0
C747 C 0.92183 0.13336 0.49134 0.0
N748 N 0.98322 0.12668 0.45236 0.0
N749 N 0.93394 0.12274 0.47876 0.0
H750 H 0.9476 0.48614 0.91729 0.0
H751 H 0.83839 0.42659 0.92331 0.0
H752 H 0.9176 0.45421 0.86465 0.0
H753 H 0.86971 0.45546 0.97684 0.0
H754 H 0.86491 0.4415 0.9004 0.0
H755 H 0.91692 0.48007 0.93798 0.0
C756 C 0.93449 0.47812 0.90997 0.0
C757 C 0.93529 0.47039 0.8893 0.0
C758 C 0.86587 0.44475 0.91714 0.0
C759 C 0.90017 0.46326 0.91295 0.0
C760 C 0.8507 0.43626 0.93023 0.0
C761 C 0.85195 0.43953 0.95208 0.0
C762 C 0.88245 0.45655 0.92594 0.0
C763 C 0.86821 0.45232 0.96012 0.0
C764 C 0.91698 0.47461 0.92182 0.0
C765 C 0.91777 0.46022 0.88061 0.0
N766 N 0.88292 0.46017 0.94708 0.0
N767 N 0.90102 0.45675 0.89255 0.0
H768 H 0.25171 0.61411 0.17852 0.0
H769 H 0.13634 0.63349 0.19585 0.0
H770 H 0.20976 0.62085 0.12785 0.0
H771 H 0.17949 0.63089 0.24619 0.0
H772 H 0.16157 0.62304 0.17097 0.0
H773 H 0.22403 0.61418 0.20355 0.0
C774 C 0.23664 0.61531 0.17261 0.0
C775 C 0.23311 0.6178 0.15106 0.0
C776 C 0.16545 0.62454 0.18749 0.0
C777 C 0.20135 0.61808 0.1797 0.0
C778 C 0.15103 0.63049 0.20173 0.0
C779 C 0.15587 0.63337 0.22313 0.0
C780 C 0.18487 0.62148 0.19467 0.0
C781 C 0.17513 0.6291 0.22982 0.0
C782 C 0.22083 0.6154 0.18693 0.0
C783 C 0.21322 0.61911 0.14433 0.0
N784 N 0.18897 0.62358 0.21562 0.0
N785 N 0.19813 0.61949 0.15862 0.0
H786 H 0.14646 0.86969 0.53565 0.0
H787 H 0.2321 0.82326 0.60462 0.0
H788 H 0.18831 0.82823 0.51118 0.0
H789 H 0.18725 0.86031 0.63079 0.0
H790 H 0.21787 0.82735 0.5697 0.0
H791 H 0.16283 0.86886 0.57006 0.0
C792 C 0.15914 0.86051 0.53746 0.0
C793 C 0.16593 0.84892 0.5205 0.0
C794 C 0.21117 0.83465 0.58306 0.0
C795 C 0.18471 0.84788 0.55984 0.0
C796 C 0.21931 0.83234 0.60303 0.0
C797 C 0.21079 0.84135 0.6207 0.0
C798 C 0.19437 0.84608 0.5807 0.0
C799 C 0.19425 0.853 0.61763 0.0
C800 C 0.16846 0.86001 0.55712 0.0
C801 C 0.18246 0.83732 0.5238 0.0
N802 N 0.18654 0.85496 0.59803 0.0
N803 N 0.19122 0.83706 0.54306 0.0
H804 H 0.26646 0.63515 0.00732 0.0
H805 H 0.19206 0.59396 0.91611 0.0
H806 H 0.20219 0.63223 0.01566 0.0
H807 H 0.24637 0.63211 0.90298 0.0
H808 H 0.1975 0.60083 0.95387 0.0
H809 H 0.26127 0.62696 0.96982 0.0
C810 C 0.25127 0.63265 0.00128 0.0
C811 C 0.23471 0.63443 0.01454 0.0
C812 C 0.2082 0.60762 0.94266 0.0
C813 C 0.22874 0.62477 0.97194 0.0
C814 C 0.20518 0.60365 0.92119 0.0
C815 C 0.21876 0.61257 0.90646 0.0
C816 C 0.22517 0.62013 0.94938 0.0
C817 C 0.23549 0.62507 0.91384 0.0
C818 C 0.24835 0.62809 0.97992 0.0
C819 C 0.21534 0.63112 0.00591 0.0
N820 N 0.23832 0.62836 0.93483 0.0
N821 N 0.21287 0.62628 0.98514 0.0
H822 H 0.44473 0.7466 0.5904 0.0
H823 H 0.44537 0.75058 0.4646 0.0
H824 H 0.3913 0.73685 0.55206 0.0
H825 H 0.49875 0.76044 0.503 0.0
H826 H 0.42509 0.74753 0.49651 0.0
H827 H 0.46451 0.75372 0.55866 0.0
C828 C 0.43713 0.74607 0.57532 0.0
C829 C 0.41633 0.74103 0.57389 0.0
C830 C 0.44123 0.75047 0.49797 0.0
C831 C 0.43892 0.74909 0.53744 0.0
C832 C 0.45283 0.75222 0.47973 0.0
C833 C 0.47382 0.75566 0.4811 0.0
C834 C 0.45066 0.75211 0.51775 0.0
C835 C 0.48263 0.75771 0.50116 0.0
C836 C 0.44845 0.75012 0.55718 0.0
C837 C 0.4073 0.74061 0.55391 0.0
N838 N 0.47102 0.7558 0.51868 0.0
N839 N 0.41867 0.74449 0.53648 0.0
H840 H 0.34712 0.00407 0.04933 0.0
H841 H 0.4102 0.90576 0.06216 0.0
H842 H 0.38645 0.98292 0.00125 0.0
H843 H 0.3609 0.91854 0.10285 0.0
H844 H 0.40329 0.93535 0.04088 0.0
H845 H 0.35346 0.97411 0.07037 0.0
C846 C 0.35707 0.99312 0.04318 0.0
C847 C 0.36626 0.99601 0.02349 0.0
C848 C 0.39396 0.93166 0.05444 0.0
C849 C 0.37369 0.96176 0.04755 0.0
C850 C 0.39793 0.9148 0.06664 0.0
C851 C 0.3861 0.90965 0.08432 0.0
C852 C 0.37816 0.9436 0.06005 0.0
C853 C 0.37037 0.92191 0.08933 0.0
C854 C 0.36065 0.976 0.05519 0.0
C855 C 0.379 0.98129 0.01631 0.0
N856 N 0.36691 0.93835 0.07731 0.0
N857 N 0.3824 0.96487 0.02838 0.0
H858 H 0.44388 0.90769 0.29824 0.0
H859 H 0.44777 0.87382 0.17682 0.0
H860 H 0.49693 0.88735 0.26829 0.0
H861 H 0.39309 0.88525 0.20959 0.0
H862 H 0.46668 0.88171 0.2093 0.0
H863 H 0.42566 0.90222 0.26507 0.0
C864 C 0.45172 0.90208 0.28469 0.0
C865 C 0.47196 0.89791 0.28608 0.0
C866 C 0.45055 0.88256 0.20935 0.0
C867 C 0.45117 0.89169 0.24797 0.0
C868 C 0.43975 0.87814 0.19079 0.0
C869 C 0.41878 0.87878 0.19048 0.0
C870 C 0.44035 0.88776 0.22773 0.0
C871 C 0.40921 0.88446 0.20908 0.0
C872 C 0.44129 0.89895 0.26574 0.0
C873 C 0.48132 0.89069 0.26797 0.0
N874 N 0.42006 0.88868 0.22694 0.0
N875 N 0.47085 0.88782 0.24966 0.0
H876 H 0.21937 0.00415 0.78082 0.0
H877 H 0.24811 0.89161 0.81237 0.0
H878 H 0.26038 0.99311 0.83121 0.0
H879 H 0.20807 0.90326 0.76133 0.0
H880 H 0.25277 0.92866 0.81966 0.0
H881 H 0.215 0.96717 0.77364 0.0
C882 C 0.22747 0.99395 0.7904 0.0
C883 C 0.24027 0.00177 0.80666 0.0
C884 C 0.24298 0.92311 0.80686 0.0
C885 C 0.23531 0.95931 0.79849 0.0
C886 C 0.2403 0.90195 0.80268 0.0
C887 C 0.22766 0.89431 0.78621 0.0
C888 C 0.23293 0.93674 0.79449 0.0
C889 C 0.21795 0.90844 0.77418 0.0
C890 C 0.22496 0.97281 0.78627 0.0
C891 C 0.25036 0.98778 0.81852 0.0
N892 N 0.22078 0.92895 0.77857 0.0
N893 N 0.24766 0.96723 0.8142 0.0
H894 H 0.39064 0.55 0.66121 0.0
H895 H 0.35253 0.6427 0.59549 0.0
H896 H 0.36866 0.5427 0.59752 0.0
H897 H 0.39244 0.65239 0.64881 0.0
H898 H 0.35561 0.60564 0.59761 0.0
H899 H 0.38867 0.58732 0.65871 0.0
C900 C 0.38519 0.55625 0.6468 0.0
C901 C 0.37947 0.54328 0.62967 0.0
C902 C 0.36375 0.61589 0.60878 0.0
C903 C 0.37742 0.58583 0.62659 0.0
C904 C 0.36196 0.63704 0.60763 0.0
C905 C 0.37224 0.65067 0.622 0.0
C906 C 0.37568 0.60826 0.6246 0.0
C907 C 0.3843 0.64245 0.63737 0.0
C908 C 0.38428 0.57753 0.64529 0.0
C909 C 0.37315 0.5522 0.61111 0.0
N910 N 0.38558 0.62176 0.63836 0.0
N911 N 0.37212 0.57291 0.61011 0.0
loop_
_geom_bond_atom_site_label_1
_geom_bond_atom_site_label_2
_geom_bond_distance
_geom_bond_site_symmetry_2
_ccdc_geom_bond_type
O0 Cd1 2.300 . S
O0 C7 1.310 . S
Cd1 O0 2.300 . S
Cd1 O9 2.381 . S
Cd1 O10 2.378 . S
O2 Cd3 2.385 . S
O2 C7 1.231 1_655 S
Cd3 O2 2.385 . S
Cd3 O4 2.317 . S
O4 Cd3 2.317 . S
O4 C5 1.232 . S
C5 O4 1.232 . S
C5 O6 1.218 . S
O6 C5 1.218 . S
C7 O0 1.310 . S
C7 O2 1.231 1_455 S
C8 O9 1.258 . S
C8 O10 1.256 . S
O9 Cd1 2.381 . S
O9 C8 1.258 . S
O10 Cd1 2.378 . S
O10 C8 1.256 . S
O11 Cd12 2.300 . S
O11 C18 1.275 . S
Cd12 O11 2.300 . S
Cd12 O20 2.381 . S
Cd12 O21 2.378 . S
O13 Cd14 2.385 . S
O13 C18 1.255 . S
Cd14 O13 2.385 . S
Cd14 O15 2.317 . S
O15 Cd14 2.317 . S
O15 C16 1.232 . S
C16 O15 1.232 . S
C16 O17 1.218 . S
O17 C16 1.218 . S
C18 O11 1.275 . S
C18 O13 1.255 . S
C19 O20 1.258 . S
C19 O21 1.256 . S
O20 Cd12 2.381 . S
O20 C19 1.258 . S
O21 Cd12 2.378 . S
O21 C19 1.256 . S
O22 Cd23 2.300 . S
O22 C29 1.275 . S
Cd23 O22 2.300 . S
Cd23 O31 2.381 . S
Cd23 O32 2.378 . S
O24 Cd25 2.385 . S
O24 C29 1.255 . S
Cd25 O24 2.385 . S
Cd25 O26 2.317 . S
O26 Cd25 2.317 . S
O26 C27 1.232 . S
C27 O26 1.232 . S
C27 O28 1.218 . S
O28 C27 1.218 . S
C29 O22 1.275 . S
C29 O24 1.255 . S
C30 O31 1.258 . S
C30 O32 1.256 . S
O31 Cd23 2.381 . S
O31 C30 1.258 . S
O32 Cd23 2.378 . S
O32 C30 1.256 . S
O33 Cd34 2.300 . S
O33 C40 1.275 . S
Cd34 O33 2.300 . S
Cd34 O42 2.381 . S
Cd34 O43 2.378 . S
O35 Cd36 2.385 1_545 S
O35 C40 1.255 . S
Cd36 O35 2.385 1_565 S
Cd36 O37 2.317 1_565 S
O37 Cd36 2.317 1_545 S
O37 C38 1.232 . S
C38 O37 1.232 . S
C38 O39 1.218 1_545 S
O39 C38 1.218 1_565 S
C40 O33 1.275 . S
C40 O35 1.255 . S
C41 O42 1.258 . S
C41 O43 1.256 . S
O42 Cd34 2.381 . S
O42 C41 1.258 . S
O43 Cd34 2.378 . S
O43 C41 1.256 . S
O44 Cd45 2.300 . S
O44 C51 1.275 1_455 S
Cd45 O44 2.300 . S
Cd45 O53 2.381 . S
Cd45 O54 2.378 . S
O46 Cd47 2.385 . S
O46 C51 1.255 . S
Cd47 O46 2.385 . S
Cd47 O48 2.317 . S
O48 Cd47 2.317 . S
O48 C49 1.232 . S
C49 O48 1.232 . S
C49 O50 1.218 . S
O50 C49 1.218 . S
C51 O44 1.275 1_655 S
C51 O46 1.255 . S
C52 O53 1.258 . S
C52 O54 1.256 . S
O53 Cd45 2.381 . S
O53 C52 1.258 . S
O54 Cd45 2.378 . S
O54 C52 1.256 . S
O55 Cd56 2.300 . S
O55 C62 1.275 . S
Cd56 O55 2.300 . S
Cd56 O64 2.381 . S
Cd56 O65 2.378 . S
O57 Cd58 2.385 . S
O57 C62 1.255 . S
Cd58 O57 2.385 . S
Cd58 O59 2.317 . S
O59 Cd58 2.317 . S
O59 C60 1.232 . S
C60 O59 1.232 . S
C60 O61 1.218 . S
O61 C60 1.218 . S
C62 O55 1.275 . S
C62 O57 1.255 . S
C63 O64 1.258 . S
C63 O65 1.256 . S
O64 Cd56 2.381 . S
O64 C63 1.258 . S
O65 Cd56 2.378 . S
O65 C63 1.256 . S
O66 Cd67 2.300 . S
O66 C73 1.275 . S
Cd67 O66 2.300 . S
Cd67 O75 2.381 . S
Cd67 O76 2.378 . S
O68 Cd69 2.385 . S
O68 C73 1.255 . S
Cd69 O68 2.385 . S
Cd69 O70 2.317 . S
O70 Cd69 2.317 . S
O70 C71 1.232 . S
C71 O70 1.232 . S
C71 O72 1.218 . S
O72 C71 1.218 . S
C73 O66 1.275 . S
C73 O68 1.255 . S
C74 O75 1.258 . S
C74 O76 1.256 . S
O75 Cd67 2.381 . S
O75 C74 1.258 . S
O76 Cd67 2.378 . S
O76 C74 1.256 . S
O77 Cd78 2.300 . S
O77 C84 1.275 . S
Cd78 O77 2.300 . S
Cd78 O86 2.381 . S
Cd78 O87 2.378 . S
O79 Cd80 2.385 . S
O79 C84 1.255 . S
Cd80 O79 2.385 . S
Cd80 O81 2.317 . S
O81 Cd80 2.317 . S
O81 C82 1.232 . S
C82 O81 1.232 . S
C82 O83 1.218 . S
O83 C82 1.218 . S
C84 O77 1.275 . S
C84 O79 1.255 . S
C85 O86 1.258 . S
C85 O87 1.256 . S
O86 Cd78 2.381 . S
O86 C85 1.258 . S
O87 Cd78 2.378 . S
O87 C85 1.256 . S
O88 Cd89 2.300 . S
O88 C95 1.275 . S
Cd89 O88 2.300 . S
Cd89 O97 2.381 . S
Cd89 O98 2.378 . S
O90 Cd91 2.385 . S
O90 C95 1.255 . S
Cd91 O90 2.385 . S
Cd91 O92 2.317 . S
O92 Cd91 2.317 . S
O92 C93 1.232 . S
C93 O92 1.232 . S
C93 O94 1.218 . S
O94 C93 1.218 . S
C95 O88 1.275 . S
C95 O90 1.255 . S
C96 O97 1.258 . S
C96 O98 1.256 . S
O97 Cd89 2.381 . S
O97 C96 1.258 . S
O98 Cd89 2.378 . S
O98 C96 1.256 . S
O99 Cd100 2.300 . S
O99 C106 1.275 . S
Cd100 O99 2.300 . S
Cd100 O108 2.381 . S
Cd100 O109 2.378 . S
O101 Cd102 2.385 . S
O101 C106 1.255 . S
Cd102 O101 2.385 . S
Cd102 O103 2.317 . S
O103 Cd102 2.317 . S
O103 C104 1.232 . S
C104 O103 1.232 . S
C104 O105 1.218 . S
O105 C104 1.218 . S
C106 O99 1.275 . S
C106 O101 1.255 . S
C107 O108 1.258 . S
C107 O109 1.256 . S
O108 Cd100 2.381 . S
O108 C107 1.258 . S
O109 Cd100 2.378 . S
O109 C107 1.256 . S
O110 Cd111 2.300 . S
O110 C117 1.275 . S
Cd111 O110 2.300 . S
Cd111 O119 2.381 . S
Cd111 O120 2.378 . S
O112 Cd113 2.385 . S
O112 C117 1.255 . S
Cd113 O112 2.385 . S
Cd113 O114 2.317 . S
O114 Cd113 2.317 . S
O114 C115 1.232 . S
C115 O114 1.232 . S
C115 O116 1.218 . S
O116 C115 1.218 . S
C117 O110 1.275 . S
C117 O112 1.255 . S
C118 O119 1.258 . S
C118 O120 1.256 . S
O119 Cd111 2.381 . S
O119 C118 1.258 . S
O120 Cd111 2.378 . S
O120 C118 1.256 . S
O121 Cd122 2.300 . S
O121 C128 1.275 . S
Cd122 O121 2.300 . S
Cd122 O130 2.381 . S
Cd122 O131 2.378 . S
O123 Cd124 2.385 . S
O123 C128 1.255 . S
Cd124 O123 2.385 . S
Cd124 O125 2.317 . S
O125 Cd124 2.317 . S
O125 C126 1.232 . S
C126 O125 1.232 . S
C126 O127 1.218 . S
O127 C126 1.218 . S
C128 O121 1.275 . S
C128 O123 1.255 . S
C129 O130 1.258 . S
C129 O131 1.256 . S
O130 Cd122 2.381 . S
O130 C129 1.258 . S
O131 Cd122 2.378 . S
O131 C129 1.256 . S
O132 Cd133 2.300 . S
O132 C139 1.275 . S
Cd133 O132 2.300 . S
Cd133 O141 2.381 . S
Cd133 O142 2.378 . S
O134 Cd135 2.385 . S
O134 C139 1.255 . S
Cd135 O134 2.385 . S
Cd135 O136 2.317 . S
O136 Cd135 2.317 . S
O136 C137 1.232 . S
C137 O136 1.232 . S
C137 O138 1.218 . S
O138 C137 1.218 . S
C139 O132 1.275 . S
C139 O134 1.255 . S
C140 O141 1.258 . S
C140 O142 1.256 . S
O141 Cd133 2.381 . S
O141 C140 1.258 . S
O142 Cd133 2.378 . S
O142 C140 1.256 . S
O143 Cd144 2.300 . S
O143 C150 1.275 . S
Cd144 O143 2.300 . S
Cd144 O152 2.381 . S
Cd144 O153 2.378 . S
O145 Cd146 2.385 . S
O145 C150 1.255 . S
Cd146 O145 2.385 . S
Cd146 O147 2.317 . S
O147 Cd146 2.317 . S
O147 C148 1.232 . S
C148 O147 1.232 . S
C148 O149 1.218 . S
O149 C148 1.218 . S
C150 O143 1.275 . S
C150 O145 1.255 . S
C151 O152 1.258 . S
C151 O153 1.256 . S
O152 Cd144 2.381 . S
O152 C151 1.258 . S
O153 Cd144 2.378 . S
O153 C151 1.256 . S
O154 Cd155 2.300 . S
O154 C161 1.275 . S
Cd155 O154 2.300 . S
Cd155 O163 2.381 . S
Cd155 O164 2.378 . S
O156 Cd157 2.385 . S
O156 C161 1.255 . S
Cd157 O156 2.385 . S
Cd157 O158 2.317 . S
O158 Cd157 2.317 . S
O158 C159 1.232 . S
C159 O158 1.232 . S
C159 O160 1.218 . S
O160 C159 1.218 . S
C161 O154 1.275 . S
C161 O156 1.255 . S
C162 O163 1.258 . S
C162 O164 1.256 . S
O163 Cd155 2.381 . S
O163 C162 1.258 . S
O164 Cd155 2.378 . S
O164 C162 1.256 . S
O165 Cd166 2.275 1_556 S
O165 C172 1.275 . S
Cd166 O165 2.275 1_554 S
Cd166 O174 2.404 . S
Cd166 O175 2.415 . S
O167 Cd168 2.385 . S
O167 C172 1.255 . S
Cd168 O167 2.385 . S
Cd168 O169 2.317 . S
O169 Cd168 2.317 . S
O169 C170 1.232 . S
C170 O169 1.232 . S
C170 O171 1.218 . S
O171 C170 1.218 . S
C172 O165 1.275 . S
C172 O167 1.255 . S
C173 O174 1.258 . S
C173 O175 1.256 . S
O174 Cd166 2.404 . S
O174 C173 1.258 . S
O175 Cd166 2.415 . S
O175 C173 1.256 . S
O176 Cd177 2.300 . S
O176 C183 1.275 . S
Cd177 O176 2.300 . S
Cd177 O185 2.381 . S
Cd177 O186 2.378 . S
O178 Cd179 2.385 . S
O178 C183 1.255 . S
Cd179 O178 2.385 . S
Cd179 O180 2.317 . S
O180 Cd179 2.317 . S
O180 C181 1.232 . S
C181 O180 1.232 . S
C181 O182 1.218 . S
O182 C181 1.218 . S
C183 O176 1.275 . S
C183 O178 1.255 . S
C184 O185 1.258 . S
C184 O186 1.256 . S
O185 Cd177 2.381 . S
O185 C184 1.258 . S
O186 Cd177 2.378 . S
O186 C184 1.256 . S
O187 Cd188 2.300 . S
O187 C194 1.275 . S
Cd188 O187 2.300 . S
Cd188 O196 2.381 . S
Cd188 O197 2.378 . S
O189 Cd190 2.385 . S
O189 C194 1.255 . S
Cd190 O189 2.385 . S
Cd190 O191 2.317 . S
O191 Cd190 2.317 . S
O191 C192 1.232 . S
C192 O191 1.232 . S
C192 O193 1.218 . S
O193 C192 1.218 . S
C194 O187 1.275 . S
C194 O189 1.255 . S
C195 O196 1.258 . S
C195 O197 1.256 . S
O196 Cd188 2.381 . S
O196 C195 1.258 . S
O197 Cd188 2.378 . S
O197 C195 1.256 . S
O198 Cd199 2.300 . S
O198 C205 1.275 . S
Cd199 O198 2.300 . S
Cd199 O207 2.381 . S
Cd199 O208 2.378 . S
O200 Cd201 2.385 . S
O200 C205 1.255 . S
Cd201 O200 2.385 . S
Cd201 O202 2.317 . S
O202 Cd201 2.317 . S
O202 C203 1.232 . S
C203 O202 1.232 . S
C203 O204 1.218 . S
O204 C203 1.218 . S
C205 O198 1.275 . S
C205 O200 1.255 . S
C206 O207 1.258 . S
C206 O208 1.256 . S
O207 Cd199 2.381 . S
O207 C206 1.258 . S
O208 Cd199 2.378 . S
O208 C206 1.256 . S
O209 Cd210 2.300 . S
O209 C216 1.275 . S
Cd210 O209 2.300 . S
Cd210 O218 2.381 . S
Cd210 O219 2.378 . S
O211 Cd212 2.385 . S
O211 C216 1.255 . S
Cd212 O211 2.385 . S
Cd212 O213 2.317 . S
O213 Cd212 2.317 . S
O213 C214 1.232 . S
C214 O213 1.232 . S
C214 O215 1.218 . S
O215 C214 1.218 . S
C216 O209 1.275 . S
C216 O211 1.255 . S
C217 O218 1.258 . S
C217 O219 1.256 . S
O218 Cd210 2.381 . S
O218 C217 1.258 . S
O219 Cd210 2.378 . S
O219 C217 1.256 . S
O220 Cd221 2.320 . S
O220 C227 1.248 1_554 S
Cd221 O220 2.320 . S
Cd221 O229 2.381 . S
Cd221 O230 2.378 . S
O222 Cd223 2.385 . S
O222 C227 1.255 . S
Cd223 O222 2.385 . S
Cd223 O224 2.317 1_556 S
O224 Cd223 2.317 1_554 S
O224 C225 1.232 1_554 S
C225 O224 1.232 1_556 S
C225 O226 1.218 . S
O226 C225 1.218 . S
C227 O220 1.248 1_556 S
C227 O222 1.255 . S
C228 O229 1.258 . S
C228 O230 1.256 . S
O229 Cd221 2.381 . S
O229 C228 1.258 . S
O230 Cd221 2.378 . S
O230 C228 1.256 . S
O231 Cd232 2.300 . S
O231 C238 1.275 . S
Cd232 O231 2.300 . S
Cd232 O240 2.381 . S
Cd232 O241 2.378 . S
O233 Cd234 2.385 . S
O233 C238 1.255 . S
Cd234 O233 2.385 . S
Cd234 O235 2.317 . S
O235 Cd234 2.317 . S
O235 C236 1.232 . S
C236 O235 1.232 . S
C236 O237 1.218 . S
O237 C236 1.218 . S
C238 O231 1.275 . S
C238 O233 1.255 . S
C239 O240 1.258 . S
C239 O241 1.256 . S
O240 Cd232 2.381 . S
O240 C239 1.258 . S
O241 Cd232 2.378 . S
O241 C239 1.256 . S
O242 Cd243 2.300 . S
O242 C249 1.275 . S
Cd243 O242 2.300 . S
Cd243 O251 2.381 . S
Cd243 O252 2.378 . S
O244 Cd245 2.385 . S
O244 C249 1.255 . S
Cd245 O244 2.385 . S
Cd245 O246 2.317 . S
O246 Cd245 2.317 . S
O246 C247 1.232 . S
C247 O246 1.232 . S
C247 O248 1.218 . S
O248 C247 1.218 . S
C249 O242 1.275 . S
C249 O244 1.255 . S
C250 O251 1.258 . S
C250 O252 1.256 . S
O251 Cd243 2.381 . S
O251 C250 1.258 . S
O252 Cd243 2.378 . S
O252 C250 1.256 . S
O253 Cd254 2.300 . S
O253 C260 1.277 1_554 S
Cd254 O253 2.300 . S
Cd254 O262 2.381 . S
Cd254 O263 2.378 . S
O255 Cd256 2.385 . S
O255 C260 1.257 1_554 S
Cd256 O255 2.385 . S
Cd256 O257 2.317 1_554 S
O257 Cd256 2.317 1_556 S
O257 C258 1.232 . S
C258 O257 1.232 . S
C258 O259 1.218 . S
O259 C258 1.218 . S
C260 O253 1.277 1_556 S
C260 O255 1.257 1_556 S
C261 O262 1.258 . S
C261 O263 1.256 . S
O262 Cd254 2.381 . S
O262 C261 1.258 . S
O263 Cd254 2.378 . S
O263 C261 1.256 . S
H264 C270 0.930 . S
H265 C274 0.930 . S
H266 C279 0.929 . S
H267 C277 0.929 . S
H268 C272 0.929 . S
H269 C278 0.929 . S
C270 H264 0.930 . S
C270 C271 1.367 . S
C270 C278 1.378 . S
C271 C270 1.367 . S
C271 C279 1.433 1_655 S
C272 H268 0.929 . S
C272 C274 1.378 . S
C272 C276 1.350 1_455 S
C273 C276 1.463 . S
C273 C278 1.350 . S
C273 N281 1.427 1_655 S
C274 H265 0.930 . S
C274 C272 1.378 . S
C274 C275 1.367 1_455 S
C275 C274 1.367 1_655 S
C275 C277 1.433 . S
C276 C272 1.350 1_655 S
C276 C273 1.463 . S
C276 N280 1.427 . S
C277 H267 0.929 . S
C277 C275 1.433 . S
C277 N280 1.384 . S
C278 H269 0.929 . S
C278 C270 1.378 . S
C278 C273 1.350 . S
C279 H266 0.929 . S
C279 C271 1.433 1_455 S
C279 N281 1.384 . S
N280 C276 1.427 . S
N280 C277 1.384 . S
N281 C273 1.427 1_455 S
N281 C279 1.384 . S
H282 C288 0.930 . S
H283 C292 0.930 . S
H284 C297 0.929 . S
H285 C295 0.929 . S
H286 C290 0.929 . S
H287 C296 0.929 . S
C288 H282 0.930 . S
C288 C289 1.367 . S
C288 C296 1.378 . S
C289 C288 1.367 . S
C289 C297 1.433 . S
C290 H286 0.929 . S
C290 C292 1.378 . S
C290 C294 1.350 . S
C291 C294 1.463 . S
C291 C296 1.350 . S
C291 N299 1.427 . S
C292 H283 0.930 . S
C292 C290 1.378 . S
C292 C293 1.367 . S
C293 C292 1.367 . S
C293 C295 1.433 . S
C294 C290 1.350 . S
C294 C291 1.463 . S
C294 N298 1.427 . S
C295 H285 0.929 . S
C295 C293 1.433 . S
C295 N298 1.384 . S
C296 H287 0.929 . S
C296 C288 1.378 . S
C296 C291 1.350 . S
C297 H284 0.929 . S
C297 C289 1.433 . S
C297 N299 1.384 . S
N298 C294 1.427 . S
N298 C295 1.384 . S
N299 C291 1.427 . S
N299 C297 1.384 . S
H300 C306 0.930 . S
H301 C310 0.930 . S
H302 C315 0.929 . S
H303 C313 0.929 . S
H304 C308 0.929 . S
H305 C314 0.929 . S
C306 H300 0.930 . S
C306 C307 1.367 . S
C306 C314 1.378 . S
C307 C306 1.367 . S
C307 C315 1.433 . S
C308 H304 0.929 . S
C308 C310 1.378 . S
C308 C312 1.350 . S
C309 C312 1.463 . S
C309 C314 1.350 . S
C309 N317 1.427 . S
C310 H301 0.930 . S
C310 C308 1.378 . S
C310 C311 1.367 . S
C311 C310 1.367 . S
C311 C313 1.433 . S
C312 C308 1.350 . S
C312 C309 1.463 . S
C312 N316 1.427 . S
C313 H303 0.929 . S
C313 C311 1.433 . S
C313 N316 1.384 . S
C314 H305 0.929 . S
C314 C306 1.378 . S
C314 C309 1.350 . S
C315 H302 0.929 . S
C315 C307 1.433 . S
C315 N317 1.384 . S
N316 C312 1.427 . S
N316 C313 1.384 . S
N317 C309 1.427 . S
N317 C315 1.384 . S
H318 C324 0.930 . S
H319 C328 0.930 . S
H320 C333 0.929 . S
H321 C331 0.929 . S
H322 C326 0.929 . S
H323 C332 0.929 . S
C324 H318 0.930 . S
C324 C325 1.367 . S
C324 C332 1.378 . S
C325 C324 1.367 . S
C325 C333 1.433 . S
C326 H322 0.929 . S
C326 C328 1.378 . S
C326 C330 1.350 . S
C327 C330 1.463 . S
C327 C332 1.350 . S
C327 N335 1.427 . S
C328 H319 0.930 . S
C328 C326 1.378 . S
C328 C329 1.367 . S
C329 C328 1.367 . S
C329 C331 1.433 . S
C330 C326 1.350 . S
C330 C327 1.463 . S
C330 N334 1.427 . S
C331 H321 0.929 . S
C331 C329 1.433 . S
C331 N334 1.384 . S
C332 H323 0.929 . S
C332 C324 1.378 . S
C332 C327 1.350 . S
C333 H320 0.929 . S
C333 C325 1.433 . S
C333 N335 1.384 . S
N334 C330 1.427 . S
N334 C331 1.384 . S
N335 C327 1.427 . S
N335 C333 1.384 . S
H336 C342 0.930 . S
H337 C346 0.930 . S
H338 C351 0.929 . S
H339 C349 0.929 . S
H340 C344 0.929 . S
H341 C350 0.929 . S
C342 H336 0.930 . S
C342 C343 1.367 . S
C342 C350 1.378 . S
C343 C342 1.367 . S
C343 C351 1.433 . S
C344 H340 0.929 . S
C344 C346 1.378 . S
C344 C348 1.350 . S
C345 C348 1.463 . S
C345 C350 1.350 . S
C345 N353 1.427 . S
C346 H337 0.930 . S
C346 C344 1.378 . S
C346 C347 1.367 . S
C347 C346 1.367 . S
C347 C349 1.433 . S
C348 C344 1.350 . S
C348 C345 1.463 . S
C348 N352 1.427 . S
C349 H339 0.929 . S
C349 C347 1.433 . S
C349 N352 1.384 . S
C350 H341 0.929 . S
C350 C342 1.378 . S
C350 C345 1.350 . S
C351 H338 0.929 . S
C351 C343 1.433 . S
C351 N353 1.384 . S
N352 C348 1.427 . S
N352 C349 1.384 . S
N353 C345 1.427 . S
N353 C351 1.384 . S
H354 C360 0.930 . S
H355 C364 0.930 . S
H356 C369 0.929 . S
H357 C367 0.929 . S
H358 C362 0.929 . S
H359 C368 0.929 . S
C360 H354 0.930 . S
C360 C361 1.367 . S
C360 C368 1.378 . S
C361 C360 1.367 . S
C361 C369 1.433 . S
C362 H358 0.929 . S
C362 C364 1.378 . S
C362 C366 1.350 . S
C363 C366 1.463 . S
C363 C368 1.350 . S
C363 N371 1.427 . S
C364 H355 0.930 . S
C364 C362 1.378 . S
C364 C365 1.367 . S
C365 C364 1.367 . S
C365 C367 1.433 . S
C366 C362 1.350 . S
C366 C363 1.463 . S
C366 N370 1.427 . S
C367 H357 0.929 . S
C367 C365 1.433 . S
C367 N370 1.384 . S
C368 H359 0.929 . S
C368 C360 1.378 . S
C368 C363 1.350 . S
C369 H356 0.929 . S
C369 C361 1.433 . S
C369 N371 1.384 . S
N370 C366 1.427 . S
N370 C367 1.384 . S
N371 C363 1.427 . S
N371 C369 1.384 . S
H372 C378 0.930 . S
H373 C382 0.930 . S
H374 C387 0.929 . S
H375 C385 0.929 . S
H376 C380 0.929 . S
H377 C386 0.929 . S
C378 H372 0.930 . S
C378 C379 1.367 . S
C378 C386 1.378 . S
C379 C378 1.367 . S
C379 C387 1.433 . S
C380 H376 0.929 . S
C380 C382 1.378 . S
C380 C384 1.350 . S
C381 C384 1.463 . S
C381 C386 1.350 . S
C381 N389 1.427 . S
C382 H373 0.930 . S
C382 C380 1.378 . S
C382 C383 1.367 . S
C383 C382 1.367 . S
C383 C385 1.433 . S
C384 C380 1.350 . S
C384 C381 1.463 . S
C384 N388 1.427 . S
C385 H375 0.929 . S
C385 C383 1.433 . S
C385 N388 1.384 . S
C386 H377 0.929 . S
C386 C378 1.378 . S
C386 C381 1.350 . S
C387 H374 0.929 . S
C387 C379 1.433 . S
C387 N389 1.384 . S
N388 C384 1.427 . S
N388 C385 1.384 . S
N389 C381 1.427 . S
N389 C387 1.384 . S
H390 C396 0.930 . S
H391 C400 0.930 . S
H392 C405 0.929 . S
H393 C403 0.929 . S
H394 C398 0.929 . S
H395 C404 0.929 . S
C396 H390 0.930 . S
C396 C397 1.367 . S
C396 C404 1.378 . S
C397 C396 1.367 . S
C397 C405 1.433 . S
C398 H394 0.929 . S
C398 C400 1.378 . S
C398 C402 1.350 . S
C399 C402 1.463 . S
C399 C404 1.350 . S
C399 N407 1.427 . S
C400 H391 0.930 . S
C400 C398 1.378 . S
C400 C401 1.367 . S
C401 C400 1.367 . S
C401 C403 1.433 . S
C402 C398 1.350 . S
C402 C399 1.463 . S
C402 N406 1.427 . S
C403 H393 0.929 . S
C403 C401 1.433 . S
C403 N406 1.384 . S
C404 H395 0.929 . S
C404 C396 1.378 . S
C404 C399 1.350 . S
C405 H392 0.929 . S
C405 C397 1.433 . S
C405 N407 1.384 . S
N406 C402 1.427 . S
N406 C403 1.384 . S
N407 C399 1.427 . S
N407 C405 1.384 . S
H408 C414 0.930 . S
H409 C418 0.930 . S
H410 C423 0.929 . S
H411 C421 0.929 . S
H412 C416 0.929 . S
H413 C422 0.929 . S
C414 H408 0.930 . S
C414 C415 1.367 . S
C414 C422 1.378 . S
C415 C414 1.367 . S
C415 C423 1.433 . S
C416 H412 0.929 . S
C416 C418 1.378 . S
C416 C420 1.350 . S
C417 C420 1.463 . S
C417 C422 1.350 . S
C417 N425 1.427 . S
C418 H409 0.930 . S
C418 C416 1.378 . S
C418 C419 1.367 . S
C419 C418 1.367 . S
C419 C421 1.433 . S
C420 C416 1.350 . S
C420 C417 1.463 . S
C420 N424 1.427 . S
C421 H411 0.929 . S
C421 C419 1.433 . S
C421 N424 1.384 . S
C422 H413 0.929 . S
C422 C414 1.378 . S
C422 C417 1.350 . S
C423 H410 0.929 . S
C423 C415 1.433 . S
C423 N425 1.384 . S
N424 C420 1.427 . S
N424 C421 1.384 . S
N425 C417 1.427 . S
N425 C423 1.384 . S
H426 C432 0.930 . S
H427 C436 0.930 . S
H428 C441 0.929 . S
H429 C439 0.929 . S
H430 C434 0.929 . S
H431 C440 0.929 . S
C432 H426 0.930 . S
C432 C433 1.367 . S
C432 C440 1.378 . S
C433 C432 1.367 . S
C433 C441 1.433 . S
C434 H430 0.929 . S
C434 C436 1.378 . S
C434 C438 1.350 . S
C435 C438 1.463 . S
C435 C440 1.350 . S
C435 N443 1.427 . S
C436 H427 0.930 . S
C436 C434 1.378 . S
C436 C437 1.367 . S
C437 C436 1.367 . S
C437 C439 1.433 . S
C438 C434 1.350 . S
C438 C435 1.463 . S
C438 N442 1.427 . S
C439 H429 0.929 . S
C439 C437 1.433 . S
C439 N442 1.384 . S
C440 H431 0.929 . S
C440 C432 1.378 . S
C440 C435 1.350 . S
C441 H428 0.929 . S
C441 C433 1.433 . S
C441 N443 1.384 . S
N442 C438 1.427 . S
N442 C439 1.384 . S
N443 C435 1.427 . S
N443 C441 1.384 . S
H444 C450 0.930 . S
H445 C454 0.930 . S
H446 C459 0.929 . S
H447 C457 0.929 . S
H448 C452 0.929 . S
H449 C458 0.929 . S
C450 H444 0.930 . S
C450 C451 1.367 1_554 S
C450 C458 1.378 . S
C451 C450 1.367 1_556 S
C451 C459 1.433 . S
C452 H448 0.929 . S
C452 C454 1.378 . S
C452 C456 1.350 . S
C453 C456 1.463 . S
C453 C458 1.350 1_556 S
C453 N461 1.427 . S
C454 H445 0.930 . S
C454 C452 1.378 . S
C454 C455 1.377 . S
C455 C454 1.377 . S
C455 C457 1.424 1_556 S
C456 C452 1.350 . S
C456 C453 1.463 . S
C456 N460 1.427 1_556 S
C457 H447 0.929 . S
C457 C455 1.424 1_554 S
C457 N460 1.384 . S
C458 H449 0.929 . S
C458 C450 1.378 . S
C458 C453 1.350 1_554 S
C459 H446 0.929 . S
C459 C451 1.433 . S
C459 N461 1.384 . S
N460 C456 1.427 1_554 S
N460 C457 1.384 . S
N461 C453 1.427 . S
N461 C459 1.384 . S
H462 C468 0.930 . S
H463 C472 0.930 . S
H464 C477 0.929 . S
H465 C475 0.929 . S
H466 C470 0.929 . S
H467 C476 0.929 . S
C468 H462 0.930 . S
C468 C469 1.367 . S
C468 C476 1.378 . S
C469 C468 1.367 . S
C469 C477 1.433 . S
C470 H466 0.929 . S
C470 C472 1.378 . S
C470 C474 1.350 . S
C471 C474 1.463 . S
C471 C476 1.350 . S
C471 N479 1.427 . S
C472 H463 0.930 . S
C472 C470 1.378 . S
C472 C473 1.367 . S
C473 C472 1.367 . S
C473 C475 1.433 . S
C474 C470 1.350 . S
C474 C471 1.463 . S
C474 N478 1.427 . S
C475 H465 0.929 . S
C475 C473 1.433 . S
C475 N478 1.384 . S
C476 H467 0.929 . S
C476 C468 1.378 . S
C476 C471 1.350 . S
C477 H464 0.929 . S
C477 C469 1.433 . S
C477 N479 1.384 . S
N478 C474 1.427 . S
N478 C475 1.384 . S
N479 C471 1.427 . S
N479 C477 1.384 . S
H480 C486 0.930 . S
H481 C490 0.930 . S
H482 C495 0.929 . S
H483 C493 0.929 . S
H484 C488 0.929 . S
H485 C494 0.929 . S
C486 H480 0.930 . S
C486 C487 1.367 . S
C486 C494 1.378 . S
C487 C486 1.367 . S
C487 C495 1.433 . S
C488 H484 0.929 . S
C488 C490 1.378 . S
C488 C492 1.350 . S
C489 C492 1.463 . S
C489 C494 1.350 . S
C489 N497 1.427 . S
C490 H481 0.930 . S
C490 C488 1.378 . S
C490 C491 1.367 . S
C491 C490 1.367 . S
C491 C493 1.433 . S
C492 C488 1.350 . S
C492 C489 1.463 . S
C492 N496 1.427 . S
C493 H483 0.929 . S
C493 C491 1.433 . S
C493 N496 1.384 . S
C494 H485 0.929 . S
C494 C486 1.378 . S
C494 C489 1.350 . S
C495 H482 0.929 . S
C495 C487 1.433 . S
C495 N497 1.384 . S
N496 C492 1.427 . S
N496 C493 1.384 . S
N497 C489 1.427 . S
N497 C495 1.384 . S
H498 C504 0.930 . S
H499 C508 0.930 . S
H500 C513 0.929 . S
H501 C511 0.929 . S
H502 C506 0.929 . S
H503 C512 0.929 . S
C504 H498 0.930 . S
C504 C505 1.367 . S
C504 C512 1.378 . S
C505 C504 1.367 . S
C505 C513 1.433 . S
C506 H502 0.929 . S
C506 C508 1.378 . S
C506 C510 1.350 . S
C507 C510 1.463 1_455 S
C507 C512 1.350 . S
C507 N515 1.427 . S
C508 H499 0.930 . S
C508 C506 1.378 . S
C508 C509 1.367 . S
C509 C508 1.367 . S
C509 C511 1.433 . S
C510 C506 1.350 . S
C510 C507 1.463 1_655 S
C510 N514 1.427 . S
C511 H501 0.929 . S
C511 C509 1.433 . S
C511 N514 1.384 . S
C512 H503 0.929 . S
C512 C504 1.378 . S
C512 C507 1.350 . S
C513 H500 0.929 . S
C513 C505 1.433 . S
C513 N515 1.384 . S
N514 C510 1.427 . S
N514 C511 1.384 . S
N515 C507 1.427 . S
N515 C513 1.384 . S
H516 C522 0.930 . S
H517 C526 0.930 . S
H518 C531 0.929 . S
H519 C529 0.929 . S
H520 C524 0.929 . S
H521 C530 0.929 . S
C522 H516 0.930 . S
C522 C523 1.367 . S
C522 C530 1.378 . S
C523 C522 1.367 . S
C523 C531 1.433 . S
C524 H520 0.929 . S
C524 C526 1.378 . S
C524 C528 1.350 . S
C525 C528 1.463 . S
C525 C530 1.350 . S
C525 N533 1.427 . S
C526 H517 0.930 . S
C526 C524 1.378 . S
C526 C527 1.367 . S
C527 C526 1.367 . S
C527 C529 1.433 . S
C528 C524 1.350 . S
C528 C525 1.463 . S
C528 N532 1.427 . S
C529 H519 0.929 . S
C529 C527 1.433 . S
C529 N532 1.384 . S
C530 H521 0.929 . S
C530 C522 1.378 . S
C530 C525 1.350 . S
C531 H518 0.929 . S
C531 C523 1.433 . S
C531 N533 1.384 . S
N532 C528 1.427 . S
N532 C529 1.384 . S
N533 C525 1.427 . S
N533 C531 1.384 . S
H534 C540 0.930 . S
H535 C544 0.930 . S
H536 C549 0.929 . S
H537 C547 0.929 . S
H538 C542 0.929 . S
H539 C548 0.929 . S
C540 H534 0.930 . S
C540 C541 1.367 1_565 S
C540 C548 1.378 . S
C541 C540 1.367 1_545 S
C541 C549 1.433 . S
C542 H538 0.929 . S
C542 C544 1.378 . S
C542 C546 1.350 . S
C543 C546 1.463 . S
C543 C548 1.350 . S
C543 N551 1.427 1_565 S
C544 H535 0.930 . S
C544 C542 1.378 . S
C544 C545 1.367 . S
C545 C544 1.367 . S
C545 C547 1.433 . S
C546 C542 1.350 . S
C546 C543 1.463 . S
C546 N550 1.427 . S
C547 H537 0.929 . S
C547 C545 1.433 . S
C547 N550 1.384 . S
C548 H539 0.929 . S
C548 C540 1.378 . S
C548 C543 1.350 . S
C549 H536 0.929 . S
C549 C541 1.433 . S
C549 N551 1.384 . S
N550 C546 1.427 . S
N550 C547 1.384 . S
N551 C543 1.427 1_545 S
N551 C549 1.384 . S
H552 C558 0.930 . S
H553 C562 0.930 . S
H554 C567 0.929 . S
H555 C565 0.929 . S
H556 C560 0.929 . S
H557 C566 0.929 . S
C558 H552 0.930 . S
C558 C559 1.367 . S
C558 C566 1.378 . S
C559 C558 1.367 . S
C559 C567 1.433 . S
C560 H556 0.929 . S
C560 C562 1.378 . S
C560 C564 1.350 . S
C561 C564 1.463 . S
C561 C566 1.350 . S
C561 N569 1.427 . S
C562 H553 0.930 . S
C562 C560 1.378 . S
C562 C563 1.367 . S
C563 C562 1.367 . S
C563 C565 1.433 . S
C564 C560 1.350 . S
C564 C561 1.463 . S
C564 N568 1.427 . S
C565 H555 0.929 . S
C565 C563 1.433 . S
C565 N568 1.384 . S
C566 H557 0.929 . S
C566 C558 1.378 . S
C566 C561 1.350 . S
C567 H554 0.929 . S
C567 C559 1.433 . S
C567 N569 1.384 . S
N568 C564 1.427 . S
N568 C565 1.384 . S
N569 C561 1.427 . S
N569 C567 1.384 . S
H570 C576 0.930 . S
H571 C580 0.930 . S
H572 C585 0.929 . S
H573 C583 0.929 . S
H574 C578 0.929 . S
H575 C584 0.929 . S
C576 H570 0.930 . S
C576 C577 1.367 . S
C576 C584 1.378 . S
C577 C576 1.367 . S
C577 C585 1.433 . S
C578 H574 0.929 . S
C578 C580 1.378 . S
C578 C582 1.350 . S
C579 C582 1.463 . S
C579 C584 1.350 . S
C579 N587 1.427 . S
C580 H571 0.930 . S
C580 C578 1.378 . S
C580 C581 1.367 . S
C581 C580 1.367 . S
C581 C583 1.433 . S
C582 C578 1.350 . S
C582 C579 1.463 . S
C582 N586 1.427 . S
C583 H573 0.929 . S
C583 C581 1.433 . S
C583 N586 1.384 . S
C584 H575 0.929 . S
C584 C576 1.378 . S
C584 C579 1.350 . S
C585 H572 0.929 . S
C585 C577 1.433 . S
C585 N587 1.384 . S
N586 C582 1.427 . S
N586 C583 1.384 . S
N587 C579 1.427 . S
N587 C585 1.384 . S
H588 C594 0.930 . S
H589 C598 0.930 . S
H590 C603 0.929 . S
H591 C601 0.929 . S
H592 C596 0.929 . S
H593 C602 0.929 . S
C594 H588 0.930 . S
C594 C595 1.367 . S
C594 C602 1.378 . S
C595 C594 1.367 . S
C595 C603 1.433 . S
C596 H592 0.929 . S
C596 C598 1.378 . S
C596 C600 1.350 . S
C597 C600 1.463 . S
C597 C602 1.350 . S
C597 N605 1.427 . S
C598 H589 0.930 . S
C598 C596 1.378 . S
C598 C599 1.367 . S
C599 C598 1.367 . S
C599 C601 1.433 . S
C600 C596 1.350 . S
C600 C597 1.463 . S
C600 N604 1.427 . S
C601 H591 0.929 . S
C601 C599 1.433 . S
C601 N604 1.384 . S
C602 H593 0.929 . S
C602 C594 1.378 . S
C602 C597 1.350 . S
C603 H590 0.929 . S
C603 C595 1.433 . S
C603 N605 1.384 . S
N604 C600 1.427 . S
N604 C601 1.384 . S
N605 C597 1.427 . S
N605 C603 1.384 . S
H606 C612 0.930 1_655 S
H607 C616 0.930 . S
H608 C621 0.929 . S
H609 C619 0.929 . S
H610 C614 0.929 . S
H611 C620 0.929 . S
C612 H606 0.930 1_455 S
C612 C613 1.367 1_565 S
C612 C620 1.378 . S
C613 C612 1.367 1_545 S
C613 C621 1.433 . S
C614 H610 0.929 . S
C614 C616 1.378 . S
C614 C618 1.350 . S
C615 C618 1.463 . S
C615 C620 1.350 . S
C615 N623 1.427 . S
C616 H607 0.930 . S
C616 C614 1.378 . S
C616 C617 1.367 . S
C617 C616 1.367 . S
C617 C619 1.433 . S
C618 C614 1.350 . S
C618 C615 1.463 . S
C618 N622 1.427 . S
C619 H609 0.929 . S
C619 C617 1.433 . S
C619 N622 1.384 . S
C620 H611 0.929 . S
C620 C612 1.378 . S
C620 C615 1.350 . S
C621 H608 0.929 . S
C621 C613 1.433 . S
C621 N623 1.384 1_545 S
N622 C618 1.427 . S
N622 C619 1.384 . S
N623 C615 1.427 . S
N623 C621 1.384 1_565 S
H624 C630 0.930 . S
H625 C634 0.930 . S
H626 C639 0.929 . S
H627 C637 0.929 . S
H628 C632 0.929 . S
H629 C638 0.929 . S
C630 H624 0.930 . S
C630 C631 1.367 . S
C630 C638 1.378 . S
C631 C630 1.367 . S
C631 C639 1.433 . S
C632 H628 0.929 . S
C632 C634 1.378 . S
C632 C636 1.350 . S
C633 C636 1.463 . S
C633 C638 1.350 . S
C633 N641 1.427 . S
C634 H625 0.930 . S
C634 C632 1.378 . S
C634 C635 1.367 . S
C635 C634 1.367 . S
C635 C637 1.433 . S
C636 C632 1.350 . S
C636 C633 1.463 . S
C636 N640 1.427 . S
C637 H627 0.929 . S
C637 C635 1.433 . S
C637 N640 1.384 . S
C638 H629 0.929 . S
C638 C630 1.378 . S
C638 C633 1.350 . S
C639 H626 0.929 . S
C639 C631 1.433 . S
C639 N641 1.384 . S
N640 C636 1.427 . S
N640 C637 1.384 . S
N641 C633 1.427 . S
N641 C639 1.384 . S
H642 C648 0.930 . S
H643 C652 0.930 . S
H644 C657 0.929 . S
H645 C655 0.929 . S
H646 C650 0.929 . S
H647 C656 0.929 . S
C648 H642 0.930 . S
C648 C649 1.367 . S
C648 C656 1.378 . S
C649 C648 1.367 . S
C649 C657 1.433 . S
C650 H646 0.929 . S
C650 C652 1.378 . S
C650 C654 1.350 . S
C651 C654 1.463 . S
C651 C656 1.350 . S
C651 N659 1.427 . S
C652 H643 0.930 . S
C652 C650 1.378 . S
C652 C653 1.367 . S
C653 C652 1.367 . S
C653 C655 1.433 . S
C654 C650 1.350 . S
C654 C651 1.463 . S
C654 N658 1.427 . S
C655 H645 0.929 . S
C655 C653 1.433 . S
C655 N658 1.384 . S
C656 H647 0.929 . S
C656 C648 1.378 . S
C656 C651 1.350 . S
C657 H644 0.929 . S
C657 C649 1.433 . S
C657 N659 1.384 . S
N658 C654 1.427 . S
N658 C655 1.384 . S
N659 C651 1.427 . S
N659 C657 1.384 . S
H660 C666 0.930 . S
H661 C670 0.930 . S
H662 C675 0.929 . S
H663 C673 0.929 . S
H664 C668 0.929 . S
H665 C674 0.929 . S
C666 H660 0.930 . S
C666 C667 1.367 . S
C666 C674 1.378 . S
C667 C666 1.367 . S
C667 C675 1.433 . S
C668 H664 0.929 . S
C668 C670 1.378 . S
C668 C672 1.350 . S
C669 C672 1.463 . S
C669 C674 1.350 . S
C669 N677 1.427 . S
C670 H661 0.930 . S
C670 C668 1.378 . S
C670 C671 1.367 . S
C671 C670 1.367 . S
C671 C673 1.433 . S
C672 C668 1.350 . S
C672 C669 1.463 . S
C672 N676 1.427 . S
C673 H663 0.929 . S
C673 C671 1.433 . S
C673 N676 1.384 . S
C674 H665 0.929 . S
C674 C666 1.378 . S
C674 C669 1.350 . S
C675 H662 0.929 . S
C675 C667 1.433 . S
C675 N677 1.384 . S
N676 C672 1.427 . S
N676 C673 1.384 . S
N677 C669 1.427 . S
N677 C675 1.384 . S
H678 C684 0.930 . S
H679 C688 0.930 . S
H680 C693 0.929 . S
H681 C691 0.929 . S
H682 C686 0.929 . S
H683 C692 0.929 . S
C684 H678 0.930 . S
C684 C685 1.367 . S
C684 C692 1.378 . S
C685 C684 1.367 . S
C685 C693 1.433 . S
C686 H682 0.929 . S
C686 C688 1.378 . S
C686 C690 1.350 . S
C687 C690 1.463 . S
C687 C692 1.350 . S
C687 N695 1.427 . S
C688 H679 0.930 . S
C688 C686 1.378 . S
C688 C689 1.367 . S
C689 C688 1.367 . S
C689 C691 1.433 . S
C690 C686 1.350 . S
C690 C687 1.463 . S
C690 N694 1.427 . S
C691 H681 0.929 . S
C691 C689 1.433 . S
C691 N694 1.384 . S
C692 H683 0.929 . S
C692 C684 1.378 . S
C692 C687 1.350 . S
C693 H680 0.929 . S
C693 C685 1.433 . S
C693 N695 1.384 . S
N694 C690 1.427 . S
N694 C691 1.384 . S
N695 C687 1.427 . S
N695 C693 1.384 . S
H696 C702 0.930 . S
H697 C706 0.930 . S
H698 C711 0.929 . S
H699 C709 0.929 . S
H700 C704 0.929 . S
H701 C710 0.929 . S
C702 H696 0.930 . S
C702 C703 1.367 . S
C702 C710 1.378 . S
C703 C702 1.367 . S
C703 C711 1.433 . S
C704 H700 0.929 . S
C704 C706 1.378 . S
C704 C708 1.350 . S
C705 C708 1.463 . S
C705 C710 1.350 . S
C705 N713 1.427 . S
C706 H697 0.930 . S
C706 C704 1.378 . S
C706 C707 1.367 . S
C707 C706 1.367 . S
C707 C709 1.433 . S
C708 C704 1.350 . S
C708 C705 1.463 . S
C708 N712 1.427 . S
C709 H699 0.929 . S
C709 C707 1.433 . S
C709 N712 1.384 . S
C710 H701 0.929 . S
C710 C702 1.378 . S
C710 C705 1.350 . S
C711 H698 0.929 . S
C711 C703 1.433 . S
C711 N713 1.384 . S
N712 C708 1.427 . S
N712 C709 1.384 . S
N713 C705 1.427 . S
N713 C711 1.384 . S
H714 C720 0.930 . S
H715 C724 0.930 . S
H716 C729 0.929 . S
H717 C727 0.929 . S
H718 C722 0.929 . S
H719 C728 0.929 . S
C720 H714 0.930 . S
C720 C721 1.367 . S
C720 C728 1.378 . S
C721 C720 1.367 . S
C721 C729 1.433 . S
C722 H718 0.929 . S
C722 C724 1.378 . S
C722 C726 1.350 . S
C723 C726 1.463 . S
C723 C728 1.350 . S
C723 N731 1.427 . S
C724 H715 0.930 . S
C724 C722 1.378 . S
C724 C725 1.367 . S
C725 C724 1.367 . S
C725 C727 1.433 . S
C726 C722 1.350 . S
C726 C723 1.463 . S
C726 N730 1.427 . S
C727 H717 0.929 . S
C727 C725 1.433 . S
C727 N730 1.384 . S
C728 H719 0.929 . S
C728 C720 1.378 . S
C728 C723 1.350 . S
C729 H716 0.929 . S
C729 C721 1.433 . S
C729 N731 1.384 . S
N730 C726 1.427 . S
N730 C727 1.384 . S
N731 C723 1.427 . S
N731 C729 1.384 . S
H732 C738 0.930 . S
H733 C742 0.930 . S
H734 C747 0.929 . S
H735 C745 0.929 . S
H736 C740 0.929 . S
H737 C746 0.929 . S
C738 H732 0.930 . S
C738 C739 1.367 . S
C738 C746 1.378 . S
C739 C738 1.367 . S
C739 C747 1.433 . S
C740 H736 0.929 . S
C740 C742 1.378 . S
C740 C744 1.350 . S
C741 C744 1.463 . S
C741 C746 1.350 . S
C741 N749 1.427 . S
C742 H733 0.930 . S
C742 C740 1.378 . S
C742 C743 1.367 . S
C743 C742 1.367 . S
C743 C745 1.433 . S
C744 C740 1.350 . S
C744 C741 1.463 . S
C744 N748 1.427 . S
C745 H735 0.929 . S
C745 C743 1.433 . S
C745 N748 1.384 . S
C746 H737 0.929 . S
C746 C738 1.378 . S
C746 C741 1.350 . S
C747 H734 0.929 . S
C747 C739 1.433 . S
C747 N749 1.384 . S
N748 C744 1.427 . S
N748 C745 1.384 . S
N749 C741 1.427 . S
N749 C747 1.384 . S
H750 C756 0.930 . S
H751 C760 0.930 . S
H752 C765 0.929 . S
H753 C763 0.929 . S
H754 C758 0.929 . S
H755 C764 0.929 . S
C756 H750 0.930 . S
C756 C757 1.367 . S
C756 C764 1.378 . S
C757 C756 1.367 . S
C757 C765 1.433 . S
C758 H754 0.929 . S
C758 C760 1.378 . S
C758 C762 1.350 . S
C759 C762 1.463 . S
C759 C764 1.350 . S
C759 N767 1.427 . S
C760 H751 0.930 . S
C760 C758 1.378 . S
C760 C761 1.367 . S
C761 C760 1.367 . S
C761 C763 1.433 . S
C762 C758 1.350 . S
C762 C759 1.463 . S
C762 N766 1.427 . S
C763 H753 0.929 . S
C763 C761 1.433 . S
C763 N766 1.384 . S
C764 H755 0.929 . S
C764 C756 1.378 . S
C764 C759 1.350 . S
C765 H752 0.929 . S
C765 C757 1.433 . S
C765 N767 1.384 . S
N766 C762 1.427 . S
N766 C763 1.384 . S
N767 C759 1.427 . S
N767 C765 1.384 . S
H768 C774 0.930 . S
H769 C778 0.930 . S
H770 C783 0.929 . S
H771 C781 0.929 . S
H772 C776 0.929 . S
H773 C782 0.929 . S
C774 H768 0.930 . S
C774 C775 1.367 . S
C774 C782 1.378 . S
C775 C774 1.367 . S
C775 C783 1.433 . S
C776 H772 0.929 . S
C776 C778 1.378 . S
C776 C780 1.350 . S
C777 C780 1.463 . S
C777 C782 1.350 . S
C777 N785 1.427 . S
C778 H769 0.930 . S
C778 C776 1.378 . S
C778 C779 1.367 . S
C779 C778 1.367 . S
C779 C781 1.433 . S
C780 C776 1.350 . S
C780 C777 1.463 . S
C780 N784 1.427 . S
C781 H771 0.929 . S
C781 C779 1.433 . S
C781 N784 1.384 . S
C782 H773 0.929 . S
C782 C774 1.378 . S
C782 C777 1.350 . S
C783 H770 0.929 . S
C783 C775 1.433 . S
C783 N785 1.384 . S
N784 C780 1.427 . S
N784 C781 1.384 . S
N785 C777 1.427 . S
N785 C783 1.384 . S
H786 C792 0.930 . S
H787 C796 0.930 . S
H788 C801 0.929 . S
H789 C799 0.929 . S
H790 C794 0.929 . S
H791 C800 0.929 . S
C792 H786 0.930 . S
C792 C793 1.367 . S
C792 C800 1.378 . S
C793 C792 1.367 . S
C793 C801 1.433 . S
C794 H790 0.929 . S
C794 C796 1.378 . S
C794 C798 1.350 . S
C795 C798 1.463 . S
C795 C800 1.350 . S
C795 N803 1.427 . S
C796 H787 0.930 . S
C796 C794 1.378 . S
C796 C797 1.367 . S
C797 C796 1.367 . S
C797 C799 1.433 . S
C798 C794 1.350 . S
C798 C795 1.463 . S
C798 N802 1.427 . S
C799 H789 0.929 . S
C799 C797 1.433 . S
C799 N802 1.384 . S
C800 H791 0.929 . S
C800 C792 1.378 . S
C800 C795 1.350 . S
C801 H788 0.929 . S
C801 C793 1.433 . S
C801 N803 1.384 . S
N802 C798 1.427 . S
N802 C799 1.384 . S
N803 C795 1.427 . S
N803 C801 1.384 . S
H804 C810 0.930 . S
H805 C814 0.930 . S
H806 C819 0.929 . S
H807 C817 0.929 . S
H808 C812 0.929 . S
H809 C818 0.929 . S
C810 H804 0.930 . S
C810 C811 1.367 . S
C810 C818 1.378 . S
C811 C810 1.367 . S
C811 C819 1.433 . S
C812 H808 0.929 . S
C812 C814 1.378 1_554 S
C812 C816 1.350 . S
C813 C816 1.463 . S
C813 C818 1.350 . S
C813 N821 1.427 . S
C814 H805 0.930 . S
C814 C812 1.378 1_556 S
C814 C815 1.367 . S
C815 C814 1.367 . S
C815 C817 1.433 . S
C816 C812 1.350 . S
C816 C813 1.463 . S
C816 N820 1.403 1_554 S
C817 H807 0.929 . S
C817 C815 1.433 . S
C817 N820 1.416 . S
C818 H809 0.929 . S
C818 C810 1.378 . S
C818 C813 1.350 . S
C819 H806 0.929 . S
C819 C811 1.433 . S
C819 N821 1.384 . S
N820 C816 1.403 1_556 S
N820 C817 1.416 . S
N821 C813 1.427 . S
N821 C819 1.384 . S
H822 C828 0.930 . S
H823 C832 0.930 . S
H824 C837 0.929 . S
H825 C835 0.929 . S
H826 C830 0.929 . S
H827 C836 0.929 . S
C828 H822 0.930 . S
C828 C829 1.367 . S
C828 C836 1.378 . S
C829 C828 1.367 . S
C829 C837 1.433 . S
C830 H826 0.929 . S
C830 C832 1.378 . S
C830 C834 1.350 . S
C831 C834 1.463 . S
C831 C836 1.350 . S
C831 N839 1.427 . S
C832 H823 0.930 . S
C832 C830 1.378 . S
C832 C833 1.367 . S
C833 C832 1.367 . S
C833 C835 1.433 . S
C834 C830 1.350 . S
C834 C831 1.463 . S
C834 N838 1.427 . S
C835 H825 0.929 . S
C835 C833 1.433 . S
C835 N838 1.384 . S
C836 H827 0.929 . S
C836 C828 1.378 . S
C836 C831 1.350 . S
C837 H824 0.929 . S
C837 C829 1.433 . S
C837 N839 1.384 . S
N838 C834 1.427 . S
N838 C835 1.384 . S
N839 C831 1.427 . S
N839 C837 1.384 . S
H840 C846 0.930 . S
H841 C850 0.930 . S
H842 C855 0.929 . S
H843 C853 0.929 . S
H844 C848 0.929 . S
H845 C854 0.929 . S
C846 H840 0.930 . S
C846 C847 1.367 . S
C846 C854 1.378 . S
C847 C846 1.367 . S
C847 C855 1.433 . S
C848 H844 0.929 . S
C848 C850 1.378 . S
C848 C852 1.350 . S
C849 C852 1.463 1_545 S
C849 C854 1.350 . S
C849 N857 1.427 1_545 S
C850 H841 0.930 . S
C850 C848 1.378 . S
C850 C851 1.367 . S
C851 C850 1.367 . S
C851 C853 1.433 . S
C852 C848 1.350 . S
C852 C849 1.463 1_565 S
C852 N856 1.427 . S
C853 H843 0.929 . S
C853 C851 1.433 . S
C853 N856 1.384 . S
C854 H845 0.929 . S
C854 C846 1.378 . S
C854 C849 1.350 . S
C855 H842 0.929 . S
C855 C847 1.433 . S
C855 N857 1.384 1_545 S
N856 C852 1.427 . S
N856 C853 1.384 . S
N857 C849 1.427 1_565 S
N857 C855 1.384 1_565 S
H858 C864 0.930 . S
H859 C868 0.930 . S
H860 C873 0.929 . S
H861 C871 0.929 . S
H862 C866 0.929 . S
H863 C872 0.929 . S
C864 H858 0.930 . S
C864 C865 1.367 . S
C864 C872 1.378 . S
C865 C864 1.367 . S
C865 C873 1.433 . S
C866 H862 0.929 . S
C866 C868 1.378 . S
C866 C870 1.350 . S
C867 C870 1.463 . S
C867 C872 1.350 . S
C867 N875 1.427 . S
C868 H859 0.930 . S
C868 C866 1.378 . S
C868 C869 1.367 . S
C869 C868 1.367 . S
C869 C871 1.433 . S
C870 C866 1.350 . S
C870 C867 1.463 . S
C870 N874 1.427 . S
C871 H861 0.929 . S
C871 C869 1.433 . S
C871 N874 1.384 . S
C872 H863 0.929 . S
C872 C864 1.378 . S
C872 C867 1.350 . S
C873 H860 0.929 . S
C873 C865 1.433 . S
C873 N875 1.384 . S
N874 C870 1.427 . S
N874 C871 1.384 . S
N875 C867 1.427 . S
N875 C873 1.384 . S
H876 C882 0.930 . S
H877 C886 0.930 . S
H878 C891 0.929 . S
H879 C889 0.929 . S
H880 C884 0.929 . S
H881 C890 0.929 . S
C882 H876 0.930 . S
C882 C883 1.367 . S
C882 C890 1.378 1_545 S
C883 C882 1.367 . S
C883 C891 1.433 . S
C884 H880 0.929 . S
C884 C886 1.378 . S
C884 C888 1.350 . S
C885 C888 1.463 . S
C885 C890 1.350 . S
C885 N893 1.427 . S
C886 H877 0.930 . S
C886 C884 1.378 . S
C886 C887 1.367 . S
C887 C886 1.367 . S
C887 C889 1.433 . S
C888 C884 1.350 . S
C888 C885 1.463 . S
C888 N892 1.427 . S
C889 H879 0.929 . S
C889 C887 1.433 . S
C889 N892 1.384 . S
C890 H881 0.929 . S
C890 C882 1.378 1_565 S
C890 C885 1.350 . S
C891 H878 0.929 . S
C891 C883 1.433 . S
C891 N893 1.384 1_545 S
N892 C888 1.427 . S
N892 C889 1.384 . S
N893 C885 1.427 . S
N893 C891 1.384 1_565 S
H894 C900 0.930 . S
H895 C904 0.930 . S
H896 C909 0.929 . S
H897 C907 0.929 . S
H898 C902 0.929 . S
H899 C908 0.929 . S
C900 H894 0.930 . S
C900 C901 1.367 . S
C900 C908 1.378 . S
C901 C900 1.367 . S
C901 C909 1.433 . S
C902 H898 0.929 . S
C902 C904 1.378 . S
C902 C906 1.350 . S
C903 C906 1.463 . S
C903 C908 1.350 . S
C903 N911 1.427 . S
C904 H895 0.930 . S
C904 C902 1.378 . S
C904 C905 1.367 . S
C905 C904 1.367 . S
C905 C907 1.433 . S
C906 C902 1.350 . S
C906 C903 1.463 . S
C906 N910 1.427 . S
C907 H897 0.929 . S
C907 C905 1.433 . S
C907 N910 1.384 . S
C908 H899 0.929 . S
C908 C900 1.378 . S
C908 C903 1.350 . S
C909 H896 0.929 . S
C909 C901 1.433 . S
C909 N911 1.384 . S
N910 C906 1.427 . S
N910 C907 1.384 . S
N911 C903 1.427 . S
N911 C909 1.384 . S
C271 C51 1.714 . S
C275 C7 1.705 1_655 S
C289 C62 1.487 . S
C293 C16 1.246 . S
C307 C29 1.675 . S
C311 C73 1.674 . S
C325 C82 1.241 . S
C329 C40 1.453 . S
C343 C95 1.861 . S
C347 C126 1.468 . S
C361 C115 1.411 . S
C365 C106 1.544 . S
C379 C137 1.641 . S
C383 C181 1.658 . S
C397 C192 1.170 . S
C401 C150 1.413 . S
C415 C205 1.414 . S
C419 C161 1.436 . S
C433 C170 1.196 . S
C437 C216 1.274 . S
C451 C260 1.455 . S
C455 C225 1.511 . S
C469 C249 1.353 . S
C473 C236 1.321 . S
C487 C217 1.679 . S
C491 C8 1.679 . S
C505 C184 1.951 . S
C509 C18 1.860 . S
C523 C27 1.906 . S
C527 C195 1.989 . S
C541 C38 1.562 . S
C545 C206 1.687 . S
C559 C52 1.811 . S
C563 C148 1.645 . S
C577 C162 1.836 . S
C581 C60 1.844 . S
C595 C71 1.748 . S
C599 C172 1.823 . S
C613 C85 1.818 1_455 S
C617 C140 1.828 . S
C631 C41 1.681 . S
C635 C261 1.609 . S
C649 C5 1.688 . S
C653 C238 1.794 . S
C667 C19 1.596 . S
C671 C228 1.609 . S
C685 C30 1.934 . S
C689 C247 1.535 . S
C703 C63 1.613 . S
C707 C250 1.584 . S
C721 C74 1.858 . S
C725 C258 1.366 . S
C739 C239 1.796 . S
C743 C84 1.718 . S
C757 C49 1.751 . S
C761 C227 1.807 . S
C775 C93 1.891 . S
C779 C183 1.966 . S
C793 C139 1.855 . S
C797 C104 1.467 . S
C811 C96 1.931 . S
C815 C151 1.942 . S
C829 C118 1.828 . S
C833 C159 1.520 . S
C847 C173 1.834 . S
C851 C129 1.789 . S
C865 C203 1.695 . S
C869 C128 1.919 . S
C883 C214 1.787 . S
C887 C107 1.808 . S
C901 C194 2.065 . S
C905 C117 2.064 . S
