# Generated by pormake.
# Topology rac, (4)-cn, num edge types: 1
# Building blocks:
#     Node 0, Type 0, BuildingBlock: GALJAG_clean_sbu_0, # of connection points: 4
#     Node 1, Type 0, BuildingBlock: GALJAG_clean_sbu_0, # of connection points: 4
#     Node 2, Type 0, BuildingBlock: GALJAG_clean_sbu_0, # of connection points: 4
#     Node 3, Type 0, BuildingBlock: GALJAG_clean_sbu_0, # of connection points: 4
#     Node 4, Type 0, BuildingBlock: GALJAG_clean_sbu_0, # of connection points: 4
#     Node 5, Type 0, BuildingBlock: GALJAG_clean_sbu_0, # of connection points: 4
#     Node 6, Type 0, BuildingBlock: GALJAG_clean_sbu_0, # of connection points: 4
#     Node 7, Type 0, BuildingBlock: GALJAG_clean_sbu_0, # of connection points: 4
#     Edge 8, Type (0, 0), BuildingBlock: FUNLAD_clean_linker_0, # of connection points: 2
#     Edge 9, Type (0, 0), BuildingBlock: FUNLAD_clean_linker_0, # of connection points: 2
#     Edge 10, Type (0, 0), BuildingBlock: FUNLAD_clean_linker_0, # of connection points: 2
#     Edge 11, Type (0, 0), BuildingBlock: FUNLAD_clean_linker_0, # of connection points: 2
#     Edge 12, Type (0, 0), BuildingBlock: FUNLAD_clean_linker_0, # of connection points: 2
#     Edge 13, Type (0, 0), BuildingBlock: FUNLAD_clean_linker_0, # of connection points: 2
#     Edge 14, Type (0, 0), BuildingBlock: FUNLAD_clean_linker_0, # of connection points: 2
#     Edge 15, Type (0, 0), BuildingBlock: FUNLAD_clean_linker_0, # of connection points: 2
#     Edge 16, Type (0, 0), BuildingBlock: FUNLAD_clean_linker_0, # of connection points: 2
#     Edge 17, Type (0, 0), BuildingBlock: FUNLAD_clean_linker_0, # of connection points: 2
#     Edge 18, Type (0, 0), BuildingBlock: FUNLAD_clean_linker_0, # of connection points: 2
#     Edge 19, Type (0, 0), BuildingBlock: FUNLAD_clean_linker_0, # of connection points: 2
#     Edge 20, Type (0, 0), BuildingBlock: FUNLAD_clean_linker_0, # of connection points: 2
#     Edge 21, Type (0, 0), BuildingBlock: FUNLAD_clean_linker_0, # of connection points: 2
#     Edge 22, Type (0, 0), BuildingBlock: FUNLAD_clean_linker_0, # of connection points: 2
#     Edge 23, Type (0, 0), BuildingBlock: FUNLAD_clean_linker_0, # of connection points: 2
# Relax obj value: 0.254
# Max RMSD: 0.115
# Mean RMSD: 0.115
data_MOF--net-rac--node1-GALJAG_clean_sbu_0--edge1-FUNLAD_clean_linker_0
_symmetry_space_group_name_H-M    P1
_symmetry_Int_Tables_number       1
_symmetry_cell_setting            triclinic
loop_
_symmetry_equiv_pos_as_xyz
'x, y, z'
_cell_length_a     41.687428
_cell_length_b     26.683984
_cell_length_c     45.649027
_cell_angle_alpha  90.013958
_cell_angle_beta   90.142813
_cell_angle_gamma 89.774174
loop_
_atom_site_label
_atom_site_type_symbol
_atom_site_fract_x
_atom_site_fract_y
_atom_site_fract_z
_atom_type_partial_charge
In0 In 0.38728 0.2713 0.05874 0.0
O1 O 0.38251 0.30809 0.10302 0.0
O2 O 0.41061 0.24105 0.10059 0.0
C3 C 0.34208 0.33539 0.04038 0.0
C4 C 0.35783 0.18168 0.04993 0.0
C5 C 0.43907 0.3178 0.03485 0.0
O6 O 0.34771 0.32757 0.06719 0.0
O7 O 0.3596 0.31136 0.02278 0.0
O8 O 0.41548 0.30343 0.01975 0.0
O9 O 0.43826 0.30339 0.0611 0.0
C10 C 0.39941 0.27599 0.11644 0.0
O11 O 0.386 0.18922 0.04052 0.0
O12 O 0.34602 0.21805 0.06366 0.0
In13 In 0.12855 0.74997 0.05784 0.0
O14 O 0.13333 0.83312 0.04338 0.0
O15 O 0.17541 0.78885 0.0478 0.0
C16 C 0.07176 0.71794 0.03584 0.0
C17 C 0.12908 0.76029 0.11643 0.0
C18 C 0.15546 0.66292 0.04221 0.0
O19 O 0.09407 0.73372 0.01966 0.0
O20 O 0.07653 0.72498 0.0628 0.0
O21 O 0.14435 0.67068 0.06748 0.0
O22 O 0.15429 0.69996 0.02505 0.0
C23 C 0.16368 0.83122 0.04208 0.0
O24 O 0.15008 0.73578 0.10256 0.0
O25 O 0.10768 0.78066 0.10065 0.0
In26 In 0.38156 0.25345 0.44191 0.0
O27 O 0.38422 0.33813 0.45416 0.0
O28 O 0.34337 0.2967 0.46664 0.0
C29 C 0.4321 0.19511 0.45864 0.0
C30 C 0.38609 0.27877 0.38505 0.0
C31 C 0.33662 0.18373 0.4496 0.0
O32 O 0.41972 0.22695 0.47583 0.0
O33 O 0.42062 0.19593 0.43316 0.0
O34 O 0.34407 0.20018 0.42461 0.0
O35 O 0.35222 0.20206 0.47074 0.0
C36 C 0.35654 0.33885 0.46549 0.0
O37 O 0.36106 0.2607 0.3963 0.0
O38 O 0.4092 0.28519 0.4027 0.0
In39 In 0.11922 0.76265 0.44563 0.0
O40 O 0.12576 0.68053 0.46205 0.0
O41 O 0.16634 0.72125 0.44739 0.0
C42 C 0.06381 0.79823 0.46888 0.0
C43 C 0.11516 0.75586 0.38701 0.0
C44 C 0.15096 0.84346 0.46411 0.0
O45 O 0.08582 0.77958 0.48457 0.0
O46 O 0.06789 0.79183 0.44181 0.0
O47 O 0.13651 0.84189 0.43983 0.0
O48 O 0.15037 0.80352 0.47886 0.0
C49 C 0.1558 0.68071 0.45752 0.0
O50 O 0.13418 0.78504 0.40009 0.0
O51 O 0.09808 0.72891 0.40363 0.0
In52 In 0.62839 0.74945 0.9419 0.0
O53 O 0.64696 0.73994 0.89578 0.0
O54 O 0.60308 0.7803 0.90107 0.0
C55 C 0.65808 0.66285 0.9539 0.0
C56 C 0.66226 0.83144 0.95906 0.0
C57 C 0.57339 0.71086 0.96399 0.0
O58 O 0.65173 0.67665 0.92809 0.0
O59 O 0.65094 0.69403 0.97363 0.0
O60 O 0.59546 0.72767 0.9802 0.0
O61 O 0.57733 0.71968 0.93713 0.0
C62 C 0.62391 0.76281 0.88366 0.0
O63 O 0.63202 0.83268 0.95647 0.0
O64 O 0.67454 0.78923 0.95405 0.0
In65 In 0.86999 0.28103 0.93778 0.0
O66 O 0.87415 0.20259 0.95982 0.0
O67 O 0.8389 0.2157 0.92678 0.0
C68 C 0.91381 0.35095 0.95207 0.0
C69 C 0.88411 0.28214 0.8806 0.0
C70 C 0.82003 0.31928 0.96664 0.0
O71 O 0.91591 0.30675 0.96245 0.0
O72 O 0.89027 0.35838 0.93521 0.0
O73 O 0.82002 0.31326 0.93919 0.0
O74 O 0.84564 0.3071 0.97966 0.0
C75 C 0.85049 0.18562 0.94526 0.0
O76 O 0.86046 0.30552 0.89137 0.0
O77 O 0.90069 0.25705 0.8988 0.0
In78 In 0.6231 0.74623 0.55468 0.0
O79 O 0.61869 0.66001 0.55598 0.0
O80 O 0.64088 0.69238 0.51915 0.0
C81 C 0.57531 0.81338 0.54352 0.0
C82 C 0.62298 0.73623 0.6132 0.0
C83 C 0.67552 0.79547 0.5371 0.0
O84 O 0.57811 0.77345 0.52871 0.0
O85 O 0.59541 0.81764 0.56393 0.0
O86 O 0.67414 0.77285 0.56131 0.0
O87 O 0.65023 0.7939 0.52193 0.0
C88 C 0.63459 0.65281 0.53288 0.0
O89 O 0.64763 0.74817 0.59879 0.0
O90 O 0.598 0.72855 0.598 0.0
In91 In 0.87306 0.2307 0.55937 0.0
O92 O 0.87294 0.20313 0.60585 0.0
O93 O 0.89858 0.27083 0.59702 0.0
C94 C 0.83611 0.15373 0.54327 0.0
C95 C 0.83412 0.31182 0.55379 0.0
C96 C 0.9259 0.19288 0.53233 0.0
O97 O 0.84729 0.15809 0.56884 0.0
O98 O 0.84262 0.1892 0.52609 0.0
O99 O 0.90324 0.21312 0.51815 0.0
O100 O 0.92375 0.19836 0.55961 0.0
C101 C 0.88996 0.23845 0.61576 0.0
O102 O 0.86112 0.31022 0.54103 0.0
O103 O 0.82774 0.27363 0.56882 0.0
C104 C 0.30786 0.13243 0.05738 0.0
C105 C 0.33869 0.13552 0.04504 0.0
C106 C 0.28847 0.0907 0.05264 0.0
C107 C 0.29917 0.05069 0.03512 0.0
C108 C 0.33028 0.05319 0.02318 0.0
C109 C 0.34983 0.09531 0.02795 0.0
C110 C 0.27913 1.00493 0.03054 0.0
C111 C 0.24673 1.00486 0.03298 0.0
C112 C 0.22603 0.95912 0.03218 0.0
C113 C 0.19242 0.96514 0.03151 0.0
C114 C 0.17193 0.9237 0.03367 0.0
C115 C 0.18461 0.87517 0.03663 0.0
H116 H 0.26413 0.90332 0.03544 0.0
C117 C 0.21816 0.86893 0.03641 0.0
C118 C 0.2386 0.91022 0.03431 0.0
H119 H 0.22878 0.83202 0.03873 0.0
H120 H 0.29852 0.16244 0.07092 0.0
H121 H 0.26536 0.08977 0.06333 0.0
H122 H 0.33943 0.02261 0.00997 0.0
H123 H 0.37347 0.09649 0.01819 0.0
H124 H 0.29175 0.97068 0.02492 0.0
H125 H 0.23435 0.04031 0.03611 0.0
H126 H 0.1819 1.00224 0.03 0.0
H127 H 0.14623 0.92983 0.03385 0.0
C128 C 0.21069 0.64295 0.45708 0.0
C129 C 0.17776 0.63767 0.46302 0.0
C130 C 0.23206 0.60313 0.46124 0.0
C131 C 0.22121 0.55662 0.47174 0.0
C132 C 0.18822 0.55132 0.47772 0.0
C133 C 0.16672 0.59141 0.47351 0.0
C134 C 0.24306 0.51224 0.4751 0.0
C135 C 0.27554 0.51483 0.47581 0.0
C136 C 0.29722 0.47004 0.47639 0.0
C137 C 0.32877 0.47455 0.46574 0.0
C138 C 0.34902 0.43255 0.46368 0.0
C139 C 0.33821 0.38515 0.47249 0.0
H140 H 0.26365 0.41809 0.49628 0.0
C141 C 0.3074 0.38124 0.48482 0.0
C142 C 0.28718 0.42306 0.48682 0.0
H143 H 0.29838 0.34531 0.49209 0.0
H144 H 0.22007 0.67797 0.44878 0.0
H145 H 0.25685 0.60904 0.45539 0.0
H146 H 0.17898 0.51589 0.48556 0.0
H147 H 0.14151 0.58606 0.47821 0.0
H148 H 0.23159 0.47589 0.47626 0.0
H149 H 0.28718 0.551 0.47459 0.0
H150 H 0.33739 0.51037 0.45792 0.0
H151 H 0.37256 0.43684 0.45402 0.0
C152 C 0.7159 0.87033 0.96818 0.0
C153 C 0.68255 0.87613 0.96449 0.0
C154 C 0.73613 0.91204 0.96927 0.0
C155 C 0.72347 0.96081 0.96673 0.0
C156 C 0.68998 0.96659 0.96417 0.0
C157 C 0.66971 0.92478 0.9632 0.0
C158 C 0.74434 1.00589 0.96357 0.0
C159 C 0.77584 0.00783 0.97077 0.0
C160 C 0.79629 0.05197 0.96361 0.0
C161 C 0.82251 0.0648 0.98161 0.0
C162 C 0.84131 0.10717 0.97535 0.0
C163 C 0.83444 0.13689 0.95069 0.0
H164 H 0.77148 0.07076 0.92319 0.0
C165 C 0.80925 0.12232 0.93199 0.0
C166 C 0.7905 0.08056 0.93831 0.0
H167 H 0.80345 0.14392 0.91258 0.0
H168 H 0.72661 0.83331 0.96918 0.0
H169 H 0.7617 0.90553 0.97071 0.0
H170 H 0.67947 1.00362 0.96203 0.0
H171 H 0.64417 0.93053 0.96022 0.0
H172 H 0.73305 0.03916 0.95438 0.0
H173 H 0.78699 0.97698 0.9825 0.0
H174 H 0.8279 0.04284 0.00097 0.0
H175 H 0.8605 0.11741 0.99019 0.0
C176 C 0.65173 0.56606 0.5474 0.0
C177 C 0.652 0.60524 0.52684 0.0
C178 C 0.67412 0.52686 0.54564 0.0
C179 C 0.69745 0.52608 0.52332 0.0
C180 C 0.69593 0.56303 0.50145 0.0
C181 C 0.6736 0.6023 0.50325 0.0
C182 C 0.72401 0.48821 0.52256 0.0
C183 C 0.73565 0.46599 0.54696 0.0
C184 C 0.76197 0.4279 0.54754 0.0
C185 C 0.76309 0.39476 0.57136 0.0
C186 C 0.7869 0.35807 0.57332 0.0
C187 C 0.81079 0.35388 0.55178 0.0
H188 H 0.7866 0.4502 0.50772 0.0
C189 C 0.81052 0.38791 0.52827 0.0
C190 C 0.78617 0.4245 0.52604 0.0
H191 H 0.82862 0.38555 0.51134 0.0
H192 H 0.63533 0.56701 0.56577 0.0
H193 H 0.67341 0.49789 0.5622 0.0
H194 H 0.71313 0.56297 0.48369 0.0
H195 H 0.67447 0.63183 0.48699 0.0
H196 H 0.7349 0.48001 0.50151 0.0
H197 H 0.72493 0.47512 0.56795 0.0
H198 H 0.74509 0.39669 0.58841 0.0
H199 H 0.78647 0.33266 0.59183 0.0
C200 C 0.39193 0.31941 0.16434 0.0
C201 C 0.40494 0.27919 0.14838 0.0
C202 C 0.39556 0.32182 0.1947 0.0
C203 C 0.41208 0.28376 0.20988 0.0
C204 C 0.42617 0.24455 0.19381 0.0
C205 C 0.42251 0.2421 0.16334 0.0
C206 C 0.41445 0.28366 0.24238 0.0
C207 C 0.39121 0.30313 0.25947 0.0
C208 C 0.39108 0.29908 0.29188 0.0
C209 C 0.3614 0.29705 0.30622 0.0
C210 C 0.35994 0.29141 0.33655 0.0
C211 C 0.38817 0.28876 0.35332 0.0
H212 H 0.44271 0.3004 0.29835 0.0
C213 C 0.41797 0.29277 0.33921 0.0
C214 C 0.41945 0.29762 0.30868 0.0
H215 H 0.44009 0.29088 0.35167 0.0
H216 H 0.37864 0.34897 0.1534 0.0
H217 H 0.38536 0.3536 0.20616 0.0
H218 H 0.4393 0.21503 0.20494 0.0
H219 H 0.433 0.21085 0.15157 0.0
H220 H 0.43429 0.26335 0.25236 0.0
H221 H 0.36982 0.3188 0.24931 0.0
H222 H 0.33921 0.29858 0.29383 0.0
H223 H 0.33663 0.28867 0.34685 0.0
C224 C 0.13368 0.78466 0.33801 0.0
C225 C 0.11283 0.75498 0.35471 0.0
C226 C 0.13149 0.78534 0.30753 0.0
C227 C 0.10844 0.75608 0.29295 0.0
C228 C 0.08723 0.72697 0.30964 0.0
C229 C 0.08953 0.72612 0.34027 0.0
C230 C 0.10573 0.75627 0.26048 0.0
C231 C 0.1313 0.76349 0.24302 0.0
C232 C 0.12967 0.76315 0.21055 0.0
C233 C 0.15703 0.74847 0.19487 0.0
C234 C 0.15676 0.7479 0.16432 0.0
C235 C 0.1293 0.76301 0.14873 0.0
H236 H 0.08097 0.79161 0.20644 0.0
C237 C 0.10208 0.77891 0.16432 0.0
C238 C 0.10219 0.77879 0.19501 0.0
H239 H 0.08061 0.79081 0.15282 0.0
H240 H 0.15167 0.80778 0.34849 0.0
H241 H 0.14755 0.80956 0.29553 0.0
H242 H 0.06906 0.70448 0.29895 0.0
H243 H 0.07296 0.70322 0.35261 0.0
H244 H 0.08255 0.74766 0.25083 0.0
H245 H 0.15498 0.76691 0.25279 0.0
H246 H 0.1786 0.73677 0.20631 0.0
H247 H 0.17815 0.73565 0.1529 0.0
C248 C 0.64691 0.75146 0.83379 0.0
C249 C 0.6209 0.76562 0.85145 0.0
C250 C 0.64384 0.75015 0.80336 0.0
C251 C 0.61439 0.76212 0.7898 0.0
C252 C 0.5887 0.77795 0.80748 0.0
C253 C 0.59189 0.7797 0.83802 0.0
C254 C 0.60986 0.75951 0.75741 0.0
C255 C 0.62916 0.73267 0.73961 0.0
C256 C 0.6263 0.73272 0.70722 0.0
C257 C 0.65438 0.72753 0.69063 0.0
C258 C 0.65312 0.72829 0.6601 0.0
C259 C 0.62361 0.73303 0.64547 0.0
H260 H 0.57443 0.7396 0.70484 0.0
C261 C 0.59528 0.7366 0.66196 0.0
C262 C 0.5966 0.7368 0.69265 0.0
H263 H 0.57221 0.74022 0.65118 0.0
H264 H 0.66973 0.74109 0.8435 0.0
H265 H 0.66482 0.74003 0.79079 0.0
H266 H 0.5659 0.78815 0.79768 0.0
H267 H 0.57145 0.79086 0.85112 0.0
H268 H 0.59001 0.7806 0.74801 0.0
H269 H 0.649 0.71131 0.74866 0.0
H270 H 0.6775 0.72386 0.70133 0.0
H271 H 0.67532 0.72519 0.64794 0.0
C272 C 0.91024 0.28544 0.65967 0.0
C273 C 0.8987 0.24099 0.64707 0.0
C274 C 0.91613 0.28802 0.68986 0.0
C275 C 0.91079 0.24596 0.70783 0.0
C276 C 0.90078 0.201 0.69488 0.0
C277 C 0.8945 0.19864 0.66491 0.0
C278 C 0.91407 0.24778 0.74018 0.0
C279 C 0.90709 0.28907 0.75589 0.0
C280 C 0.90345 0.28822 0.78823 0.0
C281 C 0.88126 0.32109 0.80109 0.0
C282 C 0.87519 0.31912 0.8311 0.0
C283 C 0.89159 0.28471 0.84904 0.0
H284 H 0.93855 0.22972 0.79722 0.0
C285 C 0.91476 0.25305 0.83646 0.0
C286 C 0.92062 0.25468 0.80629 0.0
H287 H 0.928 0.22655 0.84984 0.0
H288 H 0.91395 0.3185 0.64635 0.0
H289 H 0.92466 0.32292 0.69905 0.0
H290 H 0.89673 0.16799 0.70817 0.0
H291 H 0.88598 0.16366 0.65575 0.0
H292 H 0.91821 0.21247 0.75144 0.0
H293 H 0.89983 0.3231 0.74456 0.0
H294 H 0.86787 0.3475 0.78775 0.0
H295 H 0.85744 0.34442 0.84021 0.0
C296 C 0.45479 0.38471 0.99906 0.0
C297 C 0.46118 0.35789 0.02497 0.0
C298 C 0.47123 0.42919 0.99281 0.0
C299 C 0.49452 0.44788 0.01236 0.0
C300 C 0.50229 0.41923 0.03724 0.0
C301 C 0.4857 0.37502 0.0436 0.0
C302 C 0.51123 0.49673 0.00771 0.0
C303 C 0.49896 0.53501 0.99176 0.0
C304 C 0.51587 0.58362 0.98701 0.0
C305 C 0.50917 0.61122 0.96148 0.0
C306 C 0.52631 0.65485 0.95495 0.0
C307 C 0.55019 0.67251 0.9741 0.0
H308 H 0.54348 0.58391 0.02747 0.0
C309 C 0.55534 0.64695 0.00066 0.0
C310 C 0.53844 0.60294 0.00704 0.0
H311 H 0.57366 0.6594 0.01584 0.0
H312 H 0.43604 0.37259 0.98423 0.0
H313 H 0.46532 0.44892 0.97281 0.0
H314 H 0.52045 0.43212 0.05247 0.0
H315 H 0.49119 0.35537 0.06377 0.0
H316 H 0.53422 0.50145 0.01855 0.0
H317 H 0.47601 0.53039 0.98084 0.0
H318 H 0.49158 0.5978 0.94586 0.0
H319 H 0.52182 0.67352 0.93427 0.0
C320 C 0.04975 0.66068 0.99721 0.0
C321 C 0.04727 0.68179 0.02533 0.0
C322 C 0.03205 0.618 0.98965 0.0
C323 C 0.01108 0.5956 0.01 0.0
C324 C 0.00743 0.6185 0.03754 0.0
C325 C 0.02524 0.66099 0.04512 0.0
C326 C 0.99398 0.54727 0.00421 0.0
C327 C 0.99062 0.52644 0.97743 0.0
C328 C 0.97252 0.47928 0.9717 0.0
C329 C 0.95779 0.47353 0.94427 0.0
C330 C 0.93964 0.43106 0.93795 0.0
C331 C 0.93628 0.39241 0.95862 0.0
H332 H 0.98175 0.44256 0.01339 0.0
C333 C 0.95215 0.39672 0.98569 0.0
C334 C 0.96998 0.44002 0.99229 0.0
H335 H 0.9499 0.36755 0.00204 0.0
H336 H 0.06687 0.67523 0.98159 0.0
H337 H 0.03623 0.60168 0.96833 0.0
H338 H 0.99147 0.60248 0.0537 0.0
H339 H 0.02292 0.676 0.06707 0.0
H340 H 0.98284 0.52891 0.0228 0.0
H341 H 0.99937 0.54626 0.95834 0.0
H342 H 0.9596 0.5027 0.92785 0.0
H343 H 0.92784 0.42875 0.91681 0.0
C344 C 0.54218 0.86378 0.50776 0.0
C345 C 0.55279 0.85491 0.53655 0.0
C346 C 0.52519 0.90788 0.50089 0.0
C347 C 0.51819 0.94357 0.5228 0.0
C348 C 0.52734 0.9331 0.55176 0.0
C349 C 0.54476 0.88971 0.55849 0.0
C350 C 0.50125 0.99185 0.51653 0.0
C351 C 0.50409 0.0169 0.49097 0.0
C352 C 0.48774 0.06563 0.48412 0.0
C353 C 0.4855 0.08041 0.45466 0.0
C354 C 0.46891 0.12396 0.44668 0.0
C355 C 0.45434 0.15447 0.46798 0.0
H356 H 0.47638 0.08866 0.52872 0.0
C357 C 0.45793 0.14143 0.49764 0.0
C358 C 0.47444 0.09747 0.50568 0.0
H359 H 0.44691 0.16408 0.51457 0.0
H360 H 0.54813 0.83773 0.49039 0.0
H361 H 0.51768 0.91392 0.47845 0.0
H362 H 0.52195 0.95944 0.56915 0.0
H363 H 0.55255 0.88388 0.5809 0.0
H364 H 0.48713 0.0078 0.53416 0.0
H365 H 0.51877 1.00059 0.47378 0.0
H366 H 0.4958 0.0573 0.43755 0.0
H367 H 0.46665 0.13291 0.42362 0.0
C368 C 0.96839 0.12703 0.53795 0.0
C369 C 0.94745 0.15414 0.51956 0.0
C370 C 0.98291 0.08259 0.52833 0.0
C371 C 0.97687 0.06406 0.49998 0.0
C372 C 0.95791 0.09316 0.48088 0.0
C373 C 0.94317 0.13752 0.49059 0.0
C374 C 0.98987 0.01482 0.48966 0.0
C375 C 0.99673 0.97604 0.5078 0.0
C376 C 0.01023 0.92681 0.49793 0.0
C377 C 0.02721 0.89705 0.5182 0.0
C378 C 0.04262 0.85278 0.50936 0.0
C379 C 0.04111 0.83685 0.48005 0.0
H380 H 0.99298 0.9295 0.45296 0.0
C381 C 0.02213 0.8646 0.46026 0.0
C382 C 0.00688 0.90901 0.46905 0.0
H383 H 0.02035 0.85339 0.4375 0.0
H384 H 0.97237 0.13882 0.56038 0.0
H385 H 0.99846 0.06259 0.54336 0.0
H386 H 0.95328 0.08038 0.45875 0.0
H387 H 0.9271 0.15728 0.47588 0.0
H388 H 0.99306 0.01039 0.46623 0.0
H389 H 0.99324 0.98071 0.5312 0.0
H390 H 0.02979 0.90923 0.54072 0.0
H391 H 0.05712 0.83252 0.52516 0.0
C392 C 0.18501 0.60811 0.00699 0.0
C393 C 0.1682 0.61386 0.0334 0.0
C394 C 0.19874 0.56192 -0.0002 0.0
C395 C 0.19567 0.52093 0.01894 0.0
C396 C 0.17701 0.52605 0.04428 0.0
C397 C 0.16362 0.57219 0.05159 0.0
C398 C 0.21433 0.47423 0.01545 0.0
C399 C 0.24399 0.47376 0.00401 0.0
C400 C 0.26751 0.43487 0.01241 0.0
C401 C 0.29141 0.4201 0.99264 0.0
C402 C 0.31553 0.38684 0.00151 0.0
C403 C 0.31644 0.36918 0.0305 0.0
H404 H 0.25099 0.42883 0.05744 0.0
C405 C 0.29264 0.38421 0.05026 0.0
C406 C 0.26837 0.41664 0.04132 0.0
H407 H 0.29286 0.37118 0.07274 0.0
H408 H 0.18832 0.63958 0.99233 0.0
H409 H 0.21226 0.5588 0.97967 0.0
H410 H 0.17418 0.49494 0.05931 0.0
H411 H 0.15021 0.57541 0.07182 0.0
H412 H 0.20615 0.4416 0.02757 0.0
H413 H 0.25286 0.50533 0.99147 0.0
H414 H 0.29153 0.43454 0.97046 0.0
H415 H 0.33381 0.37584 0.98592 0.0
C416 C 0.30133 0.13313 0.48208 0.0
C417 C 0.31063 0.14759 0.45379 0.0
C418 C 0.27589 0.09997 0.48593 0.0
C419 C 0.25958 0.08056 0.46145 0.0
C420 C 0.26884 0.09548 0.43326 0.0
C421 C 0.29417 0.12856 0.42943 0.0
C422 C 0.23287 0.0447 0.464 0.0
C423 C 0.22811 0.01484 0.48732 0.0
C424 C 0.20469 0.97351 0.4859 0.0
C425 C 0.21216 0.92764 0.49934 0.0
C426 C 0.19367 0.88526 0.49346 0.0
C427 C 0.16769 0.88854 0.47395 0.0
H428 H 0.1694 0.01299 0.45928 0.0
C429 C 0.15863 0.93522 0.46253 0.0
C430 C 0.17669 0.97757 0.46881 0.0
H431 H 0.13804 0.93878 0.44813 0.0
H432 H 0.31346 0.14781 0.50124 0.0
H433 H 0.26892 0.09038 0.50803 0.0
H434 H 0.25659 0.08117 0.41405 0.0
H435 H 0.30077 0.13932 0.40737 0.0
H436 H 0.21838 0.03937 0.44443 0.0
H437 H 0.24429 0.01606 0.50596 0.0
H438 H 0.23337 0.92387 0.51295 0.0
H439 H 0.20074 0.84957 0.50281 0.0
C440 C 0.67415 0.59646 0.98967 0.0
C441 C 0.67026 0.61239 0.96054 0.0
C442 C 0.68411 0.5475 0.99577 0.0
C443 C 0.6904 0.5139 0.97273 0.0
C444 C 0.68595 0.52986 0.9437 0.0
C445 C 0.67612 0.57862 0.93764 0.0
C446 C 0.70313 0.46275 0.97743 0.0
C447 C 0.72054 0.44902 0.00103 0.0
C448 C 0.7428 0.40574 0.99932 0.0
C449 C 0.7732 0.41003 0.01237 0.0
C450 C 0.7982 0.37844 0.00364 0.0
C451 C 0.79291 0.34275 0.98163 0.0
H452 H 0.71301 0.35887 0.97141 0.0
C453 C 0.76174 0.33436 0.97133 0.0
C454 C 0.73663 0.36492 0.98063 0.0
H455 H 0.75711 0.30591 0.95491 0.0
H456 H 0.66922 0.62164 0.00774 0.0
H457 H 0.68657 0.53623 0.01842 0.0
H458 H 0.69064 0.50474 0.92553 0.0
H459 H 0.67298 0.58973 0.91499 0.0
H460 H 0.70243 0.43825 0.95844 0.0
H461 H 0.72362 0.47488 0.01916 0.0
H462 H 0.77841 0.44065 0.02721 0.0
H463 H 0.82214 0.38498 0.01208 0.0
C464 C 0.70286 0.85401 0.50286 0.0
C465 C 0.70386 0.82395 0.52807 0.0
C466 C 0.72809 0.88645 0.49665 0.0
C467 C 0.75459 0.88924 0.51569 0.0
C468 C 0.75679 0.85589 0.53934 0.0
C469 C 0.73152 0.82369 0.54563 0.0
C470 C 0.77813 0.93028 0.51412 0.0
C471 C 0.76971 0.97673 0.50558 0.0
C472 C 0.78822 0.02113 0.51459 0.0
C473 C 0.7884 0.0638 0.4967 0.0
C474 C 0.80391 0.1073 0.50601 0.0
C475 C 0.81876 0.10891 0.53365 0.0
H476 H 0.80207 0.99145 0.55719 0.0
C477 C 0.81805 0.06653 0.55175 0.0
C478 C 0.80294 0.02303 0.54233 0.0
H479 H 0.82926 0.06684 0.57318 0.0
H480 H 0.68201 0.85412 0.48864 0.0
H481 H 0.72622 0.91049 0.47762 0.0
H482 H 0.77713 0.85707 0.55416 0.0
H483 H 0.7331 0.80021 0.56494 0.0
H484 H 0.80106 0.92448 0.52503 0.0
H485 H 0.74707 0.98355 0.49445 0.0
H486 H 0.77659 0.06341 0.47553 0.0
H487 H 0.80412 0.13965 0.49169 0.0
loop_
_geom_bond_atom_site_label_1
_geom_bond_atom_site_label_2
_geom_bond_distance
_geom_bond_site_symmetry_2
_ccdc_geom_bond_type
In0 O1 2.294 . S
In0 O2 2.326 . S
In0 O6 2.266 . S
In0 O7 2.326 . S
In0 O8 2.266 . S
In0 O9 2.326 . S
In0 O11 2.294 . S
In0 O12 2.326 . S
O1 In0 2.294 . S
O1 C10 1.240 . S
O2 In0 2.326 . S
O2 C10 1.252 . S
C3 O6 1.252 . S
C3 O7 1.260 . S
C4 O11 1.240 . S
C4 O12 1.252 . S
C5 O8 1.252 . S
C5 O9 1.260 . S
O6 In0 2.266 . S
O6 C3 1.252 . S
O7 In0 2.326 . S
O7 C3 1.260 . S
O8 In0 2.266 . S
O8 C5 1.252 . S
O9 In0 2.326 . S
O9 C5 1.260 . S
C10 O1 1.240 . S
C10 O2 1.252 . S
O11 In0 2.294 . S
O11 C4 1.240 . S
O12 In0 2.326 . S
O12 C4 1.252 . S
In13 O14 2.294 . S
In13 O15 2.326 . S
In13 O19 2.266 . S
In13 O20 2.326 . S
In13 O21 2.266 . S
In13 O22 2.326 . S
In13 O24 2.294 . S
In13 O25 2.326 . S
O14 In13 2.294 . S
O14 C23 1.240 . S
O15 In13 2.326 . S
O15 C23 1.252 . S
C16 O19 1.252 . S
C16 O20 1.260 . S
C17 O24 1.240 . S
C17 O25 1.252 . S
C18 O21 1.252 . S
C18 O22 1.260 . S
O19 In13 2.266 . S
O19 C16 1.252 . S
O20 In13 2.326 . S
O20 C16 1.260 . S
O21 In13 2.266 . S
O21 C18 1.252 . S
O22 In13 2.326 . S
O22 C18 1.260 . S
C23 O14 1.240 . S
C23 O15 1.252 . S
O24 In13 2.294 . S
O24 C17 1.240 . S
O25 In13 2.326 . S
O25 C17 1.252 . S
In26 O27 2.294 . S
In26 O28 2.326 . S
In26 O32 2.266 . S
In26 O33 2.326 . S
In26 O34 2.266 . S
In26 O35 2.326 . S
In26 O37 2.294 . S
In26 O38 2.326 . S
O27 In26 2.294 . S
O27 C36 1.240 . S
O28 In26 2.326 . S
O28 C36 1.252 . S
C29 O32 1.252 . S
C29 O33 1.260 . S
C30 O37 1.240 . S
C30 O38 1.252 . S
C31 O34 1.252 . S
C31 O35 1.260 . S
O32 In26 2.266 . S
O32 C29 1.252 . S
O33 In26 2.326 . S
O33 C29 1.260 . S
O34 In26 2.266 . S
O34 C31 1.252 . S
O35 In26 2.326 . S
O35 C31 1.260 . S
C36 O27 1.240 . S
C36 O28 1.252 . S
O37 In26 2.294 . S
O37 C30 1.240 . S
O38 In26 2.326 . S
O38 C30 1.252 . S
In39 O40 2.294 . S
In39 O41 2.326 . S
In39 O45 2.266 . S
In39 O46 2.326 . S
In39 O47 2.266 . S
In39 O48 2.326 . S
In39 O50 2.294 . S
In39 O51 2.326 . S
O40 In39 2.294 . S
O40 C49 1.240 . S
O41 In39 2.326 . S
O41 C49 1.252 . S
C42 O45 1.252 . S
C42 O46 1.260 . S
C43 O50 1.240 . S
C43 O51 1.252 . S
C44 O47 1.252 . S
C44 O48 1.260 . S
O45 In39 2.266 . S
O45 C42 1.252 . S
O46 In39 2.326 . S
O46 C42 1.260 . S
O47 In39 2.266 . S
O47 C44 1.252 . S
O48 In39 2.326 . S
O48 C44 1.260 . S
C49 O40 1.240 . S
C49 O41 1.252 . S
O50 In39 2.294 . S
O50 C43 1.240 . S
O51 In39 2.326 . S
O51 C43 1.252 . S
In52 O53 2.294 . S
In52 O54 2.326 . S
In52 O58 2.266 . S
In52 O59 2.326 . S
In52 O60 2.266 . S
In52 O61 2.326 . S
In52 O63 2.294 . S
In52 O64 2.326 . S
O53 In52 2.294 . S
O53 C62 1.240 . S
O54 In52 2.326 . S
O54 C62 1.252 . S
C55 O58 1.252 . S
C55 O59 1.260 . S
C56 O63 1.240 . S
C56 O64 1.252 . S
C57 O60 1.252 . S
C57 O61 1.260 . S
O58 In52 2.266 . S
O58 C55 1.252 . S
O59 In52 2.326 . S
O59 C55 1.260 . S
O60 In52 2.266 . S
O60 C57 1.252 . S
O61 In52 2.326 . S
O61 C57 1.260 . S
C62 O53 1.240 . S
C62 O54 1.252 . S
O63 In52 2.294 . S
O63 C56 1.240 . S
O64 In52 2.326 . S
O64 C56 1.252 . S
In65 O66 2.294 . S
In65 O67 2.326 . S
In65 O71 2.266 . S
In65 O72 2.326 . S
In65 O73 2.266 . S
In65 O74 2.326 . S
In65 O76 2.294 . S
In65 O77 2.326 . S
O66 In65 2.294 . S
O66 C75 1.240 . S
O67 In65 2.326 . S
O67 C75 1.252 . S
C68 O71 1.252 . S
C68 O72 1.260 . S
C69 O76 1.240 . S
C69 O77 1.252 . S
C70 O73 1.252 . S
C70 O74 1.260 . S
O71 In65 2.266 . S
O71 C68 1.252 . S
O72 In65 2.326 . S
O72 C68 1.260 . S
O73 In65 2.266 . S
O73 C70 1.252 . S
O74 In65 2.326 . S
O74 C70 1.260 . S
C75 O66 1.240 . S
C75 O67 1.252 . S
O76 In65 2.294 . S
O76 C69 1.240 . S
O77 In65 2.326 . S
O77 C69 1.252 . S
In78 O79 2.294 . S
In78 O80 2.326 . S
In78 O84 2.266 . S
In78 O85 2.326 . S
In78 O86 2.266 . S
In78 O87 2.326 . S
In78 O89 2.294 . S
In78 O90 2.326 . S
O79 In78 2.294 . S
O79 C88 1.240 . S
O80 In78 2.326 . S
O80 C88 1.252 . S
C81 O84 1.252 . S
C81 O85 1.260 . S
C82 O89 1.240 . S
C82 O90 1.252 . S
C83 O86 1.252 . S
C83 O87 1.260 . S
O84 In78 2.266 . S
O84 C81 1.252 . S
O85 In78 2.326 . S
O85 C81 1.260 . S
O86 In78 2.266 . S
O86 C83 1.252 . S
O87 In78 2.326 . S
O87 C83 1.260 . S
C88 O79 1.240 . S
C88 O80 1.252 . S
O89 In78 2.294 . S
O89 C82 1.240 . S
O90 In78 2.326 . S
O90 C82 1.252 . S
In91 O92 2.294 . S
In91 O93 2.326 . S
In91 O97 2.266 . S
In91 O98 2.326 . S
In91 O99 2.266 . S
In91 O100 2.326 . S
In91 O102 2.294 . S
In91 O103 2.326 . S
O92 In91 2.294 . S
O92 C101 1.240 . S
O93 In91 2.326 . S
O93 C101 1.252 . S
C94 O97 1.252 . S
C94 O98 1.260 . S
C95 O102 1.240 . S
C95 O103 1.252 . S
C96 O99 1.252 . S
C96 O100 1.260 . S
O97 In91 2.266 . S
O97 C94 1.252 . S
O98 In91 2.326 . S
O98 C94 1.260 . S
O99 In91 2.266 . S
O99 C96 1.252 . S
O100 In91 2.326 . S
O100 C96 1.260 . S
C101 O92 1.240 . S
C101 O93 1.252 . S
O102 In91 2.294 . S
O102 C95 1.240 . S
O103 In91 2.326 . S
O103 C95 1.252 . S
C104 C105 1.386 . S
C104 C106 1.383 . S
C104 H120 0.951 . S
C105 C104 1.386 . S
C105 C109 1.383 . S
C106 C104 1.383 . S
C106 C107 1.402 . S
C106 H121 0.951 . S
C107 C106 1.402 . S
C107 C108 1.375 . S
C107 C110 1.481 . S
C108 C107 1.375 . S
C108 C109 1.367 . S
C108 H122 0.951 1_554 S
C109 C105 1.383 . S
C109 C108 1.367 . S
C109 H123 0.950 . S
C110 C107 1.481 . S
C110 C111 1.297 . S
C110 H124 0.955 . S
C111 C110 1.297 . S
C111 C112 1.479 1_545 S
C111 H125 0.950 . S
C112 C111 1.479 1_565 S
C112 C113 1.375 . S
C112 C118 1.404 . S
C113 C112 1.375 . S
C113 C114 1.369 . S
C113 H126 0.950 . S
C114 C113 1.369 . S
C114 C115 1.392 . S
C114 H127 0.951 . S
C115 C114 1.392 . S
C115 C117 1.384 . S
H116 C118 0.949 . S
C117 C115 1.384 . S
C117 C118 1.385 . S
C117 H119 0.950 . S
C118 C112 1.404 . S
C118 H116 0.949 . S
C118 C117 1.385 . S
H119 C117 0.950 . S
H120 C104 0.951 . S
H121 C106 0.951 . S
H122 C108 0.951 1_556 S
H123 C109 0.950 . S
H124 C110 0.955 . S
H125 C111 0.950 . S
H126 C113 0.950 . S
H127 C114 0.951 . S
C128 C129 1.386 . S
C128 C130 1.383 . S
C128 H144 0.951 . S
C129 C128 1.386 . S
C129 C133 1.383 . S
C130 C128 1.383 . S
C130 C131 1.402 . S
C130 H145 0.951 . S
C131 C130 1.402 . S
C131 C132 1.375 . S
C131 C134 1.481 . S
C132 C131 1.375 . S
C132 C133 1.367 . S
C132 H146 0.951 . S
C133 C129 1.383 . S
C133 C132 1.367 . S
C133 H147 0.950 . S
C134 C131 1.481 . S
C134 C135 1.297 . S
C134 H148 0.950 . S
C135 C134 1.297 . S
C135 C136 1.479 . S
C135 H149 0.950 . S
C136 C135 1.479 . S
C136 C137 1.375 . S
C136 C142 1.404 . S
C137 C136 1.375 . S
C137 C138 1.369 . S
C137 H150 0.950 . S
C138 C137 1.369 . S
C138 C139 1.392 . S
C138 H151 0.951 . S
C139 C138 1.392 . S
C139 C141 1.384 . S
H140 C142 0.949 . S
C141 C139 1.384 . S
C141 C142 1.385 . S
C141 H143 0.950 . S
C142 C136 1.404 . S
C142 H140 0.949 . S
C142 C141 1.385 . S
H143 C141 0.950 . S
H144 C128 0.951 . S
H145 C130 0.951 . S
H146 C132 0.951 . S
H147 C133 0.950 . S
H148 C134 0.950 . S
H149 C135 0.950 . S
H150 C137 0.950 . S
H151 C138 0.951 . S
C152 C153 1.386 . S
C152 C154 1.383 . S
C152 H168 0.951 . S
C153 C152 1.386 . S
C153 C157 1.383 . S
C154 C152 1.383 . S
C154 C155 1.402 . S
C154 H169 0.951 . S
C155 C154 1.402 . S
C155 C156 1.375 . S
C155 C158 1.481 . S
C156 C155 1.375 . S
C156 C157 1.367 . S
C156 H170 0.951 . S
C157 C153 1.383 . S
C157 C156 1.367 . S
C157 H171 0.950 . S
C158 C155 1.481 . S
C158 C159 1.297 . S
C158 H172 0.950 1_565 S
C159 C158 1.297 . S
C159 C160 1.479 1_565 S
C159 H173 0.950 . S
C160 C159 1.479 1_545 S
C160 C161 1.375 . S
C160 C166 1.404 . S
C161 C160 1.375 . S
C161 C162 1.369 . S
C161 H174 0.950 . S
C162 C161 1.369 . S
C162 C163 1.392 . S
C162 H175 0.951 . S
C163 C162 1.392 . S
C163 C165 1.384 . S
H164 C166 0.949 . S
C165 C163 1.384 . S
C165 C166 1.385 . S
C165 H167 0.950 . S
C166 C160 1.404 . S
C166 H164 0.949 . S
C166 C165 1.385 . S
H167 C165 0.950 . S
H168 C152 0.951 . S
H169 C154 0.951 . S
H170 C156 0.951 . S
H171 C157 0.950 . S
H172 C158 0.950 1_545 S
H173 C159 0.950 . S
H174 C161 0.950 . S
H175 C162 0.951 . S
C176 C177 1.386 . S
C176 C178 1.383 . S
C176 H192 0.951 . S
C177 C176 1.386 . S
C177 C181 1.383 . S
C178 C176 1.383 . S
C178 C179 1.402 . S
C178 H193 0.951 . S
C179 C178 1.402 . S
C179 C180 1.375 . S
C179 C182 1.481 . S
C180 C179 1.375 . S
C180 C181 1.367 . S
C180 H194 0.951 . S
C181 C177 1.383 . S
C181 C180 1.367 . S
C181 H195 0.950 . S
C182 C179 1.481 . S
C182 C183 1.297 . S
C182 H196 0.950 . S
C183 C182 1.297 . S
C183 C184 1.479 . S
C183 H197 0.950 . S
C184 C183 1.479 . S
C184 C185 1.375 . S
C184 C190 1.404 . S
C185 C184 1.375 . S
C185 C186 1.369 . S
C185 H198 0.950 . S
C186 C185 1.369 . S
C186 C187 1.392 . S
C186 H199 0.951 . S
C187 C186 1.392 . S
C187 C189 1.384 . S
H188 C190 0.949 . S
C189 C187 1.384 . S
C189 C190 1.385 . S
C189 H191 0.950 . S
C190 C184 1.404 . S
C190 H188 0.949 . S
C190 C189 1.385 . S
H191 C189 0.950 . S
H192 C176 0.951 . S
H193 C178 0.951 . S
H194 C180 0.951 . S
H195 C181 0.950 . S
H196 C182 0.950 . S
H197 C183 0.950 . S
H198 C185 0.950 . S
H199 C186 0.951 . S
C200 C201 1.386 . S
C200 C202 1.383 . S
C200 H216 0.951 . S
C201 C200 1.386 . S
C201 C205 1.383 . S
C202 C200 1.383 . S
C202 C203 1.402 . S
C202 H217 0.951 . S
C203 C202 1.402 . S
C203 C204 1.375 . S
C203 C206 1.481 . S
C204 C203 1.375 . S
C204 C205 1.367 . S
C204 H218 0.951 . S
C205 C201 1.383 . S
C205 C204 1.367 . S
C205 H219 0.950 . S
C206 C203 1.481 . S
C206 C207 1.297 . S
C206 H220 0.950 . S
C207 C206 1.297 . S
C207 C208 1.479 . S
C207 H221 0.950 . S
C208 C207 1.479 . S
C208 C209 1.375 . S
C208 C214 1.404 . S
C209 C208 1.375 . S
C209 C210 1.369 . S
C209 H222 0.950 . S
C210 C209 1.369 . S
C210 C211 1.392 . S
C210 H223 0.951 . S
C211 C210 1.392 . S
C211 C213 1.384 . S
H212 C214 0.949 . S
C213 C211 1.384 . S
C213 C214 1.385 . S
C213 H215 0.950 . S
C214 C208 1.404 . S
C214 H212 0.949 . S
C214 C213 1.385 . S
H215 C213 0.950 . S
H216 C200 0.951 . S
H217 C202 0.951 . S
H218 C204 0.951 . S
H219 C205 0.950 . S
H220 C206 0.950 . S
H221 C207 0.950 . S
H222 C209 0.950 . S
H223 C210 0.951 . S
C224 C225 1.386 . S
C224 C226 1.383 . S
C224 H240 0.951 . S
C225 C224 1.386 . S
C225 C229 1.383 . S
C226 C224 1.383 . S
C226 C227 1.402 . S
C226 H241 0.951 . S
C227 C226 1.402 . S
C227 C228 1.375 . S
C227 C230 1.481 . S
C228 C227 1.375 . S
C228 C229 1.367 . S
C228 H242 0.951 . S
C229 C225 1.383 . S
C229 C228 1.367 . S
C229 H243 0.950 . S
C230 C227 1.481 . S
C230 C231 1.297 . S
C230 H244 0.950 . S
C231 C230 1.297 . S
C231 C232 1.479 . S
C231 H245 0.950 . S
C232 C231 1.479 . S
C232 C233 1.375 . S
C232 C238 1.404 . S
C233 C232 1.375 . S
C233 C234 1.369 . S
C233 H246 0.950 . S
C234 C233 1.369 . S
C234 C235 1.392 . S
C234 H247 0.951 . S
C235 C234 1.392 . S
C235 C237 1.384 . S
H236 C238 0.949 . S
C237 C235 1.384 . S
C237 C238 1.385 . S
C237 H239 0.950 . S
C238 C232 1.404 . S
C238 H236 0.949 . S
C238 C237 1.385 . S
H239 C237 0.950 . S
H240 C224 0.951 . S
H241 C226 0.951 . S
H242 C228 0.951 . S
H243 C229 0.950 . S
H244 C230 0.950 . S
H245 C231 0.950 . S
H246 C233 0.950 . S
H247 C234 0.951 . S
C248 C249 1.386 . S
C248 C250 1.383 . S
C248 H264 0.951 . S
C249 C248 1.386 . S
C249 C253 1.383 . S
C250 C248 1.383 . S
C250 C251 1.402 . S
C250 H265 0.951 . S
C251 C250 1.402 . S
C251 C252 1.375 . S
C251 C254 1.481 . S
C252 C251 1.375 . S
C252 C253 1.367 . S
C252 H266 0.951 . S
C253 C249 1.383 . S
C253 C252 1.367 . S
C253 H267 0.950 . S
C254 C251 1.481 . S
C254 C255 1.297 . S
C254 H268 0.950 . S
C255 C254 1.297 . S
C255 C256 1.479 . S
C255 H269 0.950 . S
C256 C255 1.479 . S
C256 C257 1.375 . S
C256 C262 1.404 . S
C257 C256 1.375 . S
C257 C258 1.369 . S
C257 H270 0.950 . S
C258 C257 1.369 . S
C258 C259 1.392 . S
C258 H271 0.951 . S
C259 C258 1.392 . S
C259 C261 1.384 . S
H260 C262 0.949 . S
C261 C259 1.384 . S
C261 C262 1.385 . S
C261 H263 0.950 . S
C262 C256 1.404 . S
C262 H260 0.949 . S
C262 C261 1.385 . S
H263 C261 0.950 . S
H264 C248 0.951 . S
H265 C250 0.951 . S
H266 C252 0.951 . S
H267 C253 0.950 . S
H268 C254 0.950 . S
H269 C255 0.950 . S
H270 C257 0.950 . S
H271 C258 0.951 . S
C272 C273 1.386 . S
C272 C274 1.383 . S
C272 H288 0.951 . S
C273 C272 1.386 . S
C273 C277 1.383 . S
C274 C272 1.383 . S
C274 C275 1.402 . S
C274 H289 0.951 . S
C275 C274 1.402 . S
C275 C276 1.375 . S
C275 C278 1.481 . S
C276 C275 1.375 . S
C276 C277 1.367 . S
C276 H290 0.951 . S
C277 C273 1.383 . S
C277 C276 1.367 . S
C277 H291 0.950 . S
C278 C275 1.481 . S
C278 C279 1.297 . S
C278 H292 0.950 . S
C279 C278 1.297 . S
C279 C280 1.479 . S
C279 H293 0.950 . S
C280 C279 1.479 . S
C280 C281 1.375 . S
C280 C286 1.404 . S
C281 C280 1.375 . S
C281 C282 1.369 . S
C281 H294 0.950 . S
C282 C281 1.369 . S
C282 C283 1.392 . S
C282 H295 0.951 . S
C283 C282 1.392 . S
C283 C285 1.384 . S
H284 C286 0.949 . S
C285 C283 1.384 . S
C285 C286 1.385 . S
C285 H287 0.950 . S
C286 C280 1.404 . S
C286 H284 0.949 . S
C286 C285 1.385 . S
H287 C285 0.950 . S
H288 C272 0.951 . S
H289 C274 0.951 . S
H290 C276 0.951 . S
H291 C277 0.950 . S
H292 C278 0.950 . S
H293 C279 0.950 . S
H294 C281 0.950 . S
H295 C282 0.951 . S
C296 C297 1.386 . S
C296 C298 1.383 1_554 S
C296 H312 0.951 1_554 S
C297 C296 1.386 . S
C297 C301 1.383 . S
C298 C296 1.383 1_556 S
C298 C299 1.402 1_556 S
C298 H313 0.951 . S
C299 C298 1.402 1_554 S
C299 C300 1.375 . S
C299 C302 1.481 . S
C300 C299 1.375 . S
C300 C301 1.367 . S
C300 H314 0.951 . S
C301 C297 1.383 . S
C301 C300 1.367 . S
C301 H315 0.950 . S
C302 C299 1.481 . S
C302 C303 1.297 1_554 S
C302 H316 0.950 . S
C303 C302 1.297 1_556 S
C303 C304 1.479 . S
C303 H317 0.950 . S
C304 C303 1.479 . S
C304 C305 1.375 . S
C304 C310 1.404 . S
C305 C304 1.375 . S
C305 C306 1.369 . S
C305 H318 0.950 . S
C306 C305 1.369 . S
C306 C307 1.392 . S
C306 H319 0.951 . S
C307 C306 1.392 . S
C307 C309 1.384 . S
H308 C310 0.949 1_554 S
C309 C307 1.384 . S
C309 C310 1.385 . S
C309 H311 0.950 1_556 S
C310 C304 1.404 . S
C310 H308 0.949 1_556 S
C310 C309 1.385 . S
H311 C309 0.950 1_554 S
H312 C296 0.951 1_556 S
H313 C298 0.951 . S
H314 C300 0.951 . S
H315 C301 0.950 . S
H316 C302 0.950 . S
H317 C303 0.950 . S
H318 C305 0.950 . S
H319 C306 0.951 . S
C320 C321 1.386 . S
C320 C322 1.381 1_554 S
C320 H336 0.951 . S
C321 C320 1.386 . S
C321 C325 1.383 . S
C322 C320 1.381 1_556 S
C322 C323 1.400 1_556 S
C322 H337 0.954 . S
C323 C322 1.400 1_554 S
C323 C324 1.375 . S
C323 C326 1.484 . S
C324 C323 1.375 . S
C324 C325 1.367 . S
C324 H338 0.951 . S
C325 C321 1.383 . S
C325 C324 1.367 . S
C325 H339 0.950 . S
C326 C323 1.484 . S
C326 C327 1.288 1_454 S
C326 H340 0.956 . S
C327 C326 1.288 1_656 S
C327 C328 1.479 . S
C327 H341 0.950 . S
C328 C327 1.479 . S
C328 C329 1.375 . S
C328 C334 1.404 . S
C329 C328 1.375 . S
C329 C330 1.369 . S
C329 H342 0.950 . S
C330 C329 1.369 . S
C330 C331 1.392 . S
C330 H343 0.951 . S
C331 C330 1.392 . S
C331 C333 1.384 . S
H332 C334 0.949 1_455 S
C333 C331 1.384 . S
C333 C334 1.385 . S
C333 H335 0.950 . S
C334 C328 1.404 . S
C334 H332 0.949 1_655 S
C334 C333 1.385 . S
H335 C333 0.950 . S
H336 C320 0.951 . S
H337 C322 0.954 . S
H338 C324 0.951 . S
H339 C325 0.950 . S
H340 C326 0.956 . S
H341 C327 0.950 . S
H342 C329 0.950 . S
H343 C330 0.951 . S
C344 C345 1.386 . S
C344 C346 1.383 . S
C344 H360 0.951 . S
C345 C344 1.386 . S
C345 C349 1.383 . S
C346 C344 1.383 . S
C346 C347 1.402 . S
C346 H361 0.951 . S
C347 C346 1.402 . S
C347 C348 1.375 . S
C347 C350 1.481 . S
C348 C347 1.375 . S
C348 C349 1.367 . S
C348 H362 0.951 . S
C349 C345 1.383 . S
C349 C348 1.367 . S
C349 H363 0.950 . S
C350 C347 1.481 . S
C350 C351 1.306 . S
C350 H364 0.950 . S
C351 C350 1.306 . S
C351 C352 1.460 1_565 S
C351 H365 0.963 . S
C352 C351 1.460 1_545 S
C352 C353 1.375 . S
C352 C358 1.404 . S
C353 C352 1.375 . S
C353 C354 1.369 . S
C353 H366 0.950 . S
C354 C353 1.369 . S
C354 C355 1.392 . S
C354 H367 0.951 . S
C355 C354 1.392 . S
C355 C357 1.384 . S
H356 C358 0.949 . S
C357 C355 1.384 . S
C357 C358 1.385 . S
C357 H359 0.950 . S
C358 C352 1.404 . S
C358 H356 0.949 . S
C358 C357 1.385 . S
H359 C357 0.950 . S
H360 C344 0.951 . S
H361 C346 0.951 . S
H362 C348 0.951 . S
H363 C349 0.950 . S
H364 C350 0.950 . S
H365 C351 0.963 . S
H366 C353 0.950 . S
H367 C354 0.951 . S
C368 C369 1.386 . S
C368 C370 1.383 . S
C368 H384 0.951 . S
C369 C368 1.386 . S
C369 C373 1.383 . S
C370 C368 1.383 . S
C370 C371 1.402 . S
C370 H385 0.951 . S
C371 C370 1.402 . S
C371 C372 1.375 . S
C371 C374 1.481 . S
C372 C371 1.375 . S
C372 C373 1.367 . S
C372 H386 0.951 . S
C373 C369 1.383 . S
C373 C372 1.367 . S
C373 H387 0.950 . S
C374 C371 1.481 . S
C374 C375 1.297 1_545 S
C374 H388 0.950 . S
C375 C374 1.297 1_565 S
C375 C376 1.479 1_655 S
C375 H389 0.950 . S
C376 C375 1.479 1_455 S
C376 C377 1.375 . S
C376 C382 1.404 . S
C377 C376 1.375 . S
C377 C378 1.369 . S
C377 H390 0.950 . S
C378 C377 1.369 . S
C378 C379 1.392 . S
C378 H391 0.951 . S
C379 C378 1.392 . S
C379 C381 1.384 . S
H380 C382 0.949 1_655 S
C381 C379 1.384 . S
C381 C382 1.385 . S
C381 H383 0.950 . S
C382 C376 1.404 . S
C382 H380 0.949 1_455 S
C382 C381 1.385 . S
H383 C381 0.950 . S
H384 C368 0.951 . S
H385 C370 0.951 . S
H386 C372 0.951 . S
H387 C373 0.950 . S
H388 C374 0.950 . S
H389 C375 0.950 . S
H390 C377 0.950 . S
H391 C378 0.951 . S
C392 C393 1.386 . S
C392 C394 1.383 . S
C392 H408 0.951 . S
C393 C392 1.386 . S
C393 C397 1.383 . S
C394 C392 1.383 . S
C394 C395 1.402 . S
C394 H409 0.951 . S
C395 C394 1.402 . S
C395 C396 1.375 . S
C395 C398 1.481 . S
C396 C395 1.375 . S
C396 C397 1.367 . S
C396 H410 0.951 . S
C397 C393 1.383 . S
C397 C396 1.367 . S
C397 H411 0.950 . S
C398 C395 1.481 . S
C398 C399 1.297 . S
C398 H412 0.950 . S
C399 C398 1.297 . S
C399 C400 1.479 . S
C399 H413 0.950 . S
C400 C399 1.479 . S
C400 C401 1.375 . S
C400 C406 1.404 . S
C401 C400 1.375 . S
C401 C402 1.369 . S
C401 H414 0.950 . S
C402 C401 1.369 . S
C402 C403 1.392 . S
C402 H415 0.951 . S
C403 C402 1.392 . S
C403 C405 1.384 . S
H404 C406 0.949 . S
C405 C403 1.384 . S
C405 C406 1.385 . S
C405 H407 0.950 . S
C406 C400 1.404 . S
C406 H404 0.949 . S
C406 C405 1.385 . S
H407 C405 0.950 . S
H408 C392 0.951 . S
H409 C394 0.951 . S
H410 C396 0.951 . S
H411 C397 0.950 . S
H412 C398 0.950 . S
H413 C399 0.950 . S
H414 C401 0.950 . S
H415 C402 0.951 . S
C416 C417 1.386 . S
C416 C418 1.383 . S
C416 H432 0.951 . S
C417 C416 1.386 . S
C417 C421 1.383 . S
C418 C416 1.383 . S
C418 C419 1.402 . S
C418 H433 0.951 . S
C419 C418 1.402 . S
C419 C420 1.375 . S
C419 C422 1.481 . S
C420 C419 1.375 . S
C420 C421 1.367 . S
C420 H434 0.951 . S
C421 C417 1.383 . S
C421 C420 1.367 . S
C421 H435 0.950 . S
C422 C419 1.481 . S
C422 C423 1.297 1_545 S
C422 H436 0.950 . S
C423 C422 1.297 1_565 S
C423 C424 1.479 . S
C423 H437 0.952 . S
C424 C423 1.479 . S
C424 C425 1.375 . S
C424 C430 1.404 . S
C425 C424 1.375 . S
C425 C426 1.369 . S
C425 H438 0.950 . S
C426 C425 1.369 . S
C426 C427 1.392 . S
C426 H439 0.951 . S
C427 C426 1.392 . S
C427 C429 1.384 . S
H428 C430 0.949 . S
C429 C427 1.384 . S
C429 C430 1.385 . S
C429 H431 0.950 . S
C430 C424 1.404 . S
C430 H428 0.949 . S
C430 C429 1.385 . S
H431 C429 0.950 . S
H432 C416 0.951 . S
H433 C418 0.951 . S
H434 C420 0.951 . S
H435 C421 0.950 . S
H436 C422 0.950 . S
H437 C423 0.952 . S
H438 C425 0.950 . S
H439 C426 0.951 . S
C440 C441 1.386 . S
C440 C442 1.383 . S
C440 H456 0.951 1_556 S
C441 C440 1.386 . S
C441 C445 1.383 . S
C442 C440 1.383 . S
C442 C443 1.402 . S
C442 H457 0.951 1_556 S
C443 C442 1.402 . S
C443 C444 1.375 . S
C443 C446 1.481 . S
C444 C443 1.375 . S
C444 C445 1.367 . S
C444 H458 0.951 . S
C445 C441 1.383 . S
C445 C444 1.367 . S
C445 H459 0.950 . S
C446 C443 1.481 . S
C446 C447 1.297 . S
C446 H460 0.950 . S
C447 C446 1.297 . S
C447 C448 1.479 . S
C447 H461 0.988 . S
C448 C447 1.479 . S
C448 C449 1.375 . S
C448 C454 1.404 . S
C449 C448 1.375 . S
C449 C450 1.369 . S
C449 H462 0.950 1_556 S
C450 C449 1.369 . S
C450 C451 1.392 . S
C450 H463 0.951 1_556 S
C451 C450 1.392 . S
C451 C453 1.384 . S
H452 C454 0.949 . S
C453 C451 1.384 . S
C453 C454 1.385 . S
C453 H455 0.950 . S
C454 C448 1.404 . S
C454 H452 0.949 . S
C454 C453 1.385 . S
H455 C453 0.950 . S
H456 C440 0.951 1_554 S
H457 C442 0.951 1_554 S
H458 C444 0.951 . S
H459 C445 0.950 . S
H460 C446 0.950 . S
H461 C447 0.988 . S
H462 C449 0.950 1_554 S
H463 C450 0.951 1_554 S
C464 C465 1.386 . S
C464 C466 1.383 . S
C464 H480 0.951 . S
C465 C464 1.386 . S
C465 C469 1.383 . S
C466 C464 1.383 . S
C466 C467 1.402 . S
C466 H481 0.951 . S
C467 C466 1.402 . S
C467 C468 1.375 . S
C467 C470 1.481 . S
C468 C467 1.375 . S
C468 C469 1.367 . S
C468 H482 0.951 . S
C469 C465 1.383 . S
C469 C468 1.367 . S
C469 H483 0.950 . S
C470 C467 1.481 . S
C470 C471 1.297 1_565 S
C470 H484 0.950 . S
C471 C470 1.297 1_545 S
C471 C472 1.479 . S
C471 H485 0.950 . S
C472 C471 1.479 . S
C472 C473 1.375 . S
C472 C478 1.404 . S
C473 C472 1.375 . S
C473 C474 1.369 . S
C473 H486 0.950 . S
C474 C473 1.369 . S
C474 C475 1.392 . S
C474 H487 0.951 . S
C475 C474 1.392 . S
C475 C477 1.384 . S
H476 C478 0.949 . S
C477 C475 1.384 . S
C477 C478 1.385 . S
C477 H479 0.950 . S
C478 C472 1.404 . S
C478 H476 0.949 . S
C478 C477 1.385 . S
H479 C477 0.950 . S
H480 C464 0.951 . S
H481 C466 0.951 . S
H482 C468 0.951 . S
H483 C469 0.950 . S
H484 C470 0.950 . S
H485 C471 0.950 . S
H486 C473 0.950 . S
H487 C474 0.951 . S
C105 C4 1.820 . S
C115 C23 1.824 . S
C129 C49 1.827 . S
C139 C36 1.820 . S
C153 C56 1.803 . S
C163 C75 1.815 . S
C177 C88 1.819 . S
C187 C95 1.812 . S
C201 C10 1.747 . S
C211 C30 1.683 . S
C225 C43 1.743 . S
C235 C17 1.680 . S
C249 C62 1.716 . S
C259 C82 1.724 . S
C273 C101 1.708 . S
C283 C69 1.707 . S
C297 C5 1.304 . S
C307 C57 1.339 . S
C321 C16 1.309 . S
C331 C68 1.320 . S
C345 C81 1.339 . S
C355 C29 1.279 . S
C369 C96 1.319 . S
C379 C42 1.369 . S
C393 C18 0.766 . S
C403 C3 0.757 . S
C417 C31 0.790 . S
C427 C44 0.825 . S
C441 C55 0.780 . S
C451 C70 0.830 . S
C465 C83 0.767 . S
C475 C94 0.793 . S
