# Generated by pormake.
# Topology lvt, (4)-cn, num edge types: 1
# Building blocks:
#     Node 0, Type 0, BuildingBlock: ESEHIV_clean_sbu_0, # of connection points: 4
#     Node 1, Type 0, BuildingBlock: ESEHIV_clean_sbu_0, # of connection points: 4
#     Node 2, Type 0, BuildingBlock: ESEHIV_clean_sbu_0, # of connection points: 4
#     Node 3, Type 0, BuildingBlock: ESEHIV_clean_sbu_0, # of connection points: 4
#     Node 4, Type 0, BuildingBlock: ESEHIV_clean_sbu_0, # of connection points: 4
#     Node 5, Type 0, BuildingBlock: ESEHIV_clean_sbu_0, # of connection points: 4
#     Node 6, Type 0, BuildingBlock: ESEHIV_clean_sbu_0, # of connection points: 4
#     Node 7, Type 0, BuildingBlock: ESEHIV_clean_sbu_0, # of connection points: 4
#     Edge 8, Type (0, 0), BuildingBlock: EZIPEK_clean_linker_0, # of connection points: 2
#     Edge 9, Type (0, 0), BuildingBlock: EZIPEK_clean_linker_0, # of connection points: 2
#     Edge 10, Type (0, 0), BuildingBlock: EZIPEK_clean_linker_0, # of connection points: 2
#     Edge 11, Type (0, 0), BuildingBlock: EZIPEK_clean_linker_0, # of connection points: 2
#     Edge 12, Type (0, 0), BuildingBlock: EZIPEK_clean_linker_0, # of connection points: 2
#     Edge 13, Type (0, 0), BuildingBlock: EZIPEK_clean_linker_0, # of connection points: 2
#     Edge 14, Type (0, 0), BuildingBlock: EZIPEK_clean_linker_0, # of connection points: 2
#     Edge 15, Type (0, 0), BuildingBlock: EZIPEK_clean_linker_0, # of connection points: 2
#     Edge 16, Type (0, 0), BuildingBlock: EZIPEK_clean_linker_0, # of connection points: 2
#     Edge 17, Type (0, 0), BuildingBlock: EZIPEK_clean_linker_0, # of connection points: 2
#     Edge 18, Type (0, 0), BuildingBlock: EZIPEK_clean_linker_0, # of connection points: 2
#     Edge 19, Type (0, 0), BuildingBlock: EZIPEK_clean_linker_0, # of connection points: 2
#     Edge 20, Type (0, 0), BuildingBlock: EZIPEK_clean_linker_0, # of connection points: 2
#     Edge 21, Type (0, 0), BuildingBlock: EZIPEK_clean_linker_0, # of connection points: 2
#     Edge 22, Type (0, 0), BuildingBlock: EZIPEK_clean_linker_0, # of connection points: 2
#     Edge 23, Type (0, 0), BuildingBlock: EZIPEK_clean_linker_0, # of connection points: 2
# Relax obj value: 0.004
# Max RMSD: 0.103
# Mean RMSD: 0.096
data_MOF--net-lvt--node1-ESEHIV_clean_sbu_0--edge1-EZIPEK_clean_linker_0
_symmetry_space_group_name_H-M    P1
_symmetry_Int_Tables_number       1
_symmetry_cell_setting            triclinic
loop_
_symmetry_equiv_pos_as_xyz
'x, y, z'
_cell_length_a     29.373195
_cell_length_b     29.123525
_cell_length_c     24.123308
_cell_angle_alpha  98.513025
_cell_angle_beta   89.766793
_cell_angle_gamma 97.187844
loop_
_atom_site_label
_atom_site_type_symbol
_atom_site_fract_x
_atom_site_fract_y
_atom_site_fract_z
_atom_type_partial_charge
Cu0 Cu 0.07088 0.03462 0.54196 0.0
N1 N 0.10479 0.98337 0.5274 0.0
N2 N 0.15096 0.93076 0.54314 0.0
C3 C 0.13113 0.96862 0.56535 0.0
C4 C 0.13688 0.92141 0.48903 0.0
C5 C 0.1084 0.95392 0.47943 0.0
O6 O 0.04395 0.03145 0.61576 0.0
C7 C 0.13025 0.09386 0.48706 0.0
O8 O 0.11864 0.05955 0.44589 0.0
H9 H 0.13571 0.9853 0.60846 0.0
H10 H 0.09145 0.95586 0.44029 0.0
N11 N 1.02096 0.0317 0.49217 0.0
N12 N 0.95898 0.0532 0.45371 0.0
C13 C 0.99792 0.06773 0.4845 0.0
C14 C 0.99577 0.9932 0.46497 0.0
C15 C 0.95758 1.00633 0.44131 0.0
C16 C 1.02085 0.99218 0.62092 0.0
O17 O 1.01838 0.95792 0.57862 0.0
H18 H 1.00831 0.10361 0.50331 0.0
H19 H 1.00348 0.9578 0.46454 0.0
O20 O 0.11298 0.09123 0.53532 0.0
H21 H 0.14635 0.89296 0.45885 0.0
H22 H 0.93018 0.98319 0.41809 0.0
Cu23 Cu 0.29542 0.74858 0.7696 0.0
N24 N 0.29594 0.78384 0.71012 0.0
N25 N 0.269 0.82714 0.65113 0.0
C26 C 0.26108 0.80701 0.69781 0.0
C27 C 0.31055 0.81648 0.63338 0.0
C28 C 0.32716 0.78989 0.66994 0.0
O29 O 0.23462 0.71148 0.76161 0.0
C30 C 0.3477 0.81681 0.8404 0.0
O31 O 0.37518 0.80895 0.79789 0.0
H32 H 0.23004 0.80835 0.72203 0.0
H33 H 0.35953 0.77573 0.66703 0.0
N34 N 0.34169 0.7088 0.7656 0.0
N35 N 0.39031 0.66325 0.79393 0.0
C36 C 0.35886 0.6925 0.80974 0.0
C37 C 0.3631 0.68897 0.72042 0.0
C38 C 0.39319 0.66089 0.73783 0.0
C39 C 0.22896 0.66705 0.74837 0.0
O40 O 0.26354 0.6435 0.75374 0.0
H41 H 0.3479 0.70121 0.85248 0.0
H42 H 0.35661 0.69369 0.67769 0.0
O43 O 0.30793 0.79314 0.83851 0.0
H44 H 0.32744 0.82696 0.59646 0.0
H45 H 0.41494 0.63978 0.7114 0.0
Cu46 Cu 0.51835 0.04243 1.00138 0.0
N47 N 0.54778 0.02771 0.93312 0.0
N48 N 0.59337 0.99017 0.87273 0.0
C49 C 0.57871 0.99695 0.92591 0.0
C50 C 0.57071 1.01745 0.84488 0.0
C51 C 0.54241 0.04067 0.88242 0.0
O52 O 0.47473 0.98682 1.00625 0.0
C53 C 0.60195 0.0859 0.04766 0.0
O54 O 0.60496 0.09855 0.99759 0.0
H55 H 0.59014 0.97963 0.9591 0.0
H56 H 0.51924 0.06474 0.87329 0.0
N57 N 0.48647 0.09498 1.00679 0.0
N58 N 0.44654 0.15002 0.05111 0.0
C59 C 0.45384 0.10457 0.04492 0.0
C60 C 0.49967 0.13558 0.98751 0.0
C61 C 0.47514 0.16954 1.01474 0.0
C62 C 0.44503 0.97743 0.96638 0.0
O63 O 0.44278 1.00814 0.93204 0.0
H64 H 0.43895 0.07991 0.07146 0.0
H65 H 0.52792 0.14113 0.95937 0.0
O66 O 0.56675 0.05859 0.0592 0.0
H67 H 0.57438 1.02026 0.80081 0.0
H68 H 0.48017 0.20641 1.01101 0.0
Cu69 Cu 0.30194 0.31626 0.29583 0.0
N70 N 0.29438 0.28344 0.35744 0.0
N71 N 0.26186 0.2357 0.41511 0.0
C72 C 0.25735 0.25333 0.36698 0.0
C73 C 0.30319 0.25533 0.4368 0.0
C74 C 0.32324 0.28473 0.40106 0.0
O75 O 0.24679 0.34668 0.28935 0.0
C76 C 0.35759 0.26172 0.22709 0.0
O77 O 0.38662 0.28016 0.26805 0.0
H78 H 0.22775 0.24435 0.33912 0.0
H79 H 0.35658 0.30541 0.40638 0.0
N80 N 0.34992 0.36595 0.30607 0.0
N81 N 0.39907 0.42488 0.28275 0.0
C82 C 0.37186 0.38478 0.26398 0.0
C83 C 0.36378 0.39531 0.35315 0.0
C84 C 0.39401 0.43187 0.33883 0.0
C85 C 0.23562 0.37185 0.33407 0.0
O86 O 0.25936 0.37317 0.38037 0.0
H87 H 0.36636 0.37054 0.22012 0.0
H88 H 0.35116 0.39171 0.39465 0.0
O89 O 0.31661 0.27235 0.2299 0.0
H90 H 0.31793 0.2484 0.47531 0.0
H91 H 0.41002 0.46188 0.36704 0.0
Cu92 Cu 0.77859 0.24594 0.2951 0.0
N93 N 0.72981 0.28215 0.29744 0.0
N94 N 0.68588 0.32859 0.26192 0.0
C95 C 0.72524 0.3092 0.25754 0.0
C96 C 0.66476 0.31378 0.30708 0.0
C97 C 0.69195 0.28481 0.32887 0.0
O98 O 0.76748 0.20497 0.22335 0.0
C99 C 0.83304 0.31866 0.35266 0.0
O100 O 0.79682 0.31364 0.3844 0.0
H101 H 0.74988 0.31348 0.22462 0.0
H102 H 0.68395 0.26595 0.36379 0.0
N103 N 0.78386 0.2076 0.3504 0.0
N104 N 0.81911 0.15979 0.39576 0.0
C105 C 0.82378 0.19145 0.35994 0.0
C106 C 0.75273 0.18577 0.38202 0.0
C107 C 0.77443 0.15605 0.40994 0.0
C108 C 0.72905 0.17869 0.22179 0.0
O109 O 0.70507 0.17859 0.26779 0.0
H110 H 0.85537 0.20114 0.33887 0.0
H111 H 0.71658 0.18961 0.38298 0.0
O112 O 0.83377 0.29125 0.30616 0.0
H113 H 0.63153 0.32208 0.322 0.0
H114 H 0.75843 0.13247 0.4371 0.0
Cu115 Cu 0.80203 0.81683 0.79979 0.0
N116 N 0.79508 0.78608 0.86308 0.0
N117 N 0.76399 0.73904 0.92233 0.0
C118 C 0.7586 0.75574 0.87375 0.0
C119 C 0.80534 0.75953 0.94312 0.0
C120 C 0.82456 0.78833 0.90632 0.0
O121 O 0.74558 0.84401 0.79 0.0
C122 C 0.85892 0.76226 0.73295 0.0
O123 O 0.8882 0.78281 0.77273 0.0
H124 H 0.72891 0.74567 0.84618 0.0
H125 H 0.85802 0.8088 0.91042 0.0
N126 N 0.84951 0.86715 0.80869 0.0
N127 N 0.90465 0.92055 0.78516 0.0
C128 C 0.87265 0.88434 0.76633 0.0
C129 C 0.86731 0.89398 0.85588 0.0
C130 C 0.90168 0.92686 0.84143 0.0
C131 C 0.73468 0.87287 0.83153 0.0
O132 O 0.76067 0.88122 0.87692 0.0
H133 H 0.86673 0.87006 0.72254 0.0
H134 H 0.85619 0.89 0.89786 0.0
O135 O 0.81751 0.77151 0.73598 0.0
H136 H 0.82084 0.75323 0.98149 0.0
H137 H 0.92311 0.95295 0.8698 0.0
Cu138 Cu 0.57103 0.54192 0.05211 0.0
N139 N 0.53204 0.53585 0.98903 0.0
N140 N 0.48824 0.55747 0.92409 0.0
C141 C 0.51126 0.57082 0.97334 0.0
C142 C 0.49433 0.51229 0.90832 0.0
C143 C 0.5213 0.49899 0.94851 0.0
O144 O 0.61673 0.59593 0.04626 0.0
C145 C 0.50397 0.51172 0.12156 0.0
O146 O 0.49982 0.4776 0.07899 0.0
H147 H 0.51376 0.60569 0.99692 0.0
H148 H 0.53272 0.46505 0.94773 0.0
N149 N 0.601 0.48894 0.05696 0.0
N150 N 0.62993 0.43418 0.09745 0.0
C151 C 0.61078 0.47431 0.10566 0.0
C152 C 0.6151 0.45697 1.01646 0.0
C153 C 0.63289 0.42303 0.0414 0.0
C154 C 0.63808 0.59529 0.99998 0.0
O155 O 0.63007 0.55827 0.9614 0.0
H156 H 0.60373 0.49247 0.14645 0.0
H157 H 0.6123 0.45793 0.97199 0.0
O158 O 0.53311 0.54763 0.11878 0.0
H159 H 0.4806 0.4907 0.8702 0.0
H160 H 0.64653 0.39239 0.02015 0.0
Cu161 Cu 1.02253 0.545 0.50575 0.0
N162 N 0.98842 0.59616 0.51285 0.0
N163 N 0.94694 0.64976 0.55711 0.0
C164 C 0.95765 0.60555 0.5534 0.0
C165 C 0.97133 0.66861 0.51669 0.0
C166 C 0.99675 0.63552 0.48942 0.0
O167 O 0.06194 0.55359 0.57267 0.0
C168 C 0.95275 0.48224 0.45178 0.0
O169 O 0.94708 0.51967 0.42945 0.0
H170 H 0.94634 0.58187 0.58274 0.0
H171 H 1.02231 0.64119 0.45797 0.0
N172 N 0.06131 0.54057 0.44401 0.0
N173 N 0.10913 0.50492 0.3849 0.0
C174 C 0.0928 0.51037 0.4374 0.0
C175 C 0.05741 0.55452 0.39358 0.0
C176 C 0.08723 0.53269 0.35697 0.0
C177 C 0.08749 0.59283 0.58174 0.0
O178 O 0.08562 0.62276 0.54636 0.0
H179 H 0.10137 0.49036 0.46946 0.0
H180 H 0.03238 0.57615 0.38296 0.0
O181 O 0.98214 0.48605 0.49151 0.0
H182 H 0.9728 0.70466 0.50978 0.0
H183 H 0.09078 0.535 0.31276 0.0
C184 C 0.21011 0.12171 0.45959 0.0
C185 C 0.16595 0.13268 0.47683 0.0
C186 C 0.18818 0.21395 0.4609 0.0
C187 C 0.22996 0.20129 0.43738 0.0
N188 N 0.27869 0.14222 0.40755 0.0
N189 N 0.11101 0.18817 0.4899 0.0
C190 C 0.24052 0.15495 0.43526 0.0
C191 C 0.15454 0.17871 0.47696 0.0
N192 N 0.22331 0.07978 0.46772 0.0
N193 N 0.18126 0.25994 0.46871 0.0
H194 H 0.08584 0.16354 0.50267 0.0
H195 H 0.09893 0.21939 0.48467 0.0
H196 H 0.20537 0.28617 0.45714 0.0
H197 H 0.15362 0.27259 0.49045 0.0
H198 H 0.25653 0.0714 0.46109 0.0
H199 H 0.20217 0.055 0.48634 0.0
H200 H 0.28596 0.10781 0.39917 0.0
H201 H 0.30119 0.16563 0.3886 0.0
C202 C 0.22487 0.92602 0.59032 0.0
C203 C 0.18039 0.90499 0.57152 0.0
C204 C 0.19584 0.83135 0.60178 0.0
C205 C 0.23882 0.85353 0.62475 0.0
N206 N 0.2907 0.92413 0.65017 0.0
N207 N 0.12004 0.84085 0.56881 0.0
C208 C 0.25236 0.90155 0.62156 0.0
C209 C 0.16488 0.85848 0.57996 0.0
N210 N 0.2414 0.96871 0.57647 0.0
N211 N 0.18546 0.78401 0.59876 0.0
H212 H 0.0965 0.86033 0.554 0.0
H213 H 0.10531 0.80883 0.57907 0.0
H214 H 0.20794 0.76309 0.6129 0.0
H215 H 0.15661 0.76502 0.57771 0.0
H216 H 0.27519 0.98405 0.58406 0.0
H217 H 0.22231 0.98699 0.55291 0.0
H218 H 0.30017 0.96014 0.65407 0.0
H219 H 0.31077 0.90734 0.6744 0.0
C220 C 0.43634 0.8893 0.93905 0.0
C221 C 0.41602 0.93124 0.95307 0.0
C222 C 0.34424 0.89306 0.90549 0.0
C223 C 0.36531 0.85194 0.88937 0.0
N224 N 0.42438 0.80557 0.90714 0.0
N225 N 0.34707 0.96791 0.9661 0.0
C226 C 0.40899 0.84834 0.91204 0.0
C227 C 0.36857 0.93114 0.94198 0.0
N228 N 0.48234 0.88914 0.94718 0.0
N229 N 0.30263 0.89726 0.88298 0.0
H230 H 0.36425 0.99583 0.9934 0.0
H231 H 0.31175 0.96841 0.96369 0.0
H232 H 0.28345 0.87015 0.85675 0.0
H233 H 0.28832 0.92854 0.88767 0.0
H234 H 0.49979 0.86123 0.93098 0.0
H235 H 0.50397 0.91784 0.96695 0.0
H236 H 0.45413 0.79969 0.92691 0.0
H237 H 0.40465 0.77505 0.88812 0.0
C238 C 0.40157 0.19465 0.19354 0.0
C239 C 0.37375 0.22816 0.18007 0.0
C240 C 0.38689 0.20208 0.08006 0.0
C241 C 0.42064 0.17489 0.09456 0.0
N242 N 0.46756 0.15499 0.16715 0.0
N243 N 0.34541 0.26831 0.1089 0.0
C244 C 0.4299 0.17356 0.1519 0.0
C245 C 0.36743 0.2329 0.12278 0.0
N246 N 0.40032 0.18216 0.24597 0.0
N247 N 0.37289 0.19783 0.02548 0.0
H248 H 0.33175 0.29247 0.13845 0.0
H249 H 0.3443 0.27623 0.06824 0.0
H250 H 0.38591 0.1749 0.99374 0.0
H251 H 0.3454 0.21341 1.01283 0.0
H252 H 0.41713 0.15507 0.25642 0.0
H253 H 0.37819 0.19496 0.2768 0.0
H254 H 0.478 0.15709 0.20879 0.0
H255 H 0.49139 0.14267 0.13838 0.0
C256 C 1.01055 0.94763 0.70162 0.0
C257 C 0.99682 0.98311 0.67325 0.0
C258 C 0.92683 0.98413 0.72935 0.0
C259 C 0.93771 0.94446 0.75161 0.0
N260 N 0.98828 0.88703 0.75925 0.0
N261 N 0.94218 0.03558 0.65893 0.0
C262 C 0.97946 0.92617 0.73832 0.0
C263 C 0.95539 1.0022 0.68756 0.0
N264 N 0.05362 0.93495 0.69358 0.0
N265 N 0.88886 1.00401 0.74816 0.0
H266 H 0.96294 0.0505 0.62949 0.0
H267 H 0.91008 0.04725 0.66244 0.0
H268 H 0.86704 0.99038 0.77763 0.0
H269 H 0.88057 0.0354 0.73774 0.0
H270 H 0.06749 0.91205 0.71609 0.0
H271 H 0.07719 0.95075 0.66757 0.0
H272 H 1.01546 0.86841 0.74657 0.0
H273 H 0.96659 0.87151 0.78746 0.0
C274 C 0.89997 0.10634 0.48227 0.0
C275 C 0.92426 0.08101 0.4395 0.0
C276 C 0.87449 0.10283 0.36863 0.0
C277 C 0.85389 0.13246 0.41085 0.0
N278 N 0.85287 0.16892 0.50693 0.0
N279 N 0.94041 0.06262 0.34149 0.0
C280 C 0.86829 0.13603 0.46752 0.0
C281 C 0.91309 0.0814 0.38246 0.0
N282 N 0.90553 0.10032 0.53675 0.0
N283 N 0.85591 0.0936 0.31577 0.0
H284 H 0.96976 0.04812 0.35045 0.0
H285 H 0.9366 0.06569 0.29933 0.0
H286 H 0.82641 0.10701 0.30499 0.0
H287 H 0.8668 0.06891 0.28445 0.0
H288 H 0.88562 0.11441 0.56922 0.0
H289 H 0.92685 0.07731 0.54859 0.0
H290 H 0.86554 0.17637 0.54798 0.0
H291 H 0.83049 0.19175 0.49711 0.0
C292 C 0.69537 0.10434 0.16213 0.0
C293 C 0.70639 0.15379 0.16887 0.0
C294 C 0.64647 0.15819 0.10022 0.0
C295 C 0.63687 0.10854 0.09111 0.0
N296 N 0.6585 0.03384 0.10501 0.0
N297 N 0.70068 0.22621 0.13397 0.0
C298 C 0.66315 0.08136 0.11968 0.0
C299 C 0.68484 0.1801 0.13413 0.0
N300 N 0.71515 0.0795 0.19719 0.0
N301 N 0.61725 0.18466 0.07924 0.0
H302 H 0.72931 0.24296 0.15733 0.0
H303 H 0.68884 0.24632 0.10611 0.0
H304 H 0.58699 0.17026 0.05747 0.0
H305 H 0.62025 0.22098 0.08839 0.0
H306 H 0.70457 0.04433 0.19938 0.0
H307 H 0.74106 0.09488 0.22602 0.0
H308 H 0.67995 1.01253 0.12023 0.0
H309 H 0.63546 1.01595 0.07405 0.0
C310 C 0.61511 0.9109 0.84456 0.0
C311 C 0.62699 0.9601 0.85156 0.0
C312 C 0.70659 0.94966 0.82738 0.0
C313 C 0.69612 0.90091 0.82851 0.0
N314 N 0.64114 0.83435 0.83942 0.0
N315 N 0.68387 0.02719 0.85367 0.0
C316 C 0.65036 0.88112 0.83658 0.0
C317 C 0.67261 0.97974 0.84321 0.0
N318 N 0.5699 0.89303 0.84543 0.0
N319 N 0.74911 0.96698 0.81092 0.0
H320 H 0.65969 0.05001 0.86541 0.0
H321 H 0.71742 0.0438 0.85456 0.0
H322 H 0.77453 0.94562 0.79884 0.0
H323 H 0.75787 1.00149 0.80433 0.0
H324 H 0.55799 0.85753 0.83616 0.0
H325 H 0.54381 0.91447 0.8512 0.0
H326 H 0.60969 0.81848 0.85152 0.0
H327 H 0.66596 0.81154 0.83219 0.0
C328 C 0.71736 0.62641 0.97391 0.0
C329 C 0.67191 0.63506 0.98801 0.0
C330 C 0.68989 0.71508 0.96591 0.0
C331 C 0.7332 0.70428 0.94552 0.0
N332 N 0.78557 0.64752 0.92169 0.0
N333 N 0.61271 0.68585 0.99088 0.0
C334 C 0.74636 0.6594 0.94756 0.0
C335 C 0.6576 0.67911 0.98273 0.0
N336 N 0.73307 0.58696 0.98678 0.0
N337 N 0.68016 0.7601 0.97024 0.0
H338 H 0.58814 0.66065 1.0036 0.0
H339 H 0.59907 0.71505 0.98113 0.0
H340 H 0.70333 0.78701 0.95848 0.0
H341 H 0.65106 0.7715 0.98979 0.0
H342 H 0.76717 0.58081 0.98249 0.0
H343 H 0.71298 0.56249 1.00701 0.0
H344 H 0.79475 0.61377 0.91656 0.0
H345 H 0.80681 0.67043 0.90058 0.0
C346 C 0.69386 0.40094 0.21831 0.0
C347 C 0.66948 0.35652 0.22309 0.0
C348 C 0.61593 0.36603 0.14867 0.0
C349 C 0.64309 0.4081 0.14014 0.0
N350 N 0.7106 0.4634 0.16182 0.0
N351 N 0.61138 0.29335 0.18765 0.0
C352 C 0.68277 0.42505 0.17381 0.0
C353 C 0.63137 0.33819 0.18703 0.0
N354 N 0.72687 0.42043 0.25745 0.0
N355 N 0.57483 0.35341 0.1209 0.0
H356 H 0.62292 0.27159 0.21375 0.0
H357 H 0.58589 0.2764 0.15933 0.0
H358 H 0.56284 0.37331 0.09281 0.0
H359 H 0.55106 0.32566 0.12906 0.0
H360 H 0.74333 0.45447 0.25971 0.0
H361 H 0.73497 0.40374 0.29085 0.0
H362 H 0.74247 0.47515 0.18095 0.0
H363 H 0.70325 0.48145 0.12934 0.0
C364 C 0.88452 0.35967 0.4317 0.0
C365 C 0.87194 0.35482 0.37408 0.0
C366 C 0.92506 0.42527 0.3662 0.0
C367 C 0.92872 0.43582 0.42572 0.0
N368 N 0.90649 0.41387 0.51585 0.0
N369 N 0.87721 0.38725 0.28721 0.0
C370 C 0.90748 0.40299 0.45883 0.0
C371 C 0.89175 0.38843 0.34117 0.0
N372 N 0.875 0.32259 0.46037 0.0
N373 N 0.9543 0.4494 0.33338 0.0
H374 H 0.85224 0.36173 0.26721 0.0
H375 H 0.88721 0.41418 0.26397 0.0
H376 H 0.98104 0.47462 0.34996 0.0
H377 H 0.95553 0.44026 0.29001 0.0
H378 H 0.88682 0.323 0.50115 0.0
H379 H 0.86004 0.28973 0.44107 0.0
H380 H 0.88728 0.39275 0.54102 0.0
H381 H 0.92088 0.44591 0.53769 0.0
C382 C 0.86595 0.73013 0.62911 0.0
C383 C 0.87537 0.72838 0.68659 0.0
C384 C 0.93395 0.67682 0.658 0.0
C385 C 0.92152 0.67471 0.6009 0.0
N386 N 0.86807 0.69078 0.53324 0.0
N387 N 0.90807 0.68728 0.75362 0.0
C388 C 0.88501 0.69867 0.58684 0.0
C389 C 0.90607 0.69758 0.70032 0.0
N390 N 0.84141 0.7634 0.61431 0.0
N391 N 0.97403 0.66198 0.6721 0.0
H392 H 0.88623 0.69956 0.7851 0.0
H393 H 0.92739 0.66216 0.76444 0.0
H394 H 0.99756 0.65062 0.64236 0.0
H395 H 0.98642 0.66659 0.71324 0.0
H396 H 0.83784 0.76899 0.57296 0.0
H397 H 0.82831 0.78839 0.64327 0.0
H398 H 0.83875 0.70397 0.52151 0.0
H399 H 0.88065 0.66712 0.50195 0.0
C400 C 0.42797 0.4965 0.16679 0.0
C401 C 0.47646 0.50498 0.17224 0.0
C402 C 0.47343 0.46471 0.25463 0.0
C403 C 0.42501 0.45557 0.24886 0.0
N404 N 0.35547 0.47411 0.21016 0.0
N405 N 0.54292 0.51228 0.23247 0.0
C406 C 0.40202 0.47518 0.20823 0.0
C407 C 0.49839 0.49428 0.22009 0.0
N408 N 0.40696 0.50781 0.12112 0.0
N409 N 0.49586 0.44271 0.29041 0.0
H410 H 0.56097 0.53615 0.20969 0.0
H411 H 0.5598 0.50822 0.269 0.0
H412 H 0.4788 0.4195 0.31485 0.0
H413 H 0.53145 0.44408 0.29195 0.0
H414 H 0.37245 0.49737 0.11081 0.0
H415 H 0.42484 0.52639 0.09227 0.0
H416 H 0.33679 0.49118 0.18479 0.0
H417 H 0.33602 0.45977 0.24107 0.0
C418 C 0.46185 0.65189 0.8412 0.0
C419 C 0.41455 0.63799 0.82915 0.0
C420 C 0.41504 0.575 0.88645 0.0
C421 C 0.46327 0.58576 0.89356 0.0
N422 N 0.53392 0.63048 0.87203 0.0
N423 N 0.34688 0.58322 0.83393 0.0
C424 C 0.48707 0.62338 0.86963 0.0
C425 C 0.39128 0.59873 0.85024 0.0
N426 N 0.48223 0.69298 0.82638 0.0
N427 N 0.3919 0.54305 0.91586 0.0
H428 H 0.32884 0.59983 0.80727 0.0
H429 H 0.32918 0.55204 0.84311 0.0
H430 H 0.40845 0.52594 0.94344 0.0
H431 H 0.35626 0.53661 0.91685 0.0
H432 H 0.51547 0.70773 0.83854 0.0
H433 H 0.46431 0.71435 0.8057 0.0
H434 H 0.55369 0.65449 0.85103 0.0
H435 H 0.55329 0.60955 0.89142 0.0
C436 C 0.20266 0.63939 0.64933 0.0
C437 C 0.19201 0.64545 0.70724 0.0
C438 C 0.11217 0.61147 0.68407 0.0
C439 C 0.12366 0.60373 0.62642 0.0
N440 N 0.18205 0.59861 0.55623 0.0
N441 N 0.13914 0.6313 0.78105 0.0
C442 C 0.16966 0.61409 0.6098 0.0
C443 C 0.14746 0.62956 0.72507 0.0
N444 N 0.24371 0.65952 0.63168 0.0
N445 N 0.06738 0.60342 0.69934 0.0
H446 H 0.164 0.64542 0.81174 0.0
H447 H 0.10889 0.61608 0.797 0.0
H448 H 0.04116 0.58867 0.67076 0.0
H449 H 0.05579 0.61347 0.73961 0.0
H450 H 0.25112 0.66091 0.58966 0.0
H451 H 0.26893 0.67873 0.65899 0.0
H452 H 0.21595 0.60097 0.54299 0.0
H453 H 0.15891 0.57883 0.52655 0.0
C454 C 0.15392 0.38988 0.3381 0.0
C455 C 0.20139 0.40534 0.33396 0.0
C456 C 0.18684 0.48719 0.35778 0.0
C457 C 0.13959 0.4718 0.36248 0.0
N458 N 0.0762 0.41064 0.34776 0.0
N459 N 0.26223 0.46798 0.32837 0.0
C460 C 0.12254 0.42366 0.34939 0.0
C461 C 0.2175 0.45391 0.33996 0.0
N462 N 0.13931 0.34304 0.33396 0.0
N463 N 0.20247 0.5335 0.37316 0.0
H464 H 0.28538 0.44428 0.31554 0.0
H465 H 0.27551 0.50262 0.32693 0.0
H466 H 0.18049 0.5585 0.38568 0.0
H467 H 0.23705 0.54684 0.37684 0.0
H468 H 0.1061 0.32931 0.34275 0.0
H469 H 0.16131 0.31762 0.324 0.0
H470 H 0.06075 0.37675 0.33396 0.0
H471 H 0.05287 0.43487 0.35654 0.0
loop_
_geom_bond_atom_site_label_1
_geom_bond_atom_site_label_2
_geom_bond_distance
_geom_bond_site_symmetry_2
_ccdc_geom_bond_type
Cu0 N1 2.002 . S
Cu0 O6 1.974 1_445 S
Cu0 N11 1.985 1_455 S
Cu0 O20 1.959 . S
N1 Cu0 2.002 . S
N1 C3 1.258 1_545 S
N1 C5 1.391 . S
N2 C3 1.358 . S
N2 C4 1.400 . S
C3 N1 1.258 1_565 S
C3 N2 1.358 . S
C3 H9 0.930 . S
C4 N2 1.400 . S
C4 C5 1.351 1_565 S
C4 H21 0.930 1_565 S
C5 N1 1.391 . S
C5 C4 1.351 1_545 S
C5 H10 0.930 . S
O6 Cu0 1.974 1_665 S
O6 C16 1.282 . S
C7 O8 1.261 . S
C7 O20 1.251 . S
O8 C7 1.261 . S
H9 C3 0.930 . S
H10 C5 0.930 . S
N11 Cu0 1.985 1_655 S
N11 C13 1.335 . S
N11 C14 1.390 . S
N12 C13 1.345 . S
N12 C15 1.336 . S
C13 N11 1.335 . S
C13 N12 1.345 . S
C13 H18 0.930 1_655 S
C14 N11 1.390 . S
C14 C15 1.346 . S
C14 H19 0.930 1_545 S
C15 N12 1.336 . S
C15 C14 1.346 . S
C15 H22 0.929 . S
C16 O6 1.282 . S
C16 O17 1.216 . S
O17 C16 1.216 . S
H18 C13 0.930 1_455 S
H19 C14 0.930 1_565 S
O20 Cu0 1.959 . S
O20 C7 1.251 . S
H21 C4 0.930 1_545 S
H22 C15 0.929 . S
Cu23 N24 1.999 . S
Cu23 O29 1.974 . S
Cu23 N34 1.985 . S
Cu23 O43 1.959 . S
N24 Cu23 1.999 . S
N24 C26 1.263 . S
N24 C28 1.389 . S
N25 C26 1.358 . S
N25 C27 1.400 . S
C26 N24 1.263 . S
C26 N25 1.358 . S
C26 H32 0.930 . S
C27 N25 1.400 . S
C27 C28 1.351 . S
C27 H44 0.930 . S
C28 N24 1.389 . S
C28 C27 1.351 . S
C28 H33 0.930 . S
O29 Cu23 1.974 . S
O29 C39 1.282 . S
C30 O31 1.261 . S
C30 O43 1.251 . S
O31 C30 1.261 . S
H32 C26 0.930 . S
H33 C28 0.930 . S
N34 Cu23 1.985 . S
N34 C36 1.335 . S
N34 C37 1.390 . S
N35 C36 1.345 . S
N35 C38 1.336 . S
C36 N34 1.335 . S
C36 N35 1.345 . S
C36 H41 0.930 . S
C37 N34 1.390 . S
C37 C38 1.346 . S
C37 H42 0.930 . S
C38 N35 1.336 . S
C38 C37 1.346 . S
C38 H45 0.929 . S
C39 O29 1.282 . S
C39 O40 1.216 . S
O40 C39 1.216 . S
H41 C36 0.930 . S
H42 C37 0.930 . S
O43 Cu23 1.959 . S
O43 C30 1.251 . S
H44 C27 0.930 . S
H45 C38 0.929 . S
Cu46 N47 1.997 1_554 S
Cu46 O52 1.974 1_554 S
Cu46 N57 1.985 1_565 S
Cu46 O66 1.959 1_565 S
N47 Cu46 1.997 1_556 S
N47 C49 1.268 . S
N47 C51 1.386 1_556 S
N48 C49 1.358 . S
N48 C50 1.400 . S
C49 N47 1.268 . S
C49 N48 1.358 . S
C49 H55 0.930 . S
C50 N48 1.400 . S
C50 C51 1.351 1_556 S
C50 H67 0.930 1_556 S
C51 N47 1.386 1_554 S
C51 C50 1.351 1_554 S
C51 H56 0.930 . S
O52 Cu46 1.974 1_556 S
O52 C62 1.282 . S
C53 O54 1.261 . S
C53 O66 1.251 . S
O54 C53 1.261 . S
H55 C49 0.930 . S
H56 C51 0.930 . S
N57 Cu46 1.985 1_545 S
N57 C59 1.335 . S
N57 C60 1.390 . S
N58 C59 1.345 . S
N58 C61 1.336 . S
C59 N57 1.335 . S
C59 N58 1.345 . S
C59 H64 0.930 . S
C60 N57 1.390 . S
C60 C61 1.346 . S
C60 H65 0.930 1_554 S
C61 N58 1.336 . S
C61 C60 1.346 . S
C61 H68 0.929 . S
C62 O52 1.282 . S
C62 O63 1.216 . S
O63 C62 1.216 . S
H64 C59 0.930 . S
H65 C60 0.930 1_556 S
O66 Cu46 1.959 1_545 S
O66 C53 1.251 . S
H67 C50 0.930 1_554 S
H68 C61 0.929 . S
Cu69 N70 1.999 . S
Cu69 O75 1.974 . S
Cu69 N80 1.985 . S
Cu69 O89 1.959 . S
N70 Cu69 1.999 . S
N70 C72 1.263 . S
N70 C74 1.389 . S
N71 C72 1.358 . S
N71 C73 1.400 . S
C72 N70 1.263 . S
C72 N71 1.358 . S
C72 H78 0.930 . S
C73 N71 1.400 . S
C73 C74 1.351 . S
C73 H90 0.930 . S
C74 N70 1.389 . S
C74 C73 1.351 . S
C74 H79 0.930 . S
O75 Cu69 1.974 . S
O75 C85 1.282 . S
C76 O77 1.261 . S
C76 O89 1.251 . S
O77 C76 1.261 . S
H78 C72 0.930 . S
H79 C74 0.930 . S
N80 Cu69 1.985 . S
N80 C82 1.335 . S
N80 C83 1.390 . S
N81 C82 1.345 . S
N81 C84 1.336 . S
C82 N80 1.335 . S
C82 N81 1.345 . S
C82 H87 0.930 . S
C83 N80 1.390 . S
C83 C84 1.346 . S
C83 H88 0.930 . S
C84 N81 1.336 . S
C84 C83 1.346 . S
C84 H91 0.929 . S
C85 O75 1.282 . S
C85 O86 1.216 . S
O86 C85 1.216 . S
H87 C82 0.930 . S
H88 C83 0.930 . S
O89 Cu69 1.959 . S
O89 C76 1.251 . S
H90 C73 0.930 . S
H91 C84 0.929 . S
Cu92 N93 1.999 . S
Cu92 O98 1.974 . S
Cu92 N103 1.985 . S
Cu92 O112 1.959 . S
N93 Cu92 1.999 . S
N93 C95 1.263 . S
N93 C97 1.389 . S
N94 C95 1.358 . S
N94 C96 1.400 . S
C95 N93 1.263 . S
C95 N94 1.358 . S
C95 H101 0.930 . S
C96 N94 1.400 . S
C96 C97 1.351 . S
C96 H113 0.930 . S
C97 N93 1.389 . S
C97 C96 1.351 . S
C97 H102 0.930 . S
O98 Cu92 1.974 . S
O98 C108 1.282 . S
C99 O100 1.261 . S
C99 O112 1.251 . S
O100 C99 1.261 . S
H101 C95 0.930 . S
H102 C97 0.930 . S
N103 Cu92 1.985 . S
N103 C105 1.335 . S
N103 C106 1.390 . S
N104 C105 1.345 . S
N104 C107 1.336 . S
C105 N103 1.335 . S
C105 N104 1.345 . S
C105 H110 0.930 . S
C106 N103 1.390 . S
C106 C107 1.346 . S
C106 H111 0.930 . S
C107 N104 1.336 . S
C107 C106 1.346 . S
C107 H114 0.929 . S
C108 O98 1.282 . S
C108 O109 1.216 . S
O109 C108 1.216 . S
H110 C105 0.930 . S
H111 C106 0.930 . S
O112 Cu92 1.959 . S
O112 C99 1.251 . S
H113 C96 0.930 . S
H114 C107 0.929 . S
Cu115 N116 1.999 . S
Cu115 O121 1.974 . S
Cu115 N126 1.985 . S
Cu115 O135 1.959 . S
N116 Cu115 1.999 . S
N116 C118 1.263 . S
N116 C120 1.389 . S
N117 C118 1.358 . S
N117 C119 1.400 . S
C118 N116 1.263 . S
C118 N117 1.358 . S
C118 H124 0.930 . S
C119 N117 1.400 . S
C119 C120 1.351 . S
C119 H136 0.930 . S
C120 N116 1.389 . S
C120 C119 1.351 . S
C120 H125 0.930 . S
O121 Cu115 1.974 . S
O121 C131 1.282 . S
C122 O123 1.261 . S
C122 O135 1.251 . S
O123 C122 1.261 . S
H124 C118 0.930 . S
H125 C120 0.930 . S
N126 Cu115 1.985 . S
N126 C128 1.335 . S
N126 C129 1.390 . S
N127 C128 1.345 . S
N127 C130 1.336 . S
C128 N126 1.335 . S
C128 N127 1.345 . S
C128 H133 0.930 . S
C129 N126 1.390 . S
C129 C130 1.346 . S
C129 H134 0.930 . S
C130 N127 1.336 . S
C130 C129 1.346 . S
C130 H137 0.929 . S
C131 O121 1.282 . S
C131 O132 1.216 . S
O132 C131 1.216 . S
H133 C128 0.930 . S
H134 C129 0.930 . S
O135 Cu115 1.959 . S
O135 C122 1.251 . S
H136 C119 0.930 . S
H137 C130 0.929 . S
Cu138 N139 1.999 . S
Cu138 O144 1.974 1_554 S
Cu138 N149 1.985 . S
Cu138 O158 1.959 . S
N139 Cu138 1.999 . S
N139 C141 1.263 1_554 S
N139 C143 1.389 . S
N140 C141 1.358 . S
N140 C142 1.400 1_556 S
C141 N139 1.263 1_556 S
C141 N140 1.358 . S
C141 H147 0.930 . S
C142 N140 1.400 1_554 S
C142 C143 1.351 . S
C142 H159 0.930 . S
C143 N139 1.389 . S
C143 C142 1.351 . S
C143 H148 0.930 . S
O144 Cu138 1.974 1_556 S
O144 C154 1.282 . S
C145 O146 1.261 1_554 S
C145 O158 1.251 . S
O146 C145 1.261 1_556 S
H147 C141 0.930 . S
H148 C143 0.930 . S
N149 Cu138 1.985 . S
N149 C151 1.335 . S
N149 C152 1.390 . S
N150 C151 1.345 . S
N150 C153 1.336 . S
C151 N149 1.335 . S
C151 N150 1.345 . S
C151 H156 0.930 . S
C152 N149 1.390 . S
C152 C153 1.346 . S
C152 H157 0.930 1_554 S
C153 N150 1.336 . S
C153 C152 1.346 . S
C153 H160 0.929 . S
C154 O144 1.282 . S
C154 O155 1.216 . S
O155 C154 1.216 . S
H156 C151 0.930 . S
H157 C152 0.930 1_556 S
O158 Cu138 1.959 . S
O158 C145 1.251 . S
H159 C142 0.930 . S
H160 C153 0.929 . S
Cu161 N162 1.999 1_455 S
Cu161 O167 1.974 . S
Cu161 N172 1.985 . S
Cu161 O181 1.959 1_455 S
N162 Cu161 1.999 1_655 S
N162 C164 1.263 . S
N162 C166 1.389 . S
N163 C164 1.358 . S
N163 C165 1.400 . S
C164 N162 1.263 . S
C164 N163 1.358 . S
C164 H170 0.930 . S
C165 N163 1.400 . S
C165 C166 1.351 . S
C165 H182 0.930 . S
C166 N162 1.389 . S
C166 C165 1.351 . S
C166 H171 0.930 . S
O167 Cu161 1.974 . S
O167 C177 1.282 . S
C168 O169 1.261 . S
C168 O181 1.251 . S
O169 C168 1.261 . S
H170 C164 0.930 . S
H171 C166 0.930 . S
N172 Cu161 1.985 . S
N172 C174 1.335 . S
N172 C175 1.390 . S
N173 C174 1.345 . S
N173 C176 1.336 . S
C174 N172 1.335 . S
C174 N173 1.345 . S
C174 H179 0.930 . S
C175 N172 1.390 . S
C175 C176 1.346 . S
C175 H180 0.930 . S
C176 N173 1.336 . S
C176 C175 1.346 . S
C176 H183 0.929 . S
C177 O167 1.282 . S
C177 O178 1.216 . S
O178 C177 1.216 . S
H179 C174 0.930 . S
H180 C175 0.930 . S
O181 Cu161 1.959 1_655 S
O181 C168 1.251 . S
H182 C165 0.930 . S
H183 C176 0.929 . S
C184 C185 1.363 . S
C184 C190 1.379 . S
C184 N192 1.356 . S
C185 C184 1.363 . S
C185 C191 1.363 . S
C186 C187 1.363 . S
C186 C191 1.379 . S
C186 N193 1.356 . S
C187 C186 1.363 . S
C187 C190 1.363 . S
N188 C190 1.356 . S
N188 H200 0.984 . S
N188 H201 0.985 . S
N189 C191 1.356 . S
N189 H194 0.984 . S
N189 H195 0.985 . S
C190 C184 1.379 . S
C190 C187 1.363 . S
C190 N188 1.356 . S
C191 C185 1.363 . S
C191 C186 1.379 . S
C191 N189 1.356 . S
N192 C184 1.356 . S
N192 H198 0.984 . S
N192 H199 0.984 . S
N193 C186 1.356 . S
N193 H196 0.984 . S
N193 H197 0.985 . S
H194 N189 0.984 . S
H195 N189 0.985 . S
H196 N193 0.984 . S
H197 N193 0.985 . S
H198 N192 0.984 . S
H199 N192 0.984 . S
H200 N188 0.984 . S
H201 N188 0.985 . S
C202 C203 1.363 . S
C202 C208 1.379 . S
C202 N210 1.356 . S
C203 C202 1.363 . S
C203 C209 1.363 . S
C204 C205 1.363 . S
C204 C209 1.379 . S
C204 N211 1.356 . S
C205 C204 1.363 . S
C205 C208 1.363 . S
N206 C208 1.356 . S
N206 H218 0.984 . S
N206 H219 0.985 . S
N207 C209 1.356 . S
N207 H212 0.984 . S
N207 H213 0.985 . S
C208 C202 1.379 . S
C208 C205 1.363 . S
C208 N206 1.356 . S
C209 C203 1.363 . S
C209 C204 1.379 . S
C209 N207 1.356 . S
N210 C202 1.356 . S
N210 H216 0.980 1_565 S
N210 H217 0.984 . S
N211 C204 1.356 . S
N211 H214 0.984 . S
N211 H215 0.985 . S
H212 N207 0.984 . S
H213 N207 0.985 . S
H214 N211 0.984 . S
H215 N211 0.985 . S
H216 N210 0.980 1_545 S
H217 N210 0.984 . S
H218 N206 0.984 . S
H219 N206 0.985 . S
C220 C221 1.363 . S
C220 C226 1.379 . S
C220 N228 1.356 . S
C221 C220 1.363 . S
C221 C227 1.363 . S
C222 C223 1.363 . S
C222 C227 1.379 . S
C222 N229 1.356 . S
C223 C222 1.363 . S
C223 C226 1.363 . S
N224 C226 1.356 . S
N224 H236 0.984 . S
N224 H237 0.985 . S
N225 C227 1.356 . S
N225 H230 0.984 . S
N225 H231 0.985 1_556 S
C226 C220 1.379 . S
C226 C223 1.363 . S
C226 N224 1.356 . S
C227 C221 1.363 . S
C227 C222 1.379 . S
C227 N225 1.356 . S
N228 C220 1.356 . S
N228 H234 0.984 . S
N228 H235 0.984 . S
N229 C222 1.356 . S
N229 H232 0.984 . S
N229 H233 0.985 . S
H230 N225 0.984 . S
H231 N225 0.985 1_554 S
H232 N229 0.984 . S
H233 N229 0.985 . S
H234 N228 0.984 . S
H235 N228 0.984 . S
H236 N224 0.984 . S
H237 N224 0.985 . S
C238 C239 1.363 . S
C238 C244 1.379 . S
C238 N246 1.356 . S
C239 C238 1.363 . S
C239 C245 1.363 . S
C240 C241 1.363 . S
C240 C245 1.379 . S
C240 N247 1.356 . S
C241 C240 1.363 . S
C241 C244 1.363 . S
N242 C244 1.356 . S
N242 H254 0.984 . S
N242 H255 0.985 . S
N243 C245 1.356 . S
N243 H248 0.984 . S
N243 H249 0.985 . S
C244 C238 1.379 . S
C244 C241 1.363 . S
C244 N242 1.356 . S
C245 C239 1.363 . S
C245 C240 1.379 . S
C245 N243 1.356 . S
N246 C238 1.356 . S
N246 H252 0.984 . S
N246 H253 0.984 . S
N247 C240 1.356 . S
N247 H250 0.984 . S
N247 H251 0.985 . S
H248 N243 0.984 . S
H249 N243 0.985 . S
H250 N247 0.984 . S
H251 N247 0.985 . S
H252 N246 0.984 . S
H253 N246 0.984 . S
H254 N242 0.984 . S
H255 N242 0.985 . S
C256 C257 1.363 . S
C256 C262 1.379 . S
C256 N264 1.356 . S
C257 C256 1.363 . S
C257 C263 1.363 . S
C258 C259 1.363 . S
C258 C263 1.379 . S
C258 N265 1.356 . S
C259 C258 1.363 . S
C259 C262 1.363 . S
N260 C262 1.356 . S
N260 H272 0.984 . S
N260 H273 0.985 . S
N261 C263 1.356 . S
N261 H266 0.984 . S
N261 H267 0.985 . S
C262 C256 1.379 . S
C262 C259 1.363 . S
C262 N260 1.356 . S
C263 C257 1.363 . S
C263 C258 1.379 . S
C263 N261 1.356 . S
N264 C256 1.356 . S
N264 H270 0.984 1_655 S
N264 H271 0.984 . S
N265 C258 1.356 . S
N265 H268 0.984 . S
N265 H269 0.985 . S
H266 N261 0.984 . S
H267 N261 0.985 . S
H268 N265 0.984 . S
H269 N265 0.985 . S
H270 N264 0.984 1_455 S
H271 N264 0.984 . S
H272 N260 0.984 . S
H273 N260 0.985 . S
C274 C275 1.363 . S
C274 C280 1.379 . S
C274 N282 1.356 . S
C275 C274 1.363 . S
C275 C281 1.363 . S
C276 C277 1.363 . S
C276 C281 1.379 . S
C276 N283 1.356 . S
C277 C276 1.363 . S
C277 C280 1.363 . S
N278 C280 1.356 . S
N278 H290 0.984 . S
N278 H291 0.985 . S
N279 C281 1.356 . S
N279 H284 0.984 . S
N279 H285 0.985 . S
C280 C274 1.379 . S
C280 C277 1.363 . S
C280 N278 1.356 . S
C281 C275 1.363 . S
C281 C276 1.379 . S
C281 N279 1.356 . S
N282 C274 1.356 . S
N282 H288 0.984 . S
N282 H289 0.984 . S
N283 C276 1.356 . S
N283 H286 0.984 . S
N283 H287 0.985 . S
H284 N279 0.984 . S
H285 N279 0.985 . S
H286 N283 0.984 . S
H287 N283 0.985 . S
H288 N282 0.984 . S
H289 N282 0.984 . S
H290 N278 0.984 . S
H291 N278 0.985 . S
C292 C293 1.363 . S
C292 C298 1.379 . S
C292 N300 1.356 . S
C293 C292 1.363 . S
C293 C299 1.363 . S
C294 C295 1.363 . S
C294 C299 1.379 . S
C294 N301 1.356 . S
C295 C294 1.363 . S
C295 C298 1.363 . S
N296 C298 1.356 . S
N296 H308 0.984 . S
N296 H309 0.985 . S
N297 C299 1.356 . S
N297 H302 0.984 . S
N297 H303 0.985 . S
C298 C292 1.379 . S
C298 C295 1.363 . S
C298 N296 1.356 . S
C299 C293 1.363 . S
C299 C294 1.379 . S
C299 N297 1.356 . S
N300 C292 1.356 . S
N300 H306 0.984 . S
N300 H307 0.984 . S
N301 C294 1.356 . S
N301 H304 0.984 . S
N301 H305 0.985 . S
H302 N297 0.984 . S
H303 N297 0.985 . S
H304 N301 0.984 . S
H305 N301 0.985 . S
H306 N300 0.984 . S
H307 N300 0.984 . S
H308 N296 0.984 . S
H309 N296 0.985 . S
C310 C311 1.363 . S
C310 C316 1.379 . S
C310 N318 1.356 . S
C311 C310 1.363 . S
C311 C317 1.363 . S
C312 C313 1.363 . S
C312 C317 1.379 . S
C312 N319 1.356 . S
C313 C312 1.363 . S
C313 C316 1.363 . S
N314 C316 1.356 . S
N314 H326 0.984 . S
N314 H327 0.985 . S
N315 C317 1.356 . S
N315 H320 0.984 . S
N315 H321 0.985 . S
C316 C310 1.379 . S
C316 C313 1.363 . S
C316 N314 1.356 . S
C317 C311 1.363 . S
C317 C312 1.379 . S
C317 N315 1.356 . S
N318 C310 1.356 . S
N318 H324 0.984 . S
N318 H325 0.984 . S
N319 C312 1.356 . S
N319 H322 0.984 . S
N319 H323 0.985 . S
H320 N315 0.984 . S
H321 N315 0.985 . S
H322 N319 0.984 . S
H323 N319 0.985 . S
H324 N318 0.984 . S
H325 N318 0.984 . S
H326 N314 0.984 . S
H327 N314 0.985 . S
C328 C329 1.363 . S
C328 C334 1.379 . S
C328 N336 1.356 . S
C329 C328 1.363 . S
C329 C335 1.363 . S
C330 C331 1.363 . S
C330 C335 1.379 . S
C330 N337 1.356 . S
C331 C330 1.363 . S
C331 C334 1.363 . S
N332 C334 1.356 . S
N332 H344 0.984 . S
N332 H345 0.985 . S
N333 C335 1.356 . S
N333 H338 0.984 . S
N333 H339 0.985 . S
C334 C328 1.379 . S
C334 C331 1.363 . S
C334 N332 1.356 . S
C335 C329 1.363 . S
C335 C330 1.379 . S
C335 N333 1.356 . S
N336 C328 1.356 . S
N336 H342 0.984 . S
N336 H343 0.984 . S
N337 C330 1.356 . S
N337 H340 0.984 . S
N337 H341 0.985 . S
H338 N333 0.984 . S
H339 N333 0.985 . S
H340 N337 0.984 . S
H341 N337 0.985 . S
H342 N336 0.984 . S
H343 N336 0.984 . S
H344 N332 0.984 . S
H345 N332 0.985 . S
C346 C347 1.363 . S
C346 C352 1.379 . S
C346 N354 1.356 . S
C347 C346 1.363 . S
C347 C353 1.363 . S
C348 C349 1.363 . S
C348 C353 1.379 . S
C348 N355 1.356 . S
C349 C348 1.363 . S
C349 C352 1.363 . S
N350 C352 1.356 . S
N350 H362 0.984 . S
N350 H363 0.985 . S
N351 C353 1.356 . S
N351 H356 0.984 . S
N351 H357 0.985 . S
C352 C346 1.379 . S
C352 C349 1.363 . S
C352 N350 1.356 . S
C353 C347 1.363 . S
C353 C348 1.379 . S
C353 N351 1.356 . S
N354 C346 1.356 . S
N354 H360 0.984 . S
N354 H361 0.984 . S
N355 C348 1.356 . S
N355 H358 0.984 . S
N355 H359 0.985 . S
H356 N351 0.984 . S
H357 N351 0.985 . S
H358 N355 0.984 . S
H359 N355 0.985 . S
H360 N354 0.984 . S
H361 N354 0.984 . S
H362 N350 0.984 . S
H363 N350 0.985 . S
C364 C365 1.363 . S
C364 C370 1.379 . S
C364 N372 1.356 . S
C365 C364 1.363 . S
C365 C371 1.363 . S
C366 C367 1.363 . S
C366 C371 1.379 . S
C366 N373 1.356 . S
C367 C366 1.363 . S
C367 C370 1.363 . S
N368 C370 1.356 . S
N368 H380 0.984 . S
N368 H381 0.985 . S
N369 C371 1.356 . S
N369 H374 0.984 . S
N369 H375 0.985 . S
C370 C364 1.379 . S
C370 C367 1.363 . S
C370 N368 1.356 . S
C371 C365 1.363 . S
C371 C366 1.379 . S
C371 N369 1.356 . S
N372 C364 1.356 . S
N372 H378 0.984 . S
N372 H379 0.984 . S
N373 C366 1.356 . S
N373 H376 0.984 . S
N373 H377 0.985 . S
H374 N369 0.984 . S
H375 N369 0.985 . S
H376 N373 0.984 . S
H377 N373 0.985 . S
H378 N372 0.984 . S
H379 N372 0.984 . S
H380 N368 0.984 . S
H381 N368 0.985 . S
C382 C383 1.363 . S
C382 C388 1.379 . S
C382 N390 1.356 . S
C383 C382 1.363 . S
C383 C389 1.363 . S
C384 C385 1.363 . S
C384 C389 1.379 . S
C384 N391 1.356 . S
C385 C384 1.363 . S
C385 C388 1.363 . S
N386 C388 1.356 . S
N386 H398 0.984 . S
N386 H399 0.985 . S
N387 C389 1.356 . S
N387 H392 0.984 . S
N387 H393 0.985 . S
C388 C382 1.379 . S
C388 C385 1.363 . S
C388 N386 1.356 . S
C389 C383 1.363 . S
C389 C384 1.379 . S
C389 N387 1.356 . S
N390 C382 1.356 . S
N390 H396 0.984 . S
N390 H397 0.984 . S
N391 C384 1.356 . S
N391 H394 0.984 . S
N391 H395 0.985 . S
H392 N387 0.984 . S
H393 N387 0.985 . S
H394 N391 0.984 . S
H395 N391 0.985 . S
H396 N390 0.984 . S
H397 N390 0.984 . S
H398 N386 0.984 . S
H399 N386 0.985 . S
C400 C401 1.363 . S
C400 C406 1.379 . S
C400 N408 1.356 . S
C401 C400 1.363 . S
C401 C407 1.363 . S
C402 C403 1.363 . S
C402 C407 1.379 . S
C402 N409 1.356 . S
C403 C402 1.363 . S
C403 C406 1.363 . S
N404 C406 1.356 . S
N404 H416 0.984 . S
N404 H417 0.985 . S
N405 C407 1.356 . S
N405 H410 0.984 . S
N405 H411 0.985 . S
C406 C400 1.379 . S
C406 C403 1.363 . S
C406 N404 1.356 . S
C407 C401 1.363 . S
C407 C402 1.379 . S
C407 N405 1.356 . S
N408 C400 1.356 . S
N408 H414 0.984 . S
N408 H415 0.984 . S
N409 C402 1.356 . S
N409 H412 0.984 . S
N409 H413 0.985 . S
H410 N405 0.984 . S
H411 N405 0.985 . S
H412 N409 0.984 . S
H413 N409 0.985 . S
H414 N408 0.984 . S
H415 N408 0.984 . S
H416 N404 0.984 . S
H417 N404 0.985 . S
C418 C419 1.363 . S
C418 C424 1.379 . S
C418 N426 1.356 . S
C419 C418 1.363 . S
C419 C425 1.363 . S
C420 C421 1.363 . S
C420 C425 1.379 . S
C420 N427 1.356 . S
C421 C420 1.363 . S
C421 C424 1.363 . S
N422 C424 1.356 . S
N422 H434 0.984 . S
N422 H435 0.985 . S
N423 C425 1.356 . S
N423 H428 0.984 . S
N423 H429 0.985 . S
C424 C418 1.379 . S
C424 C421 1.363 . S
C424 N422 1.356 . S
C425 C419 1.363 . S
C425 C420 1.379 . S
C425 N423 1.356 . S
N426 C418 1.356 . S
N426 H432 0.984 . S
N426 H433 0.984 . S
N427 C420 1.356 . S
N427 H430 0.984 1_556 S
N427 H431 0.985 1_556 S
H428 N423 0.984 . S
H429 N423 0.985 . S
H430 N427 0.984 1_554 S
H431 N427 0.985 1_554 S
H432 N426 0.984 . S
H433 N426 0.984 . S
H434 N422 0.984 . S
H435 N422 0.985 . S
C436 C437 1.363 . S
C436 C442 1.379 . S
C436 N444 1.356 . S
C437 C436 1.363 . S
C437 C443 1.363 . S
C438 C439 1.363 . S
C438 C443 1.379 . S
C438 N445 1.356 . S
C439 C438 1.363 . S
C439 C442 1.363 . S
N440 C442 1.356 . S
N440 H452 0.984 . S
N440 H453 0.985 . S
N441 C443 1.356 . S
N441 H446 0.984 . S
N441 H447 0.985 . S
C442 C436 1.379 . S
C442 C439 1.363 . S
C442 N440 1.356 . S
C443 C437 1.363 . S
C443 C438 1.379 . S
C443 N441 1.356 . S
N444 C436 1.356 . S
N444 H450 0.984 . S
N444 H451 0.984 . S
N445 C438 1.356 . S
N445 H448 0.984 . S
N445 H449 0.985 . S
H446 N441 0.984 . S
H447 N441 0.985 . S
H448 N445 0.984 . S
H449 N445 0.985 . S
H450 N444 0.984 . S
H451 N444 0.984 . S
H452 N440 0.984 . S
H453 N440 0.985 . S
C454 C455 1.363 . S
C454 C460 1.379 . S
C454 N462 1.356 . S
C455 C454 1.363 . S
C455 C461 1.363 . S
C456 C457 1.363 . S
C456 C461 1.379 . S
C456 N463 1.356 . S
C457 C456 1.363 . S
C457 C460 1.363 . S
N458 C460 1.356 . S
N458 H470 0.984 . S
N458 H471 0.985 . S
N459 C461 1.356 . S
N459 H464 0.984 . S
N459 H465 0.985 . S
C460 C454 1.379 . S
C460 C457 1.363 . S
C460 N458 1.356 . S
C461 C455 1.363 . S
C461 C456 1.379 . S
C461 N459 1.356 . S
N462 C454 1.356 . S
N462 H468 0.984 . S
N462 H469 0.984 . S
N463 C456 1.356 . S
N463 H466 0.984 . S
N463 H467 0.985 . S
H464 N459 0.984 . S
H465 N459 0.985 . S
H466 N463 0.984 . S
H467 N463 0.985 . S
H468 N462 0.984 . S
H469 N462 0.984 . S
H470 N458 0.984 . S
H471 N458 0.985 . S
C185 C7 1.471 . S
C187 N71 1.437 . S
C203 N2 1.442 . S
C205 N25 1.424 . S
C221 C62 1.571 . S
C223 C30 1.575 . S
C239 C76 1.585 . S
C241 N58 1.518 . S
C257 C16 1.450 . S
C259 N127 1.412 . S
C275 N12 1.421 . S
C277 N104 1.414 . S
C293 C108 1.599 . S
C295 C53 1.595 . S
C311 N48 1.572 . S
C313 C131 1.598 . S
C329 C154 1.441 . S
C331 N117 1.408 . S
C347 N94 1.405 . S
C349 N150 1.397 . S
C365 C99 1.598 . S
C367 C168 1.595 . S
C383 C122 1.602 . S
C385 N163 1.565 . S
C401 C145 1.480 . S
C403 N81 1.441 . S
C419 N35 1.440 . S
C421 N140 1.468 . S
C437 C39 1.571 . S
C439 C177 1.569 . S
C455 C85 1.575 . S
C457 N173 1.526 . S
