# Generated by pormake.
# Topology snk, (6)-cn, num edge types: 1
# Building blocks:
#     Node 0, Type 0, BuildingBlock: BETFEN_clean_sbu_0, # of connection points: 6
#     Node 1, Type 0, BuildingBlock: BETFEN_clean_sbu_0, # of connection points: 6
#     Node 2, Type 0, BuildingBlock: BETFEN_clean_sbu_0, # of connection points: 6
#     Node 3, Type 0, BuildingBlock: BETFEN_clean_sbu_0, # of connection points: 6
#     Node 4, Type 0, BuildingBlock: BETFEN_clean_sbu_0, # of connection points: 6
#     Node 5, Type 0, BuildingBlock: BETFEN_clean_sbu_0, # of connection points: 6
#     Node 6, Type 0, BuildingBlock: BETFEN_clean_sbu_0, # of connection points: 6
#     Node 7, Type 0, BuildingBlock: BETFEN_clean_sbu_0, # of connection points: 6
#     Edge 8, Type (0, 0), BuildingBlock: CIFDUS_clean_linker_0, # of connection points: 2
#     Edge 9, Type (0, 0), BuildingBlock: CIFDUS_clean_linker_0, # of connection points: 2
#     Edge 10, Type (0, 0), BuildingBlock: CIFDUS_clean_linker_0, # of connection points: 2
#     Edge 11, Type (0, 0), BuildingBlock: CIFDUS_clean_linker_0, # of connection points: 2
#     Edge 12, Type (0, 0), BuildingBlock: CIFDUS_clean_linker_0, # of connection points: 2
#     Edge 13, Type (0, 0), BuildingBlock: CIFDUS_clean_linker_0, # of connection points: 2
#     Edge 14, Type (0, 0), BuildingBlock: CIFDUS_clean_linker_0, # of connection points: 2
#     Edge 15, Type (0, 0), BuildingBlock: CIFDUS_clean_linker_0, # of connection points: 2
#     Edge 16, Type (0, 0), BuildingBlock: CIFDUS_clean_linker_0, # of connection points: 2
#     Edge 17, Type (0, 0), BuildingBlock: CIFDUS_clean_linker_0, # of connection points: 2
#     Edge 18, Type (0, 0), BuildingBlock: CIFDUS_clean_linker_0, # of connection points: 2
#     Edge 19, Type (0, 0), BuildingBlock: CIFDUS_clean_linker_0, # of connection points: 2
#     Edge 20, Type (0, 0), BuildingBlock: CIFDUS_clean_linker_0, # of connection points: 2
#     Edge 21, Type (0, 0), BuildingBlock: CIFDUS_clean_linker_0, # of connection points: 2
#     Edge 22, Type (0, 0), BuildingBlock: CIFDUS_clean_linker_0, # of connection points: 2
#     Edge 23, Type (0, 0), BuildingBlock: CIFDUS_clean_linker_0, # of connection points: 2
#     Edge 24, Type (0, 0), BuildingBlock: CIFDUS_clean_linker_0, # of connection points: 2
#     Edge 25, Type (0, 0), BuildingBlock: CIFDUS_clean_linker_0, # of connection points: 2
#     Edge 26, Type (0, 0), BuildingBlock: CIFDUS_clean_linker_0, # of connection points: 2
#     Edge 27, Type (0, 0), BuildingBlock: CIFDUS_clean_linker_0, # of connection points: 2
#     Edge 28, Type (0, 0), BuildingBlock: CIFDUS_clean_linker_0, # of connection points: 2
#     Edge 29, Type (0, 0), BuildingBlock: CIFDUS_clean_linker_0, # of connection points: 2
#     Edge 30, Type (0, 0), BuildingBlock: CIFDUS_clean_linker_0, # of connection points: 2
#     Edge 31, Type (0, 0), BuildingBlock: CIFDUS_clean_linker_0, # of connection points: 2
# Relax obj value: 0.104
# Max RMSD: 0.170
# Mean RMSD: 0.134
data_MOF--net-snk--node1-BETFEN_clean_sbu_0--edge1-CIFDUS_clean_linker_0
_symmetry_space_group_name_H-M    P1
_symmetry_Int_Tables_number       1
_symmetry_cell_setting            triclinic
loop_
_symmetry_equiv_pos_as_xyz
'x, y, z'
_cell_length_a     32.5484
_cell_length_b     32.828691
_cell_length_c     23.686132
_cell_angle_alpha  96.835424
_cell_angle_beta   96.851336
_cell_angle_gamma 91.470678
loop_
_atom_site_label
_atom_site_type_symbol
_atom_site_fract_x
_atom_site_fract_y
_atom_site_fract_z
_atom_type_partial_charge
Pr0 Pr 1.0032 0.97779 0.45964 0.0
Pr1 Pr 0.02434 0.02743 0.5804 0.0
C2 C 0.98415 0.95092 0.34705 0.0
C3 C 0.99176 0.96283 0.29114 0.0
C4 C 0.98566 0.93354 0.24254 0.0
C5 C 0.99305 0.94406 0.18904 0.0
C6 C 1.00673 0.98419 0.1831 0.0
C7 C 0.01287 0.0135 0.23219 0.0
C8 C 1.00546 1.0029 0.28574 0.0
C9 C 0.05828 0.94147 0.53561 0.0
C10 C 0.07472 0.05536 0.48009 0.0
C11 C 0.04337 0.05433 0.69295 0.0
C12 C 0.03589 0.04231 0.74886 0.0
C13 C 0.04182 0.0716 0.79747 0.0
C14 C 0.03446 0.061 0.85094 0.0
C15 C 0.02098 0.02081 0.85683 0.0
C16 C 0.01502 0.99149 0.80773 0.0
C17 C 0.02242 1.00217 0.75422 0.0
C18 C 0.96954 0.06397 0.50424 0.0
C19 C 0.95309 0.94978 0.56019 0.0
O20 O 0.96037 0.9744 0.37652 0.0
O21 O 0.01608 0.93869 0.37867 0.0
O22 O 0.05895 0.9791 0.52951 0.0
O23 O 0.02977 0.9207 0.49973 0.0
O24 O 0.0766 0.05529 0.53606 0.0
O25 O 0.04669 0.03264 0.4439 0.0
O26 O 0.06728 0.03104 0.66344 0.0
O27 O 1.01131 0.06637 0.66139 0.0
O28 O 0.96859 0.02634 0.51038 0.0
O29 O 0.99806 0.08454 0.54032 0.0
O30 O 0.95101 0.95 0.50422 0.0
O31 O 0.98124 0.97239 0.59627 0.0
H32 H 0.97532 0.90239 0.246 0.0
H33 H 0.98865 0.92053 0.15247 0.0
H34 H 0.02297 0.04477 0.22918 0.0
H35 H 1.01035 0.02596 0.32286 0.0
H36 H 0.05197 0.10281 0.79403 0.0
H37 H 0.03872 0.08452 0.88752 0.0
H38 H 1.00507 0.96017 0.81072 0.0
H39 H 0.01769 0.97911 0.71709 0.0
Pr40 Pr 0.29143 0.75139 0.71404 0.0
Pr41 Pr 0.25037 0.75992 0.82462 0.0
C42 C 0.32238 0.7306 0.61436 0.0
C43 C 0.31009 0.7346 0.5535 0.0
C44 C 0.34007 0.73276 0.51557 0.0
C45 C 0.32933 0.73893 0.45833 0.0
C46 C 0.28833 0.74715 0.43796 0.0
C47 C 0.25824 0.74846 0.47618 0.0
C48 C 0.26905 0.74234 0.53345 0.0
C49 C 0.31795 0.82021 0.79159 0.0
C50 C 0.20855 0.80406 0.71342 0.0
C51 C 0.21901 0.78057 0.92406 0.0
C52 C 0.23141 0.77729 0.9851 0.0
C53 C 0.20144 0.7793 0.02306 0.0
C54 C 0.21224 0.7735 0.08044 0.0
C55 C 0.25329 0.76548 0.10089 0.0
C56 C 0.28337 0.76412 0.06266 0.0
C57 C 0.27251 0.76988 1.00527 0.0
C58 C 0.22295 0.69174 0.74552 0.0
C59 C 0.33295 0.70726 0.82554 0.0
O60 O 0.29975 0.70524 0.63765 0.0
O61 O 0.33268 0.76493 0.64757 0.0
O62 O 0.31242 0.78451 0.80413 0.0
O63 O 0.31047 0.82157 0.73675 0.0
O64 O 0.21459 0.80691 0.77 0.0
O65 O 0.22977 0.77929 0.68107 0.0
O66 O 0.24097 0.80626 0.90036 0.0
O67 O 0.20968 0.74581 0.89143 0.0
O68 O 0.22916 0.72763 0.73432 0.0
O69 O 0.23023 0.68977 0.80025 0.0
O70 O 0.32675 0.70429 0.76895 0.0
O71 O 0.31197 0.73219 0.85794 0.0
H72 H 0.37198 0.72719 0.53047 0.0
H73 H 0.35341 0.73828 0.43041 0.0
H74 H 0.2263 0.75419 0.46184 0.0
H75 H 0.24547 0.74405 0.56221 0.0
H76 H 0.16949 0.78463 1.00807 0.0
H77 H 0.18818 0.77419 0.10837 0.0
H78 H 0.31535 0.75856 0.07707 0.0
H79 H 0.29607 0.76805 0.97648 0.0
Pr80 Pr 0.53315 0.01875 0.0703 0.0
Pr81 Pr 0.4888 0.0373 0.95222 0.0
C82 C 0.57117 0.02376 0.1788 0.0
C83 C 0.55828 0.02564 0.2365 0.0
C84 C 0.51621 0.02249 0.24367 0.0
C85 C 0.50419 0.02252 0.29847 0.0
C86 C 0.53404 0.02576 0.34718 0.0
C87 C 0.57618 0.02964 0.33967 0.0
C88 C 0.58815 0.02952 0.28478 0.0
C89 C 0.468 0.96365 0.02429 0.0
C90 C 0.45021 0.07753 0.06419 0.0
C91 C 0.45358 0.03708 0.84286 0.0
C92 C 0.46685 0.03906 0.78595 0.0
C93 C 0.50891 0.04387 0.77946 0.0
C94 C 0.52114 0.04545 0.72502 0.0
C95 C 0.49152 0.04217 0.67604 0.0
C96 C 0.44938 0.03727 0.683 0.0
C97 C 0.43721 0.03572 0.73745 0.0
C98 C 0.55377 0.0924 1.00269 0.0
C99 C 0.56289 0.96895 0.9574 0.0
O100 O 0.56394 0.05591 0.1519 0.0
O101 O 0.56261 0.98905 0.1457 0.0
O102 O 0.4681 1.00177 0.022 0.0
O103 O 0.50043 0.95333 0.05603 0.0
O104 O 0.43955 0.06125 1.01054 0.0
O105 O 0.48638 0.07048 0.09258 0.0
O106 O 0.46202 1.00364 0.86611 0.0
O107 O 0.46014 0.07037 0.87946 0.0
O108 O 0.55399 0.05393 1.00075 0.0
O109 O 0.52034 0.10334 0.9739 0.0
O110 O 0.57735 0.98578 1.00973 0.0
O111 O 0.52792 0.98014 0.93057 0.0
H112 H 0.49269 0.01964 0.2068 0.0
H113 H 0.47148 0.0201 0.30271 0.0
H114 H 0.59999 0.03177 0.37608 0.0
H115 H 0.62079 0.03192 0.27998 0.0
H116 H 0.53225 0.04626 0.81649 0.0
H117 H 0.55386 0.04872 0.72122 0.0
H118 H 0.4257 0.03517 0.64644 0.0
H119 H 0.40459 0.03198 0.74171 0.0
Pr120 Pr 0.2724 0.27638 0.32562 0.0
Pr121 Pr 0.23254 0.24307 0.20476 0.0
C122 C 0.29197 0.303 0.43824 0.0
C123 C 0.28211 0.29316 0.49423 0.0
C124 C 0.31188 0.30197 0.54227 0.0
C125 C 0.30386 0.29186 0.59568 0.0
C126 C 0.26578 0.27275 0.60214 0.0
C127 C 0.23592 0.26401 0.55366 0.0
C128 C 0.24405 0.27406 0.50014 0.0
C129 C 0.3237 0.2276 0.26303 0.0
C130 C 0.20812 0.19314 0.30667 0.0
C131 C 0.21167 0.21725 0.09213 0.0
C132 C 0.22262 0.22581 0.03612 0.0
C133 C 0.19326 0.21701 0.98763 0.0
C134 C 0.20218 0.22631 0.93423 0.0
C135 C 0.24074 0.24464 0.92826 0.0
C136 C 0.27024 0.25325 0.97716 0.0
C137 C 0.26123 0.24394 0.03067 0.0
C138 C 0.18197 0.29251 0.26835 0.0
C139 C 0.29911 0.32424 0.22292 0.0
O140 O 0.26273 0.31849 0.40545 0.0
O141 O 0.31317 0.27611 0.41 0.0
O142 O 0.28551 0.21949 0.26348 0.0
O143 O 0.33659 0.26044 0.29725 0.0
O144 O 0.21137 0.18917 0.25133 0.0
O145 O 0.2246 0.22535 0.34153 0.0
O146 O 0.23926 0.19966 0.1249 0.0
O147 O 0.1927 0.24613 0.12036 0.0
O148 O 0.22001 0.30022 0.26655 0.0
O149 O 0.16867 0.25928 0.23526 0.0
O150 O 0.2949 0.32936 0.27803 0.0
O151 O 0.28232 0.29193 0.18863 0.0
H152 H 0.34157 0.31636 0.53836 0.0
H153 H 0.32786 0.29837 0.6317 0.0
H154 H 0.20613 0.24968 0.55711 0.0
H155 H 0.22071 0.26682 0.46342 0.0
H156 H 0.16316 0.20334 0.99119 0.0
H157 H 0.17846 0.21992 0.89783 0.0
H158 H 0.30037 0.26698 0.97408 0.0
H159 H 0.28427 0.25109 0.06775 0.0
Pr160 Pr 0.78714 0.23877 0.20427 0.0
Pr161 Pr 0.75861 0.27995 0.31808 0.0
C162 C 0.79069 0.20365 0.09605 0.0
C163 C 0.78367 0.21562 0.03782 0.0
C164 C 0.78138 0.25709 0.02921 0.0
C165 C 0.77558 0.26819 0.97363 0.0
C166 C 0.77179 0.23799 0.92558 0.0
C167 C 0.77363 0.19642 0.93467 0.0
C168 C 0.77953 0.18538 0.99027 0.0
C169 C 0.84128 0.29999 0.26484 0.0
C170 C 0.72472 0.31914 0.20457 0.0
C171 C 0.75019 0.31207 0.42634 0.0
C172 C 0.75578 0.29941 0.48427 0.0
C173 C 0.75736 0.25778 0.49224 0.0
C174 C 0.76226 0.2462 0.54759 0.0
C175 C 0.76585 0.27605 0.59603 0.0
C176 C 0.76461 0.31777 0.58759 0.0
C177 C 0.75962 0.32929 0.53224 0.0
C178 C 0.70712 0.21628 0.25618 0.0
C179 C 0.82655 0.20527 0.32053 0.0
O180 O 0.75793 0.20052 0.12258 0.0
O181 O 0.82275 0.22138 0.12929 0.0
O182 O 0.80229 0.30166 0.25808 0.0
O183 O 0.85344 0.26759 0.23529 0.0
O184 O 0.73616 0.32904 0.25991 0.0
O185 O 0.73582 0.28464 0.17651 0.0
O186 O 0.78386 0.31722 0.40253 0.0
O187 O 0.71977 0.29364 0.39061 0.0
O188 O 0.74591 0.21611 0.2661 0.0
O189 O 0.69319 0.25002 0.2799 0.0
O190 O 0.81474 0.19293 0.26569 0.0
O191 O 0.81313 0.23908 0.34704 0.0
H192 H 0.78442 0.28089 0.06548 0.0
H193 H 0.77477 0.30048 0.96835 0.0
H194 H 0.77014 0.17233 0.8988 0.0
H195 H 0.78094 0.1532 0.99615 0.0
H196 H 0.75459 0.23425 0.45566 0.0
H197 H 0.76266 0.21381 0.55239 0.0
H198 H 0.76799 0.3416 0.62379 0.0
H199 H 0.7588 0.36159 0.52688 0.0
Pr200 Pr 0.78174 0.76929 0.83305 0.0
Pr201 Pr 0.73211 0.75072 0.71278 0.0
C202 C 0.80835 0.7895 0.9456 0.0
C203 C 0.79885 0.78065 1.00217 0.0
C204 C 0.77376 0.7464 1.00801 0.0
C205 C 0.76526 0.73846 0.06232 0.0
C206 C 0.78169 0.76472 0.11173 0.0
C207 C 0.8067 0.79909 0.10537 0.0
C208 C 0.81514 0.80695 0.05109 0.0
C209 C 0.81792 0.71397 0.75755 0.0
C210 C 0.70332 0.69822 0.81023 0.0
C211 C 0.70393 0.73337 0.60027 0.0
C212 C 0.71503 0.74118 0.54397 0.0
C213 C 0.74052 0.77518 0.53826 0.0
C214 C 0.75005 0.7825 0.48418 0.0
C215 C 0.7342 0.75593 0.4348 0.0
C216 C 0.709 0.72166 0.44104 0.0
C217 C 0.69957 0.71437 0.49513 0.0
C218 C 0.6977 0.80742 0.78928 0.0
C219 C 0.81295 0.81793 0.73312 0.0
O220 O 0.7813 0.81043 0.91685 0.0
O221 O 0.82343 0.75975 0.91349 0.0
O222 O 0.77972 0.71411 0.76255 0.0
O223 O 0.83905 0.74152 0.79441 0.0
O224 O 0.70294 0.69837 0.75454 0.0
O225 O 0.72685 0.72476 0.84772 0.0
O226 O 0.72772 0.70919 0.62842 0.0
O227 O 0.69236 0.76483 0.63307 0.0
O228 O 0.73548 0.80644 0.78251 0.0
O229 O 0.6758 0.77924 0.75441 0.0
O230 O 0.81198 0.82023 0.78897 0.0
O231 O 0.78948 0.79073 0.69682 0.0
H232 H 0.76084 0.72584 0.9706 0.0
H233 H 0.74548 0.71201 0.06555 0.0
H234 H 0.82034 0.81962 0.14244 0.0
H235 H 0.83462 0.83353 0.04734 0.0
H236 H 0.75279 0.79618 0.57556 0.0
H237 H 0.76999 0.80886 0.48109 0.0
H238 H 0.69582 0.70087 0.40397 0.0
H239 H 0.67981 0.68797 0.49875 0.0
Pr240 Pr 0.49822 0.47302 0.94848 0.0
Pr241 Pr 0.52602 0.51612 0.07043 0.0
C242 C 0.47355 0.45047 0.83589 0.0
C243 C 0.47901 0.46308 0.77975 0.0
C244 C 0.4623 0.43794 0.72997 0.0
C245 C 0.46792 0.44881 0.67606 0.0
C246 C 0.49051 0.48504 0.67096 0.0
C247 C 0.50696 0.51038 0.72122 0.0
C248 C 0.50122 0.49947 0.77519 0.0
C249 C 0.5513 0.42786 1.01528 0.0
C250 C 0.57427 0.54628 0.97013 0.0
C251 C 0.55075 0.53884 0.18296 0.0
C252 C 0.54306 0.52775 0.23916 0.0
C253 C 0.5592 0.55333 0.28884 0.0
C254 C 0.5523 0.54334 0.34277 0.0
C255 C 0.52903 0.50754 0.34794 0.0
C256 C 0.51276 0.48202 0.29776 0.0
C257 C 0.51975 0.49205 0.24381 0.0
C258 C 0.47159 0.55926 1.00189 0.0
C259 C 0.44764 0.44598 0.0498 0.0
O260 O 0.45264 0.47465 0.86882 0.0
O261 O 0.50594 0.43601 0.86379 0.0
O262 O 0.55566 0.46613 1.01393 0.0
O263 O 0.51989 0.41175 0.98004 0.0
O264 O 0.57839 0.54244 0.02525 0.0
O265 O 0.54375 0.52697 0.93417 0.0
O266 O 0.5699 0.51218 0.15101 0.0
O267 O 0.52043 0.55571 0.15401 0.0
O268 O 0.46858 0.52142 1.00568 0.0
O269 O 0.50275 0.57693 0.03627 0.0
O270 O 0.44507 0.44772 0.99408 0.0
O271 O 0.47812 0.46509 0.0859 0.0
H272 H 0.44495 0.40979 0.7328 0.0
H273 H 0.45424 0.42895 0.63834 0.0
H274 H 0.52486 0.53828 0.71891 0.0
H275 H 0.5143 0.51922 0.81332 0.0
H276 H 0.57733 0.58099 0.28595 0.0
H277 H 0.56577 0.56335 0.38046 0.0
H278 H 0.4943 0.45449 0.30013 0.0
H279 H 0.50702 0.47198 0.20579 0.0
Pr280 Pr 0.02915 0.49209 0.58375 0.0
Pr281 Pr 0.98786 0.51584 0.46729 0.0
C282 C 0.06333 0.48762 0.69243 0.0
C283 C 0.04991 0.48972 0.74981 0.0
C284 C 1.00771 0.48906 0.75677 0.0
C285 C 0.99536 0.49193 0.81168 0.0
C286 C 0.025 0.49563 0.86066 0.0
C287 C 0.06729 0.49622 0.85322 0.0
C288 C 0.07958 0.49331 0.79829 0.0
C289 C 0.95934 0.44418 0.53166 0.0
C290 C 0.95937 0.56478 0.58178 0.0
C291 C 0.95027 0.515 0.35928 0.0
C292 C 0.9624 0.50881 0.30109 0.0
C293 C 1.0043 0.50764 0.29265 0.0
C294 C 0.01561 0.50233 0.23715 0.0
C295 C 0.9852 0.49796 0.18901 0.0
C296 C 0.9432 0.49878 0.19793 0.0
C297 C 0.93194 0.50416 0.25348 0.0
C298 C 0.05716 0.56485 0.51566 0.0
C299 C 0.0642 0.44918 0.47043 0.0
O300 O 0.06198 0.52173 0.66901 0.0
O301 O 0.05026 0.45537 0.65623 0.0
O302 O 0.96321 0.4826 0.53598 0.0
O303 O 0.99191 0.42901 0.55718 0.0
O304 O 0.94506 0.55006 0.52851 0.0
O305 O 0.99344 0.55141 0.60835 0.0
O306 O 0.95108 0.48275 0.38691 0.0
O307 O 0.96516 0.54854 0.39144 0.0
O308 O 0.05374 0.52657 0.51556 0.0
O309 O 0.0257 0.5787 0.48569 0.0
O310 O 0.07599 0.46404 0.52438 0.0
O311 O 0.02907 0.45963 0.44262 0.0
H312 H 0.98436 0.48642 0.71973 0.0
H313 H 0.96257 0.49092 0.81574 0.0
H314 H 0.09094 0.49968 0.88989 0.0
H315 H 0.1123 0.49419 0.79368 0.0
H316 H 0.02825 0.51111 0.32901 0.0
H317 H 0.04822 0.50232 0.23198 0.0
H318 H 0.91896 0.49485 0.16197 0.0
H319 H 0.89943 0.50472 0.25926 0.0
H320 H 0.0864 0.05695 0.36842 0.0
H321 H 0.12877 0.11499 0.53957 0.0
H322 H 0.17471 0.16166 0.50102 0.0
H323 H 0.2012 0.18736 0.41879 0.0
H324 H 0.15915 0.1292 0.24761 0.0
H325 H 0.11487 0.08103 0.28636 0.0
C326 C 0.10571 0.07972 0.39741 0.0
C327 C 0.1039 0.08253 0.45686 0.0
C328 C 0.13214 0.10644 0.37498 0.0
C329 C 0.12946 0.11208 0.49367 0.0
C330 C 0.15573 0.13885 0.47165 0.0
C331 C 0.18252 0.16407 0.38984 0.0
C332 C 0.18344 0.16209 0.33028 0.0
C333 C 0.15708 0.1365 0.41238 0.0
C334 C 0.15916 0.13146 0.29361 0.0
C335 C 0.1337 0.10395 0.31572 0.0
H336 H 0.06153 0.86141 0.55021 0.0
H337 H 0.12046 0.97999 0.61265 0.0
H338 H 0.1698 0.94843 0.67899 0.0
H339 H 0.199 0.88599 0.71473 0.0
H340 H 0.14261 0.76754 0.64591 0.0
H341 H 0.08925 0.79992 0.58693 0.0
C342 C 0.08506 0.88035 0.57853 0.0
C343 C 0.08741 0.92288 0.57671 0.0
C344 C 0.11374 0.86192 0.61547 0.0
C345 C 0.118 0.94713 0.61356 0.0
C346 C 0.14625 0.9291 0.65138 0.0
C347 C 0.17448 0.8676 0.68751 0.0
C348 C 0.17416 0.82469 0.68465 0.0
C349 C 0.14473 0.88643 0.65225 0.0
C350 C 0.14304 0.80072 0.64862 0.0
C351 C 0.11271 0.81918 0.61484 0.0
H352 H 0.36057 0.8124 0.8939 0.0
H353 H 0.32402 0.90184 0.7801 0.0
H354 H 0.364 0.95579 0.84627 0.0
H355 H 0.41247 0.97622 0.93394 0.0
H356 H 0.45503 0.88431 0.04057 0.0
H357 H 0.40875 0.83252 0.98043 0.0
C358 C 0.36106 0.84378 0.88381 0.0
C359 C 0.33955 0.85334 0.8324 0.0
C360 C 0.3851 0.87403 0.92083 0.0
C361 C 0.34058 0.89394 0.81951 0.0
C362 C 0.36335 0.92468 0.85726 0.0
C363 C 0.4115 0.94485 0.94386 0.0
C364 C 0.43722 0.93385 0.9911 0.0
C365 C 0.38624 0.91491 0.90761 0.0
C366 C 0.43555 0.8933 1.00413 0.0
C367 C 0.40922 0.86372 0.96976 0.0
H368 H 0.46834 0.13493 0.15595 0.0
H369 H 0.36585 0.07613 0.04016 0.0
H370 H 0.31705 0.11597 0.09314 0.0
H371 H 0.30378 0.16728 0.17349 0.0
H372 H 0.40725 0.22949 0.28359 0.0
H373 H 0.45539 0.18804 0.23251 0.0
C374 C 0.43531 0.13078 0.14236 0.0
C375 C 0.42067 0.10251 0.09453 0.0
C376 C 0.40762 0.15422 0.17229 0.0
C377 C 0.37785 0.09785 0.07685 0.0
C378 C 0.34995 0.12047 0.10725 0.0
C379 C 0.33682 0.17179 0.18597 0.0
C380 C 0.35193 0.20135 0.23212 0.0
C381 C 0.36449 0.14869 0.15517 0.0
C382 C 0.39486 0.20691 0.24811 0.0
C383 C 0.42244 0.18327 0.21892 0.0
H384 H 0.94459 0.94542 0.67239 0.0
H385 H 0.8954 0.89359 0.50064 0.0
H386 H 0.8479 0.84853 0.5392 0.0
H387 H 0.821 0.8233 0.62126 0.0
H388 H 0.86932 0.87552 0.79308 0.0
H389 H 0.91675 0.92087 0.75464 0.0
C390 C 0.92353 0.92429 0.64326 0.0
C391 C 0.92372 0.92292 0.5836 0.0
C392 C 0.8962 0.89848 0.66569 0.0
C393 C 0.89599 0.89541 0.54668 0.0
C394 C 0.86881 0.86955 0.5687 0.0
C395 C 0.84172 0.84467 0.65046 0.0
C396 C 0.84143 0.84595 0.71006 0.0
C397 C 0.86874 0.87077 0.62809 0.0
C398 C 0.86874 0.87384 0.74705 0.0
C399 C 0.89592 0.8998 0.7251 0.0
H400 H 0.96643 0.14423 0.49236 0.0
H401 H 0.90807 0.02636 0.42449 0.0
H402 H 0.8605 0.05908 0.35698 0.0
H403 H 0.83354 0.12237 0.32032 0.0
H404 H 0.88972 0.23985 0.39539 0.0
H405 H 0.9402 0.20627 0.45667 0.0
C406 C 0.94336 0.12566 0.4627 0.0
C407 C 0.94083 0.08302 0.46308 0.0
C408 C 0.9157 0.14472 0.42527 0.0
C409 C 0.91075 0.05931 0.42459 0.0
C410 C 0.88351 0.07801 0.38613 0.0
C411 C 0.85718 0.14034 0.34973 0.0
C412 C 0.8581 0.18337 0.35348 0.0
C413 C 0.88548 0.12081 0.38636 0.0
C414 C 0.88842 0.20662 0.39209 0.0
C415 C 0.91726 0.18749 0.42716 0.0
H416 H 0.63757 0.23217 0.18939 0.0
H417 H 0.72315 0.13707 0.22104 0.0
H418 H 0.68387 0.0901 0.14405 0.0
H419 H 0.62463 0.07616 0.06805 0.0
H420 H 0.54139 0.17296 0.03407 0.0
H421 H 0.58063 0.2194 0.11088 0.0
C422 C 0.64735 0.20104 0.17967 0.0
C423 C 0.68267 0.18772 0.21119 0.0
C424 C 0.62532 0.17472 0.13451 0.0
C425 C 0.69573 0.14771 0.19746 0.0
C426 C 0.67341 0.12097 0.15341 0.0
C427 C 0.61536 0.10752 0.0773 0.0
C428 C 0.58012 0.12107 0.04566 0.0
C429 C 0.63815 0.13416 0.12158 0.0
C430 C 0.56845 0.1618 0.0578 0.0
C431 C 0.59072 0.18833 0.10194 0.0
H432 H 0.617 0.816 0.80174 0.0
H433 H 0.73859 0.87007 0.86304 0.0
H434 H 0.70831 0.92346 0.92482 0.0
H435 H 0.64619 0.95681 0.95801 0.0
H436 H 0.52509 0.90352 0.89077 0.0
H437 H 0.55609 0.84793 0.83523 0.0
C438 C 0.6369 0.83938 0.82879 0.0
C439 C 0.67989 0.83908 0.82793 0.0
C440 C 0.61926 0.87028 0.86318 0.0
C441 C 0.70532 0.86958 0.86314 0.0
C442 C 0.68802 0.90017 0.89839 0.0
C443 C 0.62682 0.93273 0.93162 0.0
C444 C 0.58348 0.93434 0.92824 0.0
C445 C 0.64491 0.90109 0.8984 0.0
C446 C 0.55856 0.90317 0.89357 0.0
C447 C 0.57622 0.87131 0.86181 0.0
H448 H 0.57729 0.56105 0.85976 0.0
H449 H 0.63582 0.59672 0.03263 0.0
H450 H 0.68059 0.64677 0.99858 0.0
H451 H 0.70231 0.68141 0.92013 0.0
H452 H 0.64424 0.64526 0.74717 0.0
H453 H 0.6001 0.59458 0.78105 0.0
C454 C 0.5999 0.57961 0.89005 0.0
C455 C 0.60299 0.57503 0.94873 0.0
C456 C 0.62559 0.60845 0.87023 0.0
C457 C 0.63268 0.59941 0.9872 0.0
C458 C 0.65829 0.62819 0.96781 0.0
C459 C 0.68004 0.66251 0.88977 0.0
C460 C 0.67666 0.66736 0.83117 0.0
C461 C 0.65484 0.63316 0.90947 0.0
C462 C 0.64765 0.64231 0.79252 0.0
C463 C 0.62232 0.61325 0.81184 0.0
H464 H 0.6669 0.29576 0.11453 0.0
H465 H 0.71925 0.40233 0.22658 0.0
H466 H 0.67115 0.44612 0.17638 0.0
H467 H 0.61342 0.45365 0.10088 0.0
H468 H 0.55785 0.34552 0.99522 0.0
H469 H 0.60812 0.30281 0.04231 0.0
C470 C 0.66803 0.32865 0.12758 0.0
C471 C 0.69678 0.34595 0.17363 0.0
C472 C 0.63961 0.35329 0.09974 0.0
C473 C 0.69736 0.38841 0.19104 0.0
C474 C 0.66991 0.41341 0.16238 0.0
C475 C 0.61233 0.42077 0.08843 0.0
C476 C 0.58203 0.40278 0.0447 0.0
C477 C 0.64074 0.39614 0.11679 0.0
C478 C 0.58086 0.3601 0.02887 0.0
C479 C 0.60962 0.33563 0.05569 0.0
H480 H 0.975 0.3742 0.4674 0.0
H481 H 0.88108 0.46253 0.49201 0.0
H482 H 0.83575 0.42601 0.41053 0.0
H483 H 0.82364 0.36929 0.33123 0.0
H484 H 0.92 0.28379 0.3044 0.0
H485 H 0.96392 0.31926 0.38707 0.0
C486 C 0.94435 0.38505 0.45537 0.0
C487 C 0.93088 0.4204 0.48599 0.0
C488 C 0.91926 0.3648 0.40754 0.0
C489 C 0.89168 0.43497 0.4692 0.0
C490 C 0.86596 0.41428 0.42253 0.0
C491 C 0.85433 0.35865 0.34348 0.0
C492 C 0.86852 0.32398 0.31198 0.0
C493 C 0.87956 0.37931 0.3911 0.0
C494 C 0.90842 0.31054 0.32788 0.0
C495 C 0.93348 0.33062 0.37539 0.0
H496 H 0.89932 0.70732 0.74972 0.0
H497 H 0.7795 0.65431 0.67617 0.0
H498 H 0.81238 0.60523 0.61102 0.0
H499 H 0.87606 0.57549 0.57797 0.0
H500 H 0.99526 0.6268 0.65767 0.0
H501 H 0.96188 0.67852 0.71711 0.0
C502 C 0.88036 0.68509 0.71934 0.0
C503 C 0.83712 0.68445 0.71759 0.0
C504 C 0.89946 0.65663 0.68309 0.0
C505 C 0.81292 0.65546 0.6781 0.0
C506 C 0.83171 0.62738 0.64094 0.0
C507 C 0.89452 0.59835 0.60793 0.0
C508 C 0.93797 0.59745 0.61353 0.0
C509 C 0.87504 0.62747 0.64332 0.0
C510 C 0.96172 0.62681 0.65293 0.0
C511 C 0.9427 0.65638 0.68693 0.0
H512 H 0.30802 0.32767 0.1109 0.0
H513 H 0.35154 0.38573 0.28163 0.0
H514 H 0.40086 0.42886 0.24284 0.0
H515 H 0.4335 0.44802 0.16102 0.0
H516 H 0.38969 0.39007 0.99036 0.0
H517 H 0.33854 0.34889 0.02878 0.0
C518 C 0.32808 0.3499 0.13973 0.0
C519 C 0.32614 0.35325 0.19921 0.0
C520 C 0.35649 0.37445 0.1172 0.0
C521 C 0.35223 0.38251 0.23571 0.0
C522 C 0.38061 0.40707 0.21358 0.0
C523 C 0.41283 0.42637 0.13215 0.0
C524 C 0.41574 0.42192 0.07288 0.0
C525 C 0.38335 0.40292 0.15449 0.0
C526 C 0.38823 0.39411 0.03612 0.0
C527 C 0.35897 0.37051 0.05807 0.0
H528 H 0.47433 0.64002 0.9888 0.0
H529 H 0.40603 0.526 0.92683 0.0
H530 H 0.3599 0.56096 0.86079 0.0
H531 H 0.33646 0.62505 0.82451 0.0
H532 H 0.40085 0.73971 0.89349 0.0
H533 H 0.45127 0.70368 0.95255 0.0
C534 C 0.44941 0.62286 0.9607 0.0
C535 C 0.44374 0.58051 0.96227 0.0
C536 C 0.42242 0.64335 0.92396 0.0
C537 C 0.41125 0.5586 0.92589 0.0
C538 C 0.3848 0.57858 0.88824 0.0
C539 C 0.36209 0.64178 0.85173 0.0
C540 C 0.36571 0.68461 0.85435 0.0
C541 C 0.38987 0.62101 0.8872 0.0
C542 C 0.3981 0.70653 0.89066 0.0
C543 C 0.42667 0.68601 0.92456 0.0
H544 H 0.18163 0.7036 0.64417 0.0
H545 H 0.20944 0.61026 0.75503 0.0
H546 H 0.16381 0.56061 0.68882 0.0
H547 H 0.11255 0.54568 0.60249 0.0
H548 H 0.07807 0.6429 0.50096 0.0
H549 H 0.13049 0.68926 0.55987 0.0
C550 C 0.17792 0.67234 0.65378 0.0
C551 C 0.1986 0.66051 0.70438 0.0
C552 C 0.15047 0.64486 0.61714 0.0
C553 C 0.19361 0.61995 0.7163 0.0
C554 C 0.16756 0.59169 0.67855 0.0
C555 C 0.11653 0.57704 0.59355 0.0
C556 C 0.0913 0.59115 0.5481 0.0
C557 C 0.14523 0.60408 0.62939 0.0
C558 C 0.09703 0.63158 0.53607 0.0
C559 C 0.12689 0.65805 0.56972 0.0
H560 H 0.20454 0.35546 0.35289 0.0
H561 H 0.09797 0.28937 0.25535 0.0
H562 H 0.05197 0.33254 0.30842 0.0
H563 H 0.04199 0.38876 0.38323 0.0
H564 H 0.14845 0.45022 0.48756 0.0
H565 H 0.19464 0.40854 0.43234 0.0
C566 C 0.17132 0.35025 0.3438 0.0
C567 C 0.15471 0.31922 0.30052 0.0
C568 C 0.14506 0.37421 0.37593 0.0
C569 C 0.11151 0.31308 0.28859 0.0
C570 C 0.08517 0.3377 0.31893 0.0
C571 C 0.07532 0.39295 0.3938 0.0
C572 C 0.09189 0.42259 0.43901 0.0
C573 C 0.1016 0.36829 0.36278 0.0
C574 C 0.13505 0.42742 0.45297 0.0
C575 C 0.16144 0.40377 0.42127 0.0
H576 H 0.06625 0.04435 0.96079 0.0
H577 H 0.95727 0.97233 0.88127 0.0
H578 H 0.94345 0.95462 0.97463 0.0
H579 H 0.96147 0.9606 0.0791 0.0
H580 H 0.07051 0.03255 0.15859 0.0
H581 H 0.08431 0.05025 0.06523 0.0
C582 C 0.03925 0.02508 0.96386 0.0
C583 C 0.01288 0.00973 0.91386 0.0
C584 C 0.03125 0.01526 0.01781 0.0
C585 C 0.97844 0.98418 0.91877 0.0
C586 C 0.97033 0.97425 0.97226 0.0
C587 C 0.98849 0.97984 0.07603 0.0
C588 C 0.01486 0.99519 0.12603 0.0
C589 C 0.9965 0.98963 0.02207 0.0
C590 C 0.04932 0.02071 0.1211 0.0
C591 C 0.05743 0.03064 0.06761 0.0
H592 H 0.31491 0.70794 0.34144 0.0
H593 H 0.23691 0.805 0.39845 0.0
H594 H 0.21917 0.81909 0.29981 0.0
H595 H 0.22668 0.80476 0.1974 0.0
H596 H 0.30472 0.70771 0.14045 0.0
H597 H 0.32245 0.69365 0.23908 0.0
C598 C 0.2943 0.73242 0.33241 0.0
C599 C 0.27725 0.75527 0.37751 0.0
C600 C 0.28448 0.74065 0.27555 0.0
C601 C 0.25005 0.78645 0.36467 0.0
C602 C 0.2401 0.79477 0.30824 0.0
C603 C 0.24732 0.78031 0.20645 0.0
C604 C 0.26438 0.75745 0.16137 0.0
C605 C 0.25714 0.77209 0.26333 0.0
C606 C 0.29159 0.72627 0.17422 0.0
C607 C 0.30153 0.71797 0.23065 0.0
H608 H 0.46114 0.99572 0.57563 0.0
H609 H 0.55109 0.09299 0.64577 0.0
H610 H 0.57238 0.09627 0.55093 0.0
H611 H 0.56481 0.07227 0.44757 0.0
H612 H 0.47464 0.97515 0.37767 0.0
H613 H 0.45349 0.97184 0.4725 0.0
C614 C 0.48514 0.01792 0.57016 0.0
C615 C 0.50445 0.04403 0.618 0.0
C616 C 0.49706 0.01988 0.51535 0.0
C617 C 0.53602 0.07211 0.61002 0.0
C618 C 0.54807 0.07421 0.55566 0.0
C619 C 0.54074 0.05017 0.45313 0.0
C620 C 0.52129 0.02412 0.40532 0.0
C621 C 0.52882 0.04824 0.50799 0.0
C622 C 0.48975 0.99604 0.41338 0.0
C623 C 0.47779 0.99392 0.46774 0.0
H624 H 0.22045 0.19978 0.82351 0.0
H625 H 0.28093 0.31392 0.90508 0.0
H626 H 0.29406 0.33246 0.81187 0.0
H627 H 0.2868 0.3172 0.70706 0.0
H628 H 0.22644 0.203 0.62549 0.0
H629 H 0.21359 0.18432 0.71872 0.0
C630 C 0.23621 0.22889 0.82094 0.0
C631 C 0.24963 0.25538 0.87143 0.0
C632 C 0.24329 0.2396 0.76711 0.0
C633 C 0.2707 0.29263 0.86716 0.0
C634 C 0.27795 0.30344 0.81377 0.0
C635 C 0.2712 0.28802 0.70962 0.0
C636 C 0.25761 0.26162 0.6591 0.0
C637 C 0.26428 0.27722 0.76347 0.0
C638 C 0.23675 0.22425 0.66341 0.0
C639 C 0.22965 0.21337 0.71681 0.0
H640 H 0.80686 0.2046 0.83239 0.0
H641 H 0.7238 0.29819 0.88525 0.0
H642 H 0.71507 0.31837 0.78877 0.0
H643 H 0.73019 0.30896 0.68894 0.0
H644 H 0.81322 0.21536 0.63608 0.0
H645 H 0.82174 0.19499 0.73247 0.0
C646 C 0.78648 0.22913 0.82274 0.0
C647 C 0.76609 0.24982 0.86631 0.0
C648 C 0.78133 0.24045 0.76696 0.0
C649 C 0.74036 0.28203 0.85297 0.0
C650 C 0.73513 0.29346 0.79763 0.0
C651 C 0.75048 0.28435 0.69856 0.0
C652 C 0.771 0.26377 0.65506 0.0
C653 C 0.7555 0.27294 0.7543 0.0
C654 C 0.79658 0.23145 0.66832 0.0
C655 C 0.8017 0.21992 0.72361 0.0
H656 H 0.75195 0.70085 0.34604 0.0
H657 H 0.73616 0.8301 0.39311 0.0
H658 H 0.74955 0.84413 0.29794 0.0
H659 H 0.76436 0.81968 0.20067 0.0
H660 H 0.78004 0.69046 0.15338 0.0
H661 H 0.76686 0.67639 0.24869 0.0
C662 C 0.75111 0.73206 0.33539 0.0
C663 C 0.7431 0.76434 0.3769 0.0
C664 C 0.75846 0.73992 0.28031 0.0
C665 C 0.74282 0.80469 0.36245 0.0
C666 C 0.75018 0.81274 0.30782 0.0
C667 C 0.76527 0.78846 0.21132 0.0
C668 C 0.77318 0.7562 0.16974 0.0
C669 C 0.75798 0.7806 0.2664 0.0
C670 C 0.7735 0.71585 0.18415 0.0
C671 C 0.76624 0.70779 0.23883 0.0
H672 H 0.50841 0.43411 0.57841 0.0
H673 H 0.48709 0.561 0.63404 0.0
H674 H 0.49722 0.57911 0.53943 0.0
H675 H 0.51099 0.55873 0.44038 0.0
H676 H 0.53216 0.43177 0.38497 0.0
H677 H 0.52198 0.41374 0.47952 0.0
C678 C 0.50555 0.46568 0.56973 0.0
C679 C 0.49694 0.49611 0.61339 0.0
C680 C 0.51106 0.47584 0.5151 0.0
C681 C 0.49417 0.53701 0.60156 0.0
C682 C 0.49969 0.54736 0.54731 0.0
C683 C 0.51371 0.52716 0.44909 0.0
C684 C 0.5223 0.49667 0.40548 0.0
C685 C 0.50813 0.51702 0.50375 0.0
C686 C 0.52503 0.45579 0.41738 0.0
C687 C 0.5195 0.44548 0.4716 0.0
H688 H 0.05835 0.45984 0.95308 0.0
H689 H 0.9622 0.54036 0.90019 0.0
H690 H 0.941 0.54747 0.99618 0.0
H691 H 0.95081 0.53234 0.09591 0.0
H692 H 0.04693 0.4518 0.14888 0.0
H693 H 0.06771 0.44415 0.05263 0.0
C694 C 0.03296 0.47921 0.96262 0.0
C695 C 1.01194 0.49949 0.91925 0.0
C696 C 0.02108 0.48345 0.01814 0.0
C697 C 0.97864 0.52393 0.93234 0.0
C698 C 0.96663 0.52825 0.98741 0.0
C699 C 0.97601 0.51273 0.08632 0.0
C700 C 0.99727 0.49276 0.12984 0.0
C701 C 0.98767 0.50822 0.03068 0.0
C702 C 0.03033 0.46802 0.11662 0.0
C703 C 0.0421 0.46341 0.06141 0.0
loop_
_geom_bond_atom_site_label_1
_geom_bond_atom_site_label_2
_geom_bond_distance
_geom_bond_site_symmetry_2
_ccdc_geom_bond_type
Pr0 C2 2.880 1_655 S
Pr0 O20 2.562 . S
Pr0 O21 2.490 1_655 S
Pr0 O22 2.695 1_655 S
Pr0 O23 2.512 1_655 S
Pr0 O25 2.437 1_665 S
Pr0 O28 2.436 1_565 S
Pr0 O30 2.438 . S
Pr1 C11 2.880 1_455 S
Pr1 O22 2.436 1_545 S
Pr1 O24 2.438 . S
Pr1 O26 2.562 . S
Pr1 O27 2.490 1_455 S
Pr1 O28 2.695 1_455 S
Pr1 O29 2.512 1_455 S
Pr1 O31 2.437 1_445 S
C2 Pr0 2.880 1_455 S
C2 C3 1.491 . S
C2 O20 1.254 1_455 S
C2 O21 1.225 . S
C3 C2 1.491 . S
C3 C4 1.392 . S
C3 C8 1.356 . S
C4 C3 1.392 . S
C4 C5 1.368 . S
C4 H32 0.929 . S
C5 C4 1.368 . S
C5 C6 1.386 . S
C5 H33 0.929 . S
C6 C5 1.386 . S
C6 C7 1.373 . S
C7 C6 1.373 . S
C7 C8 1.409 . S
C7 H34 0.931 1_565 S
C8 C3 1.356 . S
C8 C7 1.409 . S
C8 H35 0.930 1_465 S
C9 O22 1.270 . S
C9 O23 1.248 . S
C10 O24 1.267 . S
C10 O25 1.278 . S
C11 Pr1 2.880 1_655 S
C11 C12 1.491 . S
C11 O26 1.254 1_655 S
C11 O27 1.225 . S
C12 C11 1.491 . S
C12 C13 1.392 . S
C12 C17 1.356 . S
C13 C12 1.392 . S
C13 C14 1.368 . S
C13 H36 0.929 . S
C14 C13 1.368 . S
C14 C15 1.386 . S
C14 H37 0.929 . S
C15 C14 1.386 . S
C15 C16 1.373 . S
C16 C15 1.373 . S
C16 C17 1.409 . S
C16 H38 0.931 1_545 S
C17 C12 1.356 . S
C17 C16 1.409 . S
C17 H39 0.930 1_645 S
C18 O28 1.270 . S
C18 O29 1.248 . S
C19 O30 1.267 . S
C19 O31 1.278 . S
O20 Pr0 2.562 . S
O20 C2 1.254 1_655 S
O21 Pr0 2.490 1_455 S
O21 C2 1.225 . S
O22 Pr0 2.695 1_455 S
O22 Pr1 2.436 1_565 S
O22 C9 1.270 . S
O23 Pr0 2.512 1_455 S
O23 C9 1.248 . S
O24 Pr1 2.438 . S
O24 C10 1.267 . S
O25 Pr0 2.437 1_445 S
O25 C10 1.278 . S
O26 Pr1 2.562 . S
O26 C11 1.254 1_455 S
O27 Pr1 2.490 1_655 S
O27 C11 1.225 . S
O28 Pr0 2.436 1_545 S
O28 Pr1 2.695 1_655 S
O28 C18 1.270 . S
O29 Pr1 2.512 1_655 S
O29 C18 1.248 . S
O30 Pr0 2.438 . S
O30 C19 1.267 . S
O31 Pr1 2.437 1_665 S
O31 C19 1.278 . S
H32 C4 0.929 . S
H33 C5 0.929 . S
H34 C7 0.931 1_545 S
H35 C8 0.930 1_645 S
H36 C13 0.929 . S
H37 C14 0.929 . S
H38 C16 0.931 1_565 S
H39 C17 0.930 1_465 S
Pr40 C42 2.880 . S
Pr40 O60 2.562 . S
Pr40 O61 2.490 . S
Pr40 O62 2.695 . S
Pr40 O63 2.512 . S
Pr40 O65 2.437 . S
Pr40 O68 2.436 . S
Pr40 O70 2.438 . S
Pr41 C51 2.880 . S
Pr41 O62 2.436 . S
Pr41 O64 2.438 . S
Pr41 O66 2.562 . S
Pr41 O67 2.490 . S
Pr41 O68 2.695 . S
Pr41 O69 2.512 . S
Pr41 O71 2.437 . S
C42 Pr40 2.880 . S
C42 C43 1.491 . S
C42 O60 1.254 . S
C42 O61 1.225 . S
C43 C42 1.491 . S
C43 C44 1.392 . S
C43 C48 1.356 . S
C44 C43 1.392 . S
C44 C45 1.368 . S
C44 H72 0.929 . S
C45 C44 1.368 . S
C45 C46 1.386 . S
C45 H73 0.929 . S
C46 C45 1.386 . S
C46 C47 1.373 . S
C47 C46 1.373 . S
C47 C48 1.409 . S
C47 H74 0.931 . S
C48 C43 1.356 . S
C48 C47 1.409 . S
C48 H75 0.930 . S
C49 O62 1.270 . S
C49 O63 1.248 . S
C50 O64 1.267 . S
C50 O65 1.278 . S
C51 Pr41 2.880 . S
C51 C52 1.491 . S
C51 O66 1.254 . S
C51 O67 1.225 . S
C52 C51 1.491 . S
C52 C53 1.393 . S
C52 C57 1.356 1_556 S
C53 C52 1.393 . S
C53 C54 1.366 1_556 S
C53 H76 0.930 . S
C54 C53 1.366 1_554 S
C54 C55 1.386 . S
C54 H77 0.929 . S
C55 C54 1.386 . S
C55 C56 1.373 . S
C56 C55 1.373 . S
C56 C57 1.409 . S
C56 H78 0.931 . S
C57 C52 1.356 1_554 S
C57 C56 1.409 . S
C57 H79 0.930 . S
C58 O68 1.270 . S
C58 O69 1.248 . S
C59 O70 1.267 . S
C59 O71 1.278 . S
O60 Pr40 2.562 . S
O60 C42 1.254 . S
O61 Pr40 2.490 . S
O61 C42 1.225 . S
O62 Pr40 2.695 . S
O62 Pr41 2.436 . S
O62 C49 1.270 . S
O63 Pr40 2.512 . S
O63 C49 1.248 . S
O64 Pr41 2.438 . S
O64 C50 1.267 . S
O65 Pr40 2.437 . S
O65 C50 1.278 . S
O66 Pr41 2.562 . S
O66 C51 1.254 . S
O67 Pr41 2.490 . S
O67 C51 1.225 . S
O68 Pr40 2.436 . S
O68 Pr41 2.695 . S
O68 C58 1.270 . S
O69 Pr41 2.512 . S
O69 C58 1.248 . S
O70 Pr40 2.438 . S
O70 C59 1.267 . S
O71 Pr41 2.437 . S
O71 C59 1.278 . S
H72 C44 0.929 . S
H73 C45 0.929 . S
H74 C47 0.931 . S
H75 C48 0.930 . S
H76 C53 0.930 . S
H77 C54 0.929 . S
H78 C56 0.931 . S
H79 C57 0.930 . S
Pr80 C82 2.880 . S
Pr80 O100 2.562 1_565 S
Pr80 O101 2.490 . S
Pr80 O102 2.695 1_554 S
Pr80 O103 2.512 . S
Pr80 O105 2.437 1_565 S
Pr80 O108 2.436 1_565 S
Pr80 O110 2.438 1_554 S
Pr81 C91 2.880 . S
Pr81 O102 2.436 1_545 S
Pr81 O104 2.438 1_556 S
Pr81 O106 2.562 1_545 S
Pr81 O107 2.490 . S
Pr81 O108 2.695 1_556 S
Pr81 O109 2.512 . S
Pr81 O111 2.437 1_545 S
C82 Pr80 2.880 . S
C82 C83 1.491 . S
C82 O100 1.254 1_565 S
C82 O101 1.225 . S
C83 C82 1.491 . S
C83 C84 1.392 . S
C83 C88 1.356 1_565 S
C84 C83 1.392 . S
C84 C85 1.368 . S
C84 H112 0.929 . S
C85 C84 1.368 . S
C85 C86 1.386 . S
C85 H113 0.929 . S
C86 C85 1.386 . S
C86 C87 1.373 1_565 S
C87 C86 1.373 1_545 S
C87 C88 1.409 . S
C87 H114 0.931 . S
C88 C83 1.356 1_545 S
C88 C87 1.409 . S
C88 H115 0.930 . S
C89 O102 1.270 . S
C89 O103 1.248 1_556 S
C90 O104 1.267 . S
C90 O105 1.278 . S
C91 Pr81 2.880 . S
C91 C92 1.491 . S
C91 O106 1.254 1_545 S
C91 O107 1.225 . S
C92 C91 1.491 . S
C92 C93 1.392 . S
C92 C97 1.356 1_545 S
C93 C92 1.392 . S
C93 C94 1.368 . S
C93 H116 0.929 . S
C94 C93 1.368 . S
C94 C95 1.386 . S
C94 H117 0.929 . S
C95 C94 1.386 . S
C95 C96 1.373 1_545 S
C96 C95 1.373 1_565 S
C96 C97 1.409 . S
C96 H118 0.931 . S
C97 C92 1.356 1_565 S
C97 C96 1.409 . S
C97 H119 0.930 . S
C98 O108 1.270 . S
C98 O109 1.248 1_554 S
C99 O110 1.267 . S
C99 O111 1.278 . S
O100 Pr80 2.562 1_545 S
O100 C82 1.254 1_545 S
O101 Pr80 2.490 . S
O101 C82 1.225 . S
O102 Pr80 2.695 1_556 S
O102 Pr81 2.436 1_565 S
O102 C89 1.270 . S
O103 Pr80 2.512 . S
O103 C89 1.248 1_554 S
O104 Pr81 2.438 1_554 S
O104 C90 1.267 . S
O105 Pr80 2.437 1_545 S
O105 C90 1.278 . S
O106 Pr81 2.562 1_565 S
O106 C91 1.254 1_565 S
O107 Pr81 2.490 . S
O107 C91 1.225 . S
O108 Pr80 2.436 1_545 S
O108 Pr81 2.695 1_554 S
O108 C98 1.270 . S
O109 Pr81 2.512 . S
O109 C98 1.248 1_556 S
O110 Pr80 2.438 1_556 S
O110 C99 1.267 . S
O111 Pr81 2.437 1_565 S
O111 C99 1.278 . S
H112 C84 0.929 . S
H113 C85 0.929 . S
H114 C87 0.931 . S
H115 C88 0.930 . S
H116 C93 0.929 . S
H117 C94 0.929 . S
H118 C96 0.931 . S
H119 C97 0.930 . S
Pr120 C122 2.880 . S
Pr120 O140 2.562 . S
Pr120 O141 2.490 . S
Pr120 O142 2.695 . S
Pr120 O143 2.512 . S
Pr120 O145 2.437 . S
Pr120 O148 2.436 . S
Pr120 O150 2.438 . S
Pr121 C131 2.880 . S
Pr121 O142 2.436 . S
Pr121 O144 2.438 . S
Pr121 O146 2.562 . S
Pr121 O147 2.490 . S
Pr121 O148 2.695 . S
Pr121 O149 2.512 . S
Pr121 O151 2.437 . S
C122 Pr120 2.880 . S
C122 C123 1.491 . S
C122 O140 1.254 . S
C122 O141 1.225 . S
C123 C122 1.491 . S
C123 C124 1.392 . S
C123 C128 1.356 . S
C124 C123 1.392 . S
C124 C125 1.368 . S
C124 H152 0.929 . S
C125 C124 1.368 . S
C125 C126 1.386 . S
C125 H153 0.929 . S
C126 C125 1.386 . S
C126 C127 1.373 . S
C127 C126 1.373 . S
C127 C128 1.409 . S
C127 H154 0.931 . S
C128 C123 1.356 . S
C128 C127 1.409 . S
C128 H155 0.930 . S
C129 O142 1.270 . S
C129 O143 1.248 . S
C130 O144 1.267 . S
C130 O145 1.278 . S
C131 Pr121 2.880 . S
C131 C132 1.491 . S
C131 O146 1.254 . S
C131 O147 1.225 . S
C132 C131 1.491 . S
C132 C133 1.392 1_554 S
C132 C137 1.356 1_554 S
C133 C132 1.392 1_556 S
C133 C134 1.368 . S
C133 H156 0.929 1_556 S
C134 C133 1.368 . S
C134 C135 1.386 . S
C134 H157 0.929 . S
C135 C134 1.386 . S
C135 C136 1.373 . S
C136 C135 1.373 . S
C136 C137 1.409 . S
C136 H158 0.931 . S
C137 C132 1.356 1_556 S
C137 C136 1.409 . S
C137 H159 0.924 1_556 S
C138 O148 1.270 . S
C138 O149 1.248 . S
C139 O150 1.267 . S
C139 O151 1.278 . S
O140 Pr120 2.562 . S
O140 C122 1.254 . S
O141 Pr120 2.490 . S
O141 C122 1.225 . S
O142 Pr120 2.695 . S
O142 Pr121 2.436 . S
O142 C129 1.270 . S
O143 Pr120 2.512 . S
O143 C129 1.248 . S
O144 Pr121 2.438 . S
O144 C130 1.267 . S
O145 Pr120 2.437 . S
O145 C130 1.278 . S
O146 Pr121 2.562 . S
O146 C131 1.254 . S
O147 Pr121 2.490 . S
O147 C131 1.225 . S
O148 Pr120 2.436 . S
O148 Pr121 2.695 . S
O148 C138 1.270 . S
O149 Pr121 2.512 . S
O149 C138 1.248 . S
O150 Pr120 2.438 . S
O150 C139 1.267 . S
O151 Pr121 2.437 . S
O151 C139 1.278 . S
H152 C124 0.929 . S
H153 C125 0.929 . S
H154 C127 0.931 . S
H155 C128 0.930 . S
H156 C133 0.929 1_554 S
H157 C134 0.929 . S
H158 C136 0.931 . S
H159 C137 0.924 1_554 S
Pr160 C162 2.880 . S
Pr160 O180 2.562 . S
Pr160 O181 2.490 . S
Pr160 O182 2.695 . S
Pr160 O183 2.512 . S
Pr160 O185 2.437 . S
Pr160 O188 2.436 . S
Pr160 O190 2.438 . S
Pr161 C171 2.880 . S
Pr161 O182 2.436 . S
Pr161 O184 2.438 . S
Pr161 O186 2.562 . S
Pr161 O187 2.490 . S
Pr161 O188 2.695 . S
Pr161 O189 2.512 . S
Pr161 O191 2.437 . S
C162 Pr160 2.880 . S
C162 C163 1.491 . S
C162 O180 1.254 . S
C162 O181 1.225 . S
C163 C162 1.491 . S
C163 C164 1.394 . S
C163 C168 1.356 1_554 S
C164 C163 1.394 . S
C164 C165 1.365 1_554 S
C164 H192 0.931 . S
C165 C164 1.365 1_556 S
C165 C166 1.386 . S
C165 H193 0.929 . S
C166 C165 1.386 . S
C166 C167 1.373 . S
C167 C166 1.373 . S
C167 C168 1.409 . S
C167 H194 0.931 . S
C168 C163 1.356 1_556 S
C168 C167 1.409 . S
C168 H195 0.930 . S
C169 O182 1.270 . S
C169 O183 1.248 . S
C170 O184 1.267 . S
C170 O185 1.278 . S
C171 Pr161 2.880 . S
C171 C172 1.491 . S
C171 O186 1.254 . S
C171 O187 1.225 . S
C172 C171 1.491 . S
C172 C173 1.392 . S
C172 C177 1.356 . S
C173 C172 1.392 . S
C173 C174 1.368 . S
C173 H196 0.929 . S
C174 C173 1.368 . S
C174 C175 1.386 . S
C174 H197 0.929 . S
C175 C174 1.386 . S
C175 C176 1.373 . S
C176 C175 1.373 . S
C176 C177 1.409 . S
C176 H198 0.931 . S
C177 C172 1.356 . S
C177 C176 1.409 . S
C177 H199 0.930 . S
C178 O188 1.270 . S
C178 O189 1.248 . S
C179 O190 1.267 . S
C179 O191 1.278 . S
O180 Pr160 2.562 . S
O180 C162 1.254 . S
O181 Pr160 2.490 . S
O181 C162 1.225 . S
O182 Pr160 2.695 . S
O182 Pr161 2.436 . S
O182 C169 1.270 . S
O183 Pr160 2.512 . S
O183 C169 1.248 . S
O184 Pr161 2.438 . S
O184 C170 1.267 . S
O185 Pr160 2.437 . S
O185 C170 1.278 . S
O186 Pr161 2.562 . S
O186 C171 1.254 . S
O187 Pr161 2.490 . S
O187 C171 1.225 . S
O188 Pr160 2.436 . S
O188 Pr161 2.695 . S
O188 C178 1.270 . S
O189 Pr161 2.512 . S
O189 C178 1.248 . S
O190 Pr160 2.438 . S
O190 C179 1.267 . S
O191 Pr161 2.437 . S
O191 C179 1.278 . S
H192 C164 0.931 . S
H193 C165 0.929 . S
H194 C167 0.931 . S
H195 C168 0.930 . S
H196 C173 0.929 . S
H197 C174 0.929 . S
H198 C176 0.931 . S
H199 C177 0.930 . S
Pr200 C202 2.880 . S
Pr200 O220 2.562 . S
Pr200 O221 2.490 . S
Pr200 O222 2.695 . S
Pr200 O223 2.512 . S
Pr200 O225 2.437 . S
Pr200 O228 2.436 . S
Pr200 O230 2.438 . S
Pr201 C211 2.880 . S
Pr201 O222 2.436 . S
Pr201 O224 2.438 . S
Pr201 O226 2.562 . S
Pr201 O227 2.490 . S
Pr201 O228 2.695 . S
Pr201 O229 2.512 . S
Pr201 O231 2.437 . S
C202 Pr200 2.880 . S
C202 C203 1.491 . S
C202 O220 1.254 . S
C202 O221 1.225 . S
C203 C202 1.491 . S
C203 C204 1.392 1_556 S
C203 C208 1.356 1_556 S
C204 C203 1.392 1_554 S
C204 C205 1.368 . S
C204 H232 0.929 1_554 S
C205 C204 1.368 . S
C205 C206 1.386 . S
C205 H233 0.929 . S
C206 C205 1.386 . S
C206 C207 1.373 . S
C207 C206 1.373 . S
C207 C208 1.409 . S
C207 H234 0.931 . S
C208 C203 1.356 1_554 S
C208 C207 1.409 . S
C208 H235 0.925 1_554 S
C209 O222 1.270 . S
C209 O223 1.248 . S
C210 O224 1.267 . S
C210 O225 1.278 . S
C211 Pr201 2.880 . S
C211 C212 1.491 . S
C211 O226 1.254 . S
C211 O227 1.225 . S
C212 C211 1.491 . S
C212 C213 1.392 . S
C212 C217 1.356 . S
C213 C212 1.392 . S
C213 C214 1.368 . S
C213 H236 0.929 . S
C214 C213 1.368 . S
C214 C215 1.386 . S
C214 H237 0.929 . S
C215 C214 1.386 . S
C215 C216 1.373 . S
C216 C215 1.373 . S
C216 C217 1.409 . S
C216 H238 0.931 . S
C217 C212 1.356 . S
C217 C216 1.409 . S
C217 H239 0.930 . S
C218 O228 1.270 . S
C218 O229 1.248 . S
C219 O230 1.267 . S
C219 O231 1.278 . S
O220 Pr200 2.562 . S
O220 C202 1.254 . S
O221 Pr200 2.490 . S
O221 C202 1.225 . S
O222 Pr200 2.695 . S
O222 Pr201 2.436 . S
O222 C209 1.270 . S
O223 Pr200 2.512 . S
O223 C209 1.248 . S
O224 Pr201 2.438 . S
O224 C210 1.267 . S
O225 Pr200 2.437 . S
O225 C210 1.278 . S
O226 Pr201 2.562 . S
O226 C211 1.254 . S
O227 Pr201 2.490 . S
O227 C211 1.225 . S
O228 Pr200 2.436 . S
O228 Pr201 2.695 . S
O228 C218 1.270 . S
O229 Pr201 2.512 . S
O229 C218 1.248 . S
O230 Pr200 2.438 . S
O230 C219 1.267 . S
O231 Pr201 2.437 . S
O231 C219 1.278 . S
H232 C204 0.929 1_556 S
H233 C205 0.929 . S
H234 C207 0.931 . S
H235 C208 0.925 1_556 S
H236 C213 0.929 . S
H237 C214 0.929 . S
H238 C216 0.931 . S
H239 C217 0.930 . S
Pr240 C242 2.880 . S
Pr240 O260 2.562 . S
Pr240 O261 2.490 . S
Pr240 O262 2.695 1_556 S
Pr240 O263 2.512 . S
Pr240 O265 2.437 . S
Pr240 O268 2.436 . S
Pr240 O270 2.438 . S
Pr241 C251 2.880 . S
Pr241 O262 2.436 . S
Pr241 O264 2.438 . S
Pr241 O266 2.562 . S
Pr241 O267 2.490 . S
Pr241 O268 2.695 1_554 S
Pr241 O269 2.512 . S
Pr241 O271 2.437 . S
C242 Pr240 2.880 . S
C242 C243 1.491 . S
C242 O260 1.254 . S
C242 O261 1.225 . S
C243 C242 1.491 . S
C243 C244 1.392 . S
C243 C248 1.356 . S
C244 C243 1.392 . S
C244 C245 1.368 . S
C244 H272 0.929 . S
C245 C244 1.368 . S
C245 C246 1.386 . S
C245 H273 0.929 . S
C246 C245 1.386 . S
C246 C247 1.373 . S
C247 C246 1.373 . S
C247 C248 1.409 . S
C247 H274 0.931 . S
C248 C243 1.356 . S
C248 C247 1.409 . S
C248 H275 0.930 . S
C249 O262 1.270 . S
C249 O263 1.248 1_554 S
C250 O264 1.267 1_556 S
C250 O265 1.278 . S
C251 Pr241 2.880 . S
C251 C252 1.491 . S
C251 O266 1.254 . S
C251 O267 1.225 . S
C252 C251 1.491 . S
C252 C253 1.392 . S
C252 C257 1.356 . S
C253 C252 1.392 . S
C253 C254 1.368 . S
C253 H276 0.929 . S
C254 C253 1.368 . S
C254 C255 1.386 . S
C254 H277 0.929 . S
C255 C254 1.386 . S
C255 C256 1.373 . S
C256 C255 1.373 . S
C256 C257 1.409 . S
C256 H278 0.931 . S
C257 C252 1.356 . S
C257 C256 1.409 . S
C257 H279 0.930 . S
C258 O268 1.270 . S
C258 O269 1.248 1_556 S
C259 O270 1.267 1_554 S
C259 O271 1.278 . S
O260 Pr240 2.562 . S
O260 C242 1.254 . S
O261 Pr240 2.490 . S
O261 C242 1.225 . S
O262 Pr240 2.695 1_554 S
O262 Pr241 2.436 . S
O262 C249 1.270 . S
O263 Pr240 2.512 . S
O263 C249 1.248 1_556 S
O264 Pr241 2.438 . S
O264 C250 1.267 1_554 S
O265 Pr240 2.437 . S
O265 C250 1.278 . S
O266 Pr241 2.562 . S
O266 C251 1.254 . S
O267 Pr241 2.490 . S
O267 C251 1.225 . S
O268 Pr240 2.436 . S
O268 Pr241 2.695 1_556 S
O268 C258 1.270 . S
O269 Pr241 2.512 . S
O269 C258 1.248 1_554 S
O270 Pr240 2.438 . S
O270 C259 1.267 1_556 S
O271 Pr241 2.437 . S
O271 C259 1.278 . S
H272 C244 0.929 . S
H273 C245 0.929 . S
H274 C247 0.931 . S
H275 C248 0.930 . S
H276 C253 0.929 . S
H277 C254 0.929 . S
H278 C256 0.931 . S
H279 C257 0.930 . S
Pr280 C282 2.880 1_455 S
Pr280 O300 2.562 . S
Pr280 O301 2.490 1_455 S
Pr280 O302 2.695 1_455 S
Pr280 O303 2.512 1_455 S
Pr280 O305 2.437 1_455 S
Pr280 O308 2.436 . S
Pr280 O310 2.438 . S
Pr281 C291 2.880 1_655 S
Pr281 O302 2.436 . S
Pr281 O304 2.438 . S
Pr281 O306 2.562 . S
Pr281 O307 2.490 1_655 S
Pr281 O308 2.695 1_655 S
Pr281 O309 2.512 1_655 S
Pr281 O311 2.437 1_655 S
C282 Pr280 2.880 1_655 S
C282 C283 1.491 . S
C282 O300 1.254 1_655 S
C282 O301 1.225 . S
C283 C282 1.491 . S
C283 C284 1.392 . S
C283 C288 1.356 . S
C284 C283 1.392 . S
C284 C285 1.368 . S
C284 H312 0.929 . S
C285 C284 1.368 . S
C285 C286 1.386 . S
C285 H313 0.929 . S
C286 C285 1.386 . S
C286 C287 1.373 . S
C287 C286 1.373 . S
C287 C288 1.409 . S
C287 H314 0.931 . S
C288 C283 1.356 . S
C288 C287 1.409 . S
C288 H315 0.930 1_655 S
C289 O302 1.270 . S
C289 O303 1.248 . S
C290 O304 1.267 . S
C290 O305 1.278 . S
C291 Pr281 2.880 1_455 S
C291 C292 1.491 . S
C291 O306 1.254 1_455 S
C291 O307 1.225 . S
C292 C291 1.491 . S
C292 C293 1.392 . S
C292 C297 1.356 . S
C293 C292 1.392 . S
C293 C294 1.368 . S
C293 H316 0.929 . S
C294 C293 1.368 . S
C294 C295 1.386 . S
C294 H317 0.929 . S
C295 C294 1.386 . S
C295 C296 1.373 . S
C296 C295 1.373 . S
C296 C297 1.409 . S
C296 H318 0.931 . S
C297 C292 1.356 . S
C297 C296 1.409 . S
C297 H319 0.930 1_455 S
C298 O308 1.270 . S
C298 O309 1.248 . S
C299 O310 1.267 . S
C299 O311 1.278 . S
O300 Pr280 2.562 . S
O300 C282 1.254 1_455 S
O301 Pr280 2.490 1_655 S
O301 C282 1.225 . S
O302 Pr280 2.695 1_655 S
O302 Pr281 2.436 . S
O302 C289 1.270 . S
O303 Pr280 2.512 1_655 S
O303 C289 1.248 . S
O304 Pr281 2.438 . S
O304 C290 1.267 . S
O305 Pr280 2.437 1_655 S
O305 C290 1.278 . S
O306 Pr281 2.562 . S
O306 C291 1.254 1_655 S
O307 Pr281 2.490 1_455 S
O307 C291 1.225 . S
O308 Pr280 2.436 . S
O308 Pr281 2.695 1_455 S
O308 C298 1.270 . S
O309 Pr281 2.512 1_455 S
O309 C298 1.248 . S
O310 Pr280 2.438 . S
O310 C299 1.267 . S
O311 Pr281 2.437 1_455 S
O311 C299 1.278 . S
H312 C284 0.929 . S
H313 C285 0.929 . S
H314 C287 0.931 . S
H315 C288 0.930 1_455 S
H316 C293 0.929 . S
H317 C294 0.929 . S
H318 C296 0.931 . S
H319 C297 0.930 1_655 S
H320 C326 0.930 . S
H321 C329 0.930 . S
H322 C330 0.930 . S
H323 C331 0.930 . S
H324 C334 0.930 . S
H325 C335 0.930 . S
C326 H320 0.930 . S
C326 C327 1.355 . S
C326 C328 1.415 . S
C327 C326 1.355 . S
C327 C329 1.419 . S
C328 C326 1.415 . S
C328 C333 1.425 . S
C328 C335 1.409 . S
C329 H321 0.930 . S
C329 C327 1.419 . S
C329 C330 1.362 . S
C330 H322 0.930 . S
C330 C329 1.362 . S
C330 C333 1.409 . S
C331 H323 0.930 . S
C331 C332 1.355 . S
C331 C333 1.415 . S
C332 C331 1.355 . S
C332 C334 1.419 . S
C333 C328 1.425 . S
C333 C330 1.409 . S
C333 C331 1.415 . S
C334 H324 0.930 . S
C334 C332 1.419 . S
C334 C335 1.362 . S
C335 H325 0.930 . S
C335 C328 1.409 . S
C335 C334 1.362 . S
H336 C342 0.930 . S
H337 C345 0.930 . S
H338 C346 0.930 . S
H339 C347 0.930 . S
H340 C350 0.930 . S
H341 C351 0.930 . S
C342 H336 0.930 . S
C342 C343 1.355 . S
C342 C344 1.415 . S
C343 C342 1.355 . S
C343 C345 1.419 . S
C344 C342 1.415 . S
C344 C349 1.425 . S
C344 C351 1.409 . S
C345 H337 0.930 . S
C345 C343 1.419 . S
C345 C346 1.362 . S
C346 H338 0.930 . S
C346 C345 1.362 . S
C346 C349 1.409 . S
C347 H339 0.930 . S
C347 C348 1.355 . S
C347 C349 1.415 . S
C348 C347 1.355 . S
C348 C350 1.419 . S
C349 C344 1.425 . S
C349 C346 1.409 . S
C349 C347 1.415 . S
C350 H340 0.930 . S
C350 C348 1.419 . S
C350 C351 1.362 . S
C351 H341 0.930 . S
C351 C344 1.409 . S
C351 C350 1.362 . S
H352 C358 0.930 . S
H353 C361 0.930 . S
H354 C362 0.930 . S
H355 C363 0.930 . S
H356 C366 0.930 1_554 S
H357 C367 0.930 . S
C358 H352 0.930 . S
C358 C359 1.355 . S
C358 C360 1.415 . S
C359 C358 1.355 . S
C359 C361 1.419 . S
C360 C358 1.415 . S
C360 C365 1.425 . S
C360 C367 1.409 . S
C361 H353 0.930 . S
C361 C359 1.419 . S
C361 C362 1.362 . S
C362 H354 0.930 . S
C362 C361 1.362 . S
C362 C365 1.409 . S
C363 H355 0.930 . S
C363 C364 1.355 . S
C363 C365 1.415 . S
C364 C363 1.355 . S
C364 C366 1.419 . S
C365 C360 1.425 . S
C365 C362 1.409 . S
C365 C363 1.415 . S
C366 H356 0.930 1_556 S
C366 C364 1.419 . S
C366 C367 1.362 . S
C367 H357 0.930 . S
C367 C360 1.409 . S
C367 C366 1.362 . S
H368 C374 0.930 . S
H369 C377 0.930 . S
H370 C378 0.930 . S
H371 C379 0.930 . S
H372 C382 0.930 . S
H373 C383 0.930 . S
C374 H368 0.930 . S
C374 C375 1.355 . S
C374 C376 1.415 . S
C375 C374 1.355 . S
C375 C377 1.419 . S
C376 C374 1.415 . S
C376 C381 1.425 . S
C376 C383 1.409 . S
C377 H369 0.930 . S
C377 C375 1.419 . S
C377 C378 1.362 . S
C378 H370 0.930 . S
C378 C377 1.362 . S
C378 C381 1.409 . S
C379 H371 0.930 . S
C379 C380 1.355 . S
C379 C381 1.415 . S
C380 C379 1.355 . S
C380 C382 1.419 . S
C381 C376 1.425 . S
C381 C378 1.409 . S
C381 C379 1.415 . S
C382 H372 0.930 . S
C382 C380 1.419 . S
C382 C383 1.362 . S
C383 H373 0.930 . S
C383 C376 1.409 . S
C383 C382 1.362 . S
H384 C390 0.930 . S
H385 C393 0.930 . S
H386 C394 0.930 . S
H387 C395 0.930 . S
H388 C398 0.930 . S
H389 C399 0.930 . S
C390 H384 0.930 . S
C390 C391 1.355 . S
C390 C392 1.415 . S
C391 C390 1.355 . S
C391 C393 1.419 . S
C392 C390 1.415 . S
C392 C397 1.425 . S
C392 C399 1.409 . S
C393 H385 0.930 . S
C393 C391 1.419 . S
C393 C394 1.362 . S
C394 H386 0.930 . S
C394 C393 1.362 . S
C394 C397 1.409 . S
C395 H387 0.930 . S
C395 C396 1.355 . S
C395 C397 1.415 . S
C396 C395 1.355 . S
C396 C398 1.419 . S
C397 C392 1.425 . S
C397 C394 1.409 . S
C397 C395 1.415 . S
C398 H388 0.930 . S
C398 C396 1.419 . S
C398 C399 1.362 . S
C399 H389 0.930 . S
C399 C392 1.409 . S
C399 C398 1.362 . S
H400 C406 0.930 . S
H401 C409 0.930 . S
H402 C410 0.930 . S
H403 C411 0.930 . S
H404 C414 0.930 . S
H405 C415 0.930 . S
C406 H400 0.930 . S
C406 C407 1.355 . S
C406 C408 1.415 . S
C407 C406 1.355 . S
C407 C409 1.419 . S
C408 C406 1.415 . S
C408 C413 1.425 . S
C408 C415 1.409 . S
C409 H401 0.930 . S
C409 C407 1.419 . S
C409 C410 1.362 . S
C410 H402 0.930 . S
C410 C409 1.362 . S
C410 C413 1.409 . S
C411 H403 0.930 . S
C411 C412 1.355 . S
C411 C413 1.415 . S
C412 C411 1.355 . S
C412 C414 1.419 . S
C413 C408 1.425 . S
C413 C410 1.409 . S
C413 C411 1.415 . S
C414 H404 0.930 . S
C414 C412 1.419 . S
C414 C415 1.362 . S
C415 H405 0.930 . S
C415 C408 1.409 . S
C415 C414 1.362 . S
H416 C422 0.930 . S
H417 C425 0.930 . S
H418 C426 0.930 . S
H419 C427 0.930 . S
H420 C430 0.930 . S
H421 C431 0.930 . S
C422 H416 0.930 . S
C422 C423 1.355 . S
C422 C424 1.415 . S
C423 C422 1.355 . S
C423 C425 1.419 . S
C424 C422 1.415 . S
C424 C429 1.425 . S
C424 C431 1.409 . S
C425 H417 0.930 . S
C425 C423 1.419 . S
C425 C426 1.362 . S
C426 H418 0.930 . S
C426 C425 1.362 . S
C426 C429 1.409 . S
C427 H419 0.930 . S
C427 C428 1.355 . S
C427 C429 1.415 . S
C428 C427 1.355 . S
C428 C430 1.419 . S
C429 C424 1.425 . S
C429 C426 1.409 . S
C429 C427 1.415 . S
C430 H420 0.930 . S
C430 C428 1.419 . S
C430 C431 1.362 . S
C431 H421 0.930 . S
C431 C424 1.409 . S
C431 C430 1.362 . S
H432 C438 0.930 . S
H433 C441 0.930 . S
H434 C442 0.930 . S
H435 C443 0.930 . S
H436 C446 0.930 . S
H437 C447 0.930 . S
C438 H432 0.930 . S
C438 C439 1.355 . S
C438 C440 1.415 . S
C439 C438 1.355 . S
C439 C441 1.419 . S
C440 C438 1.415 . S
C440 C445 1.425 . S
C440 C447 1.409 . S
C441 H433 0.930 . S
C441 C439 1.419 . S
C441 C442 1.362 . S
C442 H434 0.930 . S
C442 C441 1.362 . S
C442 C445 1.409 . S
C443 H435 0.930 . S
C443 C444 1.355 . S
C443 C445 1.415 . S
C444 C443 1.355 . S
C444 C446 1.419 . S
C445 C440 1.425 . S
C445 C442 1.409 . S
C445 C443 1.415 . S
C446 H436 0.930 . S
C446 C444 1.419 . S
C446 C447 1.362 . S
C447 H437 0.930 . S
C447 C440 1.409 . S
C447 C446 1.362 . S
H448 C454 0.930 . S
H449 C457 0.930 . S
H450 C458 0.930 . S
H451 C459 0.930 . S
H452 C462 0.930 . S
H453 C463 0.930 . S
C454 H448 0.930 . S
C454 C455 1.355 . S
C454 C456 1.415 . S
C455 C454 1.355 . S
C455 C457 1.419 . S
C456 C454 1.415 . S
C456 C461 1.425 . S
C456 C463 1.409 . S
C457 H449 0.930 . S
C457 C455 1.419 . S
C457 C458 1.362 . S
C458 H450 0.930 . S
C458 C457 1.362 . S
C458 C461 1.409 . S
C459 H451 0.930 . S
C459 C460 1.355 . S
C459 C461 1.415 . S
C460 C459 1.355 . S
C460 C462 1.419 . S
C461 C456 1.425 . S
C461 C458 1.409 . S
C461 C459 1.415 . S
C462 H452 0.930 . S
C462 C460 1.419 . S
C462 C463 1.362 . S
C463 H453 0.930 . S
C463 C456 1.409 . S
C463 C462 1.362 . S
H464 C470 0.930 . S
H465 C473 0.930 . S
H466 C474 0.930 . S
H467 C475 0.930 . S
H468 C478 0.930 . S
H469 C479 0.930 . S
C470 H464 0.930 . S
C470 C471 1.355 . S
C470 C472 1.415 . S
C471 C470 1.355 . S
C471 C473 1.419 . S
C472 C470 1.415 . S
C472 C477 1.425 . S
C472 C479 1.409 . S
C473 H465 0.930 . S
C473 C471 1.419 . S
C473 C474 1.362 . S
C474 H466 0.930 . S
C474 C473 1.362 . S
C474 C477 1.409 . S
C475 H467 0.930 . S
C475 C476 1.355 . S
C475 C477 1.415 . S
C476 C475 1.355 . S
C476 C478 1.419 . S
C477 C472 1.425 . S
C477 C474 1.409 . S
C477 C475 1.415 . S
C478 H468 0.930 . S
C478 C476 1.419 . S
C478 C479 1.362 . S
C479 H469 0.930 . S
C479 C472 1.409 . S
C479 C478 1.362 . S
H480 C486 0.930 . S
H481 C489 0.930 . S
H482 C490 0.930 . S
H483 C491 0.930 . S
H484 C494 0.930 . S
H485 C495 0.930 . S
C486 H480 0.930 . S
C486 C487 1.355 . S
C486 C488 1.415 . S
C487 C486 1.355 . S
C487 C489 1.419 . S
C488 C486 1.415 . S
C488 C493 1.425 . S
C488 C495 1.409 . S
C489 H481 0.930 . S
C489 C487 1.419 . S
C489 C490 1.362 . S
C490 H482 0.930 . S
C490 C489 1.362 . S
C490 C493 1.409 . S
C491 H483 0.930 . S
C491 C492 1.355 . S
C491 C493 1.415 . S
C492 C491 1.355 . S
C492 C494 1.419 . S
C493 C488 1.425 . S
C493 C490 1.409 . S
C493 C491 1.415 . S
C494 H484 0.930 . S
C494 C492 1.419 . S
C494 C495 1.362 . S
C495 H485 0.930 . S
C495 C488 1.409 . S
C495 C494 1.362 . S
H496 C502 0.930 . S
H497 C505 0.930 . S
H498 C506 0.930 . S
H499 C507 0.930 . S
H500 C510 0.930 . S
H501 C511 0.930 . S
C502 H496 0.930 . S
C502 C503 1.355 . S
C502 C504 1.415 . S
C503 C502 1.355 . S
C503 C505 1.419 . S
C504 C502 1.415 . S
C504 C509 1.425 . S
C504 C511 1.409 . S
C505 H497 0.930 . S
C505 C503 1.419 . S
C505 C506 1.362 . S
C506 H498 0.930 . S
C506 C505 1.362 . S
C506 C509 1.409 . S
C507 H499 0.930 . S
C507 C508 1.355 . S
C507 C509 1.415 . S
C508 C507 1.355 . S
C508 C510 1.419 . S
C509 C504 1.425 . S
C509 C506 1.409 . S
C509 C507 1.415 . S
C510 H500 0.930 . S
C510 C508 1.419 . S
C510 C511 1.362 . S
C511 H501 0.930 . S
C511 C504 1.409 . S
C511 C510 1.362 . S
H512 C518 0.930 . S
H513 C521 0.930 . S
H514 C522 0.930 . S
H515 C523 0.930 . S
H516 C526 0.930 . S
H517 C527 0.930 . S
C518 H512 0.930 . S
C518 C519 1.355 . S
C518 C520 1.415 . S
C519 C518 1.355 . S
C519 C521 1.419 . S
C520 C518 1.415 . S
C520 C525 1.425 . S
C520 C527 1.409 . S
C521 H513 0.930 . S
C521 C519 1.419 . S
C521 C522 1.362 . S
C522 H514 0.930 . S
C522 C521 1.362 . S
C522 C525 1.409 . S
C523 H515 0.930 . S
C523 C524 1.355 . S
C523 C525 1.415 . S
C524 C523 1.355 . S
C524 C526 1.419 . S
C525 C520 1.425 . S
C525 C522 1.409 . S
C525 C523 1.415 . S
C526 H516 0.930 . S
C526 C524 1.419 . S
C526 C527 1.362 . S
C527 H517 0.930 . S
C527 C520 1.409 . S
C527 C526 1.362 . S
H528 C534 0.930 . S
H529 C537 0.930 . S
H530 C538 0.930 . S
H531 C539 0.930 . S
H532 C542 0.930 . S
H533 C543 0.930 . S
C534 H528 0.930 . S
C534 C535 1.355 . S
C534 C536 1.415 . S
C535 C534 1.355 . S
C535 C537 1.419 . S
C536 C534 1.415 . S
C536 C541 1.425 . S
C536 C543 1.409 . S
C537 H529 0.930 . S
C537 C535 1.419 . S
C537 C538 1.362 . S
C538 H530 0.930 . S
C538 C537 1.362 . S
C538 C541 1.409 . S
C539 H531 0.930 . S
C539 C540 1.355 . S
C539 C541 1.415 . S
C540 C539 1.355 . S
C540 C542 1.419 . S
C541 C536 1.425 . S
C541 C538 1.409 . S
C541 C539 1.415 . S
C542 H532 0.930 . S
C542 C540 1.419 . S
C542 C543 1.362 . S
C543 H533 0.930 . S
C543 C536 1.409 . S
C543 C542 1.362 . S
H544 C550 0.930 . S
H545 C553 0.930 . S
H546 C554 0.930 . S
H547 C555 0.930 . S
H548 C558 0.930 . S
H549 C559 0.930 . S
C550 H544 0.930 . S
C550 C551 1.355 . S
C550 C552 1.415 . S
C551 C550 1.355 . S
C551 C553 1.419 . S
C552 C550 1.415 . S
C552 C557 1.425 . S
C552 C559 1.409 . S
C553 H545 0.930 . S
C553 C551 1.419 . S
C553 C554 1.362 . S
C554 H546 0.930 . S
C554 C553 1.362 . S
C554 C557 1.409 . S
C555 H547 0.930 . S
C555 C556 1.355 . S
C555 C557 1.415 . S
C556 C555 1.355 . S
C556 C558 1.419 . S
C557 C552 1.425 . S
C557 C554 1.409 . S
C557 C555 1.415 . S
C558 H548 0.930 . S
C558 C556 1.419 . S
C558 C559 1.362 . S
C559 H549 0.930 . S
C559 C552 1.409 . S
C559 C558 1.362 . S
H560 C566 0.930 . S
H561 C569 0.930 . S
H562 C570 0.930 . S
H563 C571 0.930 . S
H564 C574 0.930 . S
H565 C575 0.930 . S
C566 H560 0.930 . S
C566 C567 1.355 . S
C566 C568 1.415 . S
C567 C566 1.355 . S
C567 C569 1.419 . S
C568 C566 1.415 . S
C568 C573 1.425 . S
C568 C575 1.409 . S
C569 H561 0.930 . S
C569 C567 1.419 . S
C569 C570 1.362 . S
C570 H562 0.930 . S
C570 C569 1.362 . S
C570 C573 1.409 . S
C571 H563 0.930 . S
C571 C572 1.355 . S
C571 C573 1.415 . S
C572 C571 1.355 . S
C572 C574 1.419 . S
C573 C568 1.425 . S
C573 C570 1.409 . S
C573 C571 1.415 . S
C574 H564 0.930 . S
C574 C572 1.419 . S
C574 C575 1.362 . S
C575 H565 0.930 . S
C575 C568 1.409 . S
C575 C574 1.362 . S
H576 C582 0.930 . S
H577 C585 0.930 . S
H578 C586 0.930 . S
H579 C587 0.930 . S
H580 C590 0.930 . S
H581 C591 0.930 . S
C582 H576 0.930 . S
C582 C583 1.355 1_455 S
C582 C584 1.415 . S
C583 C582 1.355 1_655 S
C583 C585 1.419 1_545 S
C584 C582 1.415 . S
C584 C589 1.425 1_446 S
C584 C591 1.409 1_556 S
C585 H577 0.930 . S
C585 C583 1.419 1_565 S
C585 C586 1.362 . S
C586 H578 0.930 . S
C586 C585 1.362 . S
C586 C589 1.409 1_556 S
C587 H579 0.930 . S
C587 C588 1.355 1_655 S
C587 C589 1.415 . S
C588 C587 1.355 1_455 S
C588 C590 1.419 1_565 S
C589 C584 1.425 1_664 S
C589 C586 1.409 1_554 S
C589 C587 1.415 . S
C590 H580 0.930 . S
C590 C588 1.419 1_545 S
C590 C591 1.362 . S
C591 H581 0.930 . S
C591 C584 1.409 1_554 S
C591 C590 1.362 . S
H592 C598 0.930 . S
H593 C601 0.930 . S
H594 C602 0.930 . S
H595 C603 0.930 . S
H596 C606 0.930 . S
H597 C607 0.930 . S
C598 H592 0.930 . S
C598 C599 1.355 . S
C598 C600 1.415 . S
C599 C598 1.355 . S
C599 C601 1.419 . S
C600 C598 1.415 . S
C600 C605 1.425 . S
C600 C607 1.409 . S
C601 H593 0.930 . S
C601 C599 1.419 . S
C601 C602 1.362 . S
C602 H594 0.930 . S
C602 C601 1.362 . S
C602 C605 1.409 . S
C603 H595 0.930 . S
C603 C604 1.355 . S
C603 C605 1.415 . S
C604 C603 1.355 . S
C604 C606 1.419 . S
C605 C600 1.425 . S
C605 C602 1.409 . S
C605 C603 1.415 . S
C606 H596 0.930 . S
C606 C604 1.419 . S
C606 C607 1.362 . S
C607 H597 0.930 . S
C607 C600 1.409 . S
C607 C606 1.362 . S
H608 C614 0.930 . S
H609 C617 0.930 . S
H610 C618 0.930 . S
H611 C619 0.930 . S
H612 C622 0.930 . S
H613 C623 0.930 . S
C614 H608 0.930 . S
C614 C615 1.355 1_565 S
C614 C616 1.415 . S
C615 C614 1.355 1_545 S
C615 C617 1.419 . S
C616 C614 1.415 . S
C616 C621 1.425 1_565 S
C616 C623 1.409 . S
C617 H609 0.930 . S
C617 C615 1.419 . S
C617 C618 1.362 . S
C618 H610 0.930 . S
C618 C617 1.362 . S
C618 C621 1.409 . S
C619 H611 0.930 . S
C619 C620 1.355 1_545 S
C619 C621 1.415 . S
C620 C619 1.355 1_565 S
C620 C622 1.419 . S
C621 C616 1.425 1_545 S
C621 C618 1.409 . S
C621 C619 1.415 . S
C622 H612 0.930 . S
C622 C620 1.419 . S
C622 C623 1.362 . S
C623 H613 0.930 . S
C623 C616 1.409 . S
C623 C622 1.362 . S
H624 C630 0.930 . S
H625 C633 0.930 . S
H626 C634 0.930 . S
H627 C635 0.930 . S
H628 C638 0.930 . S
H629 C639 0.930 . S
C630 H624 0.930 . S
C630 C631 1.355 . S
C630 C632 1.415 . S
C631 C630 1.355 . S
C631 C633 1.419 . S
C632 C630 1.415 . S
C632 C637 1.425 . S
C632 C639 1.409 . S
C633 H625 0.930 . S
C633 C631 1.419 . S
C633 C634 1.362 . S
C634 H626 0.930 . S
C634 C633 1.362 . S
C634 C637 1.409 . S
C635 H627 0.930 . S
C635 C636 1.355 . S
C635 C637 1.415 . S
C636 C635 1.355 . S
C636 C638 1.419 . S
C637 C632 1.425 . S
C637 C634 1.409 . S
C637 C635 1.415 . S
C638 H628 0.930 . S
C638 C636 1.419 . S
C638 C639 1.362 . S
C639 H629 0.930 . S
C639 C632 1.409 . S
C639 C638 1.362 . S
H640 C646 0.930 . S
H641 C649 0.930 . S
H642 C650 0.930 . S
H643 C651 0.930 . S
H644 C654 0.930 . S
H645 C655 0.930 . S
C646 H640 0.930 . S
C646 C647 1.355 . S
C646 C648 1.415 . S
C647 C646 1.355 . S
C647 C649 1.419 . S
C648 C646 1.415 . S
C648 C653 1.425 . S
C648 C655 1.409 . S
C649 H641 0.930 . S
C649 C647 1.419 . S
C649 C650 1.362 . S
C650 H642 0.930 . S
C650 C649 1.362 . S
C650 C653 1.409 . S
C651 H643 0.930 . S
C651 C652 1.355 . S
C651 C653 1.415 . S
C652 C651 1.355 . S
C652 C654 1.419 . S
C653 C648 1.425 . S
C653 C650 1.409 . S
C653 C651 1.415 . S
C654 H644 0.930 . S
C654 C652 1.419 . S
C654 C655 1.362 . S
C655 H645 0.930 . S
C655 C648 1.409 . S
C655 C654 1.362 . S
H656 C662 0.930 . S
H657 C665 0.930 . S
H658 C666 0.930 . S
H659 C667 0.930 . S
H660 C670 0.930 . S
H661 C671 0.930 . S
C662 H656 0.930 . S
C662 C663 1.355 . S
C662 C664 1.415 . S
C663 C662 1.355 . S
C663 C665 1.419 . S
C664 C662 1.415 . S
C664 C669 1.425 . S
C664 C671 1.409 . S
C665 H657 0.930 . S
C665 C663 1.419 . S
C665 C666 1.362 . S
C666 H658 0.930 . S
C666 C665 1.362 . S
C666 C669 1.409 . S
C667 H659 0.930 . S
C667 C668 1.355 . S
C667 C669 1.415 . S
C668 C667 1.355 . S
C668 C670 1.419 . S
C669 C664 1.425 . S
C669 C666 1.409 . S
C669 C667 1.415 . S
C670 H660 0.930 . S
C670 C668 1.419 . S
C670 C671 1.362 . S
C671 H661 0.930 . S
C671 C664 1.409 . S
C671 C670 1.362 . S
H672 C678 0.930 . S
H673 C681 0.930 . S
H674 C682 0.930 . S
H675 C683 0.930 . S
H676 C686 0.930 . S
H677 C687 0.930 . S
C678 H672 0.930 . S
C678 C679 1.355 . S
C678 C680 1.415 . S
C679 C678 1.355 . S
C679 C681 1.419 . S
C680 C678 1.415 . S
C680 C685 1.425 . S
C680 C687 1.409 . S
C681 H673 0.930 . S
C681 C679 1.419 . S
C681 C682 1.362 . S
C682 H674 0.930 . S
C682 C681 1.362 . S
C682 C685 1.409 . S
C683 H675 0.930 . S
C683 C684 1.355 . S
C683 C685 1.415 . S
C684 C683 1.355 . S
C684 C686 1.419 . S
C685 C680 1.425 . S
C685 C682 1.409 . S
C685 C683 1.415 . S
C686 H676 0.930 . S
C686 C684 1.419 . S
C686 C687 1.362 . S
C687 H677 0.930 . S
C687 C680 1.409 . S
C687 C686 1.362 . S
H688 C694 0.930 . S
H689 C697 0.930 . S
H690 C698 0.930 . S
H691 C699 0.930 . S
H692 C702 0.930 . S
H693 C703 0.930 . S
C694 H688 0.930 . S
C694 C695 1.355 1_455 S
C694 C696 1.415 . S
C695 C694 1.355 1_655 S
C695 C697 1.419 . S
C696 C694 1.415 . S
C696 C701 1.425 1_456 S
C696 C703 1.409 1_556 S
C697 H689 0.930 . S
C697 C695 1.419 . S
C697 C698 1.362 . S
C698 H690 0.930 . S
C698 C697 1.362 . S
C698 C701 1.409 1_556 S
C699 H691 0.930 . S
C699 C700 1.355 1_655 S
C699 C701 1.415 . S
C700 C699 1.355 1_455 S
C700 C702 1.419 . S
C701 C696 1.425 1_654 S
C701 C698 1.409 1_554 S
C701 C699 1.415 . S
C702 H692 0.930 . S
C702 C700 1.419 . S
C702 C703 1.362 . S
C703 H693 0.930 . S
C703 C696 1.409 1_554 S
C703 C702 1.362 . S
C327 C10 1.997 . S
C332 C130 1.997 . S
C343 C9 1.543 . S
C348 C50 1.550 . S
C359 C49 0.945 . S
C364 C89 0.925 . S
C375 C90 1.524 . S
C380 C129 1.492 . S
C391 C19 1.996 . S
C396 C219 2.004 . S
C407 C18 1.544 . S
C412 C179 1.552 . S
C423 C178 0.984 . S
C428 C98 0.924 . S
C439 C218 1.535 . S
C444 C99 1.547 . S
C455 C250 1.999 . S
C460 C210 2.010 . S
C471 C170 1.539 . S
C476 C249 1.514 . S
C487 C289 0.991 . S
C492 C169 0.954 . S
C503 C209 1.544 . S
C508 C290 1.553 . S
C519 C139 2.006 . S
C524 C259 1.994 . S
C535 C258 1.538 . S
C540 C59 1.548 . S
C551 C58 0.919 . S
C556 C298 0.967 . S
C567 C138 1.495 . S
C572 C299 1.523 . S
C583 C15 1.694 . S
C588 C6 1.694 . S
C599 C46 1.427 . S
C604 C55 1.427 . S
C615 C95 1.411 . S
C620 C86 1.411 . S
C631 C135 1.666 . S
C636 C126 1.666 . S
C647 C166 1.432 . S
C652 C175 1.432 . S
C663 C215 1.734 . S
C668 C206 1.734 . S
C679 C246 1.663 . S
C684 C255 1.663 . S
C695 C286 1.447 . S
C700 C295 1.447 . S
