# Generated by pormake.
# Topology snk, (6)-cn, num edge types: 1
# Building blocks:
#     Node 0, Type 0, BuildingBlock: GEDQOX_clean_sbu_0, # of connection points: 6
#     Node 1, Type 0, BuildingBlock: GEDQOX_clean_sbu_0, # of connection points: 6
#     Node 2, Type 0, BuildingBlock: GEDQOX_clean_sbu_0, # of connection points: 6
#     Node 3, Type 0, BuildingBlock: GEDQOX_clean_sbu_0, # of connection points: 6
#     Node 4, Type 0, BuildingBlock: GEDQOX_clean_sbu_0, # of connection points: 6
#     Node 5, Type 0, BuildingBlock: GEDQOX_clean_sbu_0, # of connection points: 6
#     Node 6, Type 0, BuildingBlock: GEDQOX_clean_sbu_0, # of connection points: 6
#     Node 7, Type 0, BuildingBlock: GEDQOX_clean_sbu_0, # of connection points: 6
#     Edge 8, Type (0, 0), BuildingBlock: EZIPEK_clean_linker_0, # of connection points: 2
#     Edge 9, Type (0, 0), BuildingBlock: EZIPEK_clean_linker_0, # of connection points: 2
#     Edge 10, Type (0, 0), BuildingBlock: EZIPEK_clean_linker_0, # of connection points: 2
#     Edge 11, Type (0, 0), BuildingBlock: EZIPEK_clean_linker_0, # of connection points: 2
#     Edge 12, Type (0, 0), BuildingBlock: EZIPEK_clean_linker_0, # of connection points: 2
#     Edge 13, Type (0, 0), BuildingBlock: EZIPEK_clean_linker_0, # of connection points: 2
#     Edge 14, Type (0, 0), BuildingBlock: EZIPEK_clean_linker_0, # of connection points: 2
#     Edge 15, Type (0, 0), BuildingBlock: EZIPEK_clean_linker_0, # of connection points: 2
#     Edge 16, Type (0, 0), BuildingBlock: EZIPEK_clean_linker_0, # of connection points: 2
#     Edge 17, Type (0, 0), BuildingBlock: EZIPEK_clean_linker_0, # of connection points: 2
#     Edge 18, Type (0, 0), BuildingBlock: EZIPEK_clean_linker_0, # of connection points: 2
#     Edge 19, Type (0, 0), BuildingBlock: EZIPEK_clean_linker_0, # of connection points: 2
#     Edge 20, Type (0, 0), BuildingBlock: EZIPEK_clean_linker_0, # of connection points: 2
#     Edge 21, Type (0, 0), BuildingBlock: EZIPEK_clean_linker_0, # of connection points: 2
#     Edge 22, Type (0, 0), BuildingBlock: EZIPEK_clean_linker_0, # of connection points: 2
#     Edge 23, Type (0, 0), BuildingBlock: EZIPEK_clean_linker_0, # of connection points: 2
#     Edge 24, Type (0, 0), BuildingBlock: EZIPEK_clean_linker_0, # of connection points: 2
#     Edge 25, Type (0, 0), BuildingBlock: EZIPEK_clean_linker_0, # of connection points: 2
#     Edge 26, Type (0, 0), BuildingBlock: EZIPEK_clean_linker_0, # of connection points: 2
#     Edge 27, Type (0, 0), BuildingBlock: EZIPEK_clean_linker_0, # of connection points: 2
#     Edge 28, Type (0, 0), BuildingBlock: EZIPEK_clean_linker_0, # of connection points: 2
#     Edge 29, Type (0, 0), BuildingBlock: EZIPEK_clean_linker_0, # of connection points: 2
#     Edge 30, Type (0, 0), BuildingBlock: EZIPEK_clean_linker_0, # of connection points: 2
#     Edge 31, Type (0, 0), BuildingBlock: EZIPEK_clean_linker_0, # of connection points: 2
# Relax obj value: 0.115
# Max RMSD: 0.189
# Mean RMSD: 0.189
data_MOF--net-snk--node1-GEDQOX_clean_sbu_0--edge1-EZIPEK_clean_linker_0
_symmetry_space_group_name_H-M    P1
_symmetry_Int_Tables_number       1
_symmetry_cell_setting            triclinic
loop_
_symmetry_equiv_pos_as_xyz
'x, y, z'
_cell_length_a     45.547693
_cell_length_b     46.02848
_cell_length_c     11.584741
_cell_angle_alpha  90.028737
_cell_angle_beta   90.406649
_cell_angle_gamma 89.960983
loop_
_atom_site_label
_atom_site_type_symbol
_atom_site_fract_x
_atom_site_fract_y
_atom_site_fract_z
_atom_type_partial_charge
Nd0 Nd 0.04306 0.03841 0.53097 0.0
Nd1 Nd 0.99387 0.9888 0.52217 0.0
C2 C 0.06829 0.09023 0.5203 0.0
C3 C 0.09347 0.10649 0.47031 0.0
C4 C 0.09008 0.12265 0.36775 0.0
C5 C 0.1129 0.14033 0.32729 0.0
C6 C 0.13951 0.14227 0.38879 0.0
C7 C 0.14311 0.1259 0.49007 0.0
C8 C 0.12037 0.10826 0.53052 0.0
C9 C 0.07005 0.98469 0.54065 0.0
C10 C 0.02344 1.00982 0.27852 0.0
C11 C 0.95917 0.94279 0.53812 0.0
C12 C 0.94279 0.92071 0.6053 0.0
C13 C 0.94422 0.89141 0.57173 0.0
C14 C 0.9236 0.87131 0.61223 0.0
C15 C 0.90102 0.88023 0.68638 0.0
C16 C 0.90089 0.90898 0.72693 0.0
C17 C 0.92161 0.92904 0.68701 0.0
C18 C 0.97411 0.04441 0.48203 0.0
C19 C 1.01736 0.01327 0.77479 0.0
O20 O 0.04688 0.08213 0.451 0.0
O21 O 0.07398 0.07112 0.60144 0.0
O22 O 0.08438 1.0091 0.542 0.0
O23 O 0.04289 0.98988 0.53091 0.0
O24 O 0.03962 0.02869 0.33679 0.0
O25 O 1.00589 0.99102 0.33034 0.0
O26 O 0.98757 0.94036 0.52153 0.0
O27 O 0.95012 0.96972 0.54406 0.0
O28 O 0.9635 0.02141 0.43249 0.0
O29 O 0.99365 0.03743 0.55566 0.0
O30 O 1.00129 0.99402 0.71764 0.0
O31 O 0.03291 0.03374 0.72325 0.0
H32 H 0.06953 0.12217 0.3201 0.0
H33 H 0.10962 0.15296 0.24939 0.0
H34 H 0.1634 0.12723 0.53916 0.0
H35 H 0.12368 0.09654 0.6106 0.0
H36 H 0.96007 0.88444 0.5081 0.0
H37 H 0.92403 0.84926 0.57955 0.0
H38 H 0.88364 0.91634 0.78383 0.0
H39 H 0.91983 0.95146 0.71452 0.0
Nd40 Nd 0.23913 0.78452 0.77958 0.0
Nd41 Nd 0.29492 0.74291 0.78134 0.0
C42 C 0.18466 0.80507 0.76895 0.0
C43 C 0.16772 0.83067 0.7292 0.0
C44 C 0.13764 0.82766 0.70456 0.0
C45 C 0.1208 0.85175 0.67078 0.0
C46 C 0.1338 0.87927 0.66089 0.0
C47 C 0.164 0.88225 0.68413 0.0
C48 C 0.18086 0.85812 0.71783 0.0
C49 C 0.29027 0.818 0.77244 0.0
C50 C 0.26932 0.76611 0.53829 0.0
C51 C 0.34748 0.71863 0.80611 0.0
C52 C 0.36399 0.69436 0.86041 0.0
C53 C 0.39156 0.69995 0.91096 0.0
C54 C 0.40956 0.67706 0.94834 0.0
C55 C 0.40034 0.64812 0.93561 0.0
C56 C 0.37224 0.64251 0.89001 0.0
C57 C 0.35419 0.66543 0.85273 0.0
C58 C 0.24178 0.71518 0.74932 0.0
C59 C 0.26601 0.76226 0.03086 0.0
O60 O 0.19603 0.7884 0.68934 0.0
O61 O 0.20213 0.80864 0.85809 0.0
O62 O 0.2639 0.82853 0.7628 0.0
O63 O 0.28802 0.79076 0.77377 0.0
O64 O 0.24412 0.76867 0.59275 0.0
O65 O 0.29395 0.76281 0.59795 0.0
O66 O 0.33815 0.73971 0.87238 0.0
O67 O 0.3291 0.71226 0.72245 0.0
O68 O 0.26648 0.70576 0.70825 0.0
O69 O 0.24634 0.73673 0.8151 0.0
O70 O 0.28477 0.74537 0.97546 0.0
O71 O 0.24667 0.77873 0.97522 0.0
H72 H 0.12707 0.80669 0.71274 0.0
H73 H 0.09756 0.84901 0.65362 0.0
H74 H 0.17443 0.90331 0.67722 0.0
H75 H 0.20404 0.86095 0.7361 0.0
H76 H 0.39967 0.72202 0.91735 0.0
H77 H 0.43121 0.68183 0.98272 0.0
H78 H 0.36477 0.62034 0.87899 0.0
H79 H 0.33305 0.66043 0.8142 0.0
Nd80 Nd 0.49614 0.98419 0.04865 0.0
Nd81 Nd 0.54073 0.03658 0.04287 0.0
C82 C 0.46848 0.93351 1.02785 0.0
C83 C 0.44248 0.91968 0.97179 0.0
C84 C 0.44606 0.895 0.90248 0.0
C85 C 0.42167 0.88056 0.85466 0.0
C86 C 0.3926 0.89102 0.86936 0.0
C87 C 0.3895 0.91438 0.94856 0.0
C88 C 0.41382 0.92886 0.99593 0.0
C89 C 0.47008 0.03813 0.07229 0.0
C90 C 0.51577 1.0111 0.79722 0.0
C91 C 0.56721 0.08792 0.06003 0.0
C92 C 0.59214 0.10439 0.11163 0.0
C93 C 0.58689 0.13164 0.16244 0.0
C94 C 0.61031 0.14961 0.19624 0.0
C95 C 0.63946 0.14067 0.17958 0.0
C96 C 0.64479 0.113 0.1329 0.0
C97 C 0.62138 0.09499 0.09941 0.0
C98 C 0.56685 0.98265 1.01866 0.0
C99 C 0.52139 1.00943 0.29433 0.0
O100 O 0.49051 0.94109 0.96237 0.0
O101 O 0.46364 0.95218 0.11072 0.0
O102 O 0.45819 0.01385 0.10409 0.0
O103 O 0.4921 0.03246 1.00994 0.0
O104 O 0.50314 0.98966 0.85385 0.0
O105 O 0.52757 0.03376 0.85069 0.0
O106 O 0.54538 0.08021 0.12627 0.0
O107 O 0.57324 0.06853 0.9811 0.0
O108 O 0.57867 1.00698 0.98693 0.0
O109 O 0.54486 0.98828 0.08134 0.0
O110 O 0.5341 0.03085 0.23781 0.0
O111 O 0.50944 0.98683 0.24077 0.0
H112 H 0.46782 0.88626 0.88786 0.0
H113 H 0.42622 0.86048 0.81036 0.0
H114 H 0.3684 0.92133 0.97965 0.0
H115 H 0.41001 0.94683 0.05439 0.0
H116 H 0.56462 0.13954 0.17189 0.0
H117 H 0.60571 0.17094 0.2313 0.0
H118 H 0.66711 0.10574 0.11879 0.0
H119 H 0.62622 0.07418 0.06025 0.0
Nd120 Nd 0.29726 0.23959 0.28918 0.0
Nd121 Nd 0.24095 0.28668 0.28865 0.0
C122 C 0.35058 0.21639 0.28068 0.0
C123 C 0.36776 0.19151 0.23548 0.0
C124 C 0.39814 0.1947 0.2198 0.0
C125 C 0.41551 0.17098 0.18678 0.0
C126 C 0.40281 0.14355 0.1684 0.0
C127 C 0.37224 0.1405 0.18085 0.0
C128 C 0.35484 0.16427 0.21409 0.0
C129 C 0.24284 0.21176 0.29258 0.0
C130 C 0.26616 0.25936 0.04173 0.0
C131 C 0.18783 0.31033 0.29625 0.0
C132 C 0.17118 0.33561 0.34107 0.0
C133 C 0.14123 0.33239 0.36653 0.0
C134 C 0.12438 0.35632 0.40143 0.0
C135 C 0.13718 0.38396 0.41167 0.0
C136 C 0.16727 0.38713 0.38823 0.0
C137 C 0.18415 0.36316 0.35335 0.0
C138 C 0.29547 0.31433 0.28604 0.0
C139 C 0.2719 0.26703 0.53615 0.0
O140 O 0.3411 0.23581 0.20645 0.0
O141 O 0.33174 0.21103 0.36312 0.0
O142 O 0.26778 0.19796 0.29063 0.0
O143 O 0.24829 0.23859 0.28873 0.0
O144 O 0.28919 0.24764 0.09512 0.0
O145 O 0.24379 0.27148 0.09758 0.0
O146 O 0.19711 0.29094 0.37105 0.0
O147 O 0.20666 0.3152 0.2133 0.0
O148 O 0.27061 0.32826 0.28821 0.0
O149 O 0.28988 0.28757 0.28923 0.0
O150 O 0.24891 0.27874 0.48257 0.0
O151 O 0.29427 0.25479 0.48049 0.0
H152 H 0.40861 0.21545 0.23606 0.0
H153 H 0.43901 0.17383 0.1786 0.0
H154 H 0.36199 0.11951 0.1678 0.0
H155 H 0.33147 0.16124 0.22561 0.0
H156 H 0.13072 0.3114 0.35736 0.0
H157 H 0.10123 0.35338 0.41869 0.0
H158 H 0.17758 0.40826 0.39539 0.0
H159 H 0.20719 0.36625 0.33428 0.0
Nd160 Nd 0.7423 0.28259 0.27016 0.0
Nd161 Nd 0.79574 0.24317 0.26835 0.0
C162 C 0.69061 0.30867 0.24204 0.0
C163 C 0.67457 0.33283 0.1844 0.0
C164 C 0.64877 0.32674 0.12154 0.0
C165 C 0.63069 0.3493 0.08141 0.0
C166 C 0.638 0.3784 0.10393 0.0
C167 C 0.66446 0.38461 0.16191 0.0
C168 C 0.6826 0.36206 0.2018 0.0
C169 C 0.79501 0.31218 0.29206 0.0
C170 C 0.77182 0.26486 1.0215 0.0
C171 C 0.84776 0.21759 0.2946 0.0
C172 C 0.86443 0.19316 0.34738 0.0
C173 C 0.89013 0.19902 0.41132 0.0
C174 C 0.90875 0.17639 0.44692 0.0
C175 C 0.902 0.14747 0.41893 0.0
C176 C 0.87578 0.14145 0.359 0.0
C177 C 0.85713 0.16404 0.32368 0.0
C178 C 0.74293 0.21355 0.24747 0.0
C179 C 0.76603 0.26079 0.51708 0.0
O180 O 0.699 0.28651 0.17964 0.0
O181 O 0.70941 0.31524 0.32374 0.0
O182 O 0.77065 0.32038 0.33879 0.0
O183 O 0.7905 0.29065 0.22663 0.0
O184 O 0.74743 0.27169 0.07629 0.0
O185 O 0.79616 0.25875 0.0794 0.0
O186 O 0.83874 0.23875 0.36095 0.0
O187 O 0.82925 0.21159 0.21124 0.0
O188 O 0.76725 0.20528 0.20056 0.0
O189 O 0.74759 0.23509 0.31263 0.0
O190 O 0.79049 0.25405 0.46233 0.0
O191 O 0.74171 0.26692 0.45903 0.0
H192 H 0.64195 0.30446 0.10759 0.0
H193 H 0.61033 0.34404 0.03727 0.0
H194 H 0.67045 0.40691 0.18047 0.0
H195 H 0.70229 0.36753 0.25001 0.0
H196 H 0.89642 0.22125 0.42982 0.0
H197 H 0.92896 0.18149 0.49239 0.0
H198 H 0.87026 0.11929 0.33608 0.0
H199 H 0.83759 0.15874 0.27421 0.0
Nd200 Nd 0.79632 0.74238 0.7879 0.0
Nd201 Nd 0.74253 0.78229 0.78354 0.0
C202 C 0.84825 0.71643 0.76395 0.0
C203 C 0.86468 0.69178 0.71237 0.0
C204 C 0.89316 0.69652 0.67016 0.0
C205 C 0.91085 0.67313 0.63573 0.0
C206 C 0.90037 0.6445 0.64282 0.0
C207 C 0.87155 0.63978 0.68125 0.0
C208 C 0.85384 0.66318 0.71561 0.0
C209 C 0.74347 0.71305 0.80454 0.0
C210 C 0.76654 0.76029 0.53824 0.0
C211 C 0.69059 0.80837 0.8042 0.0
C212 C 0.67323 0.83196 0.85874 0.0
C213 C 0.64312 0.82759 0.87791 0.0
C214 C 0.62505 0.85063 0.91284 0.0
C215 C 0.63674 0.87856 0.92972 0.0
C216 C 0.66713 0.8827 0.91533 0.0
C217 C 0.68521 0.85963 0.88003 0.0
C218 C 0.79558 0.8112 0.76296 0.0
C219 C 0.77265 0.76486 0.0342 0.0
O220 O 0.83923 0.73751 0.6968 0.0
O221 O 0.82972 0.71056 0.8463 0.0
O222 O 0.76773 0.70449 0.85218 0.0
O223 O 0.74807 0.73479 0.74081 0.0
O224 O 0.79113 0.75403 0.59437 0.0
O225 O 0.74215 0.7661 0.59508 0.0
O226 O 0.69841 0.78588 0.86638 0.0
O227 O 0.71048 0.81584 0.72907 0.0
O228 O 0.77125 0.81955 0.7148 0.0
O229 O 0.79083 0.78987 0.82876 0.0
O230 O 0.74844 0.77271 0.97861 0.0
O231 O 0.79664 0.75743 0.97764 0.0
H232 H 0.90213 0.71831 0.66766 0.0
H233 H 0.93303 0.67727 0.60702 0.0
H234 H 0.86306 0.61787 0.68784 0.0
H235 H 0.83205 0.6588 0.7481 0.0
H236 H 0.6333 0.80656 0.86124 0.0
H237 H 0.60171 0.84693 0.92241 0.0
H238 H 0.67662 0.90408 0.92712 0.0
H239 H 0.70832 0.86367 0.86546 0.0
Nd240 Nd 0.54185 0.53487 1.02131 0.0
Nd241 Nd 0.49407 0.48982 1.01401 0.0
C242 C 0.5761 0.58153 1.00474 0.0
C243 C 0.59919 0.59811 0.94284 0.0
C244 C 0.59185 0.624 0.88466 0.0
C245 C 0.61383 0.64289 0.84583 0.0
C246 C 0.64357 0.6363 0.865 0.0
C247 C 0.65101 0.60986 0.91793 0.0
C248 C 0.62908 0.59093 0.95644 0.0
C249 C 0.56266 0.47881 0.04477 0.0
C250 C 0.51948 0.50985 0.76803 0.0
C251 C 0.45793 0.44445 1.02764 0.0
C252 C 0.43624 0.42713 0.09399 0.0
C253 C 0.44516 0.40574 0.17392 0.0
C254 C 0.4246 0.38643 0.22119 0.0
C255 C 0.39487 0.38805 0.18856 0.0
C256 C 0.38583 0.40993 0.11198 0.0
C257 C 0.40625 0.42922 0.06521 0.0
C258 C 0.47395 0.54618 0.99026 0.0
C259 C 0.51671 0.51453 0.26662 0.0
O260 O 0.54954 0.58034 0.96154 0.0
O261 O 0.58355 0.55782 0.05956 0.0
O262 O 0.57358 0.50122 0.09696 0.0
O263 O 0.54261 0.48646 0.97456 0.0
O264 O 0.53323 0.53078 0.82455 0.0
O265 O 0.50623 0.48846 0.82241 0.0
O266 O 0.48577 0.44319 0.05507 0.0
O267 O 0.45004 0.47 0.98974 0.0
O268 O 0.46337 0.52406 0.93534 0.0
O269 O 0.4935 0.53815 0.06167 0.0
O270 O 0.50382 0.49301 0.21029 0.0
O271 O 0.52893 0.53644 0.21186 0.0
H272 H 0.56908 0.63038 0.87434 0.0
H273 H 0.60764 0.66333 0.80621 0.0
H274 H 0.67382 0.6045 0.93434 0.0
H275 H 0.63562 0.57139 1.00189 0.0
H276 H 0.46812 0.40322 0.1968 0.0
H277 H 0.43202 0.36957 0.27973 0.0
H278 H 0.36303 0.41145 0.08536 0.0
H279 H 0.39868 0.44508 1.00263 0.0
Nd280 Nd 0.9957 0.48656 0.52929 0.0
Nd281 Nd 0.04127 0.54091 0.53085 0.0
C282 C 0.97111 0.43458 0.50211 0.0
C283 C 0.94642 0.41858 0.44699 0.0
C284 C 0.95164 0.39113 0.39789 0.0
C285 C 0.92823 0.37368 0.36008 0.0
C286 C 0.89914 0.38336 0.37093 0.0
C287 C 0.89392 0.41126 0.41568 0.0
C288 C 0.91733 0.42876 0.45315 0.0
C289 C 0.96944 0.53975 0.55936 0.0
C290 C 1.01637 0.51562 0.2818 0.0
C291 C 0.06373 0.59398 0.54356 0.0
C292 C 0.08871 0.6108 0.59259 0.0
C293 C 0.08374 0.63879 0.63705 0.0
C294 C 0.10732 0.65642 0.672 0.0
C295 C 0.13633 0.64635 0.66296 0.0
C296 C 0.1413 0.61805 0.62187 0.0
C297 C 0.11773 0.6004 0.58727 0.0
C298 C 0.07136 0.48833 0.53127 0.0
C299 C 0.0219 0.51069 0.77782 0.0
O300 O 0.99242 0.44401 0.43684 0.0
O301 O 0.96477 0.45251 0.58595 0.0
O302 O 0.95748 0.51522 0.58799 0.0
O303 O 0.99214 0.53518 0.49861 0.0
O304 O 0.9999 0.49623 0.33558 0.0
O305 O 0.03251 0.53535 0.33634 0.0
O306 O 0.04353 0.58455 0.61454 0.0
O307 O 0.06964 0.5755 0.46073 0.0
O308 O 0.08441 0.51345 0.52886 0.0
O309 O 0.04411 0.49277 0.53692 0.0
O310 O 0.03576 0.53186 0.72376 0.0
O311 O 1.00805 0.48956 0.72183 0.0
H312 H 0.97381 0.3827 0.39291 0.0
H313 H 0.93272 0.35215 0.32672 0.0
H314 H 0.87163 0.41906 0.42538 0.0
H315 H 0.91258 0.44978 0.49068 0.0
H316 H 0.06162 0.64737 0.64153 0.0
H317 H 0.10302 0.67822 0.70279 0.0
H318 H 0.16351 0.60991 0.61377 0.0
H319 H 0.12227 0.57893 0.55343 0.0
C320 C 0.18239 0.15488 0.26023 0.0
C321 C 0.16331 0.16249 0.35168 0.0
C322 C 0.19508 0.20374 0.40095 0.0
C323 C 0.21361 0.19714 0.30611 0.0
N324 N 0.22096 0.17015 0.13038 0.0
N325 N 0.14731 0.1983 0.48921 0.0
C326 C 0.20599 0.17382 0.23106 0.0
C327 C 0.16826 0.18838 0.41503 0.0
N328 N 0.1787 0.12898 0.20421 0.0
N329 N 0.20415 0.22285 0.48363 0.0
H330 H 0.12747 0.18749 0.5021 0.0
H331 H 0.1484 0.21859 0.52896 0.0
H332 H 0.22451 0.23275 0.48081 0.0
H333 H 0.19309 0.22623 0.56091 0.0
H334 H 0.19388 0.12058 0.14624 0.0
H335 H 0.16143 0.11483 0.22179 0.0
H336 H 0.21472 0.15543 0.06648 0.0
H337 H 0.23796 0.18387 0.10578 0.0
C338 C 0.09386 0.9519 0.68762 0.0
C339 C 0.08377 0.95636 0.57256 0.0
C340 C 0.10711 0.91042 0.51374 0.0
C341 C 0.11561 0.90525 0.63027 0.0
N342 N 0.11208 0.918 0.83144 0.0
N343 N 0.0789 0.93949 0.377 0.0
C344 C 0.10751 0.92512 0.71813 0.0
C345 C 0.08962 0.93531 0.48611 0.0
N346 N 0.09129 0.97364 0.7674 0.0
N347 N 0.11691 0.89221 0.429 0.0
H348 H 0.06807 0.9585 0.35277 0.0
H349 H 0.07937 0.92382 0.31231 0.0
H350 H 0.12956 0.87379 0.44623 0.0
H351 H 0.11423 0.89614 0.34115 0.0
H352 H 0.10158 0.97318 0.84795 0.0
H353 H 0.08016 0.99302 0.75119 0.0
H354 H 0.10362 0.92995 0.89994 0.0
H355 H 0.12213 0.89867 0.85731 0.0
C356 C 0.34524 0.82932 0.74394 0.0
C357 C 0.31734 0.83633 0.79214 0.0
C358 C 0.33676 0.88465 0.84087 0.0
C359 C 0.36574 0.87557 0.81624 0.0
N360 N 0.38936 0.84967 0.66248 0.0
N361 N 0.29002 0.8697 0.91347 0.0
C362 C 0.36814 0.85056 0.74488 0.0
C363 C 0.31404 0.86377 0.84762 0.0
N364 N 0.35056 0.80247 0.69902 0.0
N365 N 0.3298 0.91345 0.83929 0.0
H366 H 0.27437 0.85411 0.93442 0.0
H367 H 0.28808 0.88899 0.96023 0.0
H368 H 0.34494 0.92909 0.81289 0.0
H369 H 0.30828 0.92094 0.8472 0.0
H370 H 0.37143 0.79581 0.67375 0.0
H371 H 0.33521 0.78588 0.69834 0.0
H372 H 0.39059 0.83341 0.60006 0.0
H373 H 0.40258 0.86768 0.64562 0.0
C374 C 0.45697 0.09109 1.02346 0.0
C375 C 0.45735 0.06749 0.10324 0.0
C376 C 0.42654 0.09688 0.23455 0.0
C377 C 0.4219 0.11759 0.14587 0.0
N378 N 0.43019 0.13292 0.95019 0.0
N379 N 0.44264 0.04897 0.29055 0.0
C380 C 0.4365 0.11432 0.03886 0.0
C381 C 0.44213 0.07073 0.21028 0.0
N382 N 0.47665 0.09219 0.93532 0.0
N383 N 0.41726 0.1028 0.34418 0.0
H384 H 0.45766 0.03192 0.28963 0.0
H385 H 0.42796 0.04781 0.35894 0.0
H386 H 0.40597 0.12172 0.36598 0.0
H387 H 0.42311 0.09038 0.41587 0.0
H388 H 0.47876 0.11006 0.8809 0.0
H389 H 0.4936 0.07735 0.92568 0.0
H390 H 0.43748 0.12967 0.86611 0.0
H391 H 0.41546 0.15016 0.95819 0.0
C392 C 0.87006 0.84878 0.81784 0.0
C393 C 0.87517 0.86095 0.70723 0.0
C394 C 0.83185 0.8355 0.6318 0.0
C395 C 0.82433 0.82639 0.74521 0.0
N396 N 0.83444 0.82877 0.95036 0.0
N397 N 0.85733 0.87057 0.5142 0.0
C398 C 0.84307 0.83397 0.83957 0.0
C399 C 0.85507 0.85559 0.6157 0.0
N400 N 0.89114 0.85109 0.90178 0.0
N401 N 0.81758 0.82411 0.53814 0.0
H402 H 0.87369 0.88587 0.49852 0.0
H403 H 0.84126 0.86994 0.44977 0.0
H404 H 0.80125 0.80851 0.54515 0.0
H405 H 0.82421 0.82763 0.45338 0.0
H406 H 0.89012 0.8401 0.98022 0.0
H407 H 0.91092 0.86201 0.88886 0.0
H408 H 0.84573 0.83663 1.02237 0.0
H409 H 0.81457 0.81903 0.97108 0.0
C410 C 0.95564 0.08608 0.36131 0.0
C411 C 0.95884 0.07313 0.47227 0.0
C412 C 0.92513 0.11002 0.55184 0.0
C413 C 0.9235 0.12356 0.4419 0.0
N414 N 0.94271 0.12879 0.25 0.0
N415 N 0.94772 0.07371 0.67603 0.0
C416 C 0.94056 0.11294 0.34939 0.0
C417 C 0.94427 0.08567 0.56886 0.0
N418 N 0.96573 0.07204 0.26553 0.0
N419 N 0.90718 0.11953 0.63815 0.0
H420 H 0.95843 0.05406 0.69064 0.0
H421 H 0.94096 0.08376 0.75179 0.0
H422 H 0.89344 0.13754 0.62903 0.0
H423 H 0.90448 0.10878 0.71631 0.0
H424 H 0.9608 0.0786 0.18155 0.0
H425 H 0.97703 0.05243 0.2691 0.0
H426 H 0.95745 0.12384 0.18449 0.0
H427 H 0.93187 0.14854 0.23771 0.0
C428 C 0.70292 0.19259 0.12061 0.0
C429 C 0.71453 0.19733 0.23366 0.0
C430 C 0.67632 0.16506 0.31289 0.0
C431 C 0.6644 0.16124 0.20034 0.0
N432 N 0.66231 0.17594 1.00107 0.0
N433 N 0.70987 0.19109 0.43986 0.0
C434 C 0.67655 0.17637 0.10548 0.0
C435 C 0.70031 0.1847 0.33069 0.0
N436 N 0.71734 0.20324 1.02666 0.0
N437 N 0.66547 0.14893 0.40201 0.0
H438 H 0.72844 0.20354 0.45708 0.0
H439 H 0.69845 0.18553 0.51413 0.0
H440 H 0.64765 0.13488 0.39237 0.0
H441 H 0.67514 0.14788 0.48354 0.0
H442 H 0.71258 0.19713 0.94203 0.0
H443 H 0.73529 0.21704 0.03308 0.0
H444 H 0.66793 0.18922 0.93196 0.0
H445 H 0.64314 0.16411 0.98604 0.0
C446 C 0.61163 0.92421 0.86023 0.0
C447 C 0.61674 0.90396 0.95029 0.0
C448 C 0.58077 0.93004 0.07019 0.0
C449 C 0.58004 0.95339 0.9893 0.0
N450 N 0.59463 0.9716 0.80144 0.0
N451 N 0.60836 0.88906 0.14645 0.0
C452 C 0.59546 0.9501 0.88278 0.0
C453 C 0.60182 0.90723 0.05666 0.0
N454 N 0.62103 0.91805 0.75097 0.0
N455 N 0.56088 0.92877 0.15751 0.0
H456 H 0.62352 0.87215 0.13976 0.0
H457 H 0.60078 0.89238 0.23006 0.0
H458 H 0.54349 0.9432 0.16517 0.0
H459 H 0.55909 0.91107 0.213 0.0
H460 H 0.61493 0.93008 0.67856 0.0
H461 H 0.63264 0.89924 0.73026 0.0
H462 H 0.60932 0.97278 0.73309 0.0
H463 H 0.57939 0.98847 0.80165 0.0
C464 C 0.67677 0.67579 0.93761 0.0
C465 C 0.66683 0.65852 0.8439 0.0
C466 C 0.70301 0.68195 0.71705 0.0
C467 C 0.71529 0.69657 0.81439 0.0
N468 N 0.71506 0.70588 1.0195 0.0
N469 N 0.67079 0.64361 0.64567 0.0
C470 C 0.7024 0.6931 0.9251 0.0
C471 C 0.67983 0.66141 0.73349 0.0
N472 N 0.66124 0.67614 0.03831 0.0
N473 N 0.7137 0.68737 0.60924 0.0
H474 H 0.65347 0.62896 0.6543 0.0
H475 H 0.68137 0.64201 0.56662 0.0
H476 H 0.73158 0.70089 0.59414 0.0
H477 H 0.7038 0.67997 0.53355 0.0
H478 H 0.66522 0.69074 0.10526 0.0
H479 H 0.64257 0.66349 0.05155 0.0
H480 H 0.70946 0.70097 0.10426 0.0
H481 H 0.73248 0.72031 1.01355 0.0
C482 C 0.62151 0.42148 0.98422 0.0
C483 C 0.61663 0.40224 0.07791 0.0
C484 C 0.57174 0.42906 0.1267 0.0
C485 C 0.57865 0.45047 0.04315 0.0
N486 N 0.61118 0.46839 0.8964 0.0
N487 N 0.58893 0.38948 0.24727 0.0
C488 C 0.60373 0.44692 0.97221 0.0
C489 C 0.59204 0.40632 0.15082 0.0
N490 N 0.64291 0.41518 0.90597 0.0
N491 N 0.54561 0.43042 0.18323 0.0
H492 H 0.6032 0.37257 0.2686 0.0
H493 H 0.57362 0.39371 0.31145 0.0
H494 H 0.53092 0.4474 0.17079 0.0
H495 H 0.53755 0.4138 0.23504 0.0
H496 H 0.6458 0.42662 0.82942 0.0
H497 H 0.65636 0.39689 0.91314 0.0
H498 H 0.63094 0.46886 0.85185 0.0
H499 H 0.5982 0.48677 0.88275 0.0
C500 C 0.86097 0.34836 0.44098 0.0
C501 C 0.87402 0.36323 0.3474 0.0
C502 C 0.83862 0.34035 0.21334 0.0
C503 C 0.82354 0.32797 0.30888 0.0
N504 N 0.81925 0.32223 0.5156 0.0
N505 N 0.87469 0.37537 0.14563 0.0
C506 C 0.83446 0.33258 0.42311 0.0
C507 C 0.86285 0.35954 0.23361 0.0
N508 N 0.87447 0.34863 0.54692 0.0
N509 N 0.82962 0.33414 0.10326 0.0
H510 H 0.89273 0.38905 0.15719 0.0
H511 H 0.86569 0.37652 0.06296 0.0
H512 H 0.81089 0.32211 0.08416 0.0
H513 H 0.8416 0.33949 0.03014 0.0
H514 H 0.86819 0.33543 0.61537 0.0
H515 H 0.89367 0.36022 0.56414 0.0
H516 H 0.82348 0.32838 0.60061 0.0
H517 H 0.8012 0.30863 0.50747 0.0
C518 C 0.93198 0.60328 0.71319 0.0
C519 C 0.92021 0.61923 0.61905 0.0
C520 C 0.94414 0.58536 0.48357 0.0
C521 C 0.9541 0.5682 0.57845 0.0
N522 N 0.95161 0.55779 0.78297 0.0
N523 N 0.9129 0.62487 0.41452 0.0
C524 C 0.94635 0.57633 0.69296 0.0
C525 C 0.92601 0.6103 0.50397 0.0
N526 N 0.93018 0.61434 0.82253 0.0
N527 N 0.95083 0.57705 0.37367 0.0
H528 H 0.89979 0.6432 0.42662 0.0
H529 H 0.91348 0.61815 0.32887 0.0
H530 H 0.9602 0.55701 0.35448 0.0
H531 H 0.9477 0.59009 0.30132 0.0
H532 H 0.94139 0.60551 0.89297 0.0
H533 H 0.9198 0.63398 0.84126 0.0
H534 H 0.94285 0.56075 0.86498 0.0
H535 H 0.96325 0.53843 0.77506 0.0
C536 C 0.33367 0.34991 0.35515 0.0
C537 C 0.32475 0.32877 0.27265 0.0
C538 C 0.36736 0.34163 0.15337 0.0
C539 C 0.37322 0.36569 0.22629 0.0
N540 N 0.36172 0.39371 0.39547 0.0
N541 N 0.33163 0.30673 0.08585 0.0
C542 C 0.35646 0.36996 0.32761 0.0
C543 C 0.34152 0.32484 0.17067 0.0
N544 N 0.32071 0.35031 0.46103 0.0
N545 N 0.38644 0.33493 0.06674 0.0
H546 H 0.3126 0.29469 0.09436 0.0
H547 H 0.34072 0.30558 1.00375 0.0
H548 H 0.40523 0.34712 0.05003 0.0
H549 H 0.38511 0.31588 1.01842 0.0
H550 H 0.32779 0.36335 0.52921 0.0
H551 H 0.30466 0.33534 0.48407 0.0
H552 H 0.34812 0.40006 0.4628 0.0
H553 H 0.37892 0.40813 0.38011 0.0
C554 C 0.46348 0.59436 0.89745 0.0
C555 C 0.45856 0.57483 0.99005 0.0
C556 C 0.4186 0.60635 0.05891 0.0
C557 C 0.42122 0.62366 0.95804 0.0
N558 N 0.44385 0.6321 0.77337 0.0
N559 N 0.42978 0.5606 0.15432 0.0
C560 C 0.4432 0.61725 0.87559 0.0
C561 C 0.43581 0.58052 0.07032 0.0
N562 N 0.48787 0.59126 0.8309 0.0
N563 N 0.39992 0.61485 0.1443 0.0
H564 H 0.44221 0.54179 0.16649 0.0
H565 H 0.41145 0.56172 0.2073 0.0
H566 H 0.38685 0.63342 0.13773 0.0
H567 H 0.39907 0.60495 0.22497 0.0
H568 H 0.4946 0.60653 0.77034 0.0
H569 H 0.50282 0.57452 0.84374 0.0
H570 H 0.45694 0.62606 0.70403 0.0
H571 H 0.42955 0.64911 0.7536 0.0
C572 C 0.20357 0.69406 0.61406 0.0
C573 C 0.21301 0.70004 0.72938 0.0
C574 C 0.17157 0.67089 0.80249 0.0
C575 C 0.16171 0.66613 0.68751 0.0
N576 N 0.16427 0.67841 0.48594 0.0
N577 N 0.20381 0.69689 0.9345 0.0
C578 C 0.17653 0.67931 0.59406 0.0
C579 C 0.19615 0.68956 0.82394 0.0
N580 N 0.22068 0.70187 0.5227 0.0
N581 N 0.15826 0.65642 0.89088 0.0
H582 H 0.22291 0.70809 0.95602 0.0
H583 H 0.19039 0.69322 1.00537 0.0
H584 H 0.14 0.64307 0.87851 0.0
H585 H 0.16633 0.65595 0.97512 0.0
H586 H 0.21701 0.69468 0.4386 0.0
H587 H 0.23983 0.71396 0.53087 0.0
H588 H 0.172 0.69052 0.41661 0.0
H589 H 0.14465 0.66763 0.46751 0.0
C590 C 0.11027 0.42969 0.35452 0.0
C591 C 0.11883 0.40985 0.44231 0.0
C592 C 0.09275 0.43957 0.58628 0.0
C593 C 0.08617 0.46047 0.49975 0.0
N594 N 0.09294 0.4779 0.30521 0.0
N595 N 0.12076 0.39678 0.64344 0.0
C596 C 0.09613 0.45621 0.38492 0.0
C597 C 0.11053 0.4149 0.55871 0.0
N598 N 0.1148 0.42272 0.24125 0.0
N599 N 0.08244 0.44368 0.69548 0.0
H600 H 0.13363 0.37855 0.62625 0.0
H601 H 0.11819 0.40058 0.7313 0.0
H602 H 0.07164 0.46265 0.71998 0.0
H603 H 0.08334 0.42805 0.76024 0.0
H604 H 0.10602 0.43457 0.17262 0.0
H605 H 0.12516 0.40361 0.21539 0.0
H606 H 0.10312 0.47769 0.225 0.0
H607 H 0.08138 0.49701 0.32115 0.0
C608 C 0.02507 0.98534 0.96062 0.0
C609 C 1.01839 1.01183 0.90321 0.0
C610 C 0.0211 0.03769 0.08811 0.0
C611 C 0.02386 1.01066 0.1487 0.0
N612 N 0.02643 0.95801 0.13822 0.0
N613 N 1.00286 0.06174 0.91686 0.0
C614 C 0.02499 0.98429 0.08363 0.0
C615 C 1.01454 0.03755 0.96815 0.0
N616 N 0.03319 0.96141 0.89838 0.0
N617 N 0.02468 0.06386 0.14241 0.0
H618 H 0.99675 0.0625 0.83012 0.0
H619 H 0.99612 0.07996 0.96317 0.0
H620 H 0.02654 0.06694 0.23071 0.0
H621 H 0.02739 0.08322 0.09702 0.0
H622 H 0.04206 0.94274 0.93564 0.0
H623 H 0.03395 0.96092 0.80863 0.0
H624 H 0.02248 0.93835 0.09631 0.0
H625 H 0.03032 0.95555 0.22606 0.0
C626 C 0.24541 0.77806 0.3445 0.0
C627 C 0.26927 0.76572 0.40804 0.0
C628 C 0.29342 0.75677 0.22298 0.0
C629 C 0.26701 0.76302 0.16094 0.0
N630 N 0.21438 0.7703 0.17838 0.0
N631 N 0.31173 0.73369 0.3951 0.0
C632 C 0.24185 0.77085 0.22607 0.0
C633 C 0.29211 0.75215 0.34407 0.0
N634 N 0.22688 0.79777 0.39353 0.0
N635 N 0.32005 0.75671 0.16974 0.0
H636 H 0.30954 0.72607 0.47914 0.0
H637 H 0.32753 0.72254 0.34762 0.0
H638 H 0.32302 0.76407 0.08565 0.0
H639 H 0.33965 0.75365 0.21537 0.0
H640 H 0.21024 0.80801 0.34637 0.0
H641 H 0.23085 0.80713 0.47405 0.0
H642 H 0.19563 0.77448 0.22692 0.0
H643 H 0.20999 0.76163 0.09697 0.0
C644 C 0.52864 0.98572 0.60953 0.0
C645 C 0.51624 1.01001 0.6682 0.0
C646 C 0.50851 0.03477 0.48202 0.0
C647 C 0.52092 1.01048 0.42335 0.0
N648 N 0.54965 0.96667 0.43318 0.0
N649 N 0.48743 0.05379 0.65828 0.0
C650 C 0.53254 0.98683 0.48761 0.0
C651 C 0.5046 0.03365 0.60391 0.0
N652 N 0.53623 0.96119 0.66929 0.0
N653 N 0.50094 0.05931 0.42228 0.0
H654 H 0.48244 0.05262 0.74578 0.0
H655 H 0.47534 0.0697 0.61534 0.0
H656 H 0.50126 0.06094 0.33282 0.0
H657 H 0.49596 0.07901 0.46179 0.0
H658 H 0.54119 0.94148 0.6298 0.0
H659 H 0.53593 0.95957 0.75876 0.0
H660 H 0.56173 0.95073 0.47606 0.0
H661 H 0.55461 0.96782 0.34565 0.0
C662 C 0.26638 0.28885 0.85689 0.0
C663 C 0.26679 0.26116 0.91195 0.0
C664 C 0.27138 0.23754 0.72095 0.0
C665 C 0.2711 0.26524 0.66592 0.0
N666 N 0.26352 0.31702 0.68016 0.0
N667 N 0.27366 0.20933 0.89782 0.0
C668 C 0.26718 0.29078 0.73366 0.0
C669 C 0.27048 0.23561 0.84419 0.0
N670 N 0.26749 0.31356 0.92265 0.0
N671 N 0.2701 0.21286 0.65505 0.0
H672 H 0.27086 0.20644 0.98611 0.0
H673 H 0.2808 0.19056 0.85644 0.0
H674 H 0.27014 0.21294 0.56516 0.0
H675 H 0.26633 0.19221 0.68823 0.0
H676 H 0.27136 0.33418 0.88936 0.0
H677 H 0.26717 0.31354 1.01251 0.0
H678 H 0.25621 0.33567 0.72191 0.0
H679 H 0.2659 0.31998 0.59173 0.0
C680 C 0.76308 0.28921 0.82906 0.0
C681 C 0.77131 0.26395 0.89206 0.0
C682 C 0.77484 0.23638 0.70955 0.0
C683 C 0.7665 0.26163 0.64657 0.0
N684 N 0.74929 0.31129 0.64626 0.0
N685 N 0.78797 0.21414 0.89299 0.0
C686 C 0.75955 0.28778 0.70643 0.0
C687 C 0.77811 0.23775 0.83236 0.0
N688 N 0.76062 0.31517 0.886 0.0
N689 N 0.77769 0.2105 0.65228 0.0
H690 H 0.78848 0.21319 0.98272 0.0
H691 H 0.79715 0.19578 0.85524 0.0
H692 H 0.77497 0.20843 0.56326 0.0
H693 H 0.78041 0.19049 0.69255 0.0
H694 H 0.75813 0.33515 0.84525 0.0
H695 H 0.76361 0.31731 0.97489 0.0
H696 H 0.73992 0.32947 0.68468 0.0
H697 H 0.74852 0.31228 0.55658 0.0
C698 C 0.75989 0.78722 0.34857 0.0
C699 C 0.76692 0.76108 0.4087 0.0
C700 C 0.77751 0.73716 0.22264 0.0
C701 C 0.77229 0.76381 0.16356 0.0
N702 N 0.76358 0.81535 0.17182 0.0
N703 N 0.78435 0.71157 0.40407 0.0
C704 C 0.76466 0.78909 0.227 0.0
C705 C 0.77645 0.73625 0.34588 0.0
N706 N 0.74873 0.81047 0.40729 0.0
N707 N 0.78194 0.71223 0.1608 0.0
H708 H 0.78078 0.7086 0.49204 0.0
H709 H 0.79563 0.69436 0.36641 0.0
H710 H 0.7835 0.71177 0.07127 0.0
H711 H 0.78194 0.69153 0.19685 0.0
H712 H 0.73944 0.8285 0.36692 0.0
H713 H 0.74705 0.81129 0.49675 0.0
H714 H 0.76161 0.83517 0.21434 0.0
H715 H 0.76743 0.81773 0.0837 0.0
C716 C 0.49714 0.52783 0.58182 0.0
C717 C 0.51867 0.51066 0.63952 0.0
C718 C 0.53847 0.49536 0.45225 0.0
C719 C 0.51789 0.51376 0.39506 0.0
N720 N 0.48086 0.55103 0.40436 0.0
N721 N 0.56148 0.48009 0.63258 0.0
C722 C 0.49821 0.53108 0.45968 0.0
C723 C 0.53975 0.49488 0.57539 0.0
N724 N 0.47491 0.54011 0.64349 0.0
N725 N 0.55683 0.47834 0.38844 0.0
H726 H 0.56238 0.4785 0.72232 0.0
H727 H 0.57951 0.4707 0.59248 0.0
H728 H 0.55833 0.48011 0.29918 0.0
H729 H 0.56975 0.46175 0.42258 0.0
H730 H 0.45674 0.55025 0.60623 0.0
H731 H 0.47332 0.53803 0.73251 0.0
H732 H 0.46849 0.56667 0.44703 0.0
H733 H 0.48053 0.55351 0.31491 0.0
C734 C 0.02498 0.48616 0.9751 0.0
C735 C 0.02061 0.5118 0.90757 0.0
C736 C 1.01128 0.53946 0.08694 0.0
C737 C 1.01764 0.51439 0.15338 0.0
N738 N 0.03573 0.46514 0.1623 0.0
N739 N 1.01196 0.56412 0.90396 0.0
C740 C 0.02565 0.48805 0.09789 0.0
C741 C 1.01467 0.53878 0.96489 0.0
N742 N 0.02868 0.45974 0.92322 0.0
N743 N 1.0002 0.56367 0.13968 0.0
H744 H 1.00856 0.56539 0.81542 0.0
H745 H 1.01365 0.58456 0.94207 0.0
H746 H 0.99812 0.56563 0.22865 0.0
H747 H 0.99079 0.58103 0.09521 0.0
H748 H 0.02673 0.44008 0.96702 0.0
H749 H 0.03234 0.45687 0.83574 0.0
H750 H 0.04588 0.44693 0.12711 0.0
H751 H 0.03667 0.46521 0.25212 0.0
loop_
_geom_bond_atom_site_label_1
_geom_bond_atom_site_label_2
_geom_bond_distance
_geom_bond_site_symmetry_2
_ccdc_geom_bond_type
Nd0 C2 2.836 . S
Nd0 O20 2.500 . S
Nd0 O21 2.492 . S
Nd0 O22 2.487 1_545 S
Nd0 O23 2.682 1_545 S
Nd0 O24 2.410 . S
Nd0 O29 2.414 1_455 S
Nd0 O31 2.424 . S
Nd1 C11 2.836 . S
Nd1 O23 2.414 1_655 S
Nd1 O25 2.424 . S
Nd1 O26 2.500 . S
Nd1 O27 2.492 . S
Nd1 O28 2.487 1_565 S
Nd1 O29 2.682 1_565 S
Nd1 O30 2.410 . S
C2 Nd0 2.836 . S
C2 C3 1.498 . S
C2 O20 1.258 . S
C2 O21 1.239 . S
C3 C2 1.498 . S
C3 C4 1.366 . S
C3 C8 1.407 . S
C4 C3 1.366 . S
C4 C5 1.392 . S
C4 H32 0.930 . S
C5 C4 1.392 . S
C5 C6 1.398 . S
C5 H33 0.929 . S
C6 C5 1.398 . S
C6 C7 1.352 . S
C7 C6 1.352 . S
C7 C8 1.384 . S
C7 H34 0.930 . S
C8 C3 1.407 . S
C8 C7 1.384 . S
C8 H35 0.929 . S
C9 O22 1.241 . S
C9 O23 1.273 . S
C10 O24 1.251 . S
C10 O25 1.268 1_445 S
C11 Nd1 2.836 . S
C11 C12 1.498 . S
C11 O26 1.258 . S
C11 O27 1.239 . S
C12 C11 1.498 . S
C12 C13 1.366 . S
C12 C17 1.407 . S
C13 C12 1.366 . S
C13 C14 1.392 . S
C13 H36 0.930 . S
C14 C13 1.392 . S
C14 C15 1.398 . S
C14 H37 0.929 . S
C15 C14 1.398 . S
C15 C16 1.352 . S
C16 C15 1.352 . S
C16 C17 1.384 . S
C16 H38 0.930 . S
C17 C12 1.407 . S
C17 C16 1.384 . S
C17 H39 0.929 . S
C18 O28 1.241 . S
C18 O29 1.273 . S
C19 O30 1.251 . S
C19 O31 1.268 1_665 S
O20 Nd0 2.500 . S
O20 C2 1.258 . S
O21 Nd0 2.492 . S
O21 C2 1.239 . S
O22 Nd0 2.487 1_565 S
O22 C9 1.241 . S
O23 Nd0 2.682 1_565 S
O23 Nd1 2.414 1_455 S
O23 C9 1.273 . S
O24 Nd0 2.410 . S
O24 C10 1.251 . S
O25 Nd1 2.424 . S
O25 C10 1.268 1_665 S
O26 Nd1 2.500 . S
O26 C11 1.258 . S
O27 Nd1 2.492 . S
O27 C11 1.239 . S
O28 Nd1 2.487 1_545 S
O28 C18 1.241 . S
O29 Nd0 2.414 1_655 S
O29 Nd1 2.682 1_545 S
O29 C18 1.273 . S
O30 Nd1 2.410 . S
O30 C19 1.251 . S
O31 Nd0 2.424 . S
O31 C19 1.268 1_445 S
H32 C4 0.930 . S
H33 C5 0.929 . S
H34 C7 0.930 . S
H35 C8 0.929 . S
H36 C13 0.930 . S
H37 C14 0.929 . S
H38 C16 0.930 . S
H39 C17 0.929 . S
Nd40 C42 2.836 . S
Nd40 O60 2.500 . S
Nd40 O61 2.492 . S
Nd40 O62 2.487 . S
Nd40 O63 2.682 . S
Nd40 O64 2.410 . S
Nd40 O69 2.414 . S
Nd40 O71 2.424 . S
Nd41 C51 2.836 . S
Nd41 O63 2.414 . S
Nd41 O65 2.424 . S
Nd41 O66 2.500 . S
Nd41 O67 2.492 . S
Nd41 O68 2.487 . S
Nd41 O69 2.682 . S
Nd41 O70 2.410 . S
C42 Nd40 2.836 . S
C42 C43 1.498 . S
C42 O60 1.258 . S
C42 O61 1.239 . S
C43 C42 1.498 . S
C43 C44 1.366 . S
C43 C48 1.407 . S
C44 C43 1.366 . S
C44 C45 1.392 . S
C44 H72 0.930 . S
C45 C44 1.392 . S
C45 C46 1.398 . S
C45 H73 0.929 . S
C46 C45 1.398 . S
C46 C47 1.352 . S
C47 C46 1.352 . S
C47 C48 1.384 . S
C47 H74 0.930 . S
C48 C43 1.407 . S
C48 C47 1.384 . S
C48 H75 0.929 . S
C49 O62 1.241 . S
C49 O63 1.273 . S
C50 O64 1.251 . S
C50 O65 1.268 . S
C51 Nd41 2.836 . S
C51 C52 1.498 . S
C51 O66 1.258 . S
C51 O67 1.239 . S
C52 C51 1.498 . S
C52 C53 1.366 . S
C52 C57 1.407 . S
C53 C52 1.366 . S
C53 C54 1.392 1_556 S
C53 H76 0.930 . S
C54 C53 1.392 1_554 S
C54 C55 1.398 . S
C54 H77 0.929 . S
C55 C54 1.398 . S
C55 C56 1.352 1_554 S
C56 C55 1.352 1_556 S
C56 C57 1.384 . S
C56 H78 0.930 . S
C57 C52 1.407 . S
C57 C56 1.384 . S
C57 H79 0.929 . S
C58 O68 1.241 . S
C58 O69 1.273 . S
C59 O70 1.251 . S
C59 O71 1.268 . S
O60 Nd40 2.500 . S
O60 C42 1.258 . S
O61 Nd40 2.492 . S
O61 C42 1.239 . S
O62 Nd40 2.487 . S
O62 C49 1.241 . S
O63 Nd40 2.682 . S
O63 Nd41 2.414 . S
O63 C49 1.273 . S
O64 Nd40 2.410 . S
O64 C50 1.251 . S
O65 Nd41 2.424 . S
O65 C50 1.268 . S
O66 Nd41 2.500 . S
O66 C51 1.258 . S
O67 Nd41 2.492 . S
O67 C51 1.239 . S
O68 Nd41 2.487 . S
O68 C58 1.241 . S
O69 Nd40 2.414 . S
O69 Nd41 2.682 . S
O69 C58 1.273 . S
O70 Nd41 2.410 . S
O70 C59 1.251 . S
O71 Nd40 2.424 . S
O71 C59 1.268 . S
H72 C44 0.930 . S
H73 C45 0.929 . S
H74 C47 0.930 . S
H75 C48 0.929 . S
H76 C53 0.930 . S
H77 C54 0.929 . S
H78 C56 0.930 . S
H79 C57 0.929 . S
Nd80 C82 2.836 1_554 S
Nd80 O100 2.500 1_554 S
Nd80 O101 2.492 1_554 S
Nd80 O102 2.487 1_565 S
Nd80 O103 2.682 1_565 S
Nd80 O104 2.410 1_554 S
Nd80 O109 2.414 1_554 S
Nd80 O111 2.424 . S
Nd81 C91 2.836 1_556 S
Nd81 O103 2.414 1_556 S
Nd81 O105 2.424 . S
Nd81 O106 2.500 1_556 S
Nd81 O107 2.492 1_556 S
Nd81 O108 2.487 1_545 S
Nd81 O109 2.682 1_545 S
Nd81 O110 2.410 1_556 S
C82 Nd80 2.836 1_556 S
C82 C83 1.498 . S
C82 O100 1.258 . S
C82 O101 1.239 . S
C83 C82 1.498 . S
C83 C84 1.366 . S
C83 C88 1.407 . S
C84 C83 1.366 . S
C84 C85 1.392 . S
C84 H112 0.930 . S
C85 C84 1.392 . S
C85 C86 1.398 . S
C85 H113 0.929 . S
C86 C85 1.398 . S
C86 C87 1.352 . S
C87 C86 1.352 . S
C87 C88 1.384 . S
C87 H114 0.930 . S
C88 C83 1.407 . S
C88 C87 1.384 . S
C88 H115 0.929 . S
C89 O102 1.241 . S
C89 O103 1.273 . S
C90 O104 1.251 . S
C90 O105 1.268 1_565 S
C91 Nd81 2.836 1_554 S
C91 C92 1.498 . S
C91 O106 1.258 . S
C91 O107 1.239 . S
C92 C91 1.498 . S
C92 C93 1.366 . S
C92 C97 1.407 . S
C93 C92 1.366 . S
C93 C94 1.392 . S
C93 H116 0.930 . S
C94 C93 1.392 . S
C94 C95 1.398 . S
C94 H117 0.929 . S
C95 C94 1.398 . S
C95 C96 1.352 . S
C96 C95 1.352 . S
C96 C97 1.384 . S
C96 H118 0.930 . S
C97 C92 1.407 . S
C97 C96 1.384 . S
C97 H119 0.929 . S
C98 O108 1.241 . S
C98 O109 1.273 . S
C99 O110 1.251 . S
C99 O111 1.268 1_545 S
O100 Nd80 2.500 1_556 S
O100 C82 1.258 . S
O101 Nd80 2.492 1_556 S
O101 C82 1.239 . S
O102 Nd80 2.487 1_545 S
O102 C89 1.241 . S
O103 Nd80 2.682 1_545 S
O103 Nd81 2.414 1_554 S
O103 C89 1.273 . S
O104 Nd80 2.410 1_556 S
O104 C90 1.251 . S
O105 Nd81 2.424 . S
O105 C90 1.268 1_545 S
O106 Nd81 2.500 1_554 S
O106 C91 1.258 . S
O107 Nd81 2.492 1_554 S
O107 C91 1.239 . S
O108 Nd81 2.487 1_565 S
O108 C98 1.241 . S
O109 Nd80 2.414 1_556 S
O109 Nd81 2.682 1_565 S
O109 C98 1.273 . S
O110 Nd81 2.410 1_554 S
O110 C99 1.251 . S
O111 Nd80 2.424 . S
O111 C99 1.268 1_565 S
H112 C84 0.930 . S
H113 C85 0.929 . S
H114 C87 0.930 . S
H115 C88 0.929 . S
H116 C93 0.930 . S
H117 C94 0.929 . S
H118 C96 0.930 . S
H119 C97 0.929 . S
Nd120 C122 2.836 . S
Nd120 O140 2.500 . S
Nd120 O141 2.492 . S
Nd120 O142 2.487 . S
Nd120 O143 2.682 . S
Nd120 O144 2.410 . S
Nd120 O149 2.414 . S
Nd120 O151 2.424 . S
Nd121 C131 2.836 . S
Nd121 O143 2.414 . S
Nd121 O145 2.424 . S
Nd121 O146 2.500 . S
Nd121 O147 2.492 . S
Nd121 O148 2.487 . S
Nd121 O149 2.682 . S
Nd121 O150 2.410 . S
C122 Nd120 2.836 . S
C122 C123 1.498 . S
C122 O140 1.258 . S
C122 O141 1.239 . S
C123 C122 1.498 . S
C123 C124 1.366 . S
C123 C128 1.407 . S
C124 C123 1.366 . S
C124 C125 1.392 1_554 S
C124 H152 0.930 . S
C125 C124 1.392 1_556 S
C125 C126 1.398 . S
C125 H153 0.929 . S
C126 C125 1.398 . S
C126 C127 1.352 1_556 S
C127 C126 1.352 1_554 S
C127 C128 1.384 . S
C127 H154 0.930 . S
C128 C123 1.407 . S
C128 C127 1.384 . S
C128 H155 0.929 . S
C129 O142 1.241 . S
C129 O143 1.273 . S
C130 O144 1.251 . S
C130 O145 1.268 . S
C131 Nd121 2.836 . S
C131 C132 1.498 . S
C131 O146 1.258 . S
C131 O147 1.239 . S
C132 C131 1.498 . S
C132 C133 1.366 . S
C132 C137 1.407 . S
C133 C132 1.366 . S
C133 C134 1.392 . S
C133 H156 0.930 . S
C134 C133 1.392 . S
C134 C135 1.398 . S
C134 H157 0.929 . S
C135 C134 1.398 . S
C135 C136 1.352 . S
C136 C135 1.352 . S
C136 C137 1.384 . S
C136 H158 0.930 . S
C137 C132 1.407 . S
C137 C136 1.384 . S
C137 H159 0.929 . S
C138 O148 1.241 . S
C138 O149 1.273 . S
C139 O150 1.251 . S
C139 O151 1.268 . S
O140 Nd120 2.500 . S
O140 C122 1.258 . S
O141 Nd120 2.492 . S
O141 C122 1.239 . S
O142 Nd120 2.487 . S
O142 C129 1.241 . S
O143 Nd120 2.682 . S
O143 Nd121 2.414 . S
O143 C129 1.273 . S
O144 Nd120 2.410 . S
O144 C130 1.251 . S
O145 Nd121 2.424 . S
O145 C130 1.268 . S
O146 Nd121 2.500 . S
O146 C131 1.258 . S
O147 Nd121 2.492 . S
O147 C131 1.239 . S
O148 Nd121 2.487 . S
O148 C138 1.241 . S
O149 Nd120 2.414 . S
O149 Nd121 2.682 . S
O149 C138 1.273 . S
O150 Nd121 2.410 . S
O150 C139 1.251 . S
O151 Nd120 2.424 . S
O151 C139 1.268 . S
H152 C124 0.930 . S
H153 C125 0.929 . S
H154 C127 0.930 . S
H155 C128 0.929 . S
H156 C133 0.930 . S
H157 C134 0.929 . S
H158 C136 0.930 . S
H159 C137 0.929 . S
Nd160 C162 2.836 . S
Nd160 O180 2.500 . S
Nd160 O181 2.492 . S
Nd160 O182 2.487 . S
Nd160 O183 2.682 . S
Nd160 O184 2.410 . S
Nd160 O189 2.414 . S
Nd160 O191 2.424 . S
Nd161 C171 2.836 . S
Nd161 O183 2.414 . S
Nd161 O185 2.424 . S
Nd161 O186 2.500 . S
Nd161 O187 2.492 . S
Nd161 O188 2.487 . S
Nd161 O189 2.682 . S
Nd161 O190 2.410 . S
C162 Nd160 2.836 . S
C162 C163 1.498 . S
C162 O180 1.258 . S
C162 O181 1.239 . S
C163 C162 1.498 . S
C163 C164 1.366 . S
C163 C168 1.407 . S
C164 C163 1.366 . S
C164 C165 1.392 1_554 S
C164 H192 0.930 . S
C165 C164 1.392 1_556 S
C165 C166 1.398 . S
C165 H193 0.929 . S
C166 C165 1.398 . S
C166 C167 1.352 1_556 S
C167 C166 1.352 1_554 S
C167 C168 1.384 . S
C167 H194 0.930 . S
C168 C163 1.407 . S
C168 C167 1.384 . S
C168 H195 0.929 . S
C169 O182 1.241 . S
C169 O183 1.273 . S
C170 O184 1.251 . S
C170 O185 1.268 . S
C171 Nd161 2.836 . S
C171 C172 1.498 . S
C171 O186 1.258 . S
C171 O187 1.239 . S
C172 C171 1.498 . S
C172 C173 1.366 . S
C172 C177 1.407 . S
C173 C172 1.366 . S
C173 C174 1.392 . S
C173 H196 0.930 . S
C174 C173 1.392 . S
C174 C175 1.398 . S
C174 H197 0.929 . S
C175 C174 1.398 . S
C175 C176 1.352 . S
C176 C175 1.352 . S
C176 C177 1.384 . S
C176 H198 0.930 . S
C177 C172 1.407 . S
C177 C176 1.384 . S
C177 H199 0.929 . S
C178 O188 1.241 . S
C178 O189 1.273 . S
C179 O190 1.251 . S
C179 O191 1.268 . S
O180 Nd160 2.500 . S
O180 C162 1.258 . S
O181 Nd160 2.492 . S
O181 C162 1.239 . S
O182 Nd160 2.487 . S
O182 C169 1.241 . S
O183 Nd160 2.682 . S
O183 Nd161 2.414 . S
O183 C169 1.273 . S
O184 Nd160 2.410 . S
O184 C170 1.251 . S
O185 Nd161 2.424 . S
O185 C170 1.268 . S
O186 Nd161 2.500 . S
O186 C171 1.258 . S
O187 Nd161 2.492 . S
O187 C171 1.239 . S
O188 Nd161 2.487 . S
O188 C178 1.241 . S
O189 Nd160 2.414 . S
O189 Nd161 2.682 . S
O189 C178 1.273 . S
O190 Nd161 2.410 . S
O190 C179 1.251 . S
O191 Nd160 2.424 . S
O191 C179 1.268 . S
H192 C164 0.930 . S
H193 C165 0.929 . S
H194 C167 0.930 . S
H195 C168 0.929 . S
H196 C173 0.930 . S
H197 C174 0.929 . S
H198 C176 0.930 . S
H199 C177 0.929 . S
Nd200 C202 2.836 . S
Nd200 O220 2.500 . S
Nd200 O221 2.492 . S
Nd200 O222 2.487 . S
Nd200 O223 2.682 . S
Nd200 O224 2.410 . S
Nd200 O229 2.414 . S
Nd200 O231 2.424 . S
Nd201 C211 2.836 . S
Nd201 O223 2.414 . S
Nd201 O225 2.424 . S
Nd201 O226 2.500 . S
Nd201 O227 2.492 . S
Nd201 O228 2.487 . S
Nd201 O229 2.682 . S
Nd201 O230 2.410 . S
C202 Nd200 2.836 . S
C202 C203 1.498 . S
C202 O220 1.258 . S
C202 O221 1.239 . S
C203 C202 1.498 . S
C203 C204 1.366 . S
C203 C208 1.407 . S
C204 C203 1.366 . S
C204 C205 1.392 . S
C204 H232 0.930 . S
C205 C204 1.392 . S
C205 C206 1.398 . S
C205 H233 0.929 . S
C206 C205 1.398 . S
C206 C207 1.352 . S
C207 C206 1.352 . S
C207 C208 1.384 . S
C207 H234 0.930 . S
C208 C203 1.407 . S
C208 C207 1.384 . S
C208 H235 0.929 . S
C209 O222 1.241 . S
C209 O223 1.273 . S
C210 O224 1.251 . S
C210 O225 1.268 . S
C211 Nd201 2.836 . S
C211 C212 1.498 . S
C211 O226 1.258 . S
C211 O227 1.239 . S
C212 C211 1.498 . S
C212 C213 1.366 . S
C212 C217 1.407 . S
C213 C212 1.366 . S
C213 C214 1.392 1_556 S
C213 H236 0.930 . S
C214 C213 1.392 1_554 S
C214 C215 1.398 . S
C214 H237 0.929 . S
C215 C214 1.398 . S
C215 C216 1.352 1_554 S
C216 C215 1.352 1_556 S
C216 C217 1.384 . S
C216 H238 0.930 . S
C217 C212 1.407 . S
C217 C216 1.384 . S
C217 H239 0.929 . S
C218 O228 1.241 . S
C218 O229 1.273 . S
C219 O230 1.251 . S
C219 O231 1.268 . S
O220 Nd200 2.500 . S
O220 C202 1.258 . S
O221 Nd200 2.492 . S
O221 C202 1.239 . S
O222 Nd200 2.487 . S
O222 C209 1.241 . S
O223 Nd200 2.682 . S
O223 Nd201 2.414 . S
O223 C209 1.273 . S
O224 Nd200 2.410 . S
O224 C210 1.251 . S
O225 Nd201 2.424 . S
O225 C210 1.268 . S
O226 Nd201 2.500 . S
O226 C211 1.258 . S
O227 Nd201 2.492 . S
O227 C211 1.239 . S
O228 Nd201 2.487 . S
O228 C218 1.241 . S
O229 Nd200 2.414 . S
O229 Nd201 2.682 . S
O229 C218 1.273 . S
O230 Nd201 2.410 . S
O230 C219 1.251 . S
O231 Nd200 2.424 . S
O231 C219 1.268 . S
H232 C204 0.930 . S
H233 C205 0.929 . S
H234 C207 0.930 . S
H235 C208 0.929 . S
H236 C213 0.930 . S
H237 C214 0.929 . S
H238 C216 0.930 . S
H239 C217 0.929 . S
Nd240 C242 2.836 1_554 S
Nd240 O260 2.500 1_554 S
Nd240 O261 2.492 1_554 S
Nd240 O262 2.487 . S
Nd240 O263 2.682 . S
Nd240 O264 2.410 1_554 S
Nd240 O269 2.414 1_554 S
Nd240 O271 2.424 . S
Nd241 C251 2.836 1_556 S
Nd241 O263 2.414 1_556 S
Nd241 O265 2.424 . S
Nd241 O266 2.500 1_556 S
Nd241 O267 2.492 1_556 S
Nd241 O268 2.487 . S
Nd241 O269 2.682 . S
Nd241 O270 2.410 1_556 S
C242 Nd240 2.836 1_556 S
C242 C243 1.498 . S
C242 O260 1.258 . S
C242 O261 1.239 . S
C243 C242 1.498 . S
C243 C244 1.366 . S
C243 C248 1.407 . S
C244 C243 1.366 . S
C244 C245 1.392 . S
C244 H272 0.930 . S
C245 C244 1.392 . S
C245 C246 1.398 . S
C245 H273 0.929 . S
C246 C245 1.398 . S
C246 C247 1.352 . S
C247 C246 1.352 . S
C247 C248 1.384 . S
C247 H274 0.930 . S
C248 C243 1.407 . S
C248 C247 1.384 . S
C248 H275 0.929 . S
C249 O262 1.241 . S
C249 O263 1.273 . S
C250 O264 1.251 . S
C250 O265 1.268 . S
C251 Nd241 2.836 1_554 S
C251 C252 1.498 . S
C251 O266 1.258 . S
C251 O267 1.239 . S
C252 C251 1.498 . S
C252 C253 1.366 . S
C252 C257 1.407 . S
C253 C252 1.366 . S
C253 C254 1.392 . S
C253 H276 0.930 . S
C254 C253 1.392 . S
C254 C255 1.398 . S
C254 H277 0.929 . S
C255 C254 1.398 . S
C255 C256 1.352 . S
C256 C255 1.352 . S
C256 C257 1.384 . S
C256 H278 0.930 . S
C257 C252 1.407 . S
C257 C256 1.384 . S
C257 H279 0.929 . S
C258 O268 1.241 . S
C258 O269 1.273 . S
C259 O270 1.251 . S
C259 O271 1.268 . S
O260 Nd240 2.500 1_556 S
O260 C242 1.258 . S
O261 Nd240 2.492 1_556 S
O261 C242 1.239 . S
O262 Nd240 2.487 . S
O262 C249 1.241 . S
O263 Nd240 2.682 . S
O263 Nd241 2.414 1_554 S
O263 C249 1.273 . S
O264 Nd240 2.410 1_556 S
O264 C250 1.251 . S
O265 Nd241 2.424 . S
O265 C250 1.268 . S
O266 Nd241 2.500 1_554 S
O266 C251 1.258 . S
O267 Nd241 2.492 1_554 S
O267 C251 1.239 . S
O268 Nd241 2.487 . S
O268 C258 1.241 . S
O269 Nd240 2.414 1_556 S
O269 Nd241 2.682 . S
O269 C258 1.273 . S
O270 Nd241 2.410 1_554 S
O270 C259 1.251 . S
O271 Nd240 2.424 . S
O271 C259 1.268 . S
H272 C244 0.930 . S
H273 C245 0.929 . S
H274 C247 0.930 . S
H275 C248 0.929 . S
H276 C253 0.930 . S
H277 C254 0.929 . S
H278 C256 0.930 . S
H279 C257 0.929 . S
Nd280 C282 2.836 . S
Nd280 O300 2.500 . S
Nd280 O301 2.492 . S
Nd280 O302 2.487 . S
Nd280 O303 2.682 . S
Nd280 O304 2.410 . S
Nd280 O309 2.414 1_655 S
Nd280 O311 2.424 . S
Nd281 C291 2.836 . S
Nd281 O303 2.414 1_455 S
Nd281 O305 2.424 . S
Nd281 O306 2.500 . S
Nd281 O307 2.492 . S
Nd281 O308 2.487 . S
Nd281 O309 2.682 . S
Nd281 O310 2.410 . S
C282 Nd280 2.836 . S
C282 C283 1.498 . S
C282 O300 1.258 . S
C282 O301 1.239 . S
C283 C282 1.498 . S
C283 C284 1.366 . S
C283 C288 1.407 . S
C284 C283 1.366 . S
C284 C285 1.392 . S
C284 H312 0.930 . S
C285 C284 1.392 . S
C285 C286 1.398 . S
C285 H313 0.929 . S
C286 C285 1.398 . S
C286 C287 1.352 . S
C287 C286 1.352 . S
C287 C288 1.384 . S
C287 H314 0.930 . S
C288 C283 1.407 . S
C288 C287 1.384 . S
C288 H315 0.929 . S
C289 O302 1.241 . S
C289 O303 1.273 . S
C290 O304 1.251 . S
C290 O305 1.268 1_655 S
C291 Nd281 2.836 . S
C291 C292 1.498 . S
C291 O306 1.258 . S
C291 O307 1.239 . S
C292 C291 1.498 . S
C292 C293 1.366 . S
C292 C297 1.407 . S
C293 C292 1.366 . S
C293 C294 1.392 . S
C293 H316 0.930 . S
C294 C293 1.392 . S
C294 C295 1.398 . S
C294 H317 0.929 . S
C295 C294 1.398 . S
C295 C296 1.352 . S
C296 C295 1.352 . S
C296 C297 1.384 . S
C296 H318 0.930 . S
C297 C292 1.407 . S
C297 C296 1.384 . S
C297 H319 0.929 . S
C298 O308 1.241 . S
C298 O309 1.273 . S
C299 O310 1.251 . S
C299 O311 1.268 1_455 S
O300 Nd280 2.500 . S
O300 C282 1.258 . S
O301 Nd280 2.492 . S
O301 C282 1.239 . S
O302 Nd280 2.487 . S
O302 C289 1.241 . S
O303 Nd280 2.682 . S
O303 Nd281 2.414 1_655 S
O303 C289 1.273 . S
O304 Nd280 2.410 . S
O304 C290 1.251 . S
O305 Nd281 2.424 . S
O305 C290 1.268 1_455 S
O306 Nd281 2.500 . S
O306 C291 1.258 . S
O307 Nd281 2.492 . S
O307 C291 1.239 . S
O308 Nd281 2.487 . S
O308 C298 1.241 . S
O309 Nd280 2.414 1_455 S
O309 Nd281 2.682 . S
O309 C298 1.273 . S
O310 Nd281 2.410 . S
O310 C299 1.251 . S
O311 Nd280 2.424 . S
O311 C299 1.268 1_655 S
H312 C284 0.930 . S
H313 C285 0.929 . S
H314 C287 0.930 . S
H315 C288 0.929 . S
H316 C293 0.930 . S
H317 C294 0.929 . S
H318 C296 0.930 . S
H319 C297 0.929 . S
C320 C321 1.363 . S
C320 C326 1.379 . S
C320 N328 1.356 . S
C321 C320 1.363 . S
C321 C327 1.363 . S
C322 C323 1.363 . S
C322 C327 1.379 . S
C322 N329 1.356 . S
C323 C322 1.363 . S
C323 C326 1.363 . S
N324 C326 1.356 . S
N324 H336 0.984 . S
N324 H337 0.985 . S
N325 C327 1.356 . S
N325 H330 0.984 . S
N325 H331 0.985 . S
C326 C320 1.379 . S
C326 C323 1.363 . S
C326 N324 1.356 . S
C327 C321 1.363 . S
C327 C322 1.379 . S
C327 N325 1.356 . S
N328 C320 1.356 . S
N328 H334 0.984 1_554 S
N328 H335 0.984 . S
N329 C322 1.356 . S
N329 H332 0.984 . S
N329 H333 0.985 . S
H330 N325 0.984 . S
H331 N325 0.985 . S
H332 N329 0.984 . S
H333 N329 0.985 . S
H334 N328 0.984 1_556 S
H335 N328 0.984 . S
H336 N324 0.984 . S
H337 N324 0.985 . S
C338 C339 1.363 . S
C338 C344 1.379 . S
C338 N346 1.356 . S
C339 C338 1.363 . S
C339 C345 1.363 . S
C340 C341 1.363 . S
C340 C345 1.379 . S
C340 N347 1.356 . S
C341 C340 1.363 . S
C341 C344 1.363 . S
N342 C344 1.356 . S
N342 H354 0.984 . S
N342 H355 0.985 . S
N343 C345 1.356 . S
N343 H348 0.984 . S
N343 H349 0.985 . S
C344 C338 1.379 . S
C344 C341 1.363 . S
C344 N342 1.356 . S
C345 C339 1.363 . S
C345 C340 1.379 . S
C345 N343 1.356 . S
N346 C338 1.356 . S
N346 H352 0.984 . S
N346 H353 0.984 . S
N347 C340 1.356 . S
N347 H350 0.984 . S
N347 H351 0.985 . S
H348 N343 0.984 . S
H349 N343 0.985 . S
H350 N347 0.984 . S
H351 N347 0.985 . S
H352 N346 0.984 . S
H353 N346 0.984 . S
H354 N342 0.984 . S
H355 N342 0.985 . S
C356 C357 1.363 . S
C356 C362 1.379 . S
C356 N364 1.356 . S
C357 C356 1.363 . S
C357 C363 1.363 . S
C358 C359 1.363 . S
C358 C363 1.379 . S
C358 N365 1.356 . S
C359 C358 1.363 . S
C359 C362 1.363 . S
N360 C362 1.356 . S
N360 H372 0.984 . S
N360 H373 0.985 . S
N361 C363 1.356 . S
N361 H366 0.984 . S
N361 H367 0.985 . S
C362 C356 1.379 . S
C362 C359 1.363 . S
C362 N360 1.356 . S
C363 C357 1.363 . S
C363 C358 1.379 . S
C363 N361 1.356 . S
N364 C356 1.356 . S
N364 H370 0.984 . S
N364 H371 0.984 . S
N365 C358 1.356 . S
N365 H368 0.984 . S
N365 H369 0.985 . S
H366 N361 0.984 . S
H367 N361 0.985 . S
H368 N365 0.984 . S
H369 N365 0.985 . S
H370 N364 0.984 . S
H371 N364 0.984 . S
H372 N360 0.984 . S
H373 N360 0.985 . S
C374 C375 1.363 1_556 S
C374 C380 1.379 . S
C374 N382 1.356 . S
C375 C374 1.363 1_554 S
C375 C381 1.363 . S
C376 C377 1.363 1_554 S
C376 C381 1.379 . S
C376 N383 1.356 . S
C377 C376 1.363 1_556 S
C377 C380 1.363 . S
N378 C380 1.356 . S
N378 H390 0.984 . S
N378 H391 0.985 . S
N379 C381 1.356 . S
N379 H384 0.984 . S
N379 H385 0.985 . S
C380 C374 1.379 . S
C380 C377 1.363 . S
C380 N378 1.356 . S
C381 C375 1.363 . S
C381 C376 1.379 . S
C381 N379 1.356 . S
N382 C374 1.356 . S
N382 H388 0.984 . S
N382 H389 0.984 . S
N383 C376 1.356 . S
N383 H386 0.984 . S
N383 H387 0.985 . S
H384 N379 0.984 . S
H385 N379 0.985 . S
H386 N383 0.984 . S
H387 N383 0.985 . S
H388 N382 0.984 . S
H389 N382 0.984 . S
H390 N378 0.984 . S
H391 N378 0.985 . S
C392 C393 1.363 . S
C392 C398 1.379 . S
C392 N400 1.356 . S
C393 C392 1.363 . S
C393 C399 1.363 . S
C394 C395 1.363 . S
C394 C399 1.379 . S
C394 N401 1.356 . S
C395 C394 1.363 . S
C395 C398 1.363 . S
N396 C398 1.356 . S
N396 H408 0.984 . S
N396 H409 0.985 . S
N397 C399 1.356 . S
N397 H402 0.984 . S
N397 H403 0.985 . S
C398 C392 1.379 . S
C398 C395 1.363 . S
C398 N396 1.356 . S
C399 C393 1.363 . S
C399 C394 1.379 . S
C399 N397 1.356 . S
N400 C392 1.356 . S
N400 H406 0.984 . S
N400 H407 0.984 . S
N401 C394 1.356 . S
N401 H404 0.984 . S
N401 H405 0.985 . S
H402 N397 0.984 . S
H403 N397 0.985 . S
H404 N401 0.984 . S
H405 N401 0.985 . S
H406 N400 0.984 . S
H407 N400 0.984 . S
H408 N396 0.984 . S
H409 N396 0.985 . S
C410 C411 1.363 . S
C410 C416 1.379 . S
C410 N418 1.356 . S
C411 C410 1.363 . S
C411 C417 1.363 . S
C412 C413 1.363 . S
C412 C417 1.379 . S
C412 N419 1.356 . S
C413 C412 1.363 . S
C413 C416 1.363 . S
N414 C416 1.356 . S
N414 H426 0.984 . S
N414 H427 0.985 . S
N415 C417 1.356 . S
N415 H420 0.984 . S
N415 H421 0.985 . S
C416 C410 1.379 . S
C416 C413 1.363 . S
C416 N414 1.356 . S
C417 C411 1.363 . S
C417 C412 1.379 . S
C417 N415 1.356 . S
N418 C410 1.356 . S
N418 H424 0.984 . S
N418 H425 0.984 . S
N419 C412 1.356 . S
N419 H422 0.984 . S
N419 H423 0.985 . S
H420 N415 0.984 . S
H421 N415 0.985 . S
H422 N419 0.984 . S
H423 N419 0.985 . S
H424 N418 0.984 . S
H425 N418 0.984 . S
H426 N414 0.984 . S
H427 N414 0.985 . S
C428 C429 1.363 . S
C428 C434 1.379 . S
C428 N436 1.356 . S
C429 C428 1.363 . S
C429 C435 1.363 . S
C430 C431 1.363 . S
C430 C435 1.379 . S
C430 N437 1.356 . S
C431 C430 1.363 . S
C431 C434 1.363 . S
N432 C434 1.356 . S
N432 H444 0.984 . S
N432 H445 0.985 . S
N433 C435 1.356 . S
N433 H438 0.984 . S
N433 H439 0.985 . S
C434 C428 1.379 . S
C434 C431 1.363 . S
C434 N432 1.356 . S
C435 C429 1.363 . S
C435 C430 1.379 . S
C435 N433 1.356 . S
N436 C428 1.356 . S
N436 H442 0.984 . S
N436 H443 0.984 . S
N437 C430 1.356 . S
N437 H440 0.984 . S
N437 H441 0.985 . S
H438 N433 0.984 . S
H439 N433 0.985 . S
H440 N437 0.984 . S
H441 N437 0.985 . S
H442 N436 0.984 . S
H443 N436 0.984 . S
H444 N432 0.984 . S
H445 N432 0.985 . S
C446 C447 1.363 1_556 S
C446 C452 1.379 . S
C446 N454 1.356 . S
C447 C446 1.363 1_554 S
C447 C453 1.363 . S
C448 C449 1.363 1_554 S
C448 C453 1.379 . S
C448 N455 1.356 . S
C449 C448 1.363 1_556 S
C449 C452 1.363 . S
N450 C452 1.356 . S
N450 H462 0.984 . S
N450 H463 0.985 . S
N451 C453 1.356 . S
N451 H456 0.984 . S
N451 H457 0.985 . S
C452 C446 1.379 . S
C452 C449 1.363 . S
C452 N450 1.356 . S
C453 C447 1.363 . S
C453 C448 1.379 . S
C453 N451 1.356 . S
N454 C446 1.356 . S
N454 H460 0.984 . S
N454 H461 0.984 . S
N455 C448 1.356 . S
N455 H458 0.984 . S
N455 H459 0.985 . S
H456 N451 0.984 . S
H457 N451 0.985 . S
H458 N455 0.984 . S
H459 N455 0.985 . S
H460 N454 0.984 . S
H461 N454 0.984 . S
H462 N450 0.984 . S
H463 N450 0.985 . S
C464 C465 1.363 . S
C464 C470 1.379 . S
C464 N472 1.356 . S
C465 C464 1.363 . S
C465 C471 1.363 . S
C466 C467 1.363 . S
C466 C471 1.379 . S
C466 N473 1.356 . S
C467 C466 1.363 . S
C467 C470 1.363 . S
N468 C470 1.356 . S
N468 H480 0.984 . S
N468 H481 0.985 . S
N469 C471 1.356 . S
N469 H474 0.984 . S
N469 H475 0.985 . S
C470 C464 1.379 . S
C470 C467 1.363 . S
C470 N468 1.356 . S
C471 C465 1.363 . S
C471 C466 1.379 . S
C471 N469 1.356 . S
N472 C464 1.356 . S
N472 H478 0.984 . S
N472 H479 0.984 . S
N473 C466 1.356 . S
N473 H476 0.984 . S
N473 H477 0.985 . S
H474 N469 0.984 . S
H475 N469 0.985 . S
H476 N473 0.984 . S
H477 N473 0.985 . S
H478 N472 0.984 . S
H479 N472 0.984 . S
H480 N468 0.984 . S
H481 N468 0.985 . S
C482 C483 1.363 . S
C482 C488 1.379 . S
C482 N490 1.356 . S
C483 C482 1.363 . S
C483 C489 1.363 1_556 S
C484 C485 1.363 . S
C484 C489 1.379 . S
C484 N491 1.356 . S
C485 C484 1.363 . S
C485 C488 1.363 1_554 S
N486 C488 1.356 . S
N486 H498 0.984 . S
N486 H499 0.985 . S
N487 C489 1.356 . S
N487 H492 0.984 . S
N487 H493 0.985 . S
C488 C482 1.379 . S
C488 C485 1.363 1_556 S
C488 N486 1.356 . S
C489 C483 1.363 1_554 S
C489 C484 1.379 . S
C489 N487 1.356 . S
N490 C482 1.356 . S
N490 H496 0.984 . S
N490 H497 0.984 . S
N491 C484 1.356 . S
N491 H494 0.984 . S
N491 H495 0.985 . S
H492 N487 0.984 . S
H493 N487 0.985 . S
H494 N491 0.984 . S
H495 N491 0.985 . S
H496 N490 0.984 . S
H497 N490 0.984 . S
H498 N486 0.984 . S
H499 N486 0.985 . S
C500 C501 1.363 . S
C500 C506 1.379 . S
C500 N508 1.356 . S
C501 C500 1.363 . S
C501 C507 1.363 . S
C502 C503 1.363 . S
C502 C507 1.379 . S
C502 N509 1.356 . S
C503 C502 1.363 . S
C503 C506 1.363 . S
N504 C506 1.356 . S
N504 H516 0.984 . S
N504 H517 0.985 . S
N505 C507 1.356 . S
N505 H510 0.984 . S
N505 H511 0.985 1_554 S
C506 C500 1.379 . S
C506 C503 1.363 . S
C506 N504 1.356 . S
C507 C501 1.363 . S
C507 C502 1.379 . S
C507 N505 1.356 . S
N508 C500 1.356 . S
N508 H514 0.984 . S
N508 H515 0.984 . S
N509 C502 1.356 . S
N509 H512 0.984 . S
N509 H513 0.985 . S
H510 N505 0.984 . S
H511 N505 0.985 1_556 S
H512 N509 0.984 . S
H513 N509 0.985 . S
H514 N508 0.984 . S
H515 N508 0.984 . S
H516 N504 0.984 . S
H517 N504 0.985 . S
C518 C519 1.363 . S
C518 C524 1.379 . S
C518 N526 1.356 . S
C519 C518 1.363 . S
C519 C525 1.363 . S
C520 C521 1.363 . S
C520 C525 1.379 . S
C520 N527 1.356 . S
C521 C520 1.363 . S
C521 C524 1.363 . S
N522 C524 1.356 . S
N522 H534 0.984 . S
N522 H535 0.985 . S
N523 C525 1.356 . S
N523 H528 0.984 . S
N523 H529 0.985 . S
C524 C518 1.379 . S
C524 C521 1.363 . S
C524 N522 1.356 . S
C525 C519 1.363 . S
C525 C520 1.379 . S
C525 N523 1.356 . S
N526 C518 1.356 . S
N526 H532 0.984 . S
N526 H533 0.984 . S
N527 C520 1.356 . S
N527 H530 0.984 . S
N527 H531 0.985 . S
H528 N523 0.984 . S
H529 N523 0.985 . S
H530 N527 0.984 . S
H531 N527 0.985 . S
H532 N526 0.984 . S
H533 N526 0.984 . S
H534 N522 0.984 . S
H535 N522 0.985 . S
C536 C537 1.363 . S
C536 C542 1.379 . S
C536 N544 1.356 . S
C537 C536 1.363 . S
C537 C543 1.363 . S
C538 C539 1.363 . S
C538 C543 1.379 . S
C538 N545 1.356 . S
C539 C538 1.363 . S
C539 C542 1.363 . S
N540 C542 1.356 . S
N540 H552 0.984 . S
N540 H553 0.985 . S
N541 C543 1.356 . S
N541 H546 0.984 . S
N541 H547 0.985 1_554 S
C542 C536 1.379 . S
C542 C539 1.363 . S
C542 N540 1.356 . S
C543 C537 1.363 . S
C543 C538 1.379 . S
C543 N541 1.356 . S
N544 C536 1.356 . S
N544 H550 0.984 . S
N544 H551 0.984 . S
N545 C538 1.356 . S
N545 H548 0.984 . S
N545 H549 0.985 . S
H546 N541 0.984 . S
H547 N541 0.985 1_556 S
H548 N545 0.984 . S
H549 N545 0.985 . S
H550 N544 0.984 . S
H551 N544 0.984 . S
H552 N540 0.984 . S
H553 N540 0.985 . S
C554 C555 1.363 . S
C554 C560 1.379 . S
C554 N562 1.356 . S
C555 C554 1.363 . S
C555 C561 1.363 1_556 S
C556 C557 1.363 . S
C556 C561 1.379 . S
C556 N563 1.356 . S
C557 C556 1.363 . S
C557 C560 1.363 1_554 S
N558 C560 1.356 . S
N558 H570 0.984 . S
N558 H571 0.985 . S
N559 C561 1.356 . S
N559 H564 0.984 . S
N559 H565 0.985 . S
C560 C554 1.379 . S
C560 C557 1.363 1_556 S
C560 N558 1.356 . S
C561 C555 1.363 1_554 S
C561 C556 1.379 . S
C561 N559 1.356 . S
N562 C554 1.356 . S
N562 H568 0.984 . S
N562 H569 0.984 . S
N563 C556 1.356 . S
N563 H566 0.984 . S
N563 H567 0.985 . S
H564 N559 0.984 . S
H565 N559 0.985 . S
H566 N563 0.984 . S
H567 N563 0.985 . S
H568 N562 0.984 . S
H569 N562 0.984 . S
H570 N558 0.984 . S
H571 N558 0.985 . S
C572 C573 1.363 . S
C572 C578 1.379 . S
C572 N580 1.356 . S
C573 C572 1.363 . S
C573 C579 1.363 . S
C574 C575 1.363 . S
C574 C579 1.379 . S
C574 N581 1.356 . S
C575 C574 1.363 . S
C575 C578 1.363 . S
N576 C578 1.356 . S
N576 H588 0.984 . S
N576 H589 0.985 . S
N577 C579 1.356 . S
N577 H582 0.984 . S
N577 H583 0.985 . S
C578 C572 1.379 . S
C578 C575 1.363 . S
C578 N576 1.356 . S
C579 C573 1.363 . S
C579 C574 1.379 . S
C579 N577 1.356 . S
N580 C572 1.356 . S
N580 H586 0.984 . S
N580 H587 0.984 . S
N581 C574 1.356 . S
N581 H584 0.984 . S
N581 H585 0.985 . S
H582 N577 0.984 . S
H583 N577 0.985 . S
H584 N581 0.984 . S
H585 N581 0.985 . S
H586 N580 0.984 . S
H587 N580 0.984 . S
H588 N576 0.984 . S
H589 N576 0.985 . S
C590 C591 1.363 . S
C590 C596 1.379 . S
C590 N598 1.356 . S
C591 C590 1.363 . S
C591 C597 1.363 . S
C592 C593 1.363 . S
C592 C597 1.379 . S
C592 N599 1.356 . S
C593 C592 1.363 . S
C593 C596 1.363 . S
N594 C596 1.356 . S
N594 H606 0.984 . S
N594 H607 0.985 . S
N595 C597 1.356 . S
N595 H600 0.984 . S
N595 H601 0.985 . S
C596 C590 1.379 . S
C596 C593 1.363 . S
C596 N594 1.356 . S
C597 C591 1.363 . S
C597 C592 1.379 . S
C597 N595 1.356 . S
N598 C590 1.356 . S
N598 H604 0.984 . S
N598 H605 0.984 . S
N599 C592 1.356 . S
N599 H602 0.984 . S
N599 H603 0.985 . S
H600 N595 0.984 . S
H601 N595 0.985 . S
H602 N599 0.984 . S
H603 N599 0.985 . S
H604 N598 0.984 . S
H605 N598 0.984 . S
H606 N594 0.984 . S
H607 N594 0.985 . S
C608 C609 1.363 . S
C608 C614 1.379 1_556 S
C608 N616 1.356 . S
C609 C608 1.363 . S
C609 C615 1.363 1_665 S
C610 C611 1.363 . S
C610 C615 1.379 1_554 S
C610 N617 1.356 . S
C611 C610 1.363 . S
C611 C614 1.363 1_445 S
N612 C614 1.356 . S
N612 H624 0.984 . S
N612 H625 0.985 . S
N613 C615 1.356 . S
N613 H618 0.984 . S
N613 H619 0.985 . S
C614 C608 1.379 1_554 S
C614 C611 1.363 1_665 S
C614 N612 1.356 . S
C615 C609 1.363 1_445 S
C615 C610 1.379 1_556 S
C615 N613 1.356 . S
N616 C608 1.356 . S
N616 H622 0.984 . S
N616 H623 0.984 . S
N617 C610 1.356 . S
N617 H620 0.984 . S
N617 H621 0.985 . S
H618 N613 0.984 . S
H619 N613 0.985 . S
H620 N617 0.984 . S
H621 N617 0.985 . S
H622 N616 0.984 . S
H623 N616 0.984 . S
H624 N612 0.984 . S
H625 N612 0.985 . S
C626 C627 1.363 . S
C626 C632 1.379 . S
C626 N634 1.356 . S
C627 C626 1.363 . S
C627 C633 1.363 . S
C628 C629 1.363 . S
C628 C633 1.379 . S
C628 N635 1.356 . S
C629 C628 1.363 . S
C629 C632 1.363 . S
N630 C632 1.356 . S
N630 H642 0.984 . S
N630 H643 0.985 . S
N631 C633 1.356 . S
N631 H636 0.984 . S
N631 H637 0.985 . S
C632 C626 1.379 . S
C632 C629 1.363 . S
C632 N630 1.356 . S
C633 C627 1.363 . S
C633 C628 1.379 . S
C633 N631 1.356 . S
N634 C626 1.356 . S
N634 H640 0.984 . S
N634 H641 0.984 . S
N635 C628 1.356 . S
N635 H638 0.984 . S
N635 H639 0.985 . S
H636 N631 0.984 . S
H637 N631 0.985 . S
H638 N635 0.984 . S
H639 N635 0.985 . S
H640 N634 0.984 . S
H641 N634 0.984 . S
H642 N630 0.984 . S
H643 N630 0.985 . S
C644 C645 1.363 . S
C644 C650 1.379 . S
C644 N652 1.356 . S
C645 C644 1.363 . S
C645 C651 1.363 1_565 S
C646 C647 1.363 . S
C646 C651 1.379 . S
C646 N653 1.356 . S
C647 C646 1.363 . S
C647 C650 1.363 1_545 S
N648 C650 1.356 . S
N648 H660 0.984 . S
N648 H661 0.985 . S
N649 C651 1.356 . S
N649 H654 0.984 . S
N649 H655 0.985 . S
C650 C644 1.379 . S
C650 C647 1.363 1_565 S
C650 N648 1.356 . S
C651 C645 1.363 1_545 S
C651 C646 1.379 . S
C651 N649 1.356 . S
N652 C644 1.356 . S
N652 H658 0.984 . S
N652 H659 0.984 . S
N653 C646 1.356 . S
N653 H656 0.984 . S
N653 H657 0.985 . S
H654 N649 0.984 . S
H655 N649 0.985 . S
H656 N653 0.984 . S
H657 N653 0.985 . S
H658 N652 0.984 . S
H659 N652 0.984 . S
H660 N648 0.984 . S
H661 N648 0.985 . S
C662 C663 1.363 . S
C662 C668 1.379 . S
C662 N670 1.356 . S
C663 C662 1.363 . S
C663 C669 1.363 . S
C664 C665 1.363 . S
C664 C669 1.379 . S
C664 N671 1.356 . S
C665 C664 1.363 . S
C665 C668 1.363 . S
N666 C668 1.356 . S
N666 H678 0.984 . S
N666 H679 0.985 . S
N667 C669 1.356 . S
N667 H672 0.984 . S
N667 H673 0.985 . S
C668 C662 1.379 . S
C668 C665 1.363 . S
C668 N666 1.356 . S
C669 C663 1.363 . S
C669 C664 1.379 . S
C669 N667 1.356 . S
N670 C662 1.356 . S
N670 H676 0.984 . S
N670 H677 0.984 . S
N671 C664 1.356 . S
N671 H674 0.984 . S
N671 H675 0.985 . S
H672 N667 0.984 . S
H673 N667 0.985 . S
H674 N671 0.984 . S
H675 N671 0.985 . S
H676 N670 0.984 . S
H677 N670 0.984 . S
H678 N666 0.984 . S
H679 N666 0.985 . S
C680 C681 1.363 . S
C680 C686 1.379 . S
C680 N688 1.356 . S
C681 C680 1.363 . S
C681 C687 1.363 . S
C682 C683 1.363 . S
C682 C687 1.379 . S
C682 N689 1.356 . S
C683 C682 1.363 . S
C683 C686 1.363 . S
N684 C686 1.356 . S
N684 H696 0.984 . S
N684 H697 0.985 . S
N685 C687 1.356 . S
N685 H690 0.984 . S
N685 H691 0.985 . S
C686 C680 1.379 . S
C686 C683 1.363 . S
C686 N684 1.356 . S
C687 C681 1.363 . S
C687 C682 1.379 . S
C687 N685 1.356 . S
N688 C680 1.356 . S
N688 H694 0.984 . S
N688 H695 0.984 . S
N689 C682 1.356 . S
N689 H692 0.984 . S
N689 H693 0.985 . S
H690 N685 0.984 . S
H691 N685 0.985 . S
H692 N689 0.984 . S
H693 N689 0.985 . S
H694 N688 0.984 . S
H695 N688 0.984 . S
H696 N684 0.984 . S
H697 N684 0.985 . S
C698 C699 1.363 . S
C698 C704 1.379 . S
C698 N706 1.356 . S
C699 C698 1.363 . S
C699 C705 1.363 . S
C700 C701 1.363 . S
C700 C705 1.379 . S
C700 N707 1.356 . S
C701 C700 1.363 . S
C701 C704 1.363 . S
N702 C704 1.356 . S
N702 H714 0.984 . S
N702 H715 0.985 . S
N703 C705 1.356 . S
N703 H708 0.984 . S
N703 H709 0.985 . S
C704 C698 1.379 . S
C704 C701 1.363 . S
C704 N702 1.356 . S
C705 C699 1.363 . S
C705 C700 1.379 . S
C705 N703 1.356 . S
N706 C698 1.356 . S
N706 H712 0.984 . S
N706 H713 0.984 . S
N707 C700 1.356 . S
N707 H710 0.984 . S
N707 H711 0.985 . S
H708 N703 0.984 . S
H709 N703 0.985 . S
H710 N707 0.984 . S
H711 N707 0.985 . S
H712 N706 0.984 . S
H713 N706 0.984 . S
H714 N702 0.984 . S
H715 N702 0.985 . S
C716 C717 1.363 . S
C716 C722 1.379 . S
C716 N724 1.356 . S
C717 C716 1.363 . S
C717 C723 1.363 . S
C718 C719 1.363 . S
C718 C723 1.379 . S
C718 N725 1.356 . S
C719 C718 1.363 . S
C719 C722 1.363 . S
N720 C722 1.356 . S
N720 H732 0.984 . S
N720 H733 0.985 . S
N721 C723 1.356 . S
N721 H726 0.984 . S
N721 H727 0.985 . S
C722 C716 1.379 . S
C722 C719 1.363 . S
C722 N720 1.356 . S
C723 C717 1.363 . S
C723 C718 1.379 . S
C723 N721 1.356 . S
N724 C716 1.356 . S
N724 H730 0.984 . S
N724 H731 0.984 . S
N725 C718 1.356 . S
N725 H728 0.984 . S
N725 H729 0.985 . S
H726 N721 0.984 . S
H727 N721 0.985 . S
H728 N725 0.984 . S
H729 N725 0.985 . S
H730 N724 0.984 . S
H731 N724 0.984 . S
H732 N720 0.984 . S
H733 N720 0.985 . S
C734 C735 1.363 1_655 S
C734 C740 1.379 1_556 S
C734 N742 1.356 . S
C735 C734 1.363 1_455 S
C735 C741 1.363 . S
C736 C737 1.363 1_455 S
C736 C741 1.379 1_554 S
C736 N743 1.356 . S
C737 C736 1.363 1_655 S
C737 C740 1.363 . S
N738 C740 1.356 . S
N738 H750 0.984 . S
N738 H751 0.985 . S
N739 C741 1.356 . S
N739 H744 0.984 . S
N739 H745 0.985 . S
C740 C734 1.379 1_554 S
C740 C737 1.363 . S
C740 N738 1.356 . S
C741 C735 1.363 . S
C741 C736 1.379 1_556 S
C741 N739 1.356 . S
N742 C734 1.356 . S
N742 H748 0.984 . S
N742 H749 0.984 . S
N743 C736 1.356 . S
N743 H746 0.984 . S
N743 H747 0.985 . S
H744 N739 0.984 . S
H745 N739 0.985 . S
H746 N743 0.984 . S
H747 N743 0.985 . S
H748 N742 0.984 . S
H749 N742 0.984 . S
H750 N738 0.984 . S
H751 N738 0.985 . S
C321 C6 1.725 . S
C323 C129 1.769 . S
C339 C9 1.773 . S
C341 C46 1.726 . S
C357 C49 1.773 . S
C359 C86 1.727 . S
C375 C89 1.772 . S
C377 C126 1.722 . S
C393 C15 1.725 . S
C395 C218 1.776 . S
C411 C18 1.773 . S
C413 C175 1.723 . S
C429 C178 1.773 . S
C431 C95 1.722 . S
C447 C215 1.725 . S
C449 C98 1.776 . S
C465 C246 1.724 . S
C467 C209 1.772 . S
C483 C166 1.725 . S
C485 C249 1.773 . S
C501 C286 1.725 . S
C503 C169 1.774 . S
C519 C206 1.725 . S
C521 C289 1.774 . S
C537 C138 1.773 . S
C539 C255 1.725 . S
C555 C258 1.772 . S
C557 C55 1.725 . S
C573 C58 1.773 . S
C575 C295 1.723 . S
C591 C135 1.725 . S
C593 C298 1.771 . S
C609 C19 2.092 . S
C611 C10 2.092 . S
C627 C50 2.092 . S
C629 C59 2.092 1_554 S
C645 C90 2.092 . S
C647 C99 2.092 . S
C663 C130 2.092 1_556 S
C665 C139 2.092 . S
C681 C170 2.092 1_556 S
C683 C179 2.092 . S
C699 C210 2.092 . S
C701 C219 2.092 1_554 S
C717 C250 2.092 . S
C719 C259 2.092 . S
C735 C299 2.092 . S
C737 C290 2.092 . S
