# Generated by pormake.
# Topology why, (6)-cn, num edge types: 1
# Building blocks:
#     Node 0, Type 0, BuildingBlock: BETFAJ_clean_sbu_0, # of connection points: 6
#     Node 1, Type 0, BuildingBlock: BETFAJ_clean_sbu_0, # of connection points: 6
#     Node 2, Type 0, BuildingBlock: BETFAJ_clean_sbu_0, # of connection points: 6
#     Node 3, Type 0, BuildingBlock: BETFAJ_clean_sbu_0, # of connection points: 6
#     Node 4, Type 0, BuildingBlock: BETFAJ_clean_sbu_0, # of connection points: 6
#     Node 5, Type 0, BuildingBlock: BETFAJ_clean_sbu_0, # of connection points: 6
#     Node 6, Type 0, BuildingBlock: BETFAJ_clean_sbu_0, # of connection points: 6
#     Node 7, Type 0, BuildingBlock: BETFAJ_clean_sbu_0, # of connection points: 6
#     Node 8, Type 0, BuildingBlock: BETFAJ_clean_sbu_0, # of connection points: 6
#     Node 9, Type 0, BuildingBlock: BETFAJ_clean_sbu_0, # of connection points: 6
#     Node 10, Type 0, BuildingBlock: BETFAJ_clean_sbu_0, # of connection points: 6
#     Node 11, Type 0, BuildingBlock: BETFAJ_clean_sbu_0, # of connection points: 6
#     Node 12, Type 0, BuildingBlock: BETFAJ_clean_sbu_0, # of connection points: 6
#     Node 13, Type 0, BuildingBlock: BETFAJ_clean_sbu_0, # of connection points: 6
#     Node 14, Type 0, BuildingBlock: BETFAJ_clean_sbu_0, # of connection points: 6
#     Node 15, Type 0, BuildingBlock: BETFAJ_clean_sbu_0, # of connection points: 6
#     Edge 16, Type (0, 0), BuildingBlock: KIFKEQ_clean_linker_1, # of connection points: 2
#     Edge 17, Type (0, 0), BuildingBlock: KIFKEQ_clean_linker_1, # of connection points: 2
#     Edge 18, Type (0, 0), BuildingBlock: KIFKEQ_clean_linker_1, # of connection points: 2
#     Edge 19, Type (0, 0), BuildingBlock: KIFKEQ_clean_linker_1, # of connection points: 2
#     Edge 20, Type (0, 0), BuildingBlock: KIFKEQ_clean_linker_1, # of connection points: 2
#     Edge 21, Type (0, 0), BuildingBlock: KIFKEQ_clean_linker_1, # of connection points: 2
#     Edge 22, Type (0, 0), BuildingBlock: KIFKEQ_clean_linker_1, # of connection points: 2
#     Edge 23, Type (0, 0), BuildingBlock: KIFKEQ_clean_linker_1, # of connection points: 2
#     Edge 24, Type (0, 0), BuildingBlock: KIFKEQ_clean_linker_1, # of connection points: 2
#     Edge 25, Type (0, 0), BuildingBlock: KIFKEQ_clean_linker_1, # of connection points: 2
#     Edge 26, Type (0, 0), BuildingBlock: KIFKEQ_clean_linker_1, # of connection points: 2
#     Edge 27, Type (0, 0), BuildingBlock: KIFKEQ_clean_linker_1, # of connection points: 2
#     Edge 28, Type (0, 0), BuildingBlock: KIFKEQ_clean_linker_1, # of connection points: 2
#     Edge 29, Type (0, 0), BuildingBlock: KIFKEQ_clean_linker_1, # of connection points: 2
#     Edge 30, Type (0, 0), BuildingBlock: KIFKEQ_clean_linker_1, # of connection points: 2
#     Edge 31, Type (0, 0), BuildingBlock: KIFKEQ_clean_linker_1, # of connection points: 2
#     Edge 32, Type (0, 0), BuildingBlock: KIFKEQ_clean_linker_1, # of connection points: 2
#     Edge 33, Type (0, 0), BuildingBlock: KIFKEQ_clean_linker_1, # of connection points: 2
#     Edge 34, Type (0, 0), BuildingBlock: KIFKEQ_clean_linker_1, # of connection points: 2
#     Edge 35, Type (0, 0), BuildingBlock: KIFKEQ_clean_linker_1, # of connection points: 2
#     Edge 36, Type (0, 0), BuildingBlock: KIFKEQ_clean_linker_1, # of connection points: 2
#     Edge 37, Type (0, 0), BuildingBlock: KIFKEQ_clean_linker_1, # of connection points: 2
#     Edge 38, Type (0, 0), BuildingBlock: KIFKEQ_clean_linker_1, # of connection points: 2
#     Edge 39, Type (0, 0), BuildingBlock: KIFKEQ_clean_linker_1, # of connection points: 2
#     Edge 40, Type (0, 0), BuildingBlock: KIFKEQ_clean_linker_1, # of connection points: 2
#     Edge 41, Type (0, 0), BuildingBlock: KIFKEQ_clean_linker_1, # of connection points: 2
#     Edge 42, Type (0, 0), BuildingBlock: KIFKEQ_clean_linker_1, # of connection points: 2
#     Edge 43, Type (0, 0), BuildingBlock: KIFKEQ_clean_linker_1, # of connection points: 2
#     Edge 44, Type (0, 0), BuildingBlock: KIFKEQ_clean_linker_1, # of connection points: 2
#     Edge 45, Type (0, 0), BuildingBlock: KIFKEQ_clean_linker_1, # of connection points: 2
#     Edge 46, Type (0, 0), BuildingBlock: KIFKEQ_clean_linker_1, # of connection points: 2
#     Edge 47, Type (0, 0), BuildingBlock: KIFKEQ_clean_linker_1, # of connection points: 2
#     Edge 48, Type (0, 0), BuildingBlock: KIFKEQ_clean_linker_1, # of connection points: 2
#     Edge 49, Type (0, 0), BuildingBlock: KIFKEQ_clean_linker_1, # of connection points: 2
#     Edge 50, Type (0, 0), BuildingBlock: KIFKEQ_clean_linker_1, # of connection points: 2
#     Edge 51, Type (0, 0), BuildingBlock: KIFKEQ_clean_linker_1, # of connection points: 2
#     Edge 52, Type (0, 0), BuildingBlock: KIFKEQ_clean_linker_1, # of connection points: 2
#     Edge 53, Type (0, 0), BuildingBlock: KIFKEQ_clean_linker_1, # of connection points: 2
#     Edge 54, Type (0, 0), BuildingBlock: KIFKEQ_clean_linker_1, # of connection points: 2
#     Edge 55, Type (0, 0), BuildingBlock: KIFKEQ_clean_linker_1, # of connection points: 2
#     Edge 56, Type (0, 0), BuildingBlock: KIFKEQ_clean_linker_1, # of connection points: 2
#     Edge 57, Type (0, 0), BuildingBlock: KIFKEQ_clean_linker_1, # of connection points: 2
#     Edge 58, Type (0, 0), BuildingBlock: KIFKEQ_clean_linker_1, # of connection points: 2
#     Edge 59, Type (0, 0), BuildingBlock: KIFKEQ_clean_linker_1, # of connection points: 2
#     Edge 60, Type (0, 0), BuildingBlock: KIFKEQ_clean_linker_1, # of connection points: 2
#     Edge 61, Type (0, 0), BuildingBlock: KIFKEQ_clean_linker_1, # of connection points: 2
#     Edge 62, Type (0, 0), BuildingBlock: KIFKEQ_clean_linker_1, # of connection points: 2
#     Edge 63, Type (0, 0), BuildingBlock: KIFKEQ_clean_linker_1, # of connection points: 2
# Relax obj value: 0.417
# Max RMSD: 0.229
# Mean RMSD: 0.229
data_MOF--net-why--node1-BETFAJ_clean_sbu_0--edge1-KIFKEQ_clean_linker_1
_symmetry_space_group_name_H-M    P1
_symmetry_Int_Tables_number       1
_symmetry_cell_setting            triclinic
loop_
_symmetry_equiv_pos_as_xyz
'x, y, z'
_cell_length_a     52.257949
_cell_length_b     51.940261
_cell_length_c     38.730785
_cell_angle_alpha  89.811976
_cell_angle_beta   89.97363
_cell_angle_gamma 89.57707
loop_
_atom_site_label
_atom_site_type_symbol
_atom_site_fract_x
_atom_site_fract_y
_atom_site_fract_z
_atom_type_partial_charge
Sm0 Sm 0.4685 0.20334 0.06405 0.0
Sm1 Sm 0.44498 0.23149 0.10605 0.0
C2 C 0.50012 0.17937 0.02081 0.0
C3 C 0.51395 0.18402 0.98831 0.0
C4 C 0.50263 0.19746 0.96066 0.0
C5 C 0.51604 0.20077 0.92968 0.0
C6 C 0.54102 0.19081 0.92593 0.0
C7 C 0.55237 0.17789 0.95408 0.0
C8 C 0.53893 0.17447 0.98486 0.0
C9 C 0.45751 0.17025 0.12261 0.0
C10 C 0.5031 0.25545 0.09543 0.0
C11 C 0.41231 0.2431 0.15589 0.0
C12 C 0.38446 0.24757 0.15684 0.0
C13 C 0.3671 0.22832 0.14693 0.0
C14 C 0.34075 0.23309 0.14779 0.0
C15 C 0.33142 0.25726 0.15806 0.0
C16 C 0.34882 0.27652 0.16754 0.0
C17 C 0.37507 0.27167 0.16706 0.0
C18 C 0.45226 0.26148 0.04874 0.0
C19 C 0.40623 0.21 0.04124 0.0
O20 O 0.47527 0.17774 0.01915 0.0
O21 O 0.50789 0.19205 0.04779 0.0
O22 O 0.46668 0.1934 0.12358 0.0
O23 O 0.45175 0.16629 0.09062 0.0
O24 O 0.5013 0.23719 0.071 0.0
O25 O 0.48348 0.25546 0.11757 0.0
O26 O 0.42 0.21966 0.14944 0.0
O27 O 0.42585 0.26039 0.13984 0.0
O28 O 0.44602 0.23808 0.04808 0.0
O29 O 0.45381 0.27021 0.08002 0.0
O30 O 0.40691 0.22146 0.07212 0.0
O31 O 0.42917 0.20173 0.03028 0.0
H32 H 0.48338 0.20517 0.96286 0.0
H33 H 0.50666 0.21068 0.90849 0.0
H34 H 0.57176 0.17049 0.95244 0.0
H35 H 0.54804 0.16423 0.00601 0.0
H36 H 0.37379 0.20955 0.13863 0.0
H37 H 0.32769 0.21795 0.14052 0.0
H38 H 0.3421 0.29516 0.17632 0.0
H39 H 0.38805 0.28676 0.17482 0.0
Sm40 Sm 0.70674 0.72257 0.31441 0.0
Sm41 Sm 0.67927 0.69997 0.35738 0.0
C42 C 0.73183 0.75338 0.27154 0.0
C43 C 0.72874 0.76737 0.2389 0.0
C44 C 0.70498 0.77752 0.22861 0.0
C45 C 0.70292 0.79144 0.19776 0.0
C46 C 0.72457 0.79527 0.17676 0.0
C47 C 0.74816 0.78449 0.18695 0.0
C48 C 0.7502 0.77073 0.21778 0.0
C49 C 0.74011 0.71127 0.37237 0.0
C50 C 0.65525 0.75833 0.34555 0.0
C51 C 0.66858 0.66775 0.40829 0.0
C52 C 0.6651 0.63965 0.41011 0.0
C53 C 0.68529 0.62245 0.40248 0.0
C54 C 0.68149 0.59587 0.40402 0.0
C55 C 0.65739 0.58611 0.41274 0.0
C56 C 0.63722 0.60334 0.42005 0.0
C57 C 0.64107 0.62983 0.41887 0.0
C58 C 0.64873 0.70715 0.3007 0.0
C59 C 0.69993 0.66025 0.29252 0.0
O60 O 0.73263 0.72837 0.26957 0.0
O61 O 0.71873 0.76165 0.29802 0.0
O62 O 0.71732 0.7213 0.37361 0.0
O63 O 0.7433 0.70437 0.34062 0.0
O64 O 0.67205 0.75512 0.31956 0.0
O65 O 0.65686 0.73984 0.36953 0.0
O66 O 0.69165 0.67579 0.4016 0.0
O67 O 0.65102 0.68085 0.39182 0.0
O68 O 0.672 0.70063 0.29949 0.0
O69 O 0.6403 0.70872 0.33218 0.0
O70 O 0.68914 0.66127 0.32385 0.0
O71 O 0.70785 0.68312 0.28088 0.0
H72 H 0.68814 0.77494 0.24455 0.0
H73 H 0.68453 0.79966 0.19076 0.0
H74 H 0.76507 0.78665 0.17105 0.0
H75 H 0.76863 0.7628 0.22526 0.0
H76 H 0.70405 0.62945 0.39541 0.0
H77 H 0.69733 0.58297 0.39846 0.0
H78 H 0.61857 0.59631 0.42765 0.0
H79 H 0.62527 0.64266 0.42493 0.0
Sm80 Sm 0.18673 0.96043 0.56278 0.0
Sm81 Sm 0.20948 0.93257 0.60668 0.0
C82 C 0.15648 0.98502 0.51844 0.0
C83 C 0.14293 0.97989 0.48612 0.0
C84 C 0.13516 0.95493 0.47739 0.0
C85 C 0.12217 0.95063 0.44641 0.0
C86 C 0.11708 0.97119 0.42366 0.0
C87 C 0.12517 0.99607 0.43248 0.0
C88 C 0.13796 1.00036 0.46348 0.0
C89 C 0.19845 0.99443 0.62009 0.0
C90 C 0.15126 0.90838 0.59234 0.0
C91 C 0.23304 0.91641 0.66313 0.0
C92 C 0.22857 0.89464 0.6868 0.0
C93 C 0.21824 0.89918 0.71973 0.0
C94 C 0.21402 0.87877 0.7425 0.0
C95 C 0.22039 0.85344 0.73292 0.0
C96 C 0.22982 0.84888 0.69944 0.0
C97 C 0.23382 0.86923 0.67661 0.0
C98 C 0.20233 0.90157 0.55052 0.0
C99 C 0.24903 0.95407 0.54298 0.0
O100 O 0.18136 0.98533 0.51657 0.0
O101 O 0.1481 0.97331 0.54605 0.0
O102 O 0.18884 0.97157 0.62171 0.0
O103 O 0.20423 0.9978 0.58793 0.0
O104 O 0.15369 0.92662 0.56786 0.0
O105 O 0.17049 0.9082 0.61504 0.0
O106 O 0.24123 0.91109 0.63211 0.0
O107 O 0.2155 0.93439 0.66326 0.0
O108 O 0.20883 0.92488 0.54905 0.0
O109 O 0.20001 0.8935 0.58215 0.0
O110 O 0.24825 0.94556 0.57574 0.0
O111 O 0.22608 0.96 0.52988 0.0
H112 H 0.13909 0.93884 0.49451 0.0
H113 H 0.11632 0.93125 0.4401 0.0
H114 H 0.1212 1.01233 0.41567 0.0
H115 H 0.1439 1.01972 0.46987 0.0
H116 H 0.21376 0.91859 0.72807 0.0
H117 H 0.20661 0.8829 0.76802 0.0
H118 H 0.23548 0.82971 0.69139 0.0
H119 H 0.24157 0.86504 0.65129 0.0
Sm120 Sm 0.94804 0.44113 0.81482 0.0
Sm121 Sm 0.97566 0.4643 0.8555 0.0
C122 C 0.92313 0.40914 0.77365 0.0
C123 C 0.92762 0.39404 0.74239 0.0
C124 C 0.9525 0.38757 0.73168 0.0
C125 C 0.95622 0.37261 0.70213 0.0
C126 C 0.93512 0.36403 0.68289 0.0
C127 C 0.91029 0.37103 0.69356 0.0
C128 C 0.90661 0.38585 0.72311 0.0
C129 C 0.91497 0.45279 0.87298 0.0
C130 C 1.00018 0.406 0.84527 0.0
C131 C 0.98774 0.49767 0.90438 0.0
C132 C 0.99721 0.52409 0.90296 0.0
C133 C 0.99804 0.53891 0.93295 0.0
C134 C 1.00632 0.56438 0.93142 0.0
C135 C 1.01345 0.57563 0.89965 0.0
C136 C 1.01207 0.56066 0.86953 0.0
C137 C 1.00438 0.53504 0.87128 0.0
C138 C 1.00632 0.45658 0.79896 0.0
C139 C 0.95508 0.50296 0.78964 0.0
O140 O 0.92263 0.43406 0.76985 0.0
O141 O 0.93546 0.40177 0.80126 0.0
O142 O 0.93797 0.4432 0.87424 0.0
O143 O 0.91144 0.45923 0.84104 0.0
O144 O 0.98192 0.40792 0.82096 0.0
O145 O 0.99995 0.4256 0.86746 0.0
O146 O 0.96454 0.49471 0.8928 0.0
O147 O 1.00341 0.47981 0.89351 0.0
O148 O 0.98285 0.46239 0.79734 0.0
O149 O 1.01463 0.4561 0.83049 0.0
O150 O 0.96655 0.50227 0.82039 0.0
O151 O 0.94633 0.48005 0.7795 0.0
H152 H 0.96896 0.3939 0.7463 0.0
H153 H 0.97556 0.36742 0.69471 0.0
H154 H 0.89366 0.36522 0.67893 0.0
H155 H 0.8873 0.39089 0.73095 0.0
H156 H 0.99254 0.53072 0.9576 0.0
H157 H 1.00778 0.57494 0.95537 0.0
H158 H 1.01714 0.56859 0.84458 0.0
H159 H 1.00419 0.52376 0.84787 0.0
Sm160 Sm 0.70959 0.93737 0.90747 0.0
Sm161 Sm 0.68712 0.9632 0.95225 0.0
C162 C 0.7234 0.92592 0.84371 0.0
C163 C 0.72865 0.90848 0.81526 0.0
C164 C 0.73408 0.91943 0.78309 0.0
C165 C 0.73643 0.90395 0.75406 0.0
C166 C 0.73365 0.87715 0.75682 0.0
C167 C 0.7281 0.86619 0.78928 0.0
C168 C 0.72546 0.88184 0.81839 0.0
C169 C 0.71407 0.90743 0.96487 0.0
C170 C 0.74917 0.95652 0.97092 0.0
C171 C 0.65795 0.98746 0.99804 0.0
C172 C 0.6413 0.98127 0.02725 0.0
C173 C 0.63463 0.95574 0.03473 0.0
C174 C 0.62067 0.95006 0.0646 0.0
C175 C 0.6135 0.96983 0.08746 0.0
C176 C 0.61989 0.9954 0.07939 0.0
C177 C 0.63368 1.00104 0.04952 0.0
C178 C 0.7007 0.99889 0.8968 0.0
C179 C 0.65274 0.90999 0.92275 0.0
O180 O 0.74006 0.9286 0.86854 0.0
O181 O 0.6997 0.92775 0.85383 0.0
O182 O 0.69426 0.92051 0.9576 0.0
O183 O 0.73152 0.90857 0.941 0.0
O184 O 0.74841 0.95102 0.93708 0.0
O185 O 0.72626 0.9605 0.98497 0.0
O186 O 0.68216 0.98237 0.00277 0.0
O187 O 0.64995 0.98115 0.96728 0.0
O188 O 0.68979 0.97691 0.89471 0.0
O189 O 0.70735 1.00057 0.92888 0.0
O190 O 0.65195 0.93191 0.9415 0.0
O191 O 0.67493 0.90661 0.90625 0.0
H192 H 0.73598 0.9401 0.78028 0.0
H193 H 0.74033 0.91301 0.72941 0.0
H194 H 0.72626 0.84555 0.79229 0.0
H195 H 0.72077 0.87328 0.84312 0.0
H196 H 0.64068 0.94021 0.0179 0.0
H197 H 0.61612 0.93018 0.0703 0.0
H198 H 0.61427 1.01105 0.09626 0.0
H199 H 0.63882 1.02083 0.04413 0.0
Sm200 Sm 0.47918 0.46716 0.65546 0.0
Sm201 Sm 0.45104 0.44368 0.69782 0.0
C202 C 0.49634 0.49198 0.60051 0.0
C203 C 0.51884 0.48769 0.57866 0.0
C204 C 0.51766 0.49381 0.5435 0.0
C205 C 0.53876 0.48921 0.52227 0.0
C206 C 0.56139 0.47845 0.53595 0.0
C207 C 0.56225 0.47167 0.57106 0.0
C208 C 0.54105 0.4761 0.59222 0.0
C209 C 0.50925 0.45832 0.71241 0.0
C210 C 0.45717 0.50597 0.71969 0.0
C211 C 0.42645 0.41239 0.74045 0.0
C212 C 0.43102 0.39807 0.77258 0.0
C213 C 0.445 0.40873 0.79992 0.0
C214 C 0.44825 0.39494 0.83068 0.0
C215 C 0.43772 0.37022 0.83443 0.0
C216 C 0.42433 0.35946 0.80654 0.0
C217 C 0.42093 0.37332 0.77599 0.0
C218 C 0.41764 0.45655 0.64021 0.0
C219 C 0.5034 0.40817 0.66835 0.0
O220 O 0.50064 0.49959 0.63202 0.0
O221 O 0.47909 0.47405 0.59887 0.0
O222 O 0.48606 0.46507 0.71345 0.0
O223 O 0.51773 0.45672 0.68096 0.0
O224 O 0.46583 0.50572 0.68707 0.0
O225 O 0.4512 0.48268 0.73197 0.0
O226 O 0.42544 0.43743 0.74263 0.0
O227 O 0.4388 0.40435 0.71321 0.0
O228 O 0.44057 0.44695 0.63875 0.0
O229 O 0.414 0.46191 0.67242 0.0
O230 O 0.48492 0.41022 0.6924 0.0
O231 O 0.50377 0.42801 0.64638 0.0
H232 H 0.50052 0.5024 0.53256 0.0
H233 H 0.53772 0.4951 0.49545 0.0
H234 H 0.57945 0.46338 0.58221 0.0
H235 H 0.54209 0.4707 0.61922 0.0
H236 H 0.45316 0.42778 0.79768 0.0
H237 H 0.45853 0.40384 0.85171 0.0
H238 H 0.4165 0.34025 0.80823 0.0
H239 H 0.4103 0.36473 0.755 0.0
Sm240 Sm 0.94631 0.232 0.40613 0.0
Sm241 Sm 0.97184 0.20554 0.44515 0.0
C242 C 0.93303 0.24684 0.34334 0.0
C243 C 0.91883 0.2372 0.31314 0.0
C244 C 0.93209 0.22729 0.28446 0.0
C245 C 0.91915 0.22222 0.25367 0.0
C246 C 0.89277 0.22731 0.2509 0.0
C247 C 0.87928 0.23517 0.28059 0.0
C248 C 0.89216 0.2401 0.3113 0.0
C249 C 0.94602 0.26022 0.46482 0.0
C250 C 0.90796 0.21212 0.46717 0.0
C251 C 0.99405 0.17773 0.4947 0.0
C252 C 1.00697 0.18306 0.52747 0.0
C253 C 1.01368 0.2083 0.53632 0.0
C254 C 1.02709 0.21303 0.56685 0.0
C255 C 1.03383 0.1926 0.58906 0.0
C256 C 1.02656 0.16742 0.58033 0.0
C257 C 1.01327 0.1627 0.54973 0.0
C258 C 0.96481 0.17406 0.38362 0.0
C259 C 1.00581 0.25812 0.41861 0.0
O260 O 0.95496 0.23566 0.35032 0.0
O261 O 0.91984 0.25275 0.37096 0.0
O262 O 0.96555 0.24791 0.45423 0.0
O263 O 0.92668 0.2591 0.44377 0.0
O264 O 0.90731 0.22128 0.43505 0.0
O265 O 0.93149 0.20535 0.478 0.0
O266 O 0.96956 0.18253 0.49367 0.0
O267 O 1.00586 0.18554 0.46699 0.0
O268 O 0.94776 0.18669 0.40082 0.0
O269 O 0.98644 0.18144 0.39649 0.0
O270 O 1.00671 0.23688 0.43838 0.0
O271 O 0.98347 0.26067 0.402 0.0
H272 H 0.95267 0.2247 0.2852 0.0
H273 H 0.93006 0.21588 0.23145 0.0
H274 H 0.85905 0.23972 0.27953 0.0
H275 H 0.88134 0.24763 0.33293 0.0
H276 H 1.0088 0.22427 0.51942 0.0
H277 H 1.03217 0.23265 0.57308 0.0
H278 H 1.03172 0.15126 0.59671 0.0
H279 H 1.00823 0.14312 0.5432 0.0
Sm280 Sm 0.18099 0.70067 0.1537 0.0
Sm281 Sm 0.20816 0.72365 0.19735 0.0
C282 C 0.16796 0.67471 0.0977 0.0
C283 C 0.15337 0.68011 0.0659 0.0
C284 C 0.16616 0.68099 0.03404 0.0
C285 C 0.1524 0.68395 0.00338 0.0
C286 C 0.12555 0.68574 0.004 0.0
C287 C 0.11294 0.68637 0.03609 0.0
C288 C 0.1267 0.68361 0.06673 0.0
C289 C 0.14988 0.70783 0.20964 0.0
C290 C 0.20222 0.66134 0.2189 0.0
C291 C 0.23184 0.75459 0.24113 0.0
C292 C 0.22696 0.76783 0.2739 0.0
C293 C 0.21182 0.75672 0.29986 0.0
C294 C 0.20837 0.76936 0.33137 0.0
C295 C 0.21991 0.79334 0.33727 0.0
C296 C 0.23449 0.80459 0.31073 0.0
C297 C 0.23805 0.79189 0.27942 0.0
C298 C 0.24213 0.71209 0.13985 0.0
C299 C 0.15653 0.75937 0.16638 0.0
O300 O 0.15526 0.6736 0.12661 0.0
O301 O 0.18975 0.68651 0.10089 0.0
O302 O 0.17318 0.70135 0.21134 0.0
O303 O 0.14198 0.71035 0.17796 0.0
O304 O 0.19327 0.66196 0.18642 0.0
O305 O 0.20836 0.68447 0.23126 0.0
O306 O 0.23359 0.72955 0.24232 0.0
O307 O 0.21916 0.76296 0.21429 0.0
O308 O 0.21928 0.72193 0.13839 0.0
O309 O 0.24542 0.70595 0.17193 0.0
O310 O 0.1738 0.75647 0.19183 0.0
O311 O 0.15753 0.74045 0.14308 0.0
H312 H 0.18675 0.67858 0.03275 0.0
H313 H 0.16268 0.68364 0.97909 0.0
H314 H 0.09226 0.6873 0.03756 0.0
H315 H 0.11629 0.68326 0.09091 0.0
H316 H 0.20293 0.73817 0.29594 0.0
H317 H 0.19713 0.76012 0.3513 0.0
H318 H 0.24314 0.8233 0.31407 0.0
H319 H 0.2496 0.80083 0.25953 0.0
Sm320 Sm 0.97018 0.70417 0.56097 0.0
Sm321 Sm 0.94785 0.73109 0.60321 0.0
C322 C 1.00186 0.67993 0.51825 0.0
C323 C 1.0153 0.68462 0.48561 0.0
C324 C 1.00433 0.69974 0.4593 0.0
C325 C 1.01716 0.70301 0.42792 0.0
C326 C 1.0412 0.69132 0.42248 0.0
C327 C 1.0523 0.67676 0.44936 0.0
C328 C 1.03941 0.67338 0.48055 0.0
C329 C 0.9593 0.67022 0.61895 0.0
C330 C 1.00532 0.75554 0.59171 0.0
C331 C 0.91487 0.74269 0.65262 0.0
C332 C 0.88807 0.75064 0.64985 0.0
C333 C 0.87176 0.7484 0.67822 0.0
C334 C 0.84591 0.75484 0.67491 0.0
C335 C 0.83582 0.76307 0.64285 0.0
C336 C 0.85231 0.76446 0.61424 0.0
C337 C 0.87825 0.75877 0.61789 0.0
C338 C 0.95361 0.76295 0.54733 0.0
C339 C 0.90871 0.71044 0.53799 0.0
O340 O 0.97703 0.67813 0.51669 0.0
O341 O 1.00963 0.69293 0.54497 0.0
O342 O 0.9692 0.69299 0.62028 0.0
O343 O 0.9525 0.66723 0.58712 0.0
O344 O 1.00201 0.73902 0.56552 0.0
O345 O 0.98722 0.75349 0.6159 0.0
O346 O 0.91945 0.71917 0.6426 0.0
O347 O 0.93162 0.75899 0.64084 0.0
O348 O 0.94802 0.7394 0.54526 0.0
O349 O 0.9552 0.77067 0.57904 0.0
O350 O 0.90967 0.72113 0.5693 0.0
O351 O 0.93153 0.70264 0.52642 0.0
H352 H 0.98575 0.70876 0.46286 0.0
H353 H 1.00802 0.71423 0.40772 0.0
H354 H 1.07104 0.66802 0.44638 0.0
H355 H 1.04823 0.66184 0.50071 0.0
H356 H 0.87907 0.74198 0.703 0.0
H357 H 0.83415 0.75421 0.69789 0.0
H358 H 0.84537 0.77039 0.5891 0.0
H359 H 0.89066 0.76085 0.59571 0.0
Sm360 Sm 0.2049 0.22266 0.81576 0.0
Sm361 Sm 0.17699 0.19904 0.85553 0.0
C362 C 0.2297 0.2543 0.77373 0.0
C363 C 0.22534 0.26796 0.74103 0.0
C364 C 0.21119 0.25688 0.71416 0.0
C365 C 0.20797 0.27007 0.68292 0.0
C366 C 0.21869 0.2946 0.6782 0.0
C367 C 0.2323 0.30578 0.70561 0.0
C368 C 0.23566 0.29253 0.73665 0.0
C369 C 0.23853 0.20927 0.87293 0.0
C370 C 0.15195 0.25768 0.84412 0.0
C371 C 0.15671 0.17143 0.90575 0.0
C372 C 0.1297 0.16552 0.91215 0.0
C373 C 0.12007 0.16567 0.94589 0.0
C374 C 0.09402 0.16161 0.95179 0.0
C375 C 0.0773 0.15731 0.92398 0.0
C376 C 0.08696 0.15758 0.89018 0.0
C377 C 0.11291 0.1618 0.8843 0.0
C378 C 0.14667 0.20805 0.7985 0.0
C379 C 0.19846 0.16066 0.79152 0.0
O380 O 0.23162 0.2293 0.77223 0.0
O381 O 0.21638 0.26221 0.80018 0.0
O382 O 0.2154 0.21837 0.87501 0.0
O383 O 0.24212 0.20453 0.84055 0.0
O384 O 0.17236 0.25725 0.823 0.0
O385 O 0.14983 0.23642 0.86312 0.0
O386 O 0.16686 0.16115 0.87822 0.0
O387 O 0.16277 0.19556 0.90946 0.0
O388 O 0.17005 0.20206 0.7971 0.0
O389 O 0.1384 0.20848 0.82997 0.0
O390 O 0.18912 0.16059 0.82363 0.0
O391 O 0.20499 0.18408 0.78023 0.0
H392 H 0.20286 0.23796 0.71718 0.0
H393 H 0.19751 0.26085 0.6623 0.0
H394 H 0.24029 0.32488 0.70318 0.0
H395 H 0.24641 0.30145 0.75727 0.0
H396 H 0.13267 0.16893 0.96762 0.0
H397 H 0.08709 0.1611 0.97815 0.0
H398 H 1.07446 0.15439 0.86833 0.0
H399 H 0.11982 0.16216 0.85793 0.0
Sm400 Sm 0.68562 0.45917 0.06642 0.0
Sm401 Sm 0.70896 0.43064 0.10689 0.0
C402 C 0.6539 0.48319 0.02334 0.0
C403 C 0.64059 0.47716 0.99091 0.0
C404 C 0.65324 0.46465 0.96358 0.0
C405 C 0.6402 0.45929 0.93295 0.0
C406 C 0.61425 0.46604 0.92937 0.0
C407 C 0.6016 0.47824 0.95694 0.0
C408 C 0.6147 0.48382 0.98739 0.0
C409 C 0.69808 0.49244 0.12404 0.0
C410 C 0.65081 0.4064 0.09596 0.0
C411 C 0.74068 0.41257 0.15451 0.0
C412 C 0.75787 0.39027 0.15271 0.0
C413 C 0.77431 0.38434 0.1801 0.0
C414 C 0.79072 0.36306 0.17781 0.0
C415 C 0.79072 0.34743 0.14816 0.0
C416 C 0.77417 0.35347 0.12081 0.0
C417 C 0.75802 0.37488 0.12297 0.0
C418 C 0.70044 0.40071 0.04977 0.0
C419 C 0.7475 0.45146 0.04195 0.0
O420 O 0.67872 0.48529 0.02191 0.0
O421 O 0.6462 0.47085 0.05078 0.0
O422 O 0.68906 0.46927 0.12596 0.0
O423 O 0.7029 0.4963 0.09171 0.0
O424 O 0.65185 0.42616 0.07348 0.0
O425 O 0.67127 0.40487 0.11641 0.0
O426 O 0.74647 0.43147 0.13379 0.0
O427 O 0.71635 0.40729 0.15406 0.0
O428 O 0.70662 0.42406 0.04867 0.0
O429 O 0.70009 0.39198 0.08105 0.0
O430 O 0.74697 0.43975 0.07269 0.0
O431 O 0.7246 0.46033 0.03166 0.0
H432 H 0.67318 0.45903 0.96584 0.0
H433 H 0.65032 0.44968 0.91219 0.0
H434 H 0.58167 0.4839 0.95473 0.0
H435 H 0.60461 0.49341 0.00819 0.0
H436 H 0.77443 0.3961 0.20316 0.0
H437 H 0.80315 0.35859 0.19942 0.0
H438 H 0.77398 0.34185 0.09764 0.0
H439 H 0.7457 0.37947 0.10134 0.0
Sm440 Sm 0.44959 0.94118 0.31635 0.0
Sm441 Sm 0.47768 0.96438 0.35925 0.0
C442 C 0.42409 0.91041 0.27423 0.0
C443 C 0.42757 0.89533 0.24274 0.0
C444 C 0.45195 0.88735 0.23177 0.0
C445 C 0.45457 0.87241 0.202 0.0
C446 C 0.43286 0.86535 0.18283 0.0
C447 C 0.40857 0.87386 0.19377 0.0
C448 C 0.40598 0.88867 0.22351 0.0
C449 C 0.41637 0.95363 0.37413 0.0
C450 C 0.50153 0.90539 0.34647 0.0
C451 C 0.49206 0.98992 0.41494 0.0
C452 C 0.50879 0.98466 0.44482 0.0
C453 C 0.49791 0.98132 0.47767 0.0
C454 C 0.51349 0.97805 0.50662 0.0
C455 C 0.54027 0.9784 0.50332 0.0
C456 C 0.55109 0.98037 0.47016 0.0
C457 C 0.53551 0.98345 0.44119 0.0
C458 C 0.50789 0.95578 0.30273 0.0
C459 C 0.45607 1.00357 0.29462 0.0
O460 O 0.42456 0.93535 0.27072 0.0
O461 O 0.43618 0.90231 0.30171 0.0
O462 O 0.43919 0.94372 0.37544 0.0
O463 O 0.41289 0.95968 0.34207 0.0
O464 O 0.48368 0.90799 0.32165 0.0
O465 O 0.50123 0.92464 0.3693 0.0
O466 O 0.50289 0.99277 0.38485 0.0
O467 O 0.47106 0.9766 0.4134 0.0
O468 O 0.48471 0.96271 0.30143 0.0
O469 O 0.51631 0.95416 0.33427 0.0
O470 O 0.4652 1.00303 0.32697 0.0
O471 O 0.44957 0.98046 0.28245 0.0
H472 H 0.46884 0.89248 0.24635 0.0
H473 H 0.47351 0.86601 0.19436 0.0
H474 H 0.39154 0.8692 0.17922 0.0
H475 H 0.38706 0.89489 0.23158 0.0
H476 H 0.47734 0.98195 0.48111 0.0
H477 H 0.50459 0.97635 0.53178 0.0
H478 H 0.57163 0.98116 0.4667 0.0
H479 H 0.54448 0.98575 0.41617 0.0
Sm480 Sm 0.21211 0.43304 0.40665 0.0
Sm481 Sm 0.18817 0.46164 0.44933 0.0
C482 C 0.23659 0.41639 0.3512 0.0
C483 C 0.23253 0.39444 0.32827 0.0
C484 C 0.23907 0.39655 0.29337 0.0
C485 C 0.23467 0.37608 0.27099 0.0
C486 C 0.22368 0.35314 0.28323 0.0
C487 C 0.21652 0.35135 0.31811 0.0
C488 C 0.22075 0.37195 0.34044 0.0
C489 C 0.20351 0.40297 0.46365 0.0
C490 C 0.25067 0.45516 0.4704 0.0
C491 C 0.15744 0.48594 0.49337 0.0
C492 C 0.1437 0.4803 0.52552 0.0
C493 C 0.13739 0.45496 0.53468 0.0
C494 C 0.12401 0.45007 0.56526 0.0
C495 C 0.11699 0.47044 0.58726 0.0
C496 C 0.12367 0.49573 0.57808 0.0
C497 C 0.13688 0.5006 0.54744 0.0
C498 C 0.20083 0.49504 0.39162 0.0
C499 C 0.15342 0.40912 0.4193 0.0
O500 O 0.24414 0.41117 0.38258 0.0
O501 O 0.21868 0.43396 0.35009 0.0
O502 O 0.21003 0.42628 0.46459 0.0
O503 O 0.20199 0.39443 0.43224 0.0
O504 O 0.25039 0.44625 0.43794 0.0
O505 O 0.22748 0.46127 0.48277 0.0
O506 O 0.18231 0.48644 0.49543 0.0
O507 O 0.14937 0.47437 0.46562 0.0
O508 O 0.19154 0.47201 0.39024 0.0
O509 O 0.20557 0.49897 0.42392 0.0
O510 O 0.15439 0.42879 0.4418 0.0
O511 O 0.17402 0.40741 0.399 0.0
H512 H 0.24781 0.41394 0.2835 0.0
H513 H 0.24086 0.37784 0.24439 0.0
H514 H 0.20805 0.33389 0.32818 0.0
H515 H 0.21504 0.37022 0.36724 0.0
H516 H 0.14275 0.439 0.51815 0.0
H517 H 0.11934 0.43038 0.57185 0.0
H518 H 0.11825 0.51184 0.59427 0.0
H519 H 0.14165 0.52026 0.54074 0.0
Sm520 Sm 0.97678 0.96677 0.1545 0.0
Sm521 Sm 0.95103 0.94141 0.19539 0.0
C522 C 0.98983 0.98364 0.09257 0.0
C523 C 0.9795 1.00381 0.06999 0.0
C524 C 0.96362 1.02323 0.08353 0.0
C525 C 0.95697 1.04453 0.06328 0.0
C526 C 0.96592 1.04649 0.02918 0.0
C527 C 0.97996 1.02587 0.01493 0.0
C528 C 0.9868 1.00471 0.03529 0.0
C529 C 1.00564 0.96631 0.21282 0.0
C530 C 0.95714 1.00538 0.21676 0.0
C531 C 0.92399 0.91897 0.24501 0.0
C532 C 0.92939 0.90559 0.27756 0.0
C533 C 0.95447 0.89818 0.28615 0.0
C534 C 0.95925 0.88457 0.31669 0.0
C535 C 0.93903 0.87834 0.33913 0.0
C536 C 0.91401 0.88627 0.33061 0.0
C537 C 0.90925 0.89977 0.30001 0.0
C538 C 0.91925 0.9483 0.13404 0.0
C539 C 1.00281 0.90659 0.16689 0.0
O540 O 0.97521 0.96364 0.0973 0.0
O541 O 1.00036 0.99176 0.12105 0.0
O542 O 0.99333 0.94701 0.20211 0.0
O543 O 1.00393 0.98605 0.19221 0.0
O544 O 0.96642 1.00579 0.1847 0.0
O545 O 0.95015 0.98195 0.22774 0.0
O546 O 0.92886 0.94355 0.24435 0.0
O547 O 0.93148 0.90721 0.21705 0.0
O548 O 0.93174 0.96549 0.15089 0.0
O549 O 0.92702 0.92654 0.14703 0.0
O550 O 0.98419 0.9076 0.19073 0.0
O551 O 1.00283 0.92746 0.14641 0.0
H552 H 0.95752 1.02257 0.11026 0.0
H553 H 0.94613 1.06014 0.07483 0.0
H554 H 0.98744 1.02701 0.98888 0.0
H555 H 0.99887 0.98973 0.02446 0.0
H556 H 0.97026 0.90271 0.26909 0.0
H557 H 0.97874 0.87895 0.32277 0.0
H558 H 0.89802 0.88148 0.34717 0.0
H559 H 0.8898 0.90538 0.29367 0.0
Sm560 Sm 0.44675 0.73302 0.90581 0.0
Sm561 Sm 0.4714 0.70545 0.9495 0.0
C562 C 0.42198 0.74744 0.8493 0.0
C563 C 0.39455 0.75101 0.84309 0.0
C564 C 0.38556 0.75923 0.81089 0.0
C565 C 0.35923 0.76086 0.80477 0.0
C566 C 0.34155 0.7539 0.83068 0.0
C567 C 0.35083 0.74555 0.86283 0.0
C568 C 0.37703 0.74439 0.86901 0.0
C569 C 0.44306 0.7587 0.96684 0.0
C570 C 0.40968 0.71023 0.97111 0.0
C571 C 0.50196 0.68028 0.99283 0.0
C572 C 0.51846 0.68598 0.02227 0.0
C573 C 0.52437 0.71145 0.03101 0.0
C574 C 0.53792 0.71659 0.06133 0.0
C575 C 0.54541 0.69633 0.08338 0.0
C576 C 0.53983 0.67086 0.07404 0.0
C577 C 0.52646 0.66575 0.04371 0.0
C578 C 0.45818 0.67198 0.89198 0.0
C579 C 0.50487 0.75893 0.91958 0.0
O580 O 0.42866 0.72366 0.85583 0.0
O581 O 0.43274 0.76382 0.87018 0.0
O582 O 0.46318 0.74766 0.95622 0.0
O583 O 0.42413 0.7566 0.94534 0.0
O584 O 0.40969 0.71707 0.93772 0.0
O585 O 0.43295 0.70622 0.98412 0.0
O586 O 0.47759 0.684 0.99824 0.0
O587 O 0.5094 0.68835 0.96248 0.0
O588 O 0.46828 0.69458 0.89069 0.0
O589 O 0.452 0.6689 0.92407 0.0
O590 O 0.5051 0.73817 0.94064 0.0
O591 O 0.48367 0.76095 0.90032 0.0
H592 H 0.39884 0.76433 0.79054 0.0
H593 H 0.35278 0.768 0.77994 0.0
H594 H 0.33789 0.73984 0.88327 0.0
H595 H 0.38358 0.73804 0.89401 0.0
H596 H 0.51798 0.72731 0.01487 0.0
H597 H 0.54186 0.7364 0.06803 0.0
H598 H 0.54571 0.65487 0.09029 0.0
H599 H 0.52187 0.64601 0.03737 0.0
Sm600 Sm 0.68175 0.20304 0.65682 0.0
Sm601 Sm 0.70888 0.22583 0.69781 0.0
C602 C 0.67024 0.17 0.60723 0.0
C603 C 0.66262 0.14294 0.60738 0.0
C604 C 0.66169 0.12927 0.57642 0.0
C605 C 0.65524 0.10325 0.57659 0.0
C606 C 0.65011 0.09028 0.60789 0.0
C607 C 0.65158 0.10414 0.63896 0.0
C608 C 0.65738 0.1303 0.63861 0.0
C609 C 0.65072 0.20926 0.71335 0.0
C610 C 0.70312 0.1645 0.72325 0.0
C611 C 0.73288 0.25802 0.73955 0.0
C612 C 0.72677 0.27133 0.77175 0.0
C613 C 0.70125 0.27497 0.78205 0.0
C614 C 0.69571 0.28723 0.81322 0.0
C615 C 0.71564 0.29568 0.83464 0.0
C616 C 0.74115 0.29179 0.82426 0.0
C617 C 0.74666 0.27972 0.79299 0.0
C618 C 0.74212 0.21439 0.63946 0.0
C619 C 0.65692 0.261 0.66774 0.0
O620 O 0.69353 0.17418 0.61773 0.0
O621 O 0.65379 0.18638 0.61999 0.0
O622 O 0.67428 0.20384 0.71488 0.0
O623 O 0.64257 0.21081 0.68178 0.0
O624 O 0.69191 0.16506 0.69221 0.0
O625 O 0.71123 0.18751 0.73358 0.0
O626 O 0.73498 0.23308 0.74188 0.0
O627 O 0.72017 0.26546 0.71226 0.0
O628 O 0.71927 0.22432 0.63844 0.0
O629 O 0.74554 0.20773 0.67135 0.0
O630 O 0.6738 0.25786 0.69355 0.0
O631 O 0.65879 0.24258 0.64389 0.0
H632 H 0.66568 0.13879 0.55208 0.0
H633 H 0.65359 0.09357 0.55199 0.0
H634 H 0.64803 0.09491 0.66358 0.0
H635 H 0.65761 0.14065 0.66276 0.0
H636 H 0.68566 0.26827 0.76606 0.0
H637 H 0.6759 0.28981 0.82079 0.0
H638 H 0.75685 0.2984 0.84011 0.0
H639 H 0.76644 0.27689 0.7854 0.0
H640 H 0.55626 0.25501 0.07405 0.0
H641 H 0.50195 0.30826 0.11705 0.0
H642 H 0.58933 0.28877 0.07494 0.0
H643 H 0.53455 0.34237 0.11615 0.0
H644 H 0.59662 0.40814 0.07944 0.0
H645 H 0.56351 0.37438 0.08021 0.0
H646 H 0.62005 0.31857 0.11097 0.0
H647 H 0.65274 0.35255 0.11204 0.0
C648 C 0.55086 0.2738 0.08374 0.0
C649 C 0.52512 0.2774 0.09582 0.0
C650 C 0.57043 0.29381 0.08428 0.0
C651 C 0.56603 0.3198 0.09558 0.0
C652 C 0.54012 0.3235 0.10694 0.0
C653 C 0.52084 0.30326 0.10761 0.0
C654 C 0.60242 0.38883 0.08675 0.0
C655 C 0.6287 0.38454 0.09598 0.0
C656 C 0.58283 0.36883 0.08724 0.0
C657 C 0.58769 0.34225 0.09562 0.0
C658 C 0.6141 0.33792 0.10411 0.0
C659 C 0.63345 0.35808 0.10487 0.0
H660 H 0.6343 0.79057 0.29161 0.0
H661 H 0.62311 0.77809 0.40005 0.0
H662 H 0.59952 0.82289 0.29159 0.0
H663 H 0.58888 0.81096 0.40037 0.0
H664 H 0.53594 0.88745 0.39954 0.0
H665 H 0.57014 0.85458 0.39951 0.0
H666 H 0.55482 0.83883 0.29279 0.0
H667 H 0.52006 0.8712 0.29324 0.0
C668 C 0.62486 0.79457 0.31591 0.0
C669 C 0.63312 0.78048 0.34589 0.0
C670 C 0.60412 0.81363 0.31589 0.0
C671 C 0.58982 0.82108 0.34601 0.0
C672 C 0.59835 0.80716 0.37605 0.0
C673 C 0.61865 0.78764 0.37589 0.0
C674 C 0.53934 0.87704 0.37579 0.0
C675 C 0.52358 0.88316 0.34653 0.0
C676 C 0.55963 0.85752 0.37575 0.0
C677 C 0.56685 0.84254 0.34614 0.0
C678 C 0.55126 0.84895 0.31671 0.0
C679 C 0.53054 0.86803 0.317 0.0
H680 H 0.134 0.8735 0.64516 0.0
H681 H 0.11673 0.89068 0.53931 0.0
H682 H 0.10135 0.83956 0.64526 0.0
H683 H 0.08457 0.85615 0.53897 0.0
H684 H 1.03663 0.77689 0.53763 0.0
H685 H 1.06867 0.81147 0.53752 0.0
H686 H 1.05805 0.82118 0.64662 0.0
H687 H 1.02545 0.78715 0.64641 0.0
C688 C 0.12341 0.87044 0.62154 0.0
C689 C 0.12919 0.88648 0.59236 0.0
C690 C 0.10402 0.8503 0.62157 0.0
C691 C 0.08882 0.84351 0.59213 0.0
C692 C 0.09487 0.85937 0.56277 0.0
C693 C 0.11384 0.87996 0.563 0.0
C694 C 1.04085 0.78609 0.56198 0.0
C695 C 1.0272 0.77763 0.59207 0.0
C696 C 1.05975 0.80671 0.56191 0.0
C697 C 1.06749 0.82069 0.59208 0.0
C698 C 1.054 0.81197 0.62224 0.0
C699 C 1.03464 0.79178 0.62215 0.0
H700 H 1.00074 0.35323 0.82164 0.0
H701 H 1.05223 0.40666 0.86856 0.0
H702 H 1.03478 0.31997 0.82201 0.0
H703 H 0.08663 0.37391 0.86725 0.0
H704 H 0.15342 0.31265 0.83056 0.0
H705 H 0.11937 0.34596 0.83171 0.0
H706 H 1.06409 0.28815 0.85679 0.0
H707 H 0.09827 0.25522 0.85743 0.0
C708 C 1.0192 0.35837 0.83213 0.0
C709 C 1.02226 0.38389 0.84544 0.0
C710 C 1.03936 0.33871 0.83235 0.0
C711 C 1.06493 0.34287 0.8446 0.0
C712 C 1.06809 0.36858 0.85724 0.0
C713 C 1.04769 0.38793 0.85816 0.0
C714 C 0.13416 0.30662 0.83663 0.0
C715 C 0.13001 0.27992 0.84414 0.0
C716 C 0.114 0.32631 0.83736 0.0
C717 C 0.08751 0.32113 0.84432 0.0
C718 C 0.08337 0.29433 0.85109 0.0
C719 C 0.10363 0.27485 0.85159 0.0
H720 H 0.59792 0.91208 0.9358 0.0
H721 H 0.65507 0.85584 0.90933 0.0
H722 H 0.56484 0.87833 0.93433 0.0
H723 H 0.62234 0.82198 0.90943 0.0
H724 H 0.55828 0.75794 0.93975 0.0
H725 H 0.59126 0.79175 0.93997 0.0
H726 H 0.53605 0.8465 0.90218 0.0
H727 H 0.50348 0.81244 0.90046 0.0
C728 C 0.60396 0.89263 0.92974 0.0
C729 C 0.63057 0.88815 0.92254 0.0
C730 C 0.58437 0.87262 0.9288 0.0
C731 C 0.58946 0.84588 0.92176 0.0
C732 C 0.61615 0.84142 0.91522 0.0
C733 C 0.63555 0.86153 0.91506 0.0
C734 C 0.55275 0.77701 0.93106 0.0
C735 C 0.52687 0.78094 0.91974 0.0
C736 C 0.57229 0.79707 0.93118 0.0
C737 C 0.56778 0.8234 0.92117 0.0
C738 C 0.54174 0.82738 0.91046 0.0
C739 C 0.52246 0.80715 0.90929 0.0
H740 H 0.53841 0.39143 0.61558 0.0
H741 H 0.52114 0.37265 0.7209 0.0
H742 H 0.5725 0.35845 0.61518 0.0
H743 H 0.55585 0.34019 0.72096 0.0
H744 H 0.63574 0.29241 0.72197 0.0
H745 H 0.60095 0.32471 0.72236 0.0
H746 H 0.59065 0.31431 0.61336 0.0
H747 H 0.62487 0.28139 0.6133 0.0
C748 C 0.54148 0.38042 0.63902 0.0
C749 C 0.52536 0.38587 0.66813 0.0
C750 C 0.5617 0.36085 0.6388 0.0
C751 C 0.56851 0.34515 0.66802 0.0
C752 C 0.55259 0.35089 0.69734 0.0
C753 C 0.53191 0.37002 0.69727 0.0
C754 C 0.62635 0.29672 0.6977 0.0
C755 C 0.63469 0.28304 0.66754 0.0
C756 C 0.60562 0.31578 0.69794 0.0
C757 C 0.59144 0.32365 0.66789 0.0
C758 C 0.60004 0.31014 0.63765 0.0
C759 C 0.62032 0.2906 0.63759 0.0
H760 H 1.00315 0.31252 0.40519 0.0
H761 H 1.06028 0.25628 0.43206 0.0
H762 H 1.03579 0.34655 0.4063 0.0
H763 H 0.09322 0.29012 0.43153 0.0
H764 H 0.15455 0.35625 0.39864 0.0
H765 H 0.12188 0.32229 0.39925 0.0
H766 H 1.06686 0.37627 0.43906 0.0
H767 H 0.1 0.40997 0.44001 0.0
C768 C 1.02263 0.30687 0.41112 0.0
C769 C 1.0277 0.2802 0.41838 0.0
C770 C 1.04196 0.32705 0.41191 0.0
C771 C 1.0686 0.32259 0.41893 0.0
C772 C 1.07374 0.29582 0.4257 0.0
C773 C 1.05423 0.27575 0.42604 0.0
C774 C 0.1356 0.36137 0.40772 0.0
C775 C 0.13128 0.38731 0.41913 0.0
C776 C 0.11626 0.34121 0.40821 0.0
C777 C 0.09026 0.34504 0.41909 0.0
C778 C 0.08582 0.37112 0.43007 0.0
C779 C 0.10544 0.39109 0.43067 0.0
H780 H 0.12438 0.77955 0.11195 0.0
H781 H 0.13563 0.79132 0.22039 0.0
H782 H 0.09029 0.81262 0.11175 0.0
H783 H 0.10091 0.82372 0.22055 0.0
H784 H 1.02066 0.87098 0.21884 0.0
H785 H 1.05542 0.83863 0.21893 0.0
H786 H 1.07251 0.85741 0.11345 0.0
H787 H 1.03833 0.89041 0.11387 0.0
C788 C 0.11996 0.78897 0.13614 0.0
C789 C 0.13443 0.78158 0.1661 0.0
C790 C 0.09974 0.80859 0.13604 0.0
C791 C 0.09125 0.82233 0.16614 0.0
C792 C 0.10551 0.81462 0.19622 0.0
C793 C 0.12621 0.79551 0.19611 0.0
C794 C 1.03156 0.86854 0.19529 0.0
C795 C 1.02511 0.88459 0.16628 0.0
C796 C 1.05227 0.84945 0.19537 0.0
C797 C 1.06833 0.84387 0.16617 0.0
C798 C 1.06161 0.85973 0.13701 0.0
C799 C 1.04136 0.87932 0.13724 0.0
H800 H 0.28939 0.19362 0.86396 0.0
H801 H 0.24307 0.2257 0.94479 0.0
H802 H 0.32654 0.19365 0.90151 0.0
H803 H 0.28063 0.22573 0.98331 0.0
H804 H 0.355 0.22763 0.05385 0.0
H805 H 0.3167 0.22773 0.01716 0.0
H806 H 0.36021 0.1913 0.93624 0.0
H807 H 0.39813 0.19145 0.97295 0.0
C808 C 0.28673 0.20077 0.88996 0.0
C809 C 0.26184 0.2096 0.89987 0.0
C810 C 0.30884 0.20078 0.91239 0.0
C811 C 0.30846 0.20966 0.94731 0.0
C812 C 0.28338 0.21855 0.9574 0.0
C813 C 0.26108 0.21853 0.93472 0.0
C814 C 0.35668 0.21948 0.02825 0.0
C815 C 0.381 0.20941 0.01771 0.0
C816 C 0.33402 0.21953 0.00645 0.0
C817 C 0.33351 0.20956 0.97194 0.0
C818 C 0.35801 0.19947 0.96167 0.0
C819 C 0.3806 0.19943 0.98345 0.0
H820 H 0.71392 0.54317 0.11513 0.0
H821 H 0.68216 0.49686 0.19622 0.0
H822 H 0.71446 0.58029 0.15281 0.0
H823 H 0.68271 0.53446 0.23495 0.0
H824 H 0.68234 0.60902 0.30585 0.0
H825 H 0.68161 0.57057 0.26913 0.0
H826 H 0.71705 0.6139 0.18729 0.0
H827 H 0.71752 0.6519 0.22399 0.0
C828 C 0.70695 0.54052 0.14122 0.0
C829 C 0.69802 0.51566 0.15116 0.0
C830 C 0.70728 0.56262 0.16374 0.0
C831 C 0.69869 0.56223 0.19879 0.0
C832 C 0.68969 0.53718 0.20894 0.0
C833 C 0.68937 0.51487 0.18614 0.0
C834 C 0.69014 0.6106 0.28003 0.0
C835 C 0.70013 0.63487 0.26919 0.0
C836 C 0.68971 0.58787 0.25823 0.0
C837 C 0.6992 0.58729 0.22347 0.0
C838 C 0.70923 0.61175 0.21293 0.0
C839 C 0.70964 0.63438 0.23469 0.0
H840 H 0.3662 0.97165 0.36655 0.0
H841 H 0.41154 0.93502 0.44516 0.0
H842 H 0.3293 0.97205 0.40456 0.0
H843 H 0.37409 0.9351 0.48401 0.0
H844 H 0.30143 0.94068 0.5582 0.0
H845 H 0.33978 0.94031 0.52137 0.0
H846 H 0.2941 0.96708 0.43583 0.0
H847 H 0.25634 0.96757 0.4727 0.0
C848 C 0.36866 0.96348 0.3921 0.0
C849 C 0.39321 0.95331 0.40129 0.0
C850 C 0.34667 0.96361 0.41474 0.0
C851 C 0.34685 0.95351 0.44914 0.0
C852 C 0.37159 0.94334 0.45857 0.0
C853 C 0.39379 0.94323 0.43567 0.0
C854 C 0.29931 0.94671 0.53157 0.0
C855 C 0.27446 0.9544 0.5198 0.0
C856 C 0.32195 0.94641 0.50967 0.0
C857 C 0.32187 0.95373 0.4739 0.0
C858 C 0.29684 0.96135 0.4624 0.0
C859 C 0.27431 0.96165 0.48423 0.0
H860 H 0.97757 0.66475 0.68986 0.0
H861 H 0.94056 0.6204 0.61136 0.0
H862 H 0.97648 0.62719 0.72887 0.0
H863 H 0.9394 0.58326 0.64942 0.0
H864 H 0.93629 0.51145 0.72136 0.0
H865 H 0.93739 0.54931 0.68395 0.0
H866 H 0.97599 0.59157 0.76374 0.0
H867 H 0.97466 0.55339 0.80102 0.0
C868 C 0.96909 0.64717 0.68043 0.0
C869 C 0.95917 0.64691 0.64608 0.0
C870 C 0.96843 0.62488 0.70339 0.0
C871 C 0.95778 0.60037 0.69408 0.0
C872 C 0.94792 0.6005 0.65965 0.0
C873 C 0.9486 0.62259 0.63693 0.0
C874 C 0.94499 0.52872 0.73143 0.0
C875 C 0.95518 0.52805 0.76556 0.0
C876 C 0.94576 0.55125 0.70927 0.0
C877 C 0.95687 0.57537 0.71904 0.0
C878 C 0.96706 0.57456 0.7534 0.0
C879 C 0.96626 0.55197 0.77556 0.0
H880 H 0.79812 0.9323 0.96077 0.0
H881 H 0.76043 0.98026 0.03541 0.0
H882 H 0.83663 0.93082 0.99749 0.0
H883 H 0.7992 0.97963 0.07155 0.0
H884 H 0.88312 0.98997 0.12232 0.0
H885 H 0.84456 0.99215 0.08542 0.0
H886 H 0.8599 0.91538 0.04964 0.0
H887 H 0.89766 0.91295 0.0873 0.0
C888 C 0.79775 0.94293 0.98475 0.0
C889 C 0.77486 0.95661 0.99368 0.0
C890 C 0.8204 0.94195 0.00655 0.0
C891 C 0.82255 0.95513 0.03888 0.0
C892 C 0.79974 0.96912 0.04748 0.0
C893 C 0.77685 0.96949 0.02616 0.0
C894 C 0.8786 0.97338 0.10669 0.0
C895 C 0.89493 0.95122 0.10897 0.0
C896 C 0.8558 0.97457 0.08506 0.0
C897 C 0.84767 0.95401 0.06304 0.0
C898 C 0.86435 0.93212 0.06502 0.0
C899 C 0.88663 0.93067 0.08728 0.0
H900 H 0.4399 0.62166 0.8989 0.0
H901 H 0.47661 0.66744 0.82122 0.0
H902 H 0.43933 0.58495 0.86016 0.0
H903 H 0.47635 0.63031 0.78173 0.0
H904 H 0.47081 0.5586 0.70605 0.0
H905 H 0.47123 0.59654 0.74379 0.0
H906 H 0.44385 0.54984 0.82788 0.0
H907 H 0.44333 0.51242 0.79006 0.0
C908 C 0.44804 0.62425 0.87342 0.0
C909 C 0.45829 0.64884 0.86468 0.0
C910 C 0.4478 0.60241 0.85036 0.0
C911 C 0.45786 0.60282 0.81598 0.0
C912 C 0.46811 0.62761 0.80708 0.0
C913 C 0.46834 0.64963 0.83037 0.0
C914 C 0.46465 0.55616 0.73254 0.0
C915 C 0.4568 0.53113 0.74359 0.0
C916 C 0.46499 0.57857 0.75499 0.0
C917 C 0.45754 0.57808 0.79066 0.0
C918 C 0.44972 0.55287 0.80145 0.0
C919 C 0.44939 0.53056 0.77906 0.0
H920 H 0.79221 0.19585 0.64655 0.0
H921 H 0.74693 0.23304 0.56837 0.0
H922 H 0.82897 0.19501 0.60818 0.0
H923 H 0.78415 0.23246 0.52919 0.0
H924 H 0.85604 0.22708 0.45439 0.0
H925 H 0.81824 0.22791 0.49195 0.0
H926 H 0.86403 0.19817 0.57561 0.0
H927 H 0.90147 0.1973 0.53782 0.0
C928 C 0.78972 0.20404 0.62102 0.0
C929 C 0.76522 0.21451 0.61209 0.0
C930 C 0.81162 0.20362 0.59817 0.0
C931 C 0.81141 0.21369 0.56374 0.0
C932 C 0.78672 0.22419 0.55461 0.0
C933 C 0.76463 0.2246 0.57772 0.0
C934 C 0.85834 0.22048 0.48075 0.0
C935 C 0.88314 0.21186 0.49161 0.0
C936 C 0.83598 0.22106 0.50311 0.0
C937 C 0.83622 0.2131 0.5386 0.0
C938 C 0.8612 0.20452 0.5493 0.0
C939 C 0.88352 0.20396 0.52694 0.0
H940 H 0.21718 0.54577 0.39898 0.0
H941 H 0.18433 0.49892 0.31973 0.0
H942 H 0.21776 0.58248 0.3602 0.0
H943 H 0.18467 0.53614 0.28002 0.0
H944 H 0.18835 0.60886 0.20517 0.0
H945 H 0.1878 0.57074 0.24292 0.0
H946 H 0.21544 0.617 0.32689 0.0
H947 H 0.21602 0.65454 0.28912 0.0
C948 C 0.20991 0.54294 0.37311 0.0
C949 C 0.20071 0.51806 0.36399 0.0
C950 C 0.21018 0.5648 0.34997 0.0
C951 C 0.20121 0.56414 0.3151 0.0
C952 C 0.19199 0.53905 0.30579 0.0
C953 C 0.19175 0.51698 0.32918 0.0
C954 C 0.19452 0.61114 0.23165 0.0
C955 C 0.20247 0.63607 0.24271 0.0
C956 C 0.19414 0.58863 0.25409 0.0
C957 C 0.2016 0.58895 0.28975 0.0
C958 C 0.20949 0.61408 0.30052 0.0
C959 C 0.20989 0.63647 0.27814 0.0
H960 H 0.74614 0.73154 0.44225 0.0
H961 H 0.78954 0.69165 0.36476 0.0
H962 H 0.78402 0.73137 0.48023 0.0
H963 H 0.82685 0.69119 0.40187 0.0
H964 H 0.90032 0.69357 0.46914 0.0
H965 H 0.86218 0.69412 0.43293 0.0
H966 H 0.8189 0.7278 0.5162 0.0
H967 H 0.85752 0.72724 0.55224 0.0
C968 C 0.76355 0.72257 0.43285 0.0
C969 C 0.76347 0.71161 0.39908 0.0
C970 C 0.78601 0.72242 0.45521 0.0
C971 C 0.81034 0.7113 0.44579 0.0
C972 C 0.80984 0.70033 0.412 0.0
C973 C 0.7876 0.70052 0.38989 0.0
C974 C 0.88279 0.70107 0.48024 0.0
C975 C 0.88334 0.7102 0.5149 0.0
C976 C 0.86005 0.70143 0.45883 0.0
C977 C 0.83556 0.71099 0.46996 0.0
C978 C 0.83623 0.72015 0.50483 0.0
C979 C 0.85905 0.71978 0.52626 0.0
H980 H 0.18409 0.10843 0.80468 0.0
H981 H 0.2134 0.15417 0.72138 0.0
H982 H 0.18385 1.07045 0.76717 0.0
H983 H 0.21313 0.11663 0.6837 0.0
H984 H 0.21558 1.045 0.6124 0.0
H985 H 0.21589 0.08186 0.65077 0.0
H986 H 0.18073 1.03611 0.73038 0.0
H987 H 0.18068 0.99883 0.69119 0.0
C988 C 0.19069 0.11075 0.77836 0.0
C989 C 0.19897 0.13565 0.76744 0.0
C990 C 0.19048 0.08831 0.75605 0.0
C991 C 0.1985 0.08864 0.72062 0.0
C992 C 0.20675 0.11374 0.70993 0.0
C993 C 0.20696 0.13611 0.73222 0.0
C994 C 0.2078 1.04235 0.63807 0.0
C995 C 0.19811 1.01762 0.64723 0.0
C996 C 0.20791 1.06429 0.66093 0.0
C997 C 0.19829 1.06382 0.69551 0.0
C998 C 0.18858 1.03888 0.70483 0.0
C999 C 0.18849 1.01676 0.68174 0.0
H1000 H 0.75585 0.4716 0.97421 0.0
H1001 H 0.79823 0.4322 0.05339 0.0
H1002 H 0.79374 0.47179 0.93734 0.0
H1003 H 0.83646 0.43218 0.01661 0.0
H1004 H 0.90991 0.43367 0.94383 0.0
H1005 H 0.87235 0.43346 0.98241 0.0
H1006 H 0.82763 0.47043 0.9029 0.0
H1007 H 0.86474 0.47058 0.86529 0.0
C1008 C 0.77321 0.46291 0.98429 0.0
C1009 C 0.77262 0.45203 0.01815 0.0
C1010 C 0.79577 0.46291 0.96243 0.0
C1011 C 0.82006 0.45197 0.97222 0.0
C1012 C 0.81933 0.44108 0.00628 0.0
C1013 C 0.79671 0.44109 0.02815 0.0
C1014 C 0.89217 0.44188 0.93429 0.0
C1015 C 0.89172 0.4522 0.90005 0.0
C1016 C 0.86986 0.44176 0.957 0.0
C1017 C 0.84511 0.45194 0.94755 0.0
C1018 C 0.84505 0.46222 0.91325 0.0
C1019 C 0.86715 0.46232 0.89079 0.0
H1020 H 0.44157 1.01073 0.22462 0.0
H1021 H 0.47059 1.0558 0.30833 0.0
H1022 H 0.44222 1.0484 0.18706 0.0
H1023 H 0.47119 0.09405 0.27083 0.0
H1024 H 0.4753 0.16593 0.19407 0.0
H1025 H 0.47494 0.12859 0.23361 0.0
H1026 H 0.43937 0.08322 0.15438 0.0
H1027 H 0.44001 0.11999 0.11578 0.0
C1028 C 0.44802 1.02869 0.2356 0.0
C1029 C 0.4558 1.02888 0.27088 0.0
C1030 C 0.44845 1.05116 0.21335 0.0
C1031 C 0.45674 1.07615 0.22415 0.0
C1032 C 0.46455 1.07627 0.25966 0.0
C1033 C 0.46413 1.05368 0.28195 0.0
C1034 C 0.46733 0.14807 0.1848 0.0
C1035 C 0.45771 0.14727 0.1503 0.0
C1036 C 0.46706 0.12593 0.20809 0.0
C1037 C 0.45716 0.10106 0.19896 0.0
C1038 C 0.44753 0.10069 0.16442 0.0
C1039 C 0.44782 0.12261 0.1414 0.0
H1040 H 0.3031 0.44173 0.45616 0.0
H1041 H 0.25758 0.4695 0.54054 0.0
H1042 H 0.34127 0.44182 0.49319 0.0
H1043 H 0.29524 0.46952 0.57767 0.0
H1044 H 0.36701 0.47341 0.64792 0.0
H1045 H 0.33013 0.4734 0.60986 0.0
H1046 H 0.37583 0.43832 0.5301 0.0
H1047 H 0.41319 0.43861 0.569 0.0
C1048 C 0.30084 0.44805 0.48259 0.0
C1049 C 0.27591 0.45581 0.49395 0.0
C1050 C 0.32341 0.44803 0.50463 0.0
C1051 C 0.32319 0.45573 0.54019 0.0
C1052 C 0.29808 0.46345 0.5513 0.0
C1053 C 0.27562 0.46346 0.52931 0.0
C1054 C 0.36968 0.46559 0.62229 0.0
C1055 C 0.39446 0.45605 0.61304 0.0
C1056 C 0.34771 0.46548 0.5996 0.0
C1057 C 0.34812 0.45577 0.56507 0.0
C1058 C 0.3731 0.44623 0.55562 0.0
C1059 C 0.39526 0.44635 0.57856 0.0
H1060 H 1.00034 0.15145 0.3378 0.0
H1061 H 0.92296 0.13907 0.3706 0.0
H1062 H 0.998 0.11378 0.2999 0.0
H1063 H 0.92075 0.10063 0.33324 0.0
H1064 H 0.93083 1.0166 0.28025 0.0
H1065 H 0.93135 1.05505 0.31749 0.0
H1066 H 0.98452 0.09107 0.24822 0.0
H1067 H 0.98335 1.05305 0.21067 0.0
C1068 C 0.98254 0.14092 0.33722 0.0
C1069 C 0.96189 0.14979 0.3584 0.0
C1070 C 0.98114 0.11868 0.31479 0.0
C1071 C 0.95912 0.10264 0.312 0.0
C1072 C 0.93843 0.11134 0.3335 0.0
C1073 C 0.93964 0.13408 0.35539 0.0
C1074 C 0.94261 1.03264 0.27238 0.0
C1075 C 0.95687 1.03043 0.24097 0.0
C1076 C 0.94291 1.05535 0.29431 0.0
C1077 C 0.95806 1.07767 0.28737 0.0
C1078 C 0.9725 1.07524 0.2561 0.0
C1079 C 0.97171 1.05284 0.23379 0.0
H1080 H 0.24701 0.7296 0.06828 0.0
H1081 H 0.29253 0.69483 0.1482 0.0
H1082 H 0.28456 0.72917 0.02957 0.0
H1083 H 0.32954 0.69409 0.11028 0.0
H1084 H 0.40289 0.69958 0.04258 0.0
H1085 H 0.36504 0.7005 0.07945 0.0
H1086 H 0.31864 0.72191 0.99202 0.0
H1087 H 0.35699 0.72116 0.95522 0.0
C1088 C 0.26483 0.72175 0.07811 0.0
C1089 C 0.26542 0.71231 0.11282 0.0
C1090 C 0.28707 0.72141 0.05528 0.0
C1091 C 0.3119 0.71166 0.06511 0.0
C1092 C 0.3121 0.70221 0.09984 0.0
C1093 C 0.29005 0.70254 0.1224 0.0
C1094 C 0.38473 0.70437 0.03064 0.0
C1095 C 0.38437 0.70999 0.99455 0.0
C1096 C 0.36218 0.7049 0.05246 0.0
C1097 C 0.33691 0.71119 0.04042 0.0
C1098 C 0.33664 0.71693 0.00414 0.0
C1099 C 0.35929 0.71636 0.98227 0.0
H1100 H 0.685 0.11328 0.71251 0.0
H1101 H 0.72106 0.15744 0.79199 0.0
H1102 H 0.68424 1.07562 0.7508 0.0
H1103 H 0.72039 0.12016 0.83046 0.0
H1104 H 0.72023 1.04897 0.90382 0.0
H1105 H 0.72104 0.08585 0.86489 0.0
H1106 H 0.68223 1.04139 0.7875 0.0
H1107 H 0.68165 1.00431 0.82709 0.0
C1108 C 0.69299 0.1153 0.73813 0.0
C1109 C 0.7033 0.13965 0.74775 0.0
C1110 C 0.69251 0.09304 0.76092 0.0
C1111 C 0.70224 0.09304 0.79556 0.0
C1112 C 0.71252 0.11759 0.80494 0.0
C1113 C 0.713 0.13978 0.78216 0.0
C1114 C 0.71176 1.04667 0.87852 0.0
C1115 C 0.70087 1.02239 0.87001 0.0
C1116 C 0.71218 1.06857 0.85533 0.0
C1117 C 0.70171 1.06841 0.82117 0.0
C1118 C 0.69079 1.04392 0.81263 0.0
C1119 C 0.69039 1.02192 0.83598 0.0
H1120 H 0.572 0.15523 0.89467 0.0
H1121 H 0.54218 0.23255 0.88202 0.0
H1122 H 0.59759 0.16044 0.84265 0.0
H1123 H 0.56745 0.23741 0.82923 0.0
H1124 H 0.59999 0.22227 0.71751 0.0
H1125 H 0.57191 0.21819 0.76807 0.0
H1126 H 0.63544 0.18846 0.8277 0.0
H1127 H 0.66333 0.1926 0.77764 0.0
C1128 C 0.57094 0.17338 0.8809 0.0
C1129 C 0.55527 0.1936 0.89287 0.0
C1130 C 0.58554 0.1763 0.851 0.0
C1131 C 0.58465 0.1994 0.83211 0.0
C1132 C 0.56836 0.21935 0.84324 0.0
C1133 C 0.55388 0.21652 0.87342 0.0
C1134 C 0.60785 0.21489 0.74148 0.0
C1135 C 0.63373 0.20756 0.74364 0.0
C1136 C 0.59187 0.21268 0.77037 0.0
C1137 C 0.60148 0.2028 0.80166 0.0
C1138 C 0.62744 0.19578 0.80377 0.0
C1139 C 0.64342 0.19827 0.77515 0.0
H1140 H 0.68629 0.79556 0.12838 0.0
H1141 H 0.75888 0.83047 0.15279 0.0
H1142 H 0.68358 0.82169 0.07592 0.0
H1143 H 0.75628 0.8562 0.10026 0.0
H1144 H 0.75497 0.87883 0.98626 0.0
H1145 H 0.75733 0.85043 0.03664 0.0
H1146 H 0.67839 0.86808 0.06069 0.0
H1147 H 0.67596 0.89623 0.01021 0.0
C1148 C 0.70159 0.80887 0.12265 0.0
C1149 C 0.72283 0.81089 0.14471 0.0
C1150 C 0.70006 0.82376 0.0926 0.0
C1151 C 0.71978 0.84087 0.08398 0.0
C1152 C 0.74102 0.84284 0.10595 0.0
C1153 C 0.7425 0.82808 0.13603 0.0
C1154 C 0.7381 0.87643 0.00219 0.0
C1155 C 0.71529 0.88959 0.99438 0.0
C1156 C 0.73948 0.86034 0.03109 0.0
C1157 C 0.71804 0.85708 0.05255 0.0
C1158 C 0.69512 0.87 0.04438 0.0
C1159 C 0.69378 0.8862 0.01562 0.0
H1160 H 1.03358 1.00552 0.23894 0.0
H1161 H 1.01718 0.92481 0.25346 0.0
H1162 H 1.0619 1.00435 0.28883 0.0
H1163 H 1.04599 0.92346 0.30314 0.0
H1164 H 0.12837 0.99006 0.35974 0.0
H1165 H 0.10278 0.98683 0.30736 0.0
H1166 H 1.04778 0.94016 0.362 0.0
H1167 H 1.07361 0.94318 0.41433 0.0
C1168 C 1.03628 0.98744 0.25263 0.0
C1169 C 1.02331 0.96523 0.24234 0.0
C1170 C 1.05261 0.98675 0.28107 0.0
C1171 C 1.05633 0.96377 0.2998 0.0
C1172 C 1.04337 0.94149 0.28938 0.0
C1173 C 1.02697 0.9422 0.26089 0.0
C1174 C 0.11086 0.97903 0.36048 0.0
C1175 C 0.10283 0.96708 0.39115 0.0
C1176 C 0.09619 0.97722 0.33053 0.0
C1177 C 1.07311 0.9635 0.33065 0.0
C1178 C 1.06559 0.95068 0.36099 0.0
C1179 C 0.08034 0.95242 0.39096 0.0
H1180 H 0.90501 0.28346 0.49433 0.0
H1181 H 0.98657 0.27234 0.50607 0.0
H1182 H 0.90387 0.30816 0.54772 0.0
H1183 H 0.98539 0.29713 0.5598 0.0
H1184 H 0.9715 0.36873 0.63221 0.0
H1185 H 0.97561 0.34327 0.57945 0.0
H1186 H 0.91085 0.29754 0.61053 0.0
H1187 H 0.907 0.32248 0.66342 0.0
C1188 C 0.92271 0.28649 0.50823 0.0
C1189 C 0.94588 0.27614 0.49611 0.0
C1190 C 0.92203 0.30042 0.53889 0.0
C1191 C 0.94452 0.3044 0.55791 0.0
C1192 C 0.96782 0.29444 0.54548 0.0
C1193 C 0.96847 0.28024 0.51488 0.0
C1194 C 0.9584 0.35299 0.62802 0.0
C1195 C 0.93874 0.34781 0.65181 0.0
C1196 C 0.96074 0.33848 0.59783 0.0
C1197 C 0.94336 0.31868 0.59083 0.0
C1198 C 0.92419 0.31304 0.61503 0.0
C1199 C 0.92196 0.32738 0.64524 0.0
H1200 H 0.62332 0.98853 0.15171 0.0
H1201 H 0.57255 0.938 0.09644 0.0
H1202 H 0.59865 0.98183 0.20438 0.0
H1203 H 0.54811 0.93084 0.14945 0.0
H1204 H 0.49266 0.95876 0.23593 0.0
H1205 H 0.51945 0.95866 0.18445 0.0
H1206 H 0.58673 0.94883 0.24808 0.0
H1207 H 0.55979 0.94912 0.29985 0.0
C1208 C 0.60695 0.97586 0.15092 0.0
C1209 C 0.59966 0.96401 0.11992 0.0
C1210 C 0.59302 0.97179 0.18116 0.0
C1211 C 0.57142 0.95587 0.181 0.0
C1212 C 0.56456 0.94339 0.15023 0.0
C1213 C 0.57862 0.94734 0.11999 0.0
C1214 C 0.51317 0.95645 0.23892 0.0
C1215 C 0.52424 0.95428 0.27183 0.0
C1216 C 0.52847 0.95616 0.20942 0.0
C1217 C 0.55518 0.95378 0.21225 0.0
C1218 C 0.56621 0.95095 0.24519 0.0
C1219 C 0.55083 0.95107 0.27475 0.0
H1220 H 0.47951 0.36708 0.87731 0.0
H1221 H 0.40163 0.34074 0.86625 0.0
H1222 H 0.48379 0.34174 0.93039 0.0
H1223 H 0.4063 0.315 0.9185 0.0
H1224 H 0.43664 0.24819 0.98452 0.0
H1225 H 0.4338 0.27565 0.93354 0.0
H1226 H 0.46371 0.33941 0.99192 0.0
H1227 H 0.46648 0.31181 0.04337 0.0
C1228 C 0.46326 0.3561 0.8863 0.0
C1229 C 0.44031 0.35572 0.86733 0.0
C1230 C 0.46576 0.34159 0.9166 0.0
C1231 C 0.44545 0.32629 0.92822 0.0
C1232 C 0.42239 0.32631 0.90971 0.0
C1233 C 0.41979 0.34097 0.87972 0.0
C1234 C 0.44265 0.26805 0.98651 0.0
C1235 C 0.45153 0.27802 0.0179 0.0
C1236 C 0.44092 0.28376 0.95739 0.0
C1237 C 0.44833 0.30965 0.95898 0.0
C1238 C 0.45792 0.31948 0.99011 0.0
C1239 C 0.45936 0.30379 0.01947 0.0
H1240 H 0.09464 0.21223 0.79761 0.0
H1241 H 0.16048 0.20409 0.73097 0.0
H1242 H 1.06645 0.21063 0.7473 0.0
H1243 H 0.13235 0.20229 0.68074 0.0
H1244 H 0.07568 0.22341 0.59581 0.0
H1245 H 0.10227 0.2294 0.64694 0.0
H1246 H 1.05366 0.17777 0.70444 0.0
H1247 H 1.02674 0.17225 0.65354 0.0
C1248 C 0.10306 0.21014 0.77219 0.0
C1249 C 0.12969 0.20809 0.76814 0.0
C1250 C 0.08694 0.20913 0.74344 0.0
C1251 C 0.09719 0.20626 0.71009 0.0
C1252 C 0.1239 0.20477 0.70606 0.0
C1253 C 0.13999 0.20563 0.73481 0.0
C1254 C 1.07047 0.21365 0.61951 0.0
C1255 C 1.04915 0.19731 0.62065 0.0
C1256 C 0.08583 0.21688 0.64868 0.0
C1257 C 0.08011 0.20398 0.67966 0.0
C1258 C 1.05845 0.18813 0.68102 0.0
C1259 C 1.04318 0.18477 0.6518 0.0
H1260 H 0.22074 0.91332 0.48709 0.0
H1261 H 0.18663 0.85156 0.54581 0.0
H1262 H 0.22452 0.88517 0.43724 0.0
H1263 H 0.19029 0.82321 0.49529 0.0
H1264 H 0.17705 0.79709 0.37819 0.0
H1265 H 0.17216 0.82158 0.43174 0.0
H1266 H 0.25127 0.84443 0.42545 0.0
H1267 H 0.25647 0.81953 0.37276 0.0
C1268 C 0.21399 0.89371 0.4893 0.0
C1269 C 0.20361 0.88448 0.52036 0.0
C1270 C 0.21626 0.87759 0.46081 0.0
C1271 C 0.20793 0.85201 0.46262 0.0
C1272 C 0.19687 0.84289 0.49336 0.0
C1273 C 0.19489 0.859 0.52218 0.0
C1274 C 0.19351 0.80696 0.38857 0.0
C1275 C 0.21706 0.80666 0.37092 0.0
C1276 C 0.19067 0.82097 0.41915 0.0
C1277 C 0.21127 0.83506 0.43236 0.0
C1278 C 0.23498 0.83405 0.41541 0.0
C1279 C 0.23789 0.81991 0.38515 0.0
H1280 H 1.0682 0.65436 0.38787 0.0
H1281 H 1.04463 0.7342 0.38095 0.0
H1282 H 0.09328 0.6593 0.33533 0.0
H1283 H 1.06929 0.73879 0.32756 0.0
H1284 H 0.09989 0.72357 0.21394 0.0
H1285 H 1.07154 0.72015 0.2644 0.0
H1286 H 0.13339 0.68615 0.32318 0.0
H1287 H 0.16155 0.6897 0.27339 0.0
C1288 C 1.06838 0.67298 0.37519 0.0
C1289 C 1.05474 0.694 0.38896 0.0
C1290 C 0.08262 0.67573 0.34502 0.0
C1291 C 0.08334 0.69947 0.32768 0.0
C1292 C 1.06891 0.72025 0.34044 0.0
C1293 C 1.05479 0.71758 0.37094 0.0
C1294 C 0.10731 0.71541 0.23772 0.0
C1295 C 0.13277 0.70668 0.23975 0.0
C1296 C 0.0912 0.71357 0.2665 0.0
C1297 C 0.10028 0.70264 0.29743 0.0
C1298 C 0.12584 0.6943 0.29946 0.0
C1299 C 0.14196 0.69644 0.271 0.0
H1300 H 0.17666 0.29735 0.63564 0.0
H1301 H 0.2548 0.32323 0.64504 0.0
H1302 H 0.17207 0.32231 0.58225 0.0
H1303 H 0.24984 0.3486 0.59251 0.0
H1304 H 0.21904 0.41588 0.52799 0.0
H1305 H 0.222 0.38817 0.57866 0.0
H1306 H 0.19179 0.32476 0.51992 0.0
H1307 H 0.18892 0.35264 0.46867 0.0
C1308 C 0.19291 0.30812 0.6262 0.0
C1309 C 0.21601 0.30856 0.64486 0.0
C1310 C 0.19023 0.32241 0.59572 0.0
C1311 C 0.21051 0.33754 0.58361 0.0
C1312 C 0.23377 0.33742 0.60169 0.0
C1313 C 0.23654 0.32299 0.63185 0.0
C1314 C 0.21296 0.39605 0.52584 0.0
C1315 C 0.204 0.38627 0.49438 0.0
C1316 C 0.21476 0.3802 0.5548 0.0
C1317 C 0.20736 0.35432 0.55301 0.0
C1318 C 0.19761 0.34467 0.52186 0.0
C1319 C 0.19609 0.36053 0.49263 0.0
H1320 H 0.5598 0.44449 0.71682 0.0
H1321 H 0.49505 0.46899 0.77811 0.0
H1322 H 0.58629 0.44286 0.76898 0.0
H1323 H 0.52139 0.46814 0.82967 0.0
H1324 H 0.56712 0.44468 0.92179 0.0
H1325 H 0.5427 0.43966 0.86866 0.0
H1326 H 0.60548 0.47171 0.81032 0.0
H1327 H 0.6301 0.47609 0.86352 0.0
C1328 C 0.55131 0.44961 0.74141 0.0
C1329 C 0.52547 0.45701 0.74346 0.0
C1330 C 0.56645 0.44876 0.77122 0.0
C1331 C 0.55597 0.45531 0.80355 0.0
C1332 C 0.53001 0.4625 0.80538 0.0
C1333 C 0.51494 0.46323 0.77574 0.0
C1334 C 0.57571 0.4505 0.89755 0.0
C1335 C 0.60038 0.46099 0.89677 0.0
C1336 C 0.56173 0.4477 0.86712 0.0
C1337 C 0.57199 0.45559 0.83525 0.0
C1338 C 0.59708 0.46521 0.83435 0.0
C1339 C 0.61117 0.46779 0.86481 0.0
H1340 H 0.40115 0.78128 0.99555 0.0
H1341 H 0.48265 0.77107 0.00916 0.0
H1342 H 0.3993 0.80699 0.04819 0.0
H1343 H 0.48078 0.79659 0.06201 0.0
H1344 H 0.46904 0.8682 0.13178 0.0
H1345 H 0.47202 0.8421 0.07957 0.0
H1346 H 0.40507 0.79981 0.11117 0.0
H1347 H 0.40224 0.82558 0.16347 0.0
C1348 C 0.41865 0.78462 0.00979 0.0
C1349 C 0.44204 0.77438 0.99831 0.0
C1350 C 0.41758 0.79915 0.03999 0.0
C1351 C 0.43991 0.80376 0.05915 0.0
C1352 C 0.46334 0.79356 0.04754 0.0
C1353 C 0.46438 0.77889 0.01743 0.0
C1354 C 0.45516 0.85313 0.12777 0.0
C1355 C 0.43531 0.84906 0.15164 0.0
C1356 C 0.45684 0.83823 0.09788 0.0
C1357 C 0.43867 0.81907 0.09126 0.0
C1358 C 0.41907 0.81477 0.11533 0.0
C1359 C 0.41744 0.82955 0.14524 0.0
H1360 H 0.12487 0.49096 0.65119 0.0
H1361 H 0.07568 0.43904 0.59561 0.0
H1362 H 0.09865 0.48551 0.70283 0.0
H1363 H 1.04976 0.43314 0.64752 0.0
H1364 H 0.99217 0.45985 0.73156 0.0
H1365 H 1.01994 0.46082 0.68094 0.0
H1366 H 0.08626 0.45298 0.74683 0.0
H1367 H 1.05839 0.45218 0.7976 0.0
C1368 C 0.10853 0.47826 0.6501 0.0
C1369 C 0.10223 0.46555 0.61931 0.0
C1370 C 0.09368 0.47495 0.67975 0.0
C1371 C 1.07211 0.45896 0.67919 0.0
C1372 C 1.06614 0.44578 0.64862 0.0
C1373 C 0.0811 0.44897 0.61901 0.0
C1374 C 1.01268 0.45826 0.7352 0.0
C1375 C 1.02318 0.4562 0.76847 0.0
C1376 C 1.02856 0.45862 0.70622 0.0
C1377 C 1.05528 0.45702 0.70993 0.0
C1378 C 1.06575 0.45453 0.74322 0.0
C1379 C 1.04983 0.45402 0.77224 0.0
H1380 H 0.91939 0.88608 0.40373 0.0
H1381 H 0.96913 0.83541 0.34572 0.0
H1382 H 0.92459 0.85861 0.45455 0.0
H1383 H 0.97483 0.80829 0.39678 0.0
H1384 H 0.94848 0.75002 0.47978 0.0
H1385 H 0.94699 0.77887 0.43 0.0
H1386 H 0.95711 0.84416 0.49736 0.0
H1387 H 0.95841 0.81521 0.5473 0.0
C1388 C 0.93155 0.86916 0.40193 0.0
C1389 C 0.94375 0.86282 0.37071 0.0
C1390 C 0.93472 0.85358 0.43109 0.0
C1391 C 0.95004 0.83126 0.42958 0.0
C1392 C 0.9627 0.82524 0.39859 0.0
C1393 C 0.95964 0.8409 0.36948 0.0
C1394 C 0.95042 0.77053 0.48392 0.0
C1395 C 0.95333 0.78045 0.51735 0.0
C1396 C 0.94976 0.78703 0.45542 0.0
C1397 C 0.95193 0.81377 0.45981 0.0
C1398 C 0.95513 0.82365 0.49327 0.0
C1399 C 0.95593 0.80711 0.52179 0.0
H1400 H 0.53517 0.6757 0.14659 0.0
H1401 H 0.58555 0.72872 0.09449 0.0
H1402 H 0.55911 0.68141 0.20004 0.0
H1403 H 0.60928 0.73483 0.14825 0.0
H1404 H 0.66438 0.70518 0.2341 0.0
H1405 H 0.63799 0.70598 0.18232 0.0
H1406 H 0.57013 0.71372 0.24531 0.0
H1407 H 0.59671 0.7128 0.29744 0.0
C1408 C 0.55128 0.6887 0.14668 0.0
C1409 C 0.55871 0.70154 0.11634 0.0
C1410 C 0.56479 0.69219 0.17735 0.0
C1411 C 0.58609 0.70849 0.17825 0.0
C1412 C 0.59305 0.72197 0.14818 0.0
C1413 C 0.5794 0.71862 0.11752 0.0
C1414 C 0.64383 0.70714 0.2369 0.0
C1415 C 0.6325 0.70862 0.26972 0.0
C1416 C 0.62875 0.70784 0.20724 0.0
C1417 C 0.60201 0.70992 0.2098 0.0
C1418 C 0.59069 0.71189 0.24265 0.0
C1419 C 0.60585 0.71139 0.27241 0.0
H1420 H 0.69743 0.34837 0.04744 0.0
H1421 H 0.70113 0.41626 0.98291 0.0
H1422 H 0.69785 0.32124 0.99587 0.0
H1423 H 0.70159 0.38924 0.93155 0.0
H1424 H 0.68102 0.33433 0.84561 0.0
H1425 H 0.67401 0.35852 0.89886 0.0
H1426 H 0.73092 0.31154 0.95049 0.0
H1427 H 0.7376 0.28709 0.89747 0.0
C1428 C 0.69822 0.35744 0.02223 0.0
C1429 C 0.69952 0.38431 0.01901 0.0
C1430 C 0.6985 0.34196 0.99282 0.0
C1431 C 0.69978 0.35317 0.9598 0.0
C1432 C 0.70033 0.38011 0.95667 0.0
C1433 C 0.70027 0.39554 0.98604 0.0
C1434 C 0.6917 0.32894 0.86852 0.0
C1435 C 0.70997 0.30899 0.86745 0.0
C1436 C 0.68783 0.34287 0.89885 0.0
C1437 C 0.70201 0.33694 0.92867 0.0
C1438 C 0.71959 0.31637 0.92793 0.0
C1439 C 0.7236 0.30258 0.89755 0.0
H1440 H 0.30438 0.29875 0.13506 0.0
H1441 H 0.29615 0.22708 0.19046 0.0
H1442 H 0.26413 0.31394 0.15844 0.0
H1443 H 0.255 0.24183 0.21313 0.0
H1444 H 0.23977 0.30477 0.29916 0.0
H1445 H 0.25351 0.27247 0.2584 0.0
H1446 H 0.22058 0.31709 0.17482 0.0
H1447 H 0.20735 0.35002 0.21614 0.0
C1448 C 0.29334 0.28585 0.15119 0.0
C1449 C 0.30371 0.26221 0.16203 0.0
C1450 C 0.27 0.29439 0.16435 0.0
C1451 C 0.25663 0.27941 0.18866 0.0
C1452 C 0.26518 0.25409 0.19519 0.0
C1453 C 0.28867 0.24558 0.18208 0.0
C1454 C 0.23443 0.30719 0.27231 0.0
C1455 C 0.2233 0.33027 0.26061 0.0
C1456 C 0.24222 0.28849 0.24874 0.0
C1457 C 0.23895 0.29259 0.21305 0.0
C1458 C 0.2241 0.31377 0.20204 0.0
C1459 C 0.21655 0.33263 0.22564 0.0
H1460 H 0.61811 0.55761 0.38801 0.0
H1461 H 0.68736 0.5518 0.44823 0.0
H1462 H 0.60355 0.51722 0.41177 0.0
H1463 H 0.67336 0.51044 0.47125 0.0
H1464 H 0.60847 0.4954 0.55396 0.0
H1465 H 0.64157 0.5089 0.51461 0.0
H1466 H 0.60091 0.47392 0.42977 0.0
H1467 H 0.5671 0.46103 0.46965 0.0
C1468 C 0.63068 0.54707 0.40534 0.0
C1469 C 0.65332 0.5582 0.41735 0.0
C1470 C 0.62252 0.52362 0.41873 0.0
C1471 C 0.63691 0.5109 0.44445 0.0
C1472 C 0.6615 0.52014 0.45224 0.0
C1473 C 0.6696 0.54376 0.43893 0.0
C1474 C 0.6071 0.48958 0.52719 0.0
C1475 C 0.58485 0.47798 0.5146 0.0
C1476 C 0.62627 0.49722 0.50443 0.0
C1477 C 0.62349 0.49332 0.46867 0.0
C1478 C 0.60319 0.47797 0.45701 0.0
C1479 C 0.58383 0.4706 0.47978 0.0
H1480 H 0.23658 0.85738 0.7994 0.0
H1481 H 0.20811 0.80228 0.7257 0.0
H1482 H 0.25488 0.82308 0.8331 0.0
H1483 H 0.22673 0.76734 0.75993 0.0
H1484 H 0.31447 0.74459 0.77158 0.0
H1485 H 0.27204 0.76055 0.75798 0.0
H1486 H 0.26188 0.78442 0.86399 0.0
H1487 H 0.30515 0.77021 0.87697 0.0
C1488 C 0.23304 0.83781 0.79123 0.0
C1489 C 0.22183 0.83262 0.75909 0.0
C1490 C 0.24358 0.81789 0.81079 0.0
C1491 C 0.2432 0.79245 0.79847 0.0
C1492 C 0.2281 0.78686 0.76945 0.0
C1493 C 0.21751 0.80687 0.74981 0.0
C1494 C 0.30309 0.75299 0.79209 0.0
C1495 C 0.31365 0.75714 0.8249 0.0
C1496 C 0.27842 0.76164 0.78452 0.0
C1497 C 0.26374 0.77445 0.80975 0.0
C1498 C 0.27296 0.77521 0.8438 0.0
C1499 C 0.2978 0.76693 0.85124 0.0
H1500 H 0.13598 0.65271 0.95156 0.0
H1501 H 0.0806 0.70973 0.9845 0.0
H1502 H 0.10579 0.63589 0.91103 0.0
H1503 H 1.0499 0.69291 0.9429 0.0
H1504 H 1.00039 0.61749 0.93928 0.0
H1505 H 1.0268 0.6546 0.95005 0.0
H1506 H 0.0767 0.63234 0.86602 0.0
H1507 H 1.05176 0.59381 0.85756 0.0
C1508 C 0.11772 0.66253 0.94899 0.0
C1509 C 0.11044 0.68207 0.97202 0.0
C1510 C 0.10021 0.65284 0.92544 0.0
C1511 C 0.07498 0.66249 0.92432 0.0
C1512 C 1.0689 0.68449 0.94389 0.0
C1513 C 0.08648 0.69413 0.96769 0.0
C1514 C 1.01691 0.62055 0.92293 0.0
C1515 C 1.02461 0.60189 0.89878 0.0
C1516 C 1.03183 0.64228 0.92857 0.0
C1517 C 1.05452 0.64604 0.90969 0.0
C1518 C 1.05986 0.62953 0.88188 0.0
C1519 C 1.04531 0.60745 0.8768 0.0
H1520 H 0.77105 0.88307 0.70899 0.0
H1521 H 0.70776 0.8339 0.73625 0.0
H1522 H 0.78413 0.85323 0.66513 0.0
H1523 H 0.72107 0.80336 0.69159 0.0
H1524 H 0.79307 0.74717 0.67839 0.0
H1525 H 0.75714 0.77478 0.69275 0.0
H1526 H 0.78037 0.82881 0.61391 0.0
H1527 H 0.81774 0.80275 0.60208 0.0
C1528 C 0.75933 0.86626 0.70476 0.0
C1529 C 0.73861 0.86066 0.72647 0.0
C1530 C 0.76674 0.84908 0.67922 0.0
C1531 C 0.75371 0.82571 0.6748 0.0
C1532 C 0.73166 0.82105 0.69462 0.0
C1533 C 0.7242 0.83839 0.72034 0.0
C1534 C 0.79037 0.76478 0.66376 0.0
C1535 C 0.80931 0.77353 0.64085 0.0
C1536 C 0.76934 0.78041 0.67147 0.0
C1537 C 0.76674 0.8047 0.6557 0.0
C1538 C 0.78259 0.81068 0.62755 0.0
C1539 C 0.80405 0.7955 0.6206 0.0
H1540 H 0.7782 0.29834 0.12979 0.0
H1541 H 0.84146 0.3454 0.16224 0.0
H1542 H 0.80501 0.2597 0.13585 0.0
H1543 H 0.86798 0.30726 0.16889 0.0
H1544 H 0.91379 0.24655 0.19151 0.0
H1545 H 0.88983 0.26934 0.14738 0.0
H1546 H 0.81936 0.23971 0.18948 0.0
H1547 H 0.84345 0.21542 0.23225 0.0
C1548 C 0.79803 0.30042 0.13738 0.0
C1549 C 0.80773 0.32468 0.14626 0.0
C1550 C 0.81333 0.27836 0.14082 0.0
C1551 C 0.8386 0.28031 0.15293 0.0
C1552 C 0.84875 0.30493 0.159 0.0
C1553 C 0.83346 0.32683 0.1558 0.0
C1554 C 0.89333 0.24353 0.19023 0.0
C1555 C 0.88036 0.23025 0.2166 0.0
C1556 C 0.87955 0.25687 0.16498 0.0
C1557 C 0.85269 0.25746 0.1662 0.0
C1558 C 0.84005 0.24016 0.18826 0.0
C1559 C 0.85388 0.22642 0.21313 0.0
H1560 H 1.05189 0.11714 0.8962 0.0
H1561 H 1.04245 0.18061 0.96678 0.0
H1562 H 1.01234 0.09872 0.91626 0.0
H1563 H 1.00176 0.16276 0.98623 0.0
H1564 H 0.97926 0.09253 0.05583 0.0
H1565 H 0.99591 0.12826 0.02335 0.0
H1566 H 0.96918 0.09365 0.92862 0.0
H1567 H 0.95352 1.05688 0.96167 0.0
C1568 C 1.04074 0.1277 0.9151 0.0
C1569 C 1.05048 0.14993 0.93057 0.0
C1570 C 1.01778 0.11724 0.92652 0.0
C1571 C 1.00391 0.12893 0.95352 0.0
C1572 C 1.01227 0.15284 0.96611 0.0
C1573 C 1.03555 0.16309 0.95504 0.0
C1574 C 0.97588 0.09304 0.02824 0.0
C1575 C 0.96584 1.07159 0.01112 0.0
C1576 C 0.98543 0.11372 0.00939 0.0
C1577 C 0.9849 0.11342 0.97306 0.0
C1578 C 0.97087 0.09398 0.95648 0.0
C1579 C 0.96172 1.073 0.97535 0.0
H1580 H 0.61515 1.06758 0.65138 0.0
H1581 H 0.66416 1.05114 0.56404 0.0
H1582 H 0.59245 1.02787 0.64161 0.0
H1583 H 0.63968 1.01292 0.55209 0.0
H1584 H 0.58754 0.95666 0.51634 0.0
H1585 H 0.61913 0.97317 0.55692 0.0
H1586 H 0.56159 1.02452 0.59908 0.0
H1587 H 0.53056 1.00789 0.55959 0.0
C1588 C 0.62159 1.0553 0.63055 0.0
C1589 C 0.64082 1.06327 0.6075 0.0
C1590 C 0.60829 1.03254 0.62473 0.0
C1591 C 0.61334 1.01775 0.59513 0.0
C1592 C 0.63487 1.02387 0.57494 0.0
C1593 C 0.64862 1.04626 0.58132 0.0
C1594 C 0.58158 0.97088 0.53514 0.0
C1595 C 0.55677 0.9815 0.53411 0.0
C1596 C 0.59966 0.98036 0.55837 0.0
C1597 C 0.59324 1.0008 0.58059 0.0
C1598 C 0.56749 1.00879 0.58256 0.0
C1599 C 0.54947 0.99923 0.55961 0.0
loop_
_geom_bond_atom_site_label_1
_geom_bond_atom_site_label_2
_geom_bond_distance
_geom_bond_site_symmetry_2
_ccdc_geom_bond_type
Sm0 C2 2.846 . S
Sm0 O20 2.543 . S
Sm0 O21 2.450 . S
Sm0 O22 2.681 1_556 S
Sm0 O23 2.464 1_556 S
Sm0 O24 2.396 1_556 S
Sm0 O28 2.386 1_556 S
Sm0 O31 2.408 . S
Sm1 C11 2.846 . S
Sm1 O22 2.386 . S
Sm1 O25 2.408 . S
Sm1 O26 2.543 . S
Sm1 O27 2.450 . S
Sm1 O28 2.681 . S
Sm1 O29 2.464 . S
Sm1 O30 2.396 . S
C2 Sm0 2.846 . S
C2 C3 1.506 . S
C2 O20 1.261 . S
C2 O21 1.242 . S
C3 C2 1.506 . S
C3 C4 1.358 . S
C3 C8 1.382 . S
C4 C3 1.358 . S
C4 C5 1.385 . S
C4 H32 0.930 . S
C5 C4 1.385 . S
C5 C6 1.395 . S
C5 H33 0.929 . S
C6 C5 1.395 . S
C6 C7 1.335 . S
C7 C6 1.335 . S
C7 C8 1.398 . S
C7 H34 0.930 . S
C8 C3 1.382 . S
C8 C7 1.398 . S
C8 H35 0.929 . S
C9 O22 1.271 . S
C9 O23 1.251 . S
C10 O24 1.252 . S
C10 O25 1.272 . S
C11 Sm1 2.846 . S
C11 C12 1.506 . S
C11 O26 1.261 . S
C11 O27 1.242 . S
C12 C11 1.506 . S
C12 C13 1.358 . S
C12 C17 1.382 . S
C13 C12 1.358 . S
C13 C14 1.385 . S
C13 H36 0.930 . S
C14 C13 1.385 . S
C14 C15 1.395 . S
C14 H37 0.929 . S
C15 C14 1.395 . S
C15 C16 1.335 . S
C16 C15 1.335 . S
C16 C17 1.398 . S
C16 H38 0.930 . S
C17 C12 1.382 . S
C17 C16 1.398 . S
C17 H39 0.929 . S
C18 O28 1.271 1_556 S
C18 O29 1.251 1_556 S
C19 O30 1.252 . S
C19 O31 1.272 1_554 S
O20 Sm0 2.543 . S
O20 C2 1.261 . S
O21 Sm0 2.450 . S
O21 C2 1.242 . S
O22 Sm0 2.681 1_554 S
O22 Sm1 2.386 . S
O22 C9 1.271 . S
O23 Sm0 2.464 1_554 S
O23 C9 1.251 . S
O24 Sm0 2.396 1_554 S
O24 C10 1.252 . S
O25 Sm1 2.408 . S
O25 C10 1.272 . S
O26 Sm1 2.543 . S
O26 C11 1.261 . S
O27 Sm1 2.450 . S
O27 C11 1.242 . S
O28 Sm0 2.386 1_554 S
O28 Sm1 2.681 . S
O28 C18 1.271 1_554 S
O29 Sm1 2.464 . S
O29 C18 1.251 1_554 S
O30 Sm1 2.396 . S
O30 C19 1.252 . S
O31 Sm0 2.408 . S
O31 C19 1.272 1_556 S
H32 C4 0.930 . S
H33 C5 0.929 . S
H34 C7 0.930 . S
H35 C8 0.929 . S
H36 C13 0.930 . S
H37 C14 0.929 . S
H38 C16 0.930 . S
H39 C17 0.929 . S
Sm40 C42 2.846 . S
Sm40 O60 2.543 . S
Sm40 O61 2.450 . S
Sm40 O62 2.681 . S
Sm40 O63 2.464 . S
Sm40 O64 2.396 . S
Sm40 O68 2.386 . S
Sm40 O71 2.408 . S
Sm41 C51 2.846 . S
Sm41 O62 2.386 . S
Sm41 O65 2.408 . S
Sm41 O66 2.543 . S
Sm41 O67 2.450 . S
Sm41 O68 2.681 . S
Sm41 O69 2.464 . S
Sm41 O70 2.396 . S
C42 Sm40 2.846 . S
C42 C43 1.506 . S
C42 O60 1.261 . S
C42 O61 1.242 . S
C43 C42 1.506 . S
C43 C44 1.358 . S
C43 C48 1.382 . S
C44 C43 1.358 . S
C44 C45 1.385 . S
C44 H72 0.930 . S
C45 C44 1.385 . S
C45 C46 1.395 . S
C45 H73 0.929 . S
C46 C45 1.395 . S
C46 C47 1.335 . S
C47 C46 1.335 . S
C47 C48 1.398 . S
C47 H74 0.930 . S
C48 C43 1.382 . S
C48 C47 1.398 . S
C48 H75 0.929 . S
C49 O62 1.271 . S
C49 O63 1.251 . S
C50 O64 1.252 . S
C50 O65 1.272 . S
C51 Sm41 2.846 . S
C51 C52 1.506 . S
C51 O66 1.261 . S
C51 O67 1.242 . S
C52 C51 1.506 . S
C52 C53 1.358 . S
C52 C57 1.382 . S
C53 C52 1.358 . S
C53 C54 1.385 . S
C53 H76 0.930 . S
C54 C53 1.385 . S
C54 C55 1.395 . S
C54 H77 0.929 . S
C55 C54 1.395 . S
C55 C56 1.335 . S
C56 C55 1.335 . S
C56 C57 1.398 . S
C56 H78 0.930 . S
C57 C52 1.382 . S
C57 C56 1.398 . S
C57 H79 0.929 . S
C58 O68 1.271 . S
C58 O69 1.251 . S
C59 O70 1.252 . S
C59 O71 1.272 . S
O60 Sm40 2.543 . S
O60 C42 1.261 . S
O61 Sm40 2.450 . S
O61 C42 1.242 . S
O62 Sm40 2.681 . S
O62 Sm41 2.386 . S
O62 C49 1.271 . S
O63 Sm40 2.464 . S
O63 C49 1.251 . S
O64 Sm40 2.396 . S
O64 C50 1.252 . S
O65 Sm41 2.408 . S
O65 C50 1.272 . S
O66 Sm41 2.543 . S
O66 C51 1.261 . S
O67 Sm41 2.450 . S
O67 C51 1.242 . S
O68 Sm40 2.386 . S
O68 Sm41 2.681 . S
O68 C58 1.271 . S
O69 Sm41 2.464 . S
O69 C58 1.251 . S
O70 Sm41 2.396 . S
O70 C59 1.252 . S
O71 Sm40 2.408 . S
O71 C59 1.272 . S
H72 C44 0.930 . S
H73 C45 0.929 . S
H74 C47 0.930 . S
H75 C48 0.929 . S
H76 C53 0.930 . S
H77 C54 0.929 . S
H78 C56 0.930 . S
H79 C57 0.929 . S
Sm80 C82 2.846 . S
Sm80 O100 2.543 . S
Sm80 O101 2.450 . S
Sm80 O102 2.681 . S
Sm80 O103 2.464 . S
Sm80 O104 2.396 . S
Sm80 O108 2.386 . S
Sm80 O111 2.408 . S
Sm81 C91 2.846 . S
Sm81 O102 2.386 . S
Sm81 O105 2.408 . S
Sm81 O106 2.543 . S
Sm81 O107 2.450 . S
Sm81 O108 2.681 . S
Sm81 O109 2.464 . S
Sm81 O110 2.396 . S
C82 Sm80 2.846 . S
C82 C83 1.506 . S
C82 O100 1.261 . S
C82 O101 1.242 . S
C83 C82 1.506 . S
C83 C84 1.358 . S
C83 C88 1.382 . S
C84 C83 1.358 . S
C84 C85 1.385 . S
C84 H112 0.930 . S
C85 C84 1.385 . S
C85 C86 1.395 . S
C85 H113 0.929 . S
C86 C85 1.395 . S
C86 C87 1.335 . S
C87 C86 1.335 . S
C87 C88 1.398 . S
C87 H114 0.930 . S
C88 C83 1.382 . S
C88 C87 1.398 . S
C88 H115 0.929 . S
C89 O102 1.271 . S
C89 O103 1.251 . S
C90 O104 1.252 . S
C90 O105 1.272 . S
C91 Sm81 2.846 . S
C91 C92 1.506 . S
C91 O106 1.261 . S
C91 O107 1.242 . S
C92 C91 1.506 . S
C92 C93 1.358 . S
C92 C97 1.382 . S
C93 C92 1.358 . S
C93 C94 1.385 . S
C93 H116 0.930 . S
C94 C93 1.385 . S
C94 C95 1.395 . S
C94 H117 0.929 . S
C95 C94 1.395 . S
C95 C96 1.335 . S
C96 C95 1.335 . S
C96 C97 1.398 . S
C96 H118 0.930 . S
C97 C92 1.382 . S
C97 C96 1.398 . S
C97 H119 0.929 . S
C98 O108 1.271 . S
C98 O109 1.251 . S
C99 O110 1.252 . S
C99 O111 1.272 . S
O100 Sm80 2.543 . S
O100 C82 1.261 . S
O101 Sm80 2.450 . S
O101 C82 1.242 . S
O102 Sm80 2.681 . S
O102 Sm81 2.386 . S
O102 C89 1.271 . S
O103 Sm80 2.464 . S
O103 C89 1.251 . S
O104 Sm80 2.396 . S
O104 C90 1.252 . S
O105 Sm81 2.408 . S
O105 C90 1.272 . S
O106 Sm81 2.543 . S
O106 C91 1.261 . S
O107 Sm81 2.450 . S
O107 C91 1.242 . S
O108 Sm80 2.386 . S
O108 Sm81 2.681 . S
O108 C98 1.271 . S
O109 Sm81 2.464 . S
O109 C98 1.251 . S
O110 Sm81 2.396 . S
O110 C99 1.252 . S
O111 Sm80 2.408 . S
O111 C99 1.272 . S
H112 C84 0.930 . S
H113 C85 0.929 . S
H114 C87 0.930 . S
H115 C88 0.929 . S
H116 C93 0.930 . S
H117 C94 0.929 . S
H118 C96 0.930 . S
H119 C97 0.929 . S
Sm120 C122 2.846 . S
Sm120 O140 2.543 . S
Sm120 O141 2.450 . S
Sm120 O142 2.681 . S
Sm120 O143 2.464 . S
Sm120 O144 2.396 . S
Sm120 O148 2.386 . S
Sm120 O151 2.408 . S
Sm121 C131 2.846 . S
Sm121 O142 2.386 . S
Sm121 O145 2.408 . S
Sm121 O146 2.543 . S
Sm121 O147 2.450 . S
Sm121 O148 2.681 . S
Sm121 O149 2.464 . S
Sm121 O150 2.396 . S
C122 Sm120 2.846 . S
C122 C123 1.506 . S
C122 O140 1.261 . S
C122 O141 1.242 . S
C123 C122 1.506 . S
C123 C124 1.358 . S
C123 C128 1.382 . S
C124 C123 1.358 . S
C124 C125 1.385 . S
C124 H152 0.930 . S
C125 C124 1.385 . S
C125 C126 1.395 . S
C125 H153 0.929 . S
C126 C125 1.395 . S
C126 C127 1.335 . S
C127 C126 1.335 . S
C127 C128 1.398 . S
C127 H154 0.930 . S
C128 C123 1.382 . S
C128 C127 1.398 . S
C128 H155 0.929 . S
C129 O142 1.271 . S
C129 O143 1.251 . S
C130 O144 1.252 . S
C130 O145 1.272 . S
C131 Sm121 2.846 . S
C131 C132 1.506 . S
C131 O146 1.261 . S
C131 O147 1.242 . S
C132 C131 1.506 . S
C132 C133 1.358 . S
C132 C137 1.382 . S
C133 C132 1.358 . S
C133 C134 1.385 . S
C133 H156 0.930 . S
C134 C133 1.385 . S
C134 C135 1.395 . S
C134 H157 0.929 . S
C135 C134 1.395 . S
C135 C136 1.335 . S
C136 C135 1.335 . S
C136 C137 1.398 . S
C136 H158 0.930 . S
C137 C132 1.382 . S
C137 C136 1.398 . S
C137 H159 0.929 . S
C138 O148 1.271 . S
C138 O149 1.251 . S
C139 O150 1.252 . S
C139 O151 1.272 . S
O140 Sm120 2.543 . S
O140 C122 1.261 . S
O141 Sm120 2.450 . S
O141 C122 1.242 . S
O142 Sm120 2.681 . S
O142 Sm121 2.386 . S
O142 C129 1.271 . S
O143 Sm120 2.464 . S
O143 C129 1.251 . S
O144 Sm120 2.396 . S
O144 C130 1.252 . S
O145 Sm121 2.408 . S
O145 C130 1.272 . S
O146 Sm121 2.543 . S
O146 C131 1.261 . S
O147 Sm121 2.450 . S
O147 C131 1.242 . S
O148 Sm120 2.386 . S
O148 Sm121 2.681 . S
O148 C138 1.271 . S
O149 Sm121 2.464 . S
O149 C138 1.251 . S
O150 Sm121 2.396 . S
O150 C139 1.252 . S
O151 Sm120 2.408 . S
O151 C139 1.272 . S
H152 C124 0.930 . S
H153 C125 0.929 . S
H154 C127 0.930 . S
H155 C128 0.929 . S
H156 C133 0.930 . S
H157 C134 0.929 . S
H158 C136 0.930 . S
H159 C137 0.929 . S
Sm160 C162 2.846 . S
Sm160 O180 2.543 . S
Sm160 O181 2.450 . S
Sm160 O182 2.681 . S
Sm160 O183 2.464 . S
Sm160 O184 2.396 . S
Sm160 O188 2.386 . S
Sm160 O191 2.408 . S
Sm161 C171 2.846 . S
Sm161 O182 2.386 1_554 S
Sm161 O185 2.408 . S
Sm161 O186 2.543 . S
Sm161 O187 2.450 . S
Sm161 O188 2.681 1_554 S
Sm161 O189 2.464 1_554 S
Sm161 O190 2.396 1_554 S
C162 Sm160 2.846 . S
C162 C163 1.506 . S
C162 O180 1.261 . S
C162 O181 1.242 . S
C163 C162 1.506 . S
C163 C164 1.358 . S
C163 C168 1.382 . S
C164 C163 1.358 . S
C164 C165 1.385 . S
C164 H192 0.930 . S
C165 C164 1.385 . S
C165 C166 1.395 . S
C165 H193 0.929 . S
C166 C165 1.395 . S
C166 C167 1.335 . S
C167 C166 1.335 . S
C167 C168 1.398 . S
C167 H194 0.930 . S
C168 C163 1.382 . S
C168 C167 1.398 . S
C168 H195 0.929 . S
C169 O182 1.271 1_554 S
C169 O183 1.251 1_554 S
C170 O184 1.252 . S
C170 O185 1.272 1_556 S
C171 Sm161 2.846 . S
C171 C172 1.506 . S
C171 O186 1.261 . S
C171 O187 1.242 . S
C172 C171 1.506 . S
C172 C173 1.358 . S
C172 C177 1.382 . S
C173 C172 1.358 . S
C173 C174 1.385 . S
C173 H196 0.930 . S
C174 C173 1.385 . S
C174 C175 1.395 . S
C174 H197 0.929 . S
C175 C174 1.395 . S
C175 C176 1.335 . S
C176 C175 1.335 . S
C176 C177 1.398 . S
C176 H198 0.930 . S
C177 C172 1.382 . S
C177 C176 1.398 . S
C177 H199 0.929 . S
C178 O188 1.271 . S
C178 O189 1.251 . S
C179 O190 1.252 . S
C179 O191 1.272 . S
O180 Sm160 2.543 . S
O180 C162 1.261 . S
O181 Sm160 2.450 . S
O181 C162 1.242 . S
O182 Sm160 2.681 . S
O182 Sm161 2.386 1_556 S
O182 C169 1.271 1_556 S
O183 Sm160 2.464 . S
O183 C169 1.251 1_556 S
O184 Sm160 2.396 . S
O184 C170 1.252 . S
O185 Sm161 2.408 . S
O185 C170 1.272 1_554 S
O186 Sm161 2.543 . S
O186 C171 1.261 . S
O187 Sm161 2.450 . S
O187 C171 1.242 . S
O188 Sm160 2.386 . S
O188 Sm161 2.681 1_556 S
O188 C178 1.271 . S
O189 Sm161 2.464 1_556 S
O189 C178 1.251 . S
O190 Sm161 2.396 1_556 S
O190 C179 1.252 . S
O191 Sm160 2.408 . S
O191 C179 1.272 . S
H192 C164 0.930 . S
H193 C165 0.929 . S
H194 C167 0.930 . S
H195 C168 0.929 . S
H196 C173 0.930 . S
H197 C174 0.929 . S
H198 C176 0.930 . S
H199 C177 0.929 . S
Sm200 C202 2.846 . S
Sm200 O220 2.543 . S
Sm200 O221 2.450 . S
Sm200 O222 2.681 . S
Sm200 O223 2.464 . S
Sm200 O224 2.396 . S
Sm200 O228 2.386 . S
Sm200 O231 2.408 . S
Sm201 C211 2.846 . S
Sm201 O222 2.386 . S
Sm201 O225 2.408 . S
Sm201 O226 2.543 . S
Sm201 O227 2.450 . S
Sm201 O228 2.681 . S
Sm201 O229 2.464 . S
Sm201 O230 2.396 . S
C202 Sm200 2.846 . S
C202 C203 1.506 . S
C202 O220 1.261 . S
C202 O221 1.242 . S
C203 C202 1.506 . S
C203 C204 1.358 . S
C203 C208 1.382 . S
C204 C203 1.358 . S
C204 C205 1.385 . S
C204 H232 0.930 . S
C205 C204 1.385 . S
C205 C206 1.395 . S
C205 H233 0.929 . S
C206 C205 1.395 . S
C206 C207 1.335 . S
C207 C206 1.335 . S
C207 C208 1.398 . S
C207 H234 0.930 . S
C208 C203 1.382 . S
C208 C207 1.398 . S
C208 H235 0.929 . S
C209 O222 1.271 . S
C209 O223 1.251 . S
C210 O224 1.252 . S
C210 O225 1.272 . S
C211 Sm201 2.846 . S
C211 C212 1.506 . S
C211 O226 1.261 . S
C211 O227 1.242 . S
C212 C211 1.506 . S
C212 C213 1.358 . S
C212 C217 1.382 . S
C213 C212 1.358 . S
C213 C214 1.385 . S
C213 H236 0.930 . S
C214 C213 1.385 . S
C214 C215 1.395 . S
C214 H237 0.929 . S
C215 C214 1.395 . S
C215 C216 1.335 . S
C216 C215 1.335 . S
C216 C217 1.398 . S
C216 H238 0.930 . S
C217 C212 1.382 . S
C217 C216 1.398 . S
C217 H239 0.929 . S
C218 O228 1.271 . S
C218 O229 1.251 . S
C219 O230 1.252 . S
C219 O231 1.272 . S
O220 Sm200 2.543 . S
O220 C202 1.261 . S
O221 Sm200 2.450 . S
O221 C202 1.242 . S
O222 Sm200 2.681 . S
O222 Sm201 2.386 . S
O222 C209 1.271 . S
O223 Sm200 2.464 . S
O223 C209 1.251 . S
O224 Sm200 2.396 . S
O224 C210 1.252 . S
O225 Sm201 2.408 . S
O225 C210 1.272 . S
O226 Sm201 2.543 . S
O226 C211 1.261 . S
O227 Sm201 2.450 . S
O227 C211 1.242 . S
O228 Sm200 2.386 . S
O228 Sm201 2.681 . S
O228 C218 1.271 . S
O229 Sm201 2.464 . S
O229 C218 1.251 . S
O230 Sm201 2.396 . S
O230 C219 1.252 . S
O231 Sm200 2.408 . S
O231 C219 1.272 . S
H232 C204 0.930 . S
H233 C205 0.929 . S
H234 C207 0.930 . S
H235 C208 0.929 . S
H236 C213 0.930 . S
H237 C214 0.929 . S
H238 C216 0.930 . S
H239 C217 0.929 . S
Sm240 C242 2.846 . S
Sm240 O260 2.543 . S
Sm240 O261 2.450 . S
Sm240 O262 2.681 . S
Sm240 O263 2.464 . S
Sm240 O264 2.396 . S
Sm240 O268 2.386 . S
Sm240 O271 2.408 . S
Sm241 C251 2.846 . S
Sm241 O262 2.386 . S
Sm241 O265 2.408 . S
Sm241 O266 2.543 . S
Sm241 O267 2.450 . S
Sm241 O268 2.681 . S
Sm241 O269 2.464 . S
Sm241 O270 2.396 . S
C242 Sm240 2.846 . S
C242 C243 1.506 . S
C242 O260 1.261 . S
C242 O261 1.242 . S
C243 C242 1.506 . S
C243 C244 1.358 . S
C243 C248 1.382 . S
C244 C243 1.358 . S
C244 C245 1.385 . S
C244 H272 0.930 . S
C245 C244 1.385 . S
C245 C246 1.395 . S
C245 H273 0.929 . S
C246 C245 1.395 . S
C246 C247 1.335 . S
C247 C246 1.335 . S
C247 C248 1.398 . S
C247 H274 0.930 . S
C248 C243 1.382 . S
C248 C247 1.398 . S
C248 H275 0.929 . S
C249 O262 1.271 . S
C249 O263 1.251 . S
C250 O264 1.252 . S
C250 O265 1.272 . S
C251 Sm241 2.846 . S
C251 C252 1.506 . S
C251 O266 1.261 . S
C251 O267 1.242 . S
C252 C251 1.506 . S
C252 C253 1.358 . S
C252 C257 1.382 . S
C253 C252 1.358 . S
C253 C254 1.385 . S
C253 H276 0.930 . S
C254 C253 1.385 . S
C254 C255 1.395 . S
C254 H277 0.929 . S
C255 C254 1.395 . S
C255 C256 1.335 . S
C256 C255 1.335 . S
C256 C257 1.398 . S
C256 H278 0.930 . S
C257 C252 1.382 . S
C257 C256 1.398 . S
C257 H279 0.929 . S
C258 O268 1.271 . S
C258 O269 1.251 . S
C259 O270 1.252 . S
C259 O271 1.272 . S
O260 Sm240 2.543 . S
O260 C242 1.261 . S
O261 Sm240 2.450 . S
O261 C242 1.242 . S
O262 Sm240 2.681 . S
O262 Sm241 2.386 . S
O262 C249 1.271 . S
O263 Sm240 2.464 . S
O263 C249 1.251 . S
O264 Sm240 2.396 . S
O264 C250 1.252 . S
O265 Sm241 2.408 . S
O265 C250 1.272 . S
O266 Sm241 2.543 . S
O266 C251 1.261 . S
O267 Sm241 2.450 . S
O267 C251 1.242 . S
O268 Sm240 2.386 . S
O268 Sm241 2.681 . S
O268 C258 1.271 . S
O269 Sm241 2.464 . S
O269 C258 1.251 . S
O270 Sm241 2.396 . S
O270 C259 1.252 . S
O271 Sm240 2.408 . S
O271 C259 1.272 . S
H272 C244 0.930 . S
H273 C245 0.929 . S
H274 C247 0.930 . S
H275 C248 0.929 . S
H276 C253 0.930 . S
H277 C254 0.929 . S
H278 C256 0.930 . S
H279 C257 0.929 . S
Sm280 C282 2.846 . S
Sm280 O300 2.543 . S
Sm280 O301 2.450 . S
Sm280 O302 2.681 . S
Sm280 O303 2.464 . S
Sm280 O304 2.396 . S
Sm280 O308 2.386 . S
Sm280 O311 2.408 . S
Sm281 C291 2.846 . S
Sm281 O302 2.386 . S
Sm281 O305 2.408 . S
Sm281 O306 2.543 . S
Sm281 O307 2.450 . S
Sm281 O308 2.681 . S
Sm281 O309 2.464 . S
Sm281 O310 2.396 . S
C282 Sm280 2.846 . S
C282 C283 1.506 . S
C282 O300 1.261 . S
C282 O301 1.242 . S
C283 C282 1.506 . S
C283 C284 1.358 . S
C283 C288 1.382 . S
C284 C283 1.358 . S
C284 C285 1.385 . S
C284 H312 0.930 . S
C285 C284 1.385 . S
C285 C286 1.395 . S
C285 H313 0.929 . S
C286 C285 1.395 . S
C286 C287 1.335 . S
C287 C286 1.335 . S
C287 C288 1.398 . S
C287 H314 0.930 . S
C288 C283 1.382 . S
C288 C287 1.398 . S
C288 H315 0.929 . S
C289 O302 1.271 . S
C289 O303 1.251 . S
C290 O304 1.252 . S
C290 O305 1.272 . S
C291 Sm281 2.846 . S
C291 C292 1.506 . S
C291 O306 1.261 . S
C291 O307 1.242 . S
C292 C291 1.506 . S
C292 C293 1.358 . S
C292 C297 1.382 . S
C293 C292 1.358 . S
C293 C294 1.385 . S
C293 H316 0.930 . S
C294 C293 1.385 . S
C294 C295 1.395 . S
C294 H317 0.929 . S
C295 C294 1.395 . S
C295 C296 1.335 . S
C296 C295 1.335 . S
C296 C297 1.398 . S
C296 H318 0.930 . S
C297 C292 1.382 . S
C297 C296 1.398 . S
C297 H319 0.929 . S
C298 O308 1.271 . S
C298 O309 1.251 . S
C299 O310 1.252 . S
C299 O311 1.272 . S
O300 Sm280 2.543 . S
O300 C282 1.261 . S
O301 Sm280 2.450 . S
O301 C282 1.242 . S
O302 Sm280 2.681 . S
O302 Sm281 2.386 . S
O302 C289 1.271 . S
O303 Sm280 2.464 . S
O303 C289 1.251 . S
O304 Sm280 2.396 . S
O304 C290 1.252 . S
O305 Sm281 2.408 . S
O305 C290 1.272 . S
O306 Sm281 2.543 . S
O306 C291 1.261 . S
O307 Sm281 2.450 . S
O307 C291 1.242 . S
O308 Sm280 2.386 . S
O308 Sm281 2.681 . S
O308 C298 1.271 . S
O309 Sm281 2.464 . S
O309 C298 1.251 . S
O310 Sm281 2.396 . S
O310 C299 1.252 . S
O311 Sm280 2.408 . S
O311 C299 1.272 . S
H312 C284 0.930 . S
H313 C285 0.929 . S
H314 C287 0.930 . S
H315 C288 0.929 . S
H316 C293 0.930 . S
H317 C294 0.929 . S
H318 C296 0.930 . S
H319 C297 0.929 . S
Sm320 C322 2.846 . S
Sm320 O340 2.543 . S
Sm320 O341 2.450 . S
Sm320 O342 2.681 . S
Sm320 O343 2.464 . S
Sm320 O344 2.396 . S
Sm320 O348 2.386 . S
Sm320 O351 2.408 . S
Sm321 C331 2.846 . S
Sm321 O342 2.386 . S
Sm321 O345 2.408 . S
Sm321 O346 2.543 . S
Sm321 O347 2.450 . S
Sm321 O348 2.681 . S
Sm321 O349 2.464 . S
Sm321 O350 2.396 . S
C322 Sm320 2.846 . S
C322 C323 1.506 . S
C322 O340 1.261 . S
C322 O341 1.242 . S
C323 C322 1.506 . S
C323 C324 1.358 . S
C323 C328 1.382 . S
C324 C323 1.358 . S
C324 C325 1.385 . S
C324 H352 0.930 . S
C325 C324 1.385 . S
C325 C326 1.395 . S
C325 H353 0.929 . S
C326 C325 1.395 . S
C326 C327 1.335 . S
C327 C326 1.335 . S
C327 C328 1.398 . S
C327 H354 0.930 . S
C328 C323 1.382 . S
C328 C327 1.398 . S
C328 H355 0.929 . S
C329 O342 1.271 . S
C329 O343 1.251 . S
C330 O344 1.252 . S
C330 O345 1.272 . S
C331 Sm321 2.846 . S
C331 C332 1.506 . S
C331 O346 1.261 . S
C331 O347 1.242 . S
C332 C331 1.506 . S
C332 C333 1.358 . S
C332 C337 1.382 . S
C333 C332 1.358 . S
C333 C334 1.385 . S
C333 H356 0.930 . S
C334 C333 1.385 . S
C334 C335 1.395 . S
C334 H357 0.929 . S
C335 C334 1.395 . S
C335 C336 1.335 . S
C336 C335 1.335 . S
C336 C337 1.398 . S
C336 H358 0.930 . S
C337 C332 1.382 . S
C337 C336 1.398 . S
C337 H359 0.929 . S
C338 O348 1.271 . S
C338 O349 1.251 . S
C339 O350 1.252 . S
C339 O351 1.272 . S
O340 Sm320 2.543 . S
O340 C322 1.261 . S
O341 Sm320 2.450 . S
O341 C322 1.242 . S
O342 Sm320 2.681 . S
O342 Sm321 2.386 . S
O342 C329 1.271 . S
O343 Sm320 2.464 . S
O343 C329 1.251 . S
O344 Sm320 2.396 . S
O344 C330 1.252 . S
O345 Sm321 2.408 . S
O345 C330 1.272 . S
O346 Sm321 2.543 . S
O346 C331 1.261 . S
O347 Sm321 2.450 . S
O347 C331 1.242 . S
O348 Sm320 2.386 . S
O348 Sm321 2.681 . S
O348 C338 1.271 . S
O349 Sm321 2.464 . S
O349 C338 1.251 . S
O350 Sm321 2.396 . S
O350 C339 1.252 . S
O351 Sm320 2.408 . S
O351 C339 1.272 . S
H352 C324 0.930 . S
H353 C325 0.929 . S
H354 C327 0.930 . S
H355 C328 0.929 . S
H356 C333 0.930 . S
H357 C334 0.929 . S
H358 C336 0.930 . S
H359 C337 0.929 . S
Sm360 C362 2.846 . S
Sm360 O380 2.543 . S
Sm360 O381 2.450 . S
Sm360 O382 2.681 . S
Sm360 O383 2.464 . S
Sm360 O384 2.396 . S
Sm360 O388 2.386 . S
Sm360 O391 2.408 . S
Sm361 C371 2.846 . S
Sm361 O382 2.386 . S
Sm361 O385 2.408 . S
Sm361 O386 2.543 . S
Sm361 O387 2.450 . S
Sm361 O388 2.681 . S
Sm361 O389 2.464 . S
Sm361 O390 2.396 . S
C362 Sm360 2.846 . S
C362 C363 1.506 . S
C362 O380 1.261 . S
C362 O381 1.242 . S
C363 C362 1.506 . S
C363 C364 1.358 . S
C363 C368 1.382 . S
C364 C363 1.358 . S
C364 C365 1.385 . S
C364 H392 0.930 . S
C365 C364 1.385 . S
C365 C366 1.395 . S
C365 H393 0.929 . S
C366 C365 1.395 . S
C366 C367 1.335 . S
C367 C366 1.335 . S
C367 C368 1.398 . S
C367 H394 0.930 . S
C368 C363 1.382 . S
C368 C367 1.398 . S
C368 H395 0.929 . S
C369 O382 1.271 . S
C369 O383 1.251 . S
C370 O384 1.252 . S
C370 O385 1.272 . S
C371 Sm361 2.846 . S
C371 C372 1.506 . S
C371 O386 1.261 . S
C371 O387 1.242 . S
C372 C371 1.506 . S
C372 C373 1.358 . S
C372 C377 1.382 . S
C373 C372 1.358 . S
C373 C374 1.385 . S
C373 H396 0.930 . S
C374 C373 1.385 . S
C374 C375 1.395 . S
C374 H397 0.929 . S
C375 C374 1.395 . S
C375 C376 1.335 . S
C376 C375 1.335 . S
C376 C377 1.398 . S
C376 H398 0.930 . S
C377 C372 1.382 . S
C377 C376 1.398 . S
C377 H399 0.929 . S
C378 O388 1.271 . S
C378 O389 1.251 . S
C379 O390 1.252 . S
C379 O391 1.272 . S
O380 Sm360 2.543 . S
O380 C362 1.261 . S
O381 Sm360 2.450 . S
O381 C362 1.242 . S
O382 Sm360 2.681 . S
O382 Sm361 2.386 . S
O382 C369 1.271 . S
O383 Sm360 2.464 . S
O383 C369 1.251 . S
O384 Sm360 2.396 . S
O384 C370 1.252 . S
O385 Sm361 2.408 . S
O385 C370 1.272 . S
O386 Sm361 2.543 . S
O386 C371 1.261 . S
O387 Sm361 2.450 . S
O387 C371 1.242 . S
O388 Sm360 2.386 . S
O388 Sm361 2.681 . S
O388 C378 1.271 . S
O389 Sm361 2.464 . S
O389 C378 1.251 . S
O390 Sm361 2.396 . S
O390 C379 1.252 . S
O391 Sm360 2.408 . S
O391 C379 1.272 . S
H392 C364 0.930 . S
H393 C365 0.929 . S
H394 C367 0.930 . S
H395 C368 0.929 . S
H396 C373 0.930 . S
H397 C374 0.929 . S
H398 C376 0.930 . S
H399 C377 0.929 . S
Sm400 C402 2.846 . S
Sm400 O420 2.543 . S
Sm400 O421 2.450 . S
Sm400 O422 2.681 1_556 S
Sm400 O423 2.464 1_556 S
Sm400 O424 2.396 1_556 S
Sm400 O428 2.386 1_556 S
Sm400 O431 2.408 . S
Sm401 C411 2.846 . S
Sm401 O422 2.386 . S
Sm401 O425 2.408 . S
Sm401 O426 2.543 . S
Sm401 O427 2.450 . S
Sm401 O428 2.681 . S
Sm401 O429 2.464 . S
Sm401 O430 2.396 . S
C402 Sm400 2.846 . S
C402 C403 1.506 . S
C402 O420 1.261 . S
C402 O421 1.242 . S
C403 C402 1.506 . S
C403 C404 1.358 . S
C403 C408 1.382 . S
C404 C403 1.358 . S
C404 C405 1.385 . S
C404 H432 0.930 . S
C405 C404 1.385 . S
C405 C406 1.395 . S
C405 H433 0.929 . S
C406 C405 1.395 . S
C406 C407 1.335 . S
C407 C406 1.335 . S
C407 C408 1.398 . S
C407 H434 0.930 . S
C408 C403 1.382 . S
C408 C407 1.398 . S
C408 H435 0.929 . S
C409 O422 1.271 . S
C409 O423 1.251 . S
C410 O424 1.252 . S
C410 O425 1.272 . S
C411 Sm401 2.846 . S
C411 C412 1.506 . S
C411 O426 1.261 . S
C411 O427 1.242 . S
C412 C411 1.506 . S
C412 C413 1.358 . S
C412 C417 1.382 . S
C413 C412 1.358 . S
C413 C414 1.385 . S
C413 H436 0.930 . S
C414 C413 1.385 . S
C414 C415 1.395 . S
C414 H437 0.929 . S
C415 C414 1.395 . S
C415 C416 1.335 . S
C416 C415 1.335 . S
C416 C417 1.398 . S
C416 H438 0.930 . S
C417 C412 1.382 . S
C417 C416 1.398 . S
C417 H439 0.929 . S
C418 O428 1.271 1_556 S
C418 O429 1.251 1_556 S
C419 O430 1.252 . S
C419 O431 1.272 1_554 S
O420 Sm400 2.543 . S
O420 C402 1.261 . S
O421 Sm400 2.450 . S
O421 C402 1.242 . S
O422 Sm400 2.681 1_554 S
O422 Sm401 2.386 . S
O422 C409 1.271 . S
O423 Sm400 2.464 1_554 S
O423 C409 1.251 . S
O424 Sm400 2.396 1_554 S
O424 C410 1.252 . S
O425 Sm401 2.408 . S
O425 C410 1.272 . S
O426 Sm401 2.543 . S
O426 C411 1.261 . S
O427 Sm401 2.450 . S
O427 C411 1.242 . S
O428 Sm400 2.386 1_554 S
O428 Sm401 2.681 . S
O428 C418 1.271 1_554 S
O429 Sm401 2.464 . S
O429 C418 1.251 1_554 S
O430 Sm401 2.396 . S
O430 C419 1.252 . S
O431 Sm400 2.408 . S
O431 C419 1.272 1_556 S
H432 C404 0.930 . S
H433 C405 0.929 . S
H434 C407 0.930 . S
H435 C408 0.929 . S
H436 C413 0.930 . S
H437 C414 0.929 . S
H438 C416 0.930 . S
H439 C417 0.929 . S
Sm440 C442 2.846 . S
Sm440 O460 2.543 . S
Sm440 O461 2.450 . S
Sm440 O462 2.681 . S
Sm440 O463 2.464 . S
Sm440 O464 2.396 . S
Sm440 O468 2.386 . S
Sm440 O471 2.408 . S
Sm441 C451 2.846 . S
Sm441 O462 2.386 . S
Sm441 O465 2.408 . S
Sm441 O466 2.543 . S
Sm441 O467 2.450 . S
Sm441 O468 2.681 . S
Sm441 O469 2.464 . S
Sm441 O470 2.396 . S
C442 Sm440 2.846 . S
C442 C443 1.506 . S
C442 O460 1.261 . S
C442 O461 1.242 . S
C443 C442 1.506 . S
C443 C444 1.358 . S
C443 C448 1.382 . S
C444 C443 1.358 . S
C444 C445 1.385 . S
C444 H472 0.930 . S
C445 C444 1.385 . S
C445 C446 1.395 . S
C445 H473 0.929 . S
C446 C445 1.395 . S
C446 C447 1.335 . S
C447 C446 1.335 . S
C447 C448 1.398 . S
C447 H474 0.930 . S
C448 C443 1.382 . S
C448 C447 1.398 . S
C448 H475 0.929 . S
C449 O462 1.271 . S
C449 O463 1.251 . S
C450 O464 1.252 . S
C450 O465 1.272 . S
C451 Sm441 2.846 . S
C451 C452 1.506 . S
C451 O466 1.261 . S
C451 O467 1.242 . S
C452 C451 1.506 . S
C452 C453 1.358 . S
C452 C457 1.382 . S
C453 C452 1.358 . S
C453 C454 1.385 . S
C453 H476 0.930 . S
C454 C453 1.385 . S
C454 C455 1.395 . S
C454 H477 0.929 . S
C455 C454 1.395 . S
C455 C456 1.335 . S
C456 C455 1.335 . S
C456 C457 1.398 . S
C456 H478 0.930 . S
C457 C452 1.382 . S
C457 C456 1.398 . S
C457 H479 0.929 . S
C458 O468 1.271 . S
C458 O469 1.251 . S
C459 O470 1.252 . S
C459 O471 1.272 . S
O460 Sm440 2.543 . S
O460 C442 1.261 . S
O461 Sm440 2.450 . S
O461 C442 1.242 . S
O462 Sm440 2.681 . S
O462 Sm441 2.386 . S
O462 C449 1.271 . S
O463 Sm440 2.464 . S
O463 C449 1.251 . S
O464 Sm440 2.396 . S
O464 C450 1.252 . S
O465 Sm441 2.408 . S
O465 C450 1.272 . S
O466 Sm441 2.543 . S
O466 C451 1.261 . S
O467 Sm441 2.450 . S
O467 C451 1.242 . S
O468 Sm440 2.386 . S
O468 Sm441 2.681 . S
O468 C458 1.271 . S
O469 Sm441 2.464 . S
O469 C458 1.251 . S
O470 Sm441 2.396 . S
O470 C459 1.252 . S
O471 Sm440 2.408 . S
O471 C459 1.272 . S
H472 C444 0.930 . S
H473 C445 0.929 . S
H474 C447 0.930 . S
H475 C448 0.929 . S
H476 C453 0.930 . S
H477 C454 0.929 . S
H478 C456 0.930 . S
H479 C457 0.929 . S
Sm480 C482 2.846 . S
Sm480 O500 2.543 . S
Sm480 O501 2.450 . S
Sm480 O502 2.681 . S
Sm480 O503 2.464 . S
Sm480 O504 2.396 . S
Sm480 O508 2.386 . S
Sm480 O511 2.408 . S
Sm481 C491 2.846 . S
Sm481 O502 2.386 . S
Sm481 O505 2.408 . S
Sm481 O506 2.543 . S
Sm481 O507 2.450 . S
Sm481 O508 2.681 . S
Sm481 O509 2.464 . S
Sm481 O510 2.396 . S
C482 Sm480 2.846 . S
C482 C483 1.506 . S
C482 O500 1.261 . S
C482 O501 1.242 . S
C483 C482 1.506 . S
C483 C484 1.358 . S
C483 C488 1.382 . S
C484 C483 1.358 . S
C484 C485 1.385 . S
C484 H512 0.930 . S
C485 C484 1.385 . S
C485 C486 1.395 . S
C485 H513 0.929 . S
C486 C485 1.395 . S
C486 C487 1.335 . S
C487 C486 1.335 . S
C487 C488 1.398 . S
C487 H514 0.930 . S
C488 C483 1.382 . S
C488 C487 1.398 . S
C488 H515 0.929 . S
C489 O502 1.271 . S
C489 O503 1.251 . S
C490 O504 1.252 . S
C490 O505 1.272 . S
C491 Sm481 2.846 . S
C491 C492 1.506 . S
C491 O506 1.261 . S
C491 O507 1.242 . S
C492 C491 1.506 . S
C492 C493 1.358 . S
C492 C497 1.382 . S
C493 C492 1.358 . S
C493 C494 1.385 . S
C493 H516 0.930 . S
C494 C493 1.385 . S
C494 C495 1.395 . S
C494 H517 0.929 . S
C495 C494 1.395 . S
C495 C496 1.335 . S
C496 C495 1.335 . S
C496 C497 1.398 . S
C496 H518 0.930 . S
C497 C492 1.382 . S
C497 C496 1.398 . S
C497 H519 0.929 . S
C498 O508 1.271 . S
C498 O509 1.251 . S
C499 O510 1.252 . S
C499 O511 1.272 . S
O500 Sm480 2.543 . S
O500 C482 1.261 . S
O501 Sm480 2.450 . S
O501 C482 1.242 . S
O502 Sm480 2.681 . S
O502 Sm481 2.386 . S
O502 C489 1.271 . S
O503 Sm480 2.464 . S
O503 C489 1.251 . S
O504 Sm480 2.396 . S
O504 C490 1.252 . S
O505 Sm481 2.408 . S
O505 C490 1.272 . S
O506 Sm481 2.543 . S
O506 C491 1.261 . S
O507 Sm481 2.450 . S
O507 C491 1.242 . S
O508 Sm480 2.386 . S
O508 Sm481 2.681 . S
O508 C498 1.271 . S
O509 Sm481 2.464 . S
O509 C498 1.251 . S
O510 Sm481 2.396 . S
O510 C499 1.252 . S
O511 Sm480 2.408 . S
O511 C499 1.272 . S
H512 C484 0.930 . S
H513 C485 0.929 . S
H514 C487 0.930 . S
H515 C488 0.929 . S
H516 C493 0.930 . S
H517 C494 0.929 . S
H518 C496 0.930 . S
H519 C497 0.929 . S
Sm520 C522 2.846 . S
Sm520 O540 2.543 . S
Sm520 O541 2.450 . S
Sm520 O542 2.681 . S
Sm520 O543 2.464 . S
Sm520 O544 2.396 . S
Sm520 O548 2.386 . S
Sm520 O551 2.408 . S
Sm521 C531 2.846 . S
Sm521 O542 2.386 . S
Sm521 O545 2.408 . S
Sm521 O546 2.543 . S
Sm521 O547 2.450 . S
Sm521 O548 2.681 . S
Sm521 O549 2.464 . S
Sm521 O550 2.396 . S
C522 Sm520 2.846 . S
C522 C523 1.506 . S
C522 O540 1.261 . S
C522 O541 1.242 . S
C523 C522 1.506 . S
C523 C524 1.358 . S
C523 C528 1.382 . S
C524 C523 1.358 . S
C524 C525 1.385 . S
C524 H552 0.930 . S
C525 C524 1.385 . S
C525 C526 1.395 . S
C525 H553 0.929 . S
C526 C525 1.395 . S
C526 C527 1.335 . S
C527 C526 1.335 . S
C527 C528 1.398 . S
C527 H554 0.930 . S
C528 C523 1.382 . S
C528 C527 1.398 . S
C528 H555 0.929 . S
C529 O542 1.271 . S
C529 O543 1.251 . S
C530 O544 1.252 . S
C530 O545 1.272 . S
C531 Sm521 2.846 . S
C531 C532 1.506 . S
C531 O546 1.261 . S
C531 O547 1.242 . S
C532 C531 1.506 . S
C532 C533 1.358 . S
C532 C537 1.382 . S
C533 C532 1.358 . S
C533 C534 1.385 . S
C533 H556 0.930 . S
C534 C533 1.385 . S
C534 C535 1.395 . S
C534 H557 0.929 . S
C535 C534 1.395 . S
C535 C536 1.335 . S
C536 C535 1.335 . S
C536 C537 1.398 . S
C536 H558 0.930 . S
C537 C532 1.382 . S
C537 C536 1.398 . S
C537 H559 0.929 . S
C538 O548 1.271 . S
C538 O549 1.251 . S
C539 O550 1.252 . S
C539 O551 1.272 . S
O540 Sm520 2.543 . S
O540 C522 1.261 . S
O541 Sm520 2.450 . S
O541 C522 1.242 . S
O542 Sm520 2.681 . S
O542 Sm521 2.386 . S
O542 C529 1.271 . S
O543 Sm520 2.464 . S
O543 C529 1.251 . S
O544 Sm520 2.396 . S
O544 C530 1.252 . S
O545 Sm521 2.408 . S
O545 C530 1.272 . S
O546 Sm521 2.543 . S
O546 C531 1.261 . S
O547 Sm521 2.450 . S
O547 C531 1.242 . S
O548 Sm520 2.386 . S
O548 Sm521 2.681 . S
O548 C538 1.271 . S
O549 Sm521 2.464 . S
O549 C538 1.251 . S
O550 Sm521 2.396 . S
O550 C539 1.252 . S
O551 Sm520 2.408 . S
O551 C539 1.272 . S
H552 C524 0.930 . S
H553 C525 0.929 . S
H554 C527 0.930 . S
H555 C528 0.929 . S
H556 C533 0.930 . S
H557 C534 0.929 . S
H558 C536 0.930 . S
H559 C537 0.929 . S
Sm560 C562 2.846 . S
Sm560 O580 2.543 . S
Sm560 O581 2.450 . S
Sm560 O582 2.681 . S
Sm560 O583 2.464 . S
Sm560 O584 2.396 . S
Sm560 O588 2.386 . S
Sm560 O591 2.408 . S
Sm561 C571 2.846 . S
Sm561 O582 2.386 1_554 S
Sm561 O585 2.408 . S
Sm561 O586 2.543 . S
Sm561 O587 2.450 . S
Sm561 O588 2.681 1_554 S
Sm561 O589 2.464 1_554 S
Sm561 O590 2.396 1_554 S
C562 Sm560 2.846 . S
C562 C563 1.506 . S
C562 O580 1.261 . S
C562 O581 1.242 . S
C563 C562 1.506 . S
C563 C564 1.358 . S
C563 C568 1.382 . S
C564 C563 1.358 . S
C564 C565 1.385 . S
C564 H592 0.930 . S
C565 C564 1.385 . S
C565 C566 1.395 . S
C565 H593 0.929 . S
C566 C565 1.395 . S
C566 C567 1.335 . S
C567 C566 1.335 . S
C567 C568 1.398 . S
C567 H594 0.930 . S
C568 C563 1.382 . S
C568 C567 1.398 . S
C568 H595 0.929 . S
C569 O582 1.271 1_554 S
C569 O583 1.251 1_554 S
C570 O584 1.252 . S
C570 O585 1.272 1_556 S
C571 Sm561 2.846 . S
C571 C572 1.506 . S
C571 O586 1.261 . S
C571 O587 1.242 . S
C572 C571 1.506 . S
C572 C573 1.358 . S
C572 C577 1.382 . S
C573 C572 1.358 . S
C573 C574 1.385 . S
C573 H596 0.930 . S
C574 C573 1.385 . S
C574 C575 1.395 . S
C574 H597 0.929 . S
C575 C574 1.395 . S
C575 C576 1.335 . S
C576 C575 1.335 . S
C576 C577 1.398 . S
C576 H598 0.930 . S
C577 C572 1.382 . S
C577 C576 1.398 . S
C577 H599 0.929 . S
C578 O588 1.271 . S
C578 O589 1.251 . S
C579 O590 1.252 . S
C579 O591 1.272 . S
O580 Sm560 2.543 . S
O580 C562 1.261 . S
O581 Sm560 2.450 . S
O581 C562 1.242 . S
O582 Sm560 2.681 . S
O582 Sm561 2.386 1_556 S
O582 C569 1.271 1_556 S
O583 Sm560 2.464 . S
O583 C569 1.251 1_556 S
O584 Sm560 2.396 . S
O584 C570 1.252 . S
O585 Sm561 2.408 . S
O585 C570 1.272 1_554 S
O586 Sm561 2.543 . S
O586 C571 1.261 . S
O587 Sm561 2.450 . S
O587 C571 1.242 . S
O588 Sm560 2.386 . S
O588 Sm561 2.681 1_556 S
O588 C578 1.271 . S
O589 Sm561 2.464 1_556 S
O589 C578 1.251 . S
O590 Sm561 2.396 1_556 S
O590 C579 1.252 . S
O591 Sm560 2.408 . S
O591 C579 1.272 . S
H592 C564 0.930 . S
H593 C565 0.929 . S
H594 C567 0.930 . S
H595 C568 0.929 . S
H596 C573 0.930 . S
H597 C574 0.929 . S
H598 C576 0.930 . S
H599 C577 0.929 . S
Sm600 C602 2.846 . S
Sm600 O620 2.543 . S
Sm600 O621 2.450 . S
Sm600 O622 2.681 . S
Sm600 O623 2.464 . S
Sm600 O624 2.396 . S
Sm600 O628 2.386 . S
Sm600 O631 2.408 . S
Sm601 C611 2.846 . S
Sm601 O622 2.386 . S
Sm601 O625 2.408 . S
Sm601 O626 2.543 . S
Sm601 O627 2.450 . S
Sm601 O628 2.681 . S
Sm601 O629 2.464 . S
Sm601 O630 2.396 . S
C602 Sm600 2.846 . S
C602 C603 1.506 . S
C602 O620 1.261 . S
C602 O621 1.242 . S
C603 C602 1.506 . S
C603 C604 1.358 . S
C603 C608 1.382 . S
C604 C603 1.358 . S
C604 C605 1.385 . S
C604 H632 0.930 . S
C605 C604 1.385 . S
C605 C606 1.395 . S
C605 H633 0.929 . S
C606 C605 1.395 . S
C606 C607 1.335 . S
C607 C606 1.335 . S
C607 C608 1.398 . S
C607 H634 0.930 . S
C608 C603 1.382 . S
C608 C607 1.398 . S
C608 H635 0.929 . S
C609 O622 1.271 . S
C609 O623 1.251 . S
C610 O624 1.252 . S
C610 O625 1.272 . S
C611 Sm601 2.846 . S
C611 C612 1.506 . S
C611 O626 1.261 . S
C611 O627 1.242 . S
C612 C611 1.506 . S
C612 C613 1.358 . S
C612 C617 1.382 . S
C613 C612 1.358 . S
C613 C614 1.385 . S
C613 H636 0.930 . S
C614 C613 1.385 . S
C614 C615 1.395 . S
C614 H637 0.929 . S
C615 C614 1.395 . S
C615 C616 1.335 . S
C616 C615 1.335 . S
C616 C617 1.398 . S
C616 H638 0.930 . S
C617 C612 1.382 . S
C617 C616 1.398 . S
C617 H639 0.929 . S
C618 O628 1.271 . S
C618 O629 1.251 . S
C619 O630 1.252 . S
C619 O631 1.272 . S
O620 Sm600 2.543 . S
O620 C602 1.261 . S
O621 Sm600 2.450 . S
O621 C602 1.242 . S
O622 Sm600 2.681 . S
O622 Sm601 2.386 . S
O622 C609 1.271 . S
O623 Sm600 2.464 . S
O623 C609 1.251 . S
O624 Sm600 2.396 . S
O624 C610 1.252 . S
O625 Sm601 2.408 . S
O625 C610 1.272 . S
O626 Sm601 2.543 . S
O626 C611 1.261 . S
O627 Sm601 2.450 . S
O627 C611 1.242 . S
O628 Sm600 2.386 . S
O628 Sm601 2.681 . S
O628 C618 1.271 . S
O629 Sm601 2.464 . S
O629 C618 1.251 . S
O630 Sm601 2.396 . S
O630 C619 1.252 . S
O631 Sm600 2.408 . S
O631 C619 1.272 . S
H632 C604 0.930 . S
H633 C605 0.929 . S
H634 C607 0.930 . S
H635 C608 0.929 . S
H636 C613 0.930 . S
H637 C614 0.929 . S
H638 C616 0.930 . S
H639 C617 0.929 . S
H640 C648 0.950 . S
H641 C653 0.950 . S
H642 C650 0.950 . S
H643 C652 0.950 . S
H644 C654 0.950 . S
H645 C656 0.950 . S
H646 C658 0.950 . S
H647 C659 0.950 . S
C648 H640 0.950 . S
C648 C649 1.386 . S
C648 C650 1.391 . S
C649 C648 1.386 . S
C649 C653 1.393 . S
C650 H642 0.950 . S
C650 C648 1.391 . S
C650 C651 1.400 . S
C651 C650 1.400 . S
C651 C652 1.398 . S
C651 C657 1.491 . S
C652 H643 0.950 . S
C652 C651 1.398 . S
C652 C653 1.391 . S
C653 H641 0.950 . S
C653 C649 1.393 . S
C653 C652 1.391 . S
C654 H644 0.950 . S
C654 C655 1.386 . S
C654 C656 1.391 . S
C655 C654 1.386 . S
C655 C659 1.393 . S
C656 H645 0.950 . S
C656 C654 1.391 . S
C656 C657 1.400 . S
C657 C651 1.491 . S
C657 C656 1.400 . S
C657 C658 1.398 . S
C658 H646 0.950 . S
C658 C657 1.398 . S
C658 C659 1.391 . S
C659 H647 0.950 . S
C659 C655 1.393 . S
C659 C658 1.391 . S
H660 C668 0.950 . S
H661 C673 0.950 . S
H662 C670 0.950 . S
H663 C672 0.950 . S
H664 C674 0.950 . S
H665 C676 0.950 . S
H666 C678 0.950 . S
H667 C679 0.950 . S
C668 H660 0.950 . S
C668 C669 1.386 . S
C668 C670 1.391 . S
C669 C668 1.386 . S
C669 C673 1.393 . S
C670 H662 0.950 . S
C670 C668 1.391 . S
C670 C671 1.400 . S
C671 C670 1.400 . S
C671 C672 1.398 . S
C671 C677 1.491 . S
C672 H663 0.950 . S
C672 C671 1.398 . S
C672 C673 1.391 . S
C673 H661 0.950 . S
C673 C669 1.393 . S
C673 C672 1.391 . S
C674 H664 0.950 . S
C674 C675 1.386 . S
C674 C676 1.391 . S
C675 C674 1.386 . S
C675 C679 1.393 . S
C676 H665 0.950 . S
C676 C674 1.391 . S
C676 C677 1.400 . S
C677 C671 1.491 . S
C677 C676 1.400 . S
C677 C678 1.398 . S
C678 H666 0.950 . S
C678 C677 1.398 . S
C678 C679 1.391 . S
C679 H667 0.950 . S
C679 C675 1.393 . S
C679 C678 1.391 . S
H680 C688 0.950 . S
H681 C693 0.950 . S
H682 C690 0.950 . S
H683 C692 0.950 . S
H684 C694 0.950 . S
H685 C696 0.950 . S
H686 C698 0.950 . S
H687 C699 0.950 . S
C688 H680 0.950 . S
C688 C689 1.386 . S
C688 C690 1.391 . S
C689 C688 1.386 . S
C689 C693 1.393 . S
C690 H682 0.950 . S
C690 C688 1.391 . S
C690 C691 1.400 . S
C691 C690 1.400 . S
C691 C692 1.398 . S
C691 C697 1.491 1_455 S
C692 H683 0.950 . S
C692 C691 1.398 . S
C692 C693 1.391 . S
C693 H681 0.950 . S
C693 C689 1.393 . S
C693 C692 1.391 . S
C694 H684 0.950 . S
C694 C695 1.386 . S
C694 C696 1.391 . S
C695 C694 1.386 . S
C695 C699 1.393 . S
C696 H685 0.950 . S
C696 C694 1.391 . S
C696 C697 1.400 . S
C697 C691 1.491 1_655 S
C697 C696 1.400 . S
C697 C698 1.398 . S
C698 H686 0.950 . S
C698 C697 1.398 . S
C698 C699 1.391 . S
C699 H687 0.950 . S
C699 C695 1.393 . S
C699 C698 1.391 . S
H700 C708 0.950 . S
H701 C713 0.950 . S
H702 C710 0.950 . S
H703 C712 0.950 1_455 S
H704 C714 0.950 . S
H705 C716 0.950 . S
H706 C718 0.950 1_655 S
H707 C719 0.950 . S
C708 H700 0.950 . S
C708 C709 1.386 . S
C708 C710 1.391 . S
C709 C708 1.386 . S
C709 C713 1.393 . S
C710 H702 0.950 . S
C710 C708 1.391 . S
C710 C711 1.400 . S
C711 C710 1.400 . S
C711 C712 1.398 . S
C711 C717 1.491 1_655 S
C712 H703 0.950 1_655 S
C712 C711 1.398 . S
C712 C713 1.391 . S
C713 H701 0.950 . S
C713 C709 1.393 . S
C713 C712 1.391 . S
C714 H704 0.950 . S
C714 C715 1.386 . S
C714 C716 1.391 . S
C715 C714 1.386 . S
C715 C719 1.393 . S
C716 H705 0.950 . S
C716 C714 1.391 . S
C716 C717 1.400 . S
C717 C711 1.491 1_455 S
C717 C716 1.400 . S
C717 C718 1.398 . S
C718 H706 0.950 1_455 S
C718 C717 1.398 . S
C718 C719 1.391 . S
C719 H707 0.950 . S
C719 C715 1.393 . S
C719 C718 1.391 . S
H720 C728 0.950 . S
H721 C733 0.950 . S
H722 C730 0.950 . S
H723 C732 0.950 . S
H724 C734 0.950 . S
H725 C736 0.950 . S
H726 C738 0.950 . S
H727 C739 0.950 . S
C728 H720 0.950 . S
C728 C729 1.386 . S
C728 C730 1.391 . S
C729 C728 1.386 . S
C729 C733 1.393 . S
C730 H722 0.950 . S
C730 C728 1.391 . S
C730 C731 1.400 . S
C731 C730 1.400 . S
C731 C732 1.398 . S
C731 C737 1.491 . S
C732 H723 0.950 . S
C732 C731 1.398 . S
C732 C733 1.391 . S
C733 H721 0.950 . S
C733 C729 1.393 . S
C733 C732 1.391 . S
C734 H724 0.950 . S
C734 C735 1.386 . S
C734 C736 1.391 . S
C735 C734 1.386 . S
C735 C739 1.393 . S
C736 H725 0.950 . S
C736 C734 1.391 . S
C736 C737 1.400 . S
C737 C731 1.491 . S
C737 C736 1.400 . S
C737 C738 1.398 . S
C738 H726 0.950 . S
C738 C737 1.398 . S
C738 C739 1.391 . S
C739 H727 0.950 . S
C739 C735 1.393 . S
C739 C738 1.391 . S
H740 C748 0.950 . S
H741 C753 0.950 . S
H742 C750 0.950 . S
H743 C752 0.950 . S
H744 C754 0.950 . S
H745 C756 0.950 . S
H746 C758 0.950 . S
H747 C759 0.950 . S
C748 H740 0.950 . S
C748 C749 1.386 . S
C748 C750 1.391 . S
C749 C748 1.386 . S
C749 C753 1.393 . S
C750 H742 0.950 . S
C750 C748 1.391 . S
C750 C751 1.400 . S
C751 C750 1.400 . S
C751 C752 1.398 . S
C751 C757 1.491 . S
C752 H743 0.950 . S
C752 C751 1.398 . S
C752 C753 1.391 . S
C753 H741 0.950 . S
C753 C749 1.393 . S
C753 C752 1.391 . S
C754 H744 0.950 . S
C754 C755 1.386 . S
C754 C756 1.391 . S
C755 C754 1.386 . S
C755 C759 1.393 . S
C756 H745 0.950 . S
C756 C754 1.391 . S
C756 C757 1.400 . S
C757 C751 1.491 . S
C757 C756 1.400 . S
C757 C758 1.398 . S
C758 H746 0.950 . S
C758 C757 1.398 . S
C758 C759 1.391 . S
C759 H747 0.950 . S
C759 C755 1.393 . S
C759 C758 1.391 . S
H760 C768 0.950 . S
H761 C773 0.950 . S
H762 C770 0.950 . S
H763 C772 0.950 1_455 S
H764 C774 0.950 . S
H765 C776 0.950 . S
H766 C778 0.950 1_655 S
H767 C779 0.950 . S
C768 H760 0.950 . S
C768 C769 1.386 . S
C768 C770 1.391 . S
C769 C768 1.386 . S
C769 C773 1.393 . S
C770 H762 0.950 . S
C770 C768 1.391 . S
C770 C771 1.400 . S
C771 C770 1.400 . S
C771 C772 1.398 . S
C771 C777 1.491 1_655 S
C772 H763 0.950 1_655 S
C772 C771 1.398 . S
C772 C773 1.391 . S
C773 H761 0.950 . S
C773 C769 1.393 . S
C773 C772 1.391 . S
C774 H764 0.950 . S
C774 C775 1.386 . S
C774 C776 1.391 . S
C775 C774 1.386 . S
C775 C779 1.393 . S
C776 H765 0.950 . S
C776 C774 1.391 . S
C776 C777 1.400 . S
C777 C771 1.491 1_455 S
C777 C776 1.400 . S
C777 C778 1.398 . S
C778 H766 0.950 1_455 S
C778 C777 1.398 . S
C778 C779 1.391 . S
C779 H767 0.950 . S
C779 C775 1.393 . S
C779 C778 1.391 . S
H780 C788 0.950 . S
H781 C793 0.950 . S
H782 C790 0.950 . S
H783 C792 0.950 . S
H784 C794 0.950 . S
H785 C796 0.950 . S
H786 C798 0.950 . S
H787 C799 0.950 . S
C788 H780 0.950 . S
C788 C789 1.386 . S
C788 C790 1.391 . S
C789 C788 1.386 . S
C789 C793 1.393 . S
C790 H782 0.950 . S
C790 C788 1.391 . S
C790 C791 1.400 . S
C791 C790 1.400 . S
C791 C792 1.398 . S
C791 C797 1.491 1_455 S
C792 H783 0.950 . S
C792 C791 1.398 . S
C792 C793 1.391 . S
C793 H781 0.950 . S
C793 C789 1.393 . S
C793 C792 1.391 . S
C794 H784 0.950 . S
C794 C795 1.386 . S
C794 C796 1.391 . S
C795 C794 1.386 . S
C795 C799 1.393 . S
C796 H785 0.950 . S
C796 C794 1.391 . S
C796 C797 1.400 . S
C797 C791 1.491 1_655 S
C797 C796 1.400 . S
C797 C798 1.398 . S
C798 H786 0.950 . S
C798 C797 1.398 . S
C798 C799 1.391 . S
C799 H787 0.950 . S
C799 C795 1.393 . S
C799 C798 1.391 . S
H800 C808 0.950 . S
H801 C813 0.950 . S
H802 C810 0.950 . S
H803 C812 0.950 . S
H804 C814 0.950 . S
H805 C816 0.950 . S
H806 C818 0.950 . S
H807 C819 0.950 . S
C808 H800 0.950 . S
C808 C809 1.386 . S
C808 C810 1.391 . S
C809 C808 1.386 . S
C809 C813 1.393 . S
C810 H802 0.950 . S
C810 C808 1.391 . S
C810 C811 1.400 . S
C811 C810 1.400 . S
C811 C812 1.398 . S
C811 C817 1.491 . S
C812 H803 0.950 . S
C812 C811 1.398 . S
C812 C813 1.391 . S
C813 H801 0.950 . S
C813 C809 1.393 . S
C813 C812 1.391 . S
C814 H804 0.950 . S
C814 C815 1.386 . S
C814 C816 1.391 . S
C815 C814 1.386 . S
C815 C819 1.393 . S
C816 H805 0.950 . S
C816 C814 1.391 . S
C816 C817 1.400 . S
C817 C811 1.491 . S
C817 C816 1.400 . S
C817 C818 1.398 . S
C818 H806 0.950 . S
C818 C817 1.398 . S
C818 C819 1.391 . S
C819 H807 0.950 . S
C819 C815 1.393 . S
C819 C818 1.391 . S
H820 C828 0.950 . S
H821 C833 0.950 . S
H822 C830 0.950 . S
H823 C832 0.950 . S
H824 C834 0.950 . S
H825 C836 0.950 . S
H826 C838 0.950 . S
H827 C839 0.950 . S
C828 H820 0.950 . S
C828 C829 1.386 . S
C828 C830 1.391 . S
C829 C828 1.386 . S
C829 C833 1.393 . S
C830 H822 0.950 . S
C830 C828 1.391 . S
C830 C831 1.400 . S
C831 C830 1.400 . S
C831 C832 1.398 . S
C831 C837 1.491 . S
C832 H823 0.950 . S
C832 C831 1.398 . S
C832 C833 1.391 . S
C833 H821 0.950 . S
C833 C829 1.393 . S
C833 C832 1.391 . S
C834 H824 0.950 . S
C834 C835 1.386 . S
C834 C836 1.391 . S
C835 C834 1.386 . S
C835 C839 1.393 . S
C836 H825 0.950 . S
C836 C834 1.391 . S
C836 C837 1.400 . S
C837 C831 1.491 . S
C837 C836 1.400 . S
C837 C838 1.398 . S
C838 H826 0.950 . S
C838 C837 1.398 . S
C838 C839 1.391 . S
C839 H827 0.950 . S
C839 C835 1.393 . S
C839 C838 1.391 . S
H840 C848 0.950 . S
H841 C853 0.950 . S
H842 C850 0.950 . S
H843 C852 0.950 . S
H844 C854 0.950 . S
H845 C856 0.950 . S
H846 C858 0.950 . S
H847 C859 0.950 . S
C848 H840 0.950 . S
C848 C849 1.386 . S
C848 C850 1.391 . S
C849 C848 1.386 . S
C849 C853 1.393 . S
C850 H842 0.950 . S
C850 C848 1.391 . S
C850 C851 1.400 . S
C851 C850 1.400 . S
C851 C852 1.398 . S
C851 C857 1.491 . S
C852 H843 0.950 . S
C852 C851 1.398 . S
C852 C853 1.391 . S
C853 H841 0.950 . S
C853 C849 1.393 . S
C853 C852 1.391 . S
C854 H844 0.950 . S
C854 C855 1.386 . S
C854 C856 1.391 . S
C855 C854 1.386 . S
C855 C859 1.393 . S
C856 H845 0.950 . S
C856 C854 1.391 . S
C856 C857 1.400 . S
C857 C851 1.491 . S
C857 C856 1.400 . S
C857 C858 1.398 . S
C858 H846 0.950 . S
C858 C857 1.398 . S
C858 C859 1.391 . S
C859 H847 0.950 . S
C859 C855 1.393 . S
C859 C858 1.391 . S
H860 C868 0.950 . S
H861 C873 0.950 . S
H862 C870 0.950 . S
H863 C872 0.950 . S
H864 C874 0.950 . S
H865 C876 0.950 . S
H866 C878 0.950 . S
H867 C879 0.950 . S
C868 H860 0.950 . S
C868 C869 1.386 . S
C868 C870 1.391 . S
C869 C868 1.386 . S
C869 C873 1.393 . S
C870 H862 0.950 . S
C870 C868 1.391 . S
C870 C871 1.400 . S
C871 C870 1.400 . S
C871 C872 1.398 . S
C871 C877 1.491 . S
C872 H863 0.950 . S
C872 C871 1.398 . S
C872 C873 1.391 . S
C873 H861 0.950 . S
C873 C869 1.393 . S
C873 C872 1.391 . S
C874 H864 0.950 . S
C874 C875 1.386 . S
C874 C876 1.391 . S
C875 C874 1.386 . S
C875 C879 1.393 . S
C876 H865 0.950 . S
C876 C874 1.391 . S
C876 C877 1.400 . S
C877 C871 1.491 . S
C877 C876 1.400 . S
C877 C878 1.398 . S
C878 H866 0.950 . S
C878 C877 1.398 . S
C878 C879 1.391 . S
C879 H867 0.950 . S
C879 C875 1.393 . S
C879 C878 1.391 . S
H880 C888 0.950 . S
H881 C893 0.950 . S
H882 C890 0.950 . S
H883 C892 0.950 . S
H884 C894 0.950 . S
H885 C896 0.950 . S
H886 C898 0.950 . S
H887 C899 0.950 . S
C888 H880 0.950 . S
C888 C889 1.386 . S
C888 C890 1.391 . S
C889 C888 1.386 . S
C889 C893 1.393 . S
C890 H882 0.950 . S
C890 C888 1.391 . S
C890 C891 1.400 . S
C891 C890 1.400 . S
C891 C892 1.398 . S
C891 C897 1.491 . S
C892 H883 0.950 . S
C892 C891 1.398 . S
C892 C893 1.391 . S
C893 H881 0.950 . S
C893 C889 1.393 . S
C893 C892 1.391 . S
C894 H884 0.950 . S
C894 C895 1.386 . S
C894 C896 1.391 . S
C895 C894 1.386 . S
C895 C899 1.393 . S
C896 H885 0.950 . S
C896 C894 1.391 . S
C896 C897 1.400 . S
C897 C891 1.491 . S
C897 C896 1.400 . S
C897 C898 1.398 . S
C898 H886 0.950 . S
C898 C897 1.398 . S
C898 C899 1.391 . S
C899 H887 0.950 . S
C899 C895 1.393 . S
C899 C898 1.391 . S
H900 C908 0.950 . S
H901 C913 0.950 . S
H902 C910 0.950 . S
H903 C912 0.950 . S
H904 C914 0.950 . S
H905 C916 0.950 . S
H906 C918 0.950 . S
H907 C919 0.950 . S
C908 H900 0.950 . S
C908 C909 1.386 . S
C908 C910 1.391 . S
C909 C908 1.386 . S
C909 C913 1.393 . S
C910 H902 0.950 . S
C910 C908 1.391 . S
C910 C911 1.400 . S
C911 C910 1.400 . S
C911 C912 1.398 . S
C911 C917 1.491 . S
C912 H903 0.950 . S
C912 C911 1.398 . S
C912 C913 1.391 . S
C913 H901 0.950 . S
C913 C909 1.393 . S
C913 C912 1.391 . S
C914 H904 0.950 . S
C914 C915 1.386 . S
C914 C916 1.391 . S
C915 C914 1.386 . S
C915 C919 1.393 . S
C916 H905 0.950 . S
C916 C914 1.391 . S
C916 C917 1.400 . S
C917 C911 1.491 . S
C917 C916 1.400 . S
C917 C918 1.398 . S
C918 H906 0.950 . S
C918 C917 1.398 . S
C918 C919 1.391 . S
C919 H907 0.950 . S
C919 C915 1.393 . S
C919 C918 1.391 . S
H920 C928 0.950 . S
H921 C933 0.950 . S
H922 C930 0.950 . S
H923 C932 0.950 . S
H924 C934 0.950 . S
H925 C936 0.950 . S
H926 C938 0.950 . S
H927 C939 0.950 . S
C928 H920 0.950 . S
C928 C929 1.386 . S
C928 C930 1.391 . S
C929 C928 1.386 . S
C929 C933 1.393 . S
C930 H922 0.950 . S
C930 C928 1.391 . S
C930 C931 1.400 . S
C931 C930 1.400 . S
C931 C932 1.398 . S
C931 C937 1.491 . S
C932 H923 0.950 . S
C932 C931 1.398 . S
C932 C933 1.391 . S
C933 H921 0.950 . S
C933 C929 1.393 . S
C933 C932 1.391 . S
C934 H924 0.950 . S
C934 C935 1.386 . S
C934 C936 1.391 . S
C935 C934 1.386 . S
C935 C939 1.393 . S
C936 H925 0.950 . S
C936 C934 1.391 . S
C936 C937 1.400 . S
C937 C931 1.491 . S
C937 C936 1.400 . S
C937 C938 1.398 . S
C938 H926 0.950 . S
C938 C937 1.398 . S
C938 C939 1.391 . S
C939 H927 0.950 . S
C939 C935 1.393 . S
C939 C938 1.391 . S
H940 C948 0.950 . S
H941 C953 0.950 . S
H942 C950 0.950 . S
H943 C952 0.950 . S
H944 C954 0.950 . S
H945 C956 0.950 . S
H946 C958 0.950 . S
H947 C959 0.950 . S
C948 H940 0.950 . S
C948 C949 1.386 . S
C948 C950 1.391 . S
C949 C948 1.386 . S
C949 C953 1.393 . S
C950 H942 0.950 . S
C950 C948 1.391 . S
C950 C951 1.400 . S
C951 C950 1.400 . S
C951 C952 1.398 . S
C951 C957 1.491 . S
C952 H943 0.950 . S
C952 C951 1.398 . S
C952 C953 1.391 . S
C953 H941 0.950 . S
C953 C949 1.393 . S
C953 C952 1.391 . S
C954 H944 0.950 . S
C954 C955 1.386 . S
C954 C956 1.391 . S
C955 C954 1.386 . S
C955 C959 1.393 . S
C956 H945 0.950 . S
C956 C954 1.391 . S
C956 C957 1.400 . S
C957 C951 1.491 . S
C957 C956 1.400 . S
C957 C958 1.398 . S
C958 H946 0.950 . S
C958 C957 1.398 . S
C958 C959 1.391 . S
C959 H947 0.950 . S
C959 C955 1.393 . S
C959 C958 1.391 . S
H960 C968 0.950 . S
H961 C973 0.950 . S
H962 C970 0.950 . S
H963 C972 0.950 . S
H964 C974 0.950 . S
H965 C976 0.950 . S
H966 C978 0.950 . S
H967 C979 0.950 . S
C968 H960 0.950 . S
C968 C969 1.386 . S
C968 C970 1.391 . S
C969 C968 1.386 . S
C969 C973 1.393 . S
C970 H962 0.950 . S
C970 C968 1.391 . S
C970 C971 1.400 . S
C971 C970 1.400 . S
C971 C972 1.398 . S
C971 C977 1.491 . S
C972 H963 0.950 . S
C972 C971 1.398 . S
C972 C973 1.391 . S
C973 H961 0.950 . S
C973 C969 1.393 . S
C973 C972 1.391 . S
C974 H964 0.950 . S
C974 C975 1.386 . S
C974 C976 1.391 . S
C975 C974 1.386 . S
C975 C979 1.393 . S
C976 H965 0.950 . S
C976 C974 1.391 . S
C976 C977 1.400 . S
C977 C971 1.491 . S
C977 C976 1.400 . S
C977 C978 1.398 . S
C978 H966 0.950 . S
C978 C977 1.398 . S
C978 C979 1.391 . S
C979 H967 0.950 . S
C979 C975 1.393 . S
C979 C978 1.391 . S
H980 C988 0.950 . S
H981 C993 0.950 . S
H982 C990 0.950 . S
H983 C992 0.950 . S
H984 C994 0.950 . S
H985 C996 0.950 . S
H986 C998 0.950 . S
H987 C999 0.950 . S
C988 H980 0.950 . S
C988 C989 1.386 . S
C988 C990 1.391 1_545 S
C989 C988 1.386 . S
C989 C993 1.393 . S
C990 H982 0.950 . S
C990 C988 1.391 1_565 S
C990 C991 1.400 . S
C991 C990 1.400 . S
C991 C992 1.398 1_565 S
C991 C997 1.491 . S
C992 H983 0.950 . S
C992 C991 1.398 1_545 S
C992 C993 1.391 . S
C993 H981 0.950 . S
C993 C989 1.393 . S
C993 C992 1.391 . S
C994 H984 0.950 . S
C994 C995 1.386 . S
C994 C996 1.391 . S
C995 C994 1.386 . S
C995 C999 1.393 . S
C996 H985 0.950 . S
C996 C994 1.391 . S
C996 C997 1.400 . S
C997 C991 1.491 . S
C997 C996 1.400 . S
C997 C998 1.398 . S
C998 H986 0.950 . S
C998 C997 1.398 . S
C998 C999 1.391 . S
C999 H987 0.950 . S
C999 C995 1.393 . S
C999 C998 1.391 . S
H1000 C1008 0.950 . S
H1001 C1013 0.950 . S
H1002 C1010 0.950 . S
H1003 C1012 0.950 . S
H1004 C1014 0.950 . S
H1005 C1016 0.950 . S
H1006 C1018 0.950 . S
H1007 C1019 0.950 . S
C1008 H1000 0.950 . S
C1008 C1009 1.386 . S
C1008 C1010 1.391 . S
C1009 C1008 1.386 . S
C1009 C1013 1.393 . S
C1010 H1002 0.950 . S
C1010 C1008 1.391 . S
C1010 C1011 1.400 . S
C1011 C1010 1.400 . S
C1011 C1012 1.398 . S
C1011 C1017 1.491 . S
C1012 H1003 0.950 . S
C1012 C1011 1.398 . S
C1012 C1013 1.391 . S
C1013 H1001 0.950 . S
C1013 C1009 1.393 . S
C1013 C1012 1.391 . S
C1014 H1004 0.950 . S
C1014 C1015 1.386 . S
C1014 C1016 1.391 . S
C1015 C1014 1.386 . S
C1015 C1019 1.393 . S
C1016 H1005 0.950 . S
C1016 C1014 1.391 . S
C1016 C1017 1.400 . S
C1017 C1011 1.491 . S
C1017 C1016 1.400 . S
C1017 C1018 1.398 . S
C1018 H1006 0.950 . S
C1018 C1017 1.398 . S
C1018 C1019 1.391 . S
C1019 H1007 0.950 . S
C1019 C1015 1.393 . S
C1019 C1018 1.391 . S
H1020 C1028 0.950 . S
H1021 C1033 0.950 . S
H1022 C1030 0.950 . S
H1023 C1032 0.950 . S
H1024 C1034 0.950 . S
H1025 C1036 0.950 . S
H1026 C1038 0.950 . S
H1027 C1039 0.950 . S
C1028 H1020 0.950 . S
C1028 C1029 1.386 . S
C1028 C1030 1.391 . S
C1029 C1028 1.386 . S
C1029 C1033 1.393 . S
C1030 H1022 0.950 . S
C1030 C1028 1.391 . S
C1030 C1031 1.400 1_565 S
C1031 C1030 1.400 1_545 S
C1031 C1032 1.398 . S
C1031 C1037 1.491 . S
C1032 H1023 0.950 . S
C1032 C1031 1.398 . S
C1032 C1033 1.391 1_545 S
C1033 H1021 0.950 . S
C1033 C1029 1.393 . S
C1033 C1032 1.391 1_565 S
C1034 H1024 0.950 . S
C1034 C1035 1.386 . S
C1034 C1036 1.391 . S
C1035 C1034 1.386 . S
C1035 C1039 1.393 . S
C1036 H1025 0.950 . S
C1036 C1034 1.391 . S
C1036 C1037 1.400 . S
C1037 C1031 1.491 . S
C1037 C1036 1.400 . S
C1037 C1038 1.398 . S
C1038 H1026 0.950 . S
C1038 C1037 1.398 . S
C1038 C1039 1.391 . S
C1039 H1027 0.950 . S
C1039 C1035 1.393 . S
C1039 C1038 1.391 . S
H1040 C1048 0.950 . S
H1041 C1053 0.950 . S
H1042 C1050 0.950 . S
H1043 C1052 0.950 . S
H1044 C1054 0.950 . S
H1045 C1056 0.950 . S
H1046 C1058 0.950 . S
H1047 C1059 0.950 . S
C1048 H1040 0.950 . S
C1048 C1049 1.386 . S
C1048 C1050 1.391 . S
C1049 C1048 1.386 . S
C1049 C1053 1.393 . S
C1050 H1042 0.950 . S
C1050 C1048 1.391 . S
C1050 C1051 1.400 . S
C1051 C1050 1.400 . S
C1051 C1052 1.398 . S
C1051 C1057 1.491 . S
C1052 H1043 0.950 . S
C1052 C1051 1.398 . S
C1052 C1053 1.391 . S
C1053 H1041 0.950 . S
C1053 C1049 1.393 . S
C1053 C1052 1.391 . S
C1054 H1044 0.950 . S
C1054 C1055 1.386 . S
C1054 C1056 1.391 . S
C1055 C1054 1.386 . S
C1055 C1059 1.393 . S
C1056 H1045 0.950 . S
C1056 C1054 1.391 . S
C1056 C1057 1.400 . S
C1057 C1051 1.491 . S
C1057 C1056 1.400 . S
C1057 C1058 1.398 . S
C1058 H1046 0.950 . S
C1058 C1057 1.398 . S
C1058 C1059 1.391 . S
C1059 H1047 0.950 . S
C1059 C1055 1.393 . S
C1059 C1058 1.391 . S
H1060 C1068 0.950 . S
H1061 C1073 0.950 . S
H1062 C1070 0.950 . S
H1063 C1072 0.950 . S
H1064 C1074 0.950 . S
H1065 C1076 0.933 1_545 S
H1066 C1078 0.936 1_545 S
H1067 C1079 0.950 . S
C1068 H1060 0.950 . S
C1068 C1069 1.386 . S
C1068 C1070 1.391 . S
C1069 C1068 1.386 . S
C1069 C1073 1.393 . S
C1070 H1062 0.950 . S
C1070 C1068 1.391 . S
C1070 C1071 1.400 . S
C1071 C1070 1.400 . S
C1071 C1072 1.398 . S
C1071 C1077 1.491 . S
C1072 H1063 0.950 . S
C1072 C1071 1.398 . S
C1072 C1073 1.391 . S
C1073 H1061 0.950 . S
C1073 C1069 1.393 . S
C1073 C1072 1.391 . S
C1074 H1064 0.950 . S
C1074 C1075 1.386 . S
C1074 C1076 1.426 . S
C1075 C1074 1.386 . S
C1075 C1079 1.393 . S
C1076 H1065 0.933 1_565 S
C1076 C1074 1.426 . S
C1076 C1077 1.383 1_565 S
C1077 C1071 1.491 . S
C1077 C1076 1.383 1_545 S
C1077 C1078 1.384 1_545 S
C1078 H1066 0.936 1_565 S
C1078 C1077 1.384 1_565 S
C1078 C1079 1.420 . S
C1079 H1067 0.950 . S
C1079 C1075 1.393 . S
C1079 C1078 1.420 . S
H1080 C1088 0.950 . S
H1081 C1093 0.950 . S
H1082 C1090 0.950 . S
H1083 C1092 0.950 . S
H1084 C1094 0.950 . S
H1085 C1096 0.950 . S
H1086 C1098 0.950 . S
H1087 C1099 0.950 1_556 S
C1088 H1080 0.950 . S
C1088 C1089 1.386 . S
C1088 C1090 1.391 . S
C1089 C1088 1.386 . S
C1089 C1093 1.393 . S
C1090 H1082 0.950 . S
C1090 C1088 1.391 . S
C1090 C1091 1.400 . S
C1091 C1090 1.400 . S
C1091 C1092 1.398 . S
C1091 C1097 1.491 . S
C1092 H1083 0.950 . S
C1092 C1091 1.398 . S
C1092 C1093 1.391 . S
C1093 H1081 0.950 . S
C1093 C1089 1.393 . S
C1093 C1092 1.391 . S
C1094 H1084 0.950 . S
C1094 C1095 1.386 . S
C1094 C1096 1.391 . S
C1095 C1094 1.386 . S
C1095 C1099 1.393 . S
C1096 H1085 0.950 . S
C1096 C1094 1.391 . S
C1096 C1097 1.400 . S
C1097 C1091 1.491 . S
C1097 C1096 1.400 . S
C1097 C1098 1.398 . S
C1098 H1086 0.950 . S
C1098 C1097 1.398 . S
C1098 C1099 1.391 . S
C1099 H1087 0.950 1_554 S
C1099 C1095 1.393 . S
C1099 C1098 1.391 . S
H1100 C1108 0.950 . S
H1101 C1113 0.950 . S
H1102 C1110 0.950 . S
H1103 C1112 0.950 . S
H1104 C1114 0.950 . S
H1105 C1116 0.950 . S
H1106 C1118 0.950 . S
H1107 C1119 0.950 . S
C1108 H1100 0.950 . S
C1108 C1109 1.386 . S
C1108 C1110 1.391 1_545 S
C1109 C1108 1.386 . S
C1109 C1113 1.393 . S
C1110 H1102 0.950 . S
C1110 C1108 1.391 1_565 S
C1110 C1111 1.400 . S
C1111 C1110 1.400 . S
C1111 C1112 1.398 1_565 S
C1111 C1117 1.491 . S
C1112 H1103 0.950 . S
C1112 C1111 1.398 1_545 S
C1112 C1113 1.391 . S
C1113 H1101 0.950 . S
C1113 C1109 1.393 . S
C1113 C1112 1.391 . S
C1114 H1104 0.950 . S
C1114 C1115 1.386 . S
C1114 C1116 1.391 . S
C1115 C1114 1.386 . S
C1115 C1119 1.393 . S
C1116 H1105 0.950 . S
C1116 C1114 1.391 . S
C1116 C1117 1.400 . S
C1117 C1111 1.491 . S
C1117 C1116 1.400 . S
C1117 C1118 1.398 . S
C1118 H1106 0.950 . S
C1118 C1117 1.398 . S
C1118 C1119 1.391 . S
C1119 H1107 0.950 . S
C1119 C1115 1.393 . S
C1119 C1118 1.391 . S
H1120 C1128 0.950 . S
H1121 C1133 0.950 . S
H1122 C1130 0.950 . S
H1123 C1132 0.950 . S
H1124 C1134 0.950 . S
H1125 C1136 0.950 . S
H1126 C1138 0.950 . S
H1127 C1139 0.950 . S
C1128 H1120 0.950 . S
C1128 C1129 1.386 . S
C1128 C1130 1.391 . S
C1129 C1128 1.386 . S
C1129 C1133 1.393 . S
C1130 H1122 0.950 . S
C1130 C1128 1.391 . S
C1130 C1131 1.400 . S
C1131 C1130 1.400 . S
C1131 C1132 1.398 . S
C1131 C1137 1.491 . S
C1132 H1123 0.950 . S
C1132 C1131 1.398 . S
C1132 C1133 1.391 . S
C1133 H1121 0.950 . S
C1133 C1129 1.393 . S
C1133 C1132 1.391 . S
C1134 H1124 0.950 . S
C1134 C1135 1.386 . S
C1134 C1136 1.391 . S
C1135 C1134 1.386 . S
C1135 C1139 1.393 . S
C1136 H1125 0.950 . S
C1136 C1134 1.391 . S
C1136 C1137 1.400 . S
C1137 C1131 1.491 . S
C1137 C1136 1.400 . S
C1137 C1138 1.398 . S
C1138 H1126 0.950 . S
C1138 C1137 1.398 . S
C1138 C1139 1.391 . S
C1139 H1127 0.950 . S
C1139 C1135 1.393 . S
C1139 C1138 1.391 . S
H1140 C1148 0.950 . S
H1141 C1153 0.950 . S
H1142 C1150 0.950 . S
H1143 C1152 0.950 . S
H1144 C1154 0.950 . S
H1145 C1156 0.950 . S
H1146 C1158 0.950 . S
H1147 C1159 0.950 1_556 S
C1148 H1140 0.950 . S
C1148 C1149 1.386 . S
C1148 C1150 1.391 . S
C1149 C1148 1.386 . S
C1149 C1153 1.393 . S
C1150 H1142 0.950 . S
C1150 C1148 1.391 . S
C1150 C1151 1.400 . S
C1151 C1150 1.400 . S
C1151 C1152 1.398 . S
C1151 C1157 1.491 . S
C1152 H1143 0.950 . S
C1152 C1151 1.398 . S
C1152 C1153 1.391 . S
C1153 H1141 0.950 . S
C1153 C1149 1.393 . S
C1153 C1152 1.391 . S
C1154 H1144 0.950 . S
C1154 C1155 1.386 . S
C1154 C1156 1.391 . S
C1155 C1154 1.386 . S
C1155 C1159 1.393 . S
C1156 H1145 0.950 . S
C1156 C1154 1.391 . S
C1156 C1157 1.400 . S
C1157 C1151 1.491 . S
C1157 C1156 1.400 . S
C1157 C1158 1.398 . S
C1158 H1146 0.950 . S
C1158 C1157 1.398 . S
C1158 C1159 1.391 . S
C1159 H1147 0.950 1_554 S
C1159 C1155 1.393 . S
C1159 C1158 1.391 . S
H1160 C1168 0.950 . S
H1161 C1173 0.950 . S
H1162 C1170 0.950 . S
H1163 C1172 0.950 . S
H1164 C1174 0.950 . S
H1165 C1176 0.950 . S
H1166 C1178 0.950 . S
H1167 C1179 0.950 . S
C1168 H1160 0.950 . S
C1168 C1169 1.386 . S
C1168 C1170 1.391 . S
C1169 C1168 1.386 . S
C1169 C1173 1.393 . S
C1170 H1162 0.950 . S
C1170 C1168 1.391 . S
C1170 C1171 1.400 . S
C1171 C1170 1.400 . S
C1171 C1172 1.398 . S
C1171 C1177 1.491 . S
C1172 H1163 0.950 . S
C1172 C1171 1.398 . S
C1172 C1173 1.391 . S
C1173 H1161 0.950 . S
C1173 C1169 1.393 . S
C1173 C1172 1.391 . S
C1174 H1164 0.950 . S
C1174 C1175 1.386 . S
C1174 C1176 1.391 . S
C1175 C1174 1.386 . S
C1175 C1179 1.393 1_455 S
C1176 H1165 0.950 . S
C1176 C1174 1.391 . S
C1176 C1177 1.400 1_455 S
C1177 C1171 1.491 . S
C1177 C1176 1.400 1_655 S
C1177 C1178 1.398 . S
C1178 H1166 0.950 . S
C1178 C1177 1.398 . S
C1178 C1179 1.391 . S
C1179 H1167 0.950 . S
C1179 C1175 1.393 1_655 S
C1179 C1178 1.391 . S
H1180 C1188 0.950 . S
H1181 C1193 0.950 . S
H1182 C1190 0.950 . S
H1183 C1192 0.950 . S
H1184 C1194 0.950 . S
H1185 C1196 0.950 . S
H1186 C1198 0.950 . S
H1187 C1199 0.950 . S
C1188 H1180 0.950 . S
C1188 C1189 1.386 . S
C1188 C1190 1.391 . S
C1189 C1188 1.386 . S
C1189 C1193 1.393 . S
C1190 H1182 0.950 . S
C1190 C1188 1.391 . S
C1190 C1191 1.400 . S
C1191 C1190 1.400 . S
C1191 C1192 1.398 . S
C1191 C1197 1.491 . S
C1192 H1183 0.950 . S
C1192 C1191 1.398 . S
C1192 C1193 1.391 . S
C1193 H1181 0.950 . S
C1193 C1189 1.393 . S
C1193 C1192 1.391 . S
C1194 H1184 0.950 . S
C1194 C1195 1.386 . S
C1194 C1196 1.391 . S
C1195 C1194 1.386 . S
C1195 C1199 1.393 . S
C1196 H1185 0.950 . S
C1196 C1194 1.391 . S
C1196 C1197 1.400 . S
C1197 C1191 1.491 . S
C1197 C1196 1.400 . S
C1197 C1198 1.398 . S
C1198 H1186 0.950 . S
C1198 C1197 1.398 . S
C1198 C1199 1.391 . S
C1199 H1187 0.950 . S
C1199 C1195 1.393 . S
C1199 C1198 1.391 . S
H1200 C1208 0.950 . S
H1201 C1213 0.950 . S
H1202 C1210 0.950 . S
H1203 C1212 0.950 . S
H1204 C1214 0.950 . S
H1205 C1216 0.950 . S
H1206 C1218 0.950 . S
H1207 C1219 0.950 . S
C1208 H1200 0.950 . S
C1208 C1209 1.386 . S
C1208 C1210 1.391 . S
C1209 C1208 1.386 . S
C1209 C1213 1.393 . S
C1210 H1202 0.950 . S
C1210 C1208 1.391 . S
C1210 C1211 1.400 . S
C1211 C1210 1.400 . S
C1211 C1212 1.398 . S
C1211 C1217 1.491 . S
C1212 H1203 0.950 . S
C1212 C1211 1.398 . S
C1212 C1213 1.391 . S
C1213 H1201 0.950 . S
C1213 C1209 1.393 . S
C1213 C1212 1.391 . S
C1214 H1204 0.950 . S
C1214 C1215 1.386 . S
C1214 C1216 1.391 . S
C1215 C1214 1.386 . S
C1215 C1219 1.393 . S
C1216 H1205 0.950 . S
C1216 C1214 1.391 . S
C1216 C1217 1.400 . S
C1217 C1211 1.491 . S
C1217 C1216 1.400 . S
C1217 C1218 1.398 . S
C1218 H1206 0.950 . S
C1218 C1217 1.398 . S
C1218 C1219 1.391 . S
C1219 H1207 0.950 . S
C1219 C1215 1.393 . S
C1219 C1218 1.391 . S
H1220 C1228 0.950 . S
H1221 C1233 0.950 . S
H1222 C1230 0.950 . S
H1223 C1232 0.950 . S
H1224 C1234 0.950 . S
H1225 C1236 0.950 . S
H1226 C1238 0.950 . S
H1227 C1239 0.950 . S
C1228 H1220 0.950 . S
C1228 C1229 1.386 . S
C1228 C1230 1.391 . S
C1229 C1228 1.386 . S
C1229 C1233 1.393 . S
C1230 H1222 0.950 . S
C1230 C1228 1.391 . S
C1230 C1231 1.400 . S
C1231 C1230 1.400 . S
C1231 C1232 1.398 . S
C1231 C1237 1.491 . S
C1232 H1223 0.950 . S
C1232 C1231 1.398 . S
C1232 C1233 1.391 . S
C1233 H1221 0.950 . S
C1233 C1229 1.393 . S
C1233 C1232 1.391 . S
C1234 H1224 0.950 . S
C1234 C1235 1.386 . S
C1234 C1236 1.391 . S
C1235 C1234 1.386 . S
C1235 C1239 1.393 . S
C1236 H1225 0.950 . S
C1236 C1234 1.391 . S
C1236 C1237 1.400 . S
C1237 C1231 1.491 . S
C1237 C1236 1.400 . S
C1237 C1238 1.398 . S
C1238 H1226 0.950 . S
C1238 C1237 1.398 . S
C1238 C1239 1.391 . S
C1239 H1227 0.950 . S
C1239 C1235 1.393 . S
C1239 C1238 1.391 . S
H1240 C1248 0.950 . S
H1241 C1253 0.950 . S
H1242 C1250 0.950 . S
H1243 C1252 0.950 . S
H1244 C1254 0.950 . S
H1245 C1256 0.950 . S
H1246 C1258 0.950 . S
H1247 C1259 0.950 . S
C1248 H1240 0.950 . S
C1248 C1249 1.386 . S
C1248 C1250 1.391 . S
C1249 C1248 1.386 . S
C1249 C1253 1.393 . S
C1250 H1242 0.950 . S
C1250 C1248 1.391 . S
C1250 C1251 1.400 . S
C1251 C1250 1.400 . S
C1251 C1252 1.398 . S
C1251 C1257 1.491 . S
C1252 H1243 0.950 . S
C1252 C1251 1.398 . S
C1252 C1253 1.391 . S
C1253 H1241 0.950 . S
C1253 C1249 1.393 . S
C1253 C1252 1.391 . S
C1254 H1244 0.950 . S
C1254 C1255 1.386 1_455 S
C1254 C1256 1.391 . S
C1255 C1254 1.386 1_655 S
C1255 C1259 1.393 . S
C1256 H1245 0.950 . S
C1256 C1254 1.391 . S
C1256 C1257 1.400 . S
C1257 C1251 1.491 . S
C1257 C1256 1.400 . S
C1257 C1258 1.398 . S
C1258 H1246 0.950 . S
C1258 C1257 1.398 . S
C1258 C1259 1.391 1_455 S
C1259 H1247 0.950 . S
C1259 C1255 1.393 . S
C1259 C1258 1.391 1_655 S
H1260 C1268 0.950 . S
H1261 C1273 0.950 . S
H1262 C1270 0.950 . S
H1263 C1272 0.950 . S
H1264 C1274 0.950 . S
H1265 C1276 0.950 . S
H1266 C1278 0.950 . S
H1267 C1279 0.950 . S
C1268 H1260 0.950 . S
C1268 C1269 1.386 . S
C1268 C1270 1.391 . S
C1269 C1268 1.386 . S
C1269 C1273 1.393 . S
C1270 H1262 0.950 . S
C1270 C1268 1.391 . S
C1270 C1271 1.400 . S
C1271 C1270 1.400 . S
C1271 C1272 1.398 . S
C1271 C1277 1.491 . S
C1272 H1263 0.950 . S
C1272 C1271 1.398 . S
C1272 C1273 1.391 . S
C1273 H1261 0.950 . S
C1273 C1269 1.393 . S
C1273 C1272 1.391 . S
C1274 H1264 0.950 . S
C1274 C1275 1.386 . S
C1274 C1276 1.391 . S
C1275 C1274 1.386 . S
C1275 C1279 1.393 . S
C1276 H1265 0.950 . S
C1276 C1274 1.391 . S
C1276 C1277 1.400 . S
C1277 C1271 1.491 . S
C1277 C1276 1.400 . S
C1277 C1278 1.398 . S
C1278 H1266 0.950 . S
C1278 C1277 1.398 . S
C1278 C1279 1.391 . S
C1279 H1267 0.950 . S
C1279 C1275 1.393 . S
C1279 C1278 1.391 . S
H1280 C1288 0.950 . S
H1281 C1293 0.950 . S
H1282 C1290 0.950 . S
H1283 C1292 0.950 . S
H1284 C1294 0.950 . S
H1285 C1296 0.950 . S
H1286 C1298 0.950 . S
H1287 C1299 0.950 . S
C1288 H1280 0.950 . S
C1288 C1289 1.386 . S
C1288 C1290 1.391 1_655 S
C1289 C1288 1.386 . S
C1289 C1293 1.393 1_655 S
C1290 H1282 0.950 . S
C1290 C1288 1.391 1_455 S
C1290 C1291 1.400 . S
C1291 C1290 1.400 . S
C1291 C1292 1.398 . S
C1291 C1297 1.491 . S
C1292 H1283 0.950 . S
C1292 C1291 1.398 . S
C1292 C1293 1.391 . S
C1293 H1281 0.950 . S
C1293 C1289 1.393 1_455 S
C1293 C1292 1.391 . S
C1294 H1284 0.950 . S
C1294 C1295 1.386 . S
C1294 C1296 1.391 . S
C1295 C1294 1.386 . S
C1295 C1299 1.393 . S
C1296 H1285 0.950 . S
C1296 C1294 1.391 . S
C1296 C1297 1.400 . S
C1297 C1291 1.491 . S
C1297 C1296 1.400 . S
C1297 C1298 1.398 . S
C1298 H1286 0.950 . S
C1298 C1297 1.398 . S
C1298 C1299 1.391 . S
C1299 H1287 0.950 . S
C1299 C1295 1.393 . S
C1299 C1298 1.391 . S
H1300 C1308 0.950 . S
H1301 C1313 0.950 . S
H1302 C1310 0.950 . S
H1303 C1312 0.950 . S
H1304 C1314 0.950 . S
H1305 C1316 0.950 . S
H1306 C1318 0.950 . S
H1307 C1319 0.950 . S
C1308 H1300 0.950 . S
C1308 C1309 1.386 . S
C1308 C1310 1.391 . S
C1309 C1308 1.386 . S
C1309 C1313 1.393 . S
C1310 H1302 0.950 . S
C1310 C1308 1.391 . S
C1310 C1311 1.400 . S
C1311 C1310 1.400 . S
C1311 C1312 1.398 . S
C1311 C1317 1.491 . S
C1312 H1303 0.950 . S
C1312 C1311 1.398 . S
C1312 C1313 1.391 . S
C1313 H1301 0.950 . S
C1313 C1309 1.393 . S
C1313 C1312 1.391 . S
C1314 H1304 0.950 . S
C1314 C1315 1.386 . S
C1314 C1316 1.391 . S
C1315 C1314 1.386 . S
C1315 C1319 1.393 . S
C1316 H1305 0.950 . S
C1316 C1314 1.391 . S
C1316 C1317 1.400 . S
C1317 C1311 1.491 . S
C1317 C1316 1.400 . S
C1317 C1318 1.398 . S
C1318 H1306 0.950 . S
C1318 C1317 1.398 . S
C1318 C1319 1.391 . S
C1319 H1307 0.950 . S
C1319 C1315 1.393 . S
C1319 C1318 1.391 . S
H1320 C1328 0.950 . S
H1321 C1333 0.950 . S
H1322 C1330 0.950 . S
H1323 C1332 0.950 . S
H1324 C1334 0.950 . S
H1325 C1336 0.950 . S
H1326 C1338 0.950 . S
H1327 C1339 0.950 . S
C1328 H1320 0.950 . S
C1328 C1329 1.386 . S
C1328 C1330 1.391 . S
C1329 C1328 1.386 . S
C1329 C1333 1.393 . S
C1330 H1322 0.950 . S
C1330 C1328 1.391 . S
C1330 C1331 1.400 . S
C1331 C1330 1.400 . S
C1331 C1332 1.398 . S
C1331 C1337 1.491 . S
C1332 H1323 0.950 . S
C1332 C1331 1.398 . S
C1332 C1333 1.391 . S
C1333 H1321 0.950 . S
C1333 C1329 1.393 . S
C1333 C1332 1.391 . S
C1334 H1324 0.950 . S
C1334 C1335 1.386 . S
C1334 C1336 1.391 . S
C1335 C1334 1.386 . S
C1335 C1339 1.393 . S
C1336 H1325 0.950 . S
C1336 C1334 1.391 . S
C1336 C1337 1.400 . S
C1337 C1331 1.491 . S
C1337 C1336 1.400 . S
C1337 C1338 1.398 . S
C1338 H1326 0.950 . S
C1338 C1337 1.398 . S
C1338 C1339 1.391 . S
C1339 H1327 0.950 . S
C1339 C1335 1.393 . S
C1339 C1338 1.391 . S
H1340 C1348 0.950 . S
H1341 C1353 0.950 1_556 S
H1342 C1350 0.950 . S
H1343 C1352 0.950 . S
H1344 C1354 0.950 . S
H1345 C1356 0.950 . S
H1346 C1358 0.950 . S
H1347 C1359 0.950 . S
C1348 H1340 0.950 . S
C1348 C1349 1.386 . S
C1348 C1350 1.391 . S
C1349 C1348 1.386 . S
C1349 C1353 1.393 . S
C1350 H1342 0.950 . S
C1350 C1348 1.391 . S
C1350 C1351 1.400 . S
C1351 C1350 1.400 . S
C1351 C1352 1.398 . S
C1351 C1357 1.491 . S
C1352 H1343 0.950 . S
C1352 C1351 1.398 . S
C1352 C1353 1.391 . S
C1353 H1341 0.950 1_554 S
C1353 C1349 1.393 . S
C1353 C1352 1.391 . S
C1354 H1344 0.950 . S
C1354 C1355 1.386 . S
C1354 C1356 1.391 . S
C1355 C1354 1.386 . S
C1355 C1359 1.393 . S
C1356 H1345 0.950 . S
C1356 C1354 1.391 . S
C1356 C1357 1.400 . S
C1357 C1351 1.491 . S
C1357 C1356 1.400 . S
C1357 C1358 1.398 . S
C1358 H1346 0.950 . S
C1358 C1357 1.398 . S
C1358 C1359 1.391 . S
C1359 H1347 0.950 . S
C1359 C1355 1.393 . S
C1359 C1358 1.391 . S
H1360 C1368 0.950 . S
H1361 C1373 0.950 . S
H1362 C1370 0.950 . S
H1363 C1372 0.950 . S
H1364 C1374 0.950 . S
H1365 C1376 0.950 . S
H1366 C1378 0.950 . S
H1367 C1379 0.950 . S
C1368 H1360 0.950 . S
C1368 C1369 1.386 . S
C1368 C1370 1.391 1_455 S
C1369 C1368 1.386 . S
C1369 C1373 1.393 1_455 S
C1370 H1362 0.950 . S
C1370 C1368 1.391 1_655 S
C1370 C1371 1.400 . S
C1371 C1370 1.400 . S
C1371 C1372 1.398 . S
C1371 C1377 1.491 . S
C1372 H1363 0.950 . S
C1372 C1371 1.398 . S
C1372 C1373 1.391 . S
C1373 H1361 0.950 . S
C1373 C1369 1.393 1_655 S
C1373 C1372 1.391 . S
C1374 H1364 0.950 . S
C1374 C1375 1.386 . S
C1374 C1376 1.391 . S
C1375 C1374 1.386 . S
C1375 C1379 1.393 . S
C1376 H1365 0.950 . S
C1376 C1374 1.391 . S
C1376 C1377 1.400 . S
C1377 C1371 1.491 . S
C1377 C1376 1.400 . S
C1377 C1378 1.398 . S
C1378 H1366 0.950 . S
C1378 C1377 1.398 . S
C1378 C1379 1.391 . S
C1379 H1367 0.950 . S
C1379 C1375 1.393 . S
C1379 C1378 1.391 . S
H1380 C1388 0.950 . S
H1381 C1393 0.950 . S
H1382 C1390 0.950 . S
H1383 C1392 0.950 . S
H1384 C1394 0.950 . S
H1385 C1396 0.950 . S
H1386 C1398 0.950 . S
H1387 C1399 0.950 . S
C1388 H1380 0.950 . S
C1388 C1389 1.386 . S
C1388 C1390 1.391 . S
C1389 C1388 1.386 . S
C1389 C1393 1.393 . S
C1390 H1382 0.950 . S
C1390 C1388 1.391 . S
C1390 C1391 1.400 . S
C1391 C1390 1.400 . S
C1391 C1392 1.398 . S
C1391 C1397 1.491 . S
C1392 H1383 0.950 . S
C1392 C1391 1.398 . S
C1392 C1393 1.391 . S
C1393 H1381 0.950 . S
C1393 C1389 1.393 . S
C1393 C1392 1.391 . S
C1394 H1384 0.950 . S
C1394 C1395 1.386 . S
C1394 C1396 1.391 . S
C1395 C1394 1.386 . S
C1395 C1399 1.393 . S
C1396 H1385 0.950 . S
C1396 C1394 1.391 . S
C1396 C1397 1.400 . S
C1397 C1391 1.491 . S
C1397 C1396 1.400 . S
C1397 C1398 1.398 . S
C1398 H1386 0.950 . S
C1398 C1397 1.398 . S
C1398 C1399 1.391 . S
C1399 H1387 0.950 . S
C1399 C1395 1.393 . S
C1399 C1398 1.391 . S
H1400 C1408 0.950 . S
H1401 C1413 0.950 . S
H1402 C1410 0.950 . S
H1403 C1412 0.950 . S
H1404 C1414 0.950 . S
H1405 C1416 0.950 . S
H1406 C1418 0.950 . S
H1407 C1419 0.950 . S
C1408 H1400 0.950 . S
C1408 C1409 1.386 . S
C1408 C1410 1.391 . S
C1409 C1408 1.386 . S
C1409 C1413 1.393 . S
C1410 H1402 0.950 . S
C1410 C1408 1.391 . S
C1410 C1411 1.400 . S
C1411 C1410 1.400 . S
C1411 C1412 1.398 . S
C1411 C1417 1.491 . S
C1412 H1403 0.950 . S
C1412 C1411 1.398 . S
C1412 C1413 1.391 . S
C1413 H1401 0.950 . S
C1413 C1409 1.393 . S
C1413 C1412 1.391 . S
C1414 H1404 0.950 . S
C1414 C1415 1.386 . S
C1414 C1416 1.391 . S
C1415 C1414 1.386 . S
C1415 C1419 1.393 . S
C1416 H1405 0.950 . S
C1416 C1414 1.391 . S
C1416 C1417 1.400 . S
C1417 C1411 1.491 . S
C1417 C1416 1.400 . S
C1417 C1418 1.398 . S
C1418 H1406 0.950 . S
C1418 C1417 1.398 . S
C1418 C1419 1.391 . S
C1419 H1407 0.950 . S
C1419 C1415 1.393 . S
C1419 C1418 1.391 . S
H1420 C1428 0.950 1_554 S
H1421 C1433 0.950 . S
H1422 C1430 0.950 . S
H1423 C1432 0.950 . S
H1424 C1434 0.950 . S
H1425 C1436 0.950 . S
H1426 C1438 0.950 . S
H1427 C1439 0.950 . S
C1428 H1420 0.950 1_556 S
C1428 C1429 1.386 . S
C1428 C1430 1.391 . S
C1429 C1428 1.386 . S
C1429 C1433 1.393 . S
C1430 H1422 0.950 . S
C1430 C1428 1.391 . S
C1430 C1431 1.400 . S
C1431 C1430 1.400 . S
C1431 C1432 1.398 . S
C1431 C1437 1.491 . S
C1432 H1423 0.950 . S
C1432 C1431 1.398 . S
C1432 C1433 1.391 . S
C1433 H1421 0.950 . S
C1433 C1429 1.393 . S
C1433 C1432 1.391 . S
C1434 H1424 0.950 . S
C1434 C1435 1.386 . S
C1434 C1436 1.391 . S
C1435 C1434 1.386 . S
C1435 C1439 1.393 . S
C1436 H1425 0.950 . S
C1436 C1434 1.391 . S
C1436 C1437 1.400 . S
C1437 C1431 1.491 . S
C1437 C1436 1.400 . S
C1437 C1438 1.398 . S
C1438 H1426 0.950 . S
C1438 C1437 1.398 . S
C1438 C1439 1.391 . S
C1439 H1427 0.950 . S
C1439 C1435 1.393 . S
C1439 C1438 1.391 . S
H1440 C1448 0.950 . S
H1441 C1453 0.950 . S
H1442 C1450 0.950 . S
H1443 C1452 0.950 . S
H1444 C1454 0.950 . S
H1445 C1456 0.950 . S
H1446 C1458 0.950 . S
H1447 C1459 0.950 . S
C1448 H1440 0.950 . S
C1448 C1449 1.386 . S
C1448 C1450 1.391 . S
C1449 C1448 1.386 . S
C1449 C1453 1.393 . S
C1450 H1442 0.950 . S
C1450 C1448 1.391 . S
C1450 C1451 1.400 . S
C1451 C1450 1.400 . S
C1451 C1452 1.398 . S
C1451 C1457 1.491 . S
C1452 H1443 0.950 . S
C1452 C1451 1.398 . S
C1452 C1453 1.391 . S
C1453 H1441 0.950 . S
C1453 C1449 1.393 . S
C1453 C1452 1.391 . S
C1454 H1444 0.950 . S
C1454 C1455 1.386 . S
C1454 C1456 1.391 . S
C1455 C1454 1.386 . S
C1455 C1459 1.393 . S
C1456 H1445 0.950 . S
C1456 C1454 1.391 . S
C1456 C1457 1.400 . S
C1457 C1451 1.491 . S
C1457 C1456 1.400 . S
C1457 C1458 1.398 . S
C1458 H1446 0.950 . S
C1458 C1457 1.398 . S
C1458 C1459 1.391 . S
C1459 H1447 0.950 . S
C1459 C1455 1.393 . S
C1459 C1458 1.391 . S
H1460 C1468 0.950 . S
H1461 C1473 0.950 . S
H1462 C1470 0.950 . S
H1463 C1472 0.950 . S
H1464 C1474 0.950 . S
H1465 C1476 0.950 . S
H1466 C1478 0.950 . S
H1467 C1479 0.950 . S
C1468 H1460 0.950 . S
C1468 C1469 1.386 . S
C1468 C1470 1.391 . S
C1469 C1468 1.386 . S
C1469 C1473 1.393 . S
C1470 H1462 0.950 . S
C1470 C1468 1.391 . S
C1470 C1471 1.400 . S
C1471 C1470 1.400 . S
C1471 C1472 1.398 . S
C1471 C1477 1.491 . S
C1472 H1463 0.950 . S
C1472 C1471 1.398 . S
C1472 C1473 1.391 . S
C1473 H1461 0.950 . S
C1473 C1469 1.393 . S
C1473 C1472 1.391 . S
C1474 H1464 0.950 . S
C1474 C1475 1.386 . S
C1474 C1476 1.391 . S
C1475 C1474 1.386 . S
C1475 C1479 1.393 . S
C1476 H1465 0.950 . S
C1476 C1474 1.391 . S
C1476 C1477 1.400 . S
C1477 C1471 1.491 . S
C1477 C1476 1.400 . S
C1477 C1478 1.398 . S
C1478 H1466 0.950 . S
C1478 C1477 1.398 . S
C1478 C1479 1.391 . S
C1479 H1467 0.950 . S
C1479 C1475 1.393 . S
C1479 C1478 1.391 . S
H1480 C1488 0.950 . S
H1481 C1493 0.950 . S
H1482 C1490 0.950 . S
H1483 C1492 0.950 . S
H1484 C1494 0.950 . S
H1485 C1496 0.950 . S
H1486 C1498 0.950 . S
H1487 C1499 0.950 . S
C1488 H1480 0.950 . S
C1488 C1489 1.386 . S
C1488 C1490 1.391 . S
C1489 C1488 1.386 . S
C1489 C1493 1.393 . S
C1490 H1482 0.950 . S
C1490 C1488 1.391 . S
C1490 C1491 1.400 . S
C1491 C1490 1.400 . S
C1491 C1492 1.398 . S
C1491 C1497 1.491 . S
C1492 H1483 0.950 . S
C1492 C1491 1.398 . S
C1492 C1493 1.391 . S
C1493 H1481 0.950 . S
C1493 C1489 1.393 . S
C1493 C1492 1.391 . S
C1494 H1484 0.950 . S
C1494 C1495 1.386 . S
C1494 C1496 1.391 . S
C1495 C1494 1.386 . S
C1495 C1499 1.393 . S
C1496 H1485 0.950 . S
C1496 C1494 1.391 . S
C1496 C1497 1.400 . S
C1497 C1491 1.491 . S
C1497 C1496 1.400 . S
C1497 C1498 1.398 . S
C1498 H1486 0.950 . S
C1498 C1497 1.398 . S
C1498 C1499 1.391 . S
C1499 H1487 0.950 . S
C1499 C1495 1.393 . S
C1499 C1498 1.391 . S
H1500 C1508 0.950 . S
H1501 C1513 0.950 . S
H1502 C1510 0.950 . S
H1503 C1512 0.964 . S
H1504 C1514 0.950 . S
H1505 C1516 0.950 . S
H1506 C1518 0.964 . S
H1507 C1519 0.950 . S
C1508 H1500 0.950 . S
C1508 C1509 1.386 . S
C1508 C1510 1.391 . S
C1509 C1508 1.386 . S
C1509 C1513 1.393 . S
C1510 H1502 0.950 . S
C1510 C1508 1.391 . S
C1510 C1511 1.400 . S
C1511 C1510 1.400 . S
C1511 C1512 1.398 . S
C1511 C1517 1.491 1_454 S
C1512 H1503 0.964 . S
C1512 C1511 1.398 . S
C1512 C1513 1.391 . S
C1513 H1501 0.950 . S
C1513 C1509 1.393 . S
C1513 C1512 1.391 . S
C1514 H1504 0.950 . S
C1514 C1515 1.386 . S
C1514 C1516 1.391 . S
C1515 C1514 1.386 . S
C1515 C1519 1.393 . S
C1516 H1505 0.950 . S
C1516 C1514 1.391 . S
C1516 C1517 1.400 . S
C1517 C1511 1.491 1_656 S
C1517 C1516 1.400 . S
C1517 C1518 1.398 . S
C1518 H1506 0.964 . S
C1518 C1517 1.398 . S
C1518 C1519 1.391 . S
C1519 H1507 0.950 . S
C1519 C1515 1.393 . S
C1519 C1518 1.391 . S
H1520 C1528 0.950 . S
H1521 C1533 0.950 . S
H1522 C1530 0.950 . S
H1523 C1532 0.950 . S
H1524 C1534 0.950 . S
H1525 C1536 0.950 . S
H1526 C1538 0.950 . S
H1527 C1539 0.950 . S
C1528 H1520 0.950 . S
C1528 C1529 1.386 . S
C1528 C1530 1.391 . S
C1529 C1528 1.386 . S
C1529 C1533 1.393 . S
C1530 H1522 0.950 . S
C1530 C1528 1.391 . S
C1530 C1531 1.400 . S
C1531 C1530 1.400 . S
C1531 C1532 1.398 . S
C1531 C1537 1.491 . S
C1532 H1523 0.950 . S
C1532 C1531 1.398 . S
C1532 C1533 1.391 . S
C1533 H1521 0.950 . S
C1533 C1529 1.393 . S
C1533 C1532 1.391 . S
C1534 H1524 0.950 . S
C1534 C1535 1.386 . S
C1534 C1536 1.391 . S
C1535 C1534 1.386 . S
C1535 C1539 1.393 . S
C1536 H1525 0.950 . S
C1536 C1534 1.391 . S
C1536 C1537 1.400 . S
C1537 C1531 1.491 . S
C1537 C1536 1.400 . S
C1537 C1538 1.398 . S
C1538 H1526 0.950 . S
C1538 C1537 1.398 . S
C1538 C1539 1.391 . S
C1539 H1527 0.950 . S
C1539 C1535 1.393 . S
C1539 C1538 1.391 . S
H1540 C1548 0.950 . S
H1541 C1553 0.950 . S
H1542 C1550 0.950 . S
H1543 C1552 0.950 . S
H1544 C1554 0.950 . S
H1545 C1556 0.950 . S
H1546 C1558 0.950 . S
H1547 C1559 0.950 . S
C1548 H1540 0.950 . S
C1548 C1549 1.386 . S
C1548 C1550 1.391 . S
C1549 C1548 1.386 . S
C1549 C1553 1.393 . S
C1550 H1542 0.950 . S
C1550 C1548 1.391 . S
C1550 C1551 1.400 . S
C1551 C1550 1.400 . S
C1551 C1552 1.398 . S
C1551 C1557 1.491 . S
C1552 H1543 0.950 . S
C1552 C1551 1.398 . S
C1552 C1553 1.391 . S
C1553 H1541 0.950 . S
C1553 C1549 1.393 . S
C1553 C1552 1.391 . S
C1554 H1544 0.950 . S
C1554 C1555 1.386 . S
C1554 C1556 1.391 . S
C1555 C1554 1.386 . S
C1555 C1559 1.393 . S
C1556 H1545 0.950 . S
C1556 C1554 1.391 . S
C1556 C1557 1.400 . S
C1557 C1551 1.491 . S
C1557 C1556 1.400 . S
C1557 C1558 1.398 . S
C1558 H1546 0.950 . S
C1558 C1557 1.398 . S
C1558 C1559 1.391 . S
C1559 H1547 0.950 . S
C1559 C1555 1.393 . S
C1559 C1558 1.391 . S
H1560 C1568 0.950 . S
H1561 C1573 0.950 . S
H1562 C1570 0.950 1_655 S
H1563 C1572 0.950 1_554 S
H1564 C1574 0.950 . S
H1565 C1576 0.950 1_455 S
H1566 C1578 0.950 1_556 S
H1567 C1579 0.950 . S
C1568 H1560 0.950 . S
C1568 C1569 1.386 1_565 S
C1568 C1570 1.391 . S
C1569 C1568 1.386 1_545 S
C1569 C1573 1.393 . S
C1570 H1562 0.950 1_455 S
C1570 C1568 1.391 . S
C1570 C1571 1.391 1_565 S
C1571 C1570 1.391 1_545 S
C1571 C1572 1.409 . S
C1571 C1577 1.489 1_446 S
C1572 H1563 0.950 1_556 S
C1572 C1571 1.409 . S
C1572 C1573 1.391 . S
C1573 H1561 0.950 . S
C1573 C1569 1.393 . S
C1573 C1572 1.391 . S
C1574 H1564 0.950 . S
C1574 C1575 1.386 1_545 S
C1574 C1576 1.391 . S
C1575 C1574 1.386 1_565 S
C1575 C1579 1.393 . S
C1576 H1565 0.950 1_655 S
C1576 C1574 1.391 . S
C1576 C1577 1.391 1_545 S
C1577 C1571 1.489 1_664 S
C1577 C1576 1.391 1_565 S
C1577 C1578 1.409 . S
C1578 H1566 0.950 1_554 S
C1578 C1577 1.409 . S
C1578 C1579 1.391 . S
C1579 H1567 0.950 . S
C1579 C1575 1.393 . S
C1579 C1578 1.391 . S
H1580 C1588 0.950 . S
H1581 C1593 0.950 . S
H1582 C1590 0.950 . S
H1583 C1592 0.950 . S
H1584 C1594 0.950 . S
H1585 C1596 0.950 . S
H1586 C1598 0.950 . S
H1587 C1599 0.950 . S
C1588 H1580 0.950 . S
C1588 C1589 1.386 . S
C1588 C1590 1.391 . S
C1589 C1588 1.386 . S
C1589 C1593 1.393 1_545 S
C1590 H1582 0.950 . S
C1590 C1588 1.391 . S
C1590 C1591 1.400 . S
C1591 C1590 1.400 . S
C1591 C1592 1.398 1_545 S
C1591 C1597 1.491 1_545 S
C1592 H1583 0.950 . S
C1592 C1591 1.398 1_565 S
C1592 C1593 1.391 . S
C1593 H1581 0.950 . S
C1593 C1589 1.393 1_565 S
C1593 C1592 1.391 . S
C1594 H1584 0.950 . S
C1594 C1595 1.386 . S
C1594 C1596 1.391 . S
C1595 C1594 1.386 . S
C1595 C1599 1.393 1_565 S
C1596 H1585 0.950 . S
C1596 C1594 1.391 . S
C1596 C1597 1.400 . S
C1597 C1591 1.491 1_565 S
C1597 C1596 1.400 . S
C1597 C1598 1.398 1_565 S
C1598 H1586 0.950 . S
C1598 C1597 1.398 1_545 S
C1598 C1599 1.391 . S
C1599 H1587 0.950 . S
C1599 C1595 1.393 1_545 S
C1599 C1598 1.391 . S
C649 C10 3.312 . S
C655 C410 3.311 . S
C669 C50 3.311 . S
C675 C450 3.311 . S
C689 C90 3.319 . S
C695 C330 3.319 . S
C709 C130 3.315 . S
C715 C370 3.314 . S
C729 C179 3.310 . S
C735 C579 3.311 . S
C749 C219 3.309 . S
C755 C619 3.309 . S
C769 C259 3.318 . S
C775 C499 3.318 . S
C789 C299 3.309 . S
C795 C539 3.309 . S
C809 C369 3.748 . S
C815 C19 3.712 1_556 S
C829 C409 3.753 . S
C835 C59 3.710 . S
C849 C449 3.748 . S
C855 C99 3.712 . S
C869 C329 3.756 . S
C875 C139 3.703 . S
C889 C170 3.711 1_554 S
C895 C538 3.749 . S
C909 C578 3.757 . S
C915 C210 3.702 . S
C929 C618 3.758 . S
C935 C250 3.702 . S
C949 C498 3.751 . S
C955 C290 3.708 . S
C969 C49 3.752 . S
C975 C339 3.706 . S
C989 C379 3.702 . S
C995 C89 3.756 . S
C1009 C419 3.714 1_556 S
C1015 C129 3.748 . S
C1029 C459 3.711 . S
C1035 C9 3.752 . S
C1049 C490 3.706 . S
C1055 C218 3.755 . S
C1069 C258 3.748 . S
C1075 C530 3.712 . S
C1089 C298 3.750 . S
C1095 C570 3.712 1_554 S
C1109 C610 3.711 . S
C1115 C178 3.751 . S
C1129 C6 0.335 . S
C1135 C609 0.158 . S
C1149 C46 0.389 . S
C1155 C169 0.126 . S
C1169 C529 0.217 . S
C1175 C86 0.413 . S
C1189 C249 0.221 . S
C1195 C126 0.398 . S
C1209 C175 0.431 . S
C1215 C458 0.189 . S
C1229 C215 0.343 . S
C1235 C18 0.198 . S
C1249 C378 0.192 . S
C1255 C255 0.430 . S
C1269 C98 0.163 . S
C1275 C295 0.425 . S
C1289 C326 0.334 . S
C1295 C289 0.176 . S
C1309 C366 0.430 . S
C1315 C489 0.179 . S
C1329 C209 0.125 . S
C1335 C406 0.385 . S
C1349 C569 0.220 . S
C1355 C446 0.387 . S
C1369 C495 0.430 . S
C1375 C138 0.184 . S
C1389 C535 0.428 . S
C1395 C338 0.172 . S
C1409 C575 0.430 . S
C1415 C58 0.183 . S
C1429 C418 0.192 . S
C1435 C615 0.430 . S
C1449 C15 1.626 . S
C1455 C486 1.626 . S
C1469 C55 1.621 . S
C1475 C206 1.621 . S
C1489 C95 1.597 . S
C1495 C566 1.597 . S
C1509 C286 1.608 . S
C1515 C135 1.608 . S
C1529 C166 1.601 . S
C1535 C335 1.601 . S
C1549 C415 1.605 . S
C1555 C246 1.605 . S
C1569 C375 1.627 . S
C1575 C526 1.627 . S
C1589 C606 1.607 . S
C1595 C455 1.607 . S
