# Generated by pormake.
# Topology bto, (3)-cn, num edge types: 1
# Building blocks:
#     Node 0, Type 0, BuildingBlock: WUSLED_clean_sbu_0, # of connection points: 3
#     Node 1, Type 0, BuildingBlock: WUSLED_clean_sbu_0, # of connection points: 3
#     Node 2, Type 0, BuildingBlock: WUSLED_clean_sbu_0, # of connection points: 3
#     Node 3, Type 0, BuildingBlock: WUSLED_clean_sbu_0, # of connection points: 3
#     Node 4, Type 0, BuildingBlock: WUSLED_clean_sbu_0, # of connection points: 3
#     Node 5, Type 0, BuildingBlock: WUSLED_clean_sbu_0, # of connection points: 3
#     Edge 6, Type (0, 0), BuildingBlock: MIFKUJ_clean_linker_0, # of connection points: 2
#     Edge 7, Type (0, 0), BuildingBlock: MIFKUJ_clean_linker_0, # of connection points: 2
#     Edge 8, Type (0, 0), BuildingBlock: MIFKUJ_clean_linker_0, # of connection points: 2
#     Edge 9, Type (0, 0), BuildingBlock: MIFKUJ_clean_linker_0, # of connection points: 2
#     Edge 10, Type (0, 0), BuildingBlock: MIFKUJ_clean_linker_0, # of connection points: 2
#     Edge 11, Type (0, 0), BuildingBlock: MIFKUJ_clean_linker_0, # of connection points: 2
#     Edge 12, Type (0, 0), BuildingBlock: MIFKUJ_clean_linker_0, # of connection points: 2
#     Edge 13, Type (0, 0), BuildingBlock: MIFKUJ_clean_linker_0, # of connection points: 2
#     Edge 14, Type (0, 0), BuildingBlock: MIFKUJ_clean_linker_0, # of connection points: 2
# Relax obj value: 0.000
# Max RMSD: 0.004
# Mean RMSD: 0.004
data_MOF--net-bto--node1-WUSLED_clean_sbu_0--edge1-MIFKUJ_clean_linker_0
_symmetry_space_group_name_H-M    P1
_symmetry_Int_Tables_number       1
_symmetry_cell_setting            triclinic
loop_
_symmetry_equiv_pos_as_xyz
'x, y, z'
_cell_length_a     48.17758
_cell_length_b     48.155357
_cell_length_c     120.38478
_cell_angle_alpha  89.17017
_cell_angle_beta   90.694161
_cell_angle_gamma 120.11755
loop_
_atom_site_label
_atom_site_type_symbol
_atom_site_fract_x
_atom_site_fract_y
_atom_site_fract_z
_atom_type_partial_charge
C0 C 0.99465 0.52752 0.05222 0.0
C1 C 0.96514 0.50984 0.05771 0.0
C2 C 0.9393 0.52765 0.04406 0.0
C3 C 0.93776 0.5098 0.05365 0.0
C4 C 0.96908 0.54569 0.03871 0.0
C5 C 0.99638 0.54553 0.04273 0.0
U6 U 0.04933 0.52756 0.07557 0.0
O7 O 0.07473 0.50033 0.07734 0.0
O8 O 0.10196 0.55302 0.0769 0.0
C9 C 0.10319 0.52634 0.07704 0.0
C10 C 1.02371 0.52731 0.05616 0.0
C11 C 0.12669 0.52541 0.06955 0.0
C12 C 0.15428 0.53696 0.05182 0.0
C13 C 0.13089 0.53715 0.05859 0.0
C14 C 0.16899 0.51271 0.06682 0.0
C15 C 0.17382 0.52496 0.05589 0.0
C16 C 0.14572 0.513 0.07357 0.0
C17 C 1.0251 0.52933 0.10578 0.0
C18 C 0.05461 0.52722 0.12201 0.0
C19 C 1.0073 0.53201 0.12431 0.0
C20 C 1.00353 0.5319 0.11279 0.0
C21 C 0.03276 0.52948 0.12909 0.0
C22 C 0.05078 0.5271 0.11044 0.0
C23 C 1.02019 0.52895 0.09369 0.0
O24 O 0.04566 0.55374 0.06096 0.0
O25 O 1.019 0.50106 0.06134 0.0
O26 O 1.01356 0.50225 0.08866 0.0
O27 O 0.04087 0.55491 0.08825 0.0
H28 H 0.96317 0.49584 0.06509 0.0
H29 H 0.91526 0.49531 0.05794 0.0
H30 H 0.97143 0.56022 0.03144 0.0
H31 H 1.01893 0.5595 0.0384 0.0
H32 H 0.15748 0.54682 0.04348 0.0
H33 H 0.11636 0.54677 0.05531 0.0
H34 H 0.18309 0.50271 0.07017 0.0
H35 H 0.14271 0.50366 0.08198 0.0
H36 H 0.07433 0.525 0.12541 0.0
H37 H 0.99038 0.53439 0.12948 0.0
H38 H 0.98368 0.53383 0.10933 0.0
H39 H 0.06769 0.52511 0.10514 0.0
C40 C 0.60522 0.09295 0.3856 0.0
C41 C 0.62344 0.1192 0.39255 0.0
C42 C 0.66059 0.14794 0.3774 0.0
C43 C 0.65085 0.14647 0.38849 0.0
C44 C 0.64232 0.12132 0.37053 0.0
C45 C 0.61492 0.09415 0.37459 0.0
U46 U 0.55039 0.03998 0.40906 0.0
O47 O 0.49764 1.01422 0.4102 0.0
O48 O 0.5234 0.9874 0.41084 0.0
C49 C 0.49538 0.98586 0.41039 0.0
C50 C 0.57602 0.06424 0.38962 0.0
C51 C 0.47122 0.96174 0.40286 0.0
C52 C 0.45602 0.93212 0.38553 0.0
C53 C 0.47941 0.95602 0.39232 0.0
C54 C 0.41598 0.91991 0.39964 0.0
C55 C 0.42402 0.91358 0.38914 0.0
C56 C 0.43935 0.94368 0.40642 0.0
C57 C 0.57404 0.06485 0.43938 0.0
C58 C 0.5504 0.02953 0.45539 0.0
C59 C 0.58441 0.0868 0.45801 0.0
C60 C 0.58872 0.09119 0.44652 0.0
C61 C 0.56538 0.05589 0.4626 0.0
C62 C 0.55459 0.03398 0.44388 0.0
C63 C 0.57978 0.07007 0.42734 0.0
O64 O 0.58063 0.04293 0.395 0.0
O65 O 0.55472 0.06957 0.39438 0.0
O66 O 0.55993 0.07633 0.42174 0.0
O67 O 0.58597 0.04979 0.42226 0.0
H68 H 0.61634 0.11869 0.40109 0.0
H69 H 0.66408 0.1666 0.39399 0.0
H70 H 0.64934 0.12131 0.36202 0.0
H71 H 0.60125 0.07403 0.36912 0.0
H72 H 0.46316 0.92776 0.37755 0.0
H73 H 0.5039 0.96978 0.3894 0.0
H74 H 0.39154 0.90661 0.40263 0.0
H75 H 0.43252 0.94787 0.4145 0.0
H76 H 0.5353 1.00547 0.45865 0.0
H77 H 0.59658 0.10756 0.46332 0.0
H78 H 0.60383 0.11519 0.4432 0.0
H79 H 0.54284 1.01333 0.4385 0.0
C80 C 0.54994 0.58561 0.71934 0.0
C81 C 0.56028 0.6123 0.72626 0.0
C82 C 0.54966 0.6411 0.71151 0.0
C83 C 0.56025 0.63985 0.72236 0.0
C84 C 0.53897 0.61409 0.70468 0.0
C85 C 0.53917 0.58666 0.70856 0.0
U86 U 0.55119 0.53073 0.74244 0.0
O87 O 0.52631 0.47803 0.7436 0.0
O88 O 0.57895 0.50582 0.74376 0.0
C89 C 0.55317 0.47719 0.74348 0.0
C90 C 0.55052 0.55668 0.72316 0.0
C91 C 0.55426 0.45417 0.73581 0.0
C92 C 0.54249 0.42718 0.71799 0.0
C93 C 0.54185 0.44994 0.72495 0.0
C94 C 0.56844 0.41313 0.73258 0.0
C95 C 0.55575 0.40844 0.72173 0.0
C96 C 0.56765 0.43572 0.73953 0.0
C97 C 0.55089 0.55335 0.77296 0.0
C98 C 0.53362 0.51824 0.78926 0.0
C99 C 0.56887 0.5755 0.7914 0.0
C100 C 0.5686 0.57973 0.7799 0.0
C101 C 0.55127 0.54473 0.79624 0.0
C102 C 0.53355 0.52247 0.77772 0.0
C103 C 0.55048 0.55887 0.76088 0.0
O104 O 0.57701 0.56177 0.7282 0.0
O105 O 0.52438 0.53459 0.7281 0.0
O106 O 0.52433 0.5386 0.75546 0.0
O107 O 0.57699 0.56624 0.75555 0.0
H108 H 0.56848 0.61188 0.73464 0.0
H109 H 0.56826 0.66006 0.72787 0.0
H110 H 0.531 0.61435 0.69625 0.0
H111 H 0.53112 0.5663 0.7031 0.0
H112 H 0.53284 0.42442 0.70965 0.0
H113 H 0.53157 0.4641 0.72189 0.0
H114 H 0.57843 0.39886 0.73579 0.0
H115 H 0.5773 0.4386 0.74788 0.0
H116 H 0.52011 0.4942 0.79272 0.0
H117 H 0.5824 0.59645 0.79654 0.0
H118 H 0.58207 0.60375 0.77641 0.0
H119 H 0.51985 0.50167 0.77253 0.0
C120 C 0.55533 0.97956 0.65896 0.0
C121 C 0.54505 0.95276 0.6521 0.0
C122 C 0.55605 0.92438 0.66691 0.0
C123 C 0.5453 0.92537 0.65606 0.0
C124 C 0.56667 0.9515 0.67367 0.0
C125 C 0.56626 0.97878 0.66974 0.0
U126 U 0.55277 0.03323 0.63569 0.0
O127 O 0.52533 0.05848 0.63443 0.0
O128 O 0.57797 0.08587 0.63415 0.0
C129 C 0.55128 0.087 0.63443 0.0
C130 C 0.55462 1.00835 0.65506 0.0
C131 C 0.55096 0.11061 0.64201 0.0
C132 C 0.56366 0.13828 0.65971 0.0
C133 C 0.5637 0.11508 0.65282 0.0
C134 C 0.53771 0.15237 0.64513 0.0
C135 C 0.55068 0.15724 0.65594 0.0
C136 C 0.5379 0.12932 0.63825 0.0
C137 C 0.55114 1.00889 0.6053 0.0
C138 C 0.56409 0.04395 0.5891 0.0
C139 C 0.53738 0.98633 0.58678 0.0
C140 C 0.53756 0.98224 0.59829 0.0
C141 C 0.55093 1.01725 0.582 0.0
C142 C 0.56412 0.0398 0.60065 0.0
C143 C 0.55202 1.0038 0.61738 0.0
O144 O 0.58045 0.03006 0.64987 0.0
O145 O 0.52783 1.00309 0.65021 0.0
O146 O 0.52591 0.99711 0.62284 0.0
O147 O 0.57856 0.02424 0.62257 0.0
H148 H 0.53674 0.95298 0.64372 0.0
H149 H 0.53734 0.90507 0.65058 0.0
H150 H 0.57476 0.95145 0.6821 0.0
H151 H 0.57428 0.99923 0.67515 0.0
H152 H 0.57351 0.14118 0.66803 0.0
H153 H 0.57374 0.10072 0.65591 0.0
H154 H 0.52792 0.16679 0.6419 0.0
H155 H 0.52801 0.12627 0.62993 0.0
H156 H 0.575 0.06812 0.58574 0.0
H157 H 0.52648 0.96518 0.58161 0.0
H158 H 0.52724 0.95817 0.60174 0.0
H159 H 0.57464 0.06073 0.60592 0.0
C160 C 0.60156 0.52592 0.99274 0.0
C161 C 0.61562 0.51166 0.98659 0.0
C162 C 0.65694 0.52591 1.00086 0.0
C163 C 0.64296 0.51155 0.99063 0.0
C164 C 0.64288 0.54048 1.0069 0.0
C165 C 0.61546 0.54041 1.00289 0.0
U166 U 0.54705 0.52535 0.96925 0.0
O167 O 0.49444 0.4998 0.96784 0.0
O168 O 0.52156 0.55249 0.96743 0.0
C169 C 0.49313 0.52643 0.96772 0.0
C170 C 0.57258 0.52608 0.98872 0.0
C171 C 0.46952 0.5272 0.9752 0.0
C172 C 0.44175 0.51527 0.9929 0.0
C173 C 0.4653 0.51536 0.98614 0.0
C174 C 0.4269 0.53944 0.97791 0.0
C175 C 0.42205 0.52709 0.98883 0.0
C176 C 0.45034 0.53943 0.97118 0.0
C177 C 0.57125 0.52383 0.93906 0.0
C178 C 0.54155 0.52641 0.92298 0.0
C179 C 0.58936 0.52266 0.92043 0.0
C180 C 0.59308 0.52208 0.93195 0.0
C181 C 0.56368 0.52505 0.91578 0.0
C182 C 0.54533 0.52585 0.93453 0.0
C183 C 0.57631 0.52403 0.95114 0.0
O184 O 0.57773 0.55227 0.98342 0.0
O185 O 0.55055 0.49961 0.98395 0.0
O186 O 0.55566 0.49803 0.95658 0.0
O187 O 0.58293 0.55068 0.9562 0.0
H188 H 0.60536 0.50046 0.9787 0.0
H189 H 0.65283 0.49978 0.9858 0.0
H190 H 0.65323 0.55229 1.0147 0.0
H191 H 0.60512 0.55176 1.00772 0.0
H192 H 0.43855 0.50533 1.00122 0.0
H193 H 0.47994 0.50586 0.98942 0.0
H194 H 0.41268 0.54931 0.97456 0.0
H195 H 0.45335 0.54883 0.96277 0.0
H196 H 0.52168 0.52856 0.91969 0.0
H197 H 0.60654 0.52104 0.91516 0.0
H198 H 0.61315 0.52038 0.93531 0.0
H199 H 0.52825 0.52728 0.93992 0.0
C200 C 0.99751 0.48273 0.3258 0.0
C201 C 0.9792 0.45647 0.31885 0.0
C202 C 0.94204 0.42788 0.33401 0.0
C203 C 0.95174 0.42928 0.32292 0.0
C204 C 0.9604 0.45449 0.34087 0.0
C205 C 0.98785 0.48159 0.3368 0.0
U206 U 0.05229 0.53492 0.30224 0.0
O207 O 0.07926 0.58743 0.30021 0.0
O208 O 0.10503 0.56064 0.30105 0.0
C209 C 0.10729 0.58899 0.30071 0.0
C210 C 1.02674 0.51135 0.32174 0.0
C211 C 0.1314 0.61332 0.3082 0.0
C212 C 0.14654 0.64308 0.3255 0.0
C213 C 0.12321 0.61904 0.31873 0.0
C214 C 0.18654 0.65546 0.31135 0.0
C215 C 0.1785 0.66177 0.32186 0.0
C216 C 0.16322 0.63155 0.30461 0.0
C217 C 1.02771 0.50828 0.27205 0.0
C218 C 0.05415 0.5416 0.25585 0.0
C219 C 1.01253 0.48613 0.25352 0.0
C220 C 1.00895 0.48244 0.26504 0.0
C221 C 0.03493 0.51583 0.24876 0.0
C222 C 0.05056 0.53785 0.26741 0.0
C223 C 1.02252 0.50396 0.28413 0.0
O224 O 0.04807 0.5059 0.31708 0.0
O225 O 1.02215 0.53252 0.31626 0.0
O226 O 1.01662 0.52466 0.28903 0.0
O227 O 0.04257 0.49806 0.28976 0.0
H228 H 0.98627 0.45694 0.31031 0.0
H229 H 0.93844 0.40915 0.31742 0.0
H230 H 0.9534 0.45455 0.34938 0.0
H231 H 1.00159 0.50172 0.34227 0.0
H232 H 0.13939 0.64743 0.33348 0.0
H233 H 0.09876 0.60516 0.32168 0.0
H234 H 0.21096 0.66887 0.30835 0.0
H235 H 0.17005 0.62737 0.29653 0.0
H236 H 0.07145 0.56486 0.25248 0.0
H237 H 0.99775 0.46561 0.24834 0.0
H238 H 0.99132 0.45939 0.26849 0.0
H239 H 0.06531 0.55808 0.27271 0.0
H240 H 0.98521 0.49813 0.14441 0.0
H241 H 0.99003 0.49954 0.16461 0.0
H242 H 0.09261 0.56064 0.16202 0.0
H243 H 0.08795 0.55959 0.1417 0.0
H244 H 0.07639 0.51395 0.17798 0.0
H245 H 0.04777 0.59298 0.16875 0.0
H246 H 1.01641 0.6146 0.15962 0.0
H247 H 0.93188 0.54537 0.17696 0.0
H248 H 0.96262 0.523 0.18607 0.0
H249 H 0.08955 0.54902 0.23617 0.0
H250 H 0.09333 0.55503 0.21592 0.0
H251 H 0.99033 0.4972 0.21322 0.0
H252 H 0.98628 0.49208 0.23341 0.0
H253 H 1.01225 0.54818 0.19984 0.0
H254 H 0.04062 0.46682 0.20797 0.0
H255 H 0.07228 0.44532 0.21696 0.0
H256 H 0.15803 0.51992 0.20172 0.0
H257 H 0.12692 0.54211 0.19274 0.0
C258 C 1.00881 0.51209 0.14811 0.0
C259 C 0.03615 0.52907 0.14141 0.0
C260 C 1.01154 0.5128 0.15968 0.0
C261 C 0.04163 0.53063 0.16485 0.0
C262 C 0.06913 0.5468 0.15821 0.0
C263 C 0.06643 0.5461 0.1466 0.0
C264 C 0.044 0.53252 0.17717 0.0
C265 C 0.0628 0.52195 0.18277 0.0
C266 C 1.02602 0.54263 0.18343 0.0
C267 C 1.00746 0.55615 0.17803 0.0
C268 C 1.02244 0.58221 0.17056 0.0
C269 C 1.00478 0.59462 0.16539 0.0
C270 C 0.97216 0.58132 0.16769 0.0
C271 C 0.95715 0.55563 0.17518 0.0
C272 C 0.97469 0.5431 0.18036 0.0
C273 C 0.06768 0.53783 0.23127 0.0
C274 C 0.03761 0.51987 0.23644 0.0
C275 C 0.06991 0.54104 0.21968 0.0
C276 C 0.04213 0.52624 0.21302 0.0
C277 C 1.01211 0.50875 0.21817 0.0
C278 C 1.00986 0.50558 0.22973 0.0
C279 C 0.044 0.52885 0.20068 0.0
C280 C 1.02606 0.54041 0.19507 0.0
C281 C 0.06284 0.51973 0.19443 0.0
C282 C 0.08151 0.50633 0.19979 0.0
C283 C 0.06627 0.47878 0.2066 0.0
C284 C 0.0841 0.46644 0.21168 0.0
C285 C 0.11716 0.4813 0.20994 0.0
C286 C 0.13244 0.50847 0.20308 0.0
C287 C 0.11471 0.52092 0.19799 0.0
H288 H 0.13093 0.47171 0.21388 0.0
H289 H 0.95853 0.59097 0.16368 0.0
H290 H 0.54167 0.06067 0.56977 0.0
H291 H 0.54365 0.0677 0.54958 0.0
H292 H 0.5629 0.98992 0.5461 0.0
H293 H 0.56244 0.98372 0.56626 0.0
H294 H 0.60043 0.03758 0.53282 0.0
H295 H 0.48762 0.98084 0.54068 0.0
H296 H 0.43803 0.97129 0.54984 0.0
H297 H 0.45084 0.05997 0.53635 0.0
H298 H 0.50076 0.07027 0.52723 0.0
H299 H 0.56748 1.00927 0.47527 0.0
H300 H 0.56379 1.00288 0.49549 0.0
H301 H 0.55233 0.08583 0.49797 0.0
H302 H 0.55538 0.092 0.47771 0.0
H303 H 0.51094 0.03666 0.51168 0.0
H304 H 0.62362 0.09267 0.50364 0.0
H305 H 0.67278 0.10145 0.49436 0.0
H306 H 0.65954 1.01291 0.50816 0.0
H307 H 0.61002 1.00336 0.5174 0.0
C308 C 0.54663 0.04524 0.56472 0.0
C309 C 0.55175 0.02151 0.56968 0.0
C310 C 0.54739 0.04905 0.55316 0.0
C311 C 0.55296 0.02903 0.54628 0.0
C312 C 0.55839 1.00557 0.55121 0.0
C313 C 0.55779 1.00184 0.56276 0.0
C314 C 0.55359 0.03271 0.53396 0.0
C315 C 0.58065 0.03693 0.5282 0.0
C316 C 0.52815 0.03265 0.52791 0.0
C317 C 0.4981 0.02648 0.53337 0.0
C318 C 0.47999 0.99843 0.53974 0.0
C319 C 0.4518 0.99286 0.54491 0.0
C320 C 0.44134 1.01505 0.54371 0.0
C321 C 0.459 0.04283 0.53729 0.0
C322 C 0.48723 0.04853 0.53211 0.0
C323 C 0.56379 0.02593 0.4801 0.0
C324 C 0.56185 0.05123 0.47487 0.0
C325 C 0.56195 0.02241 0.49167 0.0
C326 C 0.55816 0.04411 0.49826 0.0
C327 C 0.55538 0.06888 0.49305 0.0
C328 C 0.55737 0.07251 0.48149 0.0
C329 C 0.55764 0.04125 0.51058 0.0
C330 C 0.53067 0.03727 0.51633 0.0
C331 C 0.5831 0.0414 0.51662 0.0
C332 C 0.61295 0.04715 0.51112 0.0
C333 C 0.63105 0.07494 0.50462 0.0
C334 C 0.65901 0.08008 0.49938 0.0
C335 C 0.66923 0.05771 0.50065 0.0
C336 C 0.65157 0.03019 0.50718 0.0
C337 C 0.62357 0.02492 0.51242 0.0
H338 H 0.69088 0.06174 0.49658 0.0
H339 H 0.41951 1.01069 0.54772 0.0
H340 H 0.61131 0.55833 0.90063 0.0
H341 H 0.60643 0.56005 0.88047 0.0
H342 H 0.50394 0.49783 0.88284 0.0
H343 H 0.50876 0.49519 0.90308 0.0
H344 H 0.52858 0.47962 0.8662 0.0
H345 H 0.53546 0.57746 0.87775 0.0
H346 H 0.55825 0.62887 0.88764 0.0
H347 H 0.64602 0.6651 0.86944 0.0
H348 H 0.62393 0.61373 0.85954 0.0
H349 H 0.49997 0.50737 0.8097 0.0
H350 H 0.49965 0.50252 0.82997 0.0
H351 H 0.60192 0.56772 0.83081 0.0
H352 H 0.60229 0.57288 0.81058 0.0
H353 H 0.57378 0.58372 0.84599 0.0
H354 H 0.56758 0.48492 0.83501 0.0
H355 H 0.54479 0.43336 0.8252 0.0
H356 H 0.45557 0.3989 0.84233 0.0
H357 H 0.4777 0.45043 0.85214 0.0
C358 C 0.58772 0.54477 0.89688 0.0
C359 C 0.56042 0.52657 0.90349 0.0
C360 C 0.58494 0.54605 0.88534 0.0
C361 C 0.55477 0.52936 0.88013 0.0
C362 C 0.52745 0.51099 0.88668 0.0
C363 C 0.53022 0.50972 0.89825 0.0
C364 C 0.55198 0.53098 0.86784 0.0
C365 C 0.538 0.50235 0.86178 0.0
C366 C 0.56479 0.56065 0.86206 0.0
C367 C 0.57812 0.59163 0.86797 0.0
C368 C 0.55971 0.5963 0.87592 0.0
C369 C 0.57249 0.62545 0.88152 0.0
C370 C 0.60359 0.65021 0.87919 0.0
C371 C 0.62195 0.64589 0.87124 0.0
C372 C 0.6093 0.61677 0.86563 0.0
C373 C 0.52244 0.52037 0.8142 0.0
C374 C 0.55116 0.54054 0.80852 0.0
C375 C 0.52223 0.51758 0.8258 0.0
C376 C 0.55082 0.53456 0.83195 0.0
C377 C 0.57953 0.55448 0.82627 0.0
C378 C 0.57971 0.55744 0.8147 0.0
C379 C 0.55085 0.53239 0.8443 0.0
C380 C 0.56425 0.56095 0.85039 0.0
C381 C 0.5375 0.50266 0.8501 0.0
C382 C 0.52419 0.47165 0.84422 0.0
C383 C 0.54302 0.46644 0.83662 0.0
C384 C 0.53024 0.4372 0.83107 0.0
C385 C 0.49873 0.4129 0.83312 0.0
C386 C 0.47996 0.41776 0.84074 0.0
C387 C 0.49262 0.44696 0.8463 0.0
H388 H 0.48888 0.39028 0.82882 0.0
H389 H 0.61344 0.67276 0.88354 0.0
H390 H 0.17152 0.51236 0.03357 0.0
H391 H 0.21356 0.51302 1.0222 0.0
H392 H 0.27566 0.5383 0.05092 0.0
H393 H 0.23431 0.53898 0.06223 0.0
H394 H 0.30838 0.57296 0.0335 0.0
H395 H 0.23564 0.46093 0.04062 0.0
H396 H 0.18318 0.4109 0.0409 0.0
H397 H 0.1759 0.41596 1.00543 0.0
H398 H 0.22814 0.46628 1.00495 0.0
H399 H 0.42409 0.53935 1.01116 0.0
H400 H 0.38186 0.53835 0.02252 0.0
H401 H 0.31994 0.51313 0.99376 0.0
H402 H 0.36148 0.51276 0.98245 0.0
H403 H 0.28709 0.47841 1.01117 0.0
H404 H 0.35981 0.59046 1.00407 0.0
H405 H 0.41228 0.64047 1.00378 0.0
H406 H 0.41958 0.63536 0.03925 0.0
H407 H 0.36732 0.58506 0.03973 0.0
C408 C 0.19423 0.51839 0.03746 0.0
C409 C 0.19938 0.52544 0.04886 0.0
C410 C 0.21816 0.51841 0.03096 0.0
C411 C 0.24768 0.52525 0.03572 0.0
C412 C 0.25306 0.53278 0.04705 0.0
C413 C 0.22922 0.53285 0.05354 0.0
C414 C 0.27306 0.52474 0.02892 0.0
C415 C 0.30381 0.55211 0.02874 0.0
C416 C 0.26702 0.49784 0.02249 0.0
C417 C 0.23565 0.46754 0.02276 0.0
C418 C 0.22273 0.45151 0.03289 0.0
C419 C 0.19306 0.42307 0.03308 0.0
C420 C 0.17618 0.41031 0.02319 0.0
C421 C 0.18898 0.4259 1.01308 0.0
C422 C 0.21863 0.45436 1.01284 0.0
C423 C 0.40138 0.53325 1.00727 0.0
C424 C 0.39634 0.52633 0.99585 0.0
C425 C 0.37734 0.53303 1.01376 0.0
C426 C 0.34783 0.52614 1.00898 0.0
C427 C 0.34254 0.51869 0.99764 0.0
C428 C 0.36649 0.51881 0.99115 0.0
C429 C 0.32241 0.52662 1.01576 0.0
C430 C 0.29165 0.49926 1.01594 0.0
C431 C 0.32844 0.55352 1.02219 0.0
C432 C 0.3598 0.58383 1.02192 0.0
C433 C 0.37272 0.59987 1.0118 0.0
C434 C 0.4024 0.62829 1.0116 0.0
C435 C 0.41929 0.64104 1.02149 0.0
C436 C 0.40649 0.62544 0.0316 0.0
C437 C 0.37683 0.59698 0.03184 0.0
H438 H 0.44227 0.66305 1.02132 0.0
H439 H 0.15321 0.38829 0.02336 0.0
H440 H 0.71831 0.18578 0.38792 0.0
H441 H 0.76563 0.23341 0.38059 0.0
H442 H 0.71614 0.22357 0.34952 0.0
H443 H 0.66859 0.1762 0.35683 0.0
H444 H 0.77643 0.23561 0.34609 0.0
H445 H 0.72653 0.28067 0.36796 0.0
H446 H 0.70277 0.28853 0.38481 0.0
H447 H 0.79183 0.32153 0.40237 0.0
H448 H 0.816 0.31342 0.38566 0.0
H449 H 0.88427 0.39018 0.32349 0.0
H450 H 0.83689 0.34261 0.33082 0.0
H451 H 0.88631 0.35231 0.36188 0.0
H452 H 0.93392 0.39963 0.35459 0.0
H453 H 0.82601 0.34035 0.36531 0.0
H454 H 0.87589 0.29525 0.34342 0.0
H455 H 0.8996 0.28737 0.32656 0.0
H456 H 0.81053 0.25447 0.30902 0.0
H457 H 0.7864 0.26259 0.32574 0.0
C458 C 0.71731 0.19392 0.37957 0.0
C459 C 0.68952 0.17708 0.37298 0.0
C460 C 0.74446 0.22114 0.37538 0.0
C461 C 0.74439 0.23226 0.36452 0.0
C462 C 0.71681 0.21541 0.35791 0.0
C463 C 0.68966 0.18823 0.36209 0.0
C464 C 0.77314 0.26129 0.36004 0.0
C465 C 0.787 0.25862 0.35021 0.0
C466 C 0.78742 0.29117 0.36554 0.0
C467 C 0.77297 0.29612 0.37559 0.0
C468 C 0.74097 0.28934 0.37544 0.0
C469 C 0.72744 0.29389 0.38496 0.0
C470 C 0.74575 0.30544 0.39466 0.0
C471 C 0.77766 0.31254 0.39485 0.0
C472 C 0.79129 0.30799 0.38536 0.0
C473 C 0.88524 0.38202 0.33184 0.0
C474 C 0.91303 0.3988 0.33843 0.0
C475 C 0.85805 0.35483 0.33603 0.0
C476 C 0.85808 0.34369 0.34688 0.0
C477 C 0.88566 0.36049 0.3535 0.0
C478 C 0.91286 0.38764 0.34932 0.0
C479 C 0.82931 0.31468 0.35136 0.0
C480 C 0.81543 0.31734 0.36118 0.0
C481 C 0.81501 0.2848 0.34585 0.0
C482 C 0.82944 0.27985 0.33579 0.0
C483 C 0.86144 0.28659 0.33594 0.0
C484 C 0.87494 0.28204 0.32641 0.0
C485 C 0.85661 0.27051 0.31672 0.0
C486 C 0.82471 0.26344 0.31653 0.0
C487 C 0.8111 0.26799 0.32603 0.0
H488 H 0.86711 0.26699 0.30935 0.0
H489 H 0.73523 0.30895 0.40202 0.0
H490 H 0.60234 0.92099 0.67934 0.0
H491 H 0.60122 0.87299 0.68687 0.0
H492 H 0.50853 0.81352 0.67169 0.0
H493 H 0.50918 0.8615 0.66433 0.0
H494 H 0.50983 0.79512 0.69298 0.0
H495 H 0.57519 0.81868 0.66062 0.0
H496 H 0.62003 0.8522 0.64803 0.0
H497 H 0.68764 0.86578 0.67393 0.0
H498 H 0.64317 0.83269 0.68674 0.0
H499 H 0.50361 0.64496 0.69909 0.0
H500 H 0.50503 0.69319 0.69166 0.0
H501 H 0.5977 0.75209 0.70692 0.0
H502 H 0.59674 0.70387 0.7142 0.0
H503 H 0.5966 0.77093 0.68566 0.0
H504 H 0.53133 0.7473 0.71801 0.0
H505 H 0.48655 0.71382 0.73063 0.0
H506 H 0.41882 0.70045 0.70479 0.0
H507 H 0.46325 0.73349 0.69196 0.0
C508 C 0.58164 0.89771 0.67764 0.0
C509 C 0.55585 0.89511 0.67122 0.0
C510 C 0.58116 0.87026 0.68188 0.0
C511 C 0.55491 0.83959 0.67977 0.0
C512 C 0.52908 0.83691 0.6734 0.0
C513 C 0.5296 0.86435 0.66912 0.0
C514 C 0.55417 0.81036 0.68437 0.0
C515 C 0.52857 0.78959 0.69125 0.0
C516 C 0.57903 0.80354 0.68235 0.0
C517 C 0.60583 0.82349 0.67467 0.0
C518 C 0.59961 0.82905 0.66367 0.0
C519 C 0.62496 0.84793 0.65648 0.0
C520 C 0.65666 0.86119 0.66019 0.0
C521 C 0.66307 0.85554 0.67108 0.0
C522 C 0.6378 0.8367 0.6783 0.0
C523 C 0.52437 0.66816 0.70083 0.0
C524 C 0.55006 0.67053 0.70725 0.0
C525 C 0.52503 0.69574 0.69665 0.0
C526 C 0.55136 0.72632 0.69881 0.0
C527 C 0.5771 0.72878 0.70517 0.0
C528 C 0.57639 0.7012 0.7094 0.0
C529 C 0.55223 0.75567 0.69427 0.0
C530 C 0.57786 0.77647 0.6874 0.0
C531 C 0.5274 0.76253 0.6963 0.0
C532 C 0.50063 0.7426 0.70399 0.0
C533 C 0.5069 0.73698 0.71499 0.0
C534 C 0.48157 0.71813 0.72218 0.0
C535 C 0.44986 0.70494 0.7185 0.0
C536 C 0.4434 0.71064 0.70762 0.0
C537 C 0.46865 0.72945 0.70039 0.0
H538 H 0.43029 0.69036 0.72409 0.0
H539 H 0.67626 0.87578 0.65461 0.0
H540 H 0.92182 0.52771 1.02225 0.0
H541 H 0.87427 0.52778 1.01502 0.0
H542 H 0.84213 0.52576 0.04844 0.0
H543 H 0.89008 0.52659 0.05578 0.0
H544 H 0.79356 0.48215 0.03469 0.0
H545 H 0.8741 0.59405 0.034 0.0
H546 H 0.92654 0.6409 0.02923 0.0
H547 H 0.90542 0.62166 0.9945 0.0
H548 H 0.85301 0.57438 0.99907 0.0
H549 H 0.67093 0.51823 0.02249 0.0
H550 H 0.71873 0.51876 0.02968 0.0
H551 H 0.756 0.53195 0.99643 0.0
H552 H 0.70896 0.53312 0.98922 0.0
H553 H 0.80222 0.56961 1.01005 0.0
H554 H 0.72234 0.45816 1.01033 0.0
H555 H 0.67016 0.41042 1.0147 0.0
H556 H 0.69003 0.4273 0.04959 0.0
H557 H 0.74217 0.47542 0.04542 0.0
C558 C 0.90493 0.52773 0.02809 0.0
C559 C 0.91003 0.52731 0.03963 0.0
C560 C 0.87763 0.5276 0.02393 0.0
C561 C 0.85474 0.527 0.03118 0.0
C562 C 0.85944 0.52614 0.04268 0.0
C563 C 0.88685 0.52648 0.04687 0.0
C564 C 0.82589 0.52723 0.02677 0.0
C565 C 0.7954 0.50147 0.02942 0.0
C566 C 0.82833 0.552 1.01964 0.0
C567 C 0.85977 0.58049 1.01688 0.0
C568 C 0.88075 0.59965 0.02535 0.0
C569 C 0.91044 0.62631 0.02268 0.0
C570 C 0.91934 0.6342 1.01157 0.0
C571 C 0.89851 0.61549 1.0031 0.0
C572 C 0.8688 0.58877 1.00572 0.0
C573 C 0.68941 0.52162 1.01669 0.0
C574 C 0.68594 0.52561 1.00524 0.0
C575 C 0.71662 0.5215 1.02082 0.0
C576 C 0.74085 0.5249 1.0136 0.0
C577 C 0.73761 0.52912 1.00218 0.0
C578 C 0.71048 0.52945 0.99805 0.0
C579 C 0.76973 0.52448 1.01797 0.0
C580 C 0.80027 0.55022 1.0153 0.0
C581 C 0.76734 0.49955 0.02502 0.0
C582 C 0.73603 0.47058 0.02756 0.0
C583 C 0.71548 0.45184 1.01893 0.0
C584 C 0.68593 0.42468 1.02138 0.0
C585 C 0.67675 0.41588 0.03242 0.0
C586 C 0.69715 0.43417 0.04104 0.0
C587 C 0.72672 0.46137 0.03864 0.0
H588 H 0.65386 0.39484 0.03429 0.0
H589 H 0.94234 0.65486 1.00953 0.0
H590 H 0.37561 0.85433 0.39581 0.0
H591 H 0.33407 0.81219 0.38439 0.0
H592 H 0.37483 0.87076 0.35506 0.0
H593 H 0.41578 0.9137 0.3665 0.0
H594 H 0.31112 0.84353 0.35472 0.0
H595 H 0.38569 0.80652 0.36128 0.0
H596 H 0.41942 0.79179 0.37261 0.0
H597 H 0.33574 0.71885 0.38936 0.0
H598 H 0.30153 0.73343 0.37823 0.0
H599 H 0.22673 0.7211 0.31517 0.0
H600 H 0.26824 0.76333 0.32656 0.0
H601 H 0.22773 0.70477 0.35592 0.0
H602 H 0.18683 0.66175 0.34449 0.0
H603 H 0.29134 0.73203 0.35623 0.0
H604 H 0.21677 0.76902 0.34969 0.0
H605 H 0.183 0.78373 0.33837 0.0
H606 H 0.26663 0.85669 0.3216 0.0
H607 H 0.30088 0.84212 0.33272 0.0
C608 C 0.37563 0.85846 0.38694 0.0
C609 C 0.39912 0.88753 0.3821 0.0
C610 C 0.35202 0.83413 0.3804 0.0
C611 C 0.35151 0.83807 0.36883 0.0
C612 C 0.37479 0.86708 0.36396 0.0
C613 C 0.39839 0.89151 0.37051 0.0
C614 C 0.32642 0.8121 0.36185 0.0
C615 C 0.30712 0.81926 0.35493 0.0
C616 C 0.32058 0.78018 0.36232 0.0
C617 C 0.34108 0.77128 0.36899 0.0
C618 C 0.3745 0.7875 0.36744 0.0
C619 C 0.39371 0.77915 0.37382 0.0
C620 C 0.37974 0.75446 0.38172 0.0
C621 C 0.34653 0.738 0.38324 0.0
C622 C 0.32722 0.74627 0.37689 0.0
C623 C 0.22675 0.717 0.32403 0.0
C624 C 0.20336 0.6879 0.32889 0.0
C625 C 0.25034 0.74139 0.33057 0.0
C626 C 0.25093 0.73747 0.34213 0.0
C627 C 0.22772 0.70844 0.34702 0.0
C628 C 0.20415 0.68395 0.34048 0.0
C629 C 0.27604 0.76346 0.3491 0.0
C630 C 0.29534 0.7563 0.35602 0.0
C631 C 0.28188 0.79538 0.34863 0.0
C632 C 0.26135 0.80427 0.34197 0.0
C633 C 0.22793 0.78804 0.34353 0.0
C634 C 0.20871 0.79638 0.33716 0.0
C635 C 0.22265 0.82107 0.32925 0.0
C636 C 0.25586 0.83754 0.32772 0.0
C637 C 0.27519 0.82928 0.33406 0.0
H638 H 0.20773 0.82749 0.32433 0.0
H639 H 0.39465 0.74803 0.38665 0.0
H640 H 0.59927 0.20013 0.6694 0.0
H641 H 0.60027 0.24261 0.6806 0.0
H642 H 0.50384 0.21381 0.6699 0.0
H643 H 0.50273 0.17137 0.65867 0.0
H644 H 0.54055 0.27717 0.66866 0.0
H645 H 0.52041 0.19636 0.69631 0.0
H646 H 0.5305 0.15777 0.7067 0.0
H647 H 0.6225 0.23446 0.71715 0.0
H648 H 0.61313 0.27348 0.70668 0.0
H649 H 0.50768 0.36562 0.7081 0.0
H650 H 0.50734 0.32358 0.69684 0.0
H651 H 0.60373 0.35296 0.70775 0.0
H652 H 0.60419 0.39498 0.71905 0.0
H653 H 0.56747 0.28957 0.70885 0.0
H654 H 0.58758 0.37043 0.68131 0.0
H655 H 0.5776 0.40909 0.6709 0.0
H656 H 0.48583 0.33242 0.66026 0.0
H657 H 0.49509 0.29334 0.67072 0.0
C658 C 0.57812 0.20257 0.66954 0.0
C659 C 0.55091 0.1823 0.66313 0.0
C660 C 0.57874 0.22692 0.67594 0.0
C661 C 0.55202 0.23131 0.67618 0.0
C662 C 0.52479 0.21101 0.66983 0.0
C663 C 0.52421 0.18677 0.66339 0.0
C664 C 0.55263 0.25745 0.68285 0.0
C665 C 0.546 0.2796 0.67749 0.0
C666 C 0.56054 0.2612 0.6943 0.0
C667 C 0.56619 0.23779 0.70062 0.0
C668 C 0.54289 0.20496 0.70075 0.0
C669 C 0.54846 0.18302 0.70667 0.0
C670 C 0.57715 0.19365 0.71256 0.0
C671 C 0.6003 0.22626 0.71257 0.0
C672 C 0.59486 0.2483 0.70665 0.0
C673 C 0.52897 0.36342 0.70799 0.0
C674 C 0.55597 0.38371 0.71448 0.0
C675 C 0.52873 0.33932 0.70155 0.0
C676 C 0.55562 0.33521 0.70136 0.0
C677 C 0.58266 0.35555 0.70778 0.0
C678 C 0.58286 0.37955 0.71426 0.0
C679 C 0.55533 0.30927 0.69467 0.0
C680 C 0.56202 0.28715 0.70003 0.0
C681 C 0.5475 0.30556 0.68321 0.0
C682 C 0.5419 0.32901 0.67689 0.0
C683 C 0.56517 0.36185 0.67682 0.0
C684 C 0.55966 0.38383 0.6709 0.0
C685 C 0.53107 0.37323 0.66495 0.0
C686 C 0.50795 0.34061 0.66488 0.0
C687 C 0.51333 0.31853 0.6708 0.0
H688 H 0.52685 0.39028 0.66037 0.0
H689 H 0.58142 0.17662 0.71714 0.0
loop_
_geom_bond_atom_site_label_1
_geom_bond_atom_site_label_2
_geom_bond_distance
_geom_bond_site_symmetry_2
_ccdc_geom_bond_type
C0 C1 1.264 . S
C0 C5 1.479 . S
C0 C10 1.465 . S
C1 C0 1.264 . S
C1 C3 1.339 . S
C1 H28 0.931 . S
C2 C3 1.395 . S
C2 C4 1.320 . S
C3 C1 1.339 . S
C3 C2 1.395 . S
C3 H29 0.929 . S
C4 C2 1.320 . S
C4 C5 1.405 . S
C4 H30 0.930 . S
C5 C0 1.479 . S
C5 C4 1.405 . S
C5 H31 0.931 . S
U6 O7 2.454 . S
U6 O8 2.458 . S
U6 C9 2.984 . S
U6 C10 2.847 1_455 S
U6 C23 2.882 . S
U6 O24 2.441 1_455 S
U6 O25 2.420 1_455 S
U6 O26 2.455 . S
U6 O27 2.449 1_455 S
O7 U6 2.454 . S
O7 C9 1.353 . S
O8 U6 2.458 . S
O8 C9 1.286 . S
C9 U6 2.984 . S
C9 O7 1.353 . S
C9 O8 1.286 . S
C9 C11 1.363 . S
C10 C0 1.465 . S
C10 U6 2.847 1_655 S
C10 O24 1.249 . S
C10 O25 1.202 . S
C11 C9 1.363 . S
C11 C13 1.408 . S
C11 C16 1.342 . S
C12 C13 1.310 . S
C12 C15 1.461 . S
C12 H32 0.932 . S
C13 C11 1.408 . S
C13 C12 1.310 . S
C13 H33 0.930 . S
C14 C15 1.474 . S
C14 C16 1.285 . S
C14 H34 0.929 . S
C15 C12 1.461 . S
C15 C14 1.474 . S
C16 C11 1.342 . S
C16 C14 1.285 . S
C16 H35 0.930 . S
C17 C20 1.424 1_455 S
C17 C22 1.245 . S
C17 C23 1.428 . S
C18 C21 1.260 . S
C18 C22 1.477 . S
C18 H36 0.932 . S
C19 C20 1.384 . S
C19 C21 1.479 1_655 S
C19 H37 0.929 . S
C20 C17 1.424 1_655 S
C20 C19 1.384 . S
C20 H38 0.928 . S
C21 C18 1.260 . S
C21 C19 1.479 1_455 S
C22 C17 1.245 . S
C22 C18 1.477 . S
C22 H39 0.932 . S
C23 U6 2.882 . S
C23 C17 1.428 . S
C23 O26 1.301 . S
C23 O27 1.282 1_455 S
O24 U6 2.441 1_655 S
O24 C10 1.249 . S
O25 U6 2.420 1_655 S
O25 C10 1.202 . S
O26 U6 2.455 . S
O26 C23 1.301 . S
O27 U6 2.449 1_655 S
O27 C23 1.282 1_655 S
H28 C1 0.931 . S
H29 C3 0.929 . S
H30 C4 0.930 . S
H31 C5 0.931 . S
H32 C12 0.932 . S
H33 C13 0.930 . S
H34 C14 0.929 . S
H35 C16 0.930 . S
H36 C18 0.932 . S
H37 C19 0.929 . S
H38 C20 0.928 . S
H39 C22 0.932 . S
C40 C41 1.264 . S
C40 C45 1.479 . S
C40 C50 1.465 . S
C41 C40 1.264 . S
C41 C43 1.339 . S
C41 H68 0.931 . S
C42 C43 1.395 . S
C42 C44 1.320 . S
C43 C41 1.339 . S
C43 C42 1.395 . S
C43 H69 0.929 . S
C44 C42 1.320 . S
C44 C45 1.405 . S
C44 H70 0.930 . S
C45 C40 1.479 . S
C45 C44 1.405 . S
C45 H71 0.931 . S
U46 O47 2.454 1_545 S
U46 O48 2.458 1_545 S
U46 C49 2.984 1_545 S
U46 C50 2.847 . S
U46 C63 2.882 . S
U46 O64 2.441 . S
U46 O65 2.420 . S
U46 O66 2.455 . S
U46 O67 2.449 . S
O47 U46 2.454 1_565 S
O47 C49 1.353 . S
O48 U46 2.458 1_565 S
O48 C49 1.286 . S
C49 U46 2.984 1_565 S
C49 O47 1.353 . S
C49 O48 1.286 . S
C49 C51 1.363 . S
C50 C40 1.465 . S
C50 U46 2.847 . S
C50 O64 1.249 . S
C50 O65 1.202 . S
C51 C49 1.363 . S
C51 C53 1.408 . S
C51 C56 1.342 . S
C52 C53 1.310 . S
C52 C55 1.461 . S
C52 H72 0.932 . S
C53 C51 1.408 . S
C53 C52 1.310 . S
C53 H73 0.930 . S
C54 C55 1.474 . S
C54 C56 1.285 . S
C54 H74 0.929 . S
C55 C52 1.461 . S
C55 C54 1.474 . S
C56 C51 1.342 . S
C56 C54 1.285 . S
C56 H75 0.930 . S
C57 C60 1.424 . S
C57 C62 1.255 . S
C57 C63 1.428 . S
C58 C61 1.260 . S
C58 C62 1.477 . S
C58 H76 0.932 1_545 S
C59 C60 1.384 . S
C59 C61 1.479 . S
C59 H77 0.929 . S
C60 C57 1.424 . S
C60 C59 1.384 . S
C60 H78 0.928 . S
C61 C58 1.260 . S
C61 C59 1.479 . S
C62 C57 1.255 . S
C62 C58 1.477 . S
C62 H79 0.923 1_545 S
C63 U46 2.882 . S
C63 C57 1.428 . S
C63 O66 1.301 . S
C63 O67 1.282 . S
O64 U46 2.441 . S
O64 C50 1.249 . S
O65 U46 2.420 . S
O65 C50 1.202 . S
O66 U46 2.455 . S
O66 C63 1.301 . S
O67 U46 2.449 . S
O67 C63 1.282 . S
H68 C41 0.931 . S
H69 C43 0.929 . S
H70 C44 0.930 . S
H71 C45 0.931 . S
H72 C52 0.932 . S
H73 C53 0.930 . S
H74 C54 0.929 . S
H75 C56 0.930 . S
H76 C58 0.932 1_565 S
H77 C59 0.929 . S
H78 C60 0.928 . S
H79 C62 0.923 1_565 S
C80 C81 1.264 . S
C80 C85 1.479 . S
C80 C90 1.465 . S
C81 C80 1.264 . S
C81 C83 1.339 . S
C81 H108 0.931 . S
C82 C83 1.395 . S
C82 C84 1.320 . S
C83 C81 1.339 . S
C83 C82 1.395 . S
C83 H109 0.929 . S
C84 C82 1.320 . S
C84 C85 1.405 . S
C84 H110 0.930 . S
C85 C80 1.479 . S
C85 C84 1.405 . S
C85 H111 0.931 . S
U86 O87 2.454 . S
U86 O88 2.458 . S
U86 C89 2.984 . S
U86 C90 2.847 . S
U86 C103 2.882 . S
U86 O104 2.441 . S
U86 O105 2.420 . S
U86 O106 2.455 . S
U86 O107 2.449 . S
O87 U86 2.454 . S
O87 C89 1.353 . S
O88 U86 2.458 . S
O88 C89 1.286 . S
C89 U86 2.984 . S
C89 O87 1.353 . S
C89 O88 1.286 . S
C89 C91 1.363 . S
C90 C80 1.465 . S
C90 U86 2.847 . S
C90 O104 1.249 . S
C90 O105 1.202 . S
C91 C89 1.363 . S
C91 C93 1.408 . S
C91 C96 1.342 . S
C92 C93 1.310 . S
C92 C95 1.461 . S
C92 H112 0.932 . S
C93 C91 1.408 . S
C93 C92 1.310 . S
C93 H113 0.930 . S
C94 C95 1.474 . S
C94 C96 1.285 . S
C94 H114 0.929 . S
C95 C92 1.461 . S
C95 C94 1.474 . S
C96 C91 1.342 . S
C96 C94 1.285 . S
C96 H115 0.930 . S
C97 C100 1.424 . S
C97 C102 1.245 . S
C97 C103 1.428 . S
C98 C101 1.260 . S
C98 C102 1.477 . S
C98 H116 0.932 . S
C99 C100 1.384 . S
C99 C101 1.479 . S
C99 H117 0.929 . S
C100 C97 1.424 . S
C100 C99 1.384 . S
C100 H118 0.928 . S
C101 C98 1.260 . S
C101 C99 1.479 . S
C102 C97 1.245 . S
C102 C98 1.477 . S
C102 H119 0.932 . S
C103 U86 2.882 . S
C103 C97 1.428 . S
C103 O106 1.301 . S
C103 O107 1.282 . S
O104 U86 2.441 . S
O104 C90 1.249 . S
O105 U86 2.420 . S
O105 C90 1.202 . S
O106 U86 2.455 . S
O106 C103 1.301 . S
O107 U86 2.449 . S
O107 C103 1.282 . S
H108 C81 0.931 . S
H109 C83 0.929 . S
H110 C84 0.930 . S
H111 C85 0.931 . S
H112 C92 0.932 . S
H113 C93 0.930 . S
H114 C94 0.929 . S
H115 C96 0.930 . S
H116 C98 0.932 . S
H117 C99 0.929 . S
H118 C100 0.928 . S
H119 C102 0.932 . S
C120 C121 1.264 . S
C120 C125 1.479 . S
C120 C130 1.465 . S
C121 C120 1.264 . S
C121 C123 1.339 . S
C121 H148 0.931 . S
C122 C123 1.395 . S
C122 C124 1.320 . S
C123 C121 1.339 . S
C123 C122 1.395 . S
C123 H149 0.929 . S
C124 C122 1.320 . S
C124 C125 1.405 . S
C124 H150 0.930 . S
C125 C120 1.479 . S
C125 C124 1.405 . S
C125 H151 0.931 . S
U126 O127 2.454 . S
U126 O128 2.458 . S
U126 C129 2.984 . S
U126 C130 2.847 1_545 S
U126 C143 2.882 . S
U126 O144 2.441 1_545 S
U126 O145 2.420 1_545 S
U126 O146 2.455 . S
U126 O147 2.449 1_545 S
O127 U126 2.454 . S
O127 C129 1.353 . S
O128 U126 2.458 . S
O128 C129 1.286 . S
C129 U126 2.984 . S
C129 O127 1.353 . S
C129 O128 1.286 . S
C129 C131 1.363 . S
C130 C120 1.465 . S
C130 U126 2.847 1_565 S
C130 O144 1.249 . S
C130 O145 1.202 . S
C131 C129 1.363 . S
C131 C133 1.408 . S
C131 C136 1.342 . S
C132 C133 1.310 . S
C132 C135 1.461 . S
C132 H152 0.932 . S
C133 C131 1.408 . S
C133 C132 1.310 . S
C133 H153 0.930 . S
C134 C135 1.474 . S
C134 C136 1.285 . S
C134 H154 0.929 . S
C135 C132 1.461 . S
C135 C134 1.474 . S
C136 C131 1.342 . S
C136 C134 1.285 . S
C136 H155 0.930 . S
C137 C140 1.424 1_545 S
C137 C142 1.245 . S
C137 C143 1.428 . S
C138 C141 1.260 . S
C138 C142 1.477 . S
C138 H156 0.932 . S
C139 C140 1.384 . S
C139 C141 1.479 1_565 S
C139 H157 0.929 . S
C140 C137 1.424 1_565 S
C140 C139 1.384 . S
C140 H158 0.928 . S
C141 C138 1.260 . S
C141 C139 1.479 1_545 S
C142 C137 1.245 . S
C142 C138 1.477 . S
C142 H159 0.932 . S
C143 U126 2.882 . S
C143 C137 1.428 . S
C143 O146 1.301 . S
C143 O147 1.282 1_545 S
O144 U126 2.441 1_565 S
O144 C130 1.249 . S
O145 U126 2.420 1_565 S
O145 C130 1.202 . S
O146 U126 2.455 . S
O146 C143 1.301 . S
O147 U126 2.449 1_565 S
O147 C143 1.282 1_565 S
H148 C121 0.931 . S
H149 C123 0.929 . S
H150 C124 0.930 . S
H151 C125 0.931 . S
H152 C132 0.932 . S
H153 C133 0.930 . S
H154 C134 0.929 . S
H155 C136 0.930 . S
H156 C138 0.932 . S
H157 C139 0.929 . S
H158 C140 0.928 . S
H159 C142 0.932 . S
C160 C161 1.264 . S
C160 C165 1.479 . S
C160 C170 1.465 . S
C161 C160 1.264 . S
C161 C163 1.339 . S
C161 H188 0.931 . S
C162 C163 1.395 . S
C162 C164 1.320 . S
C163 C161 1.339 . S
C163 C162 1.395 . S
C163 H189 0.929 . S
C164 C162 1.320 . S
C164 C165 1.405 . S
C164 H190 0.930 . S
C165 C160 1.479 . S
C165 C164 1.405 . S
C165 H191 0.931 . S
U166 O167 2.454 . S
U166 O168 2.458 . S
U166 C169 2.984 . S
U166 C170 2.847 . S
U166 C183 2.882 . S
U166 O184 2.441 . S
U166 O185 2.420 . S
U166 O186 2.455 . S
U166 O187 2.449 . S
O167 U166 2.454 . S
O167 C169 1.353 . S
O168 U166 2.458 . S
O168 C169 1.286 . S
C169 U166 2.984 . S
C169 O167 1.353 . S
C169 O168 1.286 . S
C169 C171 1.363 . S
C170 C160 1.465 . S
C170 U166 2.847 . S
C170 O184 1.249 . S
C170 O185 1.202 . S
C171 C169 1.363 . S
C171 C173 1.408 . S
C171 C176 1.342 . S
C172 C173 1.310 . S
C172 C175 1.461 . S
C172 H192 0.932 . S
C173 C171 1.408 . S
C173 C172 1.310 . S
C173 H193 0.930 . S
C174 C175 1.474 . S
C174 C176 1.285 . S
C174 H194 0.929 . S
C175 C172 1.461 . S
C175 C174 1.474 . S
C176 C171 1.342 . S
C176 C174 1.285 . S
C176 H195 0.930 . S
C177 C180 1.424 . S
C177 C182 1.245 . S
C177 C183 1.428 . S
C178 C181 1.260 . S
C178 C182 1.477 . S
C178 H196 0.932 . S
C179 C180 1.384 . S
C179 C181 1.479 . S
C179 H197 0.929 . S
C180 C177 1.424 . S
C180 C179 1.384 . S
C180 H198 0.928 . S
C181 C178 1.260 . S
C181 C179 1.479 . S
C182 C177 1.245 . S
C182 C178 1.477 . S
C182 H199 0.932 . S
C183 U166 2.882 . S
C183 C177 1.428 . S
C183 O186 1.301 . S
C183 O187 1.282 . S
O184 U166 2.441 . S
O184 C170 1.249 . S
O185 U166 2.420 . S
O185 C170 1.202 . S
O186 U166 2.455 . S
O186 C183 1.301 . S
O187 U166 2.449 . S
O187 C183 1.282 . S
H188 C161 0.931 . S
H189 C163 0.929 . S
H190 C164 0.930 . S
H191 C165 0.931 . S
H192 C172 0.932 . S
H193 C173 0.930 . S
H194 C174 0.929 . S
H195 C176 0.930 . S
H196 C178 0.932 . S
H197 C179 0.929 . S
H198 C180 0.928 . S
H199 C182 0.932 . S
C200 C201 1.264 . S
C200 C205 1.479 . S
C200 C210 1.465 . S
C201 C200 1.264 . S
C201 C203 1.339 . S
C201 H228 0.931 . S
C202 C203 1.395 . S
C202 C204 1.320 . S
C203 C201 1.339 . S
C203 C202 1.395 . S
C203 H229 0.929 . S
C204 C202 1.320 . S
C204 C205 1.405 . S
C204 H230 0.930 . S
C205 C200 1.479 . S
C205 C204 1.405 . S
C205 H231 0.931 . S
U206 O207 2.454 . S
U206 O208 2.458 . S
U206 C209 2.984 . S
U206 C210 2.847 1_455 S
U206 C223 2.882 . S
U206 O224 2.441 1_455 S
U206 O225 2.420 1_455 S
U206 O226 2.455 . S
U206 O227 2.449 1_455 S
O207 U206 2.454 . S
O207 C209 1.353 . S
O208 U206 2.458 . S
O208 C209 1.286 . S
C209 U206 2.984 . S
C209 O207 1.353 . S
C209 O208 1.286 . S
C209 C211 1.363 . S
C210 C200 1.465 . S
C210 U206 2.847 1_655 S
C210 O224 1.249 . S
C210 O225 1.202 . S
C211 C209 1.363 . S
C211 C213 1.408 . S
C211 C216 1.342 . S
C212 C213 1.310 . S
C212 C215 1.461 . S
C212 H232 0.932 . S
C213 C211 1.408 . S
C213 C212 1.310 . S
C213 H233 0.930 . S
C214 C215 1.474 . S
C214 C216 1.285 . S
C214 H234 0.929 . S
C215 C212 1.461 . S
C215 C214 1.474 . S
C216 C211 1.342 . S
C216 C214 1.285 . S
C216 H235 0.930 . S
C217 C220 1.424 1_455 S
C217 C222 1.245 . S
C217 C223 1.428 . S
C218 C221 1.260 . S
C218 C222 1.477 . S
C218 H236 0.932 . S
C219 C220 1.384 . S
C219 C221 1.479 1_655 S
C219 H237 0.929 . S
C220 C217 1.424 1_655 S
C220 C219 1.384 . S
C220 H238 0.928 . S
C221 C218 1.260 . S
C221 C219 1.479 1_455 S
C222 C217 1.245 . S
C222 C218 1.477 . S
C222 H239 0.932 . S
C223 U206 2.882 . S
C223 C217 1.428 . S
C223 O226 1.301 . S
C223 O227 1.282 1_455 S
O224 U206 2.441 1_655 S
O224 C210 1.249 . S
O225 U206 2.420 1_655 S
O225 C210 1.202 . S
O226 U206 2.455 . S
O226 C223 1.301 . S
O227 U206 2.449 1_655 S
O227 C223 1.282 1_655 S
H228 C201 0.931 . S
H229 C203 0.929 . S
H230 C204 0.930 . S
H231 C205 0.931 . S
H232 C212 0.932 . S
H233 C213 0.930 . S
H234 C214 0.929 . S
H235 C216 0.930 . S
H236 C218 0.932 . S
H237 C219 0.929 . S
H238 C220 0.928 . S
H239 C222 0.932 . S
H240 C258 0.951 . S
H241 C260 0.951 . S
H242 C262 0.950 . S
H243 C263 0.950 . S
H244 C265 0.950 . S
H245 C268 0.950 1_455 S
H246 C269 0.950 . S
H247 C271 0.950 . S
H248 C272 0.950 . S
H249 C273 0.951 . S
H250 C275 0.951 . S
H251 C277 0.950 . S
H252 C278 0.950 . S
H253 C280 0.925 1_655 S
H254 C283 0.950 . S
H255 C284 0.950 . S
H256 C286 0.950 . S
H257 C287 0.950 . S
C258 H240 0.951 . S
C258 C259 1.366 1_655 S
C258 C260 1.388 . S
C259 C258 1.366 1_455 S
C259 C263 1.385 . S
C260 H241 0.951 . S
C260 C258 1.388 . S
C260 C261 1.366 1_655 S
C261 C260 1.366 1_455 S
C261 C262 1.414 . S
C261 C264 1.499 . S
C262 H242 0.950 . S
C262 C261 1.414 . S
C262 C263 1.374 . S
C263 H243 0.950 . S
C263 C259 1.385 . S
C263 C262 1.374 . S
C264 C261 1.499 . S
C264 C265 1.373 . S
C264 C266 1.389 . S
C265 H244 0.950 . S
C265 C264 1.373 . S
C265 C281 1.377 . S
C266 C264 1.389 . S
C266 C267 1.524 1_455 S
C266 C280 1.377 . S
C267 C266 1.524 1_655 S
C267 C268 1.397 . S
C267 C272 1.363 . S
C268 H245 0.950 1_655 S
C268 C267 1.397 . S
C268 C269 1.334 . S
C269 H246 0.950 . S
C269 C268 1.334 . S
C269 C270 1.287 . S
C270 C269 1.287 . S
C270 C271 1.524 . S
C270 H289 0.913 . S
C271 H247 0.950 . S
C271 C270 1.524 . S
C271 C272 1.415 . S
C272 H248 0.950 . S
C272 C267 1.363 . S
C272 C271 1.415 . S
C273 H249 0.951 . S
C273 C274 1.366 . S
C273 C275 1.388 . S
C274 C273 1.366 . S
C274 C278 1.385 1_455 S
C275 H250 0.951 . S
C275 C273 1.388 . S
C275 C276 1.366 . S
C276 C275 1.366 . S
C276 C277 1.414 1_455 S
C276 C279 1.499 . S
C277 H251 0.950 . S
C277 C276 1.414 1_655 S
C277 C278 1.374 . S
C278 H252 0.950 . S
C278 C274 1.385 1_655 S
C278 C277 1.374 . S
C279 C276 1.499 . S
C279 C280 1.398 . S
C279 C281 1.389 . S
C280 H253 0.925 1_455 S
C280 C266 1.377 . S
C280 C279 1.398 . S
C281 C265 1.377 . S
C281 C279 1.389 . S
C281 C282 1.524 . S
C282 C281 1.524 . S
C282 C283 1.397 . S
C282 C287 1.363 . S
C283 H254 0.950 . S
C283 C282 1.397 . S
C283 C284 1.334 . S
C284 H255 0.950 . S
C284 C283 1.334 . S
C284 C285 1.287 . S
C285 C284 1.287 . S
C285 C286 1.524 . S
C285 H288 0.999 . S
C286 H256 0.950 . S
C286 C285 1.524 . S
C286 C287 1.415 . S
C287 H257 0.950 . S
C287 C282 1.363 . S
C287 C286 1.415 . S
H288 C285 0.999 . S
H289 C270 0.913 . S
H290 C308 0.951 . S
H291 C310 0.951 . S
H292 C312 0.950 . S
H293 C313 0.980 . S
H294 C315 0.950 . S
H295 C318 0.950 . S
H296 C319 0.950 . S
H297 C321 0.950 . S
H298 C322 0.950 . S
H299 C323 0.951 . S
H300 C325 0.951 . S
H301 C327 0.950 . S
H302 C328 0.950 . S
H303 C330 0.950 . S
H304 C333 0.950 . S
H305 C334 0.950 . S
H306 C336 0.950 1_565 S
H307 C337 0.950 1_565 S
C308 H290 0.951 . S
C308 C309 1.366 . S
C308 C310 1.388 . S
C309 C308 1.366 . S
C309 C313 1.354 1_545 S
C310 H291 0.951 . S
C310 C308 1.388 . S
C310 C311 1.366 . S
C311 C310 1.366 . S
C311 C312 1.414 1_545 S
C311 C314 1.499 . S
C312 H292 0.950 . S
C312 C311 1.414 1_565 S
C312 C313 1.375 . S
C313 H293 0.980 . S
C313 C309 1.354 1_565 S
C313 C312 1.375 . S
C314 C311 1.499 . S
C314 C315 1.373 . S
C314 C316 1.389 . S
C315 H294 0.950 . S
C315 C314 1.373 . S
C315 C331 1.377 . S
C316 C314 1.389 . S
C316 C317 1.524 . S
C316 C330 1.377 . S
C317 C316 1.524 . S
C317 C318 1.397 1_545 S
C317 C322 1.363 . S
C318 H295 0.950 . S
C318 C317 1.397 1_565 S
C318 C319 1.334 . S
C319 H296 0.950 . S
C319 C318 1.334 . S
C319 C320 1.287 . S
C320 C319 1.287 . S
C320 C321 1.524 1_565 S
C320 H339 0.913 . S
C321 H297 0.950 . S
C321 C320 1.524 1_545 S
C321 C322 1.415 . S
C322 H298 0.950 . S
C322 C317 1.363 . S
C322 C321 1.415 . S
C323 H299 0.951 . S
C323 C324 1.366 1_565 S
C323 C325 1.388 . S
C324 C323 1.366 1_545 S
C324 C328 1.385 . S
C325 H300 0.951 . S
C325 C323 1.388 . S
C325 C326 1.366 1_565 S
C326 C325 1.366 1_545 S
C326 C327 1.414 . S
C326 C329 1.499 . S
C327 H301 0.950 . S
C327 C326 1.414 . S
C327 C328 1.374 . S
C328 H302 0.950 . S
C328 C324 1.385 . S
C328 C327 1.374 . S
C329 C326 1.499 . S
C329 C330 1.373 . S
C329 C331 1.389 . S
C330 H303 0.950 . S
C330 C316 1.377 . S
C330 C329 1.373 . S
C331 C315 1.377 . S
C331 C329 1.389 . S
C331 C332 1.524 . S
C332 C331 1.524 . S
C332 C333 1.397 . S
C332 C337 1.363 . S
C333 H304 0.950 . S
C333 C332 1.397 . S
C333 C334 1.334 . S
C334 H305 0.950 . S
C334 C333 1.334 . S
C334 C335 1.287 . S
C335 C334 1.287 . S
C335 C336 1.524 . S
C335 H338 0.999 . S
C336 H306 0.950 1_545 S
C336 C335 1.524 . S
C336 C337 1.415 . S
C337 H307 0.950 1_545 S
C337 C332 1.363 . S
C337 C336 1.415 . S
H338 C335 0.999 . S
H339 C320 0.913 . S
H340 C358 0.951 . S
H341 C360 0.951 . S
H342 C362 0.950 . S
H343 C363 0.950 . S
H344 C365 0.950 . S
H345 C368 0.950 . S
H346 C369 0.950 . S
H347 C371 0.950 . S
H348 C372 0.950 . S
H349 C373 0.951 . S
H350 C375 0.951 . S
H351 C377 0.950 . S
H352 C378 0.950 . S
H353 C380 0.950 . S
H354 C383 0.950 . S
H355 C384 0.950 . S
H356 C386 0.950 . S
H357 C387 0.950 . S
C358 H340 0.951 . S
C358 C359 1.366 . S
C358 C360 1.388 . S
C359 C358 1.366 . S
C359 C363 1.385 . S
C360 H341 0.951 . S
C360 C358 1.388 . S
C360 C361 1.366 . S
C361 C360 1.366 . S
C361 C362 1.414 . S
C361 C364 1.499 . S
C362 H342 0.950 . S
C362 C361 1.414 . S
C362 C363 1.374 . S
C363 H343 0.950 . S
C363 C359 1.385 . S
C363 C362 1.374 . S
C364 C361 1.499 . S
C364 C365 1.373 . S
C364 C366 1.389 . S
C365 H344 0.950 . S
C365 C364 1.373 . S
C365 C381 1.377 . S
C366 C364 1.389 . S
C366 C367 1.524 . S
C366 C380 1.377 . S
C367 C366 1.524 . S
C367 C368 1.397 . S
C367 C372 1.363 . S
C368 H345 0.950 . S
C368 C367 1.397 . S
C368 C369 1.334 . S
C369 H346 0.950 . S
C369 C368 1.334 . S
C369 C370 1.287 . S
C370 C369 1.287 . S
C370 C371 1.524 . S
C370 H389 0.913 . S
C371 H347 0.950 . S
C371 C370 1.524 . S
C371 C372 1.415 . S
C372 H348 0.950 . S
C372 C367 1.363 . S
C372 C371 1.415 . S
C373 H349 0.951 . S
C373 C374 1.366 . S
C373 C375 1.388 . S
C374 C373 1.366 . S
C374 C378 1.385 . S
C375 H350 0.951 . S
C375 C373 1.388 . S
C375 C376 1.366 . S
C376 C375 1.366 . S
C376 C377 1.414 . S
C376 C379 1.499 . S
C377 H351 0.950 . S
C377 C376 1.414 . S
C377 C378 1.374 . S
C378 H352 0.950 . S
C378 C374 1.385 . S
C378 C377 1.374 . S
C379 C376 1.499 . S
C379 C380 1.373 . S
C379 C381 1.389 . S
C380 H353 0.950 . S
C380 C366 1.377 . S
C380 C379 1.373 . S
C381 C365 1.377 . S
C381 C379 1.389 . S
C381 C382 1.524 . S
C382 C381 1.524 . S
C382 C383 1.397 . S
C382 C387 1.363 . S
C383 H354 0.950 . S
C383 C382 1.397 . S
C383 C384 1.334 . S
C384 H355 0.950 . S
C384 C383 1.334 . S
C384 C385 1.287 . S
C385 C384 1.287 . S
C385 C386 1.524 . S
C385 H388 0.999 . S
C386 H356 0.950 . S
C386 C385 1.524 . S
C386 C387 1.415 . S
C387 H357 0.950 . S
C387 C382 1.363 . S
C387 C386 1.415 . S
H388 C385 0.999 . S
H389 C370 0.913 . S
H390 C408 0.951 . S
H391 C410 0.951 1_556 S
H392 C412 0.950 . S
H393 C413 0.950 . S
H394 C415 0.950 . S
H395 C418 0.950 . S
H396 C419 0.950 . S
H397 C421 0.950 . S
H398 C422 0.950 . S
H399 C423 0.951 . S
H400 C425 0.951 1_554 S
H401 C427 0.950 . S
H402 C428 0.950 . S
H403 C430 0.950 . S
H404 C433 0.950 . S
H405 C434 0.950 . S
H406 C436 0.950 . S
H407 C437 0.950 . S
C408 H390 0.951 . S
C408 C409 1.366 . S
C408 C410 1.388 . S
C409 C408 1.366 . S
C409 C413 1.385 . S
C410 H391 0.951 1_554 S
C410 C408 1.388 . S
C410 C411 1.366 . S
C411 C410 1.366 . S
C411 C412 1.414 . S
C411 C414 1.499 . S
C412 H392 0.950 . S
C412 C411 1.414 . S
C412 C413 1.374 . S
C413 H393 0.950 . S
C413 C409 1.385 . S
C413 C412 1.374 . S
C414 C411 1.499 . S
C414 C415 1.373 . S
C414 C416 1.359 1_554 S
C415 H394 0.950 . S
C415 C414 1.373 . S
C415 C431 1.409 . S
C416 C414 1.359 1_556 S
C416 C417 1.523 . S
C416 C430 1.405 . S
C417 C416 1.523 . S
C417 C418 1.303 1_556 S
C417 C422 1.459 . S
C418 H395 0.950 . S
C418 C417 1.303 1_554 S
C418 C419 1.334 . S
C419 H396 0.950 . S
C419 C418 1.334 . S
C419 C420 1.311 . S
C420 C419 1.311 . S
C420 C421 1.498 1_554 S
C420 H439 0.913 . S
C421 H397 0.950 . S
C421 C420 1.498 1_556 S
C421 C422 1.415 . S
C422 H398 0.950 . S
C422 C417 1.459 . S
C422 C421 1.415 . S
C423 H399 0.951 . S
C423 C424 1.366 . S
C423 C425 1.388 . S
C424 C423 1.366 . S
C424 C428 1.385 . S
C425 H400 0.951 1_556 S
C425 C423 1.388 . S
C425 C426 1.366 . S
C426 C425 1.366 . S
C426 C427 1.414 . S
C426 C429 1.499 . S
C427 H401 0.950 . S
C427 C426 1.414 . S
C427 C428 1.374 . S
C428 H402 0.950 . S
C428 C424 1.385 . S
C428 C427 1.374 . S
C429 C426 1.499 . S
C429 C430 1.373 . S
C429 C431 1.356 1_556 S
C430 H403 0.950 . S
C430 C416 1.405 . S
C430 C429 1.373 . S
C431 C415 1.409 . S
C431 C429 1.356 1_554 S
C431 C432 1.528 . S
C432 C431 1.528 . S
C432 C433 1.397 1_554 S
C432 C437 1.363 . S
C433 H404 0.950 . S
C433 C432 1.397 1_556 S
C433 C434 1.334 . S
C434 H405 0.950 . S
C434 C433 1.334 . S
C434 C435 1.306 . S
C435 C434 1.306 . S
C435 C436 1.504 1_556 S
C435 H438 0.999 . S
C436 H406 0.950 . S
C436 C435 1.504 1_554 S
C436 C437 1.415 . S
C437 H407 0.950 . S
C437 C432 1.363 . S
C437 C436 1.415 . S
H438 C435 0.999 . S
H439 C420 0.913 . S
H440 C458 0.951 . S
H441 C460 0.951 . S
H442 C462 0.950 . S
H443 C463 0.950 . S
H444 C465 0.950 . S
H445 C468 0.950 . S
H446 C469 0.950 . S
H447 C471 0.950 . S
H448 C472 0.950 . S
H449 C473 0.951 . S
H450 C475 0.951 . S
H451 C477 0.950 . S
H452 C478 0.950 . S
H453 C480 0.950 . S
H454 C483 0.950 . S
H455 C484 0.950 . S
H456 C486 0.950 . S
H457 C487 0.950 . S
C458 H440 0.951 . S
C458 C459 1.366 . S
C458 C460 1.388 . S
C459 C458 1.366 . S
C459 C463 1.385 . S
C460 H441 0.951 . S
C460 C458 1.388 . S
C460 C461 1.366 . S
C461 C460 1.366 . S
C461 C462 1.414 . S
C461 C464 1.499 . S
C462 H442 0.950 . S
C462 C461 1.414 . S
C462 C463 1.374 . S
C463 H443 0.950 . S
C463 C459 1.385 . S
C463 C462 1.374 . S
C464 C461 1.499 . S
C464 C465 1.373 . S
C464 C466 1.389 . S
C465 H444 0.950 . S
C465 C464 1.373 . S
C465 C481 1.377 . S
C466 C464 1.389 . S
C466 C467 1.524 . S
C466 C480 1.377 . S
C467 C466 1.524 . S
C467 C468 1.397 . S
C467 C472 1.363 . S
C468 H445 0.950 . S
C468 C467 1.397 . S
C468 C469 1.334 . S
C469 H446 0.950 . S
C469 C468 1.334 . S
C469 C470 1.287 . S
C470 C469 1.287 . S
C470 C471 1.524 . S
C470 H489 0.913 . S
C471 H447 0.950 . S
C471 C470 1.524 . S
C471 C472 1.415 . S
C472 H448 0.950 . S
C472 C467 1.363 . S
C472 C471 1.415 . S
C473 H449 0.951 . S
C473 C474 1.366 . S
C473 C475 1.388 . S
C474 C473 1.366 . S
C474 C478 1.385 . S
C475 H450 0.951 . S
C475 C473 1.388 . S
C475 C476 1.366 . S
C476 C475 1.366 . S
C476 C477 1.414 . S
C476 C479 1.499 . S
C477 H451 0.950 . S
C477 C476 1.414 . S
C477 C478 1.374 . S
C478 H452 0.950 . S
C478 C474 1.385 . S
C478 C477 1.374 . S
C479 C476 1.499 . S
C479 C480 1.373 . S
C479 C481 1.389 . S
C480 H453 0.950 . S
C480 C466 1.377 . S
C480 C479 1.373 . S
C481 C465 1.377 . S
C481 C479 1.389 . S
C481 C482 1.524 . S
C482 C481 1.524 . S
C482 C483 1.397 . S
C482 C487 1.363 . S
C483 H454 0.950 . S
C483 C482 1.397 . S
C483 C484 1.334 . S
C484 H455 0.950 . S
C484 C483 1.334 . S
C484 C485 1.287 . S
C485 C484 1.287 . S
C485 C486 1.524 . S
C485 H488 0.999 . S
C486 H456 0.950 . S
C486 C485 1.524 . S
C486 C487 1.415 . S
C487 H457 0.950 . S
C487 C482 1.363 . S
C487 C486 1.415 . S
H488 C485 0.999 . S
H489 C470 0.913 . S
H490 C508 0.951 . S
H491 C510 0.951 . S
H492 C512 0.950 . S
H493 C513 0.950 . S
H494 C515 0.950 . S
H495 C518 0.950 . S
H496 C519 0.950 . S
H497 C521 0.950 . S
H498 C522 0.950 . S
H499 C523 0.951 . S
H500 C525 0.951 . S
H501 C527 0.950 . S
H502 C528 0.950 . S
H503 C530 0.950 . S
H504 C533 0.950 . S
H505 C534 0.950 . S
H506 C536 0.950 . S
H507 C537 0.950 . S
C508 H490 0.951 . S
C508 C509 1.366 . S
C508 C510 1.388 . S
C509 C508 1.366 . S
C509 C513 1.385 . S
C510 H491 0.951 . S
C510 C508 1.388 . S
C510 C511 1.366 . S
C511 C510 1.366 . S
C511 C512 1.414 . S
C511 C514 1.499 . S
C512 H492 0.950 . S
C512 C511 1.414 . S
C512 C513 1.374 . S
C513 H493 0.950 . S
C513 C509 1.385 . S
C513 C512 1.374 . S
C514 C511 1.499 . S
C514 C515 1.373 . S
C514 C516 1.389 . S
C515 H494 0.950 . S
C515 C514 1.373 . S
C515 C531 1.377 . S
C516 C514 1.389 . S
C516 C517 1.524 . S
C516 C530 1.377 . S
C517 C516 1.524 . S
C517 C518 1.397 . S
C517 C522 1.363 . S
C518 H495 0.950 . S
C518 C517 1.397 . S
C518 C519 1.334 . S
C519 H496 0.950 . S
C519 C518 1.334 . S
C519 C520 1.287 . S
C520 C519 1.287 . S
C520 C521 1.524 . S
C520 H539 0.913 . S
C521 H497 0.950 . S
C521 C520 1.524 . S
C521 C522 1.415 . S
C522 H498 0.950 . S
C522 C517 1.363 . S
C522 C521 1.415 . S
C523 H499 0.951 . S
C523 C524 1.366 . S
C523 C525 1.388 . S
C524 C523 1.366 . S
C524 C528 1.385 . S
C525 H500 0.951 . S
C525 C523 1.388 . S
C525 C526 1.366 . S
C526 C525 1.366 . S
C526 C527 1.414 . S
C526 C529 1.499 . S
C527 H501 0.950 . S
C527 C526 1.414 . S
C527 C528 1.374 . S
C528 H502 0.950 . S
C528 C524 1.385 . S
C528 C527 1.374 . S
C529 C526 1.499 . S
C529 C530 1.373 . S
C529 C531 1.389 . S
C530 H503 0.950 . S
C530 C516 1.377 . S
C530 C529 1.373 . S
C531 C515 1.377 . S
C531 C529 1.389 . S
C531 C532 1.524 . S
C532 C531 1.524 . S
C532 C533 1.397 . S
C532 C537 1.363 . S
C533 H504 0.950 . S
C533 C532 1.397 . S
C533 C534 1.334 . S
C534 H505 0.950 . S
C534 C533 1.334 . S
C534 C535 1.287 . S
C535 C534 1.287 . S
C535 C536 1.524 . S
C535 H538 0.999 . S
C536 H506 0.950 . S
C536 C535 1.524 . S
C536 C537 1.415 . S
C537 H507 0.950 . S
C537 C532 1.363 . S
C537 C536 1.415 . S
H538 C535 0.999 . S
H539 C520 0.913 . S
H540 C558 0.951 . S
H541 C560 0.951 1_556 S
H542 C562 0.950 . S
H543 C563 0.950 . S
H544 C565 0.950 . S
H545 C568 0.950 . S
H546 C569 0.950 . S
H547 C571 0.950 . S
H548 C572 0.950 . S
H549 C573 0.951 . S
H550 C575 0.951 1_554 S
H551 C577 0.950 . S
H552 C578 0.950 . S
H553 C580 0.950 . S
H554 C583 0.950 . S
H555 C584 0.950 . S
H556 C586 0.950 . S
H557 C587 0.950 . S
C558 H540 0.951 . S
C558 C559 1.366 . S
C558 C560 1.388 . S
C559 C558 1.366 . S
C559 C563 1.385 . S
C560 H541 0.951 1_554 S
C560 C558 1.388 . S
C560 C561 1.366 . S
C561 C560 1.366 . S
C561 C562 1.414 . S
C561 C564 1.499 . S
C562 H542 0.950 . S
C562 C561 1.414 . S
C562 C563 1.374 . S
C563 H543 0.950 . S
C563 C559 1.385 . S
C563 C562 1.374 . S
C564 C561 1.499 . S
C564 C565 1.373 . S
C564 C566 1.389 1_554 S
C565 H544 0.950 . S
C565 C564 1.373 . S
C565 C581 1.377 . S
C566 C564 1.389 1_556 S
C566 C567 1.524 . S
C566 C580 1.377 . S
C567 C566 1.524 . S
C567 C568 1.397 1_556 S
C567 C572 1.363 . S
C568 H545 0.950 . S
C568 C567 1.397 1_554 S
C568 C569 1.334 . S
C569 H546 0.950 . S
C569 C568 1.334 . S
C569 C570 1.287 1_554 S
C570 C569 1.287 1_556 S
C570 C571 1.524 . S
C570 H589 0.913 . S
C571 H547 0.950 . S
C571 C570 1.524 . S
C571 C572 1.415 . S
C572 H548 0.950 . S
C572 C567 1.363 . S
C572 C571 1.415 . S
C573 H549 0.951 . S
C573 C574 1.366 . S
C573 C575 1.388 . S
C574 C573 1.366 . S
C574 C578 1.385 . S
C575 H550 0.951 1_556 S
C575 C573 1.388 . S
C575 C576 1.366 . S
C576 C575 1.366 . S
C576 C577 1.414 . S
C576 C579 1.499 . S
C577 H551 0.950 . S
C577 C576 1.414 . S
C577 C578 1.374 . S
C578 H552 0.950 . S
C578 C574 1.385 . S
C578 C577 1.374 . S
C579 C576 1.499 . S
C579 C580 1.373 . S
C579 C581 1.389 1_556 S
C580 H553 0.950 . S
C580 C566 1.377 . S
C580 C579 1.373 . S
C581 C565 1.377 . S
C581 C579 1.389 1_554 S
C581 C582 1.524 . S
C582 C581 1.524 . S
C582 C583 1.397 1_554 S
C582 C587 1.363 . S
C583 H554 0.950 . S
C583 C582 1.397 1_556 S
C583 C584 1.334 . S
C584 H555 0.950 . S
C584 C583 1.334 . S
C584 C585 1.287 1_556 S
C585 C584 1.287 1_554 S
C585 C586 1.524 . S
C585 H588 0.999 . S
C586 H556 0.950 . S
C586 C585 1.524 . S
C586 C587 1.415 . S
C587 H557 0.950 . S
C587 C582 1.363 . S
C587 C586 1.415 . S
H588 C585 0.999 . S
H589 C570 0.913 . S
H590 C608 0.951 . S
H591 C610 0.951 . S
H592 C612 0.950 . S
H593 C613 0.950 . S
H594 C615 0.950 . S
H595 C618 0.950 . S
H596 C619 0.950 . S
H597 C621 0.950 . S
H598 C622 0.950 . S
H599 C623 0.951 . S
H600 C625 0.951 . S
H601 C627 0.950 . S
H602 C628 0.950 . S
H603 C630 0.950 . S
H604 C633 0.950 . S
H605 C634 0.950 . S
H606 C636 0.950 . S
H607 C637 0.950 . S
C608 H590 0.951 . S
C608 C609 1.366 . S
C608 C610 1.388 . S
C609 C608 1.366 . S
C609 C613 1.385 . S
C610 H591 0.951 . S
C610 C608 1.388 . S
C610 C611 1.366 . S
C611 C610 1.366 . S
C611 C612 1.414 . S
C611 C614 1.499 . S
C612 H592 0.950 . S
C612 C611 1.414 . S
C612 C613 1.374 . S
C613 H593 0.950 . S
C613 C609 1.385 . S
C613 C612 1.374 . S
C614 C611 1.499 . S
C614 C615 1.373 . S
C614 C616 1.389 . S
C615 H594 0.950 . S
C615 C614 1.373 . S
C615 C631 1.377 . S
C616 C614 1.389 . S
C616 C617 1.524 . S
C616 C630 1.377 . S
C617 C616 1.524 . S
C617 C618 1.397 . S
C617 C622 1.363 . S
C618 H595 0.950 . S
C618 C617 1.397 . S
C618 C619 1.334 . S
C619 H596 0.950 . S
C619 C618 1.334 . S
C619 C620 1.287 . S
C620 C619 1.287 . S
C620 C621 1.524 . S
C620 H639 0.913 . S
C621 H597 0.950 . S
C621 C620 1.524 . S
C621 C622 1.415 . S
C622 H598 0.950 . S
C622 C617 1.363 . S
C622 C621 1.415 . S
C623 H599 0.951 . S
C623 C624 1.366 . S
C623 C625 1.388 . S
C624 C623 1.366 . S
C624 C628 1.385 . S
C625 H600 0.951 . S
C625 C623 1.388 . S
C625 C626 1.366 . S
C626 C625 1.366 . S
C626 C627 1.414 . S
C626 C629 1.499 . S
C627 H601 0.950 . S
C627 C626 1.414 . S
C627 C628 1.374 . S
C628 H602 0.950 . S
C628 C624 1.385 . S
C628 C627 1.374 . S
C629 C626 1.499 . S
C629 C630 1.373 . S
C629 C631 1.389 . S
C630 H603 0.950 . S
C630 C616 1.377 . S
C630 C629 1.373 . S
C631 C615 1.377 . S
C631 C629 1.389 . S
C631 C632 1.524 . S
C632 C631 1.524 . S
C632 C633 1.397 . S
C632 C637 1.363 . S
C633 H604 0.950 . S
C633 C632 1.397 . S
C633 C634 1.334 . S
C634 H605 0.950 . S
C634 C633 1.334 . S
C634 C635 1.287 . S
C635 C634 1.287 . S
C635 C636 1.524 . S
C635 H638 0.999 . S
C636 H606 0.950 . S
C636 C635 1.524 . S
C636 C637 1.415 . S
C637 H607 0.950 . S
C637 C632 1.363 . S
C637 C636 1.415 . S
H638 C635 0.999 . S
H639 C620 0.913 . S
H640 C658 0.951 . S
H641 C660 0.951 . S
H642 C662 0.950 . S
H643 C663 0.950 . S
H644 C665 0.950 . S
H645 C668 0.950 . S
H646 C669 0.950 . S
H647 C671 0.950 . S
H648 C672 0.950 . S
H649 C673 0.951 . S
H650 C675 0.951 . S
H651 C677 0.950 . S
H652 C678 0.950 . S
H653 C680 0.950 . S
H654 C683 0.950 . S
H655 C684 0.950 . S
H656 C686 0.950 . S
H657 C687 0.950 . S
C658 H640 0.951 . S
C658 C659 1.366 . S
C658 C660 1.388 . S
C659 C658 1.366 . S
C659 C663 1.385 . S
C660 H641 0.951 . S
C660 C658 1.388 . S
C660 C661 1.366 . S
C661 C660 1.366 . S
C661 C662 1.414 . S
C661 C664 1.499 . S
C662 H642 0.950 . S
C662 C661 1.414 . S
C662 C663 1.374 . S
C663 H643 0.950 . S
C663 C659 1.385 . S
C663 C662 1.374 . S
C664 C661 1.499 . S
C664 C665 1.373 . S
C664 C666 1.389 . S
C665 H644 0.950 . S
C665 C664 1.373 . S
C665 C681 1.377 . S
C666 C664 1.389 . S
C666 C667 1.524 . S
C666 C680 1.377 . S
C667 C666 1.524 . S
C667 C668 1.397 . S
C667 C672 1.363 . S
C668 H645 0.950 . S
C668 C667 1.397 . S
C668 C669 1.334 . S
C669 H646 0.950 . S
C669 C668 1.334 . S
C669 C670 1.287 . S
C670 C669 1.287 . S
C670 C671 1.524 . S
C670 H689 0.913 . S
C671 H647 0.950 . S
C671 C670 1.524 . S
C671 C672 1.415 . S
C672 H648 0.950 . S
C672 C667 1.363 . S
C672 C671 1.415 . S
C673 H649 0.951 . S
C673 C674 1.366 . S
C673 C675 1.388 . S
C674 C673 1.366 . S
C674 C678 1.385 . S
C675 H650 0.951 . S
C675 C673 1.388 . S
C675 C676 1.366 . S
C676 C675 1.366 . S
C676 C677 1.414 . S
C676 C679 1.499 . S
C677 H651 0.950 . S
C677 C676 1.414 . S
C677 C678 1.374 . S
C678 H652 0.950 . S
C678 C674 1.385 . S
C678 C677 1.374 . S
C679 C676 1.499 . S
C679 C680 1.373 . S
C679 C681 1.389 . S
C680 H653 0.950 . S
C680 C666 1.377 . S
C680 C679 1.373 . S
C681 C665 1.377 . S
C681 C679 1.389 . S
C681 C682 1.524 . S
C682 C681 1.524 . S
C682 C683 1.397 . S
C682 C687 1.363 . S
C683 H654 0.950 . S
C683 C682 1.397 . S
C683 C684 1.334 . S
C684 H655 0.950 . S
C684 C683 1.334 . S
C684 C685 1.287 . S
C685 C684 1.287 . S
C685 C686 1.524 . S
C685 H688 0.999 . S
C686 H656 0.950 . S
C686 C685 1.524 . S
C686 C687 1.415 . S
C687 H657 0.950 . S
C687 C682 1.363 . S
C687 C686 1.415 . S
H688 C685 0.999 . S
H689 C670 0.913 . S
C259 C21 1.491 . S
C274 C221 1.491 . S
C309 C141 1.488 . S
C324 C61 1.489 . S
C359 C181 1.488 . S
C374 C101 1.490 . S
C409 C15 1.501 . S
C424 C175 1.501 . S
C459 C42 1.487 . S
C474 C202 1.489 . S
C509 C122 1.486 . S
C524 C82 1.489 . S
C559 C2 1.489 . S
C574 C162 1.488 . S
C609 C55 1.500 . S
C624 C215 1.501 . S
C659 C135 1.501 . S
C674 C95 1.501 . S
