# Generated by pormake.
# Topology yfc, (5)-cn, num edge types: 1
# Building blocks:
#     Node 0, Type 0, BuildingBlock: XOMCOT_clean_sbu_0, # of connection points: 5
#     Node 1, Type 0, BuildingBlock: XOMCOT_clean_sbu_0, # of connection points: 5
#     Node 2, Type 0, BuildingBlock: XOMCOT_clean_sbu_0, # of connection points: 5
#     Node 3, Type 0, BuildingBlock: XOMCOT_clean_sbu_0, # of connection points: 5
#     Node 4, Type 0, BuildingBlock: XOMCOT_clean_sbu_0, # of connection points: 5
#     Node 5, Type 0, BuildingBlock: XOMCOT_clean_sbu_0, # of connection points: 5
#     Node 6, Type 0, BuildingBlock: XOMCOT_clean_sbu_0, # of connection points: 5
#     Node 7, Type 0, BuildingBlock: XOMCOT_clean_sbu_0, # of connection points: 5
#     Node 8, Type 0, BuildingBlock: XOMCOT_clean_sbu_0, # of connection points: 5
#     Node 9, Type 0, BuildingBlock: XOMCOT_clean_sbu_0, # of connection points: 5
#     Node 10, Type 0, BuildingBlock: XOMCOT_clean_sbu_0, # of connection points: 5
#     Node 11, Type 0, BuildingBlock: XOMCOT_clean_sbu_0, # of connection points: 5
#     Node 12, Type 0, BuildingBlock: XOMCOT_clean_sbu_0, # of connection points: 5
#     Node 13, Type 0, BuildingBlock: XOMCOT_clean_sbu_0, # of connection points: 5
#     Node 14, Type 0, BuildingBlock: XOMCOT_clean_sbu_0, # of connection points: 5
#     Node 15, Type 0, BuildingBlock: XOMCOT_clean_sbu_0, # of connection points: 5
#     Edge 16, Type (0, 0), BuildingBlock: UVAHIK_clean_linker_0, # of connection points: 2
#     Edge 17, Type (0, 0), BuildingBlock: UVAHIK_clean_linker_0, # of connection points: 2
#     Edge 18, Type (0, 0), BuildingBlock: UVAHIK_clean_linker_0, # of connection points: 2
#     Edge 19, Type (0, 0), BuildingBlock: UVAHIK_clean_linker_0, # of connection points: 2
#     Edge 20, Type (0, 0), BuildingBlock: UVAHIK_clean_linker_0, # of connection points: 2
#     Edge 21, Type (0, 0), BuildingBlock: UVAHIK_clean_linker_0, # of connection points: 2
#     Edge 22, Type (0, 0), BuildingBlock: UVAHIK_clean_linker_0, # of connection points: 2
#     Edge 23, Type (0, 0), BuildingBlock: UVAHIK_clean_linker_0, # of connection points: 2
#     Edge 24, Type (0, 0), BuildingBlock: UVAHIK_clean_linker_0, # of connection points: 2
#     Edge 25, Type (0, 0), BuildingBlock: UVAHIK_clean_linker_0, # of connection points: 2
#     Edge 26, Type (0, 0), BuildingBlock: UVAHIK_clean_linker_0, # of connection points: 2
#     Edge 27, Type (0, 0), BuildingBlock: UVAHIK_clean_linker_0, # of connection points: 2
#     Edge 28, Type (0, 0), BuildingBlock: UVAHIK_clean_linker_0, # of connection points: 2
#     Edge 29, Type (0, 0), BuildingBlock: UVAHIK_clean_linker_0, # of connection points: 2
#     Edge 30, Type (0, 0), BuildingBlock: UVAHIK_clean_linker_0, # of connection points: 2
#     Edge 31, Type (0, 0), BuildingBlock: UVAHIK_clean_linker_0, # of connection points: 2
#     Edge 32, Type (0, 0), BuildingBlock: UVAHIK_clean_linker_0, # of connection points: 2
#     Edge 33, Type (0, 0), BuildingBlock: UVAHIK_clean_linker_0, # of connection points: 2
#     Edge 34, Type (0, 0), BuildingBlock: UVAHIK_clean_linker_0, # of connection points: 2
#     Edge 35, Type (0, 0), BuildingBlock: UVAHIK_clean_linker_0, # of connection points: 2
#     Edge 36, Type (0, 0), BuildingBlock: UVAHIK_clean_linker_0, # of connection points: 2
#     Edge 37, Type (0, 0), BuildingBlock: UVAHIK_clean_linker_0, # of connection points: 2
#     Edge 38, Type (0, 0), BuildingBlock: UVAHIK_clean_linker_0, # of connection points: 2
#     Edge 39, Type (0, 0), BuildingBlock: UVAHIK_clean_linker_0, # of connection points: 2
#     Edge 40, Type (0, 0), BuildingBlock: UVAHIK_clean_linker_0, # of connection points: 2
#     Edge 41, Type (0, 0), BuildingBlock: UVAHIK_clean_linker_0, # of connection points: 2
#     Edge 42, Type (0, 0), BuildingBlock: UVAHIK_clean_linker_0, # of connection points: 2
#     Edge 43, Type (0, 0), BuildingBlock: UVAHIK_clean_linker_0, # of connection points: 2
#     Edge 44, Type (0, 0), BuildingBlock: UVAHIK_clean_linker_0, # of connection points: 2
#     Edge 45, Type (0, 0), BuildingBlock: UVAHIK_clean_linker_0, # of connection points: 2
#     Edge 46, Type (0, 0), BuildingBlock: UVAHIK_clean_linker_0, # of connection points: 2
#     Edge 47, Type (0, 0), BuildingBlock: UVAHIK_clean_linker_0, # of connection points: 2
#     Edge 48, Type (0, 0), BuildingBlock: UVAHIK_clean_linker_0, # of connection points: 2
#     Edge 49, Type (0, 0), BuildingBlock: UVAHIK_clean_linker_0, # of connection points: 2
#     Edge 50, Type (0, 0), BuildingBlock: UVAHIK_clean_linker_0, # of connection points: 2
#     Edge 51, Type (0, 0), BuildingBlock: UVAHIK_clean_linker_0, # of connection points: 2
#     Edge 52, Type (0, 0), BuildingBlock: UVAHIK_clean_linker_0, # of connection points: 2
#     Edge 53, Type (0, 0), BuildingBlock: UVAHIK_clean_linker_0, # of connection points: 2
#     Edge 54, Type (0, 0), BuildingBlock: UVAHIK_clean_linker_0, # of connection points: 2
#     Edge 55, Type (0, 0), BuildingBlock: UVAHIK_clean_linker_0, # of connection points: 2
# Relax obj value: 0.558
# Max RMSD: 0.288
# Mean RMSD: 0.265
data_MOF--net-yfc--node1-XOMCOT_clean_sbu_0--edge1-UVAHIK_clean_linker_0
_symmetry_space_group_name_H-M    P1
_symmetry_Int_Tables_number       1
_symmetry_cell_setting            triclinic
loop_
_symmetry_equiv_pos_as_xyz
'x, y, z'
_cell_length_a     50.383945
_cell_length_b     50.399118
_cell_length_c     61.626494
_cell_angle_alpha  89.985331
_cell_angle_beta   89.980172
_cell_angle_gamma 89.998306
loop_
_atom_site_label
_atom_site_type_symbol
_atom_site_fract_x
_atom_site_fract_y
_atom_site_fract_z
_atom_type_partial_charge
Co0 Co 0.7411 0.0361 0.17488 0.0
C1 C 0.74107 0.09536 0.17565 0.0
C2 C 0.73601 0.08073 0.14332 0.0
C3 C 0.73626 0.10788 0.14258 0.0
N4 N 0.73902 0.0726 0.16409 0.0
N5 N 0.73965 0.11717 0.16287 0.0
H6 H 0.74404 0.09605 0.193 0.0
H7 H 0.73282 0.06815 0.12941 0.0
C8 C 0.68236 0.04607 0.16867 0.0
O9 O 0.68653 0.0569 0.14962 0.0
N10 N 0.74335 1.0002 0.18534 0.0
C11 C 0.75979 0.98113 0.17799 0.0
C12 C 0.75326 0.95756 0.18794 0.0
C13 C 0.72739 0.98825 0.1999 0.0
N14 N 0.73295 0.96216 0.20168 0.0
C15 C 0.76258 0.0259 0.13326 0.0
C16 C 0.71922 0.00029 0.11549 0.0
C17 C 0.74147 0.00545 0.10245 0.0
C18 C 0.76356 0.01773 0.11178 0.0
C19 C 0.7193 0.00831 0.13726 0.0
N20 N 0.74025 0.02229 0.14547 0.0
H21 H 0.7794 0.03653 0.13967 0.0
H22 H 0.70244 0.00354 0.14734 0.0
H23 H 0.77488 0.98398 0.16572 0.0
H24 H 0.71129 0.99813 0.20827 0.0
O25 O 0.77908 0.03982 0.17807 0.0
O26 O 0.74949 0.04873 0.20365 0.0
O27 O 0.70138 0.03519 0.17907 0.0
C28 C 0.77424 0.0479 0.19769 0.0
H29 H 0.73365 0.11978 0.12813 0.0
H30 H 0.76236 0.93842 0.18503 0.0
H31 H 0.70195 0.99039 0.10886 0.0
H32 H 0.78103 0.02233 0.10224 0.0
Co33 Co 0.46553 0.73872 0.68228 0.0
C34 C 0.41097 0.75434 0.66764 0.0
C35 C 0.41262 0.74205 0.701 0.0
C36 C 0.38693 0.74882 0.6962 0.0
N37 N 0.42778 0.74568 0.68322 0.0
N38 N 0.38595 0.75641 0.67528 0.0
H39 H 0.41667 0.75892 0.65114 0.0
H40 H 0.4197 0.73454 0.71639 0.0
C41 C 0.46915 0.67868 0.68375 0.0
O42 O 0.4915 0.67852 0.6728 0.0
N43 N 0.50339 0.73139 0.68248 0.0
C44 C 0.52227 0.73612 0.66742 0.0
C45 C 0.54626 0.72705 0.6751 0.0
C46 C 0.51637 0.71991 0.69919 0.0
N47 N 0.54252 0.71675 0.69506 0.0
C48 C 0.47262 0.75551 0.63859 0.0
C49 C 0.44735 0.71368 0.61832 0.0
C50 C 0.45769 0.73438 0.60567 0.0
C51 C 0.47033 0.75548 0.61612 0.0
C52 C 0.45047 0.71427 0.64094 0.0
N53 N 0.46359 0.73478 0.6508 0.0
H54 H 0.48195 0.7724 0.64614 0.0
H55 H 0.44129 0.69878 0.65038 0.0
H56 H 0.51938 0.74517 0.65179 0.0
H57 H 0.50661 0.71371 0.71398 0.0
O58 O 0.47233 0.77638 0.68379 0.0
O59 O 0.46803 0.75 0.71225 0.0
O60 O 0.45706 0.70036 0.68786 0.0
C61 C 0.47118 0.77392 0.70475 0.0
H62 H 0.37001 0.74728 0.70697 0.0
H63 H 0.56486 0.72739 0.66632 0.0
H64 H 0.43693 0.69728 0.61082 0.0
H65 H 0.47793 0.77224 0.60702 0.0
Co66 Co 0.77295 0.47164 0.20808 0.0
C67 C 0.7644 0.41338 0.20708 0.0
C68 C 0.7852 0.42629 0.23561 0.0
C69 C 0.78189 0.39926 0.23678 0.0
N70 N 0.77426 0.43506 0.21702 0.0
N71 N 0.76887 0.39119 0.21884 0.0
H72 H 0.754 0.41383 0.19172 0.0
H73 H 0.79495 0.43875 0.24747 0.0
C74 C 0.83093 0.48692 0.20578 0.0
O75 O 0.82715 0.5003 0.18775 0.0
N76 N 0.77203 0.50878 0.19991 0.0
C77 C 0.76328 0.52076 0.18162 0.0
C78 C 0.76955 0.54733 0.18257 0.0
C79 C 0.78259 0.52843 0.21195 0.0
N80 N 0.7816 0.55197 0.20166 0.0
C81 C 0.75736 0.46139 0.16447 0.0
C82 C 0.80613 0.4461 0.14834 0.0
C83 C 0.78494 0.44982 0.1339 0.0
C84 C 0.76009 0.45655 0.14241 0.0
C85 C 0.80235 0.45083 0.17055 0.0
N86 N 0.77874 0.46063 0.17804 0.0
H87 H 0.7381 0.46732 0.17033 0.0
H88 H 0.81851 0.44674 0.18149 0.0
H89 H 0.75352 0.51134 0.16816 0.0
H90 H 0.7923 0.52522 0.22741 0.0
O91 O 0.73475 0.4704 0.20852 0.0
O92 O 0.7599 0.48097 0.23665 0.0
O93 O 0.8119 0.47435 0.21479 0.0
C94 C 0.73626 0.4767 0.22891 0.0
H95 H 0.78903 0.38645 0.24962 0.0
H96 H 0.76605 0.562 0.17006 0.0
H97 H 0.82542 0.43982 0.14252 0.0
H98 H 0.74302 0.45948 0.132 0.0
Co99 Co 0.04379 0.76468 0.69185 0.0
C100 C 0.099 0.75436 0.67606 0.0
C101 C 0.09741 0.76643 0.70947 0.0
C102 C 0.12346 0.76213 0.704 0.0
N103 N 0.08202 0.76135 0.69207 0.0
N104 N 0.12438 0.75467 0.68304 0.0
H105 H 0.09316 0.74917 0.65972 0.0
H106 H 0.09023 0.7732 0.72505 0.0
C107 C 0.03521 0.82458 0.69157 0.0
O108 O 0.01285 0.82289 0.68072 0.0
N109 N 0.00555 0.76812 0.69255 0.0
C110 C 0.98688 0.75635 0.68014 0.0
C111 C 0.96219 0.76421 0.68727 0.0
C112 C 0.99193 0.78205 0.7075 0.0
N113 N 0.96551 0.78056 0.70435 0.0
C114 C 0.03739 0.7447 0.6491 0.0
C115 C 0.0517 0.78972 0.62641 0.0
C116 C 0.04365 0.76709 0.61494 0.0
C117 C 0.03673 0.74436 0.62662 0.0
C118 C 0.05224 0.78917 0.64914 0.0
N119 N 0.04406 0.76712 0.66026 0.0
H120 H 0.032 0.72674 0.65746 0.0
H121 H 0.05989 0.80628 0.65751 0.0
H122 H 0.99047 0.74291 0.66688 0.0
H123 H 0.00132 0.79347 0.72024 0.0
O124 O 0.04046 0.72676 0.69478 0.0
O125 O 0.04288 0.75494 0.72224 0.0
O126 O 0.04886 0.80395 0.69605 0.0
C127 C 0.04117 0.73051 0.7156 0.0
H128 H 0.14054 0.76507 0.71438 0.0
H129 H 0.94334 0.75899 0.68002 0.0
H130 H 0.05791 0.80748 0.6179 0.0
H131 H 0.03028 0.72644 0.61847 0.0
Co132 Co 0.72976 0.47594 0.83739 0.0
C133 C 0.73115 0.41705 0.84176 0.0
C134 C 0.71245 0.43631 0.86877 0.0
C135 C 0.71107 0.40933 0.8719 0.0
N136 N 0.72522 0.44116 0.84998 0.0
N137 N 0.72274 0.39726 0.85486 0.0
H138 H 0.74104 0.41389 0.82643 0.0
H139 H 0.70405 0.45138 0.8792 0.0
C140 C 0.682 0.46519 0.81382 0.0
O141 O 0.67214 0.4754 0.8317 0.0
N142 N 0.73323 0.51091 0.82526 0.0
C143 C 0.7554 0.52551 0.82275 0.0
C144 C 0.74846 0.54953 0.81359 0.0
C145 C 0.71324 0.52612 0.81791 0.0
N146 N 0.7219 0.54984 0.8106 0.0
C147 C 0.76638 0.47915 0.87284 0.0
C148 C 0.73316 0.50932 0.89875 0.0
C149 C 0.75641 0.49855 0.90773 0.0
C150 C 0.77355 0.48411 0.89428 0.0
C151 C 0.72689 0.50417 0.87706 0.0
N152 N 0.74304 0.48864 0.86474 0.0
H153 H 0.77879 0.46618 0.86331 0.0
H154 H 0.70831 0.51119 0.87041 0.0
H155 H 0.77513 0.51923 0.82735 0.0
H156 H 0.69278 0.51979 0.81767 0.0
O157 O 0.76562 0.46632 0.82606 0.0
O158 O 0.73139 0.46059 0.80681 0.0
O159 O 0.70747 0.46382 0.8116 0.0
C160 C 0.75686 0.45879 0.80792 0.0
H161 H 0.70131 0.39938 0.88527 0.0
H162 H 0.7619 0.56559 0.8097 0.0
H163 H 0.71944 0.52061 0.90864 0.0
H164 H 0.7914 0.47503 0.90067 0.0
Co165 Co 0.03753 0.72946 0.31498 0.0
C166 C 0.0963 0.73574 0.32183 0.0
C167 C 0.07975 0.70148 0.33742 0.0
C168 C 0.10627 0.70247 0.34211 0.0
N169 N 0.07341 0.72215 0.32457 0.0
N170 N 0.11675 0.72406 0.33241 0.0
H171 H 0.09795 0.75399 0.31273 0.0
H172 H 0.06587 0.6868 0.34333 0.0
C173 C 0.01721 0.67163 0.30677 0.0
O174 O 0.99164 0.67656 0.30621 0.0
N175 N 0.00159 0.73683 0.30609 0.0
C176 C 0.98474 0.75321 0.31649 0.0
C177 C 0.96068 0.75262 0.30608 0.0
C178 C 0.98804 0.72753 0.28886 0.0
N179 N 0.96262 0.73614 0.2889 0.0
C180 C 0.03735 0.74724 0.35815 0.0
C181 C 0.00079 0.71186 0.37499 0.0
C182 C 0.01152 0.73159 0.38838 0.0
C183 C 0.03001 0.74933 0.37977 0.0
C184 C 0.00833 0.71078 0.35312 0.0
N185 N 0.02647 0.72835 0.34506 0.0
H186 H 0.05198 0.76087 0.35187 0.0
H187 H 0.99933 0.69617 0.3428 0.0
H188 H 0.98941 0.76424 0.33105 0.0
H189 H 0.9961 0.71342 0.27738 0.0
O190 O 0.04468 0.7669 0.31297 0.0
O191 O 0.04998 0.73807 0.28613 0.0
O192 O 0.03411 0.68991 0.31064 0.0
C193 C 0.05145 0.7625 0.29293 0.0
H194 H 0.11698 0.68808 0.35176 0.0
H195 H 0.94282 0.76273 0.31128 0.0
H196 H 0.98649 0.69778 0.38128 0.0
H197 H 0.03909 0.76449 0.3898 0.0
Co198 Co 0.77122 0.04543 0.80075 0.0
C199 C 0.75781 0.10222 0.80826 0.0
C200 C 0.7841 0.09614 0.78122 0.0
C201 C 0.77878 0.12276 0.78283 0.0
N202 N 0.771 0.08332 0.7971 0.0
N203 N 0.76226 0.12657 0.79978 0.0
H204 H 0.74498 0.09822 0.82196 0.0
H205 H 0.79655 0.08668 0.7692 0.0
C206 C 0.83009 0.03477 0.80638 0.0
O207 O 0.82597 0.01936 0.82324 0.0
N208 N 0.77209 0.00714 0.80335 0.0
C209 C 0.75635 0.99012 0.81439 0.0
C210 C 0.76452 0.9645 0.81011 0.0
C211 C 0.78871 0.99161 0.79195 0.0
N212 N 0.78507 0.96567 0.79617 0.0
C213 C 0.75111 0.04304 0.84373 0.0
C214 C 0.79485 0.06303 0.86518 0.0
C215 C 0.77307 0.05394 0.87724 0.0
C216 C 0.75078 0.04456 0.86619 0.0
C217 C 0.79408 0.06165 0.84246 0.0
N218 N 0.77311 0.04993 0.83211 0.0
H219 H 0.73339 0.03622 0.83577 0.0
H220 H 0.81032 0.07002 0.83332 0.0
H221 H 0.73971 0.99543 0.82447 0.0
H222 H 0.803 0.99919 0.7804 0.0
O223 O 0.73327 0.04471 0.79787 0.0
O224 O 0.76157 0.04152 0.77048 0.0
O225 O 0.81088 0.04634 0.79675 0.0
C226 C 0.73705 0.04253 0.77713 0.0
H227 H 0.78672 0.13819 0.77248 0.0
H228 H 0.75618 0.9465 0.81685 0.0
H229 H 0.8121 0.07127 0.87321 0.0
H230 H 0.73336 0.03773 0.87486 0.0
Co231 Co 0.47189 0.76993 0.3022 0.0
C232 C 0.41387 0.76056 0.30761 0.0
C233 C 0.42415 0.77624 0.27627 0.0
C234 C 0.3972 0.7723 0.27686 0.0
N235 N 0.43458 0.76877 0.29546 0.0
N236 N 0.39087 0.76261 0.29655 0.0
H237 H 0.41548 0.75311 0.32402 0.0
H238 H 0.43543 0.7841 0.26279 0.0
C239 C 0.48245 0.82899 0.30374 0.0
O240 O 0.4968 0.82662 0.32143 0.0
N241 N 0.50973 0.77184 0.30782 0.0
C242 C 0.52439 0.76406 0.32506 0.0
C243 C 0.55014 0.77252 0.32216 0.0
C244 C 0.52702 0.78413 0.29448 0.0
N245 N 0.55164 0.78508 0.30293 0.0
C246 C 0.46762 0.754 0.34634 0.0
C247 C 0.44477 0.79953 0.36286 0.0
C248 C 0.45135 0.77874 0.37694 0.0
C249 C 0.46235 0.75562 0.36842 0.0
C250 C 0.45056 0.7971 0.34066 0.0
N251 N 0.46334 0.77508 0.33286 0.0
H252 H 0.47582 0.73572 0.34023 0.0
H253 H 0.44432 0.81271 0.32984 0.0
H254 H 0.51739 0.75353 0.33911 0.0
H255 H 0.5213 0.79358 0.27941 0.0
O256 O 0.473 0.73169 0.30191 0.0
O257 O 0.47936 0.75715 0.27316 0.0
O258 O 0.47121 0.80884 0.29523 0.0
C259 C 0.47687 0.73337 0.28113 0.0
H260 H 0.38321 0.77677 0.26404 0.0
H261 H 0.5664 0.77007 0.33346 0.0
H262 H 0.43544 0.8174 0.36896 0.0
H263 H 0.46705 0.73893 0.37883 0.0
Co264 Co 0.27716 0.96273 0.84342 0.0
C265 C 0.3021 0.00977 0.82291 0.0
C266 C 0.30822 0.00999 0.85723 0.0
C267 C 0.32232 0.03075 0.84826 0.0
N268 N 0.29481 0.99719 0.8414 0.0
N269 N 0.31858 0.03038 0.82663 0.0
H270 H 0.29713 0.00301 0.80683 0.0
H271 H 0.30939 0.00368 0.87396 0.0
C272 C 0.2602 0.98827 0.8854 0.0
O273 O 0.25292 0.00956 0.87461 0.0
N274 N 0.26042 0.92814 0.84482 0.0
C275 C 0.24257 0.91873 0.83044 0.0
C276 C 0.23581 0.89331 0.83617 0.0
C277 C 0.26498 0.90791 0.85876 0.0
N278 N 0.24991 0.8865 0.85387 0.0
C279 C 0.24034 0.98622 0.8136 0.0
C280 C 0.19543 0.9763 0.83798 0.0
C281 C 0.19245 0.98279 0.81597 0.0
C282 C 0.21536 0.989 0.80408 0.0
C283 C 0.22081 0.97341 0.84681 0.0
N284 N 0.24304 0.97771 0.83452 0.0
H285 H 0.25735 0.98801 0.80322 0.0
H286 H 0.22235 0.96493 0.86284 0.0
H287 H 0.23531 0.9294 0.81643 0.0
H288 H 0.27917 0.9087 0.87193 0.0
O289 O 0.2912 0.95349 0.81524 0.0
O290 O 0.31145 0.94622 0.84668 0.0
O291 O 0.26955 0.96818 0.8753 0.0
C292 C 0.31177 0.94439 0.82563 0.0
H293 H 0.3358 0.04384 0.85677 0.0
H294 H 0.22237 0.88036 0.82747 0.0
H295 H 0.17838 0.97147 0.84793 0.0
H296 H 0.21434 0.99347 0.78692 0.0
Co297 Co 0.53913 0.27404 0.33597 0.0
C298 C 0.49334 0.3003 0.31548 0.0
C299 C 0.48847 0.29817 0.35003 0.0
C300 C 0.46709 0.31157 0.34136 0.0
N301 N 0.50481 0.291 0.33375 0.0
N302 N 0.47029 0.31301 0.31965 0.0
H303 H 0.50194 0.29821 0.29949 0.0
H304 H 0.4922 0.29482 0.36707 0.0
C305 C 0.53862 0.24078 0.37695 0.0
O306 O 0.55765 0.22559 0.36943 0.0
N307 N 0.57413 0.25721 0.33757 0.0
C308 C 0.58197 0.23449 0.32777 0.0
C309 C 0.60802 0.22957 0.33278 0.0
C310 C 0.59609 0.26599 0.34811 0.0
N311 N 0.6169 0.24933 0.34551 0.0
C312 C 0.52932 0.24474 0.29723 0.0
C313 C 0.51113 0.19874 0.31649 0.0
C314 C 0.51862 0.19806 0.29454 0.0
C315 C 0.52635 0.22194 0.28471 0.0
C316 C 0.51432 0.22215 0.32849 0.0
N317 N 0.52532 0.24419 0.31916 0.0
H318 H 0.53701 0.26221 0.28938 0.0
H319 H 0.50901 0.22184 0.34538 0.0
H320 H 0.5699 0.22175 0.31782 0.0
H321 H 0.59688 0.28399 0.35764 0.0
O322 O 0.55212 0.29604 0.31256 0.0
O323 O 0.55375 0.30667 0.34738 0.0
O324 O 0.52813 0.25867 0.365 0.0
C325 C 0.55869 0.31315 0.32738 0.0
H326 H 0.45105 0.32058 0.35043 0.0
H327 H 0.61974 0.21295 0.32712 0.0
H328 H 0.50401 0.18106 0.32461 0.0
H329 H 0.5323 0.2227 0.26785 0.0
Co330 Co 0.22971 0.53352 0.84354 0.0
C331 C 0.20368 0.48663 0.82394 0.0
C332 C 0.19837 0.48726 0.85835 0.0
C333 C 0.18278 0.46734 0.8498 0.0
N334 N 0.21203 0.49909 0.84217 0.0
N335 N 0.18594 0.46718 0.82808 0.0
H336 H 0.20868 0.49297 0.80776 0.0
H337 H 0.19791 0.49402 0.87499 0.0
C338 C 0.24956 0.507 0.88455 0.0
O339 O 0.25427 0.48478 0.87409 0.0
N340 N 0.24644 0.56817 0.84443 0.0
C341 C 0.26307 0.57812 0.82933 0.0
C342 C 0.2694 0.60373 0.83477 0.0
C343 C 0.24229 0.58824 0.8586 0.0
N344 N 0.25631 0.61016 0.85309 0.0
C345 C 0.26315 0.51323 0.80981 0.0
C346 C 0.31036 0.51932 0.83199 0.0
C347 C 0.31118 0.51575 0.80942 0.0
C348 C 0.28713 0.51138 0.79855 0.0
C349 C 0.28592 0.52136 0.84261 0.0
N350 N 0.26256 0.51907 0.83144 0.0
H351 H 0.24521 0.51316 0.8004 0.0
H352 H 0.28613 0.5277 0.8593 0.0
H353 H 0.26952 0.56786 0.81487 0.0
H354 H 0.22889 0.58703 0.87231 0.0
O355 O 0.21184 0.54387 0.81706 0.0
O356 O 0.19618 0.54948 0.85042 0.0
O357 O 0.24104 0.52739 0.87442 0.0
C358 C 0.19288 0.55237 0.82965 0.0
H359 H 0.16856 0.45545 0.85869 0.0
H360 H 0.28163 0.61712 0.82533 0.0
H361 H 0.32837 0.52259 0.84119 0.0
H362 H 0.28648 0.50919 0.78108 0.0
Co363 Co 0.97281 0.23601 0.34056 0.0
C364 C 0.01989 0.2079 0.32325 0.0
C365 C 0.01971 0.20665 0.3579 0.0
C366 C 0.04038 0.19114 0.35044 0.0
N367 N 0.00719 0.21789 0.34083 0.0
N368 N 0.0403 0.19183 0.32859 0.0
H369 H 0.01346 0.211 0.30674 0.0
H370 H 0.01327 0.20781 0.37459 0.0
C371 C 0.99382 0.25564 0.38343 0.0
O372 O 0.01549 0.26393 0.37367 0.0
N373 N 0.93824 0.2529 0.33957 0.0
C374 C 0.92957 0.26853 0.32331 0.0
C375 C 0.90354 0.27504 0.32706 0.0
C376 C 0.91706 0.24942 0.35274 0.0
N377 N 0.89561 0.263 0.3455 0.0
C378 C 0.00338 0.2717 0.31369 0.0
C379 C 0.98351 0.31729 0.33247 0.0
C380 C 0.99628 0.31935 0.31223 0.0
C381 C 0.008 0.29622 0.30379 0.0
C382 C 0.9804 0.29254 0.34233 0.0
N383 N 0.98884 0.26987 0.3323 0.0
H384 H 0.00967 0.25422 0.30522 0.0
H385 H 0.96832 0.29139 0.35679 0.0
H386 H 0.94122 0.27422 0.30931 0.0
H387 H 0.91716 0.23677 0.36694 0.0
O388 O 0.96565 0.22163 0.31209 0.0
O389 O 0.95567 0.20215 0.34339 0.0
O390 O 0.97541 0.24443 0.37251 0.0
C391 C 0.95502 0.20162 0.32229 0.0
H392 H 0.05323 0.17885 0.36029 0.0
H393 H 0.89098 0.28668 0.31644 0.0
H394 H 0.97375 0.33405 0.33995 0.0
H395 H 0.01914 0.29649 0.2888 0.0
Co396 Co 0.27175 0.53902 0.16013 0.0
C397 C 0.2987 0.4929 0.17972 0.0
C398 C 0.29627 0.48877 0.14515 0.0
C399 C 0.31005 0.46739 0.15341 0.0
N400 N 0.28903 0.5047 0.1617 0.0
N401 N 0.31169 0.47014 0.17513 0.0
H402 H 0.29677 0.50106 0.19587 0.0
H403 H 0.2928 0.49277 0.12818 0.0
C404 C 0.24571 0.54337 0.11583 0.0
O405 O 0.23119 0.56342 0.1224 0.0
N406 N 0.25478 0.57387 0.15945 0.0
C407 C 0.23262 0.58142 0.17016 0.0
C408 C 0.22839 0.60799 0.16681 0.0
C409 C 0.264 0.59642 0.15012 0.0
N410 N 0.24808 0.61746 0.15423 0.0
C411 C 0.23899 0.52158 0.19522 0.0
C412 C 0.19307 0.51436 0.17148 0.0
C413 C 0.19135 0.51577 0.19415 0.0
C414 C 0.21493 0.51784 0.20607 0.0
C415 C 0.21761 0.51786 0.16126 0.0
N416 N 0.23988 0.52345 0.1731 0.0
H417 H 0.25651 0.52517 0.20481 0.0
H418 H 0.21791 0.51765 0.14386 0.0
H419 H 0.22042 0.569 0.18031 0.0
H420 H 0.28195 0.59746 0.14052 0.0
O421 O 0.29022 0.55021 0.18616 0.0
O422 O 0.30535 0.55503 0.15266 0.0
O423 O 0.26041 0.53064 0.12922 0.0
C424 C 0.30899 0.55849 0.17334 0.0
H425 H 0.31921 0.4517 0.14404 0.0
H426 H 0.21256 0.61966 0.17388 0.0
H427 H 0.17538 0.51202 0.16168 0.0
H428 H 0.21461 0.51888 0.22362 0.0
Co429 Co 0.95914 0.27958 0.66036 0.0
C430 C 0.00071 0.3168 0.67631 0.0
C431 C 0.01377 0.29517 0.64834 0.0
C432 C 0.03478 0.30979 0.65623 0.0
N433 N 0.99231 0.29951 0.66094 0.0
N434 N 0.0266 0.32326 0.67392 0.0
H435 H 0.98878 0.32308 0.68995 0.0
H436 H 0.0147 0.2812 0.63507 0.0
C437 C 0.95508 0.25446 0.6153 0.0
O438 O 0.93581 0.23881 0.62166 0.0
N439 N 0.92578 0.26002 0.66079 0.0
C440 C 0.91914 0.2406 0.67488 0.0
C441 C 0.89329 0.23321 0.67127 0.0
C442 C 0.90314 0.26532 0.64975 0.0
N443 N 0.88329 0.24866 0.65543 0.0
C444 C 0.98944 0.25159 0.69188 0.0
C445 C 0.98178 0.20156 0.67491 0.0
C446 C 0.99032 0.20374 0.69663 0.0
C447 C 0.99639 0.22941 0.70419 0.0
C448 C 0.97638 0.22434 0.66274 0.0
N449 N 0.97801 0.24888 0.67195 0.0
H450 H 0.99147 0.27098 0.69911 0.0
H451 H 0.96817 0.22176 0.64686 0.0
H452 H 0.93182 0.2328 0.68749 0.0
H453 H 0.90142 0.28063 0.6375 0.0
O454 O 0.94812 0.2954 0.68742 0.0
O455 O 0.93945 0.31173 0.6547 0.0
O456 O 0.96686 0.26976 0.62885 0.0
C457 C 0.93661 0.31351 0.67565 0.0
H458 H 0.05477 0.30974 0.6498 0.0
H459 H 0.88237 0.21818 0.68011 0.0
H460 H 0.97701 0.18269 0.6676 0.0
H461 H 0.00481 0.23279 0.72006 0.0
Co462 Co 0.24366 0.97409 0.16355 0.0
C463 C 0.20882 0.01567 0.18223 0.0
C464 C 0.22556 0.02833 0.15198 0.0
C465 C 0.21066 0.04885 0.16048 0.0
N466 N 0.22429 0.00741 0.16559 0.0
N467 N 0.20013 0.0408 0.17951 0.0
H468 H 0.20476 0.00398 0.19655 0.0
H469 H 0.23703 0.02907 0.13717 0.0
C470 C 0.268 0.97037 0.11868 0.0
O471 O 0.28564 0.95339 0.12593 0.0
N472 N 0.26292 0.94053 0.16259 0.0
C473 C 0.28516 0.93426 0.1737 0.0
C474 C 0.29121 0.90807 0.17014 0.0
C475 C 0.25537 0.91759 0.15292 0.0
N476 N 0.27251 0.89758 0.15711 0.0
C477 C 0.27612 0.99596 0.19673 0.0
C478 C 0.32162 0.00186 0.17228 0.0
C479 C 0.3238 0.00106 0.19499 0.0
C480 C 0.30034 1.00004 0.20719 0.0
C481 C 0.29694 0.99768 0.16247 0.0
N482 N 0.27505 0.99225 0.17479 0.0
H483 H 0.25862 0.99337 0.20658 0.0
H484 H 0.29619 0.99727 0.14509 0.0
H485 H 0.29605 0.94731 0.18431 0.0
H486 H 0.23772 0.91557 0.14305 0.0
O487 O 0.22854 0.96221 0.19066 0.0
O488 O 0.21087 0.95524 0.15823 0.0
O489 O 0.25207 0.98199 0.13184 0.0
C490 C 0.20961 0.95184 0.17912 0.0
H491 H 0.20797 0.06823 0.15324 0.0
H492 H 0.30754 0.89729 0.17739 0.0
H493 H 0.33908 0.00391 0.16216 0.0
H494 H 0.30076 0.9998 0.22476 0.0
Co495 Co 0.53052 0.2212 0.64945 0.0
C496 C 0.48336 0.19692 0.67003 0.0
C497 C 0.48357 0.18995 0.6358 0.0
C498 C 0.46294 0.17576 0.64488 0.0
N499 N 0.49605 0.20382 0.65152 0.0
N500 N 0.46306 0.18001 0.66646 0.0
H501 H 0.48988 0.20248 0.68603 0.0
H502 H 0.4901 0.18861 0.61913 0.0
C503 C 0.50339 0.23986 0.60831 0.0
O504 O 0.48129 0.245 0.61882 0.0
N505 N 0.56522 0.23785 0.64797 0.0
C506 C 0.57511 0.25517 0.66257 0.0
C507 C 0.60065 0.26144 0.65696 0.0
C508 C 0.58538 0.23312 0.63398 0.0
N509 N 0.60716 0.24757 0.63908 0.0
C510 C 0.51219 0.25571 0.68309 0.0
C511 C 0.51817 0.30206 0.65973 0.0
C512 C 0.51759 0.30351 0.68246 0.0
C513 C 0.51279 0.27997 0.69401 0.0
C514 C 0.51819 0.27735 0.64948 0.0
N515 N 0.51641 0.25436 0.66122 0.0
H516 H 0.51222 0.23803 0.69283 0.0
H517 H 0.52306 0.27706 0.63249 0.0
H518 H 0.565 0.2621 0.67692 0.0
H519 H 0.58438 0.21898 0.62079 0.0
O520 O 0.54135 0.2038 0.67605 0.0
O521 O 0.54629 0.18752 0.64284 0.0
O522 O 0.52393 0.23177 0.61847 0.0
C523 C 0.54975 0.18468 0.66358 0.0
H524 H 0.45019 0.16183 0.63652 0.0
H525 H 0.614 0.27405 0.66608 0.0
H526 H 0.52114 0.31965 0.64994 0.0
H527 H 0.51252 0.27966 0.71156 0.0
C528 C 0.71242 0.91802 0.20465 0.0
C529 C 0.71825 0.9428 0.21382 0.0
C530 C 0.69676 0.89974 0.21586 0.0
C531 C 0.64848 0.89579 0.26153 0.0
H532 H 0.657 0.82012 0.25233 0.0
C533 C 0.5892 0.81565 0.30824 0.0
C534 C 0.57372 0.79977 0.29445 0.0
C535 C 0.60905 0.83195 0.2997 0.0
C536 C 0.65453 0.84121 0.25504 0.0
H537 H 0.71326 0.96771 0.24207 0.0
H538 H 0.68696 0.93537 0.26228 0.0
H539 H 0.68839 0.85098 0.23578 0.0
H540 H 0.5673 0.78758 0.26121 0.0
H541 H 0.60276 0.81555 0.24625 0.0
H542 H 0.61497 0.88566 0.2813 0.0
C543 C 0.69355 0.93027 0.2461 0.0
C544 C 0.67232 0.85896 0.24544 0.0
C545 C 0.70875 0.94877 0.23464 0.0
C546 C 0.57902 0.79972 0.27209 0.0
C547 C 0.59927 0.81556 0.2636 0.0
C548 C 0.63108 0.87799 0.27148 0.0
C549 C 0.687 0.90562 0.23673 0.0
C550 C 0.66928 0.88655 0.24825 0.0
C551 C 0.6141 0.83213 0.27731 0.0
C552 C 0.63375 0.85063 0.26805 0.0
H553 H 0.71922 0.91316 0.18847 0.0
H554 H 0.69173 0.88132 0.20783 0.0
H555 H 0.64506 0.91681 0.26377 0.0
H556 H 0.58523 0.81621 0.3255 0.0
H557 H 0.62028 0.84462 0.31053 0.0
C558 C 0.67868 0.57233 0.80588 0.0
C559 C 0.70593 0.57061 0.80114 0.0
C560 C 0.66275 0.5913 0.79576 0.0
C561 C 0.65983 0.63318 0.74675 0.0
H562 H 0.60055 0.66549 0.77701 0.0
C563 C 0.58928 0.70846 0.70553 0.0
C564 C 0.562 0.70364 0.7085 0.0
C565 C 0.60819 0.69484 0.71785 0.0
C566 C 0.61698 0.65655 0.76834 0.0
H567 H 0.73786 0.58811 0.78236 0.0
H568 H 0.71014 0.62169 0.76506 0.0
H569 H 0.63167 0.6376 0.79697 0.0
H570 H 0.53341 0.68057 0.72693 0.0
H571 H 0.56632 0.65723 0.74855 0.0
H572 H 0.64497 0.65208 0.7181 0.0
C573 C 0.70104 0.60799 0.77637 0.0
C574 C 0.63479 0.64053 0.77975 0.0
C575 C 0.717 0.58891 0.78648 0.0
C576 C 0.55414 0.68521 0.7244 0.0
C577 C 0.57303 0.67175 0.73681 0.0
C578 C 0.6421 0.64935 0.73537 0.0
C579 C 0.67365 0.60921 0.78072 0.0
C580 C 0.65617 0.62824 0.76902 0.0
C581 C 0.60026 0.67624 0.73354 0.0
C582 C 0.62023 0.66084 0.74597 0.0
H583 H 0.6695 0.55891 0.81734 0.0
H584 H 0.64171 0.59141 0.79934 0.0
H585 H 0.67583 0.62377 0.7379 0.0
H586 H 0.5961 0.72279 0.69372 0.0
H587 H 0.62903 0.69894 0.71515 0.0
C588 C 0.94487 0.71433 0.256 0.0
C589 C 0.9409 0.72486 0.27687 0.0
C590 C 0.92471 0.69988 0.24578 0.0
C591 C 0.87295 0.65502 0.26053 0.0
H592 H 0.84393 0.66402 0.20275 0.0
C593 C 0.79293 0.58413 0.23006 0.0
C594 C 0.79459 0.57586 0.20842 0.0
C595 C 0.80792 0.60563 0.23731 0.0
C596 C 0.85204 0.66105 0.21883 0.0
H597 H 0.91231 0.72928 0.30301 0.0
H598 H 0.87746 0.70401 0.28526 0.0
H599 H 0.87643 0.69595 0.21661 0.0
H600 H 0.81254 0.58358 0.17718 0.0
H601 H 0.83979 0.62044 0.18992 0.0
H602 H 0.85007 0.61963 0.26269 0.0
C603 C 0.89606 0.70711 0.27679 0.0
C604 C 0.87052 0.6794 0.22673 0.0
C605 C 0.91598 0.72176 0.28685 0.0
C606 C 0.81081 0.58989 0.19391 0.0
C607 C 0.82631 0.61105 0.20124 0.0
C608 C 0.85496 0.63648 0.25256 0.0
C609 C 0.90048 0.6955 0.25645 0.0
C610 C 0.88094 0.67655 0.2477 0.0
C611 C 0.82549 0.61883 0.22317 0.0
C612 C 0.84411 0.63927 0.23165 0.0
H613 H 0.9638 0.71659 0.2479 0.0
H614 H 0.92853 0.69097 0.23009 0.0
H615 H 0.88111 0.65221 0.27664 0.0
H616 H 0.78029 0.57365 0.2414 0.0
H617 H 0.80611 0.61151 0.25414 0.0
C618 C 0.95158 0.82161 0.72268 0.0
C619 C 0.94545 0.79611 0.71498 0.0
C620 C 0.93185 0.83769 0.73142 0.0
C621 C 0.86675 0.83868 0.75698 0.0
H622 H 0.86543 0.91091 0.73523 0.0
C623 C 0.79001 0.91906 0.78411 0.0
C624 C 0.80098 0.94427 0.78792 0.0
C625 C 0.80552 0.89893 0.77488 0.0
C626 C 0.86562 0.89085 0.74156 0.0
H627 H 0.91407 0.76709 0.71113 0.0
H628 H 0.8793 0.79543 0.72666 0.0
H629 H 0.89667 0.87921 0.71996 0.0
H630 H 0.83705 0.96767 0.78648 0.0
H631 H 0.86394 0.93282 0.77058 0.0
H632 H 0.83605 0.85071 0.77903 0.0
C633 C 0.89946 0.80283 0.72578 0.0
C634 C 0.88347 0.87273 0.73279 0.0
C635 C 0.91925 0.78674 0.7168 0.0
C636 C 0.82785 0.94869 0.78314 0.0
C637 C 0.84325 0.92871 0.77403 0.0
C638 C 0.84888 0.85696 0.76588 0.0
C639 C 0.90556 0.82862 0.73277 0.0
C640 C 0.88466 0.84669 0.74077 0.0
C641 C 0.83217 0.90379 0.76941 0.0
C642 C 0.84867 0.8834 0.7586 0.0
H643 H 0.97147 0.82953 0.72127 0.0
H644 H 0.9371 0.85742 0.73693 0.0
H645 H 0.86733 0.81866 0.76336 0.0
H646 H 0.76933 0.91518 0.78766 0.0
H647 H 0.7965 0.87987 0.77149 0.0
C648 C 0.33966 0.03532 0.79058 0.0
C649 C 0.33206 0.04634 0.81059 0.0
C650 C 0.35297 0.05065 0.77509 0.0
C651 C 0.39158 0.11334 0.76874 0.0
H652 H 0.37956 0.09992 0.7076 0.0
C653 C 0.45872 0.15935 0.70272 0.0
C654 C 0.44749 0.1663 0.68264 0.0
C655 C 0.44389 0.14557 0.71826 0.0
C656 C 0.38297 0.10425 0.72457 0.0
H657 H 0.33221 0.08212 0.82994 0.0
H658 H 0.35476 0.10924 0.80272 0.0
H659 H 0.35454 0.07522 0.73456 0.0
H660 H 0.4118 0.16454 0.66321 0.0
H661 H 0.3855 0.14115 0.69052 0.0
H662 H 0.41927 0.14308 0.75875 0.0
C663 C 0.35106 0.08855 0.79912 0.0
C664 C 0.36886 0.0897 0.74013 0.0
C665 C 0.33803 0.07308 0.81473 0.0
C666 C 0.42101 0.15926 0.67849 0.0
C667 C 0.40601 0.14574 0.69414 0.0
C668 C 0.40547 0.12809 0.75319 0.0
C669 C 0.35879 0.07754 0.77906 0.0
C670 C 0.37313 0.09383 0.76246 0.0
C671 C 0.41727 0.13859 0.71425 0.0
C672 C 0.40159 0.12359 0.73086 0.0
H673 H 0.33586 0.01462 0.78706 0.0
H674 H 0.3591 0.04119 0.76014 0.0
H675 H 0.39571 0.11698 0.78571 0.0
H676 H 0.47925 0.16397 0.70626 0.0
H677 H 0.45355 0.13994 0.73325 0.0
C678 C 0.42634 0.32979 0.30809 0.0
C679 C 0.45376 0.3272 0.30444 0.0
C680 C 0.41045 0.34433 0.29374 0.0
C681 C 0.41394 0.39827 0.25375 0.0
H682 H 0.34535 0.3722 0.23475 0.0
C683 C 0.33853 0.46457 0.20846 0.0
C684 C 0.32635 0.45356 0.19001 0.0
C685 C 0.35364 0.44873 0.22241 0.0
C686 C 0.3645 0.37969 0.23985 0.0
H687 H 0.486 0.33799 0.28287 0.0
H688 H 0.45831 0.36338 0.25785 0.0
H689 H 0.3728 0.34491 0.25874 0.0
H690 H 0.32004 0.41718 0.17203 0.0
H691 H 0.34637 0.38943 0.19648 0.0
H692 H 0.40569 0.43303 0.23491 0.0
C693 C 0.44909 0.35413 0.27182 0.0
C694 C 0.38012 0.36417 0.25372 0.0
C695 C 0.46491 0.33935 0.28603 0.0
C696 C 0.32933 0.42626 0.18602 0.0
C697 C 0.34422 0.41034 0.20011 0.0
C698 C 0.39822 0.41389 0.24009 0.0
C699 C 0.4217 0.35689 0.27556 0.0
C700 C 0.40505 0.37326 0.26078 0.0
C701 C 0.35674 0.42145 0.21836 0.0
C702 C 0.37333 0.40478 0.23296 0.0
H703 H 0.41715 0.3205 0.32204 0.0
H704 H 0.38944 0.34623 0.29715 0.0
H705 H 0.43294 0.40594 0.25905 0.0
H706 H 0.33689 0.48557 0.21187 0.0
H707 H 0.36285 0.45783 0.23643 0.0
C708 C 0.07012 0.33339 0.69087 0.0
C709 C 0.04277 0.3385 0.6888 0.0
C710 C 0.08556 0.34734 0.70592 0.0
C711 C 0.08729 0.40894 0.73864 0.0
H712 H 0.14005 0.37089 0.77229 0.0
C713 C 0.16477 0.46315 0.79187 0.0
C714 C 0.17046 0.45239 0.81243 0.0
C715 C 0.1492 0.44917 0.77694 0.0
C716 C 0.1253 0.3818 0.76314 0.0
H717 H 0.01046 0.36283 0.70077 0.0
H718 H 0.03733 0.38704 0.72711 0.0
H719 H 0.11268 0.34693 0.74615 0.0
H720 H 0.16431 0.41831 0.83324 0.0
H721 H 0.13697 0.39392 0.80722 0.0
H722 H 0.0997 0.44375 0.7558 0.0
C723 C 0.04686 0.37226 0.71701 0.0
C724 C 0.10979 0.36811 0.74796 0.0
C725 C 0.03138 0.35821 0.70202 0.0
C726 C 0.16023 0.4272 0.81761 0.0
C727 C 0.14474 0.41314 0.80261 0.0
C728 C 0.10289 0.42266 0.75374 0.0
C729 C 0.07414 0.36689 0.71926 0.0
C730 C 0.09059 0.38149 0.73549 0.0
C731 C 0.13892 0.42401 0.78211 0.0
C732 C 0.12213 0.40928 0.76618 0.0
H733 H 0.07958 0.31819 0.68119 0.0
H734 H 0.10655 0.34288 0.70701 0.0
H735 H 0.07287 0.41994 0.72922 0.0
H736 H 0.17189 0.48264 0.78738 0.0
H737 H 0.14537 0.45805 0.76125 0.0
C738 C 0.08269 0.16934 0.31956 0.0
C739 C 0.05658 0.17641 0.31394 0.0
C740 C 0.0985 0.15461 0.30522 0.0
C741 C 0.09419 0.10918 0.25811 0.0
H742 H 0.16803 0.12799 0.24926 0.0
C743 C 0.1662 0.04321 0.20858 0.0
C744 C 0.18394 0.05601 0.19438 0.0
C745 C 0.15081 0.05782 0.22324 0.0
C746 C 0.1474 0.12257 0.25145 0.0
H747 H 0.02648 0.17285 0.28892 0.0
H748 H 0.05401 0.14754 0.26396 0.0
H749 H 0.141 0.15358 0.27468 0.0
H750 H 0.1994 0.09436 0.18467 0.0
H751 H 0.17236 0.11987 0.21009 0.0
H752 H 0.10045 0.07839 0.23471 0.0
C753 C 0.06232 0.15333 0.27946 0.0
C754 C 0.13198 0.13706 0.26621 0.0
C755 C 0.04661 0.16816 0.2937 0.0
C756 C 0.18581 0.08385 0.19521 0.0
C757 C 0.17051 0.09846 0.20997 0.0
C758 C 0.10963 0.09461 0.24346 0.0
C759 C 0.08848 0.14638 0.28499 0.0
C760 C 0.10514 0.13062 0.26966 0.0
C761 C 0.1528 0.08563 0.22418 0.0
C762 C 0.13642 0.10114 0.23988 0.0
H763 H 0.091 0.17548 0.33496 0.0
H764 H 0.11848 0.1494 0.31009 0.0
H765 H 0.07367 0.10349 0.26051 0.0
H766 H 0.16401 0.02186 0.20826 0.0
H767 H 0.13756 0.04725 0.23406 0.0
C768 C 0.63743 0.06736 0.17114 0.0
C769 C 0.65658 0.05006 0.17983 0.0
C770 C 0.61563 0.07535 0.18361 0.0
C771 C 0.6004 0.08643 0.24072 0.0
H772 H 0.53072 0.10577 0.21926 0.0
C773 C 0.53327 0.15044 0.29343 0.0
C774 C 0.52228 0.17249 0.2827 0.0
C775 C 0.54301 0.12883 0.28165 0.0
C776 C 0.55009 0.10051 0.22551 0.0
H777 H 0.66644 0.02564 0.2077 0.0
H778 H 0.62837 0.0394 0.2293 0.0
H779 H 0.56057 0.07962 0.1964 0.0
H780 H 0.51002 0.18748 0.25125 0.0
H781 H 0.52803 0.15053 0.2307 0.0
H782 H 0.59089 0.10836 0.26922 0.0
C783 C 0.6305 0.04724 0.21303 0.0
C784 C 0.56716 0.08548 0.21242 0.0
C785 C 0.65229 0.03927 0.20059 0.0
C786 C 0.519 0.17118 0.26004 0.0
C787 C 0.52906 0.14973 0.24823 0.0
C788 C 0.58349 0.10155 0.2537 0.0
C789 C 0.61251 0.06617 0.20502 0.0
C790 C 0.59274 0.07876 0.21972 0.0
C791 C 0.54233 0.12886 0.25882 0.0
C792 C 0.55832 0.10933 0.24613 0.0
H793 H 0.64006 0.076 0.15519 0.0
H794 H 0.60223 0.09005 0.17697 0.0
H795 H 0.62012 0.08205 0.24673 0.0
H796 H 0.5362 0.1506 0.31084 0.0
H797 H 0.55239 0.11275 0.29042 0.0
C798 C 0.35287 0.54203 0.80322 0.0
C799 C 0.3359 0.52125 0.79682 0.0
C800 C 0.373 0.551 0.78947 0.0
C801 C 0.38464 0.55842 0.73186 0.0
H802 H 0.45158 0.58858 0.75079 0.0
C803 C 0.42992 0.65215 0.6952 0.0
C804 C 0.45745 0.65372 0.6919 0.0
C805 C 0.41868 0.62989 0.70499 0.0
C806 C 0.4332 0.57985 0.74511 0.0
H807 H 0.32854 0.49219 0.77154 0.0
H808 H 0.36338 0.50837 0.74731 0.0
H809 H 0.42695 0.55901 0.77502 0.0
H810 H 0.49482 0.63301 0.69584 0.0
H811 H 0.47508 0.59402 0.71359 0.0
H812 H 0.3902 0.58034 0.70242 0.0
C813 C 0.36085 0.51775 0.76299 0.0
C814 C 0.41902 0.56309 0.75903 0.0
C815 C 0.34084 0.50855 0.77686 0.0
C816 C 0.47351 0.6322 0.69807 0.0
C817 C 0.46226 0.61001 0.7083 0.0
C818 C 0.39868 0.57536 0.71805 0.0
C819 C 0.37658 0.53963 0.76888 0.0
C820 C 0.39418 0.55288 0.75281 0.0
C821 C 0.43474 0.60881 0.71205 0.0
C822 C 0.42267 0.58693 0.72481 0.0
H823 H 0.34955 0.55272 0.8182 0.0
H824 H 0.38453 0.56811 0.7944 0.0
H825 H 0.36549 0.55108 0.72662 0.0
H826 H 0.41705 0.66843 0.69057 0.0
H827 H 0.39747 0.6297 0.7079 0.0
C828 C 0.98752 0.36873 0.30821 0.0
C829 C 0.99359 0.34403 0.29869 0.0
C830 C 0.97862 0.39 0.29553 0.0
C831 C 0.94686 0.40008 0.24149 0.0
H832 H 0.94172 0.47259 0.262 0.0
C833 C 0.8785 0.47515 0.1996 0.0
C834 C 0.85792 0.48189 0.21394 0.0
C835 C 0.90216 0.46433 0.20761 0.0
C836 C 0.94337 0.45249 0.25593 0.0
H837 H 0.99804 0.32421 0.26743 0.0
H838 H 0.98558 0.36161 0.2457 0.0
H839 H 0.97235 0.44188 0.27974 0.0
H840 H 0.84646 0.48473 0.24772 0.0
H841 H 0.88812 0.46675 0.26173 0.0
H842 H 0.91788 0.41087 0.21772 0.0
C843 C 0.98569 0.36404 0.26315 0.0
C844 C 0.96067 0.43472 0.26622 0.0
C845 C 0.99359 0.34248 0.27583 0.0
C846 C 0.86213 0.47974 0.23639 0.0
C847 C 0.88597 0.46958 0.24439 0.0
C848 C 0.93018 0.41798 0.23092 0.0
C849 C 0.97648 0.38757 0.27282 0.0
C850 C 0.96195 0.40794 0.25967 0.0
C851 C 0.90575 0.46078 0.23005 0.0
C852 C 0.92761 0.44408 0.23846 0.0
H853 H 0.98833 0.37149 0.32559 0.0
H854 H 0.972 0.40771 0.30382 0.0
H855 H 0.94653 0.37968 0.23606 0.0
H856 H 0.87555 0.47636 0.18222 0.0
H857 H 0.91711 0.45753 0.19626 0.0
C858 C 0.15979 0.99357 0.78612 0.0
C859 C 0.16669 0.97849 0.80452 0.0
C860 C 0.13878 0.9857 0.7727 0.0
C861 C 0.08176 0.93888 0.76797 0.0
H862 H 0.10714 0.92908 0.7091 0.0
C863 C 0.02797 0.8703 0.70661 0.0
C864 C 0.04528 0.85048 0.69907 0.0
C865 C 0.0381 0.89301 0.71685 0.0
C866 C 0.09955 0.93203 0.72538 0.0
H867 H 0.15544 0.94419 0.82384 0.0
H868 H 0.11879 0.93105 0.80091 0.0
H869 H 0.13206 0.95715 0.73405 0.0
H870 H 0.08656 0.83944 0.69508 0.0
H871 H 0.10416 0.87909 0.71236 0.0
H872 H 0.05012 0.91237 0.75958 0.0
C873 C 0.12952 0.949 0.79683 0.0
C874 C 0.1137 0.94828 0.73964 0.0
C875 C 0.15063 0.95666 0.81009 0.0
C876 C 0.07278 0.85441 0.70078 0.0
C877 C 0.08285 0.87721 0.71055 0.0
C878 C 0.06746 0.92279 0.75362 0.0
C879 C 0.124 0.96279 0.77755 0.0
C880 C 0.10559 0.95097 0.76136 0.0
C881 C 0.06567 0.89645 0.71919 0.0
C882 C 0.07688 0.9183 0.73248 0.0
H883 H 0.17134 0.01079 0.78153 0.0
H884 H 0.13476 0.99693 0.75808 0.0
H885 H 0.07488 0.94079 0.78455 0.0
H886 H 0.00667 0.86761 0.70561 0.0
H887 H 0.02443 0.90754 0.72339 0.0
C888 C 0.51919 0.33313 0.71559 0.0
C889 C 0.52705 0.3278 0.69407 0.0
C890 C 0.53265 0.35205 0.72803 0.0
C891 C 0.58385 0.37153 0.7508 0.0
H892 H 0.59875 0.44472 0.73544 0.0
C893 C 0.67213 0.43148 0.78519 0.0
C894 C 0.66404 0.45344 0.79757 0.0
C895 C 0.65397 0.41839 0.77178 0.0
C896 C 0.59468 0.42431 0.73984 0.0
H897 H 0.55437 0.3401 0.66856 0.0
H898 H 0.57648 0.37384 0.6899 0.0
H899 H 0.56699 0.41883 0.7137 0.0
H900 H 0.63121 0.47976 0.80489 0.0
H901 H 0.59974 0.45738 0.7807 0.0
H902 H 0.61235 0.37656 0.77631 0.0
C903 C 0.56014 0.363 0.69713 0.0
C904 C 0.57656 0.4096 0.72751 0.0
C905 C 0.54718 0.34368 0.68484 0.0
C906 C 0.63789 0.46282 0.79554 0.0
C907 C 0.61994 0.45013 0.78171 0.0
C908 C 0.60239 0.386 0.76277 0.0
C909 C 0.55371 0.36659 0.71904 0.0
C910 C 0.57101 0.3831 0.73293 0.0
C911 C 0.6277 0.42748 0.77012 0.0
C912 C 0.60801 0.41244 0.75734 0.0
H913 H 0.50341 0.32189 0.72318 0.0
H914 H 0.52721 0.35472 0.7449 0.0
H915 H 0.58014 0.35101 0.75509 0.0
H916 H 0.69212 0.42374 0.78659 0.0
H917 H 0.66032 0.40095 0.76291 0.0
C918 C 0.14716 0.53797 0.19691 0.0
C919 C 0.16531 0.51935 0.20513 0.0
C920 C 0.125 0.54555 0.20904 0.0
C921 C 0.10419 0.54936 0.26641 0.0
H922 H 0.04262 0.58272 0.2404 0.0
C923 C 0.05451 0.63924 0.30433 0.0
C924 C 0.02768 0.64522 0.30043 0.0
C925 C 0.06619 0.61672 0.29537 0.0
C926 C 0.05931 0.57302 0.24812 0.0
H927 H 0.17335 0.49254 0.23178 0.0
H928 H 0.13411 0.50503 0.25273 0.0
H929 H 0.07115 0.55466 0.21836 0.0
H930 H 0.99163 0.63116 0.28509 0.0
H931 H 0.01206 0.59133 0.26953 0.0
H932 H 0.09228 0.56757 0.29618 0.0
C933 C 0.13741 0.51446 0.23718 0.0
C934 C 0.07599 0.55721 0.23534 0.0
C935 C 0.15983 0.50714 0.22513 0.0
C936 C 0.01235 0.62714 0.2884 0.0
C937 C 0.02413 0.60444 0.27933 0.0
C938 C 0.08732 0.56481 0.27923 0.0
C939 C 0.1202 0.5345 0.22966 0.0
C940 C 0.09937 0.54621 0.24407 0.0
C941 C 0.05141 0.59935 0.28225 0.0
C942 C 0.0654 0.57795 0.27002 0.0
H943 H 0.15101 0.54809 0.18172 0.0
H944 H 0.11265 0.56134 0.20274 0.0
H945 H 0.12192 0.54135 0.27386 0.0
H946 H 0.06696 0.65259 0.31357 0.0
H947 H 0.08728 0.61387 0.29777 0.0
C948 C 0.98627 0.1542 0.70422 0.0
C949 C 0.98888 0.18044 0.71196 0.0
C950 C 0.97805 0.13367 0.71799 0.0
C951 C 0.94184 0.12678 0.77058 0.0
H952 H 0.94425 0.0522 0.7554 0.0
C953 C 0.87607 0.0506 0.81409 0.0
C954 C 0.85717 0.04122 0.79924 0.0
C955 C 0.8995 0.06244 0.80658 0.0
C956 C 0.94379 0.07294 0.76001 0.0
H957 H 0.98834 0.2038 0.74184 0.0
H958 H 0.9773 0.16802 0.76552 0.0
H959 H 0.97404 0.08336 0.73722 0.0
H960 H 0.84848 0.0348 0.76525 0.0
H961 H 0.88985 0.05453 0.75218 0.0
H962 H 0.91164 0.11615 0.79339 0.0
C963 C 0.97934 0.16368 0.74841 0.0
C964 C 0.96059 0.09093 0.74942 0.0
C965 C 0.98645 0.18442 0.73456 0.0
C966 C 0.86289 0.04186 0.77696 0.0
C967 C 0.88656 0.053 0.76951 0.0
C968 C 0.92566 0.10873 0.78151 0.0
C969 C 0.97326 0.1384 0.74016 0.0
C970 C 0.95918 0.11834 0.75397 0.0
C971 C 0.90457 0.06434 0.78419 0.0
C972 C 0.92584 0.08182 0.77584 0.0
H973 H 0.98926 0.14941 0.68732 0.0
H974 H 0.97401 0.11453 0.71078 0.0
H975 H 0.93938 0.14757 0.77441 0.0
H976 H 0.87186 0.05057 0.83133 0.0
H977 H 0.91305 0.07124 0.81817 0.0
C978 C 0.36812 0.97873 0.19635 0.0
C979 C 0.34992 0.99652 0.20572 0.0
C980 C 0.38983 0.96943 0.20816 0.0
C981 C 0.40733 0.95562 0.26463 0.0
H982 H 0.47161 0.92893 0.23779 0.0
C983 C 0.47431 0.87802 0.30706 0.0
C984 C 0.47705 0.85525 0.29411 0.0
C985 C 0.46521 0.90185 0.29792 0.0
C986 C 0.4539 0.93651 0.2456 0.0
H987 H 0.3418 0.02031 0.23429 0.0
H988 H 0.37988 0.00404 0.25496 0.0
H989 H 0.44401 0.96084 0.21831 0.0
H990 H 0.47411 0.83984 0.26137 0.0
H991 H 0.45888 0.88127 0.24543 0.0
H992 H 0.41676 0.93044 0.29156 0.0
C993 C 0.37697 0.99693 0.23855 0.0
C994 C 0.43803 0.9547 0.23443 0.0
C995 C 0.35517 0.00628 0.22669 0.0
C996 C 0.47209 0.85709 0.27174 0.0
C997 C 0.46355 0.88089 0.26258 0.0
C998 C 0.42334 0.93758 0.27588 0.0
C999 C 0.39402 0.97765 0.22969 0.0
C1000 C 0.41391 0.96355 0.24339 0.0
C1001 C 0.45935 0.90335 0.27562 0.0
C1002 C 0.44616 0.92697 0.26608 0.0
H1003 H 0.36458 0.97034 0.18043 0.0
H1004 H 0.40223 0.95432 0.20084 0.0
H1005 H 0.38882 0.96179 0.27201 0.0
H1006 H 0.47787 0.87706 0.32438 0.0
H1007 H 0.46213 0.91888 0.30833 0.0
C1008 C 0.46352 0.79419 0.74123 0.0
C1009 C 0.46803 0.79737 0.71887 0.0
C1010 C 0.45379 0.81531 0.7536 0.0
C1011 C 0.40896 0.86974 0.74525 0.0
H1012 H 0.42466 0.88862 0.80484 0.0
C1013 C 0.33924 0.93894 0.79228 0.0
C1014 C 0.33435 0.93246 0.81404 0.0
C1015 C 0.36005 0.92687 0.78102 0.0
C1016 C 0.41987 0.88341 0.78825 0.0
H1017 H 0.46842 0.82577 0.6924 0.0
H1018 H 0.45125 0.86249 0.714 0.0
H1019 H 0.45499 0.85961 0.78489 0.0
H1020 H 0.34749 0.90876 0.84132 0.0
H1021 H 0.38295 0.88664 0.82147 0.0
H1022 H 0.37317 0.89181 0.74872 0.0
C1023 C 0.45503 0.84365 0.72188 0.0
C1024 C 0.43737 0.86698 0.77682 0.0
C1025 C 0.46497 0.82264 0.70957 0.0
C1026 C 0.35093 0.91413 0.82452 0.0
C1027 C 0.37141 0.90164 0.81315 0.0
C1028 C 0.3913 0.88575 0.75672 0.0
C1029 C 0.44826 0.83984 0.74377 0.0
C1030 C 0.43189 0.85977 0.75529 0.0
C1031 C 0.37607 0.9076 0.79115 0.0
C1032 C 0.39628 0.89254 0.77849 0.0
H1033 H 0.46579 0.77497 0.74887 0.0
H1034 H 0.44867 0.81182 0.77044 0.0
H1035 H 0.40395 0.86406 0.7288 0.0
H1036 H 0.32698 0.95337 0.78395 0.0
H1037 H 0.36339 0.93251 0.76429 0.0
C1038 C 0.71536 0.47628 0.26575 0.0
C1039 C 0.71276 0.4747 0.2431 0.0
C1040 C 0.69448 0.46833 0.27924 0.0
C1041 C 0.66001 0.42649 0.30009 0.0
H1042 H 0.58585 0.42642 0.2833 0.0
C1043 C 0.57134 0.34746 0.30016 0.0
C1044 C 0.57158 0.33845 0.3217 0.0
C1045 C 0.58472 0.37066 0.29443 0.0
C1046 C 0.60646 0.42645 0.2883 0.0
H1047 H 0.68554 0.46603 0.21679 0.0
H1048 H 0.64959 0.45169 0.24007 0.0
H1049 H 0.61629 0.45826 0.26675 0.0
H1050 H 0.58532 0.34692 0.35431 0.0
H1051 H 0.60926 0.38735 0.34417 0.0
H1052 H 0.65032 0.39412 0.32109 0.0
C1053 C 0.66745 0.45925 0.24762 0.0
C1054 C 0.62391 0.44462 0.27881 0.0
C1055 C 0.68822 0.46731 0.2342 0.0
C1056 C 0.58485 0.35343 0.33756 0.0
C1057 C 0.59855 0.3765 0.33178 0.0
C1058 C 0.64251 0.40853 0.30972 0.0
C1059 C 0.67072 0.45855 0.27028 0.0
C1060 C 0.65112 0.44407 0.2839 0.0
C1061 C 0.59884 0.38516 0.31011 0.0
C1062 C 0.61582 0.40763 0.30327 0.0
H1063 H 0.734 0.48213 0.27308 0.0
H1064 H 0.69745 0.46856 0.29664 0.0
H1065 H 0.68085 0.4252 0.30426 0.0
H1066 H 0.56112 0.33637 0.28763 0.0
H1067 H 0.58491 0.37665 0.27755 0.0
C1068 C 0.04948 0.68269 0.72263 0.0
C1069 C 0.04343 0.70801 0.73069 0.0
C1070 C 0.05685 0.66238 0.73673 0.0
C1071 C 0.08844 0.65607 0.79009 0.0
H1072 H 0.08604 0.58123 0.77554 0.0
C1073 C 0.15218 0.57958 0.83505 0.0
C1074 C 0.169 0.56542 0.82102 0.0
C1075 C 0.13059 0.59366 0.82684 0.0
C1076 C 0.08666 0.60206 0.77986 0.0
H1077 H 0.03761 0.73132 0.75984 0.0
H1078 H 0.04947 0.69549 0.78465 0.0
H1079 H 0.05651 0.61224 0.75691 0.0
H1080 H 0.17574 0.55367 0.78764 0.0
H1081 H 0.13777 0.57829 0.77325 0.0
H1082 H 0.11881 0.64588 0.8128 0.0
C1083 C 0.04953 0.69156 0.76737 0.0
C1084 C 0.06987 0.61984 0.76918 0.0
C1085 C 0.04257 0.71205 0.7532 0.0
C1086 C 0.16319 0.5646 0.79876 0.0
C1087 C 0.14136 0.57844 0.79058 0.0
C1088 C 0.10484 0.63825 0.80098 0.0
C1089 C 0.05795 0.66684 0.75925 0.0
C1090 C 0.0713 0.64723 0.77358 0.0
C1091 C 0.12524 0.59353 0.80451 0.0
C1092 C 0.10474 0.61127 0.79544 0.0
H1093 H 0.05024 0.67897 0.70533 0.0
H1094 H 0.06344 0.64379 0.72976 0.0
H1095 H 0.09052 0.67698 0.79372 0.0
H1096 H 0.15616 0.58049 0.8523 0.0
H1097 H 0.11839 0.60512 0.83787 0.0
C1098 C 0.94326 0.17779 0.288 0.0
C1099 C 0.941 0.18031 0.31063 0.0
C1100 C 0.92783 0.15922 0.27684 0.0
C1101 C 0.86365 0.12781 0.28041 0.0
H1102 H 0.8894 0.0798 0.236 0.0
C1103 C 0.79119 0.06068 0.23424 0.0
C1104 C 0.79558 0.05764 0.21191 0.0
C1105 C 0.81069 0.07194 0.24743 0.0
C1106 C 0.88183 0.09329 0.24819 0.0
H1107 H 0.9216 0.16484 0.33942 0.0
H1108 H 0.89437 0.13277 0.31984 0.0
H1109 H 0.92094 0.10672 0.25659 0.0
H1110 H 0.82386 0.06342 0.18584 0.0
H1111 H 0.85745 0.08409 0.20858 0.0
H1112 H 0.8246 0.11573 0.27153 0.0
C1113 C 0.90811 0.14508 0.3108 0.0
C1114 C 0.89993 0.10856 0.26002 0.0
C1115 C 0.92376 0.16335 0.32197 0.0
C1116 C 0.82004 0.06541 0.20306 0.0
C1117 C 0.83937 0.07712 0.21616 0.0
C1118 C 0.84556 0.11292 0.2684 0.0
C1119 C 0.90967 0.14317 0.28812 0.0
C1120 C 0.89094 0.12599 0.27618 0.0
C1121 C 0.8348 0.08091 0.23848 0.0
C1122 C 0.85436 0.09553 0.25205 0.0
H1123 H 0.95648 0.19057 0.27889 0.0
H1124 H 0.92926 0.15818 0.25932 0.0
H1125 H 0.85621 0.14143 0.29258 0.0
H1126 H 0.77257 0.0546 0.2415 0.0
H1127 H 0.80669 0.07392 0.26462 0.0
C1128 C 0.473 0.7127 0.24433 0.0
C1129 C 0.47286 0.71002 0.26701 0.0
C1130 C 0.46276 0.69251 0.23119 0.0
C1131 C 0.43482 0.6234 0.23238 0.0
H1132 H 0.38688 0.65207 0.1891 0.0
C1133 C 0.33903 0.57115 0.20393 0.0
C1134 C 0.33286 0.57198 0.18172 0.0
C1135 C 0.36099 0.58497 0.21195 0.0
C1136 C 0.40047 0.64367 0.20086 0.0
H1137 H 0.4641 0.6832 0.2936 0.0
H1138 H 0.44572 0.64854 0.27094 0.0
H1139 H 0.41838 0.68127 0.20694 0.0
H1140 H 0.34501 0.58748 0.15042 0.0
H1141 H 0.38313 0.61199 0.16453 0.0
H1142 H 0.41553 0.58603 0.22703 0.0
C1143 C 0.45396 0.6659 0.26308 0.0
C1144 C 0.41871 0.66039 0.21104 0.0
C1145 C 0.46442 0.68593 0.27616 0.0
C1146 C 0.3493 0.58648 0.16762 0.0
C1147 C 0.37106 0.60056 0.17568 0.0
C1148 C 0.41632 0.60674 0.22236 0.0
C1149 C 0.45195 0.66939 0.24049 0.0
C1150 C 0.43574 0.65063 0.22731 0.0
C1151 C 0.37699 0.60012 0.19795 0.0
C1152 C 0.39861 0.61685 0.20683 0.0
H1153 H 0.47957 0.73097 0.23679 0.0
H1154 H 0.46218 0.69559 0.2138 0.0
H1155 H 0.44794 0.61506 0.24451 0.0
H1156 H 0.32674 0.56005 0.21514 0.0
H1157 H 0.36493 0.58452 0.22922 0.0
C1158 C 0.76436 0.44032 0.77049 0.0
C1159 C 0.7742 0.44758 0.79095 0.0
C1160 C 0.78141 0.42941 0.75484 0.0
C1161 C 0.85362 0.42096 0.74238 0.0
H1162 H 0.82981 0.36103 0.70811 0.0
C1163 C 0.92304 0.34104 0.70736 0.0
C1164 C 0.9194 0.33376 0.68559 0.0
C1165 C 0.90533 0.35846 0.71741 0.0
C1166 C 0.8366 0.37799 0.71737 0.0
H1167 H 0.80936 0.44898 0.81121 0.0
H1168 H 0.83861 0.4294 0.78452 0.0
H1169 H 0.79808 0.38483 0.73094 0.0
H1170 H 0.8946 0.33893 0.65717 0.0
H1171 H 0.86311 0.36897 0.67502 0.0
H1172 H 0.89243 0.41305 0.7297 0.0
C1173 C 0.81809 0.43274 0.78006 0.0
C1174 C 0.81843 0.39171 0.73039 0.0
C1175 C 0.80122 0.44377 0.7955 0.0
C1176 C 0.89797 0.34447 0.67393 0.0
C1177 C 0.8799 0.36146 0.68413 0.0
C1178 C 0.8718 0.407 0.72966 0.0
C1179 C 0.80853 0.42548 0.75948 0.0
C1180 C 0.82686 0.41297 0.74349 0.0
C1181 C 0.88336 0.36846 0.706 0.0
C1182 C 0.86356 0.38508 0.71739 0.0
H1183 H 0.74358 0.44307 0.76659 0.0
H1184 H 0.77338 0.4242 0.73911 0.0
H1185 H 0.86072 0.43769 0.75175 0.0
H1186 H 0.93939 0.33301 0.7167 0.0
H1187 H 0.90829 0.3634 0.73435 0.0
C1188 C 0.06795 0.80877 0.28871 0.0
C1189 C 0.06256 0.78391 0.27939 0.0
C1190 C 0.08084 0.82839 0.27676 0.0
C1191 C 0.09772 0.85153 0.22227 0.0
H1192 H 0.15988 0.88082 0.25059 0.0
C1193 C 0.17556 0.91595 0.17734 0.0
C1194 C 0.18868 0.93572 0.18926 0.0
C1195 C 0.15779 0.89875 0.18763 0.0
C1196 C 0.14231 0.87332 0.24255 0.0
H1197 H 0.06534 0.76048 0.24997 0.0
H1198 H 0.08777 0.79512 0.22891 0.0
H1199 H 0.13266 0.84855 0.26959 0.0
H1200 H 0.19253 0.95417 0.22083 0.0
H1201 H 0.16075 0.925 0.23863 0.0
H1202 H 0.10717 0.87661 0.1953 0.0
C1203 C 0.08202 0.79925 0.24551 0.0
C1204 C 0.12681 0.85469 0.25343 0.0
C1205 C 0.06931 0.77944 0.25757 0.0
C1206 C 0.18288 0.93884 0.21135 0.0
C1207 C 0.16481 0.92199 0.22156 0.0
C1208 C 0.11308 0.8705 0.21143 0.0
C1209 C 0.0884 0.82367 0.25518 0.0
C1210 C 0.1044 0.84362 0.24342 0.0
C1211 C 0.15256 0.90127 0.20997 0.0
C1212 C 0.1356 0.88162 0.22146 0.0
H1213 H 0.06292 0.81285 0.30547 0.0
H1214 H 0.0853 0.84716 0.2845 0.0
H1215 H 0.08043 0.84333 0.21427 0.0
H1216 H 0.17988 0.91304 0.16028 0.0
H1217 H 0.14898 0.88289 0.17823 0.0
C1218 C 0.71845 0.04347 0.73945 0.0
C1219 C 0.71451 0.04427 0.76198 0.0
C1220 C 0.6976 0.04963 0.72534 0.0
C1221 C 0.62486 0.06611 0.72396 0.0
H1222 H 0.64742 0.1161 0.67983 0.0
C1223 C 0.56408 0.15605 0.69458 0.0
C1224 C 0.56393 0.16145 0.67224 0.0
C1225 C 0.57932 0.13516 0.70274 0.0
C1226 C 0.64079 0.10183 0.69182 0.0
H1227 H 0.68533 0.0502 0.78743 0.0
H1228 H 0.64956 0.06185 0.76315 0.0
H1229 H 0.68041 0.08972 0.69873 0.0
H1230 H 0.57879 0.14882 0.64082 0.0
H1231 H 0.60586 0.11274 0.65522 0.0
H1232 H 0.5853 0.08004 0.71797 0.0
C1233 C 0.66835 0.05599 0.7561 0.0
C1234 C 0.6597 0.08652 0.70259 0.0
C1235 C 0.68903 0.04954 0.77012 0.0
C1236 C 0.57856 0.14512 0.65814 0.0
C1237 C 0.59406 0.12451 0.66633 0.0
C1238 C 0.606 0.0818 0.71341 0.0
C1239 C 0.67257 0.05701 0.73356 0.0
C1240 C 0.65207 0.06906 0.71929 0.0
C1241 C 0.59488 0.11962 0.68871 0.0
C1242 C 0.61393 0.10025 0.69766 0.0
H1243 H 0.73785 0.03918 0.73274 0.0
H1244 H 0.70139 0.04965 0.70805 0.0
H1245 H 0.61821 0.05243 0.73637 0.0
H1246 H 0.55287 0.16828 0.70576 0.0
H1247 H 0.57988 0.1319 0.72011 0.0
C1248 C 0.75715 0.34545 0.22941 0.0
C1249 C 0.76253 0.36424 0.21314 0.0
C1250 C 0.75293 0.31885 0.22409 0.0
C1251 C 0.77012 0.27013 0.18264 0.0
H1252 H 0.71406 0.22769 0.20827 0.0
C1253 C 0.74913 0.16398 0.15375 0.0
C1254 C 0.74191 0.14468 0.16916 0.0
C1255 C 0.75099 0.19065 0.1595 0.0
C1256 C 0.73005 0.23917 0.20121 0.0
H1257 H 0.76719 0.37005 0.17851 0.0
H1258 H 0.75986 0.32347 0.16916 0.0
H1259 H 0.71753 0.27479 0.21724 0.0
H1260 H 0.73105 0.13861 0.20287 0.0
H1261 H 0.73516 0.18517 0.2131 0.0
H1262 H 0.78309 0.23465 0.16695 0.0
C1263 C 0.75898 0.32936 0.18605 0.0
C1264 C 0.73193 0.26615 0.20627 0.0
C1265 C 0.76293 0.35603 0.19136 0.0
C1266 C 0.73685 0.15282 0.1906 0.0
C1267 C 0.73889 0.1796 0.19641 0.0
C1268 C 0.76839 0.24316 0.17773 0.0
C1269 C 0.75427 0.31046 0.20239 0.0
C1270 C 0.7519 0.28192 0.19692 0.0
C1271 C 0.74598 0.19883 0.1809 0.0
C1272 C 0.74823 0.22736 0.18682 0.0
H1273 H 0.75642 0.3513 0.2463 0.0
H1274 H 0.74946 0.30471 0.23702 0.0
H1275 H 0.78604 0.28168 0.17553 0.0
H1276 H 0.7536 0.15857 0.13717 0.0
H1277 H 0.75612 0.20491 0.14704 0.0
C1278 C 0.35576 0.74763 0.64471 0.0
C1279 C 0.36206 0.76202 0.66351 0.0
C1280 C 0.3299 0.74831 0.63635 0.0
C1281 C 0.26455 0.78218 0.64062 0.0
H1282 H 0.23563 0.71096 0.64368 0.0
C1283 C 0.16868 0.7351 0.67966 0.0
C1284 C 0.14815 0.75035 0.67074 0.0
C1285 C 0.19358 0.73446 0.66982 0.0
C1286 C 0.24342 0.73093 0.6423 0.0
H1287 H 0.34752 0.78997 0.68725 0.0
H1288 H 0.30264 0.7918 0.67249 0.0
H1289 H 0.28361 0.71725 0.6417 0.0
H1290 H 0.13687 0.77603 0.64419 0.0
H1291 H 0.18103 0.7756 0.62708 0.0
H1292 H 0.2244 0.79586 0.6428 0.0
C1293 C 0.31737 0.77991 0.66416 0.0
C1294 C 0.27087 0.73455 0.64102 0.0
C1295 C 0.34296 0.77881 0.6727 0.0
C1296 C 0.15246 0.76396 0.65117 0.0
C1297 C 0.17764 0.7638 0.6415 0.0
C1298 C 0.23707 0.77855 0.64168 0.0
C1299 C 0.31026 0.76382 0.64647 0.0
C1300 C 0.28174 0.76023 0.64129 0.0
C1301 C 0.19858 0.7495 0.65105 0.0
C1302 C 0.22636 0.75292 0.64365 0.0
H1303 H 0.37022 0.73438 0.63753 0.0
H1304 H 0.32492 0.73573 0.6227 0.0
H1305 H 0.27242 0.80218 0.64072 0.0
H1306 H 0.16567 0.72454 0.69477 0.0
H1307 H 0.20939 0.72356 0.67772 0.0
C1308 C 0.74773 0.17221 0.79207 0.0
C1309 C 0.7522 0.15174 0.80709 0.0
C1310 C 0.7405 0.19748 0.79907 0.0
C1311 C 0.74687 0.24161 0.84581 0.0
H1312 H 0.69821 0.28561 0.81289 0.0
C1313 C 0.72472 0.35106 0.86827 0.0
C1314 C 0.72425 0.36913 0.85089 0.0
C1315 C 0.72567 0.32374 0.86443 0.0
C1316 C 0.71196 0.27361 0.82217 0.0
H1317 H 0.75173 0.14139 0.84119 0.0
H1318 H 0.73889 0.18583 0.85357 0.0
H1319 H 0.70276 0.23872 0.8039 0.0
H1320 H 0.72411 0.37259 0.81581 0.0
H1321 H 0.72624 0.32504 0.80909 0.0
H1322 H 0.75647 0.27667 0.86378 0.0
C1323 C 0.74121 0.18225 0.83634 0.0
C1324 C 0.71452 0.24675 0.81707 0.0
C1325 C 0.74831 0.1568 0.82928 0.0
C1326 C 0.72478 0.35926 0.82957 0.0
C1327 C 0.72563 0.33197 0.82572 0.0
C1328 C 0.7443 0.26851 0.85093 0.0
C1329 C 0.73759 0.20295 0.82129 0.0
C1330 C 0.7324 0.23057 0.82852 0.0
C1331 C 0.72603 0.3139 0.8431 0.0
C1332 C 0.72721 0.28492 0.83887 0.0
H1333 H 0.75024 0.16877 0.77486 0.0
H1334 H 0.73813 0.21299 0.78706 0.0
H1335 H 0.76105 0.22974 0.85477 0.0
H1336 H 0.72457 0.35804 0.88488 0.0
H1337 H 0.72583 0.31032 0.87815 0.0
C1338 C 0.34665 0.74359 0.29082 0.0
C1339 C 0.36459 0.75718 0.30419 0.0
C1340 C 0.32034 0.7403 0.29725 0.0
C1341 C 0.2676 0.77221 0.32421 0.0
H1342 H 0.23508 0.70277 0.32989 0.0
C1343 C 0.16131 0.72212 0.3491 0.0
C1344 C 0.14425 0.73201 0.33291 0.0
C1345 C 0.18848 0.72717 0.34832 0.0
C1346 C 0.24398 0.72227 0.32851 0.0
H1347 H 0.36957 0.77788 0.33466 0.0
H1348 H 0.32285 0.77285 0.34574 0.0
H1349 H 0.28297 0.70629 0.32367 0.0
H1350 H 0.14248 0.75645 0.30391 0.0
H1351 H 0.19004 0.76585 0.30298 0.0
H1352 H 0.22833 0.78815 0.32799 0.0
C1353 C 0.32943 0.76441 0.33049 0.0
C1354 C 0.27124 0.72424 0.32494 0.0
C1355 C 0.35599 0.76712 0.32427 0.0
C1356 C 0.1549 0.74853 0.31668 0.0
C1357 C 0.18213 0.75392 0.3161 0.0
C1358 C 0.24019 0.77023 0.32732 0.0
C1359 C 0.31146 0.7511 0.31692 0.0
C1360 C 0.28318 0.7492 0.32266 0.0
C1361 C 0.19916 0.74267 0.3316 0.0
C1362 C 0.22819 0.74522 0.32938 0.0
H1363 H 0.35302 0.7358 0.27529 0.0
H1364 H 0.3067 0.73004 0.28656 0.0
H1365 H 0.27652 0.79163 0.32228 0.0
H1366 H 0.15385 0.71003 0.36225 0.0
H1367 H 0.20125 0.71859 0.3606 0.0
C1368 C 0.23127 0.64728 0.86955 0.0
C1369 C 0.25539 0.63629 0.86252 0.0
C1370 C 0.2297 0.67426 0.87497 0.0
C1371 C 0.26962 0.73459 0.88725 0.0
H1372 H 0.2139 0.77117 0.85593 0.0
C1373 C 0.27404 0.84679 0.86655 0.0
C1374 C 0.25012 0.8605 0.86347 0.0
C1375 C 0.27383 0.81964 0.87157 0.0
C1376 C 0.22926 0.76143 0.86527 0.0
H1377 H 0.29708 0.64425 0.85716 0.0
H1378 H 0.29449 0.69114 0.86676 0.0
H1379 H 0.2147 0.72308 0.85639 0.0
H1380 H 0.20739 0.85749 0.86484 0.0
H1381 H 0.20681 0.81063 0.8747 0.0
H1382 H 0.28441 0.77303 0.8959 0.0
C1383 C 0.27675 0.67912 0.86804 0.0
C1384 C 0.22971 0.73371 0.86548 0.0
C1385 C 0.27822 0.65231 0.8624 0.0
C1386 C 0.22606 0.84718 0.867 0.0
C1387 C 0.2258 0.82027 0.8724 0.0
C1388 C 0.26904 0.7624 0.88723 0.0
C1389 C 0.25232 0.69062 0.87374 0.0
C1390 C 0.25014 0.71994 0.87611 0.0
C1391 C 0.24964 0.80581 0.8739 0.0
C1392 C 0.2491 0.77624 0.8759 0.0
H1393 H 0.21335 0.63542 0.86965 0.0
H1394 H 0.21063 0.68251 0.87947 0.0
H1395 H 0.28552 0.72453 0.89574 0.0
H1396 H 0.29281 0.85664 0.86364 0.0
H1397 H 0.29261 0.80926 0.8724 0.0
C1398 C 0.85765 0.2394 0.36222 0.0
C1399 C 0.86879 0.2627 0.35364 0.0
C1400 C 0.83043 0.23811 0.36681 0.0
C1401 C 0.76921 0.27883 0.37366 0.0
H1402 H 0.7343 0.21763 0.34855 0.0
C1403 C 0.65684 0.27651 0.35266 0.0
C1404 C 0.64367 0.25199 0.35338 0.0
C1405 C 0.68413 0.27801 0.35701 0.0
C1406 C 0.74361 0.23465 0.35609 0.0
H1407 H 0.86062 0.3034 0.3446 0.0
H1408 H 0.81329 0.30123 0.35255 0.0
H1409 H 0.78241 0.21955 0.34932 0.0
H1410 H 0.64801 0.21028 0.36085 0.0
H1411 H 0.6952 0.21289 0.36916 0.0
H1412 H 0.73029 0.2941 0.38012 0.0
C1413 C 0.82541 0.28392 0.35573 0.0
C1414 C 0.77131 0.23573 0.35652 0.0
C1415 C 0.8525 0.28511 0.351 0.0
C1416 C 0.65784 0.22935 0.35985 0.0
C1417 C 0.68492 0.23086 0.36446 0.0
C1418 C 0.74142 0.27769 0.37336 0.0
C1419 C 0.81388 0.26019 0.36311 0.0
C1420 C 0.78448 0.25798 0.36501 0.0
C1421 C 0.69867 0.25502 0.3624 0.0
C1422 C 0.72823 0.25571 0.3643 0.0
H1423 H 0.86969 0.2218 0.36432 0.0
H1424 H 0.82218 0.21962 0.3727 0.0
H1425 H 0.77876 0.29617 0.3805 0.0
H1426 H 0.64636 0.2942 0.34756 0.0
H1427 H 0.69401 0.29694 0.35509 0.0
C1428 C 0.22987 0.66183 0.14614 0.0
C1429 C 0.25188 0.64487 0.14823 0.0
C1430 C 0.23332 0.68901 0.14279 0.0
C1431 C 0.28195 0.7418 0.15302 0.0
H1432 H 0.23366 0.78453 0.11864 0.0
C1433 C 0.2939 0.85494 0.1482 0.0
C1434 C 0.2707 0.87012 0.15073 0.0
C1435 C 0.29245 0.82768 0.1444 0.0
C1436 C 0.24721 0.77289 0.12841 0.0
H1437 H 0.29482 0.64305 0.14751 0.0
H1438 H 0.30094 0.6906 0.14134 0.0
H1439 H 0.2302 0.73619 0.1177 0.0
H1440 H 0.22774 0.86873 0.15045 0.0
H1441 H 0.22512 0.82091 0.14396 0.0
H1442 H 0.29863 0.77835 0.16409 0.0
C1443 C 0.28096 0.68285 0.1426 0.0
C1444 C 0.24526 0.74518 0.12785 0.0
C1445 C 0.27747 0.65556 0.1459 0.0
C1446 C 0.24595 0.85759 0.14841 0.0
C1447 C 0.24448 0.8302 0.14469 0.0
C1448 C 0.28391 0.76944 0.15356 0.0
C1449 C 0.25891 0.69998 0.14144 0.0
C1450 C 0.26242 0.7293 0.14036 0.0
C1451 C 0.26775 0.81482 0.14312 0.0
C1452 C 0.2664 0.78536 0.14144 0.0
H1453 H 0.20988 0.65414 0.14752 0.0
H1454 H 0.21589 0.70155 0.14215 0.0
H1455 H 0.29516 0.73027 0.16318 0.0
H1456 H 0.31325 0.86414 0.14946 0.0
H1457 H 0.31076 0.81659 0.14277 0.0
C1458 C 0.64552 0.22143 0.62629 0.0
C1459 C 0.63351 0.24609 0.63021 0.0
C1460 C 0.67296 0.21984 0.62275 0.0
C1461 C 0.73398 0.25953 0.61185 0.0
H1462 H 0.76682 0.21002 0.65176 0.0
C1463 C 0.84268 0.27034 0.64143 0.0
C1464 C 0.85678 0.24724 0.64681 0.0
C1465 C 0.81601 0.26879 0.63509 0.0
C1466 C 0.75817 0.22362 0.64014 0.0
H1467 H 0.64005 0.28844 0.63176 0.0
H1468 H 0.68774 0.28584 0.62534 0.0
H1469 H 0.71911 0.20905 0.64661 0.0
H1470 H 0.8548 0.20439 0.64833 0.0
H1471 H 0.80873 0.2015 0.63667 0.0
H1472 H 0.77311 0.27441 0.60567 0.0
C1473 C 0.67622 0.2677 0.62503 0.0
C1474 C 0.7307 0.22301 0.63718 0.0
C1475 C 0.64895 0.26922 0.6288 0.0
C1476 C 0.84418 0.22253 0.64469 0.0
C1477 C 0.81774 0.22093 0.63808 0.0
C1478 C 0.76157 0.26001 0.61468 0.0
C1479 C 0.68873 0.24293 0.62282 0.0
C1480 C 0.7182 0.24127 0.62332 0.0
C1481 C 0.80304 0.24405 0.63373 0.0
C1482 C 0.77399 0.24235 0.62917 0.0
H1483 H 0.63405 0.20332 0.62749 0.0
H1484 H 0.68202 0.20049 0.62088 0.0
H1485 H 0.72494 0.27375 0.60093 0.0
H1486 H 0.85194 0.28962 0.64305 0.0
H1487 H 0.80531 0.28706 0.6321 0.0
C1488 C 0.75102 0.06135 0.91294 0.0
C1489 C 0.77331 0.05276 0.9012 0.0
C1490 C 0.74825 0.05493 0.93481 0.0
C1491 C 0.78332 0.03053 0.98333 0.0
H1492 H 0.71355 0.00395 0.99894 0.0
C1493 C 0.76372 0.99016 0.0685 0.0
C1494 C 0.74129 0.00097 0.07876 0.0
C1495 C 0.76687 0.99237 0.04608 0.0
C1496 C 0.73309 0.01141 0.99486 0.0
H1497 H 0.81098 0.03224 0.90334 0.0
H1498 H 0.80625 0.02108 0.94181 0.0
H1499 H 0.72198 0.01893 0.96195 0.0
H1500 H 0.70364 0.02068 0.07358 0.0
H1501 H 0.70905 0.0246 0.03438 0.0
H1502 H 0.79434 0.02341 0.01631 0.0
C1503 C 0.79092 0.03279 0.93407 0.0
C1504 C 0.7379 0.0201 0.97371 0.0
C1505 C 0.79371 0.03928 0.91211 0.0
C1506 C 0.721 0.01197 0.06603 0.0
C1507 C 0.72418 0.01428 0.04358 0.0
C1508 C 0.77849 0.02188 0.0045 0.0
C1509 C 0.7677 0.03975 0.94541 0.0
C1510 C 0.76297 0.03005 0.96779 0.0
C1511 C 0.74767 0.00551 0.03351 0.0
C1512 C 0.75325 0.01244 0.01055 0.0
H1513 H 0.73515 0.07204 0.90491 0.0
H1514 H 0.73047 0.06118 0.94328 0.0
H1515 H 0.80277 0.03824 0.97929 0.0
H1516 H 0.77953 0.98135 0.07799 0.0
H1517 H 0.78487 0.98483 0.03872 0.0
C1518 C 0.47054 0.78392 0.4136 0.0
C1519 C 0.44797 0.7806 0.40062 0.0
C1520 C 0.46923 0.77936 0.4359 0.0
C1521 C 0.4248 0.77013 0.48293 0.0
H1522 H 0.48319 0.72701 0.50394 0.0
C1523 C 0.43039 0.73095 0.57162 0.0
C1524 C 0.45509 0.73483 0.58172 0.0
C1525 C 0.42768 0.73467 0.54918 0.0
C1526 C 0.46681 0.73917 0.49839 0.0
H1527 H 0.40618 0.77086 0.40047 0.0
H1528 H 0.40369 0.76301 0.43978 0.0
H1529 H 0.48159 0.73975 0.4659 0.0
H1530 H 0.49646 0.74445 0.57627 0.0
H1531 H 0.49183 0.75093 0.53736 0.0
H1532 H 0.41026 0.76975 0.51566 0.0
C1533 C 0.42234 0.7694 0.43276 0.0
C1534 C 0.46594 0.74656 0.4766 0.0
C1535 C 0.42368 0.77399 0.41035 0.0
C1536 C 0.47716 0.74146 0.56891 0.0
C1537 C 0.47452 0.74499 0.54659 0.0
C1538 C 0.42571 0.76277 0.50486 0.0
C1539 C 0.44536 0.77112 0.44562 0.0
C1540 C 0.44522 0.76254 0.46868 0.0
C1541 C 0.4497 0.74203 0.53647 0.0
C1542 C 0.44701 0.74759 0.51288 0.0
H1543 H 0.48952 0.78871 0.40631 0.0
H1544 H 0.48718 0.78134 0.44543 0.0
H1545 H 0.40858 0.78243 0.47729 0.0
H1546 H 0.41302 0.72603 0.58117 0.0
H1547 H 0.40835 0.73203 0.54181 0.0
C1548 C 0.76839 0.4386 0.09676 0.0
C1549 C 0.78853 0.44909 0.11001 0.0
C1550 C 0.76812 0.44381 0.07455 0.0
C1551 C 0.80485 0.46455 0.02692 0.0
H1552 H 0.73952 0.5006 0.01134 0.0
C1553 C 0.78667 0.50337 0.93988 0.0
C1554 C 0.76112 0.499 0.93146 0.0
C1555 C 0.79172 0.49979 0.96201 0.0
C1556 C 0.75776 0.49031 0.01529 0.0
H1557 H 0.82553 0.47109 0.11001 0.0
H1558 H 0.8254 0.47951 0.07083 0.0
H1559 H 0.74635 0.4859 0.04853 0.0
H1560 H 0.7208 0.48783 0.93959 0.0
H1561 H 0.72955 0.48116 0.97789 0.0
H1562 H 0.81587 0.46793 0.99349 0.0
C1563 C 0.80968 0.46762 0.07785 0.0
C1564 C 0.76167 0.48198 0.03661 0.0
C1565 C 0.80981 0.46265 0.10022 0.0
C1566 C 0.74057 0.49187 0.94567 0.0
C1567 C 0.74565 0.48803 0.96769 0.0
C1568 C 0.80076 0.47251 0.00541 0.0
C1569 C 0.7882 0.45923 0.06508 0.0
C1570 C 0.78504 0.46871 0.04255 0.0
C1571 C 0.77137 0.49151 0.97612 0.0
C1572 C 0.77696 0.48517 0.99927 0.0
H1573 H 0.75202 0.4276 0.10376 0.0
H1574 H 0.7516 0.43675 0.0649 0.0
H1575 H 0.82306 0.4544 0.0312 0.0
H1576 H 0.80286 0.509 0.92926 0.0
H1577 H 0.81165 0.50313 0.96799 0.0
C1578 C 0.99618 0.75791 0.42008 0.0
C1579 C 0.00483 0.73358 0.41158 0.0
C1580 C 0.99563 0.76201 0.44244 0.0
C1581 C 0.00326 0.72849 0.49593 0.0
H1582 H 0.03461 0.79583 0.5126 0.0
C1583 C 0.04986 0.74423 0.5794 0.0
C1584 C 0.04159 0.76676 0.59099 0.0
C1585 C 0.04386 0.74157 0.55746 0.0
C1586 C 0.02557 0.77709 0.50819 0.0
H1587 H 0.01823 0.69397 0.41944 0.0
H1588 H 0.01785 0.70114 0.45862 0.0
H1589 H 0.02387 0.78753 0.47465 0.0
H1590 H 0.02205 0.80495 0.58844 0.0
H1591 H 0.01201 0.80052 0.54969 0.0
H1592 H 0.00595 0.71779 0.52946 0.0
C1593 C 0.011 0.71697 0.44814 0.0
C1594 C 0.01924 0.77234 0.48648 0.0
C1595 C 0.01122 0.71279 0.42573 0.0
C1596 C 0.02876 0.78743 0.57986 0.0
C1597 C 0.02289 0.78484 0.55777 0.0
C1598 C 0.00982 0.73316 0.51759 0.0
C1599 C 0.00413 0.74196 0.4567 0.0
C1600 C 0.00831 0.74784 0.48005 0.0
C1601 C 0.02969 0.7615 0.54659 0.0
C1602 C 0.02139 0.75735 0.52384 0.0
H1603 H 0.99106 0.77416 0.40935 0.0
H1604 H 0.9896 0.78125 0.44852 0.0
H1605 H 0.99448 0.7096 0.4916 0.0
H1606 H 0.06028 0.72822 0.58748 0.0
H1607 H 0.04991 0.72368 0.54905 0.0
C1608 C 0.2498 0.99511 0.08627 0.0
C1609 C 0.26646 0.97537 0.09497 0.0
C1610 C 0.24741 0.99823 0.06372 0.0
C1611 C 0.25394 0.96023 0.01325 0.0
H1612 H 0.26143 0.02806 0.98423 0.0
C1613 C 0.26964 0.96646 0.9211 0.0
C1614 C 0.25843 0.98764 0.90944 0.0
C1615 C 0.26871 0.96595 0.94375 0.0
C1616 C 0.25883 0.00901 0.99206 0.0
H1617 H 0.29395 0.94376 0.08666 0.0
H1618 H 0.28956 0.94908 0.04766 0.0
H1619 H 0.26311 0.02593 0.02388 0.0
H1620 H 0.23716 0.02485 0.91256 0.0
H1621 H 0.23497 0.02368 0.95216 0.0
H1622 H 0.24939 0.94319 0.98175 0.0
C1623 C 0.2783 0.96208 0.05821 0.0
C1624 C 0.25987 0.00782 0.01479 0.0
C1625 C 0.28093 0.95918 0.08062 0.0
C1626 C 0.24606 0.00826 0.92103 0.0
C1627 C 0.24495 0.00766 0.94376 0.0
C1628 C 0.25262 0.96143 0.99064 0.0
C1629 C 0.26132 0.98141 0.04948 0.0
C1630 C 0.25797 0.98333 0.02557 0.0
C1631 C 0.2563 0.98649 0.95544 0.0
C1632 C 0.2556 0.98574 0.97967 0.0
H1633 H 0.23837 0.0079 0.09686 0.0
H1634 H 0.23415 0.01329 0.05741 0.0
H1635 H 0.25191 0.94113 0.02114 0.0
H1636 H 0.27952 0.95032 0.91275 0.0
H1637 H 0.27818 0.94959 0.95209 0.0
C1638 C 0.52788 0.23401 0.57344 0.0
C1639 C 0.50485 0.24237 0.58436 0.0
C1640 C 0.52947 0.23517 0.55089 0.0
C1641 C 0.4886 0.23907 0.5011 0.0
H1642 H 0.5568 0.25508 0.47496 0.0
C1643 C 0.50823 0.25189 0.40803 0.0
C1644 C 0.53088 0.23875 0.40008 0.0
C1645 C 0.50283 0.25246 0.43033 0.0
C1646 C 0.53766 0.25043 0.48204 0.0
H1647 H 0.46543 0.25875 0.58003 0.0
H1648 H 0.46843 0.26137 0.5404 0.0
H1649 H 0.55165 0.25797 0.51412 0.0
H1650 H 0.56505 0.21506 0.40929 0.0
H1651 H 0.55573 0.2163 0.44807 0.0
H1652 H 0.4747 0.23197 0.46865 0.0
C1653 C 0.48512 0.2535 0.5494 0.0
C1654 C 0.53469 0.25202 0.5045 0.0
C1655 C 0.48345 0.25217 0.57211 0.0
C1656 C 0.54744 0.22538 0.41482 0.0
C1657 C 0.54223 0.22623 0.43706 0.0
C1658 C 0.49153 0.23779 0.4785 0.0
C1659 C 0.50819 0.24498 0.53852 0.0
C1660 C 0.51031 0.24578 0.51441 0.0
C1661 C 0.52018 0.2402 0.44508 0.0
C1662 C 0.51626 0.24293 0.46882 0.0
H1663 H 0.54472 0.22612 0.58226 0.0
H1664 H 0.54732 0.22785 0.54315 0.0
H1665 H 0.4696 0.23394 0.50816 0.0
H1666 H 0.49498 0.26223 0.3971 0.0
H1667 H 0.48569 0.26335 0.43609 0.0
C1668 C 0.23579 0.55425 0.07711 0.0
C1669 C 0.24578 0.53623 0.09249 0.0
C1670 C 0.23794 0.549 0.05494 0.0
C1671 C 0.24619 0.49674 0.01427 0.0
H1672 H 0.27274 0.55438 0.97866 0.0
C1673 C 0.26091 0.48668 0.92083 0.0
C1674 C 0.25277 0.50867 0.90845 0.0
C1675 C 0.2625 0.48845 0.94353 0.0
C1676 C 0.26507 0.53813 0.98829 0.0
H1677 H 0.26479 0.49794 0.09656 0.0
H1678 H 0.26827 0.48864 0.05765 0.0
H1679 H 0.2695 0.56009 0.01777 0.0
H1680 H 0.24006 0.5498 0.91031 0.0
H1681 H 0.24233 0.55266 0.94942 0.0
H1682 H 0.24097 0.47505 0.98465 0.0
C1683 C 0.25899 0.50693 0.06289 0.0
C1684 C 0.26327 0.54141 0.01073 0.0
C1685 C 0.25711 0.51233 0.08515 0.0
C1686 C 0.24655 0.53246 0.91924 0.0
C1687 C 0.24804 0.53418 0.94177 0.0
C1688 C 0.24774 0.49352 0.9917 0.0
C1689 C 0.24989 0.52548 0.04757 0.0
C1690 C 0.25338 0.52096 0.02393 0.0
C1691 C 0.25598 0.51224 0.95427 0.0
C1692 C 0.25673 0.51439 0.9784 0.0
H1693 H 0.22694 0.57284 0.08215 0.0
H1694 H 0.23039 0.56348 0.04351 0.0
H1695 H 0.23846 0.48066 0.02407 0.0
H1696 H 0.26583 0.46806 0.91304 0.0
H1697 H 0.26891 0.47123 0.95263 0.0
C1698 C 0.01038 0.27095 0.41993 0.0
C1699 C 0.99109 0.25788 0.40736 0.0
C1700 C 0.00779 0.27247 0.44256 0.0
C1701 C 0.95768 0.26518 0.48666 0.0
H1702 H 0.01909 0.25605 0.52386 0.0
C1703 C 0.94694 0.24041 0.57695 0.0
C1704 C 0.96219 0.25499 0.59189 0.0
C1705 C 0.9519 0.24215 0.55472 0.0
C1706 C 0.00182 0.25891 0.51366 0.0
H1707 H 0.95401 0.23605 0.40883 0.0
H1708 H 0.9498 0.23821 0.44801 0.0
H1709 H 0.02478 0.2568 0.48442 0.0
H1710 H 0.99524 0.28231 0.59504 0.0
H1711 H 0.00413 0.28506 0.55596 0.0
H1712 H 0.93467 0.26661 0.51581 0.0
C1713 C 0.96667 0.24782 0.44048 0.0
C1714 C 0.00505 0.25941 0.49106 0.0
C1715 C 0.96918 0.24642 0.41794 0.0
C1716 C 0.98311 0.27081 0.584 0.0
C1717 C 0.98824 0.27236 0.56164 0.0
C1718 C 0.95446 0.26446 0.50916 0.0
C1719 C 0.98588 0.26091 0.45314 0.0
C1720 C 0.98295 0.26215 0.47724 0.0
C1721 C 0.97235 0.25838 0.54675 0.0
C1722 C 0.9764 0.26093 0.52292 0.0
H1723 H 0.02748 0.28004 0.41231 0.0
H1724 H 0.02283 0.28295 0.45172 0.0
H1725 H 0.94027 0.26803 0.47663 0.0
H1726 H 0.93072 0.22794 0.58235 0.0
H1727 H 0.93959 0.23079 0.5437 0.0
loop_
_geom_bond_atom_site_label_1
_geom_bond_atom_site_label_2
_geom_bond_distance
_geom_bond_site_symmetry_2
_ccdc_geom_bond_type
Co0 N4 2.148 . S
Co0 N10 2.128 . S
Co0 N20 2.194 . S
Co0 O25 2.351 . S
Co0 O26 2.155 . S
Co0 O27 2.096 . S
C1 N4 1.301 . S
C1 N5 1.328 . S
C1 H6 0.930 . S
C2 C3 1.333 . S
C2 N4 1.317 . S
C2 H7 0.930 . S
C3 C2 1.333 . S
C3 N5 1.350 . S
C3 H29 0.931 . S
N4 Co0 2.148 . S
N4 C1 1.301 . S
N4 C2 1.317 . S
N5 C1 1.328 . S
N5 C3 1.350 . S
H6 C1 0.930 . S
H7 C2 0.930 . S
C8 O9 1.224 . S
C8 O27 1.247 . S
O9 C8 1.224 . S
N10 Co0 2.128 . S
N10 C11 1.355 1_545 S
N10 C13 1.311 1_545 S
C11 N10 1.355 1_565 S
C11 C12 1.363 . S
C11 H23 0.929 . S
C12 C11 1.363 . S
C12 N14 1.375 . S
C12 H30 0.931 . S
C13 N10 1.311 1_565 S
C13 N14 1.347 . S
C13 H24 0.929 1_565 S
N14 C12 1.375 . S
N14 C13 1.347 . S
C15 C18 1.365 . S
C15 N20 1.328 . S
C15 H21 0.929 . S
C16 C17 1.362 . S
C16 C19 1.378 . S
C16 H31 0.929 . S
C17 C16 1.362 . S
C17 C18 1.366 . S
C18 C15 1.365 . S
C18 C17 1.366 . S
C18 H32 0.930 . S
C19 C16 1.378 . S
C19 N20 1.315 . S
C19 H22 0.930 . S
N20 Co0 2.194 . S
N20 C15 1.328 . S
N20 C19 1.315 . S
H21 C15 0.929 . S
H22 C19 0.930 . S
H23 C11 0.929 . S
H24 C13 0.929 1_545 S
O25 Co0 2.351 . S
O25 C28 1.244 . S
O26 Co0 2.155 . S
O26 C28 1.240 . S
O27 Co0 2.096 . S
O27 C8 1.247 . S
C28 O25 1.244 . S
C28 O26 1.240 . S
H29 C3 0.931 . S
H30 C12 0.931 . S
H31 C16 0.929 . S
H32 C18 0.930 . S
Co33 N37 2.148 . S
Co33 N43 2.128 . S
Co33 N53 2.194 . S
Co33 O58 2.351 . S
Co33 O59 2.155 . S
Co33 O60 2.096 . S
C34 N37 1.301 . S
C34 N38 1.328 . S
C34 H39 0.930 . S
C35 C36 1.333 . S
C35 N37 1.317 . S
C35 H40 0.930 . S
C36 C35 1.333 . S
C36 N38 1.350 . S
C36 H62 0.931 . S
N37 Co33 2.148 . S
N37 C34 1.301 . S
N37 C35 1.317 . S
N38 C34 1.328 . S
N38 C36 1.350 . S
H39 C34 0.930 . S
H40 C35 0.930 . S
C41 O42 1.224 . S
C41 O60 1.247 . S
O42 C41 1.224 . S
N43 Co33 2.128 . S
N43 C44 1.355 . S
N43 C46 1.311 . S
C44 N43 1.355 . S
C44 C45 1.363 . S
C44 H56 0.929 . S
C45 C44 1.363 . S
C45 N47 1.375 . S
C45 H63 0.931 . S
C46 N43 1.311 . S
C46 N47 1.347 . S
C46 H57 0.929 . S
N47 C45 1.375 . S
N47 C46 1.347 . S
C48 C51 1.365 . S
C48 N53 1.328 . S
C48 H54 0.929 . S
C49 C50 1.362 . S
C49 C52 1.378 . S
C49 H64 0.929 . S
C50 C49 1.362 . S
C50 C51 1.366 . S
C51 C48 1.365 . S
C51 C50 1.366 . S
C51 H65 0.930 . S
C52 C49 1.378 . S
C52 N53 1.315 . S
C52 H55 0.930 . S
N53 Co33 2.194 . S
N53 C48 1.328 . S
N53 C52 1.315 . S
H54 C48 0.929 . S
H55 C52 0.930 . S
H56 C44 0.929 . S
H57 C46 0.929 . S
O58 Co33 2.351 . S
O58 C61 1.244 . S
O59 Co33 2.155 . S
O59 C61 1.240 . S
O60 Co33 2.096 . S
O60 C41 1.247 . S
C61 O58 1.244 . S
C61 O59 1.240 . S
H62 C36 0.931 . S
H63 C45 0.931 . S
H64 C49 0.929 . S
H65 C51 0.930 . S
Co66 N70 2.148 . S
Co66 N76 2.128 . S
Co66 N86 2.194 . S
Co66 O91 2.351 . S
Co66 O92 2.155 . S
Co66 O93 2.096 . S
C67 N70 1.301 . S
C67 N71 1.328 . S
C67 H72 0.930 . S
C68 C69 1.333 . S
C68 N70 1.317 . S
C68 H73 0.930 . S
C69 C68 1.333 . S
C69 N71 1.350 . S
C69 H95 0.931 . S
N70 Co66 2.148 . S
N70 C67 1.301 . S
N70 C68 1.317 . S
N71 C67 1.328 . S
N71 C69 1.350 . S
H72 C67 0.930 . S
H73 C68 0.930 . S
C74 O75 1.224 . S
C74 O93 1.247 . S
O75 C74 1.224 . S
N76 Co66 2.128 . S
N76 C77 1.355 . S
N76 C79 1.311 . S
C77 N76 1.355 . S
C77 C78 1.363 . S
C77 H89 0.929 . S
C78 C77 1.363 . S
C78 N80 1.375 . S
C78 H96 0.931 . S
C79 N76 1.311 . S
C79 N80 1.347 . S
C79 H90 0.929 . S
N80 C78 1.375 . S
N80 C79 1.347 . S
C81 C84 1.365 . S
C81 N86 1.328 . S
C81 H87 0.929 . S
C82 C83 1.362 . S
C82 C85 1.378 . S
C82 H97 0.929 . S
C83 C82 1.362 . S
C83 C84 1.366 . S
C84 C81 1.365 . S
C84 C83 1.366 . S
C84 H98 0.930 . S
C85 C82 1.378 . S
C85 N86 1.315 . S
C85 H88 0.930 . S
N86 Co66 2.194 . S
N86 C81 1.328 . S
N86 C85 1.315 . S
H87 C81 0.929 . S
H88 C85 0.930 . S
H89 C77 0.929 . S
H90 C79 0.929 . S
O91 Co66 2.351 . S
O91 C94 1.244 . S
O92 Co66 2.155 . S
O92 C94 1.240 . S
O93 Co66 2.096 . S
O93 C74 1.247 . S
C94 O91 1.244 . S
C94 O92 1.240 . S
H95 C69 0.931 . S
H96 C78 0.931 . S
H97 C82 0.929 . S
H98 C84 0.930 . S
Co99 N103 2.148 . S
Co99 N109 2.128 . S
Co99 N119 2.194 . S
Co99 O124 2.351 . S
Co99 O125 2.155 . S
Co99 O126 2.096 . S
C100 N103 1.301 . S
C100 N104 1.328 . S
C100 H105 0.930 . S
C101 C102 1.333 . S
C101 N103 1.317 . S
C101 H106 0.930 . S
C102 C101 1.333 . S
C102 N104 1.350 . S
C102 H128 0.931 . S
N103 Co99 2.148 . S
N103 C100 1.301 . S
N103 C101 1.317 . S
N104 C100 1.328 . S
N104 C102 1.350 . S
H105 C100 0.930 . S
H106 C101 0.930 . S
C107 O108 1.224 . S
C107 O126 1.247 . S
O108 C107 1.224 . S
N109 Co99 2.128 . S
N109 C110 1.355 1_455 S
N109 C112 1.311 1_455 S
C110 N109 1.355 1_655 S
C110 C111 1.363 . S
C110 H122 0.929 . S
C111 C110 1.363 . S
C111 N113 1.375 . S
C111 H129 0.931 . S
C112 N109 1.311 1_655 S
C112 N113 1.347 . S
C112 H123 0.929 1_655 S
N113 C111 1.375 . S
N113 C112 1.347 . S
C114 C117 1.365 . S
C114 N119 1.328 . S
C114 H120 0.929 . S
C115 C116 1.362 . S
C115 C118 1.378 . S
C115 H130 0.929 . S
C116 C115 1.362 . S
C116 C117 1.366 . S
C117 C114 1.365 . S
C117 C116 1.366 . S
C117 H131 0.930 . S
C118 C115 1.378 . S
C118 N119 1.315 . S
C118 H121 0.930 . S
N119 Co99 2.194 . S
N119 C114 1.328 . S
N119 C118 1.315 . S
H120 C114 0.929 . S
H121 C118 0.930 . S
H122 C110 0.929 . S
H123 C112 0.929 1_455 S
O124 Co99 2.351 . S
O124 C127 1.244 . S
O125 Co99 2.155 . S
O125 C127 1.240 . S
O126 Co99 2.096 . S
O126 C107 1.247 . S
C127 O124 1.244 . S
C127 O125 1.240 . S
H128 C102 0.931 . S
H129 C111 0.931 . S
H130 C115 0.929 . S
H131 C117 0.930 . S
Co132 N136 2.148 . S
Co132 N142 2.128 . S
Co132 N152 2.194 . S
Co132 O157 2.351 . S
Co132 O158 2.155 . S
Co132 O159 2.096 . S
C133 N136 1.301 . S
C133 N137 1.328 . S
C133 H138 0.930 . S
C134 C135 1.333 . S
C134 N136 1.317 . S
C134 H139 0.930 . S
C135 C134 1.333 . S
C135 N137 1.350 . S
C135 H161 0.931 . S
N136 Co132 2.148 . S
N136 C133 1.301 . S
N136 C134 1.317 . S
N137 C133 1.328 . S
N137 C135 1.350 . S
H138 C133 0.930 . S
H139 C134 0.930 . S
C140 O141 1.224 . S
C140 O159 1.247 . S
O141 C140 1.224 . S
N142 Co132 2.128 . S
N142 C143 1.355 . S
N142 C145 1.311 . S
C143 N142 1.355 . S
C143 C144 1.363 . S
C143 H155 0.929 . S
C144 C143 1.363 . S
C144 N146 1.375 . S
C144 H162 0.931 . S
C145 N142 1.311 . S
C145 N146 1.347 . S
C145 H156 0.929 . S
N146 C144 1.375 . S
N146 C145 1.347 . S
C147 C150 1.365 . S
C147 N152 1.328 . S
C147 H153 0.929 . S
C148 C149 1.362 . S
C148 C151 1.378 . S
C148 H163 0.929 . S
C149 C148 1.362 . S
C149 C150 1.366 . S
C150 C147 1.365 . S
C150 C149 1.366 . S
C150 H164 0.930 . S
C151 C148 1.378 . S
C151 N152 1.315 . S
C151 H154 0.930 . S
N152 Co132 2.194 . S
N152 C147 1.328 . S
N152 C151 1.315 . S
H153 C147 0.929 . S
H154 C151 0.930 . S
H155 C143 0.929 . S
H156 C145 0.929 . S
O157 Co132 2.351 . S
O157 C160 1.244 . S
O158 Co132 2.155 . S
O158 C160 1.240 . S
O159 Co132 2.096 . S
O159 C140 1.247 . S
C160 O157 1.244 . S
C160 O158 1.240 . S
H161 C135 0.931 . S
H162 C144 0.931 . S
H163 C148 0.929 . S
H164 C150 0.930 . S
Co165 N169 2.148 . S
Co165 N175 2.128 . S
Co165 N185 2.194 . S
Co165 O190 2.351 . S
Co165 O191 2.155 . S
Co165 O192 2.096 . S
C166 N169 1.301 . S
C166 N170 1.328 . S
C166 H171 0.930 . S
C167 C168 1.333 . S
C167 N169 1.317 . S
C167 H172 0.930 . S
C168 C167 1.333 . S
C168 N170 1.350 . S
C168 H194 0.931 . S
N169 Co165 2.148 . S
N169 C166 1.301 . S
N169 C167 1.317 . S
N170 C166 1.328 . S
N170 C168 1.350 . S
H171 C166 0.930 . S
H172 C167 0.930 . S
C173 O174 1.224 . S
C173 O192 1.247 . S
O174 C173 1.224 . S
N175 Co165 2.128 . S
N175 C176 1.355 1_455 S
N175 C178 1.311 1_455 S
C176 N175 1.355 1_655 S
C176 C177 1.363 . S
C176 H188 0.929 . S
C177 C176 1.363 . S
C177 N179 1.375 . S
C177 H195 0.931 . S
C178 N175 1.311 1_655 S
C178 N179 1.347 . S
C178 H189 0.929 1_655 S
N179 C177 1.375 . S
N179 C178 1.347 . S
C180 C183 1.365 . S
C180 N185 1.328 . S
C180 H186 0.929 . S
C181 C182 1.362 . S
C181 C184 1.378 . S
C181 H196 0.929 . S
C182 C181 1.362 . S
C182 C183 1.366 . S
C183 C180 1.365 . S
C183 C182 1.366 . S
C183 H197 0.930 . S
C184 C181 1.378 . S
C184 N185 1.315 . S
C184 H187 0.930 . S
N185 Co165 2.194 . S
N185 C180 1.328 . S
N185 C184 1.315 . S
H186 C180 0.929 . S
H187 C184 0.930 . S
H188 C176 0.929 . S
H189 C178 0.929 1_455 S
O190 Co165 2.351 . S
O190 C193 1.244 . S
O191 Co165 2.155 . S
O191 C193 1.240 . S
O192 Co165 2.096 . S
O192 C173 1.247 . S
C193 O190 1.244 . S
C193 O191 1.240 . S
H194 C168 0.931 . S
H195 C177 0.931 . S
H196 C181 0.929 . S
H197 C183 0.930 . S
Co198 N202 2.148 . S
Co198 N208 2.128 . S
Co198 N218 2.194 . S
Co198 O223 2.351 . S
Co198 O224 2.155 . S
Co198 O225 2.096 . S
C199 N202 1.301 . S
C199 N203 1.328 . S
C199 H204 0.930 . S
C200 C201 1.333 . S
C200 N202 1.317 . S
C200 H205 0.930 . S
C201 C200 1.333 . S
C201 N203 1.350 . S
C201 H227 0.931 . S
N202 Co198 2.148 . S
N202 C199 1.301 . S
N202 C200 1.317 . S
N203 C199 1.328 . S
N203 C201 1.350 . S
H204 C199 0.930 . S
H205 C200 0.930 . S
C206 O207 1.224 . S
C206 O225 1.247 . S
O207 C206 1.224 . S
N208 Co198 2.128 . S
N208 C209 1.355 1_545 S
N208 C211 1.311 1_545 S
C209 N208 1.355 1_565 S
C209 C210 1.363 . S
C209 H221 0.929 . S
C210 C209 1.363 . S
C210 N212 1.375 . S
C210 H228 0.931 . S
C211 N208 1.311 1_565 S
C211 N212 1.347 . S
C211 H222 0.929 1_565 S
N212 C210 1.375 . S
N212 C211 1.347 . S
C213 C216 1.365 . S
C213 N218 1.328 . S
C213 H219 0.929 . S
C214 C215 1.362 . S
C214 C217 1.378 . S
C214 H229 0.929 . S
C215 C214 1.362 . S
C215 C216 1.366 . S
C216 C213 1.365 . S
C216 C215 1.366 . S
C216 H230 0.930 . S
C217 C214 1.378 . S
C217 N218 1.315 . S
C217 H220 0.930 . S
N218 Co198 2.194 . S
N218 C213 1.328 . S
N218 C217 1.315 . S
H219 C213 0.929 . S
H220 C217 0.930 . S
H221 C209 0.929 . S
H222 C211 0.929 1_545 S
O223 Co198 2.351 . S
O223 C226 1.244 . S
O224 Co198 2.155 . S
O224 C226 1.240 . S
O225 Co198 2.096 . S
O225 C206 1.247 . S
C226 O223 1.244 . S
C226 O224 1.240 . S
H227 C201 0.931 . S
H228 C210 0.931 . S
H229 C214 0.929 . S
H230 C216 0.930 . S
Co231 N235 2.148 . S
Co231 N241 2.128 . S
Co231 N251 2.194 . S
Co231 O256 2.351 . S
Co231 O257 2.155 . S
Co231 O258 2.096 . S
C232 N235 1.301 . S
C232 N236 1.328 . S
C232 H237 0.930 . S
C233 C234 1.333 . S
C233 N235 1.317 . S
C233 H238 0.930 . S
C234 C233 1.333 . S
C234 N236 1.350 . S
C234 H260 0.931 . S
N235 Co231 2.148 . S
N235 C232 1.301 . S
N235 C233 1.317 . S
N236 C232 1.328 . S
N236 C234 1.350 . S
H237 C232 0.930 . S
H238 C233 0.930 . S
C239 O240 1.224 . S
C239 O258 1.247 . S
O240 C239 1.224 . S
N241 Co231 2.128 . S
N241 C242 1.355 . S
N241 C244 1.311 . S
C242 N241 1.355 . S
C242 C243 1.363 . S
C242 H254 0.929 . S
C243 C242 1.363 . S
C243 N245 1.375 . S
C243 H261 0.931 . S
C244 N241 1.311 . S
C244 N245 1.347 . S
C244 H255 0.929 . S
N245 C243 1.375 . S
N245 C244 1.347 . S
C246 C249 1.365 . S
C246 N251 1.328 . S
C246 H252 0.929 . S
C247 C248 1.362 . S
C247 C250 1.378 . S
C247 H262 0.929 . S
C248 C247 1.362 . S
C248 C249 1.366 . S
C249 C246 1.365 . S
C249 C248 1.366 . S
C249 H263 0.930 . S
C250 C247 1.378 . S
C250 N251 1.315 . S
C250 H253 0.930 . S
N251 Co231 2.194 . S
N251 C246 1.328 . S
N251 C250 1.315 . S
H252 C246 0.929 . S
H253 C250 0.930 . S
H254 C242 0.929 . S
H255 C244 0.929 . S
O256 Co231 2.351 . S
O256 C259 1.244 . S
O257 Co231 2.155 . S
O257 C259 1.240 . S
O258 Co231 2.096 . S
O258 C239 1.247 . S
C259 O256 1.244 . S
C259 O257 1.240 . S
H260 C234 0.931 . S
H261 C243 0.931 . S
H262 C247 0.929 . S
H263 C249 0.930 . S
Co264 N268 2.148 . S
Co264 N274 2.128 . S
Co264 N284 2.194 . S
Co264 O289 2.351 . S
Co264 O290 2.155 . S
Co264 O291 2.096 . S
C265 N268 1.301 1_545 S
C265 N269 1.328 . S
C265 H270 0.930 1_545 S
C266 C267 1.333 . S
C266 N268 1.317 1_545 S
C266 H271 0.930 . S
C267 C266 1.333 . S
C267 N269 1.350 . S
C267 H293 0.931 . S
N268 Co264 2.148 . S
N268 C265 1.301 1_565 S
N268 C266 1.317 1_565 S
N269 C265 1.328 . S
N269 C267 1.350 . S
H270 C265 0.930 1_565 S
H271 C266 0.930 . S
C272 O273 1.224 . S
C272 O291 1.247 . S
O273 C272 1.224 . S
N274 Co264 2.128 . S
N274 C275 1.355 . S
N274 C277 1.311 . S
C275 N274 1.355 . S
C275 C276 1.363 . S
C275 H287 0.929 . S
C276 C275 1.363 . S
C276 N278 1.375 . S
C276 H294 0.931 . S
C277 N274 1.311 . S
C277 N278 1.347 . S
C277 H288 0.929 . S
N278 C276 1.375 . S
N278 C277 1.347 . S
C279 C282 1.365 . S
C279 N284 1.328 . S
C279 H285 0.929 . S
C280 C281 1.362 . S
C280 C283 1.378 . S
C280 H295 0.929 . S
C281 C280 1.362 . S
C281 C282 1.366 . S
C282 C279 1.365 . S
C282 C281 1.366 . S
C282 H296 0.930 . S
C283 C280 1.378 . S
C283 N284 1.315 . S
C283 H286 0.930 . S
N284 Co264 2.194 . S
N284 C279 1.328 . S
N284 C283 1.315 . S
H285 C279 0.929 . S
H286 C283 0.930 . S
H287 C275 0.929 . S
H288 C277 0.929 . S
O289 Co264 2.351 . S
O289 C292 1.244 . S
O290 Co264 2.155 . S
O290 C292 1.240 . S
O291 Co264 2.096 . S
O291 C272 1.247 . S
C292 O289 1.244 . S
C292 O290 1.240 . S
H293 C267 0.931 . S
H294 C276 0.931 . S
H295 C280 0.929 . S
H296 C282 0.930 . S
Co297 N301 2.148 . S
Co297 N307 2.128 . S
Co297 N317 2.194 . S
Co297 O322 2.351 . S
Co297 O323 2.155 . S
Co297 O324 2.096 . S
C298 N301 1.301 . S
C298 N302 1.328 . S
C298 H303 0.930 . S
C299 C300 1.333 . S
C299 N301 1.317 . S
C299 H304 0.930 . S
C300 C299 1.333 . S
C300 N302 1.350 . S
C300 H326 0.931 . S
N301 Co297 2.148 . S
N301 C298 1.301 . S
N301 C299 1.317 . S
N302 C298 1.328 . S
N302 C300 1.350 . S
H303 C298 0.930 . S
H304 C299 0.930 . S
C305 O306 1.224 . S
C305 O324 1.247 . S
O306 C305 1.224 . S
N307 Co297 2.128 . S
N307 C308 1.355 . S
N307 C310 1.311 . S
C308 N307 1.355 . S
C308 C309 1.363 . S
C308 H320 0.929 . S
C309 C308 1.363 . S
C309 N311 1.375 . S
C309 H327 0.931 . S
C310 N307 1.311 . S
C310 N311 1.347 . S
C310 H321 0.929 . S
N311 C309 1.375 . S
N311 C310 1.347 . S
C312 C315 1.365 . S
C312 N317 1.328 . S
C312 H318 0.929 . S
C313 C314 1.362 . S
C313 C316 1.378 . S
C313 H328 0.929 . S
C314 C313 1.362 . S
C314 C315 1.366 . S
C315 C312 1.365 . S
C315 C314 1.366 . S
C315 H329 0.930 . S
C316 C313 1.378 . S
C316 N317 1.315 . S
C316 H319 0.930 . S
N317 Co297 2.194 . S
N317 C312 1.328 . S
N317 C316 1.315 . S
H318 C312 0.929 . S
H319 C316 0.930 . S
H320 C308 0.929 . S
H321 C310 0.929 . S
O322 Co297 2.351 . S
O322 C325 1.244 . S
O323 Co297 2.155 . S
O323 C325 1.240 . S
O324 Co297 2.096 . S
O324 C305 1.247 . S
C325 O322 1.244 . S
C325 O323 1.240 . S
H326 C300 0.931 . S
H327 C309 0.931 . S
H328 C313 0.929 . S
H329 C315 0.930 . S
Co330 N334 2.148 . S
Co330 N340 2.128 . S
Co330 N350 2.194 . S
Co330 O355 2.351 . S
Co330 O356 2.155 . S
Co330 O357 2.096 . S
C331 N334 1.301 . S
C331 N335 1.328 . S
C331 H336 0.930 . S
C332 C333 1.333 . S
C332 N334 1.317 . S
C332 H337 0.930 . S
C333 C332 1.333 . S
C333 N335 1.350 . S
C333 H359 0.931 . S
N334 Co330 2.148 . S
N334 C331 1.301 . S
N334 C332 1.317 . S
N335 C331 1.328 . S
N335 C333 1.350 . S
H336 C331 0.930 . S
H337 C332 0.930 . S
C338 O339 1.224 . S
C338 O357 1.247 . S
O339 C338 1.224 . S
N340 Co330 2.128 . S
N340 C341 1.355 . S
N340 C343 1.311 . S
C341 N340 1.355 . S
C341 C342 1.363 . S
C341 H353 0.929 . S
C342 C341 1.363 . S
C342 N344 1.375 . S
C342 H360 0.931 . S
C343 N340 1.311 . S
C343 N344 1.347 . S
C343 H354 0.929 . S
N344 C342 1.375 . S
N344 C343 1.347 . S
C345 C348 1.365 . S
C345 N350 1.328 . S
C345 H351 0.929 . S
C346 C347 1.362 . S
C346 C349 1.378 . S
C346 H361 0.929 . S
C347 C346 1.362 . S
C347 C348 1.366 . S
C348 C345 1.365 . S
C348 C347 1.366 . S
C348 H362 0.930 . S
C349 C346 1.378 . S
C349 N350 1.315 . S
C349 H352 0.930 . S
N350 Co330 2.194 . S
N350 C345 1.328 . S
N350 C349 1.315 . S
H351 C345 0.929 . S
H352 C349 0.930 . S
H353 C341 0.929 . S
H354 C343 0.929 . S
O355 Co330 2.351 . S
O355 C358 1.244 . S
O356 Co330 2.155 . S
O356 C358 1.240 . S
O357 Co330 2.096 . S
O357 C338 1.247 . S
C358 O355 1.244 . S
C358 O356 1.240 . S
H359 C333 0.931 . S
H360 C342 0.931 . S
H361 C346 0.929 . S
H362 C348 0.930 . S
Co363 N367 2.148 . S
Co363 N373 2.128 . S
Co363 N383 2.194 . S
Co363 O388 2.351 . S
Co363 O389 2.155 . S
Co363 O390 2.096 . S
C364 N367 1.301 1_455 S
C364 N368 1.328 . S
C364 H369 0.930 1_455 S
C365 C366 1.333 . S
C365 N367 1.317 1_455 S
C365 H370 0.930 . S
C366 C365 1.333 . S
C366 N368 1.350 . S
C366 H392 0.931 . S
N367 Co363 2.148 . S
N367 C364 1.301 1_655 S
N367 C365 1.317 1_655 S
N368 C364 1.328 . S
N368 C366 1.350 . S
H369 C364 0.930 1_655 S
H370 C365 0.930 . S
C371 O372 1.224 . S
C371 O390 1.247 . S
O372 C371 1.224 . S
N373 Co363 2.128 . S
N373 C374 1.355 . S
N373 C376 1.311 . S
C374 N373 1.355 . S
C374 C375 1.363 . S
C374 H386 0.929 . S
C375 C374 1.363 . S
C375 N377 1.375 . S
C375 H393 0.931 . S
C376 N373 1.311 . S
C376 N377 1.347 . S
C376 H387 0.929 . S
N377 C375 1.375 . S
N377 C376 1.347 . S
C378 C381 1.365 . S
C378 N383 1.328 . S
C378 H384 0.929 . S
C379 C380 1.362 . S
C379 C382 1.378 . S
C379 H394 0.929 . S
C380 C379 1.362 . S
C380 C381 1.366 . S
C381 C378 1.365 . S
C381 C380 1.366 . S
C381 H395 0.930 . S
C382 C379 1.378 . S
C382 N383 1.315 . S
C382 H385 0.930 . S
N383 Co363 2.194 . S
N383 C378 1.328 . S
N383 C382 1.315 . S
H384 C378 0.929 . S
H385 C382 0.930 . S
H386 C374 0.929 . S
H387 C376 0.929 . S
O388 Co363 2.351 . S
O388 C391 1.244 . S
O389 Co363 2.155 . S
O389 C391 1.240 . S
O390 Co363 2.096 . S
O390 C371 1.247 . S
C391 O388 1.244 . S
C391 O389 1.240 . S
H392 C366 0.931 . S
H393 C375 0.931 . S
H394 C379 0.929 . S
H395 C381 0.930 . S
Co396 N400 2.148 . S
Co396 N406 2.128 . S
Co396 N416 2.194 . S
Co396 O421 2.351 . S
Co396 O422 2.155 . S
Co396 O423 2.096 . S
C397 N400 1.301 . S
C397 N401 1.328 . S
C397 H402 0.930 . S
C398 C399 1.333 . S
C398 N400 1.317 . S
C398 H403 0.930 . S
C399 C398 1.333 . S
C399 N401 1.350 . S
C399 H425 0.931 . S
N400 Co396 2.148 . S
N400 C397 1.301 . S
N400 C398 1.317 . S
N401 C397 1.328 . S
N401 C399 1.350 . S
H402 C397 0.930 . S
H403 C398 0.930 . S
C404 O405 1.224 . S
C404 O423 1.247 . S
O405 C404 1.224 . S
N406 Co396 2.128 . S
N406 C407 1.355 . S
N406 C409 1.311 . S
C407 N406 1.355 . S
C407 C408 1.363 . S
C407 H419 0.929 . S
C408 C407 1.363 . S
C408 N410 1.375 . S
C408 H426 0.931 . S
C409 N406 1.311 . S
C409 N410 1.347 . S
C409 H420 0.929 . S
N410 C408 1.375 . S
N410 C409 1.347 . S
C411 C414 1.365 . S
C411 N416 1.328 . S
C411 H417 0.929 . S
C412 C413 1.362 . S
C412 C415 1.378 . S
C412 H427 0.929 . S
C413 C412 1.362 . S
C413 C414 1.366 . S
C414 C411 1.365 . S
C414 C413 1.366 . S
C414 H428 0.930 . S
C415 C412 1.378 . S
C415 N416 1.315 . S
C415 H418 0.930 . S
N416 Co396 2.194 . S
N416 C411 1.328 . S
N416 C415 1.315 . S
H417 C411 0.929 . S
H418 C415 0.930 . S
H419 C407 0.929 . S
H420 C409 0.929 . S
O421 Co396 2.351 . S
O421 C424 1.244 . S
O422 Co396 2.155 . S
O422 C424 1.240 . S
O423 Co396 2.096 . S
O423 C404 1.247 . S
C424 O421 1.244 . S
C424 O422 1.240 . S
H425 C399 0.931 . S
H426 C408 0.931 . S
H427 C412 0.929 . S
H428 C414 0.930 . S
Co429 N433 2.148 . S
Co429 N439 2.128 . S
Co429 N449 2.194 . S
Co429 O454 2.351 . S
Co429 O455 2.155 . S
Co429 O456 2.096 . S
C430 N433 1.301 1_455 S
C430 N434 1.328 . S
C430 H435 0.930 1_455 S
C431 C432 1.333 . S
C431 N433 1.317 1_455 S
C431 H436 0.930 . S
C432 C431 1.333 . S
C432 N434 1.350 . S
C432 H458 0.931 . S
N433 Co429 2.148 . S
N433 C430 1.301 1_655 S
N433 C431 1.317 1_655 S
N434 C430 1.328 . S
N434 C432 1.350 . S
H435 C430 0.930 1_655 S
H436 C431 0.930 . S
C437 O438 1.224 . S
C437 O456 1.247 . S
O438 C437 1.224 . S
N439 Co429 2.128 . S
N439 C440 1.355 . S
N439 C442 1.311 . S
C440 N439 1.355 . S
C440 C441 1.363 . S
C440 H452 0.929 . S
C441 C440 1.363 . S
C441 N443 1.375 . S
C441 H459 0.931 . S
C442 N439 1.311 . S
C442 N443 1.347 . S
C442 H453 0.929 . S
N443 C441 1.375 . S
N443 C442 1.347 . S
C444 C447 1.365 . S
C444 N449 1.328 . S
C444 H450 0.929 . S
C445 C446 1.362 . S
C445 C448 1.378 . S
C445 H460 0.929 . S
C446 C445 1.362 . S
C446 C447 1.366 . S
C447 C444 1.365 . S
C447 C446 1.366 . S
C447 H461 0.930 . S
C448 C445 1.378 . S
C448 N449 1.315 . S
C448 H451 0.930 . S
N449 Co429 2.194 . S
N449 C444 1.328 . S
N449 C448 1.315 . S
H450 C444 0.929 . S
H451 C448 0.930 . S
H452 C440 0.929 . S
H453 C442 0.929 . S
O454 Co429 2.351 . S
O454 C457 1.244 . S
O455 Co429 2.155 . S
O455 C457 1.240 . S
O456 Co429 2.096 . S
O456 C437 1.247 . S
C457 O454 1.244 . S
C457 O455 1.240 . S
H458 C432 0.931 . S
H459 C441 0.931 . S
H460 C445 0.929 . S
H461 C447 0.930 . S
Co462 N466 2.148 . S
Co462 N472 2.128 . S
Co462 N482 2.194 . S
Co462 O487 2.351 . S
Co462 O488 2.155 . S
Co462 O489 2.096 . S
C463 N466 1.301 1_545 S
C463 N467 1.328 . S
C463 H468 0.930 1_545 S
C464 C465 1.333 . S
C464 N466 1.317 1_545 S
C464 H469 0.930 . S
C465 C464 1.333 . S
C465 N467 1.350 . S
C465 H491 0.931 . S
N466 Co462 2.148 . S
N466 C463 1.301 1_565 S
N466 C464 1.317 1_565 S
N467 C463 1.328 . S
N467 C465 1.350 . S
H468 C463 0.930 1_565 S
H469 C464 0.930 . S
C470 O471 1.224 . S
C470 O489 1.247 . S
O471 C470 1.224 . S
N472 Co462 2.128 . S
N472 C473 1.355 . S
N472 C475 1.311 . S
C473 N472 1.355 . S
C473 C474 1.363 . S
C473 H485 0.929 . S
C474 C473 1.363 . S
C474 N476 1.375 . S
C474 H492 0.931 . S
C475 N472 1.311 . S
C475 N476 1.347 . S
C475 H486 0.929 . S
N476 C474 1.375 . S
N476 C475 1.347 . S
C477 C480 1.365 . S
C477 N482 1.328 . S
C477 H483 0.929 . S
C478 C479 1.362 . S
C478 C481 1.378 . S
C478 H493 0.929 . S
C479 C478 1.362 . S
C479 C480 1.366 . S
C480 C477 1.365 . S
C480 C479 1.366 . S
C480 H494 0.930 . S
C481 C478 1.378 . S
C481 N482 1.315 . S
C481 H484 0.930 . S
N482 Co462 2.194 . S
N482 C477 1.328 . S
N482 C481 1.315 . S
H483 C477 0.929 . S
H484 C481 0.930 . S
H485 C473 0.929 . S
H486 C475 0.929 . S
O487 Co462 2.351 . S
O487 C490 1.244 . S
O488 Co462 2.155 . S
O488 C490 1.240 . S
O489 Co462 2.096 . S
O489 C470 1.247 . S
C490 O487 1.244 . S
C490 O488 1.240 . S
H491 C465 0.931 . S
H492 C474 0.931 . S
H493 C478 0.929 . S
H494 C480 0.930 . S
Co495 N499 2.148 . S
Co495 N505 2.128 . S
Co495 N515 2.194 . S
Co495 O520 2.351 . S
Co495 O521 2.155 . S
Co495 O522 2.096 . S
C496 N499 1.301 . S
C496 N500 1.328 . S
C496 H501 0.930 . S
C497 C498 1.333 . S
C497 N499 1.317 . S
C497 H502 0.930 . S
C498 C497 1.333 . S
C498 N500 1.350 . S
C498 H524 0.931 . S
N499 Co495 2.148 . S
N499 C496 1.301 . S
N499 C497 1.317 . S
N500 C496 1.328 . S
N500 C498 1.350 . S
H501 C496 0.930 . S
H502 C497 0.930 . S
C503 O504 1.224 . S
C503 O522 1.247 . S
O504 C503 1.224 . S
N505 Co495 2.128 . S
N505 C506 1.355 . S
N505 C508 1.311 . S
C506 N505 1.355 . S
C506 C507 1.363 . S
C506 H518 0.929 . S
C507 C506 1.363 . S
C507 N509 1.375 . S
C507 H525 0.931 . S
C508 N505 1.311 . S
C508 N509 1.347 . S
C508 H519 0.929 . S
N509 C507 1.375 . S
N509 C508 1.347 . S
C510 C513 1.365 . S
C510 N515 1.328 . S
C510 H516 0.929 . S
C511 C512 1.362 . S
C511 C514 1.378 . S
C511 H526 0.929 . S
C512 C511 1.362 . S
C512 C513 1.366 . S
C513 C510 1.365 . S
C513 C512 1.366 . S
C513 H527 0.930 . S
C514 C511 1.378 . S
C514 N515 1.315 . S
C514 H517 0.930 . S
N515 Co495 2.194 . S
N515 C510 1.328 . S
N515 C514 1.315 . S
H516 C510 0.929 . S
H517 C514 0.930 . S
H518 C506 0.929 . S
H519 C508 0.929 . S
O520 Co495 2.351 . S
O520 C523 1.244 . S
O521 Co495 2.155 . S
O521 C523 1.240 . S
O522 Co495 2.096 . S
O522 C503 1.247 . S
C523 O520 1.244 . S
C523 O521 1.240 . S
H524 C498 0.931 . S
H525 C507 0.931 . S
H526 C511 0.929 . S
H527 C513 0.930 . S
C528 C529 1.349 . S
C528 C530 1.327 . S
C528 H553 0.950 . S
C529 C528 1.349 . S
C529 C545 1.349 . S
C530 C528 1.327 . S
C530 C549 1.429 . S
C530 H554 0.950 . S
C531 C548 1.574 . S
C531 C550 1.368 . S
C531 H555 0.949 . S
H532 C536 0.949 . S
C533 C534 1.349 . S
C533 C535 1.327 . S
C533 H556 0.950 . S
C534 C533 1.349 . S
C534 C546 1.349 . S
C535 C533 1.327 . S
C535 C551 1.429 . S
C535 H557 0.950 . S
C536 H532 0.949 . S
C536 C544 1.574 . S
C536 C552 1.368 . S
H537 C545 0.950 . S
H538 C543 0.950 . S
H539 C544 0.949 . S
H540 C546 0.950 . S
H541 C547 0.950 . S
H542 C548 0.949 . S
C543 H538 0.950 . S
C543 C545 1.327 . S
C543 C549 1.429 . S
C544 C536 1.574 . S
C544 H539 0.949 . S
C544 C550 1.368 . S
C545 C529 1.349 . S
C545 H537 0.950 . S
C545 C543 1.327 . S
C546 C534 1.349 . S
C546 H540 0.950 . S
C546 C547 1.327 . S
C547 H541 0.950 . S
C547 C546 1.327 . S
C547 C551 1.429 . S
C548 C531 1.574 . S
C548 H542 0.949 . S
C548 C552 1.368 . S
C549 C530 1.429 . S
C549 C543 1.429 . S
C549 C550 1.523 . S
C550 C531 1.368 . S
C550 C544 1.368 . S
C550 C549 1.523 . S
C551 C535 1.429 . S
C551 C547 1.429 . S
C551 C552 1.523 . S
C552 C536 1.368 . S
C552 C548 1.368 . S
C552 C551 1.523 . S
H553 C528 0.950 . S
H554 C530 0.950 . S
H555 C531 0.949 . S
H556 C533 0.950 . S
H557 C535 0.950 . S
C558 C559 1.349 . S
C558 C560 1.327 . S
C558 H583 0.950 . S
C559 C558 1.349 . S
C559 C575 1.349 . S
C560 C558 1.327 . S
C560 C579 1.429 . S
C560 H584 0.950 . S
C561 C578 1.574 . S
C561 C580 1.368 . S
C561 H585 0.949 . S
H562 C566 0.949 . S
C563 C564 1.349 . S
C563 C565 1.327 . S
C563 H586 0.950 . S
C564 C563 1.349 . S
C564 C576 1.349 . S
C565 C563 1.327 . S
C565 C581 1.429 . S
C565 H587 0.950 . S
C566 H562 0.949 . S
C566 C574 1.574 . S
C566 C582 1.368 . S
H567 C575 0.950 . S
H568 C573 0.950 . S
H569 C574 0.949 . S
H570 C576 0.950 . S
H571 C577 0.950 . S
H572 C578 0.949 . S
C573 H568 0.950 . S
C573 C575 1.327 . S
C573 C579 1.429 . S
C574 C566 1.574 . S
C574 H569 0.949 . S
C574 C580 1.368 . S
C575 C559 1.349 . S
C575 H567 0.950 . S
C575 C573 1.327 . S
C576 C564 1.349 . S
C576 H570 0.950 . S
C576 C577 1.327 . S
C577 H571 0.950 . S
C577 C576 1.327 . S
C577 C581 1.429 . S
C578 C561 1.574 . S
C578 H572 0.949 . S
C578 C582 1.368 . S
C579 C560 1.429 . S
C579 C573 1.429 . S
C579 C580 1.523 . S
C580 C561 1.368 . S
C580 C574 1.368 . S
C580 C579 1.523 . S
C581 C565 1.429 . S
C581 C577 1.429 . S
C581 C582 1.523 . S
C582 C566 1.368 . S
C582 C578 1.368 . S
C582 C581 1.523 . S
H583 C558 0.950 . S
H584 C560 0.950 . S
H585 C561 0.949 . S
H586 C563 0.950 . S
H587 C565 0.950 . S
C588 C589 1.349 . S
C588 C590 1.327 . S
C588 H613 0.950 . S
C589 C588 1.349 . S
C589 C605 1.349 . S
C590 C588 1.327 . S
C590 C609 1.429 . S
C590 H614 0.950 . S
C591 C608 1.574 . S
C591 C610 1.368 . S
C591 H615 0.949 . S
H592 C596 0.949 . S
C593 C594 1.349 . S
C593 C595 1.327 . S
C593 H616 0.950 . S
C594 C593 1.349 . S
C594 C606 1.349 . S
C595 C593 1.327 . S
C595 C611 1.429 . S
C595 H617 0.950 . S
C596 H592 0.949 . S
C596 C604 1.574 . S
C596 C612 1.368 . S
H597 C605 0.950 . S
H598 C603 0.950 . S
H599 C604 0.949 . S
H600 C606 0.950 . S
H601 C607 0.950 . S
H602 C608 0.949 . S
C603 H598 0.950 . S
C603 C605 1.327 . S
C603 C609 1.429 . S
C604 C596 1.574 . S
C604 H599 0.949 . S
C604 C610 1.368 . S
C605 C589 1.349 . S
C605 H597 0.950 . S
C605 C603 1.327 . S
C606 C594 1.349 . S
C606 H600 0.950 . S
C606 C607 1.327 . S
C607 H601 0.950 . S
C607 C606 1.327 . S
C607 C611 1.429 . S
C608 C591 1.574 . S
C608 H602 0.949 . S
C608 C612 1.368 . S
C609 C590 1.429 . S
C609 C603 1.429 . S
C609 C610 1.523 . S
C610 C591 1.368 . S
C610 C604 1.368 . S
C610 C609 1.523 . S
C611 C595 1.429 . S
C611 C607 1.429 . S
C611 C612 1.523 . S
C612 C596 1.368 . S
C612 C608 1.368 . S
C612 C611 1.523 . S
H613 C588 0.950 . S
H614 C590 0.950 . S
H615 C591 0.949 . S
H616 C593 0.950 . S
H617 C595 0.950 . S
C618 C619 1.349 . S
C618 C620 1.327 . S
C618 H643 0.950 . S
C619 C618 1.349 . S
C619 C635 1.349 . S
C620 C618 1.327 . S
C620 C639 1.429 . S
C620 H644 0.950 . S
C621 C638 1.574 . S
C621 C640 1.368 . S
C621 H645 0.949 . S
H622 C626 0.949 . S
C623 C624 1.349 . S
C623 C625 1.327 . S
C623 H646 0.950 . S
C624 C623 1.349 . S
C624 C636 1.349 . S
C625 C623 1.327 . S
C625 C641 1.429 . S
C625 H647 0.950 . S
C626 H622 0.949 . S
C626 C634 1.574 . S
C626 C642 1.368 . S
H627 C635 0.950 . S
H628 C633 0.950 . S
H629 C634 0.949 . S
H630 C636 0.950 . S
H631 C637 0.950 . S
H632 C638 0.949 . S
C633 H628 0.950 . S
C633 C635 1.327 . S
C633 C639 1.429 . S
C634 C626 1.574 . S
C634 H629 0.949 . S
C634 C640 1.368 . S
C635 C619 1.349 . S
C635 H627 0.950 . S
C635 C633 1.327 . S
C636 C624 1.349 . S
C636 H630 0.950 . S
C636 C637 1.327 . S
C637 H631 0.950 . S
C637 C636 1.327 . S
C637 C641 1.429 . S
C638 C621 1.574 . S
C638 H632 0.949 . S
C638 C642 1.368 . S
C639 C620 1.429 . S
C639 C633 1.429 . S
C639 C640 1.523 . S
C640 C621 1.368 . S
C640 C634 1.368 . S
C640 C639 1.523 . S
C641 C625 1.429 . S
C641 C637 1.429 . S
C641 C642 1.523 . S
C642 C626 1.368 . S
C642 C638 1.368 . S
C642 C641 1.523 . S
H643 C618 0.950 . S
H644 C620 0.950 . S
H645 C621 0.949 . S
H646 C623 0.950 . S
H647 C625 0.950 . S
C648 C649 1.349 . S
C648 C650 1.327 . S
C648 H673 0.950 . S
C649 C648 1.349 . S
C649 C665 1.349 . S
C650 C648 1.327 . S
C650 C669 1.429 . S
C650 H674 0.950 . S
C651 C668 1.574 . S
C651 C670 1.368 . S
C651 H675 0.949 . S
H652 C656 0.949 . S
C653 C654 1.349 . S
C653 C655 1.327 . S
C653 H676 0.950 . S
C654 C653 1.349 . S
C654 C666 1.349 . S
C655 C653 1.327 . S
C655 C671 1.429 . S
C655 H677 0.950 . S
C656 H652 0.949 . S
C656 C664 1.574 . S
C656 C672 1.368 . S
H657 C665 0.950 . S
H658 C663 0.950 . S
H659 C664 0.949 . S
H660 C666 0.950 . S
H661 C667 0.950 . S
H662 C668 0.949 . S
C663 H658 0.950 . S
C663 C665 1.327 . S
C663 C669 1.429 . S
C664 C656 1.574 . S
C664 H659 0.949 . S
C664 C670 1.368 . S
C665 C649 1.349 . S
C665 H657 0.950 . S
C665 C663 1.327 . S
C666 C654 1.349 . S
C666 H660 0.950 . S
C666 C667 1.327 . S
C667 H661 0.950 . S
C667 C666 1.327 . S
C667 C671 1.429 . S
C668 C651 1.574 . S
C668 H662 0.949 . S
C668 C672 1.368 . S
C669 C650 1.429 . S
C669 C663 1.429 . S
C669 C670 1.523 . S
C670 C651 1.368 . S
C670 C664 1.368 . S
C670 C669 1.523 . S
C671 C655 1.429 . S
C671 C667 1.429 . S
C671 C672 1.523 . S
C672 C656 1.368 . S
C672 C668 1.368 . S
C672 C671 1.523 . S
H673 C648 0.950 . S
H674 C650 0.950 . S
H675 C651 0.949 . S
H676 C653 0.950 . S
H677 C655 0.950 . S
C678 C679 1.349 . S
C678 C680 1.327 . S
C678 H703 0.950 . S
C679 C678 1.349 . S
C679 C695 1.349 . S
C680 C678 1.327 . S
C680 C699 1.429 . S
C680 H704 0.950 . S
C681 C698 1.574 . S
C681 C700 1.368 . S
C681 H705 0.949 . S
H682 C686 0.949 . S
C683 C684 1.349 . S
C683 C685 1.327 . S
C683 H706 0.950 . S
C684 C683 1.349 . S
C684 C696 1.349 . S
C685 C683 1.327 . S
C685 C701 1.429 . S
C685 H707 0.950 . S
C686 H682 0.949 . S
C686 C694 1.574 . S
C686 C702 1.368 . S
H687 C695 0.950 . S
H688 C693 0.950 . S
H689 C694 0.949 . S
H690 C696 0.950 . S
H691 C697 0.950 . S
H692 C698 0.949 . S
C693 H688 0.950 . S
C693 C695 1.327 . S
C693 C699 1.429 . S
C694 C686 1.574 . S
C694 H689 0.949 . S
C694 C700 1.368 . S
C695 C679 1.349 . S
C695 H687 0.950 . S
C695 C693 1.327 . S
C696 C684 1.349 . S
C696 H690 0.950 . S
C696 C697 1.327 . S
C697 H691 0.950 . S
C697 C696 1.327 . S
C697 C701 1.429 . S
C698 C681 1.574 . S
C698 H692 0.949 . S
C698 C702 1.368 . S
C699 C680 1.429 . S
C699 C693 1.429 . S
C699 C700 1.523 . S
C700 C681 1.368 . S
C700 C694 1.368 . S
C700 C699 1.523 . S
C701 C685 1.429 . S
C701 C697 1.429 . S
C701 C702 1.523 . S
C702 C686 1.368 . S
C702 C698 1.368 . S
C702 C701 1.523 . S
H703 C678 0.950 . S
H704 C680 0.950 . S
H705 C681 0.949 . S
H706 C683 0.950 . S
H707 C685 0.950 . S
C708 C709 1.349 . S
C708 C710 1.327 . S
C708 H733 0.950 . S
C709 C708 1.349 . S
C709 C725 1.349 . S
C710 C708 1.327 . S
C710 C729 1.429 . S
C710 H734 0.950 . S
C711 C728 1.574 . S
C711 C730 1.368 . S
C711 H735 0.949 . S
H712 C716 0.949 . S
C713 C714 1.349 . S
C713 C715 1.327 . S
C713 H736 0.950 . S
C714 C713 1.349 . S
C714 C726 1.349 . S
C715 C713 1.327 . S
C715 C731 1.429 . S
C715 H737 0.950 . S
C716 H712 0.949 . S
C716 C724 1.574 . S
C716 C732 1.368 . S
H717 C725 0.950 . S
H718 C723 0.950 . S
H719 C724 0.949 . S
H720 C726 0.950 . S
H721 C727 0.950 . S
H722 C728 0.949 . S
C723 H718 0.950 . S
C723 C725 1.327 . S
C723 C729 1.429 . S
C724 C716 1.574 . S
C724 H719 0.949 . S
C724 C730 1.368 . S
C725 C709 1.349 . S
C725 H717 0.950 . S
C725 C723 1.327 . S
C726 C714 1.349 . S
C726 H720 0.950 . S
C726 C727 1.327 . S
C727 H721 0.950 . S
C727 C726 1.327 . S
C727 C731 1.429 . S
C728 C711 1.574 . S
C728 H722 0.949 . S
C728 C732 1.368 . S
C729 C710 1.429 . S
C729 C723 1.429 . S
C729 C730 1.523 . S
C730 C711 1.368 . S
C730 C724 1.368 . S
C730 C729 1.523 . S
C731 C715 1.429 . S
C731 C727 1.429 . S
C731 C732 1.523 . S
C732 C716 1.368 . S
C732 C728 1.368 . S
C732 C731 1.523 . S
H733 C708 0.950 . S
H734 C710 0.950 . S
H735 C711 0.949 . S
H736 C713 0.950 . S
H737 C715 0.950 . S
C738 C739 1.349 . S
C738 C740 1.327 . S
C738 H763 0.950 . S
C739 C738 1.349 . S
C739 C755 1.349 . S
C740 C738 1.327 . S
C740 C759 1.429 . S
C740 H764 0.950 . S
C741 C758 1.574 . S
C741 C760 1.368 . S
C741 H765 0.949 . S
H742 C746 0.949 . S
C743 C744 1.349 . S
C743 C745 1.327 . S
C743 H766 0.950 . S
C744 C743 1.349 . S
C744 C756 1.349 . S
C745 C743 1.327 . S
C745 C761 1.429 . S
C745 H767 0.950 . S
C746 H742 0.949 . S
C746 C754 1.574 . S
C746 C762 1.368 . S
H747 C755 0.950 . S
H748 C753 0.950 . S
H749 C754 0.949 . S
H750 C756 0.950 . S
H751 C757 0.950 . S
H752 C758 0.949 . S
C753 H748 0.950 . S
C753 C755 1.327 . S
C753 C759 1.429 . S
C754 C746 1.574 . S
C754 H749 0.949 . S
C754 C760 1.368 . S
C755 C739 1.349 . S
C755 H747 0.950 . S
C755 C753 1.327 . S
C756 C744 1.349 . S
C756 H750 0.950 . S
C756 C757 1.327 . S
C757 H751 0.950 . S
C757 C756 1.327 . S
C757 C761 1.429 . S
C758 C741 1.574 . S
C758 H752 0.949 . S
C758 C762 1.368 . S
C759 C740 1.429 . S
C759 C753 1.429 . S
C759 C760 1.523 . S
C760 C741 1.368 . S
C760 C754 1.368 . S
C760 C759 1.523 . S
C761 C745 1.429 . S
C761 C757 1.429 . S
C761 C762 1.523 . S
C762 C746 1.368 . S
C762 C758 1.368 . S
C762 C761 1.523 . S
H763 C738 0.950 . S
H764 C740 0.950 . S
H765 C741 0.949 . S
H766 C743 0.950 . S
H767 C745 0.950 . S
C768 C769 1.349 . S
C768 C770 1.327 . S
C768 H793 0.950 . S
C769 C768 1.349 . S
C769 C785 1.349 . S
C770 C768 1.327 . S
C770 C789 1.429 . S
C770 H794 0.950 . S
C771 C788 1.574 . S
C771 C790 1.368 . S
C771 H795 0.949 . S
H772 C776 0.949 . S
C773 C774 1.349 . S
C773 C775 1.327 . S
C773 H796 0.950 . S
C774 C773 1.349 . S
C774 C786 1.349 . S
C775 C773 1.327 . S
C775 C791 1.429 . S
C775 H797 0.950 . S
C776 H772 0.949 . S
C776 C784 1.574 . S
C776 C792 1.368 . S
H777 C785 0.950 . S
H778 C783 0.950 . S
H779 C784 0.949 . S
H780 C786 0.950 . S
H781 C787 0.950 . S
H782 C788 0.949 . S
C783 H778 0.950 . S
C783 C785 1.327 . S
C783 C789 1.429 . S
C784 C776 1.574 . S
C784 H779 0.949 . S
C784 C790 1.368 . S
C785 C769 1.349 . S
C785 H777 0.950 . S
C785 C783 1.327 . S
C786 C774 1.349 . S
C786 H780 0.950 . S
C786 C787 1.327 . S
C787 H781 0.950 . S
C787 C786 1.327 . S
C787 C791 1.429 . S
C788 C771 1.574 . S
C788 H782 0.949 . S
C788 C792 1.368 . S
C789 C770 1.429 . S
C789 C783 1.429 . S
C789 C790 1.523 . S
C790 C771 1.368 . S
C790 C784 1.368 . S
C790 C789 1.523 . S
C791 C775 1.429 . S
C791 C787 1.429 . S
C791 C792 1.523 . S
C792 C776 1.368 . S
C792 C788 1.368 . S
C792 C791 1.523 . S
H793 C768 0.950 . S
H794 C770 0.950 . S
H795 C771 0.949 . S
H796 C773 0.950 . S
H797 C775 0.950 . S
C798 C799 1.349 . S
C798 C800 1.327 . S
C798 H823 0.950 . S
C799 C798 1.349 . S
C799 C815 1.349 . S
C800 C798 1.327 . S
C800 C819 1.429 . S
C800 H824 0.950 . S
C801 C818 1.574 . S
C801 C820 1.368 . S
C801 H825 0.949 . S
H802 C806 0.949 . S
C803 C804 1.349 . S
C803 C805 1.327 . S
C803 H826 0.950 . S
C804 C803 1.349 . S
C804 C816 1.349 . S
C805 C803 1.327 . S
C805 C821 1.429 . S
C805 H827 0.950 . S
C806 H802 0.949 . S
C806 C814 1.574 . S
C806 C822 1.368 . S
H807 C815 0.950 . S
H808 C813 0.950 . S
H809 C814 0.949 . S
H810 C816 0.950 . S
H811 C817 0.950 . S
H812 C818 0.949 . S
C813 H808 0.950 . S
C813 C815 1.327 . S
C813 C819 1.429 . S
C814 C806 1.574 . S
C814 H809 0.949 . S
C814 C820 1.368 . S
C815 C799 1.349 . S
C815 H807 0.950 . S
C815 C813 1.327 . S
C816 C804 1.349 . S
C816 H810 0.950 . S
C816 C817 1.327 . S
C817 H811 0.950 . S
C817 C816 1.327 . S
C817 C821 1.429 . S
C818 C801 1.574 . S
C818 H812 0.949 . S
C818 C822 1.368 . S
C819 C800 1.429 . S
C819 C813 1.429 . S
C819 C820 1.523 . S
C820 C801 1.368 . S
C820 C814 1.368 . S
C820 C819 1.523 . S
C821 C805 1.429 . S
C821 C817 1.429 . S
C821 C822 1.523 . S
C822 C806 1.368 . S
C822 C818 1.368 . S
C822 C821 1.523 . S
H823 C798 0.950 . S
H824 C800 0.950 . S
H825 C801 0.949 . S
H826 C803 0.950 . S
H827 C805 0.950 . S
C828 C829 1.349 . S
C828 C830 1.327 . S
C828 H853 0.950 . S
C829 C828 1.349 . S
C829 C845 1.349 . S
C830 C828 1.327 . S
C830 C849 1.429 . S
C830 H854 0.950 . S
C831 C848 1.574 . S
C831 C850 1.368 . S
C831 H855 0.949 . S
H832 C836 0.949 . S
C833 C834 1.349 . S
C833 C835 1.327 . S
C833 H856 0.950 . S
C834 C833 1.349 . S
C834 C846 1.349 . S
C835 C833 1.327 . S
C835 C851 1.429 . S
C835 H857 0.950 . S
C836 H832 0.949 . S
C836 C844 1.574 . S
C836 C852 1.368 . S
H837 C845 0.950 . S
H838 C843 0.950 . S
H839 C844 0.949 . S
H840 C846 0.950 . S
H841 C847 0.950 . S
H842 C848 0.949 . S
C843 H838 0.950 . S
C843 C845 1.327 . S
C843 C849 1.429 . S
C844 C836 1.574 . S
C844 H839 0.949 . S
C844 C850 1.368 . S
C845 C829 1.349 . S
C845 H837 0.950 . S
C845 C843 1.327 . S
C846 C834 1.349 . S
C846 H840 0.950 . S
C846 C847 1.327 . S
C847 H841 0.950 . S
C847 C846 1.327 . S
C847 C851 1.429 . S
C848 C831 1.574 . S
C848 H842 0.949 . S
C848 C852 1.368 . S
C849 C830 1.429 . S
C849 C843 1.429 . S
C849 C850 1.523 . S
C850 C831 1.368 . S
C850 C844 1.368 . S
C850 C849 1.523 . S
C851 C835 1.429 . S
C851 C847 1.429 . S
C851 C852 1.523 . S
C852 C836 1.368 . S
C852 C848 1.368 . S
C852 C851 1.523 . S
H853 C828 0.950 . S
H854 C830 0.950 . S
H855 C831 0.949 . S
H856 C833 0.950 . S
H857 C835 0.950 . S
C858 C859 1.349 . S
C858 C860 1.327 . S
C858 H883 0.950 . S
C859 C858 1.349 . S
C859 C875 1.349 . S
C860 C858 1.327 . S
C860 C879 1.429 . S
C860 H884 0.950 . S
C861 C878 1.574 . S
C861 C880 1.368 . S
C861 H885 0.949 . S
H862 C866 0.949 . S
C863 C864 1.349 . S
C863 C865 1.327 . S
C863 H886 0.950 . S
C864 C863 1.349 . S
C864 C876 1.349 . S
C865 C863 1.327 . S
C865 C881 1.429 . S
C865 H887 0.950 . S
C866 H862 0.949 . S
C866 C874 1.574 . S
C866 C882 1.368 . S
H867 C875 0.950 . S
H868 C873 0.950 . S
H869 C874 0.949 . S
H870 C876 0.950 . S
H871 C877 0.950 . S
H872 C878 0.949 . S
C873 H868 0.950 . S
C873 C875 1.327 . S
C873 C879 1.429 . S
C874 C866 1.574 . S
C874 H869 0.949 . S
C874 C880 1.368 . S
C875 C859 1.349 . S
C875 H867 0.950 . S
C875 C873 1.327 . S
C876 C864 1.349 . S
C876 H870 0.950 . S
C876 C877 1.327 . S
C877 H871 0.950 . S
C877 C876 1.327 . S
C877 C881 1.429 . S
C878 C861 1.574 . S
C878 H872 0.949 . S
C878 C882 1.368 . S
C879 C860 1.429 . S
C879 C873 1.429 . S
C879 C880 1.523 . S
C880 C861 1.368 . S
C880 C874 1.368 . S
C880 C879 1.523 . S
C881 C865 1.429 . S
C881 C877 1.429 . S
C881 C882 1.523 . S
C882 C866 1.368 . S
C882 C878 1.368 . S
C882 C881 1.523 . S
H883 C858 0.950 . S
H884 C860 0.950 . S
H885 C861 0.949 . S
H886 C863 0.950 . S
H887 C865 0.950 . S
C888 C889 1.349 . S
C888 C890 1.327 . S
C888 H913 0.950 . S
C889 C888 1.349 . S
C889 C905 1.349 . S
C890 C888 1.327 . S
C890 C909 1.429 . S
C890 H914 0.950 . S
C891 C908 1.574 . S
C891 C910 1.368 . S
C891 H915 0.949 . S
H892 C896 0.949 . S
C893 C894 1.349 . S
C893 C895 1.327 . S
C893 H916 0.950 . S
C894 C893 1.349 . S
C894 C906 1.349 . S
C895 C893 1.327 . S
C895 C911 1.429 . S
C895 H917 0.950 . S
C896 H892 0.949 . S
C896 C904 1.574 . S
C896 C912 1.368 . S
H897 C905 0.950 . S
H898 C903 0.950 . S
H899 C904 0.949 . S
H900 C906 0.950 . S
H901 C907 0.950 . S
H902 C908 0.949 . S
C903 H898 0.950 . S
C903 C905 1.327 . S
C903 C909 1.429 . S
C904 C896 1.574 . S
C904 H899 0.949 . S
C904 C910 1.368 . S
C905 C889 1.349 . S
C905 H897 0.950 . S
C905 C903 1.327 . S
C906 C894 1.349 . S
C906 H900 0.950 . S
C906 C907 1.327 . S
C907 H901 0.950 . S
C907 C906 1.327 . S
C907 C911 1.429 . S
C908 C891 1.574 . S
C908 H902 0.949 . S
C908 C912 1.368 . S
C909 C890 1.429 . S
C909 C903 1.429 . S
C909 C910 1.523 . S
C910 C891 1.368 . S
C910 C904 1.368 . S
C910 C909 1.523 . S
C911 C895 1.429 . S
C911 C907 1.429 . S
C911 C912 1.523 . S
C912 C896 1.368 . S
C912 C908 1.368 . S
C912 C911 1.523 . S
H913 C888 0.950 . S
H914 C890 0.950 . S
H915 C891 0.949 . S
H916 C893 0.950 . S
H917 C895 0.950 . S
C918 C919 1.349 . S
C918 C920 1.327 . S
C918 H943 0.950 . S
C919 C918 1.349 . S
C919 C935 1.349 . S
C920 C918 1.327 . S
C920 C939 1.429 . S
C920 H944 0.950 . S
C921 C938 1.574 . S
C921 C940 1.368 . S
C921 H945 0.949 . S
H922 C926 0.949 . S
C923 C924 1.349 . S
C923 C925 1.327 . S
C923 H946 0.950 . S
C924 C923 1.349 . S
C924 C936 1.349 . S
C925 C923 1.327 . S
C925 C941 1.429 . S
C925 H947 0.950 . S
C926 H922 0.949 . S
C926 C934 1.574 . S
C926 C942 1.368 . S
H927 C935 0.950 . S
H928 C933 0.950 . S
H929 C934 0.949 . S
H930 C936 0.950 . S
H931 C937 0.950 . S
H932 C938 0.949 . S
C933 H928 0.950 . S
C933 C935 1.327 . S
C933 C939 1.429 . S
C934 C926 1.574 . S
C934 H929 0.949 . S
C934 C940 1.368 . S
C935 C919 1.349 . S
C935 H927 0.950 . S
C935 C933 1.327 . S
C936 C924 1.349 . S
C936 H930 0.950 . S
C936 C937 1.327 . S
C937 H931 0.950 . S
C937 C936 1.327 . S
C937 C941 1.429 . S
C938 C921 1.574 . S
C938 H932 0.949 . S
C938 C942 1.368 . S
C939 C920 1.429 . S
C939 C933 1.429 . S
C939 C940 1.523 . S
C940 C921 1.368 . S
C940 C934 1.368 . S
C940 C939 1.523 . S
C941 C925 1.429 . S
C941 C937 1.429 . S
C941 C942 1.523 . S
C942 C926 1.368 . S
C942 C938 1.368 . S
C942 C941 1.523 . S
H943 C918 0.950 . S
H944 C920 0.950 . S
H945 C921 0.949 . S
H946 C923 0.950 . S
H947 C925 0.950 . S
C948 C949 1.349 . S
C948 C950 1.327 . S
C948 H973 0.950 . S
C949 C948 1.349 . S
C949 C965 1.349 . S
C950 C948 1.327 . S
C950 C969 1.429 . S
C950 H974 0.950 . S
C951 C968 1.574 . S
C951 C970 1.368 . S
C951 H975 0.949 . S
H952 C956 0.949 . S
C953 C954 1.349 . S
C953 C955 1.327 . S
C953 H976 0.950 . S
C954 C953 1.349 . S
C954 C966 1.349 . S
C955 C953 1.327 . S
C955 C971 1.429 . S
C955 H977 0.950 . S
C956 H952 0.949 . S
C956 C964 1.574 . S
C956 C972 1.368 . S
H957 C965 0.950 . S
H958 C963 0.950 . S
H959 C964 0.949 . S
H960 C966 0.950 . S
H961 C967 0.950 . S
H962 C968 0.949 . S
C963 H958 0.950 . S
C963 C965 1.327 . S
C963 C969 1.429 . S
C964 C956 1.574 . S
C964 H959 0.949 . S
C964 C970 1.368 . S
C965 C949 1.349 . S
C965 H957 0.950 . S
C965 C963 1.327 . S
C966 C954 1.349 . S
C966 H960 0.950 . S
C966 C967 1.327 . S
C967 H961 0.950 . S
C967 C966 1.327 . S
C967 C971 1.429 . S
C968 C951 1.574 . S
C968 H962 0.949 . S
C968 C972 1.368 . S
C969 C950 1.429 . S
C969 C963 1.429 . S
C969 C970 1.523 . S
C970 C951 1.368 . S
C970 C964 1.368 . S
C970 C969 1.523 . S
C971 C955 1.429 . S
C971 C967 1.429 . S
C971 C972 1.523 . S
C972 C956 1.368 . S
C972 C968 1.368 . S
C972 C971 1.523 . S
H973 C948 0.950 . S
H974 C950 0.950 . S
H975 C951 0.949 . S
H976 C953 0.950 . S
H977 C955 0.950 . S
C978 C979 1.349 . S
C978 C980 1.327 . S
C978 H1003 0.950 . S
C979 C978 1.349 . S
C979 C995 1.349 . S
C980 C978 1.327 . S
C980 C999 1.429 . S
C980 H1004 0.950 . S
C981 C998 1.574 . S
C981 C1000 1.368 . S
C981 H1005 0.949 . S
H982 C986 0.949 . S
C983 C984 1.349 . S
C983 C985 1.327 . S
C983 H1006 0.950 . S
C984 C983 1.349 . S
C984 C996 1.349 . S
C985 C983 1.327 . S
C985 C1001 1.429 . S
C985 H1007 0.950 . S
C986 H982 0.949 . S
C986 C994 1.574 . S
C986 C1002 1.368 . S
H987 C995 0.950 . S
H988 C993 0.950 . S
H989 C994 0.949 . S
H990 C996 0.950 . S
H991 C997 0.950 . S
H992 C998 0.949 . S
C993 H988 0.950 . S
C993 C995 1.327 . S
C993 C999 1.429 . S
C994 C986 1.574 . S
C994 H989 0.949 . S
C994 C1000 1.368 . S
C995 C979 1.349 . S
C995 H987 0.950 . S
C995 C993 1.327 . S
C996 C984 1.349 . S
C996 H990 0.950 . S
C996 C997 1.327 . S
C997 H991 0.950 . S
C997 C996 1.327 . S
C997 C1001 1.429 . S
C998 C981 1.574 . S
C998 H992 0.949 . S
C998 C1002 1.368 . S
C999 C980 1.429 . S
C999 C993 1.429 . S
C999 C1000 1.523 . S
C1000 C981 1.368 . S
C1000 C994 1.368 . S
C1000 C999 1.523 . S
C1001 C985 1.429 . S
C1001 C997 1.429 . S
C1001 C1002 1.523 . S
C1002 C986 1.368 . S
C1002 C998 1.368 . S
C1002 C1001 1.523 . S
H1003 C978 0.950 . S
H1004 C980 0.950 . S
H1005 C981 0.949 . S
H1006 C983 0.950 . S
H1007 C985 0.950 . S
C1008 C1009 1.349 . S
C1008 C1010 1.327 . S
C1008 H1033 0.950 . S
C1009 C1008 1.349 . S
C1009 C1025 1.349 . S
C1010 C1008 1.327 . S
C1010 C1029 1.429 . S
C1010 H1034 0.950 . S
C1011 C1028 1.574 . S
C1011 C1030 1.368 . S
C1011 H1035 0.949 . S
H1012 C1016 0.949 . S
C1013 C1014 1.349 . S
C1013 C1015 1.327 . S
C1013 H1036 0.950 . S
C1014 C1013 1.349 . S
C1014 C1026 1.349 . S
C1015 C1013 1.327 . S
C1015 C1031 1.429 . S
C1015 H1037 0.950 . S
C1016 H1012 0.949 . S
C1016 C1024 1.574 . S
C1016 C1032 1.368 . S
H1017 C1025 0.950 . S
H1018 C1023 0.950 . S
H1019 C1024 0.949 . S
H1020 C1026 0.950 . S
H1021 C1027 0.950 . S
H1022 C1028 0.949 . S
C1023 H1018 0.950 . S
C1023 C1025 1.327 . S
C1023 C1029 1.429 . S
C1024 C1016 1.574 . S
C1024 H1019 0.949 . S
C1024 C1030 1.368 . S
C1025 C1009 1.349 . S
C1025 H1017 0.950 . S
C1025 C1023 1.327 . S
C1026 C1014 1.349 . S
C1026 H1020 0.950 . S
C1026 C1027 1.327 . S
C1027 H1021 0.950 . S
C1027 C1026 1.327 . S
C1027 C1031 1.429 . S
C1028 C1011 1.574 . S
C1028 H1022 0.949 . S
C1028 C1032 1.368 . S
C1029 C1010 1.429 . S
C1029 C1023 1.429 . S
C1029 C1030 1.523 . S
C1030 C1011 1.368 . S
C1030 C1024 1.368 . S
C1030 C1029 1.523 . S
C1031 C1015 1.429 . S
C1031 C1027 1.429 . S
C1031 C1032 1.523 . S
C1032 C1016 1.368 . S
C1032 C1028 1.368 . S
C1032 C1031 1.523 . S
H1033 C1008 0.950 . S
H1034 C1010 0.950 . S
H1035 C1011 0.949 . S
H1036 C1013 0.950 . S
H1037 C1015 0.950 . S
C1038 C1039 1.349 . S
C1038 C1040 1.327 . S
C1038 H1063 0.950 . S
C1039 C1038 1.349 . S
C1039 C1055 1.349 . S
C1040 C1038 1.327 . S
C1040 C1059 1.429 . S
C1040 H1064 0.950 . S
C1041 C1058 1.574 . S
C1041 C1060 1.368 . S
C1041 H1065 0.949 . S
H1042 C1046 0.949 . S
C1043 C1044 1.349 . S
C1043 C1045 1.327 . S
C1043 H1066 0.950 . S
C1044 C1043 1.349 . S
C1044 C1056 1.349 . S
C1045 C1043 1.327 . S
C1045 C1061 1.429 . S
C1045 H1067 0.950 . S
C1046 H1042 0.949 . S
C1046 C1054 1.574 . S
C1046 C1062 1.368 . S
H1047 C1055 0.950 . S
H1048 C1053 0.950 . S
H1049 C1054 0.949 . S
H1050 C1056 0.950 . S
H1051 C1057 0.950 . S
H1052 C1058 0.949 . S
C1053 H1048 0.950 . S
C1053 C1055 1.327 . S
C1053 C1059 1.429 . S
C1054 C1046 1.574 . S
C1054 H1049 0.949 . S
C1054 C1060 1.368 . S
C1055 C1039 1.349 . S
C1055 H1047 0.950 . S
C1055 C1053 1.327 . S
C1056 C1044 1.349 . S
C1056 H1050 0.950 . S
C1056 C1057 1.327 . S
C1057 H1051 0.950 . S
C1057 C1056 1.327 . S
C1057 C1061 1.429 . S
C1058 C1041 1.574 . S
C1058 H1052 0.949 . S
C1058 C1062 1.368 . S
C1059 C1040 1.429 . S
C1059 C1053 1.429 . S
C1059 C1060 1.523 . S
C1060 C1041 1.368 . S
C1060 C1054 1.368 . S
C1060 C1059 1.523 . S
C1061 C1045 1.429 . S
C1061 C1057 1.429 . S
C1061 C1062 1.523 . S
C1062 C1046 1.368 . S
C1062 C1058 1.368 . S
C1062 C1061 1.523 . S
H1063 C1038 0.950 . S
H1064 C1040 0.950 . S
H1065 C1041 0.949 . S
H1066 C1043 0.950 . S
H1067 C1045 0.950 . S
C1068 C1069 1.349 . S
C1068 C1070 1.327 . S
C1068 H1093 0.950 . S
C1069 C1068 1.349 . S
C1069 C1085 1.349 . S
C1070 C1068 1.327 . S
C1070 C1089 1.429 . S
C1070 H1094 0.950 . S
C1071 C1088 1.574 . S
C1071 C1090 1.368 . S
C1071 H1095 0.949 . S
H1072 C1076 0.949 . S
C1073 C1074 1.349 . S
C1073 C1075 1.327 . S
C1073 H1096 0.950 . S
C1074 C1073 1.349 . S
C1074 C1086 1.349 . S
C1075 C1073 1.327 . S
C1075 C1091 1.429 . S
C1075 H1097 0.950 . S
C1076 H1072 0.949 . S
C1076 C1084 1.574 . S
C1076 C1092 1.368 . S
H1077 C1085 0.950 . S
H1078 C1083 0.950 . S
H1079 C1084 0.949 . S
H1080 C1086 0.950 . S
H1081 C1087 0.950 . S
H1082 C1088 0.949 . S
C1083 H1078 0.950 . S
C1083 C1085 1.327 . S
C1083 C1089 1.429 . S
C1084 C1076 1.574 . S
C1084 H1079 0.949 . S
C1084 C1090 1.368 . S
C1085 C1069 1.349 . S
C1085 H1077 0.950 . S
C1085 C1083 1.327 . S
C1086 C1074 1.349 . S
C1086 H1080 0.950 . S
C1086 C1087 1.327 . S
C1087 H1081 0.950 . S
C1087 C1086 1.327 . S
C1087 C1091 1.429 . S
C1088 C1071 1.574 . S
C1088 H1082 0.949 . S
C1088 C1092 1.368 . S
C1089 C1070 1.429 . S
C1089 C1083 1.429 . S
C1089 C1090 1.523 . S
C1090 C1071 1.368 . S
C1090 C1084 1.368 . S
C1090 C1089 1.523 . S
C1091 C1075 1.429 . S
C1091 C1087 1.429 . S
C1091 C1092 1.523 . S
C1092 C1076 1.368 . S
C1092 C1088 1.368 . S
C1092 C1091 1.523 . S
H1093 C1068 0.950 . S
H1094 C1070 0.950 . S
H1095 C1071 0.949 . S
H1096 C1073 0.950 . S
H1097 C1075 0.950 . S
C1098 C1099 1.349 . S
C1098 C1100 1.327 . S
C1098 H1123 0.950 . S
C1099 C1098 1.349 . S
C1099 C1115 1.349 . S
C1100 C1098 1.327 . S
C1100 C1119 1.429 . S
C1100 H1124 0.950 . S
C1101 C1118 1.574 . S
C1101 C1120 1.368 . S
C1101 H1125 0.949 . S
H1102 C1106 0.949 . S
C1103 C1104 1.349 . S
C1103 C1105 1.327 . S
C1103 H1126 0.950 . S
C1104 C1103 1.349 . S
C1104 C1116 1.349 . S
C1105 C1103 1.327 . S
C1105 C1121 1.429 . S
C1105 H1127 0.950 . S
C1106 H1102 0.949 . S
C1106 C1114 1.574 . S
C1106 C1122 1.368 . S
H1107 C1115 0.950 . S
H1108 C1113 0.950 . S
H1109 C1114 0.949 . S
H1110 C1116 0.950 . S
H1111 C1117 0.950 . S
H1112 C1118 0.949 . S
C1113 H1108 0.950 . S
C1113 C1115 1.327 . S
C1113 C1119 1.429 . S
C1114 C1106 1.574 . S
C1114 H1109 0.949 . S
C1114 C1120 1.368 . S
C1115 C1099 1.349 . S
C1115 H1107 0.950 . S
C1115 C1113 1.327 . S
C1116 C1104 1.349 . S
C1116 H1110 0.950 . S
C1116 C1117 1.327 . S
C1117 H1111 0.950 . S
C1117 C1116 1.327 . S
C1117 C1121 1.429 . S
C1118 C1101 1.574 . S
C1118 H1112 0.949 . S
C1118 C1122 1.368 . S
C1119 C1100 1.429 . S
C1119 C1113 1.429 . S
C1119 C1120 1.523 . S
C1120 C1101 1.368 . S
C1120 C1114 1.368 . S
C1120 C1119 1.523 . S
C1121 C1105 1.429 . S
C1121 C1117 1.429 . S
C1121 C1122 1.523 . S
C1122 C1106 1.368 . S
C1122 C1118 1.368 . S
C1122 C1121 1.523 . S
H1123 C1098 0.950 . S
H1124 C1100 0.950 . S
H1125 C1101 0.949 . S
H1126 C1103 0.950 . S
H1127 C1105 0.950 . S
C1128 C1129 1.349 . S
C1128 C1130 1.327 . S
C1128 H1153 0.950 . S
C1129 C1128 1.349 . S
C1129 C1145 1.349 . S
C1130 C1128 1.327 . S
C1130 C1149 1.429 . S
C1130 H1154 0.950 . S
C1131 C1148 1.574 . S
C1131 C1150 1.368 . S
C1131 H1155 0.949 . S
H1132 C1136 0.949 . S
C1133 C1134 1.349 . S
C1133 C1135 1.327 . S
C1133 H1156 0.950 . S
C1134 C1133 1.349 . S
C1134 C1146 1.349 . S
C1135 C1133 1.327 . S
C1135 C1151 1.429 . S
C1135 H1157 0.950 . S
C1136 H1132 0.949 . S
C1136 C1144 1.574 . S
C1136 C1152 1.368 . S
H1137 C1145 0.950 . S
H1138 C1143 0.950 . S
H1139 C1144 0.949 . S
H1140 C1146 0.950 . S
H1141 C1147 0.950 . S
H1142 C1148 0.949 . S
C1143 H1138 0.950 . S
C1143 C1145 1.327 . S
C1143 C1149 1.429 . S
C1144 C1136 1.574 . S
C1144 H1139 0.949 . S
C1144 C1150 1.368 . S
C1145 C1129 1.349 . S
C1145 H1137 0.950 . S
C1145 C1143 1.327 . S
C1146 C1134 1.349 . S
C1146 H1140 0.950 . S
C1146 C1147 1.327 . S
C1147 H1141 0.950 . S
C1147 C1146 1.327 . S
C1147 C1151 1.429 . S
C1148 C1131 1.574 . S
C1148 H1142 0.949 . S
C1148 C1152 1.368 . S
C1149 C1130 1.429 . S
C1149 C1143 1.429 . S
C1149 C1150 1.523 . S
C1150 C1131 1.368 . S
C1150 C1144 1.368 . S
C1150 C1149 1.523 . S
C1151 C1135 1.429 . S
C1151 C1147 1.429 . S
C1151 C1152 1.523 . S
C1152 C1136 1.368 . S
C1152 C1148 1.368 . S
C1152 C1151 1.523 . S
H1153 C1128 0.950 . S
H1154 C1130 0.950 . S
H1155 C1131 0.949 . S
H1156 C1133 0.950 . S
H1157 C1135 0.950 . S
C1158 C1159 1.349 . S
C1158 C1160 1.327 . S
C1158 H1183 0.950 . S
C1159 C1158 1.349 . S
C1159 C1175 1.349 . S
C1160 C1158 1.327 . S
C1160 C1179 1.429 . S
C1160 H1184 0.950 . S
C1161 C1178 1.574 . S
C1161 C1180 1.368 . S
C1161 H1185 0.949 . S
H1162 C1166 0.949 . S
C1163 C1164 1.349 . S
C1163 C1165 1.327 . S
C1163 H1186 0.950 . S
C1164 C1163 1.349 . S
C1164 C1176 1.349 . S
C1165 C1163 1.327 . S
C1165 C1181 1.429 . S
C1165 H1187 0.950 . S
C1166 H1162 0.949 . S
C1166 C1174 1.574 . S
C1166 C1182 1.368 . S
H1167 C1175 0.950 . S
H1168 C1173 0.950 . S
H1169 C1174 0.949 . S
H1170 C1176 0.950 . S
H1171 C1177 0.950 . S
H1172 C1178 0.949 . S
C1173 H1168 0.950 . S
C1173 C1175 1.327 . S
C1173 C1179 1.429 . S
C1174 C1166 1.574 . S
C1174 H1169 0.949 . S
C1174 C1180 1.368 . S
C1175 C1159 1.349 . S
C1175 H1167 0.950 . S
C1175 C1173 1.327 . S
C1176 C1164 1.349 . S
C1176 H1170 0.950 . S
C1176 C1177 1.327 . S
C1177 H1171 0.950 . S
C1177 C1176 1.327 . S
C1177 C1181 1.429 . S
C1178 C1161 1.574 . S
C1178 H1172 0.949 . S
C1178 C1182 1.368 . S
C1179 C1160 1.429 . S
C1179 C1173 1.429 . S
C1179 C1180 1.523 . S
C1180 C1161 1.368 . S
C1180 C1174 1.368 . S
C1180 C1179 1.523 . S
C1181 C1165 1.429 . S
C1181 C1177 1.429 . S
C1181 C1182 1.523 . S
C1182 C1166 1.368 . S
C1182 C1178 1.368 . S
C1182 C1181 1.523 . S
H1183 C1158 0.950 . S
H1184 C1160 0.950 . S
H1185 C1161 0.949 . S
H1186 C1163 0.950 . S
H1187 C1165 0.950 . S
C1188 C1189 1.349 . S
C1188 C1190 1.327 . S
C1188 H1213 0.950 . S
C1189 C1188 1.349 . S
C1189 C1205 1.349 . S
C1190 C1188 1.327 . S
C1190 C1209 1.429 . S
C1190 H1214 0.950 . S
C1191 C1208 1.574 . S
C1191 C1210 1.368 . S
C1191 H1215 0.949 . S
H1192 C1196 0.949 . S
C1193 C1194 1.349 . S
C1193 C1195 1.327 . S
C1193 H1216 0.950 . S
C1194 C1193 1.349 . S
C1194 C1206 1.349 . S
C1195 C1193 1.327 . S
C1195 C1211 1.429 . S
C1195 H1217 0.950 . S
C1196 H1192 0.949 . S
C1196 C1204 1.574 . S
C1196 C1212 1.368 . S
H1197 C1205 0.950 . S
H1198 C1203 0.950 . S
H1199 C1204 0.949 . S
H1200 C1206 0.950 . S
H1201 C1207 0.950 . S
H1202 C1208 0.949 . S
C1203 H1198 0.950 . S
C1203 C1205 1.327 . S
C1203 C1209 1.429 . S
C1204 C1196 1.574 . S
C1204 H1199 0.949 . S
C1204 C1210 1.368 . S
C1205 C1189 1.349 . S
C1205 H1197 0.950 . S
C1205 C1203 1.327 . S
C1206 C1194 1.349 . S
C1206 H1200 0.950 . S
C1206 C1207 1.327 . S
C1207 H1201 0.950 . S
C1207 C1206 1.327 . S
C1207 C1211 1.429 . S
C1208 C1191 1.574 . S
C1208 H1202 0.949 . S
C1208 C1212 1.368 . S
C1209 C1190 1.429 . S
C1209 C1203 1.429 . S
C1209 C1210 1.523 . S
C1210 C1191 1.368 . S
C1210 C1204 1.368 . S
C1210 C1209 1.523 . S
C1211 C1195 1.429 . S
C1211 C1207 1.429 . S
C1211 C1212 1.523 . S
C1212 C1196 1.368 . S
C1212 C1208 1.368 . S
C1212 C1211 1.523 . S
H1213 C1188 0.950 . S
H1214 C1190 0.950 . S
H1215 C1191 0.949 . S
H1216 C1193 0.950 . S
H1217 C1195 0.950 . S
C1218 C1219 1.349 . S
C1218 C1220 1.327 . S
C1218 H1243 0.950 . S
C1219 C1218 1.349 . S
C1219 C1235 1.349 . S
C1220 C1218 1.327 . S
C1220 C1239 1.429 . S
C1220 H1244 0.950 . S
C1221 C1238 1.574 . S
C1221 C1240 1.368 . S
C1221 H1245 0.949 . S
H1222 C1226 0.949 . S
C1223 C1224 1.349 . S
C1223 C1225 1.327 . S
C1223 H1246 0.950 . S
C1224 C1223 1.349 . S
C1224 C1236 1.349 . S
C1225 C1223 1.327 . S
C1225 C1241 1.429 . S
C1225 H1247 0.950 . S
C1226 H1222 0.949 . S
C1226 C1234 1.574 . S
C1226 C1242 1.368 . S
H1227 C1235 0.950 . S
H1228 C1233 0.950 . S
H1229 C1234 0.949 . S
H1230 C1236 0.950 . S
H1231 C1237 0.950 . S
H1232 C1238 0.949 . S
C1233 H1228 0.950 . S
C1233 C1235 1.327 . S
C1233 C1239 1.429 . S
C1234 C1226 1.574 . S
C1234 H1229 0.949 . S
C1234 C1240 1.368 . S
C1235 C1219 1.349 . S
C1235 H1227 0.950 . S
C1235 C1233 1.327 . S
C1236 C1224 1.349 . S
C1236 H1230 0.950 . S
C1236 C1237 1.327 . S
C1237 H1231 0.950 . S
C1237 C1236 1.327 . S
C1237 C1241 1.429 . S
C1238 C1221 1.574 . S
C1238 H1232 0.949 . S
C1238 C1242 1.368 . S
C1239 C1220 1.429 . S
C1239 C1233 1.429 . S
C1239 C1240 1.523 . S
C1240 C1221 1.368 . S
C1240 C1234 1.368 . S
C1240 C1239 1.523 . S
C1241 C1225 1.429 . S
C1241 C1237 1.429 . S
C1241 C1242 1.523 . S
C1242 C1226 1.368 . S
C1242 C1238 1.368 . S
C1242 C1241 1.523 . S
H1243 C1218 0.950 . S
H1244 C1220 0.950 . S
H1245 C1221 0.949 . S
H1246 C1223 0.950 . S
H1247 C1225 0.950 . S
C1248 C1249 1.349 . S
C1248 C1250 1.327 . S
C1248 H1273 0.950 . S
C1249 C1248 1.349 . S
C1249 C1265 1.349 . S
C1250 C1248 1.327 . S
C1250 C1269 1.429 . S
C1250 H1274 0.950 . S
C1251 C1268 1.574 . S
C1251 C1270 1.368 . S
C1251 H1275 0.949 . S
H1252 C1256 0.949 . S
C1253 C1254 1.349 . S
C1253 C1255 1.327 . S
C1253 H1276 0.950 . S
C1254 C1253 1.349 . S
C1254 C1266 1.349 . S
C1255 C1253 1.327 . S
C1255 C1271 1.429 . S
C1255 H1277 0.950 . S
C1256 H1252 0.949 . S
C1256 C1264 1.574 . S
C1256 C1272 1.368 . S
H1257 C1265 0.950 . S
H1258 C1263 0.950 . S
H1259 C1264 0.949 . S
H1260 C1266 0.950 . S
H1261 C1267 0.950 . S
H1262 C1268 0.949 . S
C1263 H1258 0.950 . S
C1263 C1265 1.327 . S
C1263 C1269 1.429 . S
C1264 C1256 1.574 . S
C1264 H1259 0.949 . S
C1264 C1270 1.368 . S
C1265 C1249 1.349 . S
C1265 H1257 0.950 . S
C1265 C1263 1.327 . S
C1266 C1254 1.349 . S
C1266 H1260 0.950 . S
C1266 C1267 1.327 . S
C1267 H1261 0.950 . S
C1267 C1266 1.327 . S
C1267 C1271 1.429 . S
C1268 C1251 1.574 . S
C1268 H1262 0.949 . S
C1268 C1272 1.368 . S
C1269 C1250 1.429 . S
C1269 C1263 1.429 . S
C1269 C1270 1.523 . S
C1270 C1251 1.368 . S
C1270 C1264 1.368 . S
C1270 C1269 1.523 . S
C1271 C1255 1.429 . S
C1271 C1267 1.429 . S
C1271 C1272 1.523 . S
C1272 C1256 1.368 . S
C1272 C1268 1.368 . S
C1272 C1271 1.523 . S
H1273 C1248 0.950 . S
H1274 C1250 0.950 . S
H1275 C1251 0.949 . S
H1276 C1253 0.950 . S
H1277 C1255 0.950 . S
C1278 C1279 1.349 . S
C1278 C1280 1.327 . S
C1278 H1303 0.950 . S
C1279 C1278 1.349 . S
C1279 C1295 1.349 . S
C1280 C1278 1.327 . S
C1280 C1299 1.429 . S
C1280 H1304 0.950 . S
C1281 C1298 1.574 . S
C1281 C1300 1.368 . S
C1281 H1305 0.949 . S
H1282 C1286 0.949 . S
C1283 C1284 1.349 . S
C1283 C1285 1.327 . S
C1283 H1306 0.950 . S
C1284 C1283 1.349 . S
C1284 C1296 1.349 . S
C1285 C1283 1.327 . S
C1285 C1301 1.429 . S
C1285 H1307 0.950 . S
C1286 H1282 0.949 . S
C1286 C1294 1.574 . S
C1286 C1302 1.368 . S
H1287 C1295 0.950 . S
H1288 C1293 0.950 . S
H1289 C1294 0.949 . S
H1290 C1296 0.950 . S
H1291 C1297 0.950 . S
H1292 C1298 0.949 . S
C1293 H1288 0.950 . S
C1293 C1295 1.327 . S
C1293 C1299 1.429 . S
C1294 C1286 1.574 . S
C1294 H1289 0.949 . S
C1294 C1300 1.368 . S
C1295 C1279 1.349 . S
C1295 H1287 0.950 . S
C1295 C1293 1.327 . S
C1296 C1284 1.349 . S
C1296 H1290 0.950 . S
C1296 C1297 1.327 . S
C1297 H1291 0.950 . S
C1297 C1296 1.327 . S
C1297 C1301 1.429 . S
C1298 C1281 1.574 . S
C1298 H1292 0.949 . S
C1298 C1302 1.368 . S
C1299 C1280 1.429 . S
C1299 C1293 1.429 . S
C1299 C1300 1.523 . S
C1300 C1281 1.368 . S
C1300 C1294 1.368 . S
C1300 C1299 1.523 . S
C1301 C1285 1.429 . S
C1301 C1297 1.429 . S
C1301 C1302 1.523 . S
C1302 C1286 1.368 . S
C1302 C1298 1.368 . S
C1302 C1301 1.523 . S
H1303 C1278 0.950 . S
H1304 C1280 0.950 . S
H1305 C1281 0.949 . S
H1306 C1283 0.950 . S
H1307 C1285 0.950 . S
C1308 C1309 1.349 . S
C1308 C1310 1.327 . S
C1308 H1333 0.950 . S
C1309 C1308 1.349 . S
C1309 C1325 1.349 . S
C1310 C1308 1.327 . S
C1310 C1329 1.429 . S
C1310 H1334 0.950 . S
C1311 C1328 1.574 . S
C1311 C1330 1.368 . S
C1311 H1335 0.949 . S
H1312 C1316 0.949 . S
C1313 C1314 1.349 . S
C1313 C1315 1.327 . S
C1313 H1336 0.950 . S
C1314 C1313 1.349 . S
C1314 C1326 1.349 . S
C1315 C1313 1.327 . S
C1315 C1331 1.429 . S
C1315 H1337 0.950 . S
C1316 H1312 0.949 . S
C1316 C1324 1.574 . S
C1316 C1332 1.368 . S
H1317 C1325 0.950 . S
H1318 C1323 0.950 . S
H1319 C1324 0.949 . S
H1320 C1326 0.950 . S
H1321 C1327 0.950 . S
H1322 C1328 0.949 . S
C1323 H1318 0.950 . S
C1323 C1325 1.327 . S
C1323 C1329 1.429 . S
C1324 C1316 1.574 . S
C1324 H1319 0.949 . S
C1324 C1330 1.368 . S
C1325 C1309 1.349 . S
C1325 H1317 0.950 . S
C1325 C1323 1.327 . S
C1326 C1314 1.349 . S
C1326 H1320 0.950 . S
C1326 C1327 1.327 . S
C1327 H1321 0.950 . S
C1327 C1326 1.327 . S
C1327 C1331 1.429 . S
C1328 C1311 1.574 . S
C1328 H1322 0.949 . S
C1328 C1332 1.368 . S
C1329 C1310 1.429 . S
C1329 C1323 1.429 . S
C1329 C1330 1.523 . S
C1330 C1311 1.368 . S
C1330 C1324 1.368 . S
C1330 C1329 1.523 . S
C1331 C1315 1.429 . S
C1331 C1327 1.429 . S
C1331 C1332 1.523 . S
C1332 C1316 1.368 . S
C1332 C1328 1.368 . S
C1332 C1331 1.523 . S
H1333 C1308 0.950 . S
H1334 C1310 0.950 . S
H1335 C1311 0.949 . S
H1336 C1313 0.950 . S
H1337 C1315 0.950 . S
C1338 C1339 1.349 . S
C1338 C1340 1.327 . S
C1338 H1363 0.950 . S
C1339 C1338 1.349 . S
C1339 C1355 1.349 . S
C1340 C1338 1.327 . S
C1340 C1359 1.429 . S
C1340 H1364 0.950 . S
C1341 C1358 1.574 . S
C1341 C1360 1.368 . S
C1341 H1365 0.949 . S
H1342 C1346 0.949 . S
C1343 C1344 1.349 . S
C1343 C1345 1.327 . S
C1343 H1366 0.950 . S
C1344 C1343 1.349 . S
C1344 C1356 1.349 . S
C1345 C1343 1.327 . S
C1345 C1361 1.429 . S
C1345 H1367 0.950 . S
C1346 H1342 0.949 . S
C1346 C1354 1.574 . S
C1346 C1362 1.368 . S
H1347 C1355 0.950 . S
H1348 C1353 0.950 . S
H1349 C1354 0.949 . S
H1350 C1356 0.950 . S
H1351 C1357 0.950 . S
H1352 C1358 0.949 . S
C1353 H1348 0.950 . S
C1353 C1355 1.327 . S
C1353 C1359 1.429 . S
C1354 C1346 1.574 . S
C1354 H1349 0.949 . S
C1354 C1360 1.368 . S
C1355 C1339 1.349 . S
C1355 H1347 0.950 . S
C1355 C1353 1.327 . S
C1356 C1344 1.349 . S
C1356 H1350 0.950 . S
C1356 C1357 1.327 . S
C1357 H1351 0.950 . S
C1357 C1356 1.327 . S
C1357 C1361 1.429 . S
C1358 C1341 1.574 . S
C1358 H1352 0.949 . S
C1358 C1362 1.368 . S
C1359 C1340 1.429 . S
C1359 C1353 1.429 . S
C1359 C1360 1.523 . S
C1360 C1341 1.368 . S
C1360 C1354 1.368 . S
C1360 C1359 1.523 . S
C1361 C1345 1.429 . S
C1361 C1357 1.429 . S
C1361 C1362 1.523 . S
C1362 C1346 1.368 . S
C1362 C1358 1.368 . S
C1362 C1361 1.523 . S
H1363 C1338 0.950 . S
H1364 C1340 0.950 . S
H1365 C1341 0.949 . S
H1366 C1343 0.950 . S
H1367 C1345 0.950 . S
C1368 C1369 1.349 . S
C1368 C1370 1.327 . S
C1368 H1393 0.950 . S
C1369 C1368 1.349 . S
C1369 C1385 1.349 . S
C1370 C1368 1.327 . S
C1370 C1389 1.429 . S
C1370 H1394 0.950 . S
C1371 C1388 1.574 . S
C1371 C1390 1.368 . S
C1371 H1395 0.949 . S
H1372 C1376 0.949 . S
C1373 C1374 1.349 . S
C1373 C1375 1.327 . S
C1373 H1396 0.950 . S
C1374 C1373 1.349 . S
C1374 C1386 1.349 . S
C1375 C1373 1.327 . S
C1375 C1391 1.429 . S
C1375 H1397 0.950 . S
C1376 H1372 0.949 . S
C1376 C1384 1.574 . S
C1376 C1392 1.368 . S
H1377 C1385 0.950 . S
H1378 C1383 0.950 . S
H1379 C1384 0.949 . S
H1380 C1386 0.950 . S
H1381 C1387 0.950 . S
H1382 C1388 0.949 . S
C1383 H1378 0.950 . S
C1383 C1385 1.327 . S
C1383 C1389 1.429 . S
C1384 C1376 1.574 . S
C1384 H1379 0.949 . S
C1384 C1390 1.368 . S
C1385 C1369 1.349 . S
C1385 H1377 0.950 . S
C1385 C1383 1.327 . S
C1386 C1374 1.349 . S
C1386 H1380 0.950 . S
C1386 C1387 1.327 . S
C1387 H1381 0.950 . S
C1387 C1386 1.327 . S
C1387 C1391 1.429 . S
C1388 C1371 1.574 . S
C1388 H1382 0.949 . S
C1388 C1392 1.368 . S
C1389 C1370 1.429 . S
C1389 C1383 1.429 . S
C1389 C1390 1.523 . S
C1390 C1371 1.368 . S
C1390 C1384 1.368 . S
C1390 C1389 1.523 . S
C1391 C1375 1.429 . S
C1391 C1387 1.429 . S
C1391 C1392 1.523 . S
C1392 C1376 1.368 . S
C1392 C1388 1.368 . S
C1392 C1391 1.523 . S
H1393 C1368 0.950 . S
H1394 C1370 0.950 . S
H1395 C1371 0.949 . S
H1396 C1373 0.950 . S
H1397 C1375 0.950 . S
C1398 C1399 1.349 . S
C1398 C1400 1.327 . S
C1398 H1423 0.950 . S
C1399 C1398 1.349 . S
C1399 C1415 1.349 . S
C1400 C1398 1.327 . S
C1400 C1419 1.429 . S
C1400 H1424 0.950 . S
C1401 C1418 1.574 . S
C1401 C1420 1.368 . S
C1401 H1425 0.949 . S
H1402 C1406 0.949 . S
C1403 C1404 1.349 . S
C1403 C1405 1.327 . S
C1403 H1426 0.950 . S
C1404 C1403 1.349 . S
C1404 C1416 1.349 . S
C1405 C1403 1.327 . S
C1405 C1421 1.429 . S
C1405 H1427 0.950 . S
C1406 H1402 0.949 . S
C1406 C1414 1.574 . S
C1406 C1422 1.368 . S
H1407 C1415 0.950 . S
H1408 C1413 0.950 . S
H1409 C1414 0.949 . S
H1410 C1416 0.950 . S
H1411 C1417 0.950 . S
H1412 C1418 0.949 . S
C1413 H1408 0.950 . S
C1413 C1415 1.327 . S
C1413 C1419 1.429 . S
C1414 C1406 1.574 . S
C1414 H1409 0.949 . S
C1414 C1420 1.368 . S
C1415 C1399 1.349 . S
C1415 H1407 0.950 . S
C1415 C1413 1.327 . S
C1416 C1404 1.349 . S
C1416 H1410 0.950 . S
C1416 C1417 1.327 . S
C1417 H1411 0.950 . S
C1417 C1416 1.327 . S
C1417 C1421 1.429 . S
C1418 C1401 1.574 . S
C1418 H1412 0.949 . S
C1418 C1422 1.368 . S
C1419 C1400 1.429 . S
C1419 C1413 1.429 . S
C1419 C1420 1.523 . S
C1420 C1401 1.368 . S
C1420 C1414 1.368 . S
C1420 C1419 1.523 . S
C1421 C1405 1.429 . S
C1421 C1417 1.429 . S
C1421 C1422 1.523 . S
C1422 C1406 1.368 . S
C1422 C1418 1.368 . S
C1422 C1421 1.523 . S
H1423 C1398 0.950 . S
H1424 C1400 0.950 . S
H1425 C1401 0.949 . S
H1426 C1403 0.950 . S
H1427 C1405 0.950 . S
C1428 C1429 1.349 . S
C1428 C1430 1.327 . S
C1428 H1453 0.950 . S
C1429 C1428 1.349 . S
C1429 C1445 1.349 . S
C1430 C1428 1.327 . S
C1430 C1449 1.429 . S
C1430 H1454 0.950 . S
C1431 C1448 1.574 . S
C1431 C1450 1.368 . S
C1431 H1455 0.949 . S
H1432 C1436 0.949 . S
C1433 C1434 1.349 . S
C1433 C1435 1.327 . S
C1433 H1456 0.950 . S
C1434 C1433 1.349 . S
C1434 C1446 1.349 . S
C1435 C1433 1.327 . S
C1435 C1451 1.429 . S
C1435 H1457 0.950 . S
C1436 H1432 0.949 . S
C1436 C1444 1.574 . S
C1436 C1452 1.368 . S
H1437 C1445 0.950 . S
H1438 C1443 0.950 . S
H1439 C1444 0.949 . S
H1440 C1446 0.950 . S
H1441 C1447 0.950 . S
H1442 C1448 0.949 . S
C1443 H1438 0.950 . S
C1443 C1445 1.327 . S
C1443 C1449 1.429 . S
C1444 C1436 1.574 . S
C1444 H1439 0.949 . S
C1444 C1450 1.368 . S
C1445 C1429 1.349 . S
C1445 H1437 0.950 . S
C1445 C1443 1.327 . S
C1446 C1434 1.349 . S
C1446 H1440 0.950 . S
C1446 C1447 1.327 . S
C1447 H1441 0.950 . S
C1447 C1446 1.327 . S
C1447 C1451 1.429 . S
C1448 C1431 1.574 . S
C1448 H1442 0.949 . S
C1448 C1452 1.368 . S
C1449 C1430 1.429 . S
C1449 C1443 1.429 . S
C1449 C1450 1.523 . S
C1450 C1431 1.368 . S
C1450 C1444 1.368 . S
C1450 C1449 1.523 . S
C1451 C1435 1.429 . S
C1451 C1447 1.429 . S
C1451 C1452 1.523 . S
C1452 C1436 1.368 . S
C1452 C1448 1.368 . S
C1452 C1451 1.523 . S
H1453 C1428 0.950 . S
H1454 C1430 0.950 . S
H1455 C1431 0.949 . S
H1456 C1433 0.950 . S
H1457 C1435 0.950 . S
C1458 C1459 1.349 . S
C1458 C1460 1.327 . S
C1458 H1483 0.950 . S
C1459 C1458 1.349 . S
C1459 C1475 1.349 . S
C1460 C1458 1.327 . S
C1460 C1479 1.429 . S
C1460 H1484 0.950 . S
C1461 C1478 1.574 . S
C1461 C1480 1.368 . S
C1461 H1485 0.949 . S
H1462 C1466 0.949 . S
C1463 C1464 1.349 . S
C1463 C1465 1.327 . S
C1463 H1486 0.950 . S
C1464 C1463 1.349 . S
C1464 C1476 1.349 . S
C1465 C1463 1.327 . S
C1465 C1481 1.429 . S
C1465 H1487 0.950 . S
C1466 H1462 0.949 . S
C1466 C1474 1.574 . S
C1466 C1482 1.368 . S
H1467 C1475 0.950 . S
H1468 C1473 0.950 . S
H1469 C1474 0.949 . S
H1470 C1476 0.950 . S
H1471 C1477 0.950 . S
H1472 C1478 0.949 . S
C1473 H1468 0.950 . S
C1473 C1475 1.327 . S
C1473 C1479 1.429 . S
C1474 C1466 1.574 . S
C1474 H1469 0.949 . S
C1474 C1480 1.368 . S
C1475 C1459 1.349 . S
C1475 H1467 0.950 . S
C1475 C1473 1.327 . S
C1476 C1464 1.349 . S
C1476 H1470 0.950 . S
C1476 C1477 1.327 . S
C1477 H1471 0.950 . S
C1477 C1476 1.327 . S
C1477 C1481 1.429 . S
C1478 C1461 1.574 . S
C1478 H1472 0.949 . S
C1478 C1482 1.368 . S
C1479 C1460 1.429 . S
C1479 C1473 1.429 . S
C1479 C1480 1.523 . S
C1480 C1461 1.368 . S
C1480 C1474 1.368 . S
C1480 C1479 1.523 . S
C1481 C1465 1.429 . S
C1481 C1477 1.429 . S
C1481 C1482 1.523 . S
C1482 C1466 1.368 . S
C1482 C1478 1.368 . S
C1482 C1481 1.523 . S
H1483 C1458 0.950 . S
H1484 C1460 0.950 . S
H1485 C1461 0.949 . S
H1486 C1463 0.950 . S
H1487 C1465 0.950 . S
C1488 C1489 1.349 . S
C1488 C1490 1.327 . S
C1488 H1513 0.950 . S
C1489 C1488 1.349 . S
C1489 C1505 1.349 . S
C1490 C1488 1.327 . S
C1490 C1509 1.429 . S
C1490 H1514 0.950 . S
C1491 C1508 1.574 1_556 S
C1491 C1510 1.382 . S
C1491 H1515 0.937 1_545 S
H1492 C1496 0.949 . S
C1493 C1494 1.349 . S
C1493 C1495 1.327 . S
C1493 H1516 0.950 1_545 S
C1494 C1493 1.349 . S
C1494 C1506 1.349 . S
C1495 C1493 1.327 . S
C1495 C1511 1.429 . S
C1495 H1517 0.950 1_545 S
C1496 H1492 0.949 . S
C1496 C1504 1.574 1_554 S
C1496 C1512 1.368 . S
H1497 C1505 0.950 1_565 S
H1498 C1503 0.950 1_565 S
H1499 C1504 0.949 . S
H1500 C1506 0.950 . S
H1501 C1507 0.950 . S
H1502 C1508 0.937 1_565 S
C1503 H1498 0.950 1_545 S
C1503 C1505 1.327 . S
C1503 C1509 1.429 . S
C1504 C1496 1.574 1_556 S
C1504 H1499 0.949 . S
C1504 C1510 1.368 . S
C1505 C1489 1.349 . S
C1505 H1497 0.950 1_545 S
C1505 C1503 1.327 . S
C1506 C1494 1.349 . S
C1506 H1500 0.950 . S
C1506 C1507 1.327 . S
C1507 H1501 0.950 . S
C1507 C1506 1.327 . S
C1507 C1511 1.429 . S
C1508 C1491 1.574 1_554 S
C1508 H1502 0.937 1_545 S
C1508 C1512 1.382 . S
C1509 C1490 1.429 . S
C1509 C1503 1.429 . S
C1509 C1510 1.523 . S
C1510 C1491 1.382 . S
C1510 C1504 1.368 . S
C1510 C1509 1.523 . S
C1511 C1495 1.429 . S
C1511 C1507 1.429 . S
C1511 C1512 1.523 . S
C1512 C1496 1.368 . S
C1512 C1508 1.382 . S
C1512 C1511 1.523 . S
H1513 C1488 0.950 . S
H1514 C1490 0.950 . S
H1515 C1491 0.937 1_565 S
H1516 C1493 0.950 1_565 S
H1517 C1495 0.950 1_565 S
C1518 C1519 1.349 . S
C1518 C1520 1.327 . S
C1518 H1543 0.950 . S
C1519 C1518 1.349 . S
C1519 C1535 1.349 . S
C1520 C1518 1.327 . S
C1520 C1539 1.429 . S
C1520 H1544 0.950 . S
C1521 C1538 1.574 . S
C1521 C1540 1.368 . S
C1521 H1545 0.949 . S
H1522 C1526 0.949 . S
C1523 C1524 1.349 . S
C1523 C1525 1.327 . S
C1523 H1546 0.950 . S
C1524 C1523 1.349 . S
C1524 C1536 1.349 . S
C1525 C1523 1.327 . S
C1525 C1541 1.429 . S
C1525 H1547 0.950 . S
C1526 H1522 0.949 . S
C1526 C1534 1.574 . S
C1526 C1542 1.368 . S
H1527 C1535 0.950 . S
H1528 C1533 0.950 . S
H1529 C1534 0.949 . S
H1530 C1536 0.950 . S
H1531 C1537 0.950 . S
H1532 C1538 0.949 . S
C1533 H1528 0.950 . S
C1533 C1535 1.327 . S
C1533 C1539 1.429 . S
C1534 C1526 1.574 . S
C1534 H1529 0.949 . S
C1534 C1540 1.368 . S
C1535 C1519 1.349 . S
C1535 H1527 0.950 . S
C1535 C1533 1.327 . S
C1536 C1524 1.349 . S
C1536 H1530 0.950 . S
C1536 C1537 1.327 . S
C1537 H1531 0.950 . S
C1537 C1536 1.327 . S
C1537 C1541 1.429 . S
C1538 C1521 1.574 . S
C1538 H1532 0.949 . S
C1538 C1542 1.368 . S
C1539 C1520 1.429 . S
C1539 C1533 1.429 . S
C1539 C1540 1.523 . S
C1540 C1521 1.368 . S
C1540 C1534 1.368 . S
C1540 C1539 1.523 . S
C1541 C1525 1.429 . S
C1541 C1537 1.429 . S
C1541 C1542 1.523 . S
C1542 C1526 1.368 . S
C1542 C1538 1.368 . S
C1542 C1541 1.523 . S
H1543 C1518 0.950 . S
H1544 C1520 0.950 . S
H1545 C1521 0.949 . S
H1546 C1523 0.950 . S
H1547 C1525 0.950 . S
C1548 C1549 1.349 . S
C1548 C1550 1.327 . S
C1548 H1573 0.950 . S
C1549 C1548 1.349 . S
C1549 C1565 1.349 . S
C1550 C1548 1.327 . S
C1550 C1569 1.429 . S
C1550 H1574 0.950 . S
C1551 C1568 1.574 1_554 S
C1551 C1570 1.368 . S
C1551 H1575 0.949 . S
H1552 C1556 0.949 . S
C1553 C1554 1.349 . S
C1553 C1555 1.327 . S
C1553 H1576 0.950 . S
C1554 C1553 1.349 . S
C1554 C1566 1.349 . S
C1555 C1553 1.327 . S
C1555 C1571 1.429 . S
C1555 H1577 0.950 . S
C1556 H1552 0.949 . S
C1556 C1564 1.574 1_556 S
C1556 C1572 1.368 . S
H1557 C1565 0.950 . S
H1558 C1563 0.950 . S
H1559 C1564 0.949 . S
H1560 C1566 0.950 . S
H1561 C1567 0.950 . S
H1562 C1568 0.949 . S
C1563 H1558 0.950 . S
C1563 C1565 1.327 . S
C1563 C1569 1.429 . S
C1564 C1556 1.574 1_554 S
C1564 H1559 0.949 . S
C1564 C1570 1.368 . S
C1565 C1549 1.349 . S
C1565 H1557 0.950 . S
C1565 C1563 1.327 . S
C1566 C1554 1.349 . S
C1566 H1560 0.950 . S
C1566 C1567 1.327 . S
C1567 H1561 0.950 . S
C1567 C1566 1.327 . S
C1567 C1571 1.429 . S
C1568 C1551 1.574 1_556 S
C1568 H1562 0.949 . S
C1568 C1572 1.368 . S
C1569 C1550 1.429 . S
C1569 C1563 1.429 . S
C1569 C1570 1.523 . S
C1570 C1551 1.368 . S
C1570 C1564 1.368 . S
C1570 C1569 1.523 . S
C1571 C1555 1.429 . S
C1571 C1567 1.429 . S
C1571 C1572 1.523 . S
C1572 C1556 1.368 . S
C1572 C1568 1.368 . S
C1572 C1571 1.523 . S
H1573 C1548 0.950 . S
H1574 C1550 0.950 . S
H1575 C1551 0.949 . S
H1576 C1553 0.950 . S
H1577 C1555 0.950 . S
C1578 C1579 1.349 . S
C1578 C1580 1.327 . S
C1578 H1603 0.950 1_455 S
C1579 C1578 1.349 . S
C1579 C1595 1.349 . S
C1580 C1578 1.327 . S
C1580 C1599 1.429 . S
C1580 H1604 0.950 1_455 S
C1581 C1598 1.574 . S
C1581 C1600 1.368 . S
C1581 H1605 0.949 . S
H1582 C1586 0.949 1_655 S
C1583 C1584 1.349 . S
C1583 C1585 1.327 . S
C1583 H1606 0.950 . S
C1584 C1583 1.349 . S
C1584 C1596 1.349 . S
C1585 C1583 1.327 . S
C1585 C1601 1.429 . S
C1585 H1607 0.950 . S
C1586 H1582 0.949 1_455 S
C1586 C1594 1.574 . S
C1586 C1602 1.368 . S
H1587 C1595 0.950 . S
H1588 C1593 0.950 . S
H1589 C1594 0.949 1_655 S
H1590 C1596 0.950 1_655 S
H1591 C1597 0.950 1_655 S
H1592 C1598 0.949 . S
C1593 H1588 0.950 . S
C1593 C1595 1.327 . S
C1593 C1599 1.429 . S
C1594 C1586 1.574 . S
C1594 H1589 0.949 1_455 S
C1594 C1600 1.368 . S
C1595 C1579 1.349 . S
C1595 H1587 0.950 . S
C1595 C1593 1.327 . S
C1596 C1584 1.349 . S
C1596 H1590 0.950 1_455 S
C1596 C1597 1.327 . S
C1597 H1591 0.950 1_455 S
C1597 C1596 1.327 . S
C1597 C1601 1.429 . S
C1598 C1581 1.574 . S
C1598 H1592 0.949 . S
C1598 C1602 1.368 . S
C1599 C1580 1.429 . S
C1599 C1593 1.429 . S
C1599 C1600 1.523 . S
C1600 C1581 1.368 . S
C1600 C1594 1.368 . S
C1600 C1599 1.523 . S
C1601 C1585 1.429 . S
C1601 C1597 1.429 . S
C1601 C1602 1.523 . S
C1602 C1586 1.368 . S
C1602 C1598 1.368 . S
C1602 C1601 1.523 . S
H1603 C1578 0.950 1_655 S
H1604 C1580 0.950 1_655 S
H1605 C1581 0.949 . S
H1606 C1583 0.950 . S
H1607 C1585 0.950 . S
C1608 C1609 1.349 . S
C1608 C1610 1.327 . S
C1608 H1633 0.967 . S
C1609 C1608 1.349 . S
C1609 C1625 1.349 . S
C1610 C1608 1.327 . S
C1610 C1629 1.429 . S
C1610 H1634 0.943 1_565 S
C1611 C1628 1.574 1_554 S
C1611 C1630 1.368 . S
C1611 H1635 0.949 . S
H1612 C1616 0.935 1_545 S
C1613 C1614 1.349 . S
C1613 C1615 1.327 . S
C1613 H1636 0.950 . S
C1614 C1613 1.349 . S
C1614 C1626 1.349 . S
C1615 C1613 1.327 . S
C1615 C1631 1.429 . S
C1615 H1637 0.950 . S
C1616 H1612 0.935 1_565 S
C1616 C1624 1.574 1_556 S
C1616 C1632 1.368 . S
H1617 C1625 0.950 . S
H1618 C1623 0.950 . S
H1619 C1624 0.935 1_545 S
H1620 C1626 0.967 . S
H1621 C1627 0.943 1_545 S
H1622 C1628 0.949 . S
C1623 H1618 0.950 . S
C1623 C1625 1.327 . S
C1623 C1629 1.429 . S
C1624 C1616 1.574 1_554 S
C1624 H1619 0.935 1_565 S
C1624 C1630 1.368 . S
C1625 C1609 1.349 . S
C1625 H1617 0.950 . S
C1625 C1623 1.327 . S
C1626 C1614 1.349 . S
C1626 H1620 0.967 . S
C1626 C1627 1.327 . S
C1627 H1621 0.943 1_565 S
C1627 C1626 1.327 . S
C1627 C1631 1.429 . S
C1628 C1611 1.574 1_556 S
C1628 H1622 0.949 . S
C1628 C1632 1.368 . S
C1629 C1610 1.429 . S
C1629 C1623 1.429 . S
C1629 C1630 1.523 . S
C1630 C1611 1.368 . S
C1630 C1624 1.368 . S
C1630 C1629 1.523 . S
C1631 C1615 1.429 . S
C1631 C1627 1.429 . S
C1631 C1632 1.523 . S
C1632 C1616 1.368 . S
C1632 C1628 1.368 . S
C1632 C1631 1.523 . S
H1633 C1608 0.967 . S
H1634 C1610 0.943 1_545 S
H1635 C1611 0.949 . S
H1636 C1613 0.950 . S
H1637 C1615 0.950 . S
C1638 C1639 1.349 . S
C1638 C1640 1.327 . S
C1638 H1663 0.950 . S
C1639 C1638 1.349 . S
C1639 C1655 1.349 . S
C1640 C1638 1.327 . S
C1640 C1659 1.429 . S
C1640 H1664 0.950 . S
C1641 C1658 1.574 . S
C1641 C1660 1.368 . S
C1641 H1665 0.949 . S
H1642 C1646 0.949 . S
C1643 C1644 1.349 . S
C1643 C1645 1.327 . S
C1643 H1666 0.950 . S
C1644 C1643 1.349 . S
C1644 C1656 1.349 . S
C1645 C1643 1.327 . S
C1645 C1661 1.429 . S
C1645 H1667 0.950 . S
C1646 H1642 0.949 . S
C1646 C1654 1.574 . S
C1646 C1662 1.368 . S
H1647 C1655 0.950 . S
H1648 C1653 0.950 . S
H1649 C1654 0.949 . S
H1650 C1656 0.950 . S
H1651 C1657 0.950 . S
H1652 C1658 0.949 . S
C1653 H1648 0.950 . S
C1653 C1655 1.327 . S
C1653 C1659 1.429 . S
C1654 C1646 1.574 . S
C1654 H1649 0.949 . S
C1654 C1660 1.368 . S
C1655 C1639 1.349 . S
C1655 H1647 0.950 . S
C1655 C1653 1.327 . S
C1656 C1644 1.349 . S
C1656 H1650 0.950 . S
C1656 C1657 1.327 . S
C1657 H1651 0.950 . S
C1657 C1656 1.327 . S
C1657 C1661 1.429 . S
C1658 C1641 1.574 . S
C1658 H1652 0.949 . S
C1658 C1662 1.368 . S
C1659 C1640 1.429 . S
C1659 C1653 1.429 . S
C1659 C1660 1.523 . S
C1660 C1641 1.368 . S
C1660 C1654 1.368 . S
C1660 C1659 1.523 . S
C1661 C1645 1.429 . S
C1661 C1657 1.429 . S
C1661 C1662 1.523 . S
C1662 C1646 1.368 . S
C1662 C1658 1.368 . S
C1662 C1661 1.523 . S
H1663 C1638 0.950 . S
H1664 C1640 0.950 . S
H1665 C1641 0.949 . S
H1666 C1643 0.950 . S
H1667 C1645 0.950 . S
C1668 C1669 1.349 . S
C1668 C1670 1.327 . S
C1668 H1693 0.950 . S
C1669 C1668 1.349 . S
C1669 C1685 1.349 . S
C1670 C1668 1.327 . S
C1670 C1689 1.429 . S
C1670 H1694 0.950 . S
C1671 C1688 1.574 1_554 S
C1671 C1690 1.368 . S
C1671 H1695 0.949 . S
H1672 C1676 0.949 . S
C1673 C1674 1.349 . S
C1673 C1675 1.327 . S
C1673 H1696 0.950 . S
C1674 C1673 1.349 . S
C1674 C1686 1.349 . S
C1675 C1673 1.327 . S
C1675 C1691 1.429 . S
C1675 H1697 0.950 . S
C1676 H1672 0.949 . S
C1676 C1684 1.574 1_556 S
C1676 C1692 1.368 . S
H1677 C1685 0.950 . S
H1678 C1683 0.950 . S
H1679 C1684 0.949 . S
H1680 C1686 0.950 . S
H1681 C1687 0.950 . S
H1682 C1688 0.949 . S
C1683 H1678 0.950 . S
C1683 C1685 1.327 . S
C1683 C1689 1.429 . S
C1684 C1676 1.574 1_554 S
C1684 H1679 0.949 . S
C1684 C1690 1.368 . S
C1685 C1669 1.349 . S
C1685 H1677 0.950 . S
C1685 C1683 1.327 . S
C1686 C1674 1.349 . S
C1686 H1680 0.950 . S
C1686 C1687 1.327 . S
C1687 H1681 0.950 . S
C1687 C1686 1.327 . S
C1687 C1691 1.429 . S
C1688 C1671 1.574 1_556 S
C1688 H1682 0.949 . S
C1688 C1692 1.368 . S
C1689 C1670 1.429 . S
C1689 C1683 1.429 . S
C1689 C1690 1.523 . S
C1690 C1671 1.368 . S
C1690 C1684 1.368 . S
C1690 C1689 1.523 . S
C1691 C1675 1.429 . S
C1691 C1687 1.429 . S
C1691 C1692 1.523 . S
C1692 C1676 1.368 . S
C1692 C1688 1.368 . S
C1692 C1691 1.523 . S
H1693 C1668 0.950 . S
H1694 C1670 0.950 . S
H1695 C1671 0.949 . S
H1696 C1673 0.950 . S
H1697 C1675 0.950 . S
C1698 C1699 1.349 . S
C1698 C1700 1.327 . S
C1698 H1723 0.950 . S
C1699 C1698 1.349 . S
C1699 C1715 1.349 . S
C1700 C1698 1.327 . S
C1700 C1719 1.429 . S
C1700 H1724 0.950 . S
C1701 C1718 1.574 . S
C1701 C1720 1.368 . S
C1701 H1725 0.949 . S
H1702 C1706 0.949 . S
C1703 C1704 1.349 . S
C1703 C1705 1.327 . S
C1703 H1726 0.950 . S
C1704 C1703 1.349 . S
C1704 C1716 1.349 . S
C1705 C1703 1.327 . S
C1705 C1721 1.429 . S
C1705 H1727 0.950 . S
C1706 H1702 0.949 . S
C1706 C1714 1.574 . S
C1706 C1722 1.368 . S
H1707 C1715 0.950 . S
H1708 C1713 0.950 . S
H1709 C1714 0.949 . S
H1710 C1716 0.950 . S
H1711 C1717 0.950 . S
H1712 C1718 0.949 . S
C1713 H1708 0.950 . S
C1713 C1715 1.327 . S
C1713 C1719 1.429 . S
C1714 C1706 1.574 . S
C1714 H1709 0.949 . S
C1714 C1720 1.368 . S
C1715 C1699 1.349 . S
C1715 H1707 0.950 . S
C1715 C1713 1.327 . S
C1716 C1704 1.349 . S
C1716 H1710 0.950 . S
C1716 C1717 1.327 . S
C1717 H1711 0.950 . S
C1717 C1716 1.327 . S
C1717 C1721 1.429 . S
C1718 C1701 1.574 . S
C1718 H1712 0.949 . S
C1718 C1722 1.368 . S
C1719 C1700 1.429 . S
C1719 C1713 1.429 . S
C1719 C1720 1.523 . S
C1720 C1701 1.368 . S
C1720 C1714 1.368 . S
C1720 C1719 1.523 . S
C1721 C1705 1.429 . S
C1721 C1717 1.429 . S
C1721 C1722 1.523 . S
C1722 C1706 1.368 . S
C1722 C1718 1.368 . S
C1722 C1721 1.523 . S
H1723 C1698 0.950 . S
H1724 C1700 0.950 . S
H1725 C1701 0.949 . S
H1726 C1703 0.950 . S
H1727 C1705 0.950 . S
C529 N14 1.666 . S
C534 N245 1.666 . S
C559 N146 1.666 . S
C564 N47 1.666 . S
C589 N179 1.666 . S
C594 N80 1.666 . S
C619 N113 1.666 . S
C624 N212 1.666 . S
C649 N269 2.319 . S
C654 N500 2.319 . S
C679 N302 2.320 . S
C684 N401 2.320 . S
C709 N434 2.319 . S
C714 N335 2.319 . S
C739 N368 2.319 . S
C744 N467 2.319 . S
C769 C8 0.414 . S
C774 C314 0.554 . S
C799 C347 0.554 . S
C804 C41 0.414 . S
C829 C380 0.554 . S
C834 C74 0.415 . S
C859 C281 0.554 . S
C864 C107 0.414 . S
C889 C512 0.554 . S
C894 C140 0.414 . S
C919 C413 0.554 . S
C924 C173 0.414 . S
C949 C446 0.554 . S
C954 C206 0.414 . S
C979 C479 0.554 . S
C984 C239 0.415 . S
C1009 C61 0.743 . S
C1014 C292 0.741 . S
C1039 C94 0.743 . S
C1044 C325 0.742 . S
C1069 C127 0.743 . S
C1074 C358 0.742 . S
C1099 C391 0.742 . S
C1104 C28 0.743 . S
C1129 C259 0.743 . S
C1134 C424 0.742 . S
C1159 C160 0.743 . S
C1164 C457 0.741 . S
C1189 C193 0.743 . S
C1194 C490 0.742 . S
C1219 C226 0.743 . S
C1224 C523 0.742 . S
C1249 N71 0.890 . S
C1254 N5 0.890 . S
C1279 N38 0.890 . S
C1284 N104 0.890 . S
C1309 N203 0.890 . S
C1314 N137 0.890 . S
C1339 N236 0.890 . S
C1344 N170 0.890 . S
C1369 N344 0.904 . S
C1374 N278 0.904 . S
C1399 N377 0.904 . S
C1404 N311 0.904 . S
C1429 N410 0.904 . S
C1434 N476 0.904 . S
C1459 N509 0.904 . S
C1464 N443 0.904 . S
C1489 C215 1.275 . S
C1494 C17 1.275 . S
C1519 C248 1.275 . S
C1524 C50 1.275 . S
C1549 C83 1.275 . S
C1554 C149 1.275 . S
C1579 C182 1.275 . S
C1584 C116 1.275 . S
C1609 C470 1.391 . S
C1614 C272 1.391 . S
C1639 C503 1.392 . S
C1644 C305 1.392 . S
C1669 C404 1.392 . S
C1674 C338 1.392 . S
C1699 C371 1.391 . S
C1704 C437 1.391 . S
