# Generated by pormake.
# Topology lhb, (8)-cn, num edge types: 1
# Building blocks:
#     Node 0, Type 0, BuildingBlock: VETTIZ_charged_sbu_0, # of connection points: 8
#     Node 1, Type 0, BuildingBlock: VETTIZ_charged_sbu_0, # of connection points: 8
#     Node 2, Type 0, BuildingBlock: VETTIZ_charged_sbu_0, # of connection points: 8
#     Node 3, Type 0, BuildingBlock: VETTIZ_charged_sbu_0, # of connection points: 8
#     Node 4, Type 0, BuildingBlock: VETTIZ_charged_sbu_0, # of connection points: 8
#     Node 5, Type 0, BuildingBlock: VETTIZ_charged_sbu_0, # of connection points: 8
#     Node 6, Type 0, BuildingBlock: VETTIZ_charged_sbu_0, # of connection points: 8
#     Node 7, Type 0, BuildingBlock: VETTIZ_charged_sbu_0, # of connection points: 8
#     Edge 8, Type (0, 0), BuildingBlock: CIFDUS_clean_linker_0, # of connection points: 2
#     Edge 9, Type (0, 0), BuildingBlock: CIFDUS_clean_linker_0, # of connection points: 2
#     Edge 10, Type (0, 0), BuildingBlock: CIFDUS_clean_linker_0, # of connection points: 2
#     Edge 11, Type (0, 0), BuildingBlock: CIFDUS_clean_linker_0, # of connection points: 2
#     Edge 12, Type (0, 0), BuildingBlock: CIFDUS_clean_linker_0, # of connection points: 2
#     Edge 13, Type (0, 0), BuildingBlock: CIFDUS_clean_linker_0, # of connection points: 2
#     Edge 14, Type (0, 0), BuildingBlock: CIFDUS_clean_linker_0, # of connection points: 2
#     Edge 15, Type (0, 0), BuildingBlock: CIFDUS_clean_linker_0, # of connection points: 2
#     Edge 16, Type (0, 0), BuildingBlock: CIFDUS_clean_linker_0, # of connection points: 2
#     Edge 17, Type (0, 0), BuildingBlock: CIFDUS_clean_linker_0, # of connection points: 2
#     Edge 18, Type (0, 0), BuildingBlock: CIFDUS_clean_linker_0, # of connection points: 2
#     Edge 19, Type (0, 0), BuildingBlock: CIFDUS_clean_linker_0, # of connection points: 2
#     Edge 20, Type (0, 0), BuildingBlock: CIFDUS_clean_linker_0, # of connection points: 2
#     Edge 21, Type (0, 0), BuildingBlock: CIFDUS_clean_linker_0, # of connection points: 2
#     Edge 22, Type (0, 0), BuildingBlock: CIFDUS_clean_linker_0, # of connection points: 2
#     Edge 23, Type (0, 0), BuildingBlock: CIFDUS_clean_linker_0, # of connection points: 2
#     Edge 24, Type (0, 0), BuildingBlock: CIFDUS_clean_linker_0, # of connection points: 2
#     Edge 25, Type (0, 0), BuildingBlock: CIFDUS_clean_linker_0, # of connection points: 2
#     Edge 26, Type (0, 0), BuildingBlock: CIFDUS_clean_linker_0, # of connection points: 2
#     Edge 27, Type (0, 0), BuildingBlock: CIFDUS_clean_linker_0, # of connection points: 2
#     Edge 28, Type (0, 0), BuildingBlock: CIFDUS_clean_linker_0, # of connection points: 2
#     Edge 29, Type (0, 0), BuildingBlock: CIFDUS_clean_linker_0, # of connection points: 2
#     Edge 30, Type (0, 0), BuildingBlock: CIFDUS_clean_linker_0, # of connection points: 2
#     Edge 31, Type (0, 0), BuildingBlock: CIFDUS_clean_linker_0, # of connection points: 2
#     Edge 32, Type (0, 0), BuildingBlock: CIFDUS_clean_linker_0, # of connection points: 2
#     Edge 33, Type (0, 0), BuildingBlock: CIFDUS_clean_linker_0, # of connection points: 2
#     Edge 34, Type (0, 0), BuildingBlock: CIFDUS_clean_linker_0, # of connection points: 2
#     Edge 35, Type (0, 0), BuildingBlock: CIFDUS_clean_linker_0, # of connection points: 2
#     Edge 36, Type (0, 0), BuildingBlock: CIFDUS_clean_linker_0, # of connection points: 2
#     Edge 37, Type (0, 0), BuildingBlock: CIFDUS_clean_linker_0, # of connection points: 2
#     Edge 38, Type (0, 0), BuildingBlock: CIFDUS_clean_linker_0, # of connection points: 2
#     Edge 39, Type (0, 0), BuildingBlock: CIFDUS_clean_linker_0, # of connection points: 2
# Relax obj value: 0.196
# Max RMSD: 0.257
# Mean RMSD: 0.257
data_MOF--net-lhb--node1-VETTIZ_charged_sbu_0--edge1-CIFDUS_clean_linker_0
_symmetry_space_group_name_H-M    P1
_symmetry_Int_Tables_number       1
_symmetry_cell_setting            triclinic
loop_
_symmetry_equiv_pos_as_xyz
'x, y, z'
_cell_length_a     27.47323
_cell_length_b     14.60999
_cell_length_c     48.126809
_cell_angle_alpha  92.060524
_cell_angle_beta   89.715088
_cell_angle_gamma 91.485752
loop_
_atom_site_label
_atom_site_type_symbol
_atom_site_fract_x
_atom_site_fract_y
_atom_site_fract_z
_atom_type_partial_charge
Fe0 Fe 0.95053 0.84111 0.98828 0.0
O1 O 0.9754 0.92594 1.0177 0.0
Fe2 Fe 0.03584 0.00828 1.00912 0.0
Fe3 Fe 0.99577 0.88767 0.05543 0.0
O4 O 0.97667 0.93088 1.01576 0.0
O5 O 0.05599 0.97043 0.04695 0.0
O6 O 0.05485 0.96498 0.04885 0.0
Fe7 Fe 0.07747 0.0562 0.07721 0.0
C8 C 0.89085 0.81294 0.04045 0.0
O9 O 0.97155 0.72874 1.00853 0.0
O10 O 0.02939 0.77603 1.03857 0.0
O11 O 0.13575 0.0728 0.05031 0.0
O12 O 0.10066 0.0849 1.00697 0.0
O13 O 0.07236 0.89842 0.99213 0.0
O14 O 0.01497 0.83213 0.96512 0.0
O15 O 0.02817 0.86029 0.09565 0.0
O16 O 0.10074 0.94166 0.09485 0.0
C17 C 0.05938 0.84113 0.97285 0.0
O18 O 0.0495 0.16674 0.05964 0.0
O19 O 1.00008 0.1189 1.02519 0.0
O20 O 0.89071 0.83814 1.01475 0.0
O21 O 0.92906 0.81228 0.05639 0.0
C22 C 0.00746 0.71334 1.02413 0.0
C23 C 0.07103 0.8842 0.10611 0.0
C24 C 0.97056 0.02511 0.09692 0.0
O25 O 0.96102 -0.00076 0.07215 0.0
O26 O 0.01503 0.04308 0.10324 0.0
C27 C 0.13715 0.09036 1.02403 0.0
O28 O 0.00714 0.04092 0.97018 0.0
O29 O 0.93476 0.95787 0.967 0.0
C30 C 0.01676 0.18078 0.04194 0.0
C31 C 0.964 0.02417 0.95978 0.0
Fe32 Fe 0.22538 0.29589 0.26808 0.0
O33 O 0.28381 0.22009 0.27144 0.0
Fe34 Fe 0.19015 0.32539 0.3377 0.0
Fe35 Fe 0.30748 0.14068 0.24136 0.0
O36 O 0.20869 0.24738 0.3053 0.0
O37 O 0.21112 0.24306 0.30743 0.0
O38 O 0.28632 0.2161 0.27365 0.0
Fe39 Fe 0.26947 0.16659 0.31096 0.0
C40 C 0.19869 0.13717 0.22784 0.0
O41 O 0.25226 0.34182 0.2299 0.0
O42 O 0.32404 0.26607 0.22351 0.0
O43 O 0.30843 0.27165 0.33055 0.0
O44 O 0.25325 0.31347 0.36147 0.0
O45 O 0.21634 0.44543 0.32155 0.0
O46 O 0.264 0.40406 0.28598 0.0
O47 O 0.3676 0.13545 0.26583 0.0
O48 O 0.33522 0.09565 0.30845 0.0
C49 C 0.24758 0.46443 0.30288 0.0
O50 O 0.24084 0.12721 0.351 0.0
O51 O 0.16852 0.20244 0.35233 0.0
O52 O 0.18587 0.18793 0.24866 0.0
O53 O 0.24276 0.13578 0.21944 0.0
C54 C 0.29577 0.33426 0.21933 0.0
C55 C 0.37098 0.10321 0.29053 0.0
C56 C 0.25265 -0.00181 0.27648 0.0
O57 O 0.28618 0.019 0.25916 0.0
O58 O 0.23262 0.05799 0.29228 0.0
C59 C 0.29746 0.29725 0.35523 0.0
O60 O 0.13053 0.34203 0.31365 0.0
O61 O 0.16143 0.37033 0.27007 0.0
C62 C 0.19815 0.14507 0.36227 0.0
C63 C 0.12684 0.3705 0.28864 0.0
Fe64 Fe 0.72953 0.8108 0.26791 0.0
O65 O 0.78547 0.72729 0.26995 0.0
Fe66 Fe 0.69512 0.83136 0.33784 0.0
Fe67 Fe 0.80713 0.64704 0.23941 0.0
O68 O 0.71086 0.75588 0.30413 0.0
O69 O 0.71351 0.75087 0.30639 0.0
O70 O 0.78742 0.72182 0.27189 0.0
Fe71 Fe 0.77024 0.66923 0.30855 0.0
C72 C 0.69961 0.66729 0.22362 0.0
O73 O 0.75928 0.86148 0.23063 0.0
O74 O 0.82597 0.77072 0.22267 0.0
O75 O 0.81174 0.76954 0.32867 0.0
O76 O 0.75856 0.81432 0.36045 0.0
O77 O 0.72135 0.95286 0.32247 0.0
O78 O 0.77094 0.91102 0.28816 0.0
O79 O 0.8671 0.6343 0.26332 0.0
O80 O 0.8337 0.59248 0.30526 0.0
C81 C 0.75337 0.97229 0.30431 0.0
O82 O 0.74304 0.6258 0.34772 0.0
O83 O 0.673 0.70796 0.35254 0.0
O84 O 0.68694 0.71294 0.24554 0.0
O85 O 0.74385 0.65325 0.21748 0.0
C86 C 0.80068 0.84287 0.21852 0.0
C87 C 0.86953 0.59826 0.28746 0.0
C88 C 0.74997 0.50437 0.27352 0.0
O89 O 0.78324 0.52503 0.25608 0.0
O90 O 0.73056 0.56481 0.28934 0.0
C91 C 0.80203 0.79572 0.35347 0.0
O92 O 0.63539 0.85343 0.31457 0.0
O93 O 0.66702 0.891 0.27175 0.0
C94 C 0.70149 0.64402 0.35988 0.0
C95 C 0.63222 0.88848 0.29034 0.0
Fe96 Fe 0.97263 0.35695 0.49394 0.0
O97 O 0.95281 0.42896 0.52929 0.0
Fe98 Fe 0.05277 0.56629 0.50425 0.0
Fe99 Fe 0.96884 0.39933 0.56905 0.0
O100 O 0.03024 0.4322 0.5106 0.0
O101 O 0.01399 0.55231 0.54414 0.0
O102 O 0.01087 0.50718 0.55578 0.0
Fe103 Fe 0.03554 0.59995 0.58506 0.0
C104 C 0.89734 0.30819 0.52154 0.0
O105 O 1.00004 0.25145 0.514 0.0
O106 O 0.02028 0.30184 0.55713 0.0
O107 O 0.10212 0.63226 0.56654 0.0
O108 O 0.11453 0.54958 0.52722 0.0
O109 O 0.08964 0.51199 0.46888 0.0
O110 O 0.04197 0.41869 0.48918 0.0
O111 O 0.99921 0.40394 0.60989 0.0
O112 O 0.06449 0.48098 0.59711 0.0
C113 C 0.0699 0.43268 0.46753 0.0
O114 O 0.00865 0.72138 0.57279 0.0
O115 O 0.02072 0.64469 0.53563 0.0
O116 O 0.90437 0.28996 0.49581 0.0
O117 O 0.92881 0.37161 0.53127 0.0
C118 C 0.02233 0.24308 0.53671 0.0
C119 C 0.04228 0.43571 0.61527 0.0
C120 C 0.92622 0.54795 0.60101 0.0
O121 O 0.91883 0.4914 0.58089 0.0
O122 O 0.96921 0.57924 0.60679 0.0
C123 C 0.12875 0.60869 0.54571 0.0
O124 O 0.99142 0.59033 0.47984 0.0
O125 O 0.94607 0.46081 0.47126 0.0
C126 C 0.0169 0.72461 0.54715 0.0
C127 C 0.95621 0.54554 0.46771 0.0
Fe128 Fe 0.23714 0.82491 0.76985 0.0
O129 O 0.29788 0.75433 0.7728 0.0
Fe130 Fe 0.2035 0.83875 0.84073 0.0
Fe131 Fe 0.32398 0.68311 0.7413 0.0
O132 O 0.22121 0.76862 0.8064 0.0
O133 O 0.22291 0.76146 0.80824 0.0
O134 O 0.29935 0.74703 0.77453 0.0
Fe135 Fe 0.28267 0.68759 0.81028 0.0
C136 C 0.21805 0.67238 0.72659 0.0
O137 O 0.26496 0.8792 0.73246 0.0
O138 O 0.33993 0.81302 0.72756 0.0
O139 O 0.31878 0.79437 0.83034 0.0
O140 O 0.26704 0.82003 0.86403 0.0
O141 O 0.22864 0.96336 0.82733 0.0
O142 O 0.27106 0.9393 0.78835 0.0
O143 O 0.38314 0.67068 0.76639 0.0
O144 O 0.34919 0.62173 0.80754 0.0
C145 C 0.25564 -0.00772 0.80785 0.0
O146 O 0.25391 0.63634 0.84888 0.0
O147 O 0.18222 0.7142 0.85388 0.0
O148 O 0.20163 0.71291 0.74862 0.0
O149 O 0.26138 0.68877 0.71846 0.0
C150 C 0.30985 0.87817 0.7232 0.0
C151 C 0.38535 0.63171 0.79015 0.0
C152 C 0.27099 0.52378 0.77199 0.0
O153 O 0.3023 0.55481 0.75475 0.0
O154 O 0.24997 0.57545 0.79011 0.0
C155 C 0.31079 0.80938 0.85589 0.0
O156 O 0.14329 0.86117 0.81744 0.0
O157 O 0.17067 0.89151 0.77302 0.0
C158 C 0.21063 0.649 0.86003 0.0
C159 C 0.13754 0.88992 0.79254 0.0
Fe160 Fe 0.72746 0.27791 0.76956 0.0
O161 O 0.7843 0.19784 0.77275 0.0
Fe162 Fe 0.69063 0.30323 0.83866 0.0
Fe163 Fe 0.80929 0.12085 0.74268 0.0
O164 O 0.70815 0.22488 0.80585 0.0
O165 O 0.71096 0.22032 0.80818 0.0
O166 O 0.7865 0.19366 0.77475 0.0
Fe167 Fe 0.7698 0.14488 0.81198 0.0
C168 C 0.70229 0.13606 0.7247 0.0
O169 O 0.75689 0.3275 0.7327 0.0
O170 O 0.82769 0.24709 0.72662 0.0
O171 O 0.80829 0.25228 0.83039 0.0
O172 O 0.75419 0.29194 0.86202 0.0
O173 O 0.71605 0.42413 0.82266 0.0
O174 O 0.76745 0.38058 0.78955 0.0
O175 O 0.86809 0.11146 0.76774 0.0
O176 O 0.83556 0.07423 0.81041 0.0
C177 C 0.74899 0.44263 0.80498 0.0
O178 O 0.74204 0.10619 0.85209 0.0
O179 O 0.66948 0.18059 0.85385 0.0
O180 O 0.68737 0.17753 0.7469 0.0
O181 O 0.74719 0.12489 0.7195 0.0
C182 C 0.80035 0.31663 0.72252 0.0
C183 C 0.87135 0.08082 0.79257 0.0
C184 C 0.75265 0.97613 0.77689 0.0
O185 O 0.78532 -0.00198 0.7591 0.0
O186 O 0.73374 0.03448 0.79373 0.0
C187 C 0.79835 0.27849 0.85506 0.0
O188 O 0.63121 0.32072 0.81451 0.0
O189 O 0.66475 0.35654 0.7721 0.0
C190 C 0.69944 0.12308 0.86347 0.0
C191 C 0.62952 0.35678 0.79035 0.0
Fe192 Fe 0.48471 0.93575 0.5097 0.0
O193 O 0.4619 -0.0091 0.54593 0.0
Fe194 Fe 0.57808 0.0839 0.49028 0.0
Fe195 Fe 0.43385 0.91425 0.57542 0.0
O196 O 0.54456 0.01144 0.51775 0.0
O197 O 0.54736 0.01409 0.52015 0.0
O198 O 0.46474 -0.00451 0.54853 0.0
Fe199 Fe 0.5266 0.06543 0.55741 0.0
C200 C 0.37925 0.86538 0.52229 0.0
O201 O 0.51645 0.83194 0.52964 0.0
O202 O 0.45724 0.79095 0.55839 0.0
O203 O 0.59722 0.1297 0.56095 0.0
O204 O 0.63371 0.09279 0.51861 0.0
O205 O 0.59408 0.95479 0.47342 0.0
O206 O 0.51853 0.88261 0.47378 0.0
O207 O 0.49204 0.92038 0.60304 0.0
O208 O 0.55487 0.95565 0.57656 0.0
C209 C 0.56445 0.8864 0.46696 0.0
O210 O 0.49946 0.17719 0.53936 0.0
O211 O 0.55583 0.20943 0.50698 0.0
O212 O 0.41789 0.86029 0.5065 0.0
O213 O 0.37856 0.90186 0.54721 0.0
C214 C 0.49393 0.77166 0.54326 0.0
C215 C 0.53779 0.93157 0.59983 0.0
C216 C 0.44775 0.09419 0.605 0.0
O217 O 0.41654 0.0392 0.59251 0.0
O218 O 0.49283 0.10772 0.59626 0.0
C219 C 0.63512 0.12041 0.54451 0.0
O220 O 0.51942 0.08187 0.46335 0.0
O221 O 0.45347 0.03948 0.48748 0.0
C222 C 0.52074 0.23247 0.52316 0.0
C223 C 0.47337 0.07874 0.46681 0.0
Fe224 Fe 0.48286 0.43223 1.01385 0.0
O225 O 0.45647 0.484 0.04955 0.0
Fe226 Fe 0.57391 0.58537 0.99592 0.0
Fe227 Fe 0.42655 0.40861 0.07833 0.0
O228 O 0.54135 0.50939 1.0232 0.0
O229 O 0.54276 0.51436 1.02527 0.0
O230 O 0.45795 0.48919 0.05162 0.0
Fe231 Fe 0.51659 0.56649 0.0613 0.0
C232 C 0.37758 0.36189 1.02252 0.0
O233 O 0.51334 0.32679 1.03362 0.0
O234 O 0.45387 0.28739 0.06279 0.0
O235 O 0.58351 0.64057 0.06576 0.0
O236 O 0.6272 0.59984 1.02596 0.0
O237 O 0.59354 0.45739 0.97895 0.0
O238 O 0.51871 0.38341 0.97804 0.0
O239 O 0.48336 0.42185 0.10761 0.0
O240 O 0.5463 0.46089 0.0816 0.0
C241 C 0.56476 0.38851 0.97166 0.0
O242 O 0.48767 0.67317 0.04145 0.0
O243 O 0.54856 0.70836 1.0122 0.0
O244 O 0.41772 0.35759 1.00828 0.0
O245 O 0.37364 0.39048 0.04825 0.0
C246 C 0.49084 0.2679 0.04789 0.0
C247 C 0.52908 0.43783 0.10491 0.0
C248 C 0.43379 0.58931 0.10708 0.0
O249 O 0.40488 0.53324 0.09341 0.0
O250 O 0.47895 0.60747 0.09926 0.0
C251 C 0.62365 0.63468 0.05114 0.0
O252 O 0.51578 0.58159 0.96798 0.0
O253 O 0.45196 0.53742 0.9932 0.0
C254 C 0.51104 0.72982 1.0266 0.0
C255 C 0.47011 0.58134 0.97309 0.0
H256 H 0.03007 0.97147 0.15086 0.0
H257 H 0.14355 0.78603 0.12736 0.0
H258 H 0.19376 0.84703 0.1658 0.0
H259 H 0.21256 0.97602 0.19892 0.0
H260 H 0.10107 0.1682 0.22093 0.0
H261 H 0.04368 0.08399 0.1899 0.0
C262 C 0.0648 0.94127 0.15491 0.0
C263 C 0.08292 0.87417 0.1359 0.0
C264 C 0.09502 0.98176 0.17597 0.0
C265 C 0.12817 0.83638 0.14172 0.0
C266 C 0.15759 0.87339 0.1633 0.0
C267 C 0.17553 -0.00092 0.19717 0.0
C268 C 0.16165 0.08004 0.21178 0.0
C269 C 0.14265 0.95003 0.17932 0.0
C270 C 0.11308 0.10711 0.20975 0.0
C271 C 0.08017 0.05872 0.192 0.0
H272 H 0.92257 0.11248 0.14221 0.0
H273 H 0.94446 0.849 0.10176 0.0
H274 H 0.88635 0.77753 0.13095 0.0
H275 H 0.83304 0.78265 0.16995 0.0
H276 H 0.81494 0.03295 0.2182 0.0
H277 H 0.86605 0.11664 0.18452 0.0
C278 C 0.91454 0.0396 0.13998 0.0
C279 C 0.93725 -0.01294 0.11852 0.0
C280 C 0.88125 -0.00372 0.1585 0.0
C281 C 0.92654 0.89266 0.11648 0.0
C282 C 0.89327 0.85074 0.1337 0.0
C283 C 0.83971 0.85597 0.17299 0.0
C284 C 0.82053 0.90135 0.19644 0.0
C285 C 0.87066 0.90137 0.15475 0.0
C286 C 0.82909 -0.00353 0.20006 0.0
C287 C 0.85891 0.0439 0.181 0.0
H288 H 0.16383 0.38238 0.45936 0.0
H289 H 0.01573 0.30359 0.439 0.0
H290 H 0.04431 0.17191 0.41096 0.0
H291 H 0.11194 0.09608 0.38645 0.0
H292 H 0.25959 0.17162 0.40692 0.0
H293 H 0.23118 0.28221 0.44267 0.0
C294 C 0.13796 0.3366 0.44856 0.0
C295 C 0.08782 0.35502 0.44998 0.0
C296 C 0.15467 0.25935 0.43318 0.0
C297 C 0.0545 0.29257 0.43726 0.0
C298 C 0.07083 0.21666 0.42157 0.0
C299 C 0.13801 0.13312 0.3998 0.0
C300 C 0.18788 0.13279 0.39226 0.0
C301 C 0.1209 0.20081 0.41878 0.0
C302 C 0.22098 0.17639 0.41082 0.0
C303 C 0.20462 0.24126 0.43079 0.0
H304 H 0.85915 0.64867 0.3551 0.0
H305 H 0.81852 0.88854 0.40343 0.0
H306 H 0.86529 0.83664 0.44309 0.0
H307 H 0.91409 0.71587 0.46503 0.0
H308 H 0.94376 0.46866 0.41686 0.0
H309 H 0.90502 0.52985 0.37647 0.0
C310 C 0.86141 0.69087 0.37403 0.0
C311 C 0.83634 0.77357 0.37598 0.0
C312 C 0.88587 0.65803 0.3971 0.0
C313 C 0.83825 0.82545 0.40118 0.0
C314 C 0.86464 0.79528 0.42395 0.0
C315 C 0.912 0.67588 0.44563 0.0
C316 C 0.93156 0.58746 0.44404 0.0
C317 C 0.88797 0.71059 0.42236 0.0
C318 C 0.92848 0.53628 0.41878 0.0
C319 C 0.90656 0.57144 0.39555 0.0
H320 H 0.13511 0.41439 0.6296 0.0
H321 H 0.99707 0.4876 0.66478 0.0
H322 H 0.03847 0.56844 0.70415 0.0
H323 H 0.11643 0.63793 0.72461 0.0
H324 H 0.25283 0.55251 0.68809 0.0
H325 H 0.20997 0.45717 0.65389 0.0
C326 C 0.1139 0.44509 0.64642 0.0
C327 C 0.06298 0.447 0.64385 0.0
C328 C 0.1381 0.49173 0.66862 0.0
C329 C 0.03622 0.48684 0.66591 0.0
C330 C 0.06012 0.53369 0.68834 0.0
C331 C 0.13667 0.59763 0.70939 0.0
C332 C 0.18818 0.60606 0.70863 0.0
C333 C 0.11141 0.54045 0.68927 0.0
C334 C 0.21341 0.55102 0.68893 0.0
C335 C 0.1889 0.49527 0.66927 0.0
H336 H 0.76655 0.37812 0.67405 0.0
H337 H 0.88157 0.41777 0.73409 0.0
H338 H 0.92469 0.5234 0.70359 0.0
H339 H 0.93636 0.58098 0.65674 0.0
H340 H 0.82847 0.5166 0.59395 0.0
H341 H 0.77422 0.45134 0.62872 0.0
C342 C 0.80052 0.41171 0.68053 0.0
C343 C 0.82145 0.39003 0.70589 0.0
C344 C 0.82618 0.46869 0.66231 0.0
C345 C 0.86542 0.43313 0.71434 0.0
C346 C 0.88991 0.49358 0.69699 0.0
C347 C 0.90085 0.5534 0.65078 0.0
C348 C 0.88765 0.54896 0.62264 0.0
C349 C 0.87177 0.50841 0.6704 0.0
C350 C 0.84013 0.51853 0.61544 0.0
C351 C 0.8093 0.47997 0.63525 0.0
H352 H 0.24487 0.68662 0.91158 0.0
H353 H 0.13561 0.52604 0.86747 0.0
H354 H 0.07432 0.57262 0.90172 0.0
H355 H 0.0483 0.69204 0.93641 0.0
H356 H 0.15814 0.8642 0.97753 0.0
H357 H 0.22179 0.78465 0.95176 0.0
C358 C 0.20821 0.65856 0.91024 0.0
C359 C 0.19451 0.60726 0.88611 0.0
C360 C 0.17233 0.6935 0.92852 0.0
C361 C 0.14726 0.56737 0.88549 0.0
C362 C 0.11163 0.59693 0.90458 0.0
C363 C 0.08614 0.71182 0.9399 0.0
C364 C 0.09793 0.78628 0.95841 0.0
C365 C 0.12306 0.6658 0.9248 0.0
C366 C 0.14751 0.80873 0.96311 0.0
C367 C 0.1842 0.76273 0.94846 0.0
H368 H 0.8845 0.18828 0.85059 0.0
H369 H 0.79402 0.33323 0.91008 0.0
H370 H 0.84036 0.27266 0.94823 0.0
H371 H 0.89867 0.15979 0.96468 0.0
H372 H 0.98981 0.01753 0.90525 0.0
H373 H 0.95162 0.09627 0.86717 0.0
C374 C 0.87547 0.20856 0.87184 0.0
C375 C 0.83467 0.26337 0.87736 0.0
C376 C 0.90197 0.17242 0.89376 0.0
C377 C 0.82458 0.2901 0.90514 0.0
C378 C 0.85089 0.25482 0.92703 0.0
C379 C 0.91063 0.14753 0.94339 0.0
C380 C 0.94672 0.08281 0.93763 0.0
C381 C 0.88829 0.19282 0.92161 0.0
C382 C 0.96212 0.0672 0.91007 0.0
C383 C 0.94004 0.11176 0.88832 0.0
H384 H 0.62729 0.00695 0.72037 0.0
H385 H 0.70647 0.21322 0.67537 0.0
H386 H 0.66699 0.16102 0.6322 0.0
H387 H 0.61233 0.05495 0.6069 0.0
H388 H 0.52749 0.85411 0.65079 0.0
H389 H 0.56761 0.90359 0.69448 0.0
C390 C 0.63469 0.04172 0.70121 0.0
C391 C 0.66912 0.11489 0.70109 0.0
C392 C 0.61201 0.01046 0.67613 0.0
C393 C 0.6795 0.1578 0.676 0.0
C394 C 0.6574 0.12729 0.65125 0.0
C395 C 0.60297 0.0209 0.62585 0.0
C396 C 0.56749 0.94975 0.62534 0.0
C397 C 0.6243 0.05277 0.65096 0.0
C398 C 0.55532 0.90795 0.65044 0.0
C399 C 0.57783 0.93707 0.67551 0.0
H400 H 0.35879 0.13743 0.62547 0.0
H401 H 0.50487 0.08438 0.65127 0.0
H402 H 0.47329 0.01665 0.69367 0.0
H403 H 0.40373 0.93893 0.7167 0.0
H404 H 0.25735 -0.01278 0.68973 0.0
H405 H 0.28924 0.08986 0.65449 0.0
C406 C 0.38388 0.11524 0.64107 0.0
C407 C 0.43412 0.11233 0.63459 0.0
C408 C 0.3651 0.07166 0.66459 0.0
C409 C 0.46611 0.08536 0.65527 0.0
C410 C 0.44787 0.04484 0.67932 0.0
C411 C 0.37869 0.97293 0.70337 0.0
C412 C 0.32816 0.95295 0.70529 0.0
C413 C 0.39736 0.03155 0.68305 0.0
C414 C 0.2963 -5e-05 0.68845 0.0
C415 C 0.31459 0.05877 0.66828 0.0
H416 H 0.66062 0.33876 0.96544 0.0
H417 H 0.51415 0.25724 0.94126 0.0
H418 H 0.54541 0.13276 0.91202 0.0
H419 H 0.6141 0.06709 0.88652 0.0
H420 H 0.76031 0.14895 0.90827 0.0
H421 H 0.72999 0.24775 0.94657 0.0
C422 C 0.63553 0.29363 0.95385 0.0
C423 C 0.58502 0.30987 0.95498 0.0
C424 C 0.6538 0.22108 0.9369 0.0
C425 C 0.55315 0.24828 0.94047 0.0
C426 C 0.57098 0.17625 0.92382 0.0
C427 C 0.63949 0.10257 0.90065 0.0
C428 C 0.68924 0.10713 0.89323 0.0
C429 C 0.62123 0.164 0.92111 0.0
C430 C 0.72167 0.14944 0.91245 0.0
C431 C 0.70414 0.20757 0.93396 0.0
H432 H 0.4851 0.63513 0.91954 0.0
H433 H 0.38009 0.64505 0.98645 0.0
H434 H 0.32459 0.72845 0.95765 0.0
H435 H 0.30427 0.79437 0.91272 0.0
H436 H 0.4057 0.76888 0.84437 0.0
H437 H 0.46458 0.70085 0.87462 0.0
C438 C 0.45017 0.65582 0.92788 0.0
C439 C 0.43689 0.63303 0.95517 0.0
C440 C 0.41774 0.70235 0.91093 0.0
C441 C 0.39125 0.66049 0.96548 0.0
C442 C 0.35948 0.70881 0.94904 0.0
C443 C 0.33895 0.773 0.90434 0.0
C444 C 0.3495 0.78471 0.87596 0.0
C445 C 0.37203 0.72928 0.9216 0.0
C446 C 0.39592 0.76029 0.86597 0.0
C447 C 0.42971 0.72054 0.88326 0.0
H448 H 0.60189 0.5649 0.10956 0.0
H449 H 0.52104 0.36999 0.15783 0.0
H450 H 0.56345 0.42809 0.2001 0.0
H451 H 0.62474 0.53678 0.2232 0.0
H452 H 0.69875 0.73683 0.17327 0.0
H453 H 0.65634 0.67687 0.13192 0.0
C454 C 0.59339 0.53445 0.12917 0.0
C455 C 0.55849 0.46244 0.13026 0.0
C456 C 0.61592 0.5712 0.15331 0.0
C457 C 0.5482 0.42462 0.15621 0.0
C458 C 0.57207 0.45867 0.18044 0.0
C459 C 0.63026 0.56864 0.20339 0.0
C460 C 0.6642 0.64238 0.20135 0.0
C461 C 0.60576 0.53288 0.17933 0.0
C462 C 0.6722 0.6813 0.17541 0.0
C463 C 0.64842 0.64629 0.15169 0.0
H464 H 0.38981 0.39829 0.21341 0.0
H465 H 0.24332 0.44038 0.18554 0.0
H466 H 0.27374 0.55338 0.15304 0.0
H467 H 0.34275 0.61804 0.12701 0.0
H468 H 0.48914 0.57824 0.15433 0.0
H469 H 0.45811 0.49148 0.19364 0.0
C470 C 0.36454 0.43261 0.20032 0.0
C471 C 0.31439 0.40847 0.20128 0.0
C472 C 0.3823 0.49879 0.18182 0.0
C473 C 0.28206 0.45612 0.18489 0.0
C474 C 0.29944 0.5212 0.16637 0.0
C475 C 0.36788 0.59423 0.14233 0.0
C476 C 0.41845 0.59963 0.13675 0.0
C477 C 0.3496 0.54072 0.164 0.0
C478 C 0.45025 0.57122 0.15731 0.0
C479 C 0.4324 0.52017 0.17956 0.0
H480 H 0.65922 0.83487 0.46301 0.0
H481 H 0.51404 0.7555 0.43599 0.0
H482 H 0.5469 0.63302 0.40628 0.0
H483 H 0.61723 0.57393 0.38054 0.0
H484 H 0.76193 0.66122 0.40462 0.0
H485 H 0.72944 0.74866 0.44437 0.0
C486 C 0.63472 0.79043 0.45076 0.0
C487 C 0.58433 0.80683 0.45092 0.0
C488 C 0.65389 0.72005 0.43357 0.0
C489 C 0.55303 0.74616 0.43576 0.0
C490 C 0.57177 0.6755 0.41888 0.0
C491 C 0.64177 0.60752 0.39554 0.0
C492 C 0.6915 0.61691 0.3886 0.0
C493 C 0.62224 0.66454 0.4167 0.0
C494 C 0.72319 0.65644 0.40875 0.0
C495 C 0.70442 0.70908 0.43105 0.0
H496 H 0.40031 0.20542 0.46871 0.0
H497 H 0.48109 0.02937 0.41258 0.0
H498 H 0.43805 0.08783 0.37297 0.0
H499 H 0.37571 0.18493 0.35401 0.0
H500 H 0.29595 0.36623 0.4091 0.0
H501 H 0.34077 0.31195 0.44893 0.0
C502 C 0.40788 0.17925 0.44781 0.0
C503 C 0.44322 0.1116 0.44368 0.0
C504 C 0.38362 0.21518 0.42477 0.0
C505 C 0.45367 0.08041 0.41637 0.0
C506 C 0.4292 0.11418 0.39364 0.0
C507 C 0.3686 0.21408 0.37461 0.0
C508 C 0.33195 0.27936 0.37837 0.0
C509 C 0.39408 0.1815 0.39752 0.0
C510 C 0.32377 0.31595 0.40543 0.0
C511 C 0.34913 0.28414 0.42834 0.0
H512 H 0.95976 0.5648 1.00211 0.0
H513 H 0.07731 0.64785 0.05779 0.0
H514 H 0.08707 0.48885 0.06993 0.0
H515 H 0.06176 0.3297 0.06508 0.0
H516 H 0.94557 0.24506 1.00871 0.0
H517 H 0.93443 0.40466 0.99717 0.0
C518 C 0.9878 0.54843 1.01679 0.0
C519 C 0.01772 0.6178 1.02913 0.0
C520 C 0.99264 0.45788 1.02395 0.0
C521 C 0.05389 0.59541 0.04802 0.0
C522 C 0.05922 0.5049 0.05512 0.0
C523 C 0.0335 0.34574 0.05049 0.0
C524 C 1.00443 0.27593 1.03775 0.0
C525 C 0.02842 0.43616 0.04341 0.0
C526 C 0.96826 0.29797 1.01881 0.0
C527 C 0.96219 0.38878 1.01206 0.0
H528 H 0.19573 0.61021 0.32042 0.0
H529 H 0.32193 0.53559 0.27162 0.0
H530 H 0.33274 0.69403 0.25765 0.0
H531 H 0.30567 0.85264 0.25897 0.0
H532 H 0.17835 0.92543 0.30714 0.0
H533 H 0.16812 0.76746 0.32122 0.0
C534 C 0.22613 0.6287 0.3071 0.0
C535 C 0.25835 0.56148 0.29737 0.0
C536 C 0.23135 0.71898 0.29861 0.0
C537 C 0.2969 0.58633 0.27963 0.0
C538 C 0.30287 0.67666 0.27146 0.0
C539 C 0.27528 0.83385 0.27226 0.0
C540 C 0.24278 0.90078 0.28195 0.0
C541 C 0.26999 0.74327 0.28061 0.0
C542 C 0.20388 0.87527 0.29936 0.0
C543 C 0.19816 0.78512 0.30758 0.0
H544 H 0.69816 0.11639 0.31998 0.0
H545 H 0.82712 0.04599 0.27309 0.0
H546 H 0.83534 0.20349 0.2578 0.0
H547 H 0.80549 0.36025 0.25756 0.0
H548 H 0.67618 0.4297 0.30434 0.0
H549 H 0.66804 0.27228 0.31946 0.0
C550 C 0.72858 0.13561 0.30678 0.0
C551 C 0.76231 0.06961 0.29794 0.0
C552 C 0.73247 0.22554 0.29764 0.0
C553 C 0.80088 0.09558 0.28037 0.0
C554 C 0.8054 0.18544 0.27147 0.0
C555 C 0.77507 0.34083 0.27074 0.0
C556 C 0.74129 0.40675 0.27965 0.0
C557 C 0.77112 0.25069 0.27977 0.0
C558 C 0.70255 0.38038 0.29706 0.0
C559 C 0.69807 0.29053 0.30587 0.0
H560 H 0.06238 0.85745 0.57718 0.0
H561 H 0.01519 0.78585 0.49364 0.0
H562 H 0.02688 0.94668 0.48109 0.0
H563 H 0.03193 0.10727 0.49722 0.0
H564 H 0.06476 0.17702 0.58335 0.0
H565 H 0.07917 0.01589 0.59144 0.0
C566 C 0.05544 0.87654 0.556 0.0
C567 C 0.03657 0.81099 0.53645 0.0
C568 C 0.0594 0.96863 0.54966 0.0
C569 C 0.02926 0.83561 0.50899 0.0
C570 C 0.03557 0.92745 0.502 0.0
C571 C 0.04295 0.08787 0.51776 0.0
C572 C 0.04534 0.15379 0.54003 0.0
C573 C 0.04768 -0.00514 0.52268 0.0
C574 C 0.06158 0.12764 0.56607 0.0
C575 C 0.06948 0.03548 0.57071 0.0
H576 H 0.27637 0.09068 0.76166 0.0
H577 H 0.2487 0.12193 0.84982 0.0
H578 H 0.24711 0.28793 0.84614 0.0
H579 H 0.25184 0.42496 0.81789 0.0
H580 H 0.28061 0.39503 0.72991 0.0
H581 H 0.28255 0.22845 0.73345 0.0
C582 C 0.27091 0.13384 0.78017 0.0
C583 C 0.26303 0.09334 0.80604 0.0
C584 C 0.2691 0.22975 0.77785 0.0
C585 C 0.25511 0.1508 0.82966 0.0
C586 C 0.25381 0.24594 0.82756 0.0
C587 C 0.25768 0.3819 0.7994 0.0
C588 C 0.26538 0.42255 0.7736 0.0
C589 C 0.26001 0.28618 0.80171 0.0
C590 C 0.27416 0.36561 0.74999 0.0
C591 C 0.27563 0.2703 0.75203 0.0
H592 H 0.69387 0.58736 0.81953 0.0
H593 H 0.82423 0.5143 0.77436 0.0
H594 H 0.83471 0.67223 0.7597 0.0
H595 H 0.80701 0.83101 0.76019 0.0
H596 H 0.67586 0.90169 0.80506 0.0
H597 H 0.66502 0.74355 0.81888 0.0
C598 C 0.72502 0.60601 0.8068 0.0
C599 C 0.75866 0.53942 0.79842 0.0
C600 C 0.73018 0.69602 0.798 0.0
C601 C 0.79814 0.56454 0.78137 0.0
C602 C 0.80394 0.65461 0.77282 0.0
C603 C 0.77559 0.81157 0.7726 0.0
C604 C 0.74224 0.87815 0.78154 0.0
C605 C 0.77002 0.72079 0.78091 0.0
C606 C 0.70207 0.85187 0.79789 0.0
C607 C 0.696 0.7616 0.80596 0.0
H608 H 0.43917 0.62056 0.55443 0.0
H609 H 0.57765 0.70651 0.51993 0.0
H610 H 0.5968 0.54719 0.50864 0.0
H611 H 0.57471 0.38308 0.50934 0.0
H612 H 0.43566 0.2988 0.54351 0.0
H613 H 0.41603 0.4581 0.55371 0.0
C614 C 0.47379 0.60447 0.54474 0.0
C615 C 0.50716 0.67515 0.53841 0.0
C616 C 0.48426 0.51308 0.5379 0.0
C617 C 0.55146 0.65321 0.52529 0.0
C618 C 0.56237 0.56219 0.51868 0.0
C619 C 0.53984 0.39971 0.51863 0.0
C620 C 0.50681 0.32924 0.52572 0.0
C621 C 0.52899 0.49155 0.52485 0.0
C622 C 0.46189 0.35181 0.53798 0.0
C623 C 0.45066 0.44284 0.54394 0.0
H624 H 0.56841 0.87753 1.01545 0.0
H625 H 0.42515 0.79891 0.04504 0.0
H626 H 0.40741 0.95918 0.05556 0.0
H627 H 0.43327 0.12004 0.0575 0.0
H628 H 0.57596 0.19986 1.02738 0.0
H629 H 0.59354 0.03959 1.01624 0.0
C630 C 0.53304 0.89553 1.02382 0.0
C631 C 0.49815 0.82667 1.02949 0.0
C632 C 0.52336 -0.01257 1.0302 0.0
C633 C 0.45266 0.85087 0.04059 0.0
C634 C 0.44257 0.94229 0.04673 0.0
C635 C 0.46851 0.10237 0.04887 0.0
C636 C 0.50354 0.17133 0.04365 0.0
C637 C 0.47794 0.01081 0.04202 0.0
C638 C 0.54859 0.14765 1.03184 0.0
C639 C 0.55854 0.05626 1.02531 0.0
H640 H 0.35673 0.1847 1.01281 0.0
H641 H 0.29923 0.45443 1.00664 0.0
H642 H 0.21701 0.38872 0.99992 0.0
H643 H 0.16075 0.25747 1.00621 0.0
H644 H 0.21811 -0.00897 1.01935 0.0
H645 H 0.30119 0.05084 1.0125 0.0
C646 C 0.32627 0.22823 1.00884 0.0
C647 C 0.3332 0.32341 1.00997 0.0
C648 C 0.27912 0.19026 1.00679 0.0
C649 C 0.29403 0.38059 1.00556 0.0
C650 C 0.24719 0.34313 1.002 0.0
C651 C 0.19156 0.21249 1.0066 0.0
C652 C 0.18422 0.12077 1.01327 0.0
C653 C 0.23904 0.2485 1.00412 0.0
C654 C 0.22371 0.06221 1.01425 0.0
C655 C 0.27098 0.09639 1.01045 0.0
H656 H 0.80531 0.89342 0.05328 0.0
H657 H 0.87669 0.63419 0.05012 0.0
H658 H 0.79908 0.55402 0.05892 0.0
H659 H 0.70962 0.55704 0.05956 0.0
H660 H 0.63773 0.81551 0.06366 0.0
H661 H 0.71673 0.89747 0.06347 0.0
C662 C 0.80371 0.81964 0.05517 0.0
C663 C 0.84597 0.76906 0.05072 0.0
C664 C 0.75902 0.77428 0.06048 0.0
C665 C 0.84421 0.67382 0.05341 0.0
C666 C 0.79994 0.62815 0.05837 0.0
C667 C 0.71153 0.63127 0.06159 0.0
C668 C 0.66837 0.68055 0.06166 0.0
C669 C 0.75691 0.67743 0.06092 0.0
C670 C 0.67075 0.77654 0.064 0.0
C671 C 0.71585 0.82326 0.06342 0.0
H672 H 0.04248 0.34973 0.3167 0.0
H673 H 0.1078 0.48796 0.24726 0.0
H674 H 0.0339 0.57534 0.24223 0.0
H675 H 0.95362 0.61606 0.25885 0.0
H676 H 0.88765 0.47663 0.32789 0.0
H677 H 0.96143 0.38884 0.3329 0.0
C678 C 0.04068 0.39882 0.30037 0.0
C679 C 0.08062 0.4131 0.28248 0.0
C680 C 0.99898 0.44994 0.2981 0.0
C681 C 0.0774 0.47558 0.26117 0.0
C682 C 0.0355 0.52616 0.25852 0.0
C683 C 0.95512 0.56654 0.27507 0.0
C684 C 0.91524 0.55283 0.29305 0.0
C685 C 0.99658 0.51471 0.27717 0.0
C686 C 0.91813 0.48916 0.31406 0.0
C687 C 0.95994 0.43823 0.31666 0.0
H688 H 0.28988 0.91733 0.53608 0.0
H689 H 0.36603 0.70275 0.49183 0.0
H690 H 0.29238 0.60342 0.49311 0.0
H691 H 0.20982 0.57118 0.51343 0.0
H692 H 0.1432 0.78336 0.56442 0.0
H693 H 0.20967 0.88865 0.55454 0.0
C694 C 0.29015 0.84936 0.52618 0.0
C695 C 0.33331 0.81713 0.51411 0.0
C696 C 0.24959 0.791 0.52906 0.0
C697 C 0.33304 0.72947 0.50107 0.0
C698 C 0.29122 0.67212 0.50231 0.0
C699 C 0.21009 0.64043 0.52233 0.0
C700 C 0.17157 0.66875 0.53986 0.0
C701 C 0.24996 0.70078 0.51743 0.0
C702 C 0.17232 0.75895 0.55113 0.0
C703 C 0.21029 0.81982 0.54536 0.0
H704 H 0.85723 0.14002 0.53151 0.0
H705 H 0.83287 0.42883 0.54286 0.0
H706 H 0.74874 0.39694 0.55743 0.0
H707 H 0.67832 0.28641 0.5584 0.0
H708 H 0.70481 -0.00241 0.54981 0.0
H709 H 0.79177 0.0292 0.54382 0.0
C710 C 0.83374 0.1956 0.53787 0.0
C711 C 0.85075 0.28651 0.53573 0.0
C712 C 0.78567 0.17661 0.5468 0.0
C713 C 0.82034 0.3582 0.54427 0.0
C714 C 0.77216 0.33999 0.55252 0.0
C715 C 0.70352 0.23052 0.55677 0.0
C716 C 0.68517 0.13973 0.55464 0.0
C717 C 0.75379 0.24943 0.55285 0.0
C718 C 0.71819 0.06797 0.55185 0.0
C719 C 0.76788 0.08607 0.54791 0.0
H720 H 0.95561 0.11827 0.76625 0.0
H721 H 0.89434 0.9615 0.83307 0.0
H722 H 0.97203 0.88515 0.83791 0.0
H723 H 0.05464 0.85807 0.82124 0.0
H724 H 0.11408 0.01145 0.75318 0.0
H725 H 0.03735 0.09103 0.74955 0.0
C726 C 0.95895 0.06727 0.78193 0.0
C727 C 0.91912 0.04462 0.79911 0.0
C728 C 1.00249 0.02159 0.78373 0.0
C729 C 0.92451 0.98002 0.81965 0.0
C730 C 0.96862 0.93579 0.82217 0.0
C731 C 0.05092 0.90883 0.80553 0.0
C732 C 0.08997 0.92927 0.7875 0.0
C733 C 0.00734 0.95494 0.80392 0.0
C734 C 0.08437 -0.00591 0.76707 0.0
C735 C 0.04085 0.04024 0.76524 0.0
H736 H 0.55727 0.39366 0.82693 0.0
H737 H 0.60455 0.44151 0.74266 0.0
H738 H 0.5343 0.53774 0.73621 0.0
H739 H 0.46009 0.60471 0.75431 0.0
H740 H 0.4129 0.55504 0.8385 0.0
H741 H 0.4846 0.46354 0.84538 0.0
C742 C 0.5524 0.42436 0.80698 0.0
C743 C 0.58599 0.40977 0.78517 0.0
C744 C 0.5127 0.47988 0.8036 0.0
C745 C 0.57905 0.45116 0.75968 0.0
C746 C 0.53914 0.50645 0.75606 0.0
C747 C 0.4655 0.57489 0.77434 0.0
C748 C 0.43105 0.58632 0.79587 0.0
C749 C 0.50593 0.52113 0.77792 0.0
C750 C 0.43879 0.54694 0.82159 0.0
C751 C 0.47955 0.49435 0.82547 0.0
H752 H 0.54886 0.86772 0.3194 0.0
H753 H 0.61223 0.01249 0.25064 0.0
H754 H 0.53739 0.09836 0.24662 0.0
H755 H 0.45557 0.13197 0.263 0.0
H756 H 0.39244 -0.01451 0.33149 0.0
H757 H 0.4681 0.90342 0.33635 0.0
C758 C 0.54665 0.91813 0.30347 0.0
C759 C 0.58615 0.93394 0.28532 0.0
C760 C 0.5044 0.96801 0.30174 0.0
C761 C 0.58219 -0.00142 0.26467 0.0
C762 C 0.53972 0.04821 0.26259 0.0
C763 C 0.45818 0.08223 0.27909 0.0
C764 C 0.41824 0.06404 0.29672 0.0
C765 C 0.50089 0.03366 0.28115 0.0
C766 C 0.42266 0.00074 0.31772 0.0
C767 C 0.46563 0.95321 0.32028 0.0
loop_
_geom_bond_atom_site_label_1
_geom_bond_atom_site_label_2
_geom_bond_distance
_geom_bond_site_symmetry_2
_ccdc_geom_bond_type
Fe0 O1 1.886 1_556 S
Fe0 O4 1.715 . S
Fe0 O9 2.077 . S
Fe0 O14 1.935 1_655 S
Fe0 O20 2.077 . S
Fe0 O29 1.935 . S
O1 Fe0 1.886 1_554 S
O1 Fe3 1.715 . S
Fe2 O4 1.886 1_445 S
Fe2 O5 1.715 . S
Fe2 O12 1.935 . S
Fe2 O13 2.077 . S
Fe2 O19 1.935 1_455 S
Fe2 O28 2.077 1_455 S
Fe3 O1 1.715 . S
Fe3 O6 1.886 1_665 S
Fe3 O10 1.935 1_655 S
Fe3 O15 2.077 1_655 S
Fe3 O21 1.935 . S
Fe3 O25 2.077 . S
O4 Fe0 1.715 . S
O4 Fe2 1.886 1_665 S
O5 Fe2 1.715 . S
O5 Fe7 1.886 1_556 S
O6 Fe3 1.886 1_445 S
O6 Fe7 1.715 . S
Fe7 O5 1.886 1_554 S
Fe7 O6 1.715 . S
Fe7 O11 2.077 . S
Fe7 O16 1.935 . S
Fe7 O18 2.077 . S
Fe7 O26 1.935 1_455 S
C8 O20 1.381 1_554 S
C8 O21 1.421 . S
O9 Fe0 2.077 . S
O9 C22 1.381 1_656 S
O10 Fe3 1.935 1_455 S
O10 C22 1.421 . S
O11 Fe7 2.077 . S
O11 C27 1.381 1_554 S
O12 Fe2 1.935 . S
O12 C27 1.421 . S
O13 Fe2 2.077 . S
O13 C17 1.381 1_545 S
O14 Fe0 1.935 1_455 S
O14 C17 1.421 . S
O15 Fe3 2.077 1_455 S
O15 C23 1.381 . S
O16 Fe7 1.935 . S
O16 C23 1.421 1_545 S
C17 O13 1.381 1_565 S
C17 O14 1.421 . S
O18 Fe7 2.077 . S
O18 C30 1.381 1_454 S
O19 Fe2 1.935 1_655 S
O19 C30 1.421 . S
O20 Fe0 2.077 . S
O20 C8 1.381 1_556 S
O21 Fe3 1.935 . S
O21 C8 1.421 . S
C22 O9 1.381 1_454 S
C22 O10 1.421 . S
C23 O15 1.381 . S
C23 O16 1.421 1_565 S
C24 O25 1.381 1_545 S
C24 O26 1.421 . S
O25 Fe3 2.077 . S
O25 C24 1.381 1_565 S
O26 Fe7 1.935 1_655 S
O26 C24 1.421 . S
C27 O11 1.381 1_556 S
C27 O12 1.421 . S
O28 Fe2 2.077 1_655 S
O28 C31 1.381 . S
O29 Fe0 1.935 . S
O29 C31 1.421 1_565 S
C30 O18 1.381 1_656 S
C30 O19 1.421 . S
C31 O28 1.381 . S
C31 O29 1.421 1_545 S
Fe32 O33 1.886 . S
Fe32 O36 1.715 . S
Fe32 O41 2.077 . S
Fe32 O46 1.935 . S
Fe32 O52 2.077 . S
Fe32 O61 1.935 . S
O33 Fe32 1.886 . S
O33 Fe35 1.715 . S
Fe34 O36 1.886 . S
Fe34 O37 1.715 . S
Fe34 O44 1.935 . S
Fe34 O45 2.077 . S
Fe34 O51 1.935 . S
Fe34 O60 2.077 . S
Fe35 O33 1.715 . S
Fe35 O38 1.886 . S
Fe35 O42 1.935 . S
Fe35 O47 2.077 . S
Fe35 O53 1.935 . S
Fe35 O57 2.077 1_545 S
O36 Fe32 1.715 . S
O36 Fe34 1.886 . S
O37 Fe34 1.715 . S
O37 Fe39 1.886 . S
O38 Fe35 1.886 . S
O38 Fe39 1.715 . S
Fe39 O37 1.886 . S
Fe39 O38 1.715 . S
Fe39 O43 2.077 . S
Fe39 O48 1.935 . S
Fe39 O50 2.077 . S
Fe39 O58 1.935 . S
C40 O52 1.381 . S
C40 O53 1.421 . S
O41 Fe32 2.077 . S
O41 C54 1.381 . S
O42 Fe35 1.935 . S
O42 C54 1.421 . S
O43 Fe39 2.077 . S
O43 C59 1.381 . S
O44 Fe34 1.935 . S
O44 C59 1.421 . S
O45 Fe34 2.077 . S
O45 C49 1.381 . S
O46 Fe32 1.935 . S
O46 C49 1.421 . S
O47 Fe35 2.077 . S
O47 C55 1.381 . S
O48 Fe39 1.935 . S
O48 C55 1.421 . S
C49 O45 1.381 . S
C49 O46 1.421 . S
O50 Fe39 2.077 . S
O50 C62 1.381 . S
O51 Fe34 1.935 . S
O51 C62 1.421 . S
O52 Fe32 2.077 . S
O52 C40 1.381 . S
O53 Fe35 1.935 . S
O53 C40 1.421 . S
C54 O41 1.381 . S
C54 O42 1.421 . S
C55 O47 1.381 . S
C55 O48 1.421 . S
C56 O57 1.381 . S
C56 O58 1.421 1_565 S
O57 Fe35 2.077 1_565 S
O57 C56 1.381 . S
O58 Fe39 1.935 . S
O58 C56 1.421 1_545 S
C59 O43 1.381 . S
C59 O44 1.421 . S
O60 Fe34 2.077 . S
O60 C63 1.381 . S
O61 Fe32 1.935 . S
O61 C63 1.421 . S
C62 O50 1.381 . S
C62 O51 1.421 . S
C63 O60 1.381 . S
C63 O61 1.421 . S
Fe64 O65 1.886 . S
Fe64 O68 1.715 . S
Fe64 O73 2.077 . S
Fe64 O78 1.935 . S
Fe64 O84 2.077 . S
Fe64 O93 1.935 . S
O65 Fe64 1.886 . S
O65 Fe67 1.715 . S
Fe66 O68 1.886 . S
Fe66 O69 1.715 . S
Fe66 O76 1.935 . S
Fe66 O77 2.077 1_565 S
Fe66 O83 1.935 . S
Fe66 O92 2.077 . S
Fe67 O65 1.715 . S
Fe67 O70 1.886 . S
Fe67 O74 1.935 . S
Fe67 O79 2.077 . S
Fe67 O85 1.935 . S
Fe67 O89 2.077 . S
O68 Fe64 1.715 . S
O68 Fe66 1.886 . S
O69 Fe66 1.715 . S
O69 Fe71 1.886 . S
O70 Fe67 1.886 . S
O70 Fe71 1.715 . S
Fe71 O69 1.886 . S
Fe71 O70 1.715 . S
Fe71 O75 2.077 . S
Fe71 O80 1.935 . S
Fe71 O82 2.077 . S
Fe71 O90 1.935 . S
C72 O84 1.381 . S
C72 O85 1.421 . S
O73 Fe64 2.077 . S
O73 C86 1.381 . S
O74 Fe67 1.935 . S
O74 C86 1.421 . S
O75 Fe71 2.077 . S
O75 C91 1.381 . S
O76 Fe66 1.935 . S
O76 C91 1.421 . S
O77 Fe66 2.077 1_545 S
O77 C81 1.381 . S
O78 Fe64 1.935 . S
O78 C81 1.421 1_565 S
O79 Fe67 2.077 . S
O79 C87 1.381 . S
O80 Fe71 1.935 . S
O80 C87 1.421 . S
C81 O77 1.381 . S
C81 O78 1.421 1_545 S
O82 Fe71 2.077 . S
O82 C94 1.381 . S
O83 Fe66 1.935 . S
O83 C94 1.421 . S
O84 Fe64 2.077 . S
O84 C72 1.381 . S
O85 Fe67 1.935 . S
O85 C72 1.421 . S
C86 O73 1.381 . S
C86 O74 1.421 . S
C87 O79 1.381 . S
C87 O80 1.421 . S
C88 O89 1.381 . S
C88 O90 1.421 . S
O89 Fe67 2.077 . S
O89 C88 1.381 . S
O90 Fe71 1.935 . S
O90 C88 1.421 . S
C91 O75 1.381 . S
C91 O76 1.421 . S
O92 Fe66 2.077 . S
O92 C95 1.381 . S
O93 Fe64 1.935 . S
O93 C95 1.421 . S
C94 O82 1.381 . S
C94 O83 1.421 . S
C95 O92 1.381 . S
C95 O93 1.421 . S
Fe96 O97 1.886 . S
Fe96 O100 1.715 . S
Fe96 O105 2.077 . S
Fe96 O110 1.935 1_655 S
Fe96 O116 2.077 . S
Fe96 O125 1.935 . S
O97 Fe96 1.886 . S
O97 Fe99 1.715 . S
Fe98 O100 1.886 1_455 S
Fe98 O101 1.715 . S
Fe98 O108 1.935 . S
Fe98 O109 2.077 . S
Fe98 O115 1.935 1_455 S
Fe98 O124 2.077 1_455 S
Fe99 O97 1.715 . S
Fe99 O102 1.886 1_655 S
Fe99 O106 1.935 1_655 S
Fe99 O111 2.077 1_655 S
Fe99 O117 1.935 . S
Fe99 O121 2.077 . S
O100 Fe96 1.715 . S
O100 Fe98 1.886 1_655 S
O101 Fe98 1.715 . S
O101 Fe103 1.886 . S
O102 Fe99 1.886 1_455 S
O102 Fe103 1.715 . S
Fe103 O101 1.886 . S
Fe103 O102 1.715 . S
Fe103 O107 2.077 . S
Fe103 O112 1.935 . S
Fe103 O114 2.077 . S
Fe103 O122 1.935 1_455 S
C104 O116 1.381 . S
C104 O117 1.421 . S
O105 Fe96 2.077 . S
O105 C118 1.381 1_655 S
O106 Fe99 1.935 1_455 S
O106 C118 1.421 . S
O107 Fe103 2.077 . S
O107 C123 1.381 . S
O108 Fe98 1.935 . S
O108 C123 1.421 . S
O109 Fe98 2.077 . S
O109 C113 1.381 . S
O110 Fe96 1.935 1_455 S
O110 C113 1.421 . S
O111 Fe99 2.077 1_455 S
O111 C119 1.381 . S
O112 Fe103 1.935 . S
O112 C119 1.421 . S
C113 O109 1.381 . S
C113 O110 1.421 . S
O114 Fe103 2.077 . S
O114 C126 1.381 1_455 S
O115 Fe98 1.935 1_655 S
O115 C126 1.421 . S
O116 Fe96 2.077 . S
O116 C104 1.381 . S
O117 Fe99 1.935 . S
O117 C104 1.421 . S
C118 O105 1.381 1_455 S
C118 O106 1.421 . S
C119 O111 1.381 . S
C119 O112 1.421 . S
C120 O121 1.381 . S
C120 O122 1.421 . S
O121 Fe99 2.077 . S
O121 C120 1.381 . S
O122 Fe103 1.935 1_655 S
O122 C120 1.421 . S
C123 O107 1.381 . S
C123 O108 1.421 . S
O124 Fe98 2.077 1_655 S
O124 C127 1.381 . S
O125 Fe96 1.935 . S
O125 C127 1.421 . S
C126 O114 1.381 1_655 S
C126 O115 1.421 . S
C127 O124 1.381 . S
C127 O125 1.421 . S
Fe128 O129 1.886 . S
Fe128 O132 1.715 . S
Fe128 O137 2.077 . S
Fe128 O142 1.935 . S
Fe128 O148 2.077 . S
Fe128 O157 1.935 . S
O129 Fe128 1.886 . S
O129 Fe131 1.715 . S
Fe130 O132 1.886 . S
Fe130 O133 1.715 . S
Fe130 O140 1.935 . S
Fe130 O141 2.077 1_565 S
Fe130 O147 1.935 . S
Fe130 O156 2.077 . S
Fe131 O129 1.715 . S
Fe131 O134 1.886 . S
Fe131 O138 1.935 . S
Fe131 O143 2.077 . S
Fe131 O149 1.935 . S
Fe131 O153 2.077 . S
O132 Fe128 1.715 . S
O132 Fe130 1.886 . S
O133 Fe130 1.715 . S
O133 Fe135 1.886 . S
O134 Fe131 1.886 . S
O134 Fe135 1.715 . S
Fe135 O133 1.886 . S
Fe135 O134 1.715 . S
Fe135 O139 2.077 . S
Fe135 O144 1.935 . S
Fe135 O146 2.077 . S
Fe135 O154 1.935 . S
C136 O148 1.381 . S
C136 O149 1.421 . S
O137 Fe128 2.077 . S
O137 C150 1.381 . S
O138 Fe131 1.935 . S
O138 C150 1.421 . S
O139 Fe135 2.077 . S
O139 C155 1.381 . S
O140 Fe130 1.935 . S
O140 C155 1.421 . S
O141 Fe130 2.077 1_545 S
O141 C145 1.381 . S
O142 Fe128 1.935 . S
O142 C145 1.421 1_565 S
O143 Fe131 2.077 . S
O143 C151 1.381 . S
O144 Fe135 1.935 . S
O144 C151 1.421 . S
C145 O141 1.381 . S
C145 O142 1.421 1_545 S
O146 Fe135 2.077 . S
O146 C158 1.381 . S
O147 Fe130 1.935 . S
O147 C158 1.421 . S
O148 Fe128 2.077 . S
O148 C136 1.381 . S
O149 Fe131 1.935 . S
O149 C136 1.421 . S
C150 O137 1.381 . S
C150 O138 1.421 . S
C151 O143 1.381 . S
C151 O144 1.421 . S
C152 O153 1.381 . S
C152 O154 1.421 . S
O153 Fe131 2.077 . S
O153 C152 1.381 . S
O154 Fe135 1.935 . S
O154 C152 1.421 . S
C155 O139 1.381 . S
C155 O140 1.421 . S
O156 Fe130 2.077 . S
O156 C159 1.381 . S
O157 Fe128 1.935 . S
O157 C159 1.421 . S
C158 O146 1.381 . S
C158 O147 1.421 . S
C159 O156 1.381 . S
C159 O157 1.421 . S
Fe160 O161 1.886 . S
Fe160 O164 1.715 . S
Fe160 O169 2.077 . S
Fe160 O174 1.935 . S
Fe160 O180 2.077 . S
Fe160 O189 1.935 . S
O161 Fe160 1.886 . S
O161 Fe163 1.715 . S
Fe162 O164 1.886 . S
Fe162 O165 1.715 . S
Fe162 O172 1.935 . S
Fe162 O173 2.077 . S
Fe162 O179 1.935 . S
Fe162 O188 2.077 . S
Fe163 O161 1.715 . S
Fe163 O166 1.886 . S
Fe163 O170 1.935 . S
Fe163 O175 2.077 . S
Fe163 O181 1.935 . S
Fe163 O185 2.077 1_545 S
O164 Fe160 1.715 . S
O164 Fe162 1.886 . S
O165 Fe162 1.715 . S
O165 Fe167 1.886 . S
O166 Fe163 1.886 . S
O166 Fe167 1.715 . S
Fe167 O165 1.886 . S
Fe167 O166 1.715 . S
Fe167 O171 2.077 . S
Fe167 O176 1.935 . S
Fe167 O178 2.077 . S
Fe167 O186 1.935 . S
C168 O180 1.381 . S
C168 O181 1.421 . S
O169 Fe160 2.077 . S
O169 C182 1.381 . S
O170 Fe163 1.935 . S
O170 C182 1.421 . S
O171 Fe167 2.077 . S
O171 C187 1.381 . S
O172 Fe162 1.935 . S
O172 C187 1.421 . S
O173 Fe162 2.077 . S
O173 C177 1.381 . S
O174 Fe160 1.935 . S
O174 C177 1.421 . S
O175 Fe163 2.077 . S
O175 C183 1.381 . S
O176 Fe167 1.935 . S
O176 C183 1.421 . S
C177 O173 1.381 . S
C177 O174 1.421 . S
O178 Fe167 2.077 . S
O178 C190 1.381 . S
O179 Fe162 1.935 . S
O179 C190 1.421 . S
O180 Fe160 2.077 . S
O180 C168 1.381 . S
O181 Fe163 1.935 . S
O181 C168 1.421 . S
C182 O169 1.381 . S
C182 O170 1.421 . S
C183 O175 1.381 . S
C183 O176 1.421 . S
C184 O185 1.381 . S
C184 O186 1.421 1_565 S
O185 Fe163 2.077 1_565 S
O185 C184 1.381 . S
O186 Fe167 1.935 . S
O186 C184 1.421 1_545 S
C187 O171 1.381 . S
C187 O172 1.421 . S
O188 Fe162 2.077 . S
O188 C191 1.381 . S
O189 Fe160 1.935 . S
O189 C191 1.421 . S
C190 O178 1.381 . S
C190 O179 1.421 . S
C191 O188 1.381 . S
C191 O189 1.421 . S
Fe192 O193 1.886 . S
Fe192 O196 1.715 . S
Fe192 O201 2.077 . S
Fe192 O206 1.935 . S
Fe192 O212 2.077 . S
Fe192 O221 1.935 . S
O193 Fe192 1.886 . S
O193 Fe195 1.715 . S
Fe194 O196 1.886 1_545 S
Fe194 O197 1.715 . S
Fe194 O204 1.935 . S
Fe194 O205 2.077 . S
Fe194 O211 1.935 . S
Fe194 O220 2.077 . S
Fe195 O193 1.715 . S
Fe195 O198 1.886 1_565 S
Fe195 O202 1.935 . S
Fe195 O207 2.077 . S
Fe195 O213 1.935 . S
Fe195 O217 2.077 . S
O196 Fe192 1.715 . S
O196 Fe194 1.886 1_565 S
O197 Fe194 1.715 . S
O197 Fe199 1.886 . S
O198 Fe195 1.886 1_545 S
O198 Fe199 1.715 . S
Fe199 O197 1.886 . S
Fe199 O198 1.715 . S
Fe199 O203 2.077 . S
Fe199 O208 1.935 . S
Fe199 O210 2.077 . S
Fe199 O218 1.935 . S
C200 O212 1.381 . S
C200 O213 1.421 . S
O201 Fe192 2.077 . S
O201 C214 1.381 . S
O202 Fe195 1.935 . S
O202 C214 1.421 . S
O203 Fe199 2.077 . S
O203 C219 1.381 . S
O204 Fe194 1.935 . S
O204 C219 1.421 . S
O205 Fe194 2.077 . S
O205 C209 1.381 1_545 S
O206 Fe192 1.935 . S
O206 C209 1.421 . S
O207 Fe195 2.077 . S
O207 C215 1.381 . S
O208 Fe199 1.935 . S
O208 C215 1.421 1_545 S
C209 O205 1.381 1_565 S
C209 O206 1.421 . S
O210 Fe199 2.077 . S
O210 C222 1.381 . S
O211 Fe194 1.935 . S
O211 C222 1.421 . S
O212 Fe192 2.077 . S
O212 C200 1.381 . S
O213 Fe195 1.935 . S
O213 C200 1.421 . S
C214 O201 1.381 . S
C214 O202 1.421 . S
C215 O207 1.381 . S
C215 O208 1.421 1_565 S
C216 O217 1.381 1_545 S
C216 O218 1.421 . S
O217 Fe195 2.077 . S
O217 C216 1.381 1_565 S
O218 Fe199 1.935 . S
O218 C216 1.421 . S
C219 O203 1.381 . S
C219 O204 1.421 . S
O220 Fe194 2.077 . S
O220 C223 1.381 . S
O221 Fe192 1.935 . S
O221 C223 1.421 1_565 S
C222 O210 1.381 . S
C222 O211 1.421 . S
C223 O220 1.381 . S
C223 O221 1.421 1_545 S
Fe224 O225 1.886 1_556 S
Fe224 O228 1.715 . S
Fe224 O233 2.077 . S
Fe224 O238 1.935 . S
Fe224 O244 2.077 . S
Fe224 O253 1.935 . S
O225 Fe224 1.886 1_554 S
O225 Fe227 1.715 . S
Fe226 O228 1.886 . S
Fe226 O229 1.715 . S
Fe226 O236 1.935 . S
Fe226 O237 2.077 . S
Fe226 O243 1.935 . S
Fe226 O252 2.077 . S
Fe227 O225 1.715 . S
Fe227 O230 1.886 . S
Fe227 O234 1.935 . S
Fe227 O239 2.077 . S
Fe227 O245 1.935 . S
Fe227 O249 2.077 . S
O228 Fe224 1.715 . S
O228 Fe226 1.886 . S
O229 Fe226 1.715 . S
O229 Fe231 1.886 1_556 S
O230 Fe227 1.886 . S
O230 Fe231 1.715 . S
Fe231 O229 1.886 1_554 S
Fe231 O230 1.715 . S
Fe231 O235 2.077 . S
Fe231 O240 1.935 . S
Fe231 O242 2.077 . S
Fe231 O250 1.935 . S
C232 O244 1.381 1_554 S
C232 O245 1.421 . S
O233 Fe224 2.077 . S
O233 C246 1.381 1_556 S
O234 Fe227 1.935 . S
O234 C246 1.421 . S
O235 Fe231 2.077 . S
O235 C251 1.381 1_554 S
O236 Fe226 1.935 . S
O236 C251 1.421 . S
O237 Fe226 2.077 . S
O237 C241 1.381 . S
O238 Fe224 1.935 . S
O238 C241 1.421 . S
O239 Fe227 2.077 . S
O239 C247 1.381 . S
O240 Fe231 1.935 . S
O240 C247 1.421 . S
C241 O237 1.381 . S
C241 O238 1.421 . S
O242 Fe231 2.077 . S
O242 C254 1.381 1_554 S
O243 Fe226 1.935 . S
O243 C254 1.421 . S
O244 Fe224 2.077 . S
O244 C232 1.381 1_556 S
O245 Fe227 1.935 . S
O245 C232 1.421 . S
C246 O233 1.381 1_554 S
C246 O234 1.421 . S
C247 O239 1.381 . S
C247 O240 1.421 . S
C248 O249 1.381 . S
C248 O250 1.421 . S
O249 Fe227 2.077 . S
O249 C248 1.381 . S
O250 Fe231 1.935 . S
O250 C248 1.421 . S
C251 O235 1.381 1_556 S
C251 O236 1.421 . S
O252 Fe226 2.077 . S
O252 C255 1.381 . S
O253 Fe224 1.935 . S
O253 C255 1.421 . S
C254 O242 1.381 1_556 S
C254 O243 1.421 . S
C255 O252 1.381 . S
C255 O253 1.421 . S
H256 C262 0.930 . S
H257 C265 0.930 . S
H258 C266 0.930 . S
H259 C267 0.930 . S
H260 C270 0.930 . S
H261 C271 0.930 . S
C262 H256 0.930 . S
C262 C263 1.355 . S
C262 C264 1.415 1_565 S
C263 C262 1.355 . S
C263 C265 1.419 . S
C264 C262 1.415 1_545 S
C264 C269 1.425 . S
C264 C271 1.409 . S
C265 H257 0.930 . S
C265 C263 1.419 . S
C265 C266 1.362 1_565 S
C266 H258 0.930 . S
C266 C265 1.362 1_545 S
C266 C269 1.409 . S
C267 H259 0.930 . S
C267 C268 1.355 . S
C267 C269 1.415 . S
C268 C267 1.355 . S
C268 C270 1.419 . S
C269 C264 1.425 . S
C269 C266 1.409 . S
C269 C267 1.415 . S
C270 H260 0.930 . S
C270 C268 1.419 . S
C270 C271 1.362 . S
C271 H261 0.930 . S
C271 C264 1.409 . S
C271 C270 1.362 . S
H272 C278 0.930 . S
H273 C281 0.930 . S
H274 C282 0.930 . S
H275 C283 0.930 . S
H276 C286 0.930 . S
H277 C287 0.930 . S
C278 H272 0.930 . S
C278 C279 1.355 . S
C278 C280 1.415 . S
C279 C278 1.355 . S
C279 C281 1.419 1_545 S
C280 C278 1.415 . S
C280 C285 1.425 1_545 S
C280 C287 1.409 . S
C281 H273 0.930 . S
C281 C279 1.419 1_565 S
C281 C282 1.362 . S
C282 H274 0.930 . S
C282 C281 1.362 . S
C282 C285 1.409 . S
C283 H275 0.930 . S
C283 C284 1.355 . S
C283 C285 1.415 . S
C284 C283 1.355 . S
C284 C286 1.419 . S
C285 C280 1.425 1_565 S
C285 C282 1.409 . S
C285 C283 1.415 . S
C286 H276 0.930 . S
C286 C284 1.419 . S
C286 C287 1.362 1_565 S
C287 H277 0.930 . S
C287 C280 1.409 . S
C287 C286 1.362 1_545 S
H288 C294 0.930 . S
H289 C297 0.930 . S
H290 C298 0.930 . S
H291 C299 0.930 . S
H292 C302 0.930 . S
H293 C303 0.930 . S
C294 H288 0.930 . S
C294 C295 1.355 . S
C294 C296 1.415 . S
C295 C294 1.355 . S
C295 C297 1.419 . S
C296 C294 1.415 . S
C296 C301 1.425 . S
C296 C303 1.409 . S
C297 H289 0.930 . S
C297 C295 1.419 . S
C297 C298 1.362 . S
C298 H290 0.930 . S
C298 C297 1.362 . S
C298 C301 1.409 . S
C299 H291 0.930 . S
C299 C300 1.355 . S
C299 C301 1.415 . S
C300 C299 1.355 . S
C300 C302 1.419 . S
C301 C296 1.425 . S
C301 C298 1.409 . S
C301 C299 1.415 . S
C302 H292 0.930 . S
C302 C300 1.419 . S
C302 C303 1.362 . S
C303 H293 0.930 . S
C303 C296 1.409 . S
C303 C302 1.362 . S
H304 C310 0.930 . S
H305 C313 0.930 . S
H306 C314 0.930 . S
H307 C315 0.930 . S
H308 C318 0.930 . S
H309 C319 0.930 . S
C310 H304 0.930 . S
C310 C311 1.355 . S
C310 C312 1.415 . S
C311 C310 1.355 . S
C311 C313 1.419 . S
C312 C310 1.415 . S
C312 C317 1.425 . S
C312 C319 1.409 . S
C313 H305 0.930 . S
C313 C311 1.419 . S
C313 C314 1.362 . S
C314 H306 0.930 . S
C314 C313 1.362 . S
C314 C317 1.409 . S
C315 H307 0.930 . S
C315 C316 1.355 . S
C315 C317 1.415 . S
C316 C315 1.355 . S
C316 C318 1.419 . S
C317 C312 1.425 . S
C317 C314 1.409 . S
C317 C315 1.415 . S
C318 H308 0.930 . S
C318 C316 1.419 . S
C318 C319 1.362 . S
C319 H309 0.930 . S
C319 C312 1.409 . S
C319 C318 1.362 . S
H320 C326 0.930 . S
H321 C329 0.930 . S
H322 C330 0.930 . S
H323 C331 0.930 . S
H324 C334 0.930 . S
H325 C335 0.930 . S
C326 H320 0.930 . S
C326 C327 1.355 . S
C326 C328 1.415 . S
C327 C326 1.355 . S
C327 C329 1.419 . S
C328 C326 1.415 . S
C328 C333 1.425 . S
C328 C335 1.409 . S
C329 H321 0.930 . S
C329 C327 1.419 . S
C329 C330 1.362 . S
C330 H322 0.930 . S
C330 C329 1.362 . S
C330 C333 1.409 . S
C331 H323 0.930 . S
C331 C332 1.355 . S
C331 C333 1.415 . S
C332 C331 1.355 . S
C332 C334 1.419 . S
C333 C328 1.425 . S
C333 C330 1.409 . S
C333 C331 1.415 . S
C334 H324 0.930 . S
C334 C332 1.419 . S
C334 C335 1.362 . S
C335 H325 0.930 . S
C335 C328 1.409 . S
C335 C334 1.362 . S
H336 C342 0.930 . S
H337 C345 0.930 . S
H338 C346 0.930 . S
H339 C347 0.930 . S
H340 C350 0.930 . S
H341 C351 0.930 . S
C342 H336 0.930 . S
C342 C343 1.355 . S
C342 C344 1.415 . S
C343 C342 1.355 . S
C343 C345 1.419 . S
C344 C342 1.415 . S
C344 C349 1.425 . S
C344 C351 1.409 . S
C345 H337 0.930 . S
C345 C343 1.419 . S
C345 C346 1.362 . S
C346 H338 0.930 . S
C346 C345 1.362 . S
C346 C349 1.409 . S
C347 H339 0.930 . S
C347 C348 1.355 . S
C347 C349 1.415 . S
C348 C347 1.355 . S
C348 C350 1.419 . S
C349 C344 1.425 . S
C349 C346 1.409 . S
C349 C347 1.415 . S
C350 H340 0.930 . S
C350 C348 1.419 . S
C350 C351 1.362 . S
C351 H341 0.930 . S
C351 C344 1.409 . S
C351 C350 1.362 . S
H352 C358 0.930 . S
H353 C361 0.930 . S
H354 C362 0.930 . S
H355 C363 0.930 . S
H356 C366 0.930 . S
H357 C367 0.930 . S
C358 H352 0.930 . S
C358 C359 1.355 . S
C358 C360 1.415 . S
C359 C358 1.355 . S
C359 C361 1.419 . S
C360 C358 1.415 . S
C360 C365 1.425 . S
C360 C367 1.409 . S
C361 H353 0.930 . S
C361 C359 1.419 . S
C361 C362 1.362 . S
C362 H354 0.930 . S
C362 C361 1.362 . S
C362 C365 1.409 . S
C363 H355 0.930 . S
C363 C364 1.355 . S
C363 C365 1.415 . S
C364 C363 1.355 . S
C364 C366 1.419 . S
C365 C360 1.425 . S
C365 C362 1.409 . S
C365 C363 1.415 . S
C366 H356 0.930 . S
C366 C364 1.419 . S
C366 C367 1.362 . S
C367 H357 0.930 . S
C367 C360 1.409 . S
C367 C366 1.362 . S
H368 C374 0.930 . S
H369 C377 0.930 . S
H370 C378 0.930 . S
H371 C379 0.930 . S
H372 C382 0.930 1_565 S
H373 C383 0.930 . S
C374 H368 0.930 . S
C374 C375 1.355 . S
C374 C376 1.415 . S
C375 C374 1.355 . S
C375 C377 1.419 . S
C376 C374 1.415 . S
C376 C381 1.425 . S
C376 C383 1.409 . S
C377 H369 0.930 . S
C377 C375 1.419 . S
C377 C378 1.362 . S
C378 H370 0.930 . S
C378 C377 1.362 . S
C378 C381 1.409 . S
C379 H371 0.930 . S
C379 C380 1.355 . S
C379 C381 1.415 . S
C380 C379 1.355 . S
C380 C382 1.419 . S
C381 C376 1.425 . S
C381 C378 1.409 . S
C381 C379 1.415 . S
C382 H372 0.930 1_545 S
C382 C380 1.419 . S
C382 C383 1.362 . S
C383 H373 0.930 . S
C383 C376 1.409 . S
C383 C382 1.362 . S
H384 C390 0.930 . S
H385 C393 0.930 . S
H386 C394 0.930 . S
H387 C395 0.930 . S
H388 C398 0.930 . S
H389 C399 0.930 . S
C390 H384 0.930 . S
C390 C391 1.355 . S
C390 C392 1.415 . S
C391 C390 1.355 . S
C391 C393 1.419 . S
C392 C390 1.415 . S
C392 C397 1.425 . S
C392 C399 1.409 1_545 S
C393 H385 0.930 . S
C393 C391 1.419 . S
C393 C394 1.362 . S
C394 H386 0.930 . S
C394 C393 1.362 . S
C394 C397 1.409 . S
C395 H387 0.930 . S
C395 C396 1.355 1_545 S
C395 C397 1.415 . S
C396 C395 1.355 1_565 S
C396 C398 1.419 . S
C397 C392 1.425 . S
C397 C394 1.409 . S
C397 C395 1.415 . S
C398 H388 0.930 . S
C398 C396 1.419 . S
C398 C399 1.362 . S
C399 H389 0.930 . S
C399 C392 1.409 1_565 S
C399 C398 1.362 . S
H400 C406 0.930 . S
H401 C409 0.930 . S
H402 C410 0.930 . S
H403 C411 0.930 . S
H404 C414 0.930 . S
H405 C415 0.930 1_545 S
C406 H400 0.930 . S
C406 C407 1.355 . S
C406 C408 1.415 1_545 S
C407 C406 1.355 . S
C407 C409 1.419 1_545 S
C408 C406 1.415 1_565 S
C408 C413 1.425 . S
C408 C415 1.409 . S
C409 H401 0.930 . S
C409 C407 1.419 1_565 S
C409 C410 1.362 . S
C410 H402 0.930 . S
C410 C409 1.362 . S
C410 C413 1.409 . S
C411 H403 0.930 . S
C411 C412 1.355 . S
C411 C413 1.415 . S
C412 C411 1.355 . S
C412 C414 1.419 . S
C413 C408 1.425 . S
C413 C410 1.409 . S
C413 C411 1.415 . S
C414 H404 0.930 . S
C414 C412 1.419 . S
C414 C415 1.362 . S
C415 H405 0.930 1_565 S
C415 C408 1.409 . S
C415 C414 1.362 . S
H416 C422 0.930 . S
H417 C425 0.930 . S
H418 C426 0.930 . S
H419 C427 0.930 . S
H420 C430 0.930 . S
H421 C431 0.930 . S
C422 H416 0.930 . S
C422 C423 1.355 . S
C422 C424 1.415 . S
C423 C422 1.355 . S
C423 C425 1.419 . S
C424 C422 1.415 . S
C424 C429 1.425 . S
C424 C431 1.409 . S
C425 H417 0.930 . S
C425 C423 1.419 . S
C425 C426 1.362 . S
C426 H418 0.930 . S
C426 C425 1.362 . S
C426 C429 1.409 . S
C427 H419 0.930 . S
C427 C428 1.355 . S
C427 C429 1.415 . S
C428 C427 1.355 . S
C428 C430 1.419 . S
C429 C424 1.425 . S
C429 C426 1.409 . S
C429 C427 1.415 . S
C430 H420 0.930 . S
C430 C428 1.419 . S
C430 C431 1.362 . S
C431 H421 0.930 . S
C431 C424 1.409 . S
C431 C430 1.362 . S
H432 C438 0.930 . S
H433 C441 0.930 . S
H434 C442 0.930 . S
H435 C443 0.930 . S
H436 C446 0.930 . S
H437 C447 0.930 . S
C438 H432 0.930 . S
C438 C439 1.355 . S
C438 C440 1.415 . S
C439 C438 1.355 . S
C439 C441 1.419 . S
C440 C438 1.415 . S
C440 C445 1.425 . S
C440 C447 1.409 . S
C441 H433 0.930 . S
C441 C439 1.419 . S
C441 C442 1.362 . S
C442 H434 0.930 . S
C442 C441 1.362 . S
C442 C445 1.409 . S
C443 H435 0.930 . S
C443 C444 1.355 . S
C443 C445 1.415 . S
C444 C443 1.355 . S
C444 C446 1.419 . S
C445 C440 1.425 . S
C445 C442 1.409 . S
C445 C443 1.415 . S
C446 H436 0.930 . S
C446 C444 1.419 . S
C446 C447 1.362 . S
C447 H437 0.930 . S
C447 C440 1.409 . S
C447 C446 1.362 . S
H448 C454 0.930 . S
H449 C457 0.930 . S
H450 C458 0.930 . S
H451 C459 0.930 . S
H452 C462 0.930 . S
H453 C463 0.930 . S
C454 H448 0.930 . S
C454 C455 1.355 . S
C454 C456 1.415 . S
C455 C454 1.355 . S
C455 C457 1.419 . S
C456 C454 1.415 . S
C456 C461 1.425 . S
C456 C463 1.409 . S
C457 H449 0.930 . S
C457 C455 1.419 . S
C457 C458 1.362 . S
C458 H450 0.930 . S
C458 C457 1.362 . S
C458 C461 1.409 . S
C459 H451 0.930 . S
C459 C460 1.355 . S
C459 C461 1.415 . S
C460 C459 1.355 . S
C460 C462 1.419 . S
C461 C456 1.425 . S
C461 C458 1.409 . S
C461 C459 1.415 . S
C462 H452 0.930 . S
C462 C460 1.419 . S
C462 C463 1.362 . S
C463 H453 0.930 . S
C463 C456 1.409 . S
C463 C462 1.362 . S
H464 C470 0.930 . S
H465 C473 0.930 . S
H466 C474 0.930 . S
H467 C475 0.930 . S
H468 C478 0.930 . S
H469 C479 0.930 . S
C470 H464 0.930 . S
C470 C471 1.355 . S
C470 C472 1.415 . S
C471 C470 1.355 . S
C471 C473 1.419 . S
C472 C470 1.415 . S
C472 C477 1.425 . S
C472 C479 1.409 . S
C473 H465 0.930 . S
C473 C471 1.419 . S
C473 C474 1.362 . S
C474 H466 0.930 . S
C474 C473 1.362 . S
C474 C477 1.409 . S
C475 H467 0.930 . S
C475 C476 1.355 . S
C475 C477 1.415 . S
C476 C475 1.355 . S
C476 C478 1.419 . S
C477 C472 1.425 . S
C477 C474 1.409 . S
C477 C475 1.415 . S
C478 H468 0.930 . S
C478 C476 1.419 . S
C478 C479 1.362 . S
C479 H469 0.930 . S
C479 C472 1.409 . S
C479 C478 1.362 . S
H480 C486 0.930 . S
H481 C489 0.930 1_545 S
H482 C490 0.930 . S
H483 C491 0.930 . S
H484 C494 0.930 . S
H485 C495 0.930 . S
C486 H480 0.930 . S
C486 C487 1.355 . S
C486 C488 1.415 . S
C487 C486 1.355 . S
C487 C489 1.419 . S
C488 C486 1.415 . S
C488 C493 1.425 . S
C488 C495 1.409 . S
C489 H481 0.930 1_565 S
C489 C487 1.419 . S
C489 C490 1.362 . S
C490 H482 0.930 . S
C490 C489 1.362 . S
C490 C493 1.409 . S
C491 H483 0.930 . S
C491 C492 1.355 . S
C491 C493 1.415 . S
C492 C491 1.355 . S
C492 C494 1.419 . S
C493 C488 1.425 . S
C493 C490 1.409 . S
C493 C491 1.415 . S
C494 H484 0.930 . S
C494 C492 1.419 . S
C494 C495 1.362 . S
C495 H485 0.930 . S
C495 C488 1.409 . S
C495 C494 1.362 . S
H496 C502 0.930 . S
H497 C505 0.930 1_565 S
H498 C506 0.930 . S
H499 C507 0.930 . S
H500 C510 0.930 . S
H501 C511 0.930 . S
C502 H496 0.930 . S
C502 C503 1.355 . S
C502 C504 1.415 . S
C503 C502 1.355 . S
C503 C505 1.419 . S
C504 C502 1.415 . S
C504 C509 1.425 . S
C504 C511 1.409 . S
C505 H497 0.930 1_545 S
C505 C503 1.419 . S
C505 C506 1.362 . S
C506 H498 0.930 . S
C506 C505 1.362 . S
C506 C509 1.409 . S
C507 H499 0.930 . S
C507 C508 1.355 . S
C507 C509 1.415 . S
C508 C507 1.355 . S
C508 C510 1.419 . S
C509 C504 1.425 . S
C509 C506 1.409 . S
C509 C507 1.415 . S
C510 H500 0.930 . S
C510 C508 1.419 . S
C510 C511 1.362 . S
C511 H501 0.930 . S
C511 C504 1.409 . S
C511 C510 1.362 . S
H512 C518 0.930 . S
H513 C521 0.930 . S
H514 C522 0.930 . S
H515 C523 0.930 . S
H516 C526 0.930 . S
H517 C527 0.930 . S
C518 H512 0.930 . S
C518 C519 1.348 1_654 S
C518 C520 1.415 . S
C519 C518 1.348 1_456 S
C519 C521 1.427 . S
C520 C518 1.415 . S
C520 C525 1.425 1_654 S
C520 C527 1.409 . S
C521 H513 0.930 . S
C521 C519 1.427 . S
C521 C522 1.362 . S
C522 H514 0.930 . S
C522 C521 1.362 . S
C522 C525 1.409 . S
C523 H515 0.930 . S
C523 C524 1.342 1_456 S
C523 C525 1.415 . S
C524 C523 1.342 1_654 S
C524 C526 1.435 . S
C525 C520 1.425 1_456 S
C525 C522 1.409 . S
C525 C523 1.415 . S
C526 H516 0.930 . S
C526 C524 1.435 . S
C526 C527 1.362 . S
C527 H517 0.930 . S
C527 C520 1.409 . S
C527 C526 1.362 . S
H528 C534 0.930 . S
H529 C537 0.930 . S
H530 C538 0.930 . S
H531 C539 0.930 . S
H532 C542 0.930 . S
H533 C543 0.930 . S
C534 H528 0.930 . S
C534 C535 1.355 . S
C534 C536 1.415 . S
C535 C534 1.355 . S
C535 C537 1.419 . S
C536 C534 1.415 . S
C536 C541 1.425 . S
C536 C543 1.409 . S
C537 H529 0.930 . S
C537 C535 1.419 . S
C537 C538 1.362 . S
C538 H530 0.930 . S
C538 C537 1.362 . S
C538 C541 1.409 . S
C539 H531 0.930 . S
C539 C540 1.355 . S
C539 C541 1.415 . S
C540 C539 1.355 . S
C540 C542 1.419 . S
C541 C536 1.425 . S
C541 C538 1.409 . S
C541 C539 1.415 . S
C542 H532 0.930 . S
C542 C540 1.419 . S
C542 C543 1.362 . S
C543 H533 0.930 . S
C543 C536 1.409 . S
C543 C542 1.362 . S
H544 C550 0.930 . S
H545 C553 0.930 . S
H546 C554 0.930 . S
H547 C555 0.930 . S
H548 C558 0.930 . S
H549 C559 0.930 . S
C550 H544 0.930 . S
C550 C551 1.355 . S
C550 C552 1.415 . S
C551 C550 1.355 . S
C551 C553 1.419 . S
C552 C550 1.415 . S
C552 C557 1.425 . S
C552 C559 1.409 . S
C553 H545 0.930 . S
C553 C551 1.419 . S
C553 C554 1.362 . S
C554 H546 0.930 . S
C554 C553 1.362 . S
C554 C557 1.409 . S
C555 H547 0.930 . S
C555 C556 1.355 . S
C555 C557 1.415 . S
C556 C555 1.355 . S
C556 C558 1.419 . S
C557 C552 1.425 . S
C557 C554 1.409 . S
C557 C555 1.415 . S
C558 H548 0.930 . S
C558 C556 1.419 . S
C558 C559 1.362 . S
C559 H549 0.930 . S
C559 C552 1.409 . S
C559 C558 1.362 . S
H560 C566 0.930 . S
H561 C569 0.930 . S
H562 C570 0.930 . S
H563 C571 0.930 . S
H564 C574 0.930 . S
H565 C575 0.930 . S
C566 H560 0.930 . S
C566 C567 1.355 . S
C566 C568 1.415 . S
C567 C566 1.355 . S
C567 C569 1.419 1_655 S
C568 C566 1.415 . S
C568 C573 1.425 1_665 S
C568 C575 1.409 1_565 S
C569 H561 0.930 . S
C569 C567 1.419 1_455 S
C569 C570 1.362 . S
C570 H562 0.930 . S
C570 C569 1.362 . S
C570 C573 1.409 1_565 S
C571 H563 0.930 . S
C571 C572 1.355 . S
C571 C573 1.415 . S
C572 C571 1.355 . S
C572 C574 1.419 1_455 S
C573 C568 1.425 1_445 S
C573 C570 1.409 1_545 S
C573 C571 1.415 . S
C574 H564 0.930 . S
C574 C572 1.419 1_655 S
C574 C575 1.362 . S
C575 H565 0.930 . S
C575 C568 1.409 1_545 S
C575 C574 1.362 . S
H576 C582 0.930 . S
H577 C585 0.930 . S
H578 C586 0.930 . S
H579 C587 0.930 . S
H580 C590 0.930 . S
H581 C591 0.930 . S
C582 H576 0.930 . S
C582 C583 1.355 . S
C582 C584 1.415 . S
C583 C582 1.355 . S
C583 C585 1.419 . S
C584 C582 1.415 . S
C584 C589 1.425 . S
C584 C591 1.409 . S
C585 H577 0.930 . S
C585 C583 1.419 . S
C585 C586 1.362 . S
C586 H578 0.930 . S
C586 C585 1.362 . S
C586 C589 1.409 . S
C587 H579 0.930 . S
C587 C588 1.355 . S
C587 C589 1.415 . S
C588 C587 1.355 . S
C588 C590 1.419 . S
C589 C584 1.425 . S
C589 C586 1.409 . S
C589 C587 1.415 . S
C590 H580 0.930 . S
C590 C588 1.419 . S
C590 C591 1.362 . S
C591 H581 0.930 . S
C591 C584 1.409 . S
C591 C590 1.362 . S
H592 C598 0.930 . S
H593 C601 0.930 . S
H594 C602 0.930 . S
H595 C603 0.930 . S
H596 C606 0.930 . S
H597 C607 0.930 . S
C598 H592 0.930 . S
C598 C599 1.355 . S
C598 C600 1.415 . S
C599 C598 1.355 . S
C599 C601 1.419 . S
C600 C598 1.415 . S
C600 C605 1.425 . S
C600 C607 1.409 . S
C601 H593 0.930 . S
C601 C599 1.419 . S
C601 C602 1.362 . S
C602 H594 0.930 . S
C602 C601 1.362 . S
C602 C605 1.409 . S
C603 H595 0.930 . S
C603 C604 1.355 . S
C603 C605 1.415 . S
C604 C603 1.355 . S
C604 C606 1.419 . S
C605 C600 1.425 . S
C605 C602 1.409 . S
C605 C603 1.415 . S
C606 H596 0.930 . S
C606 C604 1.419 . S
C606 C607 1.362 . S
C607 H597 0.930 . S
C607 C600 1.409 . S
C607 C606 1.362 . S
H608 C614 0.930 . S
H609 C617 0.930 . S
H610 C618 0.930 . S
H611 C619 0.930 . S
H612 C622 0.930 . S
H613 C623 0.930 . S
C614 H608 0.930 . S
C614 C615 1.355 . S
C614 C616 1.415 . S
C615 C614 1.355 . S
C615 C617 1.419 . S
C616 C614 1.415 . S
C616 C621 1.425 . S
C616 C623 1.409 . S
C617 H609 0.930 . S
C617 C615 1.419 . S
C617 C618 1.362 . S
C618 H610 0.930 . S
C618 C617 1.362 . S
C618 C621 1.409 . S
C619 H611 0.930 . S
C619 C620 1.355 . S
C619 C621 1.415 . S
C620 C619 1.355 . S
C620 C622 1.419 . S
C621 C616 1.425 . S
C621 C618 1.409 . S
C621 C619 1.415 . S
C622 H612 0.930 . S
C622 C620 1.419 . S
C622 C623 1.362 . S
C623 H613 0.930 . S
C623 C616 1.409 . S
C623 C622 1.362 . S
H624 C630 0.930 . S
H625 C633 0.930 . S
H626 C634 0.930 . S
H627 C635 0.930 . S
H628 C638 0.930 . S
H629 C639 0.930 . S
C630 H624 0.930 . S
C630 C631 1.355 1_556 S
C630 C632 1.415 . S
C631 C630 1.355 1_554 S
C631 C633 1.419 . S
C632 C630 1.415 . S
C632 C637 1.425 1_566 S
C632 C639 1.409 1_565 S
C633 H625 0.930 . S
C633 C631 1.419 . S
C633 C634 1.362 . S
C634 H626 0.930 . S
C634 C633 1.362 . S
C634 C637 1.409 1_565 S
C635 H627 0.930 . S
C635 C636 1.338 1_554 S
C635 C637 1.415 . S
C636 C635 1.338 1_556 S
C636 C638 1.441 . S
C637 C632 1.425 1_544 S
C637 C634 1.409 1_545 S
C637 C635 1.415 . S
C638 H628 0.930 . S
C638 C636 1.441 . S
C638 C639 1.362 . S
C639 H629 0.930 . S
C639 C632 1.409 1_545 S
C639 C638 1.362 . S
H640 C646 0.930 . S
H641 C649 0.930 . S
H642 C650 0.930 . S
H643 C651 0.930 . S
H644 C654 0.930 . S
H645 C655 0.930 . S
C646 H640 0.930 . S
C646 C647 1.354 . S
C646 C648 1.415 . S
C647 C646 1.354 . S
C647 C649 1.419 1_556 S
C648 C646 1.415 . S
C648 C653 1.425 1_556 S
C648 C655 1.409 . S
C649 H641 0.930 . S
C649 C647 1.419 1_554 S
C649 C650 1.362 . S
C650 H642 0.930 . S
C650 C649 1.362 . S
C650 C653 1.409 . S
C651 H643 0.930 . S
C651 C652 1.358 . S
C651 C653 1.415 . S
C652 C651 1.358 . S
C652 C654 1.416 1_554 S
C653 C648 1.425 1_554 S
C653 C650 1.409 . S
C653 C651 1.415 . S
C654 H644 0.930 . S
C654 C652 1.416 1_556 S
C654 C655 1.362 . S
C655 H645 0.930 . S
C655 C648 1.409 . S
C655 C654 1.362 . S
H656 C662 0.932 . S
H657 C665 0.930 . S
H658 C666 0.933 . S
H659 C667 0.931 . S
H660 C670 0.930 . S
H661 C671 0.932 . S
C662 H656 0.932 . S
C662 C663 1.356 . S
C662 C664 1.414 . S
C663 C662 1.356 . S
C663 C665 1.419 . S
C664 C662 1.414 . S
C664 C669 1.425 . S
C664 C671 1.408 1_554 S
C665 H657 0.930 . S
C665 C663 1.419 . S
C665 C666 1.363 . S
C666 H658 0.933 . S
C666 C665 1.363 . S
C666 C669 1.408 . S
C667 H659 0.931 . S
C667 C668 1.355 . S
C667 C669 1.414 1_556 S
C668 C667 1.355 . S
C668 C670 1.419 . S
C669 C664 1.425 . S
C669 C666 1.408 . S
C669 C667 1.414 1_554 S
C670 H660 0.930 . S
C670 C668 1.419 . S
C670 C671 1.362 . S
C671 H661 0.932 . S
C671 C664 1.408 1_556 S
C671 C670 1.362 . S
H672 C678 0.930 . S
H673 C681 0.930 . S
H674 C682 0.930 1_655 S
H675 C683 0.930 . S
H676 C686 0.930 . S
H677 C687 0.930 1_455 S
C678 H672 0.930 . S
C678 C679 1.355 . S
C678 C680 1.415 . S
C679 C678 1.355 . S
C679 C681 1.419 . S
C680 C678 1.415 . S
C680 C685 1.425 1_455 S
C680 C687 1.409 1_455 S
C681 H673 0.930 . S
C681 C679 1.419 . S
C681 C682 1.362 . S
C682 H674 0.930 1_455 S
C682 C681 1.362 . S
C682 C685 1.409 1_455 S
C683 H675 0.930 . S
C683 C684 1.355 . S
C683 C685 1.415 . S
C684 C683 1.355 . S
C684 C686 1.419 . S
C685 C680 1.425 1_655 S
C685 C682 1.409 1_655 S
C685 C683 1.415 . S
C686 H676 0.930 . S
C686 C684 1.419 . S
C686 C687 1.362 . S
C687 H677 0.930 1_655 S
C687 C680 1.409 1_655 S
C687 C686 1.362 . S
H688 C694 0.930 . S
H689 C697 0.930 . S
H690 C698 0.930 . S
H691 C699 0.930 . S
H692 C702 0.930 . S
H693 C703 0.930 . S
C694 H688 0.930 . S
C694 C695 1.355 . S
C694 C696 1.415 . S
C695 C694 1.355 . S
C695 C697 1.419 . S
C696 C694 1.415 . S
C696 C701 1.425 . S
C696 C703 1.409 . S
C697 H689 0.930 . S
C697 C695 1.419 . S
C697 C698 1.362 . S
C698 H690 0.930 . S
C698 C697 1.362 . S
C698 C701 1.409 . S
C699 H691 0.930 . S
C699 C700 1.355 . S
C699 C701 1.415 . S
C700 C699 1.355 . S
C700 C702 1.419 . S
C701 C696 1.425 . S
C701 C698 1.409 . S
C701 C699 1.415 . S
C702 H692 0.930 . S
C702 C700 1.419 . S
C702 C703 1.362 . S
C703 H693 0.930 . S
C703 C696 1.409 . S
C703 C702 1.362 . S
H704 C710 0.930 . S
H705 C713 0.930 . S
H706 C714 0.930 . S
H707 C715 0.930 . S
H708 C718 0.930 . S
H709 C719 0.930 . S
C710 H704 0.930 . S
C710 C711 1.355 . S
C710 C712 1.415 . S
C711 C710 1.355 . S
C711 C713 1.419 . S
C712 C710 1.415 . S
C712 C717 1.425 . S
C712 C719 1.409 . S
C713 H705 0.930 . S
C713 C711 1.419 . S
C713 C714 1.362 . S
C714 H706 0.930 . S
C714 C713 1.362 . S
C714 C717 1.409 . S
C715 H707 0.930 . S
C715 C716 1.355 . S
C715 C717 1.415 . S
C716 C715 1.355 . S
C716 C718 1.419 . S
C717 C712 1.425 . S
C717 C714 1.409 . S
C717 C715 1.415 . S
C718 H708 0.930 . S
C718 C716 1.419 . S
C718 C719 1.362 . S
C719 H709 0.930 . S
C719 C712 1.409 . S
C719 C718 1.362 . S
H720 C726 0.930 . S
H721 C729 0.930 . S
H722 C730 0.919 1_455 S
H723 C731 0.930 . S
H724 C734 0.930 . S
H725 C735 0.919 1_655 S
C726 H720 0.930 . S
C726 C727 1.355 1_565 S
C726 C728 1.415 . S
C727 C726 1.355 1_545 S
C727 C729 1.419 . S
C728 C726 1.415 . S
C728 C733 1.425 1_665 S
C728 C735 1.403 1_655 S
C729 H721 0.930 . S
C729 C727 1.419 . S
C729 C730 1.380 . S
C730 H722 0.919 1_655 S
C730 C729 1.380 . S
C730 C733 1.403 1_655 S
C731 H723 0.930 . S
C731 C732 1.355 1_545 S
C731 C733 1.415 . S
C732 C731 1.355 1_565 S
C732 C734 1.419 . S
C733 C728 1.425 1_445 S
C733 C730 1.403 1_455 S
C733 C731 1.415 . S
C734 H724 0.930 . S
C734 C732 1.419 . S
C734 C735 1.380 . S
C735 H725 0.919 1_455 S
C735 C728 1.403 1_455 S
C735 C734 1.380 . S
H736 C742 0.930 . S
H737 C745 0.930 . S
H738 C746 0.930 . S
H739 C747 0.930 . S
H740 C750 0.930 . S
H741 C751 0.930 . S
C742 H736 0.930 . S
C742 C743 1.355 . S
C742 C744 1.415 . S
C743 C742 1.355 . S
C743 C745 1.419 . S
C744 C742 1.415 . S
C744 C749 1.425 . S
C744 C751 1.409 . S
C745 H737 0.930 . S
C745 C743 1.419 . S
C745 C746 1.362 . S
C746 H738 0.930 . S
C746 C745 1.362 . S
C746 C749 1.409 . S
C747 H739 0.930 . S
C747 C748 1.355 . S
C747 C749 1.415 . S
C748 C747 1.355 . S
C748 C750 1.419 . S
C749 C744 1.425 . S
C749 C746 1.409 . S
C749 C747 1.415 . S
C750 H740 0.930 . S
C750 C748 1.419 . S
C750 C751 1.362 . S
C751 H741 0.930 . S
C751 C744 1.409 . S
C751 C750 1.362 . S
H752 C758 0.930 . S
H753 C761 0.930 . S
H754 C762 0.930 . S
H755 C763 0.930 . S
H756 C766 0.930 . S
H757 C767 0.930 . S
C758 H752 0.930 . S
C758 C759 1.355 . S
C758 C760 1.415 1_565 S
C759 C758 1.355 . S
C759 C761 1.419 . S
C760 C758 1.415 1_545 S
C760 C765 1.425 1_545 S
C760 C767 1.409 . S
C761 H753 0.930 . S
C761 C759 1.419 . S
C761 C762 1.362 . S
C762 H754 0.930 . S
C762 C761 1.362 . S
C762 C765 1.409 . S
C763 H755 0.930 . S
C763 C764 1.355 . S
C763 C765 1.415 1_545 S
C764 C763 1.355 . S
C764 C766 1.419 . S
C765 C760 1.425 1_565 S
C765 C762 1.409 . S
C765 C763 1.415 1_565 S
C766 H756 0.930 . S
C766 C764 1.419 . S
C766 C767 1.362 . S
C767 H757 0.930 . S
C767 C760 1.409 . S
C767 C766 1.362 . S
C263 C23 1.400 . S
C268 C40 1.617 . S
C279 C24 1.394 . S
C284 C86 1.606 . S
C295 C113 1.555 . S
C300 C62 1.333 . S
C311 C91 1.407 . S
C316 C127 1.585 . S
C327 C119 1.337 . S
C332 C136 1.552 . S
C343 C182 1.631 . S
C348 C120 1.514 . S
C359 C158 1.419 . S
C364 C17 1.625 . S
C375 C187 1.455 . S
C380 C31 1.592 . S
C391 C168 1.568 . S
C396 C215 1.408 . S
C407 C216 1.404 . S
C412 C150 1.585 . S
C423 C241 1.573 . S
C428 C190 1.418 . S
C439 C255 1.651 . S
C444 C155 1.485 . S
C455 C247 1.392 . S
C460 C72 1.561 . S
C471 C54 1.584 . S
C476 C248 1.426 . S
C487 C209 1.602 . S
C492 C94 1.457 . S
C503 C223 1.608 . S
C508 C59 1.488 . S
C519 C22 0.903 1_556 S
C524 C30 0.901 1_554 S
C535 C49 0.697 . S
C540 C56 0.697 . S
C551 C81 0.721 . S
C556 C88 0.721 . S
C567 C126 0.714 . S
C572 C118 0.714 . S
C583 C145 0.899 . S
C588 C152 0.899 . S
C599 C177 0.705 . S
C604 C184 0.705 . S
C615 C214 0.716 . S
C620 C222 0.716 . S
C631 C254 0.709 1_554 S
C636 C246 0.704 1_556 S
C647 C232 1.492 1_556 S
C652 C27 1.489 1_554 S
C663 C8 1.442 . S
C668 C251 1.446 . S
C679 C63 1.490 . S
C684 C87 1.490 . S
C695 C200 1.442 . S
C700 C123 1.440 . S
C711 C104 1.493 . S
C716 C219 1.495 . S
C727 C183 1.487 . S
C732 C159 1.487 . S
C743 C191 1.442 . S
C748 C151 1.442 . S
C759 C95 1.471 . S
C764 C55 1.471 . S
