# Generated by pormake.
# Topology mmt, (4)-cn, num edge types: 1
# Building blocks:
#     Node 0, Type 0, BuildingBlock: AZAVOO_clean_sbu_0, # of connection points: 4
#     Node 1, Type 0, BuildingBlock: AZAVOO_clean_sbu_0, # of connection points: 4
#     Node 2, Type 0, BuildingBlock: AZAVOO_clean_sbu_0, # of connection points: 4
#     Node 3, Type 0, BuildingBlock: AZAVOO_clean_sbu_0, # of connection points: 4
#     Node 4, Type 0, BuildingBlock: AZAVOO_clean_sbu_0, # of connection points: 4
#     Node 5, Type 0, BuildingBlock: AZAVOO_clean_sbu_0, # of connection points: 4
#     Node 6, Type 0, BuildingBlock: AZAVOO_clean_sbu_0, # of connection points: 4
#     Node 7, Type 0, BuildingBlock: AZAVOO_clean_sbu_0, # of connection points: 4
#     Edge 8, Type (0, 0), BuildingBlock: TEMPAE_clean_linker_10, # of connection points: 2
#     Edge 9, Type (0, 0), BuildingBlock: TEMPAE_clean_linker_10, # of connection points: 2
#     Edge 10, Type (0, 0), BuildingBlock: TEMPAE_clean_linker_10, # of connection points: 2
#     Edge 11, Type (0, 0), BuildingBlock: TEMPAE_clean_linker_10, # of connection points: 2
#     Edge 12, Type (0, 0), BuildingBlock: TEMPAE_clean_linker_10, # of connection points: 2
#     Edge 13, Type (0, 0), BuildingBlock: TEMPAE_clean_linker_10, # of connection points: 2
#     Edge 14, Type (0, 0), BuildingBlock: TEMPAE_clean_linker_10, # of connection points: 2
#     Edge 15, Type (0, 0), BuildingBlock: TEMPAE_clean_linker_10, # of connection points: 2
#     Edge 16, Type (0, 0), BuildingBlock: TEMPAE_clean_linker_10, # of connection points: 2
#     Edge 17, Type (0, 0), BuildingBlock: TEMPAE_clean_linker_10, # of connection points: 2
#     Edge 18, Type (0, 0), BuildingBlock: TEMPAE_clean_linker_10, # of connection points: 2
#     Edge 19, Type (0, 0), BuildingBlock: TEMPAE_clean_linker_10, # of connection points: 2
#     Edge 20, Type (0, 0), BuildingBlock: TEMPAE_clean_linker_10, # of connection points: 2
#     Edge 21, Type (0, 0), BuildingBlock: TEMPAE_clean_linker_10, # of connection points: 2
#     Edge 22, Type (0, 0), BuildingBlock: TEMPAE_clean_linker_10, # of connection points: 2
#     Edge 23, Type (0, 0), BuildingBlock: TEMPAE_clean_linker_10, # of connection points: 2
# Relax obj value: 0.098
# Max RMSD: 0.149
# Mean RMSD: 0.149
data_MOF--net-mmt--node1-AZAVOO_clean_sbu_0--edge1-TEMPAE_clean_linker_10
_symmetry_space_group_name_H-M    P1
_symmetry_Int_Tables_number       1
_symmetry_cell_setting            triclinic
loop_
_symmetry_equiv_pos_as_xyz
'x, y, z'
_cell_length_a     20.417655
_cell_length_b     40.763489
_cell_length_c     43.273914
_cell_angle_alpha  89.87341
_cell_angle_beta   89.940225
_cell_angle_gamma 89.900399
loop_
_atom_site_label
_atom_site_type_symbol
_atom_site_fract_x
_atom_site_fract_y
_atom_site_fract_z
_atom_type_partial_charge
Mg0 Mg 0.27555 0.55306 0.37659 0.0
O1 O 0.20452 0.5533 0.33517 0.0
O2 O 0.25852 0.5731 0.29427 0.0
Mg3 Mg 0.3626 0.58652 0.30909 0.0
C4 C 0.20671 0.5614 0.30662 0.0
C5 C 0.16756 0.51425 0.41387 0.0
O6 O 0.19151 0.49015 0.39719 0.0
O7 O 0.26387 0.60891 0.3819 0.0
O8 O 0.32108 0.62603 0.34087 0.0
O9 O 0.31512 0.5035 0.3616 0.0
O10 O 0.35552 0.551 0.34679 0.0
C11 C 0.28762 0.63194 0.36518 0.0
C12 C 0.35684 0.51963 0.34495 0.0
O13 O 0.19057 0.54299 0.41019 0.0
Mg14 Mg 0.23164 0.95005 0.38129 0.0
O15 O 0.29987 0.94654 0.33917 0.0
O16 O 0.24374 0.92475 0.30003 0.0
Mg17 Mg 0.13896 0.91446 0.31675 0.0
C18 C 0.29651 0.93658 0.31124 0.0
C19 C 0.3134 0.95759 0.44161 0.0
O20 O 0.25712 0.94724 0.45265 0.0
O21 O 0.24098 0.89434 0.38931 0.0
O22 O 0.17709 0.87632 0.35093 0.0
O23 O 0.19345 -0.00068 0.36436 0.0
O24 O 0.14996 0.95164 0.35262 0.0
C25 C 0.21202 0.87113 0.37491 0.0
C26 C 0.14973 0.98288 0.34929 0.0
O27 O 0.31954 0.9611 0.41253 0.0
Mg28 Mg 0.77742 0.44265 0.13325 0.0
O29 O 0.70625 0.44289 0.17465 0.0
O30 O 0.76046 0.42384 0.2158 0.0
Mg31 Mg 0.86487 0.41045 0.20114 0.0
C32 C 0.7085 0.43525 0.20331 0.0
C33 C 0.66238 0.47955 0.09898 0.0
O34 O 0.67842 0.50223 0.11911 0.0
O35 O 0.76651 0.38665 0.12869 0.0
O36 O 0.82439 0.37042 0.1698 0.0
O37 O 0.81616 0.49252 0.14759 0.0
O38 O 0.85721 0.44529 0.16295 0.0
C39 C 0.79104 0.36397 0.14562 0.0
C40 C 0.85808 0.47668 0.16441 0.0
O41 O 0.69268 0.45225 0.09951 0.0
Mg42 Mg 0.73124 0.04555 0.13465 0.0
O43 O 0.79939 0.04875 0.17676 0.0
O44 O 0.74304 0.07016 0.21612 0.0
Mg45 Mg 0.63836 0.08072 0.19948 0.0
C46 C 0.79591 0.05844 0.20478 0.0
C47 C 0.81491 0.04018 0.07448 0.0
O48 O 0.7601 0.05254 0.06358 0.0
O49 O 0.74022 0.10131 0.12694 0.0
O50 O 0.67686 0.11911 0.16568 0.0
O51 O 0.69335 0.99619 0.15131 0.0
O52 O 0.6495 0.0438 0.16334 0.0
C53 C 0.71164 0.12449 0.14165 0.0
C54 C 0.64948 0.01254 0.1665 0.0
O55 O 0.81936 0.03466 0.10335 0.0
Mg56 Mg 0.7495 0.44447 0.63503 0.0
O57 O 0.81995 0.44457 0.67667 0.0
O58 O 0.76553 0.42525 0.71765 0.0
Mg59 Mg 0.66182 0.41153 0.70256 0.0
C60 C 0.81746 0.43681 0.7053 0.0
C61 C 0.82033 0.46559 0.57496 0.0
O62 O 0.75828 0.46975 0.56791 0.0
O63 O 0.76164 0.38858 0.63005 0.0
O64 O 0.70432 0.37191 0.67123 0.0
O65 O 0.70979 0.49407 0.64954 0.0
O66 O 0.66914 0.44665 0.66453 0.0
C67 C 0.73801 0.36574 0.64705 0.0
C68 C 0.66781 0.47804 0.66616 0.0
O69 O 0.83471 0.45498 0.6018 0.0
Mg70 Mg 0.77668 0.047 0.63392 0.0
O71 O 0.70768 0.05166 0.67565 0.0
O72 O 0.76359 0.0739 0.71463 0.0
Mg73 Mg 0.86913 0.08306 0.69832 0.0
C74 C 0.71075 0.06216 0.70341 0.0
C75 C 0.68516 0.00898 0.58846 0.0
O76 O 0.73137 0.98705 0.59306 0.0
O77 O 0.76941 0.10265 0.62503 0.0
O78 O 0.83364 0.12089 0.66321 0.0
O79 O 0.8134 0.99773 0.6518 0.0
O80 O 0.85776 0.04532 0.663 0.0
C81 C 0.79926 0.12586 0.63901 0.0
C82 C 0.85731 0.01415 0.66677 0.0
O83 O 0.68899 0.03642 0.60231 0.0
Mg84 Mg 0.24841 0.55525 0.87811 0.0
O85 O 0.31913 0.55508 0.83651 0.0
O86 O 0.26473 0.57436 0.79552 0.0
Mg87 Mg 0.16072 0.58798 0.81052 0.0
C88 C 0.31671 0.56282 0.80788 0.0
C89 C 0.31959 0.52948 0.93631 0.0
O90 O 0.25852 0.52074 0.94122 0.0
O91 O 0.26 0.61118 0.883 0.0
O92 O 0.20223 0.62767 0.84193 0.0
O93 O 0.20923 0.50559 0.86367 0.0
O94 O 0.16827 0.55296 0.84859 0.0
C95 C 0.23579 0.63396 0.86608 0.0
C96 C 0.16721 0.52156 0.84702 0.0
O97 O 0.33334 0.54475 0.91146 0.0
Mg98 Mg 0.27818 0.95284 0.88054 0.0
O99 O 0.20913 0.94908 0.83881 0.0
O100 O 0.26522 0.92789 0.79926 0.0
Mg101 Mg 0.37078 0.91832 0.81527 0.0
C102 C 0.21227 0.93929 0.81082 0.0
C103 C 0.18839 0.98931 0.92787 0.0
O104 O 0.23648 0.01045 0.92478 0.0
O105 O 0.27139 0.89698 0.88833 0.0
O106 O 0.33516 0.87967 0.84951 0.0
O107 O 0.31444 0.0025 0.86356 0.0
O108 O 0.35921 0.95517 0.85143 0.0
C109 C 0.301 0.87408 0.87369 0.0
C110 C 0.35848 0.98641 0.84825 0.0
O111 O 0.19043 0.96281 0.91241 0.0
C112 C 0.4554 0.52174 0.31121 0.0
C113 C 0.4033 0.50346 0.32347 0.0
C114 C 0.50087 0.50763 0.29097 0.0
C115 C 0.49425 0.47429 0.28255 0.0
C116 C 0.44152 0.45562 0.29462 0.0
C117 C 0.39673 0.47041 0.31513 0.0
C118 C 0.55663 0.52841 0.27892 0.0
C119 C 0.43268 0.42008 0.28594 0.0
C120 C 0.59151 0.45319 0.21042 0.0
C121 C 0.65025 0.44137 0.22316 0.0
C122 C 0.53843 0.462 0.22941 0.0
C123 C 0.54436 0.4592 0.26192 0.0
C124 C 0.60222 0.44579 0.27481 0.0
C125 C 0.65428 0.43695 0.25531 0.0
C126 C 0.47732 0.47592 0.21475 0.0
C127 C 0.61076 0.44258 0.30935 0.0
H128 H 0.46144 0.54719 0.3178 0.0
H129 H 0.35648 0.45619 0.32448 0.0
H130 H 0.60414 0.5176 0.28615 0.0
H131 H 0.556 0.52886 0.2533 0.0
H132 H 0.55424 0.55408 0.28742 0.0
H133 H 0.38797 0.40926 0.29645 0.0
H134 H 0.42948 0.41768 0.26045 0.0
H135 H 0.47582 0.40561 0.29356 0.0
H136 H 0.58749 0.45641 0.18563 0.0
H137 H 0.69913 0.42767 0.26548 0.0
H138 H 0.47407 0.50257 0.21971 0.0
H139 H 0.43302 0.4642 0.22469 0.0
H140 H 0.4769 0.47251 0.18929 0.0
H141 H 0.61425 0.46736 0.31977 0.0
H142 H 0.65556 0.42854 0.31555 0.0
H143 H 0.56772 0.43025 0.31983 0.0
C144 C 0.91319 0.04206 0.21339 0.0
C145 C 0.85395 0.05435 0.2252 0.0
C146 C 0.96613 0.03483 0.23299 0.0
C147 C 0.9597 0.03985 0.26522 0.0
C148 C 0.90148 0.05396 0.27707 0.0
C149 C 0.84941 0.06108 0.25695 0.0
C150 C 0.02751 0.02001 0.21939 0.0
C151 C 0.89255 0.05965 0.31129 0.0
C152 C 0.04876 0.97989 0.31738 0.0
C153 C 0.10206 -0.00159 0.32794 0.0
C154 C 1.00255 0.99318 0.29703 0.0
C155 C 0.00944 0.02597 0.28681 0.0
C156 C 0.06297 0.045 0.2974 0.0
C157 C 0.10867 0.03101 0.318 0.0
C158 C 0.94609 0.97201 0.28654 0.0
C159 C 0.07198 0.08001 0.28687 0.0
H160 H 0.91769 0.03709 0.18888 0.0
H161 H 0.80419 0.07081 0.26637 0.0
H162 H 0.07166 0.03235 0.22867 0.0
H163 H 0.03065 0.99373 0.226 0.0
H164 H 0.02834 0.02174 0.19376 0.0
H165 H 0.84813 0.07446 0.31639 0.0
H166 H 0.88797 0.03568 0.3233 0.0
H167 H 0.93585 0.0723 0.32107 0.0
H168 H 0.04257 0.95484 0.32528 0.0
H169 H 0.14973 0.04544 0.32608 0.0
H170 H 0.94652 0.9698 0.26099 0.0
H171 H 0.89892 0.98359 0.29316 0.0
H172 H 0.94788 0.94696 0.29667 0.0
H173 H 0.07641 0.08091 0.26133 0.0
H174 H 0.11612 0.09152 0.29716 0.0
H175 H 0.02838 0.09482 0.29323 0.0
C176 C 0.89625 0.52604 0.19441 0.0
C177 C 0.90423 0.49315 0.18572 0.0
C178 C 0.94049 0.54098 0.215 0.0
C179 C 0.9941 0.52265 0.22675 0.0
C180 C 1.00224 0.48951 0.21788 0.0
C181 C 0.95726 0.47523 0.19761 0.0
C182 C 0.92999 0.57628 0.2242 0.0
C183 C 0.05902 0.46912 0.22953 0.0
C184 C 0.15251 0.56069 0.25465 0.0
C185 C 0.14862 0.55546 0.2867 0.0
C186 C 0.10076 0.55197 0.235 0.0
C187 C 0.04339 0.53784 0.24764 0.0
C188 C 0.03749 0.53428 0.28009 0.0
C189 C 0.09024 0.54301 0.29923 0.0
C190 C 0.10926 0.55602 0.20053 0.0
C191 C 0.97686 0.51959 0.2945 0.0
H192 H 0.85524 0.53996 0.18536 0.0
H193 H 0.96433 0.44992 0.19074 0.0
H194 H 0.92611 0.57817 0.24971 0.0
H195 H 0.9727 0.59125 0.217 0.0
H196 H 0.88508 0.5869 0.21368 0.0
H197 H 0.05801 0.44361 0.22055 0.0
H198 H 0.106 0.4806 0.22254 0.0
H199 H 0.05826 0.4681 0.25515 0.0
H200 H 0.19706 0.5705 0.24464 0.0
H201 H 0.08629 0.53917 0.32395 0.0
H202 H 0.06563 0.56806 0.19027 0.0
H203 H 0.11414 0.53151 0.18964 0.0
H204 H 0.15333 0.5707 0.19461 0.0
H205 H 0.93214 0.53107 0.28471 0.0
H206 H 0.97613 0.52257 0.32001 0.0
H207 H 0.9748 0.493 0.28915 0.0
C208 C 0.60888 0.96424 0.19763 0.0
C209 C 0.6019 0.99687 0.18779 0.0
C210 C 0.56331 0.95013 0.21822 0.0
C211 C 0.50954 0.96906 0.22889 0.0
C212 C 0.50224 0.00187 0.21875 0.0
C213 C 0.54834 0.01528 0.19841 0.0
C214 C 0.57276 0.91511 0.22868 0.0
C215 C 0.4455 0.02293 0.22933 0.0
C216 C 0.34998 0.93379 0.25901 0.0
C217 C 0.35452 0.94057 0.29075 0.0
C218 C 0.40195 0.94092 0.2388 0.0
C219 C 0.46005 0.95509 0.25056 0.0
C220 C 0.46652 0.96012 0.28278 0.0
C221 C 0.4137 0.95288 0.30246 0.0
C222 C 0.39297 0.93522 0.2046 0.0
C223 C 0.52779 0.97499 0.29628 0.0
H224 H 0.65014 0.94989 0.1895 0.0
H225 H 0.54189 0.04035 0.1906 0.0
H226 H 0.57745 0.91419 0.2542 0.0
H227 H 0.52926 0.90027 0.22244 0.0
H228 H 0.61693 0.90365 0.21823 0.0
H229 H 0.4469 0.04798 0.21919 0.0
H230 H 0.39848 0.01126 0.22279 0.0
H231 H 0.44598 0.02515 0.25487 0.0
H232 H 0.30481 0.92404 0.24967 0.0
H233 H 0.4182 0.95788 0.32696 0.0
H234 H 0.43644 0.92267 0.19474 0.0
H235 H 0.38795 0.95918 0.19261 0.0
H236 H 0.34878 0.9203 0.19959 0.0
H237 H 0.57204 0.9627 0.2869 0.0
H238 H 0.52875 0.97323 0.3219 0.0
H239 H 0.53061 0.00127 0.28969 0.0
C240 C 0.37047 0.56113 0.75576 0.0
C241 C 0.37476 0.55667 0.7879 0.0
C242 C 0.42235 0.55229 0.73616 0.0
C243 C 0.48027 0.53882 0.74893 0.0
C244 C 0.48646 0.53598 0.78142 0.0
C245 C 0.43358 0.54483 0.80051 0.0
C246 C 0.41355 0.55556 0.70164 0.0
C247 C 0.54765 0.52199 0.79595 0.0
C248 C 0.56886 0.47616 0.69964 0.0
C249 C 0.62116 0.49434 0.68744 0.0
C250 C 0.52338 0.49036 0.71981 0.0
C251 C 0.53015 0.52369 0.72821 0.0
C252 C 0.583 0.54229 0.71615 0.0
C253 C 0.62783 0.52741 0.69572 0.0
C254 C 0.4675 0.46966 0.73186 0.0
C255 C 0.59199 0.57783 0.7248 0.0
H256 H 0.32555 0.57045 0.74569 0.0
H257 H 0.43782 0.54159 0.8253 0.0
H258 H 0.4566 0.56781 0.6911 0.0
H259 H 0.40978 0.53079 0.6912 0.0
H260 H 0.36881 0.56969 0.69554 0.0
H261 H 0.5483 0.52538 0.82142 0.0
H262 H 0.55073 0.49534 0.79097 0.0
H263 H 0.59191 0.53367 0.78595 0.0
H264 H 0.56276 0.45071 0.69309 0.0
H265 H 0.66822 0.54156 0.68642 0.0
H266 H 0.42004 0.48057 0.7247 0.0
H267 H 0.46824 0.46914 0.75748 0.0
H268 H 0.46966 0.444 0.7233 0.0
H269 H 0.54874 0.59231 0.71734 0.0
H270 H 0.63654 0.58865 0.71415 0.0
H271 H 0.5956 0.58022 0.75028 0.0
C272 C 0.89797 0.96611 0.69834 0.0
C273 C 0.90468 -0.00132 0.68831 0.0
C274 C 0.94367 0.95213 0.71895 0.0
C275 C 0.9973 0.97113 0.72947 0.0
C276 C 1.00421 0.00391 0.71922 0.0
C277 C 0.95802 0.01719 0.69885 0.0
C278 C 0.93463 0.91713 0.72951 0.0
C279 C 0.06076 0.02507 0.72964 0.0
C280 C 0.09458 0.95521 0.80262 0.0
C281 C 0.15375 0.94303 0.79063 0.0
C282 C 0.04128 0.96228 0.78318 0.0
C283 C 0.04727 0.95722 0.75094 0.0
C284 C 0.10538 0.94315 0.73892 0.0
C285 C 0.15782 0.93618 0.75889 0.0
C286 C 0.98003 0.97705 0.79696 0.0
C287 C 0.11387 0.93742 0.70469 0.0
H288 H 0.8569 0.95168 0.69026 0.0
H289 H 0.96433 0.04221 0.6909 0.0
H290 H 0.97799 0.90226 0.72294 0.0
H291 H 0.93074 0.91622 0.75508 0.0
H292 H 0.8902 0.90571 0.71942 0.0
H293 H 0.05887 0.05014 0.71957 0.0
H294 H 0.06058 0.02722 0.75519 0.0
H295 H 0.10787 0.0135 0.7229 0.0
H296 H 0.09044 0.96026 0.82712 0.0
H297 H 0.20298 0.92653 0.74933 0.0
H298 H 0.93578 0.96475 0.78773 0.0
H299 H 0.97684 0.00335 0.79044 0.0
H300 H 0.97945 0.97523 0.82258 0.0
H301 H 0.0704 0.9248 0.69504 0.0
H302 H 0.15817 0.92256 0.69949 0.0
H303 H 0.11839 0.96137 0.69265 0.0
C304 C 0.12792 0.47217 0.81742 0.0
C305 C 0.12078 0.50521 0.82577 0.0
C306 C 0.08333 0.45727 0.79698 0.0
C307 C 0.03025 0.47581 0.785 0.0
C308 C 0.02299 0.50911 0.79348 0.0
C309 C 0.06825 0.52333 0.81365 0.0
C310 C 0.09285 0.42177 0.78823 0.0
C311 C 0.96683 0.52974 0.78153 0.0
C312 C 0.93413 0.45486 0.71267 0.0
C313 C 0.8754 0.44292 0.72527 0.0
C314 C 0.98688 0.46366 0.73177 0.0
C315 C 0.98064 0.46067 0.76425 0.0
C316 C 0.92285 0.44708 0.77699 0.0
C317 C 0.87109 0.4383 0.75739 0.0
C318 C 0.04794 0.47778 0.71726 0.0
C319 C 0.91402 0.44365 0.81151 0.0
H320 H 0.1685 0.45808 0.82666 0.0
H321 H 0.06179 0.54876 0.82026 0.0
H322 H 0.04974 0.4072 0.79563 0.0
H323 H 0.09664 0.41948 0.76274 0.0
H324 H 0.13748 0.41099 0.79887 0.0
H325 H 0.96859 0.55537 0.79017 0.0
H326 H 0.96765 0.53036 0.7559 0.0
H327 H 0.91951 0.51871 0.78866 0.0
H328 H 0.93839 0.45822 0.68789 0.0
H329 H 0.82625 0.42889 0.76745 0.0
H330 H 0.09232 0.46614 0.72722 0.0
H331 H 0.05067 0.50442 0.72231 0.0
H332 H 0.04872 0.47447 0.69178 0.0
H333 H 0.95723 0.43143 0.82199 0.0
H334 H 0.86948 0.4294 0.81757 0.0
H335 H 0.90984 0.46836 0.82205 0.0
C336 C 0.39796 0.03487 0.81697 0.0
C337 C 0.40563 0.00231 0.82689 0.0
C338 C 0.44321 0.04916 0.79631 0.0
C339 C 0.49738 0.03048 0.78568 0.0
C340 C 0.50538 0.99775 0.79593 0.0
C341 C 0.45958 0.98416 0.81631 0.0
C342 C 0.43301 0.08409 0.78575 0.0
C343 C 0.56257 0.97695 0.78542 0.0
C344 C 0.59328 0.04629 0.71209 0.0
C345 C 0.65239 0.05871 0.72378 0.0
C346 C 0.54032 0.03926 0.73177 0.0
C347 C 0.54659 0.0446 0.76395 0.0
C348 C 0.60453 0.059 0.77564 0.0
C349 C 0.65663 0.06592 0.75544 0.0
C350 C 0.47922 0.02416 0.71832 0.0
C351 C 0.6133 0.06505 0.80979 0.0
H352 H 0.3564 0.04902 0.82507 0.0
H353 H 0.46659 0.95915 0.82419 0.0
H354 H 0.47625 0.09917 0.79188 0.0
H355 H 0.42816 0.08488 0.76022 0.0
H356 H 0.38867 0.09536 0.79621 0.0
H357 H 0.56173 0.95194 0.79566 0.0
H358 H 0.56209 0.9746 0.75989 0.0
H359 H 0.60934 0.98891 0.7919 0.0
H360 H 0.58899 0.04097 0.68765 0.0
H361 H 0.70173 0.07577 0.76476 0.0
H362 H 0.43481 0.03628 0.72771 0.0
H363 H 0.47684 0.99787 0.72492 0.0
H364 H 0.4782 0.02589 0.69269 0.0
H365 H 0.56949 0.07737 0.81958 0.0
H366 H 0.65708 0.08032 0.8147 0.0
H367 H 0.61901 0.04122 0.82196 0.0
C368 C 0.09058 0.47593 0.44107 0.0
C369 C 0.11631 0.50764 0.43752 0.0
C370 C 0.04317 0.46902 0.46372 0.0
C371 C 0.02087 0.49439 0.48344 0.0
C372 C 0.04657 0.52645 0.48 0.0
C373 C 0.09385 0.5327 0.45707 0.0
C374 C 0.01682 0.43455 0.46652 0.0
C375 C 0.0241 0.55416 0.50055 0.0
C376 C 0.8547 0.48368 0.52202 0.0
C377 C 0.87208 0.47316 0.55183 0.0
C378 C 0.90257 0.49082 0.49967 0.0
C379 C 0.96968 0.48745 0.50723 0.0
C380 C 0.98769 0.47702 0.53731 0.0
C381 C 0.9387 0.46996 0.55924 0.0
C382 C 0.88123 0.50177 0.46787 0.0
C383 C 0.05872 0.47319 0.5463 0.0
H384 H 0.10751 0.45637 0.42612 0.0
H385 H 0.11348 0.55726 0.4546 0.0
H386 H 0.02584 0.42492 0.49013 0.0
H387 H 0.96304 0.43463 0.46287 0.0
H388 H 0.03952 0.41754 0.44956 0.0
H389 H 0.0494 0.5776 0.49517 0.0
H390 H 0.97057 0.55792 0.49792 0.0
H391 H 0.03324 0.54783 0.52512 0.0
H392 H 0.80344 0.48626 0.51601 0.0
H393 H 0.95268 0.46191 0.58219 0.0
H394 H 0.8996 0.48428 0.45025 0.0
H395 H 0.90264 0.5261 0.46241 0.0
H396 H 0.82712 0.50351 0.46576 0.0
H397 H 0.08264 0.45473 0.53122 0.0
H398 H 0.06467 0.46541 0.57075 0.0
H399 H 0.08494 0.49674 0.54284 0.0
C400 C 0.42742 0.97821 0.45155 0.0
C401 C 0.36823 0.96547 0.4629 0.0
C402 C 0.47924 0.98596 0.47163 0.0
C403 C 0.47187 0.98076 0.50383 0.0
C404 C 0.41229 0.96792 0.51541 0.0
C405 C 0.36126 0.96048 0.49484 0.0
C406 C 0.54194 -0.00033 0.45839 0.0
C407 C 0.40252 0.96187 0.54955 0.0
C408 C 0.6249 0.9709 0.55313 0.0
C409 C 0.63024 0.0019 0.56697 0.0
C410 C 0.57377 0.96375 0.53253 0.0
C411 C 0.5268 0.98821 0.52542 0.0
C412 C 0.5319 0.01958 0.53924 0.0
C413 C 0.58343 0.02602 0.5599 0.0
C414 C 0.56991 0.92995 0.51844 0.0
C415 C 0.48289 0.04634 0.5322 0.0
H416 H 0.43329 0.98222 0.42694 0.0
H417 H 0.31581 0.95065 0.50388 0.0
H418 H 0.55268 0.02384 0.46895 0.0
H419 H 0.58348 0.98314 0.46404 0.0
H420 H 0.53959 0.00272 0.4329 0.0
H421 H 0.35307 0.95201 0.55487 0.0
H422 H 0.43975 0.9442 0.55808 0.0
H423 H 0.40937 0.98504 0.56254 0.0
H424 H 0.66069 0.95206 0.55844 0.0
H425 H 0.58716 0.05006 0.57039 0.0
H426 H 0.57178 0.93178 0.49287 0.0
H427 H 0.52257 0.9183 0.5246 0.0
H428 H 0.61035 0.91369 0.52629 0.0
H429 H 0.48219 0.05143 0.50701 0.0
H430 H 0.49404 0.0695 0.5446 0.0
H431 H 0.43297 0.03821 0.53881 0.0
C432 C 0.59813 0.46327 0.05195 0.0
C433 C 0.61173 0.48633 0.07512 0.0
C434 C 0.55162 0.46985 0.02879 0.0
C435 C 0.51764 0.50018 0.02879 0.0
C436 C 0.53093 0.52348 0.05218 0.0
C437 C 0.57778 0.5163 0.075 0.0
C438 C 0.53889 0.44435 1.00428 0.0
C439 C 0.49554 0.55603 0.05312 0.0
C440 C 0.43655 0.5303 0.95459 0.0
C441 C 0.37083 0.52177 0.95963 0.0
C442 C 0.48495 0.52323 0.97678 0.0
C443 C 0.46725 0.50732 1.00471 0.0
C444 C 0.40107 0.49855 0.00985 0.0
C445 C 0.3538 0.50583 0.98729 0.0
C446 C 0.55501 0.53291 0.97039 0.0
C447 C 0.38006 0.48162 0.03931 0.0
H448 H 0.62414 0.44007 0.05177 0.0
H449 H 0.58783 0.5343 0.09276 0.0
H450 H 0.48669 0.43687 1.00488 0.0
H451 H 0.54849 0.45486 0.98104 0.0
H452 H 0.56986 0.42214 0.00731 0.0
H453 H 0.51172 0.57157 0.07273 0.0
H454 H 0.50399 0.56966 0.03126 0.0
H455 H 0.442 0.55195 0.05518 0.0
H456 H 0.45026 0.54256 0.9333 0.0
H457 H 0.30322 0.49911 0.99146 0.0
H458 H 0.58719 0.51099 0.97155 0.0
H459 H 0.57215 0.55028 0.98834 0.0
H460 H 0.561 0.54462 0.94736 0.0
H461 H 0.40749 0.45831 0.04221 0.0
H462 H 0.32679 0.47613 0.03964 0.0
H463 H 0.39175 0.49729 0.05949 0.0
C464 C 0.08404 0.97291 0.95462 0.0
C465 C 0.13334 0.99625 0.94941 0.0
C466 C 0.0322 0.97926 0.97521 0.0
C467 C 0.02935 0.00971 0.99088 0.0
C468 C 0.07889 0.03335 0.98568 0.0
C469 C 0.13025 0.02632 0.96509 0.0
C470 C 0.98042 0.95338 0.98018 0.0
C471 C 0.07753 0.06617 1.00179 0.0
C472 C 0.86513 0.03964 0.02161 0.0
C473 C 0.87001 0.03234 0.05324 0.0
C474 C 0.91642 0.03226 1.00108 0.0
C475 C 0.9741 0.01711 0.01238 0.0
C476 C 0.97934 0.00958 0.04426 0.0
C477 C 0.92732 0.01734 0.06431 0.0
C478 C 0.90897 0.04083 0.9673 0.0
C479 C 0.03997 0.99338 0.05721 0.0
H480 H 0.08601 0.94959 0.94268 0.0
H481 H 0.16798 0.04455 0.96124 0.0
H482 H 0.97791 0.94666 1.00501 0.0
H483 H 0.93168 0.96321 0.97359 0.0
H484 H 0.99006 0.93083 0.96653 0.0
H485 H 0.11987 0.08185 0.99534 0.0
H486 H 0.0317 0.07945 0.99592 0.0
H487 H 0.07785 0.06255 0.02721 0.0
H488 H 0.82114 0.05123 0.01278 0.0
H489 H 0.93156 0.01154 0.08869 0.0
H490 H 0.91429 0.01844 0.95299 0.0
H491 H 0.94826 0.05805 0.96019 0.0
H492 H 0.8608 0.05231 0.96214 0.0
H493 H 0.04893 0.96972 0.04529 0.0
H494 H 0.03603 0.98868 0.08244 0.0
H495 H 0.08331 0.00914 0.05294 0.0
C496 C 0.25059 0.67598 0.40226 0.0
C497 C 0.27695 0.66683 0.37355 0.0
C498 C 0.24087 0.70927 0.40966 0.0
C499 C 0.25709 0.73376 0.38767 0.0
C500 C 0.28475 0.72461 0.35897 0.0
C501 C 0.29446 0.69142 0.35235 0.0
C502 C 0.21197 0.7182 0.44062 0.0
C503 C 0.30213 0.74984 0.33464 0.0
C504 C 0.16967 0.81421 0.37754 0.0
C505 C 0.21907 0.83666 0.38511 0.0
C506 C 0.1791 0.78045 0.38122 0.0
C507 C 0.23964 0.76877 0.39269 0.0
C508 C 0.28736 0.7914 0.40317 0.0
C509 C 0.27646 0.82528 0.39928 0.0
C510 C 0.12666 0.75731 0.36988 0.0
C511 C 0.3521 0.77985 0.41598 0.0
H512 H 0.23749 0.65719 0.4189 0.0
H513 H 0.31488 0.68477 0.33009 0.0
H514 H 0.24102 0.73797 0.45161 0.0
H515 H 0.16151 0.72773 0.43741 0.0
H516 H 0.20994 0.69682 0.45656 0.0
H517 H 0.32596 0.73872 0.31407 0.0
H518 H 0.25717 0.76281 0.32692 0.0
H519 H 0.33569 0.76849 0.34441 0.0
H520 H 0.12449 0.82297 0.36724 0.0
H521 H 0.31453 0.84257 0.40542 0.0
H522 H 0.11879 0.73707 0.38661 0.0
H523 H 0.14256 0.74618 0.34772 0.0
H524 H 0.07924 0.77006 0.36598 0.0
H525 H 0.34521 0.75852 0.4316 0.0
H526 H 0.37766 0.79964 0.42879 0.0
H527 H 0.38412 0.77184 0.39667 0.0
C528 C 0.67295 0.1823 0.14191 0.0
C529 C 0.71892 0.15907 0.13171 0.0
C530 C 0.68306 0.21589 0.13751 0.0
C531 C 0.74062 0.22668 0.12245 0.0
C532 C 0.78443 0.20334 0.10963 0.0
C533 C 0.77307 0.16965 0.11443 0.0
C534 C 0.63488 0.23982 0.15152 0.0
C535 C 0.84572 0.21395 0.09292 0.0
C536 C 0.74849 0.3192 0.11076 0.0
C537 C 0.78121 0.32888 0.13776 0.0
C538 C 0.73798 0.28576 0.10432 0.0
C539 C 0.76002 0.26166 0.12556 0.0
C540 C 0.79486 0.27131 0.15225 0.0
C541 C 0.80514 0.30463 0.15793 0.0
C542 C 0.70145 0.27631 0.0754 0.0
C543 C 0.81883 0.24649 0.17571 0.0
H544 H 0.63006 0.17429 0.15463 0.0
H545 H 0.8084 0.15181 0.10618 0.0
H546 H 0.65735 0.2516 0.17202 0.0
H547 H 0.62252 0.25954 0.13482 0.0
H548 H 0.58881 0.22764 0.15894 0.0
H549 H 0.86718 0.19364 0.07911 0.0
H550 H 0.83547 0.23503 0.0774 0.0
H551 H 0.88273 0.22202 0.11004 0.0
H552 H 0.73041 0.33769 0.09487 0.0
H553 H 0.8309 0.31164 0.17877 0.0
H554 H 0.65141 0.26803 0.0816 0.0
H555 H 0.72629 0.25557 0.06363 0.0
H556 H 0.69717 0.29716 0.05894 0.0
H557 H 0.77634 0.23395 0.1865 0.0
H558 H 0.84841 0.25793 0.19432 0.0
H559 H 0.84909 0.22745 0.16425 0.0
C560 C 0.84678 0.18143 0.63336 0.0
C561 C 0.79428 0.16007 0.62795 0.0
C562 C 0.83994 0.2153 0.62931 0.0
C563 C 0.77882 0.2282 0.61985 0.0
C564 C 0.72758 0.20653 0.61144 0.0
C565 C 0.73599 0.17251 0.61552 0.0
C566 C 0.8961 0.23736 0.63835 0.0
C567 C 0.66194 0.21935 0.60092 0.0
C568 C 0.73463 0.30662 0.66129 0.0
C569 C 0.74867 0.33077 0.6391 0.0
C570 C 0.7426 0.27329 0.65483 0.0
C571 C 0.76499 0.26354 0.62529 0.0
C572 C 0.77853 0.28762 0.6025 0.0
C573 C 0.77057 0.32108 0.60973 0.0
C574 C 0.72839 0.24852 0.68003 0.0
C575 C 0.80197 0.27802 0.5707 0.0
H576 H 0.89248 0.17176 0.64236 0.0
H577 H 0.69548 0.15602 0.61112 0.0
H578 H 0.90225 0.25757 0.62141 0.0
H579 H 0.88548 0.24861 0.66115 0.0
H580 H 0.94304 0.22366 0.64014 0.0
H581 H 0.63266 0.20001 0.58933 0.0
H582 H 0.63396 0.22822 0.62126 0.0
H583 H 0.66798 0.24037 0.58485 0.0
H584 H 0.71795 0.31375 0.6841 0.0
H585 H 0.78097 0.33956 0.59238 0.0
H586 H 0.7738 0.23491 0.68596 0.0
H587 H 0.69199 0.23033 0.67186 0.0
H588 H 0.70919 0.26015 0.7014 0.0
H589 H 0.85054 0.26593 0.57237 0.0
H590 H 0.8062 0.29949 0.55498 0.0
H591 H 0.7678 0.26001 0.56032 0.0
C592 C 0.22635 0.69326 0.85284 0.0
C593 C 0.2457 0.669 0.87405 0.0
C594 C 0.23488 0.72658 0.85911 0.0
C595 C 0.26332 0.73623 0.88745 0.0
C596 C 0.28159 0.71208 0.90942 0.0
C597 C 0.27291 0.67863 0.90239 0.0
C598 C 0.21528 0.75144 0.8348 0.0
C599 C 0.31148 0.72155 0.93999 0.0
C600 C 0.3461 0.81757 0.87589 0.0
C601 C 0.29594 0.83954 0.88392 0.0
C602 C 0.33855 0.78374 0.87984 0.0
C603 C 0.27919 0.77146 0.89206 0.0
C604 C 0.23079 0.79363 0.90292 0.0
C605 C 0.23978 0.82759 0.89875 0.0
C606 C 0.39165 0.76112 0.86805 0.0
C607 C 0.16723 0.78145 0.9165 0.0
H608 H 0.20523 0.68625 0.83086 0.0
H609 H 0.28746 0.66011 0.91904 0.0
H610 H 0.18126 0.76982 0.84479 0.0
H611 H 0.25927 0.7648 0.82652 0.0
H612 H 0.19112 0.73992 0.81456 0.0
H613 H 0.31565 0.70029 0.95598 0.0
H614 H 0.36112 0.73178 0.93613 0.0
H615 H 0.28174 0.74095 0.95126 0.0
H616 H 0.39037 0.82675 0.86506 0.0
H617 H 0.20114 0.84451 0.90526 0.0
H618 H 0.37537 0.74969 0.84611 0.0
H619 H 0.40125 0.74105 0.88479 0.0
H620 H 0.43824 0.77436 0.86359 0.0
H621 H 0.13487 0.77287 0.89759 0.0
H622 H 0.14114 0.80105 0.92941 0.0
H623 H 0.17593 0.76035 0.93221 0.0
loop_
_geom_bond_atom_site_label_1
_geom_bond_atom_site_label_2
_geom_bond_distance
_geom_bond_site_symmetry_2
_ccdc_geom_bond_type
Mg0 O1 2.028 . S
Mg0 O7 1.986 . S
Mg0 O9 2.114 . S
Mg0 O10 2.251 . S
Mg0 O13 2.010 . S
O1 Mg0 2.028 . S
O1 C4 1.250 . S
O2 Mg3 2.028 . S
O2 C4 1.248 . S
Mg3 O2 2.028 . S
Mg3 O8 2.032 . S
Mg3 O10 2.079 . S
C4 O1 1.250 . S
C4 O2 1.248 . S
C5 O6 1.264 . S
C5 O13 1.249 . S
O6 C5 1.264 . S
O7 Mg0 1.986 . S
O7 C11 1.246 . S
O8 Mg3 2.032 . S
O8 C11 1.259 . S
O9 Mg0 2.114 . S
O9 C12 1.252 . S
O10 Mg0 2.251 . S
O10 Mg3 2.079 . S
O10 C12 1.273 . S
C11 O7 1.246 . S
C11 O8 1.259 . S
C12 O9 1.252 . S
C12 O10 1.273 . S
O13 Mg0 2.010 . S
O13 C5 1.249 . S
Mg14 O15 2.028 . S
Mg14 O21 1.986 . S
Mg14 O23 2.114 . S
Mg14 O24 2.251 . S
Mg14 O27 2.010 . S
O15 Mg14 2.028 . S
O15 C18 1.250 . S
O16 Mg17 2.028 . S
O16 C18 1.248 . S
Mg17 O16 2.028 . S
Mg17 O22 2.032 . S
Mg17 O24 2.079 . S
C18 O15 1.250 . S
C18 O16 1.248 . S
C19 O20 1.264 . S
C19 O27 1.249 . S
O20 C19 1.264 . S
O21 Mg14 1.986 . S
O21 C25 1.246 . S
O22 Mg17 2.032 . S
O22 C25 1.259 . S
O23 Mg14 2.114 . S
O23 C26 1.252 . S
O24 Mg14 2.251 . S
O24 Mg17 2.079 . S
O24 C26 1.273 . S
C25 O21 1.246 . S
C25 O22 1.259 . S
C26 O23 1.252 . S
C26 O24 1.273 . S
O27 Mg14 2.010 . S
O27 C19 1.249 . S
Mg28 O29 2.028 . S
Mg28 O35 1.986 . S
Mg28 O37 2.114 . S
Mg28 O38 2.251 . S
Mg28 O41 2.010 . S
O29 Mg28 2.028 . S
O29 C32 1.250 . S
O30 Mg31 2.028 . S
O30 C32 1.248 . S
Mg31 O30 2.028 . S
Mg31 O36 2.032 . S
Mg31 O38 2.079 . S
C32 O29 1.250 . S
C32 O30 1.248 . S
C33 O34 1.264 . S
C33 O41 1.249 . S
O34 C33 1.264 . S
O35 Mg28 1.986 . S
O35 C39 1.246 . S
O36 Mg31 2.032 . S
O36 C39 1.259 . S
O37 Mg28 2.114 . S
O37 C40 1.252 . S
O38 Mg28 2.251 . S
O38 Mg31 2.079 . S
O38 C40 1.273 . S
C39 O35 1.246 . S
C39 O36 1.259 . S
C40 O37 1.252 . S
C40 O38 1.273 . S
O41 Mg28 2.010 . S
O41 C33 1.249 . S
Mg42 O43 2.028 . S
Mg42 O49 1.986 . S
Mg42 O51 2.114 . S
Mg42 O52 2.251 . S
Mg42 O55 2.010 . S
O43 Mg42 2.028 . S
O43 C46 1.250 . S
O44 Mg45 2.028 . S
O44 C46 1.248 . S
Mg45 O44 2.028 . S
Mg45 O50 2.032 . S
Mg45 O52 2.079 . S
C46 O43 1.250 . S
C46 O44 1.248 . S
C47 O48 1.264 . S
C47 O55 1.249 . S
O48 C47 1.264 . S
O49 Mg42 1.986 . S
O49 C53 1.246 . S
O50 Mg45 2.032 . S
O50 C53 1.259 . S
O51 Mg42 2.114 . S
O51 C54 1.252 . S
O52 Mg42 2.251 . S
O52 Mg45 2.079 . S
O52 C54 1.273 . S
C53 O49 1.246 . S
C53 O50 1.259 . S
C54 O51 1.252 . S
C54 O52 1.273 . S
O55 Mg42 2.010 . S
O55 C47 1.249 . S
Mg56 O57 2.028 . S
Mg56 O63 1.986 . S
Mg56 O65 2.114 . S
Mg56 O66 2.251 . S
Mg56 O69 2.010 . S
O57 Mg56 2.028 . S
O57 C60 1.250 . S
O58 Mg59 2.028 . S
O58 C60 1.248 . S
Mg59 O58 2.028 . S
Mg59 O64 2.032 . S
Mg59 O66 2.079 . S
C60 O57 1.250 . S
C60 O58 1.248 . S
C61 O62 1.264 . S
C61 O69 1.249 . S
O62 C61 1.264 . S
O63 Mg56 1.986 . S
O63 C67 1.246 . S
O64 Mg59 2.032 . S
O64 C67 1.259 . S
O65 Mg56 2.114 . S
O65 C68 1.252 . S
O66 Mg56 2.251 . S
O66 Mg59 2.079 . S
O66 C68 1.273 . S
C67 O63 1.246 . S
C67 O64 1.259 . S
C68 O65 1.252 . S
C68 O66 1.273 . S
O69 Mg56 2.010 . S
O69 C61 1.249 . S
Mg70 O71 2.028 . S
Mg70 O77 1.986 . S
Mg70 O79 2.114 . S
Mg70 O80 2.251 . S
Mg70 O83 2.010 . S
O71 Mg70 2.028 . S
O71 C74 1.250 . S
O72 Mg73 2.028 . S
O72 C74 1.248 . S
Mg73 O72 2.028 . S
Mg73 O78 2.032 . S
Mg73 O80 2.079 . S
C74 O71 1.250 . S
C74 O72 1.248 . S
C75 O76 1.264 . S
C75 O83 1.249 . S
O76 C75 1.264 . S
O77 Mg70 1.986 . S
O77 C81 1.246 . S
O78 Mg73 2.032 . S
O78 C81 1.259 . S
O79 Mg70 2.114 . S
O79 C82 1.252 . S
O80 Mg70 2.251 . S
O80 Mg73 2.079 . S
O80 C82 1.273 . S
C81 O77 1.246 . S
C81 O78 1.259 . S
C82 O79 1.252 . S
C82 O80 1.273 . S
O83 Mg70 2.010 . S
O83 C75 1.249 . S
Mg84 O85 2.028 . S
Mg84 O91 1.986 . S
Mg84 O93 2.114 . S
Mg84 O94 2.251 . S
Mg84 O97 2.010 . S
O85 Mg84 2.028 . S
O85 C88 1.250 . S
O86 Mg87 2.028 . S
O86 C88 1.248 . S
Mg87 O86 2.028 . S
Mg87 O92 2.032 . S
Mg87 O94 2.079 . S
C88 O85 1.250 . S
C88 O86 1.248 . S
C89 O90 1.264 . S
C89 O97 1.249 . S
O90 C89 1.264 . S
O91 Mg84 1.986 . S
O91 C95 1.246 . S
O92 Mg87 2.032 . S
O92 C95 1.259 . S
O93 Mg84 2.114 . S
O93 C96 1.252 . S
O94 Mg84 2.251 . S
O94 Mg87 2.079 . S
O94 C96 1.273 . S
C95 O91 1.246 . S
C95 O92 1.259 . S
C96 O93 1.252 . S
C96 O94 1.273 . S
O97 Mg84 2.010 . S
O97 C89 1.249 . S
Mg98 O99 2.028 . S
Mg98 O105 1.986 . S
Mg98 O107 2.114 . S
Mg98 O108 2.251 . S
Mg98 O111 2.010 . S
O99 Mg98 2.028 . S
O99 C102 1.250 . S
O100 Mg101 2.028 . S
O100 C102 1.248 . S
Mg101 O100 2.028 . S
Mg101 O106 2.032 . S
Mg101 O108 2.079 . S
C102 O99 1.250 . S
C102 O100 1.248 . S
C103 O104 1.264 . S
C103 O111 1.249 . S
O104 C103 1.264 . S
O105 Mg98 1.986 . S
O105 C109 1.246 . S
O106 Mg101 2.032 . S
O106 C109 1.259 . S
O107 Mg98 2.114 . S
O107 C110 1.252 . S
O108 Mg98 2.251 . S
O108 Mg101 2.079 . S
O108 C110 1.273 . S
C109 O105 1.246 . S
C109 O106 1.259 . S
C110 O107 1.252 . S
C110 O108 1.273 . S
O111 Mg98 2.010 . S
O111 C103 1.249 . S
C112 C113 1.391 . S
C112 C114 1.394 . S
C112 H128 0.931 . S
C113 C112 1.391 . S
C113 C117 1.376 . S
C114 C112 1.394 . S
C114 C115 1.369 . S
C114 C118 1.531 . S
C115 C114 1.369 . S
C115 C116 1.410 . S
C115 C123 1.503 . S
C116 C115 1.410 . S
C116 C117 1.392 . S
C116 C119 1.511 . S
C117 C113 1.376 . S
C117 C116 1.392 . S
C117 H129 0.929 . S
C118 C114 1.531 . S
C118 H130 0.960 . S
C118 H131 0.962 . S
C118 H132 0.960 . S
C119 C116 1.511 . S
C119 H133 0.961 . S
C119 H134 0.961 . S
C119 H135 0.961 . S
C120 C121 1.370 . S
C120 C122 1.363 . S
C120 H136 0.931 . S
C121 C120 1.370 . S
C121 C125 1.408 . S
C122 C120 1.363 . S
C122 C123 1.370 . S
C122 C126 1.524 . S
C123 C115 1.503 . S
C123 C122 1.370 . S
C123 C124 1.403 . S
C124 C123 1.403 . S
C124 C125 1.404 . S
C124 C127 1.539 . S
C125 C121 1.408 . S
C125 C124 1.404 . S
C125 H137 0.930 . S
C126 C122 1.524 . S
C126 H138 0.956 . S
C126 H139 0.961 . S
C126 H140 0.961 . S
C127 C124 1.539 . S
C127 H141 0.958 . S
C127 H142 0.961 . S
C127 H143 0.960 . S
H128 C112 0.931 . S
H129 C117 0.929 . S
H130 C118 0.960 . S
H131 C118 0.962 . S
H132 C118 0.960 . S
H133 C119 0.961 . S
H134 C119 0.961 . S
H135 C119 0.961 . S
H136 C120 0.931 . S
H137 C125 0.930 . S
H138 C126 0.956 . S
H139 C126 0.961 . S
H140 C126 0.961 . S
H141 C127 0.958 . S
H142 C127 0.961 . S
H143 C127 0.960 . S
C144 C145 1.391 1_455 S
C144 C146 1.394 . S
C144 H160 0.931 . S
C145 C144 1.391 1_655 S
C145 C149 1.376 . S
C146 C144 1.394 . S
C146 C147 1.369 . S
C146 C150 1.531 . S
C147 C146 1.369 . S
C147 C148 1.410 . S
C147 C155 1.503 . S
C148 C147 1.410 . S
C148 C149 1.392 1_455 S
C148 C151 1.511 . S
C149 C145 1.376 . S
C149 C148 1.392 1_655 S
C149 H161 0.929 . S
C150 C146 1.531 . S
C150 H162 0.960 . S
C150 H163 0.962 1_545 S
C150 H164 0.960 . S
C151 C148 1.511 . S
C151 H165 0.961 1_455 S
C151 H166 0.961 . S
C151 H167 0.961 . S
C152 C153 1.370 . S
C152 C154 1.363 . S
C152 H168 0.931 . S
C153 C152 1.370 . S
C153 C157 1.408 1_565 S
C154 C152 1.363 . S
C154 C155 1.370 1_565 S
C154 C158 1.524 . S
C155 C147 1.503 . S
C155 C154 1.370 1_545 S
C155 C156 1.403 . S
C156 C155 1.403 . S
C156 C157 1.404 . S
C156 C159 1.539 . S
C157 C153 1.408 1_545 S
C157 C156 1.404 . S
C157 H169 0.930 . S
C158 C154 1.524 . S
C158 H170 0.956 . S
C158 H171 0.961 . S
C158 H172 0.961 . S
C159 C156 1.539 . S
C159 H173 0.958 . S
C159 H174 0.961 . S
C159 H175 0.960 . S
H160 C144 0.931 . S
H161 C149 0.929 . S
H162 C150 0.960 . S
H163 C150 0.962 1_565 S
H164 C150 0.960 . S
H165 C151 0.961 1_655 S
H166 C151 0.961 . S
H167 C151 0.961 . S
H168 C152 0.931 . S
H169 C157 0.930 . S
H170 C158 0.956 . S
H171 C158 0.961 . S
H172 C158 0.961 . S
H173 C159 0.958 . S
H174 C159 0.961 . S
H175 C159 0.960 . S
C176 C177 1.391 . S
C176 C178 1.394 . S
C176 H192 0.931 . S
C177 C176 1.391 . S
C177 C181 1.376 . S
C178 C176 1.394 . S
C178 C179 1.369 . S
C178 C182 1.531 . S
C179 C178 1.369 . S
C179 C180 1.410 . S
C179 C187 1.503 . S
C180 C179 1.410 . S
C180 C181 1.392 . S
C180 C183 1.511 . S
C181 C177 1.376 . S
C181 C180 1.392 . S
C181 H193 0.929 . S
C182 C178 1.531 . S
C182 H194 0.960 . S
C182 H195 0.962 . S
C182 H196 0.960 . S
C183 C180 1.511 . S
C183 H197 0.961 . S
C183 H198 0.961 . S
C183 H199 0.961 . S
C184 C185 1.370 1_655 S
C184 C186 1.363 . S
C184 H200 0.931 . S
C185 C184 1.370 1_455 S
C185 C189 1.408 . S
C186 C184 1.363 . S
C186 C187 1.370 . S
C186 C190 1.524 . S
C187 C179 1.503 . S
C187 C186 1.370 . S
C187 C188 1.403 . S
C188 C187 1.403 . S
C188 C189 1.404 1_655 S
C188 C191 1.539 . S
C189 C185 1.408 . S
C189 C188 1.404 1_455 S
C189 H201 0.930 . S
C190 C186 1.524 . S
C190 H202 0.956 . S
C190 H203 0.961 . S
C190 H204 0.961 . S
C191 C188 1.539 . S
C191 H205 0.958 . S
C191 H206 0.961 1_655 S
C191 H207 0.960 . S
H192 C176 0.931 . S
H193 C181 0.929 . S
H194 C182 0.960 . S
H195 C182 0.962 . S
H196 C182 0.960 . S
H197 C183 0.961 . S
H198 C183 0.961 . S
H199 C183 0.961 . S
H200 C184 0.931 . S
H201 C189 0.930 . S
H202 C190 0.956 . S
H203 C190 0.961 . S
H204 C190 0.961 . S
H205 C191 0.958 . S
H206 C191 0.961 1_455 S
H207 C191 0.960 . S
C208 C209 1.366 1_565 S
C208 C210 1.406 . S
C208 H224 0.945 . S
C209 C208 1.366 1_545 S
C209 C213 1.376 . S
C210 C208 1.406 . S
C210 C211 1.363 1_565 S
C210 C214 1.531 . S
C211 C210 1.363 1_545 S
C211 C212 1.421 . S
C211 C219 1.497 1_545 S
C212 C211 1.421 . S
C212 C213 1.392 . S
C212 C215 1.511 . S
C213 C209 1.376 . S
C213 C212 1.392 . S
C213 H225 0.929 . S
C214 C210 1.531 . S
C214 H226 0.960 . S
C214 H227 0.962 . S
C214 H228 0.960 . S
C215 C212 1.511 . S
C215 H229 0.961 . S
C215 H230 0.961 . S
C215 H231 0.961 . S
C216 C217 1.370 . S
C216 C218 1.363 . S
C216 H232 0.931 . S
C217 C216 1.370 . S
C217 C221 1.408 . S
C218 C216 1.363 . S
C218 C219 1.370 . S
C218 C222 1.524 . S
C219 C211 1.497 1_565 S
C219 C218 1.370 . S
C219 C220 1.403 . S
C220 C219 1.403 . S
C220 C221 1.404 . S
C220 C223 1.539 1_565 S
C221 C217 1.408 . S
C221 C220 1.404 . S
C221 H233 0.930 . S
C222 C218 1.524 . S
C222 H234 0.956 . S
C222 H235 0.961 . S
C222 H236 0.961 . S
C223 C220 1.539 1_545 S
C223 H237 0.958 . S
C223 H238 0.961 . S
C223 H239 0.960 . S
H224 C208 0.945 . S
H225 C213 0.929 . S
H226 C214 0.960 . S
H227 C214 0.962 . S
H228 C214 0.960 . S
H229 C215 0.961 . S
H230 C215 0.961 . S
H231 C215 0.961 . S
H232 C216 0.931 . S
H233 C221 0.930 . S
H234 C222 0.956 . S
H235 C222 0.961 . S
H236 C222 0.961 . S
H237 C223 0.958 . S
H238 C223 0.961 . S
H239 C223 0.960 . S
C240 C241 1.391 . S
C240 C242 1.394 . S
C240 H256 0.931 . S
C241 C240 1.391 . S
C241 C245 1.376 . S
C242 C240 1.394 . S
C242 C243 1.369 . S
C242 C246 1.531 . S
C243 C242 1.369 . S
C243 C244 1.410 . S
C243 C251 1.503 . S
C244 C243 1.410 . S
C244 C245 1.392 . S
C244 C247 1.511 . S
C245 C241 1.376 . S
C245 C244 1.392 . S
C245 H257 0.929 . S
C246 C242 1.531 . S
C246 H258 0.960 . S
C246 H259 0.962 . S
C246 H260 0.960 . S
C247 C244 1.511 . S
C247 H261 0.961 . S
C247 H262 0.961 . S
C247 H263 0.961 . S
C248 C249 1.370 . S
C248 C250 1.363 . S
C248 H264 0.931 . S
C249 C248 1.370 . S
C249 C253 1.408 . S
C250 C248 1.363 . S
C250 C251 1.370 . S
C250 C254 1.524 . S
C251 C243 1.503 . S
C251 C250 1.370 . S
C251 C252 1.403 . S
C252 C251 1.403 . S
C252 C253 1.404 . S
C252 C255 1.539 . S
C253 C249 1.408 . S
C253 C252 1.404 . S
C253 H265 0.930 . S
C254 C250 1.524 . S
C254 H266 0.956 . S
C254 H267 0.961 . S
C254 H268 0.961 . S
C255 C252 1.539 . S
C255 H269 0.958 . S
C255 H270 0.961 . S
C255 H271 0.960 . S
H256 C240 0.931 . S
H257 C245 0.929 . S
H258 C246 0.960 . S
H259 C246 0.962 . S
H260 C246 0.960 . S
H261 C247 0.961 . S
H262 C247 0.961 . S
H263 C247 0.961 . S
H264 C248 0.931 . S
H265 C253 0.930 . S
H266 C254 0.956 . S
H267 C254 0.961 . S
H268 C254 0.961 . S
H269 C255 0.958 . S
H270 C255 0.961 . S
H271 C255 0.960 . S
C272 C273 1.391 1_565 S
C272 C274 1.394 . S
C272 H288 0.931 . S
C273 C272 1.391 1_545 S
C273 C277 1.376 . S
C274 C272 1.394 . S
C274 C275 1.369 . S
C274 C278 1.531 . S
C275 C274 1.369 . S
C275 C276 1.410 1_565 S
C275 C283 1.503 . S
C276 C275 1.410 1_545 S
C276 C277 1.392 . S
C276 C279 1.511 . S
C277 C273 1.376 . S
C277 C276 1.392 . S
C277 H289 0.929 . S
C278 C274 1.531 . S
C278 H290 0.960 . S
C278 H291 0.962 . S
C278 H292 0.960 . S
C279 C276 1.511 . S
C279 H293 0.961 . S
C279 H294 0.961 . S
C279 H295 0.961 . S
C280 C281 1.370 1_655 S
C280 C282 1.363 . S
C280 H296 0.931 . S
C281 C280 1.370 1_455 S
C281 C285 1.408 . S
C282 C280 1.363 . S
C282 C283 1.370 . S
C282 C286 1.524 . S
C283 C275 1.503 . S
C283 C282 1.370 . S
C283 C284 1.403 1_655 S
C284 C283 1.403 1_455 S
C284 C285 1.404 . S
C284 C287 1.539 . S
C285 C281 1.408 . S
C285 C284 1.404 . S
C285 H297 0.930 . S
C286 C282 1.524 . S
C286 H298 0.956 . S
C286 H299 0.961 1_565 S
C286 H300 0.961 . S
C287 C284 1.539 . S
C287 H301 0.958 . S
C287 H302 0.961 . S
C287 H303 0.960 . S
H288 C272 0.931 . S
H289 C277 0.929 . S
H290 C278 0.960 . S
H291 C278 0.962 . S
H292 C278 0.960 . S
H293 C279 0.961 . S
H294 C279 0.961 . S
H295 C279 0.961 . S
H296 C280 0.931 . S
H297 C285 0.930 . S
H298 C286 0.956 . S
H299 C286 0.961 1_545 S
H300 C286 0.961 . S
H301 C287 0.958 . S
H302 C287 0.961 . S
H303 C287 0.960 . S
C304 C305 1.391 . S
C304 C306 1.394 . S
C304 H320 0.931 . S
C305 C304 1.391 . S
C305 C309 1.376 . S
C306 C304 1.394 . S
C306 C307 1.369 . S
C306 C310 1.531 . S
C307 C306 1.369 . S
C307 C308 1.410 . S
C307 C315 1.503 . S
C308 C307 1.410 . S
C308 C309 1.392 . S
C308 C311 1.511 . S
C309 C305 1.376 . S
C309 C308 1.392 . S
C309 H321 0.929 . S
C310 C306 1.531 . S
C310 H322 0.960 . S
C310 H323 0.962 . S
C310 H324 0.960 . S
C311 C308 1.511 . S
C311 H325 0.961 . S
C311 H326 0.961 . S
C311 H327 0.961 . S
C312 C313 1.370 1_455 S
C312 C314 1.363 . S
C312 H328 0.931 . S
C313 C312 1.370 1_655 S
C313 C317 1.408 . S
C314 C312 1.363 . S
C314 C315 1.370 . S
C314 C318 1.524 . S
C315 C307 1.503 . S
C315 C314 1.370 . S
C315 C316 1.403 . S
C316 C315 1.403 . S
C316 C317 1.404 1_455 S
C316 C319 1.539 . S
C317 C313 1.408 . S
C317 C316 1.404 1_655 S
C317 H329 0.930 . S
C318 C314 1.524 . S
C318 H330 0.956 . S
C318 H331 0.961 . S
C318 H332 0.961 . S
C319 C316 1.539 . S
C319 H333 0.958 . S
C319 H334 0.961 1_455 S
C319 H335 0.960 . S
H320 C304 0.931 . S
H321 C309 0.929 . S
H322 C310 0.960 . S
H323 C310 0.962 . S
H324 C310 0.960 . S
H325 C311 0.961 . S
H326 C311 0.961 . S
H327 C311 0.961 . S
H328 C312 0.931 . S
H329 C317 0.930 . S
H330 C318 0.956 . S
H331 C318 0.961 . S
H332 C318 0.961 . S
H333 C319 0.958 . S
H334 C319 0.961 1_655 S
H335 C319 0.960 . S
C336 C337 1.391 . S
C336 C338 1.394 1_565 S
C336 H352 0.928 1_565 S
C337 C336 1.391 . S
C337 C341 1.376 . S
C338 C336 1.394 1_545 S
C338 C339 1.369 . S
C338 C342 1.531 . S
C339 C338 1.369 . S
C339 C340 1.410 1_545 S
C339 C347 1.503 . S
C340 C339 1.410 1_565 S
C340 C341 1.392 . S
C340 C343 1.511 . S
C341 C337 1.376 . S
C341 C340 1.392 . S
C341 H353 0.929 . S
C342 C338 1.531 . S
C342 H354 0.960 . S
C342 H355 0.962 . S
C342 H356 0.960 . S
C343 C340 1.511 . S
C343 H357 0.961 . S
C343 H358 0.961 . S
C343 H359 0.961 1_565 S
C344 C345 1.370 . S
C344 C346 1.363 . S
C344 H360 0.931 . S
C345 C344 1.370 . S
C345 C349 1.408 . S
C346 C344 1.363 . S
C346 C347 1.370 . S
C346 C350 1.524 1_545 S
C347 C339 1.503 . S
C347 C346 1.370 . S
C347 C348 1.403 . S
C348 C347 1.403 . S
C348 C349 1.404 . S
C348 C351 1.539 . S
C349 C345 1.408 . S
C349 C348 1.404 . S
C349 H361 0.930 . S
C350 C346 1.524 1_565 S
C350 H362 0.956 . S
C350 H363 0.961 . S
C350 H364 0.961 . S
C351 C348 1.539 . S
C351 H365 0.958 . S
C351 H366 0.961 . S
C351 H367 0.960 . S
H352 C336 0.928 1_545 S
H353 C341 0.929 . S
H354 C342 0.960 . S
H355 C342 0.962 . S
H356 C342 0.960 . S
H357 C343 0.961 . S
H358 C343 0.961 . S
H359 C343 0.961 1_545 S
H360 C344 0.931 . S
H361 C349 0.930 . S
H362 C350 0.956 . S
H363 C350 0.961 . S
H364 C350 0.961 . S
H365 C351 0.958 . S
H366 C351 0.961 . S
H367 C351 0.960 . S
C368 C369 1.391 . S
C368 C370 1.394 . S
C368 H384 0.931 . S
C369 C368 1.391 . S
C369 C373 1.376 . S
C370 C368 1.394 . S
C370 C371 1.369 . S
C370 C374 1.531 . S
C371 C370 1.369 . S
C371 C372 1.410 . S
C371 C379 1.503 1_455 S
C372 C371 1.410 . S
C372 C373 1.392 . S
C372 C375 1.511 . S
C373 C369 1.376 . S
C373 C372 1.392 . S
C373 H385 0.929 . S
C374 C370 1.531 . S
C374 H386 0.960 . S
C374 H387 0.962 1_455 S
C374 H388 0.960 . S
C375 C372 1.511 . S
C375 H389 0.961 . S
C375 H390 0.961 1_455 S
C375 H391 0.961 . S
C376 C377 1.370 . S
C376 C378 1.363 . S
C376 H392 0.931 . S
C377 C376 1.370 . S
C377 C381 1.408 . S
C378 C376 1.363 . S
C378 C379 1.370 . S
C378 C382 1.524 . S
C379 C371 1.503 1_655 S
C379 C378 1.370 . S
C379 C380 1.403 1_655 S
C380 C379 1.403 1_455 S
C380 C381 1.404 1_455 S
C380 C383 1.539 . S
C381 C377 1.408 . S
C381 C380 1.404 1_655 S
C381 H393 0.930 1_655 S
C382 C378 1.524 . S
C382 H394 0.956 . S
C382 H395 0.961 . S
C382 H396 0.961 . S
C383 C380 1.539 . S
C383 H397 0.958 . S
C383 H398 0.961 . S
C383 H399 0.960 . S
H384 C368 0.931 . S
H385 C373 0.929 . S
H386 C374 0.960 . S
H387 C374 0.962 1_655 S
H388 C374 0.960 . S
H389 C375 0.961 . S
H390 C375 0.961 1_655 S
H391 C375 0.961 . S
H392 C376 0.931 . S
H393 C381 0.930 1_455 S
H394 C382 0.956 . S
H395 C382 0.961 . S
H396 C382 0.961 . S
H397 C383 0.958 . S
H398 C383 0.961 . S
H399 C383 0.960 . S
C400 C401 1.391 . S
C400 C402 1.394 1_565 S
C400 H416 0.931 . S
C401 C400 1.391 . S
C401 C405 1.376 . S
C402 C400 1.394 1_545 S
C402 C403 1.369 . S
C402 C406 1.531 . S
C403 C402 1.369 . S
C403 C404 1.410 1_545 S
C403 C411 1.503 . S
C404 C403 1.410 1_565 S
C404 C405 1.392 . S
C404 C407 1.511 . S
C405 C401 1.376 . S
C405 C404 1.392 . S
C405 H417 0.929 . S
C406 C402 1.531 . S
C406 H418 0.960 . S
C406 H419 0.962 1_545 S
C406 H420 0.960 . S
C407 C404 1.511 . S
C407 H421 0.961 . S
C407 H422 0.961 . S
C407 H423 0.961 1_565 S
C408 C409 1.370 1_565 S
C408 C410 1.363 . S
C408 H424 0.931 . S
C409 C408 1.370 1_545 S
C409 C413 1.408 . S
C410 C408 1.363 . S
C410 C411 1.370 1_565 S
C410 C414 1.524 . S
C411 C403 1.503 . S
C411 C410 1.370 1_545 S
C411 C412 1.403 . S
C412 C411 1.403 . S
C412 C413 1.404 . S
C412 C415 1.539 . S
C413 C409 1.408 . S
C413 C412 1.404 . S
C413 H425 0.930 . S
C414 C410 1.524 . S
C414 H426 0.956 . S
C414 H427 0.961 . S
C414 H428 0.961 . S
C415 C412 1.539 . S
C415 H429 0.958 . S
C415 H430 0.961 . S
C415 H431 0.960 . S
H416 C400 0.931 . S
H417 C405 0.929 . S
H418 C406 0.960 . S
H419 C406 0.962 1_565 S
H420 C406 0.960 . S
H421 C407 0.961 . S
H422 C407 0.961 . S
H423 C407 0.961 1_545 S
H424 C408 0.931 . S
H425 C413 0.930 . S
H426 C414 0.956 . S
H427 C414 0.961 . S
H428 C414 0.961 . S
H429 C415 0.958 . S
H430 C415 0.961 . S
H431 C415 0.960 . S
C432 C433 1.391 . S
C432 C434 1.394 . S
C432 H448 0.931 . S
C433 C432 1.391 . S
C433 C437 1.376 . S
C434 C432 1.394 . S
C434 C435 1.369 . S
C434 C438 1.531 1_554 S
C435 C434 1.369 . S
C435 C436 1.410 . S
C435 C443 1.503 1_554 S
C436 C435 1.410 . S
C436 C437 1.392 . S
C436 C439 1.511 . S
C437 C433 1.376 . S
C437 C436 1.392 . S
C437 H449 0.929 . S
C438 C434 1.531 1_556 S
C438 H450 0.960 . S
C438 H451 0.962 . S
C438 H452 0.960 . S
C439 C436 1.511 . S
C439 H453 0.961 . S
C439 H454 0.961 . S
C439 H455 0.961 . S
C440 C441 1.370 . S
C440 C442 1.363 . S
C440 H456 0.931 . S
C441 C440 1.370 . S
C441 C445 1.408 . S
C442 C440 1.363 . S
C442 C443 1.370 . S
C442 C446 1.524 . S
C443 C435 1.503 1_556 S
C443 C442 1.370 . S
C443 C444 1.403 . S
C444 C443 1.403 . S
C444 C445 1.404 . S
C444 C447 1.539 1_556 S
C445 C441 1.408 . S
C445 C444 1.404 . S
C445 H457 0.930 . S
C446 C442 1.524 . S
C446 H458 0.956 . S
C446 H459 0.961 . S
C446 H460 0.961 . S
C447 C444 1.539 1_554 S
C447 H461 0.958 1_554 S
C447 H462 0.961 . S
C447 H463 0.960 . S
H448 C432 0.931 . S
H449 C437 0.929 . S
H450 C438 0.960 . S
H451 C438 0.962 . S
H452 C438 0.960 . S
H453 C439 0.961 . S
H454 C439 0.961 . S
H455 C439 0.961 . S
H456 C440 0.931 . S
H457 C445 0.930 . S
H458 C446 0.956 . S
H459 C446 0.961 . S
H460 C446 0.961 . S
H461 C447 0.958 1_556 S
H462 C447 0.961 . S
H463 C447 0.960 . S
C464 C465 1.391 . S
C464 C466 1.394 . S
C464 H480 0.931 . S
C465 C464 1.391 . S
C465 C469 1.376 1_565 S
C466 C464 1.394 . S
C466 C467 1.369 . S
C466 C470 1.531 1_455 S
C467 C466 1.369 . S
C467 C468 1.410 1_565 S
C467 C475 1.503 1_466 S
C468 C467 1.410 1_545 S
C468 C469 1.392 . S
C468 C471 1.511 . S
C469 C465 1.376 1_545 S
C469 C468 1.392 . S
C469 H481 0.929 . S
C470 C466 1.531 1_655 S
C470 H482 0.960 1_556 S
C470 H483 0.962 . S
C470 H484 0.960 . S
C471 C468 1.511 . S
C471 H485 0.961 . S
C471 H486 0.961 . S
C471 H487 0.962 1_556 S
C472 C473 1.370 . S
C472 C474 1.363 . S
C472 H488 0.931 . S
C473 C472 1.370 . S
C473 C477 1.408 . S
C474 C472 1.363 . S
C474 C475 1.370 . S
C474 C478 1.524 1_554 S
C475 C467 1.503 1_644 S
C475 C474 1.370 . S
C475 C476 1.404 1_655 S
C476 C475 1.404 1_455 S
C476 C477 1.410 1_455 S
C476 C479 1.533 1_545 S
C477 C473 1.408 . S
C477 C476 1.410 1_655 S
C477 H489 0.930 . S
C478 C474 1.524 1_556 S
C478 H490 0.956 1_545 S
C478 H491 0.961 . S
C478 H492 0.961 . S
C479 C476 1.533 1_565 S
C479 H493 0.958 . S
C479 H494 0.970 . S
C479 H495 0.960 . S
H480 C464 0.931 . S
H481 C469 0.929 . S
H482 C470 0.960 1_554 S
H483 C470 0.962 . S
H484 C470 0.960 . S
H485 C471 0.961 . S
H486 C471 0.961 . S
H487 C471 0.962 1_554 S
H488 C472 0.931 . S
H489 C477 0.930 . S
H490 C478 0.956 1_565 S
H491 C478 0.961 . S
H492 C478 0.961 . S
H493 C479 0.958 . S
H494 C479 0.970 . S
H495 C479 0.960 . S
C496 C497 1.391 . S
C496 C498 1.394 . S
C496 H512 0.931 . S
C497 C496 1.391 . S
C497 C501 1.376 . S
C498 C496 1.394 . S
C498 C499 1.369 . S
C498 C502 1.531 . S
C499 C498 1.369 . S
C499 C500 1.410 . S
C499 C507 1.503 . S
C500 C499 1.410 . S
C500 C501 1.392 . S
C500 C503 1.511 . S
C501 C497 1.376 . S
C501 C500 1.392 . S
C501 H513 0.929 . S
C502 C498 1.531 . S
C502 H514 0.960 . S
C502 H515 0.962 . S
C502 H516 0.960 . S
C503 C500 1.511 . S
C503 H517 0.961 . S
C503 H518 0.961 . S
C503 H519 0.961 . S
C504 C505 1.370 . S
C504 C506 1.363 . S
C504 H520 0.931 . S
C505 C504 1.370 . S
C505 C509 1.408 . S
C506 C504 1.363 . S
C506 C507 1.370 . S
C506 C510 1.524 . S
C507 C499 1.503 . S
C507 C506 1.370 . S
C507 C508 1.403 . S
C508 C507 1.403 . S
C508 C509 1.404 . S
C508 C511 1.539 . S
C509 C505 1.408 . S
C509 C508 1.404 . S
C509 H521 0.930 . S
C510 C506 1.524 . S
C510 H522 0.956 . S
C510 H523 0.961 . S
C510 H524 0.961 . S
C511 C508 1.539 . S
C511 H525 0.958 . S
C511 H526 0.961 . S
C511 H527 0.960 . S
H512 C496 0.931 . S
H513 C501 0.929 . S
H514 C502 0.960 . S
H515 C502 0.962 . S
H516 C502 0.960 . S
H517 C503 0.961 . S
H518 C503 0.961 . S
H519 C503 0.961 . S
H520 C504 0.931 . S
H521 C509 0.930 . S
H522 C510 0.956 . S
H523 C510 0.961 . S
H524 C510 0.961 . S
H525 C511 0.958 . S
H526 C511 0.961 . S
H527 C511 0.960 . S
C528 C529 1.391 . S
C528 C530 1.394 . S
C528 H544 0.931 . S
C529 C528 1.391 . S
C529 C533 1.376 . S
C530 C528 1.394 . S
C530 C531 1.369 . S
C530 C534 1.531 . S
C531 C530 1.369 . S
C531 C532 1.410 . S
C531 C539 1.503 . S
C532 C531 1.410 . S
C532 C533 1.392 . S
C532 C535 1.511 . S
C533 C529 1.376 . S
C533 C532 1.392 . S
C533 H545 0.929 . S
C534 C530 1.531 . S
C534 H546 0.960 . S
C534 H547 0.962 . S
C534 H548 0.960 . S
C535 C532 1.511 . S
C535 H549 0.961 . S
C535 H550 0.961 . S
C535 H551 0.961 . S
C536 C537 1.370 . S
C536 C538 1.363 . S
C536 H552 0.931 . S
C537 C536 1.370 . S
C537 C541 1.408 . S
C538 C536 1.363 . S
C538 C539 1.370 . S
C538 C542 1.524 . S
C539 C531 1.503 . S
C539 C538 1.370 . S
C539 C540 1.403 . S
C540 C539 1.403 . S
C540 C541 1.404 . S
C540 C543 1.539 . S
C541 C537 1.408 . S
C541 C540 1.404 . S
C541 H553 0.930 . S
C542 C538 1.524 . S
C542 H554 0.956 . S
C542 H555 0.961 . S
C542 H556 0.961 . S
C543 C540 1.539 . S
C543 H557 0.958 . S
C543 H558 0.961 . S
C543 H559 0.960 . S
H544 C528 0.931 . S
H545 C533 0.929 . S
H546 C534 0.960 . S
H547 C534 0.962 . S
H548 C534 0.960 . S
H549 C535 0.961 . S
H550 C535 0.961 . S
H551 C535 0.961 . S
H552 C536 0.931 . S
H553 C541 0.930 . S
H554 C542 0.956 . S
H555 C542 0.961 . S
H556 C542 0.961 . S
H557 C543 0.958 . S
H558 C543 0.961 . S
H559 C543 0.960 . S
C560 C561 1.391 . S
C560 C562 1.394 . S
C560 H576 0.931 . S
C561 C560 1.391 . S
C561 C565 1.376 . S
C562 C560 1.394 . S
C562 C563 1.369 . S
C562 C566 1.531 . S
C563 C562 1.369 . S
C563 C564 1.410 . S
C563 C571 1.503 . S
C564 C563 1.410 . S
C564 C565 1.392 . S
C564 C567 1.511 . S
C565 C561 1.376 . S
C565 C564 1.392 . S
C565 H577 0.929 . S
C566 C562 1.531 . S
C566 H578 0.960 . S
C566 H579 0.962 . S
C566 H580 0.960 . S
C567 C564 1.511 . S
C567 H581 0.961 . S
C567 H582 0.961 . S
C567 H583 0.961 . S
C568 C569 1.370 . S
C568 C570 1.363 . S
C568 H584 0.931 . S
C569 C568 1.370 . S
C569 C573 1.408 . S
C570 C568 1.363 . S
C570 C571 1.370 . S
C570 C574 1.524 . S
C571 C563 1.503 . S
C571 C570 1.370 . S
C571 C572 1.403 . S
C572 C571 1.403 . S
C572 C573 1.404 . S
C572 C575 1.539 . S
C573 C569 1.408 . S
C573 C572 1.404 . S
C573 H585 0.930 . S
C574 C570 1.524 . S
C574 H586 0.956 . S
C574 H587 0.961 . S
C574 H588 0.961 . S
C575 C572 1.539 . S
C575 H589 0.958 . S
C575 H590 0.961 . S
C575 H591 0.960 . S
H576 C560 0.931 . S
H577 C565 0.929 . S
H578 C566 0.960 . S
H579 C566 0.962 . S
H580 C566 0.960 . S
H581 C567 0.961 . S
H582 C567 0.961 . S
H583 C567 0.961 . S
H584 C568 0.931 . S
H585 C573 0.930 . S
H586 C574 0.956 . S
H587 C574 0.961 . S
H588 C574 0.961 . S
H589 C575 0.958 . S
H590 C575 0.961 . S
H591 C575 0.960 . S
C592 C593 1.391 . S
C592 C594 1.394 . S
C592 H608 0.931 . S
C593 C592 1.391 . S
C593 C597 1.376 . S
C594 C592 1.394 . S
C594 C595 1.369 . S
C594 C598 1.531 . S
C595 C594 1.369 . S
C595 C596 1.410 . S
C595 C603 1.503 . S
C596 C595 1.410 . S
C596 C597 1.392 . S
C596 C599 1.511 . S
C597 C593 1.376 . S
C597 C596 1.392 . S
C597 H609 0.929 . S
C598 C594 1.531 . S
C598 H610 0.960 . S
C598 H611 0.962 . S
C598 H612 0.960 . S
C599 C596 1.511 . S
C599 H613 0.961 . S
C599 H614 0.961 . S
C599 H615 0.961 . S
C600 C601 1.370 . S
C600 C602 1.363 . S
C600 H616 0.931 . S
C601 C600 1.370 . S
C601 C605 1.408 . S
C602 C600 1.363 . S
C602 C603 1.370 . S
C602 C606 1.524 . S
C603 C595 1.503 . S
C603 C602 1.370 . S
C603 C604 1.403 . S
C604 C603 1.403 . S
C604 C605 1.404 . S
C604 C607 1.539 . S
C605 C601 1.408 . S
C605 C604 1.404 . S
C605 H617 0.930 . S
C606 C602 1.524 . S
C606 H618 0.956 . S
C606 H619 0.961 . S
C606 H620 0.961 . S
C607 C604 1.539 . S
C607 H621 0.958 . S
C607 H622 0.961 . S
C607 H623 0.960 . S
H608 C592 0.931 . S
H609 C597 0.929 . S
H610 C598 0.960 . S
H611 C598 0.962 . S
H612 C598 0.960 . S
H613 C599 0.961 . S
H614 C599 0.961 . S
H615 C599 0.961 . S
H616 C600 0.931 . S
H617 C605 0.930 . S
H618 C606 0.956 . S
H619 C606 0.961 . S
H620 C606 0.961 . S
H621 C607 0.958 . S
H622 C607 0.961 . S
H623 C607 0.960 . S
C113 C12 1.143 . S
C121 C32 1.119 . S
C145 C46 1.134 . S
C153 C26 1.150 . S
C177 C40 1.139 . S
C185 C4 1.123 . S
C209 C54 1.131 . S
C217 C18 1.133 . S
C241 C88 1.105 . S
C249 C68 1.152 . S
C273 C82 1.161 . S
C281 C102 1.108 . S
C305 C96 1.160 . S
C313 C60 1.110 . S
C337 C110 1.157 . S
C345 C74 1.114 . S
C369 C5 1.329 . S
C377 C61 1.398 . S
C401 C19 1.380 . S
C409 C75 1.380 . S
C433 C33 1.408 . S
C441 C89 1.362 . S
C465 C103 1.323 . S
C473 C47 1.400 . S
C497 C11 1.465 . S
C505 C25 1.492 . S
C529 C53 1.468 . S
C537 C39 1.483 . S
C561 C81 1.513 . S
C569 C67 1.496 . S
C593 C95 1.467 . S
C601 C109 1.497 . S
