# Generated by pormake.
# Topology qtz-x, (6)-cn, num edge types: 1
# Building blocks:
#     Node 0, Type 0, BuildingBlock: INOVEN_clean_sbu_0, # of connection points: 6
#     Node 1, Type 0, BuildingBlock: INOVEN_clean_sbu_0, # of connection points: 6
#     Node 2, Type 0, BuildingBlock: INOVEN_clean_sbu_0, # of connection points: 6
#     Edge 3, Type (0, 0), BuildingBlock: CIFDUS_clean_linker_0, # of connection points: 2
#     Edge 4, Type (0, 0), BuildingBlock: CIFDUS_clean_linker_0, # of connection points: 2
#     Edge 5, Type (0, 0), BuildingBlock: CIFDUS_clean_linker_0, # of connection points: 2
#     Edge 6, Type (0, 0), BuildingBlock: CIFDUS_clean_linker_0, # of connection points: 2
#     Edge 7, Type (0, 0), BuildingBlock: CIFDUS_clean_linker_0, # of connection points: 2
#     Edge 8, Type (0, 0), BuildingBlock: CIFDUS_clean_linker_0, # of connection points: 2
#     Edge 9, Type (0, 0), BuildingBlock: CIFDUS_clean_linker_0, # of connection points: 2
#     Edge 10, Type (0, 0), BuildingBlock: CIFDUS_clean_linker_0, # of connection points: 2
#     Edge 11, Type (0, 0), BuildingBlock: CIFDUS_clean_linker_0, # of connection points: 2
# Relax obj value: 0.262
# Max RMSD: 0.285
# Mean RMSD: 0.253
data_MOF--net-qtz-x--node1-INOVEN_clean_sbu_0--edge1-CIFDUS_clean_linker_0
_symmetry_space_group_name_H-M    P1
_symmetry_Int_Tables_number       1
_symmetry_cell_setting            triclinic
loop_
_symmetry_equiv_pos_as_xyz
'x, y, z'
_cell_length_a     12.993457
_cell_length_b     12.869385
_cell_length_c     47.764297
_cell_angle_alpha  66.847966
_cell_angle_beta   116.47979
_cell_angle_gamma 121.58684
loop_
_atom_site_label
_atom_site_type_symbol
_atom_site_fract_x
_atom_site_fract_y
_atom_site_fract_z
_atom_type_partial_charge
Gd0 Gd 1.03583 0.64462 0.19452 0.0
Gd1 Gd 0.29656 0.81948 0.18439 0.0
C2 C 0.29165 0.73894 0.25574 0.0
C3 C 0.85557 0.46547 0.21854 0.0
C4 C 0.83984 0.41298 0.25093 0.0
C5 C 0.71878 0.35746 0.25437 0.0
C6 C 0.94497 0.42043 0.27862 0.0
C7 C 0.80914 0.3233 0.31256 0.0
C8 C 0.93006 0.37765 0.30906 0.0
C9 C 0.70328 0.3119 0.28488 0.0
C10 C 0.0875 0.89197 0.17812 0.0
C11 C 1.05127 0.72181 0.12378 0.0
C12 C 0.47684 0.00845 0.16359 0.0
C13 C 0.52724 0.02294 0.13932 0.0
C14 C 0.56039 0.93194 0.1412 0.0
C15 C 0.5265 0.119 0.11191 0.0
C16 C 0.58156 0.02728 0.08767 0.0
C17 C 0.55326 0.12115 0.0863 0.0
C18 C 0.58741 0.93425 0.11572 0.0
C19 C 0.2499 0.57909 0.18887 0.0
O20 O 0.16999 0.66405 0.2451 0.0
O21 O 0.3606 0.81581 0.2363 0.0
O22 O 0.86253 0.57826 0.20532 0.0
O23 O 0.93735 0.44823 0.21406 0.0
O24 O 0.97805 0.80345 0.16745 0.0
O25 O 0.16608 0.84489 0.19709 0.0
O26 O 0.16354 0.81023 0.13446 0.0
O27 O 0.98274 0.6356 0.14303 0.0
O28 O 0.49785 0.92957 0.19073 0.0
O29 O 0.36049 -0.00129 0.15247 0.0
O30 O 0.3544 0.6765 0.18644 0.0
O31 O 0.1789 0.61492 0.19037 0.0
H32 H 0.63631 0.3501 0.23339 0.0
H33 H 1.03886 0.45953 0.27676 0.0
H34 H 1.01306 0.38585 0.32995 0.0
H35 H 0.60894 0.27031 0.28684 0.0
H36 H 0.56056 0.85571 0.16181 0.0
H37 H 0.50054 0.18979 0.10982 0.0
H38 H 0.54973 0.1951 0.06521 0.0
H39 H 0.60744 0.8597 0.1175 0.0
Gd40 Gd 0.9365 0.2261 0.56434 0.0
Gd41 Gd 0.8019 0.96752 0.55863 0.0
C42 C 0.89626 0.00571 0.62801 0.0
C43 C 1.03144 0.43522 0.58082 0.0
C44 C 1.05978 0.46369 0.61105 0.0
C45 C 0.1647 0.57216 0.62041 0.0
C46 C 0.99203 0.37501 0.6325 0.0
C47 C 0.1395 0.4979 0.67352 0.0
C48 C 1.03272 0.39042 0.66353 0.0
C49 C 0.20325 0.59012 0.65123 0.0
C50 C 0.08541 0.1405 0.56266 0.0
C51 C 0.83606 0.19115 0.49413 0.0
C52 C 0.71261 0.76484 0.53996 0.0
C53 C 0.63918 0.73431 0.50784 0.0
C54 C 0.52784 0.75276 0.48968 0.0
C55 C 0.68623 0.69683 0.49392 0.0
C56 C 0.51513 0.7019 0.44389 0.0
C57 C 0.62517 0.68126 0.46222 0.0
C58 C 0.46625 0.73609 0.45815 0.0
C59 C 0.65038 0.05165 0.55945 0.0
O60 O 0.90429 0.11889 0.61266 0.0
O61 O 0.87775 0.92883 0.61258 0.0
O62 O 0.10035 0.38645 0.58225 0.0
O63 O 0.91144 0.37838 0.56543 0.0
O64 O 0.08568 0.24906 0.54767 0.0
O65 O 1.00677 0.08104 0.57848 0.0
O66 O 0.80716 0.07186 0.50769 0.0
O67 O 0.87696 0.27269 0.51101 0.0
O68 O 0.65553 0.78103 0.55352 0.0
O69 O 0.83007 0.84837 0.54335 0.0
O70 O 0.6464 0.9412 0.57338 0.0
O71 O 0.7314 0.11242 0.54427 0.0
H72 H 0.21847 0.64151 0.60415 0.0
H73 H 0.90953 0.29172 0.6256 0.0
H74 H 0.98177 0.31579 0.67979 0.0
H75 H 0.28364 0.67575 0.65755 0.0
H76 H 0.48982 0.78333 0.49949 0.0
H77 H 0.77215 0.6826 0.50733 0.0
H78 H 0.66448 0.65381 0.45197 0.0
H79 H 0.38261 0.75414 0.44456 0.0
Gd80 Gd 0.85887 0.91318 0.86735 0.0
Gd81 Gd 1.02934 0.8053 0.88134 0.0
C82 C 0.98322 0.82218 0.94035 0.0
C83 C 0.6758 0.96989 0.85341 0.0
C84 C 0.62036 0.96531 0.87511 0.0
C85 C 0.59508 0.06494 0.87084 0.0
C86 C 0.60965 0.8703 0.90276 0.0
C87 C 0.5613 -0.01927 0.92303 0.0
C88 C 0.57999 0.87777 0.92641 0.0
C89 C 0.56516 0.07234 0.89457 0.0
C90 C 0.1069 0.07838 0.88101 0.0
C91 C 0.91149 0.90036 0.80755 0.0
C92 C 0.20659 0.73468 0.89945 0.0
C93 C 0.23539 0.68095 0.88307 0.0
C94 C 0.18547 0.55083 0.88745 0.0
C95 C 0.29819 0.75809 0.85984 0.0
C96 C 0.23911 0.5769 0.84175 0.0
C97 C 0.30113 0.70651 0.83958 0.0
C98 C 0.18571 0.49934 0.86667 0.0
C99 C 0.78047 0.64181 0.86735 0.0
O100 O 0.8784 0.83246 0.91976 0.0
O101 O 1.06665 0.83065 0.92996 0.0
O102 O 0.7931 0.05276 0.85633 0.0
O103 O 0.65671 0.86262 0.85111 0.0
O104 O 1.02568 0.06859 0.89167 0.0
O105 O 1.05346 0.00052 0.86352 0.0
O106 O 1.00111 0.86446 0.82865 0.0
O107 O 0.8399 0.91728 0.81687 0.0
O108 O 0.1013 0.66405 0.90704 0.0
O109 O 0.22312 0.85102 0.88755 0.0
O110 O 0.86156 0.65051 0.85684 0.0
O111 O 0.83509 0.71854 0.88519 0.0
H112 H 0.60415 0.13983 0.84986 0.0
H113 H 0.62897 0.79248 0.90674 0.0
H114 H 0.57551 0.8047 0.94783 0.0
H115 H 0.55199 0.15305 0.89144 0.0
H116 H 0.13799 0.48879 0.90544 0.0
H117 H 0.33789 0.85863 0.85587 0.0
H118 H 0.34216 0.76889 0.82044 0.0
H119 H 0.13712 0.39916 0.86883 0.0
H120 H 0.29357 0.08315 0.20793 0.0
H121 H 0.90586 -0.01908 0.14691 0.0
H122 H 0.91481 0.17545 0.14674 0.0
H123 H 1.03473 0.38098 0.16308 0.0
H124 H 0.4255 0.48642 0.22175 0.0
H125 H 0.41222 0.28671 0.22424 0.0
C126 C 0.21117 0.10353 0.19451 0.0
C127 C 0.0993 0.01611 0.1774 0.0
C128 C 0.21694 0.2173 0.19435 0.0
C129 C 0.99373 0.04547 0.16024 0.0
C130 C 0.99848 0.15727 0.16021 0.0
C131 C 0.1162 0.35927 0.17681 0.0
C132 C 0.23058 0.4489 0.19265 0.0
C133 C 0.10955 0.24451 0.17719 0.0
C134 C 0.33595 0.41957 0.20956 0.0
C135 C 0.32886 0.30524 0.21082 0.0
H136 H 0.46168 0.91688 0.58736 0.0
H137 H 0.62327 0.27001 0.52635 0.0
H138 H 0.46309 0.32749 0.52192 0.0
H139 H 0.27524 0.2765 0.535 0.0
H140 H 0.11467 0.92371 0.59626 0.0
H141 H 0.27571 0.86712 0.60093 0.0
C142 C 0.46204 0.00656 0.57306 0.0
C143 C 0.5547 0.08886 0.55707 0.0
C144 C 0.36919 0.03878 0.5706 0.0
C145 C 0.55343 0.20473 0.53882 0.0
C146 C 0.46152 0.23751 0.53627 0.0
C147 C 0.27519 0.18698 0.54936 0.0
C148 C 0.18227 0.10438 0.56527 0.0
C149 C 0.36856 0.15513 0.55195 0.0
C150 C 0.18438 -0.01097 0.58376 0.0
C151 C 0.27666 0.95664 0.58641 0.0
H152 H 0.25842 0.1614 0.84427 0.0
H153 H 0.23815 0.23897 0.92119 0.0
H154 H 0.44057 0.42326 0.92289 0.0
H155 H 0.6252 0.56322 0.90268 0.0
H156 H 0.64831 0.48247 0.82674 0.0
H157 H 0.44325 0.30116 0.82411 0.0
C158 C 0.29864 0.2185 0.86146 0.0
C159 C 0.23295 0.18655 0.88252 0.0
C160 C 0.41549 0.32493 0.86228 0.0
C161 C 0.28654 0.26153 0.90466 0.0
C162 C 0.40237 0.36718 0.90563 0.0
C163 C 0.58499 0.50617 0.88548 0.0
C164 C 0.6523 0.53631 0.86498 0.0
C165 C 0.46771 0.40021 0.8845 0.0
C166 C 0.59882 0.46121 0.84287 0.0
C167 C 0.48147 0.35727 0.84137 0.0
H168 H 0.70175 0.94813 0.9852 0.0
H169 H 0.39445 0.05291 0.92171 0.0
H170 H 0.37728 0.08273 0.9668 0.0
H171 H 0.44531 0.07107 1.02471 0.0
H172 H 0.75612 0.96971 0.08757 0.0
H173 H 0.77431 0.94365 1.04234 0.0
C174 C 0.63 0.97616 0.98127 0.0
C175 C 0.54851 -0.00288 0.95022 0.0
C176 C 0.62105 -0.00691 1.00723 0.0
C177 C 0.4583 0.03653 0.94538 0.0
C178 C 0.44837 0.05322 0.97116 0.0
C179 C 0.51847 0.04539 1.02845 0.0
C180 C 0.59891 0.02191 0.05959 0.0
C181 C 0.52899 0.03125 1.00224 0.0
C182 C 0.69179 -0.01333 0.06399 0.0
C183 C 0.70262 0.97217 1.03812 0.0
H184 H 0.70472 0.05653 0.44689 0.0
H185 H 0.96697 0.42656 0.46489 0.0
H186 H 0.98309 0.49894 0.4109 0.0
H187 H 0.9277 0.45699 0.35875 0.0
H188 H 0.65634 0.09191 0.33901 0.0
H189 H 0.63795 0.01823 0.39313 0.0
C190 C 0.76444 0.15328 0.43889 0.0
C191 C 0.83448 0.23585 0.46008 0.0
C192 C 0.772 0.19523 0.40743 0.0
C193 C 0.91107 0.36101 0.44916 0.0
C194 C 0.921 0.40254 0.41826 0.0
C195 C 0.86464 0.3613 0.36636 0.0
C196 C 0.79435 0.27974 0.34502 0.0
C197 C 0.85282 0.32041 0.39727 0.0
C198 C 0.7114 0.15647 0.355 0.0
C199 C 0.70117 0.11427 0.38597 0.0
H200 H 0.97541 0.80752 0.77783 0.0
H201 H 0.81025 0.05425 0.75862 0.0
H202 H 0.79156 0.10756 0.702 0.0
H203 H 0.82396 0.08672 0.65785 0.0
H204 H 0.97919 0.83363 0.67567 0.0
H205 H 0.99808 0.77877 0.73263 0.0
C206 C 0.93492 0.87267 0.76123 0.0
C207 C 0.89455 0.92697 0.77269 0.0
C208 C 0.92239 0.90156 0.72836 0.0
C209 C 0.84137 0.01035 0.75065 0.0
C210 C 0.83105 0.04129 0.71819 0.0
C211 C 0.86281 0.02014 0.67418 0.0
C212 C 0.90198 0.96591 0.66243 0.0
C213 C 0.87171 -0.01198 0.70678 0.0
C214 C 0.94854 0.87704 0.68394 0.0
C215 C 0.95972 0.84601 0.71658 0.0
H216 H 0.81809 0.74301 0.97369 0.0
H217 H 0.21138 0.86022 0.98622 0.0
H218 H 0.26379 0.83636 0.04337 0.0
H219 H 0.20125 0.78601 0.0898 0.0
H220 H 0.80928 0.65806 0.08005 0.0
H221 H 0.75262 0.68047 1.02204 0.0
C222 C 0.91517 0.76326 0.98896 0.0
C223 C 1.0109 0.8046 0.97539 0.0
C224 C 0.94475 0.74656 1.02237 0.0
C225 C 0.13584 0.82896 0.99572 0.0
C226 C 0.16606 0.81514 1.02854 0.0
C227 C 0.10297 0.7623 0.07507 0.0
C228 C 1.00964 0.72097 0.08927 0.0
C229 C 1.07164 0.77441 1.04209 0.0
C230 C 0.88278 0.68925 0.06982 0.0
C231 C 0.85074 0.70292 1.03661 0.0
H232 H 0.17574 0.63774 0.30192 0.0
H233 H 0.54453 0.84554 0.28765 0.0
H234 H 0.64564 0.84979 0.34441 0.0
H235 H 0.63008 0.7959 0.39819 0.0
H236 H 0.26187 0.58875 0.41263 0.0
H237 H 0.16016 0.58162 0.35587 0.0
C238 C 0.27821 0.68223 0.31125 0.0
C239 C 0.35205 0.73978 0.29045 0.0
C240 C 0.33611 0.68436 0.34404 0.0
C241 C 0.48491 0.80013 0.30299 0.0
C242 C 0.54311 0.80242 0.33553 0.0
C243 C 0.52768 0.74774 0.38899 0.0
C244 C 0.45381 0.69257 0.40966 0.0
C245 C 0.46974 0.74472 0.35628 0.0
C246 C 0.32095 0.63268 0.39721 0.0
C247 C 0.26271 0.62824 0.36476 0.0
H248 H 0.39878 0.63054 0.81046 0.0
H249 H 1.01035 0.41389 0.81163 0.0
H250 H 0.94655 0.36702 0.76021 0.0
H251 H 0.99484 0.41115 0.71216 0.0
H252 H 0.38394 0.61739 0.7109 0.0
H253 H 0.45224 0.64978 0.76452 0.0
C254 C 0.30066 0.57151 0.79959 0.0
C255 C 0.20934 0.52675 0.81467 0.0
C256 C 0.2638 0.54656 0.7696 0.0
C257 C 0.08281 0.44871 0.80068 0.0
C258 C 1.04577 0.42324 0.77103 0.0
C259 C 0.09524 0.46037 0.72365 0.0
C260 C 0.1833 0.51287 0.70695 0.0
C261 C 0.13465 0.47521 0.75483 0.0
C262 C 0.31273 0.57887 0.72252 0.0
C263 C 0.35244 0.59621 0.75344 0.0
loop_
_geom_bond_atom_site_label_1
_geom_bond_atom_site_label_2
_geom_bond_distance
_geom_bond_site_symmetry_2
_ccdc_geom_bond_type
Gd0 C3 2.818 . S
Gd0 O20 2.377 1_655 S
Gd0 O22 2.448 . S
Gd0 O23 2.506 . S
Gd0 O24 2.435 . S
Gd0 O25 2.717 1_655 S
Gd0 O27 2.395 . S
Gd0 O31 2.327 . S
Gd1 C12 2.818 . S
Gd1 O21 2.395 . S
Gd1 O25 2.327 . S
Gd1 O26 2.377 1_455 S
Gd1 O28 2.448 . S
Gd1 O29 2.506 . S
Gd1 O30 2.435 . S
Gd1 O31 2.717 1_455 S
C2 O20 1.240 . S
C2 O21 1.240 . S
C3 Gd0 2.818 . S
C3 C4 1.510 . S
C3 O22 1.249 . S
C3 O23 1.252 . S
C4 C3 1.510 . S
C4 C5 1.404 . S
C4 C6 1.352 . S
C5 C4 1.404 . S
C5 C9 1.389 . S
C5 H32 0.930 . S
C6 C4 1.352 . S
C6 C8 1.374 . S
C6 H33 0.931 . S
C7 C8 1.359 . S
C7 C9 1.364 . S
C8 C6 1.374 . S
C8 C7 1.359 . S
C8 H34 0.931 . S
C9 C5 1.389 . S
C9 C7 1.364 . S
C9 H35 0.931 . S
C10 O24 1.256 . S
C10 O25 1.257 1_655 S
C11 O26 1.240 . S
C11 O27 1.240 . S
C12 Gd1 2.818 . S
C12 C13 1.510 . S
C12 O28 1.249 . S
C12 O29 1.252 . S
C13 C12 1.510 . S
C13 C14 1.404 . S
C13 C15 1.352 1_565 S
C14 C13 1.404 . S
C14 C18 1.389 . S
C14 H36 0.930 . S
C15 C13 1.352 1_545 S
C15 C17 1.374 . S
C15 H37 0.931 . S
C16 C17 1.359 . S
C16 C18 1.364 1_545 S
C17 C15 1.374 . S
C17 C16 1.359 . S
C17 H38 0.931 . S
C18 C14 1.389 . S
C18 C16 1.364 1_565 S
C18 H39 0.931 . S
C19 O30 1.256 . S
C19 O31 1.257 1_455 S
O20 Gd0 2.377 1_455 S
O20 C2 1.240 . S
O21 Gd1 2.395 . S
O21 C2 1.240 . S
O22 Gd0 2.448 . S
O22 C3 1.249 . S
O23 Gd0 2.506 . S
O23 C3 1.252 . S
O24 Gd0 2.435 . S
O24 C10 1.256 . S
O25 Gd0 2.717 1_455 S
O25 Gd1 2.327 . S
O25 C10 1.257 1_455 S
O26 Gd1 2.377 1_655 S
O26 C11 1.240 . S
O27 Gd0 2.395 . S
O27 C11 1.240 . S
O28 Gd1 2.448 . S
O28 C12 1.249 . S
O29 Gd1 2.506 . S
O29 C12 1.252 . S
O30 Gd1 2.435 . S
O30 C19 1.256 . S
O31 Gd0 2.327 . S
O31 Gd1 2.717 1_655 S
O31 C19 1.257 1_655 S
H32 C5 0.930 . S
H33 C6 0.931 . S
H34 C8 0.931 . S
H35 C9 0.931 . S
H36 C14 0.930 . S
H37 C15 0.931 . S
H38 C17 0.931 . S
H39 C18 0.931 . S
Gd40 C43 2.818 . S
Gd40 O60 2.377 . S
Gd40 O62 2.448 1_655 S
Gd40 O63 2.506 . S
Gd40 O64 2.435 1_655 S
Gd40 O65 2.717 1_545 S
Gd40 O67 2.395 . S
Gd40 O71 2.327 . S
Gd41 C52 2.818 . S
Gd41 O61 2.395 . S
Gd41 O65 2.327 . S
Gd41 O66 2.377 1_565 S
Gd41 O68 2.448 . S
Gd41 O69 2.506 . S
Gd41 O70 2.435 . S
Gd41 O71 2.717 1_565 S
C42 O60 1.240 1_565 S
C42 O61 1.240 . S
C43 Gd40 2.818 . S
C43 C44 1.510 1_655 S
C43 O62 1.249 1_655 S
C43 O63 1.252 . S
C44 C43 1.510 1_455 S
C44 C45 1.404 . S
C44 C46 1.352 1_455 S
C45 C44 1.404 . S
C45 C49 1.389 . S
C45 H72 0.930 . S
C46 C44 1.352 1_655 S
C46 C48 1.374 . S
C46 H73 0.931 . S
C47 C48 1.359 1_455 S
C47 C49 1.364 . S
C48 C46 1.374 . S
C48 C47 1.359 1_655 S
C48 H74 0.931 . S
C49 C45 1.389 . S
C49 C47 1.364 . S
C49 H75 0.931 . S
C50 O64 1.256 . S
C50 O65 1.257 1_445 S
C51 O66 1.240 . S
C51 O67 1.240 . S
C52 Gd41 2.818 . S
C52 C53 1.510 . S
C52 O68 1.249 . S
C52 O69 1.252 . S
C53 C52 1.510 . S
C53 C54 1.404 . S
C53 C55 1.352 . S
C54 C53 1.404 . S
C54 C58 1.389 . S
C54 H76 0.930 . S
C55 C53 1.352 . S
C55 C57 1.374 . S
C55 H77 0.931 . S
C56 C57 1.359 . S
C56 C58 1.364 . S
C57 C55 1.374 . S
C57 C56 1.359 . S
C57 H78 0.931 . S
C58 C54 1.389 . S
C58 C56 1.364 . S
C58 H79 0.931 . S
C59 O70 1.256 . S
C59 O71 1.257 1_565 S
O60 Gd40 2.377 . S
O60 C42 1.240 1_545 S
O61 Gd41 2.395 . S
O61 C42 1.240 . S
O62 Gd40 2.448 1_455 S
O62 C43 1.249 1_455 S
O63 Gd40 2.506 . S
O63 C43 1.252 . S
O64 Gd40 2.435 1_455 S
O64 C50 1.256 . S
O65 Gd40 2.717 1_565 S
O65 Gd41 2.327 . S
O65 C50 1.257 1_665 S
O66 Gd41 2.377 1_545 S
O66 C51 1.240 . S
O67 Gd40 2.395 . S
O67 C51 1.240 . S
O68 Gd41 2.448 . S
O68 C52 1.249 . S
O69 Gd41 2.506 . S
O69 C52 1.252 . S
O70 Gd41 2.435 . S
O70 C59 1.256 . S
O71 Gd40 2.327 . S
O71 Gd41 2.717 1_545 S
O71 C59 1.257 1_545 S
H72 C45 0.930 . S
H73 C46 0.931 . S
H74 C48 0.931 . S
H75 C49 0.931 . S
H76 C54 0.930 . S
H77 C55 0.931 . S
H78 C57 0.931 . S
H79 C58 0.931 . S
Gd80 C83 2.818 . S
Gd80 O100 2.377 . S
Gd80 O102 2.448 . S
Gd80 O103 2.506 . S
Gd80 O104 2.435 1_655 S
Gd80 O105 2.717 1_655 S
Gd80 O107 2.395 . S
Gd80 O111 2.327 1_545 S
Gd81 C92 2.818 . S
Gd81 O101 2.395 . S
Gd81 O105 2.327 1_565 S
Gd81 O106 2.377 1_455 S
Gd81 O108 2.448 . S
Gd81 O109 2.506 . S
Gd81 O110 2.435 1_455 S
Gd81 O111 2.717 1_455 S
C82 O100 1.240 1_465 S
C82 O101 1.240 . S
C83 Gd80 2.818 . S
C83 C84 1.510 . S
C83 O102 1.249 . S
C83 O103 1.252 . S
C84 C83 1.510 . S
C84 C85 1.404 . S
C84 C86 1.352 . S
C85 C84 1.404 . S
C85 C89 1.389 . S
C85 H112 0.930 . S
C86 C84 1.352 . S
C86 C88 1.374 . S
C86 H113 0.931 1_545 S
C87 C88 1.359 . S
C87 C89 1.364 . S
C88 C86 1.374 . S
C88 C87 1.359 . S
C88 H114 0.931 1_545 S
C89 C85 1.389 . S
C89 C87 1.364 . S
C89 H115 0.931 . S
C90 O104 1.256 . S
C90 O105 1.257 . S
C91 O106 1.240 1_545 S
C91 O107 1.240 . S
C92 Gd81 2.818 . S
C92 C93 1.510 . S
C92 O108 1.249 . S
C92 O109 1.252 . S
C93 C92 1.510 . S
C93 C94 1.404 . S
C93 C95 1.352 . S
C94 C93 1.404 . S
C94 C98 1.389 . S
C94 H116 0.930 . S
C95 C93 1.352 . S
C95 C97 1.374 . S
C95 H117 0.931 1_565 S
C96 C97 1.359 . S
C96 C98 1.364 . S
C97 C95 1.374 . S
C97 C96 1.359 . S
C97 H118 0.931 . S
C98 C94 1.389 . S
C98 C96 1.364 . S
C98 H119 0.931 . S
C99 O110 1.256 . S
C99 O111 1.257 . S
O100 Gd80 2.377 . S
O100 C82 1.240 1_645 S
O101 Gd81 2.395 . S
O101 C82 1.240 . S
O102 Gd80 2.448 . S
O102 C83 1.249 . S
O103 Gd80 2.506 . S
O103 C83 1.252 . S
O104 Gd80 2.435 1_455 S
O104 C90 1.256 . S
O105 Gd80 2.717 1_455 S
O105 Gd81 2.327 1_545 S
O105 C90 1.257 . S
O106 Gd81 2.377 1_655 S
O106 C91 1.240 1_565 S
O107 Gd80 2.395 . S
O107 C91 1.240 . S
O108 Gd81 2.448 . S
O108 C92 1.249 . S
O109 Gd81 2.506 . S
O109 C92 1.252 . S
O110 Gd81 2.435 1_655 S
O110 C99 1.256 . S
O111 Gd80 2.327 1_565 S
O111 Gd81 2.717 1_655 S
O111 C99 1.257 . S
H112 C85 0.930 . S
H113 C86 0.931 1_565 S
H114 C88 0.931 1_565 S
H115 C89 0.931 . S
H116 C94 0.930 . S
H117 C95 0.931 1_545 S
H118 C97 0.931 . S
H119 C98 0.931 . S
H120 C126 0.930 . S
H121 C129 0.930 1_565 S
H122 C130 0.930 . S
H123 C131 0.930 . S
H124 C134 0.930 . S
H125 C135 0.930 . S
C126 H120 0.930 . S
C126 C127 1.355 1_455 S
C126 C128 1.415 . S
C127 C126 1.355 1_655 S
C127 C129 1.419 . S
C128 C126 1.415 . S
C128 C133 1.425 1_455 S
C128 C135 1.409 . S
C129 H121 0.930 1_545 S
C129 C127 1.419 . S
C129 C130 1.362 . S
C130 H122 0.930 . S
C130 C129 1.362 . S
C130 C133 1.409 . S
C131 H123 0.930 . S
C131 C132 1.355 1_655 S
C131 C133 1.415 . S
C132 C131 1.355 1_455 S
C132 C134 1.419 . S
C133 C128 1.425 1_655 S
C133 C130 1.409 . S
C133 C131 1.415 . S
C134 H124 0.930 . S
C134 C132 1.419 . S
C134 C135 1.362 . S
C135 H125 0.930 . S
C135 C128 1.409 . S
C135 C134 1.362 . S
H136 C142 0.930 . S
H137 C145 0.930 . S
H138 C146 0.930 . S
H139 C147 0.930 . S
H140 C150 0.930 1_655 S
H141 C151 0.930 . S
C142 H136 0.930 . S
C142 C143 1.355 1_565 S
C142 C144 1.415 . S
C143 C142 1.355 1_545 S
C143 C145 1.419 . S
C144 C142 1.415 . S
C144 C149 1.425 1_565 S
C144 C151 1.409 . S
C145 H137 0.930 . S
C145 C143 1.419 . S
C145 C146 1.362 . S
C146 H138 0.930 . S
C146 C145 1.362 . S
C146 C149 1.409 . S
C147 H139 0.930 . S
C147 C148 1.355 . S
C147 C149 1.415 . S
C148 C147 1.355 . S
C148 C150 1.419 1_545 S
C149 C144 1.425 1_545 S
C149 C146 1.409 . S
C149 C147 1.415 . S
C150 H140 0.930 1_455 S
C150 C148 1.419 1_565 S
C150 C151 1.362 . S
C151 H141 0.930 . S
C151 C144 1.409 . S
C151 C150 1.362 . S
H152 C158 0.930 . S
H153 C161 0.930 . S
H154 C162 0.930 . S
H155 C163 0.930 . S
H156 C166 0.930 . S
H157 C167 0.930 . S
C158 H152 0.930 . S
C158 C159 1.355 . S
C158 C160 1.415 . S
C159 C158 1.355 . S
C159 C161 1.419 . S
C160 C158 1.415 . S
C160 C165 1.425 . S
C160 C167 1.409 . S
C161 H153 0.930 . S
C161 C159 1.419 . S
C161 C162 1.362 . S
C162 H154 0.930 . S
C162 C161 1.362 . S
C162 C165 1.409 . S
C163 H155 0.930 . S
C163 C164 1.355 . S
C163 C165 1.415 . S
C164 C163 1.355 . S
C164 C166 1.419 . S
C165 C160 1.425 . S
C165 C162 1.409 . S
C165 C163 1.415 . S
C166 H156 0.930 . S
C166 C164 1.419 . S
C166 C167 1.362 . S
C167 H157 0.930 . S
C167 C160 1.409 . S
C167 C166 1.362 . S
H168 C174 0.930 . S
H169 C177 0.930 . S
H170 C178 0.930 . S
H171 C179 0.930 . S
H172 C182 0.930 . S
H173 C183 0.930 . S
C174 H168 0.930 . S
C174 C175 1.355 . S
C174 C176 1.415 . S
C175 C174 1.355 . S
C175 C177 1.419 . S
C176 C174 1.415 . S
C176 C181 1.425 . S
C176 C183 1.409 1_556 S
C177 H169 0.930 . S
C177 C175 1.419 . S
C177 C178 1.362 . S
C178 H170 0.930 . S
C178 C177 1.362 . S
C178 C181 1.409 . S
C179 H171 0.930 . S
C179 C180 1.355 1_556 S
C179 C181 1.415 . S
C180 C179 1.355 1_554 S
C180 C182 1.419 . S
C181 C176 1.425 . S
C181 C178 1.409 . S
C181 C179 1.415 . S
C182 H172 0.930 . S
C182 C180 1.419 . S
C182 C183 1.362 . S
C183 H173 0.930 . S
C183 C176 1.409 1_554 S
C183 C182 1.362 . S
H184 C190 0.930 . S
H185 C193 0.930 . S
H186 C194 0.930 . S
H187 C195 0.930 . S
H188 C198 0.930 . S
H189 C199 0.930 . S
C190 H184 0.930 . S
C190 C191 1.355 . S
C190 C192 1.415 . S
C191 C190 1.355 . S
C191 C193 1.419 . S
C192 C190 1.415 . S
C192 C197 1.425 . S
C192 C199 1.409 . S
C193 H185 0.930 . S
C193 C191 1.419 . S
C193 C194 1.362 . S
C194 H186 0.930 . S
C194 C193 1.362 . S
C194 C197 1.409 . S
C195 H187 0.930 . S
C195 C196 1.355 . S
C195 C197 1.415 . S
C196 C195 1.355 . S
C196 C198 1.419 . S
C197 C192 1.425 . S
C197 C194 1.409 . S
C197 C195 1.415 . S
C198 H188 0.930 . S
C198 C196 1.419 . S
C198 C199 1.362 . S
C199 H189 0.930 . S
C199 C192 1.409 . S
C199 C198 1.362 . S
H200 C206 0.930 . S
H201 C209 0.930 . S
H202 C210 0.930 . S
H203 C211 0.930 . S
H204 C214 0.930 . S
H205 C215 0.930 1_455 S
C206 H200 0.930 . S
C206 C207 1.355 1_565 S
C206 C208 1.415 . S
C207 C206 1.355 1_545 S
C207 C209 1.419 . S
C208 C206 1.415 . S
C208 C213 1.425 . S
C208 C215 1.409 . S
C209 H201 0.930 . S
C209 C207 1.419 . S
C209 C210 1.362 . S
C210 H202 0.930 . S
C210 C209 1.362 . S
C210 C213 1.409 1_545 S
C211 H203 0.930 . S
C211 C212 1.355 . S
C211 C213 1.415 . S
C212 C211 1.355 . S
C212 C214 1.419 . S
C213 C208 1.425 . S
C213 C210 1.409 1_565 S
C213 C211 1.415 . S
C214 H204 0.930 . S
C214 C212 1.419 . S
C214 C215 1.362 . S
C215 H205 0.930 1_655 S
C215 C208 1.409 . S
C215 C214 1.362 . S
H216 C222 0.930 1_545 S
H217 C225 0.930 . S
H218 C226 0.930 . S
H219 C227 0.930 . S
H220 C230 0.930 . S
H221 C231 0.930 1_545 S
C222 H216 0.930 1_565 S
C222 C223 1.355 . S
C222 C224 1.415 . S
C223 C222 1.355 . S
C223 C225 1.419 . S
C224 C222 1.415 . S
C224 C229 1.425 . S
C224 C231 1.409 . S
C225 H217 0.930 . S
C225 C223 1.419 . S
C225 C226 1.362 . S
C226 H218 0.930 . S
C226 C225 1.362 . S
C226 C229 1.409 . S
C227 H219 0.930 . S
C227 C228 1.355 . S
C227 C229 1.415 1_554 S
C228 C227 1.355 . S
C228 C230 1.419 . S
C229 C224 1.425 . S
C229 C226 1.409 . S
C229 C227 1.415 1_556 S
C230 H220 0.930 . S
C230 C228 1.419 . S
C230 C231 1.362 1_554 S
C231 H221 0.930 1_565 S
C231 C224 1.409 . S
C231 C230 1.362 1_556 S
H232 C238 0.930 . S
H233 C241 0.930 . S
H234 C242 0.930 . S
H235 C243 0.930 . S
H236 C246 0.930 . S
H237 C247 0.930 . S
C238 H232 0.930 . S
C238 C239 1.355 . S
C238 C240 1.415 . S
C239 C238 1.355 . S
C239 C241 1.419 . S
C240 C238 1.415 . S
C240 C245 1.425 . S
C240 C247 1.409 . S
C241 H233 0.930 . S
C241 C239 1.419 . S
C241 C242 1.362 . S
C242 H234 0.930 . S
C242 C241 1.362 . S
C242 C245 1.409 . S
C243 H235 0.930 . S
C243 C244 1.355 . S
C243 C245 1.415 . S
C244 C243 1.355 . S
C244 C246 1.419 . S
C245 C240 1.425 . S
C245 C242 1.409 . S
C245 C243 1.415 . S
C246 H236 0.930 . S
C246 C244 1.419 . S
C246 C247 1.362 . S
C247 H237 0.930 . S
C247 C240 1.409 . S
C247 C246 1.362 . S
H248 C254 0.930 . S
H249 C257 0.930 . S
H250 C258 0.930 1_655 S
H251 C259 0.930 1_655 S
H252 C262 0.930 . S
H253 C263 0.930 . S
C254 H248 0.930 . S
C254 C255 1.355 . S
C254 C256 1.415 . S
C255 C254 1.355 . S
C255 C257 1.419 . S
C256 C254 1.415 . S
C256 C261 1.425 . S
C256 C263 1.409 . S
C257 H249 0.930 . S
C257 C255 1.419 . S
C257 C258 1.362 . S
C258 H250 0.930 1_455 S
C258 C257 1.362 . S
C258 C261 1.409 . S
C259 H251 0.930 1_455 S
C259 C260 1.355 . S
C259 C261 1.415 . S
C260 C259 1.355 . S
C260 C262 1.419 . S
C261 C256 1.425 . S
C261 C258 1.409 . S
C261 C259 1.415 . S
C262 H252 0.930 . S
C262 C260 1.419 . S
C262 C263 1.362 . S
C263 H253 0.930 . S
C263 C256 1.409 . S
C263 C262 1.362 . S
C127 C10 1.654 1_545 S
C132 C19 1.654 . S
C143 C59 1.794 1_545 S
C148 C50 1.794 . S
C159 C90 1.387 . S
C164 C99 1.387 . S
C175 C87 1.009 . S
C180 C16 1.020 . S
C191 C51 2.121 . S
C196 C7 2.043 . S
C207 C91 2.601 . S
C212 C42 2.589 . S
C223 C82 2.488 1_655 S
C228 C11 2.419 . S
C239 C2 1.894 . S
C244 C56 1.787 . S
C255 C96 0.995 . S
C260 C47 1.066 . S
