# Generated by pormake.
# Topology yfm, (5)-cn, num edge types: 1
# Building blocks:
#     Node 0, Type 0, BuildingBlock: XOMCOT_clean_sbu_0, # of connection points: 5
#     Node 1, Type 0, BuildingBlock: XOMCOT_clean_sbu_0, # of connection points: 5
#     Node 2, Type 0, BuildingBlock: XOMCOT_clean_sbu_0, # of connection points: 5
#     Node 3, Type 0, BuildingBlock: XOMCOT_clean_sbu_0, # of connection points: 5
#     Node 4, Type 0, BuildingBlock: XOMCOT_clean_sbu_0, # of connection points: 5
#     Node 5, Type 0, BuildingBlock: XOMCOT_clean_sbu_0, # of connection points: 5
#     Node 6, Type 0, BuildingBlock: XOMCOT_clean_sbu_0, # of connection points: 5
#     Node 7, Type 0, BuildingBlock: XOMCOT_clean_sbu_0, # of connection points: 5
#     Node 8, Type 0, BuildingBlock: XOMCOT_clean_sbu_0, # of connection points: 5
#     Node 9, Type 0, BuildingBlock: XOMCOT_clean_sbu_0, # of connection points: 5
#     Node 10, Type 0, BuildingBlock: XOMCOT_clean_sbu_0, # of connection points: 5
#     Node 11, Type 0, BuildingBlock: XOMCOT_clean_sbu_0, # of connection points: 5
#     Node 12, Type 0, BuildingBlock: XOMCOT_clean_sbu_0, # of connection points: 5
#     Node 13, Type 0, BuildingBlock: XOMCOT_clean_sbu_0, # of connection points: 5
#     Node 14, Type 0, BuildingBlock: XOMCOT_clean_sbu_0, # of connection points: 5
#     Node 15, Type 0, BuildingBlock: XOMCOT_clean_sbu_0, # of connection points: 5
#     Node 16, Type 0, BuildingBlock: XOMCOT_clean_sbu_0, # of connection points: 5
#     Node 17, Type 0, BuildingBlock: XOMCOT_clean_sbu_0, # of connection points: 5
#     Node 18, Type 0, BuildingBlock: XOMCOT_clean_sbu_0, # of connection points: 5
#     Node 19, Type 0, BuildingBlock: XOMCOT_clean_sbu_0, # of connection points: 5
#     Node 20, Type 0, BuildingBlock: XOMCOT_clean_sbu_0, # of connection points: 5
#     Node 21, Type 0, BuildingBlock: XOMCOT_clean_sbu_0, # of connection points: 5
#     Node 22, Type 0, BuildingBlock: XOMCOT_clean_sbu_0, # of connection points: 5
#     Node 23, Type 0, BuildingBlock: XOMCOT_clean_sbu_0, # of connection points: 5
#     Node 24, Type 0, BuildingBlock: XOMCOT_clean_sbu_0, # of connection points: 5
#     Node 25, Type 0, BuildingBlock: XOMCOT_clean_sbu_0, # of connection points: 5
#     Node 26, Type 0, BuildingBlock: XOMCOT_clean_sbu_0, # of connection points: 5
#     Node 27, Type 0, BuildingBlock: XOMCOT_clean_sbu_0, # of connection points: 5
#     Node 28, Type 0, BuildingBlock: XOMCOT_clean_sbu_0, # of connection points: 5
#     Node 29, Type 0, BuildingBlock: XOMCOT_clean_sbu_0, # of connection points: 5
#     Node 30, Type 0, BuildingBlock: XOMCOT_clean_sbu_0, # of connection points: 5
#     Node 31, Type 0, BuildingBlock: XOMCOT_clean_sbu_0, # of connection points: 5
#     Edge 32, Type (0, 0), BuildingBlock: UVAHIK_clean_linker_0, # of connection points: 2
#     Edge 33, Type (0, 0), BuildingBlock: UVAHIK_clean_linker_0, # of connection points: 2
#     Edge 34, Type (0, 0), BuildingBlock: UVAHIK_clean_linker_0, # of connection points: 2
#     Edge 35, Type (0, 0), BuildingBlock: UVAHIK_clean_linker_0, # of connection points: 2
#     Edge 36, Type (0, 0), BuildingBlock: UVAHIK_clean_linker_0, # of connection points: 2
#     Edge 37, Type (0, 0), BuildingBlock: UVAHIK_clean_linker_0, # of connection points: 2
#     Edge 38, Type (0, 0), BuildingBlock: UVAHIK_clean_linker_0, # of connection points: 2
#     Edge 39, Type (0, 0), BuildingBlock: UVAHIK_clean_linker_0, # of connection points: 2
#     Edge 40, Type (0, 0), BuildingBlock: UVAHIK_clean_linker_0, # of connection points: 2
#     Edge 41, Type (0, 0), BuildingBlock: UVAHIK_clean_linker_0, # of connection points: 2
#     Edge 42, Type (0, 0), BuildingBlock: UVAHIK_clean_linker_0, # of connection points: 2
#     Edge 43, Type (0, 0), BuildingBlock: UVAHIK_clean_linker_0, # of connection points: 2
#     Edge 44, Type (0, 0), BuildingBlock: UVAHIK_clean_linker_0, # of connection points: 2
#     Edge 45, Type (0, 0), BuildingBlock: UVAHIK_clean_linker_0, # of connection points: 2
#     Edge 46, Type (0, 0), BuildingBlock: UVAHIK_clean_linker_0, # of connection points: 2
#     Edge 47, Type (0, 0), BuildingBlock: UVAHIK_clean_linker_0, # of connection points: 2
#     Edge 48, Type (0, 0), BuildingBlock: UVAHIK_clean_linker_0, # of connection points: 2
#     Edge 49, Type (0, 0), BuildingBlock: UVAHIK_clean_linker_0, # of connection points: 2
#     Edge 50, Type (0, 0), BuildingBlock: UVAHIK_clean_linker_0, # of connection points: 2
#     Edge 51, Type (0, 0), BuildingBlock: UVAHIK_clean_linker_0, # of connection points: 2
#     Edge 52, Type (0, 0), BuildingBlock: UVAHIK_clean_linker_0, # of connection points: 2
#     Edge 53, Type (0, 0), BuildingBlock: UVAHIK_clean_linker_0, # of connection points: 2
#     Edge 54, Type (0, 0), BuildingBlock: UVAHIK_clean_linker_0, # of connection points: 2
#     Edge 55, Type (0, 0), BuildingBlock: UVAHIK_clean_linker_0, # of connection points: 2
#     Edge 56, Type (0, 0), BuildingBlock: UVAHIK_clean_linker_0, # of connection points: 2
#     Edge 57, Type (0, 0), BuildingBlock: UVAHIK_clean_linker_0, # of connection points: 2
#     Edge 58, Type (0, 0), BuildingBlock: UVAHIK_clean_linker_0, # of connection points: 2
#     Edge 59, Type (0, 0), BuildingBlock: UVAHIK_clean_linker_0, # of connection points: 2
#     Edge 60, Type (0, 0), BuildingBlock: UVAHIK_clean_linker_0, # of connection points: 2
#     Edge 61, Type (0, 0), BuildingBlock: UVAHIK_clean_linker_0, # of connection points: 2
#     Edge 62, Type (0, 0), BuildingBlock: UVAHIK_clean_linker_0, # of connection points: 2
#     Edge 63, Type (0, 0), BuildingBlock: UVAHIK_clean_linker_0, # of connection points: 2
#     Edge 64, Type (0, 0), BuildingBlock: UVAHIK_clean_linker_0, # of connection points: 2
#     Edge 65, Type (0, 0), BuildingBlock: UVAHIK_clean_linker_0, # of connection points: 2
#     Edge 66, Type (0, 0), BuildingBlock: UVAHIK_clean_linker_0, # of connection points: 2
#     Edge 67, Type (0, 0), BuildingBlock: UVAHIK_clean_linker_0, # of connection points: 2
#     Edge 68, Type (0, 0), BuildingBlock: UVAHIK_clean_linker_0, # of connection points: 2
#     Edge 69, Type (0, 0), BuildingBlock: UVAHIK_clean_linker_0, # of connection points: 2
#     Edge 70, Type (0, 0), BuildingBlock: UVAHIK_clean_linker_0, # of connection points: 2
#     Edge 71, Type (0, 0), BuildingBlock: UVAHIK_clean_linker_0, # of connection points: 2
#     Edge 72, Type (0, 0), BuildingBlock: UVAHIK_clean_linker_0, # of connection points: 2
#     Edge 73, Type (0, 0), BuildingBlock: UVAHIK_clean_linker_0, # of connection points: 2
#     Edge 74, Type (0, 0), BuildingBlock: UVAHIK_clean_linker_0, # of connection points: 2
#     Edge 75, Type (0, 0), BuildingBlock: UVAHIK_clean_linker_0, # of connection points: 2
#     Edge 76, Type (0, 0), BuildingBlock: UVAHIK_clean_linker_0, # of connection points: 2
#     Edge 77, Type (0, 0), BuildingBlock: UVAHIK_clean_linker_0, # of connection points: 2
#     Edge 78, Type (0, 0), BuildingBlock: UVAHIK_clean_linker_0, # of connection points: 2
#     Edge 79, Type (0, 0), BuildingBlock: UVAHIK_clean_linker_0, # of connection points: 2
#     Edge 80, Type (0, 0), BuildingBlock: UVAHIK_clean_linker_0, # of connection points: 2
#     Edge 81, Type (0, 0), BuildingBlock: UVAHIK_clean_linker_0, # of connection points: 2
#     Edge 82, Type (0, 0), BuildingBlock: UVAHIK_clean_linker_0, # of connection points: 2
#     Edge 83, Type (0, 0), BuildingBlock: UVAHIK_clean_linker_0, # of connection points: 2
#     Edge 84, Type (0, 0), BuildingBlock: UVAHIK_clean_linker_0, # of connection points: 2
#     Edge 85, Type (0, 0), BuildingBlock: UVAHIK_clean_linker_0, # of connection points: 2
#     Edge 86, Type (0, 0), BuildingBlock: UVAHIK_clean_linker_0, # of connection points: 2
#     Edge 87, Type (0, 0), BuildingBlock: UVAHIK_clean_linker_0, # of connection points: 2
#     Edge 88, Type (0, 0), BuildingBlock: UVAHIK_clean_linker_0, # of connection points: 2
#     Edge 89, Type (0, 0), BuildingBlock: UVAHIK_clean_linker_0, # of connection points: 2
#     Edge 90, Type (0, 0), BuildingBlock: UVAHIK_clean_linker_0, # of connection points: 2
#     Edge 91, Type (0, 0), BuildingBlock: UVAHIK_clean_linker_0, # of connection points: 2
#     Edge 92, Type (0, 0), BuildingBlock: UVAHIK_clean_linker_0, # of connection points: 2
#     Edge 93, Type (0, 0), BuildingBlock: UVAHIK_clean_linker_0, # of connection points: 2
#     Edge 94, Type (0, 0), BuildingBlock: UVAHIK_clean_linker_0, # of connection points: 2
#     Edge 95, Type (0, 0), BuildingBlock: UVAHIK_clean_linker_0, # of connection points: 2
#     Edge 96, Type (0, 0), BuildingBlock: UVAHIK_clean_linker_0, # of connection points: 2
#     Edge 97, Type (0, 0), BuildingBlock: UVAHIK_clean_linker_0, # of connection points: 2
#     Edge 98, Type (0, 0), BuildingBlock: UVAHIK_clean_linker_0, # of connection points: 2
#     Edge 99, Type (0, 0), BuildingBlock: UVAHIK_clean_linker_0, # of connection points: 2
#     Edge 100, Type (0, 0), BuildingBlock: UVAHIK_clean_linker_0, # of connection points: 2
#     Edge 101, Type (0, 0), BuildingBlock: UVAHIK_clean_linker_0, # of connection points: 2
#     Edge 102, Type (0, 0), BuildingBlock: UVAHIK_clean_linker_0, # of connection points: 2
#     Edge 103, Type (0, 0), BuildingBlock: UVAHIK_clean_linker_0, # of connection points: 2
#     Edge 104, Type (0, 0), BuildingBlock: UVAHIK_clean_linker_0, # of connection points: 2
#     Edge 105, Type (0, 0), BuildingBlock: UVAHIK_clean_linker_0, # of connection points: 2
#     Edge 106, Type (0, 0), BuildingBlock: UVAHIK_clean_linker_0, # of connection points: 2
#     Edge 107, Type (0, 0), BuildingBlock: UVAHIK_clean_linker_0, # of connection points: 2
#     Edge 108, Type (0, 0), BuildingBlock: UVAHIK_clean_linker_0, # of connection points: 2
#     Edge 109, Type (0, 0), BuildingBlock: UVAHIK_clean_linker_0, # of connection points: 2
#     Edge 110, Type (0, 0), BuildingBlock: UVAHIK_clean_linker_0, # of connection points: 2
#     Edge 111, Type (0, 0), BuildingBlock: UVAHIK_clean_linker_0, # of connection points: 2
# Relax obj value: 0.410
# Max RMSD: 0.216
# Mean RMSD: 0.216
data_MOF--net-yfm--node1-XOMCOT_clean_sbu_0--edge1-UVAHIK_clean_linker_0
_symmetry_space_group_name_H-M    P1
_symmetry_Int_Tables_number       1
_symmetry_cell_setting            triclinic
loop_
_symmetry_equiv_pos_as_xyz
'x, y, z'
_cell_length_a     86.930402
_cell_length_b     86.882676
_cell_length_c     58.214973
_cell_angle_alpha  89.974838
_cell_angle_beta   89.992441
_cell_angle_gamma 90.031889
loop_
_atom_site_label
_atom_site_type_symbol
_atom_site_fract_x
_atom_site_fract_y
_atom_site_fract_z
_atom_type_partial_charge
Co0 Co 0.2525 0.11853 0.06342 0.0
C1 C 0.26095 0.10751 0.01674 0.0
C2 C 0.24109 0.09558 0.02914 0.0
C3 C 0.24584 0.08878 0.00891 0.0
N4 N 0.25056 0.10742 0.03418 0.0
N5 N 0.25848 0.09618 1.0012 0.0
H6 H 0.27057 0.11535 0.01586 0.0
H7 H 0.23198 0.09133 0.03999 0.0
C8 C 0.22053 0.10507 0.07718 0.0
O9 O 0.21249 0.11287 0.06204 0.0
N10 N 0.25504 0.12937 0.09216 0.0
C11 C 0.26063 0.14374 0.0944 0.0
C12 C 0.26149 0.14725 0.11734 0.0
C13 C 0.25266 0.12425 0.11376 0.0
N14 N 0.25644 0.13503 0.1296 0.0
C15 C 0.24454 0.14311 0.03345 0.0
C16 C 0.22371 0.15708 0.06258 0.0
C17 C 0.22975 0.16576 0.04424 0.0
C18 C 0.23985 0.15824 0.02907 0.0
C19 C 0.22895 0.14207 0.0666 0.0
N20 N 0.23962 0.1354 0.0525 0.0
H21 H 0.25334 0.13818 0.02267 0.0
H22 H 0.22548 0.13639 0.08228 0.0
H23 H 0.26402 0.15109 0.08027 0.0
H24 H 0.24832 0.11289 0.11772 0.0
O25 O 0.27234 0.12668 0.05415 0.0
O26 O 0.26843 0.1045 0.0723 0.0
O27 O 0.23517 0.10634 0.07803 0.0
C28 C 0.27806 0.1144 0.06371 0.0
H29 H 0.24096 0.07848 1.00141 0.0
H30 H 0.2659 0.1579 0.12433 0.0
H31 H 0.21563 0.16208 0.07458 0.0
H32 H 0.2451 0.16428 0.01483 0.0
Co33 Co 0.13347 1.00174 0.31787 0.0
C34 C 0.1468 0.00899 0.27178 0.0
C35 C 0.16259 0.99693 0.29343 0.0
C36 C 0.17036 1.00195 0.27428 0.0
N37 N 0.14767 1.00098 0.29183 0.0
N38 N 0.1605 0.00968 0.26058 0.0
H39 H 0.1367 0.01522 0.26638 0.0
H40 H 0.16793 0.99206 0.30852 0.0
C41 C 0.14931 0.97042 0.32714 0.0
O42 O 0.14969 0.96638 0.3054 0.0
N43 N 0.11986 1.0031 0.34391 0.0
C44 C 0.10506 0.00764 0.34421 0.0
C45 C 0.10042 0.00893 0.36677 0.0
C46 C 0.12407 1.00183 0.36606 0.0
N47 N 0.11243 0.00534 0.3805 0.0
C48 C 0.10937 0.99722 0.28524 0.0
C49 C 0.09712 0.97146 0.30618 0.0
C50 C 0.08782 0.97977 0.2908 0.0
C51 C 0.09449 0.9924 0.27948 0.0
C52 C 0.11191 0.97676 0.31162 0.0
N53 N 0.11766 0.98988 0.30188 0.0
H54 H 0.11342 0.00789 0.27805 0.0
H55 H 0.11794 0.97114 0.32545 0.0
H56 H 0.09831 0.0104 0.32916 0.0
H57 H 0.13559 0.99881 0.37136 0.0
O58 O 0.12731 0.02244 0.30902 0.0
O59 O 0.14663 0.01645 0.33233 0.0
O60 O 0.1431 0.98311 0.33319 0.0
C61 C 0.1382 0.02699 0.32278 0.0
H62 H 0.18266 1.00112 0.27178 0.0
H63 H 0.08926 0.01287 0.37251 0.0
H64 H 0.09269 0.96145 0.31509 0.0
H65 H 0.08787 0.99939 0.26769 0.0
Co66 Co 0.25416 0.88253 0.56808 0.0
C67 C 0.24044 0.89745 0.52635 0.0
C68 C 0.26499 0.89544 0.52416 0.0
C69 C 0.25957 0.90164 0.50388 0.0
N70 N 0.25302 0.89281 0.53832 0.0
N71 N 0.24412 0.90291 0.50523 0.0
H72 H 0.22876 0.89643 0.53255 0.0
H73 H 0.27684 0.89271 0.52807 0.0
C74 C 0.28506 0.88919 0.58984 0.0
O75 O 0.28531 0.87536 0.59896 0.0
N76 N 0.25482 0.87211 0.5976 0.0
C77 C 0.25389 0.85684 0.60159 0.0
C78 C 0.25421 0.85436 0.62491 0.0
C79 C 0.25519 0.87872 0.61863 0.0
N80 N 0.25507 0.8681 0.63558 0.0
C81 C 0.25165 0.85462 0.54253 0.0
C82 C 0.2814 0.84431 0.54863 0.0
C83 C 0.27024 0.83391 0.54071 0.0
C84 C 0.2554 0.8395 0.5365 0.0
C85 C 0.27722 0.8595 0.55392 0.0
N86 N 0.26221 0.86409 0.55273 0.0
H87 H 0.23993 0.85837 0.54023 0.0
H88 H 0.28609 0.86725 0.5594 0.0
H89 H 0.25289 0.84803 0.58863 0.0
H90 H 0.25596 0.89101 0.62141 0.0
O91 O 0.23231 0.87775 0.56723 0.0
O92 O 0.2426 0.89884 0.58202 0.0
O93 O 0.27507 0.89256 0.57434 0.0
C94 C 0.2304 0.89054 0.57854 0.0
H95 H 0.26652 0.90493 0.48926 0.0
H96 H 0.25361 0.84328 0.63338 0.0
H97 H 0.29318 0.84063 0.55117 0.0
H98 H 0.24647 0.83198 0.52998 0.0
Co99 Co 0.37378 0.00526 0.81214 0.0
C100 C 0.3595 0.99276 0.76934 0.0
C101 C 0.35893 0.01741 0.77004 0.0
C102 C 0.35218 0.01238 0.74989 0.0
N103 N 0.36345 0.00509 0.78235 0.0
N104 N 0.35253 0.99683 0.74944 0.0
H105 H 0.36152 0.98097 0.77435 0.0
H106 H 0.36053 0.02925 0.77522 0.0
C107 C 0.3664 0.03492 0.83697 0.0
O108 O 0.38018 0.03488 0.84624 0.0
N109 N 0.38417 0.0048 0.84164 0.0
C110 C 0.3994 0.00339 0.84545 0.0
C111 C 0.40187 1.00204 0.86869 0.0
C112 C 0.37756 0.00393 0.86263 0.0
N113 N 0.38814 1.00241 0.87948 0.0
C114 C 0.40132 0.0047 0.78578 0.0
C115 C 0.41159 0.03408 0.79523 0.0
C116 C 0.42194 0.02349 0.78557 0.0
C117 C 0.41633 0.00886 0.77985 0.0
C118 C 0.39651 0.02947 0.80061 0.0
N119 N 0.39195 0.01454 0.79761 0.0
H120 H 0.39759 0.99316 0.78192 0.0
H121 H 0.3888 0.03793 0.80745 0.0
H122 H 0.40818 1.00306 0.83234 0.0
H123 H 0.36526 0.00424 0.86543 0.0
O124 O 0.37943 0.98376 0.80896 0.0
O125 O 0.3578 0.99236 0.82459 0.0
O126 O 0.36318 0.02554 0.82057 0.0
C127 C 0.36656 0.98076 0.81941 0.0
H128 H 0.34759 0.01968 0.73649 0.0
H129 H 0.41295 1.00093 0.87699 0.0
H130 H 0.41518 0.04575 0.79895 0.0
H131 H 0.42372 1.00031 0.77204 0.0
Co132 Co 0.24928 0.88537 0.94652 0.0
C133 C 0.25984 0.89734 0.99167 0.0
C134 C 0.2378 0.90658 0.98273 0.0
C135 C 0.24278 0.91351 1.00274 0.0
N136 N 0.24854 0.89646 0.97566 0.0
N137 N 0.25675 0.9078 0.00832 0.0
H138 H 0.27033 0.89071 0.99088 0.0
H139 H 0.22731 0.90928 0.97361 0.0
C140 C 0.22004 0.89102 0.91965 0.0
O141 O 0.22055 0.87683 0.91192 0.0
N142 N 0.25076 0.87436 0.91761 0.0
C143 C 0.25251 0.85909 0.91443 0.0
C144 C 0.25431 0.85628 0.89133 0.0
C145 C 0.25185 0.88064 0.89643 0.0
N146 N 0.25386 0.86984 0.88003 0.0
C147 C 0.24983 0.85778 0.97297 0.0
C148 C 0.22015 0.84803 0.96467 0.0
C149 C 0.23073 0.83746 0.97389 0.0
C150 C 0.24553 0.84284 0.97904 0.0
C151 C 0.22494 0.86302 0.95902 0.0
N152 N 0.23999 0.8673 0.96141 0.0
H153 H 0.2615 0.86125 0.9764 0.0
H154 H 0.21651 0.8709 0.95244 0.0
H155 H 0.25269 0.85051 0.92782 0.0
H156 H 0.25131 0.8929 0.89317 0.0
O157 O 0.27077 0.88034 0.9513 0.0
O158 O 0.26219 0.9014 0.9341 0.0
O159 O 0.229 0.89518 0.93611 0.0
C160 C 0.27382 0.89312 0.94066 0.0
H161 H 0.23683 0.92259 0.01179 0.0
H162 H 0.25573 0.84509 0.88348 0.0
H163 H 0.20835 0.84467 0.96144 0.0
H164 H 0.25413 0.83532 0.98645 0.0
Co165 Co 0.37304 0.00366 0.19128 0.0
C166 C 0.35839 0.01633 0.23382 0.0
C167 C 0.35847 0.99166 0.23347 0.0
C168 C 0.35176 0.9966 0.25365 0.0
N169 N 0.36256 0.00401 0.22092 0.0
N170 N 0.35169 0.01216 0.25392 0.0
H171 H 0.36013 0.02813 0.22865 0.0
H172 H 0.36042 0.97983 0.22847 0.0
C173 C 0.3654 0.97377 0.16699 0.0
O174 O 0.37927 0.97351 0.15801 0.0
N175 N 0.38361 0.00382 0.16189 0.0
C176 C 0.39892 0.00454 0.15824 0.0
C177 C 0.4016 0.00466 0.13497 0.0
C178 C 0.37718 0.00408 0.14074 0.0
N179 N 0.38795 0.00428 0.12399 0.0
C180 C 0.40076 0.00387 0.21736 0.0
C181 C 0.40978 0.97388 0.20965 0.0
C182 C 0.4206 0.9843 0.21859 0.0
C183 C 0.4156 0.99928 0.22345 0.0
C184 C 0.3949 0.97894 0.20402 0.0
N185 N 0.39097 0.99412 0.20612 0.0
H186 H 0.39753 0.01564 0.22058 0.0
H187 H 0.38682 0.97061 0.19773 0.0
H188 H 0.40763 0.00498 0.17144 0.0
H189 H 0.36491 0.00351 0.13771 0.0
O190 O 0.37902 0.02507 0.19443 0.0
O191 O 0.35739 0.01682 0.17845 0.0
O192 O 0.36215 0.98349 0.18294 0.0
C193 C 0.36633 0.02829 0.18367 0.0
H194 H 0.34758 0.98923 0.26727 0.0
H195 H 0.41277 0.00509 0.12677 0.0
H196 H 0.41285 0.96197 0.20665 0.0
H197 H 0.42336 0.00775 0.23068 0.0
Co198 Co 0.25535 0.12308 0.44165 0.0
C199 C 0.24167 0.10917 0.48405 0.0
C200 C 0.26567 0.10387 0.48076 0.0
C201 C 0.26002 0.09662 0.50009 0.0
N202 N 0.25415 0.11164 0.47049 0.0
N203 N 0.24492 0.09992 0.50216 0.0
H204 H 0.23032 0.11367 0.4805 0.0
H205 H 0.2774 0.10335 0.47466 0.0
C206 C 0.28619 0.11721 0.41909 0.0
O207 O 0.28656 0.13138 0.41123 0.0
N208 N 0.25593 0.13449 0.41298 0.0
C209 C 0.25394 0.14974 0.40998 0.0
C210 C 0.25363 0.15285 0.38682 0.0
C211 C 0.25641 0.12851 0.39157 0.0
N212 N 0.25524 0.13949 0.37522 0.0
C213 C 0.25298 0.15037 0.4686 0.0
C214 C 0.283 0.16026 0.46405 0.0
C215 C 0.27189 0.17077 0.47186 0.0
C216 C 0.25687 0.16533 0.47523 0.0
C217 C 0.27862 0.14527 0.45783 0.0
N218 N 0.26351 0.14093 0.45832 0.0
H219 H 0.24116 0.14681 0.47034 0.0
H220 H 0.2874 0.13748 0.45218 0.0
H221 H 0.25238 0.15808 0.42351 0.0
H222 H 0.25779 0.11635 0.38816 0.0
O223 O 0.23352 0.12788 0.44299 0.0
O224 O 0.2437 0.10731 0.42653 0.0
O225 O 0.2762 0.11333 0.43433 0.0
C226 C 0.23154 0.1155 0.43076 0.0
H227 H 0.26658 0.08949 0.51177 0.0
H228 H 0.25192 0.16408 0.37921 0.0
H229 H 0.29491 0.16369 0.46223 0.0
H230 H 0.24788 0.17285 0.48154 0.0
Co231 Co 0.1316 0.00418 0.69157 0.0
C232 C 0.14599 0.99227 0.73469 0.0
C233 C 0.15136 0.01606 0.72968 0.0
C234 C 0.15862 0.01098 0.74938 0.0
N235 N 0.14346 0.0043 0.72027 0.0
N236 N 0.15529 0.99595 0.75257 0.0
H237 H 0.14105 0.98099 0.7323 0.0
H238 H 0.15206 0.02755 0.72281 0.0
C239 C 0.14593 0.03624 0.67891 0.0
O240 O 0.13797 0.04456 0.69352 0.0
N241 N 0.11987 0.00355 0.66339 0.0
C242 C 0.1052 0.99874 0.66138 0.0
C243 C 0.10111 0.9992 0.63862 0.0
C244 C 0.12459 0.00672 0.64184 0.0
N245 N 0.11329 0.00424 0.62631 0.0
C246 C 0.10819 0.01153 0.72383 0.0
C247 C 0.09401 0.0336 0.69703 0.0
C248 C 0.08546 0.02672 0.71479 0.0
C249 C 0.09311 0.01608 0.72898 0.0
C250 C 0.10891 0.02848 0.69215 0.0
N251 N 0.11563 0.01713 0.70494 0.0
H252 H 0.11327 1.00226 0.73362 0.0
H253 H 0.11428 0.03244 0.6765 0.0
H254 H 0.09804 0.99501 0.67553 0.0
H255 H 0.13605 0.0107 0.63769 0.0
O256 O 0.12296 0.98416 0.69928 0.0
O257 O 0.14449 0.9883 0.67955 0.0
O258 O 0.14434 0.02162 0.67813 0.0
C259 C 0.13441 0.97861 0.68744 0.0
H260 H 0.16605 0.01786 0.76017 0.0
H261 H 0.09011 0.99569 0.63168 0.0
H262 H 0.08891 0.04216 0.68586 0.0
H263 H 0.08714 0.01028 0.74282 0.0
Co264 Co 0.75624 0.8823 0.94493 0.0
C265 C 0.74402 0.89578 0.98832 0.0
C266 C 0.76786 0.90121 0.98382 0.0
C267 C 0.76261 0.90836 1.00352 0.0
N268 N 0.75616 0.8934 0.97413 0.0
N269 N 0.74753 0.90501 0.00633 0.0
H270 H 0.73276 0.8909 0.98551 0.0
H271 H 0.77938 0.90197 0.9769 0.0
C272 C 0.78546 0.89019 0.9187 0.0
O273 O 0.78557 0.87644 0.90935 0.0
N274 N 0.75557 0.87119 0.91608 0.0
C275 C 0.75378 0.8559 0.91331 0.0
C276 C 0.75256 0.85277 0.89025 0.0
C277 C 0.75485 0.87719 0.89469 0.0
N278 N 0.75337 0.86615 0.87847 0.0
C279 C 0.75697 0.85559 0.97317 0.0
C280 C 0.7856 0.84493 0.96036 0.0
C281 C 0.77539 0.83474 0.97124 0.0
C282 C 0.76126 0.84056 0.97884 0.0
C283 C 0.78094 0.86004 0.95544 0.0
N284 N 0.76625 0.86474 0.95999 0.0
H285 H 0.74566 0.85948 0.97812 0.0
H286 H 0.7891 0.86759 0.94752 0.0
H287 H 0.75309 0.84756 0.92703 0.0
H288 H 0.75584 0.88938 0.89116 0.0
O289 O 0.73501 0.87606 0.94922 0.0
O290 O 0.74269 0.89759 0.93218 0.0
O291 O 0.77612 0.89328 0.93523 0.0
C292 C 0.73145 0.88866 0.93841 0.0
H293 H 0.76934 0.91582 0.01448 0.0
H294 H 0.75096 0.84146 0.88285 0.0
H295 H 0.79694 0.84112 0.95514 0.0
H296 H 0.7531 0.83324 0.98772 0.0
Co297 Co 0.87165 0.00339 0.69127 0.0
C298 C 0.85683 0.99144 0.73411 0.0
C299 C 0.85642 0.01608 0.73255 0.0
C300 C 0.84964 0.01141 0.75285 0.0
N301 N 0.86087 0.00355 0.72069 0.0
N302 N 0.84988 0.99587 0.75387 0.0
H303 H 0.85886 0.97957 0.72955 0.0
H304 H 0.85819 0.02783 0.72703 0.0
C305 C 0.86352 0.03252 0.66502 0.0
O306 O 0.87712 0.03246 0.65521 0.0
N307 N 0.88256 1.00263 0.66221 0.0
C308 C 0.89784 1.00093 0.65923 0.0
C309 C 0.90082 0.99925 0.63616 0.0
C310 C 0.87641 1.00154 0.64094 0.0
N311 N 0.88735 0.9997 0.6247 0.0
C312 C 0.8985 0.00434 0.71917 0.0
C313 C 0.90892 0.03311 0.70648 0.0
C314 C 0.91916 0.02303 0.7175 0.0
C315 C 0.91346 0.0088 0.72497 0.0
C316 C 0.8939 0.02826 0.70134 0.0
N317 N 0.88931 0.01353 0.70593 0.0
H318 H 0.8947 0.993 0.72417 0.0
H319 H 0.88633 0.03632 0.69327 0.0
H320 H 0.9063 1.00062 0.67281 0.0
H321 H 0.86418 1.00203 0.63748 0.0
O322 O 0.87794 0.9822 0.69574 0.0
O323 O 0.85634 0.98967 0.67884 0.0
O324 O 0.86056 0.02323 0.68168 0.0
C325 C 0.86542 0.9785 0.68484 0.0
H326 H 0.84518 0.01896 0.76604 0.0
H327 H 0.91206 0.99793 0.62841 0.0
H328 H 0.9126 0.04452 0.70134 0.0
H329 H 0.9208 1.0007 0.7339 0.0
Co330 Co 0.75036 0.1234 0.44276 0.0
C331 C 0.76192 0.10853 0.48575 0.0
C332 C 0.73728 0.10871 0.48434 0.0
C333 C 0.74184 0.10177 0.5046 0.0
N334 N 0.74988 0.11288 0.47241 0.0
N335 N 0.75737 0.10165 0.50551 0.0
H336 H 0.77381 0.11023 0.4811 0.0
H337 H 0.72557 0.1107 0.47884 0.0
C338 C 0.72128 0.11576 0.4163 0.0
O339 O 0.72185 0.12927 0.40619 0.0
N340 N 0.75149 0.13402 0.41345 0.0
C341 C 0.75295 0.1493 0.41002 0.0
C342 C 0.7549 0.15199 0.38693 0.0
C343 C 0.753 0.1276 0.39241 0.0
N344 N 0.7549 0.13835 0.37586 0.0
C345 C 0.75004 0.15051 0.47017 0.0
C346 C 0.72163 0.16157 0.45697 0.0
C347 C 0.73189 0.17161 0.46803 0.0
C348 C 0.74593 0.16561 0.47574 0.0
C349 C 0.72611 0.1464 0.45213 0.0
N350 N 0.74068 0.14145 0.457 0.0
H351 H 0.76124 0.14645 0.47532 0.0
H352 H 0.71791 0.13899 0.444 0.0
H353 H 0.75291 0.15796 0.42332 0.0
H354 H 0.75284 0.11532 0.38936 0.0
O355 O 0.77171 0.12917 0.44715 0.0
O356 O 0.76361 0.10758 0.43077 0.0
O357 O 0.73025 0.11276 0.43331 0.0
C358 C 0.77502 0.11639 0.43664 0.0
H359 H 0.73422 0.09741 0.51779 0.0
H360 H 0.75615 0.16316 0.37893 0.0
H361 H 0.71038 0.16553 0.45162 0.0
H362 H 0.75414 0.17281 0.48472 0.0
Co363 Co 0.63403 1.00102 0.19384 0.0
C364 C 0.64564 0.0113 0.23936 0.0
C365 C 0.65487 0.98926 0.23032 0.0
C366 C 0.66162 0.99409 0.25055 0.0
N367 N 0.64487 1.0001 0.22319 0.0
N368 N 0.65592 0.00805 0.2562 0.0
H369 H 0.63906 0.02182 0.23857 0.0
H370 H 0.65761 0.97881 0.22114 0.0
C371 C 0.63971 0.97168 0.16716 0.0
O372 O 0.62562 0.97225 0.15904 0.0
N373 N 0.62326 1.00268 0.16475 0.0
C374 C 0.60814 0.00539 0.16153 0.0
C375 C 0.60541 0.00711 0.13841 0.0
C376 C 0.62957 1.00316 0.14353 0.0
N377 N 0.61888 0.00565 0.12712 0.0
C378 C 0.60613 1.00168 0.21962 0.0
C379 C 0.59654 0.97193 0.21132 0.0
C380 C 0.58588 0.9825 0.22027 0.0
C381 C 0.59116 0.99734 0.22544 0.0
C382 C 0.61156 0.97674 0.20596 0.0
N383 N 0.61578 0.99182 0.20833 0.0
H384 H 0.60954 0.01338 0.223 0.0
H385 H 0.61951 0.9683 0.19964 0.0
H386 H 0.59962 0.00631 0.17493 0.0
H387 H 0.64175 1.00176 0.14022 0.0
O388 O 0.62919 0.02257 0.19866 0.0
O389 O 0.65027 0.01378 0.18176 0.0
O390 O 0.64374 0.98067 0.18363 0.0
C391 C 0.64208 0.02549 0.18827 0.0
H392 H 0.67059 0.98803 0.25972 0.0
H393 H 0.59433 0.00911 0.1305 0.0
H394 H 0.59325 0.96011 0.20809 0.0
H395 H 0.58353 0.00592 0.23268 0.0
Co396 Co 0.75782 0.12479 0.06408 0.0
C397 C 0.74531 0.11117 0.02082 0.0
C398 C 0.76951 0.10711 0.02407 0.0
C399 C 0.76428 0.09998 0.00435 0.0
N400 N 0.75759 0.11406 0.03456 0.0
N401 N 0.74898 0.10246 1.00229 0.0
H402 H 0.73386 0.11533 0.02435 0.0
H403 H 0.7812 0.10698 0.03041 0.0
C404 C 0.7875 0.11741 0.08924 0.0
O405 O 0.78747 0.1312 0.09848 0.0
N406 N 0.75736 0.13551 0.09333 0.0
C407 C 0.75644 0.15083 0.09682 0.0
C408 C 0.75597 0.15358 0.12007 0.0
C409 C 0.75683 0.12915 0.11451 0.0
N410 N 0.75629 0.13995 0.13117 0.0
C411 C 0.7575 0.15203 0.0369 0.0
C412 C 0.78639 0.16282 0.04816 0.0
C413 C 0.7758 0.17304 0.03821 0.0
C414 C 0.7615 0.16718 0.0314 0.0
C415 C 0.782 0.14758 0.05291 0.0
N416 N 0.76723 0.14279 0.04917 0.0
H417 H 0.7461 0.1481 0.03251 0.0
H418 H 0.79044 0.13999 0.06003 0.0
H419 H 0.75606 0.15948 0.08352 0.0
H420 H 0.75742 0.11688 0.11764 0.0
O421 O 0.73639 0.13056 0.06065 0.0
O422 O 0.74481 0.10902 0.07682 0.0
O423 O 0.77806 0.11416 0.07291 0.0
C424 C 0.73328 0.11775 0.07124 0.0
H425 H 0.77125 0.09315 0.99283 0.0
H426 H 0.75531 0.16477 0.12817 0.0
H427 H 0.79784 0.16666 0.05271 0.0
H428 H 0.75304 0.17451 0.02324 0.0
Co429 Co 0.6352 0.00445 0.81526 0.0
C430 C 0.64842 0.99341 0.77094 0.0
C431 C 0.65474 0.01684 0.77764 0.0
C432 C 0.66197 0.01205 0.75776 0.0
N433 N 0.64632 0.00509 0.78609 0.0
N434 N 0.65804 0.99728 0.75358 0.0
H435 H 0.64352 0.98205 0.77292 0.0
H436 H 0.65585 0.02804 0.78551 0.0
C437 C 0.64166 0.03359 0.8423 0.0
O438 O 0.62765 0.03313 0.85074 0.0
N439 N 0.6241 1.00306 0.8441 0.0
C440 C 0.60886 1.00093 0.84696 0.0
C441 C 0.60585 0.99917 0.87002 0.0
C442 C 0.6302 1.00216 0.86542 0.0
N443 N 0.61927 1.00001 0.88159 0.0
C444 C 0.60816 0.00454 0.78772 0.0
C445 C 0.59781 0.03372 0.79817 0.0
C446 C 0.58759 0.02336 0.78767 0.0
C447 C 0.59326 0.00885 0.78146 0.0
C448 C 0.61278 0.02897 0.80389 0.0
N449 N 0.61735 0.01409 0.80037 0.0
H450 H 0.6119 0.99307 0.78345 0.0
H451 H 0.6204 0.03727 0.81138 0.0
H452 H 0.60045 1.00045 0.83334 0.0
H453 H 0.64239 1.00305 0.86898 0.0
O454 O 0.62972 0.98308 0.81034 0.0
O455 O 0.65092 0.99121 0.82768 0.0
O456 O 0.64544 0.02458 0.82569 0.0
C457 C 0.64238 0.97976 0.82108 0.0
H458 H 0.66966 0.01892 0.7473 0.0
H459 H 0.59462 0.99756 0.87769 0.0
H460 H 0.5942 0.04532 0.80229 0.0
H461 H 0.58598 1.00047 0.77301 0.0
Co462 Co 0.75537 0.88407 0.56593 0.0
C463 C 0.76444 0.89524 0.51948 0.0
C464 C 0.7426 0.90452 0.52912 0.0
C465 C 0.74725 0.91134 0.50882 0.0
N466 N 0.75342 0.89439 0.536 0.0
N467 N 0.76111 0.90562 0.50285 0.0
H468 H 0.77498 0.8887 0.5199 0.0
H469 H 0.73239 0.90753 0.53859 0.0
C470 C 0.72334 0.89738 0.57955 0.0
O471 O 0.71526 0.8886 0.56572 0.0
N472 N 0.75793 0.87401 0.59535 0.0
C473 C 0.76389 0.85987 0.59846 0.0
C474 C 0.76435 0.85678 0.62155 0.0
C475 C 0.75494 0.87943 0.61662 0.0
N476 N 0.75866 0.86903 0.63305 0.0
C477 C 0.74696 0.85906 0.53682 0.0
C478 C 0.72731 0.84502 0.56773 0.0
C479 C 0.73284 0.83633 0.54912 0.0
C480 C 0.74226 0.84383 0.53301 0.0
C481 C 0.73232 0.86019 0.57094 0.0
N482 N 0.74249 0.86688 0.55603 0.0
H483 H 0.75537 0.86406 0.52537 0.0
H484 H 0.72913 0.86601 0.58664 0.0
H485 H 0.7677 0.85234 0.58481 0.0
H486 H 0.75011 0.89068 0.61994 0.0
O487 O 0.77523 0.87571 0.55719 0.0
O488 O 0.77127 0.89834 0.57403 0.0
O489 O 0.73802 0.89665 0.57974 0.0
C490 C 0.78092 0.88822 0.56615 0.0
H491 H 0.74124 0.92049 0.49997 0.0
H492 H 0.76886 0.84637 0.6292 0.0
H493 H 0.71981 0.83989 0.58047 0.0
H494 H 0.74699 0.83767 0.51847 0.0
Co495 Co 0.87357 1.0008 0.31247 0.0
C496 C 0.86211 0.01154 0.26709 0.0
C497 C 0.85255 0.98958 0.2758 0.0
C498 C 0.84577 0.99472 0.25576 0.0
N499 N 0.86277 1.00017 0.28304 0.0
N500 N 0.85168 0.00864 0.25033 0.0
H501 H 0.86885 0.02196 0.26807 0.0
H502 H 0.84962 0.97912 0.28486 0.0
C503 C 0.8673 0.97145 0.33902 0.0
O504 O 0.88132 0.97188 0.34746 0.0
N505 N 0.88429 1.00221 0.34162 0.0
C506 C 0.89943 0.00472 0.34493 0.0
C507 C 0.90211 0.00643 0.36807 0.0
C508 C 0.87791 1.0028 0.36279 0.0
N509 N 0.88859 0.00515 0.37926 0.0
C510 C 0.90139 1.00115 0.28645 0.0
C511 C 0.91112 0.97164 0.29611 0.0
C512 C 0.92175 0.98213 0.28689 0.0
C513 C 0.91642 0.99681 0.28093 0.0
C514 C 0.89603 0.97642 0.301 0.0
N515 N 0.89174 0.99142 0.29803 0.0
H516 H 0.89792 0.01278 0.28262 0.0
H517 H 0.88809 0.96802 0.30749 0.0
H518 H 0.908 0.00554 0.33156 0.0
H519 H 0.86571 1.00158 0.36601 0.0
O520 O 0.87876 0.0223 0.30788 0.0
O521 O 0.85749 0.01373 0.32455 0.0
O522 O 0.86351 0.98053 0.32251 0.0
C523 C 0.86588 0.02536 0.31821 0.0
H524 H 0.83661 0.98893 0.24663 0.0
H525 H 0.91319 0.00831 0.37607 0.0
H526 H 0.91451 0.95992 0.29995 0.0
H527 H 0.92406 0.00527 0.2734 0.0
Co528 Co 0.75498 0.62151 0.56491 0.0
C529 C 0.76441 0.60997 0.51874 0.0
C530 C 0.74134 0.60318 0.52643 0.0
C531 C 0.74576 0.59636 0.50604 0.0
N532 N 0.75308 0.6117 0.53461 0.0
N533 N 0.76038 0.60052 0.50123 0.0
H534 H 0.77558 0.6153 0.52015 0.0
H535 H 0.73047 0.60139 0.53491 0.0
C536 C 0.72275 0.60861 0.57817 0.0
O537 O 0.71485 0.61808 0.56515 0.0
N538 N 0.75745 0.63098 0.59479 0.0
C539 C 0.76339 0.64505 0.59874 0.0
C540 C 0.76336 0.64771 0.62199 0.0
C541 C 0.75407 0.62515 0.61569 0.0
N542 N 0.75746 0.63523 0.63265 0.0
C543 C 0.74672 0.64679 0.5362 0.0
C544 C 0.72743 0.66093 0.56748 0.0
C545 C 0.73289 0.66961 0.5488 0.0
C546 C 0.74214 0.66207 0.53253 0.0
C547 C 0.73233 0.64572 0.57057 0.0
N548 N 0.74229 0.63896 0.55544 0.0
H549 H 0.75499 0.64174 0.52459 0.0
H550 H 0.72917 0.6399 0.58628 0.0
H551 H 0.76737 0.65288 0.58557 0.0
H552 H 0.74906 0.6139 0.6184 0.0
O553 O 0.77488 0.62996 0.55669 0.0
O554 O 0.7708 0.60707 0.57272 0.0
O555 O 0.73746 0.60878 0.578 0.0
C556 C 0.78051 0.61735 0.56544 0.0
H557 H 0.73887 0.58838 0.49617 0.0
H558 H 0.76752 0.65802 0.63038 0.0
H559 H 0.72006 0.66608 0.58034 0.0
H560 H 0.74682 0.66823 0.51794 0.0
Co561 Co 0.63258 0.50499 0.81664 0.0
C562 C 0.64661 0.51654 0.77299 0.0
C563 C 0.65027 0.49232 0.7775 0.0
C564 C 0.65755 0.49697 0.75759 0.0
N565 N 0.64352 0.50461 0.78735 0.0
N566 N 0.65527 0.51221 0.75477 0.0
H567 H 0.64299 0.52826 0.776 0.0
H568 H 0.65006 0.48074 0.78433 0.0
C569 C 0.64018 0.47586 0.84325 0.0
O570 O 0.62648 0.47608 0.85276 0.0
N571 N 0.62162 0.50596 0.84565 0.0
C572 C 0.6063 0.50715 0.84879 0.0
C573 C 0.60339 0.50876 0.87189 0.0
C574 C 0.62783 0.50729 0.86685 0.0
N575 N 0.61693 0.5088 0.88324 0.0
C576 C 0.60561 0.50416 0.78891 0.0
C577 C 0.59537 0.47523 0.80113 0.0
C578 C 0.58508 0.48533 0.79025 0.0
C579 C 0.59068 0.49965 0.78303 0.0
C580 C 0.61037 0.48013 0.80629 0.0
N581 N 0.61488 0.49492 0.80195 0.0
H582 H 0.60934 0.51556 0.7841 0.0
H583 H 0.61801 0.47203 0.81417 0.0
H584 H 0.59776 0.50706 0.83533 0.0
H585 H 0.64008 0.50718 0.87013 0.0
O586 O 0.62652 0.52624 0.81191 0.0
O587 O 0.64801 0.5186 0.82896 0.0
O588 O 0.64341 0.48511 0.82666 0.0
C589 C 0.6391 0.52985 0.82269 0.0
H590 H 0.66401 0.48964 0.74605 0.0
H591 H 0.59213 0.50967 0.87971 0.0
H592 H 0.59175 0.46377 0.80606 0.0
H593 H 0.5833 0.50776 0.77419 0.0
Co594 Co 0.75213 0.38667 0.06524 0.0
C595 C 0.74624 0.39771 0.01774 0.0
C596 C 0.76135 0.41287 0.0358 0.0
C597 C 0.75687 0.41992 0.01569 0.0
N598 N 0.75495 0.39873 0.03707 0.0
N599 N 0.74716 0.41048 0.00441 0.0
H600 H 0.73829 0.38843 0.01441 0.0
H601 H 0.76738 0.41857 0.04958 0.0
C602 C 0.78412 0.40036 0.07625 0.0
O603 O 0.78979 0.39759 0.05575 0.0
N604 N 0.74866 0.37515 0.0931 0.0
C605 C 0.74334 0.36064 0.09478 0.0
C606 C 0.74164 0.35707 0.11767 0.0
C607 C 0.74995 0.38029 0.11485 0.0
N608 N 0.74583 0.36943 0.13032 0.0
C609 C 0.75834 0.3613 0.03543 0.0
C610 C 0.78111 0.34823 0.06218 0.0
C611 C 0.77441 0.33925 0.04474 0.0
C612 C 0.76325 0.34628 0.03078 0.0
C613 C 0.77577 0.36321 0.06638 0.0
N614 N 0.76419 0.36943 0.05349 0.0
H615 H 0.74883 0.36581 0.0257 0.0
H616 H 0.78004 0.36919 0.08133 0.0
H617 H 0.74065 0.35328 0.08034 0.0
H618 H 0.75374 0.39178 0.11913 0.0
O619 O 0.73189 0.38028 0.05494 0.0
O620 O 0.7371 0.40145 0.07492 0.0
O621 O 0.77028 0.3967 0.08112 0.0
C622 C 0.72693 0.39262 0.06521 0.0
H623 H 0.7593 0.43173 0.011 0.0
H624 H 0.7373 0.3463 0.12436 0.0
H625 H 0.78992 0.34352 0.07328 0.0
H626 H 0.75746 0.33992 0.01734 0.0
Co627 Co 0.87433 0.50212 0.3159 0.0
C628 C 0.85845 0.49067 0.27363 0.0
C629 C 0.86204 0.51507 0.27269 0.0
C630 C 0.85548 0.51052 0.25216 0.0
N631 N 0.86394 0.50262 0.28619 0.0
N632 N 0.8532 0.49516 0.2528 0.0
H633 H 0.85872 0.4788 0.27911 0.0
H634 H 0.86552 0.52663 0.27724 0.0
C635 C 0.86661 0.53127 0.34218 0.0
O636 O 0.88024 0.5309 0.35189 0.0
N637 N 0.88487 0.501 0.34522 0.0
C638 C 0.90008 0.49894 0.34859 0.0
C639 C 0.90276 0.49729 0.37173 0.0
C640 C 0.87846 0.50013 0.36634 0.0
N641 N 0.88918 0.49811 0.38286 0.0
C642 C 0.90175 0.50274 0.28911 0.0
C643 C 0.91189 0.53171 0.30127 0.0
C644 C 0.92226 0.52157 0.29068 0.0
C645 C 0.91674 0.50722 0.2835 0.0
C646 C 0.89684 0.52684 0.30614 0.0
N647 N 0.89235 0.51203 0.30184 0.0
H648 H 0.89806 0.49134 0.28428 0.0
H649 H 0.88911 0.53501 0.31363 0.0
H650 H 0.90868 0.49843 0.33523 0.0
H651 H 0.86622 0.50099 0.36952 0.0
O652 O 0.88028 0.48083 0.31136 0.0
O653 O 0.85864 0.48862 0.32785 0.0
O654 O 0.86349 0.52214 0.3254 0.0
C655 C 0.86761 0.47732 0.32201 0.0
H656 H 0.85263 0.51796 0.23786 0.0
H657 H 0.91389 0.4958 0.37977 0.0
H658 H 0.91547 0.54319 0.30614 0.0
H659 H 0.92421 0.4991 0.27486 0.0
Co660 Co 0.7547 0.38501 0.44257 0.0
C661 C 0.76541 0.39777 0.4874 0.0
C662 C 0.74172 0.40318 0.48173 0.0
C663 C 0.7465 0.41023 0.50177 0.0
N664 N 0.75363 0.3954 0.4725 0.0
N665 N 0.76149 0.40692 0.5053 0.0
H666 H 0.77676 0.39301 0.48515 0.0
H667 H 0.73042 0.40415 0.47431 0.0
C668 C 0.72237 0.39826 0.43037 0.0
O669 O 0.71448 0.38907 0.44386 0.0
N670 N 0.75628 0.37488 0.41305 0.0
C671 C 0.76185 0.36061 0.40951 0.0
C672 C 0.76126 0.35745 0.38642 0.0
C673 C 0.75254 0.38031 0.39206 0.0
N674 N 0.75537 0.3698 0.37543 0.0
C675 C 0.74696 0.36044 0.47275 0.0
C676 C 0.72619 0.34616 0.44381 0.0
C677 C 0.73212 0.33771 0.46242 0.0
C678 C 0.74221 0.34535 0.47747 0.0
C679 C 0.73143 0.36112 0.43949 0.0
N680 N 0.74202 0.36797 0.45354 0.0
H681 H 0.75573 0.36555 0.48346 0.0
H682 H 0.72792 0.36666 0.42373 0.0
H683 H 0.76599 0.35301 0.42286 0.0
H684 H 0.74771 0.3916 0.38906 0.0
O685 O 0.77469 0.37648 0.4501 0.0
O686 O 0.77049 0.39908 0.43325 0.0
O687 O 0.73707 0.39776 0.42993 0.0
C688 C 0.78025 0.38885 0.44051 0.0
H689 H 0.73953 0.4177 0.51237 0.0
H690 H 0.76509 0.34691 0.37835 0.0
H691 H 0.71814 0.34101 0.43188 0.0
H692 H 0.74735 0.33943 0.49191 0.0
Co693 Co 0.87304 0.50511 0.69418 0.0
C694 C 0.85931 0.51607 0.73821 0.0
C695 C 0.85438 0.49222 0.73225 0.0
C696 C 0.84711 0.49675 0.75221 0.0
N697 N 0.86192 0.50437 0.72328 0.0
N698 N 0.85019 0.51177 0.75594 0.0
H699 H 0.86355 0.52766 0.73589 0.0
H700 H 0.85398 0.48085 0.72474 0.0
C701 C 0.86692 0.4758 0.66752 0.0
O702 O 0.88108 0.47614 0.65961 0.0
N703 N 0.88413 0.50649 0.66536 0.0
C704 C 0.89933 0.50884 0.66238 0.0
C705 C 0.90228 0.51024 0.63925 0.0
C706 C 0.878 0.5069 0.64404 0.0
N707 N 0.88888 0.50893 0.62777 0.0
C708 C 0.90041 0.50513 0.72106 0.0
C709 C 0.90992 0.47544 0.71219 0.0
C710 C 0.92047 0.48581 0.72191 0.0
C711 C 0.91523 0.5006 0.72737 0.0
C712 C 0.89503 0.48042 0.70647 0.0
N713 N 0.8909 0.4955 0.7091 0.0
H714 H 0.89701 0.5168 0.72473 0.0
H715 H 0.88711 0.4721 0.69974 0.0
H716 H 0.90775 0.50965 0.67596 0.0
H717 H 0.86583 0.50567 0.64055 0.0
O718 O 0.87844 0.52652 0.69907 0.0
O719 O 0.85732 0.51833 0.68163 0.0
O720 O 0.86289 0.48499 0.68376 0.0
C721 C 0.86585 0.52981 0.68809 0.0
H722 H 0.84006 0.48953 0.76312 0.0
H723 H 0.91348 0.51184 0.63147 0.0
H724 H 0.91322 0.46365 0.70871 0.0
H725 H 0.92279 0.50899 0.73524 0.0
Co726 Co 0.75074 0.62165 0.94445 0.0
C727 C 0.74125 0.61061 0.99076 0.0
C728 C 0.76292 0.60089 0.98126 0.0
C729 C 0.75813 0.59422 1.00156 0.0
N730 N 0.75231 0.61122 0.97431 0.0
N731 N 0.74438 0.60022 0.00748 0.0
H732 H 0.73083 0.61734 0.99025 0.0
H733 H 0.77308 0.59765 0.97185 0.0
C734 C 0.78292 0.6084 0.93187 0.0
O735 O 0.79075 0.61699 0.94628 0.0
N736 N 0.74861 0.63176 0.91502 0.0
C737 C 0.74322 0.64611 0.91168 0.0
C738 C 0.74252 0.64889 0.88849 0.0
C739 C 0.75097 0.62591 0.89384 0.0
N740 N 0.74743 0.63622 0.87722 0.0
C741 C 0.75881 0.64639 0.97414 0.0
C742 C 0.77962 0.66029 0.94484 0.0
C743 C 0.77399 0.66883 0.96356 0.0
C744 C 0.76384 0.66138 0.97875 0.0
C745 C 0.77411 0.64539 0.94067 0.0
N746 N 0.76352 0.63874 0.95493 0.0
H747 H 0.75002 0.64146 0.985 0.0
H748 H 0.77745 0.63974 0.92491 0.0
H749 H 0.73984 0.65393 0.92523 0.0
H750 H 0.75513 0.61437 0.89073 0.0
O751 O 0.73081 0.63005 0.95265 0.0
O752 O 0.7349 0.60745 0.93578 0.0
O753 O 0.76825 0.60914 0.93105 0.0
C754 C 0.72519 0.61759 0.94345 0.0
H755 H 0.76397 0.58499 0.01048 0.0
H756 H 0.73832 0.65935 0.88061 0.0
H757 H 0.78767 0.6653 0.93278 0.0
H758 H 0.75889 0.66739 0.99324 0.0
Co759 Co 0.63156 0.50474 0.19485 0.0
C760 C 0.6459 0.49203 0.23755 0.0
C761 C 0.64952 0.51637 0.23438 0.0
C762 C 0.65689 0.51124 0.25392 0.0
N763 N 0.64273 0.50431 0.22391 0.0
N764 N 0.65463 0.49593 0.25591 0.0
H765 H 0.64224 0.48039 0.23394 0.0
H766 H 0.64924 0.52811 0.22825 0.0
C767 C 0.63793 0.53501 0.17079 0.0
O768 O 0.62382 0.53517 0.16273 0.0
N769 N 0.62041 0.50466 0.16596 0.0
C770 C 0.60507 0.50374 0.16283 0.0
C771 C 0.60204 0.50382 0.13963 0.0
C772 C 0.62652 0.50476 0.1446 0.0
N773 N 0.61553 0.50455 0.1282 0.0
C774 C 0.60443 0.50363 0.22217 0.0
C775 C 0.59464 0.53352 0.21577 0.0
C776 C 0.58426 0.52276 0.22498 0.0
C777 C 0.58966 0.50783 0.22916 0.0
C778 C 0.6095 0.52884 0.2093 0.0
N779 N 0.61377 0.51373 0.21076 0.0
H780 H 0.60796 0.49188 0.22489 0.0
H781 H 0.61727 0.53742 0.20289 0.0
H782 H 0.59658 0.50303 0.17632 0.0
H783 H 0.63873 0.5056 0.14121 0.0
O784 O 0.62614 0.48318 0.19777 0.0
O785 O 0.64725 0.49209 0.18104 0.0
O786 O 0.64178 0.52521 0.1863 0.0
C787 C 0.63871 0.48037 0.18645 0.0
H788 H 0.66338 0.51828 0.26581 0.0
H789 H 0.59077 0.5033 0.13179 0.0
H790 H 0.59124 0.54539 0.21325 0.0
H791 H 0.58224 0.49912 0.23656 0.0
Co792 Co 0.25223 0.38369 0.44284 0.0
C793 C 0.24053 0.39926 0.48522 0.0
C794 C 0.26517 0.39925 0.48364 0.0
C795 C 0.26063 0.40641 0.50371 0.0
N796 N 0.25256 0.39483 0.47194 0.0
N797 N 0.2451 0.40644 0.50474 0.0
H798 H 0.22864 0.39736 0.48073 0.0
H799 H 0.27688 0.39723 0.47817 0.0
C800 C 0.28178 0.3902 0.41699 0.0
O801 O 0.28173 0.37604 0.40909 0.0
N802 N 0.25139 0.37247 0.41403 0.0
C803 C 0.25032 0.3571 0.41117 0.0
C804 C 0.24982 0.35392 0.38805 0.0
C805 C 0.25096 0.37844 0.39259 0.0
N806 N 0.25031 0.36733 0.3764 0.0
C807 C 0.25209 0.35639 0.46996 0.0
C808 C 0.28188 0.34697 0.46182 0.0
C809 C 0.27143 0.33633 0.4712 0.0
C810 C 0.25657 0.34156 0.4763 0.0
C811 C 0.27691 0.36185 0.45591 0.0
N812 N 0.2618 0.36594 0.45818 0.0
H813 H 0.24038 0.35977 0.47338 0.0
H814 H 0.28525 0.36979 0.44927 0.0
H815 H 0.24991 0.34868 0.42478 0.0
H816 H 0.25174 0.39064 0.38894 0.0
O817 O 0.23084 0.37809 0.44721 0.0
O818 O 0.23903 0.39924 0.42978 0.0
O819 O 0.27238 0.39409 0.43305 0.0
C820 C 0.22756 0.39058 0.43596 0.0
H821 H 0.26827 0.41095 0.51672 0.0
H822 H 0.24908 0.34259 0.38042 0.0
H823 H 0.29373 0.34376 0.45867 0.0
H824 H 0.24807 0.33398 0.48386 0.0
Co825 Co 0.37186 0.50783 0.19496 0.0
C826 C 0.35751 0.49465 0.23718 0.0
C827 C 0.35106 0.51823 0.23234 0.0
C828 C 0.34375 0.51265 0.25168 0.0
N829 N 0.35964 0.50691 0.22309 0.0
N830 N 0.34775 0.49776 0.25478 0.0
H831 H 0.36301 0.48364 0.23464 0.0
H832 H 0.34997 0.52973 0.22548 0.0
C833 C 0.36587 0.53805 0.17048 0.0
O834 O 0.38 0.53823 0.16246 0.0
N835 N 0.38411 0.50804 0.16709 0.0
C836 C 0.39948 0.50634 0.16528 0.0
C837 C 0.40328 0.505 0.14243 0.0
C838 C 0.37876 0.5074 0.14532 0.0
N839 N 0.39024 0.50567 0.12993 0.0
C840 C 0.39786 0.50626 0.22456 0.0
C841 C 0.4089 0.53562 0.21699 0.0
C842 C 0.41879 0.52465 0.22682 0.0
C843 C 0.41274 0.51004 0.23169 0.0
C844 C 0.39398 0.53136 0.2103 0.0
N845 N 0.3891 0.51647 0.2124 0.0
H846 H 0.39384 0.49467 0.22741 0.0
H847 H 0.38672 0.54 0.20284 0.0
H848 H 0.40744 0.50565 0.17947 0.0
H849 H 0.36668 0.50783 0.14091 0.0
O850 O 0.37686 0.48606 0.19751 0.0
O851 O 0.35668 0.49573 0.1793 0.0
O852 O 0.36207 0.52847 0.18634 0.0
C853 C 0.36482 0.48374 0.18468 0.0
H854 H 0.33581 0.51908 0.26227 0.0
H855 H 0.41476 0.50355 0.13557 0.0
H856 H 0.41279 0.54727 0.21388 0.0
H857 H 0.41976 0.5012 0.23954 0.0
Co858 Co 0.24981 0.62384 0.94347 0.0
C859 C 0.26338 0.6088 0.9851 0.0
C860 C 0.23874 0.60935 0.98622 0.0
C861 C 0.24409 0.60261 0.00614 0.0
N862 N 0.25081 0.61317 0.97291 0.0
N863 N 0.25963 0.60224 0.0055 0.0
H864 H 0.27506 0.61036 0.97922 0.0
H865 H 0.22683 0.61157 0.98199 0.0
C866 C 0.21891 0.61776 0.92148 0.0
O867 O 0.21856 0.63186 0.91332 0.0
N868 N 0.24931 0.63459 0.91425 0.0
C869 C 0.25141 0.64977 0.91058 0.0
C870 C 0.25145 0.65246 0.88732 0.0
C871 C 0.24853 0.62822 0.89311 0.0
N872 N 0.24958 0.63892 0.87632 0.0
C873 C 0.25235 0.65186 0.96878 0.0
C874 C 0.22211 0.66122 0.96533 0.0
C875 C 0.23319 0.67197 0.9725 0.0
C876 C 0.24836 0.66682 0.97526 0.0
C877 C 0.2266 0.64624 0.95927 0.0
N878 N 0.24177 0.64212 0.95924 0.0
H879 H 0.26425 0.64851 0.97014 0.0
H880 H 0.21781 0.63823 0.95429 0.0
H881 H 0.25315 0.65835 0.92371 0.0
H882 H 0.24697 0.61602 0.89018 0.0
O883 O 0.2717 0.62848 0.94459 0.0
O884 O 0.26133 0.60764 0.92915 0.0
O885 O 0.22891 0.61403 0.93677 0.0
C886 C 0.27357 0.61582 0.93294 0.0
H887 H 0.23701 0.59866 0.02025 0.0
H888 H 0.25311 0.66354 0.8792 0.0
H889 H 0.21011 0.66444 0.964 0.0
H890 H 0.25734 0.67455 0.98106 0.0
Co891 Co 0.13325 0.5048 0.69295 0.0
C892 C 0.14775 0.5169 0.73588 0.0
C893 C 0.14807 0.49225 0.73466 0.0
C894 C 0.15471 0.497 0.75502 0.0
N895 N 0.14377 0.50473 0.72255 0.0
N896 N 0.15452 0.51255 0.75582 0.0
H897 H 0.14581 0.52875 0.73112 0.0
H898 H 0.1463 0.48047 0.72926 0.0
C899 C 0.14097 0.47545 0.66729 0.0
O900 O 0.12727 0.47557 0.65779 0.0
N901 N 0.12264 0.50543 0.66365 0.0
C902 C 0.10735 0.50623 0.66 0.0
C903 C 0.10475 0.50775 0.63679 0.0
C904 C 0.12913 0.50687 0.64267 0.0
N905 N 0.11846 0.50813 0.62589 0.0
C906 C 0.10608 0.50444 0.7201 0.0
C907 C 0.09605 0.47512 0.70976 0.0
C908 C 0.08574 0.48537 0.7203 0.0
C909 C 0.09125 0.49996 0.72642 0.0
C910 C 0.11096 0.48004 0.70399 0.0
N911 N 0.11538 0.49496 0.70753 0.0
H912 H 0.10974 0.51594 0.72437 0.0
H913 H 0.11863 0.47183 0.69646 0.0
H914 H 0.09861 0.50595 0.67317 0.0
H915 H 0.14143 0.50709 0.63984 0.0
O916 O 0.12716 0.5261 0.69691 0.0
O917 O 0.14883 0.51827 0.68061 0.0
O918 O 0.14415 0.48479 0.68378 0.0
C919 C 0.13981 0.52959 0.68623 0.0
H920 H 0.15903 0.4895 0.76838 0.0
H921 H 0.09359 0.50841 0.62864 0.0
H922 H 0.09254 0.46348 0.70566 0.0
H923 H 0.08389 0.50826 0.73488 0.0
Co924 Co 0.25164 0.62021 0.56457 0.0
C925 C 0.24293 0.60768 0.51866 0.0
C926 C 0.26599 0.60131 0.52733 0.0
C927 C 0.26206 0.59431 0.50686 0.0
N928 N 0.25395 0.60966 0.53495 0.0
N929 N 0.24751 0.59829 0.50145 0.0
H930 H 0.2315 0.61247 0.51966 0.0
H931 H 0.2768 0.59992 0.53611 0.0
C932 C 0.28369 0.60749 0.57948 0.0
O933 O 0.29187 0.61654 0.56616 0.0
N934 N 0.2488 0.63052 0.5937 0.0
C935 C 0.24286 0.6447 0.59644 0.0
C936 C 0.24176 0.64776 0.61949 0.0
C937 C 0.25114 0.62505 0.61511 0.0
N938 N 0.24701 0.63544 0.63132 0.0
C939 C 0.25989 0.64478 0.5348 0.0
C940 C 0.27953 0.65952 0.56495 0.0
C941 C 0.27396 0.66783 0.54594 0.0
C942 C 0.26445 0.65994 0.53032 0.0
C943 C 0.27444 0.64446 0.56903 0.0
N944 N 0.2644 0.63739 0.55436 0.0
H945 H 0.25154 0.63949 0.52357 0.0
H946 H 0.27756 0.63902 0.58506 0.0
H947 H 0.23939 0.65222 0.58257 0.0
H948 H 0.25569 0.61372 0.61867 0.0
O949 O 0.23182 0.62834 0.55529 0.0
O950 O 0.23575 0.60593 0.57281 0.0
O951 O 0.26899 0.60785 0.57894 0.0
C952 C 0.22611 0.61596 0.56463 0.0
H953 H 0.26931 0.58669 0.49692 0.0
H954 H 0.23706 0.65817 0.62684 0.0
H955 H 0.28715 0.66481 0.57734 0.0
H956 H 0.25956 0.66571 0.51556 0.0
Co957 Co 0.13486 0.50166 0.3143 0.0
C958 C 0.14695 0.48992 0.26961 0.0
C959 C 0.15233 0.51377 0.2739 0.0
C960 C 0.15892 0.50863 0.25372 0.0
N961 N 0.14487 0.50199 0.28407 0.0
N962 N 0.15562 0.49355 0.25103 0.0
H963 H 0.14225 0.47861 0.2726 0.0
H964 H 0.15331 0.52526 0.2807 0.0
C965 C 0.14929 0.53372 0.3253 0.0
O966 O 0.14006 0.54185 0.3122 0.0
N967 N 0.12514 0.50088 0.34417 0.0
C968 C 0.11053 0.49654 0.34844 0.0
C969 C 0.10789 0.49759 0.37167 0.0
C970 C 0.13132 0.50418 0.36486 0.0
N971 N 0.12095 0.50238 0.38194 0.0
C972 C 0.11037 0.50962 0.28432 0.0
C973 C 0.0967 0.53105 0.31282 0.0
C974 C 0.08802 0.52499 0.29454 0.0
C975 C 0.09537 0.51458 0.27968 0.0
C976 C 0.11161 0.52563 0.31703 0.0
N977 N 0.11811 0.51467 0.30327 0.0
H978 H 0.1152 0.50058 0.27384 0.0
H979 H 0.11733 0.52926 0.33259 0.0
H980 H 0.10234 0.49301 0.33549 0.0
H981 H 0.14306 0.50799 0.36733 0.0
O982 O 0.1256 0.48183 0.30775 0.0
O983 O 0.14854 0.48559 0.32376 0.0
O984 O 0.14834 0.51905 0.32592 0.0
C985 C 0.13791 0.47605 0.31716 0.0
H986 H 0.16601 0.51547 0.24236 0.0
H987 H 0.09723 0.49485 0.38038 0.0
H988 H 0.09175 0.53932 0.32459 0.0
H989 H 0.08926 0.50932 0.26551 0.0
Co990 Co 0.25008 0.38024 0.06471 0.0
C991 C 0.26313 0.39444 0.02213 0.0
C992 C 0.23893 0.39874 0.02532 0.0
C993 C 0.24431 0.40619 0.00597 0.0
N994 N 0.25074 0.39147 0.03565 0.0
N995 N 0.25954 0.4035 1.00397 0.0
H996 H 0.27465 0.39046 0.02575 0.0
H997 H 0.22719 0.39882 0.03144 0.0
C998 C 0.2196 0.38582 0.08822 0.0
O999 O 0.21964 0.37167 0.0962 0.0
N1000 N 0.25002 0.36906 0.09364 0.0
C1001 C 0.25158 0.35378 0.09696 0.0
C1002 C 0.25232 0.35093 0.12019 0.0
C1003 C 0.25014 0.3753 0.11491 0.0
N1004 N 0.2514 0.36447 0.13145 0.0
C1005 C 0.2523 0.35263 0.03831 0.0
C1006 C 0.22246 0.34259 0.04452 0.0
C1007 C 0.23352 0.33205 0.03676 0.0
C1008 C 0.2484 0.33751 0.03239 0.0
C1009 C 0.2268 0.35775 0.04975 0.0
N1010 N 0.24187 0.36217 0.04862 0.0
H1011 H 0.26408 0.35624 0.03607 0.0
H1012 H 0.21803 0.36559 0.05532 0.0
H1013 H 0.2524 0.34521 0.08361 0.0
H1014 H 0.24954 0.38754 0.11814 0.0
O1015 O 0.27198 0.37573 0.06268 0.0
O1016 O 0.26171 0.39626 0.07919 0.0
O1017 O 0.22922 0.38979 0.07252 0.0
C1018 C 0.27391 0.38824 0.07464 0.0
H1019 H 0.2375 0.41306 0.99425 0.0
H1020 H 0.25344 0.33973 0.12813 0.0
H1021 H 0.21065 0.33903 0.04715 0.0
H1022 H 0.25727 0.32989 0.02599 0.0
Co1023 Co 0.3728 0.50329 0.8185 0.0
C1024 C 0.35818 0.51475 0.77521 0.0
C1025 C 0.35378 0.49073 0.78013 0.0
C1026 C 0.34633 0.49552 0.76044 0.0
N1027 N 0.36116 0.50281 0.78962 0.0
N1028 N 0.3491 0.51065 0.75735 0.0
H1029 H 0.36226 0.52636 0.77784 0.0
H1030 H 0.35364 0.47919 0.78688 0.0
C1031 C 0.35914 0.47102 0.83121 0.0
O1032 O 0.36755 0.46291 0.81692 0.0
N1033 N 0.38422 0.50428 0.84693 0.0
C1034 C 0.39893 0.50893 0.84916 0.0
C1035 C 0.40242 0.50977 0.87213 0.0
C1036 C 0.37888 0.50248 0.86851 0.0
N1037 N 0.38981 0.50578 0.88427 0.0
C1038 C 0.39625 0.49594 0.78626 0.0
C1039 C 0.41098 0.4744 0.81338 0.0
C1040 C 0.41918 0.48099 0.79502 0.0
C1041 C 0.41127 0.4914 0.78077 0.0
C1042 C 0.39609 0.47947 0.81852 0.0
N1043 N 0.38908 0.49052 0.80549 0.0
H1044 H 0.39096 0.50501 0.77631 0.0
H1045 H 0.39091 0.47564 0.83439 0.0
H1046 H 0.40648 0.5118 0.83502 0.0
H1047 H 0.36711 0.49948 0.87256 0.0
O1048 O 0.38121 0.52337 0.81069 0.0
O1049 O 0.35958 0.51903 0.83008 0.0
O1050 O 0.36026 0.48569 0.83191 0.0
C1051 C 0.36961 0.52882 0.82231 0.0
H1052 H 0.33946 0.48836 0.74921 0.0
H1053 H 0.41339 0.51316 0.87933 0.0
H1054 H 0.41632 0.46606 0.82466 0.0
H1055 H 0.41698 0.497 0.76652 0.0
C1056 C 0.17857 0.0157 0.2287 0.0
C1057 C 0.16466 0.01864 0.24035 0.0
C1058 C 0.18346 0.02508 0.21053 0.0
C1059 C 0.17104 0.05269 0.16613 0.0
H1060 H 0.21342 0.0664 0.16899 0.0
C1061 C 0.19713 0.09621 0.09965 0.0
C1062 C 0.21283 0.09473 0.09419 0.0
C1063 C 0.19044 0.08714 0.11705 0.0
C1064 C 0.20163 0.06251 0.16755 0.0
H1065 H 0.14472 0.0337 0.24085 0.0
H1066 H 0.15313 0.04979 0.20871 0.0
H1067 H 0.2032 0.0501 0.19927 0.0
H1068 H 0.2336 0.08202 0.10223 0.0
H1069 H 0.22199 0.06595 0.13152 0.0
H1070 H 0.16958 0.06478 0.13405 0.0
C1071 C 0.16029 0.04022 0.21397 0.0
C1072 C 0.19573 0.05319 0.1851 0.0
C1073 C 0.15545 0.03092 0.23243 0.0
C1074 C 0.22152 0.08364 0.10608 0.0
C1075 C 0.21483 0.07447 0.12316 0.0
C1076 C 0.17702 0.06188 0.14831 0.0
C1077 C 0.17452 0.03759 0.2031 0.0
C1078 C 0.18041 0.04803 0.18458 0.0
C1079 C 0.19925 0.07622 0.1293 0.0
C1080 C 0.19249 0.06683 0.1486 0.0
H1081 H 0.18585 0.00618 0.23367 0.0
H1082 H 0.19432 0.02251 0.20227 0.0
H1083 H 0.1592 0.04887 0.16514 0.0
H1084 H 0.1901 0.1047 0.09095 0.0
H1085 H 0.17846 0.089 0.12128 0.0
C1086 C 0.16954 0.95113 0.33934 0.0
C1087 C 0.15749 0.96122 0.34505 0.0
C1088 C 0.17831 0.94394 0.35661 0.0
C1089 C 0.18782 0.94769 0.41935 0.0
H1090 H 0.20611 0.90742 0.41093 0.0
C1091 C 0.21979 0.91569 0.49315 0.0
C1092 C 0.23381 0.90853 0.48749 0.0
C1093 C 0.2101 0.92156 0.47593 0.0
C1094 C 0.20117 0.91873 0.41352 0.0
H1095 H 0.14474 0.97097 0.37354 0.0
H1096 H 0.1595 0.95818 0.40337 0.0
H1097 H 0.18983 0.91825 0.38083 0.0
H1098 H 0.2483 0.9016 0.45901 0.0
H1099 H 0.23145 0.91176 0.42911 0.0
H1100 H 0.19904 0.94805 0.45216 0.0
C1101 C 0.16266 0.95616 0.38565 0.0
C1102 C 0.19184 0.925 0.39616 0.0
C1103 C 0.15405 0.96344 0.36844 0.0
C1104 C 0.23771 0.90718 0.46409 0.0
C1105 C 0.22795 0.91288 0.44688 0.0
C1106 C 0.19702 0.94136 0.43676 0.0
C1107 C 0.17516 0.94653 0.3801 0.0
C1108 C 0.18502 0.93962 0.39874 0.0
C1109 C 0.21404 0.92026 0.45252 0.0
C1110 C 0.20389 0.92681 0.4341 0.0
H1111 H 0.1726 0.94923 0.32153 0.0
H1112 H 0.18788 0.93676 0.35148 0.0
H1113 H 0.18316 0.9591 0.42196 0.0
H1114 H 0.21644 0.91702 0.51095 0.0
H1115 H 0.19943 0.92705 0.48095 0.0
C1116 C 0.30681 0.89726 0.61541 0.0
C1117 C 0.29457 0.90143 0.60089 0.0
C1118 C 0.31397 0.90817 0.62952 0.0
C1119 C 0.31816 0.95032 0.64128 0.0
H1120 H 0.32759 0.93588 0.70271 0.0
C1121 C 0.33525 0.9917 0.7161 0.0
C1122 C 0.34663 0.98668 0.73165 0.0
C1123 C 0.32933 0.98176 0.69924 0.0
C1124 C 0.32524 0.94012 0.68557 0.0
H1125 H 0.28071 0.92063 0.58923 0.0
H1126 H 0.29316 0.9397 0.61397 0.0
H1127 H 0.31698 0.91812 0.67465 0.0
H1128 H 0.36094 0.96716 0.7408 0.0
H1129 H 0.35065 0.94996 0.71169 0.0
H1130 H 0.3263 0.97242 0.65246 0.0
C1131 C 0.29734 0.92797 0.61428 0.0
C1132 C 0.31914 0.92987 0.66936 0.0
C1133 C 0.29021 0.91702 0.6 0.0
C1134 C 0.35201 0.97145 0.72958 0.0
C1135 C 0.34608 0.96153 0.71277 0.0
C1136 C 0.32425 0.96061 0.65756 0.0
C1137 C 0.30904 0.9236 0.62976 0.0
C1138 C 0.31558 0.93476 0.6469 0.0
C1139 C 0.33458 0.96648 0.69742 0.0
C1140 C 0.32795 0.95564 0.67994 0.0
H1141 H 0.31056 0.88539 0.61649 0.0
H1142 H 0.3232 0.90438 0.64066 0.0
H1143 H 0.3157 0.95453 0.62416 0.0
H1144 H 0.33065 1.00324 0.7172 0.0
H1145 H 0.32037 0.98598 0.68796 0.0
C1146 C 0.33846 0.04021 0.84641 0.0
C1147 C 0.35413 0.04404 0.84863 0.0
C1148 C 0.32737 0.04685 0.861 0.0
C1149 C 0.32481 0.06481 0.91876 0.0
H1150 H 0.28348 0.07627 0.90065 0.0
C1151 C 0.28414 0.09567 0.98219 0.0
C1152 C 0.26848 0.09152 0.98243 0.0
C1153 C 0.29401 0.09046 0.96481 0.0
C1154 C 0.29493 0.07298 0.90608 0.0
H1155 H 0.37019 0.05865 0.86702 0.0
H1156 H 0.35102 0.07032 0.89188 0.0
H1157 H 0.30148 0.06641 0.87184 0.0
H1158 H 0.25099 0.07883 0.96379 0.0
H1159 H 0.26823 0.0695 0.93378 0.0
H1160 H 0.31835 0.07112 0.95292 0.0
C1161 C 0.34725 0.06191 0.87934 0.0
C1162 C 0.30527 0.06733 0.88951 0.0
C1163 C 0.35827 0.0553 0.86486 0.0
C1164 C 0.26297 0.08218 0.96441 0.0
C1165 C 0.27286 0.07694 0.947 0.0
C1166 C 0.31451 0.07039 0.93527 0.0
C1167 C 0.33171 0.05746 0.87815 0.0
C1168 C 0.32042 0.06329 0.89559 0.0
C1169 C 0.28859 0.08086 0.94708 0.0
C1170 C 0.29943 0.07469 0.92921 0.0
H1171 H 0.33485 0.03148 0.83426 0.0
H1172 H 0.31553 0.0431 0.85957 0.0
H1173 H 0.33622 0.06146 0.9243 0.0
H1174 H 0.28899 0.10267 0.99574 0.0
H1175 H 0.30595 0.09397 0.96535 0.0
C1176 C 0.21282 0.91852 0.90967 0.0
C1177 C 0.21086 0.90257 0.90645 0.0
C1178 C 0.20602 0.92915 0.89446 0.0
C1179 C 0.19193 0.93138 0.83442 0.0
H1180 H 0.1731 0.96982 0.85299 0.0
C1181 C 0.15993 0.9697 0.76861 0.0
C1182 C 0.16091 0.98584 0.7707 0.0
C1183 C 0.16563 0.95996 0.78585 0.0
C1184 C 0.17849 0.95923 0.84741 0.0
H1185 H 0.19949 0.88546 0.88523 0.0
H1186 H 0.18771 0.90381 0.85916 0.0
H1187 H 0.18355 0.95243 0.88211 0.0
H1188 H 0.16863 0.00413 0.79335 0.0
H1189 H 0.17892 0.98723 0.82285 0.0
H1190 H 0.18721 0.93815 0.79981 0.0
C1191 C 0.19469 0.90817 0.87313 0.0
C1192 C 0.18446 0.94922 0.86419 0.0
C1193 C 0.20138 0.89761 0.88829 0.0
C1194 C 0.16772 0.99185 0.79077 0.0
C1195 C 0.17351 0.98208 0.80797 0.0
C1196 C 0.18608 0.94139 0.81768 0.0
C1197 C 0.1972 0.92407 0.8756 0.0
C1198 C 0.19113 0.93508 0.85793 0.0
C1199 C 0.17263 0.96596 0.80576 0.0
C1200 C 0.17913 0.95544 0.82385 0.0
H1201 H 0.22012 0.92279 0.92334 0.0
H1202 H 0.20823 0.9413 0.89691 0.0
H1203 H 0.19728 0.92076 0.82885 0.0
H1204 H 0.15494 0.96445 0.75352 0.0
H1205 H 0.16444 0.94766 0.78354 0.0
C1206 C 0.28278 0.91016 0.026 0.0
C1207 C 0.2668 0.9129 0.0268 0.0
C1208 C 0.29255 0.9156 0.04338 0.0
C1209 C 0.29525 0.94511 0.08932 0.0
H1210 H 0.32952 0.92027 0.1102 0.0
C1211 C 0.33743 0.96712 0.15982 0.0
C1212 C 0.35315 0.96428 0.1559 0.0
C1213 C 0.3261 0.95981 0.14642 0.0
C1214 C 0.3201 0.92746 0.10447 0.0
H1215 H 0.24875 0.92338 0.04726 0.0
H1216 H 0.26578 0.93294 0.0773 0.0
H1217 H 0.31156 0.90982 0.0821 0.0
H1218 H 0.36913 0.95099 0.13527 0.0
H1219 H 0.34963 0.93848 0.11212 0.0
H1220 H 0.30396 0.96288 0.1113 0.0
C1221 C 0.27075 0.92669 0.06303 0.0
C1222 C 0.30977 0.92143 0.0883 0.0
C1223 C 0.26095 0.92117 0.04571 0.0
C1224 C 0.35717 0.95347 0.13892 0.0
C1225 C 0.34591 0.94619 0.12561 0.0
C1226 C 0.30563 0.95118 0.10543 0.0
C1227 C 0.28671 0.92403 0.0621 0.0
C1228 C 0.29728 0.93022 0.08026 0.0
C1229 C 0.33019 0.94943 0.12881 0.0
C1230 C 0.31835 0.94252 0.11306 0.0
H1231 H 0.28789 0.90411 0.01169 0.0
H1232 H 0.30478 0.91352 0.04183 0.0
H1233 H 0.28588 0.95231 0.0834 0.0
H1234 H 0.33387 0.97542 0.17263 0.0
H1235 H 0.31413 0.96246 0.14969 0.0
C1236 C 0.30698 0.1097 0.39129 0.0
C1237 C 0.29549 0.10525 0.40701 0.0
C1238 C 0.314 0.09889 0.37684 0.0
C1239 C 0.3068 0.06088 0.3501 0.0
H1240 H 0.34964 0.06392 0.33218 0.0
C1241 C 0.33506 0.01666 0.28814 0.0
C1242 C 0.34581 0.02214 0.27195 0.0
C1243 C 0.32939 0.02625 0.30559 0.0
C1244 C 0.3376 0.06298 0.33675 0.0
H1245 H 0.28284 0.08567 0.42029 0.0
H1246 H 0.29523 0.06675 0.39524 0.0
H1247 H 0.33945 0.08116 0.36149 0.0
H1248 H 0.35902 0.04226 0.26195 0.0
H1249 H 0.34891 0.05898 0.29186 0.0
H1250 H 0.30486 0.04288 0.32513 0.0
C1251 C 0.29868 0.0787 0.39393 0.0
C1252 C 0.33175 0.07288 0.35368 0.0
C1253 C 0.2917 0.08953 0.40853 0.0
C1254 C 0.35068 0.03756 0.27382 0.0
C1255 C 0.345 0.04715 0.29127 0.0
C1256 C 0.31263 0.05101 0.33312 0.0
C1257 C 0.30972 0.08327 0.37755 0.0
C1258 C 0.31623 0.07206 0.36051 0.0
C1259 C 0.33426 0.04166 0.30746 0.0
C1260 C 0.32811 0.05196 0.32604 0.0
H1261 H 0.31019 0.12169 0.38952 0.0
H1262 H 0.32233 0.10293 0.36439 0.0
H1263 H 0.29473 0.06004 0.35456 0.0
H1264 H 0.33086 0.00496 0.28729 0.0
H1265 H 0.32129 0.02148 0.3178 0.0
C1266 C 0.15542 0.05954 0.65685 0.0
C1267 C 0.15646 0.04375 0.66195 0.0
C1268 C 0.16463 0.06617 0.63958 0.0
C1269 C 0.18912 0.05513 0.5888 0.0
H1270 H 0.20335 0.09733 0.59282 0.0
C1271 C 0.23676 0.07949 0.52937 0.0
C1272 C 0.23447 0.09412 0.51958 0.0
C1273 C 0.22681 0.07381 0.54632 0.0
C1274 C 0.19936 0.08556 0.59134 0.0
H1275 H 0.16847 0.02268 0.65322 0.0
H1276 H 0.1848 0.03418 0.6241 0.0
H1277 H 0.18734 0.08668 0.62346 0.0
H1278 H 0.21987 0.1143 0.52027 0.0
H1279 H 0.20255 0.10446 0.5502 0.0
H1280 H 0.20153 0.05394 0.55701 0.0
C1281 C 0.17654 0.04148 0.63272 0.0
C1282 C 0.1901 0.07942 0.60892 0.0
C1283 C 0.16722 0.03486 0.64971 0.0
C1284 C 0.22192 0.10296 0.52732 0.0
C1285 C 0.21207 0.09736 0.5446 0.0
C1286 C 0.19852 0.0612 0.57144 0.0
C1287 C 0.17527 0.05721 0.62705 0.0
C1288 C 0.18489 0.06404 0.60805 0.0
C1289 C 0.21435 0.08266 0.55426 0.0
C1290 C 0.20385 0.07647 0.5725 0.0
H1291 H 0.14718 0.06674 0.66576 0.0
H1292 H 0.16309 0.07825 0.6357 0.0
H1293 H 0.18508 0.04341 0.58694 0.0
H1294 H 0.2462 0.0723 0.52371 0.0
H1295 H 0.229 0.0625 0.55345 0.0
C1296 C 0.84934 0.97086 0.77489 0.0
C1297 C 0.8441 0.98611 0.77226 0.0
C1298 C 0.84374 0.96145 0.79262 0.0
C1299 C 0.81111 0.95737 0.83394 0.0
H1300 H 0.83843 0.92826 0.86358 0.0
C1301 C 0.79033 0.91815 0.90895 0.0
C1302 C 0.79459 0.90257 0.90727 0.0
C1303 C 0.79718 0.9293 0.89468 0.0
C1304 C 0.8306 0.93626 0.85542 0.0
H1305 H 0.82861 1.00318 0.78657 0.0
H1306 H 0.81916 0.98695 0.81761 0.0
H1307 H 0.84847 0.94556 0.83421 0.0
H1308 H 0.80996 0.8867 0.88997 0.0
H1309 H 0.82189 0.90598 0.8655 0.0
H1310 H 0.79322 0.94796 0.8551 0.0
C1311 C 0.8275 0.98219 0.80576 0.0
C1312 C 0.83636 0.94618 0.83845 0.0
C1313 C 0.83309 0.99161 0.78802 0.0
C1314 C 0.8064 0.89858 0.89183 0.0
C1315 C 0.8133 0.90969 0.87777 0.0
C1316 C 0.80535 0.94746 0.85097 0.0
C1317 C 0.83273 0.96695 0.80837 0.0
C1318 C 0.82667 0.95678 0.82722 0.0
C1319 C 0.80857 0.92516 0.87856 0.0
C1320 C 0.81497 0.93662 0.86178 0.0
H1321 H 0.8579 0.96616 0.76339 0.0
H1322 H 0.84794 0.94974 0.79376 0.0
H1323 H 0.8032 0.9652 0.82557 0.0
H1324 H 0.7812 0.92163 0.92049 0.0
H1325 H 0.79336 0.94112 0.89601 0.0
C1326 C 0.76143 0.08444 0.53928 0.0
C1327 C 0.76708 0.09549 0.52367 0.0
C1328 C 0.77086 0.07839 0.55666 0.0
C1329 C 0.80749 0.08585 0.58859 0.0
H1330 H 0.80483 0.0425 0.60387 0.0
C1331 C 0.85519 0.0539 0.6389 0.0
C1332 C 0.85118 0.04202 0.65423 0.0
C1333 C 0.84401 0.06125 0.62551 0.0
C1334 C 0.80558 0.05468 0.60012 0.0
H1335 H 0.7873 0.10889 0.51474 0.0
H1336 H 0.80371 0.09814 0.54444 0.0
H1337 H 0.7874 0.05337 0.57532 0.0
H1338 H 0.83203 0.02893 0.66791 0.0
H1339 H 0.81243 0.04187 0.64458 0.0
H1340 H 0.82586 0.08708 0.61307 0.0
C1341 C 0.79189 0.09426 0.54348 0.0
C1342 C 0.79556 0.06095 0.58366 0.0
C1343 C 0.78247 0.10032 0.52612 0.0
C1344 C 0.83554 0.03811 0.65645 0.0
C1345 C 0.82431 0.04541 0.64284 0.0
C1346 C 0.81752 0.07958 0.60498 0.0
C1347 C 0.78626 0.08319 0.55904 0.0
C1348 C 0.79647 0.0766 0.57742 0.0
C1349 C 0.82844 0.05691 0.62687 0.0
C1350 C 0.81686 0.06386 0.61081 0.0
H1351 H 0.74973 0.08028 0.53797 0.0
H1352 H 0.766 0.07002 0.56839 0.0
H1353 H 0.80838 0.09801 0.58471 0.0
H1354 H 0.86711 0.0572 0.63663 0.0
H1355 H 0.84772 0.06991 0.61332 0.0
C1356 C 0.71428 0.08781 0.4096 0.0
C1357 C 0.71164 0.10354 0.40543 0.0
C1358 C 0.70695 0.07649 0.39619 0.0
C1359 C 0.67491 0.07066 0.35369 0.0
H1360 H 0.69978 0.03643 0.33272 0.0
C1361 C 0.65822 0.03395 0.27433 0.0
C1362 C 0.66087 0.01795 0.27495 0.0
C1363 C 0.66353 0.04357 0.29199 0.0
C1364 C 0.69258 0.0458 0.33861 0.0
H1365 H 0.69865 0.11958 0.38446 0.0
H1366 H 0.68609 0.10011 0.36133 0.0
H1367 H 0.71019 0.05434 0.36103 0.0
H1368 H 0.67104 0.99969 0.29537 0.0
H1369 H 0.68038 0.01645 0.32589 0.0
H1370 H 0.65744 0.06232 0.33087 0.0
C1371 C 0.69367 0.09635 0.37498 0.0
C1372 C 0.69855 0.05608 0.35496 0.0
C1373 C 0.70098 0.1076 0.38827 0.0
C1374 C 0.66891 0.01191 0.29396 0.0
C1375 C 0.6743 0.02156 0.31156 0.0
C1376 C 0.66898 0.06044 0.33728 0.0
C1377 C 0.69674 0.08062 0.37837 0.0
C1378 C 0.68989 0.06881 0.36253 0.0
C1379 C 0.67174 0.03755 0.3108 0.0
C1380 C 0.67779 0.04796 0.32927 0.0
H1381 H 0.72248 0.08424 0.42255 0.0
H1382 H 0.70947 0.06449 0.39958 0.0
H1383 H 0.66772 0.0801 0.35936 0.0
H1384 H 0.65235 0.0392 0.25996 0.0
H1385 H 0.66153 0.05583 0.29057 0.0
C1386 C 0.72108 0.91027 0.02089 0.0
C1387 C 0.73716 0.91081 0.02395 0.0
C1388 C 0.71107 0.91619 0.03756 0.0
C1389 C 0.7089 0.92883 0.09903 0.0
H1390 H 0.6717 0.94895 0.07801 0.0
C1391 C 0.66725 0.96383 0.15887 0.0
C1392 C 0.65138 0.96236 0.15446 0.0
C1393 C 0.67815 0.95686 0.14431 0.0
C1394 C 0.68195 0.94322 0.08425 0.0
H1395 H 0.75506 0.91796 0.04765 0.0
H1396 H 0.73766 0.92864 0.07626 0.0
H1397 H 0.68969 0.93856 0.05011 0.0
H1398 H 0.63466 0.95172 0.13176 0.0
H1399 H 0.65349 0.93963 0.10679 0.0
H1400 H 0.70111 0.93382 0.13328 0.0
C1401 C 0.73278 0.92341 0.06104 0.0
C1402 C 0.69231 0.9372 0.06818 0.0
C1403 C 0.74283 0.9174 0.04439 0.0
C1404 C 0.64674 0.95321 0.13574 0.0
C1405 C 0.65758 0.94635 0.12122 0.0
C1406 C 0.69854 0.93497 0.11516 0.0
C1407 C 0.71673 0.92299 0.05783 0.0
C1408 C 0.70589 0.92975 0.07525 0.0
C1409 C 0.67344 0.94836 0.12493 0.0
C1410 C 0.68483 0.94211 0.10799 0.0
H1411 H 0.7161 0.90549 0.00545 0.0
H1412 H 0.69881 0.91536 0.03451 0.0
H1413 H 0.71912 0.92307 0.10526 0.0
H1414 H 0.67128 0.97085 0.17301 0.0
H1415 H 0.69026 0.95868 0.1477 0.0
C1416 C 0.80786 0.10941 0.11725 0.0
C1417 C 0.79682 0.10519 0.10073 0.0
C1418 C 0.8147 0.09838 0.13148 0.0
C1419 C 0.8217 0.05655 0.1402 0.0
H1420 H 0.82406 0.06851 0.20426 0.0
C1421 C 0.83812 0.01335 0.21318 0.0
C1422 C 0.84666 0.01891 0.23203 0.0
C1423 C 0.83255 0.0234 0.19617 0.0
C1424 C 0.82376 0.06499 0.18642 0.0
H1425 H 0.78493 0.08576 0.08556 0.0
H1426 H 0.79701 0.0664 0.11039 0.0
H1427 H 0.81394 0.08648 0.17612 0.0
H1428 H 0.85608 0.03973 0.24716 0.0
H1429 H 0.84691 0.05697 0.21744 0.0
H1430 H 0.83162 0.03503 0.15059 0.0
C1431 C 0.80036 0.07833 0.11227 0.0
C1432 C 0.81789 0.07535 0.17021 0.0
C1433 C 0.79345 0.08944 0.09797 0.0
C1434 C 0.8497 0.03483 0.233 0.0
C1435 C 0.8442 0.04484 0.21598 0.0
C1436 C 0.82768 0.04617 0.15646 0.0
C1437 C 0.81073 0.08273 0.1297 0.0
C1438 C 0.81685 0.07136 0.14682 0.0
C1439 C 0.83537 0.03934 0.19742 0.0
C1440 C 0.82889 0.05026 0.17985 0.0
H1441 H 0.81087 0.12139 0.11984 0.0
H1442 H 0.8229 0.10219 0.14427 0.0
H1443 H 0.82117 0.05308 0.12235 0.0
H1444 H 0.83563 1.00121 0.21151 0.0
H1445 H 0.82573 0.01866 0.18232 0.0
C1446 C 0.66931 0.04127 0.8506 0.0
C1447 C 0.65343 0.04299 0.85472 0.0
C1448 C 0.68021 0.04839 0.86504 0.0
C1449 C 0.68377 0.06299 0.92464 0.0
H1450 H 0.72106 0.08291 0.90351 0.0
C1451 C 0.72256 0.09677 0.98771 0.0
C1452 C 0.73865 0.09641 0.98473 0.0
C1453 C 0.71262 0.0906 0.9711 0.0
C1454 C 0.71081 0.07722 0.9098 0.0
H1455 H 0.63672 0.05427 0.87674 0.0
H1456 H 0.65553 0.06657 0.90149 0.0
H1457 H 0.70326 0.07166 0.8756 0.0
H1458 H 0.75662 0.08929 0.96108 0.0
H1459 H 0.73941 0.07817 0.93271 0.0
H1460 H 0.69127 0.06818 0.95874 0.0
C1461 C 0.65963 0.05954 0.8874 0.0
C1462 C 0.70057 0.07079 0.89372 0.0
C1463 C 0.6488 0.05254 0.87299 0.0
C1464 C 0.7444 0.08974 0.96437 0.0
C1465 C 0.73444 0.08347 0.94781 0.0
C1466 C 0.69401 0.06928 0.94068 0.0
C1467 C 0.67548 0.05729 0.88402 0.0
C1468 C 0.68681 0.06374 0.90092 0.0
C1469 C 0.71837 0.08371 0.95095 0.0
C1470 C 0.70764 0.07666 0.93357 0.0
H1471 H 0.67333 0.03393 0.83681 0.0
H1472 H 0.69232 0.04638 0.86191 0.0
H1473 H 0.67347 0.05736 0.93092 0.0
H1474 H 0.71749 0.10163 1.00302 0.0
H1475 H 0.70036 0.09133 0.97411 0.0
C1476 C 0.67859 0.98971 0.72616 0.0
C1477 C 0.66382 0.98738 0.73545 0.0
C1478 C 0.68442 0.9799 0.70913 0.0
C1479 C 0.67313 0.95214 0.66387 0.0
H1480 H 0.71525 0.93811 0.66955 0.0
C1481 C 0.69984 0.90688 0.60108 0.0
C1482 C 0.71561 0.90813 0.59594 0.0
C1483 C 0.69303 0.9164 0.6178 0.0
C1484 C 0.70354 0.94207 0.66736 0.0
H1485 H 0.64352 0.97296 0.73358 0.0
H1486 H 0.65365 0.9559 0.7037 0.0
H1487 H 0.70445 0.95495 0.69873 0.0
H1488 H 0.73641 0.92082 0.60398 0.0
H1489 H 0.72459 0.93759 0.63219 0.0
H1490 H 0.67229 0.93952 0.63224 0.0
C1491 C 0.66074 0.96533 0.70969 0.0
C1492 C 0.69731 0.95172 0.68425 0.0
C1493 C 0.65497 0.97505 0.72697 0.0
C1494 C 0.72426 0.91939 0.60755 0.0
C1495 C 0.71746 0.92897 0.624 0.0
C1496 C 0.67942 0.94259 0.64678 0.0
C1497 C 0.67561 0.96755 0.70066 0.0
C1498 C 0.68205 0.95697 0.68273 0.0
C1499 C 0.70178 0.92752 0.62971 0.0
C1500 C 0.69478 0.93746 0.64816 0.0
H1501 H 0.68581 0.99897 0.73236 0.0
H1502 H 0.69585 0.98207 0.70246 0.0
H1503 H 0.66136 0.95605 0.66202 0.0
H1504 H 0.69282 0.89828 0.59263 0.0
H1505 H 0.68097 0.91474 0.62175 0.0
C1506 C 0.76518 0.91902 0.46539 0.0
C1507 C 0.77111 0.91092 0.48442 0.0
C1508 C 0.77497 0.92483 0.44822 0.0
C1509 C 0.81607 0.93547 0.43834 0.0
H1510 H 0.80447 0.9361 0.37403 0.0
C1511 C 0.86014 0.95189 0.36887 0.0
C1512 C 0.85549 0.96211 0.35143 0.0
C1513 C 0.84937 0.945 0.38348 0.0
C1514 C 0.80784 0.93613 0.39194 0.0
H1515 H 0.79232 0.90264 0.4998 0.0
H1516 H 0.80912 0.91226 0.46986 0.0
H1517 H 0.78674 0.92542 0.40257 0.0
H1518 H 0.8356 0.97249 0.3352 0.0
H1519 H 0.81672 0.96033 0.36072 0.0
H1520 H 0.83712 0.94612 0.42784 0.0
C1521 C 0.79689 0.91438 0.46832 0.0
C1522 C 0.79765 0.93001 0.40836 0.0
C1523 C 0.78714 0.90861 0.48547 0.0
C1524 C 0.83962 0.96462 0.34831 0.0
C1525 C 0.82878 0.95766 0.363 0.0
C1526 C 0.82624 0.94151 0.42198 0.0
C1527 C 0.79101 0.92274 0.44954 0.0
C1528 C 0.80166 0.92948 0.43183 0.0
C1529 C 0.83356 0.94807 0.38121 0.0
C1530 C 0.82236 0.94183 0.3985 0.0
H1531 H 0.75293 0.92094 0.46374 0.0
H1532 H 0.76995 0.93128 0.43418 0.0
H1533 H 0.81949 0.93569 0.45622 0.0
H1534 H 0.87222 0.94957 0.37179 0.0
H1535 H 0.8535 0.93741 0.3969 0.0
C1536 C 0.67556 0.51836 0.72618 0.0
C1537 C 0.66142 0.52192 0.73668 0.0
C1538 C 0.68169 0.52782 0.70891 0.0
C1539 C 0.67134 0.55673 0.66494 0.0
H1540 H 0.71462 0.56727 0.66745 0.0
C1541 C 0.6993 0.60028 0.60079 0.0
C1542 C 0.71477 0.59804 0.59456 0.0
C1543 C 0.69236 0.59107 0.61777 0.0
C1544 C 0.70256 0.56427 0.66613 0.0
H1545 H 0.64254 0.53818 0.73682 0.0
H1546 H 0.65316 0.55462 0.70648 0.0
H1547 H 0.70347 0.55117 0.69732 0.0
H1548 H 0.73488 0.58389 0.60087 0.0
H1549 H 0.72276 0.5676 0.62953 0.0
H1550 H 0.67046 0.56953 0.63348 0.0
C1551 C 0.65953 0.5445 0.71172 0.0
C1552 C 0.69614 0.55506 0.68343 0.0
C1553 C 0.6535 0.53515 0.72925 0.0
C1554 C 0.72297 0.58607 0.60529 0.0
C1555 C 0.71602 0.57677 0.622 0.0
C1556 C 0.6778 0.56582 0.64743 0.0
C1557 C 0.67377 0.54102 0.70141 0.0
C1558 C 0.68045 0.55111 0.68307 0.0
C1559 C 0.70067 0.57925 0.62885 0.0
C1560 C 0.69356 0.5697 0.64767 0.0
H1561 H 0.68206 0.50837 0.73157 0.0
H1562 H 0.69261 0.52469 0.70126 0.0
H1563 H 0.65924 0.55381 0.66398 0.0
H1564 H 0.69266 0.60947 0.59306 0.0
H1565 H 0.6806 0.59354 0.62261 0.0
C1566 C 0.64797 0.45409 0.86894 0.0
C1567 C 0.65229 0.4662 0.85426 0.0
C1568 C 0.65884 0.44666 0.88279 0.0
C1569 C 0.70102 0.44164 0.89371 0.0
H1570 H 0.68687 0.43227 0.95532 0.0
C1571 C 0.74239 0.42583 0.96909 0.0
C1572 C 0.73746 0.41474 0.98514 0.0
C1573 C 0.73254 0.43105 0.95164 0.0
C1574 C 0.69101 0.43458 0.93811 0.0
H1575 H 0.67168 0.47957 0.84204 0.0
H1576 H 0.69069 0.46672 0.86643 0.0
H1577 H 0.66907 0.44312 0.92755 0.0
H1578 H 0.71817 0.40031 0.99493 0.0
H1579 H 0.70115 0.40918 0.96445 0.0
H1580 H 0.7231 0.43332 0.90463 0.0
C1581 C 0.67887 0.46281 0.86704 0.0
C1582 C 0.68075 0.44082 0.92207 0.0
C1583 C 0.66796 0.47019 0.85297 0.0
C1584 C 0.7225 0.40872 0.98284 0.0
C1585 C 0.71262 0.41398 0.96547 0.0
C1586 C 0.71134 0.43543 0.90984 0.0
C1587 C 0.67438 0.45121 0.88265 0.0
C1588 C 0.68554 0.44441 0.89956 0.0
C1589 C 0.71741 0.42539 0.9498 0.0
C1590 C 0.70646 0.43177 0.93229 0.0
H1591 H 0.63604 0.45061 0.87029 0.0
H1592 H 0.65494 0.43751 0.89401 0.0
H1593 H 0.70515 0.44409 0.87655 0.0
H1594 H 0.75385 0.43065 0.97021 0.0
H1595 H 0.73664 0.43989 0.94005 0.0
C1596 C 0.83869 0.472 0.24029 0.0
C1597 C 0.84692 0.48546 0.23483 0.0
C1598 C 0.83249 0.46267 0.22293 0.0
C1599 C 0.83633 0.45248 0.16149 0.0
H1600 H 0.7944 0.43798 0.16786 0.0
C1601 C 0.80446 0.41971 0.08779 0.0
C1602 C 0.7932 0.40884 0.09391 0.0
C1603 C 0.81164 0.42882 0.10468 0.0
C1604 C 0.80623 0.44164 0.16586 0.0
H1605 H 0.85531 0.49943 0.20665 0.0
H1606 H 0.84463 0.48307 0.17635 0.0
H1607 H 0.80562 0.454 0.19771 0.0
H1608 H 0.78135 0.3984 0.12271 0.0
H1609 H 0.79413 0.41364 0.15196 0.0
H1610 H 0.8371 0.43987 0.12987 0.0
C1611 C 0.84292 0.47978 0.19411 0.0
C1612 C 0.81264 0.45094 0.18304 0.0
C1613 C 0.84892 0.48924 0.2115 0.0
C1614 C 0.78977 0.40685 0.11733 0.0
C1615 C 0.79707 0.41573 0.13417 0.0
C1616 C 0.82998 0.44299 0.14439 0.0
C1617 C 0.83454 0.46641 0.1996 0.0
C1618 C 0.82778 0.45649 0.18113 0.0
C1619 C 0.80788 0.42714 0.12816 0.0
C1620 C 0.81481 0.43736 0.1463 0.0
H1621 H 0.83682 0.46879 0.25804 0.0
H1622 H 0.8262 0.45241 0.2278 0.0
H1623 H 0.84808 0.45644 0.15954 0.0
H1624 H 0.8073 0.42161 0.0699 0.0
H1625 H 0.81977 0.43751 0.09918 0.0
C1626 C 0.78622 0.59663 0.48343 0.0
C1627 C 0.77009 0.59492 0.48262 0.0
C1628 C 0.79561 0.59085 0.46585 0.0
C1629 C 0.79684 0.56187 0.41921 0.0
H1630 H 0.83201 0.58558 0.3986 0.0
C1631 C 0.83872 0.5386 0.34895 0.0
C1632 C 0.85449 0.54102 0.3531 0.0
C1633 C 0.82751 0.5462 0.36223 0.0
C1634 C 0.82233 0.57869 0.40424 0.0
H1635 H 0.75143 0.58577 0.46188 0.0
H1636 H 0.76784 0.57554 0.43157 0.0
H1637 H 0.81448 0.5965 0.42686 0.0
H1638 H 0.87069 0.55383 0.37406 0.0
H1639 H 0.85143 0.56679 0.39699 0.0
H1640 H 0.80492 0.5439 0.39704 0.0
C1641 C 0.77318 0.58132 0.44599 0.0
C1642 C 0.81224 0.585 0.4205 0.0
C1643 C 0.76374 0.58723 0.46349 0.0
C1644 C 0.85869 0.55167 0.37021 0.0
C1645 C 0.84756 0.55922 0.38339 0.0
C1646 C 0.80701 0.5555 0.40303 0.0
C1647 C 0.78926 0.58305 0.44691 0.0
C1648 C 0.79946 0.57662 0.42848 0.0
C1649 C 0.83178 0.55644 0.37994 0.0
C1650 C 0.82007 0.56373 0.39554 0.0
H1651 H 0.79176 0.60216 0.49784 0.0
H1652 H 0.80796 0.5922 0.46739 0.0
H1653 H 0.7872 0.55501 0.42505 0.0
H1654 H 0.83504 0.53042 0.33604 0.0
H1655 H 0.81549 0.54388 0.3588 0.0
C1656 C 0.67509 0.48915 0.28383 0.0
C1657 C 0.66084 0.48586 0.27347 0.0
C1658 C 0.68122 0.47944 0.30074 0.0
C1659 C 0.6708 0.45045 0.3444 0.0
H1660 H 0.7139 0.43931 0.34097 0.0
C1661 C 0.6988 0.40675 0.40823 0.0
C1662 C 0.71436 0.40885 0.41409 0.0
C1663 C 0.69181 0.41596 0.39132 0.0
C1664 C 0.7019 0.44247 0.34255 0.0
H1665 H 0.64179 0.46979 0.27311 0.0
H1666 H 0.65241 0.45288 0.30291 0.0
H1667 H 0.70271 0.45557 0.31135 0.0
H1668 H 0.73457 0.42275 0.40722 0.0
H1669 H 0.72238 0.43906 0.3787 0.0
H1670 H 0.67004 0.43769 0.3759 0.0
C1671 C 0.65886 0.46299 0.29782 0.0
C1672 C 0.69546 0.45177 0.32539 0.0
C1673 C 0.65283 0.47261 0.28061 0.0
C1674 C 0.7226 0.42068 0.40308 0.0
C1675 C 0.7156 0.42999 0.38645 0.0
C1676 C 0.6773 0.44128 0.36178 0.0
C1677 C 0.67318 0.46624 0.30803 0.0
C1678 C 0.67985 0.45595 0.3261 0.0
C1679 C 0.70016 0.42764 0.37995 0.0
C1680 C 0.693 0.43721 0.36122 0.0
H1681 H 0.68165 0.49915 0.27863 0.0
H1682 H 0.69221 0.48237 0.30833 0.0
H1683 H 0.65876 0.45355 0.34561 0.0
H1684 H 0.69213 0.39767 0.41619 0.0
H1685 H 0.67997 0.41361 0.38676 0.0
C1686 C 0.83939 0.46809 0.65874 0.0
C1687 C 0.85529 0.46638 0.65488 0.0
C1688 C 0.82861 0.46095 0.64414 0.0
C1689 C 0.82555 0.44643 0.58452 0.0
H1690 H 0.78811 0.42643 0.60492 0.0
C1691 C 0.78765 0.41241 0.52085 0.0
C1692 C 0.77152 0.41289 0.52324 0.0
C1693 C 0.79734 0.41859 0.53774 0.0
C1694 C 0.79841 0.43214 0.59885 0.0
H1695 H 0.8722 0.45514 0.63317 0.0
H1696 H 0.8536 0.44279 0.60812 0.0
H1697 H 0.80568 0.43765 0.63319 0.0
H1698 H 0.75317 0.42019 0.54607 0.0
H1699 H 0.77001 0.43133 0.57505 0.0
H1700 H 0.81834 0.44126 0.55028 0.0
C1701 C 0.84939 0.44982 0.62214 0.0
C1702 C 0.80851 0.43855 0.61512 0.0
C1703 C 0.86009 0.45683 0.63671 0.0
C1704 C 0.76546 0.41967 0.54331 0.0
C1705 C 0.77518 0.42594 0.56018 0.0
C1706 C 0.81545 0.44014 0.5683 0.0
C1707 C 0.83351 0.45205 0.62526 0.0
C1708 C 0.82232 0.44562 0.60818 0.0
C1709 C 0.79129 0.42561 0.55758 0.0
C1710 C 0.80179 0.43272 0.57516 0.0
H1711 H 0.83525 0.47541 0.67246 0.0
H1712 H 0.81647 0.46294 0.64705 0.0
H1713 H 0.83588 0.45209 0.57844 0.0
H1714 H 0.79294 0.4075 0.50574 0.0
H1715 H 0.80964 0.4178 0.53518 0.0
C1716 C 0.82969 0.51841 0.7839 0.0
C1717 C 0.84421 0.52141 0.77419 0.0
C1718 C 0.82368 0.52791 0.80116 0.0
C1719 C 0.83435 0.55571 0.84646 0.0
H1720 H 0.79179 0.56853 0.84157 0.0
C1721 C 0.80665 0.5996 0.91033 0.0
C1722 C 0.79094 0.59788 0.91551 0.0
C1723 C 0.81367 0.59039 0.89345 0.0
C1724 C 0.80363 0.56489 0.84354 0.0
H1725 H 0.8639 0.53668 0.77551 0.0
H1726 H 0.85346 0.5532 0.80586 0.0
H1727 H 0.80292 0.55227 0.81193 0.0
H1728 H 0.77047 0.58465 0.90749 0.0
H1729 H 0.78268 0.56837 0.87901 0.0
H1730 H 0.83499 0.56803 0.87834 0.0
C1731 C 0.84671 0.54349 0.79999 0.0
C1732 C 0.81004 0.55559 0.82638 0.0
C1733 C 0.85264 0.53409 0.78246 0.0
C1734 C 0.78256 0.58643 0.90386 0.0
C1735 C 0.78958 0.57714 0.88726 0.0
C1736 C 0.82788 0.56489 0.86382 0.0
C1737 C 0.83208 0.54059 0.80944 0.0
C1738 C 0.82546 0.5508 0.82763 0.0
C1739 C 0.80519 0.57911 0.88144 0.0
C1740 C 0.81236 0.56956 0.86273 0.0
H1741 H 0.8228 0.50885 0.77784 0.0
H1742 H 0.81244 0.52524 0.80815 0.0
H1743 H 0.84624 0.55214 0.84805 0.0
H1744 H 0.81344 0.60837 0.91883 0.0
H1745 H 0.82565 0.59242 0.88941 0.0
C1746 C 0.66563 0.54157 0.16142 0.0
C1747 C 0.64979 0.54451 0.15881 0.0
C1748 C 0.67647 0.54867 0.14691 0.0
C1749 C 0.67877 0.56586 0.08876 0.0
H1750 H 0.71881 0.58071 0.10787 0.0
C1751 C 0.71837 0.59801 0.02518 0.0
C1752 C 0.73432 0.59521 0.02601 0.0
C1753 C 0.70855 0.59249 0.04241 0.0
C1754 C 0.70775 0.57646 0.10215 0.0
H1755 H 0.63314 0.55801 0.1397 0.0
H1756 H 0.65189 0.5704 0.11486 0.0
H1757 H 0.70106 0.57011 0.13643 0.0
H1758 H 0.75231 0.58462 0.04643 0.0
H1759 H 0.73518 0.57467 0.07606 0.0
H1760 H 0.68539 0.57188 0.05456 0.0
C1761 C 0.65597 0.56237 0.12773 0.0
C1762 C 0.69755 0.5704 0.11859 0.0
C1763 C 0.6452 0.55534 0.14218 0.0
C1764 C 0.74013 0.58691 0.04492 0.0
C1765 C 0.73027 0.58132 0.06215 0.0
C1766 C 0.68895 0.57182 0.07238 0.0
C1767 C 0.67172 0.55884 0.12941 0.0
C1768 C 0.68285 0.56514 0.11214 0.0
C1769 C 0.71429 0.58388 0.06103 0.0
C1770 C 0.70357 0.57734 0.07878 0.0
H1771 H 0.6696 0.53323 0.17392 0.0
H1772 H 0.68849 0.54565 0.1487 0.0
H1773 H 0.66772 0.56159 0.083 0.0
H1774 H 0.71329 0.60418 0.01095 0.0
H1775 H 0.69638 0.59498 0.04105 0.0
C1776 C 0.34392 0.47124 0.27031 0.0
C1777 C 0.34225 0.4873 0.27255 0.0
C1778 C 0.33822 0.46116 0.28713 0.0
C1779 C 0.32386 0.4596 0.34797 0.0
H1780 H 0.30674 0.42067 0.32796 0.0
C1781 C 0.28873 0.41787 0.40764 0.0
C1782 C 0.29111 0.40198 0.40447 0.0
C1783 C 0.29576 0.42869 0.39297 0.0
C1784 C 0.31162 0.43141 0.33394 0.0
H1785 H 0.33336 0.50512 0.29509 0.0
H1786 H 0.32307 0.48765 0.3238 0.0
H1787 H 0.31713 0.43845 0.29971 0.0
H1788 H 0.30347 0.38518 0.38397 0.0
H1789 H 0.31567 0.40386 0.35882 0.0
H1790 H 0.31801 0.45252 0.38227 0.0
C1791 C 0.32902 0.48281 0.30915 0.0
C1792 C 0.31766 0.44166 0.31766 0.0
C1793 C 0.33479 0.4929 0.29238 0.0
C1794 C 0.30124 0.39728 0.38695 0.0
C1795 C 0.30817 0.40802 0.37232 0.0
C1796 C 0.31771 0.44936 0.36428 0.0
C1797 C 0.33055 0.46676 0.30676 0.0
C1798 C 0.32398 0.45589 0.32436 0.0
C1799 C 0.30526 0.42386 0.3747 0.0
C1800 C 0.31161 0.43505 0.35751 0.0
H1801 H 0.34945 0.46631 0.25539 0.0
H1802 H 0.33992 0.44893 0.28473 0.0
H1803 H 0.32877 0.47032 0.35396 0.0
H1804 H 0.28094 0.42195 0.42082 0.0
H1805 H 0.29323 0.44078 0.39533 0.0
C1806 C 0.33819 0.54358 0.16 0.0
C1807 C 0.35392 0.5472 0.15812 0.0
C1808 C 0.32734 0.5504 0.14525 0.0
C1809 C 0.32161 0.58282 0.10371 0.0
H1810 H 0.29102 0.55581 0.07687 0.0
C1811 C 0.28541 0.60101 0.02424 0.0
C1812 C 0.26991 0.59633 0.02313 0.0
C1813 C 0.29524 0.59542 0.04149 0.0
C1814 C 0.29933 0.56362 0.08437 0.0
H1815 H 0.37038 0.5614 0.13977 0.0
H1816 H 0.3516 0.57324 0.11437 0.0
H1817 H 0.30833 0.54598 0.10634 0.0
H1818 H 0.25285 0.58174 0.03951 0.0
H1819 H 0.26976 0.57235 0.06964 0.0
H1820 H 0.31267 0.60045 0.08169 0.0
C1821 C 0.34755 0.56519 0.12723 0.0
C1822 C 0.30928 0.55795 0.10137 0.0
C1823 C 0.35838 0.55834 0.14184 0.0
C1824 C 0.26461 0.58582 0.03979 0.0
C1825 C 0.27442 0.58024 0.05702 0.0
C1826 C 0.31163 0.5885 0.08675 0.0
C1827 C 0.33191 0.56109 0.12834 0.0
C1828 C 0.32066 0.56743 0.1112 0.0
C1829 C 0.2899 0.58496 0.0582 0.0
C1830 C 0.30039 0.57896 0.07667 0.0
H1831 H 0.33432 0.535 0.1722 0.0
H1832 H 0.31537 0.5471 0.14686 0.0
H1833 H 0.33005 0.59056 0.11105 0.0
H1834 H 0.28999 0.60916 0.01196 0.0
H1835 H 0.30711 0.59921 0.04154 0.0
C1836 C 0.21367 0.59002 0.91108 0.0
C1837 C 0.20968 0.60568 0.90955 0.0
C1838 C 0.20678 0.57908 0.89655 0.0
C1839 C 0.17367 0.57276 0.8566 0.0
H1840 H 0.20093 0.54334 0.82754 0.0
C1841 C 0.15508 0.5377 0.77641 0.0
C1842 C 0.16022 0.5224 0.77414 0.0
C1843 C 0.16064 0.54721 0.79404 0.0
C1844 C 0.19306 0.5513 0.83568 0.0
H1845 H 0.19474 0.62192 0.89214 0.0
H1846 H 0.18274 0.60297 0.86714 0.0
H1847 H 0.2109 0.56057 0.85702 0.0
H1848 H 0.17546 0.50532 0.78901 0.0
H1849 H 0.18483 0.52171 0.81987 0.0
H1850 H 0.15584 0.56356 0.83521 0.0
C1851 C 0.19115 0.59905 0.87954 0.0
C1852 C 0.1988 0.56121 0.85268 0.0
C1853 C 0.19809 0.60997 0.89391 0.0
C1854 C 0.17107 0.51693 0.79017 0.0
C1855 C 0.17661 0.52644 0.80781 0.0
C1856 C 0.16791 0.56282 0.83966 0.0
C1857 C 0.19563 0.5835 0.88024 0.0
C1858 C 0.18923 0.5722 0.86325 0.0
C1859 C 0.1715 0.54175 0.81003 0.0
C1860 C 0.17754 0.55202 0.82875 0.0
H1861 H 0.22261 0.58628 0.92277 0.0
H1862 H 0.21038 0.56718 0.89784 0.0
H1863 H 0.16587 0.58088 0.86455 0.0
H1864 H 0.14664 0.54238 0.7647 0.0
H1865 H 0.15653 0.55896 0.79489 0.0
C1866 C 0.16881 0.4699 0.65774 0.0
C1867 C 0.15315 0.46591 0.6562 0.0
C1868 C 0.1798 0.46262 0.64371 0.0
C1869 C 0.18604 0.42845 0.60564 0.0
H1870 H 0.21545 0.45483 0.57473 0.0
C1871 C 0.22014 0.40778 0.52574 0.0
C1872 C 0.23547 0.41269 0.52292 0.0
C1873 C 0.21086 0.41384 0.54327 0.0
C1874 C 0.20748 0.44721 0.5834 0.0
H1875 H 0.13697 0.45059 0.63943 0.0
H1876 H 0.15597 0.43791 0.61539 0.0
H1877 H 0.19847 0.46561 0.60394 0.0
H1878 H 0.25284 0.4281 0.53664 0.0
H1879 H 0.23685 0.43834 0.56734 0.0
H1880 H 0.19494 0.41007 0.58506 0.0
C1881 C 0.15986 0.44662 0.62736 0.0
C1882 C 0.19773 0.45342 0.60025 0.0
C1883 C 0.14891 0.45395 0.64117 0.0
C1884 C 0.2412 0.42385 0.53826 0.0
C1885 C 0.23191 0.4299 0.5558 0.0
C1886 C 0.19581 0.42223 0.58886 0.0
C1887 C 0.17542 0.45106 0.62799 0.0
C1888 C 0.18672 0.44417 0.61143 0.0
C1889 C 0.21658 0.425 0.55861 0.0
C1890 C 0.20657 0.43154 0.57726 0.0
H1891 H 0.17247 0.47915 0.66895 0.0
H1892 H 0.19169 0.46623 0.64489 0.0
H1893 H 0.1779 0.42089 0.6141 0.0
H1894 H 0.21526 0.39913 0.51456 0.0
H1895 H 0.19908 0.40988 0.54458 0.0
C1896 C 0.32876 0.5173 0.72907 0.0
C1897 C 0.3431 0.52046 0.73926 0.0
C1898 C 0.32282 0.52685 0.71178 0.0
C1899 C 0.33382 0.55512 0.66718 0.0
H1900 H 0.29091 0.567 0.67008 0.0
C1901 C 0.30691 0.59888 0.6024 0.0
C1902 C 0.29135 0.59702 0.59635 0.0
C1903 C 0.31362 0.58968 0.61958 0.0
C1904 C 0.30286 0.56363 0.66865 0.0
H1905 H 0.36251 0.53611 0.73881 0.0
H1906 H 0.3522 0.55269 0.70844 0.0
H1907 H 0.30172 0.55078 0.70006 0.0
H1908 H 0.27083 0.58358 0.60327 0.0
H1909 H 0.28254 0.5673 0.63229 0.0
H1910 H 0.33492 0.56765 0.63549 0.0
C1911 C 0.34554 0.54282 0.71394 0.0
C1912 C 0.30909 0.55434 0.68602 0.0
C1913 C 0.3514 0.53338 0.7315 0.0
C1914 C 0.28282 0.58546 0.60753 0.0
C1915 C 0.28954 0.57617 0.62445 0.0
C1916 C 0.32754 0.56427 0.64961 0.0
C1917 C 0.33111 0.53973 0.70393 0.0
C1918 C 0.32464 0.5499 0.68552 0.0
C1919 C 0.305 0.57824 0.63106 0.0
C1920 C 0.31192 0.56864 0.64998 0.0
H1921 H 0.32198 0.50756 0.73472 0.0
H1922 H 0.31174 0.52403 0.70437 0.0
H1923 H 0.34581 0.55181 0.66611 0.0
H1924 H 0.31381 0.60773 0.59432 0.0
H1925 H 0.32548 0.59183 0.62423 0.0
C1926 C 0.22614 0.60148 0.47344 0.0
C1927 C 0.23827 0.59263 0.4825 0.0
C1928 C 0.21687 0.59575 0.45562 0.0
C1929 C 0.20397 0.55919 0.42941 0.0
H1930 H 0.19202 0.58455 0.3776 0.0
C1931 C 0.17189 0.53276 0.35215 0.0
C1932 C 0.16041 0.54144 0.34109 0.0
C1933 C 0.1816 0.53949 0.3685 0.0
C1934 C 0.19505 0.57733 0.39207 0.0
H1935 H 0.25005 0.57072 0.47977 0.0
H1936 H 0.23394 0.56076 0.44884 0.0
H1937 H 0.2083 0.59535 0.4078 0.0
H1938 H 0.15035 0.56419 0.33852 0.0
H1939 H 0.16708 0.57589 0.36742 0.0
H1940 H 0.19055 0.54128 0.41419 0.0
C1941 C 0.23157 0.57215 0.45552 0.0
C1942 C 0.20444 0.58354 0.4094 0.0
C1943 C 0.24093 0.57794 0.47313 0.0
C1944 C 0.15913 0.55717 0.34654 0.0
C1945 C 0.16878 0.56389 0.36313 0.0
C1946 C 0.19449 0.55303 0.41225 0.0
C1947 C 0.21936 0.58094 0.44657 0.0
C1948 C 0.20913 0.57451 0.42822 0.0
C1949 C 0.18006 0.55509 0.37461 0.0
C1950 C 0.18996 0.56194 0.39316 0.0
H1951 H 0.22382 0.61288 0.48007 0.0
H1952 H 0.20752 0.60281 0.44927 0.0
H1953 H 0.20709 0.55197 0.44385 0.0
H1954 H 0.17334 0.52065 0.34833 0.0
H1955 H 0.19034 0.53236 0.37638 0.0
C1956 C 0.16013 0.46714 0.23569 0.0
C1957 C 0.16101 0.48324 0.23303 0.0
C1958 C 0.1657 0.45718 0.21869 0.0
C1959 C 0.17811 0.45546 0.15705 0.0
H1960 H 0.19717 0.41743 0.17704 0.0
C1961 C 0.21245 0.41351 0.09676 0.0
C1962 C 0.21032 0.39764 0.10063 0.0
C1963 C 0.20563 0.42446 0.11137 0.0
C1964 C 0.19174 0.42792 0.1711 0.0
H1965 H 0.16838 0.50125 0.20959 0.0
H1966 H 0.17851 0.48395 0.18046 0.0
H1967 H 0.18735 0.43539 0.20544 0.0
H1968 H 0.1986 0.38101 0.12231 0.0
H1969 H 0.18681 0.39996 0.14743 0.0
H1970 H 0.18291 0.44796 0.12259 0.0
C1971 C 0.17325 0.47901 0.19563 0.0
C1972 C 0.18603 0.43826 0.18745 0.0
C1973 C 0.16757 0.489 0.21259 0.0
C1974 C 0.20061 0.39309 0.11877 0.0
C1975 C 0.19392 0.40397 0.13337 0.0
C1976 C 0.18397 0.44514 0.14065 0.0
C1977 C 0.1725 0.46292 0.19847 0.0
C1978 C 0.17896 0.45213 0.18075 0.0
C1979 C 0.19664 0.41979 0.13027 0.0
C1980 C 0.19071 0.43114 0.14747 0.0
H1981 H 0.15535 0.46205 0.25106 0.0
H1982 H 0.16459 0.44491 0.22146 0.0
H1983 H 0.17263 0.46591 0.1511 0.0
H1984 H 0.21991 0.41746 0.08307 0.0
H1985 H 0.20798 0.43655 0.10848 0.0
C1986 C 0.28282 0.40142 0.97923 0.0
C1987 C 0.26984 0.40972 0.98668 0.0
C1988 C 0.29264 0.40746 0.96226 0.0
C1989 C 0.30519 0.44418 0.93621 0.0
H1990 H 0.31816 0.41932 0.88445 0.0
C1991 C 0.33732 0.47178 0.85961 0.0
C1992 C 0.34854 0.46322 0.84776 0.0
C1993 C 0.32786 0.46484 0.87613 0.0
C1994 C 0.3149 0.42642 0.89893 0.0
H1995 H 0.25726 0.43104 0.98233 0.0
H1996 H 0.27442 0.44162 0.9531 0.0
H1997 H 0.30195 0.40801 0.91431 0.0
H1998 H 0.35849 0.4405 0.84418 0.0
H1999 H 0.34234 0.42846 0.87346 0.0
H2000 H 0.31835 0.46246 0.92145 0.0
C2001 C 0.27697 0.4304 0.96024 0.0
C2002 C 0.30552 0.4199 0.91605 0.0
C2003 C 0.26704 0.42426 0.97688 0.0
C2004 C 0.34991 0.44744 0.8528 0.0
C2005 C 0.34055 0.44051 0.86961 0.0
C2006 C 0.31472 0.45063 0.91931 0.0
C2007 C 0.28989 0.42208 0.95262 0.0
C2008 C 0.3004 0.42874 0.9348 0.0
C2009 C 0.32943 0.44913 0.88172 0.0
C2010 C 0.31961 0.44194 0.90019 0.0
H2011 H 0.28526 0.39016 0.98629 0.0
H2012 H 0.30252 0.40078 0.9569 0.0
H2013 H 0.30168 0.45127 0.95058 0.0
H2014 H 0.33582 0.48394 0.85613 0.0
H2015 H 0.31924 0.47189 0.88445 0.0
C2016 C 0.25935 0.14996 0.33619 0.0
C2017 C 0.25567 0.1375 0.35059 0.0
C2018 C 0.25976 0.14817 0.31239 0.0
C2019 C 0.2462 0.12314 0.26506 0.0
H2020 H 0.27674 0.14609 0.23057 0.0
C2021 C 0.25484 0.11946 0.16543 0.0
C2022 C 0.25574 0.13387 0.15436 0.0
C2023 C 0.25488 0.11849 0.18947 0.0
C2024 C 0.26813 0.13963 0.23999 0.0
H2025 H 0.24939 0.11331 0.35091 0.0
H2026 H 0.25057 0.11008 0.30936 0.0
H2027 H 0.2772 0.14675 0.27236 0.0
H2028 H 0.25657 0.15855 0.16032 0.0
H2029 H 0.2571 0.15677 0.20183 0.0
H2030 H 0.23726 0.11598 0.23236 0.0
C2031 C 0.25294 0.12132 0.31657 0.0
C2032 C 0.26834 0.14005 0.26393 0.0
C2033 C 0.25244 0.12314 0.34046 0.0
C2034 C 0.25631 0.14723 0.168 0.0
C2035 C 0.25655 0.14624 0.19189 0.0
C2036 C 0.24611 0.12258 0.24101 0.0
C2037 C 0.25664 0.13383 0.30224 0.0
C2038 C 0.25716 0.13212 0.2768 0.0
C2039 C 0.25601 0.13188 0.20288 0.0
C2040 C 0.25687 0.13111 0.22828 0.0
H2041 H 0.26208 0.16115 0.34324 0.0
H2042 H 0.26238 0.15814 0.30193 0.0
H2043 H 0.23736 0.11697 0.27439 0.0
H2044 H 0.25445 0.1089 0.15563 0.0
H2045 H 0.25446 0.10727 0.19757 0.0
C2046 C 0.09946 0.00562 0.41839 0.0
C2047 C 0.11304 0.00606 0.40527 0.0
C2048 C 0.10006 0.00642 0.44235 0.0
C2049 C 0.12543 0.99908 0.49135 0.0
H2050 H 0.09731 0.02574 0.52431 0.0
C2051 C 0.12817 0.00577 0.59003 0.0
C2052 C 0.114 0.00606 0.60169 0.0
C2053 C 0.1287 0.00688 0.56606 0.0
C2054 C 0.10514 0.01811 0.51539 0.0
H2055 H 0.13794 0.008 0.40738 0.0
H2056 H 0.13892 0.00905 0.44905 0.0
H2057 H 0.09675 0.02516 0.48244 0.0
H2058 H 0.08932 0.00834 0.59715 0.0
H2059 H 0.09019 0.0097 0.55561 0.0
H2060 H 0.13358 0.99171 0.52422 0.0
C2061 C 0.12783 0.00798 0.44072 0.0
C2062 C 0.10483 0.01781 0.49142 0.0
C2063 C 0.12723 0.00731 0.41677 0.0
C2064 C 0.10043 0.0078 0.58882 0.0
C2065 C 0.10094 0.00882 0.56492 0.0
C2066 C 0.12566 0.99928 0.51535 0.0
C2067 C 0.11425 0.00757 0.45374 0.0
C2068 C 0.11489 0.00821 0.47916 0.0
C2069 C 0.11506 0.00827 0.55321 0.0
C2070 C 0.11543 0.00871 0.52768 0.0
H2071 H 0.08834 0.00445 0.41023 0.0
H2072 H 0.08941 0.00589 0.45199 0.0
H2073 H 0.13323 0.99146 0.48234 0.0
H2074 H 0.13886 0.00436 0.5993 0.0
H2075 H 0.13979 0.00662 0.55762 0.0
C2076 C 0.24974 0.88402 0.66996 0.0
C2077 C 0.25605 0.87071 0.65997 0.0
C2078 C 0.25035 0.8862 0.69378 0.0
C2079 C 0.27115 0.87351 0.7458 0.0
H2080 H 0.23375 0.8844 0.77825 0.0
C2081 C 0.26336 0.86156 0.84202 0.0
C2082 C 0.25523 0.87216 0.85559 0.0
C2083 C 0.26427 0.86342 0.81825 0.0
C2084 C 0.24437 0.88162 0.76946 0.0
H2085 H 0.26833 0.84954 0.667 0.0
H2086 H 0.26934 0.85328 0.7084 0.0
H2087 H 0.23395 0.88418 0.7363 0.0
H2088 H 0.24172 0.89313 0.85475 0.0
H2089 H 0.2435 0.89653 0.81315 0.0
H2090 H 0.28154 0.87074 0.77884 0.0
C2091 C 0.26394 0.86204 0.6979 0.0
C2092 C 0.24448 0.88148 0.74542 0.0
C2093 C 0.26321 0.8598 0.6742 0.0
C2094 C 0.2482 0.88483 0.84482 0.0
C2095 C 0.24908 0.88669 0.82096 0.0
C2096 C 0.27107 0.87371 0.76979 0.0
C2097 C 0.25745 0.87521 0.708 0.0
C2098 C 0.25777 0.87708 0.73336 0.0
C2099 C 0.25708 0.87596 0.80738 0.0
C2100 C 0.25758 0.87741 0.78192 0.0
H2101 H 0.24407 0.89257 0.65942 0.0
H2102 H 0.2453 0.8965 0.70108 0.0
H2103 H 0.28166 0.87036 0.73698 0.0
H2104 H 0.26906 0.85178 0.84976 0.0
H2105 H 0.27034 0.85481 0.80833 0.0
C2106 C 0.39596 0.99349 0.91802 0.0
C2107 C 0.38548 1.00135 0.90389 0.0
C2108 C 0.39383 0.99294 0.94176 0.0
C2109 C 0.37516 0.01355 0.98942 0.0
H2110 H 0.38621 0.97678 0.0234 0.0
C2111 C 0.37235 0.0096 0.08923 0.0
C2112 C 0.38556 1.00331 0.09953 0.0
C2113 C 0.37029 0.00878 0.06537 0.0
C2114 C 0.38311 0.98715 0.01416 0.0
H2115 H 0.36443 0.01471 0.90368 0.0
H2116 H 0.36058 0.0136 0.94529 0.0
H2117 H 0.38607 0.97622 0.98156 0.0
H2118 H 0.40671 0.99086 0.09298 0.0
H2119 H 0.4032 0.98951 0.05159 0.0
H2120 H 0.37244 0.02452 0.02217 0.0
C2121 C 0.37052 0.00795 0.93792 0.0
C2122 C 0.38305 0.98684 0.99018 0.0
C2123 C 0.37264 0.00846 0.91407 0.0
C2124 C 0.39652 0.996 0.08556 0.0
C2125 C 0.39441 0.99506 0.06185 0.0
C2126 C 0.37517 0.01384 0.01348 0.0
C2127 C 0.38114 1.00023 0.95206 0.0
C2128 C 0.37945 1.00014 0.9775 0.0
C2129 C 0.38131 1.00146 0.05145 0.0
C2130 C 0.37952 1.00074 0.02608 0.0
H2131 H 0.40586 0.98773 0.91074 0.0
H2132 H 0.40235 0.98707 0.95212 0.0
H2133 H 0.37244 0.02403 0.9802 0.0
H2134 H 0.36375 0.01537 0.09955 0.0
H2135 H 0.36006 0.01377 0.05784 0.0
C2136 C 0.75746 0.8573 0.67172 0.0
C2137 C 0.75721 0.8705 0.6577 0.0
C2138 C 0.75705 0.85857 0.69556 0.0
C2139 C 0.74541 0.88257 0.74363 0.0
H2140 H 0.7761 0.85895 0.77671 0.0
C2141 C 0.75028 0.88236 0.84355 0.0
C2142 C 0.75349 0.86802 0.8538 0.0
C2143 C 0.75091 0.88414 0.81964 0.0
C2144 C 0.76735 0.8655 0.7678 0.0
H2145 H 0.75571 0.89545 0.65815 0.0
H2146 H 0.7546 0.89758 0.70005 0.0
H2147 H 0.77651 0.85941 0.73494 0.0
H2148 H 0.75988 0.84435 0.84655 0.0
H2149 H 0.76041 0.8473 0.8053 0.0
H2150 H 0.73593 0.88826 0.77657 0.0
C2151 C 0.75529 0.88627 0.69229 0.0
C2152 C 0.76764 0.86581 0.74386 0.0
C2153 C 0.75589 0.88502 0.66829 0.0
C2154 C 0.75715 0.85552 0.83947 0.0
C2155 C 0.75771 0.85728 0.81569 0.0
C2156 C 0.74502 0.88215 0.7677 0.0
C2157 C 0.75616 0.87305 0.70612 0.0
C2158 C 0.75652 0.87409 0.73152 0.0
C2159 C 0.75476 0.87163 0.80544 0.0
C2160 C 0.75581 0.87333 0.78004 0.0
H2161 H 0.758 0.84589 0.66436 0.0
H2162 H 0.7574 0.84816 0.70581 0.0
H2163 H 0.73668 0.88902 0.73449 0.0
H2164 H 0.74724 0.89222 0.85393 0.0
H2165 H 0.74862 0.89537 0.81232 0.0
C2166 C 0.89596 0.01476 0.41755 0.0
C2167 C 0.88631 0.00568 0.40376 0.0
C2168 C 0.89465 0.01441 0.44144 0.0
C2169 C 0.8694 1.00242 0.48974 0.0
H2170 H 0.90801 1.00196 0.52305 0.0
C2171 C 0.87361 0.00732 0.58924 0.0
C2172 C 0.88534 0.99893 0.60017 0.0
C2173 C 0.87261 0.00764 0.56523 0.0
C2174 C 0.89711 1.00191 0.51406 0.0
H2175 H 0.86745 0.98938 0.40414 0.0
H2176 H 0.86526 0.98857 0.44602 0.0
H2177 H 0.90822 0.00376 0.48148 0.0
H2178 H 0.90458 0.98356 0.59463 0.0
H2179 H 0.90273 0.98388 0.55291 0.0
H2180 H 0.85834 1.00017 0.52251 0.0
C2181 C 0.87371 0.99615 0.43833 0.0
C2182 C 0.89722 1.00319 0.49017 0.0
C2183 C 0.87496 0.9966 0.41435 0.0
C2184 C 0.89563 0.99038 0.58667 0.0
C2185 C 0.89457 0.9906 0.56275 0.0
C2186 C 0.86928 1.00111 0.51374 0.0
C2187 C 0.88374 0.00485 0.45218 0.0
C2188 C 0.88338 0.00351 0.47768 0.0
C2189 C 0.88327 0.9995 0.55169 0.0
C2190 C 0.88316 1.0008 0.52617 0.0
H2191 H 0.90461 0.0221 0.40984 0.0
H2192 H 0.90231 0.02156 0.45151 0.0
H2193 H 0.85852 1.00274 0.48067 0.0
H2194 H 0.8656 0.01412 0.59922 0.0
H2195 H 0.86384 0.01471 0.55729 0.0
C2196 C 0.74969 0.12312 0.34071 0.0
C2197 C 0.75647 0.13594 0.35146 0.0
C2198 C 0.75057 0.1213 0.31684 0.0
C2199 C 0.77205 0.13489 0.26546 0.0
H2200 H 0.73495 0.12384 0.23233 0.0
C2201 C 0.76382 0.14868 0.16989 0.0
C2202 C 0.7569 0.13761 0.15566 0.0
C2203 C 0.76448 0.14654 0.19362 0.0
C2204 C 0.74547 0.12671 0.24134 0.0
H2205 H 0.76992 0.15658 0.34559 0.0
H2206 H 0.77121 0.15361 0.30415 0.0
H2207 H 0.73499 0.12344 0.27429 0.0
H2208 H 0.7452 0.11558 0.15524 0.0
H2209 H 0.74631 0.11183 0.19695 0.0
H2210 H 0.7824 0.13857 0.23256 0.0
C2211 C 0.76532 0.14487 0.31409 0.0
C2212 C 0.7455 0.12647 0.26539 0.0
C2213 C 0.76441 0.14669 0.33786 0.0
C2214 C 0.75068 0.12427 0.16575 0.0
C2215 C 0.75122 0.12218 0.18961 0.0
C2216 C 0.77199 0.13519 0.24148 0.0
C2217 C 0.75832 0.13222 0.30323 0.0
C2218 C 0.75871 0.13087 0.27774 0.0
C2219 C 0.75817 0.1333 0.20378 0.0
C2220 C 0.75862 0.13141 0.22915 0.0
H2221 H 0.74338 0.1147 0.35066 0.0
H2222 H 0.74515 0.11137 0.30904 0.0
H2223 H 0.78252 0.13802 0.27441 0.0
H2224 H 0.76889 0.15898 0.16265 0.0
H2225 H 0.76974 0.15541 0.20407 0.0
C2226 C 0.63288 0.00791 0.91703 0.0
C2227 C 0.62124 0.99936 0.90615 0.0
C2228 C 0.63393 0.00823 0.94104 0.0
C2229 C 0.60973 1.00217 0.99241 0.0
H2230 H 0.64847 1.00314 0.02541 0.0
C2231 C 0.61139 0.0152 0.08884 0.0
C2232 C 0.62106 0.00612 0.10259 0.0
C2233 C 0.61258 0.01479 0.06494 0.0
C2234 C 0.63756 1.00278 0.01644 0.0
H2235 H 0.60217 0.98376 0.9118 0.0
H2236 H 0.6041 0.98412 0.95352 0.0
H2237 H 0.64847 1.00066 0.98355 0.0
H2238 H 0.63982 0.98972 0.1021 0.0
H2239 H 0.64183 0.98884 0.0602 0.0
H2240 H 0.59877 0.00393 0.02512 0.0
C2241 C 0.61216 0.99093 0.94363 0.0
C2242 C 0.63756 1.00151 0.99244 0.0
C2243 C 0.61106 0.9907 0.91971 0.0
C2244 C 0.63231 0.99695 0.09193 0.0
C2245 C 0.63345 0.99646 0.06794 0.0
C2246 C 0.60973 0.00342 0.0163 0.0
C2247 C 0.62341 0.99994 0.95463 0.0
C2248 C 0.62363 1.00117 0.98015 0.0
C2249 C 0.62339 0.00517 0.05415 0.0
C2250 C 0.62362 0.0038 0.02865 0.0
H2251 H 0.6408 0.01482 0.90703 0.0
H2252 H 0.64265 0.0154 0.94893 0.0
H2253 H 0.59879 1.00217 0.98353 0.0
H2254 H 0.60282 0.0226 0.09658 0.0
H2255 H 0.60491 0.02194 0.05489 0.0
C2256 C 0.75291 0.64645 0.67099 0.0
C2257 C 0.755 0.63343 0.65702 0.0
C2258 C 0.7509 0.64492 0.69463 0.0
C2259 C 0.75837 0.61893 0.74325 0.0
H2260 H 0.73021 0.64654 0.7744 0.0
C2261 C 0.74815 0.61948 0.84258 0.0
C2262 C 0.74824 0.63423 0.8526 0.0
C2263 C 0.74828 0.61776 0.81864 0.0
C2264 C 0.73815 0.63878 0.76595 0.0
H2265 H 0.75653 0.60852 0.65708 0.0
H2266 H 0.75281 0.60582 0.69858 0.0
H2267 H 0.73111 0.64625 0.7326 0.0
H2268 H 0.7493 0.65869 0.84504 0.0
H2269 H 0.74924 0.65568 0.80365 0.0
H2270 H 0.76547 0.61161 0.77685 0.0
C2271 C 0.75287 0.61723 0.69111 0.0
C2272 C 0.73868 0.63862 0.74201 0.0
C2273 C 0.75485 0.61877 0.66732 0.0
C2274 C 0.7488 0.64716 0.83808 0.0
C2275 C 0.7488 0.64545 0.81428 0.0
C2276 C 0.75777 0.61904 0.76731 0.0
C2277 C 0.75087 0.63032 0.70502 0.0
C2278 C 0.74908 0.629 0.73036 0.0
C2279 C 0.74837 0.63076 0.80427 0.0
C2280 C 0.74793 0.62927 0.77888 0.0
H2281 H 0.75273 0.65789 0.66366 0.0
H2282 H 0.74962 0.65526 0.70484 0.0
H2283 H 0.76656 0.61144 0.73481 0.0
H2284 H 0.74763 0.60925 0.85315 0.0
H2285 H 0.74792 0.6063 0.81136 0.0
C2286 C 0.60809 0.51722 0.92156 0.0
C2287 C 0.61911 0.50986 0.90776 0.0
C2288 C 0.60972 0.51761 0.94541 0.0
C2289 C 0.62839 0.49711 0.99333 0.0
H2290 H 0.6153 0.53289 0.02799 0.0
C2291 C 0.63097 0.50006 0.09305 0.0
C2292 C 0.61761 0.50576 0.1037 0.0
C2293 C 0.63284 0.5012 0.0692 0.0
C2294 C 0.61894 0.52279 0.01855 0.0
H2295 H 0.64064 0.49726 0.90828 0.0
H2296 H 0.64364 0.49816 0.94999 0.0
H2297 H 0.6158 0.53398 0.98616 0.0
H2298 H 0.59596 0.51746 0.09771 0.0
H2299 H 0.59914 0.51932 0.05628 0.0
H2300 H 0.63135 0.48589 0.02583 0.0
C2301 C 0.63363 0.50351 0.94231 0.0
C2302 C 0.61921 0.5234 0.99458 0.0
C2303 C 0.632 0.50314 0.91838 0.0
C2304 C 0.60628 0.51277 0.09003 0.0
C2305 C 0.6082 0.51401 0.0663 0.0
C2306 C 0.62817 0.49653 0.01736 0.0
C2307 C 0.62245 0.51066 0.95613 0.0
C2308 C 0.62363 0.51047 0.98164 0.0
C2309 C 0.62147 0.50821 0.05558 0.0
C2310 C 0.62314 0.50926 0.03021 0.0
H2311 H 0.59813 0.52267 0.91396 0.0
H2312 H 0.60078 0.52305 0.9555 0.0
H2313 H 0.63171 0.48689 0.98392 0.0
H2314 H 0.63986 0.49452 0.1031 0.0
H2315 H 0.64322 0.49668 0.06145 0.0
C2316 C 0.75037 0.35796 0.33761 0.0
C2317 C 0.75262 0.37119 0.35107 0.0
C2318 C 0.74826 0.3591 0.31392 0.0
C2319 C 0.75576 0.3846 0.2646 0.0
H2320 H 0.72784 0.35661 0.23368 0.0
C2321 C 0.74566 0.38523 0.16589 0.0
C2322 C 0.74573 0.37073 0.15508 0.0
C2323 C 0.74555 0.3864 0.18987 0.0
C2324 C 0.73574 0.36445 0.24206 0.0
H2325 H 0.75421 0.39609 0.35006 0.0
H2326 H 0.75026 0.39812 0.30858 0.0
H2327 H 0.72889 0.35692 0.27549 0.0
H2328 H 0.74607 0.34609 0.16138 0.0
H2329 H 0.74567 0.34816 0.20296 0.0
H2330 H 0.76265 0.39203 0.23102 0.0
C2331 C 0.75032 0.38682 0.31644 0.0
C2332 C 0.73635 0.36462 0.26602 0.0
C2333 C 0.75243 0.38567 0.34024 0.0
C2334 C 0.74571 0.35745 0.16893 0.0
C2335 C 0.7455 0.35863 0.19285 0.0
C2336 C 0.75509 0.38447 0.24058 0.0
C2337 C 0.74828 0.37352 0.30299 0.0
C2338 C 0.74659 0.37447 0.2776 0.0
C2339 C 0.74539 0.3731 0.20359 0.0
C2340 C 0.74528 0.37418 0.22906 0.0
H2341 H 0.7502 0.34664 0.34535 0.0
H2342 H 0.74693 0.34859 0.30411 0.0
H2343 H 0.76388 0.39222 0.27295 0.0
H2344 H 0.74548 0.39573 0.15591 0.0
H2345 H 0.74535 0.39771 0.19766 0.0
C2346 C 0.89682 0.5174 0.58912 0.0
C2347 C 0.88687 0.50887 0.60322 0.0
C2348 C 0.8957 0.51648 0.56524 0.0
C2349 C 0.87048 0.50394 0.51729 0.0
H2350 H 0.90924 0.50175 0.4845 0.0
C2351 C 0.87538 0.50667 0.41774 0.0
C2352 C 0.88693 0.49776 0.40735 0.0
C2353 C 0.87424 0.50747 0.4417 0.0
C2354 C 0.8983 0.50218 0.49336 0.0
H2355 H 0.86773 0.49288 0.60336 0.0
H2356 H 0.86585 0.4911 0.56156 0.0
H2357 H 0.90929 0.50453 0.52596 0.0
H2358 H 0.90568 0.48195 0.4138 0.0
H2359 H 0.90358 0.4831 0.45548 0.0
H2360 H 0.85954 0.5012 0.48453 0.0
C2361 C 0.87439 0.49871 0.56897 0.0
C2362 C 0.89832 0.50402 0.51716 0.0
C2363 C 0.87545 0.49972 0.59292 0.0
C2364 C 0.89687 0.48915 0.42135 0.0
C2365 C 0.89567 0.48985 0.44523 0.0
C2366 C 0.87046 0.50206 0.49339 0.0
C2367 C 0.88468 0.50689 0.55485 0.0
C2368 C 0.88444 0.50497 0.52945 0.0
C2369 C 0.88458 0.49929 0.45573 0.0
C2370 C 0.88438 0.50113 0.48115 0.0
H2371 H 0.90554 0.52476 0.59658 0.0
H2372 H 0.90358 0.52323 0.55491 0.0
H2373 H 0.85958 0.50473 0.52621 0.0
H2374 H 0.86765 0.51354 0.40737 0.0
H2375 H 0.86564 0.51495 0.44921 0.0
C2376 C 0.25963 0.35623 0.17016 0.0
C2377 C 0.25201 0.36685 0.15595 0.0
C2378 C 0.26007 0.35833 0.19391 0.0
C2379 C 0.2399 0.37763 0.24154 0.0
H2380 H 0.27675 0.36654 0.27525 0.0
C2381 C 0.24489 0.38229 0.34105 0.0
C2382 C 0.25104 0.36917 0.35182 0.0
C2383 C 0.24548 0.38383 0.3171 0.0
C2384 C 0.26636 0.36964 0.26608 0.0
H2385 H 0.23882 0.38803 0.15569 0.0
H2386 H 0.23978 0.39183 0.19726 0.0
H2387 H 0.27699 0.36605 0.2334 0.0
H2388 H 0.263 0.34764 0.34597 0.0
H2389 H 0.26395 0.35027 0.30441 0.0
H2390 H 0.22925 0.38105 0.27438 0.0
C2391 C 0.24533 0.3818 0.18995 0.0
C2392 C 0.26648 0.36933 0.24211 0.0
C2393 C 0.24491 0.37971 0.16611 0.0
C2394 C 0.25797 0.35777 0.3382 0.0
C2395 C 0.25869 0.35937 0.31439 0.0
C2396 C 0.2398 0.378 0.26559 0.0
C2397 C 0.25292 0.37112 0.20413 0.0
C2398 C 0.25316 0.37298 0.22954 0.0
C2399 C 0.25242 0.37238 0.30354 0.0
C2400 C 0.25293 0.37367 0.2781 0.0
H2401 H 0.26536 0.3463 0.16293 0.0
H2402 H 0.26582 0.34974 0.20432 0.0
H2403 H 0.22941 0.38041 0.23241 0.0
H2404 H 0.23941 0.39121 0.35111 0.0
H2405 H 0.24061 0.39401 0.30922 0.0
C2406 C 0.37814 0.49563 0.92001 0.0
C2407 C 0.3883 0.50578 0.90891 0.0
C2408 C 0.37734 0.49519 0.94403 0.0
C2409 C 0.40052 0.50498 0.99509 0.0
H2410 H 0.36206 0.5007 0.02823 0.0
C2411 C 0.39968 0.49591 0.09271 0.0
C2412 C 0.38888 0.50443 0.10535 0.0
C2413 C 0.39876 0.49517 0.06881 0.0
C2414 C 0.37288 0.50197 0.01921 0.0
H2415 H 0.40495 0.52402 0.91426 0.0
H2416 H 0.40353 0.52333 0.95592 0.0
H2417 H 0.36188 0.50172 0.98624 0.0
H2418 H 0.3685 0.51869 0.10286 0.0
H2419 H 0.36697 0.51756 0.061 0.0
H2420 H 0.41152 0.50564 0.02786 0.0
C2421 C 0.39647 0.5154 0.94618 0.0
C2422 C 0.37279 0.5024 0.99517 0.0
C2423 C 0.39729 0.5158 0.92228 0.0
C2424 C 0.37691 0.51192 0.09359 0.0
C2425 C 0.37602 0.51125 0.06962 0.0
C2426 C 0.40061 0.50456 0.01903 0.0
C2427 C 0.38668 0.50494 0.95737 0.0
C2428 C 0.38661 0.50403 0.98286 0.0
C2429 C 0.38706 0.50301 0.05694 0.0
C2430 C 0.38681 0.50309 0.03141 0.0
H2431 H 0.37113 0.48772 0.91016 0.0
H2432 H 0.36975 0.48692 0.95214 0.0
H2433 H 0.4114 0.50601 0.98615 0.0
H2434 H 0.40883 0.48975 0.10131 0.0
H2435 H 0.40726 0.48846 0.05961 0.0
C2436 C 0.24646 0.6469 0.67021 0.0
C2437 C 0.24757 0.63383 0.65604 0.0
C2438 C 0.24613 0.64546 0.69404 0.0
C2439 C 0.25741 0.62156 0.74227 0.0
H2440 H 0.22541 0.64408 0.77427 0.0
C2441 C 0.25205 0.62218 0.84194 0.0
C2442 C 0.24865 0.63657 0.85181 0.0
C2443 C 0.2512 0.62008 0.81811 0.0
C2444 C 0.2345 0.63782 0.76565 0.0
H2445 H 0.24972 0.6089 0.65631 0.0
H2446 H 0.24957 0.6065 0.69816 0.0
H2447 H 0.2257 0.64367 0.73246 0.0
H2448 H 0.24143 0.65993 0.84419 0.0
H2449 H 0.24046 0.65645 0.80299 0.0
H2450 H 0.26658 0.6162 0.77551 0.0
C2451 C 0.24878 0.61784 0.69052 0.0
C2452 C 0.23461 0.63754 0.74171 0.0
C2453 C 0.24891 0.61926 0.66653 0.0
C2454 C 0.24434 0.64875 0.83729 0.0
C2455 C 0.24354 0.64668 0.81358 0.0
C2456 C 0.2574 0.62197 0.76633 0.0
C2457 C 0.24712 0.63093 0.70444 0.0
C2458 C 0.24624 0.6297 0.72978 0.0
C2459 C 0.24691 0.63232 0.80365 0.0
C2460 C 0.24613 0.63041 0.77828 0.0
H2461 H 0.24586 0.65835 0.66302 0.0
H2462 H 0.24517 0.65577 0.7044 0.0
H2463 H 0.26653 0.61547 0.73344 0.0
H2464 H 0.25555 0.61257 0.85254 0.0
H2465 H 0.25379 0.60885 0.81104 0.0
C2466 C 0.11082 0.51046 0.41958 0.0
C2467 C 0.12311 0.5051 0.40612 0.0
C2468 C 0.11257 0.51249 0.4432 0.0
C2469 C 0.13421 0.4982 0.49228 0.0
H2470 H 0.11694 0.53377 0.52314 0.0
C2471 C 0.1347 0.50396 0.59142 0.0
C2472 C 0.12105 0.50947 0.60147 0.0
C2473 C 0.13689 0.50477 0.56762 0.0
C2474 C 0.12173 0.5237 0.51483 0.0
H2475 H 0.14692 0.49781 0.40679 0.0
H2476 H 0.14997 0.5012 0.44839 0.0
H2477 H 0.11729 0.53281 0.48129 0.0
H2478 H 0.09923 0.52057 0.59428 0.0
H2479 H 0.1028 0.52152 0.553 0.0
H2480 H 0.1381 0.48878 0.52575 0.0
C2481 C 0.139 0.50387 0.44052 0.0
C2482 C 0.12198 0.5232 0.49085 0.0
C2483 C 0.1373 0.50203 0.41675 0.0
C2484 C 0.10978 0.51602 0.58718 0.0
C2485 C 0.11194 0.51678 0.56345 0.0
C2486 C 0.13384 0.49864 0.5163 0.0
C2487 C 0.12661 0.50906 0.45398 0.0
C2488 C 0.12795 0.51032 0.47933 0.0
C2489 C 0.12548 0.51109 0.55332 0.0
C2490 C 0.12731 0.51126 0.52788 0.0
H2491 H 0.09982 0.51308 0.41181 0.0
H2492 H 0.10278 0.51636 0.45315 0.0
H2493 H 0.13876 0.48806 0.48385 0.0
H2494 H 0.14357 0.49872 0.60183 0.0
H2495 H 0.14752 0.5004 0.56045 0.0
C2496 C 0.37457 0.0535 0.16747 0.0
C2497 C 0.36279 0.04393 0.17581 0.0
C2498 C 0.37093 0.06711 0.15583 0.0
C2499 C 0.34052 0.0952 0.14421 0.0
H2500 H 0.34899 0.08912 0.07942 0.0
C2501 C 0.30107 0.09778 0.06561 0.0
C2502 C 0.29459 0.11246 0.06754 0.0
C2503 C 0.31536 0.09469 0.07541 0.0
C2504 C 0.34692 0.09131 0.09748 0.0
H2505 H 0.33821 0.04141 0.18021 0.0
H2506 H 0.33184 0.06547 0.16071 0.0
H2507 H 0.36301 0.07405 0.10809 0.0
H2508 H 0.29814 0.13577 0.07957 0.0
H2509 H 0.32302 0.13019 0.09767 0.0
H2510 H 0.32359 0.11155 0.13361 0.0
C2511 C 0.34384 0.06243 0.16291 0.0
C2512 C 0.35495 0.08273 0.11386 0.0
C2513 C 0.34744 0.04865 0.17392 0.0
C2514 C 0.30309 0.12439 0.07769 0.0
C2515 C 0.31725 0.12121 0.08807 0.0
C2516 C 0.3327 0.10396 0.12787 0.0
C2517 C 0.3555 0.0715 0.1531 0.0
C2518 C 0.35112 0.08398 0.13723 0.0
C2519 C 0.32316 0.10616 0.08784 0.0
C2520 C 0.33517 0.10139 0.10432 0.0
H2521 H 0.3865 0.04996 0.16856 0.0
H2522 H 0.38006 0.07389 0.1482 0.0
H2523 H 0.3374 0.09631 0.16216 0.0
H2524 H 0.29462 0.08843 0.05792 0.0
H2525 H 0.31956 0.08295 0.07521 0.0
C2526 C 0.14177 0.04565 0.35396 0.0
C2527 C 0.1396 0.04297 0.33047 0.0
C2528 C 0.14503 0.06035 0.36192 0.0
C2529 C 0.15143 0.09247 0.37693 0.0
H2530 H 0.18915 0.10326 0.3454 0.0
C2531 C 0.20383 0.1214 0.422 0.0
C2532 C 0.21692 0.1121 0.41898 0.0
C2533 C 0.19067 0.11897 0.40856 0.0
C2534 C 0.17848 0.10068 0.35421 0.0
H2535 H 0.13792 0.05349 0.29689 0.0
H2536 H 0.14432 0.07952 0.31077 0.0
H2537 H 0.16977 0.08816 0.3255 0.0
H2538 H 0.22643 0.09292 0.39978 0.0
H2539 H 0.20368 0.08869 0.3767 0.0
H2540 H 0.16104 0.10355 0.40649 0.0
C2541 C 0.14328 0.07021 0.32304 0.0
C2542 C 0.16727 0.09215 0.34273 0.0
C2543 C 0.13969 0.05539 0.31509 0.0
C2544 C 0.21655 0.10027 0.4026 0.0
C2545 C 0.20358 0.098 0.38909 0.0
C2546 C 0.1627 0.10094 0.38847 0.0
C2547 C 0.14644 0.07271 0.34649 0.0
C2548 C 0.15423 0.08689 0.3546 0.0
C2549 C 0.19058 0.10741 0.39168 0.0
C2550 C 0.17679 0.10403 0.37769 0.0
H2551 H 0.14149 0.03622 0.36617 0.0
H2552 H 0.14762 0.06173 0.38 0.0
H2553 H 0.14129 0.08885 0.38632 0.0
H2554 H 0.20386 0.13067 0.43443 0.0
H2555 H 0.18068 0.12623 0.41107 0.0
C2556 C 0.20283 0.88482 0.58857 0.0
C2557 C 0.21576 0.89454 0.58984 0.0
C2558 C 0.18976 0.88787 0.60194 0.0
C2559 C 0.1615 0.90586 0.62171 0.0
H2560 H 0.16975 0.92106 0.68313 0.0
C2561 C 0.13551 0.95947 0.6566 0.0
C2562 C 0.13512 0.96252 0.68019 0.0
C2563 C 0.13971 0.94499 0.64863 0.0
C2564 C 0.16696 0.91642 0.66637 0.0
H2565 H 0.22496 0.91525 0.60554 0.0
H2566 H 0.20235 0.92052 0.62853 0.0
H2567 H 0.18953 0.90699 0.66259 0.0
H2568 H 0.13748 0.95281 0.7142 0.0
H2569 H 0.14513 0.92721 0.70028 0.0
H2570 H 0.13921 0.91611 0.625 0.0
C2571 C 0.20234 0.91043 0.61759 0.0
C2572 C 0.17841 0.90851 0.65449 0.0
C2573 C 0.21523 0.90751 0.60416 0.0
C2574 C 0.13772 0.95059 0.6959 0.0
C2575 C 0.14211 0.93602 0.6879 0.0
C2576 C 0.14998 0.91375 0.63366 0.0
C2577 C 0.18959 0.90052 0.61696 0.0
C2578 C 0.17613 0.90412 0.63153 0.0
C2579 C 0.14386 0.9333 0.66415 0.0
C2580 C 0.15302 0.92009 0.65547 0.0
H2581 H 0.20297 0.87469 0.57773 0.0
H2582 H 0.17997 0.88018 0.60098 0.0
H2583 H 0.15941 0.90244 0.60409 0.0
H2584 H 0.13349 0.96861 0.64426 0.0
H2585 H 0.14109 0.94349 0.63028 0.0
C2586 C 0.37368 0.95585 0.83747 0.0
C2587 C 0.36255 0.96519 0.82694 0.0
C2588 C 0.36921 0.94254 0.84923 0.0
C2589 C 0.35011 0.92902 0.88981 0.0
H2590 H 0.32085 0.89853 0.86835 0.0
C2591 C 0.29368 0.91281 0.93225 0.0
C2592 C 0.28954 0.89728 0.93402 0.0
C2593 C 0.30764 0.91693 0.92221 0.0
C2594 C 0.32933 0.90666 0.87459 0.0
H2595 H 0.33842 0.96758 0.81864 0.0
H2596 H 0.33066 0.94398 0.83833 0.0
H2597 H 0.33644 0.9128 0.84052 0.0
H2598 H 0.29674 0.87379 0.92765 0.0
H2599 H 0.321 0.88111 0.90893 0.0
H2600 H 0.3417 0.92415 0.92367 0.0
C2601 C 0.34276 0.94697 0.83775 0.0
C2602 C 0.33819 0.91481 0.8587 0.0
C2603 C 0.34715 0.96048 0.82663 0.0
C2604 C 0.29983 0.88585 0.92663 0.0
C2605 C 0.31364 0.89 0.91595 0.0
C2606 C 0.34102 0.9211 0.90566 0.0
C2607 C 0.35366 0.93824 0.84988 0.0
C2608 C 0.34814 0.9265 0.86617 0.0
C2609 C 0.31745 0.90558 0.91326 0.0
C2610 C 0.33011 0.91036 0.89804 0.0
H2611 H 0.38561 0.95944 0.83809 0.0
H2612 H 0.37774 0.93602 0.85869 0.0
H2613 H 0.35759 0.93812 0.89591 0.0
H2614 H 0.28587 0.92177 0.93783 0.0
H2615 H 0.31027 0.92903 0.92001 0.0
C2616 C 0.66171 0.95945 0.8287 0.0
C2617 C 0.64626 0.96393 0.8275 0.0
C2618 C 0.66566 0.94537 0.83851 0.0
C2619 C 0.65566 0.92392 0.88647 0.0
H2620 H 0.68676 0.89557 0.86436 0.0
C2621 C 0.71051 0.90744 0.93206 0.0
C2622 C 0.71562 0.89217 0.9317 0.0
C2623 C 0.69662 0.91137 0.92167 0.0
C2624 C 0.67774 0.90305 0.87071 0.0
H2625 H 0.62273 0.95722 0.83463 0.0
H2626 H 0.62978 0.93274 0.85298 0.0
H2627 H 0.67231 0.91124 0.83692 0.0
H2628 H 0.71022 0.86886 0.92129 0.0
H2629 H 0.6861 0.87592 0.90194 0.0
H2630 H 0.66241 0.91708 0.92039 0.0
C2631 C 0.63872 0.93993 0.84568 0.0
C2632 C 0.66954 0.91202 0.85503 0.0
C2633 C 0.63473 0.95386 0.83522 0.0
C2634 C 0.70632 0.88069 0.92192 0.0
C2635 C 0.69261 0.8847 0.91089 0.0
C2636 C 0.66408 0.91518 0.90217 0.0
C2637 C 0.65424 0.93577 0.84781 0.0
C2638 C 0.65899 0.92303 0.86291 0.0
C2639 C 0.68788 0.90014 0.91023 0.0
C2640 C 0.67569 0.90525 0.89441 0.0
H2641 H 0.67076 0.96709 0.82286 0.0
H2642 H 0.67773 0.94248 0.84029 0.0
H2643 H 0.64767 0.93246 0.89291 0.0
H2644 H 0.71757 0.91643 0.9395 0.0
H2645 H 0.69331 0.92338 0.92107 0.0
C2646 C 0.84707 0.95758 0.67534 0.0
C2647 C 0.8623 0.96264 0.67758 0.0
C2648 C 0.84389 0.94353 0.66481 0.0
C2649 C 0.85631 0.92229 0.61723 0.0
H2650 H 0.82501 0.89342 0.63715 0.0
C2651 C 0.80578 0.87879 0.58153 0.0
C2652 C 0.79742 0.89028 0.57007 0.0
C2653 C 0.81972 0.88245 0.59223 0.0
C2654 C 0.83411 0.90102 0.6314 0.0
H2655 H 0.88621 0.95696 0.6714 0.0
H2656 H 0.88054 0.93252 0.6519 0.0
H2657 H 0.83792 0.90965 0.66541 0.0
H2658 H 0.79757 0.91391 0.55844 0.0
H2659 H 0.82212 0.92019 0.57631 0.0
H2660 H 0.85128 0.91486 0.58292 0.0
C2661 C 0.87116 0.93926 0.65889 0.0
C2662 C 0.84141 0.91036 0.64757 0.0
C2663 C 0.87437 0.95315 0.67005 0.0
C2664 C 0.80392 0.9049 0.56714 0.0
C2665 C 0.81799 0.90844 0.5773 0.0
C2666 C 0.84882 0.91313 0.60098 0.0
C2667 C 0.85587 0.93451 0.65582 0.0
C2668 C 0.85198 0.92159 0.64045 0.0
C2669 C 0.82556 0.89752 0.59107 0.0
C2670 C 0.83709 0.903 0.60784 0.0
H2671 H 0.8376 0.96475 0.68099 0.0
H2672 H 0.83199 0.94021 0.66234 0.0
H2673 H 0.86437 0.93096 0.61134 0.0
H2674 H 0.80082 0.86749 0.58419 0.0
H2675 H 0.82533 0.87387 0.60282 0.0
C2676 C 0.87282 0.05123 0.33324 0.0
C2677 C 0.86163 0.04107 0.32471 0.0
C2678 C 0.86838 0.06493 0.34395 0.0
C2679 C 0.83691 0.09219 0.35285 0.0
H2680 H 0.84347 0.08683 0.4183 0.0
C2681 C 0.80024 0.12385 0.41988 0.0
C2682 C 0.79076 0.11256 0.42977 0.0
C2683 C 0.81382 0.11958 0.40867 0.0
C2684 C 0.84193 0.08879 0.40007 0.0
H2685 H 0.8373 0.03758 0.31887 0.0
H2686 H 0.82954 0.06181 0.33672 0.0
H2687 H 0.85855 0.07168 0.39094 0.0
H2688 H 0.78835 0.08832 0.43749 0.0
H2689 H 0.81239 0.0809 0.41878 0.0
H2690 H 0.81954 0.10854 0.36203 0.0
C2691 C 0.84169 0.05915 0.3354 0.0
C2692 C 0.85055 0.08019 0.38444 0.0
C2693 C 0.84609 0.04529 0.32534 0.0
C2694 C 0.79556 0.09718 0.42999 0.0
C2695 C 0.80931 0.09298 0.41943 0.0
C2696 C 0.82851 0.10103 0.36846 0.0
C2697 C 0.85274 0.0688 0.34553 0.0
C2698 C 0.84749 0.08124 0.36081 0.0
C2699 C 0.81823 0.10405 0.40794 0.0
C2700 C 0.83039 0.09876 0.39218 0.0
H2701 H 0.88488 0.04807 0.33312 0.0
H2702 H 0.87704 0.07216 0.35187 0.0
H2703 H 0.83434 0.09309 0.33469 0.0
H2704 H 0.79659 0.13577 0.41931 0.0
H2705 H 0.82047 0.12824 0.39969 0.0
C2706 C 0.66217 0.04515 0.18108 0.0
C2707 C 0.64657 0.04119 0.18198 0.0
C2708 C 0.66671 0.05908 0.17135 0.0
C2709 C 0.65786 0.08102 0.1233 0.0
H2710 H 0.6892 0.1088 0.14636 0.0
C2711 C 0.7129 0.09838 0.07803 0.0
C2712 C 0.71764 0.11379 0.07842 0.0
C2713 C 0.6992 0.09406 0.08864 0.0
C2714 C 0.68014 0.10145 0.13977 0.0
H2715 H 0.62336 0.0487 0.17438 0.0
H2716 H 0.63142 0.07293 0.1562 0.0
H2717 H 0.67439 0.09303 0.17332 0.0
H2718 H 0.71176 0.1369 0.0892 0.0
H2719 H 0.68798 0.12913 0.10893 0.0
H2720 H 0.66487 0.08812 0.0896 0.0
C2721 C 0.64004 0.06544 0.16366 0.0
C2722 C 0.67174 0.09243 0.15515 0.0
C2723 C 0.63547 0.05165 0.17403 0.0
C2724 C 0.70816 0.12497 0.08854 0.0
C2725 C 0.69464 0.12056 0.0998 0.0
C2726 C 0.6665 0.0898 0.10788 0.0
C2727 C 0.65572 0.06906 0.16184 0.0
C2728 C 0.66102 0.08169 0.14693 0.0
C2729 C 0.69027 0.10501 0.10032 0.0
C2730 C 0.67814 0.09957 0.116 0.0
H2731 H 0.67089 0.0372 0.18709 0.0
H2732 H 0.67888 0.06157 0.16982 0.0
H2733 H 0.64976 0.07267 0.1166 0.0
H2734 H 0.7201 0.08961 0.07034 0.0
H2735 H 0.69615 0.08196 0.08914 0.0
C2736 C 0.80356 0.60079 0.56791 0.0
C2737 C 0.79696 0.61543 0.56997 0.0
C2738 C 0.81755 0.59757 0.57854 0.0
C2739 C 0.83304 0.60598 0.63255 0.0
H2740 H 0.86421 0.57657 0.61411 0.0
C2741 C 0.84695 0.55008 0.67788 0.0
C2742 C 0.8623 0.54557 0.68076 0.0
C2743 C 0.84348 0.56396 0.66707 0.0
C2744 C 0.85589 0.5851 0.61954 0.0
H2745 H 0.80012 0.63854 0.58306 0.0
H2746 H 0.82444 0.6327 0.60256 0.0
H2747 H 0.85107 0.59198 0.5849 0.0
H2748 H 0.8861 0.55209 0.67548 0.0
H2749 H 0.87996 0.57622 0.65549 0.0
H2750 H 0.83662 0.59783 0.66688 0.0
C2751 C 0.81899 0.62387 0.59226 0.0
C2752 C 0.84837 0.59387 0.60285 0.0
C2753 C 0.80515 0.6272 0.58106 0.0
C2754 C 0.87417 0.55546 0.67365 0.0
C2755 C 0.87069 0.56919 0.66221 0.0
C2756 C 0.84035 0.59701 0.64916 0.0
C2757 C 0.82492 0.60883 0.59192 0.0
C2758 C 0.83634 0.6038 0.60914 0.0
C2759 C 0.85531 0.57336 0.65844 0.0
C2760 C 0.85128 0.58599 0.64263 0.0
H2761 H 0.79735 0.59156 0.55948 0.0
H2762 H 0.82177 0.58584 0.57821 0.0
H2763 H 0.82369 0.61343 0.63784 0.0
H2764 H 0.83764 0.54258 0.68319 0.0
H2765 H 0.83153 0.56685 0.66406 0.0
C2766 C 0.70211 0.60106 0.94111 0.0
C2767 C 0.70873 0.61568 0.93891 0.0
C2768 C 0.68804 0.59786 0.93066 0.0
C2769 C 0.67194 0.60634 0.87693 0.0
H2770 H 0.64105 0.57684 0.89627 0.0
C2771 C 0.65775 0.55058 0.83171 0.0
C2772 C 0.64245 0.54571 0.82975 0.0
C2773 C 0.66119 0.56454 0.84233 0.0
C2774 C 0.64929 0.5854 0.89058 0.0
H2775 H 0.70562 0.63876 0.9257 0.0
H2776 H 0.68115 0.63296 0.90652 0.0
H2777 H 0.65457 0.59224 0.92508 0.0
H2778 H 0.61866 0.55165 0.8364 0.0
H2779 H 0.62478 0.57592 0.85603 0.0
H2780 H 0.66786 0.59826 0.84268 0.0
C2781 C 0.68664 0.62413 0.91679 0.0
C2782 C 0.65703 0.59416 0.90705 0.0
C2783 C 0.70056 0.62745 0.9278 0.0
C2784 C 0.63055 0.55531 0.83754 0.0
C2785 C 0.63402 0.56912 0.84877 0.0
C2786 C 0.66439 0.5974 0.86051 0.0
C2787 C 0.68063 0.60912 0.91733 0.0
C2788 C 0.66897 0.60411 0.90043 0.0
C2789 C 0.6494 0.57365 0.85167 0.0
C2790 C 0.65357 0.58632 0.86736 0.0
H2791 H 0.70831 0.59184 0.94953 0.0
H2792 H 0.68378 0.58614 0.93113 0.0
H2793 H 0.6812 0.61381 0.87136 0.0
H2794 H 0.66709 0.54331 0.82587 0.0
H2795 H 0.67315 0.56769 0.84465 0.0
C2796 C 0.65771 0.46044 0.17537 0.0
C2797 C 0.64233 0.46495 0.1778 0.0
C2798 C 0.66136 0.44698 0.16357 0.0
C2799 C 0.65093 0.42793 0.11369 0.0
H2800 H 0.68043 0.39719 0.13344 0.0
C2801 C 0.70098 0.38411 0.07754 0.0
C2802 C 0.71054 0.39568 0.06859 0.0
C2803 C 0.68687 0.38802 0.0875 0.0
C2804 C 0.67183 0.40535 0.12767 0.0
H2805 H 0.61864 0.45891 0.17054 0.0
H2806 H 0.62514 0.43556 0.14879 0.0
H2807 H 0.66666 0.41241 0.16209 0.0
H2808 H 0.71246 0.41992 0.06067 0.0
H2809 H 0.68759 0.42669 0.07719 0.0
H2810 H 0.65744 0.42211 0.07924 0.0
C2811 C 0.63426 0.44223 0.15665 0.0
C2812 C 0.66403 0.41408 0.14407 0.0
C2813 C 0.63058 0.4555 0.16909 0.0
C2814 C 0.70518 0.41085 0.06742 0.0
C2815 C 0.69094 0.41468 0.07678 0.0
C2816 C 0.65896 0.4194 0.09726 0.0
C2817 C 0.6497 0.43805 0.1535 0.0
C2818 C 0.65407 0.42589 0.13715 0.0
C2819 C 0.68206 0.40345 0.08801 0.0
C2820 C 0.67001 0.40856 0.10416 0.0
H2821 H 0.66693 0.46762 0.18188 0.0
H2822 H 0.67336 0.44406 0.16104 0.0
H2823 H 0.64338 0.4371 0.10802 0.0
H2824 H 0.70505 0.37235 0.07883 0.0
H2825 H 0.68024 0.3792 0.0962 0.0
C2826 C 0.84876 0.45667 0.33064 0.0
C2827 C 0.8641 0.46148 0.329 0.0
C2828 C 0.84517 0.44265 0.34099 0.0
C2829 C 0.84169 0.40964 0.35844 0.0
H2830 H 0.851 0.41408 0.42327 0.0
C2831 C 0.80485 0.3791 0.42457 0.0
C2832 C 0.79668 0.39079 0.43584 0.0
C2833 C 0.81884 0.38246 0.41377 0.0
C2834 C 0.84868 0.41236 0.40517 0.0
H2835 H 0.88781 0.45537 0.33598 0.0
H2836 H 0.88141 0.43099 0.35515 0.0
H2837 H 0.86481 0.42972 0.39505 0.0
H2838 H 0.79714 0.41453 0.44694 0.0
H2839 H 0.82178 0.42031 0.42889 0.0
H2840 H 0.82472 0.39319 0.36862 0.0
C2841 C 0.87226 0.43789 0.34784 0.0
C2842 C 0.85659 0.42126 0.38903 0.0
C2843 C 0.87589 0.45176 0.33688 0.0
C2844 C 0.80334 0.40537 0.43836 0.0
C2845 C 0.81746 0.40861 0.42812 0.0
C2846 C 0.83396 0.40057 0.37452 0.0
C2847 C 0.85684 0.43341 0.35038 0.0
C2848 C 0.85248 0.42061 0.36572 0.0
C2849 C 0.82492 0.39744 0.41469 0.0
C2850 C 0.83674 0.40255 0.39811 0.0
H2851 H 0.83951 0.46402 0.32469 0.0
H2852 H 0.83317 0.43954 0.34304 0.0
H2853 H 0.83836 0.40898 0.34053 0.0
H2854 H 0.79976 0.36782 0.42225 0.0
H2855 H 0.82435 0.3737 0.40341 0.0
C2856 C 0.20736 0.40959 0.42588 0.0
C2857 C 0.21178 0.39421 0.42887 0.0
C2858 C 0.19322 0.4131 0.41591 0.0
C2859 C 0.17008 0.40045 0.37054 0.0
H2860 H 0.14317 0.43339 0.3906 0.0
C2861 C 0.12792 0.45206 0.33481 0.0
C2862 C 0.13945 0.45963 0.32226 0.0
C2863 C 0.13124 0.43822 0.34606 0.0
C2864 C 0.1502 0.42384 0.38486 0.0
H2865 H 0.20488 0.37041 0.42459 0.0
H2866 H 0.18026 0.37663 0.40604 0.0
H2867 H 0.15965 0.42043 0.41847 0.0
H2868 H 0.16273 0.45821 0.30938 0.0
H2869 H 0.1684 0.43383 0.32826 0.0
H2870 H 0.16188 0.40504 0.33649 0.0
C2871 C 0.18759 0.38589 0.41201 0.0
C2872 C 0.15968 0.41651 0.40081 0.0
C2873 C 0.2016 0.38237 0.42261 0.0
C2874 C 0.15369 0.45247 0.31894 0.0
C2875 C 0.15688 0.43849 0.32966 0.0
C2876 C 0.16077 0.40797 0.35451 0.0
C2877 C 0.18344 0.40128 0.40825 0.0
C2878 C 0.17024 0.40533 0.39354 0.0
C2879 C 0.14599 0.4317 0.34437 0.0
C2880 C 0.15138 0.42028 0.36137 0.0
H2881 H 0.21506 0.41888 0.43058 0.0
H2882 H 0.19035 0.42506 0.41287 0.0
H2883 H 0.17822 0.39191 0.36455 0.0
H2884 H 0.11691 0.45755 0.33775 0.0
H2885 H 0.1227 0.43323 0.3574 0.0
C2886 C 0.30277 0.38668 0.07704 0.0
C2887 C 0.28867 0.39213 0.08554 0.0
C2888 C 0.31655 0.39053 0.08822 0.0
C2889 C 0.33173 0.40539 0.14332 0.0
H2890 H 0.35741 0.43225 0.10654 0.0
C2891 C 0.36707 0.45491 0.18331 0.0
C2892 C 0.36162 0.46877 0.17393 0.0
C2893 C 0.36387 0.44088 0.17237 0.0
C2894 C 0.35064 0.42446 0.11701 0.0
H2895 H 0.27775 0.40519 0.11281 0.0
H2896 H 0.30151 0.41171 0.13219 0.0
H2897 H 0.34005 0.41419 0.08758 0.0
H2898 H 0.34928 0.479 0.14536 0.0
H2899 H 0.34383 0.4548 0.12642 0.0
H2900 H 0.34114 0.41678 0.1727 0.0
C2901 C 0.30207 0.40452 0.11701 0.0
C2902 C 0.34079 0.41407 0.10616 0.0
C2903 C 0.28847 0.401 0.10566 0.0
C2904 C 0.35343 0.46847 0.15318 0.0
C2905 C 0.35054 0.45462 0.1421 0.0
C2906 C 0.34161 0.41575 0.15417 0.0
C2907 C 0.31625 0.39944 0.10837 0.0
C2908 C 0.33045 0.40529 0.11924 0.0
C2909 C 0.35559 0.44067 0.15162 0.0
C2910 C 0.35028 0.42615 0.14103 0.0
H2911 H 0.30316 0.37973 0.06161 0.0
H2912 H 0.32739 0.38666 0.08111 0.0
H2913 H 0.32396 0.39857 0.15374 0.0
H2914 H 0.37351 0.45489 0.19924 0.0
H2915 H 0.36772 0.43023 0.18016 0.0
C2916 C 0.36618 0.5569 0.81433 0.0
C2917 C 0.36884 0.54485 0.82982 0.0
C2918 C 0.3618 0.5714 0.82261 0.0
C2919 C 0.33701 0.59081 0.84459 0.0
H2920 H 0.3446 0.60418 0.90716 0.0
C2921 C 0.28874 0.59908 0.90699 0.0
C2922 C 0.28822 0.6119 0.92162 0.0
C2923 C 0.30164 0.59629 0.89352 0.0
C2924 C 0.3425 0.60094 0.88947 0.0
H2925 H 0.37062 0.53851 0.86564 0.0
H2926 H 0.36303 0.56349 0.88009 0.0
H2927 H 0.36481 0.59078 0.88591 0.0
H2928 H 0.30103 0.63159 0.93422 0.0
H2929 H 0.32403 0.62634 0.91088 0.0
H2930 H 0.31444 0.60017 0.84862 0.0
C2931 C 0.36435 0.56213 0.8617 0.0
C2932 C 0.35402 0.59319 0.87733 0.0
C2933 C 0.36853 0.54772 0.85346 0.0
C2934 C 0.30116 0.62158 0.92314 0.0
C2935 C 0.31424 0.61866 0.90972 0.0
C2936 C 0.32557 0.59859 0.85667 0.0
C2937 C 0.36013 0.57393 0.84642 0.0
C2938 C 0.35097 0.58706 0.85539 0.0
C2939 C 0.31439 0.60618 0.89439 0.0
C2940 C 0.32785 0.60274 0.87973 0.0
H2941 H 0.36637 0.55481 0.79599 0.0
H2942 H 0.35875 0.5803 0.8104 0.0
H2943 H 0.33421 0.58634 0.82774 0.0
H2944 H 0.279 0.59137 0.90541 0.0
H2945 H 0.30162 0.58632 0.88233 0.0
C2946 C 0.20309 0.59934 0.56696 0.0
C2947 C 0.2096 0.61404 0.56867 0.0
C2948 C 0.18889 0.59626 0.57709 0.0
C2949 C 0.1722 0.60562 0.62992 0.0
H2950 H 0.14174 0.57553 0.61117 0.0
C2951 C 0.15839 0.55025 0.67645 0.0
C2952 C 0.14312 0.54534 0.67862 0.0
C2953 C 0.16175 0.5641 0.66545 0.0
C2954 C 0.14985 0.58426 0.61667 0.0
H2955 H 0.20614 0.63737 0.58062 0.0
H2956 H 0.18143 0.63182 0.59928 0.0
H2957 H 0.15531 0.59062 0.58203 0.0
H2958 H 0.11929 0.55111 0.6719 0.0
H2959 H 0.12527 0.57516 0.65158 0.0
H2960 H 0.16799 0.598 0.66437 0.0
C2961 C 0.18712 0.62281 0.58961 0.0
C2962 C 0.15761 0.59285 0.60001 0.0
C2963 C 0.20118 0.62599 0.5789 0.0
C2964 C 0.13116 0.5548 0.67061 0.0
C2965 C 0.13455 0.56849 0.65899 0.0
C2966 C 0.16463 0.59685 0.64653 0.0
C2967 C 0.18121 0.60775 0.58962 0.0
C2968 C 0.16942 0.603 0.60646 0.0
C2969 C 0.1499 0.57305 0.65593 0.0
C2970 C 0.15399 0.58556 0.63991 0.0
H2971 H 0.20948 0.58998 0.55922 0.0
H2972 H 0.18471 0.58451 0.57706 0.0
H2973 H 0.18136 0.61326 0.63536 0.0
H2974 H 0.16777 0.54309 0.68247 0.0
H2975 H 0.17369 0.56728 0.66299 0.0
C2976 C 0.22761 0.19045 0.02101 0.0
C2977 C 0.22696 0.18281 0.04235 0.0
C2978 C 0.2268 0.20656 0.01968 0.0
C2979 C 0.23126 0.24167 0.05672 0.0
H2980 H 0.21554 0.26274 1.00291 0.0
C2981 C 0.22298 0.3077 0.05385 0.0
C2982 C 0.23008 0.31525 0.03528 0.0
C2983 C 0.2214 0.29166 0.054 0.0
C2984 C 0.22 0.25699 0.01802 0.0
H2985 H 0.22443 0.18663 0.07907 0.0
H2986 H 0.22192 0.21425 0.07658 0.0
H2987 H 0.21443 0.23467 0.00486 0.0
H2988 H 0.24056 0.31187 1.0019 0.0
H2989 H 0.2374 0.2838 1.00187 0.0
H2990 H 0.2364 0.26409 0.07005 0.0
C2991 C 0.22368 0.20789 0.06082 0.0
C2992 C 0.21947 0.24085 0.01913 0.0
C2993 C 0.22478 0.19184 0.0622 0.0
C2994 C 0.23505 0.3064 0.01645 0.0
C2995 C 0.23319 0.29035 0.0164 0.0
C2996 C 0.23151 0.25777 0.05577 0.0
C2997 C 0.22505 0.21559 0.03961 0.0
C2998 C 0.22516 0.23289 0.03849 0.0
C2999 C 0.22664 0.28277 0.0354 0.0
C3000 C 0.22595 0.26563 0.03639 0.0
H3001 H 0.22898 0.18404 0.00521 0.0
H3002 H 0.22802 0.2119 1.00298 0.0
H3003 H 0.23617 0.23615 0.07168 0.0
H3004 H 0.21921 0.31416 0.06874 0.0
H3005 H 0.21624 0.28616 0.06881 0.0
C3006 C 0.94723 0.98321 0.266 0.0
C3007 C 0.93849 0.97837 0.28505 0.0
C3008 C 0.96325 0.9813 0.26563 0.0
C3009 C 0.99624 0.97809 0.30499 0.0
H3010 H 0.01892 0.9656 0.25079 0.0
C3011 C 0.06231 0.97172 0.30789 0.0
C3012 C 0.07089 0.97656 0.28866 0.0
C3013 C 0.04628 0.97032 0.30679 0.0
C3014 C 0.01282 0.96929 0.26603 0.0
H3015 H 0.93984 0.96743 0.31846 0.0
H3016 H 0.96774 0.96409 0.3178 0.0
H3017 H 0.99083 0.96613 0.24989 0.0
H3018 H 0.069 0.98306 0.25277 0.0
H3019 H 0.0411 0.9812 0.25111 0.0
H3020 H 0.01805 0.98176 0.321 0.0
C3021 C 0.96219 0.9694 0.30315 0.0
C3022 C 0.99667 0.96953 0.26551 0.0
C3023 C 0.94616 0.97115 0.30341 0.0
C3024 C 0.06288 0.97951 0.26808 0.0
C3025 C 0.0468 0.97825 0.26704 0.0
C3026 C 0.01234 0.97801 0.30545 0.0
C3027 C 0.97098 0.97467 0.28442 0.0
C3028 C 0.98817 0.97394 0.28499 0.0
C3029 C 0.0382 0.97388 0.28651 0.0
C3030 C 0.02093 0.9736 0.28599 0.0
H3031 H 0.9417 0.98873 0.25151 0.0
H3032 H 0.96964 0.98556 0.25098 0.0
H3033 H 0.99009 0.98182 0.32018 0.0
H3034 H 0.06788 0.96954 0.3242 0.0
H3035 H 0.0402 0.96661 0.32206 0.0
C3036 C 0.27672 0.69213 0.52196 0.0
C3037 C 0.27669 0.68486 0.54364 0.0
C3038 C 0.27764 0.70821 0.5201 0.0
C3039 C 0.29006 0.74336 0.54976 0.0
H3040 H 0.25779 0.76381 0.51549 0.0
C3041 C 0.28032 0.80914 0.55695 0.0
C3042 C 0.2736 0.81716 0.53855 0.0
C3043 C 0.28194 0.7931 0.55622 0.0
C3044 C 0.26713 0.7584 0.52474 0.0
H3045 H 0.27787 0.68932 0.58038 0.0
H3046 H 0.28023 0.71709 0.5769 0.0
H3047 H 0.25886 0.73582 0.51627 0.0
H3048 H 0.26388 0.8147 0.50454 0.0
H3049 H 0.26741 0.78687 0.50261 0.0
H3050 H 0.29865 0.76577 0.55784 0.0
C3051 C 0.27944 0.71026 0.56139 0.0
C3052 C 0.26766 0.74228 0.52527 0.0
C3053 C 0.27821 0.69423 0.56331 0.0
C3054 C 0.26902 0.80882 0.51904 0.0
C3055 C 0.27092 0.7928 0.51809 0.0
C3056 C 0.28973 0.75949 0.54888 0.0
C3057 C 0.27889 0.71746 0.5398 0.0
C3058 C 0.27901 0.73458 0.53802 0.0
C3059 C 0.27715 0.78461 0.53685 0.0
C3060 C 0.27812 0.76732 0.53662 0.0
H3061 H 0.27591 0.68545 0.50632 0.0
H3062 H 0.27736 0.71343 0.5032 0.0
H3063 H 0.29903 0.73773 0.55957 0.0
H3064 H 0.28372 0.81522 0.57239 0.0
H3065 H 0.28649 0.78737 0.57126 0.0
C3066 C 0.44683 0.03465 0.80036 0.0
C3067 C 0.43866 0.02711 0.78278 0.0
C3068 C 0.46288 0.03621 0.7992 0.0
C3069 C 0.49681 0.01805 0.77152 0.0
H3070 H 0.51879 0.05336 0.7956 0.0
C3071 C 0.56291 0.02197 0.7649 0.0
C3072 C 0.57091 0.02706 0.78449 0.0
C3073 C 0.54691 0.0236 0.7633 0.0
C3074 C 0.51285 0.04336 0.78895 0.0
H3075 H 0.44097 0.01616 0.74951 0.0
H3076 H 0.46882 0.01904 0.74732 0.0
H3077 H 0.49068 0.05337 0.7952 0.0
H3078 H 0.56825 0.0383 0.81749 0.0
H3079 H 0.54038 0.04115 0.81471 0.0
H3080 H 0.51888 0.00794 0.76551 0.0
C3081 C 0.46291 0.0234 0.76234 0.0
C3082 C 0.49669 0.04336 0.78872 0.0
C3083 C 0.44689 0.0218 0.76355 0.0
C3084 C 0.56253 0.03442 0.80201 0.0
C3085 C 0.5465 0.03602 0.80044 0.0
C3086 C 0.51292 0.01806 0.77172 0.0
C3087 C 0.4712 0.03032 0.78039 0.0
C3088 C 0.48843 0.03068 0.78004 0.0
C3089 C 0.53842 0.03033 0.78127 0.0
C3090 C 0.52119 0.03069 0.78048 0.0
H3091 H 0.44092 0.03871 0.81556 0.0
H3092 H 0.46882 0.04147 0.81353 0.0
H3093 H 0.49093 0.00792 0.76517 0.0
H3094 H 0.56899 0.01649 0.75088 0.0
H3095 H 0.54117 0.01939 0.74804 0.0
C3096 C 0.23305 0.81215 0.99505 0.0
C3097 C 0.22693 0.82075 0.97669 0.0
C3098 C 0.23132 0.79613 0.99593 0.0
C3099 C 0.22412 0.76272 0.9576 0.0
H3100 H 0.22106 0.74028 0.01499 0.0
C3101 C 0.21987 0.69622 0.95956 0.0
C3102 C 0.22934 0.68862 0.97555 0.0
C3103 C 0.21771 0.71219 0.96069 0.0
C3104 C 0.222 0.74636 0.99881 0.0
H3105 H 0.21361 0.81907 0.9453 0.0
H3106 H 0.2102 0.79124 0.94717 0.0
H3107 H 0.22027 0.76836 0.01524 0.0
H3108 H 0.24337 0.6919 0.00596 0.0
H3109 H 0.23966 0.71971 0.00787 0.0
H3110 H 0.22596 0.74074 0.9412 0.0
C3111 C 0.21664 0.79687 0.9607 0.0
C3112 C 0.22157 0.7625 0.99894 0.0
C3113 C 0.2184 0.81291 0.9598 0.0
C3114 C 0.23611 0.69736 0.99323 0.0
C3115 C 0.23387 0.71332 0.99444 0.0
C3116 C 0.22448 0.7466 0.95747 0.0
C3117 C 0.22337 0.78819 0.97851 0.0
C3118 C 0.22278 0.77094 0.97835 0.0
C3119 C 0.22488 0.72101 0.97793 0.0
C3120 C 0.22358 0.73818 0.97808 0.0
H3121 H 0.2395 0.81777 0.00857 0.0
H3122 H 0.23676 0.78992 0.00986 0.0
H3123 H 0.22538 0.76874 0.94142 0.0
H3124 H 0.21459 0.68992 0.94558 0.0
H3125 H 0.21055 0.71768 0.94785 0.0
C3126 C 0.56149 0.97023 0.20558 0.0
C3127 C 0.56919 0.97862 0.22278 0.0
C3128 C 0.54548 0.96833 0.20629 0.0
C3129 C 0.51106 0.97193 0.24443 0.0
H3130 H 0.48933 0.97795 0.18699 0.0
C3131 C 0.44585 0.98583 0.23997 0.0
C3132 C 0.43718 0.98009 0.22143 0.0
C3133 C 0.46179 0.98356 0.24103 0.0
C3134 C 0.49517 0.97598 0.20315 0.0
H3135 H 0.56601 0.99084 0.2549 0.0
H3136 H 0.53817 0.98772 0.25598 0.0
H3137 H 0.51732 0.97763 0.18727 0.0
H3138 H 0.43859 0.96698 0.18981 0.0
H3139 H 0.46631 0.96276 0.19189 0.0
H3140 H 0.48886 0.97055 0.26035 0.0
C3141 C 0.54449 0.98255 0.24194 0.0
C3142 C 0.51129 0.97579 0.20332 0.0
C3143 C 0.56049 0.98447 0.24121 0.0
C3144 C 0.44483 0.97147 0.20445 0.0
C3145 C 0.46079 0.96923 0.20548 0.0
C3146 C 0.49492 0.97212 0.24427 0.0
C3147 C 0.5367 0.97472 0.22425 0.0
C3148 C 0.51949 0.97392 0.22398 0.0
C3149 C 0.46955 0.97549 0.22356 0.0
C3150 C 0.48674 0.97429 0.22365 0.0
H3151 H 0.56775 0.96567 0.19102 0.0
H3152 H 0.53994 0.96203 0.19254 0.0
H3153 H 0.51693 0.97021 0.26063 0.0
H3154 H 0.44035 0.99238 0.2535 0.0
H3155 H 0.46811 0.98865 0.25515 0.0
C3156 C 0.26878 0.19616 0.49258 0.0
C3157 C 0.27549 0.1875 0.47476 0.0
C3158 C 0.27069 0.21217 0.4936 0.0
C3159 C 0.279 0.24548 0.45599 0.0
H3160 H 0.28312 0.26767 0.51342 0.0
C3161 C 0.28405 0.31188 0.45739 0.0
C3162 C 0.27544 0.31969 0.47421 0.0
C3163 C 0.28605 0.29588 0.4585 0.0
C3164 C 0.28184 0.26169 0.49722 0.0
H3165 H 0.28981 0.18904 0.44434 0.0
H3166 H 0.29333 0.21686 0.44632 0.0
H3167 H 0.28292 0.23957 0.51354 0.0
H3168 H 0.26294 0.31671 0.50616 0.0
H3169 H 0.26612 0.28891 0.50783 0.0
H3170 H 0.27757 0.26751 0.43967 0.0
C3171 C 0.28644 0.21128 0.4594 0.0
C3172 C 0.28175 0.24554 0.4973 0.0
C3173 C 0.28459 0.19526 0.45845 0.0
C3174 C 0.26946 0.31111 0.4927 0.0
C3175 C 0.27143 0.29512 0.49379 0.0
C3176 C 0.27904 0.26161 0.45591 0.0
C3177 C 0.2793 0.22 0.47676 0.0
C3178 C 0.28021 0.23721 0.4767 0.0
C3179 C 0.27948 0.28721 0.47646 0.0
C3180 C 0.28035 0.26998 0.47653 0.0
H3181 H 0.26181 0.19059 0.50556 0.0
H3182 H 0.26494 0.21847 0.50714 0.0
H3183 H 0.27753 0.23951 0.43982 0.0
H3184 H 0.28873 0.31803 0.44278 0.0
H3185 H 0.29255 0.29027 0.44502 0.0
C3186 C 0.0595 0.03163 0.69671 0.0
C3187 C 0.06839 0.02916 0.71662 0.0
C3188 C 0.04345 0.03257 0.69783 0.0
C3189 C 0.01016 0.03665 0.73842 0.0
H3190 H 0.98766 0.01925 0.68711 0.0
C3191 C 0.9443 0.0229 0.73936 0.0
C3192 C 0.93592 0.02662 0.71941 0.0
C3193 C 0.96035 0.02462 0.73998 0.0
C3194 C 0.99375 0.02431 0.70148 0.0
H3195 H 0.06693 0.02624 0.7536 0.0
H3196 H 0.03896 0.02717 0.75538 0.0
H3197 H 0.01559 0.01926 0.68654 0.0
H3198 H 0.93792 0.03531 0.68463 0.0
H3199 H 0.96585 0.03824 0.6857 0.0
H3200 H 0.98807 0.04115 0.75359 0.0
C3201 C 0.04447 0.02869 0.73887 0.0
C3202 C 0.00984 0.02439 0.70115 0.0
C3203 C 0.0606 0.02795 0.7378 0.0
C3204 C 0.94396 0.0325 0.70035 0.0
C3205 C 0.96 0.03402 0.70087 0.0
C3206 C 0.99401 0.03638 0.73887 0.0
C3207 C 0.03562 0.03079 0.71882 0.0
C3208 C 0.01835 0.03066 0.71952 0.0
C3209 C 0.96843 0.02987 0.72056 0.0
C3210 C 0.98561 0.03029 0.72032 0.0
H3211 H 0.06483 0.03234 0.67995 0.0
H3212 H 0.03719 0.03455 0.68203 0.0
H3213 H 0.0162 0.04175 0.75278 0.0
H3214 H 0.93846 0.01841 0.75437 0.0
H3215 H 0.96649 0.02127 0.75538 0.0
C3216 C 0.77548 0.80964 0.99307 0.0
C3217 C 0.77875 0.81794 0.97292 0.0
C3218 C 0.77703 0.79358 0.99367 0.0
C3219 C 0.79277 0.75991 0.96037 0.0
H3220 H 0.76272 0.7371 0.99596 0.0
C3221 C 0.77925 0.69509 0.94641 0.0
C3222 C 0.77739 0.68571 0.966 0.0
C3223 C 0.7811 0.71105 0.94847 0.0
C3224 C 0.77131 0.7433 0.98613 0.0
H3225 H 0.78631 0.81583 0.93762 0.0
H3226 H 0.78861 0.78793 0.93834 0.0
H3227 H 0.76275 0.76511 0.99727 0.0
H3228 H 0.77667 0.68611 1.0033 0.0
H3229 H 0.77939 0.71398 0.00672 0.0
H3230 H 0.80082 0.73795 0.94852 0.0
C3231 C 0.78528 0.79374 0.95401 0.0
C3232 C 0.7714 0.75942 0.98694 0.0
C3233 C 0.78394 0.80981 0.95354 0.0
C3234 C 0.77776 0.69285 0.98774 0.0
C3235 C 0.77937 0.70886 0.98976 0.0
C3236 C 0.79251 0.74378 0.95931 0.0
C3237 C 0.78165 0.78531 0.97399 0.0
C3238 C 0.78207 0.76802 0.97397 0.0
C3239 C 0.78093 0.71817 0.97013 0.0
C3240 C 0.78174 0.73528 0.97209 0.0
H3241 H 0.77156 0.81557 0.00835 0.0
H3242 H 0.77447 0.78765 0.00958 0.0
H3243 H 0.8014 0.76598 0.95048 0.0
H3244 H 0.7787 0.69024 0.92931 0.0
H3245 H 0.78209 0.7179 0.93299 0.0
C3246 C 0.72343 0.1967 0.45068 0.0
C3247 C 0.72866 0.18843 0.46992 0.0
C3248 C 0.72208 0.21277 0.4514 0.0
C3249 C 0.73587 0.24691 0.48479 0.0
H3250 H 0.70611 0.26847 0.44705 0.0
C3251 C 0.72901 0.3135 0.48647 0.0
C3252 C 0.72908 0.32075 0.4648 0.0
C3253 C 0.72761 0.29745 0.48836 0.0
C3254 C 0.71451 0.26261 0.45765 0.0
H3255 H 0.73593 0.19055 0.50534 0.0
H3256 H 0.73302 0.21846 0.50699 0.0
H3257 H 0.70575 0.24042 0.44856 0.0
H3258 H 0.72759 0.31636 0.42808 0.0
H3259 H 0.72457 0.28866 0.43155 0.0
H3260 H 0.74444 0.26922 0.49406 0.0
C3261 C 0.73043 0.21265 0.49101 0.0
C3262 C 0.71438 0.24648 0.45845 0.0
C3263 C 0.73199 0.19659 0.49017 0.0
C3264 C 0.72723 0.31143 0.44515 0.0
C3265 C 0.72559 0.29545 0.44708 0.0
C3266 C 0.73585 0.26304 0.48424 0.0
C3267 C 0.72573 0.22105 0.4715 0.0
C3268 C 0.7252 0.23834 0.47178 0.0
C3269 C 0.72599 0.28822 0.46867 0.0
C3270 C 0.7253 0.27109 0.47044 0.0
H3271 H 0.72102 0.19081 0.43469 0.0
H3272 H 0.7187 0.21869 0.43585 0.0
H3273 H 0.7446 0.2412 0.49493 0.0
H3274 H 0.73013 0.32018 0.50207 0.0
H3275 H 0.72778 0.29225 0.50527 0.0
C3276 C 0.78483 0.19797 0.05557 0.0
C3277 C 0.77902 0.1899 0.03652 0.0
C3278 C 0.78606 0.21407 0.05518 0.0
C3279 C 0.77085 0.24843 0.02365 0.0
H3280 H 0.80164 0.27008 0.05939 0.0
C3281 C 0.77703 0.31491 0.021 0.0
C3282 C 0.77781 0.32236 0.04247 0.0
C3283 C 0.77855 0.29888 0.01929 0.0
C3284 C 0.79294 0.2642 0.04938 0.0
H3285 H 0.77064 0.1924 1.00171 0.0
H3286 H 0.77333 0.22034 1.00059 0.0
H3287 H 0.80212 0.24202 0.05766 0.0
H3288 H 0.78115 0.31839 0.079 0.0
H3289 H 0.78428 0.29064 0.07583 0.0
H3290 H 0.76185 0.2707 0.01517 0.0
C3291 C 0.77646 0.21436 0.01622 0.0
C3292 C 0.79315 0.24806 0.04844 0.0
C3293 C 0.77503 0.19828 0.01675 0.0
C3294 C 0.78076 0.31327 0.06207 0.0
C3295 C 0.78247 0.29726 0.0603 0.0
C3296 C 0.77079 0.26456 0.02434 0.0
C3297 C 0.78169 0.22257 0.0356 0.0
C3298 C 0.78201 0.23988 0.03573 0.0
C3299 C 0.78111 0.28982 0.03896 0.0
C3300 C 0.78173 0.27266 0.03738 0.0
H3301 H 0.78778 0.1919 0.07121 0.0
H3302 H 0.7899 0.21984 0.07062 0.0
H3303 H 0.76185 0.2427 0.01406 0.0
H3304 H 0.77509 0.32143 0.00542 0.0
H3305 H 0.77767 0.29354 1.00253 0.0
C3306 C 0.73037 0.8103 0.56802 0.0
C3307 C 0.73018 0.81929 0.54787 0.0
C3308 C 0.72904 0.79425 0.56701 0.0
C3309 C 0.73449 0.76109 0.52761 0.0
H3310 H 0.71242 0.73889 0.57507 0.0
C3311 C 0.72846 0.69432 0.52644 0.0
C3312 C 0.7303 0.68667 0.54761 0.0
C3313 C 0.72714 0.71042 0.52549 0.0
C3314 C 0.71875 0.74487 0.56176 0.0
H3315 H 0.72806 0.81817 0.51079 0.0
H3316 H 0.72572 0.79016 0.50904 0.0
H3317 H 0.71237 0.76693 0.57512 0.0
H3318 H 0.73237 0.69029 0.58438 0.0
H3319 H 0.72995 0.71811 0.58272 0.0
H3320 H 0.741 0.739 0.51441 0.0
C3321 C 0.7271 0.79558 0.52566 0.0
C3322 C 0.71872 0.76101 0.56179 0.0
C3323 C 0.72841 0.81168 0.52667 0.0
C3324 C 0.73058 0.69562 0.56778 0.0
C3325 C 0.72924 0.71167 0.56683 0.0
C3326 C 0.73451 0.74493 0.52757 0.0
C3327 C 0.7275 0.78661 0.54582 0.0
C3328 C 0.72675 0.76938 0.54489 0.0
C3329 C 0.7276 0.71935 0.54568 0.0
C3330 C 0.7268 0.73658 0.54482 0.0
H3331 H 0.73209 0.81561 0.58465 0.0
H3332 H 0.7297 0.78779 0.58289 0.0
H3333 H 0.74097 0.76708 0.51447 0.0
H3334 H 0.72804 0.68786 0.51055 0.0
H3335 H 0.72569 0.71587 0.5089 0.0
C3336 C 0.56017 0.47573 0.80689 0.0
C3337 C 0.56838 0.48158 0.788 0.0
C3338 C 0.54416 0.47392 0.8059 0.0
C3339 C 0.50983 0.48745 0.77281 0.0
H3340 H 0.48895 0.45626 0.80884 0.0
C3341 C 0.44339 0.47913 0.77068 0.0
C3342 C 0.43618 0.47839 0.79235 0.0
C3343 C 0.45946 0.47815 0.76868 0.0
C3344 C 0.49461 0.46505 0.79871 0.0
H3345 H 0.56622 0.48947 0.75286 0.0
H3346 H 0.53843 0.48579 0.75074 0.0
H3347 H 0.51698 0.45668 0.80756 0.0
H3348 H 0.44069 0.47597 0.82893 0.0
H3349 H 0.4684 0.47369 0.82523 0.0
H3350 H 0.48735 0.49565 0.7638 0.0
C3351 C 0.54424 0.48305 0.76667 0.0
C3352 C 0.51073 0.46537 0.79805 0.0
C3353 C 0.56023 0.48506 0.76779 0.0
C3354 C 0.44558 0.4762 0.81184 0.0
C3355 C 0.46158 0.47499 0.80978 0.0
C3356 C 0.49371 0.48699 0.77322 0.0
C3357 C 0.53588 0.47773 0.78587 0.0
C3358 C 0.51863 0.47672 0.78536 0.0
C3359 C 0.46875 0.47617 0.78823 0.0
C3360 C 0.48589 0.47592 0.78643 0.0
H3361 H 0.56605 0.47319 0.82286 0.0
H3362 H 0.53826 0.47005 0.82122 0.0
H3363 H 0.51535 0.49656 0.76315 0.0
H3364 H 0.43666 0.48057 0.75519 0.0
H3365 H 0.46462 0.47894 0.75178 0.0
C3366 C 0.06191 0.53011 0.31215 0.0
C3367 C 0.07109 0.52813 0.29239 0.0
C3368 C 0.0459 0.53153 0.31044 0.0
C3369 C 0.01358 0.52011 0.27398 0.0
H3370 H 0.99035 0.54996 0.3092 0.0
C3371 C 0.94715 0.52207 0.26841 0.0
C3372 C 0.93895 0.52535 0.28863 0.0
C3373 C 0.96314 0.52412 0.26743 0.0
C3374 C 0.99659 0.54139 0.29945 0.0
H3375 H 0.07029 0.52678 0.25516 0.0
H3376 H 0.04235 0.52877 0.25235 0.0
H3377 H 0.0184 0.55035 0.31045 0.0
H3378 H 0.94114 0.53344 0.32365 0.0
H3379 H 0.96895 0.53659 0.32228 0.0
H3380 H 0.99196 0.51066 0.26369 0.0
C3381 C 0.04766 0.52917 0.26917 0.0
C3382 C 0.01271 0.5417 0.30009 0.0
C3383 C 0.06371 0.52798 0.27083 0.0
C3384 C 0.94708 0.53104 0.30769 0.0
C3385 C 0.96309 0.53287 0.30685 0.0
C3386 C 0.99747 0.51965 0.27358 0.0
C3387 C 0.03854 0.53079 0.28898 0.0
C3388 C 0.02141 0.53101 0.28744 0.0
C3389 C 0.97143 0.52925 0.28679 0.0
C3390 C 0.98868 0.53023 0.28641 0.0
H3391 H 0.06697 0.52995 0.32913 0.0
H3392 H 0.03921 0.53259 0.32606 0.0
H3393 H 0.01993 0.51158 0.26428 0.0
H3394 H 0.9412 0.51778 0.25336 0.0
H3395 H 0.96898 0.52155 0.25147 0.0
C3396 C 0.06117 0.4864 0.74332 0.0
C3397 C 0.06913 0.48147 0.7236 0.0
C3398 C 0.04519 0.48467 0.74501 0.0
C3399 C 0.0111 0.46499 0.7193 0.0
H3400 H 0.98929 0.50044 0.74321 0.0
C3401 C 0.94521 0.47419 0.70748 0.0
C3402 C 0.93706 0.4818 0.725 0.0
C3403 C 0.96123 0.47241 0.70883 0.0
C3404 C 0.99514 0.4903 0.73684 0.0
H3405 H 0.06645 0.47035 0.69052 0.0
H3406 H 0.0386 0.46733 0.69345 0.0
H3407 H 0.01723 0.50035 0.74292 0.0
H3408 H 0.93932 0.49261 0.75837 0.0
H3409 H 0.96711 0.48933 0.76091 0.0
H3410 H 0.9889 0.45505 0.71295 0.0
C3411 C 0.04473 0.47241 0.70774 0.0
C3412 C 0.01124 0.49026 0.73666 0.0
C3413 C 0.06075 0.47412 0.70607 0.0
C3414 C 0.94524 0.48692 0.7444 0.0
C3415 C 0.96122 0.48509 0.74579 0.0
C3416 C 0.99495 0.46503 0.7195 0.0
C3417 C 0.03669 0.47799 0.72701 0.0
C3418 C 0.01948 0.47763 0.72784 0.0
C3419 C 0.96951 0.47816 0.72777 0.0
C3420 C 0.98673 0.47771 0.72823 0.0
H3421 H 0.06727 0.49187 0.75734 0.0
H3422 H 0.03947 0.48878 0.76035 0.0
H3423 H 0.01703 0.455 0.71259 0.0
H3424 H 0.93932 0.47027 0.69217 0.0
H3425 H 0.96718 0.46713 0.69452 0.0
C3426 C 0.44354 0.52175 0.24918 0.0
C3427 C 0.43555 0.52786 0.23024 0.0
C3428 C 0.45957 0.52312 0.2508 0.0
C3429 C 0.49369 0.54381 0.22685 0.0
H3430 H 0.51551 0.50721 0.24652 0.0
C3431 C 0.55933 0.53491 0.21232 0.0
C3432 C 0.56769 0.52655 0.22885 0.0
C3433 C 0.54334 0.53662 0.21427 0.0
C3434 C 0.50965 0.51765 0.24134 0.0
H3435 H 0.43829 0.54055 0.19841 0.0
H3436 H 0.46616 0.54295 0.20125 0.0
H3437 H 0.48755 0.50745 0.24685 0.0
H3438 H 0.5658 0.5143 0.26117 0.0
H3439 H 0.53804 0.51742 0.26471 0.0
H3440 H 0.51588 0.55391 0.22104 0.0
C3441 C 0.46003 0.53725 0.21503 0.0
C3442 C 0.49355 0.51779 0.24153 0.0
C3443 C 0.44399 0.53589 0.21342 0.0
C3444 C 0.55972 0.52058 0.24791 0.0
C3445 C 0.54376 0.52232 0.24989 0.0
C3446 C 0.50984 0.54368 0.22667 0.0
C3447 C 0.46809 0.53061 0.23352 0.0
C3448 C 0.48531 0.53083 0.2342 0.0
C3449 C 0.53527 0.53005 0.23283 0.0
C3450 C 0.51806 0.53056 0.23383 0.0
H3451 H 0.43743 0.5157 0.26265 0.0
H3452 H 0.46531 0.51814 0.26555 0.0
H3453 H 0.48778 0.55414 0.22135 0.0
H3454 H 0.56504 0.53951 0.19726 0.0
H3455 H 0.53723 0.54253 0.20067 0.0
loop_
_geom_bond_atom_site_label_1
_geom_bond_atom_site_label_2
_geom_bond_distance
_geom_bond_site_symmetry_2
_ccdc_geom_bond_type
Co0 N4 2.148 . S
Co0 N10 2.128 . S
Co0 N20 2.194 . S
Co0 O25 2.351 . S
Co0 O26 2.155 . S
Co0 O27 2.096 . S
C1 N4 1.301 . S
C1 N5 1.328 . S
C1 H6 0.930 . S
C2 C3 1.333 . S
C2 N4 1.317 . S
C2 H7 0.930 . S
C3 C2 1.333 . S
C3 N5 1.350 . S
C3 H29 0.931 . S
N4 Co0 2.148 . S
N4 C1 1.301 . S
N4 C2 1.317 . S
N5 C1 1.328 . S
N5 C3 1.350 . S
H6 C1 0.930 . S
H7 C2 0.930 . S
C8 O9 1.224 . S
C8 O27 1.247 . S
O9 C8 1.224 . S
N10 Co0 2.128 . S
N10 C11 1.355 . S
N10 C13 1.311 . S
C11 N10 1.355 . S
C11 C12 1.363 . S
C11 H23 0.929 . S
C12 C11 1.363 . S
C12 N14 1.375 . S
C12 H30 0.931 . S
C13 N10 1.311 . S
C13 N14 1.347 . S
C13 H24 0.929 . S
N14 C12 1.375 . S
N14 C13 1.347 . S
C15 C18 1.365 . S
C15 N20 1.328 . S
C15 H21 0.929 . S
C16 C17 1.362 . S
C16 C19 1.378 . S
C16 H31 0.929 . S
C17 C16 1.362 . S
C17 C18 1.366 . S
C18 C15 1.365 . S
C18 C17 1.366 . S
C18 H32 0.930 . S
C19 C16 1.378 . S
C19 N20 1.315 . S
C19 H22 0.930 . S
N20 Co0 2.194 . S
N20 C15 1.328 . S
N20 C19 1.315 . S
H21 C15 0.929 . S
H22 C19 0.930 . S
H23 C11 0.929 . S
H24 C13 0.929 . S
O25 Co0 2.351 . S
O25 C28 1.244 . S
O26 Co0 2.155 . S
O26 C28 1.240 . S
O27 Co0 2.096 . S
O27 C8 1.247 . S
C28 O25 1.244 . S
C28 O26 1.240 . S
H29 C3 0.931 . S
H30 C12 0.931 . S
H31 C16 0.929 . S
H32 C18 0.930 . S
Co33 N37 2.148 1_545 S
Co33 N43 2.128 . S
Co33 N53 2.195 . S
Co33 O58 2.351 . S
Co33 O59 2.155 . S
Co33 O60 2.096 1_545 S
C34 N37 1.301 1_545 S
C34 N38 1.328 . S
C34 H39 0.930 . S
C35 C36 1.333 . S
C35 N37 1.317 . S
C35 H40 0.930 . S
C36 C35 1.333 . S
C36 N38 1.350 1_565 S
C36 H62 0.931 . S
N37 Co33 2.148 1_565 S
N37 C34 1.301 1_565 S
N37 C35 1.317 . S
N38 C34 1.328 . S
N38 C36 1.350 1_545 S
H39 C34 0.930 . S
H40 C35 0.930 . S
C41 O42 1.224 . S
C41 O60 1.247 . S
O42 C41 1.224 . S
N43 Co33 2.128 . S
N43 C44 1.355 . S
N43 C46 1.311 1_545 S
C44 N43 1.355 . S
C44 C45 1.363 . S
C44 H56 0.929 . S
C45 C44 1.363 . S
C45 N47 1.375 1_545 S
C45 H63 0.931 . S
C46 N43 1.311 1_565 S
C46 N47 1.347 . S
C46 H57 0.929 . S
N47 C45 1.375 1_565 S
N47 C46 1.347 . S
C48 C51 1.365 . S
C48 N53 1.352 . S
C48 H54 0.929 . S
C49 C50 1.362 . S
C49 C52 1.378 . S
C49 H64 0.929 . S
C50 C49 1.362 . S
C50 C51 1.366 1_565 S
C51 C48 1.365 . S
C51 C50 1.366 1_545 S
C51 H65 0.930 . S
C52 C49 1.378 . S
C52 N53 1.290 1_565 S
C52 H55 0.930 . S
N53 Co33 2.195 . S
N53 C48 1.352 . S
N53 C52 1.290 1_545 S
H54 C48 0.929 . S
H55 C52 0.930 . S
H56 C44 0.929 . S
H57 C46 0.929 . S
O58 Co33 2.351 . S
O58 C61 1.244 . S
O59 Co33 2.155 . S
O59 C61 1.240 . S
O60 Co33 2.096 1_565 S
O60 C41 1.247 . S
C61 O58 1.244 . S
C61 O59 1.240 . S
H62 C36 0.931 . S
H63 C45 0.931 . S
H64 C49 0.929 . S
H65 C51 0.930 . S
Co66 N70 2.148 . S
Co66 N76 2.128 . S
Co66 N86 2.194 . S
Co66 O91 2.351 . S
Co66 O92 2.155 . S
Co66 O93 2.096 . S
C67 N70 1.301 . S
C67 N71 1.328 . S
C67 H72 0.930 . S
C68 C69 1.333 . S
C68 N70 1.317 . S
C68 H73 0.930 . S
C69 C68 1.333 . S
C69 N71 1.350 . S
C69 H95 0.931 . S
N70 Co66 2.148 . S
N70 C67 1.301 . S
N70 C68 1.317 . S
N71 C67 1.328 . S
N71 C69 1.350 . S
H72 C67 0.930 . S
H73 C68 0.930 . S
C74 O75 1.224 . S
C74 O93 1.247 . S
O75 C74 1.224 . S
N76 Co66 2.128 . S
N76 C77 1.355 . S
N76 C79 1.311 . S
C77 N76 1.355 . S
C77 C78 1.363 . S
C77 H89 0.929 . S
C78 C77 1.363 . S
C78 N80 1.375 . S
C78 H96 0.931 . S
C79 N76 1.311 . S
C79 N80 1.347 . S
C79 H90 0.929 . S
N80 C78 1.375 . S
N80 C79 1.347 . S
C81 C84 1.365 . S
C81 N86 1.328 . S
C81 H87 0.929 . S
C82 C83 1.362 . S
C82 C85 1.378 . S
C82 H97 0.929 . S
C83 C82 1.362 . S
C83 C84 1.366 . S
C84 C81 1.365 . S
C84 C83 1.366 . S
C84 H98 0.930 . S
C85 C82 1.378 . S
C85 N86 1.315 . S
C85 H88 0.930 . S
N86 Co66 2.194 . S
N86 C81 1.328 . S
N86 C85 1.315 . S
H87 C81 0.929 . S
H88 C85 0.930 . S
H89 C77 0.929 . S
H90 C79 0.929 . S
O91 Co66 2.351 . S
O91 C94 1.244 . S
O92 Co66 2.155 . S
O92 C94 1.240 . S
O93 Co66 2.096 . S
O93 C74 1.247 . S
C94 O91 1.244 . S
C94 O92 1.240 . S
H95 C69 0.931 . S
H96 C78 0.931 . S
H97 C82 0.929 . S
H98 C84 0.930 . S
Co99 N103 2.148 1_565 S
Co99 N109 2.128 . S
Co99 N119 2.195 . S
Co99 O124 2.351 . S
Co99 O125 2.155 . S
Co99 O126 2.096 1_565 S
C100 N103 1.301 1_565 S
C100 N104 1.328 . S
C100 H105 0.930 . S
C101 C102 1.333 . S
C101 N103 1.317 . S
C101 H106 0.930 . S
C102 C101 1.333 . S
C102 N104 1.350 1_545 S
C102 H128 0.931 . S
N103 Co99 2.148 1_545 S
N103 C100 1.301 1_545 S
N103 C101 1.317 . S
N104 C100 1.328 . S
N104 C102 1.350 1_565 S
H105 C100 0.930 . S
H106 C101 0.930 . S
C107 O108 1.224 . S
C107 O126 1.247 . S
O108 C107 1.224 . S
N109 Co99 2.128 . S
N109 C110 1.355 . S
N109 C112 1.311 1_565 S
C110 N109 1.355 . S
C110 C111 1.363 . S
C110 H122 0.929 . S
C111 C110 1.363 . S
C111 N113 1.375 1_565 S
C111 H129 0.931 . S
C112 N109 1.311 1_545 S
C112 N113 1.347 . S
C112 H123 0.929 . S
N113 C111 1.375 1_545 S
N113 C112 1.347 . S
C114 C117 1.365 . S
C114 N119 1.352 . S
C114 H120 0.929 . S
C115 C116 1.362 . S
C115 C118 1.378 . S
C115 H130 0.929 . S
C116 C115 1.362 . S
C116 C117 1.366 1_545 S
C117 C114 1.365 . S
C117 C116 1.366 1_565 S
C117 H131 0.930 . S
C118 C115 1.378 . S
C118 N119 1.290 1_545 S
C118 H121 0.930 . S
N119 Co99 2.195 . S
N119 C114 1.352 . S
N119 C118 1.290 1_565 S
H120 C114 0.929 . S
H121 C118 0.930 . S
H122 C110 0.929 . S
H123 C112 0.929 . S
O124 Co99 2.351 . S
O124 C127 1.244 . S
O125 Co99 2.155 . S
O125 C127 1.240 . S
O126 Co99 2.096 1_545 S
O126 C107 1.247 . S
C127 O124 1.244 . S
C127 O125 1.240 . S
H128 C102 0.931 . S
H129 C111 0.931 . S
H130 C115 0.929 . S
H131 C117 0.930 . S
Co132 N136 2.148 . S
Co132 N142 2.128 . S
Co132 N152 2.194 . S
Co132 O157 2.351 . S
Co132 O158 2.155 . S
Co132 O159 2.096 . S
C133 N136 1.301 . S
C133 N137 1.328 . S
C133 H138 0.930 . S
C134 C135 1.333 . S
C134 N136 1.317 . S
C134 H139 0.930 . S
C135 C134 1.333 . S
C135 N137 1.350 . S
C135 H161 0.931 . S
N136 Co132 2.148 . S
N136 C133 1.301 . S
N136 C134 1.317 . S
N137 C133 1.328 . S
N137 C135 1.350 . S
H138 C133 0.930 . S
H139 C134 0.930 . S
C140 O141 1.224 . S
C140 O159 1.247 . S
O141 C140 1.224 . S
N142 Co132 2.128 . S
N142 C143 1.355 . S
N142 C145 1.311 . S
C143 N142 1.355 . S
C143 C144 1.363 . S
C143 H155 0.929 . S
C144 C143 1.363 . S
C144 N146 1.375 . S
C144 H162 0.931 . S
C145 N142 1.311 . S
C145 N146 1.347 . S
C145 H156 0.929 . S
N146 C144 1.375 . S
N146 C145 1.347 . S
C147 C150 1.365 . S
C147 N152 1.328 . S
C147 H153 0.929 . S
C148 C149 1.362 . S
C148 C151 1.378 . S
C148 H163 0.929 . S
C149 C148 1.362 . S
C149 C150 1.366 . S
C150 C147 1.365 . S
C150 C149 1.366 . S
C150 H164 0.930 . S
C151 C148 1.378 . S
C151 N152 1.315 . S
C151 H154 0.930 . S
N152 Co132 2.194 . S
N152 C147 1.328 . S
N152 C151 1.315 . S
H153 C147 0.929 . S
H154 C151 0.930 . S
H155 C143 0.929 . S
H156 C145 0.929 . S
O157 Co132 2.351 . S
O157 C160 1.244 . S
O158 Co132 2.155 . S
O158 C160 1.240 . S
O159 Co132 2.096 . S
O159 C140 1.247 . S
C160 O157 1.244 . S
C160 O158 1.240 . S
H161 C135 0.931 . S
H162 C144 0.931 . S
H163 C148 0.929 . S
H164 C150 0.930 . S
Co165 N169 2.148 1_545 S
Co165 N175 2.128 . S
Co165 N185 2.195 . S
Co165 O190 2.351 . S
Co165 O191 2.155 . S
Co165 O192 2.096 1_545 S
C166 N169 1.301 1_545 S
C166 N170 1.328 . S
C166 H171 0.930 . S
C167 C168 1.333 . S
C167 N169 1.317 . S
C167 H172 0.930 . S
C168 C167 1.333 . S
C168 N170 1.350 1_565 S
C168 H194 0.931 . S
N169 Co165 2.148 1_565 S
N169 C166 1.301 1_565 S
N169 C167 1.317 . S
N170 C166 1.328 . S
N170 C168 1.350 1_545 S
H171 C166 0.930 . S
H172 C167 0.930 . S
C173 O174 1.224 . S
C173 O192 1.247 . S
O174 C173 1.224 . S
N175 Co165 2.128 . S
N175 C176 1.355 . S
N175 C178 1.311 1_545 S
C176 N175 1.355 . S
C176 C177 1.363 . S
C176 H188 0.929 . S
C177 C176 1.363 . S
C177 N179 1.375 1_545 S
C177 H195 0.931 . S
C178 N175 1.311 1_565 S
C178 N179 1.347 . S
C178 H189 0.929 . S
N179 C177 1.375 1_565 S
N179 C178 1.347 . S
C180 C183 1.365 . S
C180 N185 1.352 . S
C180 H186 0.929 . S
C181 C182 1.362 . S
C181 C184 1.378 . S
C181 H196 0.929 . S
C182 C181 1.362 . S
C182 C183 1.366 1_565 S
C183 C180 1.365 . S
C183 C182 1.366 1_545 S
C183 H197 0.930 . S
C184 C181 1.378 . S
C184 N185 1.290 1_565 S
C184 H187 0.930 . S
N185 Co165 2.195 . S
N185 C180 1.352 . S
N185 C184 1.290 1_545 S
H186 C180 0.929 . S
H187 C184 0.930 . S
H188 C176 0.929 . S
H189 C178 0.929 . S
O190 Co165 2.351 . S
O190 C193 1.244 . S
O191 Co165 2.155 . S
O191 C193 1.240 . S
O192 Co165 2.096 1_565 S
O192 C173 1.247 . S
C193 O190 1.244 . S
C193 O191 1.240 . S
H194 C168 0.931 . S
H195 C177 0.931 . S
H196 C181 0.929 . S
H197 C183 0.930 . S
Co198 N202 2.148 . S
Co198 N208 2.128 . S
Co198 N218 2.194 . S
Co198 O223 2.351 . S
Co198 O224 2.155 . S
Co198 O225 2.096 . S
C199 N202 1.301 . S
C199 N203 1.328 . S
C199 H204 0.930 . S
C200 C201 1.333 . S
C200 N202 1.317 . S
C200 H205 0.930 . S
C201 C200 1.333 . S
C201 N203 1.350 . S
C201 H227 0.931 . S
N202 Co198 2.148 . S
N202 C199 1.301 . S
N202 C200 1.317 . S
N203 C199 1.328 . S
N203 C201 1.350 . S
H204 C199 0.930 . S
H205 C200 0.930 . S
C206 O207 1.224 . S
C206 O225 1.247 . S
O207 C206 1.224 . S
N208 Co198 2.128 . S
N208 C209 1.355 . S
N208 C211 1.311 . S
C209 N208 1.355 . S
C209 C210 1.363 . S
C209 H221 0.929 . S
C210 C209 1.363 . S
C210 N212 1.375 . S
C210 H228 0.931 . S
C211 N208 1.311 . S
C211 N212 1.347 . S
C211 H222 0.929 . S
N212 C210 1.375 . S
N212 C211 1.347 . S
C213 C216 1.365 . S
C213 N218 1.328 . S
C213 H219 0.929 . S
C214 C215 1.362 . S
C214 C217 1.378 . S
C214 H229 0.929 . S
C215 C214 1.362 . S
C215 C216 1.366 . S
C216 C213 1.365 . S
C216 C215 1.366 . S
C216 H230 0.930 . S
C217 C214 1.378 . S
C217 N218 1.315 . S
C217 H220 0.930 . S
N218 Co198 2.194 . S
N218 C213 1.328 . S
N218 C217 1.315 . S
H219 C213 0.929 . S
H220 C217 0.930 . S
H221 C209 0.929 . S
H222 C211 0.929 . S
O223 Co198 2.351 . S
O223 C226 1.244 . S
O224 Co198 2.155 . S
O224 C226 1.240 . S
O225 Co198 2.096 . S
O225 C206 1.247 . S
C226 O223 1.244 . S
C226 O224 1.240 . S
H227 C201 0.931 . S
H228 C210 0.931 . S
H229 C214 0.929 . S
H230 C216 0.930 . S
Co231 N235 2.148 1_565 S
Co231 N241 2.128 . S
Co231 N251 2.195 . S
Co231 O256 2.351 . S
Co231 O257 2.155 . S
Co231 O258 2.096 1_565 S
C232 N235 1.301 1_565 S
C232 N236 1.328 . S
C232 H237 0.930 . S
C233 C234 1.333 . S
C233 N235 1.317 . S
C233 H238 0.930 . S
C234 C233 1.333 . S
C234 N236 1.350 1_545 S
C234 H260 0.931 . S
N235 Co231 2.148 1_545 S
N235 C232 1.301 1_545 S
N235 C233 1.317 . S
N236 C232 1.328 . S
N236 C234 1.350 1_565 S
H237 C232 0.930 . S
H238 C233 0.930 . S
C239 O240 1.224 . S
C239 O258 1.247 . S
O240 C239 1.224 . S
N241 Co231 2.128 . S
N241 C242 1.355 . S
N241 C244 1.311 1_565 S
C242 N241 1.355 . S
C242 C243 1.363 . S
C242 H254 0.929 . S
C243 C242 1.363 . S
C243 N245 1.375 1_565 S
C243 H261 0.931 . S
C244 N241 1.311 1_545 S
C244 N245 1.347 . S
C244 H255 0.929 . S
N245 C243 1.375 1_545 S
N245 C244 1.347 . S
C246 C249 1.365 . S
C246 N251 1.352 . S
C246 H252 0.929 . S
C247 C248 1.362 . S
C247 C250 1.378 . S
C247 H262 0.929 . S
C248 C247 1.362 . S
C248 C249 1.366 1_545 S
C249 C246 1.365 . S
C249 C248 1.366 1_565 S
C249 H263 0.930 . S
C250 C247 1.378 . S
C250 N251 1.290 1_545 S
C250 H253 0.930 . S
N251 Co231 2.195 . S
N251 C246 1.352 . S
N251 C250 1.290 1_565 S
H252 C246 0.929 . S
H253 C250 0.930 . S
H254 C242 0.929 . S
H255 C244 0.929 . S
O256 Co231 2.351 . S
O256 C259 1.244 . S
O257 Co231 2.155 . S
O257 C259 1.240 . S
O258 Co231 2.096 1_545 S
O258 C239 1.247 . S
C259 O256 1.244 . S
C259 O257 1.240 . S
H260 C234 0.931 . S
H261 C243 0.931 . S
H262 C247 0.929 . S
H263 C249 0.930 . S
Co264 N268 2.148 . S
Co264 N274 2.128 . S
Co264 N284 2.194 . S
Co264 O289 2.351 . S
Co264 O290 2.155 . S
Co264 O291 2.096 . S
C265 N268 1.301 . S
C265 N269 1.328 . S
C265 H270 0.930 . S
C266 C267 1.333 . S
C266 N268 1.317 . S
C266 H271 0.930 . S
C267 C266 1.333 . S
C267 N269 1.350 . S
C267 H293 0.931 . S
N268 Co264 2.148 . S
N268 C265 1.301 . S
N268 C266 1.317 . S
N269 C265 1.328 . S
N269 C267 1.350 . S
H270 C265 0.930 . S
H271 C266 0.930 . S
C272 O273 1.224 . S
C272 O291 1.247 . S
O273 C272 1.224 . S
N274 Co264 2.128 . S
N274 C275 1.355 . S
N274 C277 1.311 . S
C275 N274 1.355 . S
C275 C276 1.363 . S
C275 H287 0.929 . S
C276 C275 1.363 . S
C276 N278 1.375 . S
C276 H294 0.931 . S
C277 N274 1.311 . S
C277 N278 1.347 . S
C277 H288 0.929 . S
N278 C276 1.375 . S
N278 C277 1.347 . S
C279 C282 1.365 . S
C279 N284 1.328 . S
C279 H285 0.929 . S
C280 C281 1.362 . S
C280 C283 1.378 . S
C280 H295 0.929 . S
C281 C280 1.362 . S
C281 C282 1.366 . S
C282 C279 1.365 . S
C282 C281 1.366 . S
C282 H296 0.930 . S
C283 C280 1.378 . S
C283 N284 1.315 . S
C283 H286 0.930 . S
N284 Co264 2.194 . S
N284 C279 1.328 . S
N284 C283 1.315 . S
H285 C279 0.929 . S
H286 C283 0.930 . S
H287 C275 0.929 . S
H288 C277 0.929 . S
O289 Co264 2.351 . S
O289 C292 1.244 . S
O290 Co264 2.155 . S
O290 C292 1.240 . S
O291 Co264 2.096 . S
O291 C272 1.247 . S
C292 O289 1.244 . S
C292 O290 1.240 . S
H293 C267 0.931 . S
H294 C276 0.931 . S
H295 C280 0.929 . S
H296 C282 0.930 . S
Co297 N301 2.148 1_565 S
Co297 N307 2.128 . S
Co297 N317 2.195 . S
Co297 O322 2.351 . S
Co297 O323 2.155 . S
Co297 O324 2.096 1_565 S
C298 N301 1.301 1_565 S
C298 N302 1.328 . S
C298 H303 0.930 . S
C299 C300 1.333 . S
C299 N301 1.317 . S
C299 H304 0.930 . S
C300 C299 1.333 . S
C300 N302 1.350 1_545 S
C300 H326 0.931 . S
N301 Co297 2.148 1_545 S
N301 C298 1.301 1_545 S
N301 C299 1.317 . S
N302 C298 1.328 . S
N302 C300 1.350 1_565 S
H303 C298 0.930 . S
H304 C299 0.930 . S
C305 O306 1.224 . S
C305 O324 1.247 . S
O306 C305 1.224 . S
N307 Co297 2.128 . S
N307 C308 1.355 . S
N307 C310 1.311 1_565 S
C308 N307 1.355 . S
C308 C309 1.363 . S
C308 H320 0.929 . S
C309 C308 1.363 . S
C309 N311 1.375 1_565 S
C309 H327 0.931 . S
C310 N307 1.311 1_545 S
C310 N311 1.347 . S
C310 H321 0.929 . S
N311 C309 1.375 1_545 S
N311 C310 1.347 . S
C312 C315 1.365 . S
C312 N317 1.352 . S
C312 H318 0.929 . S
C313 C314 1.362 . S
C313 C316 1.378 . S
C313 H328 0.929 . S
C314 C313 1.362 . S
C314 C315 1.366 1_545 S
C315 C312 1.365 . S
C315 C314 1.366 1_565 S
C315 H329 0.930 . S
C316 C313 1.378 . S
C316 N317 1.290 1_545 S
C316 H319 0.930 . S
N317 Co297 2.195 . S
N317 C312 1.352 . S
N317 C316 1.290 1_565 S
H318 C312 0.929 . S
H319 C316 0.930 . S
H320 C308 0.929 . S
H321 C310 0.929 . S
O322 Co297 2.351 . S
O322 C325 1.244 . S
O323 Co297 2.155 . S
O323 C325 1.240 . S
O324 Co297 2.096 1_545 S
O324 C305 1.247 . S
C325 O322 1.244 . S
C325 O323 1.240 . S
H326 C300 0.931 . S
H327 C309 0.931 . S
H328 C313 0.929 . S
H329 C315 0.930 . S
Co330 N334 2.148 . S
Co330 N340 2.128 . S
Co330 N350 2.194 . S
Co330 O355 2.351 . S
Co330 O356 2.155 . S
Co330 O357 2.096 . S
C331 N334 1.301 . S
C331 N335 1.328 . S
C331 H336 0.930 . S
C332 C333 1.333 . S
C332 N334 1.317 . S
C332 H337 0.930 . S
C333 C332 1.333 . S
C333 N335 1.350 . S
C333 H359 0.931 . S
N334 Co330 2.148 . S
N334 C331 1.301 . S
N334 C332 1.317 . S
N335 C331 1.328 . S
N335 C333 1.350 . S
H336 C331 0.930 . S
H337 C332 0.930 . S
C338 O339 1.224 . S
C338 O357 1.247 . S
O339 C338 1.224 . S
N340 Co330 2.128 . S
N340 C341 1.355 . S
N340 C343 1.311 . S
C341 N340 1.355 . S
C341 C342 1.363 . S
C341 H353 0.929 . S
C342 C341 1.363 . S
C342 N344 1.375 . S
C342 H360 0.931 . S
C343 N340 1.311 . S
C343 N344 1.347 . S
C343 H354 0.929 . S
N344 C342 1.375 . S
N344 C343 1.347 . S
C345 C348 1.365 . S
C345 N350 1.328 . S
C345 H351 0.929 . S
C346 C347 1.362 . S
C346 C349 1.378 . S
C346 H361 0.929 . S
C347 C346 1.362 . S
C347 C348 1.366 . S
C348 C345 1.365 . S
C348 C347 1.366 . S
C348 H362 0.930 . S
C349 C346 1.378 . S
C349 N350 1.315 . S
C349 H352 0.930 . S
N350 Co330 2.194 . S
N350 C345 1.328 . S
N350 C349 1.315 . S
H351 C345 0.929 . S
H352 C349 0.930 . S
H353 C341 0.929 . S
H354 C343 0.929 . S
O355 Co330 2.351 . S
O355 C358 1.244 . S
O356 Co330 2.155 . S
O356 C358 1.240 . S
O357 Co330 2.096 . S
O357 C338 1.247 . S
C358 O355 1.244 . S
C358 O356 1.240 . S
H359 C333 0.931 . S
H360 C342 0.931 . S
H361 C346 0.929 . S
H362 C348 0.930 . S
Co363 N367 2.148 1_545 S
Co363 N373 2.128 . S
Co363 N383 2.195 . S
Co363 O388 2.351 . S
Co363 O389 2.155 . S
Co363 O390 2.096 1_545 S
C364 N367 1.301 1_545 S
C364 N368 1.328 . S
C364 H369 0.930 . S
C365 C366 1.333 . S
C365 N367 1.317 . S
C365 H370 0.930 . S
C366 C365 1.333 . S
C366 N368 1.350 1_565 S
C366 H392 0.931 . S
N367 Co363 2.148 1_565 S
N367 C364 1.301 1_565 S
N367 C365 1.317 . S
N368 C364 1.328 . S
N368 C366 1.350 1_545 S
H369 C364 0.930 . S
H370 C365 0.930 . S
C371 O372 1.224 . S
C371 O390 1.247 . S
O372 C371 1.224 . S
N373 Co363 2.128 . S
N373 C374 1.355 . S
N373 C376 1.311 1_545 S
C374 N373 1.355 . S
C374 C375 1.363 . S
C374 H386 0.929 . S
C375 C374 1.363 . S
C375 N377 1.375 1_545 S
C375 H393 0.931 . S
C376 N373 1.311 1_565 S
C376 N377 1.347 . S
C376 H387 0.929 . S
N377 C375 1.375 1_565 S
N377 C376 1.347 . S
C378 C381 1.365 . S
C378 N383 1.352 . S
C378 H384 0.929 . S
C379 C380 1.362 . S
C379 C382 1.378 . S
C379 H394 0.929 . S
C380 C379 1.362 . S
C380 C381 1.366 1_565 S
C381 C378 1.365 . S
C381 C380 1.366 1_545 S
C381 H395 0.930 . S
C382 C379 1.378 . S
C382 N383 1.290 1_565 S
C382 H385 0.930 . S
N383 Co363 2.195 . S
N383 C378 1.352 . S
N383 C382 1.290 1_545 S
H384 C378 0.929 . S
H385 C382 0.930 . S
H386 C374 0.929 . S
H387 C376 0.929 . S
O388 Co363 2.351 . S
O388 C391 1.244 . S
O389 Co363 2.155 . S
O389 C391 1.240 . S
O390 Co363 2.096 1_565 S
O390 C371 1.247 . S
C391 O388 1.244 . S
C391 O389 1.240 . S
H392 C366 0.931 . S
H393 C375 0.931 . S
H394 C379 0.929 . S
H395 C381 0.930 . S
Co396 N400 2.148 . S
Co396 N406 2.128 . S
Co396 N416 2.194 . S
Co396 O421 2.351 . S
Co396 O422 2.155 . S
Co396 O423 2.096 . S
C397 N400 1.301 . S
C397 N401 1.328 . S
C397 H402 0.930 . S
C398 C399 1.333 . S
C398 N400 1.317 . S
C398 H403 0.930 . S
C399 C398 1.333 . S
C399 N401 1.350 . S
C399 H425 0.931 . S
N400 Co396 2.148 . S
N400 C397 1.301 . S
N400 C398 1.317 . S
N401 C397 1.328 . S
N401 C399 1.350 . S
H402 C397 0.930 . S
H403 C398 0.930 . S
C404 O405 1.224 . S
C404 O423 1.247 . S
O405 C404 1.224 . S
N406 Co396 2.128 . S
N406 C407 1.355 . S
N406 C409 1.311 . S
C407 N406 1.355 . S
C407 C408 1.363 . S
C407 H419 0.929 . S
C408 C407 1.363 . S
C408 N410 1.375 . S
C408 H426 0.931 . S
C409 N406 1.311 . S
C409 N410 1.347 . S
C409 H420 0.929 . S
N410 C408 1.375 . S
N410 C409 1.347 . S
C411 C414 1.365 . S
C411 N416 1.328 . S
C411 H417 0.929 . S
C412 C413 1.362 . S
C412 C415 1.378 . S
C412 H427 0.929 . S
C413 C412 1.362 . S
C413 C414 1.366 . S
C414 C411 1.365 . S
C414 C413 1.366 . S
C414 H428 0.930 . S
C415 C412 1.378 . S
C415 N416 1.315 . S
C415 H418 0.930 . S
N416 Co396 2.194 . S
N416 C411 1.328 . S
N416 C415 1.315 . S
H417 C411 0.929 . S
H418 C415 0.930 . S
H419 C407 0.929 . S
H420 C409 0.929 . S
O421 Co396 2.351 . S
O421 C424 1.244 . S
O422 Co396 2.155 . S
O422 C424 1.240 . S
O423 Co396 2.096 . S
O423 C404 1.247 . S
C424 O421 1.244 . S
C424 O422 1.240 . S
H425 C399 0.931 . S
H426 C408 0.931 . S
H427 C412 0.929 . S
H428 C414 0.930 . S
Co429 N433 2.148 1_565 S
Co429 N439 2.128 . S
Co429 N449 2.195 . S
Co429 O454 2.351 . S
Co429 O455 2.155 . S
Co429 O456 2.096 1_565 S
C430 N433 1.301 1_565 S
C430 N434 1.328 . S
C430 H435 0.930 . S
C431 C432 1.333 . S
C431 N433 1.317 . S
C431 H436 0.930 . S
C432 C431 1.333 . S
C432 N434 1.350 1_545 S
C432 H458 0.931 . S
N433 Co429 2.148 1_545 S
N433 C430 1.301 1_545 S
N433 C431 1.317 . S
N434 C430 1.328 . S
N434 C432 1.350 1_565 S
H435 C430 0.930 . S
H436 C431 0.930 . S
C437 O438 1.224 . S
C437 O456 1.247 . S
O438 C437 1.224 . S
N439 Co429 2.128 . S
N439 C440 1.355 . S
N439 C442 1.311 1_565 S
C440 N439 1.355 . S
C440 C441 1.363 . S
C440 H452 0.929 . S
C441 C440 1.363 . S
C441 N443 1.375 1_565 S
C441 H459 0.931 . S
C442 N439 1.311 1_545 S
C442 N443 1.347 . S
C442 H453 0.929 . S
N443 C441 1.375 1_545 S
N443 C442 1.347 . S
C444 C447 1.365 . S
C444 N449 1.352 . S
C444 H450 0.929 . S
C445 C446 1.362 . S
C445 C448 1.378 . S
C445 H460 0.929 . S
C446 C445 1.362 . S
C446 C447 1.366 1_545 S
C447 C444 1.365 . S
C447 C446 1.366 1_565 S
C447 H461 0.930 . S
C448 C445 1.378 . S
C448 N449 1.290 1_545 S
C448 H451 0.930 . S
N449 Co429 2.195 . S
N449 C444 1.352 . S
N449 C448 1.290 1_565 S
H450 C444 0.929 . S
H451 C448 0.930 . S
H452 C440 0.929 . S
H453 C442 0.929 . S
O454 Co429 2.351 . S
O454 C457 1.244 . S
O455 Co429 2.155 . S
O455 C457 1.240 . S
O456 Co429 2.096 1_545 S
O456 C437 1.247 . S
C457 O454 1.244 . S
C457 O455 1.240 . S
H458 C432 0.931 . S
H459 C441 0.931 . S
H460 C445 0.929 . S
H461 C447 0.930 . S
Co462 N466 2.148 . S
Co462 N472 2.128 . S
Co462 N482 2.194 . S
Co462 O487 2.351 . S
Co462 O488 2.155 . S
Co462 O489 2.096 . S
C463 N466 1.301 . S
C463 N467 1.328 . S
C463 H468 0.930 . S
C464 C465 1.333 . S
C464 N466 1.317 . S
C464 H469 0.930 . S
C465 C464 1.333 . S
C465 N467 1.350 . S
C465 H491 0.931 . S
N466 Co462 2.148 . S
N466 C463 1.301 . S
N466 C464 1.317 . S
N467 C463 1.328 . S
N467 C465 1.350 . S
H468 C463 0.930 . S
H469 C464 0.930 . S
C470 O471 1.224 . S
C470 O489 1.247 . S
O471 C470 1.224 . S
N472 Co462 2.128 . S
N472 C473 1.355 . S
N472 C475 1.311 . S
C473 N472 1.355 . S
C473 C474 1.363 . S
C473 H485 0.929 . S
C474 C473 1.363 . S
C474 N476 1.375 . S
C474 H492 0.931 . S
C475 N472 1.311 . S
C475 N476 1.347 . S
C475 H486 0.929 . S
N476 C474 1.375 . S
N476 C475 1.347 . S
C477 C480 1.365 . S
C477 N482 1.328 . S
C477 H483 0.929 . S
C478 C479 1.362 . S
C478 C481 1.378 . S
C478 H493 0.929 . S
C479 C478 1.362 . S
C479 C480 1.366 . S
C480 C477 1.365 . S
C480 C479 1.366 . S
C480 H494 0.930 . S
C481 C478 1.378 . S
C481 N482 1.315 . S
C481 H484 0.930 . S
N482 Co462 2.194 . S
N482 C477 1.328 . S
N482 C481 1.315 . S
H483 C477 0.929 . S
H484 C481 0.930 . S
H485 C473 0.929 . S
H486 C475 0.929 . S
O487 Co462 2.351 . S
O487 C490 1.244 . S
O488 Co462 2.155 . S
O488 C490 1.240 . S
O489 Co462 2.096 . S
O489 C470 1.247 . S
C490 O487 1.244 . S
C490 O488 1.240 . S
H491 C465 0.931 . S
H492 C474 0.931 . S
H493 C478 0.929 . S
H494 C480 0.930 . S
Co495 N499 2.148 1_545 S
Co495 N505 2.128 . S
Co495 N515 2.195 . S
Co495 O520 2.351 . S
Co495 O521 2.155 . S
Co495 O522 2.096 1_545 S
C496 N499 1.301 1_545 S
C496 N500 1.328 . S
C496 H501 0.930 . S
C497 C498 1.333 . S
C497 N499 1.317 . S
C497 H502 0.930 . S
C498 C497 1.333 . S
C498 N500 1.350 1_565 S
C498 H524 0.931 . S
N499 Co495 2.148 1_565 S
N499 C496 1.301 1_565 S
N499 C497 1.317 . S
N500 C496 1.328 . S
N500 C498 1.350 1_545 S
H501 C496 0.930 . S
H502 C497 0.930 . S
C503 O504 1.224 . S
C503 O522 1.247 . S
O504 C503 1.224 . S
N505 Co495 2.128 . S
N505 C506 1.355 . S
N505 C508 1.311 1_545 S
C506 N505 1.355 . S
C506 C507 1.363 . S
C506 H518 0.929 . S
C507 C506 1.363 . S
C507 N509 1.375 1_545 S
C507 H525 0.931 . S
C508 N505 1.311 1_565 S
C508 N509 1.347 . S
C508 H519 0.929 . S
N509 C507 1.375 1_565 S
N509 C508 1.347 . S
C510 C513 1.365 . S
C510 N515 1.352 . S
C510 H516 0.929 . S
C511 C512 1.362 . S
C511 C514 1.378 . S
C511 H526 0.929 . S
C512 C511 1.362 . S
C512 C513 1.366 1_565 S
C513 C510 1.365 . S
C513 C512 1.366 1_545 S
C513 H527 0.930 . S
C514 C511 1.378 . S
C514 N515 1.290 1_565 S
C514 H517 0.930 . S
N515 Co495 2.195 . S
N515 C510 1.352 . S
N515 C514 1.290 1_545 S
H516 C510 0.929 . S
H517 C514 0.930 . S
H518 C506 0.929 . S
H519 C508 0.929 . S
O520 Co495 2.351 . S
O520 C523 1.244 . S
O521 Co495 2.155 . S
O521 C523 1.240 . S
O522 Co495 2.096 1_565 S
O522 C503 1.247 . S
C523 O520 1.244 . S
C523 O521 1.240 . S
H524 C498 0.931 . S
H525 C507 0.931 . S
H526 C511 0.929 . S
H527 C513 0.930 . S
Co528 N532 2.148 . S
Co528 N538 2.128 . S
Co528 N548 2.194 . S
Co528 O553 2.351 . S
Co528 O554 2.155 . S
Co528 O555 2.096 . S
C529 N532 1.301 . S
C529 N533 1.328 . S
C529 H534 0.930 . S
C530 C531 1.333 . S
C530 N532 1.317 . S
C530 H535 0.930 . S
C531 C530 1.333 . S
C531 N533 1.350 . S
C531 H557 0.931 . S
N532 Co528 2.148 . S
N532 C529 1.301 . S
N532 C530 1.317 . S
N533 C529 1.328 . S
N533 C531 1.350 . S
H534 C529 0.930 . S
H535 C530 0.930 . S
C536 O537 1.224 . S
C536 O555 1.247 . S
O537 C536 1.224 . S
N538 Co528 2.128 . S
N538 C539 1.355 . S
N538 C541 1.311 . S
C539 N538 1.355 . S
C539 C540 1.363 . S
C539 H551 0.929 . S
C540 C539 1.363 . S
C540 N542 1.375 . S
C540 H558 0.931 . S
C541 N538 1.311 . S
C541 N542 1.347 . S
C541 H552 0.929 . S
N542 C540 1.375 . S
N542 C541 1.347 . S
C543 C546 1.365 . S
C543 N548 1.328 . S
C543 H549 0.929 . S
C544 C545 1.362 . S
C544 C547 1.378 . S
C544 H559 0.929 . S
C545 C544 1.362 . S
C545 C546 1.366 . S
C546 C543 1.365 . S
C546 C545 1.366 . S
C546 H560 0.930 . S
C547 C544 1.378 . S
C547 N548 1.315 . S
C547 H550 0.930 . S
N548 Co528 2.194 . S
N548 C543 1.328 . S
N548 C547 1.315 . S
H549 C543 0.929 . S
H550 C547 0.930 . S
H551 C539 0.929 . S
H552 C541 0.929 . S
O553 Co528 2.351 . S
O553 C556 1.244 . S
O554 Co528 2.155 . S
O554 C556 1.240 . S
O555 Co528 2.096 . S
O555 C536 1.247 . S
C556 O553 1.244 . S
C556 O554 1.240 . S
H557 C531 0.931 . S
H558 C540 0.931 . S
H559 C544 0.929 . S
H560 C546 0.930 . S
Co561 N565 2.148 . S
Co561 N571 2.128 . S
Co561 N581 2.194 . S
Co561 O586 2.351 . S
Co561 O587 2.155 . S
Co561 O588 2.096 . S
C562 N565 1.301 . S
C562 N566 1.328 . S
C562 H567 0.930 . S
C563 C564 1.333 . S
C563 N565 1.317 . S
C563 H568 0.930 . S
C564 C563 1.333 . S
C564 N566 1.350 . S
C564 H590 0.931 . S
N565 Co561 2.148 . S
N565 C562 1.301 . S
N565 C563 1.317 . S
N566 C562 1.328 . S
N566 C564 1.350 . S
H567 C562 0.930 . S
H568 C563 0.930 . S
C569 O570 1.224 . S
C569 O588 1.247 . S
O570 C569 1.224 . S
N571 Co561 2.128 . S
N571 C572 1.355 . S
N571 C574 1.311 . S
C572 N571 1.355 . S
C572 C573 1.363 . S
C572 H584 0.929 . S
C573 C572 1.363 . S
C573 N575 1.375 . S
C573 H591 0.931 . S
C574 N571 1.311 . S
C574 N575 1.347 . S
C574 H585 0.929 . S
N575 C573 1.375 . S
N575 C574 1.347 . S
C576 C579 1.365 . S
C576 N581 1.328 . S
C576 H582 0.929 . S
C577 C578 1.362 . S
C577 C580 1.378 . S
C577 H592 0.929 . S
C578 C577 1.362 . S
C578 C579 1.366 . S
C579 C576 1.365 . S
C579 C578 1.366 . S
C579 H593 0.930 . S
C580 C577 1.378 . S
C580 N581 1.315 . S
C580 H583 0.930 . S
N581 Co561 2.194 . S
N581 C576 1.328 . S
N581 C580 1.315 . S
H582 C576 0.929 . S
H583 C580 0.930 . S
H584 C572 0.929 . S
H585 C574 0.929 . S
O586 Co561 2.351 . S
O586 C589 1.244 . S
O587 Co561 2.155 . S
O587 C589 1.240 . S
O588 Co561 2.096 . S
O588 C569 1.247 . S
C589 O586 1.244 . S
C589 O587 1.240 . S
H590 C564 0.931 . S
H591 C573 0.931 . S
H592 C577 0.929 . S
H593 C579 0.930 . S
Co594 N598 2.148 . S
Co594 N604 2.128 . S
Co594 N614 2.194 . S
Co594 O619 2.351 . S
Co594 O620 2.155 . S
Co594 O621 2.096 . S
C595 N598 1.301 . S
C595 N599 1.328 . S
C595 H600 0.930 . S
C596 C597 1.333 . S
C596 N598 1.317 . S
C596 H601 0.930 . S
C597 C596 1.333 . S
C597 N599 1.350 . S
C597 H623 0.931 . S
N598 Co594 2.148 . S
N598 C595 1.301 . S
N598 C596 1.317 . S
N599 C595 1.328 . S
N599 C597 1.350 . S
H600 C595 0.930 . S
H601 C596 0.930 . S
C602 O603 1.224 . S
C602 O621 1.247 . S
O603 C602 1.224 . S
N604 Co594 2.128 . S
N604 C605 1.355 . S
N604 C607 1.311 . S
C605 N604 1.355 . S
C605 C606 1.363 . S
C605 H617 0.929 . S
C606 C605 1.363 . S
C606 N608 1.375 . S
C606 H624 0.931 . S
C607 N604 1.311 . S
C607 N608 1.347 . S
C607 H618 0.929 . S
N608 C606 1.375 . S
N608 C607 1.347 . S
C609 C612 1.365 . S
C609 N614 1.328 . S
C609 H615 0.929 . S
C610 C611 1.362 . S
C610 C613 1.378 . S
C610 H625 0.929 . S
C611 C610 1.362 . S
C611 C612 1.366 . S
C612 C609 1.365 . S
C612 C611 1.366 . S
C612 H626 0.930 . S
C613 C610 1.378 . S
C613 N614 1.315 . S
C613 H616 0.930 . S
N614 Co594 2.194 . S
N614 C609 1.328 . S
N614 C613 1.315 . S
H615 C609 0.929 . S
H616 C613 0.930 . S
H617 C605 0.929 . S
H618 C607 0.929 . S
O619 Co594 2.351 . S
O619 C622 1.244 . S
O620 Co594 2.155 . S
O620 C622 1.240 . S
O621 Co594 2.096 . S
O621 C602 1.247 . S
C622 O619 1.244 . S
C622 O620 1.240 . S
H623 C597 0.931 . S
H624 C606 0.931 . S
H625 C610 0.929 . S
H626 C612 0.930 . S
Co627 N631 2.148 . S
Co627 N637 2.128 . S
Co627 N647 2.194 . S
Co627 O652 2.351 . S
Co627 O653 2.155 . S
Co627 O654 2.096 . S
C628 N631 1.301 . S
C628 N632 1.328 . S
C628 H633 0.930 . S
C629 C630 1.333 . S
C629 N631 1.317 . S
C629 H634 0.930 . S
C630 C629 1.333 . S
C630 N632 1.350 . S
C630 H656 0.931 . S
N631 Co627 2.148 . S
N631 C628 1.301 . S
N631 C629 1.317 . S
N632 C628 1.328 . S
N632 C630 1.350 . S
H633 C628 0.930 . S
H634 C629 0.930 . S
C635 O636 1.224 . S
C635 O654 1.247 . S
O636 C635 1.224 . S
N637 Co627 2.128 . S
N637 C638 1.355 . S
N637 C640 1.311 . S
C638 N637 1.355 . S
C638 C639 1.363 . S
C638 H650 0.929 . S
C639 C638 1.363 . S
C639 N641 1.375 . S
C639 H657 0.931 . S
C640 N637 1.311 . S
C640 N641 1.347 . S
C640 H651 0.929 . S
N641 C639 1.375 . S
N641 C640 1.347 . S
C642 C645 1.365 . S
C642 N647 1.328 . S
C642 H648 0.929 . S
C643 C644 1.362 . S
C643 C646 1.378 . S
C643 H658 0.929 . S
C644 C643 1.362 . S
C644 C645 1.366 . S
C645 C642 1.365 . S
C645 C644 1.366 . S
C645 H659 0.930 . S
C646 C643 1.378 . S
C646 N647 1.315 . S
C646 H649 0.930 . S
N647 Co627 2.194 . S
N647 C642 1.328 . S
N647 C646 1.315 . S
H648 C642 0.929 . S
H649 C646 0.930 . S
H650 C638 0.929 . S
H651 C640 0.929 . S
O652 Co627 2.351 . S
O652 C655 1.244 . S
O653 Co627 2.155 . S
O653 C655 1.240 . S
O654 Co627 2.096 . S
O654 C635 1.247 . S
C655 O652 1.244 . S
C655 O653 1.240 . S
H656 C630 0.931 . S
H657 C639 0.931 . S
H658 C643 0.929 . S
H659 C645 0.930 . S
Co660 N664 2.148 . S
Co660 N670 2.128 . S
Co660 N680 2.194 . S
Co660 O685 2.351 . S
Co660 O686 2.155 . S
Co660 O687 2.096 . S
C661 N664 1.301 . S
C661 N665 1.328 . S
C661 H666 0.930 . S
C662 C663 1.333 . S
C662 N664 1.317 . S
C662 H667 0.930 . S
C663 C662 1.333 . S
C663 N665 1.350 . S
C663 H689 0.931 . S
N664 Co660 2.148 . S
N664 C661 1.301 . S
N664 C662 1.317 . S
N665 C661 1.328 . S
N665 C663 1.350 . S
H666 C661 0.930 . S
H667 C662 0.930 . S
C668 O669 1.224 . S
C668 O687 1.247 . S
O669 C668 1.224 . S
N670 Co660 2.128 . S
N670 C671 1.355 . S
N670 C673 1.311 . S
C671 N670 1.355 . S
C671 C672 1.363 . S
C671 H683 0.929 . S
C672 C671 1.363 . S
C672 N674 1.375 . S
C672 H690 0.931 . S
C673 N670 1.311 . S
C673 N674 1.347 . S
C673 H684 0.929 . S
N674 C672 1.375 . S
N674 C673 1.347 . S
C675 C678 1.365 . S
C675 N680 1.328 . S
C675 H681 0.929 . S
C676 C677 1.362 . S
C676 C679 1.378 . S
C676 H691 0.929 . S
C677 C676 1.362 . S
C677 C678 1.366 . S
C678 C675 1.365 . S
C678 C677 1.366 . S
C678 H692 0.930 . S
C679 C676 1.378 . S
C679 N680 1.315 . S
C679 H682 0.930 . S
N680 Co660 2.194 . S
N680 C675 1.328 . S
N680 C679 1.315 . S
H681 C675 0.929 . S
H682 C679 0.930 . S
H683 C671 0.929 . S
H684 C673 0.929 . S
O685 Co660 2.351 . S
O685 C688 1.244 . S
O686 Co660 2.155 . S
O686 C688 1.240 . S
O687 Co660 2.096 . S
O687 C668 1.247 . S
C688 O685 1.244 . S
C688 O686 1.240 . S
H689 C663 0.931 . S
H690 C672 0.931 . S
H691 C676 0.929 . S
H692 C678 0.930 . S
Co693 N697 2.148 . S
Co693 N703 2.128 . S
Co693 N713 2.194 . S
Co693 O718 2.351 . S
Co693 O719 2.155 . S
Co693 O720 2.096 . S
C694 N697 1.301 . S
C694 N698 1.328 . S
C694 H699 0.930 . S
C695 C696 1.333 . S
C695 N697 1.317 . S
C695 H700 0.930 . S
C696 C695 1.333 . S
C696 N698 1.350 . S
C696 H722 0.931 . S
N697 Co693 2.148 . S
N697 C694 1.301 . S
N697 C695 1.317 . S
N698 C694 1.328 . S
N698 C696 1.350 . S
H699 C694 0.930 . S
H700 C695 0.930 . S
C701 O702 1.224 . S
C701 O720 1.247 . S
O702 C701 1.224 . S
N703 Co693 2.128 . S
N703 C704 1.355 . S
N703 C706 1.311 . S
C704 N703 1.355 . S
C704 C705 1.363 . S
C704 H716 0.929 . S
C705 C704 1.363 . S
C705 N707 1.375 . S
C705 H723 0.931 . S
C706 N703 1.311 . S
C706 N707 1.347 . S
C706 H717 0.929 . S
N707 C705 1.375 . S
N707 C706 1.347 . S
C708 C711 1.365 . S
C708 N713 1.328 . S
C708 H714 0.929 . S
C709 C710 1.362 . S
C709 C712 1.378 . S
C709 H724 0.929 . S
C710 C709 1.362 . S
C710 C711 1.366 . S
C711 C708 1.365 . S
C711 C710 1.366 . S
C711 H725 0.930 . S
C712 C709 1.378 . S
C712 N713 1.315 . S
C712 H715 0.930 . S
N713 Co693 2.194 . S
N713 C708 1.328 . S
N713 C712 1.315 . S
H714 C708 0.929 . S
H715 C712 0.930 . S
H716 C704 0.929 . S
H717 C706 0.929 . S
O718 Co693 2.351 . S
O718 C721 1.244 . S
O719 Co693 2.155 . S
O719 C721 1.240 . S
O720 Co693 2.096 . S
O720 C701 1.247 . S
C721 O718 1.244 . S
C721 O719 1.240 . S
H722 C696 0.931 . S
H723 C705 0.931 . S
H724 C709 0.929 . S
H725 C711 0.930 . S
Co726 N730 2.148 . S
Co726 N736 2.128 . S
Co726 N746 2.194 . S
Co726 O751 2.351 . S
Co726 O752 2.155 . S
Co726 O753 2.096 . S
C727 N730 1.301 . S
C727 N731 1.328 . S
C727 H732 0.930 . S
C728 C729 1.333 . S
C728 N730 1.317 . S
C728 H733 0.930 . S
C729 C728 1.333 . S
C729 N731 1.350 . S
C729 H755 0.931 . S
N730 Co726 2.148 . S
N730 C727 1.301 . S
N730 C728 1.317 . S
N731 C727 1.328 . S
N731 C729 1.350 . S
H732 C727 0.930 . S
H733 C728 0.930 . S
C734 O735 1.224 . S
C734 O753 1.247 . S
O735 C734 1.224 . S
N736 Co726 2.128 . S
N736 C737 1.355 . S
N736 C739 1.311 . S
C737 N736 1.355 . S
C737 C738 1.363 . S
C737 H749 0.929 . S
C738 C737 1.363 . S
C738 N740 1.375 . S
C738 H756 0.931 . S
C739 N736 1.311 . S
C739 N740 1.347 . S
C739 H750 0.929 . S
N740 C738 1.375 . S
N740 C739 1.347 . S
C741 C744 1.365 . S
C741 N746 1.328 . S
C741 H747 0.929 . S
C742 C743 1.362 . S
C742 C745 1.378 . S
C742 H757 0.929 . S
C743 C742 1.362 . S
C743 C744 1.366 . S
C744 C741 1.365 . S
C744 C743 1.366 . S
C744 H758 0.930 . S
C745 C742 1.378 . S
C745 N746 1.315 . S
C745 H748 0.930 . S
N746 Co726 2.194 . S
N746 C741 1.328 . S
N746 C745 1.315 . S
H747 C741 0.929 . S
H748 C745 0.930 . S
H749 C737 0.929 . S
H750 C739 0.929 . S
O751 Co726 2.351 . S
O751 C754 1.244 . S
O752 Co726 2.155 . S
O752 C754 1.240 . S
O753 Co726 2.096 . S
O753 C734 1.247 . S
C754 O751 1.244 . S
C754 O752 1.240 . S
H755 C729 0.931 . S
H756 C738 0.931 . S
H757 C742 0.929 . S
H758 C744 0.930 . S
Co759 N763 2.148 . S
Co759 N769 2.128 . S
Co759 N779 2.194 . S
Co759 O784 2.351 . S
Co759 O785 2.155 . S
Co759 O786 2.096 . S
C760 N763 1.301 . S
C760 N764 1.328 . S
C760 H765 0.930 . S
C761 C762 1.333 . S
C761 N763 1.317 . S
C761 H766 0.930 . S
C762 C761 1.333 . S
C762 N764 1.350 . S
C762 H788 0.931 . S
N763 Co759 2.148 . S
N763 C760 1.301 . S
N763 C761 1.317 . S
N764 C760 1.328 . S
N764 C762 1.350 . S
H765 C760 0.930 . S
H766 C761 0.930 . S
C767 O768 1.224 . S
C767 O786 1.247 . S
O768 C767 1.224 . S
N769 Co759 2.128 . S
N769 C770 1.355 . S
N769 C772 1.311 . S
C770 N769 1.355 . S
C770 C771 1.363 . S
C770 H782 0.929 . S
C771 C770 1.363 . S
C771 N773 1.375 . S
C771 H789 0.931 . S
C772 N769 1.311 . S
C772 N773 1.347 . S
C772 H783 0.929 . S
N773 C771 1.375 . S
N773 C772 1.347 . S
C774 C777 1.365 . S
C774 N779 1.328 . S
C774 H780 0.929 . S
C775 C776 1.362 . S
C775 C778 1.378 . S
C775 H790 0.929 . S
C776 C775 1.362 . S
C776 C777 1.366 . S
C777 C774 1.365 . S
C777 C776 1.366 . S
C777 H791 0.930 . S
C778 C775 1.378 . S
C778 N779 1.315 . S
C778 H781 0.930 . S
N779 Co759 2.194 . S
N779 C774 1.328 . S
N779 C778 1.315 . S
H780 C774 0.929 . S
H781 C778 0.930 . S
H782 C770 0.929 . S
H783 C772 0.929 . S
O784 Co759 2.351 . S
O784 C787 1.244 . S
O785 Co759 2.155 . S
O785 C787 1.240 . S
O786 Co759 2.096 . S
O786 C767 1.247 . S
C787 O784 1.244 . S
C787 O785 1.240 . S
H788 C762 0.931 . S
H789 C771 0.931 . S
H790 C775 0.929 . S
H791 C777 0.930 . S
Co792 N796 2.148 . S
Co792 N802 2.128 . S
Co792 N812 2.194 . S
Co792 O817 2.351 . S
Co792 O818 2.155 . S
Co792 O819 2.096 . S
C793 N796 1.301 . S
C793 N797 1.328 . S
C793 H798 0.930 . S
C794 C795 1.333 . S
C794 N796 1.317 . S
C794 H799 0.930 . S
C795 C794 1.333 . S
C795 N797 1.350 . S
C795 H821 0.931 . S
N796 Co792 2.148 . S
N796 C793 1.301 . S
N796 C794 1.317 . S
N797 C793 1.328 . S
N797 C795 1.350 . S
H798 C793 0.930 . S
H799 C794 0.930 . S
C800 O801 1.224 . S
C800 O819 1.247 . S
O801 C800 1.224 . S
N802 Co792 2.128 . S
N802 C803 1.355 . S
N802 C805 1.311 . S
C803 N802 1.355 . S
C803 C804 1.363 . S
C803 H815 0.929 . S
C804 C803 1.363 . S
C804 N806 1.375 . S
C804 H822 0.931 . S
C805 N802 1.311 . S
C805 N806 1.347 . S
C805 H816 0.929 . S
N806 C804 1.375 . S
N806 C805 1.347 . S
C807 C810 1.365 . S
C807 N812 1.328 . S
C807 H813 0.929 . S
C808 C809 1.362 . S
C808 C811 1.378 . S
C808 H823 0.929 . S
C809 C808 1.362 . S
C809 C810 1.366 . S
C810 C807 1.365 . S
C810 C809 1.366 . S
C810 H824 0.930 . S
C811 C808 1.378 . S
C811 N812 1.315 . S
C811 H814 0.930 . S
N812 Co792 2.194 . S
N812 C807 1.328 . S
N812 C811 1.315 . S
H813 C807 0.929 . S
H814 C811 0.930 . S
H815 C803 0.929 . S
H816 C805 0.929 . S
O817 Co792 2.351 . S
O817 C820 1.244 . S
O818 Co792 2.155 . S
O818 C820 1.240 . S
O819 Co792 2.096 . S
O819 C800 1.247 . S
C820 O817 1.244 . S
C820 O818 1.240 . S
H821 C795 0.931 . S
H822 C804 0.931 . S
H823 C808 0.929 . S
H824 C810 0.930 . S
Co825 N829 2.148 . S
Co825 N835 2.128 . S
Co825 N845 2.194 . S
Co825 O850 2.351 . S
Co825 O851 2.155 . S
Co825 O852 2.096 . S
C826 N829 1.301 . S
C826 N830 1.328 . S
C826 H831 0.930 . S
C827 C828 1.333 . S
C827 N829 1.317 . S
C827 H832 0.930 . S
C828 C827 1.333 . S
C828 N830 1.350 . S
C828 H854 0.931 . S
N829 Co825 2.148 . S
N829 C826 1.301 . S
N829 C827 1.317 . S
N830 C826 1.328 . S
N830 C828 1.350 . S
H831 C826 0.930 . S
H832 C827 0.930 . S
C833 O834 1.224 . S
C833 O852 1.247 . S
O834 C833 1.224 . S
N835 Co825 2.128 . S
N835 C836 1.355 . S
N835 C838 1.311 . S
C836 N835 1.355 . S
C836 C837 1.363 . S
C836 H848 0.929 . S
C837 C836 1.363 . S
C837 N839 1.375 . S
C837 H855 0.931 . S
C838 N835 1.311 . S
C838 N839 1.347 . S
C838 H849 0.929 . S
N839 C837 1.375 . S
N839 C838 1.347 . S
C840 C843 1.365 . S
C840 N845 1.328 . S
C840 H846 0.929 . S
C841 C842 1.362 . S
C841 C844 1.378 . S
C841 H856 0.929 . S
C842 C841 1.362 . S
C842 C843 1.366 . S
C843 C840 1.365 . S
C843 C842 1.366 . S
C843 H857 0.930 . S
C844 C841 1.378 . S
C844 N845 1.315 . S
C844 H847 0.930 . S
N845 Co825 2.194 . S
N845 C840 1.328 . S
N845 C844 1.315 . S
H846 C840 0.929 . S
H847 C844 0.930 . S
H848 C836 0.929 . S
H849 C838 0.929 . S
O850 Co825 2.351 . S
O850 C853 1.244 . S
O851 Co825 2.155 . S
O851 C853 1.240 . S
O852 Co825 2.096 . S
O852 C833 1.247 . S
C853 O850 1.244 . S
C853 O851 1.240 . S
H854 C828 0.931 . S
H855 C837 0.931 . S
H856 C841 0.929 . S
H857 C843 0.930 . S
Co858 N862 2.148 . S
Co858 N868 2.128 . S
Co858 N878 2.194 . S
Co858 O883 2.351 . S
Co858 O884 2.155 . S
Co858 O885 2.096 . S
C859 N862 1.301 . S
C859 N863 1.328 . S
C859 H864 0.930 . S
C860 C861 1.333 . S
C860 N862 1.317 . S
C860 H865 0.930 . S
C861 C860 1.333 . S
C861 N863 1.350 . S
C861 H887 0.931 . S
N862 Co858 2.148 . S
N862 C859 1.301 . S
N862 C860 1.317 . S
N863 C859 1.328 . S
N863 C861 1.350 . S
H864 C859 0.930 . S
H865 C860 0.930 . S
C866 O867 1.224 . S
C866 O885 1.247 . S
O867 C866 1.224 . S
N868 Co858 2.128 . S
N868 C869 1.355 . S
N868 C871 1.311 . S
C869 N868 1.355 . S
C869 C870 1.363 . S
C869 H881 0.929 . S
C870 C869 1.363 . S
C870 N872 1.375 . S
C870 H888 0.931 . S
C871 N868 1.311 . S
C871 N872 1.347 . S
C871 H882 0.929 . S
N872 C870 1.375 . S
N872 C871 1.347 . S
C873 C876 1.365 . S
C873 N878 1.328 . S
C873 H879 0.929 . S
C874 C875 1.362 . S
C874 C877 1.378 . S
C874 H889 0.929 . S
C875 C874 1.362 . S
C875 C876 1.366 . S
C876 C873 1.365 . S
C876 C875 1.366 . S
C876 H890 0.930 . S
C877 C874 1.378 . S
C877 N878 1.315 . S
C877 H880 0.930 . S
N878 Co858 2.194 . S
N878 C873 1.328 . S
N878 C877 1.315 . S
H879 C873 0.929 . S
H880 C877 0.930 . S
H881 C869 0.929 . S
H882 C871 0.929 . S
O883 Co858 2.351 . S
O883 C886 1.244 . S
O884 Co858 2.155 . S
O884 C886 1.240 . S
O885 Co858 2.096 . S
O885 C866 1.247 . S
C886 O883 1.244 . S
C886 O884 1.240 . S
H887 C861 0.931 . S
H888 C870 0.931 . S
H889 C874 0.929 . S
H890 C876 0.930 . S
Co891 N895 2.148 . S
Co891 N901 2.128 . S
Co891 N911 2.194 . S
Co891 O916 2.351 . S
Co891 O917 2.155 . S
Co891 O918 2.096 . S
C892 N895 1.301 . S
C892 N896 1.328 . S
C892 H897 0.930 . S
C893 C894 1.333 . S
C893 N895 1.317 . S
C893 H898 0.930 . S
C894 C893 1.333 . S
C894 N896 1.350 . S
C894 H920 0.931 . S
N895 Co891 2.148 . S
N895 C892 1.301 . S
N895 C893 1.317 . S
N896 C892 1.328 . S
N896 C894 1.350 . S
H897 C892 0.930 . S
H898 C893 0.930 . S
C899 O900 1.224 . S
C899 O918 1.247 . S
O900 C899 1.224 . S
N901 Co891 2.128 . S
N901 C902 1.355 . S
N901 C904 1.311 . S
C902 N901 1.355 . S
C902 C903 1.363 . S
C902 H914 0.929 . S
C903 C902 1.363 . S
C903 N905 1.375 . S
C903 H921 0.931 . S
C904 N901 1.311 . S
C904 N905 1.347 . S
C904 H915 0.929 . S
N905 C903 1.375 . S
N905 C904 1.347 . S
C906 C909 1.365 . S
C906 N911 1.328 . S
C906 H912 0.929 . S
C907 C908 1.362 . S
C907 C910 1.378 . S
C907 H922 0.929 . S
C908 C907 1.362 . S
C908 C909 1.366 . S
C909 C906 1.365 . S
C909 C908 1.366 . S
C909 H923 0.930 . S
C910 C907 1.378 . S
C910 N911 1.315 . S
C910 H913 0.930 . S
N911 Co891 2.194 . S
N911 C906 1.328 . S
N911 C910 1.315 . S
H912 C906 0.929 . S
H913 C910 0.930 . S
H914 C902 0.929 . S
H915 C904 0.929 . S
O916 Co891 2.351 . S
O916 C919 1.244 . S
O917 Co891 2.155 . S
O917 C919 1.240 . S
O918 Co891 2.096 . S
O918 C899 1.247 . S
C919 O916 1.244 . S
C919 O917 1.240 . S
H920 C894 0.931 . S
H921 C903 0.931 . S
H922 C907 0.929 . S
H923 C909 0.930 . S
Co924 N928 2.148 . S
Co924 N934 2.128 . S
Co924 N944 2.194 . S
Co924 O949 2.351 . S
Co924 O950 2.155 . S
Co924 O951 2.096 . S
C925 N928 1.301 . S
C925 N929 1.328 . S
C925 H930 0.930 . S
C926 C927 1.333 . S
C926 N928 1.317 . S
C926 H931 0.930 . S
C927 C926 1.333 . S
C927 N929 1.350 . S
C927 H953 0.931 . S
N928 Co924 2.148 . S
N928 C925 1.301 . S
N928 C926 1.317 . S
N929 C925 1.328 . S
N929 C927 1.350 . S
H930 C925 0.930 . S
H931 C926 0.930 . S
C932 O933 1.224 . S
C932 O951 1.247 . S
O933 C932 1.224 . S
N934 Co924 2.128 . S
N934 C935 1.355 . S
N934 C937 1.311 . S
C935 N934 1.355 . S
C935 C936 1.363 . S
C935 H947 0.929 . S
C936 C935 1.363 . S
C936 N938 1.375 . S
C936 H954 0.931 . S
C937 N934 1.311 . S
C937 N938 1.347 . S
C937 H948 0.929 . S
N938 C936 1.375 . S
N938 C937 1.347 . S
C939 C942 1.365 . S
C939 N944 1.328 . S
C939 H945 0.929 . S
C940 C941 1.362 . S
C940 C943 1.378 . S
C940 H955 0.929 . S
C941 C940 1.362 . S
C941 C942 1.366 . S
C942 C939 1.365 . S
C942 C941 1.366 . S
C942 H956 0.930 . S
C943 C940 1.378 . S
C943 N944 1.315 . S
C943 H946 0.930 . S
N944 Co924 2.194 . S
N944 C939 1.328 . S
N944 C943 1.315 . S
H945 C939 0.929 . S
H946 C943 0.930 . S
H947 C935 0.929 . S
H948 C937 0.929 . S
O949 Co924 2.351 . S
O949 C952 1.244 . S
O950 Co924 2.155 . S
O950 C952 1.240 . S
O951 Co924 2.096 . S
O951 C932 1.247 . S
C952 O949 1.244 . S
C952 O950 1.240 . S
H953 C927 0.931 . S
H954 C936 0.931 . S
H955 C940 0.929 . S
H956 C942 0.930 . S
Co957 N961 2.148 . S
Co957 N967 2.128 . S
Co957 N977 2.194 . S
Co957 O982 2.351 . S
Co957 O983 2.155 . S
Co957 O984 2.096 . S
C958 N961 1.301 . S
C958 N962 1.328 . S
C958 H963 0.930 . S
C959 C960 1.333 . S
C959 N961 1.317 . S
C959 H964 0.930 . S
C960 C959 1.333 . S
C960 N962 1.350 . S
C960 H986 0.931 . S
N961 Co957 2.148 . S
N961 C958 1.301 . S
N961 C959 1.317 . S
N962 C958 1.328 . S
N962 C960 1.350 . S
H963 C958 0.930 . S
H964 C959 0.930 . S
C965 O966 1.224 . S
C965 O984 1.247 . S
O966 C965 1.224 . S
N967 Co957 2.128 . S
N967 C968 1.355 . S
N967 C970 1.311 . S
C968 N967 1.355 . S
C968 C969 1.363 . S
C968 H980 0.929 . S
C969 C968 1.363 . S
C969 N971 1.375 . S
C969 H987 0.931 . S
C970 N967 1.311 . S
C970 N971 1.347 . S
C970 H981 0.929 . S
N971 C969 1.375 . S
N971 C970 1.347 . S
C972 C975 1.365 . S
C972 N977 1.328 . S
C972 H978 0.929 . S
C973 C974 1.362 . S
C973 C976 1.378 . S
C973 H988 0.929 . S
C974 C973 1.362 . S
C974 C975 1.366 . S
C975 C972 1.365 . S
C975 C974 1.366 . S
C975 H989 0.930 . S
C976 C973 1.378 . S
C976 N977 1.315 . S
C976 H979 0.930 . S
N977 Co957 2.194 . S
N977 C972 1.328 . S
N977 C976 1.315 . S
H978 C972 0.929 . S
H979 C976 0.930 . S
H980 C968 0.929 . S
H981 C970 0.929 . S
O982 Co957 2.351 . S
O982 C985 1.244 . S
O983 Co957 2.155 . S
O983 C985 1.240 . S
O984 Co957 2.096 . S
O984 C965 1.247 . S
C985 O982 1.244 . S
C985 O983 1.240 . S
H986 C960 0.931 . S
H987 C969 0.931 . S
H988 C973 0.929 . S
H989 C975 0.930 . S
Co990 N994 2.148 . S
Co990 N1000 2.128 . S
Co990 N1010 2.194 . S
Co990 O1015 2.351 . S
Co990 O1016 2.155 . S
Co990 O1017 2.096 . S
C991 N994 1.301 . S
C991 N995 1.328 . S
C991 H996 0.930 . S
C992 C993 1.333 . S
C992 N994 1.317 . S
C992 H997 0.930 . S
C993 C992 1.333 . S
C993 N995 1.350 . S
C993 H1019 0.931 . S
N994 Co990 2.148 . S
N994 C991 1.301 . S
N994 C992 1.317 . S
N995 C991 1.328 . S
N995 C993 1.350 . S
H996 C991 0.930 . S
H997 C992 0.930 . S
C998 O999 1.224 . S
C998 O1017 1.247 . S
O999 C998 1.224 . S
N1000 Co990 2.128 . S
N1000 C1001 1.355 . S
N1000 C1003 1.311 . S
C1001 N1000 1.355 . S
C1001 C1002 1.363 . S
C1001 H1013 0.929 . S
C1002 C1001 1.363 . S
C1002 N1004 1.375 . S
C1002 H1020 0.931 . S
C1003 N1000 1.311 . S
C1003 N1004 1.347 . S
C1003 H1014 0.929 . S
N1004 C1002 1.375 . S
N1004 C1003 1.347 . S
C1005 C1008 1.365 . S
C1005 N1010 1.328 . S
C1005 H1011 0.929 . S
C1006 C1007 1.362 . S
C1006 C1009 1.378 . S
C1006 H1021 0.929 . S
C1007 C1006 1.362 . S
C1007 C1008 1.366 . S
C1008 C1005 1.365 . S
C1008 C1007 1.366 . S
C1008 H1022 0.930 . S
C1009 C1006 1.378 . S
C1009 N1010 1.315 . S
C1009 H1012 0.930 . S
N1010 Co990 2.194 . S
N1010 C1005 1.328 . S
N1010 C1009 1.315 . S
H1011 C1005 0.929 . S
H1012 C1009 0.930 . S
H1013 C1001 0.929 . S
H1014 C1003 0.929 . S
O1015 Co990 2.351 . S
O1015 C1018 1.244 . S
O1016 Co990 2.155 . S
O1016 C1018 1.240 . S
O1017 Co990 2.096 . S
O1017 C998 1.247 . S
C1018 O1015 1.244 . S
C1018 O1016 1.240 . S
H1019 C993 0.931 . S
H1020 C1002 0.931 . S
H1021 C1006 0.929 . S
H1022 C1008 0.930 . S
Co1023 N1027 2.148 . S
Co1023 N1033 2.128 . S
Co1023 N1043 2.194 . S
Co1023 O1048 2.351 . S
Co1023 O1049 2.155 . S
Co1023 O1050 2.096 . S
C1024 N1027 1.301 . S
C1024 N1028 1.328 . S
C1024 H1029 0.930 . S
C1025 C1026 1.333 . S
C1025 N1027 1.317 . S
C1025 H1030 0.930 . S
C1026 C1025 1.333 . S
C1026 N1028 1.350 . S
C1026 H1052 0.931 . S
N1027 Co1023 2.148 . S
N1027 C1024 1.301 . S
N1027 C1025 1.317 . S
N1028 C1024 1.328 . S
N1028 C1026 1.350 . S
H1029 C1024 0.930 . S
H1030 C1025 0.930 . S
C1031 O1032 1.224 . S
C1031 O1050 1.247 . S
O1032 C1031 1.224 . S
N1033 Co1023 2.128 . S
N1033 C1034 1.355 . S
N1033 C1036 1.311 . S
C1034 N1033 1.355 . S
C1034 C1035 1.363 . S
C1034 H1046 0.929 . S
C1035 C1034 1.363 . S
C1035 N1037 1.375 . S
C1035 H1053 0.931 . S
C1036 N1033 1.311 . S
C1036 N1037 1.347 . S
C1036 H1047 0.929 . S
N1037 C1035 1.375 . S
N1037 C1036 1.347 . S
C1038 C1041 1.365 . S
C1038 N1043 1.328 . S
C1038 H1044 0.929 . S
C1039 C1040 1.362 . S
C1039 C1042 1.378 . S
C1039 H1054 0.929 . S
C1040 C1039 1.362 . S
C1040 C1041 1.366 . S
C1041 C1038 1.365 . S
C1041 C1040 1.366 . S
C1041 H1055 0.930 . S
C1042 C1039 1.378 . S
C1042 N1043 1.315 . S
C1042 H1045 0.930 . S
N1043 Co1023 2.194 . S
N1043 C1038 1.328 . S
N1043 C1042 1.315 . S
H1044 C1038 0.929 . S
H1045 C1042 0.930 . S
H1046 C1034 0.929 . S
H1047 C1036 0.929 . S
O1048 Co1023 2.351 . S
O1048 C1051 1.244 . S
O1049 Co1023 2.155 . S
O1049 C1051 1.240 . S
O1050 Co1023 2.096 . S
O1050 C1031 1.247 . S
C1051 O1048 1.244 . S
C1051 O1049 1.240 . S
H1052 C1026 0.931 . S
H1053 C1035 0.931 . S
H1054 C1039 0.929 . S
H1055 C1041 0.930 . S
C1056 C1057 1.349 . S
C1056 C1058 1.327 . S
C1056 H1081 0.950 . S
C1057 C1056 1.349 . S
C1057 C1073 1.349 . S
C1058 C1056 1.327 . S
C1058 C1077 1.429 . S
C1058 H1082 0.950 . S
C1059 C1076 1.574 . S
C1059 C1078 1.368 . S
C1059 H1083 0.949 . S
H1060 C1064 0.949 . S
C1061 C1062 1.349 . S
C1061 C1063 1.327 . S
C1061 H1084 0.950 . S
C1062 C1061 1.349 . S
C1062 C1074 1.349 . S
C1063 C1061 1.327 . S
C1063 C1079 1.429 . S
C1063 H1085 0.950 . S
C1064 H1060 0.949 . S
C1064 C1072 1.574 . S
C1064 C1080 1.368 . S
H1065 C1073 0.950 . S
H1066 C1071 0.950 . S
H1067 C1072 0.949 . S
H1068 C1074 0.950 . S
H1069 C1075 0.950 . S
H1070 C1076 0.949 . S
C1071 H1066 0.950 . S
C1071 C1073 1.327 . S
C1071 C1077 1.429 . S
C1072 C1064 1.574 . S
C1072 H1067 0.949 . S
C1072 C1078 1.368 . S
C1073 C1057 1.349 . S
C1073 H1065 0.950 . S
C1073 C1071 1.327 . S
C1074 C1062 1.349 . S
C1074 H1068 0.950 . S
C1074 C1075 1.327 . S
C1075 H1069 0.950 . S
C1075 C1074 1.327 . S
C1075 C1079 1.429 . S
C1076 C1059 1.574 . S
C1076 H1070 0.949 . S
C1076 C1080 1.368 . S
C1077 C1058 1.429 . S
C1077 C1071 1.429 . S
C1077 C1078 1.523 . S
C1078 C1059 1.368 . S
C1078 C1072 1.368 . S
C1078 C1077 1.523 . S
C1079 C1063 1.429 . S
C1079 C1075 1.429 . S
C1079 C1080 1.523 . S
C1080 C1064 1.368 . S
C1080 C1076 1.368 . S
C1080 C1079 1.523 . S
H1081 C1056 0.950 . S
H1082 C1058 0.950 . S
H1083 C1059 0.949 . S
H1084 C1061 0.950 . S
H1085 C1063 0.950 . S
C1086 C1087 1.349 . S
C1086 C1088 1.327 . S
C1086 H1111 0.950 . S
C1087 C1086 1.349 . S
C1087 C1103 1.349 . S
C1088 C1086 1.327 . S
C1088 C1107 1.429 . S
C1088 H1112 0.950 . S
C1089 C1106 1.574 . S
C1089 C1108 1.368 . S
C1089 H1113 0.949 . S
H1090 C1094 0.949 . S
C1091 C1092 1.349 . S
C1091 C1093 1.327 . S
C1091 H1114 0.950 . S
C1092 C1091 1.349 . S
C1092 C1104 1.349 . S
C1093 C1091 1.327 . S
C1093 C1109 1.429 . S
C1093 H1115 0.950 . S
C1094 H1090 0.949 . S
C1094 C1102 1.574 . S
C1094 C1110 1.368 . S
H1095 C1103 0.950 . S
H1096 C1101 0.950 . S
H1097 C1102 0.949 . S
H1098 C1104 0.950 . S
H1099 C1105 0.950 . S
H1100 C1106 0.949 . S
C1101 H1096 0.950 . S
C1101 C1103 1.327 . S
C1101 C1107 1.429 . S
C1102 C1094 1.574 . S
C1102 H1097 0.949 . S
C1102 C1108 1.368 . S
C1103 C1087 1.349 . S
C1103 H1095 0.950 . S
C1103 C1101 1.327 . S
C1104 C1092 1.349 . S
C1104 H1098 0.950 . S
C1104 C1105 1.327 . S
C1105 H1099 0.950 . S
C1105 C1104 1.327 . S
C1105 C1109 1.429 . S
C1106 C1089 1.574 . S
C1106 H1100 0.949 . S
C1106 C1110 1.368 . S
C1107 C1088 1.429 . S
C1107 C1101 1.429 . S
C1107 C1108 1.523 . S
C1108 C1089 1.368 . S
C1108 C1102 1.368 . S
C1108 C1107 1.523 . S
C1109 C1093 1.429 . S
C1109 C1105 1.429 . S
C1109 C1110 1.523 . S
C1110 C1094 1.368 . S
C1110 C1106 1.368 . S
C1110 C1109 1.523 . S
H1111 C1086 0.950 . S
H1112 C1088 0.950 . S
H1113 C1089 0.949 . S
H1114 C1091 0.950 . S
H1115 C1093 0.950 . S
C1116 C1117 1.349 . S
C1116 C1118 1.327 . S
C1116 H1141 0.950 . S
C1117 C1116 1.349 . S
C1117 C1133 1.349 . S
C1118 C1116 1.327 . S
C1118 C1137 1.429 . S
C1118 H1142 0.950 . S
C1119 C1136 1.574 . S
C1119 C1138 1.368 . S
C1119 H1143 0.949 . S
H1120 C1124 0.949 . S
C1121 C1122 1.349 . S
C1121 C1123 1.327 . S
C1121 H1144 0.891 1_565 S
C1122 C1121 1.349 . S
C1122 C1134 1.349 . S
C1123 C1121 1.327 . S
C1123 C1139 1.429 . S
C1123 H1145 0.950 . S
C1124 H1120 0.949 . S
C1124 C1132 1.574 . S
C1124 C1140 1.368 . S
H1125 C1133 0.950 . S
H1126 C1131 0.950 . S
H1127 C1132 0.949 . S
H1128 C1134 0.950 . S
H1129 C1135 0.950 . S
H1130 C1136 0.949 . S
C1131 H1126 0.950 . S
C1131 C1133 1.327 . S
C1131 C1137 1.429 . S
C1132 C1124 1.574 . S
C1132 H1127 0.949 . S
C1132 C1138 1.368 . S
C1133 C1117 1.349 . S
C1133 H1125 0.950 . S
C1133 C1131 1.327 . S
C1134 C1122 1.349 . S
C1134 H1128 0.950 . S
C1134 C1135 1.327 . S
C1135 H1129 0.950 . S
C1135 C1134 1.327 . S
C1135 C1139 1.429 . S
C1136 C1119 1.574 . S
C1136 H1130 0.949 . S
C1136 C1140 1.368 . S
C1137 C1118 1.429 . S
C1137 C1131 1.429 . S
C1137 C1138 1.523 . S
C1138 C1119 1.368 . S
C1138 C1132 1.368 . S
C1138 C1137 1.523 . S
C1139 C1123 1.429 . S
C1139 C1135 1.429 . S
C1139 C1140 1.523 . S
C1140 C1124 1.368 . S
C1140 C1136 1.368 . S
C1140 C1139 1.523 . S
H1141 C1116 0.950 . S
H1142 C1118 0.950 . S
H1143 C1119 0.949 . S
H1144 C1121 0.891 1_545 S
H1145 C1123 0.950 . S
C1146 C1147 1.349 . S
C1146 C1148 1.327 . S
C1146 H1171 0.950 . S
C1147 C1146 1.349 . S
C1147 C1163 1.349 . S
C1148 C1146 1.327 . S
C1148 C1167 1.429 . S
C1148 H1172 0.950 . S
C1149 C1166 1.574 . S
C1149 C1168 1.368 . S
C1149 H1173 0.949 . S
H1150 C1154 0.949 . S
C1151 C1152 1.349 . S
C1151 C1153 1.327 . S
C1151 H1174 0.950 1_556 S
C1152 C1151 1.349 . S
C1152 C1164 1.349 . S
C1153 C1151 1.327 . S
C1153 C1169 1.429 . S
C1153 H1175 0.950 . S
C1154 H1150 0.949 . S
C1154 C1162 1.574 . S
C1154 C1170 1.368 . S
H1155 C1163 0.950 . S
H1156 C1161 0.950 . S
H1157 C1162 0.949 . S
H1158 C1164 0.950 . S
H1159 C1165 0.950 . S
H1160 C1166 0.949 . S
C1161 H1156 0.950 . S
C1161 C1163 1.327 . S
C1161 C1167 1.429 . S
C1162 C1154 1.574 . S
C1162 H1157 0.949 . S
C1162 C1168 1.368 . S
C1163 C1147 1.349 . S
C1163 H1155 0.950 . S
C1163 C1161 1.327 . S
C1164 C1152 1.349 . S
C1164 H1158 0.950 . S
C1164 C1165 1.327 . S
C1165 H1159 0.950 . S
C1165 C1164 1.327 . S
C1165 C1169 1.429 . S
C1166 C1149 1.574 . S
C1166 H1160 0.949 . S
C1166 C1170 1.368 . S
C1167 C1148 1.429 . S
C1167 C1161 1.429 . S
C1167 C1168 1.523 . S
C1168 C1149 1.368 . S
C1168 C1162 1.368 . S
C1168 C1167 1.523 . S
C1169 C1153 1.429 . S
C1169 C1165 1.429 . S
C1169 C1170 1.523 . S
C1170 C1154 1.368 . S
C1170 C1166 1.368 . S
C1170 C1169 1.523 . S
H1171 C1146 0.950 . S
H1172 C1148 0.950 . S
H1173 C1149 0.949 . S
H1174 C1151 0.950 1_554 S
H1175 C1153 0.950 . S
C1176 C1177 1.349 . S
C1176 C1178 1.327 . S
C1176 H1201 0.950 . S
C1177 C1176 1.349 . S
C1177 C1193 1.349 . S
C1178 C1176 1.327 . S
C1178 C1197 1.429 . S
C1178 H1202 0.950 . S
C1179 C1196 1.574 . S
C1179 C1198 1.368 . S
C1179 H1203 0.949 . S
H1180 C1184 0.949 . S
C1181 C1182 1.349 . S
C1181 C1183 1.327 . S
C1181 H1204 0.950 . S
C1182 C1181 1.349 . S
C1182 C1194 1.349 . S
C1183 C1181 1.327 . S
C1183 C1199 1.429 . S
C1183 H1205 0.950 . S
C1184 H1180 0.949 . S
C1184 C1192 1.574 . S
C1184 C1200 1.368 . S
H1185 C1193 0.950 . S
H1186 C1191 0.950 . S
H1187 C1192 0.949 . S
H1188 C1194 0.950 . S
H1189 C1195 0.950 . S
H1190 C1196 0.949 . S
C1191 H1186 0.950 . S
C1191 C1193 1.327 . S
C1191 C1197 1.429 . S
C1192 C1184 1.574 . S
C1192 H1187 0.949 . S
C1192 C1198 1.368 . S
C1193 C1177 1.349 . S
C1193 H1185 0.950 . S
C1193 C1191 1.327 . S
C1194 C1182 1.349 . S
C1194 H1188 0.950 . S
C1194 C1195 1.327 . S
C1195 H1189 0.950 . S
C1195 C1194 1.327 . S
C1195 C1199 1.429 . S
C1196 C1179 1.574 . S
C1196 H1190 0.949 . S
C1196 C1200 1.368 . S
C1197 C1178 1.429 . S
C1197 C1191 1.429 . S
C1197 C1198 1.523 . S
C1198 C1179 1.368 . S
C1198 C1192 1.368 . S
C1198 C1197 1.523 . S
C1199 C1183 1.429 . S
C1199 C1195 1.429 . S
C1199 C1200 1.523 . S
C1200 C1184 1.368 . S
C1200 C1196 1.368 . S
C1200 C1199 1.523 . S
H1201 C1176 0.950 . S
H1202 C1178 0.950 . S
H1203 C1179 0.949 . S
H1204 C1181 0.950 . S
H1205 C1183 0.950 . S
C1206 C1207 1.349 . S
C1206 C1208 1.327 . S
C1206 H1231 0.950 . S
C1207 C1206 1.349 . S
C1207 C1223 1.349 . S
C1208 C1206 1.327 . S
C1208 C1227 1.429 . S
C1208 H1232 0.950 . S
C1209 C1226 1.574 . S
C1209 C1228 1.368 . S
C1209 H1233 0.949 . S
H1210 C1214 0.949 . S
C1211 C1212 1.349 . S
C1211 C1213 1.327 . S
C1211 H1234 0.950 . S
C1212 C1211 1.349 . S
C1212 C1224 1.349 . S
C1213 C1211 1.327 . S
C1213 C1229 1.429 . S
C1213 H1235 0.950 . S
C1214 H1210 0.949 . S
C1214 C1222 1.574 . S
C1214 C1230 1.368 . S
H1215 C1223 0.950 . S
H1216 C1221 0.950 . S
H1217 C1222 0.949 . S
H1218 C1224 0.950 . S
H1219 C1225 0.950 . S
H1220 C1226 0.949 . S
C1221 H1216 0.950 . S
C1221 C1223 1.327 . S
C1221 C1227 1.429 . S
C1222 C1214 1.574 . S
C1222 H1217 0.949 . S
C1222 C1228 1.368 . S
C1223 C1207 1.349 . S
C1223 H1215 0.950 . S
C1223 C1221 1.327 . S
C1224 C1212 1.349 . S
C1224 H1218 0.950 . S
C1224 C1225 1.327 . S
C1225 H1219 0.950 . S
C1225 C1224 1.327 . S
C1225 C1229 1.429 . S
C1226 C1209 1.574 . S
C1226 H1220 0.949 . S
C1226 C1230 1.368 . S
C1227 C1208 1.429 . S
C1227 C1221 1.429 . S
C1227 C1228 1.523 . S
C1228 C1209 1.368 . S
C1228 C1222 1.368 . S
C1228 C1227 1.523 . S
C1229 C1213 1.429 . S
C1229 C1225 1.429 . S
C1229 C1230 1.523 . S
C1230 C1214 1.368 . S
C1230 C1226 1.368 . S
C1230 C1229 1.523 . S
H1231 C1206 0.950 . S
H1232 C1208 0.950 . S
H1233 C1209 0.949 . S
H1234 C1211 0.950 . S
H1235 C1213 0.950 . S
C1236 C1237 1.349 . S
C1236 C1238 1.327 . S
C1236 H1261 0.950 . S
C1237 C1236 1.349 . S
C1237 C1253 1.349 . S
C1238 C1236 1.327 . S
C1238 C1257 1.429 . S
C1238 H1262 0.950 . S
C1239 C1256 1.574 . S
C1239 C1258 1.368 . S
C1239 H1263 0.949 . S
H1240 C1244 0.949 . S
C1241 C1242 1.349 . S
C1241 C1243 1.327 . S
C1241 H1264 0.950 . S
C1242 C1241 1.349 . S
C1242 C1254 1.349 . S
C1243 C1241 1.327 . S
C1243 C1259 1.429 . S
C1243 H1265 0.950 . S
C1244 H1240 0.949 . S
C1244 C1252 1.574 . S
C1244 C1260 1.368 . S
H1245 C1253 0.950 . S
H1246 C1251 0.950 . S
H1247 C1252 0.949 . S
H1248 C1254 0.950 . S
H1249 C1255 0.950 . S
H1250 C1256 0.949 . S
C1251 H1246 0.950 . S
C1251 C1253 1.327 . S
C1251 C1257 1.429 . S
C1252 C1244 1.574 . S
C1252 H1247 0.949 . S
C1252 C1258 1.368 . S
C1253 C1237 1.349 . S
C1253 H1245 0.950 . S
C1253 C1251 1.327 . S
C1254 C1242 1.349 . S
C1254 H1248 0.950 . S
C1254 C1255 1.327 . S
C1255 H1249 0.950 . S
C1255 C1254 1.327 . S
C1255 C1259 1.429 . S
C1256 C1239 1.574 . S
C1256 H1250 0.949 . S
C1256 C1260 1.368 . S
C1257 C1238 1.429 . S
C1257 C1251 1.429 . S
C1257 C1258 1.523 . S
C1258 C1239 1.368 . S
C1258 C1252 1.368 . S
C1258 C1257 1.523 . S
C1259 C1243 1.429 . S
C1259 C1255 1.429 . S
C1259 C1260 1.523 . S
C1260 C1244 1.368 . S
C1260 C1256 1.368 . S
C1260 C1259 1.523 . S
H1261 C1236 0.950 . S
H1262 C1238 0.950 . S
H1263 C1239 0.949 . S
H1264 C1241 0.950 . S
H1265 C1243 0.950 . S
C1266 C1267 1.349 . S
C1266 C1268 1.327 . S
C1266 H1291 0.950 . S
C1267 C1266 1.349 . S
C1267 C1283 1.349 . S
C1268 C1266 1.327 . S
C1268 C1287 1.429 . S
C1268 H1292 0.950 . S
C1269 C1286 1.574 . S
C1269 C1288 1.368 . S
C1269 H1293 0.949 . S
H1270 C1274 0.949 . S
C1271 C1272 1.349 . S
C1271 C1273 1.327 . S
C1271 H1294 0.950 . S
C1272 C1271 1.349 . S
C1272 C1284 1.349 . S
C1273 C1271 1.327 . S
C1273 C1289 1.429 . S
C1273 H1295 0.950 . S
C1274 H1270 0.949 . S
C1274 C1282 1.574 . S
C1274 C1290 1.368 . S
H1275 C1283 0.950 . S
H1276 C1281 0.950 . S
H1277 C1282 0.949 . S
H1278 C1284 0.950 . S
H1279 C1285 0.950 . S
H1280 C1286 0.949 . S
C1281 H1276 0.950 . S
C1281 C1283 1.327 . S
C1281 C1287 1.429 . S
C1282 C1274 1.574 . S
C1282 H1277 0.949 . S
C1282 C1288 1.368 . S
C1283 C1267 1.349 . S
C1283 H1275 0.950 . S
C1283 C1281 1.327 . S
C1284 C1272 1.349 . S
C1284 H1278 0.950 . S
C1284 C1285 1.327 . S
C1285 H1279 0.950 . S
C1285 C1284 1.327 . S
C1285 C1289 1.429 . S
C1286 C1269 1.574 . S
C1286 H1280 0.949 . S
C1286 C1290 1.368 . S
C1287 C1268 1.429 . S
C1287 C1281 1.429 . S
C1287 C1288 1.523 . S
C1288 C1269 1.368 . S
C1288 C1282 1.368 . S
C1288 C1287 1.523 . S
C1289 C1273 1.429 . S
C1289 C1285 1.429 . S
C1289 C1290 1.523 . S
C1290 C1274 1.368 . S
C1290 C1286 1.368 . S
C1290 C1289 1.523 . S
H1291 C1266 0.950 . S
H1292 C1268 0.950 . S
H1293 C1269 0.949 . S
H1294 C1271 0.950 . S
H1295 C1273 0.950 . S
C1296 C1297 1.349 . S
C1296 C1298 1.327 . S
C1296 H1321 0.950 . S
C1297 C1296 1.349 . S
C1297 C1313 1.349 . S
C1298 C1296 1.327 . S
C1298 C1317 1.429 . S
C1298 H1322 0.950 . S
C1299 C1316 1.574 . S
C1299 C1318 1.368 . S
C1299 H1323 0.949 . S
H1300 C1304 0.949 . S
C1301 C1302 1.349 . S
C1301 C1303 1.327 . S
C1301 H1324 0.950 . S
C1302 C1301 1.349 . S
C1302 C1314 1.349 . S
C1303 C1301 1.327 . S
C1303 C1319 1.429 . S
C1303 H1325 0.950 . S
C1304 H1300 0.949 . S
C1304 C1312 1.574 . S
C1304 C1320 1.368 . S
H1305 C1313 0.950 . S
H1306 C1311 0.950 . S
H1307 C1312 0.949 . S
H1308 C1314 0.950 . S
H1309 C1315 0.950 . S
H1310 C1316 0.949 . S
C1311 H1306 0.950 . S
C1311 C1313 1.327 . S
C1311 C1317 1.429 . S
C1312 C1304 1.574 . S
C1312 H1307 0.949 . S
C1312 C1318 1.368 . S
C1313 C1297 1.349 . S
C1313 H1305 0.950 . S
C1313 C1311 1.327 . S
C1314 C1302 1.349 . S
C1314 H1308 0.950 . S
C1314 C1315 1.327 . S
C1315 H1309 0.950 . S
C1315 C1314 1.327 . S
C1315 C1319 1.429 . S
C1316 C1299 1.574 . S
C1316 H1310 0.949 . S
C1316 C1320 1.368 . S
C1317 C1298 1.429 . S
C1317 C1311 1.429 . S
C1317 C1318 1.523 . S
C1318 C1299 1.368 . S
C1318 C1312 1.368 . S
C1318 C1317 1.523 . S
C1319 C1303 1.429 . S
C1319 C1315 1.429 . S
C1319 C1320 1.523 . S
C1320 C1304 1.368 . S
C1320 C1316 1.368 . S
C1320 C1319 1.523 . S
H1321 C1296 0.950 . S
H1322 C1298 0.950 . S
H1323 C1299 0.949 . S
H1324 C1301 0.950 . S
H1325 C1303 0.950 . S
C1326 C1327 1.349 . S
C1326 C1328 1.327 . S
C1326 H1351 0.950 . S
C1327 C1326 1.349 . S
C1327 C1343 1.349 . S
C1328 C1326 1.327 . S
C1328 C1347 1.429 . S
C1328 H1352 0.950 . S
C1329 C1346 1.574 . S
C1329 C1348 1.368 . S
C1329 H1353 0.949 . S
H1330 C1334 0.949 . S
C1331 C1332 1.349 . S
C1331 C1333 1.327 . S
C1331 H1354 0.950 . S
C1332 C1331 1.349 . S
C1332 C1344 1.349 . S
C1333 C1331 1.327 . S
C1333 C1349 1.429 . S
C1333 H1355 0.950 . S
C1334 H1330 0.949 . S
C1334 C1342 1.574 . S
C1334 C1350 1.368 . S
H1335 C1343 0.950 . S
H1336 C1341 0.950 . S
H1337 C1342 0.949 . S
H1338 C1344 0.950 . S
H1339 C1345 0.950 . S
H1340 C1346 0.949 . S
C1341 H1336 0.950 . S
C1341 C1343 1.327 . S
C1341 C1347 1.429 . S
C1342 C1334 1.574 . S
C1342 H1337 0.949 . S
C1342 C1348 1.368 . S
C1343 C1327 1.349 . S
C1343 H1335 0.950 . S
C1343 C1341 1.327 . S
C1344 C1332 1.349 . S
C1344 H1338 0.950 . S
C1344 C1345 1.327 . S
C1345 H1339 0.950 . S
C1345 C1344 1.327 . S
C1345 C1349 1.429 . S
C1346 C1329 1.574 . S
C1346 H1340 0.949 . S
C1346 C1350 1.368 . S
C1347 C1328 1.429 . S
C1347 C1341 1.429 . S
C1347 C1348 1.523 . S
C1348 C1329 1.368 . S
C1348 C1342 1.368 . S
C1348 C1347 1.523 . S
C1349 C1333 1.429 . S
C1349 C1345 1.429 . S
C1349 C1350 1.523 . S
C1350 C1334 1.368 . S
C1350 C1346 1.368 . S
C1350 C1349 1.523 . S
H1351 C1326 0.950 . S
H1352 C1328 0.950 . S
H1353 C1329 0.949 . S
H1354 C1331 0.950 . S
H1355 C1333 0.950 . S
C1356 C1357 1.349 . S
C1356 C1358 1.327 . S
C1356 H1381 0.950 . S
C1357 C1356 1.349 . S
C1357 C1373 1.349 . S
C1358 C1356 1.327 . S
C1358 C1377 1.429 . S
C1358 H1382 0.950 . S
C1359 C1376 1.574 . S
C1359 C1378 1.368 . S
C1359 H1383 0.949 . S
H1360 C1364 0.949 . S
C1361 C1362 1.349 . S
C1361 C1363 1.327 . S
C1361 H1384 0.950 . S
C1362 C1361 1.349 . S
C1362 C1374 1.349 . S
C1363 C1361 1.327 . S
C1363 C1379 1.429 . S
C1363 H1385 0.950 . S
C1364 H1360 0.949 . S
C1364 C1372 1.574 . S
C1364 C1380 1.368 . S
H1365 C1373 0.950 . S
H1366 C1371 0.950 . S
H1367 C1372 0.949 . S
H1368 C1374 0.906 1_565 S
H1369 C1375 0.950 . S
H1370 C1376 0.949 . S
C1371 H1366 0.950 . S
C1371 C1373 1.327 . S
C1371 C1377 1.429 . S
C1372 C1364 1.574 . S
C1372 H1367 0.949 . S
C1372 C1378 1.368 . S
C1373 C1357 1.349 . S
C1373 H1365 0.950 . S
C1373 C1371 1.327 . S
C1374 C1362 1.349 . S
C1374 H1368 0.906 1_545 S
C1374 C1375 1.327 . S
C1375 H1369 0.950 . S
C1375 C1374 1.327 . S
C1375 C1379 1.429 . S
C1376 C1359 1.574 . S
C1376 H1370 0.949 . S
C1376 C1380 1.368 . S
C1377 C1358 1.429 . S
C1377 C1371 1.429 . S
C1377 C1378 1.523 . S
C1378 C1359 1.368 . S
C1378 C1372 1.368 . S
C1378 C1377 1.523 . S
C1379 C1363 1.429 . S
C1379 C1375 1.429 . S
C1379 C1380 1.523 . S
C1380 C1364 1.368 . S
C1380 C1376 1.368 . S
C1380 C1379 1.523 . S
H1381 C1356 0.950 . S
H1382 C1358 0.950 . S
H1383 C1359 0.949 . S
H1384 C1361 0.950 . S
H1385 C1363 0.950 . S
C1386 C1387 1.349 . S
C1386 C1388 1.327 . S
C1386 H1411 0.950 1_554 S
C1387 C1386 1.349 . S
C1387 C1403 1.349 . S
C1388 C1386 1.327 . S
C1388 C1407 1.429 . S
C1388 H1412 0.950 . S
C1389 C1406 1.574 . S
C1389 C1408 1.368 . S
C1389 H1413 0.949 . S
H1390 C1394 0.949 . S
C1391 C1392 1.349 . S
C1391 C1393 1.327 . S
C1391 H1414 0.950 . S
C1392 C1391 1.349 . S
C1392 C1404 1.349 . S
C1393 C1391 1.327 . S
C1393 C1409 1.429 . S
C1393 H1415 0.950 . S
C1394 H1390 0.949 . S
C1394 C1402 1.574 . S
C1394 C1410 1.368 . S
H1395 C1403 0.950 . S
H1396 C1401 0.950 . S
H1397 C1402 0.949 . S
H1398 C1404 0.950 . S
H1399 C1405 0.950 . S
H1400 C1406 0.949 . S
C1401 H1396 0.950 . S
C1401 C1403 1.327 . S
C1401 C1407 1.429 . S
C1402 C1394 1.574 . S
C1402 H1397 0.949 . S
C1402 C1408 1.368 . S
C1403 C1387 1.349 . S
C1403 H1395 0.950 . S
C1403 C1401 1.327 . S
C1404 C1392 1.349 . S
C1404 H1398 0.950 . S
C1404 C1405 1.327 . S
C1405 H1399 0.950 . S
C1405 C1404 1.327 . S
C1405 C1409 1.429 . S
C1406 C1389 1.574 . S
C1406 H1400 0.949 . S
C1406 C1410 1.368 . S
C1407 C1388 1.429 . S
C1407 C1401 1.429 . S
C1407 C1408 1.523 . S
C1408 C1389 1.368 . S
C1408 C1402 1.368 . S
C1408 C1407 1.523 . S
C1409 C1393 1.429 . S
C1409 C1405 1.429 . S
C1409 C1410 1.523 . S
C1410 C1394 1.368 . S
C1410 C1406 1.368 . S
C1410 C1409 1.523 . S
H1411 C1386 0.950 1_556 S
H1412 C1388 0.950 . S
H1413 C1389 0.949 . S
H1414 C1391 0.950 . S
H1415 C1393 0.950 . S
C1416 C1417 1.349 . S
C1416 C1418 1.327 . S
C1416 H1441 0.950 . S
C1417 C1416 1.349 . S
C1417 C1433 1.349 . S
C1418 C1416 1.327 . S
C1418 C1437 1.429 . S
C1418 H1442 0.950 . S
C1419 C1436 1.574 . S
C1419 C1438 1.368 . S
C1419 H1443 0.949 . S
H1420 C1424 0.949 . S
C1421 C1422 1.349 . S
C1421 C1423 1.327 . S
C1421 H1444 0.882 1_545 S
C1422 C1421 1.349 . S
C1422 C1434 1.349 . S
C1423 C1421 1.327 . S
C1423 C1439 1.429 . S
C1423 H1445 0.950 . S
C1424 H1420 0.949 . S
C1424 C1432 1.574 . S
C1424 C1440 1.368 . S
H1425 C1433 0.950 . S
H1426 C1431 0.950 . S
H1427 C1432 0.949 . S
H1428 C1434 0.950 . S
H1429 C1435 0.950 . S
H1430 C1436 0.949 . S
C1431 H1426 0.950 . S
C1431 C1433 1.327 . S
C1431 C1437 1.429 . S
C1432 C1424 1.574 . S
C1432 H1427 0.949 . S
C1432 C1438 1.368 . S
C1433 C1417 1.349 . S
C1433 H1425 0.950 . S
C1433 C1431 1.327 . S
C1434 C1422 1.349 . S
C1434 H1428 0.950 . S
C1434 C1435 1.327 . S
C1435 H1429 0.950 . S
C1435 C1434 1.327 . S
C1435 C1439 1.429 . S
C1436 C1419 1.574 . S
C1436 H1430 0.949 . S
C1436 C1440 1.368 . S
C1437 C1418 1.429 . S
C1437 C1431 1.429 . S
C1437 C1438 1.523 . S
C1438 C1419 1.368 . S
C1438 C1432 1.368 . S
C1438 C1437 1.523 . S
C1439 C1423 1.429 . S
C1439 C1435 1.429 . S
C1439 C1440 1.523 . S
C1440 C1424 1.368 . S
C1440 C1436 1.368 . S
C1440 C1439 1.523 . S
H1441 C1416 0.950 . S
H1442 C1418 0.950 . S
H1443 C1419 0.949 . S
H1444 C1421 0.882 1_565 S
H1445 C1423 0.950 . S
C1446 C1447 1.349 . S
C1446 C1448 1.327 . S
C1446 H1471 0.950 . S
C1447 C1446 1.349 . S
C1447 C1463 1.349 . S
C1448 C1446 1.327 . S
C1448 C1467 1.429 . S
C1448 H1472 0.950 . S
C1449 C1466 1.574 . S
C1449 C1468 1.368 . S
C1449 H1473 0.949 . S
H1450 C1454 0.949 . S
C1451 C1452 1.349 . S
C1451 C1453 1.327 . S
C1451 H1474 0.950 1_556 S
C1452 C1451 1.349 . S
C1452 C1464 1.349 . S
C1453 C1451 1.327 . S
C1453 C1469 1.429 . S
C1453 H1475 0.950 . S
C1454 H1450 0.949 . S
C1454 C1462 1.574 . S
C1454 C1470 1.368 . S
H1455 C1463 0.950 . S
H1456 C1461 0.950 . S
H1457 C1462 0.949 . S
H1458 C1464 0.950 . S
H1459 C1465 0.950 . S
H1460 C1466 0.949 . S
C1461 H1456 0.950 . S
C1461 C1463 1.327 . S
C1461 C1467 1.429 . S
C1462 C1454 1.574 . S
C1462 H1457 0.949 . S
C1462 C1468 1.368 . S
C1463 C1447 1.349 . S
C1463 H1455 0.950 . S
C1463 C1461 1.327 . S
C1464 C1452 1.349 . S
C1464 H1458 0.950 . S
C1464 C1465 1.327 . S
C1465 H1459 0.950 . S
C1465 C1464 1.327 . S
C1465 C1469 1.429 . S
C1466 C1449 1.574 . S
C1466 H1460 0.949 . S
C1466 C1470 1.368 . S
C1467 C1448 1.429 . S
C1467 C1461 1.429 . S
C1467 C1468 1.523 . S
C1468 C1449 1.368 . S
C1468 C1462 1.368 . S
C1468 C1467 1.523 . S
C1469 C1453 1.429 . S
C1469 C1465 1.429 . S
C1469 C1470 1.523 . S
C1470 C1454 1.368 . S
C1470 C1466 1.368 . S
C1470 C1469 1.523 . S
H1471 C1446 0.950 . S
H1472 C1448 0.950 . S
H1473 C1449 0.949 . S
H1474 C1451 0.950 1_554 S
H1475 C1453 0.950 . S
C1476 C1477 1.349 . S
C1476 C1478 1.327 . S
C1476 H1501 0.950 . S
C1477 C1476 1.349 . S
C1477 C1493 1.349 . S
C1478 C1476 1.327 . S
C1478 C1497 1.429 . S
C1478 H1502 0.950 . S
C1479 C1496 1.574 . S
C1479 C1498 1.368 . S
C1479 H1503 0.949 . S
H1480 C1484 0.949 . S
C1481 C1482 1.349 . S
C1481 C1483 1.327 . S
C1481 H1504 0.950 . S
C1482 C1481 1.349 . S
C1482 C1494 1.349 . S
C1483 C1481 1.327 . S
C1483 C1499 1.429 . S
C1483 H1505 0.950 . S
C1484 H1480 0.949 . S
C1484 C1492 1.574 . S
C1484 C1500 1.368 . S
H1485 C1493 0.950 . S
H1486 C1491 0.950 . S
H1487 C1492 0.949 . S
H1488 C1494 0.950 . S
H1489 C1495 0.950 . S
H1490 C1496 0.949 . S
C1491 H1486 0.950 . S
C1491 C1493 1.327 . S
C1491 C1497 1.429 . S
C1492 C1484 1.574 . S
C1492 H1487 0.949 . S
C1492 C1498 1.368 . S
C1493 C1477 1.349 . S
C1493 H1485 0.950 . S
C1493 C1491 1.327 . S
C1494 C1482 1.349 . S
C1494 H1488 0.950 . S
C1494 C1495 1.327 . S
C1495 H1489 0.950 . S
C1495 C1494 1.327 . S
C1495 C1499 1.429 . S
C1496 C1479 1.574 . S
C1496 H1490 0.949 . S
C1496 C1500 1.368 . S
C1497 C1478 1.429 . S
C1497 C1491 1.429 . S
C1497 C1498 1.523 . S
C1498 C1479 1.368 . S
C1498 C1492 1.368 . S
C1498 C1497 1.523 . S
C1499 C1483 1.429 . S
C1499 C1495 1.429 . S
C1499 C1500 1.523 . S
C1500 C1484 1.368 . S
C1500 C1496 1.368 . S
C1500 C1499 1.523 . S
H1501 C1476 0.950 . S
H1502 C1478 0.950 . S
H1503 C1479 0.949 . S
H1504 C1481 0.950 . S
H1505 C1483 0.950 . S
C1506 C1507 1.349 . S
C1506 C1508 1.327 . S
C1506 H1531 0.950 . S
C1507 C1506 1.349 . S
C1507 C1523 1.349 . S
C1508 C1506 1.327 . S
C1508 C1527 1.429 . S
C1508 H1532 0.950 . S
C1509 C1526 1.574 . S
C1509 C1528 1.368 . S
C1509 H1533 0.949 . S
H1510 C1514 0.949 . S
C1511 C1512 1.349 . S
C1511 C1513 1.327 . S
C1511 H1534 0.950 . S
C1512 C1511 1.349 . S
C1512 C1524 1.349 . S
C1513 C1511 1.327 . S
C1513 C1529 1.429 . S
C1513 H1535 0.950 . S
C1514 H1510 0.949 . S
C1514 C1522 1.574 . S
C1514 C1530 1.368 . S
H1515 C1523 0.950 . S
H1516 C1521 0.950 . S
H1517 C1522 0.949 . S
H1518 C1524 0.950 . S
H1519 C1525 0.950 . S
H1520 C1526 0.949 . S
C1521 H1516 0.950 . S
C1521 C1523 1.327 . S
C1521 C1527 1.429 . S
C1522 C1514 1.574 . S
C1522 H1517 0.949 . S
C1522 C1528 1.368 . S
C1523 C1507 1.349 . S
C1523 H1515 0.950 . S
C1523 C1521 1.327 . S
C1524 C1512 1.349 . S
C1524 H1518 0.950 . S
C1524 C1525 1.327 . S
C1525 H1519 0.950 . S
C1525 C1524 1.327 . S
C1525 C1529 1.429 . S
C1526 C1509 1.574 . S
C1526 H1520 0.949 . S
C1526 C1530 1.368 . S
C1527 C1508 1.429 . S
C1527 C1521 1.429 . S
C1527 C1528 1.523 . S
C1528 C1509 1.368 . S
C1528 C1522 1.368 . S
C1528 C1527 1.523 . S
C1529 C1513 1.429 . S
C1529 C1525 1.429 . S
C1529 C1530 1.523 . S
C1530 C1514 1.368 . S
C1530 C1526 1.368 . S
C1530 C1529 1.523 . S
H1531 C1506 0.950 . S
H1532 C1508 0.950 . S
H1533 C1509 0.949 . S
H1534 C1511 0.950 . S
H1535 C1513 0.950 . S
C1536 C1537 1.349 . S
C1536 C1538 1.327 . S
C1536 H1561 0.950 . S
C1537 C1536 1.349 . S
C1537 C1553 1.349 . S
C1538 C1536 1.327 . S
C1538 C1557 1.429 . S
C1538 H1562 0.950 . S
C1539 C1556 1.574 . S
C1539 C1558 1.368 . S
C1539 H1563 0.949 . S
H1540 C1544 0.949 . S
C1541 C1542 1.349 . S
C1541 C1543 1.327 . S
C1541 H1564 0.950 . S
C1542 C1541 1.349 . S
C1542 C1554 1.349 . S
C1543 C1541 1.327 . S
C1543 C1559 1.429 . S
C1543 H1565 0.950 . S
C1544 H1540 0.949 . S
C1544 C1552 1.574 . S
C1544 C1560 1.368 . S
H1545 C1553 0.950 . S
H1546 C1551 0.950 . S
H1547 C1552 0.949 . S
H1548 C1554 0.950 . S
H1549 C1555 0.950 . S
H1550 C1556 0.949 . S
C1551 H1546 0.950 . S
C1551 C1553 1.327 . S
C1551 C1557 1.429 . S
C1552 C1544 1.574 . S
C1552 H1547 0.949 . S
C1552 C1558 1.368 . S
C1553 C1537 1.349 . S
C1553 H1545 0.950 . S
C1553 C1551 1.327 . S
C1554 C1542 1.349 . S
C1554 H1548 0.950 . S
C1554 C1555 1.327 . S
C1555 H1549 0.950 . S
C1555 C1554 1.327 . S
C1555 C1559 1.429 . S
C1556 C1539 1.574 . S
C1556 H1550 0.949 . S
C1556 C1560 1.368 . S
C1557 C1538 1.429 . S
C1557 C1551 1.429 . S
C1557 C1558 1.523 . S
C1558 C1539 1.368 . S
C1558 C1552 1.368 . S
C1558 C1557 1.523 . S
C1559 C1543 1.429 . S
C1559 C1555 1.429 . S
C1559 C1560 1.523 . S
C1560 C1544 1.368 . S
C1560 C1556 1.368 . S
C1560 C1559 1.523 . S
H1561 C1536 0.950 . S
H1562 C1538 0.950 . S
H1563 C1539 0.949 . S
H1564 C1541 0.950 . S
H1565 C1543 0.950 . S
C1566 C1567 1.349 . S
C1566 C1568 1.327 . S
C1566 H1591 0.950 . S
C1567 C1566 1.349 . S
C1567 C1583 1.349 . S
C1568 C1566 1.327 . S
C1568 C1587 1.429 . S
C1568 H1592 0.950 . S
C1569 C1586 1.574 . S
C1569 C1588 1.368 . S
C1569 H1593 0.949 . S
H1570 C1574 0.949 . S
C1571 C1572 1.349 . S
C1571 C1573 1.327 . S
C1571 H1594 0.950 . S
C1572 C1571 1.349 . S
C1572 C1584 1.349 . S
C1573 C1571 1.327 . S
C1573 C1589 1.429 . S
C1573 H1595 0.950 . S
C1574 H1570 0.949 . S
C1574 C1582 1.574 . S
C1574 C1590 1.368 . S
H1575 C1583 0.950 . S
H1576 C1581 0.950 . S
H1577 C1582 0.949 . S
H1578 C1584 0.950 1_554 S
H1579 C1585 0.950 . S
H1580 C1586 0.949 . S
C1581 H1576 0.950 . S
C1581 C1583 1.327 . S
C1581 C1587 1.429 . S
C1582 C1574 1.574 . S
C1582 H1577 0.949 . S
C1582 C1588 1.368 . S
C1583 C1567 1.349 . S
C1583 H1575 0.950 . S
C1583 C1581 1.327 . S
C1584 C1572 1.349 . S
C1584 H1578 0.950 1_556 S
C1584 C1585 1.327 . S
C1585 H1579 0.950 . S
C1585 C1584 1.327 . S
C1585 C1589 1.429 . S
C1586 C1569 1.574 . S
C1586 H1580 0.949 . S
C1586 C1590 1.368 . S
C1587 C1568 1.429 . S
C1587 C1581 1.429 . S
C1587 C1588 1.523 . S
C1588 C1569 1.368 . S
C1588 C1582 1.368 . S
C1588 C1587 1.523 . S
C1589 C1573 1.429 . S
C1589 C1585 1.429 . S
C1589 C1590 1.523 . S
C1590 C1574 1.368 . S
C1590 C1586 1.368 . S
C1590 C1589 1.523 . S
H1591 C1566 0.950 . S
H1592 C1568 0.950 . S
H1593 C1569 0.949 . S
H1594 C1571 0.950 . S
H1595 C1573 0.950 . S
C1596 C1597 1.349 . S
C1596 C1598 1.327 . S
C1596 H1621 0.950 . S
C1597 C1596 1.349 . S
C1597 C1613 1.349 . S
C1598 C1596 1.327 . S
C1598 C1617 1.429 . S
C1598 H1622 0.950 . S
C1599 C1616 1.574 . S
C1599 C1618 1.368 . S
C1599 H1623 0.949 . S
H1600 C1604 0.949 . S
C1601 C1602 1.349 . S
C1601 C1603 1.327 . S
C1601 H1624 0.950 . S
C1602 C1601 1.349 . S
C1602 C1614 1.349 . S
C1603 C1601 1.327 . S
C1603 C1619 1.429 . S
C1603 H1625 0.950 . S
C1604 H1600 0.949 . S
C1604 C1612 1.574 . S
C1604 C1620 1.368 . S
H1605 C1613 0.950 . S
H1606 C1611 0.950 . S
H1607 C1612 0.949 . S
H1608 C1614 0.950 . S
H1609 C1615 0.950 . S
H1610 C1616 0.949 . S
C1611 H1606 0.950 . S
C1611 C1613 1.327 . S
C1611 C1617 1.429 . S
C1612 C1604 1.574 . S
C1612 H1607 0.949 . S
C1612 C1618 1.368 . S
C1613 C1597 1.349 . S
C1613 H1605 0.950 . S
C1613 C1611 1.327 . S
C1614 C1602 1.349 . S
C1614 H1608 0.950 . S
C1614 C1615 1.327 . S
C1615 H1609 0.950 . S
C1615 C1614 1.327 . S
C1615 C1619 1.429 . S
C1616 C1599 1.574 . S
C1616 H1610 0.949 . S
C1616 C1620 1.368 . S
C1617 C1598 1.429 . S
C1617 C1611 1.429 . S
C1617 C1618 1.523 . S
C1618 C1599 1.368 . S
C1618 C1612 1.368 . S
C1618 C1617 1.523 . S
C1619 C1603 1.429 . S
C1619 C1615 1.429 . S
C1619 C1620 1.523 . S
C1620 C1604 1.368 . S
C1620 C1616 1.368 . S
C1620 C1619 1.523 . S
H1621 C1596 0.950 . S
H1622 C1598 0.950 . S
H1623 C1599 0.949 . S
H1624 C1601 0.950 . S
H1625 C1603 0.950 . S
C1626 C1627 1.349 . S
C1626 C1628 1.327 . S
C1626 H1651 0.950 . S
C1627 C1626 1.349 . S
C1627 C1643 1.349 . S
C1628 C1626 1.327 . S
C1628 C1647 1.429 . S
C1628 H1652 0.950 . S
C1629 C1646 1.574 . S
C1629 C1648 1.368 . S
C1629 H1653 0.949 . S
H1630 C1634 0.949 . S
C1631 C1632 1.349 . S
C1631 C1633 1.327 . S
C1631 H1654 0.950 . S
C1632 C1631 1.349 . S
C1632 C1644 1.349 . S
C1633 C1631 1.327 . S
C1633 C1649 1.429 . S
C1633 H1655 0.950 . S
C1634 H1630 0.949 . S
C1634 C1642 1.574 . S
C1634 C1650 1.368 . S
H1635 C1643 0.950 . S
H1636 C1641 0.950 . S
H1637 C1642 0.949 . S
H1638 C1644 0.950 . S
H1639 C1645 0.950 . S
H1640 C1646 0.949 . S
C1641 H1636 0.950 . S
C1641 C1643 1.327 . S
C1641 C1647 1.429 . S
C1642 C1634 1.574 . S
C1642 H1637 0.949 . S
C1642 C1648 1.368 . S
C1643 C1627 1.349 . S
C1643 H1635 0.950 . S
C1643 C1641 1.327 . S
C1644 C1632 1.349 . S
C1644 H1638 0.950 . S
C1644 C1645 1.327 . S
C1645 H1639 0.950 . S
C1645 C1644 1.327 . S
C1645 C1649 1.429 . S
C1646 C1629 1.574 . S
C1646 H1640 0.949 . S
C1646 C1650 1.368 . S
C1647 C1628 1.429 . S
C1647 C1641 1.429 . S
C1647 C1648 1.523 . S
C1648 C1629 1.368 . S
C1648 C1642 1.368 . S
C1648 C1647 1.523 . S
C1649 C1633 1.429 . S
C1649 C1645 1.429 . S
C1649 C1650 1.523 . S
C1650 C1634 1.368 . S
C1650 C1646 1.368 . S
C1650 C1649 1.523 . S
H1651 C1626 0.950 . S
H1652 C1628 0.950 . S
H1653 C1629 0.949 . S
H1654 C1631 0.950 . S
H1655 C1633 0.950 . S
C1656 C1657 1.349 . S
C1656 C1658 1.327 . S
C1656 H1681 0.950 . S
C1657 C1656 1.349 . S
C1657 C1673 1.349 . S
C1658 C1656 1.327 . S
C1658 C1677 1.429 . S
C1658 H1682 0.950 . S
C1659 C1676 1.574 . S
C1659 C1678 1.368 . S
C1659 H1683 0.949 . S
H1660 C1664 0.949 . S
C1661 C1662 1.349 . S
C1661 C1663 1.327 . S
C1661 H1684 0.950 . S
C1662 C1661 1.349 . S
C1662 C1674 1.349 . S
C1663 C1661 1.327 . S
C1663 C1679 1.429 . S
C1663 H1685 0.950 . S
C1664 H1660 0.949 . S
C1664 C1672 1.574 . S
C1664 C1680 1.368 . S
H1665 C1673 0.950 . S
H1666 C1671 0.950 . S
H1667 C1672 0.949 . S
H1668 C1674 0.950 . S
H1669 C1675 0.950 . S
H1670 C1676 0.949 . S
C1671 H1666 0.950 . S
C1671 C1673 1.327 . S
C1671 C1677 1.429 . S
C1672 C1664 1.574 . S
C1672 H1667 0.949 . S
C1672 C1678 1.368 . S
C1673 C1657 1.349 . S
C1673 H1665 0.950 . S
C1673 C1671 1.327 . S
C1674 C1662 1.349 . S
C1674 H1668 0.950 . S
C1674 C1675 1.327 . S
C1675 H1669 0.950 . S
C1675 C1674 1.327 . S
C1675 C1679 1.429 . S
C1676 C1659 1.574 . S
C1676 H1670 0.949 . S
C1676 C1680 1.368 . S
C1677 C1658 1.429 . S
C1677 C1671 1.429 . S
C1677 C1678 1.523 . S
C1678 C1659 1.368 . S
C1678 C1672 1.368 . S
C1678 C1677 1.523 . S
C1679 C1663 1.429 . S
C1679 C1675 1.429 . S
C1679 C1680 1.523 . S
C1680 C1664 1.368 . S
C1680 C1676 1.368 . S
C1680 C1679 1.523 . S
H1681 C1656 0.950 . S
H1682 C1658 0.950 . S
H1683 C1659 0.949 . S
H1684 C1661 0.950 . S
H1685 C1663 0.950 . S
C1686 C1687 1.349 . S
C1686 C1688 1.327 . S
C1686 H1711 0.950 . S
C1687 C1686 1.349 . S
C1687 C1703 1.349 . S
C1688 C1686 1.327 . S
C1688 C1707 1.429 . S
C1688 H1712 0.950 . S
C1689 C1706 1.574 . S
C1689 C1708 1.368 . S
C1689 H1713 0.949 . S
H1690 C1694 0.949 . S
C1691 C1692 1.349 . S
C1691 C1693 1.327 . S
C1691 H1714 0.950 . S
C1692 C1691 1.349 . S
C1692 C1704 1.349 . S
C1693 C1691 1.327 . S
C1693 C1709 1.429 . S
C1693 H1715 0.950 . S
C1694 H1690 0.949 . S
C1694 C1702 1.574 . S
C1694 C1710 1.368 . S
H1695 C1703 0.950 . S
H1696 C1701 0.950 . S
H1697 C1702 0.949 . S
H1698 C1704 0.950 . S
H1699 C1705 0.950 . S
H1700 C1706 0.949 . S
C1701 H1696 0.950 . S
C1701 C1703 1.327 . S
C1701 C1707 1.429 . S
C1702 C1694 1.574 . S
C1702 H1697 0.949 . S
C1702 C1708 1.368 . S
C1703 C1687 1.349 . S
C1703 H1695 0.950 . S
C1703 C1701 1.327 . S
C1704 C1692 1.349 . S
C1704 H1698 0.950 . S
C1704 C1705 1.327 . S
C1705 H1699 0.950 . S
C1705 C1704 1.327 . S
C1705 C1709 1.429 . S
C1706 C1689 1.574 . S
C1706 H1700 0.949 . S
C1706 C1710 1.368 . S
C1707 C1688 1.429 . S
C1707 C1701 1.429 . S
C1707 C1708 1.523 . S
C1708 C1689 1.368 . S
C1708 C1702 1.368 . S
C1708 C1707 1.523 . S
C1709 C1693 1.429 . S
C1709 C1705 1.429 . S
C1709 C1710 1.523 . S
C1710 C1694 1.368 . S
C1710 C1706 1.368 . S
C1710 C1709 1.523 . S
H1711 C1686 0.950 . S
H1712 C1688 0.950 . S
H1713 C1689 0.949 . S
H1714 C1691 0.950 . S
H1715 C1693 0.950 . S
C1716 C1717 1.349 . S
C1716 C1718 1.327 . S
C1716 H1741 0.950 . S
C1717 C1716 1.349 . S
C1717 C1733 1.349 . S
C1718 C1716 1.327 . S
C1718 C1737 1.429 . S
C1718 H1742 0.950 . S
C1719 C1736 1.574 . S
C1719 C1738 1.368 . S
C1719 H1743 0.949 . S
H1720 C1724 0.949 . S
C1721 C1722 1.349 . S
C1721 C1723 1.327 . S
C1721 H1744 0.950 . S
C1722 C1721 1.349 . S
C1722 C1734 1.349 . S
C1723 C1721 1.327 . S
C1723 C1739 1.429 . S
C1723 H1745 0.950 . S
C1724 H1720 0.949 . S
C1724 C1732 1.574 . S
C1724 C1740 1.368 . S
H1725 C1733 0.950 . S
H1726 C1731 0.950 . S
H1727 C1732 0.949 . S
H1728 C1734 0.950 . S
H1729 C1735 0.950 . S
H1730 C1736 0.949 . S
C1731 H1726 0.950 . S
C1731 C1733 1.327 . S
C1731 C1737 1.429 . S
C1732 C1724 1.574 . S
C1732 H1727 0.949 . S
C1732 C1738 1.368 . S
C1733 C1717 1.349 . S
C1733 H1725 0.950 . S
C1733 C1731 1.327 . S
C1734 C1722 1.349 . S
C1734 H1728 0.950 . S
C1734 C1735 1.327 . S
C1735 H1729 0.950 . S
C1735 C1734 1.327 . S
C1735 C1739 1.429 . S
C1736 C1719 1.574 . S
C1736 H1730 0.949 . S
C1736 C1740 1.368 . S
C1737 C1718 1.429 . S
C1737 C1731 1.429 . S
C1737 C1738 1.523 . S
C1738 C1719 1.368 . S
C1738 C1732 1.368 . S
C1738 C1737 1.523 . S
C1739 C1723 1.429 . S
C1739 C1735 1.429 . S
C1739 C1740 1.523 . S
C1740 C1724 1.368 . S
C1740 C1736 1.368 . S
C1740 C1739 1.523 . S
H1741 C1716 0.950 . S
H1742 C1718 0.950 . S
H1743 C1719 0.949 . S
H1744 C1721 0.950 . S
H1745 C1723 0.950 . S
C1746 C1747 1.349 . S
C1746 C1748 1.327 . S
C1746 H1771 0.950 . S
C1747 C1746 1.349 . S
C1747 C1763 1.349 . S
C1748 C1746 1.327 . S
C1748 C1767 1.429 . S
C1748 H1772 0.950 . S
C1749 C1766 1.574 . S
C1749 C1768 1.368 . S
C1749 H1773 0.949 . S
H1750 C1754 0.949 . S
C1751 C1752 1.349 . S
C1751 C1753 1.327 . S
C1751 H1774 0.950 1_554 S
C1752 C1751 1.349 . S
C1752 C1764 1.349 . S
C1753 C1751 1.327 . S
C1753 C1769 1.429 . S
C1753 H1775 0.950 . S
C1754 H1750 0.949 . S
C1754 C1762 1.574 . S
C1754 C1770 1.368 . S
H1755 C1763 0.950 . S
H1756 C1761 0.950 . S
H1757 C1762 0.949 . S
H1758 C1764 0.950 . S
H1759 C1765 0.950 . S
H1760 C1766 0.949 . S
C1761 H1756 0.950 . S
C1761 C1763 1.327 . S
C1761 C1767 1.429 . S
C1762 C1754 1.574 . S
C1762 H1757 0.949 . S
C1762 C1768 1.368 . S
C1763 C1747 1.349 . S
C1763 H1755 0.950 . S
C1763 C1761 1.327 . S
C1764 C1752 1.349 . S
C1764 H1758 0.950 . S
C1764 C1765 1.327 . S
C1765 H1759 0.950 . S
C1765 C1764 1.327 . S
C1765 C1769 1.429 . S
C1766 C1749 1.574 . S
C1766 H1760 0.949 . S
C1766 C1770 1.368 . S
C1767 C1748 1.429 . S
C1767 C1761 1.429 . S
C1767 C1768 1.523 . S
C1768 C1749 1.368 . S
C1768 C1762 1.368 . S
C1768 C1767 1.523 . S
C1769 C1753 1.429 . S
C1769 C1765 1.429 . S
C1769 C1770 1.523 . S
C1770 C1754 1.368 . S
C1770 C1766 1.368 . S
C1770 C1769 1.523 . S
H1771 C1746 0.950 . S
H1772 C1748 0.950 . S
H1773 C1749 0.949 . S
H1774 C1751 0.950 1_556 S
H1775 C1753 0.950 . S
C1776 C1777 1.349 . S
C1776 C1778 1.327 . S
C1776 H1801 0.950 . S
C1777 C1776 1.349 . S
C1777 C1793 1.349 . S
C1778 C1776 1.327 . S
C1778 C1797 1.429 . S
C1778 H1802 0.950 . S
C1779 C1796 1.574 . S
C1779 C1798 1.368 . S
C1779 H1803 0.949 . S
H1780 C1784 0.949 . S
C1781 C1782 1.349 . S
C1781 C1783 1.327 . S
C1781 H1804 0.950 . S
C1782 C1781 1.349 . S
C1782 C1794 1.349 . S
C1783 C1781 1.327 . S
C1783 C1799 1.429 . S
C1783 H1805 0.950 . S
C1784 H1780 0.949 . S
C1784 C1792 1.574 . S
C1784 C1800 1.368 . S
H1785 C1793 0.950 . S
H1786 C1791 0.950 . S
H1787 C1792 0.949 . S
H1788 C1794 0.950 . S
H1789 C1795 0.950 . S
H1790 C1796 0.949 . S
C1791 H1786 0.950 . S
C1791 C1793 1.327 . S
C1791 C1797 1.429 . S
C1792 C1784 1.574 . S
C1792 H1787 0.949 . S
C1792 C1798 1.368 . S
C1793 C1777 1.349 . S
C1793 H1785 0.950 . S
C1793 C1791 1.327 . S
C1794 C1782 1.349 . S
C1794 H1788 0.950 . S
C1794 C1795 1.327 . S
C1795 H1789 0.950 . S
C1795 C1794 1.327 . S
C1795 C1799 1.429 . S
C1796 C1779 1.574 . S
C1796 H1790 0.949 . S
C1796 C1800 1.368 . S
C1797 C1778 1.429 . S
C1797 C1791 1.429 . S
C1797 C1798 1.523 . S
C1798 C1779 1.368 . S
C1798 C1792 1.368 . S
C1798 C1797 1.523 . S
C1799 C1783 1.429 . S
C1799 C1795 1.429 . S
C1799 C1800 1.523 . S
C1800 C1784 1.368 . S
C1800 C1796 1.368 . S
C1800 C1799 1.523 . S
H1801 C1776 0.950 . S
H1802 C1778 0.950 . S
H1803 C1779 0.949 . S
H1804 C1781 0.950 . S
H1805 C1783 0.950 . S
C1806 C1807 1.349 . S
C1806 C1808 1.327 . S
C1806 H1831 0.950 . S
C1807 C1806 1.349 . S
C1807 C1823 1.349 . S
C1808 C1806 1.327 . S
C1808 C1827 1.429 . S
C1808 H1832 0.950 . S
C1809 C1826 1.574 . S
C1809 C1828 1.368 . S
C1809 H1833 0.949 . S
H1810 C1814 0.949 . S
C1811 C1812 1.349 . S
C1811 C1813 1.327 . S
C1811 H1834 0.950 . S
C1812 C1811 1.349 . S
C1812 C1824 1.349 . S
C1813 C1811 1.327 . S
C1813 C1829 1.429 . S
C1813 H1835 0.950 . S
C1814 H1810 0.949 . S
C1814 C1822 1.574 . S
C1814 C1830 1.368 . S
H1815 C1823 0.950 . S
H1816 C1821 0.950 . S
H1817 C1822 0.949 . S
H1818 C1824 0.977 . S
H1819 C1825 0.950 . S
H1820 C1826 0.949 . S
C1821 H1816 0.950 . S
C1821 C1823 1.327 . S
C1821 C1827 1.429 . S
C1822 C1814 1.574 . S
C1822 H1817 0.949 . S
C1822 C1828 1.368 . S
C1823 C1807 1.349 . S
C1823 H1815 0.950 . S
C1823 C1821 1.327 . S
C1824 C1812 1.349 . S
C1824 H1818 0.977 . S
C1824 C1825 1.327 . S
C1825 H1819 0.950 . S
C1825 C1824 1.327 . S
C1825 C1829 1.429 . S
C1826 C1809 1.574 . S
C1826 H1820 0.949 . S
C1826 C1830 1.368 . S
C1827 C1808 1.429 . S
C1827 C1821 1.429 . S
C1827 C1828 1.523 . S
C1828 C1809 1.368 . S
C1828 C1822 1.368 . S
C1828 C1827 1.523 . S
C1829 C1813 1.429 . S
C1829 C1825 1.429 . S
C1829 C1830 1.523 . S
C1830 C1814 1.368 . S
C1830 C1826 1.368 . S
C1830 C1829 1.523 . S
H1831 C1806 0.950 . S
H1832 C1808 0.950 . S
H1833 C1809 0.949 . S
H1834 C1811 0.950 . S
H1835 C1813 0.950 . S
C1836 C1837 1.349 . S
C1836 C1838 1.327 . S
C1836 H1861 0.950 . S
C1837 C1836 1.349 . S
C1837 C1853 1.349 . S
C1838 C1836 1.327 . S
C1838 C1857 1.429 . S
C1838 H1862 0.950 . S
C1839 C1856 1.574 . S
C1839 C1858 1.368 . S
C1839 H1863 0.949 . S
H1840 C1844 0.949 . S
C1841 C1842 1.349 . S
C1841 C1843 1.327 . S
C1841 H1864 0.950 . S
C1842 C1841 1.349 . S
C1842 C1854 1.349 . S
C1843 C1841 1.327 . S
C1843 C1859 1.429 . S
C1843 H1865 0.950 . S
C1844 H1840 0.949 . S
C1844 C1852 1.574 . S
C1844 C1860 1.368 . S
H1845 C1853 0.950 . S
H1846 C1851 0.950 . S
H1847 C1852 0.949 . S
H1848 C1854 0.950 . S
H1849 C1855 0.950 . S
H1850 C1856 0.949 . S
C1851 H1846 0.950 . S
C1851 C1853 1.327 . S
C1851 C1857 1.429 . S
C1852 C1844 1.574 . S
C1852 H1847 0.949 . S
C1852 C1858 1.368 . S
C1853 C1837 1.349 . S
C1853 H1845 0.950 . S
C1853 C1851 1.327 . S
C1854 C1842 1.349 . S
C1854 H1848 0.950 . S
C1854 C1855 1.327 . S
C1855 H1849 0.950 . S
C1855 C1854 1.327 . S
C1855 C1859 1.429 . S
C1856 C1839 1.574 . S
C1856 H1850 0.949 . S
C1856 C1860 1.368 . S
C1857 C1838 1.429 . S
C1857 C1851 1.429 . S
C1857 C1858 1.523 . S
C1858 C1839 1.368 . S
C1858 C1852 1.368 . S
C1858 C1857 1.523 . S
C1859 C1843 1.429 . S
C1859 C1855 1.429 . S
C1859 C1860 1.523 . S
C1860 C1844 1.368 . S
C1860 C1856 1.368 . S
C1860 C1859 1.523 . S
H1861 C1836 0.950 . S
H1862 C1838 0.950 . S
H1863 C1839 0.949 . S
H1864 C1841 0.950 . S
H1865 C1843 0.950 . S
C1866 C1867 1.349 . S
C1866 C1868 1.327 . S
C1866 H1891 0.950 . S
C1867 C1866 1.349 . S
C1867 C1883 1.349 . S
C1868 C1866 1.327 . S
C1868 C1887 1.429 . S
C1868 H1892 0.950 . S
C1869 C1886 1.574 . S
C1869 C1888 1.368 . S
C1869 H1893 0.949 . S
H1870 C1874 0.949 . S
C1871 C1872 1.349 . S
C1871 C1873 1.327 . S
C1871 H1894 0.950 . S
C1872 C1871 1.349 . S
C1872 C1884 1.349 . S
C1873 C1871 1.327 . S
C1873 C1889 1.429 . S
C1873 H1895 0.950 . S
C1874 H1870 0.949 . S
C1874 C1882 1.574 . S
C1874 C1890 1.368 . S
H1875 C1883 0.950 . S
H1876 C1881 0.950 . S
H1877 C1882 0.949 . S
H1878 C1884 0.950 . S
H1879 C1885 0.950 . S
H1880 C1886 0.949 . S
C1881 H1876 0.950 . S
C1881 C1883 1.327 . S
C1881 C1887 1.429 . S
C1882 C1874 1.574 . S
C1882 H1877 0.949 . S
C1882 C1888 1.368 . S
C1883 C1867 1.349 . S
C1883 H1875 0.950 . S
C1883 C1881 1.327 . S
C1884 C1872 1.349 . S
C1884 H1878 0.950 . S
C1884 C1885 1.327 . S
C1885 H1879 0.950 . S
C1885 C1884 1.327 . S
C1885 C1889 1.429 . S
C1886 C1869 1.574 . S
C1886 H1880 0.949 . S
C1886 C1890 1.368 . S
C1887 C1868 1.429 . S
C1887 C1881 1.429 . S
C1887 C1888 1.523 . S
C1888 C1869 1.368 . S
C1888 C1882 1.368 . S
C1888 C1887 1.523 . S
C1889 C1873 1.429 . S
C1889 C1885 1.429 . S
C1889 C1890 1.523 . S
C1890 C1874 1.368 . S
C1890 C1886 1.368 . S
C1890 C1889 1.523 . S
H1891 C1866 0.950 . S
H1892 C1868 0.950 . S
H1893 C1869 0.949 . S
H1894 C1871 0.950 . S
H1895 C1873 0.950 . S
C1896 C1897 1.349 . S
C1896 C1898 1.327 . S
C1896 H1921 0.950 . S
C1897 C1896 1.349 . S
C1897 C1913 1.349 . S
C1898 C1896 1.327 . S
C1898 C1917 1.429 . S
C1898 H1922 0.950 . S
C1899 C1916 1.574 . S
C1899 C1918 1.368 . S
C1899 H1923 0.949 . S
H1900 C1904 0.949 . S
C1901 C1902 1.349 . S
C1901 C1903 1.327 . S
C1901 H1924 0.950 . S
C1902 C1901 1.349 . S
C1902 C1914 1.349 . S
C1903 C1901 1.327 . S
C1903 C1919 1.429 . S
C1903 H1925 0.950 . S
C1904 H1900 0.949 . S
C1904 C1912 1.574 . S
C1904 C1920 1.368 . S
H1905 C1913 0.950 . S
H1906 C1911 0.950 . S
H1907 C1912 0.949 . S
H1908 C1914 0.950 . S
H1909 C1915 0.950 . S
H1910 C1916 0.949 . S
C1911 H1906 0.950 . S
C1911 C1913 1.327 . S
C1911 C1917 1.429 . S
C1912 C1904 1.574 . S
C1912 H1907 0.949 . S
C1912 C1918 1.368 . S
C1913 C1897 1.349 . S
C1913 H1905 0.950 . S
C1913 C1911 1.327 . S
C1914 C1902 1.349 . S
C1914 H1908 0.950 . S
C1914 C1915 1.327 . S
C1915 H1909 0.950 . S
C1915 C1914 1.327 . S
C1915 C1919 1.429 . S
C1916 C1899 1.574 . S
C1916 H1910 0.949 . S
C1916 C1920 1.368 . S
C1917 C1898 1.429 . S
C1917 C1911 1.429 . S
C1917 C1918 1.523 . S
C1918 C1899 1.368 . S
C1918 C1912 1.368 . S
C1918 C1917 1.523 . S
C1919 C1903 1.429 . S
C1919 C1915 1.429 . S
C1919 C1920 1.523 . S
C1920 C1904 1.368 . S
C1920 C1916 1.368 . S
C1920 C1919 1.523 . S
H1921 C1896 0.950 . S
H1922 C1898 0.950 . S
H1923 C1899 0.949 . S
H1924 C1901 0.950 . S
H1925 C1903 0.950 . S
C1926 C1927 1.349 . S
C1926 C1928 1.327 . S
C1926 H1951 0.950 . S
C1927 C1926 1.349 . S
C1927 C1943 1.349 . S
C1928 C1926 1.327 . S
C1928 C1947 1.429 . S
C1928 H1952 0.950 . S
C1929 C1946 1.574 . S
C1929 C1948 1.368 . S
C1929 H1953 0.949 . S
H1930 C1934 0.949 . S
C1931 C1932 1.349 . S
C1931 C1933 1.327 . S
C1931 H1954 0.950 . S
C1932 C1931 1.349 . S
C1932 C1944 1.349 . S
C1933 C1931 1.327 . S
C1933 C1949 1.429 . S
C1933 H1955 0.950 . S
C1934 H1930 0.949 . S
C1934 C1942 1.574 . S
C1934 C1950 1.368 . S
H1935 C1943 0.950 . S
H1936 C1941 0.950 . S
H1937 C1942 0.949 . S
H1938 C1944 0.950 . S
H1939 C1945 0.950 . S
H1940 C1946 0.949 . S
C1941 H1936 0.950 . S
C1941 C1943 1.327 . S
C1941 C1947 1.429 . S
C1942 C1934 1.574 . S
C1942 H1937 0.949 . S
C1942 C1948 1.368 . S
C1943 C1927 1.349 . S
C1943 H1935 0.950 . S
C1943 C1941 1.327 . S
C1944 C1932 1.349 . S
C1944 H1938 0.950 . S
C1944 C1945 1.327 . S
C1945 H1939 0.950 . S
C1945 C1944 1.327 . S
C1945 C1949 1.429 . S
C1946 C1929 1.574 . S
C1946 H1940 0.949 . S
C1946 C1950 1.368 . S
C1947 C1928 1.429 . S
C1947 C1941 1.429 . S
C1947 C1948 1.523 . S
C1948 C1929 1.368 . S
C1948 C1942 1.368 . S
C1948 C1947 1.523 . S
C1949 C1933 1.429 . S
C1949 C1945 1.429 . S
C1949 C1950 1.523 . S
C1950 C1934 1.368 . S
C1950 C1946 1.368 . S
C1950 C1949 1.523 . S
H1951 C1926 0.950 . S
H1952 C1928 0.950 . S
H1953 C1929 0.949 . S
H1954 C1931 0.950 . S
H1955 C1933 0.950 . S
C1956 C1957 1.349 . S
C1956 C1958 1.327 . S
C1956 H1981 0.950 . S
C1957 C1956 1.349 . S
C1957 C1973 1.349 . S
C1958 C1956 1.327 . S
C1958 C1977 1.429 . S
C1958 H1982 0.950 . S
C1959 C1976 1.574 . S
C1959 C1978 1.368 . S
C1959 H1983 0.949 . S
H1960 C1964 0.949 . S
C1961 C1962 1.349 . S
C1961 C1963 1.327 . S
C1961 H1984 0.950 . S
C1962 C1961 1.349 . S
C1962 C1974 1.349 . S
C1963 C1961 1.327 . S
C1963 C1979 1.429 . S
C1963 H1985 0.950 . S
C1964 H1960 0.949 . S
C1964 C1972 1.574 . S
C1964 C1980 1.368 . S
H1965 C1973 0.950 . S
H1966 C1971 0.950 . S
H1967 C1972 0.949 . S
H1968 C1974 0.950 . S
H1969 C1975 0.950 . S
H1970 C1976 0.949 . S
C1971 H1966 0.950 . S
C1971 C1973 1.327 . S
C1971 C1977 1.429 . S
C1972 C1964 1.574 . S
C1972 H1967 0.949 . S
C1972 C1978 1.368 . S
C1973 C1957 1.349 . S
C1973 H1965 0.950 . S
C1973 C1971 1.327 . S
C1974 C1962 1.349 . S
C1974 H1968 0.950 . S
C1974 C1975 1.327 . S
C1975 H1969 0.950 . S
C1975 C1974 1.327 . S
C1975 C1979 1.429 . S
C1976 C1959 1.574 . S
C1976 H1970 0.949 . S
C1976 C1980 1.368 . S
C1977 C1958 1.429 . S
C1977 C1971 1.429 . S
C1977 C1978 1.523 . S
C1978 C1959 1.368 . S
C1978 C1972 1.368 . S
C1978 C1977 1.523 . S
C1979 C1963 1.429 . S
C1979 C1975 1.429 . S
C1979 C1980 1.523 . S
C1980 C1964 1.368 . S
C1980 C1976 1.368 . S
C1980 C1979 1.523 . S
H1981 C1956 0.950 . S
H1982 C1958 0.950 . S
H1983 C1959 0.949 . S
H1984 C1961 0.950 . S
H1985 C1963 0.950 . S
C1986 C1987 1.349 . S
C1986 C1988 1.327 . S
C1986 H2011 0.950 . S
C1987 C1986 1.349 . S
C1987 C2003 1.349 . S
C1988 C1986 1.327 . S
C1988 C2007 1.429 . S
C1988 H2012 0.950 . S
C1989 C2006 1.574 . S
C1989 C2008 1.368 . S
C1989 H2013 0.949 . S
H1990 C1994 0.949 . S
C1991 C1992 1.349 . S
C1991 C1993 1.327 . S
C1991 H2014 0.950 . S
C1992 C1991 1.349 . S
C1992 C2004 1.349 . S
C1993 C1991 1.327 . S
C1993 C2009 1.429 . S
C1993 H2015 0.950 . S
C1994 H1990 0.949 . S
C1994 C2002 1.574 . S
C1994 C2010 1.368 . S
H1995 C2003 0.950 1_554 S
H1996 C2001 0.950 . S
H1997 C2002 0.949 . S
H1998 C2004 0.950 . S
H1999 C2005 0.950 . S
H2000 C2006 0.949 . S
C2001 H1996 0.950 . S
C2001 C2003 1.327 . S
C2001 C2007 1.429 . S
C2002 C1994 1.574 . S
C2002 H1997 0.949 . S
C2002 C2008 1.368 . S
C2003 C1987 1.349 . S
C2003 H1995 0.950 1_556 S
C2003 C2001 1.327 . S
C2004 C1992 1.349 . S
C2004 H1998 0.950 . S
C2004 C2005 1.327 . S
C2005 H1999 0.950 . S
C2005 C2004 1.327 . S
C2005 C2009 1.429 . S
C2006 C1989 1.574 . S
C2006 H2000 0.949 . S
C2006 C2010 1.368 . S
C2007 C1988 1.429 . S
C2007 C2001 1.429 . S
C2007 C2008 1.523 . S
C2008 C1989 1.368 . S
C2008 C2002 1.368 . S
C2008 C2007 1.523 . S
C2009 C1993 1.429 . S
C2009 C2005 1.429 . S
C2009 C2010 1.523 . S
C2010 C1994 1.368 . S
C2010 C2006 1.368 . S
C2010 C2009 1.523 . S
H2011 C1986 0.950 . S
H2012 C1988 0.950 . S
H2013 C1989 0.949 . S
H2014 C1991 0.950 . S
H2015 C1993 0.950 . S
C2016 C2017 1.349 . S
C2016 C2018 1.327 . S
C2016 H2041 0.950 . S
C2017 C2016 1.349 . S
C2017 C2033 1.349 . S
C2018 C2016 1.327 . S
C2018 C2037 1.429 . S
C2018 H2042 0.950 . S
C2019 C2036 1.574 . S
C2019 C2038 1.368 . S
C2019 H2043 0.949 . S
H2020 C2024 0.949 . S
C2021 C2022 1.349 . S
C2021 C2023 1.327 . S
C2021 H2044 0.950 . S
C2022 C2021 1.349 . S
C2022 C2034 1.349 . S
C2023 C2021 1.327 . S
C2023 C2039 1.429 . S
C2023 H2045 0.950 . S
C2024 H2020 0.949 . S
C2024 C2032 1.574 . S
C2024 C2040 1.368 . S
H2025 C2033 0.950 . S
H2026 C2031 0.950 . S
H2027 C2032 0.949 . S
H2028 C2034 0.950 . S
H2029 C2035 0.950 . S
H2030 C2036 0.949 . S
C2031 H2026 0.950 . S
C2031 C2033 1.327 . S
C2031 C2037 1.429 . S
C2032 C2024 1.574 . S
C2032 H2027 0.949 . S
C2032 C2038 1.368 . S
C2033 C2017 1.349 . S
C2033 H2025 0.950 . S
C2033 C2031 1.327 . S
C2034 C2022 1.349 . S
C2034 H2028 0.950 . S
C2034 C2035 1.327 . S
C2035 H2029 0.950 . S
C2035 C2034 1.327 . S
C2035 C2039 1.429 . S
C2036 C2019 1.574 . S
C2036 H2030 0.949 . S
C2036 C2040 1.368 . S
C2037 C2018 1.429 . S
C2037 C2031 1.429 . S
C2037 C2038 1.523 . S
C2038 C2019 1.368 . S
C2038 C2032 1.368 . S
C2038 C2037 1.523 . S
C2039 C2023 1.429 . S
C2039 C2035 1.429 . S
C2039 C2040 1.523 . S
C2040 C2024 1.368 . S
C2040 C2036 1.368 . S
C2040 C2039 1.523 . S
H2041 C2016 0.950 . S
H2042 C2018 0.950 . S
H2043 C2019 0.949 . S
H2044 C2021 0.950 . S
H2045 C2023 0.950 . S
C2046 C2047 1.349 1_545 S
C2046 C2048 1.327 . S
C2046 H2071 0.950 . S
C2047 C2046 1.349 1_565 S
C2047 C2063 1.349 . S
C2048 C2046 1.327 . S
C2048 C2067 1.429 1_545 S
C2048 H2072 0.950 . S
C2049 C2066 1.574 . S
C2049 C2068 1.368 . S
C2049 H2073 0.949 . S
H2050 C2054 0.949 . S
C2051 C2052 1.349 1_565 S
C2051 C2053 1.327 . S
C2051 H2074 0.950 . S
C2052 C2051 1.349 1_545 S
C2052 C2064 1.349 . S
C2053 C2051 1.327 . S
C2053 C2069 1.429 1_565 S
C2053 H2075 0.950 . S
C2054 H2050 0.949 . S
C2054 C2062 1.574 . S
C2054 C2070 1.368 . S
H2055 C2063 0.950 . S
H2056 C2061 0.950 . S
H2057 C2062 0.949 . S
H2058 C2064 0.950 . S
H2059 C2065 0.950 . S
H2060 C2066 0.949 . S
C2061 H2056 0.950 . S
C2061 C2063 1.327 . S
C2061 C2067 1.429 . S
C2062 C2054 1.574 . S
C2062 H2057 0.949 . S
C2062 C2068 1.368 1_545 S
C2063 C2047 1.349 . S
C2063 H2055 0.950 . S
C2063 C2061 1.327 . S
C2064 C2052 1.349 . S
C2064 H2058 0.950 . S
C2064 C2065 1.327 . S
C2065 H2059 0.950 . S
C2065 C2064 1.327 . S
C2065 C2069 1.429 . S
C2066 C2049 1.574 . S
C2066 H2060 0.949 . S
C2066 C2070 1.368 1_565 S
C2067 C2048 1.429 1_565 S
C2067 C2061 1.429 . S
C2067 C2068 1.523 . S
C2068 C2049 1.368 . S
C2068 C2062 1.368 1_565 S
C2068 C2067 1.523 . S
C2069 C2053 1.429 1_545 S
C2069 C2065 1.429 . S
C2069 C2070 1.523 . S
C2070 C2054 1.368 . S
C2070 C2066 1.368 1_545 S
C2070 C2069 1.523 . S
H2071 C2046 0.950 . S
H2072 C2048 0.950 . S
H2073 C2049 0.949 . S
H2074 C2051 0.950 . S
H2075 C2053 0.950 . S
C2076 C2077 1.349 . S
C2076 C2078 1.327 . S
C2076 H2101 0.950 . S
C2077 C2076 1.349 . S
C2077 C2093 1.349 . S
C2078 C2076 1.327 . S
C2078 C2097 1.429 . S
C2078 H2102 0.950 . S
C2079 C2096 1.574 . S
C2079 C2098 1.368 . S
C2079 H2103 0.949 . S
H2080 C2084 0.949 . S
C2081 C2082 1.349 . S
C2081 C2083 1.327 . S
C2081 H2104 0.950 . S
C2082 C2081 1.349 . S
C2082 C2094 1.349 . S
C2083 C2081 1.327 . S
C2083 C2099 1.429 . S
C2083 H2105 0.950 . S
C2084 H2080 0.949 . S
C2084 C2092 1.574 . S
C2084 C2100 1.368 . S
H2085 C2093 0.950 . S
H2086 C2091 0.950 . S
H2087 C2092 0.949 . S
H2088 C2094 0.950 . S
H2089 C2095 0.950 . S
H2090 C2096 0.949 . S
C2091 H2086 0.950 . S
C2091 C2093 1.327 . S
C2091 C2097 1.429 . S
C2092 C2084 1.574 . S
C2092 H2087 0.949 . S
C2092 C2098 1.368 . S
C2093 C2077 1.349 . S
C2093 H2085 0.950 . S
C2093 C2091 1.327 . S
C2094 C2082 1.349 . S
C2094 H2088 0.950 . S
C2094 C2095 1.327 . S
C2095 H2089 0.950 . S
C2095 C2094 1.327 . S
C2095 C2099 1.429 . S
C2096 C2079 1.574 . S
C2096 H2090 0.949 . S
C2096 C2100 1.368 . S
C2097 C2078 1.429 . S
C2097 C2091 1.429 . S
C2097 C2098 1.523 . S
C2098 C2079 1.368 . S
C2098 C2092 1.368 . S
C2098 C2097 1.523 . S
C2099 C2083 1.429 . S
C2099 C2095 1.429 . S
C2099 C2100 1.523 . S
C2100 C2084 1.368 . S
C2100 C2096 1.368 . S
C2100 C2099 1.523 . S
H2101 C2076 0.950 . S
H2102 C2078 0.950 . S
H2103 C2079 0.949 . S
H2104 C2081 0.950 . S
H2105 C2083 0.950 . S
C2106 C2107 1.349 1_565 S
C2106 C2108 1.327 . S
C2106 H2131 0.950 . S
C2107 C2106 1.349 1_545 S
C2107 C2123 1.349 . S
C2108 C2106 1.327 . S
C2108 C2127 1.429 1_565 S
C2108 H2132 0.950 . S
C2109 C2126 1.574 1_556 S
C2109 C2128 1.368 . S
C2109 H2133 0.949 . S
H2110 C2114 0.949 . S
C2111 C2112 1.349 1_545 S
C2111 C2113 1.327 . S
C2111 H2134 0.950 . S
C2112 C2111 1.349 1_565 S
C2112 C2124 1.349 . S
C2113 C2111 1.327 . S
C2113 C2129 1.429 1_545 S
C2113 H2135 0.950 . S
C2114 H2110 0.949 . S
C2114 C2122 1.574 1_554 S
C2114 C2130 1.368 . S
H2115 C2123 0.950 . S
H2116 C2121 0.950 . S
H2117 C2122 0.949 . S
H2118 C2124 0.950 . S
H2119 C2125 0.950 . S
H2120 C2126 0.949 . S
C2121 H2116 0.950 . S
C2121 C2123 1.327 . S
C2121 C2127 1.429 . S
C2122 C2114 1.574 1_556 S
C2122 H2117 0.949 . S
C2122 C2128 1.368 1_565 S
C2123 C2107 1.349 . S
C2123 H2115 0.950 . S
C2123 C2121 1.327 . S
C2124 C2112 1.349 . S
C2124 H2118 0.950 . S
C2124 C2125 1.327 . S
C2125 H2119 0.950 . S
C2125 C2124 1.327 . S
C2125 C2129 1.429 . S
C2126 C2109 1.574 1_554 S
C2126 H2120 0.949 . S
C2126 C2130 1.368 1_545 S
C2127 C2108 1.429 1_545 S
C2127 C2121 1.429 . S
C2127 C2128 1.523 . S
C2128 C2109 1.368 . S
C2128 C2122 1.368 1_545 S
C2128 C2127 1.523 . S
C2129 C2113 1.429 1_565 S
C2129 C2125 1.429 . S
C2129 C2130 1.523 . S
C2130 C2114 1.368 . S
C2130 C2126 1.368 1_565 S
C2130 C2129 1.523 . S
H2131 C2106 0.950 . S
H2132 C2108 0.950 . S
H2133 C2109 0.949 . S
H2134 C2111 0.950 . S
H2135 C2113 0.950 . S
C2136 C2137 1.349 . S
C2136 C2138 1.327 . S
C2136 H2161 0.950 . S
C2137 C2136 1.349 . S
C2137 C2153 1.349 . S
C2138 C2136 1.327 . S
C2138 C2157 1.429 . S
C2138 H2162 0.950 . S
C2139 C2156 1.574 . S
C2139 C2158 1.368 . S
C2139 H2163 0.949 . S
H2140 C2144 0.949 . S
C2141 C2142 1.349 . S
C2141 C2143 1.327 . S
C2141 H2164 0.950 . S
C2142 C2141 1.349 . S
C2142 C2154 1.349 . S
C2143 C2141 1.327 . S
C2143 C2159 1.429 . S
C2143 H2165 0.950 . S
C2144 H2140 0.949 . S
C2144 C2152 1.574 . S
C2144 C2160 1.368 . S
H2145 C2153 0.950 . S
H2146 C2151 0.950 . S
H2147 C2152 0.949 . S
H2148 C2154 0.950 . S
H2149 C2155 0.950 . S
H2150 C2156 0.949 . S
C2151 H2146 0.950 . S
C2151 C2153 1.327 . S
C2151 C2157 1.429 . S
C2152 C2144 1.574 . S
C2152 H2147 0.949 . S
C2152 C2158 1.368 . S
C2153 C2137 1.349 . S
C2153 H2145 0.950 . S
C2153 C2151 1.327 . S
C2154 C2142 1.349 . S
C2154 H2148 0.950 . S
C2154 C2155 1.327 . S
C2155 H2149 0.950 . S
C2155 C2154 1.327 . S
C2155 C2159 1.429 . S
C2156 C2139 1.574 . S
C2156 H2150 0.949 . S
C2156 C2160 1.368 . S
C2157 C2138 1.429 . S
C2157 C2151 1.429 . S
C2157 C2158 1.523 . S
C2158 C2139 1.368 . S
C2158 C2152 1.368 . S
C2158 C2157 1.523 . S
C2159 C2143 1.429 . S
C2159 C2155 1.429 . S
C2159 C2160 1.523 . S
C2160 C2144 1.368 . S
C2160 C2156 1.368 . S
C2160 C2159 1.523 . S
H2161 C2136 0.950 . S
H2162 C2138 0.950 . S
H2163 C2139 0.949 . S
H2164 C2141 0.950 . S
H2165 C2143 0.950 . S
C2166 C2167 1.349 . S
C2166 C2168 1.327 . S
C2166 H2191 0.950 . S
C2167 C2166 1.349 . S
C2167 C2183 1.349 1_565 S
C2168 C2166 1.327 . S
C2168 C2187 1.429 . S
C2168 H2192 0.950 . S
C2169 C2186 1.574 . S
C2169 C2188 1.368 1_545 S
C2169 H2193 0.949 . S
H2170 C2174 0.949 . S
C2171 C2172 1.349 . S
C2171 C2173 1.327 . S
C2171 H2194 0.950 . S
C2172 C2171 1.349 . S
C2172 C2184 1.349 1_545 S
C2173 C2171 1.327 . S
C2173 C2189 1.429 . S
C2173 H2195 0.950 . S
C2174 H2170 0.949 . S
C2174 C2182 1.574 . S
C2174 C2190 1.368 1_565 S
H2175 C2183 0.950 . S
H2176 C2181 0.950 . S
H2177 C2182 0.949 . S
H2178 C2184 0.950 . S
H2179 C2185 0.950 . S
H2180 C2186 0.949 . S
C2181 H2176 0.950 . S
C2181 C2183 1.327 . S
C2181 C2187 1.429 1_545 S
C2182 C2174 1.574 . S
C2182 H2177 0.949 . S
C2182 C2188 1.368 . S
C2183 C2167 1.349 1_545 S
C2183 H2175 0.950 . S
C2183 C2181 1.327 . S
C2184 C2172 1.349 1_565 S
C2184 H2178 0.950 . S
C2184 C2185 1.327 . S
C2185 H2179 0.950 . S
C2185 C2184 1.327 . S
C2185 C2189 1.429 1_565 S
C2186 C2169 1.574 . S
C2186 H2180 0.949 . S
C2186 C2190 1.368 . S
C2187 C2168 1.429 . S
C2187 C2181 1.429 1_565 S
C2187 C2188 1.523 . S
C2188 C2169 1.368 1_565 S
C2188 C2182 1.368 . S
C2188 C2187 1.523 . S
C2189 C2173 1.429 . S
C2189 C2185 1.429 1_545 S
C2189 C2190 1.523 . S
C2190 C2174 1.368 1_545 S
C2190 C2186 1.368 . S
C2190 C2189 1.523 . S
H2191 C2166 0.950 . S
H2192 C2168 0.950 . S
H2193 C2169 0.949 . S
H2194 C2171 0.950 . S
H2195 C2173 0.950 . S
C2196 C2197 1.349 . S
C2196 C2198 1.327 . S
C2196 H2221 0.950 . S
C2197 C2196 1.349 . S
C2197 C2213 1.349 . S
C2198 C2196 1.327 . S
C2198 C2217 1.429 . S
C2198 H2222 0.950 . S
C2199 C2216 1.574 . S
C2199 C2218 1.368 . S
C2199 H2223 0.949 . S
H2200 C2204 0.949 . S
C2201 C2202 1.349 . S
C2201 C2203 1.327 . S
C2201 H2224 0.950 . S
C2202 C2201 1.349 . S
C2202 C2214 1.349 . S
C2203 C2201 1.327 . S
C2203 C2219 1.429 . S
C2203 H2225 0.950 . S
C2204 H2200 0.949 . S
C2204 C2212 1.574 . S
C2204 C2220 1.368 . S
H2205 C2213 0.950 . S
H2206 C2211 0.950 . S
H2207 C2212 0.949 . S
H2208 C2214 0.950 . S
H2209 C2215 0.950 . S
H2210 C2216 0.949 . S
C2211 H2206 0.950 . S
C2211 C2213 1.327 . S
C2211 C2217 1.429 . S
C2212 C2204 1.574 . S
C2212 H2207 0.949 . S
C2212 C2218 1.368 . S
C2213 C2197 1.349 . S
C2213 H2205 0.950 . S
C2213 C2211 1.327 . S
C2214 C2202 1.349 . S
C2214 H2208 0.950 . S
C2214 C2215 1.327 . S
C2215 H2209 0.950 . S
C2215 C2214 1.327 . S
C2215 C2219 1.429 . S
C2216 C2199 1.574 . S
C2216 H2210 0.949 . S
C2216 C2220 1.368 . S
C2217 C2198 1.429 . S
C2217 C2211 1.429 . S
C2217 C2218 1.523 . S
C2218 C2199 1.368 . S
C2218 C2212 1.368 . S
C2218 C2217 1.523 . S
C2219 C2203 1.429 . S
C2219 C2215 1.429 . S
C2219 C2220 1.523 . S
C2220 C2204 1.368 . S
C2220 C2216 1.368 . S
C2220 C2219 1.523 . S
H2221 C2196 0.950 . S
H2222 C2198 0.950 . S
H2223 C2199 0.949 . S
H2224 C2201 0.950 . S
H2225 C2203 0.950 . S
C2226 C2227 1.349 1_565 S
C2226 C2228 1.327 . S
C2226 H2251 0.950 . S
C2227 C2226 1.349 1_545 S
C2227 C2243 1.349 . S
C2228 C2226 1.327 . S
C2228 C2247 1.429 1_565 S
C2228 H2252 0.950 . S
C2229 C2246 1.574 1_556 S
C2229 C2248 1.368 . S
C2229 H2253 0.949 . S
H2230 C2234 0.949 . S
C2231 C2232 1.349 1_545 S
C2231 C2233 1.327 . S
C2231 H2254 0.950 . S
C2232 C2231 1.349 1_565 S
C2232 C2244 1.349 . S
C2233 C2231 1.327 . S
C2233 C2249 1.429 1_545 S
C2233 H2255 0.950 . S
C2234 H2230 0.949 . S
C2234 C2242 1.574 1_554 S
C2234 C2250 1.368 . S
H2235 C2243 0.950 . S
H2236 C2241 0.950 . S
H2237 C2242 0.949 . S
H2238 C2244 0.950 . S
H2239 C2245 0.950 . S
H2240 C2246 0.949 . S
C2241 H2236 0.950 . S
C2241 C2243 1.327 . S
C2241 C2247 1.429 . S
C2242 C2234 1.574 1_556 S
C2242 H2237 0.949 . S
C2242 C2248 1.368 1_565 S
C2243 C2227 1.349 . S
C2243 H2235 0.950 . S
C2243 C2241 1.327 . S
C2244 C2232 1.349 . S
C2244 H2238 0.950 . S
C2244 C2245 1.327 . S
C2245 H2239 0.950 . S
C2245 C2244 1.327 . S
C2245 C2249 1.429 . S
C2246 C2229 1.574 1_554 S
C2246 H2240 0.949 . S
C2246 C2250 1.368 1_545 S
C2247 C2228 1.429 1_545 S
C2247 C2241 1.429 . S
C2247 C2248 1.523 . S
C2248 C2229 1.368 . S
C2248 C2242 1.368 1_545 S
C2248 C2247 1.523 . S
C2249 C2233 1.429 1_565 S
C2249 C2245 1.429 . S
C2249 C2250 1.523 . S
C2250 C2234 1.368 . S
C2250 C2246 1.368 1_565 S
C2250 C2249 1.523 . S
H2251 C2226 0.950 . S
H2252 C2228 0.950 . S
H2253 C2229 0.949 . S
H2254 C2231 0.950 . S
H2255 C2233 0.950 . S
C2256 C2257 1.349 . S
C2256 C2258 1.327 . S
C2256 H2281 0.950 . S
C2257 C2256 1.349 . S
C2257 C2273 1.349 . S
C2258 C2256 1.327 . S
C2258 C2277 1.429 . S
C2258 H2282 0.950 . S
C2259 C2276 1.574 . S
C2259 C2278 1.368 . S
C2259 H2283 0.949 . S
H2260 C2264 0.949 . S
C2261 C2262 1.349 . S
C2261 C2263 1.327 . S
C2261 H2284 0.950 . S
C2262 C2261 1.349 . S
C2262 C2274 1.349 . S
C2263 C2261 1.327 . S
C2263 C2279 1.429 . S
C2263 H2285 0.950 . S
C2264 H2260 0.949 . S
C2264 C2272 1.574 . S
C2264 C2280 1.368 . S
H2265 C2273 0.950 . S
H2266 C2271 0.950 . S
H2267 C2272 0.949 . S
H2268 C2274 0.950 . S
H2269 C2275 0.950 . S
H2270 C2276 0.949 . S
C2271 H2266 0.950 . S
C2271 C2273 1.327 . S
C2271 C2277 1.429 . S
C2272 C2264 1.574 . S
C2272 H2267 0.949 . S
C2272 C2278 1.368 . S
C2273 C2257 1.349 . S
C2273 H2265 0.950 . S
C2273 C2271 1.327 . S
C2274 C2262 1.349 . S
C2274 H2268 0.950 . S
C2274 C2275 1.327 . S
C2275 H2269 0.950 . S
C2275 C2274 1.327 . S
C2275 C2279 1.429 . S
C2276 C2259 1.574 . S
C2276 H2270 0.949 . S
C2276 C2280 1.368 . S
C2277 C2258 1.429 . S
C2277 C2271 1.429 . S
C2277 C2278 1.523 . S
C2278 C2259 1.368 . S
C2278 C2272 1.368 . S
C2278 C2277 1.523 . S
C2279 C2263 1.429 . S
C2279 C2275 1.429 . S
C2279 C2280 1.523 . S
C2280 C2264 1.368 . S
C2280 C2276 1.368 . S
C2280 C2279 1.523 . S
H2281 C2256 0.950 . S
H2282 C2258 0.950 . S
H2283 C2259 0.949 . S
H2284 C2261 0.950 . S
H2285 C2263 0.950 . S
C2286 C2287 1.349 . S
C2286 C2288 1.327 . S
C2286 H2311 0.950 . S
C2287 C2286 1.349 . S
C2287 C2303 1.349 . S
C2288 C2286 1.327 . S
C2288 C2307 1.429 . S
C2288 H2312 0.950 . S
C2289 C2306 1.574 1_556 S
C2289 C2308 1.368 . S
C2289 H2313 0.949 . S
H2290 C2294 0.949 . S
C2291 C2292 1.349 . S
C2291 C2293 1.327 . S
C2291 H2314 0.950 . S
C2292 C2291 1.349 . S
C2292 C2304 1.349 . S
C2293 C2291 1.327 . S
C2293 C2309 1.429 . S
C2293 H2315 0.950 . S
C2294 H2290 0.949 . S
C2294 C2302 1.574 1_554 S
C2294 C2310 1.368 . S
H2295 C2303 0.950 . S
H2296 C2301 0.950 . S
H2297 C2302 0.949 . S
H2298 C2304 0.950 . S
H2299 C2305 0.950 . S
H2300 C2306 0.949 . S
C2301 H2296 0.950 . S
C2301 C2303 1.327 . S
C2301 C2307 1.429 . S
C2302 C2294 1.574 1_556 S
C2302 H2297 0.949 . S
C2302 C2308 1.368 . S
C2303 C2287 1.349 . S
C2303 H2295 0.950 . S
C2303 C2301 1.327 . S
C2304 C2292 1.349 . S
C2304 H2298 0.950 . S
C2304 C2305 1.327 . S
C2305 H2299 0.950 . S
C2305 C2304 1.327 . S
C2305 C2309 1.429 . S
C2306 C2289 1.574 1_554 S
C2306 H2300 0.949 . S
C2306 C2310 1.368 . S
C2307 C2288 1.429 . S
C2307 C2301 1.429 . S
C2307 C2308 1.523 . S
C2308 C2289 1.368 . S
C2308 C2302 1.368 . S
C2308 C2307 1.523 . S
C2309 C2293 1.429 . S
C2309 C2305 1.429 . S
C2309 C2310 1.523 . S
C2310 C2294 1.368 . S
C2310 C2306 1.368 . S
C2310 C2309 1.523 . S
H2311 C2286 0.950 . S
H2312 C2288 0.950 . S
H2313 C2289 0.949 . S
H2314 C2291 0.950 . S
H2315 C2293 0.950 . S
C2316 C2317 1.349 . S
C2316 C2318 1.327 . S
C2316 H2341 0.950 . S
C2317 C2316 1.349 . S
C2317 C2333 1.349 . S
C2318 C2316 1.327 . S
C2318 C2337 1.429 . S
C2318 H2342 0.950 . S
C2319 C2336 1.574 . S
C2319 C2338 1.368 . S
C2319 H2343 0.949 . S
H2320 C2324 0.949 . S
C2321 C2322 1.349 . S
C2321 C2323 1.327 . S
C2321 H2344 0.950 . S
C2322 C2321 1.349 . S
C2322 C2334 1.349 . S
C2323 C2321 1.327 . S
C2323 C2339 1.429 . S
C2323 H2345 0.950 . S
C2324 H2320 0.949 . S
C2324 C2332 1.574 . S
C2324 C2340 1.368 . S
H2325 C2333 0.950 . S
H2326 C2331 0.950 . S
H2327 C2332 0.949 . S
H2328 C2334 0.950 . S
H2329 C2335 0.950 . S
H2330 C2336 0.949 . S
C2331 H2326 0.950 . S
C2331 C2333 1.327 . S
C2331 C2337 1.429 . S
C2332 C2324 1.574 . S
C2332 H2327 0.949 . S
C2332 C2338 1.368 . S
C2333 C2317 1.349 . S
C2333 H2325 0.950 . S
C2333 C2331 1.327 . S
C2334 C2322 1.349 . S
C2334 H2328 0.950 . S
C2334 C2335 1.327 . S
C2335 H2329 0.950 . S
C2335 C2334 1.327 . S
C2335 C2339 1.429 . S
C2336 C2319 1.574 . S
C2336 H2330 0.949 . S
C2336 C2340 1.368 . S
C2337 C2318 1.429 . S
C2337 C2331 1.429 . S
C2337 C2338 1.523 . S
C2338 C2319 1.368 . S
C2338 C2332 1.368 . S
C2338 C2337 1.523 . S
C2339 C2323 1.429 . S
C2339 C2335 1.429 . S
C2339 C2340 1.523 . S
C2340 C2324 1.368 . S
C2340 C2336 1.368 . S
C2340 C2339 1.523 . S
H2341 C2316 0.950 . S
H2342 C2318 0.950 . S
H2343 C2319 0.949 . S
H2344 C2321 0.950 . S
H2345 C2323 0.950 . S
C2346 C2347 1.349 . S
C2346 C2348 1.327 . S
C2346 H2371 0.950 . S
C2347 C2346 1.349 . S
C2347 C2363 1.349 . S
C2348 C2346 1.327 . S
C2348 C2367 1.429 . S
C2348 H2372 0.950 . S
C2349 C2366 1.574 . S
C2349 C2368 1.368 . S
C2349 H2373 0.949 . S
H2350 C2354 0.949 . S
C2351 C2352 1.349 . S
C2351 C2353 1.327 . S
C2351 H2374 0.950 . S
C2352 C2351 1.349 . S
C2352 C2364 1.349 . S
C2353 C2351 1.327 . S
C2353 C2369 1.429 . S
C2353 H2375 0.950 . S
C2354 H2350 0.949 . S
C2354 C2362 1.574 . S
C2354 C2370 1.368 . S
H2355 C2363 0.950 . S
H2356 C2361 0.950 . S
H2357 C2362 0.949 . S
H2358 C2364 0.950 . S
H2359 C2365 0.950 . S
H2360 C2366 0.949 . S
C2361 H2356 0.950 . S
C2361 C2363 1.327 . S
C2361 C2367 1.429 . S
C2362 C2354 1.574 . S
C2362 H2357 0.949 . S
C2362 C2368 1.368 . S
C2363 C2347 1.349 . S
C2363 H2355 0.950 . S
C2363 C2361 1.327 . S
C2364 C2352 1.349 . S
C2364 H2358 0.950 . S
C2364 C2365 1.327 . S
C2365 H2359 0.950 . S
C2365 C2364 1.327 . S
C2365 C2369 1.429 . S
C2366 C2349 1.574 . S
C2366 H2360 0.949 . S
C2366 C2370 1.368 . S
C2367 C2348 1.429 . S
C2367 C2361 1.429 . S
C2367 C2368 1.523 . S
C2368 C2349 1.368 . S
C2368 C2362 1.368 . S
C2368 C2367 1.523 . S
C2369 C2353 1.429 . S
C2369 C2365 1.429 . S
C2369 C2370 1.523 . S
C2370 C2354 1.368 . S
C2370 C2366 1.368 . S
C2370 C2369 1.523 . S
H2371 C2346 0.950 . S
H2372 C2348 0.950 . S
H2373 C2349 0.949 . S
H2374 C2351 0.950 . S
H2375 C2353 0.950 . S
C2376 C2377 1.349 . S
C2376 C2378 1.327 . S
C2376 H2401 0.950 . S
C2377 C2376 1.349 . S
C2377 C2393 1.349 . S
C2378 C2376 1.327 . S
C2378 C2397 1.429 . S
C2378 H2402 0.950 . S
C2379 C2396 1.574 . S
C2379 C2398 1.368 . S
C2379 H2403 0.949 . S
H2380 C2384 0.949 . S
C2381 C2382 1.349 . S
C2381 C2383 1.327 . S
C2381 H2404 0.950 . S
C2382 C2381 1.349 . S
C2382 C2394 1.349 . S
C2383 C2381 1.327 . S
C2383 C2399 1.429 . S
C2383 H2405 0.950 . S
C2384 H2380 0.949 . S
C2384 C2392 1.574 . S
C2384 C2400 1.368 . S
H2385 C2393 0.950 . S
H2386 C2391 0.950 . S
H2387 C2392 0.949 . S
H2388 C2394 0.950 . S
H2389 C2395 0.950 . S
H2390 C2396 0.949 . S
C2391 H2386 0.950 . S
C2391 C2393 1.327 . S
C2391 C2397 1.429 . S
C2392 C2384 1.574 . S
C2392 H2387 0.949 . S
C2392 C2398 1.368 . S
C2393 C2377 1.349 . S
C2393 H2385 0.950 . S
C2393 C2391 1.327 . S
C2394 C2382 1.349 . S
C2394 H2388 0.950 . S
C2394 C2395 1.327 . S
C2395 H2389 0.950 . S
C2395 C2394 1.327 . S
C2395 C2399 1.429 . S
C2396 C2379 1.574 . S
C2396 H2390 0.949 . S
C2396 C2400 1.368 . S
C2397 C2378 1.429 . S
C2397 C2391 1.429 . S
C2397 C2398 1.523 . S
C2398 C2379 1.368 . S
C2398 C2392 1.368 . S
C2398 C2397 1.523 . S
C2399 C2383 1.429 . S
C2399 C2395 1.429 . S
C2399 C2400 1.523 . S
C2400 C2384 1.368 . S
C2400 C2396 1.368 . S
C2400 C2399 1.523 . S
H2401 C2376 0.950 . S
H2402 C2378 0.950 . S
H2403 C2379 0.949 . S
H2404 C2381 0.950 . S
H2405 C2383 0.950 . S
C2406 C2407 1.349 . S
C2406 C2408 1.327 . S
C2406 H2431 0.950 . S
C2407 C2406 1.349 . S
C2407 C2423 1.349 . S
C2408 C2406 1.327 . S
C2408 C2427 1.429 . S
C2408 H2432 0.950 . S
C2409 C2426 1.574 1_556 S
C2409 C2428 1.368 . S
C2409 H2433 0.949 . S
H2410 C2414 0.949 . S
C2411 C2412 1.349 . S
C2411 C2413 1.327 . S
C2411 H2434 0.950 . S
C2412 C2411 1.349 . S
C2412 C2424 1.349 . S
C2413 C2411 1.327 . S
C2413 C2429 1.429 . S
C2413 H2435 0.950 . S
C2414 H2410 0.949 . S
C2414 C2422 1.574 1_554 S
C2414 C2430 1.368 . S
H2415 C2423 0.950 . S
H2416 C2421 0.950 . S
H2417 C2422 0.949 . S
H2418 C2424 0.950 . S
H2419 C2425 0.950 . S
H2420 C2426 0.949 . S
C2421 H2416 0.950 . S
C2421 C2423 1.327 . S
C2421 C2427 1.429 . S
C2422 C2414 1.574 1_556 S
C2422 H2417 0.949 . S
C2422 C2428 1.368 . S
C2423 C2407 1.349 . S
C2423 H2415 0.950 . S
C2423 C2421 1.327 . S
C2424 C2412 1.349 . S
C2424 H2418 0.950 . S
C2424 C2425 1.327 . S
C2425 H2419 0.950 . S
C2425 C2424 1.327 . S
C2425 C2429 1.429 . S
C2426 C2409 1.574 1_554 S
C2426 H2420 0.949 . S
C2426 C2430 1.368 . S
C2427 C2408 1.429 . S
C2427 C2421 1.429 . S
C2427 C2428 1.523 . S
C2428 C2409 1.368 . S
C2428 C2422 1.368 . S
C2428 C2427 1.523 . S
C2429 C2413 1.429 . S
C2429 C2425 1.429 . S
C2429 C2430 1.523 . S
C2430 C2414 1.368 . S
C2430 C2426 1.368 . S
C2430 C2429 1.523 . S
H2431 C2406 0.950 . S
H2432 C2408 0.950 . S
H2433 C2409 0.949 . S
H2434 C2411 0.950 . S
H2435 C2413 0.950 . S
C2436 C2437 1.349 . S
C2436 C2438 1.327 . S
C2436 H2461 0.950 . S
C2437 C2436 1.349 . S
C2437 C2453 1.349 . S
C2438 C2436 1.327 . S
C2438 C2457 1.429 . S
C2438 H2462 0.950 . S
C2439 C2456 1.574 . S
C2439 C2458 1.368 . S
C2439 H2463 0.949 . S
H2440 C2444 0.949 . S
C2441 C2442 1.349 . S
C2441 C2443 1.327 . S
C2441 H2464 0.950 . S
C2442 C2441 1.349 . S
C2442 C2454 1.349 . S
C2443 C2441 1.327 . S
C2443 C2459 1.429 . S
C2443 H2465 0.950 . S
C2444 H2440 0.949 . S
C2444 C2452 1.574 . S
C2444 C2460 1.368 . S
H2445 C2453 0.950 . S
H2446 C2451 0.950 . S
H2447 C2452 0.949 . S
H2448 C2454 0.950 . S
H2449 C2455 0.950 . S
H2450 C2456 0.949 . S
C2451 H2446 0.950 . S
C2451 C2453 1.327 . S
C2451 C2457 1.429 . S
C2452 C2444 1.574 . S
C2452 H2447 0.949 . S
C2452 C2458 1.368 . S
C2453 C2437 1.349 . S
C2453 H2445 0.950 . S
C2453 C2451 1.327 . S
C2454 C2442 1.349 . S
C2454 H2448 0.950 . S
C2454 C2455 1.327 . S
C2455 H2449 0.950 . S
C2455 C2454 1.327 . S
C2455 C2459 1.429 . S
C2456 C2439 1.574 . S
C2456 H2450 0.949 . S
C2456 C2460 1.368 . S
C2457 C2438 1.429 . S
C2457 C2451 1.429 . S
C2457 C2458 1.523 . S
C2458 C2439 1.368 . S
C2458 C2452 1.368 . S
C2458 C2457 1.523 . S
C2459 C2443 1.429 . S
C2459 C2455 1.429 . S
C2459 C2460 1.523 . S
C2460 C2444 1.368 . S
C2460 C2456 1.368 . S
C2460 C2459 1.523 . S
H2461 C2436 0.950 . S
H2462 C2438 0.950 . S
H2463 C2439 0.949 . S
H2464 C2441 0.950 . S
H2465 C2443 0.950 . S
C2466 C2467 1.349 . S
C2466 C2468 1.327 . S
C2466 H2491 0.950 . S
C2467 C2466 1.349 . S
C2467 C2483 1.349 . S
C2468 C2466 1.327 . S
C2468 C2487 1.429 . S
C2468 H2492 0.950 . S
C2469 C2486 1.574 . S
C2469 C2488 1.368 . S
C2469 H2493 0.949 . S
H2470 C2474 0.949 . S
C2471 C2472 1.349 . S
C2471 C2473 1.327 . S
C2471 H2494 0.950 . S
C2472 C2471 1.349 . S
C2472 C2484 1.349 . S
C2473 C2471 1.327 . S
C2473 C2489 1.429 . S
C2473 H2495 0.950 . S
C2474 H2470 0.949 . S
C2474 C2482 1.574 . S
C2474 C2490 1.368 . S
H2475 C2483 0.950 . S
H2476 C2481 0.950 . S
H2477 C2482 0.949 . S
H2478 C2484 0.950 . S
H2479 C2485 0.950 . S
H2480 C2486 0.949 . S
C2481 H2476 0.950 . S
C2481 C2483 1.327 . S
C2481 C2487 1.429 . S
C2482 C2474 1.574 . S
C2482 H2477 0.949 . S
C2482 C2488 1.368 . S
C2483 C2467 1.349 . S
C2483 H2475 0.950 . S
C2483 C2481 1.327 . S
C2484 C2472 1.349 . S
C2484 H2478 0.950 . S
C2484 C2485 1.327 . S
C2485 H2479 0.950 . S
C2485 C2484 1.327 . S
C2485 C2489 1.429 . S
C2486 C2469 1.574 . S
C2486 H2480 0.949 . S
C2486 C2490 1.368 . S
C2487 C2468 1.429 . S
C2487 C2481 1.429 . S
C2487 C2488 1.523 . S
C2488 C2469 1.368 . S
C2488 C2482 1.368 . S
C2488 C2487 1.523 . S
C2489 C2473 1.429 . S
C2489 C2485 1.429 . S
C2489 C2490 1.523 . S
C2490 C2474 1.368 . S
C2490 C2486 1.368 . S
C2490 C2489 1.523 . S
H2491 C2466 0.950 . S
H2492 C2468 0.950 . S
H2493 C2469 0.949 . S
H2494 C2471 0.950 . S
H2495 C2473 0.950 . S
C2496 C2497 1.349 . S
C2496 C2498 1.327 . S
C2496 H2521 0.950 . S
C2497 C2496 1.349 . S
C2497 C2513 1.349 . S
C2498 C2496 1.327 . S
C2498 C2517 1.429 . S
C2498 H2522 0.950 . S
C2499 C2516 1.574 . S
C2499 C2518 1.368 . S
C2499 H2523 0.949 . S
H2500 C2504 0.949 . S
C2501 C2502 1.349 . S
C2501 C2503 1.327 . S
C2501 H2524 0.950 . S
C2502 C2501 1.349 . S
C2502 C2514 1.349 . S
C2503 C2501 1.327 . S
C2503 C2519 1.429 . S
C2503 H2525 0.950 . S
C2504 H2500 0.949 . S
C2504 C2512 1.574 . S
C2504 C2520 1.368 . S
H2505 C2513 0.950 . S
H2506 C2511 0.950 . S
H2507 C2512 0.949 . S
H2508 C2514 0.950 . S
H2509 C2515 0.950 . S
H2510 C2516 0.949 . S
C2511 H2506 0.950 . S
C2511 C2513 1.327 . S
C2511 C2517 1.429 . S
C2512 C2504 1.574 . S
C2512 H2507 0.949 . S
C2512 C2518 1.368 . S
C2513 C2497 1.349 . S
C2513 H2505 0.950 . S
C2513 C2511 1.327 . S
C2514 C2502 1.349 . S
C2514 H2508 0.950 . S
C2514 C2515 1.327 . S
C2515 H2509 0.950 . S
C2515 C2514 1.327 . S
C2515 C2519 1.429 . S
C2516 C2499 1.574 . S
C2516 H2510 0.949 . S
C2516 C2520 1.368 . S
C2517 C2498 1.429 . S
C2517 C2511 1.429 . S
C2517 C2518 1.523 . S
C2518 C2499 1.368 . S
C2518 C2512 1.368 . S
C2518 C2517 1.523 . S
C2519 C2503 1.429 . S
C2519 C2515 1.429 . S
C2519 C2520 1.523 . S
C2520 C2504 1.368 . S
C2520 C2516 1.368 . S
C2520 C2519 1.523 . S
H2521 C2496 0.950 . S
H2522 C2498 0.950 . S
H2523 C2499 0.949 . S
H2524 C2501 0.950 . S
H2525 C2503 0.950 . S
C2526 C2527 1.349 . S
C2526 C2528 1.327 . S
C2526 H2551 0.950 . S
C2527 C2526 1.349 . S
C2527 C2543 1.349 . S
C2528 C2526 1.327 . S
C2528 C2547 1.429 . S
C2528 H2552 0.950 . S
C2529 C2546 1.574 . S
C2529 C2548 1.368 . S
C2529 H2553 0.949 . S
H2530 C2534 0.949 . S
C2531 C2532 1.349 . S
C2531 C2533 1.327 . S
C2531 H2554 0.950 . S
C2532 C2531 1.349 . S
C2532 C2544 1.349 . S
C2533 C2531 1.327 . S
C2533 C2549 1.429 . S
C2533 H2555 0.950 . S
C2534 H2530 0.949 . S
C2534 C2542 1.574 . S
C2534 C2550 1.368 . S
H2535 C2543 0.950 . S
H2536 C2541 0.950 . S
H2537 C2542 0.949 . S
H2538 C2544 0.950 . S
H2539 C2545 0.950 . S
H2540 C2546 0.949 . S
C2541 H2536 0.950 . S
C2541 C2543 1.327 . S
C2541 C2547 1.429 . S
C2542 C2534 1.574 . S
C2542 H2537 0.949 . S
C2542 C2548 1.368 . S
C2543 C2527 1.349 . S
C2543 H2535 0.950 . S
C2543 C2541 1.327 . S
C2544 C2532 1.349 . S
C2544 H2538 0.950 . S
C2544 C2545 1.327 . S
C2545 H2539 0.950 . S
C2545 C2544 1.327 . S
C2545 C2549 1.429 . S
C2546 C2529 1.574 . S
C2546 H2540 0.949 . S
C2546 C2550 1.368 . S
C2547 C2528 1.429 . S
C2547 C2541 1.429 . S
C2547 C2548 1.523 . S
C2548 C2529 1.368 . S
C2548 C2542 1.368 . S
C2548 C2547 1.523 . S
C2549 C2533 1.429 . S
C2549 C2545 1.429 . S
C2549 C2550 1.523 . S
C2550 C2534 1.368 . S
C2550 C2546 1.368 . S
C2550 C2549 1.523 . S
H2551 C2526 0.950 . S
H2552 C2528 0.950 . S
H2553 C2529 0.949 . S
H2554 C2531 0.950 . S
H2555 C2533 0.950 . S
C2556 C2557 1.349 . S
C2556 C2558 1.327 . S
C2556 H2581 0.950 . S
C2557 C2556 1.349 . S
C2557 C2573 1.349 . S
C2558 C2556 1.327 . S
C2558 C2577 1.429 . S
C2558 H2582 0.950 . S
C2559 C2576 1.574 . S
C2559 C2578 1.368 . S
C2559 H2583 0.949 . S
H2560 C2564 0.949 . S
C2561 C2562 1.349 . S
C2561 C2563 1.327 . S
C2561 H2584 0.950 . S
C2562 C2561 1.349 . S
C2562 C2574 1.349 . S
C2563 C2561 1.327 . S
C2563 C2579 1.429 . S
C2563 H2585 0.950 . S
C2564 H2560 0.949 . S
C2564 C2572 1.574 . S
C2564 C2580 1.368 . S
H2565 C2573 0.950 . S
H2566 C2571 0.950 . S
H2567 C2572 0.949 . S
H2568 C2574 0.950 . S
H2569 C2575 0.950 . S
H2570 C2576 0.949 . S
C2571 H2566 0.950 . S
C2571 C2573 1.327 . S
C2571 C2577 1.429 . S
C2572 C2564 1.574 . S
C2572 H2567 0.949 . S
C2572 C2578 1.368 . S
C2573 C2557 1.349 . S
C2573 H2565 0.950 . S
C2573 C2571 1.327 . S
C2574 C2562 1.349 . S
C2574 H2568 0.950 . S
C2574 C2575 1.327 . S
C2575 H2569 0.950 . S
C2575 C2574 1.327 . S
C2575 C2579 1.429 . S
C2576 C2559 1.574 . S
C2576 H2570 0.949 . S
C2576 C2580 1.368 . S
C2577 C2558 1.429 . S
C2577 C2571 1.429 . S
C2577 C2578 1.523 . S
C2578 C2559 1.368 . S
C2578 C2572 1.368 . S
C2578 C2577 1.523 . S
C2579 C2563 1.429 . S
C2579 C2575 1.429 . S
C2579 C2580 1.523 . S
C2580 C2564 1.368 . S
C2580 C2576 1.368 . S
C2580 C2579 1.523 . S
H2581 C2556 0.950 . S
H2582 C2558 0.950 . S
H2583 C2559 0.949 . S
H2584 C2561 0.950 . S
H2585 C2563 0.950 . S
C2586 C2587 1.349 . S
C2586 C2588 1.327 . S
C2586 H2611 0.950 . S
C2587 C2586 1.349 . S
C2587 C2603 1.349 . S
C2588 C2586 1.327 . S
C2588 C2607 1.429 . S
C2588 H2612 0.950 . S
C2589 C2606 1.574 . S
C2589 C2608 1.368 . S
C2589 H2613 0.949 . S
H2590 C2594 0.949 . S
C2591 C2592 1.349 . S
C2591 C2593 1.327 . S
C2591 H2614 0.950 . S
C2592 C2591 1.349 . S
C2592 C2604 1.349 . S
C2593 C2591 1.327 . S
C2593 C2609 1.429 . S
C2593 H2615 0.950 . S
C2594 H2590 0.949 . S
C2594 C2602 1.574 . S
C2594 C2610 1.368 . S
H2595 C2603 0.950 . S
H2596 C2601 0.950 . S
H2597 C2602 0.949 . S
H2598 C2604 0.950 . S
H2599 C2605 0.950 . S
H2600 C2606 0.949 . S
C2601 H2596 0.950 . S
C2601 C2603 1.327 . S
C2601 C2607 1.429 . S
C2602 C2594 1.574 . S
C2602 H2597 0.949 . S
C2602 C2608 1.368 . S
C2603 C2587 1.349 . S
C2603 H2595 0.950 . S
C2603 C2601 1.327 . S
C2604 C2592 1.349 . S
C2604 H2598 0.950 . S
C2604 C2605 1.327 . S
C2605 H2599 0.950 . S
C2605 C2604 1.327 . S
C2605 C2609 1.429 . S
C2606 C2589 1.574 . S
C2606 H2600 0.949 . S
C2606 C2610 1.368 . S
C2607 C2588 1.429 . S
C2607 C2601 1.429 . S
C2607 C2608 1.523 . S
C2608 C2589 1.368 . S
C2608 C2602 1.368 . S
C2608 C2607 1.523 . S
C2609 C2593 1.429 . S
C2609 C2605 1.429 . S
C2609 C2610 1.523 . S
C2610 C2594 1.368 . S
C2610 C2606 1.368 . S
C2610 C2609 1.523 . S
H2611 C2586 0.950 . S
H2612 C2588 0.950 . S
H2613 C2589 0.949 . S
H2614 C2591 0.950 . S
H2615 C2593 0.950 . S
C2616 C2617 1.349 . S
C2616 C2618 1.327 . S
C2616 H2641 0.950 . S
C2617 C2616 1.349 . S
C2617 C2633 1.349 . S
C2618 C2616 1.327 . S
C2618 C2637 1.429 . S
C2618 H2642 0.950 . S
C2619 C2636 1.574 . S
C2619 C2638 1.368 . S
C2619 H2643 0.949 . S
H2620 C2624 0.949 . S
C2621 C2622 1.349 . S
C2621 C2623 1.327 . S
C2621 H2644 0.950 . S
C2622 C2621 1.349 . S
C2622 C2634 1.349 . S
C2623 C2621 1.327 . S
C2623 C2639 1.429 . S
C2623 H2645 0.950 . S
C2624 H2620 0.949 . S
C2624 C2632 1.574 . S
C2624 C2640 1.368 . S
H2625 C2633 0.950 . S
H2626 C2631 0.950 . S
H2627 C2632 0.949 . S
H2628 C2634 0.950 . S
H2629 C2635 0.950 . S
H2630 C2636 0.949 . S
C2631 H2626 0.950 . S
C2631 C2633 1.327 . S
C2631 C2637 1.429 . S
C2632 C2624 1.574 . S
C2632 H2627 0.949 . S
C2632 C2638 1.368 . S
C2633 C2617 1.349 . S
C2633 H2625 0.950 . S
C2633 C2631 1.327 . S
C2634 C2622 1.349 . S
C2634 H2628 0.950 . S
C2634 C2635 1.327 . S
C2635 H2629 0.950 . S
C2635 C2634 1.327 . S
C2635 C2639 1.429 . S
C2636 C2619 1.574 . S
C2636 H2630 0.949 . S
C2636 C2640 1.368 . S
C2637 C2618 1.429 . S
C2637 C2631 1.429 . S
C2637 C2638 1.523 . S
C2638 C2619 1.368 . S
C2638 C2632 1.368 . S
C2638 C2637 1.523 . S
C2639 C2623 1.429 . S
C2639 C2635 1.429 . S
C2639 C2640 1.523 . S
C2640 C2624 1.368 . S
C2640 C2636 1.368 . S
C2640 C2639 1.523 . S
H2641 C2616 0.950 . S
H2642 C2618 0.950 . S
H2643 C2619 0.949 . S
H2644 C2621 0.950 . S
H2645 C2623 0.950 . S
C2646 C2647 1.349 . S
C2646 C2648 1.327 . S
C2646 H2671 0.950 . S
C2647 C2646 1.349 . S
C2647 C2663 1.349 . S
C2648 C2646 1.327 . S
C2648 C2667 1.429 . S
C2648 H2672 0.950 . S
C2649 C2666 1.574 . S
C2649 C2668 1.368 . S
C2649 H2673 0.949 . S
H2650 C2654 0.949 . S
C2651 C2652 1.349 . S
C2651 C2653 1.327 . S
C2651 H2674 0.950 . S
C2652 C2651 1.349 . S
C2652 C2664 1.349 . S
C2653 C2651 1.327 . S
C2653 C2669 1.429 . S
C2653 H2675 0.950 . S
C2654 H2650 0.949 . S
C2654 C2662 1.574 . S
C2654 C2670 1.368 . S
H2655 C2663 0.950 . S
H2656 C2661 0.950 . S
H2657 C2662 0.949 . S
H2658 C2664 0.950 . S
H2659 C2665 0.950 . S
H2660 C2666 0.949 . S
C2661 H2656 0.950 . S
C2661 C2663 1.327 . S
C2661 C2667 1.429 . S
C2662 C2654 1.574 . S
C2662 H2657 0.949 . S
C2662 C2668 1.368 . S
C2663 C2647 1.349 . S
C2663 H2655 0.950 . S
C2663 C2661 1.327 . S
C2664 C2652 1.349 . S
C2664 H2658 0.950 . S
C2664 C2665 1.327 . S
C2665 H2659 0.950 . S
C2665 C2664 1.327 . S
C2665 C2669 1.429 . S
C2666 C2649 1.574 . S
C2666 H2660 0.949 . S
C2666 C2670 1.368 . S
C2667 C2648 1.429 . S
C2667 C2661 1.429 . S
C2667 C2668 1.523 . S
C2668 C2649 1.368 . S
C2668 C2662 1.368 . S
C2668 C2667 1.523 . S
C2669 C2653 1.429 . S
C2669 C2665 1.429 . S
C2669 C2670 1.523 . S
C2670 C2654 1.368 . S
C2670 C2666 1.368 . S
C2670 C2669 1.523 . S
H2671 C2646 0.950 . S
H2672 C2648 0.950 . S
H2673 C2649 0.949 . S
H2674 C2651 0.950 . S
H2675 C2653 0.950 . S
C2676 C2677 1.349 . S
C2676 C2678 1.327 . S
C2676 H2701 0.950 . S
C2677 C2676 1.349 . S
C2677 C2693 1.349 . S
C2678 C2676 1.327 . S
C2678 C2697 1.429 . S
C2678 H2702 0.950 . S
C2679 C2696 1.574 . S
C2679 C2698 1.368 . S
C2679 H2703 0.949 . S
H2680 C2684 0.949 . S
C2681 C2682 1.349 . S
C2681 C2683 1.327 . S
C2681 H2704 0.950 . S
C2682 C2681 1.349 . S
C2682 C2694 1.349 . S
C2683 C2681 1.327 . S
C2683 C2699 1.429 . S
C2683 H2705 0.950 . S
C2684 H2680 0.949 . S
C2684 C2692 1.574 . S
C2684 C2700 1.368 . S
H2685 C2693 0.950 . S
H2686 C2691 0.950 . S
H2687 C2692 0.949 . S
H2688 C2694 0.950 . S
H2689 C2695 0.950 . S
H2690 C2696 0.949 . S
C2691 H2686 0.950 . S
C2691 C2693 1.327 . S
C2691 C2697 1.429 . S
C2692 C2684 1.574 . S
C2692 H2687 0.949 . S
C2692 C2698 1.368 . S
C2693 C2677 1.349 . S
C2693 H2685 0.950 . S
C2693 C2691 1.327 . S
C2694 C2682 1.349 . S
C2694 H2688 0.950 . S
C2694 C2695 1.327 . S
C2695 H2689 0.950 . S
C2695 C2694 1.327 . S
C2695 C2699 1.429 . S
C2696 C2679 1.574 . S
C2696 H2690 0.949 . S
C2696 C2700 1.368 . S
C2697 C2678 1.429 . S
C2697 C2691 1.429 . S
C2697 C2698 1.523 . S
C2698 C2679 1.368 . S
C2698 C2692 1.368 . S
C2698 C2697 1.523 . S
C2699 C2683 1.429 . S
C2699 C2695 1.429 . S
C2699 C2700 1.523 . S
C2700 C2684 1.368 . S
C2700 C2696 1.368 . S
C2700 C2699 1.523 . S
H2701 C2676 0.950 . S
H2702 C2678 0.950 . S
H2703 C2679 0.949 . S
H2704 C2681 0.950 . S
H2705 C2683 0.950 . S
C2706 C2707 1.349 . S
C2706 C2708 1.327 . S
C2706 H2731 0.950 . S
C2707 C2706 1.349 . S
C2707 C2723 1.349 . S
C2708 C2706 1.327 . S
C2708 C2727 1.429 . S
C2708 H2732 0.950 . S
C2709 C2726 1.574 . S
C2709 C2728 1.368 . S
C2709 H2733 0.949 . S
H2710 C2714 0.949 . S
C2711 C2712 1.349 . S
C2711 C2713 1.327 . S
C2711 H2734 0.950 . S
C2712 C2711 1.349 . S
C2712 C2724 1.349 . S
C2713 C2711 1.327 . S
C2713 C2729 1.429 . S
C2713 H2735 0.950 . S
C2714 H2710 0.949 . S
C2714 C2722 1.574 . S
C2714 C2730 1.368 . S
H2715 C2723 0.950 . S
H2716 C2721 0.950 . S
H2717 C2722 0.949 . S
H2718 C2724 0.950 . S
H2719 C2725 0.950 . S
H2720 C2726 0.949 . S
C2721 H2716 0.950 . S
C2721 C2723 1.327 . S
C2721 C2727 1.429 . S
C2722 C2714 1.574 . S
C2722 H2717 0.949 . S
C2722 C2728 1.368 . S
C2723 C2707 1.349 . S
C2723 H2715 0.950 . S
C2723 C2721 1.327 . S
C2724 C2712 1.349 . S
C2724 H2718 0.950 . S
C2724 C2725 1.327 . S
C2725 H2719 0.950 . S
C2725 C2724 1.327 . S
C2725 C2729 1.429 . S
C2726 C2709 1.574 . S
C2726 H2720 0.949 . S
C2726 C2730 1.368 . S
C2727 C2708 1.429 . S
C2727 C2721 1.429 . S
C2727 C2728 1.523 . S
C2728 C2709 1.368 . S
C2728 C2722 1.368 . S
C2728 C2727 1.523 . S
C2729 C2713 1.429 . S
C2729 C2725 1.429 . S
C2729 C2730 1.523 . S
C2730 C2714 1.368 . S
C2730 C2726 1.368 . S
C2730 C2729 1.523 . S
H2731 C2706 0.950 . S
H2732 C2708 0.950 . S
H2733 C2709 0.949 . S
H2734 C2711 0.950 . S
H2735 C2713 0.950 . S
C2736 C2737 1.349 . S
C2736 C2738 1.327 . S
C2736 H2761 0.950 . S
C2737 C2736 1.349 . S
C2737 C2753 1.349 . S
C2738 C2736 1.327 . S
C2738 C2757 1.429 . S
C2738 H2762 0.950 . S
C2739 C2756 1.574 . S
C2739 C2758 1.368 . S
C2739 H2763 0.949 . S
H2740 C2744 0.949 . S
C2741 C2742 1.349 . S
C2741 C2743 1.327 . S
C2741 H2764 0.950 . S
C2742 C2741 1.349 . S
C2742 C2754 1.349 . S
C2743 C2741 1.327 . S
C2743 C2759 1.429 . S
C2743 H2765 0.950 . S
C2744 H2740 0.949 . S
C2744 C2752 1.574 . S
C2744 C2760 1.368 . S
H2745 C2753 0.950 . S
H2746 C2751 0.950 . S
H2747 C2752 0.949 . S
H2748 C2754 0.950 . S
H2749 C2755 0.950 . S
H2750 C2756 0.949 . S
C2751 H2746 0.950 . S
C2751 C2753 1.327 . S
C2751 C2757 1.429 . S
C2752 C2744 1.574 . S
C2752 H2747 0.949 . S
C2752 C2758 1.368 . S
C2753 C2737 1.349 . S
C2753 H2745 0.950 . S
C2753 C2751 1.327 . S
C2754 C2742 1.349 . S
C2754 H2748 0.950 . S
C2754 C2755 1.327 . S
C2755 H2749 0.950 . S
C2755 C2754 1.327 . S
C2755 C2759 1.429 . S
C2756 C2739 1.574 . S
C2756 H2750 0.949 . S
C2756 C2760 1.368 . S
C2757 C2738 1.429 . S
C2757 C2751 1.429 . S
C2757 C2758 1.523 . S
C2758 C2739 1.368 . S
C2758 C2752 1.368 . S
C2758 C2757 1.523 . S
C2759 C2743 1.429 . S
C2759 C2755 1.429 . S
C2759 C2760 1.523 . S
C2760 C2744 1.368 . S
C2760 C2756 1.368 . S
C2760 C2759 1.523 . S
H2761 C2736 0.950 . S
H2762 C2738 0.950 . S
H2763 C2739 0.949 . S
H2764 C2741 0.950 . S
H2765 C2743 0.950 . S
C2766 C2767 1.349 . S
C2766 C2768 1.327 . S
C2766 H2791 0.950 . S
C2767 C2766 1.349 . S
C2767 C2783 1.349 . S
C2768 C2766 1.327 . S
C2768 C2787 1.429 . S
C2768 H2792 0.950 . S
C2769 C2786 1.574 . S
C2769 C2788 1.368 . S
C2769 H2793 0.949 . S
H2770 C2774 0.949 . S
C2771 C2772 1.349 . S
C2771 C2773 1.327 . S
C2771 H2794 0.950 . S
C2772 C2771 1.349 . S
C2772 C2784 1.349 . S
C2773 C2771 1.327 . S
C2773 C2789 1.429 . S
C2773 H2795 0.950 . S
C2774 H2770 0.949 . S
C2774 C2782 1.574 . S
C2774 C2790 1.368 . S
H2775 C2783 0.950 . S
H2776 C2781 0.950 . S
H2777 C2782 0.949 . S
H2778 C2784 0.950 . S
H2779 C2785 0.950 . S
H2780 C2786 0.949 . S
C2781 H2776 0.950 . S
C2781 C2783 1.327 . S
C2781 C2787 1.429 . S
C2782 C2774 1.574 . S
C2782 H2777 0.949 . S
C2782 C2788 1.368 . S
C2783 C2767 1.349 . S
C2783 H2775 0.950 . S
C2783 C2781 1.327 . S
C2784 C2772 1.349 . S
C2784 H2778 0.950 . S
C2784 C2785 1.327 . S
C2785 H2779 0.950 . S
C2785 C2784 1.327 . S
C2785 C2789 1.429 . S
C2786 C2769 1.574 . S
C2786 H2780 0.949 . S
C2786 C2790 1.368 . S
C2787 C2768 1.429 . S
C2787 C2781 1.429 . S
C2787 C2788 1.523 . S
C2788 C2769 1.368 . S
C2788 C2782 1.368 . S
C2788 C2787 1.523 . S
C2789 C2773 1.429 . S
C2789 C2785 1.429 . S
C2789 C2790 1.523 . S
C2790 C2774 1.368 . S
C2790 C2786 1.368 . S
C2790 C2789 1.523 . S
H2791 C2766 0.950 . S
H2792 C2768 0.950 . S
H2793 C2769 0.949 . S
H2794 C2771 0.950 . S
H2795 C2773 0.950 . S
C2796 C2797 1.349 . S
C2796 C2798 1.327 . S
C2796 H2821 0.950 . S
C2797 C2796 1.349 . S
C2797 C2813 1.349 . S
C2798 C2796 1.327 . S
C2798 C2817 1.429 . S
C2798 H2822 0.950 . S
C2799 C2816 1.574 . S
C2799 C2818 1.368 . S
C2799 H2823 0.949 . S
H2800 C2804 0.949 . S
C2801 C2802 1.349 . S
C2801 C2803 1.327 . S
C2801 H2824 0.950 . S
C2802 C2801 1.349 . S
C2802 C2814 1.349 . S
C2803 C2801 1.327 . S
C2803 C2819 1.429 . S
C2803 H2825 0.950 . S
C2804 H2800 0.949 . S
C2804 C2812 1.574 . S
C2804 C2820 1.368 . S
H2805 C2813 0.950 . S
H2806 C2811 0.950 . S
H2807 C2812 0.949 . S
H2808 C2814 0.950 . S
H2809 C2815 0.950 . S
H2810 C2816 0.949 . S
C2811 H2806 0.950 . S
C2811 C2813 1.327 . S
C2811 C2817 1.429 . S
C2812 C2804 1.574 . S
C2812 H2807 0.949 . S
C2812 C2818 1.368 . S
C2813 C2797 1.349 . S
C2813 H2805 0.950 . S
C2813 C2811 1.327 . S
C2814 C2802 1.349 . S
C2814 H2808 0.950 . S
C2814 C2815 1.327 . S
C2815 H2809 0.950 . S
C2815 C2814 1.327 . S
C2815 C2819 1.429 . S
C2816 C2799 1.574 . S
C2816 H2810 0.949 . S
C2816 C2820 1.368 . S
C2817 C2798 1.429 . S
C2817 C2811 1.429 . S
C2817 C2818 1.523 . S
C2818 C2799 1.368 . S
C2818 C2812 1.368 . S
C2818 C2817 1.523 . S
C2819 C2803 1.429 . S
C2819 C2815 1.429 . S
C2819 C2820 1.523 . S
C2820 C2804 1.368 . S
C2820 C2816 1.368 . S
C2820 C2819 1.523 . S
H2821 C2796 0.950 . S
H2822 C2798 0.950 . S
H2823 C2799 0.949 . S
H2824 C2801 0.950 . S
H2825 C2803 0.950 . S
C2826 C2827 1.349 . S
C2826 C2828 1.327 . S
C2826 H2851 0.950 . S
C2827 C2826 1.349 . S
C2827 C2843 1.349 . S
C2828 C2826 1.327 . S
C2828 C2847 1.429 . S
C2828 H2852 0.950 . S
C2829 C2846 1.574 . S
C2829 C2848 1.368 . S
C2829 H2853 0.949 . S
H2830 C2834 0.949 . S
C2831 C2832 1.349 . S
C2831 C2833 1.327 . S
C2831 H2854 0.950 . S
C2832 C2831 1.349 . S
C2832 C2844 1.349 . S
C2833 C2831 1.327 . S
C2833 C2849 1.429 . S
C2833 H2855 0.950 . S
C2834 H2830 0.949 . S
C2834 C2842 1.574 . S
C2834 C2850 1.368 . S
H2835 C2843 0.950 . S
H2836 C2841 0.950 . S
H2837 C2842 0.949 . S
H2838 C2844 0.950 . S
H2839 C2845 0.950 . S
H2840 C2846 0.949 . S
C2841 H2836 0.950 . S
C2841 C2843 1.327 . S
C2841 C2847 1.429 . S
C2842 C2834 1.574 . S
C2842 H2837 0.949 . S
C2842 C2848 1.368 . S
C2843 C2827 1.349 . S
C2843 H2835 0.950 . S
C2843 C2841 1.327 . S
C2844 C2832 1.349 . S
C2844 H2838 0.950 . S
C2844 C2845 1.327 . S
C2845 H2839 0.950 . S
C2845 C2844 1.327 . S
C2845 C2849 1.429 . S
C2846 C2829 1.574 . S
C2846 H2840 0.949 . S
C2846 C2850 1.368 . S
C2847 C2828 1.429 . S
C2847 C2841 1.429 . S
C2847 C2848 1.523 . S
C2848 C2829 1.368 . S
C2848 C2842 1.368 . S
C2848 C2847 1.523 . S
C2849 C2833 1.429 . S
C2849 C2845 1.429 . S
C2849 C2850 1.523 . S
C2850 C2834 1.368 . S
C2850 C2846 1.368 . S
C2850 C2849 1.523 . S
H2851 C2826 0.950 . S
H2852 C2828 0.950 . S
H2853 C2829 0.949 . S
H2854 C2831 0.950 . S
H2855 C2833 0.950 . S
C2856 C2857 1.349 . S
C2856 C2858 1.327 . S
C2856 H2881 0.950 . S
C2857 C2856 1.349 . S
C2857 C2873 1.349 . S
C2858 C2856 1.327 . S
C2858 C2877 1.429 . S
C2858 H2882 0.950 . S
C2859 C2876 1.574 . S
C2859 C2878 1.368 . S
C2859 H2883 0.949 . S
H2860 C2864 0.949 . S
C2861 C2862 1.349 . S
C2861 C2863 1.327 . S
C2861 H2884 0.950 . S
C2862 C2861 1.349 . S
C2862 C2874 1.349 . S
C2863 C2861 1.327 . S
C2863 C2879 1.429 . S
C2863 H2885 0.950 . S
C2864 H2860 0.949 . S
C2864 C2872 1.574 . S
C2864 C2880 1.368 . S
H2865 C2873 0.950 . S
H2866 C2871 0.950 . S
H2867 C2872 0.949 . S
H2868 C2874 0.950 . S
H2869 C2875 0.950 . S
H2870 C2876 0.949 . S
C2871 H2866 0.950 . S
C2871 C2873 1.327 . S
C2871 C2877 1.429 . S
C2872 C2864 1.574 . S
C2872 H2867 0.949 . S
C2872 C2878 1.368 . S
C2873 C2857 1.349 . S
C2873 H2865 0.950 . S
C2873 C2871 1.327 . S
C2874 C2862 1.349 . S
C2874 H2868 0.950 . S
C2874 C2875 1.327 . S
C2875 H2869 0.950 . S
C2875 C2874 1.327 . S
C2875 C2879 1.429 . S
C2876 C2859 1.574 . S
C2876 H2870 0.949 . S
C2876 C2880 1.368 . S
C2877 C2858 1.429 . S
C2877 C2871 1.429 . S
C2877 C2878 1.523 . S
C2878 C2859 1.368 . S
C2878 C2872 1.368 . S
C2878 C2877 1.523 . S
C2879 C2863 1.429 . S
C2879 C2875 1.429 . S
C2879 C2880 1.523 . S
C2880 C2864 1.368 . S
C2880 C2876 1.368 . S
C2880 C2879 1.523 . S
H2881 C2856 0.950 . S
H2882 C2858 0.950 . S
H2883 C2859 0.949 . S
H2884 C2861 0.950 . S
H2885 C2863 0.950 . S
C2886 C2887 1.349 . S
C2886 C2888 1.327 . S
C2886 H2911 0.950 . S
C2887 C2886 1.349 . S
C2887 C2903 1.349 . S
C2888 C2886 1.327 . S
C2888 C2907 1.429 . S
C2888 H2912 0.950 . S
C2889 C2906 1.574 . S
C2889 C2908 1.368 . S
C2889 H2913 0.949 . S
H2890 C2894 0.949 . S
C2891 C2892 1.349 . S
C2891 C2893 1.327 . S
C2891 H2914 0.950 . S
C2892 C2891 1.349 . S
C2892 C2904 1.349 . S
C2893 C2891 1.327 . S
C2893 C2909 1.429 . S
C2893 H2915 0.950 . S
C2894 H2890 0.949 . S
C2894 C2902 1.574 . S
C2894 C2910 1.368 . S
H2895 C2903 0.950 . S
H2896 C2901 0.950 . S
H2897 C2902 0.949 . S
H2898 C2904 0.950 . S
H2899 C2905 0.950 . S
H2900 C2906 0.949 . S
C2901 H2896 0.950 . S
C2901 C2903 1.327 . S
C2901 C2907 1.429 . S
C2902 C2894 1.574 . S
C2902 H2897 0.949 . S
C2902 C2908 1.368 . S
C2903 C2887 1.349 . S
C2903 H2895 0.950 . S
C2903 C2901 1.327 . S
C2904 C2892 1.349 . S
C2904 H2898 0.950 . S
C2904 C2905 1.327 . S
C2905 H2899 0.950 . S
C2905 C2904 1.327 . S
C2905 C2909 1.429 . S
C2906 C2889 1.574 . S
C2906 H2900 0.949 . S
C2906 C2910 1.368 . S
C2907 C2888 1.429 . S
C2907 C2901 1.429 . S
C2907 C2908 1.523 . S
C2908 C2889 1.368 . S
C2908 C2902 1.368 . S
C2908 C2907 1.523 . S
C2909 C2893 1.429 . S
C2909 C2905 1.429 . S
C2909 C2910 1.523 . S
C2910 C2894 1.368 . S
C2910 C2906 1.368 . S
C2910 C2909 1.523 . S
H2911 C2886 0.950 . S
H2912 C2888 0.950 . S
H2913 C2889 0.949 . S
H2914 C2891 0.950 . S
H2915 C2893 0.950 . S
C2916 C2917 1.349 . S
C2916 C2918 1.327 . S
C2916 H2941 0.950 . S
C2917 C2916 1.349 . S
C2917 C2933 1.349 . S
C2918 C2916 1.327 . S
C2918 C2937 1.429 . S
C2918 H2942 0.950 . S
C2919 C2936 1.574 . S
C2919 C2938 1.368 . S
C2919 H2943 0.949 . S
H2920 C2924 0.949 . S
C2921 C2922 1.349 . S
C2921 C2923 1.327 . S
C2921 H2944 0.950 . S
C2922 C2921 1.349 . S
C2922 C2934 1.349 . S
C2923 C2921 1.327 . S
C2923 C2939 1.429 . S
C2923 H2945 0.950 . S
C2924 H2920 0.949 . S
C2924 C2932 1.574 . S
C2924 C2940 1.368 . S
H2925 C2933 0.950 . S
H2926 C2931 0.950 . S
H2927 C2932 0.949 . S
H2928 C2934 0.950 . S
H2929 C2935 0.950 . S
H2930 C2936 0.949 . S
C2931 H2926 0.950 . S
C2931 C2933 1.327 . S
C2931 C2937 1.429 . S
C2932 C2924 1.574 . S
C2932 H2927 0.949 . S
C2932 C2938 1.368 . S
C2933 C2917 1.349 . S
C2933 H2925 0.950 . S
C2933 C2931 1.327 . S
C2934 C2922 1.349 . S
C2934 H2928 0.950 . S
C2934 C2935 1.327 . S
C2935 H2929 0.950 . S
C2935 C2934 1.327 . S
C2935 C2939 1.429 . S
C2936 C2919 1.574 . S
C2936 H2930 0.949 . S
C2936 C2940 1.368 . S
C2937 C2918 1.429 . S
C2937 C2931 1.429 . S
C2937 C2938 1.523 . S
C2938 C2919 1.368 . S
C2938 C2932 1.368 . S
C2938 C2937 1.523 . S
C2939 C2923 1.429 . S
C2939 C2935 1.429 . S
C2939 C2940 1.523 . S
C2940 C2924 1.368 . S
C2940 C2936 1.368 . S
C2940 C2939 1.523 . S
H2941 C2916 0.950 . S
H2942 C2918 0.950 . S
H2943 C2919 0.949 . S
H2944 C2921 0.950 . S
H2945 C2923 0.950 . S
C2946 C2947 1.349 . S
C2946 C2948 1.327 . S
C2946 H2971 0.950 . S
C2947 C2946 1.349 . S
C2947 C2963 1.349 . S
C2948 C2946 1.327 . S
C2948 C2967 1.429 . S
C2948 H2972 0.950 . S
C2949 C2966 1.574 . S
C2949 C2968 1.368 . S
C2949 H2973 0.949 . S
H2950 C2954 0.949 . S
C2951 C2952 1.349 . S
C2951 C2953 1.327 . S
C2951 H2974 0.950 . S
C2952 C2951 1.349 . S
C2952 C2964 1.349 . S
C2953 C2951 1.327 . S
C2953 C2969 1.429 . S
C2953 H2975 0.950 . S
C2954 H2950 0.949 . S
C2954 C2962 1.574 . S
C2954 C2970 1.368 . S
H2955 C2963 0.950 . S
H2956 C2961 0.950 . S
H2957 C2962 0.949 . S
H2958 C2964 0.950 . S
H2959 C2965 0.950 . S
H2960 C2966 0.949 . S
C2961 H2956 0.950 . S
C2961 C2963 1.327 . S
C2961 C2967 1.429 . S
C2962 C2954 1.574 . S
C2962 H2957 0.949 . S
C2962 C2968 1.368 . S
C2963 C2947 1.349 . S
C2963 H2955 0.950 . S
C2963 C2961 1.327 . S
C2964 C2952 1.349 . S
C2964 H2958 0.950 . S
C2964 C2965 1.327 . S
C2965 H2959 0.950 . S
C2965 C2964 1.327 . S
C2965 C2969 1.429 . S
C2966 C2949 1.574 . S
C2966 H2960 0.949 . S
C2966 C2970 1.368 . S
C2967 C2948 1.429 . S
C2967 C2961 1.429 . S
C2967 C2968 1.523 . S
C2968 C2949 1.368 . S
C2968 C2962 1.368 . S
C2968 C2967 1.523 . S
C2969 C2953 1.429 . S
C2969 C2965 1.429 . S
C2969 C2970 1.523 . S
C2970 C2954 1.368 . S
C2970 C2966 1.368 . S
C2970 C2969 1.523 . S
H2971 C2946 0.950 . S
H2972 C2948 0.950 . S
H2973 C2949 0.949 . S
H2974 C2951 0.950 . S
H2975 C2953 0.950 . S
C2976 C2977 1.349 . S
C2976 C2978 1.327 . S
C2976 H3001 0.950 . S
C2977 C2976 1.349 . S
C2977 C2993 1.349 . S
C2978 C2976 1.327 . S
C2978 C2997 1.429 . S
C2978 H3002 0.950 . S
C2979 C2996 1.574 . S
C2979 C2998 1.368 . S
C2979 H3003 0.949 . S
H2980 C2984 0.949 . S
C2981 C2982 1.349 . S
C2981 C2983 1.327 . S
C2981 H3004 0.950 . S
C2982 C2981 1.349 . S
C2982 C2994 1.349 . S
C2983 C2981 1.327 . S
C2983 C2999 1.429 . S
C2983 H3005 0.950 . S
C2984 H2980 0.949 . S
C2984 C2992 1.574 . S
C2984 C3000 1.368 . S
H2985 C2993 0.950 . S
H2986 C2991 0.950 . S
H2987 C2992 0.949 . S
H2988 C2994 0.950 . S
H2989 C2995 0.950 . S
H2990 C2996 0.949 . S
C2991 H2986 0.950 . S
C2991 C2993 1.327 . S
C2991 C2997 1.429 . S
C2992 C2984 1.574 . S
C2992 H2987 0.949 . S
C2992 C2998 1.368 . S
C2993 C2977 1.349 . S
C2993 H2985 0.950 . S
C2993 C2991 1.327 . S
C2994 C2982 1.349 . S
C2994 H2988 0.950 . S
C2994 C2995 1.327 . S
C2995 H2989 0.950 . S
C2995 C2994 1.327 . S
C2995 C2999 1.429 . S
C2996 C2979 1.574 . S
C2996 H2990 0.949 . S
C2996 C3000 1.368 . S
C2997 C2978 1.429 . S
C2997 C2991 1.429 . S
C2997 C2998 1.523 . S
C2998 C2979 1.368 . S
C2998 C2992 1.368 . S
C2998 C2997 1.523 . S
C2999 C2983 1.429 . S
C2999 C2995 1.429 . S
C2999 C3000 1.523 . S
C3000 C2984 1.368 . S
C3000 C2996 1.368 . S
C3000 C2999 1.523 . S
H3001 C2976 0.950 . S
H3002 C2978 0.950 . S
H3003 C2979 0.949 . S
H3004 C2981 0.950 . S
H3005 C2983 0.950 . S
C3006 C3007 1.349 . S
C3006 C3008 1.327 . S
C3006 H3031 0.950 . S
C3007 C3006 1.349 . S
C3007 C3023 1.349 1_565 S
C3008 C3006 1.327 . S
C3008 C3027 1.429 . S
C3008 H3032 0.950 . S
C3009 C3026 1.574 1_655 S
C3009 C3028 1.368 1_545 S
C3009 H3033 0.949 . S
H3010 C3014 0.949 . S
C3011 C3012 1.349 1_545 S
C3011 C3013 1.327 . S
C3011 H3034 0.950 . S
C3012 C3011 1.349 1_565 S
C3012 C3024 1.349 . S
C3013 C3011 1.327 . S
C3013 C3029 1.429 1_545 S
C3013 H3035 0.950 . S
C3014 H3010 0.949 . S
C3014 C3022 1.574 1_455 S
C3014 C3030 1.368 . S
H3015 C3023 0.950 . S
H3016 C3021 0.950 . S
H3017 C3022 0.949 . S
H3018 C3024 0.950 . S
H3019 C3025 0.950 . S
H3020 C3026 0.949 . S
C3021 H3016 0.950 . S
C3021 C3023 1.327 . S
C3021 C3027 1.429 1_545 S
C3022 C3014 1.574 1_655 S
C3022 H3017 0.949 . S
C3022 C3028 1.368 . S
C3023 C3007 1.349 1_545 S
C3023 H3015 0.950 . S
C3023 C3021 1.327 . S
C3024 C3012 1.349 . S
C3024 H3018 0.950 . S
C3024 C3025 1.327 . S
C3025 H3019 0.950 . S
C3025 C3024 1.327 . S
C3025 C3029 1.429 . S
C3026 C3009 1.574 1_455 S
C3026 H3020 0.949 . S
C3026 C3030 1.368 1_545 S
C3027 C3008 1.429 . S
C3027 C3021 1.429 1_565 S
C3027 C3028 1.523 . S
C3028 C3009 1.368 1_565 S
C3028 C3022 1.368 . S
C3028 C3027 1.523 . S
C3029 C3013 1.429 1_565 S
C3029 C3025 1.429 . S
C3029 C3030 1.523 . S
C3030 C3014 1.368 . S
C3030 C3026 1.368 1_565 S
C3030 C3029 1.523 . S
H3031 C3006 0.950 . S
H3032 C3008 0.950 . S
H3033 C3009 0.949 . S
H3034 C3011 0.950 . S
H3035 C3013 0.950 . S
C3036 C3037 1.349 . S
C3036 C3038 1.327 . S
C3036 H3061 0.950 . S
C3037 C3036 1.349 . S
C3037 C3053 1.349 . S
C3038 C3036 1.327 . S
C3038 C3057 1.429 . S
C3038 H3062 0.950 . S
C3039 C3056 1.574 . S
C3039 C3058 1.368 . S
C3039 H3063 0.949 . S
H3040 C3044 0.949 . S
C3041 C3042 1.349 . S
C3041 C3043 1.327 . S
C3041 H3064 0.950 . S
C3042 C3041 1.349 . S
C3042 C3054 1.349 . S
C3043 C3041 1.327 . S
C3043 C3059 1.429 . S
C3043 H3065 0.950 . S
C3044 H3040 0.949 . S
C3044 C3052 1.574 . S
C3044 C3060 1.368 . S
H3045 C3053 0.950 . S
H3046 C3051 0.950 . S
H3047 C3052 0.949 . S
H3048 C3054 0.950 . S
H3049 C3055 0.950 . S
H3050 C3056 0.949 . S
C3051 H3046 0.950 . S
C3051 C3053 1.327 . S
C3051 C3057 1.429 . S
C3052 C3044 1.574 . S
C3052 H3047 0.949 . S
C3052 C3058 1.368 . S
C3053 C3037 1.349 . S
C3053 H3045 0.950 . S
C3053 C3051 1.327 . S
C3054 C3042 1.349 . S
C3054 H3048 0.950 . S
C3054 C3055 1.327 . S
C3055 H3049 0.950 . S
C3055 C3054 1.327 . S
C3055 C3059 1.429 . S
C3056 C3039 1.574 . S
C3056 H3050 0.949 . S
C3056 C3060 1.368 . S
C3057 C3038 1.429 . S
C3057 C3051 1.429 . S
C3057 C3058 1.523 . S
C3058 C3039 1.368 . S
C3058 C3052 1.368 . S
C3058 C3057 1.523 . S
C3059 C3043 1.429 . S
C3059 C3055 1.429 . S
C3059 C3060 1.523 . S
C3060 C3044 1.368 . S
C3060 C3056 1.368 . S
C3060 C3059 1.523 . S
H3061 C3036 0.950 . S
H3062 C3038 0.950 . S
H3063 C3039 0.949 . S
H3064 C3041 0.950 . S
H3065 C3043 0.950 . S
C3066 C3067 1.349 . S
C3066 C3068 1.327 . S
C3066 H3091 0.950 . S
C3067 C3066 1.349 . S
C3067 C3083 1.349 1_545 S
C3068 C3066 1.327 . S
C3068 C3087 1.429 . S
C3068 H3092 0.950 . S
C3069 C3086 1.574 . S
C3069 C3088 1.368 1_565 S
C3069 H3093 0.949 . S
H3070 C3074 0.949 . S
C3071 C3072 1.349 1_565 S
C3071 C3073 1.327 . S
C3071 H3094 0.950 . S
C3072 C3071 1.349 1_545 S
C3072 C3084 1.349 . S
C3073 C3071 1.327 . S
C3073 C3089 1.429 1_565 S
C3073 H3095 0.950 . S
C3074 H3070 0.949 . S
C3074 C3082 1.574 . S
C3074 C3090 1.368 . S
H3075 C3083 0.950 . S
H3076 C3081 0.950 . S
H3077 C3082 0.949 . S
H3078 C3084 0.950 . S
H3079 C3085 0.950 . S
H3080 C3086 0.949 . S
C3081 H3076 0.950 . S
C3081 C3083 1.327 . S
C3081 C3087 1.429 1_565 S
C3082 C3074 1.574 . S
C3082 H3077 0.949 . S
C3082 C3088 1.368 . S
C3083 C3067 1.349 1_565 S
C3083 H3075 0.950 . S
C3083 C3081 1.327 . S
C3084 C3072 1.349 . S
C3084 H3078 0.950 . S
C3084 C3085 1.327 . S
C3085 H3079 0.950 . S
C3085 C3084 1.327 . S
C3085 C3089 1.429 . S
C3086 C3069 1.574 . S
C3086 H3080 0.949 . S
C3086 C3090 1.368 1_565 S
C3087 C3068 1.429 . S
C3087 C3081 1.429 1_545 S
C3087 C3088 1.523 . S
C3088 C3069 1.368 1_545 S
C3088 C3082 1.368 . S
C3088 C3087 1.523 . S
C3089 C3073 1.429 1_545 S
C3089 C3085 1.429 . S
C3089 C3090 1.523 . S
C3090 C3074 1.368 . S
C3090 C3086 1.368 1_545 S
C3090 C3089 1.523 . S
H3091 C3066 0.950 . S
H3092 C3068 0.950 . S
H3093 C3069 0.949 . S
H3094 C3071 0.950 . S
H3095 C3073 0.950 . S
C3096 C3097 1.349 . S
C3096 C3098 1.327 . S
C3096 H3121 0.950 . S
C3097 C3096 1.349 . S
C3097 C3113 1.349 . S
C3098 C3096 1.327 . S
C3098 C3117 1.429 . S
C3098 H3122 0.950 . S
C3099 C3116 1.574 . S
C3099 C3118 1.368 . S
C3099 H3123 0.949 . S
H3100 C3104 0.949 . S
C3101 C3102 1.349 . S
C3101 C3103 1.327 . S
C3101 H3124 0.950 . S
C3102 C3101 1.349 . S
C3102 C3114 1.349 . S
C3103 C3101 1.327 . S
C3103 C3119 1.429 . S
C3103 H3125 0.950 . S
C3104 H3100 0.949 . S
C3104 C3112 1.574 . S
C3104 C3120 1.368 . S
H3105 C3113 0.950 . S
H3106 C3111 0.950 . S
H3107 C3112 0.949 . S
H3108 C3114 0.950 . S
H3109 C3115 0.950 . S
H3110 C3116 0.949 . S
C3111 H3106 0.950 . S
C3111 C3113 1.327 . S
C3111 C3117 1.429 . S
C3112 C3104 1.574 . S
C3112 H3107 0.949 . S
C3112 C3118 1.368 . S
C3113 C3097 1.349 . S
C3113 H3105 0.950 . S
C3113 C3111 1.327 . S
C3114 C3102 1.349 . S
C3114 H3108 0.950 . S
C3114 C3115 1.327 . S
C3115 H3109 0.950 . S
C3115 C3114 1.327 . S
C3115 C3119 1.429 . S
C3116 C3099 1.574 . S
C3116 H3110 0.949 . S
C3116 C3120 1.368 . S
C3117 C3098 1.429 . S
C3117 C3111 1.429 . S
C3117 C3118 1.523 . S
C3118 C3099 1.368 . S
C3118 C3112 1.368 . S
C3118 C3117 1.523 . S
C3119 C3103 1.429 . S
C3119 C3115 1.429 . S
C3119 C3120 1.523 . S
C3120 C3104 1.368 . S
C3120 C3116 1.368 . S
C3120 C3119 1.523 . S
H3121 C3096 0.950 . S
H3122 C3098 0.950 . S
H3123 C3099 0.949 . S
H3124 C3101 0.950 . S
H3125 C3103 0.950 . S
C3126 C3127 1.349 1_545 S
C3126 C3128 1.327 . S
C3126 H3151 0.950 . S
C3127 C3126 1.349 1_565 S
C3127 C3143 1.349 . S
C3128 C3126 1.327 . S
C3128 C3147 1.429 1_545 S
C3128 H3152 0.950 . S
C3129 C3146 1.574 . S
C3129 C3148 1.368 . S
C3129 H3153 0.949 . S
H3130 C3134 0.949 . S
C3131 C3132 1.349 . S
C3131 C3133 1.327 . S
C3131 H3154 0.950 . S
C3132 C3131 1.349 . S
C3132 C3144 1.349 1_565 S
C3133 C3131 1.327 . S
C3133 C3149 1.429 . S
C3133 H3155 0.950 . S
C3134 H3130 0.949 . S
C3134 C3142 1.574 . S
C3134 C3150 1.368 1_545 S
H3135 C3143 0.950 . S
H3136 C3141 0.950 . S
H3137 C3142 0.949 . S
H3138 C3144 0.950 . S
H3139 C3145 0.950 . S
H3140 C3146 0.949 . S
C3141 H3136 0.950 . S
C3141 C3143 1.327 . S
C3141 C3147 1.429 . S
C3142 C3134 1.574 . S
C3142 H3137 0.949 . S
C3142 C3148 1.368 1_545 S
C3143 C3127 1.349 . S
C3143 H3135 0.950 . S
C3143 C3141 1.327 . S
C3144 C3132 1.349 1_545 S
C3144 H3138 0.950 . S
C3144 C3145 1.327 . S
C3145 H3139 0.950 . S
C3145 C3144 1.327 . S
C3145 C3149 1.429 1_545 S
C3146 C3129 1.574 . S
C3146 H3140 0.949 . S
C3146 C3150 1.368 . S
C3147 C3128 1.429 1_565 S
C3147 C3141 1.429 . S
C3147 C3148 1.523 . S
C3148 C3129 1.368 . S
C3148 C3142 1.368 1_565 S
C3148 C3147 1.523 . S
C3149 C3133 1.429 . S
C3149 C3145 1.429 1_565 S
C3149 C3150 1.523 . S
C3150 C3134 1.368 1_565 S
C3150 C3146 1.368 . S
C3150 C3149 1.523 . S
H3151 C3126 0.950 . S
H3152 C3128 0.950 . S
H3153 C3129 0.949 . S
H3154 C3131 0.950 . S
H3155 C3133 0.950 . S
C3156 C3157 1.349 . S
C3156 C3158 1.327 . S
C3156 H3181 0.950 . S
C3157 C3156 1.349 . S
C3157 C3173 1.349 . S
C3158 C3156 1.327 . S
C3158 C3177 1.429 . S
C3158 H3182 0.950 . S
C3159 C3176 1.574 . S
C3159 C3178 1.368 . S
C3159 H3183 0.949 . S
H3160 C3164 0.949 . S
C3161 C3162 1.349 . S
C3161 C3163 1.327 . S
C3161 H3184 0.950 . S
C3162 C3161 1.349 . S
C3162 C3174 1.349 . S
C3163 C3161 1.327 . S
C3163 C3179 1.429 . S
C3163 H3185 0.950 . S
C3164 H3160 0.949 . S
C3164 C3172 1.574 . S
C3164 C3180 1.368 . S
H3165 C3173 0.950 . S
H3166 C3171 0.950 . S
H3167 C3172 0.949 . S
H3168 C3174 0.950 . S
H3169 C3175 0.950 . S
H3170 C3176 0.949 . S
C3171 H3166 0.950 . S
C3171 C3173 1.327 . S
C3171 C3177 1.429 . S
C3172 C3164 1.574 . S
C3172 H3167 0.949 . S
C3172 C3178 1.368 . S
C3173 C3157 1.349 . S
C3173 H3165 0.950 . S
C3173 C3171 1.327 . S
C3174 C3162 1.349 . S
C3174 H3168 0.950 . S
C3174 C3175 1.327 . S
C3175 H3169 0.950 . S
C3175 C3174 1.327 . S
C3175 C3179 1.429 . S
C3176 C3159 1.574 . S
C3176 H3170 0.949 . S
C3176 C3180 1.368 . S
C3177 C3158 1.429 . S
C3177 C3171 1.429 . S
C3177 C3178 1.523 . S
C3178 C3159 1.368 . S
C3178 C3172 1.368 . S
C3178 C3177 1.523 . S
C3179 C3163 1.429 . S
C3179 C3175 1.429 . S
C3179 C3180 1.523 . S
C3180 C3164 1.368 . S
C3180 C3176 1.368 . S
C3180 C3179 1.523 . S
H3181 C3156 0.950 . S
H3182 C3158 0.950 . S
H3183 C3159 0.949 . S
H3184 C3161 0.950 . S
H3185 C3163 0.950 . S
C3186 C3187 1.349 1_565 S
C3186 C3188 1.327 . S
C3186 H3211 0.950 . S
C3187 C3186 1.349 1_545 S
C3187 C3203 1.349 . S
C3188 C3186 1.327 . S
C3188 C3207 1.429 1_565 S
C3188 H3212 0.950 . S
C3189 C3206 1.574 1_455 S
C3189 C3208 1.368 . S
C3189 H3213 0.949 . S
H3190 C3194 0.949 . S
C3191 C3192 1.349 . S
C3191 C3193 1.327 . S
C3191 H3214 0.950 . S
C3192 C3191 1.349 . S
C3192 C3204 1.349 1_545 S
C3193 C3191 1.327 . S
C3193 C3209 1.429 . S
C3193 H3215 0.950 . S
C3194 H3190 0.949 . S
C3194 C3202 1.574 1_655 S
C3194 C3210 1.368 1_565 S
H3195 C3203 0.950 . S
H3196 C3201 0.950 . S
H3197 C3202 0.949 . S
H3198 C3204 0.950 . S
H3199 C3205 0.950 . S
H3200 C3206 0.949 . S
C3201 H3196 0.950 . S
C3201 C3203 1.327 . S
C3201 C3207 1.429 . S
C3202 C3194 1.574 1_455 S
C3202 H3197 0.949 . S
C3202 C3208 1.368 1_565 S
C3203 C3187 1.349 . S
C3203 H3195 0.950 . S
C3203 C3201 1.327 . S
C3204 C3192 1.349 1_565 S
C3204 H3198 0.950 . S
C3204 C3205 1.327 . S
C3205 H3199 0.950 . S
C3205 C3204 1.327 . S
C3205 C3209 1.429 1_565 S
C3206 C3189 1.574 1_655 S
C3206 H3200 0.949 . S
C3206 C3210 1.368 . S
C3207 C3188 1.429 1_545 S
C3207 C3201 1.429 . S
C3207 C3208 1.523 . S
C3208 C3189 1.368 . S
C3208 C3202 1.368 1_545 S
C3208 C3207 1.523 . S
C3209 C3193 1.429 . S
C3209 C3205 1.429 1_545 S
C3209 C3210 1.523 . S
C3210 C3194 1.368 1_545 S
C3210 C3206 1.368 . S
C3210 C3209 1.523 . S
H3211 C3186 0.950 . S
H3212 C3188 0.950 . S
H3213 C3189 0.949 . S
H3214 C3191 0.950 . S
H3215 C3193 0.950 . S
C3216 C3217 1.349 . S
C3216 C3218 1.327 . S
C3216 H3241 0.950 . S
C3217 C3216 1.349 . S
C3217 C3233 1.349 . S
C3218 C3216 1.327 . S
C3218 C3237 1.429 . S
C3218 H3242 0.950 . S
C3219 C3236 1.574 . S
C3219 C3238 1.368 . S
C3219 H3243 0.949 . S
H3220 C3224 0.949 . S
C3221 C3222 1.349 . S
C3221 C3223 1.327 . S
C3221 H3244 0.950 . S
C3222 C3221 1.349 . S
C3222 C3234 1.349 . S
C3223 C3221 1.327 . S
C3223 C3239 1.429 . S
C3223 H3245 0.950 . S
C3224 H3220 0.949 . S
C3224 C3232 1.574 . S
C3224 C3240 1.368 . S
H3225 C3233 0.950 . S
H3226 C3231 0.950 . S
H3227 C3232 0.949 . S
H3228 C3234 0.950 . S
H3229 C3235 0.950 . S
H3230 C3236 0.949 . S
C3231 H3226 0.950 . S
C3231 C3233 1.327 . S
C3231 C3237 1.429 . S
C3232 C3224 1.574 . S
C3232 H3227 0.949 . S
C3232 C3238 1.368 . S
C3233 C3217 1.349 . S
C3233 H3225 0.950 . S
C3233 C3231 1.327 . S
C3234 C3222 1.349 . S
C3234 H3228 0.950 . S
C3234 C3235 1.327 . S
C3235 H3229 0.950 . S
C3235 C3234 1.327 . S
C3235 C3239 1.429 . S
C3236 C3219 1.574 . S
C3236 H3230 0.949 . S
C3236 C3240 1.368 . S
C3237 C3218 1.429 . S
C3237 C3231 1.429 . S
C3237 C3238 1.523 . S
C3238 C3219 1.368 . S
C3238 C3232 1.368 . S
C3238 C3237 1.523 . S
C3239 C3223 1.429 . S
C3239 C3235 1.429 . S
C3239 C3240 1.523 . S
C3240 C3224 1.368 . S
C3240 C3236 1.368 . S
C3240 C3239 1.523 . S
H3241 C3216 0.950 . S
H3242 C3218 0.950 . S
H3243 C3219 0.949 . S
H3244 C3221 0.950 . S
H3245 C3223 0.950 . S
C3246 C3247 1.349 . S
C3246 C3248 1.327 . S
C3246 H3271 0.950 . S
C3247 C3246 1.349 . S
C3247 C3263 1.349 . S
C3248 C3246 1.327 . S
C3248 C3267 1.429 . S
C3248 H3272 0.950 . S
C3249 C3266 1.574 . S
C3249 C3268 1.368 . S
C3249 H3273 0.949 . S
H3250 C3254 0.949 . S
C3251 C3252 1.349 . S
C3251 C3253 1.327 . S
C3251 H3274 0.950 . S
C3252 C3251 1.349 . S
C3252 C3264 1.349 . S
C3253 C3251 1.327 . S
C3253 C3269 1.429 . S
C3253 H3275 0.950 . S
C3254 H3250 0.949 . S
C3254 C3262 1.574 . S
C3254 C3270 1.368 . S
H3255 C3263 0.950 . S
H3256 C3261 0.950 . S
H3257 C3262 0.949 . S
H3258 C3264 0.950 . S
H3259 C3265 0.950 . S
H3260 C3266 0.949 . S
C3261 H3256 0.950 . S
C3261 C3263 1.327 . S
C3261 C3267 1.429 . S
C3262 C3254 1.574 . S
C3262 H3257 0.949 . S
C3262 C3268 1.368 . S
C3263 C3247 1.349 . S
C3263 H3255 0.950 . S
C3263 C3261 1.327 . S
C3264 C3252 1.349 . S
C3264 H3258 0.950 . S
C3264 C3265 1.327 . S
C3265 H3259 0.950 . S
C3265 C3264 1.327 . S
C3265 C3269 1.429 . S
C3266 C3249 1.574 . S
C3266 H3260 0.949 . S
C3266 C3270 1.368 . S
C3267 C3248 1.429 . S
C3267 C3261 1.429 . S
C3267 C3268 1.523 . S
C3268 C3249 1.368 . S
C3268 C3262 1.368 . S
C3268 C3267 1.523 . S
C3269 C3253 1.429 . S
C3269 C3265 1.429 . S
C3269 C3270 1.523 . S
C3270 C3254 1.368 . S
C3270 C3266 1.368 . S
C3270 C3269 1.523 . S
H3271 C3246 0.950 . S
H3272 C3248 0.950 . S
H3273 C3249 0.949 . S
H3274 C3251 0.950 . S
H3275 C3253 0.950 . S
C3276 C3277 1.349 . S
C3276 C3278 1.327 . S
C3276 H3301 0.950 . S
C3277 C3276 1.349 . S
C3277 C3293 1.349 . S
C3278 C3276 1.327 . S
C3278 C3297 1.429 . S
C3278 H3302 0.950 . S
C3279 C3296 1.574 . S
C3279 C3298 1.368 . S
C3279 H3303 0.949 . S
H3280 C3284 0.949 . S
C3281 C3282 1.349 . S
C3281 C3283 1.327 . S
C3281 H3304 0.950 . S
C3282 C3281 1.349 . S
C3282 C3294 1.349 . S
C3283 C3281 1.327 . S
C3283 C3299 1.429 . S
C3283 H3305 0.950 . S
C3284 H3280 0.949 . S
C3284 C3292 1.574 . S
C3284 C3300 1.368 . S
H3285 C3293 0.950 . S
H3286 C3291 0.950 . S
H3287 C3292 0.949 . S
H3288 C3294 0.950 . S
H3289 C3295 0.950 . S
H3290 C3296 0.949 . S
C3291 H3286 0.950 . S
C3291 C3293 1.327 . S
C3291 C3297 1.429 . S
C3292 C3284 1.574 . S
C3292 H3287 0.949 . S
C3292 C3298 1.368 . S
C3293 C3277 1.349 . S
C3293 H3285 0.950 . S
C3293 C3291 1.327 . S
C3294 C3282 1.349 . S
C3294 H3288 0.950 . S
C3294 C3295 1.327 . S
C3295 H3289 0.950 . S
C3295 C3294 1.327 . S
C3295 C3299 1.429 . S
C3296 C3279 1.574 . S
C3296 H3290 0.949 . S
C3296 C3300 1.368 . S
C3297 C3278 1.429 . S
C3297 C3291 1.429 . S
C3297 C3298 1.523 . S
C3298 C3279 1.368 . S
C3298 C3292 1.368 . S
C3298 C3297 1.523 . S
C3299 C3283 1.429 . S
C3299 C3295 1.429 . S
C3299 C3300 1.523 . S
C3300 C3284 1.368 . S
C3300 C3296 1.368 . S
C3300 C3299 1.523 . S
H3301 C3276 0.950 . S
H3302 C3278 0.950 . S
H3303 C3279 0.949 . S
H3304 C3281 0.950 . S
H3305 C3283 0.950 . S
C3306 C3307 1.349 . S
C3306 C3308 1.327 . S
C3306 H3331 0.950 . S
C3307 C3306 1.349 . S
C3307 C3323 1.349 . S
C3308 C3306 1.327 . S
C3308 C3327 1.429 . S
C3308 H3332 0.950 . S
C3309 C3326 1.574 . S
C3309 C3328 1.368 . S
C3309 H3333 0.949 . S
H3310 C3314 0.949 . S
C3311 C3312 1.349 . S
C3311 C3313 1.327 . S
C3311 H3334 0.950 . S
C3312 C3311 1.349 . S
C3312 C3324 1.349 . S
C3313 C3311 1.327 . S
C3313 C3329 1.429 . S
C3313 H3335 0.950 . S
C3314 H3310 0.949 . S
C3314 C3322 1.574 . S
C3314 C3330 1.368 . S
H3315 C3323 0.950 . S
H3316 C3321 0.950 . S
H3317 C3322 0.949 . S
H3318 C3324 0.950 . S
H3319 C3325 0.950 . S
H3320 C3326 0.949 . S
C3321 H3316 0.950 . S
C3321 C3323 1.327 . S
C3321 C3327 1.429 . S
C3322 C3314 1.574 . S
C3322 H3317 0.949 . S
C3322 C3328 1.368 . S
C3323 C3307 1.349 . S
C3323 H3315 0.950 . S
C3323 C3321 1.327 . S
C3324 C3312 1.349 . S
C3324 H3318 0.950 . S
C3324 C3325 1.327 . S
C3325 H3319 0.950 . S
C3325 C3324 1.327 . S
C3325 C3329 1.429 . S
C3326 C3309 1.574 . S
C3326 H3320 0.949 . S
C3326 C3330 1.368 . S
C3327 C3308 1.429 . S
C3327 C3321 1.429 . S
C3327 C3328 1.523 . S
C3328 C3309 1.368 . S
C3328 C3322 1.368 . S
C3328 C3327 1.523 . S
C3329 C3313 1.429 . S
C3329 C3325 1.429 . S
C3329 C3330 1.523 . S
C3330 C3314 1.368 . S
C3330 C3326 1.368 . S
C3330 C3329 1.523 . S
H3331 C3306 0.950 . S
H3332 C3308 0.950 . S
H3333 C3309 0.949 . S
H3334 C3311 0.950 . S
H3335 C3313 0.950 . S
C3336 C3337 1.349 . S
C3336 C3338 1.327 . S
C3336 H3361 0.950 . S
C3337 C3336 1.349 . S
C3337 C3353 1.349 . S
C3338 C3336 1.327 . S
C3338 C3357 1.429 . S
C3338 H3362 0.950 . S
C3339 C3356 1.574 . S
C3339 C3358 1.368 . S
C3339 H3363 0.949 . S
H3340 C3344 0.949 . S
C3341 C3342 1.349 . S
C3341 C3343 1.327 . S
C3341 H3364 0.950 . S
C3342 C3341 1.349 . S
C3342 C3354 1.349 . S
C3343 C3341 1.327 . S
C3343 C3359 1.429 . S
C3343 H3365 0.950 . S
C3344 H3340 0.949 . S
C3344 C3352 1.574 . S
C3344 C3360 1.368 . S
H3345 C3353 0.950 . S
H3346 C3351 0.950 . S
H3347 C3352 0.949 . S
H3348 C3354 0.950 . S
H3349 C3355 0.950 . S
H3350 C3356 0.949 . S
C3351 H3346 0.950 . S
C3351 C3353 1.327 . S
C3351 C3357 1.429 . S
C3352 C3344 1.574 . S
C3352 H3347 0.949 . S
C3352 C3358 1.368 . S
C3353 C3337 1.349 . S
C3353 H3345 0.950 . S
C3353 C3351 1.327 . S
C3354 C3342 1.349 . S
C3354 H3348 0.950 . S
C3354 C3355 1.327 . S
C3355 H3349 0.950 . S
C3355 C3354 1.327 . S
C3355 C3359 1.429 . S
C3356 C3339 1.574 . S
C3356 H3350 0.949 . S
C3356 C3360 1.368 . S
C3357 C3338 1.429 . S
C3357 C3351 1.429 . S
C3357 C3358 1.523 . S
C3358 C3339 1.368 . S
C3358 C3352 1.368 . S
C3358 C3357 1.523 . S
C3359 C3343 1.429 . S
C3359 C3355 1.429 . S
C3359 C3360 1.523 . S
C3360 C3344 1.368 . S
C3360 C3356 1.368 . S
C3360 C3359 1.523 . S
H3361 C3336 0.950 . S
H3362 C3338 0.950 . S
H3363 C3339 0.949 . S
H3364 C3341 0.950 . S
H3365 C3343 0.950 . S
C3366 C3367 1.349 . S
C3366 C3368 1.327 . S
C3366 H3391 0.950 . S
C3367 C3366 1.349 . S
C3367 C3383 1.349 . S
C3368 C3366 1.327 . S
C3368 C3387 1.429 . S
C3368 H3392 0.950 . S
C3369 C3386 1.574 1_455 S
C3369 C3388 1.368 . S
C3369 H3393 0.949 . S
H3370 C3374 0.949 . S
C3371 C3372 1.349 . S
C3371 C3373 1.327 . S
C3371 H3394 0.950 . S
C3372 C3371 1.349 . S
C3372 C3384 1.349 . S
C3373 C3371 1.327 . S
C3373 C3389 1.429 . S
C3373 H3395 0.950 . S
C3374 H3370 0.949 . S
C3374 C3382 1.574 1_655 S
C3374 C3390 1.368 . S
H3375 C3383 0.950 . S
H3376 C3381 0.950 . S
H3377 C3382 0.949 . S
H3378 C3384 0.950 . S
H3379 C3385 0.950 . S
H3380 C3386 0.949 . S
C3381 H3376 0.950 . S
C3381 C3383 1.327 . S
C3381 C3387 1.429 . S
C3382 C3374 1.574 1_455 S
C3382 H3377 0.949 . S
C3382 C3388 1.368 . S
C3383 C3367 1.349 . S
C3383 H3375 0.950 . S
C3383 C3381 1.327 . S
C3384 C3372 1.349 . S
C3384 H3378 0.950 . S
C3384 C3385 1.327 . S
C3385 H3379 0.950 . S
C3385 C3384 1.327 . S
C3385 C3389 1.429 . S
C3386 C3369 1.574 1_655 S
C3386 H3380 0.949 . S
C3386 C3390 1.368 . S
C3387 C3368 1.429 . S
C3387 C3381 1.429 . S
C3387 C3388 1.523 . S
C3388 C3369 1.368 . S
C3388 C3382 1.368 . S
C3388 C3387 1.523 . S
C3389 C3373 1.429 . S
C3389 C3385 1.429 . S
C3389 C3390 1.523 . S
C3390 C3374 1.368 . S
C3390 C3386 1.368 . S
C3390 C3389 1.523 . S
H3391 C3366 0.950 . S
H3392 C3368 0.950 . S
H3393 C3369 0.949 . S
H3394 C3371 0.950 . S
H3395 C3373 0.950 . S
C3396 C3397 1.349 . S
C3396 C3398 1.327 . S
C3396 H3421 0.950 . S
C3397 C3396 1.349 . S
C3397 C3413 1.349 . S
C3398 C3396 1.327 . S
C3398 C3417 1.429 . S
C3398 H3422 0.950 . S
C3399 C3416 1.574 1_455 S
C3399 C3418 1.368 . S
C3399 H3423 0.949 . S
H3400 C3404 0.949 . S
C3401 C3402 1.349 . S
C3401 C3403 1.327 . S
C3401 H3424 0.950 . S
C3402 C3401 1.349 . S
C3402 C3414 1.349 . S
C3403 C3401 1.327 . S
C3403 C3419 1.429 . S
C3403 H3425 0.950 . S
C3404 H3400 0.949 . S
C3404 C3412 1.574 1_655 S
C3404 C3420 1.368 . S
H3405 C3413 0.950 . S
H3406 C3411 0.950 . S
H3407 C3412 0.949 . S
H3408 C3414 0.950 . S
H3409 C3415 0.950 . S
H3410 C3416 0.949 . S
C3411 H3406 0.950 . S
C3411 C3413 1.327 . S
C3411 C3417 1.429 . S
C3412 C3404 1.574 1_455 S
C3412 H3407 0.949 . S
C3412 C3418 1.368 . S
C3413 C3397 1.349 . S
C3413 H3405 0.950 . S
C3413 C3411 1.327 . S
C3414 C3402 1.349 . S
C3414 H3408 0.950 . S
C3414 C3415 1.327 . S
C3415 H3409 0.950 . S
C3415 C3414 1.327 . S
C3415 C3419 1.429 . S
C3416 C3399 1.574 1_655 S
C3416 H3410 0.949 . S
C3416 C3420 1.368 . S
C3417 C3398 1.429 . S
C3417 C3411 1.429 . S
C3417 C3418 1.523 . S
C3418 C3399 1.368 . S
C3418 C3412 1.368 . S
C3418 C3417 1.523 . S
C3419 C3403 1.429 . S
C3419 C3415 1.429 . S
C3419 C3420 1.523 . S
C3420 C3404 1.368 . S
C3420 C3416 1.368 . S
C3420 C3419 1.523 . S
H3421 C3396 0.950 . S
H3422 C3398 0.950 . S
H3423 C3399 0.949 . S
H3424 C3401 0.950 . S
H3425 C3403 0.950 . S
C3426 C3427 1.349 . S
C3426 C3428 1.327 . S
C3426 H3451 0.950 . S
C3427 C3426 1.349 . S
C3427 C3443 1.349 . S
C3428 C3426 1.327 . S
C3428 C3447 1.429 . S
C3428 H3452 0.950 . S
C3429 C3446 1.574 . S
C3429 C3448 1.368 . S
C3429 H3453 0.949 . S
H3430 C3434 0.949 . S
C3431 C3432 1.349 . S
C3431 C3433 1.327 . S
C3431 H3454 0.950 . S
C3432 C3431 1.349 . S
C3432 C3444 1.349 . S
C3433 C3431 1.327 . S
C3433 C3449 1.429 . S
C3433 H3455 0.950 . S
C3434 H3430 0.949 . S
C3434 C3442 1.574 . S
C3434 C3450 1.368 . S
H3435 C3443 0.950 . S
H3436 C3441 0.950 . S
H3437 C3442 0.949 . S
H3438 C3444 0.950 . S
H3439 C3445 0.950 . S
H3440 C3446 0.949 . S
C3441 H3436 0.950 . S
C3441 C3443 1.327 . S
C3441 C3447 1.429 . S
C3442 C3434 1.574 . S
C3442 H3437 0.949 . S
C3442 C3448 1.368 . S
C3443 C3427 1.349 . S
C3443 H3435 0.950 . S
C3443 C3441 1.327 . S
C3444 C3432 1.349 . S
C3444 H3438 0.950 . S
C3444 C3445 1.327 . S
C3445 H3439 0.950 . S
C3445 C3444 1.327 . S
C3445 C3449 1.429 . S
C3446 C3429 1.574 . S
C3446 H3440 0.949 . S
C3446 C3450 1.368 . S
C3447 C3428 1.429 . S
C3447 C3441 1.429 . S
C3447 C3448 1.523 . S
C3448 C3429 1.368 . S
C3448 C3442 1.368 . S
C3448 C3447 1.523 . S
C3449 C3433 1.429 . S
C3449 C3445 1.429 . S
C3449 C3450 1.523 . S
C3450 C3434 1.368 . S
C3450 C3446 1.368 . S
C3450 C3449 1.523 . S
H3451 C3426 0.950 . S
H3452 C3428 0.950 . S
H3453 C3429 0.949 . S
H3454 C3431 0.950 . S
H3455 C3433 0.950 . S
C1057 N38 2.028 . S
C1062 C8 2.003 . S
C1087 C41 1.993 . S
C1092 N71 2.021 . S
C1117 C74 1.997 . S
C1122 N104 2.033 . S
C1147 C107 1.993 . S
C1152 N5 2.021 1_556 S
C1177 C140 1.997 . S
C1182 N236 2.033 . S
C1207 N137 2.024 1_554 S
C1212 C173 1.987 . S
C1237 C206 1.997 . S
C1242 N170 2.033 . S
C1267 C239 1.993 . S
C1272 N203 2.021 . S
C1297 N302 2.028 . S
C1302 C272 2.003 . S
C1327 N335 2.024 . S
C1332 C305 1.988 . S
C1357 C338 1.997 . S
C1362 N368 2.033 . S
C1387 N269 2.024 1_554 S
C1392 C371 1.987 . S
C1417 C404 1.997 . S
C1422 N500 2.033 . S
C1447 C437 1.993 . S
C1452 N401 2.021 1_556 S
C1477 N434 2.028 . S
C1482 C470 2.003 . S
C1507 N467 2.024 . S
C1512 C503 1.988 . S
C1537 N566 2.027 . S
C1542 C536 1.996 . S
C1567 C569 1.996 . S
C1572 N599 2.027 1_556 S
C1597 N632 2.026 . S
C1602 C602 1.996 . S
C1627 N533 2.027 . S
C1632 C635 1.996 . S
C1657 N764 2.027 . S
C1662 C668 1.996 . S
C1687 C701 1.996 . S
C1692 N665 2.027 . S
C1717 N698 2.026 . S
C1722 C734 1.996 . S
C1747 C767 1.996 . S
C1752 N731 2.027 1_554 S
C1777 N830 2.027 . S
C1782 C800 1.996 . S
C1807 C833 1.996 . S
C1812 N863 2.027 1_554 S
C1837 C866 1.996 . S
C1842 N896 2.026 . S
C1867 C899 1.996 . S
C1872 N797 2.027 . S
C1897 N1028 2.027 . S
C1902 C932 1.996 . S
C1927 N929 2.027 . S
C1932 C965 1.996 . S
C1957 N962 2.026 . S
C1962 C998 1.996 . S
C1987 N995 2.027 1_556 S
C1992 C1031 1.996 . S
C2017 N212 0.397 . S
C2022 N14 0.397 . S
C2047 N47 0.399 . S
C2052 N245 0.382 . S
C2077 N80 0.397 . S
C2082 N146 0.397 . S
C2107 N113 0.399 . S
C2112 N179 0.382 . S
C2137 N476 0.397 . S
C2142 N278 0.397 . S
C2167 N509 0.399 . S
C2172 N311 0.382 . S
C2197 N344 0.397 . S
C2202 N410 0.397 . S
C2227 N443 0.399 . S
C2232 N377 0.382 . S
C2257 N542 0.397 . S
C2262 N740 0.397 . S
C2287 N575 0.397 . S
C2292 N773 0.397 . S
C2317 N674 0.397 . S
C2322 N608 0.397 . S
C2347 N707 0.397 . S
C2352 N641 0.397 . S
C2377 N1004 0.397 . S
C2382 N806 0.397 . S
C2407 N1037 0.397 . S
C2412 N839 0.397 . S
C2437 N938 0.397 . S
C2442 N872 0.397 . S
C2467 N971 0.397 . S
C2472 N905 0.397 . S
C2497 C193 0.529 . S
C2502 C28 0.525 . S
C2527 C61 0.529 . S
C2532 C226 0.525 . S
C2557 C94 0.529 . S
C2562 C259 0.530 . S
C2587 C127 0.529 . S
C2592 C160 0.525 . S
C2617 C457 0.529 . S
C2622 C292 0.525 . S
C2647 C325 0.529 . S
C2652 C490 0.525 . S
C2677 C523 0.529 . S
C2682 C358 0.525 . S
C2707 C391 0.529 . S
C2712 C424 0.525 . S
C2737 C556 0.530 . S
C2742 C721 0.530 . S
C2767 C754 0.530 . S
C2772 C589 0.530 . S
C2797 C787 0.530 . S
C2802 C622 0.530 . S
C2827 C655 0.530 . S
C2832 C688 0.530 . S
C2857 C820 0.530 . S
C2862 C985 0.530 . S
C2887 C1018 0.530 . S
C2892 C853 0.530 . S
C2917 C1051 0.530 . S
C2922 C886 0.530 . S
C2947 C952 0.530 . S
C2952 C919 0.530 . S
C2977 C17 1.236 . S
C2982 C1007 1.236 . S
C3007 C512 1.235 . S
C3012 C50 1.235 . S
C3037 C941 1.236 . S
C3042 C83 1.236 . S
C3067 C116 1.235 . S
C3072 C446 1.235 . S
C3097 C149 1.236 . S
C3102 C875 1.236 . S
C3127 C380 1.235 . S
C3132 C182 1.235 . S
C3157 C215 1.236 . S
C3162 C809 1.236 . S
C3187 C248 1.235 . S
C3192 C314 1.235 . S
C3217 C281 1.236 . S
C3222 C743 1.236 . S
C3247 C347 1.236 . S
C3252 C677 1.236 . S
C3277 C413 1.236 . S
C3282 C611 1.236 . S
C3307 C479 1.236 . S
C3312 C545 1.236 . S
C3337 C578 1.235 . S
C3342 C1040 1.235 . S
C3367 C974 1.234 . S
C3372 C644 1.234 . S
C3397 C908 1.234 . S
C3402 C710 1.234 . S
C3427 C842 1.235 . S
C3432 C776 1.235 . S
