# Generated by pormake.
# Topology unh, (4)-cn, num edge types: 1
# Building blocks:
#     Node 0, Type 0, BuildingBlock: KUFVIS_clean_sbu_0, # of connection points: 4
#     Node 1, Type 0, BuildingBlock: KUFVIS_clean_sbu_0, # of connection points: 4
#     Node 2, Type 0, BuildingBlock: KUFVIS_clean_sbu_0, # of connection points: 4
#     Node 3, Type 0, BuildingBlock: KUFVIS_clean_sbu_0, # of connection points: 4
#     Node 4, Type 0, BuildingBlock: KUFVIS_clean_sbu_0, # of connection points: 4
#     Node 5, Type 0, BuildingBlock: KUFVIS_clean_sbu_0, # of connection points: 4
#     Edge 6, Type (0, 0), BuildingBlock: FUNLAD_clean_linker_1, # of connection points: 2
#     Edge 7, Type (0, 0), BuildingBlock: FUNLAD_clean_linker_1, # of connection points: 2
#     Edge 8, Type (0, 0), BuildingBlock: FUNLAD_clean_linker_1, # of connection points: 2
#     Edge 9, Type (0, 0), BuildingBlock: FUNLAD_clean_linker_1, # of connection points: 2
#     Edge 10, Type (0, 0), BuildingBlock: FUNLAD_clean_linker_1, # of connection points: 2
#     Edge 11, Type (0, 0), BuildingBlock: FUNLAD_clean_linker_1, # of connection points: 2
#     Edge 12, Type (0, 0), BuildingBlock: FUNLAD_clean_linker_1, # of connection points: 2
#     Edge 13, Type (0, 0), BuildingBlock: FUNLAD_clean_linker_1, # of connection points: 2
#     Edge 14, Type (0, 0), BuildingBlock: FUNLAD_clean_linker_1, # of connection points: 2
#     Edge 15, Type (0, 0), BuildingBlock: FUNLAD_clean_linker_1, # of connection points: 2
#     Edge 16, Type (0, 0), BuildingBlock: FUNLAD_clean_linker_1, # of connection points: 2
#     Edge 17, Type (0, 0), BuildingBlock: FUNLAD_clean_linker_1, # of connection points: 2
# Relax obj value: 0.110
# Max RMSD: 0.223
# Mean RMSD: 0.223
data_MOF--net-unh--node1-KUFVIS_clean_sbu_0--edge1-FUNLAD_clean_linker_1
_symmetry_space_group_name_H-M    P1
_symmetry_Int_Tables_number       1
_symmetry_cell_setting            triclinic
loop_
_symmetry_equiv_pos_as_xyz
'x, y, z'
_cell_length_a     43.425457
_cell_length_b     43.436193
_cell_length_c     23.026169
_cell_angle_alpha  90.033147
_cell_angle_beta   89.966062
_cell_angle_gamma 120.00174
loop_
_atom_site_label
_atom_site_type_symbol
_atom_site_fract_x
_atom_site_fract_y
_atom_site_fract_z
_atom_type_partial_charge
Mn0 Mn 0.14572 0.58847 0.08982 0.0
Mn1 Mn 0.10129 0.63069 0.05232 0.0
C2 C 0.1717 0.6364 0.02717 0.0
C3 C 0.18276 0.58101 0.15402 0.0
C4 C 0.08581 0.56002 0.0008 0.0
O5 O 0.10594 0.57058 0.14923 0.0
O6 O 0.08096 0.60354 0.12551 0.0
C7 C 0.12356 0.68181 0.14991 0.0
N8 N 0.12136 0.6753 0.09176 0.0
C9 C 0.14682 0.73749 0.06982 0.0
C10 C 0.14929 0.74487 0.12948 0.0
C11 C 0.1378 0.71692 0.16969 0.0
C12 C 0.13304 0.70206 0.05274 0.0
H13 H 0.11443 0.66033 0.1809 0.0
C14 C 0.08339 0.58077 0.15756 0.0
O15 O 0.16146 0.55547 0.11964 0.0
O16 O 0.18201 0.61044 0.15197 0.0
N17 N 0.11769 0.65819 0.98261 0.0
C18 C 0.11319 0.64653 0.92663 0.0
C19 C 0.12342 0.67115 0.88098 0.0
C20 C 0.13725 0.70738 0.89331 0.0
C21 C 0.14067 0.71864 0.95122 0.0
C22 C 0.1306 0.69294 0.99491 0.0
H23 H 0.10199 0.61866 0.91687 0.0
O24 O 0.18293 0.61382 0.02985 0.0
O25 O 0.14622 0.63093 0.06286 0.0
O26 O 0.11029 0.55763 0.02721 0.0
O27 O 0.07954 0.58553 0.00835 0.0
C28 C 0.15393 0.75439 0.96736 0.0
C29 C 0.15725 0.76384 0.02663 0.0
H30 H 0.15992 0.77188 0.1449 0.0
H31 H 0.13966 0.72241 0.2158 0.0
H32 H 0.12037 0.66217 0.8364 0.0
H33 H 0.14497 0.72629 0.85799 0.0
H34 H 0.16208 0.77489 0.93457 0.0
H35 H 0.16785 0.79146 0.03851 0.0
Mn36 Mn 0.5683 0.14194 0.24482 0.0
Mn37 Mn 0.48265 0.10567 0.20192 0.0
C38 C 0.55258 0.17161 0.17883 0.0
C39 C 0.61317 0.17606 0.31069 0.0
C40 C 0.53266 0.08109 0.15769 0.0
O41 O 0.54128 0.10361 0.30491 0.0
O42 O 0.48463 0.08435 0.2775 0.0
C43 C 0.45722 0.13496 0.29429 0.0
N44 N 0.462 0.13103 0.23688 0.0
C45 C 0.43627 0.16672 0.20922 0.0
C46 C 0.43077 0.17087 0.26805 0.0
C47 C 0.44132 0.15494 0.31075 0.0
C48 C 0.45187 0.14618 0.19541 0.0
H49 H 0.4656 0.12302 0.32725 0.0
C50 C 0.50776 0.08428 0.31193 0.0
O51 O 0.6148 0.15231 0.2786 0.0
O52 O 0.58531 0.17946 0.30538 0.0
N53 N 0.47659 0.12386 0.12975 0.0
C54 C 0.4858 0.11916 0.07524 0.0
C55 C 0.47784 0.13412 0.02759 0.0
C56 C 0.46071 0.1539 0.03645 0.0
C57 C 0.45123 0.15813 0.09287 0.0
C58 C 0.45912 0.14194 0.13858 0.0
H59 H 0.49927 0.10427 0.06815 0.0
O60 O 0.58546 0.17924 0.18335 0.0
O61 O 0.53003 0.1472 0.21374 0.0
O62 O 0.56037 0.10402 0.18457 0.0
O63 O 0.50219 0.07869 0.16251 0.0
C64 C 0.43503 0.17848 0.10571 0.0
C65 C 0.42754 0.18276 0.16383 0.0
H66 H 0.41879 0.18651 0.28095 0.0
H67 H 0.43738 0.15822 0.35625 0.0
H68 H 0.4852 0.13068 0.98417 0.0
H69 H 0.45525 0.16597 0.99966 0.0
H70 H 0.42868 0.19137 0.07128 0.0
H71 H 0.41548 0.19883 0.1732 0.0
Mn72 Mn 0.43176 0.57115 0.40689 0.0
Mn73 Mn 0.37057 0.48622 0.37508 0.0
C74 C 0.38612 0.56023 0.34399 0.0
C75 C 0.45189 0.61906 0.47019 0.0
C76 C 0.44506 0.52473 0.32362 0.0
O77 O 0.44007 0.54202 0.46694 0.0
O78 O 0.39264 0.48762 0.45182 0.0
C79 C 0.3185 0.47392 0.46807 0.0
N80 N 0.32634 0.47503 0.41055 0.0
C81 C 0.26663 0.45905 0.38356 0.0
C82 C 0.25784 0.4574 0.44252 0.0
C83 C 0.28392 0.46499 0.48493 0.0
C84 C 0.30152 0.46813 0.36938 0.0
H85 H 0.3385 0.47988 0.50084 0.0
C86 C 0.42019 0.50948 0.48068 0.0
O87 O 0.47366 0.61546 0.43603 0.0
O88 O 0.4186 0.5946 0.46829 0.0
N89 N 0.34663 0.48071 0.30273 0.0
C90 C 0.35927 0.48301 0.24772 0.0
C91 C 0.33661 0.47677 0.20021 0.0
C92 C 0.3011 0.46771 0.20969 0.0
C93 C 0.28842 0.46449 0.26667 0.0
C94 C 0.31218 0.47085 0.31233 0.0
H95 H 0.38647 0.48987 0.24005 0.0
O96 O 0.41407 0.59164 0.34665 0.0
O97 O 0.38519 0.53671 0.37995 0.0
O98 O 0.4545 0.55527 0.34503 0.0
O99 O 0.41537 0.49666 0.33497 0.0
C100 C 0.25316 0.45531 0.27992 0.0
C101 C 0.24224 0.45247 0.33832 0.0
H102 H 0.23122 0.45061 0.45569 0.0
H103 H 0.2774 0.464 0.53051 0.0
H104 H 0.34653 0.47901 0.15637 0.0
H105 H 0.28377 0.46313 0.17293 0.0
H106 H 0.23425 0.45045 0.24554 0.0
H107 H 0.21511 0.44554 0.34797 0.0
Mn108 Mn 0.86028 0.42343 0.57311 0.0
Mn109 Mn 0.89052 0.36541 0.57897 0.0
C110 C 0.82702 0.36799 0.53176 0.0
C111 C 0.83005 0.44852 0.61776 0.0
C112 C 0.91941 0.42798 0.49586 0.0
O113 O 0.89935 0.44475 0.63333 0.0
O114 O 0.91345 0.40154 0.64188 0.0
C115 C 0.85906 0.33126 0.69153 0.0
N116 N 0.86283 0.32856 0.63333 0.0
C117 C 0.82379 0.26518 0.63584 0.0
C118 C 0.81968 0.26723 0.69588 0.0
C119 C 0.83737 0.30043 0.72382 0.0
C120 C 0.84598 0.29676 0.60602 0.0
H121 H 0.87245 0.35675 0.71309 0.0
C122 C 0.9163 0.43127 0.65717 0.0
O123 O 0.85321 0.46539 0.57717 0.0
O124 O 0.82466 0.41741 0.63254 0.0
N125 N 0.87057 0.32889 0.52117 0.0
C126 C 0.87582 0.33174 0.4626 0.0
C127 C 0.85942 0.301 0.42804 0.0
C128 C 0.83769 0.26772 0.45394 0.0
C129 C 0.83293 0.2654 0.51435 0.0
C130 C 0.8505 0.29686 0.54672 0.0
H131 H 0.89229 0.35726 0.44235 0.0
O132 O 0.82164 0.39383 0.51762 0.0
O133 O 0.8512 0.3752 0.57124 0.0
O134 O 0.89754 0.43851 0.50864 0.0
O135 O 0.9199 0.40196 0.52084 0.0
C136 C 0.81085 0.23324 0.54356 0.0
C137 C 0.80629 0.23312 0.60426 0.0
H138 H 0.8028 0.24354 0.72088 0.0
H139 H 0.8342 0.30225 0.77009 0.0
H140 H 0.86331 0.30299 0.38147 0.0
H141 H 0.82463 0.24416 0.42699 0.0
H142 H 0.7969 0.20849 0.51968 0.0
H143 H 0.78895 0.20827 0.62614 0.0
Mn144 Mn 0.4294 0.8585 0.7264 0.0
Mn145 Mn 0.51764 0.8882 0.72565 0.0
C146 C 0.45079 0.83128 0.66591 0.0
C147 C 0.37421 0.82344 0.76959 0.0
C148 C 0.48397 0.92524 0.66255 0.0
O149 O 0.44702 0.8892 0.79821 0.0
O150 O 0.5046 0.90408 0.79831 0.0
C151 C 0.51877 0.84442 0.82316 0.0
N152 N 0.52688 0.85562 0.76714 0.0
C153 C 0.55552 0.82101 0.75269 0.0
C154 C 0.54767 0.80924 0.81036 0.0
C155 C 0.52907 0.82087 0.84566 0.0
C156 C 0.54428 0.8442 0.73256 0.0
H157 H 0.50451 0.85337 0.85037 0.0
C158 C 0.47779 0.90436 0.82088 0.0
O159 O 0.38073 0.85119 0.7391 0.0
O160 O 0.39959 0.8161 0.77474 0.0
N161 N 0.53556 0.87582 0.65904 0.0
C162 C 0.54121 0.88987 0.60454 0.0
C163 C 0.56103 0.88237 0.56455 0.0
C164 C 0.57461 0.86029 0.58082 0.0
C165 C 0.56835 0.84603 0.63706 0.0
C166 C 0.54943 0.85541 0.67557 0.0
H167 H 0.53134 0.9073 0.59199 0.0
O168 O 0.4199 0.82821 0.65725 0.0
O169 O 0.46835 0.84963 0.71153 0.0
O170 O 0.45166 0.90285 0.67491 0.0
O171 O 0.51048 0.92286 0.68072 0.0
C172 C 0.58048 0.82321 0.65661 0.0
C173 C 0.57373 0.8104 0.71421 0.0
H174 H 0.55564 0.79114 0.8279 0.0
H175 H 0.52277 0.81178 0.89012 0.0
H176 H 0.56571 0.89346 0.52122 0.0
H177 H 0.58947 0.85417 0.54962 0.0
H178 H 0.5949 0.81523 0.62765 0.0
H179 H 0.58283 0.79255 0.72856 0.0
Mn180 Mn 0.57978 0.42851 0.88993 0.0
Mn181 Mn 0.61808 0.51759 0.88621 0.0
C182 C 0.6306 0.46088 0.83529 0.0
C183 C 0.57293 0.3787 0.9387 0.0
C184 C 0.55215 0.46778 0.817 0.0
O185 O 0.55589 0.43948 0.95596 0.0
O186 O 0.58755 0.49925 0.95678 0.0
C187 C 0.66454 0.53454 0.98925 0.0
N188 N 0.66067 0.53813 0.93138 0.0
C189 C 0.72336 0.57875 0.92027 0.0
C190 C 0.72804 0.57559 0.97979 0.0
C191 C 0.69851 0.55325 0.01436 0.0
C192 C 0.68896 0.55902 0.89754 0.0
H193 H 0.64187 0.51756 0.01602 0.0
C194 C 0.56387 0.46942 0.97794 0.0
O195 O 0.5484 0.37638 0.9036 0.0
O196 O 0.60097 0.40961 0.94535 0.0
N197 N 0.64863 0.53945 0.82092 0.0
C198 C 0.63954 0.53964 0.76434 0.0
C199 C 0.6658 0.56162 0.72432 0.0
C200 C 0.70102 0.58344 0.74297 0.0
C201 C 0.70982 0.58253 0.80131 0.0
C202 C 0.68249 0.56023 0.83924 0.0
H203 H 0.61237 0.5236 0.74999 0.0
O204 O 0.60992 0.42704 0.82671 0.0
O205 O 0.62143 0.4745 0.87769 0.0
O206 O 0.55131 0.4389 0.83037 0.0
O207 O 0.57478 0.4983 0.83727 0.0
C208 C 0.74459 0.60301 0.82336 0.0
C209 C 0.75142 0.60085 0.88267 0.0
H210 H 0.75415 0.59021 0.99941 0.0
H211 H 0.70191 0.55063 0.06032 0.0
H212 H 0.65883 0.56204 0.67933 0.0
H213 H 0.72117 0.60043 0.712 0.0
H214 H 0.7663 0.62045 0.79506 0.0
H215 H 0.7783 0.61655 0.89903 0.0
H216 H 0.07004 0.51074 0.95109 0.0
C217 C 0.06459 0.53236 0.95751 0.0
H218 H 0.03544 0.55639 0.92829 0.0
H219 H 0.01067 0.49282 0.67616 0.0
H220 H 0.05918 0.55264 0.6581 0.0
H221 H 0.0913 0.59307 0.73948 0.0
H222 H 0.07528 0.57378 0.83923 0.0
C223 C 0.04015 0.53416 0.92419 0.0
C224 C 0.02207 0.50876 0.87585 0.0
C225 C 0.03155 0.52059 0.81781 0.0
C226 C 0.01264 0.49755 0.77097 0.0
C227 C 0.02339 0.50965 0.71338 0.0
C228 C 0.05139 0.54382 0.7024 0.0
C229 C 0.0695 0.56656 0.7482 0.0
C230 C 0.05992 0.55519 0.80529 0.0
H231 H 0.94206 0.47667 0.717 0.0
C232 C 0.94039 0.45163 0.70508 0.0
H233 H 0.95841 0.41562 0.72434 0.0
H234 H 0.99795 0.47737 0.98208 0.0
H235 H 0.9504 0.41708 0.99991 0.0
H236 H 0.91765 0.37705 0.91848 0.0
H237 H 0.93222 0.39712 0.81868 0.0
C238 C 0.96028 0.44099 0.734 0.0
C239 C 0.98368 0.46303 0.78232 0.0
C240 C 0.97543 0.45054 0.84027 0.0
C241 C 0.99453 0.47353 0.88721 0.0
C242 C 0.98477 0.46087 0.94476 0.0
C243 C 0.95741 0.42635 0.95562 0.0
C244 C 0.93895 0.40382 0.90978 0.0
C245 C 0.94761 0.41567 0.85269 0.0
H246 H 0.45887 0.92362 0.89326 0.0
C247 C 0.48229 0.92416 0.87517 0.0
H248 H 0.538 0.94653 0.88248 0.0
H249 H 0.54607 0.08158 0.00716 0.0
H250 H 0.57619 0.10686 0.91624 0.0
H251 H 0.58008 0.0689 0.84023 0.0
H252 H 0.55361 0.00534 0.85465 0.0
C253 C 0.51393 0.94429 0.90095 0.0
C254 C 0.51701 0.96756 0.9507 0.0
C255 C 0.53382 0.00484 0.94241 0.0
C256 C 0.53208 0.0268 0.98663 0.0
C257 C 0.54735 0.0637 0.97584 0.0
C258 C 0.56457 0.07858 0.92361 0.0
C259 C 0.56672 0.05721 0.88079 0.0
C260 C 0.55143 0.02075 0.88969 0.0
H261 H 0.56279 0.05989 0.11152 0.0
C262 C 0.53664 0.05714 0.11677 0.0
H263 H 0.48298 0.02988 0.08921 0.0
H264 H 0.48684 0.89789 0.98359 0.0
H265 H 0.45761 0.87254 0.07545 0.0
H266 H 0.4541 0.9105 0.15193 0.0
H267 H 0.47992 0.97405 0.13712 0.0
C268 C 0.50948 0.03358 0.08386 0.0
C269 C 0.51423 0.01142 0.03956 0.0
C270 C 0.4989 0.97438 0.04885 0.0
C271 C 0.50053 0.95244 0.00454 0.0
C272 C 0.48557 0.9156 0.01532 0.0
C273 C 0.46894 0.90077 0.06797 0.0
C274 C 0.46699 0.92215 0.11105 0.0
C275 C 0.48183 0.95855 0.10193 0.0
H276 H 0.49386 0.54714 0.27072 0.0
C277 C 0.46918 0.5228 0.2805 0.0
H278 H 0.43624 0.46855 0.2584 0.0
H279 H 0.52214 0.53147 0.01216 0.0
H280 H 0.48313 0.55601 0.0013 0.0
H281 H 0.44335 0.5521 0.08102 0.0
H282 H 0.44247 0.52378 0.17211 0.0
C283 C 0.46058 0.49335 0.24963 0.0
C284 C 0.4835 0.49439 0.2008 0.0
C285 C 0.48351 0.51088 0.14763 0.0
C286 C 0.5062 0.51283 0.10149 0.0
C287 C 0.50558 0.52935 0.04879 0.0
C288 C 0.48323 0.54349 0.04188 0.0
C289 C 0.46086 0.54131 0.08677 0.0
C290 C 0.46078 0.52513 0.13901 0.0
H291 H 0.52267 0.44366 0.04545 0.0
C292 C 0.54407 0.46915 0.03023 0.0
H293 H 0.57164 0.52475 0.04339 0.0
H294 H 0.48895 0.46014 0.29635 0.0
H295 H 0.52816 0.43572 0.30768 0.0
H296 H 0.56859 0.4403 0.22857 0.0
H297 H 0.56995 0.46908 0.13763 0.0
C298 C 0.55105 0.49892 0.05881 0.0
C299 C 0.5284 0.49779 0.10825 0.0
C300 C 0.52842 0.48135 0.16152 0.0
C301 C 0.50562 0.47931 0.20758 0.0
C302 C 0.50589 0.46253 0.26012 0.0
C303 C 0.52827 0.44845 0.2672 0.0
C304 C 0.551 0.45097 0.22262 0.0
C305 C 0.55132 0.46734 0.17043 0.0
H306 H 0.96461 0.43724 0.44046 0.0
C307 C 0.94571 0.44617 0.44935 0.0
H308 H 0.92893 0.4826 0.42624 0.0
H309 H 0.0784 0.59151 0.3156 0.0
H310 H 0.07755 0.62404 0.40059 0.0
H311 H 0.02949 0.5958 0.47309 0.0
H312 H 0.98204 0.53481 0.4611 0.0
C313 C 0.94689 0.47255 0.41729 0.0
C314 C 0.97428 0.49017 0.3712 0.0
C315 C 0.0014 0.52608 0.37829 0.0
C316 C 0.02887 0.54251 0.33611 0.0
C317 C 0.05638 0.57799 0.34544 0.0
C318 C 0.05636 0.59692 0.39428 0.0
C319 C 0.02932 0.581 0.43513 0.0
C320 C 0.0022 0.54597 0.42762 0.0
H321 H 0.03882 0.57429 0.2123 0.0
C322 C 0.05793 0.56534 0.20605 0.0
H323 H 0.07484 0.52991 0.23459 0.0
H324 H 0.92384 0.42226 0.34064 0.0
H325 H 0.92464 0.3898 0.25561 0.0
H326 H 0.9731 0.41781 0.18373 0.0
H327 H 0.02092 0.47855 0.19635 0.0
C328 C 0.05689 0.54021 0.24133 0.0
C329 C 0.02879 0.52313 0.28644 0.0
C330 C 0.00149 0.48732 0.27908 0.0
C331 C 0.97392 0.47095 0.32109 0.0
C332 C 0.94611 0.43566 0.31123 0.0
C333 C 0.94606 0.41678 0.26227 0.0
C334 C 0.97331 0.43257 0.22177 0.0
C335 C 0.00066 0.46745 0.22967 0.0
H336 H 0.46571 0.04284 0.3666 0.0
C337 C 0.49432 0.05973 0.3618 0.0
H338 H 0.54472 0.07416 0.39717 0.0
H339 H 0.48667 0.01485 0.6482 0.0
H340 H 0.51546 0.07842 0.66572 0.0
H341 H 0.53823 0.12097 0.58423 0.0
H342 H 0.53227 0.10024 0.48474 0.0
C343 C 0.51608 0.05685 0.40006 0.0
C344 C 0.50183 0.03101 0.44883 0.0
C345 C 0.50579 0.04361 0.50669 0.0
C346 C 0.49298 0.01913 0.5537 0.0
C347 C 0.4966 0.03237 0.611 0.0
C348 C 0.51288 0.06876 0.62163 0.0
C349 C 0.52567 0.09272 0.57574 0.0
C350 C 0.52214 0.08046 0.51885 0.0
H351 H 0.51964 0.97359 0.61333 0.0
C352 C 0.49184 0.95451 0.62203 0.0
H353 H 0.43868 0.93667 0.59721 0.0
H354 H 0.49232 0.99789 0.34331 0.0
H355 H 0.46328 0.93448 0.32609 0.0
H356 H 0.43964 0.892 0.40755 0.0
H357 H 0.44514 0.91278 0.50677 0.0
C358 C 0.46654 0.9565 0.59158 0.0
C359 C 0.47664 0.98214 0.54274 0.0
C360 C 0.47206 0.96947 0.48484 0.0
C361 C 0.48509 0.99394 0.43781 0.0
C362 C 0.48193 0.98057 0.38063 0.0
C363 C 0.46554 0.94417 0.3701 0.0
C364 C 0.45228 0.92026 0.41595 0.0
C365 C 0.45557 0.93259 0.47273 0.0
H366 H 0.5276 0.45227 0.73095 0.0
C367 C 0.52864 0.46661 0.77025 0.0
H368 H 0.51227 0.49841 0.81356 0.0
H369 H 0.48916 0.57286 0.5986 0.0
H370 H 0.52573 0.6217 0.66297 0.0
H371 H 0.5498 0.61159 0.75334 0.0
H372 H 0.53668 0.55267 0.78062 0.0
C373 C 0.51112 0.48476 0.77338 0.0
C374 C 0.4941 0.49038 0.72105 0.0
C375 C 0.50332 0.52552 0.7048 0.0
C376 C 0.4909 0.53164 0.65128 0.0
C377 C 0.49896 0.56674 0.63756 0.0
C378 C 0.51981 0.5951 0.67429 0.0
C379 C 0.53325 0.58939 0.72522 0.0
C380 C 0.52531 0.55517 0.74045 0.0
H381 H 0.40651 0.476 0.55924 0.0
C382 C 0.42837 0.4968 0.53463 0.0
H383 H 0.48346 0.53175 0.52864 0.0
H384 H 0.46108 0.41934 0.74714 0.0
H385 H 0.42723 0.37045 0.68056 0.0
H386 H 0.41618 0.38194 0.57994 0.0
H387 H 0.43718 0.44202 0.54644 0.0
C388 C 0.46195 0.51102 0.55399 0.0
C389 C 0.47105 0.50302 0.61243 0.0
C390 C 0.46131 0.46783 0.62913 0.0
C391 C 0.47089 0.46139 0.68502 0.0
C392 C 0.45702 0.42578 0.70348 0.0
C393 C 0.43723 0.39749 0.66595 0.0
C394 C 0.4308 0.40395 0.60946 0.0
C395 C 0.44268 0.43864 0.59098 0.0
H396 H 0.2242 0.60015 0.22127 0.0
C397 C 0.20839 0.5781 0.19208 0.0
H398 H 0.20065 0.52945 0.158 0.0
H399 H 0.36754 0.59942 0.22371 0.0
H400 H 0.37292 0.6149 0.12187 0.0
H401 H 0.31997 0.6015 0.0637 0.0
H402 H 0.2613 0.57291 0.10762 0.0
C403 C 0.21497 0.55109 0.18856 0.0
C404 C 0.24535 0.5529 0.22117 0.0
C405 C 0.27914 0.56792 0.19427 0.0
C406 C 0.30944 0.57429 0.22727 0.0
C407 C 0.34329 0.59207 0.20023 0.0
C408 C 0.34685 0.60155 0.14181 0.0
C409 C 0.31707 0.59412 0.10911 0.0
C410 C 0.28357 0.57771 0.13488 0.0
H411 H 0.35013 0.53918 0.2684 0.0
C412 C 0.3558 0.55434 0.30809 0.0
H413 H 0.34265 0.58533 0.36152 0.0
H414 H 0.18382 0.52131 0.28404 0.0
H415 H 0.17761 0.5041 0.38564 0.0
H416 H 0.22978 0.51401 0.44294 0.0
H417 H 0.28829 0.54077 0.39913 0.0
C418 C 0.33677 0.56989 0.32172 0.0
C419 C 0.30548 0.56396 0.28659 0.0
C420 C 0.27141 0.54817 0.31307 0.0
C421 C 0.24131 0.54254 0.2802 0.0
C422 C 0.20756 0.52649 0.30739 0.0
C423 C 0.20363 0.51642 0.36555 0.0
C424 C 0.23301 0.52202 0.39782 0.0
C425 C 0.26652 0.53759 0.37212 0.0
H426 H 0.64028 0.22144 0.36999 0.0
C427 C 0.64246 0.20014 0.34914 0.0
H428 H 0.6751 0.17769 0.33448 0.0
H429 H 0.81492 0.3274 0.36924 0.0
H430 H 0.8224 0.3109 0.27187 0.0
H431 H 0.7754 0.25604 0.22617 0.0
H432 H 0.72084 0.21726 0.27771 0.0
C433 C 0.6722 0.19827 0.35632 0.0
C434 C 0.70323 0.22713 0.38787 0.0
C435 C 0.73512 0.24928 0.35719 0.0
C436 C 0.76203 0.28113 0.38325 0.0
C437 C 0.79344 0.30306 0.35135 0.0
C438 C 0.79813 0.29389 0.29544 0.0
C439 C 0.7717 0.26299 0.26976 0.0
C440 C 0.74046 0.24093 0.29992 0.0
H441 H 0.79902 0.30915 0.53471 0.0
C442 C 0.80287 0.33187 0.50977 0.0
H443 H 0.7867 0.34947 0.4369 0.0
H444 H 0.65003 0.18562 0.46351 0.0
H445 H 0.64242 0.20146 0.56157 0.0
H446 H 0.68622 0.2592 0.60394 0.0
H447 H 0.73808 0.30089 0.54947 0.0
C448 C 0.78286 0.32675 0.4624 0.0
C449 C 0.75703 0.29078 0.43985 0.0
C450 C 0.72612 0.26738 0.47202 0.0
C451 C 0.69976 0.235 0.44648 0.0
C452 C 0.66998 0.21124 0.48015 0.0
C453 C 0.66543 0.21989 0.53652 0.0
C454 C 0.69018 0.25232 0.56045 0.0
C455 C 0.7201 0.27595 0.52873 0.0
H456 H 0.44729 0.80096 0.58855 0.0
C457 C 0.45939 0.80808 0.63135 0.0
H458 H 0.4808 0.7934 0.6996 0.0
H459 H 0.42464 0.63434 0.63559 0.0
H460 H 0.4091 0.63239 0.73714 0.0
H461 H 0.41958 0.68669 0.78819 0.0
H462 H 0.44592 0.74302 0.73886 0.0
C463 C 0.4725 0.78871 0.65469 0.0
C464 C 0.46879 0.75631 0.62462 0.0
C465 C 0.45268 0.72321 0.65463 0.0
C466 C 0.44545 0.69154 0.62481 0.0
C467 C 0.42996 0.65901 0.65584 0.0
C468 C 0.42099 0.6575 0.7142 0.0
C469 C 0.42698 0.68808 0.74295 0.0
C470 C 0.44246 0.72051 0.71383 0.0
H471 H 0.49278 0.66948 0.50948 0.0
C472 C 0.46438 0.65083 0.50703 0.0
H473 H 0.41301 0.63994 0.53115 0.0
H474 H 0.50582 0.81512 0.55601 0.0
H475 H 0.51962 0.81658 0.45413 0.0
H476 H 0.50069 0.7609 0.40006 0.0
H477 H 0.4693 0.70408 0.4484 0.0
C478 C 0.44141 0.65867 0.53289 0.0
C479 C 0.45328 0.69259 0.56488 0.0
C480 C 0.46995 0.72557 0.53503 0.0
C481 C 0.47884 0.75752 0.56537 0.0
C482 C 0.49744 0.7901 0.53504 0.0
C483 C 0.50553 0.79127 0.47633 0.0
C484 C 0.49502 0.75999 0.44602 0.0
C485 C 0.47725 0.72746 0.47466 0.0
H486 H 0.68893 0.49618 0.83541 0.0
C487 C 0.66635 0.47839 0.80871 0.0
H488 H 0.64804 0.44682 0.7338 0.0
H489 H 0.8242 0.5228 0.70001 0.0
H490 H 0.82648 0.57977 0.69633 0.0
H491 H 0.77246 0.58375 0.71281 0.0
H492 H 0.71607 0.53064 0.73552 0.0
C493 C 0.67127 0.46493 0.75914 0.0
C494 C 0.70432 0.46348 0.74758 0.0
C495 C 0.73662 0.49421 0.732 0.0
C496 C 0.76722 0.49153 0.71864 0.0
C497 C 0.79973 0.52306 0.70732 0.0
C498 C 0.80147 0.55595 0.70561 0.0
C499 C 0.77109 0.55822 0.71527 0.0
C500 C 0.73901 0.52776 0.72847 0.0
H501 H 0.80115 0.47822 0.61524 0.0
C502 C 0.80841 0.46258 0.64286 0.0
H503 H 0.80309 0.43816 0.72376 0.0
H504 H 0.64787 0.3996 0.78252 0.0
H505 H 0.64469 0.34248 0.78189 0.0
H506 H 0.69577 0.33683 0.74953 0.0
H507 H 0.7504 0.38831 0.71886 0.0
C508 C 0.79504 0.45345 0.69677 0.0
C509 C 0.76475 0.45769 0.71701 0.0
C510 C 0.73251 0.42693 0.73336 0.0
C511 C 0.70257 0.42995 0.74976 0.0
C512 C 0.67116 0.39891 0.76791 0.0
C513 C 0.66895 0.36583 0.76802 0.0
C514 C 0.69772 0.36267 0.75 0.0
C515 C 0.72911 0.39267 0.73273 0.0
H516 H 0.31753 0.80554 0.78635 0.0
C517 C 0.33931 0.80102 0.79713 0.0
H518 H 0.3559 0.77049 0.84496 0.0
H519 H 0.20686 0.73446 0.98195 0.0
H520 H 0.23561 0.79698 0.00511 0.0
H521 H 0.29445 0.83896 0.96443 0.0
H522 H 0.32432 0.81853 0.89954 0.0
C523 C 0.33424 0.77537 0.83501 0.0
C524 C 0.29877 0.75043 0.86024 0.0
C525 C 0.28217 0.76256 0.89991 0.0
C526 C 0.24892 0.73797 0.92554 0.0
C527 C 0.23238 0.75139 0.9626 0.0
C528 C 0.24862 0.78741 0.97616 0.0
C529 C 0.2817 0.81105 0.95318 0.0
C530 C 0.29844 0.79893 0.9156 0.0
H531 H 0.21498 0.69128 0.02827 0.0
C532 C 0.19514 0.67101 0.00014 0.0
H533 H 0.17979 0.6521 0.91584 0.0
H534 H 0.3226 0.71896 0.78331 0.0
H535 H 0.29629 0.65595 0.76457 0.0
H536 H 0.24184 0.61246 0.81565 0.0
H537 H 0.21316 0.63155 0.88465 0.0
C538 C 0.19928 0.67383 0.94227 0.0
C539 C 0.23318 0.7009 0.91379 0.0
C540 C 0.25039 0.68888 0.87469 0.0
C541 C 0.2827 0.71375 0.8471 0.0
C542 C 0.29856 0.70116 0.80673 0.0
C543 C 0.28371 0.66503 0.79536 0.0
C544 C 0.25301 0.64059 0.82394 0.0
C545 C 0.23654 0.65213 0.86325 0.0
H546 H 0.59241 0.35302 0.99821 0.0
C547 C 0.56997 0.34817 0.97095 0.0
H548 H 0.51893 0.30955 0.94122 0.0
H549 H 0.55625 0.18791 0.00039 0.0
H550 H 0.54719 0.18122 0.89627 0.0
H551 H 0.53554 0.22268 0.84008 0.0
H552 H 0.53258 0.27095 0.88793 0.0
C553 C 0.54135 0.31544 0.96921 0.0
C554 C 0.54128 0.28647 0.00391 0.0
C555 C 0.54273 0.25835 0.97538 0.0
C556 C 0.54983 0.23469 0.00775 0.0
C557 C 0.55132 0.20691 0.978 0.0
C558 C 0.5461 0.2027 0.91819 0.0
C559 C 0.5395 0.22602 0.88657 0.0
C560 C 0.53792 0.25364 0.91456 0.0
H561 H 0.52041 0.19616 0.1567 0.0
C562 C 0.54337 0.19425 0.14413 0.0
H563 H 0.58764 0.2137 0.08828 0.0
H564 H 0.5312 0.33183 0.07308 0.0
H565 H 0.54094 0.33956 0.17722 0.0
H566 H 0.55993 0.30319 0.23225 0.0
H567 H 0.5683 0.25843 0.18407 0.0
C568 C 0.56442 0.21525 0.10151 0.0
C569 C 0.55545 0.23925 0.06861 0.0
C570 C 0.55274 0.26675 0.09744 0.0
C571 C 0.54423 0.2894 0.06524 0.0
C572 C 0.53934 0.3151 0.09528 0.0
C573 C 0.54461 0.31965 0.15501 0.0
C574 C 0.55511 0.29906 0.18601 0.0
C575 C 0.55938 0.27306 0.15779 0.0
loop_
_geom_bond_atom_site_label_1
_geom_bond_atom_site_label_2
_geom_bond_distance
_geom_bond_site_symmetry_2
_ccdc_geom_bond_type
Mn0 O5 2.095 . S
Mn0 O15 2.162 . S
Mn0 O16 2.297 . S
Mn0 O24 2.385 . S
Mn0 O25 2.209 . S
Mn0 O26 2.094 . S
Mn1 O6 2.121 . S
Mn1 N8 2.257 . S
Mn1 N17 2.282 1_554 S
Mn1 O25 2.215 . S
Mn1 O27 2.112 1_554 S
C2 O24 1.234 . S
C2 O25 1.283 . S
C3 O15 1.281 . S
C3 O16 1.236 . S
C4 O26 1.240 1_556 S
C4 O27 1.266 . S
O5 Mn0 2.095 . S
O5 C14 1.250 . S
O6 Mn1 2.121 . S
O6 C14 1.258 . S
C7 N8 1.326 . S
C7 C11 1.460 . S
C7 H13 0.929 . S
N8 Mn1 2.257 . S
N8 C7 1.326 . S
N8 C12 1.362 . S
C9 C10 1.258 . S
C9 C12 1.431 . S
C9 C29 1.449 1_554 S
C10 C9 1.258 . S
C10 C11 1.477 . S
C10 H30 0.931 . S
C11 C7 1.460 . S
C11 C10 1.477 . S
C11 H31 0.930 . S
C12 N8 1.362 . S
C12 C9 1.431 . S
C12 C22 1.476 1_554 S
H13 C7 0.929 . S
C14 O5 1.250 . S
C14 O6 1.258 . S
O15 Mn0 2.162 . S
O15 C3 1.281 . S
O16 Mn0 2.297 . S
O16 C3 1.236 . S
N17 Mn1 2.282 1_556 S
N17 C18 1.328 . S
N17 C22 1.318 . S
C18 N17 1.328 . S
C18 C19 1.457 . S
C18 H23 0.929 . S
C19 C18 1.457 . S
C19 C20 1.291 . S
C19 H32 0.931 . S
C20 C19 1.291 . S
C20 C21 1.373 . S
C20 H33 0.929 . S
C21 C20 1.373 . S
C21 C22 1.396 . S
C21 C28 1.403 . S
C22 C12 1.476 1_556 S
C22 N17 1.318 . S
C22 C21 1.396 . S
H23 C18 0.929 . S
O24 Mn0 2.385 . S
O24 C2 1.234 . S
O25 Mn0 2.209 . S
O25 Mn1 2.215 . S
O25 C2 1.283 . S
O26 Mn0 2.094 . S
O26 C4 1.240 1_554 S
O27 Mn1 2.112 1_556 S
O27 C4 1.266 . S
C28 C21 1.403 . S
C28 C29 1.399 . S
C28 H34 0.929 . S
C29 C9 1.449 1_556 S
C29 C28 1.399 . S
C29 H35 0.930 . S
H30 C10 0.931 . S
H31 C11 0.930 . S
H32 C19 0.931 . S
H33 C20 0.929 . S
H34 C28 0.929 . S
H35 C29 0.930 . S
Mn36 O41 2.095 . S
Mn36 O51 2.162 . S
Mn36 O52 2.297 . S
Mn36 O60 2.385 . S
Mn36 O61 2.209 . S
Mn36 O62 2.094 . S
Mn37 O42 2.121 . S
Mn37 N44 2.257 . S
Mn37 N53 2.282 . S
Mn37 O61 2.215 . S
Mn37 O63 2.117 . S
C38 O60 1.234 . S
C38 O61 1.283 . S
C39 O51 1.281 . S
C39 O52 1.236 . S
C40 O62 1.240 . S
C40 O63 1.264 . S
O41 Mn36 2.095 . S
O41 C50 1.250 . S
O42 Mn37 2.121 . S
O42 C50 1.258 . S
C43 N44 1.326 . S
C43 C47 1.460 . S
C43 H49 0.929 . S
N44 Mn37 2.257 . S
N44 C43 1.326 . S
N44 C48 1.362 . S
C45 C46 1.258 . S
C45 C48 1.431 . S
C45 C65 1.449 . S
C46 C45 1.258 . S
C46 C47 1.477 . S
C46 H66 0.931 . S
C47 C43 1.460 . S
C47 C46 1.477 . S
C47 H67 0.930 . S
C48 N44 1.362 . S
C48 C45 1.431 . S
C48 C58 1.476 . S
H49 C43 0.929 . S
C50 O41 1.250 . S
C50 O42 1.258 . S
O51 Mn36 2.162 . S
O51 C39 1.281 . S
O52 Mn36 2.297 . S
O52 C39 1.236 . S
N53 Mn37 2.282 . S
N53 C54 1.328 . S
N53 C58 1.318 . S
C54 N53 1.328 . S
C54 C55 1.457 . S
C54 H59 0.929 . S
C55 C54 1.457 . S
C55 C56 1.291 . S
C55 H68 0.931 . S
C56 C55 1.291 . S
C56 C57 1.373 . S
C56 H69 0.929 . S
C57 C56 1.373 . S
C57 C58 1.396 . S
C57 C64 1.403 . S
C58 C48 1.476 . S
C58 N53 1.318 . S
C58 C57 1.396 . S
H59 C54 0.929 . S
O60 Mn36 2.385 . S
O60 C38 1.234 . S
O61 Mn36 2.209 . S
O61 Mn37 2.215 . S
O61 C38 1.283 . S
O62 Mn36 2.094 . S
O62 C40 1.240 . S
O63 Mn37 2.117 . S
O63 C40 1.264 . S
C64 C57 1.403 . S
C64 C65 1.399 . S
C64 H70 0.929 . S
C65 C45 1.449 . S
C65 C64 1.399 . S
C65 H71 0.930 . S
H66 C46 0.931 . S
H67 C47 0.930 . S
H68 C55 0.931 . S
H69 C56 0.929 . S
H70 C64 0.929 . S
H71 C65 0.930 . S
Mn72 O77 2.095 . S
Mn72 O87 2.162 . S
Mn72 O88 2.297 . S
Mn72 O96 2.385 . S
Mn72 O97 2.209 . S
Mn72 O98 2.094 . S
Mn73 O78 2.121 . S
Mn73 N80 2.257 . S
Mn73 N89 2.282 . S
Mn73 O97 2.215 . S
Mn73 O99 2.117 . S
C74 O96 1.234 . S
C74 O97 1.283 . S
C75 O87 1.281 . S
C75 O88 1.236 . S
C76 O98 1.240 . S
C76 O99 1.264 . S
O77 Mn72 2.095 . S
O77 C86 1.250 . S
O78 Mn73 2.121 . S
O78 C86 1.258 . S
C79 N80 1.326 . S
C79 C83 1.460 . S
C79 H85 0.929 . S
N80 Mn73 2.257 . S
N80 C79 1.326 . S
N80 C84 1.362 . S
C81 C82 1.258 . S
C81 C84 1.431 . S
C81 C101 1.449 . S
C82 C81 1.258 . S
C82 C83 1.477 . S
C82 H102 0.931 . S
C83 C79 1.460 . S
C83 C82 1.477 . S
C83 H103 0.930 . S
C84 N80 1.362 . S
C84 C81 1.431 . S
C84 C94 1.476 . S
H85 C79 0.929 . S
C86 O77 1.250 . S
C86 O78 1.258 . S
O87 Mn72 2.162 . S
O87 C75 1.281 . S
O88 Mn72 2.297 . S
O88 C75 1.236 . S
N89 Mn73 2.282 . S
N89 C90 1.328 . S
N89 C94 1.318 . S
C90 N89 1.328 . S
C90 C91 1.457 . S
C90 H95 0.929 . S
C91 C90 1.457 . S
C91 C92 1.291 . S
C91 H104 0.931 . S
C92 C91 1.291 . S
C92 C93 1.373 . S
C92 H105 0.929 . S
C93 C92 1.373 . S
C93 C94 1.396 . S
C93 C100 1.403 . S
C94 C84 1.476 . S
C94 N89 1.318 . S
C94 C93 1.396 . S
H95 C90 0.929 . S
O96 Mn72 2.385 . S
O96 C74 1.234 . S
O97 Mn72 2.209 . S
O97 Mn73 2.215 . S
O97 C74 1.283 . S
O98 Mn72 2.094 . S
O98 C76 1.240 . S
O99 Mn73 2.117 . S
O99 C76 1.264 . S
C100 C93 1.403 . S
C100 C101 1.399 . S
C100 H106 0.929 . S
C101 C81 1.449 . S
C101 C100 1.399 . S
C101 H107 0.930 . S
H102 C82 0.931 . S
H103 C83 0.930 . S
H104 C91 0.931 . S
H105 C92 0.929 . S
H106 C100 0.929 . S
H107 C101 0.930 . S
Mn108 O113 2.095 . S
Mn108 O123 2.162 . S
Mn108 O124 2.297 . S
Mn108 O132 2.385 . S
Mn108 O133 2.209 . S
Mn108 O134 2.094 . S
Mn109 O114 2.121 . S
Mn109 N116 2.257 . S
Mn109 N125 2.282 . S
Mn109 O133 2.215 . S
Mn109 O135 2.117 . S
C110 O132 1.234 . S
C110 O133 1.283 . S
C111 O123 1.281 . S
C111 O124 1.236 . S
C112 O134 1.240 . S
C112 O135 1.264 . S
O113 Mn108 2.095 . S
O113 C122 1.250 . S
O114 Mn109 2.121 . S
O114 C122 1.258 . S
C115 N116 1.326 . S
C115 C119 1.460 . S
C115 H121 0.929 . S
N116 Mn109 2.257 . S
N116 C115 1.326 . S
N116 C120 1.362 . S
C117 C118 1.258 . S
C117 C120 1.431 . S
C117 C137 1.449 . S
C118 C117 1.258 . S
C118 C119 1.477 . S
C118 H138 0.931 . S
C119 C115 1.460 . S
C119 C118 1.477 . S
C119 H139 0.930 . S
C120 N116 1.362 . S
C120 C117 1.431 . S
C120 C130 1.476 . S
H121 C115 0.929 . S
C122 O113 1.250 . S
C122 O114 1.258 . S
O123 Mn108 2.162 . S
O123 C111 1.281 . S
O124 Mn108 2.297 . S
O124 C111 1.236 . S
N125 Mn109 2.282 . S
N125 C126 1.328 . S
N125 C130 1.318 . S
C126 N125 1.328 . S
C126 C127 1.457 . S
C126 H131 0.929 . S
C127 C126 1.457 . S
C127 C128 1.291 . S
C127 H140 0.931 . S
C128 C127 1.291 . S
C128 C129 1.373 . S
C128 H141 0.929 . S
C129 C128 1.373 . S
C129 C130 1.396 . S
C129 C136 1.403 . S
C130 C120 1.476 . S
C130 N125 1.318 . S
C130 C129 1.396 . S
H131 C126 0.929 . S
O132 Mn108 2.385 . S
O132 C110 1.234 . S
O133 Mn108 2.209 . S
O133 Mn109 2.215 . S
O133 C110 1.283 . S
O134 Mn108 2.094 . S
O134 C112 1.240 . S
O135 Mn109 2.117 . S
O135 C112 1.264 . S
C136 C129 1.403 . S
C136 C137 1.399 . S
C136 H142 0.929 . S
C137 C117 1.449 . S
C137 C136 1.399 . S
C137 H143 0.930 . S
H138 C118 0.931 . S
H139 C119 0.930 . S
H140 C127 0.931 . S
H141 C128 0.929 . S
H142 C136 0.929 . S
H143 C137 0.930 . S
Mn144 O149 2.095 . S
Mn144 O159 2.162 . S
Mn144 O160 2.297 . S
Mn144 O168 2.385 . S
Mn144 O169 2.209 . S
Mn144 O170 2.094 . S
Mn145 O150 2.121 . S
Mn145 N152 2.257 . S
Mn145 N161 2.282 . S
Mn145 O169 2.215 . S
Mn145 O171 2.117 . S
C146 O168 1.234 . S
C146 O169 1.283 . S
C147 O159 1.281 . S
C147 O160 1.236 . S
C148 O170 1.240 . S
C148 O171 1.264 . S
O149 Mn144 2.095 . S
O149 C158 1.250 . S
O150 Mn145 2.121 . S
O150 C158 1.258 . S
C151 N152 1.326 . S
C151 C155 1.460 . S
C151 H157 0.929 . S
N152 Mn145 2.257 . S
N152 C151 1.326 . S
N152 C156 1.362 . S
C153 C154 1.258 . S
C153 C156 1.431 . S
C153 C173 1.449 . S
C154 C153 1.258 . S
C154 C155 1.477 . S
C154 H174 0.931 . S
C155 C151 1.460 . S
C155 C154 1.477 . S
C155 H175 0.930 . S
C156 N152 1.362 . S
C156 C153 1.431 . S
C156 C166 1.476 . S
H157 C151 0.929 . S
C158 O149 1.250 . S
C158 O150 1.258 . S
O159 Mn144 2.162 . S
O159 C147 1.281 . S
O160 Mn144 2.297 . S
O160 C147 1.236 . S
N161 Mn145 2.282 . S
N161 C162 1.328 . S
N161 C166 1.318 . S
C162 N161 1.328 . S
C162 C163 1.457 . S
C162 H167 0.929 . S
C163 C162 1.457 . S
C163 C164 1.291 . S
C163 H176 0.931 . S
C164 C163 1.291 . S
C164 C165 1.373 . S
C164 H177 0.929 . S
C165 C164 1.373 . S
C165 C166 1.396 . S
C165 C172 1.403 . S
C166 C156 1.476 . S
C166 N161 1.318 . S
C166 C165 1.396 . S
H167 C162 0.929 . S
O168 Mn144 2.385 . S
O168 C146 1.234 . S
O169 Mn144 2.209 . S
O169 Mn145 2.215 . S
O169 C146 1.283 . S
O170 Mn144 2.094 . S
O170 C148 1.240 . S
O171 Mn145 2.117 . S
O171 C148 1.264 . S
C172 C165 1.403 . S
C172 C173 1.399 . S
C172 H178 0.929 . S
C173 C153 1.449 . S
C173 C172 1.399 . S
C173 H179 0.930 . S
H174 C154 0.931 . S
H175 C155 0.930 . S
H176 C163 0.931 . S
H177 C164 0.929 . S
H178 C172 0.929 . S
H179 C173 0.930 . S
Mn180 O185 2.095 . S
Mn180 O195 2.162 . S
Mn180 O196 2.297 . S
Mn180 O204 2.385 . S
Mn180 O205 2.209 . S
Mn180 O206 2.094 . S
Mn181 O186 2.121 . S
Mn181 N188 2.257 . S
Mn181 N197 2.282 . S
Mn181 O205 2.215 . S
Mn181 O207 2.117 . S
C182 O204 1.234 . S
C182 O205 1.283 . S
C183 O195 1.281 . S
C183 O196 1.236 . S
C184 O206 1.240 . S
C184 O207 1.264 . S
O185 Mn180 2.095 . S
O185 C194 1.250 . S
O186 Mn181 2.121 . S
O186 C194 1.258 . S
C187 N188 1.326 . S
C187 C191 1.460 . S
C187 H193 0.929 . S
N188 Mn181 2.257 . S
N188 C187 1.326 . S
N188 C192 1.362 . S
C189 C190 1.258 . S
C189 C192 1.431 . S
C189 C209 1.449 . S
C190 C189 1.258 . S
C190 C191 1.477 . S
C190 H210 0.931 . S
C191 C187 1.460 . S
C191 C190 1.477 . S
C191 H211 0.930 1_556 S
C192 N188 1.362 . S
C192 C189 1.431 . S
C192 C202 1.476 . S
H193 C187 0.929 . S
C194 O185 1.250 . S
C194 O186 1.258 . S
O195 Mn180 2.162 . S
O195 C183 1.281 . S
O196 Mn180 2.297 . S
O196 C183 1.236 . S
N197 Mn181 2.282 . S
N197 C198 1.328 . S
N197 C202 1.318 . S
C198 N197 1.328 . S
C198 C199 1.457 . S
C198 H203 0.929 . S
C199 C198 1.457 . S
C199 C200 1.291 . S
C199 H212 0.931 . S
C200 C199 1.291 . S
C200 C201 1.373 . S
C200 H213 0.929 . S
C201 C200 1.373 . S
C201 C202 1.396 . S
C201 C208 1.403 . S
C202 C192 1.476 . S
C202 N197 1.318 . S
C202 C201 1.396 . S
H203 C198 0.929 . S
O204 Mn180 2.385 . S
O204 C182 1.234 . S
O205 Mn180 2.209 . S
O205 Mn181 2.215 . S
O205 C182 1.283 . S
O206 Mn180 2.094 . S
O206 C184 1.240 . S
O207 Mn181 2.117 . S
O207 C184 1.264 . S
C208 C201 1.403 . S
C208 C209 1.399 . S
C208 H214 0.929 . S
C209 C189 1.449 . S
C209 C208 1.399 . S
C209 H215 0.930 . S
H210 C190 0.931 . S
H211 C191 0.930 1_554 S
H212 C199 0.931 . S
H213 C200 0.929 . S
H214 C208 0.929 . S
H215 C209 0.930 . S
H216 C217 0.951 . S
C217 H216 0.951 . S
C217 C223 1.265 . S
H218 C223 0.950 . S
H219 C227 0.949 . S
H220 C228 0.950 . S
H221 C229 0.951 . S
H222 C230 0.951 . S
C223 C217 1.265 . S
C223 H218 0.950 . S
C223 C224 1.478 . S
C224 C223 1.478 . S
C224 C225 1.397 . S
C224 C241 1.394 . S
C225 C224 1.397 . S
C225 C226 1.438 1_455 S
C225 C230 1.429 . S
C226 C225 1.438 1_655 S
C226 C227 1.428 . S
C226 C239 1.394 . S
C227 H219 0.949 . S
C227 C226 1.428 . S
C227 C228 1.345 1_655 S
C228 H220 0.950 . S
C228 C227 1.345 1_455 S
C228 C229 1.424 . S
C229 H221 0.951 . S
C229 C228 1.424 . S
C229 C230 1.347 . S
C230 H222 0.951 . S
C230 C225 1.429 . S
C230 C229 1.347 . S
H231 C232 0.951 . S
C232 H231 0.951 . S
C232 C238 1.265 . S
H233 C238 0.950 . S
H234 C242 0.949 . S
H235 C243 0.950 . S
H236 C244 0.951 . S
H237 C245 0.951 . S
C238 C232 1.265 . S
C238 H233 0.950 . S
C238 C239 1.478 . S
C239 C226 1.394 . S
C239 C238 1.478 . S
C239 C240 1.397 . S
C240 C239 1.397 . S
C240 C241 1.436 1_655 S
C240 C245 1.429 . S
C241 C224 1.394 . S
C241 C240 1.436 1_455 S
C241 C242 1.429 . S
C242 H234 0.949 . S
C242 C241 1.429 . S
C242 C243 1.345 1_455 S
C243 H235 0.950 . S
C243 C242 1.345 1_655 S
C243 C244 1.424 . S
C244 H236 0.951 . S
C244 C243 1.424 . S
C244 C245 1.347 . S
C245 H237 0.951 . S
C245 C240 1.429 . S
C245 C244 1.347 . S
H246 C247 0.951 . S
C247 H246 0.951 . S
C247 C253 1.265 . S
H248 C253 0.950 . S
H249 C257 0.949 1_554 S
H250 C258 0.950 . S
H251 C259 0.951 . S
H252 C260 0.945 1_565 S
C253 C247 1.265 . S
C253 H248 0.950 . S
C253 C254 1.478 . S
C254 C253 1.478 . S
C254 C255 1.397 . S
C254 C271 1.394 . S
C255 C254 1.397 . S
C255 C256 1.438 1_565 S
C255 C260 1.432 1_565 S
C256 C255 1.438 1_545 S
C256 C257 1.428 . S
C256 C269 1.394 1_556 S
C257 H249 0.949 1_556 S
C257 C256 1.428 . S
C257 C258 1.345 . S
C258 H250 0.950 . S
C258 C257 1.345 . S
C258 C259 1.424 . S
C259 H251 0.951 . S
C259 C258 1.424 . S
C259 C260 1.350 . S
C260 H252 0.945 1_545 S
C260 C255 1.432 1_545 S
C260 C259 1.350 . S
H261 C262 0.951 . S
C262 H261 0.951 . S
C262 C268 1.265 . S
H263 C268 0.950 . S
H264 C272 0.949 . S
H265 C273 0.950 . S
H266 C274 0.951 . S
H267 C275 0.951 1_545 S
C268 C262 1.265 . S
C268 H263 0.950 . S
C268 C269 1.478 . S
C269 C256 1.394 1_554 S
C269 C268 1.478 . S
C269 C270 1.397 1_545 S
C270 C269 1.397 1_565 S
C270 C271 1.438 1_554 S
C270 C275 1.429 . S
C271 C254 1.394 . S
C271 C270 1.438 1_556 S
C271 C272 1.428 . S
C272 H264 0.949 . S
C272 C271 1.428 . S
C272 C273 1.345 1_556 S
C273 H265 0.950 . S
C273 C272 1.345 1_554 S
C273 C274 1.424 . S
C274 H266 0.951 . S
C274 C273 1.424 . S
C274 C275 1.347 . S
C275 H267 0.951 1_565 S
C275 C270 1.429 . S
C275 C274 1.347 . S
H276 C277 0.951 . S
C277 H276 0.951 . S
C277 C283 1.265 . S
H278 C283 0.950 . S
H279 C287 0.949 . S
H280 C288 0.950 1_556 S
H281 C289 0.951 . S
H282 C290 0.951 . S
C283 C277 1.265 . S
C283 H278 0.950 . S
C283 C284 1.478 . S
C284 C283 1.478 . S
C284 C285 1.397 . S
C284 C301 1.394 . S
C285 C284 1.397 . S
C285 C286 1.438 . S
C285 C290 1.429 . S
C286 C285 1.438 . S
C286 C287 1.428 . S
C286 C299 1.394 . S
C287 H279 0.949 . S
C287 C286 1.428 . S
C287 C288 1.345 . S
C288 H280 0.950 1_554 S
C288 C287 1.345 . S
C288 C289 1.424 . S
C289 H281 0.951 . S
C289 C288 1.424 . S
C289 C290 1.347 . S
C290 H282 0.951 . S
C290 C285 1.429 . S
C290 C289 1.347 . S
H291 C292 0.951 . S
C292 H291 0.951 . S
C292 C298 1.265 . S
H293 C298 0.950 . S
H294 C302 0.949 . S
H295 C303 0.950 . S
H296 C304 0.951 . S
H297 C305 0.951 . S
C298 C292 1.265 . S
C298 H293 0.950 . S
C298 C299 1.478 . S
C299 C286 1.394 . S
C299 C298 1.478 . S
C299 C300 1.397 . S
C300 C299 1.397 . S
C300 C301 1.438 . S
C300 C305 1.429 . S
C301 C284 1.394 . S
C301 C300 1.438 . S
C301 C302 1.428 . S
C302 H294 0.949 . S
C302 C301 1.428 . S
C302 C303 1.345 . S
C303 H295 0.950 . S
C303 C302 1.345 . S
C303 C304 1.424 . S
C304 H296 0.951 . S
C304 C303 1.424 . S
C304 C305 1.347 . S
C305 H297 0.951 . S
C305 C300 1.429 . S
C305 C304 1.347 . S
H306 C307 0.951 . S
C307 H306 0.951 . S
C307 C313 1.265 . S
H308 C313 0.950 . S
H309 C317 0.949 . S
H310 C318 0.950 . S
H311 C319 0.951 1_655 S
H312 C320 0.951 . S
C313 C307 1.265 . S
C313 H308 0.950 . S
C313 C314 1.478 . S
C314 C313 1.478 . S
C314 C315 1.397 . S
C314 C331 1.394 . S
C315 C314 1.397 . S
C315 C316 1.438 1_655 S
C315 C320 1.429 . S
C316 C315 1.438 1_455 S
C316 C317 1.428 . S
C316 C329 1.394 . S
C317 H309 0.949 . S
C317 C316 1.428 . S
C317 C318 1.345 . S
C318 H310 0.950 . S
C318 C317 1.345 . S
C318 C319 1.424 . S
C319 H311 0.951 1_455 S
C319 C318 1.424 . S
C319 C320 1.347 1_455 S
C320 H312 0.951 . S
C320 C315 1.429 . S
C320 C319 1.347 1_655 S
H321 C322 0.951 . S
C322 H321 0.951 . S
C322 C328 1.265 . S
H323 C328 0.950 . S
H324 C332 0.949 . S
H325 C333 0.950 . S
H326 C334 0.951 . S
H327 C335 0.951 . S
C328 C322 1.265 . S
C328 H323 0.950 . S
C328 C329 1.478 . S
C329 C316 1.394 . S
C329 C328 1.478 . S
C329 C330 1.397 . S
C330 C329 1.397 . S
C330 C331 1.438 1_455 S
C330 C335 1.429 . S
C331 C314 1.394 . S
C331 C330 1.438 1_655 S
C331 C332 1.428 . S
C332 H324 0.949 . S
C332 C331 1.428 . S
C332 C333 1.345 . S
C333 H325 0.950 . S
C333 C332 1.345 . S
C333 C334 1.424 1_655 S
C334 H326 0.951 . S
C334 C333 1.424 1_455 S
C334 C335 1.347 . S
C335 H327 0.951 . S
C335 C330 1.429 . S
C335 C334 1.347 . S
H336 C337 0.951 . S
C337 H336 0.951 . S
C337 C343 1.265 . S
H338 C343 0.950 . S
H339 C347 0.949 . S
H340 C348 0.950 . S
H341 C349 0.951 . S
H342 C350 0.951 . S
C343 C337 1.265 . S
C343 H338 0.950 . S
C343 C344 1.478 . S
C344 C343 1.478 . S
C344 C345 1.397 . S
C344 C361 1.394 1_545 S
C345 C344 1.397 . S
C345 C346 1.438 . S
C345 C350 1.429 . S
C346 C345 1.438 . S
C346 C347 1.428 . S
C346 C359 1.394 1_545 S
C347 H339 0.949 . S
C347 C346 1.428 . S
C347 C348 1.345 . S
C348 H340 0.950 . S
C348 C347 1.345 . S
C348 C349 1.424 . S
C349 H341 0.951 . S
C349 C348 1.424 . S
C349 C350 1.347 . S
C350 H342 0.951 . S
C350 C345 1.429 . S
C350 C349 1.347 . S
H351 C352 0.951 . S
C352 H351 0.951 . S
C352 C358 1.265 . S
H353 C358 0.950 . S
H354 C362 0.949 1_545 S
H355 C363 0.950 . S
H356 C364 0.951 . S
H357 C365 0.951 . S
C358 C352 1.265 . S
C358 H353 0.950 . S
C358 C359 1.478 . S
C359 C346 1.394 1_565 S
C359 C358 1.478 . S
C359 C360 1.397 . S
C360 C359 1.397 . S
C360 C361 1.438 . S
C360 C365 1.429 . S
C361 C344 1.394 1_565 S
C361 C360 1.438 . S
C361 C362 1.428 . S
C362 H354 0.949 1_565 S
C362 C361 1.428 . S
C362 C363 1.345 . S
C363 H355 0.950 . S
C363 C362 1.345 . S
C363 C364 1.424 . S
C364 H356 0.951 . S
C364 C363 1.424 . S
C364 C365 1.347 . S
C365 H357 0.951 . S
C365 C360 1.429 . S
C365 C364 1.347 . S
H366 C367 0.951 . S
C367 H366 0.951 . S
C367 C373 1.265 . S
H368 C373 0.950 . S
H369 C377 0.949 . S
H370 C378 0.950 . S
H371 C379 0.951 . S
H372 C380 0.951 . S
C373 C367 1.265 . S
C373 H368 0.950 . S
C373 C374 1.478 . S
C374 C373 1.478 . S
C374 C375 1.397 . S
C374 C391 1.394 . S
C375 C374 1.397 . S
C375 C376 1.438 . S
C375 C380 1.429 . S
C376 C375 1.438 . S
C376 C377 1.428 . S
C376 C389 1.394 . S
C377 H369 0.949 . S
C377 C376 1.428 . S
C377 C378 1.345 . S
C378 H370 0.950 . S
C378 C377 1.345 . S
C378 C379 1.424 . S
C379 H371 0.951 . S
C379 C378 1.424 . S
C379 C380 1.347 . S
C380 H372 0.951 . S
C380 C375 1.429 . S
C380 C379 1.347 . S
H381 C382 0.951 . S
C382 H381 0.951 . S
C382 C388 1.265 . S
H383 C388 0.950 . S
H384 C392 0.949 . S
H385 C393 0.950 . S
H386 C394 0.951 . S
H387 C395 0.951 . S
C388 C382 1.265 . S
C388 H383 0.950 . S
C388 C389 1.478 . S
C389 C376 1.394 . S
C389 C388 1.478 . S
C389 C390 1.397 . S
C390 C389 1.397 . S
C390 C391 1.438 . S
C390 C395 1.429 . S
C391 C374 1.394 . S
C391 C390 1.438 . S
C391 C392 1.428 . S
C392 H384 0.949 . S
C392 C391 1.428 . S
C392 C393 1.345 . S
C393 H385 0.950 . S
C393 C392 1.345 . S
C393 C394 1.424 . S
C394 H386 0.951 . S
C394 C393 1.424 . S
C394 C395 1.347 . S
C395 H387 0.951 . S
C395 C390 1.429 . S
C395 C394 1.347 . S
H396 C397 0.951 . S
C397 H396 0.951 . S
C397 C403 1.265 . S
H398 C403 0.950 . S
H399 C407 0.949 . S
H400 C408 0.950 . S
H401 C409 0.951 . S
H402 C410 0.951 . S
C403 C397 1.265 . S
C403 H398 0.950 . S
C403 C404 1.478 . S
C404 C403 1.478 . S
C404 C405 1.397 . S
C404 C421 1.394 . S
C405 C404 1.397 . S
C405 C406 1.438 . S
C405 C410 1.429 . S
C406 C405 1.438 . S
C406 C407 1.428 . S
C406 C419 1.394 . S
C407 H399 0.949 . S
C407 C406 1.428 . S
C407 C408 1.345 . S
C408 H400 0.950 . S
C408 C407 1.345 . S
C408 C409 1.424 . S
C409 H401 0.951 . S
C409 C408 1.424 . S
C409 C410 1.347 . S
C410 H402 0.951 . S
C410 C405 1.429 . S
C410 C409 1.347 . S
H411 C412 0.951 . S
C412 H411 0.951 . S
C412 C418 1.265 . S
H413 C418 0.950 . S
H414 C422 0.949 . S
H415 C423 0.950 . S
H416 C424 0.951 . S
H417 C425 0.951 . S
C418 C412 1.265 . S
C418 H413 0.950 . S
C418 C419 1.478 . S
C419 C406 1.394 . S
C419 C418 1.478 . S
C419 C420 1.397 . S
C420 C419 1.397 . S
C420 C421 1.438 . S
C420 C425 1.429 . S
C421 C404 1.394 . S
C421 C420 1.438 . S
C421 C422 1.428 . S
C422 H414 0.949 . S
C422 C421 1.428 . S
C422 C423 1.345 . S
C423 H415 0.950 . S
C423 C422 1.345 . S
C423 C424 1.424 . S
C424 H416 0.951 . S
C424 C423 1.424 . S
C424 C425 1.347 . S
C425 H417 0.951 . S
C425 C420 1.429 . S
C425 C424 1.347 . S
H426 C427 0.951 . S
C427 H426 0.951 . S
C427 C433 1.265 . S
H428 C433 0.950 . S
H429 C437 0.949 . S
H430 C438 0.950 . S
H431 C439 0.951 . S
H432 C440 0.951 . S
C433 C427 1.265 . S
C433 H428 0.950 . S
C433 C434 1.478 . S
C434 C433 1.478 . S
C434 C435 1.397 . S
C434 C451 1.394 . S
C435 C434 1.397 . S
C435 C436 1.438 . S
C435 C440 1.429 . S
C436 C435 1.438 . S
C436 C437 1.428 . S
C436 C449 1.394 . S
C437 H429 0.949 . S
C437 C436 1.428 . S
C437 C438 1.345 . S
C438 H430 0.950 . S
C438 C437 1.345 . S
C438 C439 1.424 . S
C439 H431 0.951 . S
C439 C438 1.424 . S
C439 C440 1.347 . S
C440 H432 0.951 . S
C440 C435 1.429 . S
C440 C439 1.347 . S
H441 C442 0.951 . S
C442 H441 0.951 . S
C442 C448 1.265 . S
H443 C448 0.950 . S
H444 C452 0.949 . S
H445 C453 0.950 . S
H446 C454 0.951 . S
H447 C455 0.951 . S
C448 C442 1.265 . S
C448 H443 0.950 . S
C448 C449 1.478 . S
C449 C436 1.394 . S
C449 C448 1.478 . S
C449 C450 1.397 . S
C450 C449 1.397 . S
C450 C451 1.438 . S
C450 C455 1.429 . S
C451 C434 1.394 . S
C451 C450 1.438 . S
C451 C452 1.428 . S
C452 H444 0.949 . S
C452 C451 1.428 . S
C452 C453 1.345 . S
C453 H445 0.950 . S
C453 C452 1.345 . S
C453 C454 1.424 . S
C454 H446 0.951 . S
C454 C453 1.424 . S
C454 C455 1.347 . S
C455 H447 0.951 . S
C455 C450 1.429 . S
C455 C454 1.347 . S
H456 C457 0.951 . S
C457 H456 0.951 . S
C457 C463 1.265 . S
H458 C463 0.950 . S
H459 C467 0.949 . S
H460 C468 0.950 . S
H461 C469 0.951 . S
H462 C470 0.951 . S
C463 C457 1.265 . S
C463 H458 0.950 . S
C463 C464 1.478 . S
C464 C463 1.478 . S
C464 C465 1.397 . S
C464 C481 1.394 . S
C465 C464 1.397 . S
C465 C466 1.438 . S
C465 C470 1.429 . S
C466 C465 1.438 . S
C466 C467 1.428 . S
C466 C479 1.394 . S
C467 H459 0.949 . S
C467 C466 1.428 . S
C467 C468 1.345 . S
C468 H460 0.950 . S
C468 C467 1.345 . S
C468 C469 1.424 . S
C469 H461 0.951 . S
C469 C468 1.424 . S
C469 C470 1.347 . S
C470 H462 0.951 . S
C470 C465 1.429 . S
C470 C469 1.347 . S
H471 C472 0.951 . S
C472 H471 0.951 . S
C472 C478 1.265 . S
H473 C478 0.950 . S
H474 C482 0.949 . S
H475 C483 0.950 . S
H476 C484 0.951 . S
H477 C485 0.951 . S
C478 C472 1.265 . S
C478 H473 0.950 . S
C478 C479 1.478 . S
C479 C466 1.394 . S
C479 C478 1.478 . S
C479 C480 1.397 . S
C480 C479 1.397 . S
C480 C481 1.438 . S
C480 C485 1.429 . S
C481 C464 1.394 . S
C481 C480 1.438 . S
C481 C482 1.428 . S
C482 H474 0.949 . S
C482 C481 1.428 . S
C482 C483 1.345 . S
C483 H475 0.950 . S
C483 C482 1.345 . S
C483 C484 1.424 . S
C484 H476 0.951 . S
C484 C483 1.424 . S
C484 C485 1.347 . S
C485 H477 0.951 . S
C485 C480 1.429 . S
C485 C484 1.347 . S
H486 C487 0.951 . S
C487 H486 0.951 . S
C487 C493 1.265 . S
H488 C493 0.950 . S
H489 C497 0.949 . S
H490 C498 0.950 . S
H491 C499 0.951 . S
H492 C500 0.951 . S
C493 C487 1.265 . S
C493 H488 0.950 . S
C493 C494 1.478 . S
C494 C493 1.478 . S
C494 C495 1.397 . S
C494 C511 1.394 . S
C495 C494 1.397 . S
C495 C496 1.438 . S
C495 C500 1.429 . S
C496 C495 1.438 . S
C496 C497 1.428 . S
C496 C509 1.394 . S
C497 H489 0.949 . S
C497 C496 1.428 . S
C497 C498 1.345 . S
C498 H490 0.950 . S
C498 C497 1.345 . S
C498 C499 1.424 . S
C499 H491 0.951 . S
C499 C498 1.424 . S
C499 C500 1.347 . S
C500 H492 0.951 . S
C500 C495 1.429 . S
C500 C499 1.347 . S
H501 C502 0.951 . S
C502 H501 0.951 . S
C502 C508 1.265 . S
H503 C508 0.950 . S
H504 C512 0.949 . S
H505 C513 0.950 . S
H506 C514 0.951 . S
H507 C515 0.951 . S
C508 C502 1.265 . S
C508 H503 0.950 . S
C508 C509 1.478 . S
C509 C496 1.394 . S
C509 C508 1.478 . S
C509 C510 1.397 . S
C510 C509 1.397 . S
C510 C511 1.438 . S
C510 C515 1.429 . S
C511 C494 1.394 . S
C511 C510 1.438 . S
C511 C512 1.428 . S
C512 H504 0.949 . S
C512 C511 1.428 . S
C512 C513 1.345 . S
C513 H505 0.950 . S
C513 C512 1.345 . S
C513 C514 1.424 . S
C514 H506 0.951 . S
C514 C513 1.424 . S
C514 C515 1.347 . S
C515 H507 0.951 . S
C515 C510 1.429 . S
C515 C514 1.347 . S
H516 C517 0.951 . S
C517 H516 0.951 . S
C517 C523 1.265 . S
H518 C523 0.950 . S
H519 C527 0.949 . S
H520 C528 0.950 . S
H521 C529 0.951 . S
H522 C530 0.951 . S
C523 C517 1.265 . S
C523 H518 0.950 . S
C523 C524 1.478 . S
C524 C523 1.478 . S
C524 C525 1.397 . S
C524 C541 1.394 . S
C525 C524 1.397 . S
C525 C526 1.438 . S
C525 C530 1.429 . S
C526 C525 1.438 . S
C526 C527 1.428 1_556 S
C526 C539 1.394 . S
C527 H519 0.949 . S
C527 C526 1.428 1_554 S
C527 C528 1.345 . S
C528 H520 0.950 . S
C528 C527 1.345 . S
C528 C529 1.424 . S
C529 H521 0.951 . S
C529 C528 1.424 . S
C529 C530 1.347 1_554 S
C530 H522 0.951 . S
C530 C525 1.429 . S
C530 C529 1.347 1_556 S
H531 C532 0.951 . S
C532 H531 0.951 . S
C532 C538 1.265 1_554 S
H533 C538 0.950 . S
H534 C542 0.949 . S
H535 C543 0.950 . S
H536 C544 0.951 . S
H537 C545 0.951 . S
C538 C532 1.265 1_556 S
C538 H533 0.950 . S
C538 C539 1.478 . S
C539 C526 1.394 . S
C539 C538 1.478 . S
C539 C540 1.397 . S
C540 C539 1.397 . S
C540 C541 1.438 . S
C540 C545 1.429 . S
C541 C524 1.394 . S
C541 C540 1.438 . S
C541 C542 1.428 . S
C542 H534 0.949 . S
C542 C541 1.428 . S
C542 C543 1.345 . S
C543 H535 0.950 . S
C543 C542 1.345 . S
C543 C544 1.424 . S
C544 H536 0.951 . S
C544 C543 1.424 . S
C544 C545 1.347 . S
C545 H537 0.951 . S
C545 C540 1.429 . S
C545 C544 1.347 . S
H546 C547 0.951 1_554 S
C547 H546 0.951 1_556 S
C547 C553 1.265 1_556 S
H548 C553 0.950 1_556 S
H549 C557 0.949 . S
H550 C558 0.950 . S
H551 C559 0.951 . S
H552 C560 0.951 . S
C553 C547 1.265 1_554 S
C553 H548 0.950 1_554 S
C553 C554 1.478 . S
C554 C553 1.478 . S
C554 C555 1.397 . S
C554 C571 1.394 . S
C555 C554 1.397 . S
C555 C556 1.438 . S
C555 C560 1.429 1_554 S
C556 C555 1.438 . S
C556 C557 1.428 . S
C556 C569 1.394 . S
C557 H549 0.949 . S
C557 C556 1.428 . S
C557 C558 1.345 1_554 S
C558 H550 0.950 . S
C558 C557 1.345 1_556 S
C558 C559 1.424 . S
C559 H551 0.951 . S
C559 C558 1.424 . S
C559 C560 1.347 . S
C560 H552 0.951 . S
C560 C555 1.429 1_556 S
C560 C559 1.347 . S
H561 C562 0.951 . S
C562 H561 0.951 . S
C562 C568 1.265 . S
H563 C568 0.950 . S
H564 C572 0.949 . S
H565 C573 0.950 . S
H566 C574 0.951 . S
H567 C575 0.951 . S
C568 C562 1.265 . S
C568 H563 0.950 . S
C568 C569 1.478 . S
C569 C556 1.394 . S
C569 C568 1.478 . S
C569 C570 1.397 . S
C570 C569 1.397 . S
C570 C571 1.438 . S
C570 C575 1.429 . S
C571 C554 1.394 . S
C571 C570 1.438 . S
C571 C572 1.428 . S
C572 H564 0.949 . S
C572 C571 1.428 . S
C572 C573 1.345 . S
C573 H565 0.950 . S
C573 C572 1.345 . S
C573 C574 1.424 . S
C574 H566 0.951 . S
C574 C573 1.424 . S
C574 C575 1.347 . S
C575 H567 0.951 . S
C575 C570 1.429 . S
C575 C574 1.347 . S
C217 C4 1.246 . S
C232 C122 1.259 . S
C247 C158 1.210 . S
C262 C40 1.255 . S
C277 C76 1.246 . S
C292 C194 1.196 1_554 S
C307 C112 1.192 . S
C322 C14 1.163 . S
C337 C50 1.174 . S
C352 C148 1.168 . S
C367 C184 1.185 . S
C382 C86 1.237 . S
C397 C3 1.217 . S
C412 C74 1.166 . S
C427 C39 1.222 . S
C442 C110 1.256 . S
C457 C146 1.161 . S
C472 C75 1.224 . S
C487 C182 1.237 . S
C502 C111 1.247 . S
C517 C147 1.256 . S
C532 C2 1.184 . S
C547 C183 1.198 . S
C562 C38 1.225 . S
