# Generated by pormake.
# Topology vch, (7)-cn, num edge types: 1
# Building blocks:
#     Node 0, Type 0, BuildingBlock: NUHQUE_clean_sbu_2, # of connection points: 7
#     Node 1, Type 0, BuildingBlock: NUHQUE_clean_sbu_2, # of connection points: 7
#     Node 2, Type 0, BuildingBlock: NUHQUE_clean_sbu_2, # of connection points: 7
#     Node 3, Type 0, BuildingBlock: NUHQUE_clean_sbu_2, # of connection points: 7
#     Node 4, Type 0, BuildingBlock: NUHQUE_clean_sbu_2, # of connection points: 7
#     Node 5, Type 0, BuildingBlock: NUHQUE_clean_sbu_2, # of connection points: 7
#     Node 6, Type 0, BuildingBlock: NUHQUE_clean_sbu_2, # of connection points: 7
#     Node 7, Type 0, BuildingBlock: NUHQUE_clean_sbu_2, # of connection points: 7
#     Node 8, Type 0, BuildingBlock: NUHQUE_clean_sbu_2, # of connection points: 7
#     Node 9, Type 0, BuildingBlock: NUHQUE_clean_sbu_2, # of connection points: 7
#     Node 10, Type 0, BuildingBlock: NUHQUE_clean_sbu_2, # of connection points: 7
#     Node 11, Type 0, BuildingBlock: NUHQUE_clean_sbu_2, # of connection points: 7
#     Node 12, Type 0, BuildingBlock: NUHQUE_clean_sbu_2, # of connection points: 7
#     Node 13, Type 0, BuildingBlock: NUHQUE_clean_sbu_2, # of connection points: 7
#     Node 14, Type 0, BuildingBlock: NUHQUE_clean_sbu_2, # of connection points: 7
#     Node 15, Type 0, BuildingBlock: NUHQUE_clean_sbu_2, # of connection points: 7
#     Edge 16, Type (0, 0), BuildingBlock: OJICUG_clean_linker_0, # of connection points: 2
#     Edge 17, Type (0, 0), BuildingBlock: OJICUG_clean_linker_0, # of connection points: 2
#     Edge 18, Type (0, 0), BuildingBlock: OJICUG_clean_linker_0, # of connection points: 2
#     Edge 19, Type (0, 0), BuildingBlock: OJICUG_clean_linker_0, # of connection points: 2
#     Edge 20, Type (0, 0), BuildingBlock: OJICUG_clean_linker_0, # of connection points: 2
#     Edge 21, Type (0, 0), BuildingBlock: OJICUG_clean_linker_0, # of connection points: 2
#     Edge 22, Type (0, 0), BuildingBlock: OJICUG_clean_linker_0, # of connection points: 2
#     Edge 23, Type (0, 0), BuildingBlock: OJICUG_clean_linker_0, # of connection points: 2
#     Edge 24, Type (0, 0), BuildingBlock: OJICUG_clean_linker_0, # of connection points: 2
#     Edge 25, Type (0, 0), BuildingBlock: OJICUG_clean_linker_0, # of connection points: 2
#     Edge 26, Type (0, 0), BuildingBlock: OJICUG_clean_linker_0, # of connection points: 2
#     Edge 27, Type (0, 0), BuildingBlock: OJICUG_clean_linker_0, # of connection points: 2
#     Edge 28, Type (0, 0), BuildingBlock: OJICUG_clean_linker_0, # of connection points: 2
#     Edge 29, Type (0, 0), BuildingBlock: OJICUG_clean_linker_0, # of connection points: 2
#     Edge 30, Type (0, 0), BuildingBlock: OJICUG_clean_linker_0, # of connection points: 2
#     Edge 31, Type (0, 0), BuildingBlock: OJICUG_clean_linker_0, # of connection points: 2
#     Edge 32, Type (0, 0), BuildingBlock: OJICUG_clean_linker_0, # of connection points: 2
#     Edge 33, Type (0, 0), BuildingBlock: OJICUG_clean_linker_0, # of connection points: 2
#     Edge 34, Type (0, 0), BuildingBlock: OJICUG_clean_linker_0, # of connection points: 2
#     Edge 35, Type (0, 0), BuildingBlock: OJICUG_clean_linker_0, # of connection points: 2
#     Edge 36, Type (0, 0), BuildingBlock: OJICUG_clean_linker_0, # of connection points: 2
#     Edge 37, Type (0, 0), BuildingBlock: OJICUG_clean_linker_0, # of connection points: 2
#     Edge 38, Type (0, 0), BuildingBlock: OJICUG_clean_linker_0, # of connection points: 2
#     Edge 39, Type (0, 0), BuildingBlock: OJICUG_clean_linker_0, # of connection points: 2
#     Edge 40, Type (0, 0), BuildingBlock: OJICUG_clean_linker_0, # of connection points: 2
#     Edge 41, Type (0, 0), BuildingBlock: OJICUG_clean_linker_0, # of connection points: 2
#     Edge 42, Type (0, 0), BuildingBlock: OJICUG_clean_linker_0, # of connection points: 2
#     Edge 43, Type (0, 0), BuildingBlock: OJICUG_clean_linker_0, # of connection points: 2
#     Edge 44, Type (0, 0), BuildingBlock: OJICUG_clean_linker_0, # of connection points: 2
#     Edge 45, Type (0, 0), BuildingBlock: OJICUG_clean_linker_0, # of connection points: 2
#     Edge 46, Type (0, 0), BuildingBlock: OJICUG_clean_linker_0, # of connection points: 2
#     Edge 47, Type (0, 0), BuildingBlock: OJICUG_clean_linker_0, # of connection points: 2
#     Edge 48, Type (0, 0), BuildingBlock: OJICUG_clean_linker_0, # of connection points: 2
#     Edge 49, Type (0, 0), BuildingBlock: OJICUG_clean_linker_0, # of connection points: 2
#     Edge 50, Type (0, 0), BuildingBlock: OJICUG_clean_linker_0, # of connection points: 2
#     Edge 51, Type (0, 0), BuildingBlock: OJICUG_clean_linker_0, # of connection points: 2
#     Edge 52, Type (0, 0), BuildingBlock: OJICUG_clean_linker_0, # of connection points: 2
#     Edge 53, Type (0, 0), BuildingBlock: OJICUG_clean_linker_0, # of connection points: 2
#     Edge 54, Type (0, 0), BuildingBlock: OJICUG_clean_linker_0, # of connection points: 2
#     Edge 55, Type (0, 0), BuildingBlock: OJICUG_clean_linker_0, # of connection points: 2
#     Edge 56, Type (0, 0), BuildingBlock: OJICUG_clean_linker_0, # of connection points: 2
#     Edge 57, Type (0, 0), BuildingBlock: OJICUG_clean_linker_0, # of connection points: 2
#     Edge 58, Type (0, 0), BuildingBlock: OJICUG_clean_linker_0, # of connection points: 2
#     Edge 59, Type (0, 0), BuildingBlock: OJICUG_clean_linker_0, # of connection points: 2
#     Edge 60, Type (0, 0), BuildingBlock: OJICUG_clean_linker_0, # of connection points: 2
#     Edge 61, Type (0, 0), BuildingBlock: OJICUG_clean_linker_0, # of connection points: 2
#     Edge 62, Type (0, 0), BuildingBlock: OJICUG_clean_linker_0, # of connection points: 2
#     Edge 63, Type (0, 0), BuildingBlock: OJICUG_clean_linker_0, # of connection points: 2
#     Edge 64, Type (0, 0), BuildingBlock: OJICUG_clean_linker_0, # of connection points: 2
#     Edge 65, Type (0, 0), BuildingBlock: OJICUG_clean_linker_0, # of connection points: 2
#     Edge 66, Type (0, 0), BuildingBlock: OJICUG_clean_linker_0, # of connection points: 2
#     Edge 67, Type (0, 0), BuildingBlock: OJICUG_clean_linker_0, # of connection points: 2
#     Edge 68, Type (0, 0), BuildingBlock: OJICUG_clean_linker_0, # of connection points: 2
#     Edge 69, Type (0, 0), BuildingBlock: OJICUG_clean_linker_0, # of connection points: 2
#     Edge 70, Type (0, 0), BuildingBlock: OJICUG_clean_linker_0, # of connection points: 2
#     Edge 71, Type (0, 0), BuildingBlock: OJICUG_clean_linker_0, # of connection points: 2
# Relax obj value: 0.134
# Max RMSD: 0.211
# Mean RMSD: 0.211
data_MOF--net-vch--node1-NUHQUE_clean_sbu_2--edge1-OJICUG_clean_linker_0
_symmetry_space_group_name_H-M    P1
_symmetry_Int_Tables_number       1
_symmetry_cell_setting            triclinic
loop_
_symmetry_equiv_pos_as_xyz
'x, y, z'
_cell_length_a     16.937817
_cell_length_b     36.618743
_cell_length_c     53.214843
_cell_angle_alpha  89.980971
_cell_angle_beta   90.137681
_cell_angle_gamma 89.908662
loop_
_atom_site_label
_atom_site_type_symbol
_atom_site_fract_x
_atom_site_fract_y
_atom_site_fract_z
_atom_type_partial_charge
O0 O 0.18482 0.11157 0.04719 0.0
Tb1 Tb 0.18405 0.12497 0.08674 0.0
Eu2 Eu 0.99329 0.1129 0.1395 0.0
C3 C 0.24016 0.09066 0.03753 0.0
O4 O 0.29333 0.07573 0.05233 0.0
C5 C 0.12303 0.06628 0.12339 0.0
O6 O 0.98107 0.11674 0.18141 0.0
C7 C 0.86374 0.09349 0.11708 0.0
C8 C 0.01597 0.14324 0.19381 0.0
O9 O 0.0555 0.16812 0.1813 0.0
C10 C 0.06908 0.18862 0.10951 0.0
C11 C 0.80192 0.10741 0.09978 0.0
C12 C 0.81626 0.11086 0.07379 0.0
C13 C 0.75552 0.12151 0.05723 0.0
C14 C 0.68069 0.12946 0.06706 0.0
C15 C 0.66514 0.12573 0.09277 0.0
C16 C 0.7256 0.11437 0.10904 0.0
O17 O 0.10407 0.09099 0.10671 0.0
O18 O 0.07808 0.06633 0.14301 0.0
O19 O 0.29002 0.10212 0.1044 0.0
O20 O 0.2894 0.15785 0.09364 0.0
C21 C 0.33169 0.13186 0.10351 0.0
O22 O 0.03211 0.17005 0.12753 0.0
O23 O 0.11617 0.17534 0.09171 0.0
O24 O 0.86539 0.10709 0.13997 0.0
O25 O 0.93444 0.08754 0.1077 0.0
H26 H 0.87419 0.10468 0.0663 0.0
H27 H 0.63257 0.13641 0.05444 0.0
H28 H 0.71282 0.11052 0.12882 0.0
O29 O 0.31645 0.87371 0.06363 0.0
Tb30 Tb 0.32354 0.88461 0.10388 0.0
Eu31 Eu 0.51487 0.91318 0.14014 0.0
C32 C 0.26766 0.89272 0.04932 0.0
O33 O 0.22611 0.91913 0.05954 0.0
C34 C 0.37465 0.96026 0.11903 0.0
O35 O 0.50875 0.90758 0.18238 0.0
C36 C 0.64244 0.94743 0.12699 0.0
C37 C 0.48832 0.87725 0.19389 0.0
O38 O 0.47091 0.84822 0.18051 0.0
C39 C 0.46104 0.83238 0.12187 0.0
C40 C 0.71502 0.94138 0.112 0.0
C41 C 0.7123 0.94105 0.08546 0.0
C42 C 0.78124 0.93505 0.07139 0.0
C43 C 0.85315 0.93061 0.08407 0.0
C44 C 0.85671 0.9299 0.11026 0.0
C45 C 0.78795 0.93566 0.1243 0.0
O46 O 0.37847 0.93782 0.09986 0.0
O47 O 0.41164 0.95161 0.13984 0.0
O48 O 0.23597 0.91168 0.12792 0.0
O49 O 0.19993 0.86792 0.10451 0.0
C50 C 0.1763 0.8919 0.12084 0.0
O51 O 0.516 0.85782 0.12124 0.0
O52 O 0.3851 0.84016 0.12323 0.0
O53 O 0.6362 0.929 0.14811 0.0
O54 O 0.57515 0.95018 0.11469 0.0
H55 H 0.65644 0.94431 0.07576 0.0
H56 H 0.90711 0.92643 0.07349 0.0
H57 H 0.79105 0.93497 0.14464 0.0
O58 O 0.68288 0.90785 0.45585 0.0
Tb59 Tb 0.69804 0.89334 0.41668 0.0
Eu60 Eu 0.50495 0.90176 0.3584 0.0
C61 C 0.72558 0.93336 0.46676 0.0
O62 O 0.77416 0.95311 0.4532 0.0
C63 C 0.6276 0.95295 0.37667 0.0
O64 O 0.49531 0.90271 0.31606 0.0
C65 C 0.37078 0.90329 0.38188 0.0
C66 C 0.48165 0.87289 0.30296 0.0
O67 O 0.47067 0.8419 0.31487 0.0
C68 C 0.57862 0.83887 0.39291 0.0
C69 C 0.3172 0.8867 0.40065 0.0
C70 C 0.33725 0.88267 0.42635 0.0
C71 C 0.28013 0.87046 0.4438 0.0
C72 C 0.20378 0.86236 0.43512 0.0
C73 C 0.18275 0.86749 0.40996 0.0
C74 C 0.23972 0.87921 0.3928 0.0
O75 O 0.62775 0.92192 0.38901 0.0
O76 O 0.57022 0.95544 0.36034 0.0
O77 O 0.81737 0.91255 0.40976 0.0
O78 O 0.79455 0.85543 0.40822 0.0
C79 C 0.84826 0.88058 0.40582 0.0
O80 O 0.59061 0.85839 0.37246 0.0
O81 O 0.62184 0.84534 0.41321 0.0
O82 O 0.38148 0.88571 0.36058 0.0
O83 O 0.43348 0.92117 0.38969 0.0
H84 H 0.39588 0.88988 0.43282 0.0
H85 H 0.15797 0.85528 0.44846 0.0
H86 H 0.2225 0.88426 0.37345 0.0
O87 O 0.81766 0.11841 0.4525 0.0
Tb88 Tb 0.79904 0.12871 0.41287 0.0
Eu89 Eu 0.99037 0.11446 0.35668 0.0
C90 C 0.77795 0.09343 0.46489 0.0
O91 O 0.72959 0.07169 0.4527 0.0
C92 C 0.86476 0.06577 0.37465 0.0
O93 O 0.99858 0.1141 0.31465 0.0
C94 C 0.12575 0.11088 0.3795 0.0
C95 C 0.01449 0.14427 0.30234 0.0
O96 O 0.0284 0.17442 0.31497 0.0
C97 C 0.92137 0.18141 0.38873 0.0
C98 C 0.18171 0.12826 0.39723 0.0
C99 C 0.16722 0.12959 0.42335 0.0
C100 C 0.22651 0.1416 0.44004 0.0
C101 C 0.29924 0.15299 0.43029 0.0
C102 C 0.31547 0.15037 0.40463 0.0
C103 C 0.25648 0.13831 0.38815 0.0
O104 O 0.86608 0.09766 0.3859 0.0
O105 O 0.92244 0.06166 0.35874 0.0
O106 O 0.67862 0.10934 0.40866 0.0
O107 O 0.70313 0.16546 0.40151 0.0
C108 C 0.64858 0.14043 0.40173 0.0
O109 O 0.91015 0.16137 0.36849 0.0
O110 O 0.87681 0.17591 0.40879 0.0
O111 O 0.11621 0.12626 0.35734 0.0
O112 O 0.06094 0.09606 0.38847 0.0
H113 H 0.11158 0.11991 0.4308 0.0
H114 H 0.34692 0.16007 0.44303 0.0
H115 H 0.27048 0.13473 0.36842 0.0
O116 O 0.84152 0.897 0.95361 0.0
Tb117 Tb 0.83833 0.87835 0.91509 0.0
Eu118 Eu 0.02659 0.87998 0.85619 0.0
C119 C 0.78445 0.91673 0.96343 0.0
O120 O 0.72631 0.92835 0.94913 0.0
C121 C 0.90817 0.93224 0.87484 0.0
O122 O 0.03748 0.87818 0.81395 0.0
C123 C 0.16158 0.88767 0.87884 0.0
C124 C 0.99605 0.85483 0.80055 0.0
O125 O 0.94995 0.83154 0.81221 0.0
C126 C 0.95365 0.81928 0.89341 0.0
C127 C 0.22022 0.87658 0.89809 0.0
C128 C 0.2039 0.87658 0.92417 0.0
C129 C 0.26458 0.8689 0.94172 0.0
C130 C 0.34079 0.86137 0.93279 0.0
C131 C 0.35793 0.8623 0.90711 0.0
C132 C 0.29766 0.86982 0.88987 0.0
O133 O 0.91952 0.90515 0.89046 0.0
O134 O 0.95604 0.93211 0.8557 0.0
O135 O 0.73001 0.89737 0.89687 0.0
O136 O 0.73751 0.84238 0.9098 0.0
C137 C 0.69224 0.86653 0.89901 0.0
O138 O 0.94389 0.83633 0.87175 0.0
O139 O 0.91214 0.82947 0.9133 0.0
O140 O 0.15142 0.8663 0.85921 0.0
O141 O 0.09725 0.90505 0.88582 0.0
H142 H 0.14507 0.88304 0.93076 0.0
H143 H 0.38882 0.85717 0.946 0.0
H144 H 0.31169 0.87143 0.87002 0.0
O145 O 0.72236 0.13175 0.93484 0.0
Tb146 Tb 0.71763 0.12168 0.8947 0.0
Eu147 Eu 0.52668 0.0932 0.86393 0.0
C148 C 0.76771 0.1108 0.94889 0.0
O149 O 0.80839 0.08459 0.93808 0.0
C150 C 0.66961 0.04475 0.88142 0.0
O151 O 0.53456 0.10471 0.82259 0.0
C152 C 0.39752 0.05926 0.87557 0.0
C153 C 0.48909 0.12891 0.81144 0.0
O154 O 0.43934 0.14823 0.82492 0.0
C155 C 0.57836 0.17383 0.88046 0.0
C156 C 0.3238 0.06659 0.88968 0.0
C157 C 0.32398 0.06755 0.91621 0.0
C158 C 0.2544 0.07525 0.92953 0.0
C159 C 0.18433 0.08102 0.91612 0.0
C160 C 0.18324 0.08086 0.88988 0.0
C161 C 0.25261 0.07321 0.87659 0.0
O162 O 0.67096 0.06714 0.90059 0.0
O163 O 0.6284 0.05377 0.86152 0.0
O164 O 0.80583 0.09703 0.86977 0.0
O165 O 0.84024 0.13954 0.89464 0.0
C166 C 0.86466 0.11692 0.8775 0.0
O167 O 0.52517 0.14804 0.88343 0.0
O168 O 0.65308 0.16594 0.8764 0.0
O169 O 0.40673 0.07704 0.85431 0.0
O170 O 0.46331 0.05642 0.8887 0.0
H171 H 0.37848 0.06338 0.92652 0.0
H172 H 0.12983 0.08646 0.92613 0.0
H173 H 0.25142 0.0732 0.85623 0.0
O174 O 0.31407 0.13174 0.55849 0.0
Tb175 Tb 0.33537 0.12317 0.59843 0.0
Eu176 Eu 0.52304 0.10818 0.64808 0.0
C177 C 0.26667 0.11061 0.54528 0.0
O178 O 0.23689 0.08115 0.55561 0.0
C179 C 0.39912 0.05804 0.62593 0.0
O180 O 0.52817 0.11065 0.6902 0.0
C181 C 0.65388 0.08255 0.62972 0.0
C182 C 0.4836 0.13351 0.70288 0.0
O183 O 0.43501 0.1552 0.69065 0.0
C184 C 0.45301 0.1865 0.62154 0.0
C185 C 0.72471 0.09107 0.61456 0.0
C186 C 0.72065 0.09063 0.58809 0.0
C187 C 0.78893 0.09524 0.57354 0.0
C188 C 0.86155 0.1003 0.58566 0.0
C189 C 0.86683 0.10059 0.61189 0.0
C190 C 0.79859 0.09588 0.62638 0.0
O191 O 0.41721 0.08004 0.6074 0.0
O192 O 0.43095 0.06487 0.64774 0.0
O193 O 0.23136 0.09009 0.60599 0.0
O194 O 0.23831 0.1424 0.62259 0.0
C195 C 0.19512 0.11319 0.62031 0.0
O196 O 0.49893 0.16671 0.63653 0.0
O197 O 0.39513 0.17471 0.60674 0.0
O198 O 0.64876 0.09677 0.65236 0.0
O199 O 0.58557 0.0808 0.61796 0.0
H200 H 0.6645 0.08649 0.57873 0.0
H201 H 0.91508 0.10295 0.57465 0.0
H202 H 0.80345 0.09501 0.64668 0.0
O203 O 0.21972 0.86616 0.56455 0.0
Tb204 Tb 0.20418 0.8759 0.60468 0.0
Eu205 Eu 0.00852 0.90451 0.63922 0.0
C206 C 0.27145 0.88556 0.55173 0.0
O207 O 0.31097 0.9114 0.56336 0.0
C208 C 0.14976 0.95126 0.61918 0.0
O209 O 0.02411 0.89293 0.68058 0.0
C210 C 0.879 0.94006 0.62976 0.0
C211 C 0.98735 0.86592 0.69185 0.0
O212 O 0.94196 0.8442 0.67852 0.0
C213 C 0.06207 0.82529 0.62028 0.0
C214 C 0.80434 0.93696 0.61532 0.0
C215 C 0.80302 0.94158 0.58896 0.0
C216 C 0.73178 0.93869 0.57548 0.0
C217 C 0.66165 0.93256 0.58868 0.0
C218 C 0.66213 0.92728 0.61467 0.0
C219 C 0.73319 0.92962 0.62805 0.0
O220 O 0.14692 0.92853 0.60017 0.0
O221 O 0.11004 0.9435 0.63956 0.0
O222 O 0.28657 0.90336 0.63028 0.0
O223 O 0.32744 0.85913 0.60816 0.0
C224 C 0.34769 0.88351 0.62469 0.0
O225 O 0.00981 0.85164 0.6173 0.0
O226 O 0.1383 0.83189 0.62265 0.0
O227 O 0.88767 0.91844 0.64934 0.0
O228 O 0.94462 0.94456 0.61693 0.0
H229 H 0.85748 0.94621 0.57882 0.0
H230 H 0.60613 0.93045 0.57857 0.0
H231 H 0.7331 0.92525 0.6482 0.0
O232 O 0.71174 0.63682 0.06352 0.0
Tb233 Tb 0.70139 0.62852 0.10402 0.0
Eu234 Eu 0.50962 0.59948 0.14103 0.0
C235 C 0.76126 0.61659 0.05036 0.0
O236 O 0.80157 0.5909 0.06194 0.0
C237 C 0.65085 0.55335 0.11993 0.0
O238 O 0.52177 0.60777 0.18298 0.0
C239 C 0.38115 0.56444 0.1294 0.0
C240 C 0.47891 0.63195 0.19514 0.0
O241 O 0.42992 0.6528 0.18238 0.0
C242 C 0.56173 0.68031 0.12178 0.0
C243 C 0.30626 0.56881 0.11506 0.0
C244 C 0.30402 0.56246 0.08886 0.0
C245 C 0.23268 0.56534 0.07541 0.0
C246 C 0.16366 0.57446 0.08833 0.0
C247 C 0.1647 0.58121 0.11415 0.0
C248 C 0.23567 0.57815 0.12761 0.0
O249 O 0.64404 0.57581 0.10087 0.0
O250 O 0.61303 0.56099 0.14072 0.0
O251 O 0.78772 0.60276 0.12928 0.0
O252 O 0.82473 0.64565 0.10532 0.0
C253 C 0.84759 0.62248 0.12235 0.0
O254 O 0.50743 0.65448 0.12142 0.0
O255 O 0.63821 0.67327 0.1223 0.0
O256 O 0.38916 0.58351 0.1502 0.0
O257 O 0.44706 0.56193 0.11644 0.0
H258 H 0.35751 0.55532 0.07887 0.0
H259 H 0.10879 0.57807 0.07803 0.0
H260 H 0.23587 0.58341 0.14765 0.0
O261 O 0.82296 0.4112 0.04761 0.0
Tb262 Tb 0.84278 0.39427 0.086 0.0
Eu263 Eu 0.03748 0.40349 0.14138 0.0
C264 C 0.86767 0.43448 0.03548 0.0
O265 O 0.93051 0.44819 0.04649 0.0
C266 C 0.91421 0.45305 0.12258 0.0
O267 O 0.0503 0.39964 0.18331 0.0
C268 C 0.17302 0.41045 0.11918 0.0
C269 C 0.98835 0.40273 0.19796 0.0
O270 O 0.91847 0.40787 0.18775 0.0
C271 C 0.96826 0.33937 0.10648 0.0
C272 C 0.23229 0.39454 0.10197 0.0
C273 C 0.21744 0.38985 0.07608 0.0
C274 C 0.27828 0.37837 0.05982 0.0
C275 C 0.35339 0.37108 0.06992 0.0
C276 C 0.36924 0.37619 0.09553 0.0
C277 C 0.30857 0.38794 0.11142 0.0
O278 O 0.92649 0.4258 0.10714 0.0
O279 O 0.96461 0.45482 0.1411 0.0
O280 O 0.7383 0.41209 0.1067 0.0
O281 O 0.74772 0.3566 0.09538 0.0
C282 C 0.70269 0.38058 0.10638 0.0
O283 O 0.95847 0.35732 0.12774 0.0
O284 O 0.92353 0.34766 0.08683 0.0
O285 O 0.16438 0.39477 0.14122 0.0
O286 O 0.1068 0.42349 0.10978 0.0
H287 H 0.15947 0.39594 0.06849 0.0
H288 H 0.40166 0.36396 0.0575 0.0
H289 H 0.32145 0.39297 0.1311 0.0
O290 O 0.17222 0.3881 0.44468 0.0
Tb291 Tb 0.17161 0.38699 0.40391 0.0
Eu292 Eu 0.98498 0.41125 0.36252 0.0
C293 C 0.22036 0.40981 0.45708 0.0
O294 O 0.26716 0.43177 0.44453 0.0
C295 C 0.12513 0.45891 0.38092 0.0
O296 O 0.96725 0.40849 0.32073 0.0
C297 C 0.8624 0.44014 0.38434 0.0
C298 C 0.02678 0.4003 0.30599 0.0
O299 O 0.09607 0.39336 0.31611 0.0
C300 C 0.04277 0.32811 0.38228 0.0
C301 C 0.78853 0.43147 0.39825 0.0
C302 C 0.78838 0.43367 0.42473 0.0
C303 C 0.71895 0.42747 0.43846 0.0
C304 C 0.64902 0.41987 0.42545 0.0
C305 C 0.6474 0.41707 0.39927 0.0
C306 C 0.71705 0.42324 0.38553 0.0
O307 O 0.11279 0.43932 0.40111 0.0
O308 O 0.08736 0.45009 0.36034 0.0
O309 O 0.2649 0.40543 0.37799 0.0
O310 O 0.29446 0.36981 0.40799 0.0
C311 C 0.32238 0.38789 0.38899 0.0
O312 O 0.99334 0.35089 0.37099 0.0
O313 O 0.10939 0.33692 0.39385 0.0
O314 O 0.86503 0.43267 0.3602 0.0
O315 O 0.93015 0.43428 0.39592 0.0
H316 H 0.84258 0.43985 0.43472 0.0
H317 H 0.59455 0.41595 0.43579 0.0
H318 H 0.71545 0.42145 0.36522 0.0
O319 O 0.32626 0.62041 0.44898 0.0
Tb320 Tb 0.33152 0.63118 0.40893 0.0
Eu321 Eu 0.5121 0.61475 0.36016 0.0
C322 C 0.2715 0.59912 0.45862 0.0
O323 O 0.22097 0.58274 0.44366 0.0
C324 C 0.37959 0.56413 0.37949 0.0
O325 O 0.52558 0.61522 0.31787 0.0
C326 C 0.6396 0.59336 0.38371 0.0
C327 C 0.47902 0.63631 0.30428 0.0
O328 O 0.42706 0.65692 0.31588 0.0
C329 C 0.45021 0.69342 0.38597 0.0
C330 C 0.70733 0.60557 0.39973 0.0
C331 C 0.69909 0.60726 0.42616 0.0
C332 C 0.76373 0.61609 0.44172 0.0
C333 C 0.83685 0.62334 0.43057 0.0
C334 C 0.84722 0.62164 0.40449 0.0
C335 C 0.78256 0.6123 0.38907 0.0
O336 O 0.3978 0.58257 0.39975 0.0
O337 O 0.41647 0.5723 0.35869 0.0
O338 O 0.2325 0.61479 0.3843 0.0
O339 O 0.21413 0.65546 0.41193 0.0
C340 C 0.18033 0.63658 0.39429 0.0
O341 O 0.48451 0.67414 0.36796 0.0
O342 O 0.40131 0.68081 0.40337 0.0
O343 O 0.63873 0.60293 0.35987 0.0
O344 O 0.56868 0.59305 0.39381 0.0
H345 H 0.64255 0.60137 0.43471 0.0
H346 H 0.88762 0.62903 0.44239 0.0
H347 H 0.79097 0.61019 0.36894 0.0
O348 O 0.32744 0.36756 0.93815 0.0
Tb349 Tb 0.33806 0.37744 0.89802 0.0
Eu350 Eu 0.53159 0.40692 0.86635 0.0
C351 C 0.2792 0.38821 0.95138 0.0
O352 O 0.23982 0.41428 0.93987 0.0
C353 C 0.38881 0.45386 0.88512 0.0
O354 O 0.52916 0.39402 0.82503 0.0
C355 C 0.65914 0.44283 0.87776 0.0
C356 C 0.46338 0.39519 0.81188 0.0
O357 O 0.39625 0.40168 0.82337 0.0
C358 C 0.47912 0.326 0.88291 0.0
C359 C 0.73639 0.43954 0.89083 0.0
C360 C 0.74241 0.44791 0.91662 0.0
C361 C 0.81543 0.44596 0.92915 0.0
C362 C 0.88286 0.43639 0.91554 0.0
C363 C 0.87826 0.428 0.88996 0.0
C364 C 0.80523 0.42959 0.87752 0.0
O365 O 0.39039 0.4308 0.90393 0.0
O366 O 0.4292 0.44604 0.86489 0.0
O367 O 0.25286 0.40358 0.8726 0.0
O368 O 0.21474 0.36048 0.89628 0.0
C369 C 0.19254 0.38394 0.87933 0.0
O370 O 0.53256 0.35184 0.88577 0.0
O371 O 0.40358 0.33351 0.87979 0.0
O372 O 0.64997 0.42504 0.8565 0.0
O373 O 0.59507 0.44297 0.89173 0.0
H374 H 0.69024 0.45573 0.92709 0.0
H375 H 0.93913 0.43349 0.92513 0.0
H376 H 0.80219 0.42287 0.85772 0.0
O377 O 0.23052 0.60223 0.95659 0.0
Tb378 Tb 0.2114 0.61802 0.9178 0.0
Eu379 Eu 0.01899 0.61196 0.85984 0.0
C380 C 0.18569 0.57906 0.9688 0.0
O381 O 0.12342 0.56504 0.95766 0.0
C382 C 0.13741 0.5604 0.88101 0.0
O383 O 0.01417 0.61006 0.8174 0.0
C384 C 0.88169 0.60654 0.88114 0.0
C385 C 0.98972 0.63794 0.80382 0.0
O386 O 0.96618 0.66783 0.81523 0.0
C387 C 0.09112 0.67411 0.89591 0.0
C388 C 0.82161 0.61961 0.89924 0.0
C389 C 0.83537 0.62171 0.92545 0.0
C390 C 0.77329 0.63128 0.94195 0.0
C391 C 0.69828 0.63859 0.93182 0.0
C392 C 0.68365 0.63563 0.90603 0.0
C393 C 0.7453 0.62623 0.88985 0.0
O394 O 0.12576 0.58738 0.89673 0.0
O395 O 0.08896 0.55983 0.86191 0.0
O396 O 0.31528 0.59907 0.89728 0.0
O397 O 0.3065 0.65506 0.90755 0.0
C398 C 0.35091 0.63058 0.89683 0.0
O399 O 0.10193 0.65586 0.87481 0.0
O400 O 0.13367 0.66558 0.916 0.0
O401 O 0.89421 0.62621 0.86082 0.0
O402 O 0.94491 0.58949 0.88952 0.0
H403 H 0.89329 0.61542 0.93296 0.0
H404 H 0.64911 0.6442 0.94427 0.0
H405 H 0.73317 0.62302 0.86995 0.0
O406 O 0.81636 0.62829 0.56399 0.0
Tb407 Tb 0.8162 0.62339 0.6048 0.0
Eu408 Eu 0.0127 0.59287 0.6413 0.0
C409 C 0.76677 0.60833 0.55069 0.0
O410 O 0.72005 0.58547 0.5625 0.0
C411 C 0.86377 0.54975 0.62492 0.0
O412 O 0.0216 0.60119 0.68331 0.0
C413 C 0.13544 0.55934 0.62333 0.0
C414 C 0.98392 0.62775 0.69489 0.0
O415 O 0.94176 0.65089 0.68158 0.0
C416 C 0.95563 0.6746 0.62318 0.0
C417 C 0.20512 0.56872 0.60766 0.0
C418 C 0.19877 0.57122 0.5812 0.0
C419 C 0.26402 0.58184 0.56663 0.0
C420 C 0.33592 0.58894 0.57865 0.0
C421 C 0.34335 0.58693 0.60476 0.0
C422 C 0.27847 0.57617 0.61926 0.0
O423 O 0.87404 0.57068 0.60524 0.0
O424 O 0.9083 0.55557 0.6446 0.0
O425 O 0.7212 0.60004 0.62775 0.0
O426 O 0.69488 0.64321 0.60254 0.0
C427 C 0.66534 0.62084 0.61896 0.0
O428 O 0.0104 0.64888 0.62316 0.0
O429 O 0.87906 0.66776 0.62358 0.0
O430 O 0.13327 0.57347 0.64604 0.0
O431 O 0.06593 0.55917 0.61219 0.0
H432 H 0.14282 0.566 0.57198 0.0
H433 H 0.38712 0.59648 0.56759 0.0
H434 H 0.28463 0.57466 0.63952 0.0
O435 O 0.64273 0.41178 0.55782 0.0
Tb436 Tb 0.643 0.4012 0.5978 0.0
Eu437 Eu 0.44669 0.41955 0.64856 0.0
C438 C 0.70023 0.42995 0.54695 0.0
O439 O 0.75575 0.44492 0.56078 0.0
C440 C 0.58234 0.46198 0.63303 0.0
O441 O 0.42779 0.41298 0.69006 0.0
C442 C 0.32176 0.44087 0.62422 0.0
C443 C 0.48487 0.39863 0.70361 0.0
O444 O 0.55037 0.38861 0.69234 0.0
C445 C 0.52051 0.34092 0.6212 0.0
C446 C 0.25841 0.42648 0.60769 0.0
C447 C 0.27052 0.42292 0.58158 0.0
C448 C 0.20936 0.41083 0.56573 0.0
C449 C 0.13607 0.40208 0.5763 0.0
C450 C 0.12254 0.40596 0.6021 0.0
C451 C 0.18348 0.41854 0.61772 0.0
O452 O 0.56331 0.43594 0.61739 0.0
O453 O 0.53542 0.46456 0.65211 0.0
O454 O 0.74869 0.42429 0.61521 0.0
O455 O 0.7493 0.36855 0.60482 0.0
C456 C 0.79106 0.39479 0.61454 0.0
O457 O 0.48044 0.36114 0.63767 0.0
O458 O 0.57382 0.35189 0.60449 0.0
O459 O 0.32056 0.43107 0.64802 0.0
O460 O 0.39349 0.44238 0.61484 0.0
H461 H 0.32727 0.42973 0.5735 0.0
H462 H 0.08756 0.394 0.56419 0.0
H463 H 0.17219 0.42235 0.6376 0.0
C464 C 0.54222 0.10077 0.11202 0.0
C465 C 0.58311 0.13044 0.1016 0.0
H466 H 0.42903 0.07801 0.1209 0.0
C467 C 0.54169 0.16258 0.09574 0.0
H468 H 0.57297 0.07561 0.11646 0.0
C469 C 0.45981 0.16411 0.09848 0.0
C470 C 0.41802 0.13331 0.10677 0.0
H471 H 0.57221 0.18576 0.08767 0.0
H472 H 0.42886 0.1885 0.09245 0.0
C473 C 0.46002 0.10213 0.11448 0.0
C474 C 0.03579 0.87314 0.12117 0.0
C475 C 0.09267 0.90012 0.12574 0.0
H476 H 0.91405 0.86177 0.11378 0.0
C477 C 0.06814 0.9361 0.13071 0.0
H478 H 0.05339 0.84526 0.11727 0.0
C479 C 0.9882 0.9456 0.12847 0.0
C480 C 0.93231 0.91903 0.12181 0.0
H481 H 0.1112 0.95743 0.13402 0.0
H482 H 0.97116 0.97407 0.12983 0.0
C483 C 0.95615 0.8825 0.11938 0.0
C484 C 0.98108 0.90326 0.39416 0.0
C485 C 0.93303 0.87428 0.40202 0.0
H486 H 0.09891 0.92318 0.38981 0.0
C487 C 0.96777 0.84086 0.40874 0.0
H488 H 0.95538 0.92924 0.38879 0.0
C489 C 0.05001 0.83753 0.40962 0.0
C490 C 0.09814 0.86732 0.40321 0.0
H491 H 0.93167 0.81817 0.41489 0.0
H492 H 0.07603 0.81239 0.41652 0.0
C493 C 0.06304 0.8997 0.39453 0.0
C494 C 0.52801 0.1797 0.40226 0.0
C495 C 0.56415 0.14613 0.39684 0.0
H496 H 0.41832 0.20752 0.40895 0.0
C497 C 0.51757 0.11642 0.38936 0.0
H498 H 0.56305 0.20293 0.40811 0.0
C499 C 0.43552 0.11936 0.38906 0.0
C500 C 0.39888 0.15182 0.3968 0.0
H501 H 0.54444 0.09034 0.38495 0.0
H502 H 0.40073 0.09527 0.38493 0.0
C503 C 0.44559 0.18239 0.4026 0.0
C504 C 0.47817 0.88967 0.88784 0.0
C505 C 0.44117 0.85958 0.89914 0.0
H506 H 0.58816 0.91552 0.8789 0.0
C507 C 0.48698 0.82955 0.9067 0.0
H508 H 0.44389 0.91327 0.88212 0.0
C509 C 0.56906 0.83065 0.90465 0.0
C510 C 0.60659 0.86206 0.89541 0.0
H511 H 0.45948 0.80612 0.9155 0.0
H512 H 0.60324 0.80792 0.91189 0.0
C513 C 0.56052 0.891 0.88611 0.0
C514 C 0.05479 0.06514 0.86968 0.0
C515 C 0.1091 0.09178 0.87745 0.0
H516 H 0.93269 0.05264 0.863 0.0
C517 C 0.08394 0.12808 0.88019 0.0
H518 H 0.07287 0.03685 0.868 0.0
C519 C 1.00419 0.13695 0.87789 0.0
C520 C 0.94861 0.10972 0.8725 0.0
H521 H 0.12484 0.14887 0.88656 0.0
H522 H 0.98533 0.16453 0.8822 0.0
C523 C 0.97475 0.07416 0.86698 0.0
C524 C 0.9807 0.13754 0.62697 0.0
C525 C 0.94606 0.10315 0.6232 0.0
H526 H 0.0889 0.16774 0.6298 0.0
C527 C 0.99364 0.07181 0.62367 0.0
H528 H 0.94489 0.16205 0.62617 0.0
C529 C 0.07554 0.07504 0.62537 0.0
C530 C 0.11094 0.10965 0.62671 0.0
H531 H 0.96805 0.04513 0.62037 0.0
H532 H 0.11138 0.05066 0.62356 0.0
C533 C 0.06291 0.14076 0.62897 0.0
C534 C 0.45094 0.92962 0.63484 0.0
C535 C 0.43013 0.89307 0.63031 0.0
H536 H 0.54375 0.96949 0.63349 0.0
C537 C 0.48972 0.86709 0.62635 0.0
H538 H 0.4058 0.9502 0.63768 0.0
C539 C 0.56839 0.878 0.62458 0.0
C540 C 0.58825 0.91506 0.62642 0.0
H541 H 0.47492 0.83879 0.62274 0.0
H542 H 0.61263 0.85801 0.61932 0.0
C543 C 0.5297 0.94066 0.63258 0.0
C544 C 0.95449 0.57922 0.13515 0.0
C545 C 0.93099 0.61458 0.12806 0.0
H546 H 0.05013 0.54065 0.13652 0.0
C547 C 0.98874 0.64063 0.12222 0.0
H548 H 0.91087 0.5586 0.13954 0.0
C549 C 0.06818 0.6306 0.12112 0.0
C550 C 0.09082 0.5943 0.12557 0.0
H551 H 0.97198 0.66806 0.11671 0.0
H552 H 0.11088 0.65029 0.11436 0.0
C553 C 0.03407 0.56901 0.13363 0.0
C554 C 0.48834 0.40415 0.11554 0.0
C555 C 0.45191 0.37365 0.1045 0.0
H556 H 0.59775 0.43018 0.12504 0.0
C557 C 0.49802 0.34301 0.09844 0.0
H558 H 0.45408 0.42821 0.12021 0.0
C559 C 0.57995 0.34397 0.10145 0.0
C560 C 0.61712 0.3758 0.1102 0.0
H561 H 0.47111 0.31914 0.09 0.0
H562 H 0.61446 0.32082 0.09513 0.0
C563 C 0.5705 0.40529 0.11827 0.0
C564 C 0.52007 0.43283 0.37772 0.0
C565 C 0.5713 0.40623 0.38769 0.0
H566 H 0.39944 0.44757 0.36982 0.0
C567 C 0.54096 0.37162 0.39361 0.0
H568 H 0.54175 0.46001 0.37364 0.0
C569 C 0.45999 0.36483 0.39205 0.0
C570 C 0.40777 0.39232 0.38415 0.0
H571 H 0.57901 0.35092 0.40175 0.0
H572 H 0.43768 0.33882 0.39863 0.0
C573 C 0.43868 0.42579 0.37573 0.0
C574 C 0.04778 0.66475 0.39951 0.0
C575 C 0.09366 0.63573 0.39037 0.0
H576 H 0.93283 0.68334 0.41025 0.0
C577 C 0.05524 0.60432 0.38127 0.0
H578 H 0.07567 0.68931 0.40657 0.0
C579 C 0.97273 0.60085 0.38346 0.0
C580 C 0.92784 0.62884 0.3946 0.0
H581 H 0.08931 0.58141 0.3743 0.0
H582 H 0.94506 0.57526 0.37833 0.0
C583 C 0.96591 0.66141 0.40151 0.0
C584 C 0.08709 0.4285 0.86762 0.0
C585 C 0.10929 0.39267 0.87396 0.0
H586 H 0.99333 0.46806 0.86754 0.0
C587 C 0.05062 0.367 0.87972 0.0
H588 H 0.13142 0.44886 0.86335 0.0
C589 C 0.97174 0.3778 0.88151 0.0
C590 C 0.95067 0.41447 0.87784 0.0
H591 H 0.06641 0.33924 0.8847 0.0
H592 H 0.92851 0.35833 0.88823 0.0
C593 C 0.00815 0.43945 0.86984 0.0
C594 C 0.48241 0.6057 0.88441 0.0
C595 C 0.43605 0.63536 0.89233 0.0
H596 H 0.59901 0.58297 0.88217 0.0
C597 C 0.47337 0.66759 0.90028 0.0
H598 H 0.45498 0.58053 0.87823 0.0
C599 C 0.55538 0.66879 0.90281 0.0
C600 C 0.60129 0.63803 0.89698 0.0
H601 H 0.43902 0.69089 0.90645 0.0
H602 H 0.58257 0.6929 0.91084 0.0
C603 C 0.56467 0.60711 0.88661 0.0
C604 C 0.5507 0.58089 0.63006 0.0
C605 C 0.58001 0.61498 0.62229 0.0
H606 H 0.45024 0.54499 0.63066 0.0
C607 C 0.52714 0.64171 0.61371 0.0
H608 H 0.59055 0.55985 0.63672 0.0
C609 C 0.44743 0.63347 0.61068 0.0
C610 C 0.41932 0.59825 0.61595 0.0
H611 H 0.54824 0.66825 0.60775 0.0
H612 H 0.40881 0.65372 0.60227 0.0
C613 C 0.47057 0.57245 0.62675 0.0
C614 C 0.99933 0.42853 0.62255 0.0
C615 C 0.04189 0.39967 0.6117 0.0
H616 H 0.88504 0.44943 0.63213 0.0
C617 C 1.0027 0.36693 0.60595 0.0
H618 H 0.02826 0.45414 0.62691 0.0
C619 C 0.9211 0.36412 0.60906 0.0
C620 C 0.87745 0.39419 0.61766 0.0
H621 H 0.03455 0.34434 0.59757 0.0
H622 H 0.89167 0.3394 0.60298 0.0
C623 C 0.91748 0.42586 0.62542 0.0
C624 C 0.20398 0.1105 0.99434 0.0
C625 C 0.24525 0.08629 0.01002 0.0
H626 H 0.17736 0.12694 0.95687 0.0
C627 C 0.29223 0.05885 0.99914 0.0
H628 H 0.16838 0.13233 1.00211 0.0
C629 C 0.29637 0.05531 0.97296 0.0
C630 C 0.25409 0.07935 0.9573 0.0
H631 H 0.32487 0.03986 0.01083 0.0
H632 H 0.3313 0.03338 0.96502 0.0
C633 C 0.20896 0.1073 0.96835 0.0
C634 C 0.21792 0.90863 0.00599 0.0
C635 C 0.25969 0.88476 0.02202 0.0
H636 H 0.18604 0.92227 0.96804 0.0
C637 C 0.29462 0.85345 0.01162 0.0
H638 H 0.18981 0.93292 0.0134 0.0
C639 C 0.29099 0.84701 0.98574 0.0
C640 C 0.25321 0.87192 0.96947 0.0
H641 H 0.32608 0.83417 0.02342 0.0
H642 H 0.32031 0.82304 0.9783 0.0
C643 C 0.21486 0.90233 0.97999 0.0
C644 C 0.68041 0.91195 0.50876 0.0
C645 C 0.72476 0.93672 0.49448 0.0
H646 H 0.64998 0.8925 0.54519 0.0
C647 C 0.7713 0.96286 0.50702 0.0
H648 H 0.64443 0.89126 0.49979 0.0
C649 C 0.77394 0.9638 0.53336 0.0
C650 C 0.73 0.93866 0.54755 0.0
H651 H 0.80622 0.98234 0.49652 0.0
H652 H 0.80989 0.98426 0.54259 0.0
C653 C 0.68336 0.91277 0.53488 0.0
C654 C 0.73917 0.06692 0.50665 0.0
C655 C 0.78261 0.09249 0.49264 0.0
H656 H 0.70735 0.04758 0.5433 0.0
C657 C 0.82803 0.11866 0.50544 0.0
H658 H 0.7037 0.04637 0.49734 0.0
C659 C 0.82931 0.11961 0.53161 0.0
C660 C 0.78557 0.0943 0.54568 0.0
H661 H 0.86189 0.13889 0.49527 0.0
H662 H 0.86389 0.14055 0.54085 0.0
C663 C 0.74064 0.06783 0.53294 0.0
C664 C 0.734 0.94901 1.00198 0.0
C665 C 0.78254 0.92232 0.99089 0.0
H666 H 0.6962 0.97452 0.03628 0.0
C667 C 0.82822 0.8996 0.0064 0.0
H668 H 0.69793 0.96682 0.99043 0.0
C669 C 0.82586 0.9034 0.03237 0.0
C670 C 0.77911 0.93059 0.04363 0.0
H671 H 0.86507 0.8783 0.99851 0.0
H672 H 0.86064 0.88471 0.04366 0.0
C673 C 0.73258 0.95324 0.02818 0.0
C674 C 0.80935 0.08948 0.99166 0.0
C675 C 0.77051 0.1154 0.97652 0.0
H676 H 0.83477 0.07095 0.02896 0.0
C677 C 0.73249 0.14504 0.98809 0.0
H678 H 0.8393 0.06631 0.98334 0.0
C679 C 0.73098 0.14799 0.01428 0.0
C680 C 0.76692 0.12123 0.0295 0.0
H681 H 0.70278 0.16568 0.97696 0.0
H682 H 0.70022 0.1709 0.02265 0.0
C683 C 0.80741 0.09231 0.01786 0.0
C684 C 0.25292 0.16287 0.48401 0.0
C685 C 0.22035 0.13664 0.46771 0.0
H686 H 0.29421 0.17505 0.52109 0.0
C687 C 0.19591 0.10299 0.47773 0.0
H688 H 0.27167 0.18918 0.47689 0.0
C689 C 0.20874 0.09488 0.50314 0.0
C690 C 0.24673 0.12017 0.51896 0.0
H691 H 0.17156 0.08203 0.46564 0.0
H692 H 0.19198 0.0682 0.51009 0.0
C693 C 0.26644 0.15465 0.50929 0.0
C694 C 0.32811 0.90104 0.4834 0.0
C695 C 0.29362 0.87067 0.47155 0.0
H696 H 0.34788 0.92965 0.51799 0.0
C697 C 0.25932 0.84342 0.48671 0.0
H698 H 0.35429 0.9227 0.47236 0.0
C699 C 0.25372 0.84783 0.51276 0.0
C700 C 0.28362 0.87929 0.52442 0.0
H701 H 0.23319 0.81939 0.47824 0.0
H702 H 0.22416 0.82698 0.52367 0.0
C703 C 0.32345 0.90522 0.50956 0.0
C704 C 0.73736 0.65259 0.01085 0.0
C705 C 0.7713 0.62223 0.02285 0.0
H706 H 0.71456 0.68013 0.97611 0.0
C707 C 0.81411 0.59698 0.00822 0.0
H708 H 0.70513 0.67287 0.02154 0.0
C709 C 0.81921 0.60102 0.98204 0.0
C710 C 0.78193 0.6305 0.96991 0.0
H711 H 0.8415 0.57335 0.01687 0.0
H712 H 0.84888 0.58006 0.97122 0.0
C713 C 0.74303 0.65679 0.98478 0.0
C714 C 0.76672 0.43132 0.97221 0.0
C715 C 0.82123 0.44949 0.95687 0.0
H716 H 0.7386 0.41249 0.00902 0.0
C717 C 0.88687 0.46656 0.96812 0.0
H718 H 0.71595 0.41765 0.96415 0.0
C719 C 0.90065 0.46318 0.99395 0.0
C720 C 0.84892 0.44271 0.00894 0.0
H721 H 0.92931 0.48125 0.95678 0.0
H722 H 0.95337 0.47529 1.00192 0.0
C723 C 0.78037 0.428 0.99795 0.0
C724 C 0.18594 0.38052 0.49801 0.0
C725 C 0.22204 0.40922 0.48487 0.0
H726 H 0.15636 0.35783 0.53376 0.0
C727 C 0.25889 0.43733 0.49853 0.0
H728 H 0.158 0.3582 0.48804 0.0
C729 C 0.25723 0.43733 0.52484 0.0
C730 C 0.2192 0.40907 0.53798 0.0
H731 H 0.28717 0.45985 0.48891 0.0
H732 H 0.28322 0.46012 0.53482 0.0
C733 C 0.18498 0.38033 0.52423 0.0
C734 C 0.22128 0.56165 0.52328 0.0
C735 C 0.25864 0.58726 0.53897 0.0
H736 H 0.19634 0.54516 0.48534 0.0
C737 C 0.29637 0.61747 0.52793 0.0
H738 H 0.19216 0.538 0.53121 0.0
C739 C 0.30028 0.62111 0.50192 0.0
C740 C 0.26514 0.59507 0.48618 0.0
H741 H 0.3241 0.63819 0.53947 0.0
H742 H 0.33089 0.64447 0.49415 0.0
C743 C 0.22422 0.56562 0.49707 0.0
C744 C 0.22858 0.40658 0.01966 0.0
C745 C 0.2678 0.37782 0.032 0.0
H746 H 0.20157 0.43246 0.9846 0.0
C747 C 0.30528 0.35088 0.01736 0.0
H748 H 0.19994 0.42804 0.03029 0.0
C749 C 0.3075 0.35376 0.99116 0.0
C750 C 0.27159 0.38345 0.97894 0.0
H751 H 0.33504 0.32804 0.02624 0.0
H752 H 0.3388 0.33309 0.98055 0.0
C753 C 0.23027 0.40931 0.99343 0.0
C754 C 0.15321 0.54888 0.00986 0.0
C755 C 0.20371 0.57085 0.99545 0.0
H756 H 0.12429 0.52897 0.04655 0.0
C757 C 0.27022 0.58657 0.00709 0.0
H758 H 0.10213 0.53596 1.00142 0.0
C759 C 0.28299 0.5825 0.03288 0.0
C760 C 0.22948 0.56266 0.04759 0.0
H761 H 0.31096 0.6033 0.99648 0.0
H762 H 0.33202 0.59677 0.04152 0.0
C763 C 0.16601 0.54482 0.03568 0.0
C764 C 0.80143 0.63987 0.51031 0.0
C765 C 0.76259 0.61144 0.5229 0.0
H766 H 0.82957 0.6645 0.475 0.0
C767 C 0.71943 0.58589 0.50866 0.0
H768 H 0.83431 0.66026 0.5207 0.0
C769 C 0.71722 0.58809 0.48238 0.0
C770 C 0.7578 0.61602 0.46972 0.0
H771 H 0.68871 0.56362 0.51777 0.0
H772 H 0.68609 0.56715 0.47198 0.0
C773 C 0.79866 0.64226 0.48408 0.0
C774 C 0.75374 0.45537 0.50654 0.0
C775 C 0.70624 0.42997 0.51929 0.0
H776 H 0.79429 0.47499 0.4708 0.0
C777 C 0.66596 0.40326 0.50544 0.0
H778 H 0.78564 0.47621 0.51681 0.0
C779 C 0.67246 0.40197 0.4794 0.0
C780 C 0.71801 0.42788 0.4664 0.0
H781 H 0.63014 0.38285 0.51473 0.0
H782 H 0.64158 0.38051 0.46943 0.0
C783 C 0.75923 0.45447 0.48025 0.0
C784 C 0.21505 0.02703 0.09849 0.0
C785 C 0.19232 0.04208 0.12164 0.0
H786 H 0.29088 0.98913 0.07942 0.0
C787 C 0.23188 0.03128 0.14359 0.0
H788 H 0.18435 0.03458 0.08138 0.0
C789 C 0.29285 1.00568 0.14251 0.0
C790 C 0.31441 0.98965 0.11951 0.0
H791 H 0.21508 0.04237 0.16168 0.0
H792 H 0.32144 0.99768 0.15989 0.0
C793 C 0.2755 1.0009 0.09743 0.0
C794 C 0.72347 0.04608 0.37675 0.0
C795 C 0.8039 0.03727 0.37766 0.0
H796 H 0.60421 0.02622 0.37721 0.0
C797 C 0.82598 1.00029 0.37709 0.0
H798 H 0.70527 0.0738 0.37314 0.0
C799 C 0.76848 0.97289 0.37676 0.0
C800 C 0.68828 0.9817 0.3786 0.0
H801 H 0.88763 0.99263 0.37569 0.0
H802 H 0.78625 0.94508 0.37319 0.0
C803 C 0.66603 0.01865 0.37795 0.0
C804 C 0.80837 0.97328 0.85505 0.0
C805 C 0.843 0.95887 0.87689 0.0
H806 H 0.72528 0.01101 0.83939 0.0
C807 C 0.81849 0.97194 0.90042 0.0
H808 H 0.82655 0.96376 0.83668 0.0
C809 C 0.76132 0.99959 0.90202 0.0
C810 C 0.72686 0.01415 0.88011 0.0
H811 H 0.84529 0.9616 0.9175 0.0
H812 H 0.74456 0.00975 0.92037 0.0
C813 C 0.75022 1.00027 0.85664 0.0
C814 C 0.25333 0.99029 0.59879 0.0
C815 C 0.21181 0.97958 0.6204 0.0
H816 H 0.34535 0.02393 0.58361 0.0
C817 C 0.23157 0.99542 0.64363 0.0
H818 H 0.23923 0.97864 0.58063 0.0
C819 C 0.29237 0.02089 0.64535 0.0
C820 C 0.33397 0.03157 0.62382 0.0
H821 H 0.20091 0.98778 0.66067 0.0
H822 H 0.30649 0.03235 0.66358 0.0
C823 C 0.3138 0.01621 0.60048 0.0
C824 C 0.81036 0.48969 0.14404 0.0
C825 C 0.84392 0.47685 0.12164 0.0
H826 H 0.72207 0.52325 0.16107 0.0
C827 C 0.81213 0.48836 0.09858 0.0
H828 H 0.8339 0.48125 0.16209 0.0
C829 C 0.74879 0.513 0.09793 0.0
C830 C 0.7154 0.52601 0.12038 0.0
H831 H 0.83748 0.47907 0.08109 0.0
H832 H 0.72622 0.52197 0.07989 0.0
C833 C 0.74615 0.51365 0.14343 0.0
C834 C 0.21841 0.49973 0.3575 0.0
C835 C 0.18945 0.48624 0.38043 0.0
H836 H 0.30164 0.53477 0.33919 0.0
C837 C 0.22334 0.49869 0.40296 0.0
H838 H 0.19365 0.49062 0.3398 0.0
C839 C 0.28528 0.52385 0.40259 0.0
C840 C 0.31436 0.5373 0.3797 0.0
H841 H 0.20178 0.48913 0.42092 0.0
H842 H 0.31088 0.53252 0.42027 0.0
C843 C 0.28051 0.52489 0.35714 0.0
C844 C 0.29513 0.49687 0.90657 0.0
C845 C 0.3279 0.48287 0.88431 0.0
H846 H 0.20995 0.53312 0.92293 0.0
C847 C 0.29973 0.49582 0.86109 0.0
H848 H 0.31573 0.4874 0.92472 0.0
C849 C 0.23846 0.52136 0.86013 0.0
C850 C 0.20547 0.53523 0.88235 0.0
H851 H 0.32335 0.48542 0.8436 0.0
H852 H 0.21666 0.53016 0.84196 0.0
C853 C 0.23493 0.52313 0.90558 0.0
C854 C 0.76608 0.51454 0.65058 0.0
C855 C 0.79287 0.52637 0.62695 0.0
H856 H 0.67752 0.48516 0.67101 0.0
C857 C 0.74984 0.51666 0.60535 0.0
H858 H 0.79764 0.52175 0.66759 0.0
C859 C 0.68115 0.49573 0.60736 0.0
C860 C 0.65476 0.48391 0.63098 0.0
H861 H 0.76937 0.52514 0.5869 0.0
H862 H 0.64864 0.48874 0.59048 0.0
C863 C 0.69717 0.4938 0.65259 0.0
C864 C 0.03537 0.24732 0.13109 0.0
C865 C 0.05229 0.22837 0.10878 0.0
H866 H 0.99778 0.29737 0.14796 0.0
C867 C 0.04825 0.24727 0.08581 0.0
H868 H 0.03877 0.23364 0.14912 0.0
C869 C 0.02344 0.2838 0.08509 0.0
C870 C 1.00376 0.30233 0.10736 0.0
H871 H 0.0609 0.23341 0.06829 0.0
H872 H 0.01794 0.2973 0.06705 0.0
C873 C 0.01226 0.28397 0.13042 0.0
C874 C 0.43061 0.76498 0.12241 0.0
C875 C 0.4864 0.7934 0.12188 0.0
H876 H 0.41017 0.70729 0.1228 0.0
C877 C 0.5671 0.78419 0.12133 0.0
H878 H 0.36794 0.77095 0.12284 0.0
C879 C 0.59132 0.74763 0.12131 0.0
C880 C 0.53561 0.71919 0.12181 0.0
H881 H 0.61191 0.80522 0.12093 0.0
H882 H 0.65403 0.74176 0.12087 0.0
C883 C 0.45486 0.72836 0.12236 0.0
C884 C 0.47687 0.75046 0.41078 0.0
C885 C 0.4729 0.73245 0.38747 0.0
H886 H 0.51415 0.79834 0.43081 0.0
C887 C 0.49721 0.75116 0.36577 0.0
H888 H 0.4588 0.73674 0.42785 0.0
C889 C 0.52771 0.78651 0.36743 0.0
C890 C 0.53601 0.80371 0.39089 0.0
H891 H 0.49438 0.73814 0.34751 0.0
H892 H 0.54837 0.7996 0.35044 0.0
C893 C 0.50889 0.78563 0.4125 0.0
C894 C 0.02988 0.26855 0.405 0.0
C895 C 0.01922 0.28924 0.38299 0.0
H896 H 1.0058 0.21816 0.42418 0.0
C897 C 0.98124 0.27317 0.36228 0.0
H898 H 0.05861 0.28036 0.42129 0.0
C899 C 0.95308 0.23733 0.36372 0.0
C900 C 0.96018 0.21732 0.38616 0.0
H901 H 0.97252 0.28848 0.34507 0.0
H902 H 0.92262 0.2259 0.34762 0.0
C903 C 0.99952 0.23309 0.4067 0.0
C904 C 1.00582 0.76341 0.87138 0.0
C905 C 0.99001 0.78236 0.89381 0.0
H906 H 0.04818 0.71411 0.8544 0.0
C907 C 1.00593 0.76498 0.91684 0.0
H908 H 0.99381 0.77586 0.8533 0.0
C909 C 0.03731 0.72964 0.91747 0.0
C910 C 0.05301 0.71064 0.89508 0.0
H911 H 0.99443 0.77876 0.93447 0.0
H912 H 0.04948 0.71722 0.93555 0.0
C913 C 0.03635 0.72784 0.87202 0.0
C914 C 0.60925 0.24109 0.88138 0.0
C915 C 0.55312 0.21278 0.88118 0.0
H916 H 0.63034 0.29876 0.88223 0.0
C917 C 0.47255 0.22211 0.88171 0.0
H918 H 0.67183 0.23498 0.88106 0.0
C919 C 0.44873 0.25875 0.88228 0.0
C920 C 0.50481 0.28708 0.8825 0.0
H921 H 0.42759 0.20111 0.88153 0.0
H922 H 0.38613 0.26479 0.8826 0.0
C923 C 0.58542 0.27775 0.88212 0.0
C924 C 0.47212 0.24548 0.59864 0.0
C925 C 0.46858 0.22613 0.62139 0.0
H926 H 0.4936 0.29707 0.58076 0.0
C927 C 0.48173 0.24481 0.64407 0.0
H928 H 0.46257 0.23161 0.58091 0.0
C929 C 0.49724 0.28232 0.64403 0.0
C930 C 0.50253 0.30151 0.62125 0.0
H931 H 0.47909 0.23045 0.66186 0.0
H932 H 0.50662 0.29619 0.66177 0.0
C933 C 0.49026 0.28276 0.59855 0.0
C934 C 0.92758 0.74217 0.62122 0.0
C935 C 0.98229 0.71328 0.62266 0.0
H936 H 0.90951 0.80001 0.61929 0.0
C937 C 0.06331 0.72169 0.62338 0.0
H938 H 0.86475 0.7368 0.62062 0.0
C939 C 0.08898 0.75794 0.62262 0.0
C940 C 0.03439 0.78681 0.62105 0.0
H941 H 0.10736 0.70028 0.62452 0.0
H942 H 0.15184 0.76323 0.62318 0.0
C943 C 0.95332 0.77848 0.6204 0.0
C944 C 0.04238 0.17467 0.26112 0.0
C945 C 0.01461 0.1443 0.27458 0.0
H946 H 0.06481 0.19814 0.22497 0.0
C947 C 0.98614 0.1139 0.26126 0.0
H948 H 0.06463 0.19852 0.27085 0.0
C949 C 0.9855 0.11382 0.23503 0.0
C950 C 0.01406 0.144 0.22155 0.0
H951 H 0.96397 0.09013 0.27108 0.0
H952 H 0.96344 0.0899 0.22535 0.0
C953 C 0.04249 0.17445 0.23485 0.0
C954 C 0.46723 0.8435 0.23454 0.0
C955 C 0.48531 0.87607 0.22179 0.0
H956 H 0.4518 0.8169 0.27007 0.0
C957 C 0.50085 0.90766 0.23599 0.0
H958 H 0.45489 0.81867 0.22421 0.0
C959 C 0.49882 0.90668 0.26227 0.0
C960 C 0.48143 0.87407 0.27504 0.0
H961 H 0.51483 0.93325 0.22683 0.0
H962 H 0.51153 0.93151 0.27256 0.0
C963 C 0.46543 0.8425 0.26086 0.0
C964 C 0.95031 0.83429 0.73206 0.0
C965 C 0.99334 0.86157 0.71955 0.0
H966 H 0.91756 0.81066 0.76734 0.0
C967 C 0.04004 0.88558 0.73387 0.0
H968 H 0.9139 0.81528 0.72163 0.0
C969 C 0.0422 0.88291 0.76011 0.0
C970 C 0.99765 0.8562 0.77266 0.0
H971 H 0.07414 0.90686 0.72487 0.0
H972 H 0.07784 0.90222 0.77055 0.0
C973 C 0.9524 0.83165 0.75831 0.0
C974 C 0.54203 0.11015 0.76961 0.0
C975 C 0.4903 0.13203 0.78372 0.0
H976 H 0.58046 0.09347 0.73318 0.0
C977 C 0.43801 0.15553 0.77101 0.0
H978 H 0.58325 0.09179 0.77877 0.0
C979 C 0.43641 0.15648 0.74472 0.0
C980 C 0.48701 0.13393 0.73066 0.0
H981 H 0.39745 0.17276 0.78134 0.0
H982 H 0.39477 0.1745 0.73544 0.0
C983 C 0.54036 0.11106 0.74341 0.0
C984 C 0.53238 0.61105 0.237 0.0
C985 C 0.48231 0.63419 0.22304 0.0
H986 H 0.57096 0.59356 0.27353 0.0
C987 C 0.4334 0.65873 0.23606 0.0
H988 H 0.5709 0.59182 0.22759 0.0
C989 C 0.43336 0.65967 0.26235 0.0
C990 C 0.48233 0.63613 0.27635 0.0
H991 H 0.39418 0.677 0.22598 0.0
H992 H 0.39417 0.67869 0.27169 0.0
C993 C 0.53244 0.61204 0.26335 0.0
C994 C 0.93258 0.40696 0.24146 0.0
C995 C 0.99762 0.4012 0.2256 0.0
H996 H 0.89071 0.4112 0.27926 0.0
C997 C 0.07204 0.39443 0.23641 0.0
H998 H 0.87443 0.41223 0.23374 0.0
C999 C 0.08133 0.39375 0.26251 0.0
C1000 C 0.01649 0.39994 0.27837 0.0
H1001 H 0.12336 0.3898 0.22473 0.0
H1002 H 0.13958 0.38869 0.27022 0.0
C1003 C 0.94192 0.40639 0.26757 0.0
C1004 C 0.54263 0.3847 0.74585 0.0
C1005 C 0.47739 0.39534 0.73121 0.0
H1006 H 0.58927 0.37615 0.78277 0.0
C1007 C 0.40591 0.40378 0.74326 0.0
H1008 H 0.5985 0.3779 0.73715 0.0
C1009 C 0.40044 0.4025 0.76948 0.0
C1010 C 0.46653 0.39304 0.78414 0.0
H1011 H 0.35444 0.41188 0.7325 0.0
H1012 H 0.34503 0.4099 0.77824 0.0
C1013 C 0.53734 0.38369 0.77203 0.0
C1014 C 0.95362 0.66108 0.73505 0.0
C1015 C 0.98682 0.63076 0.72273 0.0
H1016 H 0.92878 0.68726 0.77018 0.0
C1017 C 0.02152 0.603 0.73733 0.0
H1018 H 0.92651 0.683 0.72441 0.0
C1019 C 0.02229 0.60531 0.7636 0.0
C1020 C 0.98896 0.63558 0.77593 0.0
H1021 H 0.04748 0.57921 0.72849 0.0
H1022 H 0.04919 0.58332 0.77423 0.0
C1023 C 0.95496 0.66354 0.76132 0.0
loop_
_geom_bond_atom_site_label_1
_geom_bond_atom_site_label_2
_geom_bond_distance
_geom_bond_site_symmetry_2
_ccdc_geom_bond_type
O0 Tb1 2.292 . S
O0 C3 1.255 . S
Tb1 O0 2.292 . S
Tb1 O17 2.326 . S
Tb1 O19 2.500 . S
Tb1 O20 2.473 . S
Tb1 O23 2.324 . S
Eu2 O6 2.292 1_455 S
Eu2 C7 2.852 1_455 S
Eu2 O18 2.324 . S
Eu2 O22 2.326 . S
Eu2 O24 2.500 1_455 S
Eu2 O25 2.473 1_455 S
C3 O0 1.255 . S
C3 O4 1.247 . S
O4 C3 1.247 . S
C5 O17 1.242 . S
C5 O18 1.258 . S
O6 Eu2 2.292 1_655 S
O6 C8 1.255 . S
C7 Eu2 2.852 1_655 S
C7 C11 1.503 . S
C7 O24 1.273 . S
C7 O25 1.257 . S
C8 O6 1.255 . S
C8 O9 1.247 1_655 S
O9 C8 1.247 1_455 S
C10 O22 1.242 . S
C10 O23 1.258 . S
C11 C7 1.503 . S
C11 C12 1.379 . S
C11 C16 1.392 . S
C12 C11 1.379 . S
C12 C13 1.404 . S
C12 H26 0.929 . S
C13 C12 1.404 . S
C13 C14 1.389 . S
C14 C13 1.389 . S
C14 C15 1.399 . S
C14 H27 0.931 . S
C15 C14 1.399 . S
C15 C16 1.390 . S
C16 C11 1.392 . S
C16 C15 1.390 . S
C16 H28 0.929 . S
O17 Tb1 2.326 . S
O17 C5 1.242 . S
O18 Eu2 2.324 . S
O18 C5 1.258 . S
O19 Tb1 2.500 . S
O19 C21 1.273 . S
O20 Tb1 2.473 . S
O20 C21 1.257 . S
C21 O19 1.273 . S
C21 O20 1.257 . S
O22 Eu2 2.326 . S
O22 C10 1.242 . S
O23 Tb1 2.324 . S
O23 C10 1.258 . S
O24 Eu2 2.500 1_655 S
O24 C7 1.273 . S
O25 Eu2 2.473 1_655 S
O25 C7 1.257 . S
H26 C12 0.929 . S
H27 C14 0.931 . S
H28 C16 0.929 . S
O29 Tb30 2.292 . S
O29 C32 1.255 . S
Tb30 O29 2.292 . S
Tb30 O46 2.326 . S
Tb30 O48 2.500 . S
Tb30 O49 2.473 . S
Tb30 O52 2.324 . S
Eu31 O35 2.292 . S
Eu31 C36 2.852 . S
Eu31 O47 2.324 . S
Eu31 O51 2.326 . S
Eu31 O53 2.500 . S
Eu31 O54 2.473 . S
C32 O29 1.255 . S
C32 O33 1.247 . S
O33 C32 1.247 . S
C34 O46 1.242 . S
C34 O47 1.258 . S
O35 Eu31 2.292 . S
O35 C37 1.255 . S
C36 Eu31 2.852 . S
C36 C40 1.503 . S
C36 O53 1.273 . S
C36 O54 1.257 . S
C37 O35 1.255 . S
C37 O38 1.247 . S
O38 C37 1.247 . S
C39 O51 1.242 . S
C39 O52 1.258 . S
C40 C36 1.503 . S
C40 C41 1.379 . S
C40 C45 1.392 . S
C41 C40 1.379 . S
C41 C42 1.404 . S
C41 H55 0.929 . S
C42 C41 1.404 . S
C42 C43 1.389 . S
C43 C42 1.389 . S
C43 C44 1.399 . S
C43 H56 0.931 . S
C44 C43 1.399 . S
C44 C45 1.390 . S
C45 C40 1.392 . S
C45 C44 1.390 . S
C45 H57 0.929 . S
O46 Tb30 2.326 . S
O46 C34 1.242 . S
O47 Eu31 2.324 . S
O47 C34 1.258 . S
O48 Tb30 2.500 . S
O48 C50 1.273 . S
O49 Tb30 2.473 . S
O49 C50 1.257 . S
C50 O48 1.273 . S
C50 O49 1.257 . S
O51 Eu31 2.326 . S
O51 C39 1.242 . S
O52 Tb30 2.324 . S
O52 C39 1.258 . S
O53 Eu31 2.500 . S
O53 C36 1.273 . S
O54 Eu31 2.473 . S
O54 C36 1.257 . S
H55 C41 0.929 . S
H56 C43 0.931 . S
H57 C45 0.929 . S
O58 Tb59 2.292 . S
O58 C61 1.255 . S
Tb59 O58 2.292 . S
Tb59 O75 2.326 . S
Tb59 O77 2.500 . S
Tb59 O78 2.473 . S
Tb59 O81 2.324 . S
Eu60 O64 2.292 . S
Eu60 C65 2.852 . S
Eu60 O76 2.324 . S
Eu60 O80 2.326 . S
Eu60 O82 2.500 . S
Eu60 O83 2.473 . S
C61 O58 1.255 . S
C61 O62 1.247 . S
O62 C61 1.247 . S
C63 O75 1.242 . S
C63 O76 1.258 . S
O64 Eu60 2.292 . S
O64 C66 1.255 . S
C65 Eu60 2.852 . S
C65 C69 1.503 . S
C65 O82 1.273 . S
C65 O83 1.257 . S
C66 O64 1.255 . S
C66 O67 1.247 . S
O67 C66 1.247 . S
C68 O80 1.242 . S
C68 O81 1.258 . S
C69 C65 1.503 . S
C69 C70 1.379 . S
C69 C74 1.392 . S
C70 C69 1.379 . S
C70 C71 1.404 . S
C70 H84 0.929 . S
C71 C70 1.404 . S
C71 C72 1.389 . S
C72 C71 1.389 . S
C72 C73 1.399 . S
C72 H85 0.931 . S
C73 C72 1.399 . S
C73 C74 1.390 . S
C74 C69 1.392 . S
C74 C73 1.390 . S
C74 H86 0.929 . S
O75 Tb59 2.326 . S
O75 C63 1.242 . S
O76 Eu60 2.324 . S
O76 C63 1.258 . S
O77 Tb59 2.500 . S
O77 C79 1.273 . S
O78 Tb59 2.473 . S
O78 C79 1.257 . S
C79 O77 1.273 . S
C79 O78 1.257 . S
O80 Eu60 2.326 . S
O80 C68 1.242 . S
O81 Tb59 2.324 . S
O81 C68 1.258 . S
O82 Eu60 2.500 . S
O82 C65 1.273 . S
O83 Eu60 2.473 . S
O83 C65 1.257 . S
H84 C70 0.929 . S
H85 C72 0.931 . S
H86 C74 0.929 . S
O87 Tb88 2.292 . S
O87 C90 1.255 . S
Tb88 O87 2.292 . S
Tb88 O104 2.326 . S
Tb88 O106 2.500 . S
Tb88 O107 2.473 . S
Tb88 O110 2.324 . S
Eu89 O93 2.292 1_655 S
Eu89 C94 2.852 1_655 S
Eu89 O105 2.324 . S
Eu89 O109 2.326 . S
Eu89 O111 2.500 1_655 S
Eu89 O112 2.473 1_655 S
C90 O87 1.255 . S
C90 O91 1.247 . S
O91 C90 1.247 . S
C92 O104 1.242 . S
C92 O105 1.258 . S
O93 Eu89 2.292 1_455 S
O93 C95 1.255 . S
C94 Eu89 2.852 1_455 S
C94 C98 1.503 . S
C94 O111 1.273 . S
C94 O112 1.257 . S
C95 O93 1.255 . S
C95 O96 1.247 1_455 S
O96 C95 1.247 1_655 S
C97 O109 1.242 . S
C97 O110 1.258 . S
C98 C94 1.503 . S
C98 C99 1.379 . S
C98 C103 1.392 . S
C99 C98 1.379 . S
C99 C100 1.404 . S
C99 H113 0.929 . S
C100 C99 1.404 . S
C100 C101 1.389 . S
C101 C100 1.389 . S
C101 C102 1.399 . S
C101 H114 0.931 . S
C102 C101 1.399 . S
C102 C103 1.390 . S
C103 C98 1.392 . S
C103 C102 1.390 . S
C103 H115 0.929 . S
O104 Tb88 2.326 . S
O104 C92 1.242 . S
O105 Eu89 2.324 . S
O105 C92 1.258 . S
O106 Tb88 2.500 . S
O106 C108 1.273 . S
O107 Tb88 2.473 . S
O107 C108 1.257 . S
C108 O106 1.273 . S
C108 O107 1.257 . S
O109 Eu89 2.326 . S
O109 C97 1.242 . S
O110 Tb88 2.324 . S
O110 C97 1.258 . S
O111 Eu89 2.500 1_455 S
O111 C94 1.273 . S
O112 Eu89 2.473 1_455 S
O112 C94 1.257 . S
H113 C99 0.929 . S
H114 C101 0.931 . S
H115 C103 0.929 . S
O116 Tb117 2.292 . S
O116 C119 1.255 . S
Tb117 O116 2.292 . S
Tb117 O133 2.326 . S
Tb117 O135 2.500 . S
Tb117 O136 2.473 . S
Tb117 O139 2.324 . S
Eu118 O122 2.292 1_655 S
Eu118 C123 2.852 1_655 S
Eu118 O134 2.324 . S
Eu118 O138 2.326 . S
Eu118 O140 2.500 1_655 S
Eu118 O141 2.473 1_655 S
C119 O116 1.255 . S
C119 O120 1.247 . S
O120 C119 1.247 . S
C121 O133 1.242 . S
C121 O134 1.258 . S
O122 Eu118 2.292 1_455 S
O122 C124 1.255 . S
C123 Eu118 2.852 1_455 S
C123 C127 1.503 . S
C123 O140 1.273 . S
C123 O141 1.257 . S
C124 O122 1.255 . S
C124 O125 1.247 1_455 S
O125 C124 1.247 1_655 S
C126 O138 1.242 . S
C126 O139 1.258 . S
C127 C123 1.503 . S
C127 C128 1.379 . S
C127 C132 1.392 . S
C128 C127 1.379 . S
C128 C129 1.404 . S
C128 H142 0.929 . S
C129 C128 1.404 . S
C129 C130 1.389 . S
C130 C129 1.389 . S
C130 C131 1.399 . S
C130 H143 0.931 . S
C131 C130 1.399 . S
C131 C132 1.390 . S
C132 C127 1.392 . S
C132 C131 1.390 . S
C132 H144 0.929 . S
O133 Tb117 2.326 . S
O133 C121 1.242 . S
O134 Eu118 2.324 . S
O134 C121 1.258 . S
O135 Tb117 2.500 . S
O135 C137 1.273 . S
O136 Tb117 2.473 . S
O136 C137 1.257 . S
C137 O135 1.273 . S
C137 O136 1.257 . S
O138 Eu118 2.326 . S
O138 C126 1.242 . S
O139 Tb117 2.324 . S
O139 C126 1.258 . S
O140 Eu118 2.500 1_455 S
O140 C123 1.273 . S
O141 Eu118 2.473 1_455 S
O141 C123 1.257 . S
H142 C128 0.929 . S
H143 C130 0.931 . S
H144 C132 0.929 . S
O145 Tb146 2.292 . S
O145 C148 1.255 . S
Tb146 O145 2.292 . S
Tb146 O162 2.326 . S
Tb146 O164 2.500 . S
Tb146 O165 2.473 . S
Tb146 O168 2.324 . S
Eu147 O151 2.292 . S
Eu147 C152 2.852 . S
Eu147 O163 2.324 . S
Eu147 O167 2.326 . S
Eu147 O169 2.500 . S
Eu147 O170 2.473 . S
C148 O145 1.255 . S
C148 O149 1.247 . S
O149 C148 1.247 . S
C150 O162 1.242 . S
C150 O163 1.258 . S
O151 Eu147 2.292 . S
O151 C153 1.255 . S
C152 Eu147 2.852 . S
C152 C156 1.503 . S
C152 O169 1.273 . S
C152 O170 1.257 . S
C153 O151 1.255 . S
C153 O154 1.247 . S
O154 C153 1.247 . S
C155 O167 1.242 . S
C155 O168 1.258 . S
C156 C152 1.503 . S
C156 C157 1.379 . S
C156 C161 1.392 . S
C157 C156 1.379 . S
C157 C158 1.404 . S
C157 H171 0.929 . S
C158 C157 1.404 . S
C158 C159 1.389 . S
C159 C158 1.389 . S
C159 C160 1.399 . S
C159 H172 0.931 . S
C160 C159 1.399 . S
C160 C161 1.390 . S
C161 C156 1.392 . S
C161 C160 1.390 . S
C161 H173 0.929 . S
O162 Tb146 2.326 . S
O162 C150 1.242 . S
O163 Eu147 2.324 . S
O163 C150 1.258 . S
O164 Tb146 2.500 . S
O164 C166 1.273 . S
O165 Tb146 2.473 . S
O165 C166 1.257 . S
C166 O164 1.273 . S
C166 O165 1.257 . S
O167 Eu147 2.326 . S
O167 C155 1.242 . S
O168 Tb146 2.324 . S
O168 C155 1.258 . S
O169 Eu147 2.500 . S
O169 C152 1.273 . S
O170 Eu147 2.473 . S
O170 C152 1.257 . S
H171 C157 0.929 . S
H172 C159 0.931 . S
H173 C161 0.929 . S
O174 Tb175 2.292 . S
O174 C177 1.255 . S
Tb175 O174 2.292 . S
Tb175 O191 2.326 . S
Tb175 O193 2.500 . S
Tb175 O194 2.473 . S
Tb175 O197 2.324 . S
Eu176 O180 2.292 . S
Eu176 C181 2.852 . S
Eu176 O192 2.324 . S
Eu176 O196 2.326 . S
Eu176 O198 2.500 . S
Eu176 O199 2.473 . S
C177 O174 1.255 . S
C177 O178 1.247 . S
O178 C177 1.247 . S
C179 O191 1.242 . S
C179 O192 1.258 . S
O180 Eu176 2.292 . S
O180 C182 1.255 . S
C181 Eu176 2.852 . S
C181 C185 1.503 . S
C181 O198 1.273 . S
C181 O199 1.257 . S
C182 O180 1.255 . S
C182 O183 1.247 . S
O183 C182 1.247 . S
C184 O196 1.242 . S
C184 O197 1.258 . S
C185 C181 1.503 . S
C185 C186 1.379 . S
C185 C190 1.392 . S
C186 C185 1.379 . S
C186 C187 1.404 . S
C186 H200 0.929 . S
C187 C186 1.404 . S
C187 C188 1.389 . S
C188 C187 1.389 . S
C188 C189 1.399 . S
C188 H201 0.931 . S
C189 C188 1.399 . S
C189 C190 1.390 . S
C190 C185 1.392 . S
C190 C189 1.390 . S
C190 H202 0.929 . S
O191 Tb175 2.326 . S
O191 C179 1.242 . S
O192 Eu176 2.324 . S
O192 C179 1.258 . S
O193 Tb175 2.500 . S
O193 C195 1.273 . S
O194 Tb175 2.473 . S
O194 C195 1.257 . S
C195 O193 1.273 . S
C195 O194 1.257 . S
O196 Eu176 2.326 . S
O196 C184 1.242 . S
O197 Tb175 2.324 . S
O197 C184 1.258 . S
O198 Eu176 2.500 . S
O198 C181 1.273 . S
O199 Eu176 2.473 . S
O199 C181 1.257 . S
H200 C186 0.929 . S
H201 C188 0.931 . S
H202 C190 0.929 . S
O203 Tb204 2.292 . S
O203 C206 1.255 . S
Tb204 O203 2.292 . S
Tb204 O220 2.326 . S
Tb204 O222 2.500 . S
Tb204 O223 2.473 . S
Tb204 O226 2.324 . S
Eu205 O209 2.292 1_455 S
Eu205 C210 2.852 1_455 S
Eu205 O221 2.324 . S
Eu205 O225 2.326 . S
Eu205 O227 2.500 1_455 S
Eu205 O228 2.473 1_455 S
C206 O203 1.255 . S
C206 O207 1.247 . S
O207 C206 1.247 . S
C208 O220 1.242 . S
C208 O221 1.258 . S
O209 Eu205 2.292 1_655 S
O209 C211 1.255 . S
C210 Eu205 2.852 1_655 S
C210 C214 1.503 . S
C210 O227 1.273 . S
C210 O228 1.257 . S
C211 O209 1.255 . S
C211 O212 1.247 1_655 S
O212 C211 1.247 1_455 S
C213 O225 1.242 . S
C213 O226 1.258 . S
C214 C210 1.503 . S
C214 C215 1.379 . S
C214 C219 1.392 . S
C215 C214 1.379 . S
C215 C216 1.404 . S
C215 H229 0.929 . S
C216 C215 1.404 . S
C216 C217 1.389 . S
C217 C216 1.389 . S
C217 C218 1.399 . S
C217 H230 0.931 . S
C218 C217 1.399 . S
C218 C219 1.390 . S
C219 C214 1.392 . S
C219 C218 1.390 . S
C219 H231 0.929 . S
O220 Tb204 2.326 . S
O220 C208 1.242 . S
O221 Eu205 2.324 . S
O221 C208 1.258 . S
O222 Tb204 2.500 . S
O222 C224 1.273 . S
O223 Tb204 2.473 . S
O223 C224 1.257 . S
C224 O222 1.273 . S
C224 O223 1.257 . S
O225 Eu205 2.326 . S
O225 C213 1.242 . S
O226 Tb204 2.324 . S
O226 C213 1.258 . S
O227 Eu205 2.500 1_655 S
O227 C210 1.273 . S
O228 Eu205 2.473 1_655 S
O228 C210 1.257 . S
H229 C215 0.929 . S
H230 C217 0.931 . S
H231 C219 0.929 . S
O232 Tb233 2.292 . S
O232 C235 1.255 . S
Tb233 O232 2.292 . S
Tb233 O249 2.326 . S
Tb233 O251 2.500 . S
Tb233 O252 2.473 . S
Tb233 O255 2.324 . S
Eu234 O238 2.292 . S
Eu234 C239 2.852 . S
Eu234 O250 2.324 . S
Eu234 O254 2.326 . S
Eu234 O256 2.500 . S
Eu234 O257 2.473 . S
C235 O232 1.255 . S
C235 O236 1.247 . S
O236 C235 1.247 . S
C237 O249 1.242 . S
C237 O250 1.258 . S
O238 Eu234 2.292 . S
O238 C240 1.255 . S
C239 Eu234 2.852 . S
C239 C243 1.503 . S
C239 O256 1.273 . S
C239 O257 1.257 . S
C240 O238 1.255 . S
C240 O241 1.247 . S
O241 C240 1.247 . S
C242 O254 1.242 . S
C242 O255 1.258 . S
C243 C239 1.503 . S
C243 C244 1.379 . S
C243 C248 1.392 . S
C244 C243 1.379 . S
C244 C245 1.404 . S
C244 H258 0.929 . S
C245 C244 1.404 . S
C245 C246 1.389 . S
C246 C245 1.389 . S
C246 C247 1.399 . S
C246 H259 0.931 . S
C247 C246 1.399 . S
C247 C248 1.390 . S
C248 C243 1.392 . S
C248 C247 1.390 . S
C248 H260 0.929 . S
O249 Tb233 2.326 . S
O249 C237 1.242 . S
O250 Eu234 2.324 . S
O250 C237 1.258 . S
O251 Tb233 2.500 . S
O251 C253 1.273 . S
O252 Tb233 2.473 . S
O252 C253 1.257 . S
C253 O251 1.273 . S
C253 O252 1.257 . S
O254 Eu234 2.326 . S
O254 C242 1.242 . S
O255 Tb233 2.324 . S
O255 C242 1.258 . S
O256 Eu234 2.500 . S
O256 C239 1.273 . S
O257 Eu234 2.473 . S
O257 C239 1.257 . S
H258 C244 0.929 . S
H259 C246 0.931 . S
H260 C248 0.929 . S
O261 Tb262 2.292 . S
O261 C264 1.255 . S
Tb262 O261 2.292 . S
Tb262 O278 2.326 . S
Tb262 O280 2.500 . S
Tb262 O281 2.473 . S
Tb262 O284 2.324 . S
Eu263 O267 2.292 1_655 S
Eu263 C268 2.852 1_655 S
Eu263 O279 2.324 . S
Eu263 O283 2.326 . S
Eu263 O285 2.500 1_655 S
Eu263 O286 2.473 1_655 S
C264 O261 1.255 . S
C264 O265 1.247 . S
O265 C264 1.247 . S
C266 O278 1.242 . S
C266 O279 1.258 . S
O267 Eu263 2.292 1_455 S
O267 C269 1.255 . S
C268 Eu263 2.852 1_455 S
C268 C272 1.503 . S
C268 O285 1.273 . S
C268 O286 1.257 . S
C269 O267 1.255 . S
C269 O270 1.247 1_455 S
O270 C269 1.247 1_655 S
C271 O283 1.242 . S
C271 O284 1.258 . S
C272 C268 1.503 . S
C272 C273 1.379 . S
C272 C277 1.392 . S
C273 C272 1.379 . S
C273 C274 1.404 . S
C273 H287 0.929 . S
C274 C273 1.404 . S
C274 C275 1.389 . S
C275 C274 1.389 . S
C275 C276 1.399 . S
C275 H288 0.931 . S
C276 C275 1.399 . S
C276 C277 1.390 . S
C277 C272 1.392 . S
C277 C276 1.390 . S
C277 H289 0.929 . S
O278 Tb262 2.326 . S
O278 C266 1.242 . S
O279 Eu263 2.324 . S
O279 C266 1.258 . S
O280 Tb262 2.500 . S
O280 C282 1.273 . S
O281 Tb262 2.473 . S
O281 C282 1.257 . S
C282 O280 1.273 . S
C282 O281 1.257 . S
O283 Eu263 2.326 . S
O283 C271 1.242 . S
O284 Tb262 2.324 . S
O284 C271 1.258 . S
O285 Eu263 2.500 1_455 S
O285 C268 1.273 . S
O286 Eu263 2.473 1_455 S
O286 C268 1.257 . S
H287 C273 0.929 . S
H288 C275 0.931 . S
H289 C277 0.929 . S
O290 Tb291 2.292 . S
O290 C293 1.255 . S
Tb291 O290 2.292 . S
Tb291 O307 2.326 . S
Tb291 O309 2.500 . S
Tb291 O310 2.473 . S
Tb291 O313 2.324 . S
Eu292 O296 2.292 1_455 S
Eu292 C297 2.852 1_455 S
Eu292 O308 2.324 . S
Eu292 O312 2.326 . S
Eu292 O314 2.500 1_455 S
Eu292 O315 2.473 1_455 S
C293 O290 1.255 . S
C293 O294 1.247 . S
O294 C293 1.247 . S
C295 O307 1.242 . S
C295 O308 1.258 . S
O296 Eu292 2.292 1_655 S
O296 C298 1.255 . S
C297 Eu292 2.852 1_655 S
C297 C301 1.503 . S
C297 O314 1.273 . S
C297 O315 1.257 . S
C298 O296 1.255 . S
C298 O299 1.247 1_655 S
O299 C298 1.247 1_455 S
C300 O312 1.242 . S
C300 O313 1.258 . S
C301 C297 1.503 . S
C301 C302 1.379 . S
C301 C306 1.392 . S
C302 C301 1.379 . S
C302 C303 1.404 . S
C302 H316 0.929 . S
C303 C302 1.404 . S
C303 C304 1.389 . S
C304 C303 1.389 . S
C304 C305 1.399 . S
C304 H317 0.931 . S
C305 C304 1.399 . S
C305 C306 1.390 . S
C306 C301 1.392 . S
C306 C305 1.390 . S
C306 H318 0.929 . S
O307 Tb291 2.326 . S
O307 C295 1.242 . S
O308 Eu292 2.324 . S
O308 C295 1.258 . S
O309 Tb291 2.500 . S
O309 C311 1.273 . S
O310 Tb291 2.473 . S
O310 C311 1.257 . S
C311 O309 1.273 . S
C311 O310 1.257 . S
O312 Eu292 2.326 . S
O312 C300 1.242 . S
O313 Tb291 2.324 . S
O313 C300 1.258 . S
O314 Eu292 2.500 1_655 S
O314 C297 1.273 . S
O315 Eu292 2.473 1_655 S
O315 C297 1.257 . S
H316 C302 0.929 . S
H317 C304 0.931 . S
H318 C306 0.929 . S
O319 Tb320 2.292 . S
O319 C322 1.255 . S
Tb320 O319 2.292 . S
Tb320 O336 2.326 . S
Tb320 O338 2.500 . S
Tb320 O339 2.473 . S
Tb320 O342 2.324 . S
Eu321 O325 2.292 . S
Eu321 C326 2.852 . S
Eu321 O337 2.324 . S
Eu321 O341 2.326 . S
Eu321 O343 2.500 . S
Eu321 O344 2.473 . S
C322 O319 1.255 . S
C322 O323 1.247 . S
O323 C322 1.247 . S
C324 O336 1.242 . S
C324 O337 1.258 . S
O325 Eu321 2.292 . S
O325 C327 1.255 . S
C326 Eu321 2.852 . S
C326 C330 1.503 . S
C326 O343 1.273 . S
C326 O344 1.257 . S
C327 O325 1.255 . S
C327 O328 1.247 . S
O328 C327 1.247 . S
C329 O341 1.242 . S
C329 O342 1.258 . S
C330 C326 1.503 . S
C330 C331 1.379 . S
C330 C335 1.392 . S
C331 C330 1.379 . S
C331 C332 1.404 . S
C331 H345 0.929 . S
C332 C331 1.404 . S
C332 C333 1.389 . S
C333 C332 1.389 . S
C333 C334 1.399 . S
C333 H346 0.931 . S
C334 C333 1.399 . S
C334 C335 1.390 . S
C335 C330 1.392 . S
C335 C334 1.390 . S
C335 H347 0.929 . S
O336 Tb320 2.326 . S
O336 C324 1.242 . S
O337 Eu321 2.324 . S
O337 C324 1.258 . S
O338 Tb320 2.500 . S
O338 C340 1.273 . S
O339 Tb320 2.473 . S
O339 C340 1.257 . S
C340 O338 1.273 . S
C340 O339 1.257 . S
O341 Eu321 2.326 . S
O341 C329 1.242 . S
O342 Tb320 2.324 . S
O342 C329 1.258 . S
O343 Eu321 2.500 . S
O343 C326 1.273 . S
O344 Eu321 2.473 . S
O344 C326 1.257 . S
H345 C331 0.929 . S
H346 C333 0.931 . S
H347 C335 0.929 . S
O348 Tb349 2.292 . S
O348 C351 1.255 . S
Tb349 O348 2.292 . S
Tb349 O365 2.326 . S
Tb349 O367 2.500 . S
Tb349 O368 2.473 . S
Tb349 O371 2.324 . S
Eu350 O354 2.292 . S
Eu350 C355 2.852 . S
Eu350 O366 2.324 . S
Eu350 O370 2.326 . S
Eu350 O372 2.500 . S
Eu350 O373 2.473 . S
C351 O348 1.255 . S
C351 O352 1.247 . S
O352 C351 1.247 . S
C353 O365 1.242 . S
C353 O366 1.258 . S
O354 Eu350 2.292 . S
O354 C356 1.255 . S
C355 Eu350 2.852 . S
C355 C359 1.503 . S
C355 O372 1.273 . S
C355 O373 1.257 . S
C356 O354 1.255 . S
C356 O357 1.247 . S
O357 C356 1.247 . S
C358 O370 1.242 . S
C358 O371 1.258 . S
C359 C355 1.503 . S
C359 C360 1.379 . S
C359 C364 1.392 . S
C360 C359 1.379 . S
C360 C361 1.404 . S
C360 H374 0.929 . S
C361 C360 1.404 . S
C361 C362 1.389 . S
C362 C361 1.389 . S
C362 C363 1.399 . S
C362 H375 0.931 . S
C363 C362 1.399 . S
C363 C364 1.390 . S
C364 C359 1.392 . S
C364 C363 1.390 . S
C364 H376 0.929 . S
O365 Tb349 2.326 . S
O365 C353 1.242 . S
O366 Eu350 2.324 . S
O366 C353 1.258 . S
O367 Tb349 2.500 . S
O367 C369 1.273 . S
O368 Tb349 2.473 . S
O368 C369 1.257 . S
C369 O367 1.273 . S
C369 O368 1.257 . S
O370 Eu350 2.326 . S
O370 C358 1.242 . S
O371 Tb349 2.324 . S
O371 C358 1.258 . S
O372 Eu350 2.500 . S
O372 C355 1.273 . S
O373 Eu350 2.473 . S
O373 C355 1.257 . S
H374 C360 0.929 . S
H375 C362 0.931 . S
H376 C364 0.929 . S
O377 Tb378 2.292 . S
O377 C380 1.255 . S
Tb378 O377 2.292 . S
Tb378 O394 2.326 . S
Tb378 O396 2.500 . S
Tb378 O397 2.473 . S
Tb378 O400 2.324 . S
Eu379 O383 2.292 1_455 S
Eu379 C384 2.852 1_455 S
Eu379 O395 2.324 . S
Eu379 O399 2.326 . S
Eu379 O401 2.500 1_455 S
Eu379 O402 2.473 1_455 S
C380 O377 1.255 . S
C380 O381 1.247 . S
O381 C380 1.247 . S
C382 O394 1.242 . S
C382 O395 1.258 . S
O383 Eu379 2.292 1_655 S
O383 C385 1.255 . S
C384 Eu379 2.852 1_655 S
C384 C388 1.503 . S
C384 O401 1.273 . S
C384 O402 1.257 . S
C385 O383 1.255 . S
C385 O386 1.247 1_655 S
O386 C385 1.247 1_455 S
C387 O399 1.242 . S
C387 O400 1.258 . S
C388 C384 1.503 . S
C388 C389 1.379 . S
C388 C393 1.392 . S
C389 C388 1.379 . S
C389 C390 1.404 . S
C389 H403 0.929 . S
C390 C389 1.404 . S
C390 C391 1.389 . S
C391 C390 1.389 . S
C391 C392 1.399 . S
C391 H404 0.931 . S
C392 C391 1.399 . S
C392 C393 1.390 . S
C393 C388 1.392 . S
C393 C392 1.390 . S
C393 H405 0.929 . S
O394 Tb378 2.326 . S
O394 C382 1.242 . S
O395 Eu379 2.324 . S
O395 C382 1.258 . S
O396 Tb378 2.500 . S
O396 C398 1.273 . S
O397 Tb378 2.473 . S
O397 C398 1.257 . S
C398 O396 1.273 . S
C398 O397 1.257 . S
O399 Eu379 2.326 . S
O399 C387 1.242 . S
O400 Tb378 2.324 . S
O400 C387 1.258 . S
O401 Eu379 2.500 1_655 S
O401 C384 1.273 . S
O402 Eu379 2.473 1_655 S
O402 C384 1.257 . S
H403 C389 0.929 . S
H404 C391 0.931 . S
H405 C393 0.929 . S
O406 Tb407 2.292 . S
O406 C409 1.255 . S
Tb407 O406 2.292 . S
Tb407 O423 2.326 . S
Tb407 O425 2.500 . S
Tb407 O426 2.473 . S
Tb407 O429 2.324 . S
Eu408 O412 2.292 1_655 S
Eu408 C413 2.852 1_655 S
Eu408 O424 2.324 . S
Eu408 O428 2.326 . S
Eu408 O430 2.500 1_655 S
Eu408 O431 2.473 1_655 S
C409 O406 1.255 . S
C409 O410 1.247 . S
O410 C409 1.247 . S
C411 O423 1.242 . S
C411 O424 1.258 . S
O412 Eu408 2.292 1_455 S
O412 C414 1.255 . S
C413 Eu408 2.852 1_455 S
C413 C417 1.503 . S
C413 O430 1.273 . S
C413 O431 1.257 . S
C414 O412 1.255 . S
C414 O415 1.247 1_455 S
O415 C414 1.247 1_655 S
C416 O428 1.242 . S
C416 O429 1.258 . S
C417 C413 1.503 . S
C417 C418 1.379 . S
C417 C422 1.392 . S
C418 C417 1.379 . S
C418 C419 1.404 . S
C418 H432 0.929 . S
C419 C418 1.404 . S
C419 C420 1.389 . S
C420 C419 1.389 . S
C420 C421 1.399 . S
C420 H433 0.931 . S
C421 C420 1.399 . S
C421 C422 1.390 . S
C422 C417 1.392 . S
C422 C421 1.390 . S
C422 H434 0.929 . S
O423 Tb407 2.326 . S
O423 C411 1.242 . S
O424 Eu408 2.324 . S
O424 C411 1.258 . S
O425 Tb407 2.500 . S
O425 C427 1.273 . S
O426 Tb407 2.473 . S
O426 C427 1.257 . S
C427 O425 1.273 . S
C427 O426 1.257 . S
O428 Eu408 2.326 . S
O428 C416 1.242 . S
O429 Tb407 2.324 . S
O429 C416 1.258 . S
O430 Eu408 2.500 1_455 S
O430 C413 1.273 . S
O431 Eu408 2.473 1_455 S
O431 C413 1.257 . S
H432 C418 0.929 . S
H433 C420 0.931 . S
H434 C422 0.929 . S
O435 Tb436 2.292 . S
O435 C438 1.255 . S
Tb436 O435 2.292 . S
Tb436 O452 2.326 . S
Tb436 O454 2.500 . S
Tb436 O455 2.473 . S
Tb436 O458 2.324 . S
Eu437 O441 2.292 . S
Eu437 C442 2.852 . S
Eu437 O453 2.324 . S
Eu437 O457 2.326 . S
Eu437 O459 2.500 . S
Eu437 O460 2.473 . S
C438 O435 1.255 . S
C438 O439 1.247 . S
O439 C438 1.247 . S
C440 O452 1.242 . S
C440 O453 1.258 . S
O441 Eu437 2.292 . S
O441 C443 1.255 . S
C442 Eu437 2.852 . S
C442 C446 1.503 . S
C442 O459 1.273 . S
C442 O460 1.257 . S
C443 O441 1.255 . S
C443 O444 1.247 . S
O444 C443 1.247 . S
C445 O457 1.242 . S
C445 O458 1.258 . S
C446 C442 1.503 . S
C446 C447 1.379 . S
C446 C451 1.392 . S
C447 C446 1.379 . S
C447 C448 1.404 . S
C447 H461 0.929 . S
C448 C447 1.404 . S
C448 C449 1.389 . S
C449 C448 1.389 . S
C449 C450 1.399 . S
C449 H462 0.931 . S
C450 C449 1.399 . S
C450 C451 1.390 . S
C451 C446 1.392 . S
C451 C450 1.390 . S
C451 H463 0.929 . S
O452 Tb436 2.326 . S
O452 C440 1.242 . S
O453 Eu437 2.324 . S
O453 C440 1.258 . S
O454 Tb436 2.500 . S
O454 C456 1.273 . S
O455 Tb436 2.473 . S
O455 C456 1.257 . S
C456 O454 1.273 . S
C456 O455 1.257 . S
O457 Eu437 2.326 . S
O457 C445 1.242 . S
O458 Tb436 2.324 . S
O458 C445 1.258 . S
O459 Eu437 2.500 . S
O459 C442 1.273 . S
O460 Eu437 2.473 . S
O460 C442 1.257 . S
H461 C447 0.929 . S
H462 C449 0.931 . S
H463 C451 0.929 . S
C464 C465 1.387 . S
C464 H468 0.950 . S
C464 C473 1.390 . S
C465 C464 1.387 . S
C465 C467 1.387 . S
H466 C473 0.950 . S
C467 C465 1.387 . S
C467 C469 1.390 . S
C467 H471 0.950 . S
H468 C464 0.950 . S
C469 C467 1.390 . S
C469 C470 1.387 . S
C469 H472 0.950 . S
C470 C469 1.387 . S
C470 C473 1.387 . S
H471 C467 0.950 . S
H472 C469 0.950 . S
C473 C464 1.390 . S
C473 H466 0.950 . S
C473 C470 1.387 . S
C474 C475 1.387 . S
C474 H478 0.950 . S
C474 C483 1.390 1_455 S
C475 C474 1.387 . S
C475 C477 1.387 . S
H476 C483 0.950 . S
C477 C475 1.387 . S
C477 C479 1.390 1_455 S
C477 H481 0.950 . S
H478 C474 0.950 . S
C479 C477 1.390 1_655 S
C479 C480 1.387 . S
C479 H482 0.950 . S
C480 C479 1.387 . S
C480 C483 1.387 . S
H481 C477 0.950 . S
H482 C479 0.950 . S
C483 C474 1.390 1_655 S
C483 H476 0.950 . S
C483 C480 1.387 . S
C484 C485 1.387 . S
C484 H488 0.950 . S
C484 C493 1.390 1_655 S
C485 C484 1.387 . S
C485 C487 1.387 . S
H486 C493 0.950 . S
C487 C485 1.387 . S
C487 C489 1.390 1_655 S
C487 H491 0.950 . S
H488 C484 0.950 . S
C489 C487 1.390 1_455 S
C489 C490 1.387 . S
C489 H492 0.950 . S
C490 C489 1.387 . S
C490 C493 1.387 . S
H491 C487 0.950 . S
H492 C489 0.950 . S
C493 C484 1.390 1_455 S
C493 H486 0.950 . S
C493 C490 1.387 . S
C494 C495 1.387 . S
C494 H498 0.950 . S
C494 C503 1.390 . S
C495 C494 1.387 . S
C495 C497 1.387 . S
H496 C503 0.950 . S
C497 C495 1.387 . S
C497 C499 1.390 . S
C497 H501 0.950 . S
H498 C494 0.950 . S
C499 C497 1.390 . S
C499 C500 1.387 . S
C499 H502 0.950 . S
C500 C499 1.387 . S
C500 C503 1.387 . S
H501 C497 0.950 . S
H502 C499 0.950 . S
C503 C494 1.390 . S
C503 H496 0.950 . S
C503 C500 1.387 . S
C504 C505 1.387 . S
C504 H508 0.950 . S
C504 C513 1.390 . S
C505 C504 1.387 . S
C505 C507 1.387 . S
H506 C513 0.950 . S
C507 C505 1.387 . S
C507 C509 1.390 . S
C507 H511 0.950 . S
H508 C504 0.950 . S
C509 C507 1.390 . S
C509 C510 1.387 . S
C509 H512 0.950 . S
C510 C509 1.387 . S
C510 C513 1.387 . S
H511 C507 0.950 . S
H512 C509 0.950 . S
C513 C504 1.390 . S
C513 H506 0.950 . S
C513 C510 1.387 . S
C514 C515 1.387 . S
C514 H518 0.950 . S
C514 C523 1.390 1_455 S
C515 C514 1.387 . S
C515 C517 1.387 . S
H516 C523 0.950 . S
C517 C515 1.387 . S
C517 C519 1.390 1_455 S
C517 H521 0.950 . S
H518 C514 0.950 . S
C519 C517 1.390 1_655 S
C519 C520 1.387 . S
C519 H522 0.950 . S
C520 C519 1.387 . S
C520 C523 1.387 . S
H521 C517 0.950 . S
H522 C519 0.950 . S
C523 C514 1.390 1_655 S
C523 H516 0.950 . S
C523 C520 1.387 . S
C524 C525 1.387 . S
C524 H528 0.950 . S
C524 C533 1.390 1_655 S
C525 C524 1.387 . S
C525 C527 1.387 . S
H526 C533 0.950 . S
C527 C525 1.387 . S
C527 C529 1.390 1_655 S
C527 H531 0.950 . S
H528 C524 0.950 . S
C529 C527 1.390 1_455 S
C529 C530 1.387 . S
C529 H532 0.950 . S
C530 C529 1.387 . S
C530 C533 1.387 . S
H531 C527 0.950 . S
H532 C529 0.950 . S
C533 C524 1.390 1_455 S
C533 H526 0.950 . S
C533 C530 1.387 . S
C534 C535 1.387 . S
C534 H538 0.950 . S
C534 C543 1.390 . S
C535 C534 1.387 . S
C535 C537 1.387 . S
H536 C543 0.950 . S
C537 C535 1.387 . S
C537 C539 1.390 . S
C537 H541 0.950 . S
H538 C534 0.950 . S
C539 C537 1.390 . S
C539 C540 1.387 . S
C539 H542 0.950 . S
C540 C539 1.387 . S
C540 C543 1.387 . S
H541 C537 0.950 . S
H542 C539 0.950 . S
C543 C534 1.390 . S
C543 H536 0.950 . S
C543 C540 1.387 . S
C544 C545 1.387 . S
C544 H548 0.950 . S
C544 C553 1.390 1_655 S
C545 C544 1.387 . S
C545 C547 1.387 . S
H546 C553 0.950 . S
C547 C545 1.387 . S
C547 C549 1.390 1_655 S
C547 H551 0.950 . S
H548 C544 0.950 . S
C549 C547 1.390 1_455 S
C549 C550 1.387 . S
C549 H552 0.950 . S
C550 C549 1.387 . S
C550 C553 1.387 . S
H551 C547 0.950 . S
H552 C549 0.950 . S
C553 C544 1.390 1_455 S
C553 H546 0.950 . S
C553 C550 1.387 . S
C554 C555 1.387 . S
C554 H558 0.950 . S
C554 C563 1.390 . S
C555 C554 1.387 . S
C555 C557 1.387 . S
H556 C563 0.950 . S
C557 C555 1.387 . S
C557 C559 1.390 . S
C557 H561 0.950 . S
H558 C554 0.950 . S
C559 C557 1.390 . S
C559 C560 1.387 . S
C559 H562 0.950 . S
C560 C559 1.387 . S
C560 C563 1.387 . S
H561 C557 0.950 . S
H562 C559 0.950 . S
C563 C554 1.390 . S
C563 H556 0.950 . S
C563 C560 1.387 . S
C564 C565 1.387 . S
C564 H568 0.950 . S
C564 C573 1.390 . S
C565 C564 1.387 . S
C565 C567 1.387 . S
H566 C573 0.950 . S
C567 C565 1.387 . S
C567 C569 1.390 . S
C567 H571 0.950 . S
H568 C564 0.950 . S
C569 C567 1.390 . S
C569 C570 1.387 . S
C569 H572 0.950 . S
C570 C569 1.387 . S
C570 C573 1.387 . S
H571 C567 0.950 . S
H572 C569 0.950 . S
C573 C564 1.390 . S
C573 H566 0.950 . S
C573 C570 1.387 . S
C574 C575 1.387 . S
C574 H578 0.950 . S
C574 C583 1.390 1_455 S
C575 C574 1.387 . S
C575 C577 1.387 . S
H576 C583 0.950 . S
C577 C575 1.387 . S
C577 C579 1.390 1_455 S
C577 H581 0.950 . S
H578 C574 0.950 . S
C579 C577 1.390 1_655 S
C579 C580 1.387 . S
C579 H582 0.950 . S
C580 C579 1.387 . S
C580 C583 1.387 . S
H581 C577 0.950 . S
H582 C579 0.950 . S
C583 C574 1.390 1_655 S
C583 H576 0.950 . S
C583 C580 1.387 . S
C584 C585 1.387 . S
C584 H588 0.950 . S
C584 C593 1.390 1_455 S
C585 C584 1.387 . S
C585 C587 1.387 . S
H586 C593 0.950 . S
C587 C585 1.387 . S
C587 C589 1.390 1_455 S
C587 H591 0.950 . S
H588 C584 0.950 . S
C589 C587 1.390 1_655 S
C589 C590 1.387 . S
C589 H592 0.950 . S
C590 C589 1.387 . S
C590 C593 1.387 . S
H591 C587 0.950 . S
H592 C589 0.950 . S
C593 C584 1.390 1_655 S
C593 H586 0.950 . S
C593 C590 1.387 . S
C594 C595 1.387 . S
C594 H598 0.950 . S
C594 C603 1.390 . S
C595 C594 1.387 . S
C595 C597 1.387 . S
H596 C603 0.950 . S
C597 C595 1.387 . S
C597 C599 1.390 . S
C597 H601 0.950 . S
H598 C594 0.950 . S
C599 C597 1.390 . S
C599 C600 1.387 . S
C599 H602 0.950 . S
C600 C599 1.387 . S
C600 C603 1.387 . S
H601 C597 0.950 . S
H602 C599 0.950 . S
C603 C594 1.390 . S
C603 H596 0.950 . S
C603 C600 1.387 . S
C604 C605 1.387 . S
C604 H608 0.950 . S
C604 C613 1.390 . S
C605 C604 1.387 . S
C605 C607 1.387 . S
H606 C613 0.950 . S
C607 C605 1.387 . S
C607 C609 1.390 . S
C607 H611 0.950 . S
H608 C604 0.950 . S
C609 C607 1.390 . S
C609 C610 1.387 . S
C609 H612 0.950 . S
C610 C609 1.387 . S
C610 C613 1.387 . S
H611 C607 0.950 . S
H612 C609 0.950 . S
C613 C604 1.390 . S
C613 H606 0.950 . S
C613 C610 1.387 . S
C614 C615 1.387 . S
C614 H618 0.950 . S
C614 C623 1.390 1_455 S
C615 C614 1.387 . S
C615 C617 1.387 . S
H616 C623 0.950 . S
C617 C615 1.387 . S
C617 C619 1.390 1_455 S
C617 H621 0.950 . S
H618 C614 0.950 . S
C619 C617 1.390 1_655 S
C619 C620 1.387 . S
C619 H622 0.950 . S
C620 C619 1.387 . S
C620 C623 1.387 . S
H621 C617 0.950 . S
H622 C619 0.950 . S
C623 C614 1.390 1_655 S
C623 H616 0.950 . S
C623 C620 1.387 . S
C624 C625 1.387 . S
C624 H628 0.950 . S
C624 C633 1.390 1_554 S
C625 C624 1.387 . S
C625 C627 1.386 1_554 S
H626 C633 0.950 . S
C627 C625 1.386 1_556 S
C627 C629 1.392 . S
C627 H631 0.949 1_556 S
H628 C624 0.950 . S
C629 C627 1.392 . S
C629 C630 1.387 . S
C629 H632 0.950 . S
C630 C629 1.387 . S
C630 C633 1.387 . S
H631 C627 0.949 1_554 S
H632 C629 0.950 . S
C633 C624 1.390 1_556 S
C633 H626 0.950 . S
C633 C630 1.387 . S
C634 C635 1.387 . S
C634 H638 0.950 . S
C634 C643 1.390 1_554 S
C635 C634 1.387 . S
C635 C637 1.387 . S
H636 C643 0.950 . S
C637 C635 1.387 . S
C637 C639 1.390 1_554 S
C637 H641 0.950 . S
H638 C634 0.950 . S
C639 C637 1.390 1_556 S
C639 C640 1.387 . S
C639 H642 0.950 . S
C640 C639 1.387 . S
C640 C643 1.387 . S
H641 C637 0.950 . S
H642 C639 0.950 . S
C643 C634 1.390 1_556 S
C643 H636 0.950 . S
C643 C640 1.387 . S
C644 C645 1.387 . S
C644 H648 0.950 . S
C644 C653 1.390 . S
C645 C644 1.387 . S
C645 C647 1.387 . S
H646 C653 0.950 . S
C647 C645 1.387 . S
C647 C649 1.390 . S
C647 H651 0.950 . S
H648 C644 0.950 . S
C649 C647 1.390 . S
C649 C650 1.387 . S
C649 H652 0.950 . S
C650 C649 1.387 . S
C650 C653 1.387 . S
H651 C647 0.950 . S
H652 C649 0.950 . S
C653 C644 1.390 . S
C653 H646 0.950 . S
C653 C650 1.387 . S
C654 C655 1.387 . S
C654 H658 0.950 . S
C654 C663 1.390 . S
C655 C654 1.387 . S
C655 C657 1.387 . S
H656 C663 0.950 . S
C657 C655 1.387 . S
C657 C659 1.390 . S
C657 H661 0.950 . S
H658 C654 0.950 . S
C659 C657 1.390 . S
C659 C660 1.387 . S
C659 H662 0.950 . S
C660 C659 1.387 . S
C660 C663 1.387 . S
H661 C657 0.950 . S
H662 C659 0.950 . S
C663 C654 1.390 . S
C663 H656 0.950 . S
C663 C660 1.387 . S
C664 C665 1.386 1_554 S
C664 H668 0.949 1_554 S
C664 C673 1.392 . S
C665 C664 1.386 1_556 S
C665 C667 1.387 . S
H666 C673 0.950 . S
C667 C665 1.387 . S
C667 C669 1.390 1_556 S
C667 H671 0.950 . S
H668 C664 0.949 1_556 S
C669 C667 1.390 1_554 S
C669 C670 1.387 . S
C669 H672 0.950 . S
C670 C669 1.387 . S
C670 C673 1.387 . S
H671 C667 0.950 . S
H672 C669 0.950 . S
C673 C664 1.392 . S
C673 H666 0.950 . S
C673 C670 1.387 . S
C674 C675 1.387 1_554 S
C674 H678 0.950 1_554 S
C674 C683 1.390 . S
C675 C674 1.387 1_556 S
C675 C677 1.387 . S
H676 C683 0.950 . S
C677 C675 1.387 . S
C677 C679 1.390 1_556 S
C677 H681 0.950 . S
H678 C674 0.950 1_556 S
C679 C677 1.390 1_554 S
C679 C680 1.387 . S
C679 H682 0.950 . S
C680 C679 1.387 . S
C680 C683 1.387 . S
H681 C677 0.950 . S
H682 C679 0.950 . S
C683 C674 1.390 . S
C683 H676 0.950 . S
C683 C680 1.387 . S
C684 C685 1.387 . S
C684 H688 0.950 . S
C684 C693 1.390 . S
C685 C684 1.387 . S
C685 C687 1.387 . S
H686 C693 0.950 . S
C687 C685 1.387 . S
C687 C689 1.390 . S
C687 H691 0.950 . S
H688 C684 0.950 . S
C689 C687 1.390 . S
C689 C690 1.387 . S
C689 H692 0.950 . S
C690 C689 1.387 . S
C690 C693 1.387 . S
H691 C687 0.950 . S
H692 C689 0.950 . S
C693 C684 1.390 . S
C693 H686 0.950 . S
C693 C690 1.387 . S
C694 C695 1.387 . S
C694 H698 0.950 . S
C694 C703 1.390 . S
C695 C694 1.387 . S
C695 C697 1.387 . S
H696 C703 0.950 . S
C697 C695 1.387 . S
C697 C699 1.390 . S
C697 H701 0.950 . S
H698 C694 0.950 . S
C699 C697 1.390 . S
C699 C700 1.387 . S
C699 H702 0.950 . S
C700 C699 1.387 . S
C700 C703 1.387 . S
H701 C697 0.950 . S
H702 C699 0.950 . S
C703 C694 1.390 . S
C703 H696 0.950 . S
C703 C700 1.387 . S
C704 C705 1.387 . S
C704 H708 0.950 . S
C704 C713 1.390 1_554 S
C705 C704 1.387 . S
C705 C707 1.387 . S
H706 C713 0.950 . S
C707 C705 1.387 . S
C707 C709 1.390 1_554 S
C707 H711 0.950 . S
H708 C704 0.950 . S
C709 C707 1.390 1_556 S
C709 C710 1.387 . S
C709 H712 0.950 . S
C710 C709 1.387 . S
C710 C713 1.387 . S
H711 C707 0.950 . S
H712 C709 0.950 . S
C713 C704 1.390 1_556 S
C713 H706 0.950 . S
C713 C710 1.387 . S
C714 C715 1.387 . S
C714 H718 0.950 . S
C714 C723 1.390 1_556 S
C715 C714 1.387 . S
C715 C717 1.387 . S
H716 C723 0.950 . S
C717 C715 1.387 . S
C717 C719 1.390 . S
C717 H721 0.950 . S
H718 C714 0.950 . S
C719 C717 1.390 . S
C719 C720 1.387 1_556 S
C719 H722 0.950 1_556 S
C720 C719 1.387 1_554 S
C720 C723 1.387 . S
H721 C717 0.950 . S
H722 C719 0.950 1_554 S
C723 C714 1.390 1_554 S
C723 H716 0.950 . S
C723 C720 1.387 . S
C724 C725 1.387 . S
C724 H728 0.950 . S
C724 C733 1.390 . S
C725 C724 1.387 . S
C725 C727 1.387 . S
H726 C733 0.950 . S
C727 C725 1.387 . S
C727 C729 1.390 . S
C727 H731 0.950 . S
H728 C724 0.950 . S
C729 C727 1.390 . S
C729 C730 1.387 . S
C729 H732 0.950 . S
C730 C729 1.387 . S
C730 C733 1.387 . S
H731 C727 0.950 . S
H732 C729 0.950 . S
C733 C724 1.390 . S
C733 H726 0.950 . S
C733 C730 1.387 . S
C734 C735 1.387 . S
C734 H738 0.950 . S
C734 C743 1.390 . S
C735 C734 1.387 . S
C735 C737 1.387 . S
H736 C743 0.950 . S
C737 C735 1.387 . S
C737 C739 1.390 . S
C737 H741 0.950 . S
H738 C734 0.950 . S
C739 C737 1.390 . S
C739 C740 1.387 . S
C739 H742 0.950 . S
C740 C739 1.387 . S
C740 C743 1.387 . S
H741 C737 0.950 . S
H742 C739 0.950 . S
C743 C734 1.390 . S
C743 H736 0.950 . S
C743 C740 1.387 . S
C744 C745 1.387 . S
C744 H748 0.950 . S
C744 C753 1.390 1_554 S
C745 C744 1.387 . S
C745 C747 1.387 . S
H746 C753 0.950 . S
C747 C745 1.387 . S
C747 C749 1.390 1_554 S
C747 H751 0.950 . S
H748 C744 0.950 . S
C749 C747 1.390 1_556 S
C749 C750 1.387 . S
C749 H752 0.950 . S
C750 C749 1.387 . S
C750 C753 1.387 . S
H751 C747 0.950 . S
H752 C749 0.950 . S
C753 C744 1.390 1_556 S
C753 H746 0.950 . S
C753 C750 1.387 . S
C754 C755 1.387 1_554 S
C754 H758 0.950 1_554 S
C754 C763 1.390 . S
C755 C754 1.387 1_556 S
C755 C757 1.387 . S
H756 C763 0.950 . S
C757 C755 1.387 . S
C757 C759 1.390 1_556 S
C757 H761 0.950 . S
H758 C754 0.950 1_556 S
C759 C757 1.390 1_554 S
C759 C760 1.387 . S
C759 H762 0.950 . S
C760 C759 1.387 . S
C760 C763 1.387 . S
H761 C757 0.950 . S
H762 C759 0.950 . S
C763 C754 1.390 . S
C763 H756 0.950 . S
C763 C760 1.387 . S
C764 C765 1.387 . S
C764 H768 0.950 . S
C764 C773 1.390 . S
C765 C764 1.387 . S
C765 C767 1.387 . S
H766 C773 0.950 . S
C767 C765 1.387 . S
C767 C769 1.390 . S
C767 H771 0.950 . S
H768 C764 0.950 . S
C769 C767 1.390 . S
C769 C770 1.387 . S
C769 H772 0.950 . S
C770 C769 1.387 . S
C770 C773 1.387 . S
H771 C767 0.950 . S
H772 C769 0.950 . S
C773 C764 1.390 . S
C773 H766 0.950 . S
C773 C770 1.387 . S
C774 C775 1.387 . S
C774 H778 0.950 . S
C774 C783 1.390 . S
C775 C774 1.387 . S
C775 C777 1.387 . S
H776 C783 0.950 . S
C777 C775 1.387 . S
C777 C779 1.390 . S
C777 H781 0.950 . S
H778 C774 0.950 . S
C779 C777 1.390 . S
C779 C780 1.387 . S
C779 H782 0.950 . S
C780 C779 1.387 . S
C780 C783 1.387 . S
H781 C777 0.950 . S
H782 C779 0.950 . S
C783 C774 1.390 . S
C783 H776 0.950 . S
C783 C780 1.387 . S
C784 C785 1.387 . S
C784 H788 0.950 . S
C784 C793 1.390 1_545 S
C785 C784 1.387 . S
C785 C787 1.387 . S
H786 C793 0.950 . S
C787 C785 1.387 . S
C787 C789 1.390 1_545 S
C787 H791 0.950 . S
H788 C784 0.950 . S
C789 C787 1.390 1_565 S
C789 C790 1.387 . S
C789 H792 0.950 . S
C790 C789 1.387 . S
C790 C793 1.387 . S
H791 C787 0.950 . S
H792 C789 0.950 . S
C793 C784 1.390 1_565 S
C793 H786 0.950 . S
C793 C790 1.387 . S
C794 C795 1.387 . S
C794 H798 0.950 . S
C794 C803 1.390 . S
C795 C794 1.387 . S
C795 C797 1.387 1_545 S
H796 C803 0.950 . S
C797 C795 1.387 1_565 S
C797 C799 1.390 . S
C797 H801 0.950 . S
H798 C794 0.950 . S
C799 C797 1.390 . S
C799 C800 1.387 . S
C799 H802 0.950 . S
C800 C799 1.387 . S
C800 C803 1.387 1_565 S
H801 C797 0.950 . S
H802 C799 0.950 . S
C803 C794 1.390 . S
C803 H796 0.950 . S
C803 C800 1.387 1_545 S
C804 C805 1.387 . S
C804 H808 0.950 . S
C804 C813 1.390 1_565 S
C805 C804 1.387 . S
C805 C807 1.387 . S
H806 C813 0.950 . S
C807 C805 1.387 . S
C807 C809 1.390 1_565 S
C807 H811 0.950 . S
H808 C804 0.950 . S
C809 C807 1.390 1_545 S
C809 C810 1.387 . S
C809 H812 0.950 . S
C810 C809 1.387 . S
C810 C813 1.387 . S
H811 C807 0.950 . S
H812 C809 0.950 . S
C813 C804 1.390 1_545 S
C813 H806 0.950 . S
C813 C810 1.387 . S
C814 C815 1.387 . S
C814 H818 0.950 . S
C814 C823 1.390 1_565 S
C815 C814 1.387 . S
C815 C817 1.387 . S
H816 C823 0.950 . S
C817 C815 1.387 . S
C817 C819 1.390 1_565 S
C817 H821 0.950 . S
H818 C814 0.950 . S
C819 C817 1.390 1_545 S
C819 C820 1.387 . S
C819 H822 0.950 . S
C820 C819 1.387 . S
C820 C823 1.387 . S
H821 C817 0.950 . S
H822 C819 0.950 . S
C823 C814 1.390 1_545 S
C823 H816 0.950 . S
C823 C820 1.387 . S
C824 C825 1.387 . S
C824 H828 0.950 . S
C824 C833 1.390 . S
C825 C824 1.387 . S
C825 C827 1.387 . S
H826 C833 0.950 . S
C827 C825 1.387 . S
C827 C829 1.390 . S
C827 H831 0.950 . S
H828 C824 0.950 . S
C829 C827 1.390 . S
C829 C830 1.387 . S
C829 H832 0.950 . S
C830 C829 1.387 . S
C830 C833 1.387 . S
H831 C827 0.950 . S
H832 C829 0.950 . S
C833 C824 1.390 . S
C833 H826 0.950 . S
C833 C830 1.387 . S
C834 C835 1.387 . S
C834 H838 0.950 . S
C834 C843 1.390 . S
C835 C834 1.387 . S
C835 C837 1.387 . S
H836 C843 0.950 . S
C837 C835 1.387 . S
C837 C839 1.390 . S
C837 H841 0.950 . S
H838 C834 0.950 . S
C839 C837 1.390 . S
C839 C840 1.387 . S
C839 H842 0.950 . S
C840 C839 1.387 . S
C840 C843 1.387 . S
H841 C837 0.950 . S
H842 C839 0.950 . S
C843 C834 1.390 . S
C843 H836 0.950 . S
C843 C840 1.387 . S
C844 C845 1.387 . S
C844 H848 0.950 . S
C844 C853 1.390 . S
C845 C844 1.387 . S
C845 C847 1.387 . S
H846 C853 0.950 . S
C847 C845 1.387 . S
C847 C849 1.390 . S
C847 H851 0.950 . S
H848 C844 0.950 . S
C849 C847 1.390 . S
C849 C850 1.387 . S
C849 H852 0.950 . S
C850 C849 1.387 . S
C850 C853 1.387 . S
H851 C847 0.950 . S
H852 C849 0.950 . S
C853 C844 1.390 . S
C853 H846 0.950 . S
C853 C850 1.387 . S
C854 C855 1.387 . S
C854 H858 0.950 . S
C854 C863 1.390 . S
C855 C854 1.387 . S
C855 C857 1.387 . S
H856 C863 0.950 . S
C857 C855 1.387 . S
C857 C859 1.390 . S
C857 H861 0.950 . S
H858 C854 0.950 . S
C859 C857 1.390 . S
C859 C860 1.387 . S
C859 H862 0.950 . S
C860 C859 1.387 . S
C860 C863 1.387 . S
H861 C857 0.950 . S
H862 C859 0.950 . S
C863 C854 1.390 . S
C863 H856 0.950 . S
C863 C860 1.387 . S
C864 C865 1.387 . S
C864 H868 0.950 . S
C864 C873 1.390 1_455 S
C865 C864 1.387 . S
C865 C867 1.387 . S
H866 C873 0.950 . S
C867 C865 1.387 . S
C867 C869 1.390 1_455 S
C867 H871 0.950 . S
H868 C864 0.950 . S
C869 C867 1.390 1_655 S
C869 C870 1.387 . S
C869 H872 0.950 . S
C870 C869 1.387 . S
C870 C873 1.387 . S
H871 C867 0.950 . S
H872 C869 0.950 . S
C873 C864 1.390 1_655 S
C873 H866 0.950 . S
C873 C870 1.387 . S
C874 C875 1.387 . S
C874 H878 0.950 . S
C874 C883 1.390 . S
C875 C874 1.387 . S
C875 C877 1.387 . S
H876 C883 0.950 . S
C877 C875 1.387 . S
C877 C879 1.390 . S
C877 H881 0.950 . S
H878 C874 0.950 . S
C879 C877 1.390 . S
C879 C880 1.387 . S
C879 H882 0.950 . S
C880 C879 1.387 . S
C880 C883 1.387 . S
H881 C877 0.950 . S
H882 C879 0.950 . S
C883 C874 1.390 . S
C883 H876 0.950 . S
C883 C880 1.387 . S
C884 C885 1.387 . S
C884 H888 0.950 . S
C884 C893 1.390 . S
C885 C884 1.387 . S
C885 C887 1.387 . S
H886 C893 0.950 . S
C887 C885 1.387 . S
C887 C889 1.390 . S
C887 H891 0.950 . S
H888 C884 0.950 . S
C889 C887 1.390 . S
C889 C890 1.387 . S
C889 H892 0.950 . S
C890 C889 1.387 . S
C890 C893 1.387 . S
H891 C887 0.950 . S
H892 C889 0.950 . S
C893 C884 1.390 . S
C893 H886 0.950 . S
C893 C890 1.387 . S
C894 C895 1.387 . S
C894 H898 0.950 . S
C894 C903 1.390 1_455 S
C895 C894 1.387 . S
C895 C897 1.387 . S
H896 C903 0.950 . S
C897 C895 1.387 . S
C897 C899 1.390 1_455 S
C897 H901 0.950 . S
H898 C894 0.950 . S
C899 C897 1.390 1_655 S
C899 C900 1.387 . S
C899 H902 0.950 . S
C900 C899 1.387 . S
C900 C903 1.387 . S
H901 C897 0.950 . S
H902 C899 0.950 . S
C903 C894 1.390 1_655 S
C903 H896 0.950 . S
C903 C900 1.387 . S
C904 C905 1.387 . S
C904 H908 0.950 . S
C904 C913 1.390 1_655 S
C905 C904 1.387 . S
C905 C907 1.387 . S
H906 C913 0.950 . S
C907 C905 1.387 . S
C907 C909 1.390 1_655 S
C907 H911 0.950 . S
H908 C904 0.950 . S
C909 C907 1.390 1_455 S
C909 C910 1.387 . S
C909 H912 0.950 . S
C910 C909 1.387 . S
C910 C913 1.387 . S
H911 C907 0.950 . S
H912 C909 0.950 . S
C913 C904 1.390 1_455 S
C913 H906 0.950 . S
C913 C910 1.387 . S
C914 C915 1.387 . S
C914 H918 0.950 . S
C914 C923 1.390 . S
C915 C914 1.387 . S
C915 C917 1.387 . S
H916 C923 0.950 . S
C917 C915 1.387 . S
C917 C919 1.390 . S
C917 H921 0.950 . S
H918 C914 0.950 . S
C919 C917 1.390 . S
C919 C920 1.387 . S
C919 H922 0.950 . S
C920 C919 1.387 . S
C920 C923 1.387 . S
H921 C917 0.950 . S
H922 C919 0.950 . S
C923 C914 1.390 . S
C923 H916 0.950 . S
C923 C920 1.387 . S
C924 C925 1.387 . S
C924 H928 0.950 . S
C924 C933 1.390 . S
C925 C924 1.387 . S
C925 C927 1.387 . S
H926 C933 0.950 . S
C927 C925 1.387 . S
C927 C929 1.390 . S
C927 H931 0.950 . S
H928 C924 0.950 . S
C929 C927 1.390 . S
C929 C930 1.387 . S
C929 H932 0.950 . S
C930 C929 1.387 . S
C930 C933 1.387 . S
H931 C927 0.950 . S
H932 C929 0.950 . S
C933 C924 1.390 . S
C933 H926 0.950 . S
C933 C930 1.387 . S
C934 C935 1.387 . S
C934 H938 0.950 . S
C934 C943 1.390 . S
C935 C934 1.387 . S
C935 C937 1.387 1_655 S
H936 C943 0.950 . S
C937 C935 1.387 1_455 S
C937 C939 1.390 . S
C937 H941 0.950 . S
H938 C934 0.950 . S
C939 C937 1.390 . S
C939 C940 1.387 . S
C939 H942 0.950 . S
C940 C939 1.387 . S
C940 C943 1.387 1_455 S
H941 C937 0.950 . S
H942 C939 0.950 . S
C943 C934 1.390 . S
C943 H936 0.950 . S
C943 C940 1.387 1_655 S
C944 C945 1.387 . S
C944 H948 0.950 . S
C944 C953 1.390 1_455 S
C945 C944 1.387 . S
C945 C947 1.387 . S
H946 C953 0.950 . S
C947 C945 1.387 . S
C947 C949 1.390 1_455 S
C947 H951 0.950 . S
H948 C944 0.950 . S
C949 C947 1.390 1_655 S
C949 C950 1.387 . S
C949 H952 0.950 . S
C950 C949 1.387 . S
C950 C953 1.387 . S
H951 C947 0.950 . S
H952 C949 0.950 . S
C953 C944 1.390 1_655 S
C953 H946 0.950 . S
C953 C950 1.387 . S
C954 C955 1.387 . S
C954 H958 0.950 . S
C954 C963 1.390 . S
C955 C954 1.387 . S
C955 C957 1.387 . S
H956 C963 0.950 . S
C957 C955 1.387 . S
C957 C959 1.390 . S
C957 H961 0.950 . S
H958 C954 0.950 . S
C959 C957 1.390 . S
C959 C960 1.387 . S
C959 H962 0.950 . S
C960 C959 1.387 . S
C960 C963 1.387 . S
H961 C957 0.950 . S
H962 C959 0.950 . S
C963 C954 1.390 . S
C963 H956 0.950 . S
C963 C960 1.387 . S
C964 C965 1.387 . S
C964 H968 0.950 . S
C964 C973 1.390 1_655 S
C965 C964 1.387 . S
C965 C967 1.387 . S
H966 C973 0.950 . S
C967 C965 1.387 . S
C967 C969 1.390 1_655 S
C967 H971 0.950 . S
H968 C964 0.950 . S
C969 C967 1.390 1_455 S
C969 C970 1.387 . S
C969 H972 0.950 . S
C970 C969 1.387 . S
C970 C973 1.387 . S
H971 C967 0.950 . S
H972 C969 0.950 . S
C973 C964 1.390 1_455 S
C973 H966 0.950 . S
C973 C970 1.387 . S
C974 C975 1.387 . S
C974 H978 0.950 . S
C974 C983 1.390 . S
C975 C974 1.387 . S
C975 C977 1.387 . S
H976 C983 0.950 . S
C977 C975 1.387 . S
C977 C979 1.390 . S
C977 H981 0.950 . S
H978 C974 0.950 . S
C979 C977 1.390 . S
C979 C980 1.387 . S
C979 H982 0.950 . S
C980 C979 1.387 . S
C980 C983 1.387 . S
H981 C977 0.950 . S
H982 C979 0.950 . S
C983 C974 1.390 . S
C983 H976 0.950 . S
C983 C980 1.387 . S
C984 C985 1.387 . S
C984 H988 0.950 . S
C984 C993 1.390 . S
C985 C984 1.387 . S
C985 C987 1.387 . S
H986 C993 0.950 . S
C987 C985 1.387 . S
C987 C989 1.390 . S
C987 H991 0.950 . S
H988 C984 0.950 . S
C989 C987 1.390 . S
C989 C990 1.387 . S
C989 H992 0.950 . S
C990 C989 1.387 . S
C990 C993 1.387 . S
H991 C987 0.950 . S
H992 C989 0.950 . S
C993 C984 1.390 . S
C993 H986 0.950 . S
C993 C990 1.387 . S
C994 C995 1.387 1_655 S
C994 H998 0.950 . S
C994 C1003 1.390 . S
C995 C994 1.387 1_455 S
C995 C997 1.387 . S
H996 C1003 0.950 . S
C997 C995 1.387 . S
C997 C999 1.390 . S
C997 H1001 0.950 . S
H998 C994 0.950 . S
C999 C997 1.390 . S
C999 C1000 1.387 1_455 S
C999 H1002 0.950 . S
C1000 C999 1.387 1_655 S
C1000 C1003 1.387 . S
H1001 C997 0.950 . S
H1002 C999 0.950 . S
C1003 C994 1.390 . S
C1003 H996 0.950 . S
C1003 C1000 1.387 . S
C1004 C1005 1.387 . S
C1004 H1008 0.950 . S
C1004 C1013 1.390 . S
C1005 C1004 1.387 . S
C1005 C1007 1.387 . S
H1006 C1013 0.950 . S
C1007 C1005 1.387 . S
C1007 C1009 1.390 . S
C1007 H1011 0.950 . S
H1008 C1004 0.950 . S
C1009 C1007 1.390 . S
C1009 C1010 1.387 . S
C1009 H1012 0.950 . S
C1010 C1009 1.387 . S
C1010 C1013 1.387 . S
H1011 C1007 0.950 . S
H1012 C1009 0.950 . S
C1013 C1004 1.390 . S
C1013 H1006 0.950 . S
C1013 C1010 1.387 . S
C1014 C1015 1.387 . S
C1014 H1018 0.950 . S
C1014 C1023 1.390 1_455 S
C1015 C1014 1.387 . S
C1015 C1017 1.387 . S
H1016 C1023 0.950 . S
C1017 C1015 1.387 . S
C1017 C1019 1.390 1_455 S
C1017 H1021 0.950 . S
H1018 C1014 0.950 . S
C1019 C1017 1.390 1_655 S
C1019 C1020 1.387 . S
C1019 H1022 0.950 . S
C1020 C1019 1.387 . S
C1020 C1023 1.387 . S
H1021 C1017 0.950 . S
H1022 C1019 0.950 . S
C1023 C1014 1.390 1_655 S
C1023 H1016 0.950 . S
C1023 C1020 1.387 . S
C465 C15 2.032 . S
C470 C21 1.849 . S
C475 C50 1.847 . S
C480 C44 2.032 . S
C485 C79 1.850 . S
C490 C73 2.031 . S
C495 C108 1.846 . S
C500 C102 2.032 . S
C505 C131 2.032 . S
C510 C137 1.846 . S
C515 C160 2.032 . S
C520 C166 1.847 . S
C525 C189 2.031 . S
C530 C195 1.850 . S
C535 C224 1.848 . S
C540 C218 2.031 . S
C545 C253 1.850 . S
C550 C247 2.031 . S
C555 C276 2.031 . S
C560 C282 1.850 . S
C565 C305 2.031 . S
C570 C311 1.850 . S
C575 C340 1.846 . S
C580 C334 2.032 . S
C585 C369 1.847 . S
C590 C363 2.032 . S
C595 C398 1.849 . S
C600 C392 2.032 . S
C605 C427 1.847 . S
C610 C421 2.032 . S
C615 C450 2.032 . S
C620 C456 1.846 . S
C625 C3 1.222 . S
C630 C158 1.272 . S
C635 C32 1.225 . S
C640 C129 1.269 . S
C645 C61 1.223 . S
C650 C216 1.270 . S
C655 C90 1.226 . S
C660 C187 1.270 . S
C665 C119 1.222 . S
C670 C42 1.272 . S
C675 C148 1.223 . S
C680 C13 1.270 . S
C685 C100 1.269 . S
C690 C177 1.226 . S
C695 C71 1.272 . S
C700 C206 1.223 . S
C705 C235 1.223 . S
C710 C390 1.272 . S
C715 C361 1.272 . S
C720 C264 1.222 . S
C725 C293 1.222 . S
C730 C448 1.272 . S
C735 C419 1.270 . S
C740 C322 1.225 . S
C745 C274 1.272 . S
C750 C351 1.223 . S
C755 C380 1.222 . S
C760 C245 1.272 . S
C765 C409 1.226 . S
C770 C332 1.270 . S
C775 C438 1.224 . S
C780 C303 1.272 . S
C785 C5 1.367 . S
C790 C34 1.367 . S
C795 C92 1.368 . S
C800 C63 1.366 . S
C805 C121 1.367 . S
C810 C150 1.367 . S
C815 C208 1.367 . S
C820 C179 1.367 . S
C825 C266 1.367 . S
C830 C237 1.367 . S
C835 C295 1.367 . S
C840 C324 1.367 . S
C845 C353 1.367 . S
C850 C382 1.367 . S
C855 C411 1.367 . S
C860 C440 1.367 . S
C865 C10 1.613 . S
C870 C271 1.613 . S
C875 C39 1.613 . S
C880 C242 1.613 . S
C885 C329 1.610 . S
C890 C68 1.610 . S
C895 C300 1.611 . S
C900 C97 1.611 . S
C905 C126 1.611 . S
C910 C387 1.611 . S
C915 C155 1.610 . S
C920 C358 1.610 . S
C925 C184 1.613 . S
C930 C445 1.613 . S
C935 C416 1.611 . S
C940 C213 1.613 . S
C945 C95 1.371 . S
C950 C8 1.371 . S
C955 C37 1.370 . S
C960 C66 1.370 . S
C965 C211 1.376 . S
C970 C124 1.376 . S
C975 C153 1.370 . S
C980 C182 1.370 . S
C985 C240 1.375 . S
C990 C327 1.375 . S
C995 C269 1.372 . S
C1000 C298 1.374 . S
C1005 C443 1.374 . S
C1010 C356 1.372 . S
C1015 C414 1.376 . S
C1020 C385 1.376 . S
