# Generated by pormake.
# Topology smm, (6)-cn, num edge types: 1
# Building blocks:
#     Node 0, Type 0, BuildingBlock: CUWYAW_clean_sbu_0, # of connection points: 6
#     Node 1, Type 0, BuildingBlock: CUWYAW_clean_sbu_0, # of connection points: 6
#     Node 2, Type 0, BuildingBlock: CUWYAW_clean_sbu_0, # of connection points: 6
#     Node 3, Type 0, BuildingBlock: CUWYAW_clean_sbu_0, # of connection points: 6
#     Node 4, Type 0, BuildingBlock: CUWYAW_clean_sbu_0, # of connection points: 6
#     Node 5, Type 0, BuildingBlock: CUWYAW_clean_sbu_0, # of connection points: 6
#     Node 6, Type 0, BuildingBlock: CUWYAW_clean_sbu_0, # of connection points: 6
#     Node 7, Type 0, BuildingBlock: CUWYAW_clean_sbu_0, # of connection points: 6
#     Node 8, Type 0, BuildingBlock: CUWYAW_clean_sbu_0, # of connection points: 6
#     Edge 9, Type (0, 0), BuildingBlock: OJICUG_clean_linker_0, # of connection points: 2
#     Edge 10, Type (0, 0), BuildingBlock: OJICUG_clean_linker_0, # of connection points: 2
#     Edge 11, Type (0, 0), BuildingBlock: OJICUG_clean_linker_0, # of connection points: 2
#     Edge 12, Type (0, 0), BuildingBlock: OJICUG_clean_linker_0, # of connection points: 2
#     Edge 13, Type (0, 0), BuildingBlock: OJICUG_clean_linker_0, # of connection points: 2
#     Edge 14, Type (0, 0), BuildingBlock: OJICUG_clean_linker_0, # of connection points: 2
#     Edge 15, Type (0, 0), BuildingBlock: OJICUG_clean_linker_0, # of connection points: 2
#     Edge 16, Type (0, 0), BuildingBlock: OJICUG_clean_linker_0, # of connection points: 2
#     Edge 17, Type (0, 0), BuildingBlock: OJICUG_clean_linker_0, # of connection points: 2
#     Edge 18, Type (0, 0), BuildingBlock: OJICUG_clean_linker_0, # of connection points: 2
#     Edge 19, Type (0, 0), BuildingBlock: OJICUG_clean_linker_0, # of connection points: 2
#     Edge 20, Type (0, 0), BuildingBlock: OJICUG_clean_linker_0, # of connection points: 2
#     Edge 21, Type (0, 0), BuildingBlock: OJICUG_clean_linker_0, # of connection points: 2
#     Edge 22, Type (0, 0), BuildingBlock: OJICUG_clean_linker_0, # of connection points: 2
#     Edge 23, Type (0, 0), BuildingBlock: OJICUG_clean_linker_0, # of connection points: 2
#     Edge 24, Type (0, 0), BuildingBlock: OJICUG_clean_linker_0, # of connection points: 2
#     Edge 25, Type (0, 0), BuildingBlock: OJICUG_clean_linker_0, # of connection points: 2
#     Edge 26, Type (0, 0), BuildingBlock: OJICUG_clean_linker_0, # of connection points: 2
#     Edge 27, Type (0, 0), BuildingBlock: OJICUG_clean_linker_0, # of connection points: 2
#     Edge 28, Type (0, 0), BuildingBlock: OJICUG_clean_linker_0, # of connection points: 2
#     Edge 29, Type (0, 0), BuildingBlock: OJICUG_clean_linker_0, # of connection points: 2
#     Edge 30, Type (0, 0), BuildingBlock: OJICUG_clean_linker_0, # of connection points: 2
#     Edge 31, Type (0, 0), BuildingBlock: OJICUG_clean_linker_0, # of connection points: 2
#     Edge 32, Type (0, 0), BuildingBlock: OJICUG_clean_linker_0, # of connection points: 2
#     Edge 33, Type (0, 0), BuildingBlock: OJICUG_clean_linker_0, # of connection points: 2
#     Edge 34, Type (0, 0), BuildingBlock: OJICUG_clean_linker_0, # of connection points: 2
#     Edge 35, Type (0, 0), BuildingBlock: OJICUG_clean_linker_0, # of connection points: 2
# Relax obj value: 0.021
# Max RMSD: 0.091
# Mean RMSD: 0.091
data_MOF--net-smm--node1-CUWYAW_clean_sbu_0--edge1-OJICUG_clean_linker_0
_symmetry_space_group_name_H-M    P1
_symmetry_Int_Tables_number       1
_symmetry_cell_setting            triclinic
loop_
_symmetry_equiv_pos_as_xyz
'x, y, z'
_cell_length_a     57.182747
_cell_length_b     57.224595
_cell_length_c     10.349922
_cell_angle_alpha  89.925943
_cell_angle_beta   90.069324
_cell_angle_gamma 119.97702
loop_
_atom_site_label
_atom_site_type_symbol
_atom_site_fract_x
_atom_site_fract_y
_atom_site_fract_z
_atom_type_partial_charge
C0 C 0.10589 0.18685 0.8787 0.0
Eu1 Eu 0.06897 0.19812 0.95376 0.0
C2 C 0.11521 0.1671 0.90097 0.0
C3 C 0.13062 0.16883 0.01052 0.0
C4 C 0.14122 0.15156 0.025 0.0
C5 C 0.13679 0.13215 0.93025 0.0
C6 C 0.12104 0.13018 0.82167 0.0
C7 C 0.11049 0.14749 0.80707 0.0
C8 C 0.05671 0.20107 0.2047 0.0
C9 C 1.00978 0.14309 0.97223 0.0
C10 C 0.98166 0.21186 0.09493 0.0
Eu11 Eu 1.0183 0.2027 -0.00453 0.0
C12 C 0.97113 0.23056 0.11244 0.0
C13 C 0.94337 0.21951 0.1328 0.0
C14 C 0.93246 0.23611 0.15768 0.0
C15 C 0.94904 0.26436 0.16222 0.0
C16 C 0.97701 0.27548 0.14126 0.0
C17 C 0.98797 0.25872 0.11663 0.0
C18 C 1.02941 0.19832 0.74452 0.0
C19 C 0.07664 0.25775 0.94652 0.0
O20 O 0.08293 0.17842 0.81799 0.0
O21 O 0.10942 0.20373 0.97198 0.0
O22 O 0.08114 0.21157 0.16136 0.0
O23 O 0.04014 0.18809 0.11651 0.0
O24 O 0.03506 0.15459 0.93108 0.0
O25 O 0.99964 0.15759 0.02 0.0
O26 O 1.00411 0.21739 0.15413 0.0
O27 O 0.97928 0.20098 0.98098 0.0
O28 O 1.00507 0.18887 0.7888 0.0
O29 O 0.04638 0.21157 0.83103 0.0
O30 O 0.05204 0.24704 -0.00335 0.0
O31 O 0.08624 0.24226 0.9053 0.0
H32 H 0.13486 0.18379 0.08455 0.0
H33 H 0.15295 0.15347 0.11064 0.0
H34 H 0.11749 0.11576 0.74579 0.0
H35 H 0.09906 0.14587 0.72067 0.0
H36 H 0.93005 0.19783 0.13154 0.0
H37 H 0.91099 0.22667 0.17581 0.0
H38 H 0.99039 0.29712 0.14277 0.0
H39 H 1.00951 0.2677 0.10168 0.0
C40 C 0.88731 0.94075 0.88071 0.0
Eu41 Eu 0.87578 0.89251 0.95616 0.0
C42 C 0.90708 0.96978 0.90361 0.0
C43 C 0.90558 0.9832 0.01449 0.0
C44 C 0.92284 1.01103 0.02958 0.0
C45 C 0.94202 0.02624 0.93417 0.0
C46 C 0.94377 1.0127 0.8243 0.0
C47 C 0.92647 0.98488 0.80908 0.0
C48 C 0.87272 0.87727 0.20736 0.0
C49 C 0.93068 0.8881 0.97572 0.0
C50 C 0.86152 0.79132 0.09892 0.0
Eu51 Eu 0.87091 0.83716 -0.00129 0.0
C52 C 0.84282 0.7621 0.11648 0.0
C53 C 0.8146 0.75062 0.11574 0.0
C54 C 0.79779 0.7229 0.14027 0.0
C55 C 0.8089 0.70621 0.16605 0.0
C56 C 0.83721 0.71804 0.16654 0.0
C57 C 0.85387 0.74555 0.14175 0.0
C58 C 0.87543 0.85269 0.74755 0.0
C59 C 0.816 0.84071 0.94852 0.0
O60 O 0.89586 0.92626 0.82087 0.0
O61 O 0.87019 0.92735 0.97318 0.0
O62 O 0.86236 0.89132 0.16378 0.0
O63 O 0.88565 0.8736 0.11928 0.0
O64 O 0.91927 0.90189 0.93328 0.0
O65 O 0.91605 0.86354 0.02439 0.0
O66 O 0.85587 0.8082 0.15726 0.0
O67 O 0.87261 0.79986 0.98529 0.0
O68 O 0.88475 0.83768 0.79213 0.0
O69 O 0.86222 0.85648 0.83388 0.0
O70 O 0.8266 0.82675 -0.00071 0.0
O71 O 0.83159 0.86576 0.90714 0.0
H72 H 0.89081 0.97231 0.08911 0.0
H73 H 0.92111 0.02065 0.11621 0.0
H74 H 0.958 0.02373 0.74792 0.0
H75 H 0.9279 0.97525 0.72174 0.0
H76 H 0.80562 0.76306 0.09694 0.0
H77 H 0.77612 0.71452 0.13786 0.0
H78 H 0.84664 0.70614 0.18848 0.0
H79 H 0.87558 0.75403 0.14435 0.0
C80 C 0.13264 0.96736 0.87144 0.0
Eu81 Eu 0.18067 1.00449 0.94729 0.0
C82 C 0.10357 0.95696 0.89497 0.0
C83 C 0.08554 0.92924 0.8814 0.0
C84 C 0.05781 0.9186 0.89997 0.0
C85 C 0.04736 0.93547 0.93276 0.0
C86 C 0.06556 0.96334 0.94709 0.0
C87 C 0.09341 0.97398 0.92863 0.0
C88 C 0.1962 1.01661 0.19807 0.0
C89 C 0.18558 0.06401 0.96546 0.0
C90 C 0.28293 0.09063 0.08493 0.0
Eu91 Eu 0.23631 0.05473 0.98852 0.0
C92 C 0.31186 0.09888 0.10432 0.0
C93 C 0.33154 0.11587 0.01474 0.0
C94 C 0.35909 0.12692 0.04182 0.0
C95 C 0.36777 0.12146 0.15964 0.0
C96 C 0.34807 0.10377 0.24747 0.0
C97 C 0.32049 0.09273 0.22043 0.0
C98 C 0.22033 0.0438 0.73808 0.0
C99 C 0.23225 0.99621 0.93804 0.0
O100 O 0.1465 0.99095 0.8154 0.0
O101 O 0.14616 0.96367 0.96342 0.0
O102 O 0.18197 0.99222 0.15485 0.0
O103 O 0.19991 0.03322 0.10988 0.0
O104 O 0.17144 0.03867 0.92559 0.0
O105 O 0.21039 0.07407 0.01147 0.0
O106 O 0.26466 0.06986 0.15005 0.0
O107 O 0.27476 0.09226 0.96868 0.0
O108 O 0.23532 0.06811 0.78249 0.0
O109 O 0.21663 0.02678 0.82428 0.0
O110 O 0.24622 0.02046 -0.00857 0.0
O111 O 0.20739 0.98726 0.89499 0.0
H112 H 0.09292 0.91574 0.85509 0.0
H113 H 0.0445 0.89716 0.88599 0.0
H114 H 0.05834 0.97692 0.97365 0.0
H115 H 0.10694 0.99546 0.94034 0.0
H116 H 0.32572 0.12132 0.925 0.0
H117 H 0.37363 0.1401 0.97085 0.0
H118 H 0.35392 0.09929 0.33966 0.0
H119 H 0.30594 0.08011 0.29274 0.0
C120 C 0.77217 0.51963 0.20942 0.0
Eu121 Eu 0.73544 0.53116 0.28431 0.0
C122 C 0.78157 0.49996 0.23238 0.0
C123 C 0.79698 0.50182 0.3421 0.0
C124 C 0.80767 0.48463 0.35703 0.0
C125 C 0.8033 0.46517 0.2626 0.0
C126 C 0.78754 0.46309 0.15388 0.0
C127 C 0.77691 0.48032 0.13882 0.0
C128 C 0.72333 0.5344 0.53531 0.0
C129 C 0.6761 0.47652 0.30397 0.0
C130 C 0.64872 0.54582 0.42631 0.0
Eu131 Eu 0.68514 0.53642 0.32615 0.0
C132 C 0.63807 0.5644 0.4443 0.0
C133 C 0.6547 0.5926 0.44476 0.0
C134 C 0.64366 0.60927 0.46985 0.0
C135 C 0.61582 0.59802 0.495 0.0
C136 C 0.59945 0.56973 0.49426 0.0
C137 C 0.61043 0.55321 0.46892 0.0
C138 C 0.69602 0.53169 0.07515 0.0
C139 C 0.74363 0.59102 0.27465 0.0
O140 O 0.74909 0.51102 0.14965 0.0
O141 O 0.77589 0.53677 0.30174 0.0
O142 O 0.74774 0.54465 0.49191 0.0
O143 O 0.70671 0.52151 0.44716 0.0
O144 O 0.70128 0.48776 0.26177 0.0
O145 O 0.66627 0.49127 0.35202 0.0
O146 O 0.67132 0.55152 0.48457 0.0
O147 O 0.64615 0.53478 0.31262 0.0
O148 O 0.67173 0.52259 0.1195 0.0
O149 O 0.71306 0.54483 0.16155 0.0
O150 O 0.7192 0.58069 0.32644 0.0
O151 O 0.75281 0.57519 0.23334 0.0
H152 H 0.80118 0.51682 0.41588 0.0
H153 H 0.81941 0.48662 0.44275 0.0
H154 H 0.78404 0.44864 0.07823 0.0
H155 H 0.76548 0.47861 0.05231 0.0
H156 H 0.67615 0.60168 0.4265 0.0
H157 H 0.65687 0.63094 0.46839 0.0
H158 H 0.5781 0.56021 0.51568 0.0
H159 H 0.59729 0.53151 0.47062 0.0
C160 C 0.55316 0.27459 0.20761 0.0
Eu161 Eu 0.54255 0.22676 0.28517 0.0
C162 C 0.57188 0.30369 0.22924 0.0
C163 C 0.59896 0.31381 0.26508 0.0
C164 C 0.61619 0.34166 0.28231 0.0
C165 C 0.60665 0.35991 0.26453 0.0
C166 C 0.57943 0.34949 0.22939 0.0
C167 C 0.56231 0.32176 0.21206 0.0
C168 C 0.5394 0.21146 0.53628 0.0
C169 C 0.59744 0.22216 0.30475 0.0
C170 C 0.5269 0.12473 0.42348 0.0
Eu171 Eu 0.53757 0.17135 0.32723 0.0
C172 C 0.50606 0.09584 0.44162 0.0
C173 C 0.50378 0.07621 0.35294 0.0
C174 C 0.48705 0.04867 0.37903 0.0
C175 C 0.47226 0.03996 0.49499 0.0
C176 C 0.47386 0.05962 0.58178 0.0
C177 C 0.49063 0.08719 0.55572 0.0
C178 C 0.5423 0.18714 0.07655 0.0
C179 C 0.48278 0.17506 0.27862 0.0
O180 O 0.56271 0.26062 0.15134 0.0
O181 O 0.53631 0.26131 0.30105 0.0
O182 O 0.52915 0.22561 0.49275 0.0
O183 O 0.55232 0.20775 0.44824 0.0
O184 O 0.58612 0.23617 0.26388 0.0
O185 O 0.58276 0.19742 0.3514 0.0
O186 O 0.52435 0.14297 0.4885 0.0
O187 O 0.53688 0.13301 0.30767 0.0
O188 O 0.5519 0.17239 0.12128 0.0
O189 O 0.52892 0.19076 0.16267 0.0
O190 O 0.49339 0.16125 0.33072 0.0
O191 O 0.49841 0.19996 0.23554 0.0
H192 H 0.60679 0.30022 0.27954 0.0
H193 H 0.63692 0.34886 0.3107 0.0
H194 H 0.57141 0.36283 0.21273 0.0
H195 H 0.54152 0.3144 0.18404 0.0
H196 H 0.51555 0.08205 0.26478 0.0
H197 H 0.48603 0.03417 0.30884 0.0
H198 H 0.46301 0.05373 0.67255 0.0
H199 H 0.4922 0.10169 0.62732 0.0
C200 C 0.79937 0.30071 0.20374 0.0
Eu201 Eu 0.8474 0.33775 0.28011 0.0
C202 C 0.7703 0.29044 0.22641 0.0
C203 C 0.75213 0.26283 0.20984 0.0
C204 C 0.7244 0.25232 0.22782 0.0
C205 C 0.7141 0.26919 0.26303 0.0
C206 C 0.73245 0.29695 0.28021 0.0
C207 C 0.7603 0.30747 0.26233 0.0
C208 C 0.86292 0.34987 0.5309 0.0
C209 C 0.8523 0.39727 0.29841 0.0
C210 C 0.94967 0.42392 0.4178 0.0
Eu211 Eu 0.90305 0.388 0.32139 0.0
C212 C 0.9786 0.43221 0.43741 0.0
C213 C 0.99832 0.44943 0.34853 0.0
C214 C 1.02586 0.4605 0.37588 0.0
C215 C 0.0345 0.45483 0.49331 0.0
C216 C 1.01475 0.43693 0.58043 0.0
C217 C 0.98719 0.42587 0.55311 0.0
C218 C 0.88707 0.37706 0.07095 0.0
C219 C 0.89895 0.32945 0.27112 0.0
O220 O 0.81335 0.32425 0.14746 0.0
O221 O 0.81276 0.29702 0.29642 0.0
O222 O 0.84868 0.32548 0.48767 0.0
O223 O 0.86664 0.36649 0.44271 0.0
O224 O 0.83817 0.37193 0.2586 0.0
O225 O 0.87713 0.40735 0.34431 0.0
O226 O 0.93138 0.40316 0.48295 0.0
O227 O 0.94151 0.42552 0.30146 0.0
O228 O 0.90205 0.40137 0.11535 0.0
O229 O 0.88337 0.36004 0.15718 0.0
O230 O 0.91295 0.35372 0.32434 0.0
O231 O 0.87409 0.32049 0.22816 0.0
H232 H 0.75939 0.24933 0.18175 0.0
H233 H 0.71098 0.23097 0.21158 0.0
H234 H 0.72534 0.31053 0.30863 0.0
H235 H 0.77396 0.32885 0.27631 0.0
H236 H 0.99252 0.45503 0.25915 0.0
H237 H 0.04042 0.47384 0.30543 0.0
H238 H 1.02057 0.43228 0.67232 0.0
H239 H 0.97261 0.41307 0.62491 0.0
C240 C 0.43966 0.85401 0.54488 0.0
Eu241 Eu 0.40277 0.86534 0.61975 0.0
C242 C 0.44892 0.83421 0.56721 0.0
C243 C 0.46451 0.83606 0.67624 0.0
C244 C 0.47506 0.81875 0.69075 0.0
C245 C 0.4704 0.79916 0.59653 0.0
C246 C 0.45447 0.79708 0.48851 0.0
C247 C 0.44397 0.81443 0.47388 0.0
C248 C 0.3905 0.86831 0.87066 0.0
C249 C 0.34359 0.81031 0.63825 0.0
C250 C 0.31542 0.87905 0.76082 0.0
Eu251 Eu 0.35209 0.86992 0.66139 0.0
C252 C 0.30481 0.89769 0.77828 0.0
C253 C 0.27702 0.88656 0.79816 0.0
C254 C 0.26604 0.90309 0.82315 0.0
C255 C 0.28256 0.93135 0.82828 0.0
C256 C 0.31055 0.94254 0.80773 0.0
C257 C 0.32158 0.92585 0.78301 0.0
C258 C 0.3632 0.86552 0.41048 0.0
C259 C 0.41044 0.92497 0.61231 0.0
O260 O 0.41673 0.84564 0.484 0.0
O261 O 0.44319 0.87089 0.6382 0.0
O262 O 0.41493 0.87881 0.82733 0.0
O263 O 0.37393 0.85531 0.78246 0.0
O264 O 0.36886 0.82181 0.59708 0.0
O265 O 0.33344 0.8248 0.68602 0.0
O266 O 0.33791 0.88465 0.8199 0.0
O267 O 0.31303 0.86812 0.64698 0.0
O268 O 0.33885 0.85609 0.45474 0.0
O269 O 0.38017 0.87878 0.49698 0.0
O270 O 0.38582 0.91426 0.66234 0.0
O271 O 0.42005 0.90949 0.57126 0.0
H272 H 0.46894 0.85115 0.74982 0.0
H273 H 0.48692 0.82075 0.77599 0.0
H274 H 0.45074 0.78253 0.41302 0.0
H275 H 0.4324 0.81271 0.38786 0.0
H276 H 0.26375 0.86488 0.7965 0.0
H277 H 0.24454 0.89359 0.84093 0.0
H278 H 0.32389 0.96418 0.80967 0.0
H279 H 0.34315 0.93489 0.76843 0.0
C280 C 0.22119 0.60801 0.5454 0.0
Eu281 Eu 0.20933 0.55965 0.62034 0.0
C282 C 0.24098 0.63701 0.56874 0.0
C283 C 0.23948 0.65038 0.67982 0.0
C284 C 0.25673 0.67821 0.69516 0.0
C285 C 0.27591 0.69346 0.59983 0.0
C286 C 0.27768 0.67997 0.48981 0.0
C287 C 0.26038 0.65215 0.47433 0.0
C288 C 0.20608 0.54425 0.87122 0.0
C289 C 0.26406 0.55471 0.63946 0.0
C290 C 0.19319 0.45747 0.7582 0.0
Eu291 Eu 0.20413 0.50417 0.66198 0.0
C292 C 0.1723 0.4286 0.77622 0.0
C293 C 0.1699 0.40897 0.68718 0.0
C294 C 0.15315 0.38144 0.71321 0.0
C295 C 0.13845 0.37272 0.82943 0.0
C296 C 0.14016 0.39238 0.91655 0.0
C297 C 0.15696 0.41995 0.89057 0.0
C298 C 0.20895 0.52001 0.41143 0.0
C299 C 0.14947 0.50823 0.61312 0.0
O300 O 0.22972 0.59349 0.48574 0.0
O301 O 0.20395 0.5946 0.63746 0.0
O302 O 0.19581 0.55839 0.82768 0.0
O303 O 0.21901 0.54054 0.78325 0.0
O304 O 0.25279 0.56877 0.59885 0.0
O305 O 0.24934 0.52998 0.68606 0.0
O306 O 0.19068 0.47574 0.82313 0.0
O307 O 0.20325 0.46574 0.6425 0.0
O308 O 0.21846 0.50517 0.45614 0.0
O309 O 0.19559 0.52368 0.49748 0.0
O310 O 0.16 0.49429 0.66478 0.0
O311 O 0.16515 0.53317 0.57066 0.0
H312 H 0.2247 0.63946 0.75436 0.0
H313 H 0.25499 0.68779 0.78191 0.0
H314 H 0.29191 0.69103 0.41349 0.0
H315 H 0.26182 0.64256 0.38685 0.0
H316 H 0.1816 0.41481 0.59881 0.0
H317 H 0.15204 0.36694 0.64277 0.0
H318 H 0.12939 0.38649 0.00752 0.0
H319 H 0.15863 0.43445 0.96242 0.0
C320 C 0.46608 0.63417 0.537 0.0
Eu321 Eu 0.51405 0.6713 0.6135 0.0
C322 C 0.43698 0.62369 0.5599 0.0
C323 C 0.42686 0.64048 0.59843 0.0
C324 C 0.399 0.62977 0.61663 0.0
C325 C 0.38075 0.60206 0.59715 0.0
C326 C 0.39116 0.58542 0.55939 0.0
C327 C 0.41891 0.59613 0.54109 0.0
C328 C 0.52956 0.68341 0.86433 0.0
C329 C 0.51904 0.73088 0.63166 0.0
C330 C 0.61639 0.7573 0.75136 0.0
Eu331 Eu 0.56973 0.72151 0.6548 0.0
C332 C 0.64527 0.76534 0.77103 0.0
C333 C 0.66507 0.78261 0.68262 0.0
C334 C 0.69258 0.79346 0.71008 0.0
C335 C 0.7011 0.78754 0.82716 0.0
C336 C 0.68127 0.76956 0.91374 0.0
C337 C 0.65373 0.75872 0.88632 0.0
C338 C 0.55375 0.71059 0.40436 0.0
C339 C 0.56559 0.66294 0.60459 0.0
O340 O 0.47993 0.6578 0.48134 0.0
O341 O 0.47954 0.63049 0.62927 0.0
O342 O 0.51527 0.65902 0.82112 0.0
O343 O 0.53331 0.70003 0.77611 0.0
O344 O 0.50485 0.70553 0.59204 0.0
O345 O 0.54388 0.74093 0.67742 0.0
O346 O 0.598 0.73663 0.81659 0.0
O347 O 0.60829 0.75893 0.63492 0.0
O348 O 0.56876 0.73489 0.44876 0.0
O349 O 0.55003 0.69356 0.49058 0.0
O350 O 0.57959 0.68721 0.65774 0.0
O351 O 0.54073 0.65401 0.56161 0.0
H352 H 0.44045 0.66182 0.6142 0.0
H353 H 0.39179 0.64316 0.64705 0.0
H354 H 0.37782 0.56413 0.54139 0.0
H355 H 0.42627 0.58282 0.511 0.0
H356 H 0.65937 0.78843 0.59357 0.0
H357 H 0.70721 0.80687 0.64003 0.0
H358 H 0.687 0.76471 0.00534 0.0
H359 H 0.63909 0.74586 0.95775 0.0
C360 C 0.0825 0.30454 0.95338 0.0
C361 C 0.09267 0.28736 0.92213 0.0
H362 H 0.08865 0.34473 0.94752 0.0
C363 C 0.11808 0.29861 0.86197 0.0
H364 H 0.06297 0.29661 -0.0007 0.0
C365 C 0.13276 0.32614 0.83233 0.0
C366 C 0.12252 0.34332 0.86192 0.0
H367 H 0.12669 0.28613 0.83667 0.0
H368 H 0.15235 0.33401 0.78715 0.0
C369 C 0.09726 0.33218 0.92387 0.0
C370 C 0.77522 0.84129 0.86182 0.0
C371 C 0.78639 0.82716 0.92329 0.0
H372 H 0.73991 0.84013 0.7849 0.0
C373 C 0.76914 0.79984 0.95485 0.0
H374 H 0.78776 0.86235 0.83622 0.0
C375 C 0.74152 0.78696 0.9243 0.0
C376 C 0.73047 0.80104 0.86097 0.0
H377 H 0.77699 0.78825 0.00176 0.0
H378 H 0.72893 0.76581 0.94819 0.0
C379 C 0.74771 0.82843 0.83114 0.0
C380 C 0.2325 0.95689 0.83279 0.0
C381 C 0.24547 0.9799 0.91179 0.0
H382 H 0.23419 0.92433 0.74142 0.0
C383 C 0.27121 0.98733 0.9611 0.0
H384 H 0.21286 0.95068 0.79134 0.0
C385 C 0.28347 0.97188 0.9332 0.0
C386 C 0.27032 0.94869 0.8549 0.0
H387 H 0.28184 1.00497 0.02197 0.0
H388 H 0.30303 0.97784 0.975 0.0
C389 C 0.24477 0.94163 0.80434 0.0
C390 C 0.43594 0.13427 0.28776 0.0
C391 C 0.45316 0.16146 0.25395 0.0
H392 H 0.39574 0.10022 0.28339 0.0
C393 C 0.44193 0.17537 0.19077 0.0
H394 H 0.44383 0.12286 0.33603 0.0
C395 C 0.4144 0.1624 0.16065 0.0
C396 C 0.39718 0.13511 0.19277 0.0
H397 H 0.45446 0.19632 0.16339 0.0
H398 H 0.40655 0.17391 0.11301 0.0
C399 C 0.4083 0.12128 0.25776 0.0
C400 C 0.93789 0.32052 0.29422 0.0
C401 C 0.91214 0.31311 0.24503 0.0
H402 H 0.96966 0.31096 0.30822 0.0
C403 C 0.89912 0.29005 0.16632 0.0
H404 H 0.94855 0.3382 0.35486 0.0
C405 C 0.91133 0.27474 0.13808 0.0
C406 C 0.93688 0.28178 0.18857 0.0
H407 H 0.87946 0.28385 0.12496 0.0
H408 H 0.90071 0.2574 0.07541 0.0
C409 C 0.95009 0.30501 0.26652 0.0
C410 C 0.76762 0.66646 0.266 0.0
C411 C 0.79144 0.67662 0.19215 0.0
H412 H 0.73393 0.63163 0.3511 0.0
C413 C 0.79901 0.65825 0.14565 0.0
H414 H 0.76124 0.67996 0.30454 0.0
C415 C 0.78364 0.63073 0.17382 0.0
C416 C 0.76 0.62055 0.24851 0.0
H417 H 0.81682 0.66508 0.08616 0.0
H418 H 0.79028 0.6174 0.13563 0.0
C419 C 0.75206 0.63874 0.29368 0.0
C420 C 0.10261 0.46745 0.62119 0.0
C421 C 0.11985 0.4947 0.58834 0.0
H422 H 0.06242 0.43341 0.61581 0.0
C423 C 0.10865 0.50871 0.52593 0.0
H424 H 0.11048 0.45596 0.66883 0.0
C425 C 0.08112 0.49579 0.49561 0.0
C426 C 0.06389 0.46845 0.52674 0.0
H427 H 0.12119 0.52971 0.4993 0.0
H428 H 0.07329 0.50738 0.44859 0.0
C429 C 0.07499 0.45451 0.59096 0.0
C430 C 0.56543 0.62311 0.50288 0.0
C431 C 0.57876 0.64659 0.57863 0.0
H432 H 0.56678 0.59015 0.41411 0.0
C433 C 0.60483 0.65443 0.62477 0.0
H434 H 0.5455 0.61655 0.46402 0.0
C435 C 0.61707 0.63897 0.59679 0.0
C436 C 0.60356 0.61534 0.52171 0.0
H437 H 0.61575 0.67243 0.68305 0.0
H438 H 0.63692 0.64528 0.63597 0.0
C439 C 0.57766 0.60783 0.47446 0.0
C440 C 0.43103 0.9994 0.58914 0.0
C441 C 0.45633 1.01055 0.52755 0.0
H442 H 0.3967 0.96382 0.66433 0.0
C443 C 0.4666 0.99338 0.49839 0.0
H444 H 0.42238 1.01194 0.61246 0.0
C445 C 0.45191 0.96585 0.52807 0.0
C446 C 0.42646 0.95459 0.58786 0.0
H447 H 0.48621 1.00125 0.45351 0.0
H448 H 0.46054 0.95337 0.50308 0.0
C449 C 0.41626 0.97176 0.61871 0.0
C450 C 0.1873 0.1085 -0.00147 0.0
C451 C 0.17293 0.08131 0.95985 0.0
H452 H 0.18742 0.14582 0.01839 0.0
C453 C 0.14638 0.07087 0.91376 0.0
H454 H 0.2078 0.1173 0.03418 0.0
C455 C 0.13462 0.08721 0.90535 0.0
C456 C 0.14906 0.11448 0.94284 0.0
H457 H 0.1346 0.05001 0.88354 0.0
H458 H 0.1141 0.07839 0.87014 0.0
C459 C 0.17552 0.12485 0.99018 0.0
C460 C 0.98682 0.06918 0.90825 0.0
C461 C 0.95963 0.05615 0.94744 0.0
H462 H 1.02389 0.10651 0.88585 0.0
C463 C 0.94925 0.07203 -0.00284 0.0
H464 H 0.99565 0.05764 0.87112 0.0
C465 C 0.96552 0.10013 0.00627 0.0
C466 C 0.99263 0.11315 0.96598 0.0
H467 H 0.92833 0.06281 0.02667 0.0
H468 H 0.9567 0.11165 0.04375 0.0
C469 C 1.00309 0.09727 0.91743 0.0
C470 C 0.97359 0.88714 0.01832 0.0
C471 C 0.96062 0.90069 0.9696 0.0
H472 H 1.01088 0.88758 0.04756 0.0
C473 C 0.97656 0.92623 0.91257 0.0
H474 H 0.96206 0.86754 0.06361 0.0
C475 C 1.00464 0.93769 0.90259 0.0
C476 C 1.01758 0.92393 0.94933 0.0
H477 H 0.96734 0.9373 0.87371 0.0
H478 H 1.01611 0.95706 0.85515 0.0
C479 C 1.00165 0.89861 0.00845 0.0
C480 C 0.80122 0.42028 0.23856 0.0
C481 C 0.81562 0.44757 0.27563 0.0
H482 H 0.80127 0.38312 0.21711 0.0
C483 C 0.84211 0.45802 0.32279 0.0
H484 H 0.78067 0.4114 0.20354 0.0
C485 C 0.85395 0.44173 0.33125 0.0
C486 C 0.83962 0.41452 0.29286 0.0
H487 H 0.85398 0.47902 0.35071 0.0
H488 H 0.87447 0.45058 0.36669 0.0
C489 C 0.81303 0.404 0.24707 0.0
C490 C 0.63205 0.43382 0.34551 0.0
C491 C 0.65869 0.4466 0.29862 0.0
H492 H 0.59506 0.39668 0.37409 0.0
C493 C 0.66836 0.43049 0.2443 0.0
H494 H 0.62391 0.44548 0.38867 0.0
C495 C 0.65171 0.40243 0.23523 0.0
C496 C 0.62491 0.38968 0.28012 0.0
H497 H 0.68874 0.43957 0.20697 0.0
H498 H 0.65967 0.39082 0.18996 0.0
C499 C 0.61541 0.40577 0.33648 0.0
C500 C 0.64019 0.22082 0.34558 0.0
C501 C 0.62738 0.2347 0.29906 0.0
H502 H 0.67734 0.22091 0.3734 0.0
C503 C 0.64348 0.26049 0.24472 0.0
H504 H 0.62855 0.20103 0.38885 0.0
C505 C 0.67156 0.27186 0.23506 0.0
C506 C 0.68433 0.25777 0.27944 0.0
H507 H 0.63438 0.27182 0.20772 0.0
H508 H 0.68316 0.29144 0.18967 0.0
C509 C 0.66824 0.2322 0.33604 0.0
C510 C 0.47982 0.73776 0.5808 0.0
C511 C 0.50644 0.74822 0.62606 0.0
H512 H 0.44752 0.74531 0.53787 0.0
C513 C 0.5209 0.77545 0.66393 0.0
H514 H 0.46796 0.71687 0.55125 0.0
C515 C 0.50916 0.79183 0.65558 0.0
C516 C 0.48263 0.78145 0.60908 0.0
H517 H 0.54144 0.78426 0.69891 0.0
H518 H 0.52113 0.81284 0.68312 0.0
C519 C 0.4681 0.75414 0.57241 0.0
C520 C 0.3207 0.73642 0.57415 0.0
C521 C 0.2935 0.72336 0.61331 0.0
H522 H 0.35774 0.77377 0.5518 0.0
C523 C 0.2831 0.73922 0.66314 0.0
H524 H 0.32954 0.7249 0.53694 0.0
C525 C 0.29934 0.76732 0.67232 0.0
C526 C 0.32646 0.78037 0.63201 0.0
H527 H 0.26218 0.72997 0.69265 0.0
H528 H 0.29051 0.77882 0.70985 0.0
C529 C 0.33694 0.76451 0.5834 0.0
C530 C 0.33815 0.60465 0.57104 0.0
C531 C 0.35096 0.59047 0.61357 0.0
H532 H 0.30097 0.60462 0.54527 0.0
C533 C 0.3349 0.5647 0.66828 0.0
H534 H 0.34974 0.62438 0.52707 0.0
C535 C 0.30684 0.55324 0.67801 0.0
C536 C 0.294 0.56724 0.63345 0.0
H537 H 0.34403 0.55332 0.70405 0.0
H538 H 0.2952 0.5333 0.71984 0.0
C539 C 0.31008 0.59319 0.58079 0.0
C540 C 1.0159 0.18548 0.51357 0.0
C541 C 0.03629 0.19861 0.60661 0.0
H542 H 1.00639 0.17599 0.31301 0.0
C543 C 0.06338 0.21249 0.56645 0.0
H544 H 0.99486 0.17462 0.54184 0.0
C545 C 0.06996 0.21339 0.43571 0.0
C546 C 0.04959 0.20034 0.34256 0.0
H547 H 0.07952 0.22279 0.63601 0.0
H548 H 0.09101 0.22429 0.40762 0.0
C549 C 1.0225 0.18632 0.3827 0.0
C550 C 0.88816 0.85189 0.51657 0.0
C551 C 0.87516 0.85928 0.60953 0.0
H552 H 0.89756 0.85177 0.31599 0.0
C553 C 0.86141 0.87262 0.56919 0.0
H554 H 0.89892 0.84159 0.54496 0.0
C555 C 0.86051 0.87831 0.43837 0.0
C556 C 0.87344 0.87087 0.34531 0.0
H557 H 0.85121 0.87858 0.63868 0.0
H558 H 0.84971 0.88858 0.41016 0.0
C559 C 0.88733 0.85765 0.38562 0.0
C560 C 0.22113 0.05736 0.50707 0.0
C561 C 0.2138 0.03697 0.60013 0.0
H562 H 0.22131 0.06688 0.30639 0.0
C563 C 0.20063 1.0099 0.55996 0.0
H564 H 0.23129 0.07839 0.53538 0.0
C565 C 0.19509 1.00334 0.42915 0.0
C566 C 0.20249 0.0237 0.33597 0.0
H567 H 0.19473 0.99376 0.62955 0.0
H568 H 0.18497 0.9823 0.40103 0.0
C569 C 0.2155 0.05078 0.37612 0.0
C570 C 0.73658 0.5465 0.7665 0.0
C571 C 0.71622 0.5337 0.67318 0.0
H572 H 0.74614 0.5557 0.96692 0.0
C573 C 0.6891 0.51991 0.71313 0.0
H574 H 0.75765 0.55722 0.73857 0.0
C575 C 0.68249 0.51907 0.844 0.0
C576 C 0.70288 0.53195 0.93722 0.0
H577 H 0.67299 0.50977 0.64329 0.0
H578 H 0.66143 0.5084 0.87211 0.0
C579 C 0.72999 0.54559 0.89723 0.0
C580 C 0.55431 0.19218 0.71479 0.0
C581 C 0.54018 0.20513 0.67426 0.0
H582 H 0.56614 0.17639 0.87436 0.0
C583 C 0.52708 0.21241 0.76713 0.0
H584 H 0.5647 0.18646 0.64533 0.0
C585 C 0.52803 0.2068 0.898 0.0
C586 C 0.54201 0.1937 0.93854 0.0
H587 H 0.51609 0.22248 0.73873 0.0
H588 H 0.51769 0.21261 0.96734 0.0
C589 C 0.5552 0.18649 0.84579 0.0
C590 C 0.88222 0.38404 0.70898 0.0
C591 C 0.86921 0.35696 0.66882 0.0
H592 H 0.89801 0.41164 0.86824 0.0
C593 C 0.86182 0.3366 0.76199 0.0
H594 H 0.88802 0.40014 0.63926 0.0
C595 C 0.86738 0.34316 0.89281 0.0
C596 C 0.88053 0.37023 0.93299 0.0
H597 H 0.85171 0.31556 0.73387 0.0
H598 H 0.86148 0.32702 0.96239 0.0
C599 C 0.88786 0.39061 0.83993 0.0
C600 C 0.39716 0.8797 0.23242 0.0
C601 C 0.37007 0.86582 0.27257 0.0
H602 H 0.4248 0.89151 0.07358 0.0
C603 C 0.34969 0.8527 0.17952 0.0
H604 H 0.41331 0.88998 0.30198 0.0
C605 C 0.35628 0.85355 0.04864 0.0
C606 C 0.38338 0.86757 0.00851 0.0
H607 H 0.32864 0.84184 0.20778 0.0
H608 H 0.34018 0.84323 0.97894 0.0
C609 C 0.40374 0.88061 0.10167 0.0
C610 C 0.22092 0.52493 0.04973 0.0
C611 C 0.20684 0.53794 0.00918 0.0
H612 H 0.2327 0.50912 0.20936 0.0
C613 C 0.1938 0.54529 0.10199 0.0
H614 H 0.23127 0.51916 0.98028 0.0
C615 C 0.19475 0.5397 0.23286 0.0
C616 C 0.20868 0.52655 0.27344 0.0
H617 H 0.18286 0.5554 0.07355 0.0
H618 H 0.18445 0.54557 0.30218 0.0
C619 C 0.22181 0.51927 0.18074 0.0
C620 C 0.55455 0.72415 0.17335 0.0
C621 C 0.5472 0.70376 0.26641 0.0
H622 H 0.55472 0.73368 0.97268 0.0
C623 C 0.534 0.67669 0.22623 0.0
H624 H 0.56473 0.74518 0.20165 0.0
C625 C 0.52844 0.67013 0.09542 0.0
C626 C 0.53585 0.6905 0.00224 0.0
H627 H 0.52809 0.66054 0.29582 0.0
H628 H 0.51829 0.64909 0.06731 0.0
C629 C 0.5489 0.71757 0.0424 0.0
loop_
_geom_bond_atom_site_label_1
_geom_bond_atom_site_label_2
_geom_bond_distance
_geom_bond_site_symmetry_2
_ccdc_geom_bond_type
C0 Eu1 2.835 1_556 S
C0 C2 1.500 . S
C0 O20 1.257 . S
C0 O21 1.260 1_556 S
Eu1 C0 2.835 1_554 S
Eu1 O20 2.473 1_554 S
Eu1 O21 2.480 . S
Eu1 O22 2.430 . S
Eu1 O23 2.670 . S
Eu1 O24 2.394 . S
Eu1 O29 2.355 1_554 S
Eu1 O31 2.374 1_554 S
C2 C0 1.500 . S
C2 C3 1.377 1_556 S
C2 C7 1.377 . S
C3 C2 1.377 1_554 S
C3 C4 1.395 . S
C3 H32 0.931 . S
C4 C3 1.395 . S
C4 C5 1.383 1_554 S
C4 H33 0.931 . S
C5 C4 1.383 1_556 S
C5 C6 1.394 . S
C6 C5 1.394 . S
C6 C7 1.378 . S
C6 H34 0.931 . S
C7 C2 1.377 . S
C7 C6 1.378 . S
C7 H35 0.931 . S
C8 O22 1.259 . S
C8 O23 1.270 . S
C9 O24 1.251 1_655 S
C9 O25 1.251 . S
C10 Eu11 2.835 1_554 S
C10 C12 1.500 . S
C10 O26 1.257 . S
C10 O27 1.260 1_554 S
Eu11 C10 2.835 1_556 S
Eu11 O23 2.355 1_656 S
Eu11 O25 2.374 1_556 S
Eu11 O26 2.473 1_556 S
Eu11 O27 2.480 . S
Eu11 O28 2.430 . S
Eu11 O29 2.670 1_655 S
Eu11 O30 2.394 1_655 S
C12 C10 1.500 . S
C12 C13 1.377 1_554 S
C12 C17 1.377 . S
C13 C12 1.377 1_556 S
C13 C14 1.395 . S
C13 H36 0.931 . S
C14 C13 1.395 . S
C14 C15 1.383 1_556 S
C14 H37 0.931 . S
C15 C14 1.383 1_554 S
C15 C16 1.394 . S
C16 C15 1.394 . S
C16 C17 1.378 . S
C16 H38 0.931 . S
C17 C12 1.377 . S
C17 C16 1.378 . S
C17 H39 0.931 . S
C18 O28 1.259 1_455 S
C18 O29 1.270 . S
C19 O30 1.251 . S
C19 O31 1.251 . S
O20 C0 1.257 . S
O20 Eu1 2.473 1_556 S
O21 C0 1.260 1_554 S
O21 Eu1 2.480 . S
O22 Eu1 2.430 . S
O22 C8 1.259 . S
O23 Eu1 2.670 . S
O23 C8 1.270 . S
O23 Eu11 2.355 1_454 S
O24 Eu1 2.394 . S
O24 C9 1.251 1_455 S
O25 C9 1.251 . S
O25 Eu11 2.374 1_554 S
O26 C10 1.257 . S
O26 Eu11 2.473 1_554 S
O27 C10 1.260 1_556 S
O27 Eu11 2.480 . S
O28 Eu11 2.430 . S
O28 C18 1.259 1_655 S
O29 Eu1 2.355 1_556 S
O29 Eu11 2.670 1_455 S
O29 C18 1.270 . S
O30 Eu11 2.394 1_455 S
O30 C19 1.251 . S
O31 Eu1 2.374 1_556 S
O31 C19 1.251 . S
H32 C3 0.931 . S
H33 C4 0.931 . S
H34 C6 0.931 . S
H35 C7 0.931 . S
H36 C13 0.931 . S
H37 C14 0.931 . S
H38 C16 0.931 . S
H39 C17 0.931 . S
C40 Eu41 2.835 1_556 S
C40 C42 1.500 . S
C40 O60 1.257 . S
C40 O61 1.260 1_556 S
Eu41 C40 2.835 1_554 S
Eu41 O60 2.473 1_554 S
Eu41 O61 2.480 . S
Eu41 O62 2.430 . S
Eu41 O63 2.670 . S
Eu41 O64 2.394 . S
Eu41 O69 2.355 1_554 S
Eu41 O71 2.374 1_554 S
C42 C40 1.500 . S
C42 C43 1.377 1_556 S
C42 C47 1.377 . S
C43 C42 1.377 1_554 S
C43 C44 1.395 1_565 S
C43 H72 0.931 . S
C44 C43 1.395 1_545 S
C44 C45 1.383 1_554 S
C44 H73 0.931 . S
C45 C44 1.383 1_556 S
C45 C46 1.394 1_545 S
C46 C45 1.394 1_565 S
C46 C47 1.378 . S
C46 H74 0.931 . S
C47 C42 1.377 . S
C47 C46 1.378 . S
C47 H75 0.931 . S
C48 O62 1.259 . S
C48 O63 1.270 . S
C49 O64 1.251 . S
C49 O65 1.251 . S
C50 Eu51 2.835 1_554 S
C50 C52 1.500 . S
C50 O66 1.257 . S
C50 O67 1.260 1_554 S
Eu51 C50 2.835 1_556 S
Eu51 O63 2.355 1_556 S
Eu51 O65 2.374 1_556 S
Eu51 O66 2.473 1_556 S
Eu51 O67 2.480 . S
Eu51 O68 2.430 . S
Eu51 O69 2.670 . S
Eu51 O70 2.394 . S
C52 C50 1.500 . S
C52 C53 1.377 1_554 S
C52 C57 1.377 . S
C53 C52 1.377 1_556 S
C53 C54 1.395 . S
C53 H76 0.931 . S
C54 C53 1.395 . S
C54 C55 1.383 1_556 S
C54 H77 0.931 . S
C55 C54 1.383 1_554 S
C55 C56 1.394 . S
C56 C55 1.394 . S
C56 C57 1.378 . S
C56 H78 0.931 . S
C57 C52 1.377 . S
C57 C56 1.378 . S
C57 H79 0.931 . S
C58 O68 1.259 . S
C58 O69 1.270 . S
C59 O70 1.251 . S
C59 O71 1.251 . S
O60 C40 1.257 . S
O60 Eu41 2.473 1_556 S
O61 C40 1.260 1_554 S
O61 Eu41 2.480 . S
O62 Eu41 2.430 . S
O62 C48 1.259 . S
O63 Eu41 2.670 . S
O63 C48 1.270 . S
O63 Eu51 2.355 1_554 S
O64 Eu41 2.394 . S
O64 C49 1.251 . S
O65 C49 1.251 . S
O65 Eu51 2.374 1_554 S
O66 C50 1.257 . S
O66 Eu51 2.473 1_554 S
O67 C50 1.260 1_556 S
O67 Eu51 2.480 . S
O68 Eu51 2.430 . S
O68 C58 1.259 . S
O69 Eu41 2.355 1_556 S
O69 Eu51 2.670 . S
O69 C58 1.270 . S
O70 Eu51 2.394 . S
O70 C59 1.251 . S
O71 Eu41 2.374 1_556 S
O71 C59 1.251 . S
H72 C43 0.931 . S
H73 C44 0.931 . S
H74 C46 0.931 . S
H75 C47 0.931 . S
H76 C53 0.931 . S
H77 C54 0.931 . S
H78 C56 0.931 . S
H79 C57 0.931 . S
C80 Eu81 2.835 1_556 S
C80 C82 1.500 . S
C80 O100 1.257 . S
C80 O101 1.260 1_556 S
Eu81 C80 2.835 1_554 S
Eu81 O100 2.473 1_554 S
Eu81 O101 2.480 . S
Eu81 O102 2.430 . S
Eu81 O103 2.670 1_565 S
Eu81 O104 2.394 1_565 S
Eu81 O109 2.355 1_564 S
Eu81 O111 2.374 1_554 S
C82 C80 1.500 . S
C82 C83 1.377 1_556 S
C82 C87 1.377 . S
C83 C82 1.377 1_554 S
C83 C84 1.395 . S
C83 H112 0.931 . S
C84 C83 1.395 . S
C84 C85 1.383 1_554 S
C84 H113 0.931 . S
C85 C84 1.383 1_556 S
C85 C86 1.394 . S
C86 C85 1.394 . S
C86 C87 1.378 . S
C86 H114 0.931 . S
C87 C82 1.377 . S
C87 C86 1.378 . S
C87 H115 0.931 . S
C88 O102 1.259 1_545 S
C88 O103 1.270 . S
C89 O104 1.251 . S
C89 O105 1.251 . S
C90 Eu91 2.835 1_554 S
C90 C92 1.500 . S
C90 O106 1.257 . S
C90 O107 1.260 1_554 S
Eu91 C90 2.835 1_556 S
Eu91 O103 2.355 1_556 S
Eu91 O105 2.374 1_556 S
Eu91 O106 2.473 1_556 S
Eu91 O107 2.480 . S
Eu91 O108 2.430 . S
Eu91 O109 2.670 . S
Eu91 O110 2.394 . S
C92 C90 1.500 . S
C92 C93 1.377 1_554 S
C92 C97 1.377 . S
C93 C92 1.377 1_556 S
C93 C94 1.395 . S
C93 H116 0.931 . S
C94 C93 1.395 . S
C94 C95 1.383 1_556 S
C94 H117 0.931 . S
C95 C94 1.383 1_554 S
C95 C96 1.394 . S
C96 C95 1.394 . S
C96 C97 1.378 . S
C96 H118 0.931 . S
C97 C92 1.377 . S
C97 C96 1.378 . S
C97 H119 0.931 . S
C98 O108 1.259 . S
C98 O109 1.270 . S
C99 O110 1.251 1_565 S
C99 O111 1.251 . S
O100 C80 1.257 . S
O100 Eu81 2.473 1_556 S
O101 C80 1.260 1_554 S
O101 Eu81 2.480 . S
O102 Eu81 2.430 . S
O102 C88 1.259 1_565 S
O103 Eu81 2.670 1_545 S
O103 C88 1.270 . S
O103 Eu91 2.355 1_554 S
O104 Eu81 2.394 1_545 S
O104 C89 1.251 . S
O105 C89 1.251 . S
O105 Eu91 2.374 1_554 S
O106 C90 1.257 . S
O106 Eu91 2.473 1_554 S
O107 C90 1.260 1_556 S
O107 Eu91 2.480 . S
O108 Eu91 2.430 . S
O108 C98 1.259 . S
O109 Eu81 2.355 1_546 S
O109 Eu91 2.670 . S
O109 C98 1.270 . S
O110 Eu91 2.394 . S
O110 C99 1.251 1_545 S
O111 Eu81 2.374 1_556 S
O111 C99 1.251 . S
H112 C83 0.931 . S
H113 C84 0.931 . S
H114 C86 0.931 . S
H115 C87 0.931 . S
H116 C93 0.931 . S
H117 C94 0.931 . S
H118 C96 0.931 . S
H119 C97 0.931 . S
C120 Eu121 2.835 . S
C120 C122 1.500 . S
C120 O140 1.257 . S
C120 O141 1.260 . S
Eu121 C120 2.835 . S
Eu121 O140 2.473 . S
Eu121 O141 2.480 . S
Eu121 O142 2.430 . S
Eu121 O143 2.670 . S
Eu121 O144 2.394 . S
Eu121 O149 2.355 . S
Eu121 O151 2.374 . S
C122 C120 1.500 . S
C122 C123 1.377 . S
C122 C127 1.377 . S
C123 C122 1.377 . S
C123 C124 1.395 . S
C123 H152 0.931 . S
C124 C123 1.395 . S
C124 C125 1.383 . S
C124 H153 0.931 . S
C125 C124 1.383 . S
C125 C126 1.394 . S
C126 C125 1.394 . S
C126 C127 1.378 . S
C126 H154 0.931 . S
C127 C122 1.377 . S
C127 C126 1.378 . S
C127 H155 0.931 . S
C128 O142 1.259 . S
C128 O143 1.270 . S
C129 O144 1.251 . S
C129 O145 1.251 . S
C130 Eu131 2.835 . S
C130 C132 1.500 . S
C130 O146 1.257 . S
C130 O147 1.260 . S
Eu131 C130 2.835 . S
Eu131 O143 2.355 . S
Eu131 O145 2.374 . S
Eu131 O146 2.473 . S
Eu131 O147 2.480 . S
Eu131 O148 2.430 . S
Eu131 O149 2.670 . S
Eu131 O150 2.394 . S
C132 C130 1.500 . S
C132 C133 1.377 . S
C132 C137 1.377 . S
C133 C132 1.377 . S
C133 C134 1.395 . S
C133 H156 0.931 . S
C134 C133 1.395 . S
C134 C135 1.383 . S
C134 H157 0.931 . S
C135 C134 1.383 . S
C135 C136 1.394 . S
C136 C135 1.394 . S
C136 C137 1.378 . S
C136 H158 0.931 . S
C137 C132 1.377 . S
C137 C136 1.378 . S
C137 H159 0.931 . S
C138 O148 1.259 . S
C138 O149 1.270 . S
C139 O150 1.251 . S
C139 O151 1.251 . S
O140 C120 1.257 . S
O140 Eu121 2.473 . S
O141 C120 1.260 . S
O141 Eu121 2.480 . S
O142 Eu121 2.430 . S
O142 C128 1.259 . S
O143 Eu121 2.670 . S
O143 C128 1.270 . S
O143 Eu131 2.355 . S
O144 Eu121 2.394 . S
O144 C129 1.251 . S
O145 C129 1.251 . S
O145 Eu131 2.374 . S
O146 C130 1.257 . S
O146 Eu131 2.473 . S
O147 C130 1.260 . S
O147 Eu131 2.480 . S
O148 Eu131 2.430 . S
O148 C138 1.259 . S
O149 Eu121 2.355 . S
O149 Eu131 2.670 . S
O149 C138 1.270 . S
O150 Eu131 2.394 . S
O150 C139 1.251 . S
O151 Eu121 2.374 . S
O151 C139 1.251 . S
H152 C123 0.931 . S
H153 C124 0.931 . S
H154 C126 0.931 . S
H155 C127 0.931 . S
H156 C133 0.931 . S
H157 C134 0.931 . S
H158 C136 0.931 . S
H159 C137 0.931 . S
C160 Eu161 2.835 . S
C160 C162 1.500 . S
C160 O180 1.257 . S
C160 O181 1.260 . S
Eu161 C160 2.835 . S
Eu161 O180 2.473 . S
Eu161 O181 2.480 . S
Eu161 O182 2.430 . S
Eu161 O183 2.670 . S
Eu161 O184 2.394 . S
Eu161 O189 2.355 . S
Eu161 O191 2.374 . S
C162 C160 1.500 . S
C162 C163 1.377 . S
C162 C167 1.377 . S
C163 C162 1.377 . S
C163 C164 1.395 . S
C163 H192 0.931 . S
C164 C163 1.395 . S
C164 C165 1.383 . S
C164 H193 0.931 . S
C165 C164 1.383 . S
C165 C166 1.394 . S
C166 C165 1.394 . S
C166 C167 1.378 . S
C166 H194 0.931 . S
C167 C162 1.377 . S
C167 C166 1.378 . S
C167 H195 0.931 . S
C168 O182 1.259 . S
C168 O183 1.270 . S
C169 O184 1.251 . S
C169 O185 1.251 . S
C170 Eu171 2.835 . S
C170 C172 1.500 . S
C170 O186 1.257 . S
C170 O187 1.260 . S
Eu171 C170 2.835 . S
Eu171 O183 2.355 . S
Eu171 O185 2.374 . S
Eu171 O186 2.473 . S
Eu171 O187 2.480 . S
Eu171 O188 2.430 . S
Eu171 O189 2.670 . S
Eu171 O190 2.394 . S
C172 C170 1.500 . S
C172 C173 1.377 . S
C172 C177 1.377 . S
C173 C172 1.377 . S
C173 C174 1.395 . S
C173 H196 0.931 . S
C174 C173 1.395 . S
C174 C175 1.383 . S
C174 H197 0.931 . S
C175 C174 1.383 . S
C175 C176 1.394 . S
C176 C175 1.394 . S
C176 C177 1.378 . S
C176 H198 0.931 . S
C177 C172 1.377 . S
C177 C176 1.378 . S
C177 H199 0.931 . S
C178 O188 1.259 . S
C178 O189 1.270 . S
C179 O190 1.251 . S
C179 O191 1.251 . S
O180 C160 1.257 . S
O180 Eu161 2.473 . S
O181 C160 1.260 . S
O181 Eu161 2.480 . S
O182 Eu161 2.430 . S
O182 C168 1.259 . S
O183 Eu161 2.670 . S
O183 C168 1.270 . S
O183 Eu171 2.355 . S
O184 Eu161 2.394 . S
O184 C169 1.251 . S
O185 C169 1.251 . S
O185 Eu171 2.374 . S
O186 C170 1.257 . S
O186 Eu171 2.473 . S
O187 C170 1.260 . S
O187 Eu171 2.480 . S
O188 Eu171 2.430 . S
O188 C178 1.259 . S
O189 Eu161 2.355 . S
O189 Eu171 2.670 . S
O189 C178 1.270 . S
O190 Eu171 2.394 . S
O190 C179 1.251 . S
O191 Eu161 2.374 . S
O191 C179 1.251 . S
H192 C163 0.931 . S
H193 C164 0.931 . S
H194 C166 0.931 . S
H195 C167 0.931 . S
H196 C173 0.931 . S
H197 C174 0.931 . S
H198 C176 0.931 . S
H199 C177 0.931 . S
C200 Eu201 2.835 . S
C200 C202 1.500 . S
C200 O220 1.257 . S
C200 O221 1.260 . S
Eu201 C200 2.835 . S
Eu201 O220 2.473 . S
Eu201 O221 2.480 . S
Eu201 O222 2.430 . S
Eu201 O223 2.670 . S
Eu201 O224 2.394 . S
Eu201 O229 2.355 . S
Eu201 O231 2.374 . S
C202 C200 1.500 . S
C202 C203 1.377 . S
C202 C207 1.377 . S
C203 C202 1.377 . S
C203 C204 1.395 . S
C203 H232 0.931 . S
C204 C203 1.395 . S
C204 C205 1.383 . S
C204 H233 0.931 . S
C205 C204 1.383 . S
C205 C206 1.394 . S
C206 C205 1.394 . S
C206 C207 1.378 . S
C206 H234 0.931 . S
C207 C202 1.377 . S
C207 C206 1.378 . S
C207 H235 0.931 . S
C208 O222 1.259 . S
C208 O223 1.270 . S
C209 O224 1.251 . S
C209 O225 1.251 . S
C210 Eu211 2.835 . S
C210 C212 1.500 . S
C210 O226 1.257 . S
C210 O227 1.260 . S
Eu211 C210 2.835 . S
Eu211 O223 2.355 . S
Eu211 O225 2.374 . S
Eu211 O226 2.473 . S
Eu211 O227 2.480 . S
Eu211 O228 2.430 . S
Eu211 O229 2.670 . S
Eu211 O230 2.394 . S
C212 C210 1.500 . S
C212 C213 1.377 . S
C212 C217 1.377 . S
C213 C212 1.377 . S
C213 C214 1.395 1_655 S
C213 H236 0.931 . S
C214 C213 1.395 1_455 S
C214 C215 1.383 . S
C214 H237 0.931 . S
C215 C214 1.383 . S
C215 C216 1.394 1_455 S
C216 C215 1.394 1_655 S
C216 C217 1.378 . S
C216 H238 0.945 . S
C217 C212 1.377 . S
C217 C216 1.378 . S
C217 H239 0.931 . S
C218 O228 1.259 . S
C218 O229 1.270 . S
C219 O230 1.251 . S
C219 O231 1.251 . S
O220 C200 1.257 . S
O220 Eu201 2.473 . S
O221 C200 1.260 . S
O221 Eu201 2.480 . S
O222 Eu201 2.430 . S
O222 C208 1.259 . S
O223 Eu201 2.670 . S
O223 C208 1.270 . S
O223 Eu211 2.355 . S
O224 Eu201 2.394 . S
O224 C209 1.251 . S
O225 C209 1.251 . S
O225 Eu211 2.374 . S
O226 C210 1.257 . S
O226 Eu211 2.473 . S
O227 C210 1.260 . S
O227 Eu211 2.480 . S
O228 Eu211 2.430 . S
O228 C218 1.259 . S
O229 Eu201 2.355 . S
O229 Eu211 2.670 . S
O229 C218 1.270 . S
O230 Eu211 2.394 . S
O230 C219 1.251 . S
O231 Eu201 2.374 . S
O231 C219 1.251 . S
H232 C203 0.931 . S
H233 C204 0.931 . S
H234 C206 0.931 . S
H235 C207 0.931 . S
H236 C213 0.931 . S
H237 C214 0.931 . S
H238 C216 0.945 . S
H239 C217 0.931 . S
C240 Eu241 2.835 . S
C240 C242 1.500 . S
C240 O260 1.257 . S
C240 O261 1.260 . S
Eu241 C240 2.835 . S
Eu241 O260 2.473 . S
Eu241 O261 2.480 . S
Eu241 O262 2.430 . S
Eu241 O263 2.670 . S
Eu241 O264 2.394 . S
Eu241 O269 2.355 . S
Eu241 O271 2.374 . S
C242 C240 1.500 . S
C242 C243 1.377 . S
C242 C247 1.377 . S
C243 C242 1.377 . S
C243 C244 1.395 . S
C243 H272 0.931 . S
C244 C243 1.395 . S
C244 C245 1.383 . S
C244 H273 0.931 . S
C245 C244 1.383 . S
C245 C246 1.394 . S
C246 C245 1.394 . S
C246 C247 1.378 . S
C246 H274 0.931 . S
C247 C242 1.377 . S
C247 C246 1.378 . S
C247 H275 0.931 . S
C248 O262 1.259 . S
C248 O263 1.270 . S
C249 O264 1.251 . S
C249 O265 1.251 . S
C250 Eu251 2.835 . S
C250 C252 1.500 . S
C250 O266 1.257 . S
C250 O267 1.260 . S
Eu251 C250 2.835 . S
Eu251 O263 2.355 . S
Eu251 O265 2.374 . S
Eu251 O266 2.473 . S
Eu251 O267 2.480 . S
Eu251 O268 2.430 . S
Eu251 O269 2.670 . S
Eu251 O270 2.394 . S
C252 C250 1.500 . S
C252 C253 1.377 . S
C252 C257 1.377 . S
C253 C252 1.377 . S
C253 C254 1.395 . S
C253 H276 0.931 . S
C254 C253 1.395 . S
C254 C255 1.383 . S
C254 H277 0.931 . S
C255 C254 1.383 . S
C255 C256 1.394 . S
C256 C255 1.394 . S
C256 C257 1.378 . S
C256 H278 0.931 . S
C257 C252 1.377 . S
C257 C256 1.378 . S
C257 H279 0.931 . S
C258 O268 1.259 . S
C258 O269 1.270 . S
C259 O270 1.251 . S
C259 O271 1.251 . S
O260 C240 1.257 . S
O260 Eu241 2.473 . S
O261 C240 1.260 . S
O261 Eu241 2.480 . S
O262 Eu241 2.430 . S
O262 C248 1.259 . S
O263 Eu241 2.670 . S
O263 C248 1.270 . S
O263 Eu251 2.355 . S
O264 Eu241 2.394 . S
O264 C249 1.251 . S
O265 C249 1.251 . S
O265 Eu251 2.374 . S
O266 C250 1.257 . S
O266 Eu251 2.473 . S
O267 C250 1.260 . S
O267 Eu251 2.480 . S
O268 Eu251 2.430 . S
O268 C258 1.259 . S
O269 Eu241 2.355 . S
O269 Eu251 2.670 . S
O269 C258 1.270 . S
O270 Eu251 2.394 . S
O270 C259 1.251 . S
O271 Eu241 2.374 . S
O271 C259 1.251 . S
H272 C243 0.931 . S
H273 C244 0.931 . S
H274 C246 0.931 . S
H275 C247 0.931 . S
H276 C253 0.931 . S
H277 C254 0.931 . S
H278 C256 0.931 . S
H279 C257 0.931 . S
C280 Eu281 2.835 . S
C280 C282 1.500 . S
C280 O300 1.257 . S
C280 O301 1.260 . S
Eu281 C280 2.835 . S
Eu281 O300 2.473 . S
Eu281 O301 2.480 . S
Eu281 O302 2.430 . S
Eu281 O303 2.670 . S
Eu281 O304 2.394 . S
Eu281 O309 2.355 . S
Eu281 O311 2.374 . S
C282 C280 1.500 . S
C282 C283 1.377 . S
C282 C287 1.377 . S
C283 C282 1.377 . S
C283 C284 1.395 . S
C283 H312 0.931 . S
C284 C283 1.395 . S
C284 C285 1.383 . S
C284 H313 0.931 . S
C285 C284 1.383 . S
C285 C286 1.394 . S
C286 C285 1.394 . S
C286 C287 1.378 . S
C286 H314 0.931 . S
C287 C282 1.377 . S
C287 C286 1.378 . S
C287 H315 0.931 . S
C288 O302 1.259 . S
C288 O303 1.270 . S
C289 O304 1.251 . S
C289 O305 1.251 . S
C290 Eu291 2.835 . S
C290 C292 1.500 . S
C290 O306 1.257 . S
C290 O307 1.260 . S
Eu291 C290 2.835 . S
Eu291 O303 2.355 . S
Eu291 O305 2.374 . S
Eu291 O306 2.473 . S
Eu291 O307 2.480 . S
Eu291 O308 2.430 . S
Eu291 O309 2.670 . S
Eu291 O310 2.394 . S
C292 C290 1.500 . S
C292 C293 1.377 . S
C292 C297 1.377 . S
C293 C292 1.377 . S
C293 C294 1.395 . S
C293 H316 0.931 . S
C294 C293 1.395 . S
C294 C295 1.383 . S
C294 H317 0.931 . S
C295 C294 1.383 . S
C295 C296 1.394 . S
C296 C295 1.394 . S
C296 C297 1.378 . S
C296 H318 0.931 . S
C297 C292 1.377 . S
C297 C296 1.378 . S
C297 H319 0.931 . S
C298 O308 1.259 . S
C298 O309 1.270 . S
C299 O310 1.251 . S
C299 O311 1.251 . S
O300 C280 1.257 . S
O300 Eu281 2.473 . S
O301 C280 1.260 . S
O301 Eu281 2.480 . S
O302 Eu281 2.430 . S
O302 C288 1.259 . S
O303 Eu281 2.670 . S
O303 C288 1.270 . S
O303 Eu291 2.355 . S
O304 Eu281 2.394 . S
O304 C289 1.251 . S
O305 C289 1.251 . S
O305 Eu291 2.374 . S
O306 C290 1.257 . S
O306 Eu291 2.473 . S
O307 C290 1.260 . S
O307 Eu291 2.480 . S
O308 Eu291 2.430 . S
O308 C298 1.259 . S
O309 Eu281 2.355 . S
O309 Eu291 2.670 . S
O309 C298 1.270 . S
O310 Eu291 2.394 . S
O310 C299 1.251 . S
O311 Eu281 2.374 . S
O311 C299 1.251 . S
H312 C283 0.931 . S
H313 C284 0.931 . S
H314 C286 0.931 . S
H315 C287 0.931 . S
H316 C293 0.931 . S
H317 C294 0.931 . S
H318 C296 0.931 . S
H319 C297 0.931 . S
C320 Eu321 2.835 . S
C320 C322 1.500 . S
C320 O340 1.257 . S
C320 O341 1.260 . S
Eu321 C320 2.835 . S
Eu321 O340 2.473 . S
Eu321 O341 2.480 . S
Eu321 O342 2.430 . S
Eu321 O343 2.670 . S
Eu321 O344 2.394 . S
Eu321 O349 2.355 . S
Eu321 O351 2.374 . S
C322 C320 1.500 . S
C322 C323 1.377 . S
C322 C327 1.377 . S
C323 C322 1.377 . S
C323 C324 1.395 . S
C323 H352 0.931 . S
C324 C323 1.395 . S
C324 C325 1.383 . S
C324 H353 0.931 . S
C325 C324 1.383 . S
C325 C326 1.394 . S
C326 C325 1.394 . S
C326 C327 1.378 . S
C326 H354 0.931 . S
C327 C322 1.377 . S
C327 C326 1.378 . S
C327 H355 0.931 . S
C328 O342 1.259 . S
C328 O343 1.270 . S
C329 O344 1.251 . S
C329 O345 1.251 . S
C330 Eu331 2.835 . S
C330 C332 1.500 . S
C330 O346 1.257 . S
C330 O347 1.260 . S
Eu331 C330 2.835 . S
Eu331 O343 2.355 . S
Eu331 O345 2.374 . S
Eu331 O346 2.473 . S
Eu331 O347 2.480 . S
Eu331 O348 2.430 . S
Eu331 O349 2.670 . S
Eu331 O350 2.394 . S
C332 C330 1.500 . S
C332 C333 1.377 . S
C332 C337 1.377 . S
C333 C332 1.377 . S
C333 C334 1.395 . S
C333 H356 0.931 . S
C334 C333 1.395 . S
C334 C335 1.383 . S
C334 H357 0.931 . S
C335 C334 1.383 . S
C335 C336 1.394 . S
C336 C335 1.394 . S
C336 C337 1.378 . S
C336 H358 0.931 . S
C337 C332 1.377 . S
C337 C336 1.378 . S
C337 H359 0.931 . S
C338 O348 1.259 . S
C338 O349 1.270 . S
C339 O350 1.251 . S
C339 O351 1.251 . S
O340 C320 1.257 . S
O340 Eu321 2.473 . S
O341 C320 1.260 . S
O341 Eu321 2.480 . S
O342 Eu321 2.430 . S
O342 C328 1.259 . S
O343 Eu321 2.670 . S
O343 C328 1.270 . S
O343 Eu331 2.355 . S
O344 Eu321 2.394 . S
O344 C329 1.251 . S
O345 C329 1.251 . S
O345 Eu331 2.374 . S
O346 C330 1.257 . S
O346 Eu331 2.473 . S
O347 C330 1.260 . S
O347 Eu331 2.480 . S
O348 Eu331 2.430 . S
O348 C338 1.259 . S
O349 Eu321 2.355 . S
O349 Eu331 2.670 . S
O349 C338 1.270 . S
O350 Eu331 2.394 . S
O350 C339 1.251 . S
O351 Eu321 2.374 . S
O351 C339 1.251 . S
H352 C323 0.931 . S
H353 C324 0.931 . S
H354 C326 0.931 . S
H355 C327 0.931 . S
H356 C333 0.931 . S
H357 C334 0.931 . S
H358 C336 0.931 . S
H359 C337 0.931 . S
C360 C361 1.387 . S
C360 H364 0.950 1_556 S
C360 C369 1.390 . S
C361 C360 1.387 . S
C361 C363 1.387 . S
H362 C369 0.950 . S
C363 C361 1.387 . S
C363 C365 1.390 . S
C363 H367 0.950 . S
H364 C360 0.950 1_554 S
C365 C363 1.390 . S
C365 C366 1.387 . S
C365 H368 0.950 . S
C366 C365 1.387 . S
C366 C369 1.387 . S
H367 C363 0.950 . S
H368 C365 0.950 . S
C369 C360 1.390 . S
C369 H362 0.950 . S
C369 C366 1.387 . S
C370 C371 1.387 . S
C370 H374 0.950 . S
C370 C379 1.390 . S
C371 C370 1.387 . S
C371 C373 1.387 . S
H372 C379 0.950 . S
C373 C371 1.387 . S
C373 C375 1.390 . S
C373 H377 0.950 1_556 S
H374 C370 0.950 . S
C375 C373 1.390 . S
C375 C376 1.387 . S
C375 H378 0.950 . S
C376 C375 1.387 . S
C376 C379 1.387 . S
H377 C373 0.950 1_554 S
H378 C375 0.950 . S
C379 C370 1.390 . S
C379 H372 0.950 . S
C379 C376 1.387 . S
C380 C381 1.387 . S
C380 H384 0.950 . S
C380 C389 1.390 . S
C381 C380 1.387 . S
C381 C383 1.387 1_556 S
H382 C389 0.950 . S
C383 C381 1.387 1_554 S
C383 C385 1.390 1_554 S
C383 H387 0.950 . S
H384 C380 0.950 . S
C385 C383 1.390 1_556 S
C385 C386 1.387 . S
C385 H388 0.950 . S
C386 C385 1.387 . S
C386 C389 1.387 . S
H387 C383 0.950 . S
H388 C385 0.950 . S
C389 C380 1.390 . S
C389 H382 0.950 . S
C389 C386 1.387 . S
C390 C391 1.387 . S
C390 H394 0.950 . S
C390 C399 1.390 . S
C391 C390 1.387 . S
C391 C393 1.387 . S
H392 C399 0.950 . S
C393 C391 1.387 . S
C393 C395 1.390 . S
C393 H397 0.950 . S
H394 C390 0.950 . S
C395 C393 1.390 . S
C395 C396 1.387 . S
C395 H398 0.950 . S
C396 C395 1.387 . S
C396 C399 1.387 . S
H397 C393 0.950 . S
H398 C395 0.950 . S
C399 C390 1.390 . S
C399 H392 0.950 . S
C399 C396 1.387 . S
C400 C401 1.387 . S
C400 H404 0.950 . S
C400 C409 1.390 . S
C401 C400 1.387 . S
C401 C403 1.387 . S
H402 C409 0.950 . S
C403 C401 1.387 . S
C403 C405 1.390 . S
C403 H407 0.950 . S
H404 C400 0.950 . S
C405 C403 1.390 . S
C405 C406 1.387 . S
C405 H408 0.950 1_554 S
C406 C405 1.387 . S
C406 C409 1.387 . S
H407 C403 0.950 . S
H408 C405 0.950 1_556 S
C409 C400 1.390 . S
C409 H402 0.950 . S
C409 C406 1.387 . S
C410 C411 1.387 . S
C410 H414 0.950 . S
C410 C419 1.390 . S
C411 C410 1.387 . S
C411 C413 1.387 . S
H412 C419 0.950 . S
C413 C411 1.387 . S
C413 C415 1.390 . S
C413 H417 0.950 . S
H414 C410 0.950 . S
C415 C413 1.390 . S
C415 C416 1.387 . S
C415 H418 0.950 . S
C416 C415 1.387 . S
C416 C419 1.387 . S
H417 C413 0.950 . S
H418 C415 0.950 . S
C419 C410 1.390 . S
C419 H412 0.950 . S
C419 C416 1.387 . S
C420 C421 1.387 . S
C420 H424 0.950 . S
C420 C429 1.390 . S
C421 C420 1.387 . S
C421 C423 1.387 . S
H422 C429 0.950 . S
C423 C421 1.387 . S
C423 C425 1.390 . S
C423 H427 0.950 . S
H424 C420 0.950 . S
C425 C423 1.390 . S
C425 C426 1.387 . S
C425 H428 0.950 . S
C426 C425 1.387 . S
C426 C429 1.387 . S
H427 C423 0.950 . S
H428 C425 0.950 . S
C429 C420 1.390 . S
C429 H422 0.950 . S
C429 C426 1.387 . S
C430 C431 1.387 . S
C430 H434 0.950 . S
C430 C439 1.390 . S
C431 C430 1.387 . S
C431 C433 1.387 . S
H432 C439 0.950 . S
C433 C431 1.387 . S
C433 C435 1.390 . S
C433 H437 0.950 . S
H434 C430 0.950 . S
C435 C433 1.390 . S
C435 C436 1.387 . S
C435 H438 0.950 . S
C436 C435 1.387 . S
C436 C439 1.387 . S
H437 C433 0.950 . S
H438 C435 0.950 . S
C439 C430 1.390 . S
C439 H432 0.950 . S
C439 C436 1.387 . S
C440 C441 1.387 . S
C440 H444 0.950 . S
C440 C449 1.390 . S
C441 C440 1.387 . S
C441 C443 1.387 . S
H442 C449 0.950 . S
C443 C441 1.387 . S
C443 C445 1.390 . S
C443 H447 0.950 . S
H444 C440 0.950 . S
C445 C443 1.390 . S
C445 C446 1.387 . S
C445 H448 0.950 . S
C446 C445 1.387 . S
C446 C449 1.387 . S
H447 C443 0.950 . S
H448 C445 0.950 . S
C449 C440 1.390 . S
C449 H442 0.950 . S
C449 C446 1.387 . S
C450 C451 1.387 . S
C450 H454 0.950 . S
C450 C459 1.390 . S
C451 C450 1.387 . S
C451 C453 1.387 1_554 S
H452 C459 0.950 . S
C453 C451 1.387 1_556 S
C453 C455 1.390 . S
C453 H457 0.950 . S
H454 C450 0.950 . S
C455 C453 1.390 . S
C455 C456 1.387 . S
C455 H458 0.950 . S
C456 C455 1.387 . S
C456 C459 1.387 1_556 S
H457 C453 0.950 . S
H458 C455 0.950 . S
C459 C450 1.390 . S
C459 H452 0.950 . S
C459 C456 1.387 1_554 S
C460 C461 1.387 . S
C460 H464 0.950 . S
C460 C469 1.390 . S
C461 C460 1.387 . S
C461 C463 1.387 . S
H462 C469 0.950 1_455 S
C463 C461 1.387 . S
C463 C465 1.390 . S
C463 H467 0.950 . S
H464 C460 0.950 . S
C465 C463 1.390 . S
C465 C466 1.387 1_556 S
C465 H468 0.950 1_556 S
C466 C465 1.387 1_554 S
C466 C469 1.387 1_554 S
H467 C463 0.950 . S
H468 C465 0.950 1_554 S
C469 C460 1.390 . S
C469 H462 0.950 1_655 S
C469 C466 1.387 1_556 S
C470 C471 1.387 . S
C470 H474 0.950 . S
C470 C479 1.390 . S
C471 C470 1.387 . S
C471 C473 1.387 1_554 S
H472 C479 0.950 . S
C473 C471 1.387 1_556 S
C473 C475 1.390 . S
C473 H477 0.950 . S
H474 C470 0.950 . S
C475 C473 1.390 . S
C475 C476 1.387 . S
C475 H478 0.950 . S
C476 C475 1.387 . S
C476 C479 1.387 1_556 S
H477 C473 0.950 . S
H478 C475 0.950 . S
C479 C470 1.390 . S
C479 H472 0.950 . S
C479 C476 1.387 1_554 S
C480 C481 1.387 . S
C480 H484 0.950 . S
C480 C489 1.390 . S
C481 C480 1.387 . S
C481 C483 1.387 . S
H482 C489 0.950 . S
C483 C481 1.387 . S
C483 C485 1.390 . S
C483 H487 0.950 . S
H484 C480 0.950 . S
C485 C483 1.390 . S
C485 C486 1.387 . S
C485 H488 0.950 . S
C486 C485 1.387 . S
C486 C489 1.387 . S
H487 C483 0.950 . S
H488 C485 0.950 . S
C489 C480 1.390 . S
C489 H482 0.950 . S
C489 C486 1.387 . S
C490 C491 1.387 . S
C490 H494 0.950 . S
C490 C499 1.390 . S
C491 C490 1.387 . S
C491 C493 1.387 . S
H492 C499 0.950 . S
C493 C491 1.387 . S
C493 C495 1.390 . S
C493 H497 0.950 . S
H494 C490 0.950 . S
C495 C493 1.390 . S
C495 C496 1.387 . S
C495 H498 0.950 . S
C496 C495 1.387 . S
C496 C499 1.387 . S
H497 C493 0.950 . S
H498 C495 0.950 . S
C499 C490 1.390 . S
C499 H492 0.950 . S
C499 C496 1.387 . S
C500 C501 1.387 . S
C500 H504 0.950 . S
C500 C509 1.390 . S
C501 C500 1.387 . S
C501 C503 1.387 . S
H502 C509 0.950 . S
C503 C501 1.387 . S
C503 C505 1.390 . S
C503 H507 0.950 . S
H504 C500 0.950 . S
C505 C503 1.390 . S
C505 C506 1.387 . S
C505 H508 0.950 . S
C506 C505 1.387 . S
C506 C509 1.387 . S
H507 C503 0.950 . S
H508 C505 0.950 . S
C509 C500 1.390 . S
C509 H502 0.950 . S
C509 C506 1.387 . S
C510 C511 1.387 . S
C510 H514 0.950 . S
C510 C519 1.390 . S
C511 C510 1.387 . S
C511 C513 1.387 . S
H512 C519 0.950 . S
C513 C511 1.387 . S
C513 C515 1.390 . S
C513 H517 0.950 . S
H514 C510 0.950 . S
C515 C513 1.390 . S
C515 C516 1.387 . S
C515 H518 0.950 . S
C516 C515 1.387 . S
C516 C519 1.387 . S
H517 C513 0.950 . S
H518 C515 0.950 . S
C519 C510 1.390 . S
C519 H512 0.950 . S
C519 C516 1.387 . S
C520 C521 1.387 . S
C520 H524 0.950 . S
C520 C529 1.390 . S
C521 C520 1.387 . S
C521 C523 1.387 . S
H522 C529 0.950 . S
C523 C521 1.387 . S
C523 C525 1.390 . S
C523 H527 0.950 . S
H524 C520 0.950 . S
C525 C523 1.390 . S
C525 C526 1.387 . S
C525 H528 0.950 . S
C526 C525 1.387 . S
C526 C529 1.387 . S
H527 C523 0.950 . S
H528 C525 0.950 . S
C529 C520 1.390 . S
C529 H522 0.950 . S
C529 C526 1.387 . S
C530 C531 1.387 . S
C530 H534 0.950 . S
C530 C539 1.390 . S
C531 C530 1.387 . S
C531 C533 1.387 . S
H532 C539 0.950 . S
C533 C531 1.387 . S
C533 C535 1.390 . S
C533 H537 0.950 . S
H534 C530 0.950 . S
C535 C533 1.390 . S
C535 C536 1.387 . S
C535 H538 0.950 . S
C536 C535 1.387 . S
C536 C539 1.387 . S
H537 C533 0.950 . S
H538 C535 0.950 . S
C539 C530 1.390 . S
C539 H532 0.950 . S
C539 C536 1.387 . S
C540 C541 1.387 1_655 S
C540 H544 0.950 . S
C540 C549 1.390 . S
C541 C540 1.387 1_455 S
C541 C543 1.387 . S
H542 C549 0.950 . S
C543 C541 1.387 . S
C543 C545 1.390 . S
C543 H547 0.950 . S
H544 C540 0.950 . S
C545 C543 1.390 . S
C545 C546 1.387 . S
C545 H548 0.950 . S
C546 C545 1.387 . S
C546 C549 1.387 1_455 S
H547 C543 0.950 . S
H548 C545 0.950 . S
C549 C540 1.390 . S
C549 H542 0.950 . S
C549 C546 1.387 1_655 S
C550 C551 1.387 . S
C550 H554 0.950 . S
C550 C559 1.390 . S
C551 C550 1.387 . S
C551 C553 1.387 . S
H552 C559 0.950 . S
C553 C551 1.387 . S
C553 C555 1.390 . S
C553 H557 0.950 . S
H554 C550 0.950 . S
C555 C553 1.390 . S
C555 C556 1.387 . S
C555 H558 0.950 . S
C556 C555 1.387 . S
C556 C559 1.387 . S
H557 C553 0.950 . S
H558 C555 0.950 . S
C559 C550 1.390 . S
C559 H552 0.950 . S
C559 C556 1.387 . S
C560 C561 1.387 . S
C560 H564 0.950 . S
C560 C569 1.390 . S
C561 C560 1.387 . S
C561 C563 1.387 1_545 S
H562 C569 0.950 . S
C563 C561 1.387 1_565 S
C563 C565 1.390 . S
C563 H567 0.950 . S
H564 C560 0.950 . S
C565 C563 1.390 . S
C565 C566 1.387 1_565 S
C565 H568 0.950 . S
C566 C565 1.387 1_545 S
C566 C569 1.387 . S
H567 C563 0.950 . S
H568 C565 0.950 . S
C569 C560 1.390 . S
C569 H562 0.950 . S
C569 C566 1.387 . S
C570 C571 1.387 . S
C570 H574 0.950 . S
C570 C579 1.390 . S
C571 C570 1.387 . S
C571 C573 1.387 . S
H572 C579 0.950 . S
C573 C571 1.387 . S
C573 C575 1.390 . S
C573 H577 0.950 . S
H574 C570 0.950 . S
C575 C573 1.390 . S
C575 C576 1.387 . S
C575 H578 0.950 . S
C576 C575 1.387 . S
C576 C579 1.387 . S
H577 C573 0.950 . S
H578 C575 0.950 . S
C579 C570 1.390 . S
C579 H572 0.950 . S
C579 C576 1.387 . S
C580 C581 1.387 . S
C580 H584 0.950 . S
C580 C589 1.390 . S
C581 C580 1.387 . S
C581 C583 1.387 . S
H582 C589 0.950 . S
C583 C581 1.387 . S
C583 C585 1.390 . S
C583 H587 0.950 . S
H584 C580 0.950 . S
C585 C583 1.390 . S
C585 C586 1.387 . S
C585 H588 0.950 . S
C586 C585 1.387 . S
C586 C589 1.387 . S
H587 C583 0.950 . S
H588 C585 0.950 . S
C589 C580 1.390 . S
C589 H582 0.950 . S
C589 C586 1.387 . S
C590 C591 1.387 . S
C590 H594 0.950 . S
C590 C599 1.390 . S
C591 C590 1.387 . S
C591 C593 1.387 . S
H592 C599 0.950 . S
C593 C591 1.387 . S
C593 C595 1.390 . S
C593 H597 0.950 . S
H594 C590 0.950 . S
C595 C593 1.390 . S
C595 C596 1.387 . S
C595 H598 0.950 . S
C596 C595 1.387 . S
C596 C599 1.387 . S
H597 C593 0.950 . S
H598 C595 0.950 . S
C599 C590 1.390 . S
C599 H592 0.950 . S
C599 C596 1.387 . S
C600 C601 1.387 . S
C600 H604 0.950 . S
C600 C609 1.390 . S
C601 C600 1.387 . S
C601 C603 1.387 . S
H602 C609 0.950 . S
C603 C601 1.387 . S
C603 C605 1.390 . S
C603 H607 0.950 . S
H604 C600 0.950 . S
C605 C603 1.390 . S
C605 C606 1.387 . S
C605 H608 0.950 . S
C606 C605 1.387 . S
C606 C609 1.387 . S
H607 C603 0.950 . S
H608 C605 0.950 . S
C609 C600 1.390 . S
C609 H602 0.950 . S
C609 C606 1.387 . S
C610 C611 1.387 . S
C610 H614 0.950 . S
C610 C619 1.390 . S
C611 C610 1.387 . S
C611 C613 1.387 . S
H612 C619 0.950 . S
C613 C611 1.387 . S
C613 C615 1.390 . S
C613 H617 0.950 . S
H614 C610 0.950 . S
C615 C613 1.390 . S
C615 C616 1.387 . S
C615 H618 0.950 . S
C616 C615 1.387 . S
C616 C619 1.387 . S
H617 C613 0.950 . S
H618 C615 0.950 . S
C619 C610 1.390 . S
C619 H612 0.950 . S
C619 C616 1.387 . S
C620 C621 1.387 . S
C620 H624 0.950 . S
C620 C629 1.390 . S
C621 C620 1.387 . S
C621 C623 1.387 . S
H622 C629 0.950 . S
C623 C621 1.387 . S
C623 C625 1.390 . S
C623 H627 0.950 . S
H624 C620 0.950 . S
C625 C623 1.390 . S
C625 C626 1.387 . S
C625 H628 0.950 . S
C626 C625 1.387 . S
C626 C629 1.387 . S
H627 C623 0.950 . S
H628 C625 0.950 . S
C629 C620 1.390 . S
C629 H622 0.950 . S
C629 C626 1.387 . S
C361 C19 1.684 . S
C366 C295 1.752 . S
C371 C59 1.687 . S
C376 C335 1.754 . S
C381 C99 1.685 . S
C386 C255 1.753 . S
C391 C179 1.684 . S
C396 C95 1.753 . S
C401 C219 1.686 . S
C406 C15 1.753 . S
C411 C55 1.753 . S
C416 C139 1.684 . S
C421 C299 1.684 . S
C426 C215 1.753 . S
C431 C339 1.687 . S
C436 C135 1.754 . S
C441 C175 1.753 1_565 S
C446 C259 1.684 . S
C451 C89 1.699 . S
C456 C5 1.663 . S
C461 C45 1.662 . S
C466 C9 1.698 . S
C471 C49 1.699 . S
C476 C85 1.662 1_655 S
C481 C125 1.662 . S
C486 C209 1.698 . S
C491 C129 1.699 . S
C496 C165 1.664 . S
C501 C169 1.699 . S
C506 C205 1.662 . S
C511 C329 1.698 . S
C516 C245 1.662 . S
C521 C285 1.662 . S
C526 C249 1.698 . S
C531 C325 1.662 . S
C536 C289 1.699 . S
C541 C18 1.209 . S
C546 C8 1.209 . S
C551 C58 1.208 . S
C556 C48 1.208 . S
C561 C98 1.210 . S
C566 C88 1.210 . S
C571 C128 1.208 . S
C576 C138 1.208 1_556 S
C581 C168 1.208 . S
C586 C178 1.208 1_556 S
C591 C208 1.210 . S
C596 C218 1.210 1_556 S
C601 C258 1.209 . S
C606 C248 1.209 1_554 S
C611 C288 1.208 1_554 S
C616 C298 1.208 . S
C621 C338 1.210 . S
C626 C328 1.210 1_554 S
