# Generated by pormake.
# Topology lcs-e, (6)-cn, num edge types: 1
# Building blocks:
#     Node 0, Type 0, BuildingBlock: LEVNOQ01_clean_sbu_1, # of connection points: 6
#     Node 1, Type 0, BuildingBlock: LEVNOQ01_clean_sbu_1, # of connection points: 6
#     Node 2, Type 0, BuildingBlock: LEVNOQ01_clean_sbu_1, # of connection points: 6
#     Node 3, Type 0, BuildingBlock: LEVNOQ01_clean_sbu_1, # of connection points: 6
#     Node 4, Type 0, BuildingBlock: LEVNOQ01_clean_sbu_1, # of connection points: 6
#     Node 5, Type 0, BuildingBlock: LEVNOQ01_clean_sbu_1, # of connection points: 6
#     Node 6, Type 0, BuildingBlock: LEVNOQ01_clean_sbu_1, # of connection points: 6
#     Node 7, Type 0, BuildingBlock: LEVNOQ01_clean_sbu_1, # of connection points: 6
#     Node 8, Type 0, BuildingBlock: LEVNOQ01_clean_sbu_1, # of connection points: 6
#     Node 9, Type 0, BuildingBlock: LEVNOQ01_clean_sbu_1, # of connection points: 6
#     Node 10, Type 0, BuildingBlock: LEVNOQ01_clean_sbu_1, # of connection points: 6
#     Node 11, Type 0, BuildingBlock: LEVNOQ01_clean_sbu_1, # of connection points: 6
#     Node 12, Type 0, BuildingBlock: LEVNOQ01_clean_sbu_1, # of connection points: 6
#     Node 13, Type 0, BuildingBlock: LEVNOQ01_clean_sbu_1, # of connection points: 6
#     Node 14, Type 0, BuildingBlock: LEVNOQ01_clean_sbu_1, # of connection points: 6
#     Node 15, Type 0, BuildingBlock: LEVNOQ01_clean_sbu_1, # of connection points: 6
#     Node 16, Type 0, BuildingBlock: LEVNOQ01_clean_sbu_1, # of connection points: 6
#     Node 17, Type 0, BuildingBlock: LEVNOQ01_clean_sbu_1, # of connection points: 6
#     Node 18, Type 0, BuildingBlock: LEVNOQ01_clean_sbu_1, # of connection points: 6
#     Node 19, Type 0, BuildingBlock: LEVNOQ01_clean_sbu_1, # of connection points: 6
#     Node 20, Type 0, BuildingBlock: LEVNOQ01_clean_sbu_1, # of connection points: 6
#     Node 21, Type 0, BuildingBlock: LEVNOQ01_clean_sbu_1, # of connection points: 6
#     Node 22, Type 0, BuildingBlock: LEVNOQ01_clean_sbu_1, # of connection points: 6
#     Node 23, Type 0, BuildingBlock: LEVNOQ01_clean_sbu_1, # of connection points: 6
#     Node 24, Type 0, BuildingBlock: LEVNOQ01_clean_sbu_1, # of connection points: 6
#     Node 25, Type 0, BuildingBlock: LEVNOQ01_clean_sbu_1, # of connection points: 6
#     Node 26, Type 0, BuildingBlock: LEVNOQ01_clean_sbu_1, # of connection points: 6
#     Node 27, Type 0, BuildingBlock: LEVNOQ01_clean_sbu_1, # of connection points: 6
#     Node 28, Type 0, BuildingBlock: LEVNOQ01_clean_sbu_1, # of connection points: 6
#     Node 29, Type 0, BuildingBlock: LEVNOQ01_clean_sbu_1, # of connection points: 6
#     Node 30, Type 0, BuildingBlock: LEVNOQ01_clean_sbu_1, # of connection points: 6
#     Node 31, Type 0, BuildingBlock: LEVNOQ01_clean_sbu_1, # of connection points: 6
#     Node 32, Type 0, BuildingBlock: LEVNOQ01_clean_sbu_1, # of connection points: 6
#     Node 33, Type 0, BuildingBlock: LEVNOQ01_clean_sbu_1, # of connection points: 6
#     Node 34, Type 0, BuildingBlock: LEVNOQ01_clean_sbu_1, # of connection points: 6
#     Node 35, Type 0, BuildingBlock: LEVNOQ01_clean_sbu_1, # of connection points: 6
#     Node 36, Type 0, BuildingBlock: LEVNOQ01_clean_sbu_1, # of connection points: 6
#     Node 37, Type 0, BuildingBlock: LEVNOQ01_clean_sbu_1, # of connection points: 6
#     Node 38, Type 0, BuildingBlock: LEVNOQ01_clean_sbu_1, # of connection points: 6
#     Node 39, Type 0, BuildingBlock: LEVNOQ01_clean_sbu_1, # of connection points: 6
#     Node 40, Type 0, BuildingBlock: LEVNOQ01_clean_sbu_1, # of connection points: 6
#     Node 41, Type 0, BuildingBlock: LEVNOQ01_clean_sbu_1, # of connection points: 6
#     Node 42, Type 0, BuildingBlock: LEVNOQ01_clean_sbu_1, # of connection points: 6
#     Node 43, Type 0, BuildingBlock: LEVNOQ01_clean_sbu_1, # of connection points: 6
#     Node 44, Type 0, BuildingBlock: LEVNOQ01_clean_sbu_1, # of connection points: 6
#     Node 45, Type 0, BuildingBlock: LEVNOQ01_clean_sbu_1, # of connection points: 6
#     Node 46, Type 0, BuildingBlock: LEVNOQ01_clean_sbu_1, # of connection points: 6
#     Node 47, Type 0, BuildingBlock: LEVNOQ01_clean_sbu_1, # of connection points: 6
#     Edge 48, Type (0, 0), None
#     Edge 49, Type (0, 0), None
#     Edge 50, Type (0, 0), None
#     Edge 51, Type (0, 0), None
#     Edge 52, Type (0, 0), None
#     Edge 53, Type (0, 0), None
#     Edge 54, Type (0, 0), None
#     Edge 55, Type (0, 0), None
#     Edge 56, Type (0, 0), None
#     Edge 57, Type (0, 0), None
#     Edge 58, Type (0, 0), None
#     Edge 59, Type (0, 0), None
#     Edge 60, Type (0, 0), None
#     Edge 61, Type (0, 0), None
#     Edge 62, Type (0, 0), None
#     Edge 63, Type (0, 0), None
#     Edge 64, Type (0, 0), None
#     Edge 65, Type (0, 0), None
#     Edge 66, Type (0, 0), None
#     Edge 67, Type (0, 0), None
#     Edge 68, Type (0, 0), None
#     Edge 69, Type (0, 0), None
#     Edge 70, Type (0, 0), None
#     Edge 71, Type (0, 0), None
#     Edge 72, Type (0, 0), None
#     Edge 73, Type (0, 0), None
#     Edge 74, Type (0, 0), None
#     Edge 75, Type (0, 0), None
#     Edge 76, Type (0, 0), None
#     Edge 77, Type (0, 0), None
#     Edge 78, Type (0, 0), None
#     Edge 79, Type (0, 0), None
#     Edge 80, Type (0, 0), None
#     Edge 81, Type (0, 0), None
#     Edge 82, Type (0, 0), None
#     Edge 83, Type (0, 0), None
#     Edge 84, Type (0, 0), None
#     Edge 85, Type (0, 0), None
#     Edge 86, Type (0, 0), None
#     Edge 87, Type (0, 0), None
#     Edge 88, Type (0, 0), None
#     Edge 89, Type (0, 0), None
#     Edge 90, Type (0, 0), None
#     Edge 91, Type (0, 0), None
#     Edge 92, Type (0, 0), None
#     Edge 93, Type (0, 0), None
#     Edge 94, Type (0, 0), None
#     Edge 95, Type (0, 0), None
#     Edge 96, Type (0, 0), None
#     Edge 97, Type (0, 0), None
#     Edge 98, Type (0, 0), None
#     Edge 99, Type (0, 0), None
#     Edge 100, Type (0, 0), None
#     Edge 101, Type (0, 0), None
#     Edge 102, Type (0, 0), None
#     Edge 103, Type (0, 0), None
#     Edge 104, Type (0, 0), None
#     Edge 105, Type (0, 0), None
#     Edge 106, Type (0, 0), None
#     Edge 107, Type (0, 0), None
#     Edge 108, Type (0, 0), None
#     Edge 109, Type (0, 0), None
#     Edge 110, Type (0, 0), None
#     Edge 111, Type (0, 0), None
#     Edge 112, Type (0, 0), None
#     Edge 113, Type (0, 0), None
#     Edge 114, Type (0, 0), None
#     Edge 115, Type (0, 0), None
#     Edge 116, Type (0, 0), None
#     Edge 117, Type (0, 0), None
#     Edge 118, Type (0, 0), None
#     Edge 119, Type (0, 0), None
#     Edge 120, Type (0, 0), None
#     Edge 121, Type (0, 0), None
#     Edge 122, Type (0, 0), None
#     Edge 123, Type (0, 0), None
#     Edge 124, Type (0, 0), None
#     Edge 125, Type (0, 0), None
#     Edge 126, Type (0, 0), None
#     Edge 127, Type (0, 0), None
#     Edge 128, Type (0, 0), None
#     Edge 129, Type (0, 0), None
#     Edge 130, Type (0, 0), None
#     Edge 131, Type (0, 0), None
#     Edge 132, Type (0, 0), None
#     Edge 133, Type (0, 0), None
#     Edge 134, Type (0, 0), None
#     Edge 135, Type (0, 0), None
#     Edge 136, Type (0, 0), None
#     Edge 137, Type (0, 0), None
#     Edge 138, Type (0, 0), None
#     Edge 139, Type (0, 0), None
#     Edge 140, Type (0, 0), None
#     Edge 141, Type (0, 0), None
#     Edge 142, Type (0, 0), None
#     Edge 143, Type (0, 0), None
#     Edge 144, Type (0, 0), None
#     Edge 145, Type (0, 0), None
#     Edge 146, Type (0, 0), None
#     Edge 147, Type (0, 0), None
#     Edge 148, Type (0, 0), None
#     Edge 149, Type (0, 0), None
#     Edge 150, Type (0, 0), None
#     Edge 151, Type (0, 0), None
#     Edge 152, Type (0, 0), None
#     Edge 153, Type (0, 0), None
#     Edge 154, Type (0, 0), None
#     Edge 155, Type (0, 0), None
#     Edge 156, Type (0, 0), None
#     Edge 157, Type (0, 0), None
#     Edge 158, Type (0, 0), None
#     Edge 159, Type (0, 0), None
#     Edge 160, Type (0, 0), None
#     Edge 161, Type (0, 0), None
#     Edge 162, Type (0, 0), None
#     Edge 163, Type (0, 0), None
#     Edge 164, Type (0, 0), None
#     Edge 165, Type (0, 0), None
#     Edge 166, Type (0, 0), None
#     Edge 167, Type (0, 0), None
#     Edge 168, Type (0, 0), None
#     Edge 169, Type (0, 0), None
#     Edge 170, Type (0, 0), None
#     Edge 171, Type (0, 0), None
#     Edge 172, Type (0, 0), None
#     Edge 173, Type (0, 0), None
#     Edge 174, Type (0, 0), None
#     Edge 175, Type (0, 0), None
#     Edge 176, Type (0, 0), None
#     Edge 177, Type (0, 0), None
#     Edge 178, Type (0, 0), None
#     Edge 179, Type (0, 0), None
#     Edge 180, Type (0, 0), None
#     Edge 181, Type (0, 0), None
#     Edge 182, Type (0, 0), None
#     Edge 183, Type (0, 0), None
#     Edge 184, Type (0, 0), None
#     Edge 185, Type (0, 0), None
#     Edge 186, Type (0, 0), None
#     Edge 187, Type (0, 0), None
#     Edge 188, Type (0, 0), None
#     Edge 189, Type (0, 0), None
#     Edge 190, Type (0, 0), None
#     Edge 191, Type (0, 0), None
# Relax obj value: 0.368
# Max RMSD: 0.255
# Mean RMSD: 0.255
data_MOF--net-lcs-e--node1-LEVNOQ01_clean_sbu_1--edge1-none
_symmetry_space_group_name_H-M    P1
_symmetry_Int_Tables_number       1
_symmetry_cell_setting            triclinic
loop_
_symmetry_equiv_pos_as_xyz
'x, y, z'
_cell_length_a     27.325721
_cell_length_b     27.179484
_cell_length_c     27.255525
_cell_angle_alpha  89.540021
_cell_angle_beta   90.099873
_cell_angle_gamma 90.077282
loop_
_atom_site_label
_atom_site_type_symbol
_atom_site_fract_x
_atom_site_fract_y
_atom_site_fract_z
_atom_type_partial_charge
O0 O 0.93313 0.47265 0.30296 0.0
Mg1 Mg -0.01496 0.44871 0.35401 0.0
O2 O 0.96255 0.42245 0.24528 0.0
Mg3 Mg 0.01408 0.35623 0.27688 0.0
O4 O -0.01385 0.37189 0.35433 0.0
O5 O 0.96578 0.41403 0.42017 0.0
O6 O 0.06707 0.29958 0.30502 0.0
O7 O 0.96541 0.28303 0.27501 0.0
Mg8 Mg 0.04675 0.27144 0.18187 0.0
O9 O 0.04614 0.34243 0.2022 0.0
O10 O 0.0895 0.24636 0.24597 0.0
O11 O 0.97203 0.27494 0.19643 0.0
O12 O 0.0842 0.32158 0.13558 0.0
C13 C 0.08319 0.44188 0.31735 0.0
C14 C 0.93895 0.46172 0.25826 0.0
C15 C 0.97004 0.37208 0.39892 0.0
C16 C 0.09093 0.26222 0.29016 0.0
C17 C 0.9691 0.25456 0.23806 0.0
C18 C 0.07787 0.35338 0.16958 0.0
O19 O 0.05421 0.47569 0.32963 0.0
O20 O 0.07121 0.41643 0.28066 0.0
O21 O 0.77966 0.67029 0.49811 0.0
Mg22 Mg 0.76818 0.70029 0.56622 0.0
O23 O 0.78354 0.74682 0.46948 0.0
Mg24 Mg 0.8508 0.78052 0.51799 0.0
O25 O 0.84322 0.7149 0.56783 0.0
O26 O 0.80013 0.70347 0.63478 0.0
O27 O 0.89329 0.80796 0.58097 0.0
O28 O 0.9214 0.74743 0.46999 0.0
Mg29 Mg 0.92929 0.83579 0.50108 0.0
O30 O 0.85837 0.85694 0.47839 0.0
O31 O 0.96816 0.82774 0.56891 0.0
O32 O 0.96551 0.81074 0.44222 0.0
O33 O 0.92057 0.90826 0.49866 0.0
C34 C 0.74674 0.80691 0.56981 0.0
C35 C 0.76106 0.70476 0.473 0.0
C36 C 0.84046 0.71683 0.61486 0.0
C37 C 0.93352 0.82136 0.59836 0.0
C38 C 0.95712 0.76532 0.44343 0.0
C39 C 0.87703 0.90114 0.48246 0.0
O40 O 0.7275 0.76645 0.5578 0.0
O41 O 0.79133 0.81586 0.56108 0.0
O42 O 0.53382 0.50724 0.81179 0.0
Mg43 Mg 0.46792 0.52973 0.83827 0.0
O44 O 0.49203 0.54226 0.75001 0.0
Mg45 Mg 0.43933 0.61361 0.77822 0.0
O46 O 0.47488 0.60485 0.85238 0.0
O47 O 0.45139 0.55143 0.91003 0.0
O48 O 0.39157 0.67817 0.80397 0.0
O49 O 0.4921 0.68309 0.76785 0.0
Mg50 Mg 0.41679 0.69348 0.67901 0.0
O51 O 0.40438 0.62388 0.70253 0.0
O52 O 0.3759 0.72623 0.73791 0.0
O53 O 0.49164 0.68797 0.6889 0.0
O54 O 0.37941 0.65112 0.63003 0.0
C55 C 0.37912 0.51502 0.7981 0.0
C56 C 0.52115 0.50777 0.76695 0.0
C57 C 0.46516 0.59524 0.89784 0.0
C58 C 0.3723 0.71617 0.78361 0.0
C59 C 0.49269 0.71006 0.72934 0.0
C60 C 0.3781 0.61794 0.66399 0.0
O61 O 0.41906 0.50107 0.78275 0.0
O62 O 0.37445 0.56117 0.80091 0.0
O63 O 0.71456 0.28779 0.07317 0.0
Mg64 Mg 0.68901 0.22323 0.10077 0.0
O65 O 0.67386 0.24943 0.01277 0.0
Mg66 Mg 0.60321 0.19873 0.03616 0.0
O67 O 0.61346 0.23152 0.11023 0.0
O68 O 0.66223 0.20852 0.17147 0.0
O69 O 0.5377 0.15119 0.05698 0.0
O70 O 0.53723 0.25493 0.02482 0.0
Mg71 Mg 0.52889 0.17842 0.9301 0.0
O72 O 0.59565 0.17048 0.95989 0.0
O73 O 0.49485 0.1339 -0.01188 0.0
O74 O 0.53269 0.25314 0.9458 0.0
O75 O 0.58084 0.14216 0.88684 0.0
C76 C 0.69826 0.13366 0.05802 0.0
C77 C 0.70987 0.27666 0.02824 0.0
C78 C 0.61966 0.22198 0.15615 0.0
C79 C 0.50215 0.13042 0.03451 0.0
C80 C 0.51049 0.25386 -0.01367 0.0
C81 C 0.6081 0.14203 0.92533 0.0
O82 O 0.71514 0.1738 0.04491 0.0
O83 O 0.65212 0.13076 0.05716 0.0
O84 O 0.92735 0.49478 0.17971 0.0
Mg85 Mg -0.01968 0.53002 0.13913 0.0
O86 O 0.96697 0.54143 0.23309 0.0
Mg87 Mg 0.01349 0.60816 0.19102 0.0
O88 O 0.97058 0.60333 0.11701 0.0
O89 O 0.96535 0.53722 0.06778 0.0
O90 O 0.05968 0.66372 0.1503 0.0
O91 O 0.96825 0.68166 0.20589 0.0
Mg92 Mg 0.068 0.68997 0.27374 0.0
O93 O 0.06241 0.61768 0.25791 0.0
O94 O 0.09747 0.71391 0.20293 0.0
O95 O -0.00728 0.68938 0.28137 0.0
O96 O 0.10927 0.64254 0.31815 0.0
C97 C 0.08161 0.51939 0.14808 0.0
C98 C 0.9391 0.50383 0.22344 0.0
C99 C 0.9622 0.58394 0.07437 0.0
C100 C 0.08829 0.69935 0.15933 0.0
C101 C 0.97758 0.70929 0.2425 0.0
C102 C 0.09388 0.60708 0.29125 0.0
O103 O 0.04611 0.49146 0.13959 0.0
O104 O 0.0745 0.55721 0.17301 0.0
O105 O 0.51341 0.78435 0.54227 0.0
Mg106 Mg 0.5404 0.83306 0.49262 0.0
O107 O 0.53602 0.74167 0.47608 0.0
Mg108 Mg 0.60883 0.77626 0.43581 0.0
O109 O 0.61458 0.83932 0.49079 0.0
O110 O 0.56297 0.90251 0.49928 0.0
O111 O 0.6676 0.81628 0.3969 0.0
O112 O 0.67943 0.73911 0.47411 0.0
Mg113 Mg 0.68422 0.7017 0.3729 0.0
O114 O 0.60957 0.71528 0.38117 0.0
O115 O 0.72691 0.76502 0.37538 0.0
O116 O 0.69175 0.66653 0.43946 0.0
O117 O 0.64441 0.70846 0.30948 0.0
C118 C 0.51119 0.83041 0.39078 0.0
C119 C 0.50566 0.75044 0.51157 0.0
C120 C 0.60671 0.88633 0.49206 0.0
C121 C 0.71051 0.80781 0.38198 0.0
C122 C 0.70688 0.70133 0.46611 0.0
C123 C 0.60586 0.71777 0.33439 0.0
O124 O 0.49434 0.83581 0.43313 0.0
O125 O 0.55418 0.81453 0.38412 0.0
O126 O 0.55056 0.45381 0.70678 0.0
Mg127 Mg 0.49819 0.42837 0.66025 0.0
O128 O 0.48254 0.43003 0.74601 0.0
Mg129 Mg 0.4386 0.36003 0.70116 0.0
O130 O 0.49969 0.35403 0.64311 0.0
O131 O 0.51162 0.4162 0.58957 0.0
O132 O 0.39733 0.30596 0.64986 0.0
O133 O 0.47863 0.28823 0.7404 0.0
Mg134 Mg 0.39686 0.2966 0.75414 0.0
O135 O 0.36863 0.36625 0.75424 0.0
O136 O 0.39041 0.24354 0.69968 0.0
O137 O 0.43973 0.27075 0.81003 0.0
O138 O 0.32818 0.29562 0.7731 0.0
C139 C 0.40177 0.46031 0.64554 0.0
C140 C 0.52071 0.45919 0.74178 0.0
C141 C 0.50566 0.36999 0.59853 0.0
C142 C 0.38623 0.26129 0.65736 0.0
C143 C 0.4708 0.25954 0.77771 0.0
C144 C 0.32858 0.34235 0.76586 0.0
O145 O 0.44128 0.48042 0.6573 0.0
O146 O 0.39572 0.41543 0.65594 0.0
O147 O 0.746 0.29623 0.95631 0.0
Mg148 Mg 0.7725 0.27776 0.88864 0.0
O149 O 0.78713 0.24192 0.00454 0.0
Mg150 Mg 0.84491 0.19559 0.95282 0.0
O151 O 0.842 0.25977 0.90318 0.0
O152 O 0.82441 0.31852 0.85046 0.0
O153 O 0.87483 0.15726 0.88586 0.0
O154 O 0.9246 0.22578 -0.01031 0.0
Mg155 Mg 0.91564 0.14062 0.9673 0.0
O156 O 0.84716 0.12135 -0.00165 0.0
O157 O 0.95112 0.14365 0.89757 0.0
O158 O 0.96309 0.16023 0.02023 0.0
O159 O 0.90473 0.06852 0.9717 0.0
C160 C 0.75673 0.1673 0.87823 0.0
C161 C 0.75371 0.27587 -0.00259 0.0
C162 C 0.85641 0.28919 0.86942 0.0
C163 C 0.9153 0.14372 0.86892 0.0
C164 C 0.96101 0.20596 0.01389 0.0
C165 C 0.86383 0.07663 -0.00688 0.0
O166 O 0.75115 0.20971 0.85911 0.0
O167 O 0.77487 0.16178 0.92085 0.0
O168 O 0.24606 0.92326 0.47164 0.0
Mg169 Mg 0.31642 0.93103 0.4438 0.0
O170 O 0.19838 0.96342 0.41631 0.0
Mg171 Mg 0.25432 0.00735 0.36374 0.0
O172 O 0.30299 0.94326 0.3711 0.0
O173 O 0.35076 0.88298 0.39365 0.0
O174 O 0.31789 0.04995 0.33062 0.0
O175 O 0.22243 -0.01442 0.2827 0.0
Mg176 Mg 0.22952 0.09187 0.28319 0.0
O177 O 0.20705 0.07092 0.35372 0.0
O178 O 0.30177 0.07856 0.25778 0.0
O179 O 0.18198 0.04893 0.24678 0.0
O180 O 0.22599 0.14711 0.33343 0.0
C181 C 0.32456 0.04049 0.45179 0.0
C182 C 0.20472 0.93881 0.45717 0.0
C183 C 0.33283 0.90961 0.35879 0.0
C184 C 0.3321 0.07109 0.29172 0.0
C185 C 0.19599 0.00464 0.2474 0.0
C186 C 0.21443 0.11525 0.36656 0.0
O187 O 0.34758 0.00079 0.46124 0.0
O188 O 0.28037 0.03764 0.43776 0.0
O189 O 0.12601 0.95338 0.48382 0.0
Mg190 Mg 0.08877 0.01536 0.50648 0.0
O191 O 0.18814 0.96381 0.53766 0.0
Mg192 Mg 0.17296 0.02002 0.60428 0.0
O193 O 0.09543 0.00928 0.58204 0.0
O194 O 0.02392 0.00259 0.54636 0.0
O195 O 0.15713 0.07717 0.66381 0.0
O196 O 0.15931 0.97141 0.67685 0.0
Mg197 Mg 0.27369 0.03223 0.68976 0.0
O198 O 0.25245 0.03305 0.61949 0.0
O199 O 0.22323 0.08998 0.71218 0.0
O200 O 0.23645 0.96476 0.69154 0.0
O201 O 0.32562 0.0582 0.63748 0.0
C202 C 0.15472 0.09762 0.51898 0.0
C203 C 0.16989 0.94617 0.49722 0.0
C204 C 0.05074 -0.00432 0.58468 0.0
C205 C 0.17864 0.0979 0.70003 0.0
C206 C 0.1939 0.97136 0.70862 0.0
C207 C 0.28967 0.05868 0.60713 0.0
O208 O 0.137 0.07304 0.48424 0.0
O209 O 0.18643 0.0764 0.54509 0.0
O210 O 0.12797 0.03937 0.97621 0.0
Mg211 Mg 0.09479 0.9703 0.96652 0.0
O212 O 0.17915 0.03941 0.91324 0.0
Mg213 Mg 0.17575 0.96767 0.86519 0.0
O214 O 0.09591 0.97113 0.88919 0.0
O215 O 0.02658 0.97169 0.9297 0.0
O216 O 0.16966 0.90172 0.81646 0.0
O217 O 0.15551 -0.00075 0.78474 0.0
Mg218 Mg 0.27771 0.95476 0.7809 0.0
O219 O 0.25705 0.96124 0.85198 0.0
O220 O 0.23148 0.89187 0.7626 0.0
O221 O 0.23176 0.01516 0.77358 0.0
O222 O 0.33051 0.93716 0.8362 0.0
C223 C 0.16619 0.89446 0.95614 0.0
C224 C 0.1713 0.04136 0.95993 0.0
C225 C 0.04945 0.97721 0.88882 0.0
C226 C 0.1898 0.88007 0.78057 0.0
C227 C 0.1913 0.0024 0.75481 0.0
C228 C 0.2937 0.93492 0.8652 0.0
O229 O 0.14133 0.90996 -0.00802 0.0
O230 O 0.19327 0.92658 0.93595 0.0
O231 O 0.17273 0.93727 0.20348 0.0
Mg232 Mg 0.22338 0.88651 0.18457 0.0
O233 O 0.22209 -0.00754 0.16615 0.0
Mg234 Mg 0.25394 0.95999 0.09016 0.0
O235 O 0.20861 0.89584 0.11016 0.0
O236 O 0.21939 0.82316 0.14483 0.0
O237 O 0.28415 0.91799 0.02309 0.0
O238 O 0.19984 0.00042 0.03382 0.0
Mg239 Mg 0.32378 0.02683 0.00669 0.0
O240 O 0.29843 0.02259 0.07481 0.0
O241 O 0.35425 0.9541 0.00579 0.0
O242 O 0.25288 0.03233 0.97752 0.0
O243 O 0.35246 0.0782 0.06033 0.0
C244 C 0.32579 0.90553 0.16872 0.0
C245 C 0.19232 0.97936 0.20114 0.0
C246 C 0.21589 0.84978 0.10574 0.0
C247 C 0.32954 0.91493 0.01294 0.0
C248 C 0.20974 0.02314 -0.00737 0.0
C249 C 0.32694 0.0544 0.09216 0.0
O250 O 0.29484 0.91236 0.20219 0.0
O251 O 0.31837 0.9258 0.12781 0.0
O252 O 0.258 0.18038 0.06835 0.0
Mg253 Mg 0.28027 0.24708 0.09328 0.0
O254 O 0.29775 0.22091 0.00873 0.0
Mg255 Mg 0.3629 0.27631 0.03336 0.0
O256 O 0.3553 0.24627 0.10933 0.0
O257 O 0.29793 0.26317 0.16536 0.0
O258 O 0.42289 0.32641 0.05512 0.0
O259 O 0.43376 0.22601 0.02413 0.0
Mg260 Mg 0.43822 0.30487 0.92932 0.0
O261 O 0.3699 0.30548 0.95678 0.0
O262 O 0.46785 0.34906 -0.0107 0.0
O263 O 0.43903 0.2301 0.94499 0.0
O264 O 0.38355 0.33677 0.88438 0.0
C265 C 0.26442 0.33499 0.05448 0.0
C266 C 0.26305 0.19159 0.02334 0.0
C267 C 0.34243 0.25231 0.15453 0.0
C268 C 0.45827 0.34955 0.03533 0.0
C269 C 0.46067 0.22933 -0.01411 0.0
C270 C 0.35426 0.33104 0.92082 0.0
O271 O 0.24988 0.29528 0.03817 0.0
O272 O 0.31016 0.34109 0.05294 0.0
O273 O 0.02006 -0.01498 0.1816 0.0
Mg274 Mg 0.97429 0.95847 0.12864 0.0
O275 O 0.0053 0.92115 0.23159 0.0
Mg276 Mg 0.94967 0.86697 0.18879 0.0
O277 O -0.01161 0.88423 0.11328 0.0
O278 O 0.00535 0.95041 0.06476 0.0
O279 O 0.89572 0.81686 0.14907 0.0
O280 O -0.01248 0.78702 0.19742 0.0
Mg281 Mg 0.90412 0.78277 0.27358 0.0
O282 O 0.90464 0.85418 0.25612 0.0
O283 O 0.87266 0.75885 0.20371 0.0
O284 O 0.97997 0.78664 0.27689 0.0
O285 O 0.86192 0.82798 0.31882 0.0
C286 C 0.87967 0.95326 0.15103 0.0
C287 C 0.02369 0.96453 0.22314 0.0
C288 C 0.0069 0.90368 0.07336 0.0
C289 C 0.87307 0.77721 0.16022 0.0
C290 C -0.01197 0.7632 0.23822 0.0
C291 C 0.87331 0.86341 0.28944 0.0
O292 O 0.90119 -0.0156 0.12424 0.0
O293 O 0.90536 0.93588 0.18529 0.0
O294 O -0.00919 0.69803 0.40347 0.0
Mg295 Mg 0.02062 0.63443 0.43101 0.0
O296 O 0.03559 0.73643 0.46029 0.0
Mg297 Mg 0.1002 0.69199 0.49809 0.0
O298 O 0.09457 0.63133 0.43905 0.0
O299 O 0.04957 0.57496 0.39932 0.0
O300 O 0.14972 0.64043 0.54215 0.0
O301 O 0.17401 0.73498 0.45838 0.0
Mg302 Mg 0.16631 0.74161 0.5412 0.0
O303 O 0.09462 0.74934 0.55876 0.0
O304 O 0.21576 0.68339 0.53502 0.0
O305 O 0.19337 0.80024 0.50469 0.0
O306 O 0.15722 0.74712 0.61243 0.0
C307 C 0.00336 0.62863 0.53948 0.0
C308 C -0.00126 0.73452 0.43076 0.0
C309 C 0.08653 0.58539 0.42731 0.0
C310 C 0.19527 0.64437 0.54803 0.0
C311 C 0.2032 0.77176 0.46957 0.0
C312 C 0.11119 0.75127 0.60301 0.0
O313 O -0.0126 0.61481 0.49817 0.0
O314 O 0.0414 0.65487 0.54336 0.0
O315 O 0.03908 0.522 0.67212 0.0
Mg316 Mg 0.97599 0.55371 0.65165 0.0
O317 O -0.00881 0.54812 0.73355 0.0
Mg318 Mg 0.94138 0.61804 0.69379 0.0
O319 O -0.00714 0.62329 0.62664 0.0
O320 O 0.96565 0.5622 0.57859 0.0
O321 O 0.89911 0.6684 0.64618 0.0
O322 O -0.01126 0.68598 0.73498 0.0
Mg323 Mg 0.90057 0.68922 0.74354 0.0
O324 O 0.87691 0.61641 0.75255 0.0
O325 O 0.88689 0.73702 0.68314 0.0
O326 O 0.94539 0.71712 0.79626 0.0
O327 O 0.83219 0.68532 0.76446 0.0
C328 C 0.8879 0.52092 0.65989 0.0
C329 C 0.02353 0.51741 0.71557 0.0
C330 C -0.01592 0.60546 0.58329 0.0
C331 C 0.88328 0.71154 0.64506 0.0
C332 C -0.01579 0.71637 0.77151 0.0
C333 C 0.83482 0.63846 0.7596 0.0
O334 O 0.92149 0.50707 0.68728 0.0
O335 O 0.88769 0.56644 0.65123 0.0
O336 O 0.20986 0.28664 0.4278 0.0
Mg337 Mg 0.17814 0.22963 0.39109 0.0
O338 O 0.16855 0.23743 0.47874 0.0
Mg339 Mg 0.09871 0.19329 0.44419 0.0
O340 O 0.10384 0.23584 0.37138 0.0
O341 O 0.16631 0.22947 0.31734 0.0
O342 O 0.0376 0.14351 0.41682 0.0
O343 O 0.02933 0.24019 0.46413 0.0
Mg344 Mg 0.03019 0.14243 0.54903 0.0
O345 O 0.09394 0.15556 0.51682 0.0
O346 O 0.00352 0.10632 0.48321 0.0
O347 O 0.02316 0.21818 0.54083 0.0
O348 O 0.09445 0.10758 0.58035 0.0
C349 C 0.19404 0.13331 0.41098 0.0
C350 C 0.20586 0.26539 0.46929 0.0
C351 C 0.12076 0.23761 0.32678 0.0
C352 C 0.00847 0.11234 0.43671 0.0
C353 C 0.0027 0.22491 0.49967 0.0
C354 C 0.1172 0.12506 0.54301 0.0
O355 O 0.21508 0.17048 0.42615 0.0
O356 O 0.14799 0.13376 0.41183 0.0
O357 O 0.42934 0.45754 0.16158 0.0
Mg358 Mg 0.49354 0.44469 0.1251 0.0
O359 O 0.47266 0.41913 0.21891 0.0
Mg360 Mg 0.52048 0.35041 0.19155 0.0
O361 O 0.49591 0.36934 0.111 0.0
O362 O 0.48577 0.42875 0.05312 0.0
O363 O 0.56775 0.28702 0.17036 0.0
O364 O 0.46672 0.28068 0.1973 0.0
Mg365 Mg 0.54213 0.26894 0.29498 0.0
O366 O 0.5465 0.33736 0.26755 0.0
O367 O 0.5849 0.23666 0.23458 0.0
O368 O 0.46856 0.27791 0.27674 0.0
O369 O 0.58264 0.32055 0.33647 0.0
C370 C 0.59055 0.44125 0.16347 0.0
C371 C 0.44223 0.45307 0.20576 0.0
C372 C 0.48343 0.3832 0.06676 0.0
C373 C 0.58821 0.24896 0.18914 0.0
C374 C 0.46684 0.25476 0.23688 0.0
C375 C 0.57885 0.349 0.29881 0.0
O376 O 0.55364 0.46802 0.16935 0.0
O377 O 0.58865 0.39866 0.18194 0.0
O378 O 0.23743 0.732 0.89422 0.0
Mg379 Mg 0.28106 0.78329 0.86049 0.0
O380 O 0.28368 0.7468 0.95938 0.0
Mg381 Mg 0.35754 0.79438 0.93489 0.0
O382 O 0.3532 0.76041 0.85662 0.0
O383 O 0.29926 0.75994 0.7936 0.0
O384 O 0.42551 0.83509 0.9161 0.0
O385 O 0.42027 0.73563 0.95212 0.0
Mg386 Mg 0.43349 0.82597 0.03903 0.0
O387 O 0.36471 0.83297 0.00861 0.0
O388 O 0.47555 0.85561 0.97849 0.0
O389 O 0.42354 0.75039 0.0302 0.0
O390 O 0.38804 0.88168 0.06704 0.0
C391 C 0.28557 0.88572 0.88595 0.0
C392 C 0.24626 0.72539 0.93908 0.0
C393 C 0.34073 0.74728 0.81244 0.0
C394 C 0.46459 0.85432 0.93296 0.0
C395 C 0.44581 0.73886 -0.00867 0.0
C396 C 0.35768 0.87306 0.03223 0.0
O397 O 0.2591 0.85746 0.86096 0.0
O398 O 0.3194 0.86724 0.91201 0.0
O399 O 0.05949 0.46782 0.77463 0.0
Mg400 Mg 0.02759 0.44622 0.83919 0.0
O401 O -0.00293 0.43541 0.7313 0.0
Mg402 Mg 0.95869 0.36726 0.7746 0.0
O403 O 0.0199 0.37243 0.82876 0.0
O404 O 0.04553 0.40388 0.89866 0.0
O405 O 0.92022 0.32507 0.8333 0.0
O406 O -0.00341 0.2938 0.73537 0.0
Mg407 Mg 0.90398 0.29014 0.74286 0.0
O408 O 0.89243 0.3641 0.72205 0.0
O409 O 0.90301 0.25163 0.81103 0.0
O410 O 0.94135 0.25299 0.69079 0.0
O411 O 0.83342 0.30823 0.73499 0.0
C412 C 0.91882 0.46587 0.83477 0.0
C413 C 0.03043 0.46889 0.73847 0.0
C414 C 0.02765 0.36711 0.87507 0.0
C415 C 0.90212 0.28391 0.84365 0.0
C416 C -0.01535 0.25776 0.70623 0.0
C417 C 0.84636 0.35288 0.72582 0.0
O418 O 0.95996 0.48063 0.85009 0.0
O419 O 0.91436 0.42743 0.80941 0.0
O420 O 0.45955 0.17798 0.41082 0.0
Mg421 Mg 0.43332 0.11214 0.43574 0.0
O422 O 0.42455 0.22161 0.47154 0.0
Mg423 Mg 0.3592 0.1777 0.51125 0.0
O424 O 0.36181 0.12126 0.44966 0.0
O425 O 0.38925 0.06234 0.40135 0.0
O426 O 0.32119 0.11406 0.55031 0.0
O427 O 0.28532 0.22476 0.47809 0.0
Mg428 Mg 0.29187 0.20406 0.57329 0.0
O429 O 0.36452 0.23065 0.57803 0.0
O430 O 0.25733 0.13614 0.59039 0.0
O431 O 0.24708 0.25567 0.54278 0.0
O432 O 0.31213 0.22262 0.641 0.0
C433 C 0.45338 0.10825 0.54541 0.0
C434 C 0.45787 0.21505 0.43836 0.0
C435 C 0.35533 0.07846 0.42996 0.0
C436 C 0.28501 0.10235 0.57623 0.0
C437 C 0.25092 0.25242 0.49696 0.0
C438 C 0.35393 0.23579 0.62404 0.0
O439 O 0.46367 0.08973 0.50404 0.0
O440 O 0.41997 0.13972 0.55064 0.0
O441 O 0.52584 0.69276 0.15649 0.0
Mg442 Mg 0.56296 0.67175 0.21642 0.0
O443 O 0.47675 0.66476 0.21661 0.0
Mg444 Mg 0.52062 0.6005 0.26477 0.0
O445 O 0.5856 0.59938 0.21037 0.0
O446 O 0.63521 0.66568 0.21341 0.0
O447 O 0.5736 0.55464 0.30898 0.0
O448 O 0.47923 0.53019 0.22349 0.0
Mg449 Mg 0.48224 0.52825 0.31138 0.0
O450 O 0.46509 0.60075 0.32938 0.0
O451 O 0.54436 0.48146 0.31177 0.0
O452 O 0.42537 0.49715 0.27571 0.0
O453 O 0.47623 0.53879 0.38346 0.0
C454 C 0.56171 0.70217 0.31116 0.0
C455 C 0.48568 0.69387 0.1793 0.0
C456 C 0.62923 0.61882 0.21063 0.0
C457 C 0.57936 0.51005 0.3199 0.0
C458 C 0.4448 0.49846 0.2338 0.0
C459 C 0.46732 0.58431 0.37441 0.0
O460 O 0.55046 0.72391 0.27218 0.0
O461 O 0.55716 0.65616 0.31243 0.0
O462 O 0.20618 0.68138 0.00351 0.0
Mg463 Mg 0.17316 0.72796 0.05324 0.0
O464 O 0.16947 0.74488 0.96801 0.0
Mg465 Mg 0.10464 0.78436 0.00933 0.0
O466 O 0.0993 0.72869 0.07669 0.0
O467 O 0.16528 0.71073 0.124 0.0
O468 O 0.04692 0.83206 0.04668 0.0
O469 O 0.0378 0.75135 0.96881 0.0
Mg470 Mg 0.05 0.86426 0.92415 0.0
O471 O 0.11051 0.83122 0.94605 0.0
O472 O 0.03191 0.89364 -0.00672 0.0
O473 O 0.00291 0.80639 0.91617 0.0
O474 O 0.11599 0.88391 0.88791 0.0
C475 C 0.2018 0.82559 0.06218 0.0
C476 C 0.20314 0.71213 0.96838 0.0
C477 C 0.11877 0.71674 0.11909 0.0
C478 C 0.02867 0.87389 0.03568 0.0
C479 C 0.0028 0.76668 0.94063 0.0
C480 C 0.13659 0.86342 0.92468 0.0
O481 O 0.22269 0.78562 0.05456 0.0
O482 O 0.15747 0.83062 0.05087 0.0
O483 O 0.72017 0.04944 0.54668 0.0
Mg484 Mg 0.64936 0.02819 0.53161 0.0
O485 O 0.7537 0.97564 0.55136 0.0
Mg486 Mg 0.70109 0.94293 0.61329 0.0
O487 O 0.65319 0.00923 0.60565 0.0
O488 O 0.58469 0.03103 0.57069 0.0
O489 O 0.64016 0.91287 0.65274 0.0
O490 O 0.74164 0.96691 0.68926 0.0
Mg491 Mg 0.72052 0.85648 0.69742 0.0
O492 O 0.74054 0.8727 0.62476 0.0
O493 O 0.64871 0.87383 0.72158 0.0
O494 O 0.7713 0.90057 0.73027 0.0
O495 O 0.71855 0.79856 0.64934 0.0
C496 C 0.64491 0.91902 0.50762 0.0
C497 C 0.74651 0.01657 0.52813 0.0
C498 C 0.60661 0.01245 0.60802 0.0
C499 C 0.62134 0.89156 0.68869 0.0
C500 C 0.76569 0.94657 0.72555 0.0
C501 C 0.72871 0.82841 0.61398 0.0
O502 O 0.64385 0.96236 0.49001 0.0
O503 O 0.66192 0.90963 0.54984 0.0
O504 O 0.77273 0.06267 0.46129 0.0
Mg505 Mg 0.84286 0.05461 0.43399 0.0
O506 O 0.73253 -0.0055 0.4432 0.0
Mg507 Mg 0.77207 0.96254 0.3724 0.0
O508 O 0.81518 0.03181 0.36959 0.0
O509 O 0.87593 0.08242 0.36857 0.0
O510 O 0.83111 0.92053 0.33228 0.0
O511 O 0.72527 -0.00661 0.30227 0.0
Mg512 Mg 0.74902 0.90945 0.30086 0.0
O513 O 0.72905 0.89144 0.37382 0.0
O514 O 0.81303 0.9135 0.25617 0.0
O515 O 0.6889 0.93128 0.26386 0.0
O516 O 0.75107 0.83809 0.31507 0.0
C517 C 0.85258 0.9423 0.4595 0.0
C518 C 0.75542 0.02148 0.47487 0.0
C519 C 0.85088 0.04993 0.34572 0.0
C520 C 0.8435 0.90731 0.29002 0.0
C521 C 0.69845 0.97649 0.26685 0.0
C522 C 0.73533 0.847 0.35837 0.0
O523 O 0.87106 -0.01454 0.46221 0.0
O524 O 0.81678 0.93177 0.43216 0.0
O525 O 0.76434 0.92214 0.00461 0.0
Mg526 Mg 0.83216 0.92477 0.03808 0.0
O527 O 0.71581 0.97017 0.05204 0.0
Mg528 Mg 0.76633 0.00723 0.10975 0.0
O529 O 0.8097 0.93906 0.1062 0.0
O530 O 0.87155 0.89054 0.09503 0.0
O531 O 0.82877 0.04563 0.14787 0.0
O532 O 0.72638 -0.01665 0.18543 0.0
Mg533 Mg 0.74146 0.09389 0.18643 0.0
O534 O 0.71884 0.07168 0.11625 0.0
O535 O 0.8158 0.09155 0.21111 0.0
O536 O 0.69479 0.04905 0.22437 0.0
O537 O 0.73222 0.14856 0.13525 0.0
C538 C 0.84081 0.03499 0.01742 0.0
C539 C 0.725 0.94534 0.01275 0.0
C540 C 0.84915 0.92075 0.12315 0.0
C541 C 0.8455 0.0717 0.18205 0.0
C542 C 0.70137 0.00313 0.22082 0.0
C543 C 0.72127 0.11648 0.10266 0.0
O544 O 0.86186 -0.0067 0.01511 0.0
O545 O 0.80337 0.04257 0.04376 0.0
O546 O 0.80281 0.00963 0.76756 0.0
Mg547 Mg 0.76372 0.07164 0.77958 0.0
O548 O 0.73653 0.9741 0.80064 0.0
Mg549 Mg 0.69703 0.02446 0.86002 0.0
O550 O 0.75845 0.0813 0.8549 0.0
O551 O 0.77976 0.13993 0.80088 0.0
O552 O 0.66056 0.08268 0.90158 0.0
O553 O 0.72043 -0.017 0.93443 0.0
Mg554 Mg 0.60328 -0.00573 0.93234 0.0
O555 O 0.63579 0.97269 0.86551 0.0
O556 O 0.60983 0.06614 0.96062 0.0
O557 O 0.65213 0.95275 0.97176 0.0
O558 O 0.56005 -0.00383 0.86911 0.0
C559 C 0.65939 0.07848 0.75747 0.0
C560 C 0.77281 0.97432 0.77019 0.0
C561 C 0.76219 0.12767 0.84318 0.0
C562 C 0.6335 0.09708 0.9356 0.0
C563 C 0.69809 0.95841 0.96913 0.0
C564 C 0.59528 0.97901 0.8436 0.0
O565 O 0.7 0.07814 0.73554 0.0
O566 O 0.65635 0.06203 0.80051 0.0
O567 O 0.71129 0.76668 0.90733 0.0
Mg568 Mg 0.68223 0.70711 0.87179 0.0
O569 O 0.66782 0.7365 0.96971 0.0
Mg570 Mg 0.59434 0.69044 0.94303 0.0
O571 O 0.60775 0.71677 0.86172 0.0
O572 O 0.66422 0.71829 0.80091 0.0
O573 O 0.53001 0.64562 0.91859 0.0
O574 O 0.52666 0.74739 0.95189 0.0
Mg575 Mg 0.51146 0.66474 0.0414 0.0
O576 O 0.5817 0.65928 0.01846 0.0
O577 O 0.47693 0.62689 0.97877 0.0
O578 O 0.52127 0.74017 0.03132 0.0
O579 O 0.55867 0.6202 0.08431 0.0
C580 C 0.67318 0.60892 0.90813 0.0
C581 C 0.7049 0.76151 0.95285 0.0
C582 C 0.62089 0.72824 0.81695 0.0
C583 C 0.49083 0.6252 0.93392 0.0
C584 C 0.50032 0.74876 -0.00902 0.0
C585 C 0.59063 0.62563 0.05023 0.0
O586 O 0.70617 0.64097 0.90519 0.0
O587 O 0.63754 0.61895 0.93535 0.0
O588 O 0.0594 0.21925 0.69531 0.0
Mg589 Mg 0.09579 0.19006 0.75422 0.0
O590 O 0.00102 0.17643 0.73304 0.0
Mg591 Mg 0.02715 0.10186 0.77705 0.0
O592 O 0.10604 0.11523 0.74519 0.0
O593 O 0.16609 0.17297 0.74065 0.0
O594 O 0.04804 0.0342 0.82423 0.0
O595 O 0.01645 0.0386 0.71874 0.0
Mg596 Mg 0.92142 0.02506 0.79861 0.0
O597 O 0.94998 0.09315 0.80635 0.0
O598 O 0.97828 -0.00583 0.84491 0.0
O599 O 0.9383 0.02827 0.72442 0.0
O600 O 0.876 0.07695 0.83218 0.0
C601 C 0.06424 0.18448 0.85353 0.0
C602 C 0.01496 0.2133 0.70593 0.0
C603 C 0.14956 0.12952 0.73097 0.0
C604 C 0.02459 0.0007 0.848 0.0
C605 C -0.01975 0.00901 0.7235 0.0
C606 C 0.91285 0.10639 0.83143 0.0
O607 O 0.06133 0.21513 0.81903 0.0
O608 O 0.04466 0.14308 0.84714 0.0
O609 O 0.74891 0.15937 0.41154 0.0
Mg610 Mg 0.77399 0.22064 0.37679 0.0
O611 O 0.78599 0.20663 0.46734 0.0
Mg612 Mg 0.8586 0.25366 0.43528 0.0
O613 O 0.84888 0.21284 0.36363 0.0
O614 O 0.79366 0.22541 0.30383 0.0
O615 O 0.91968 0.30278 0.40505 0.0
O616 O 0.92926 0.20343 0.45265 0.0
Mg617 Mg 0.93478 0.28157 0.53397 0.0
O618 O 0.86766 0.28965 0.50768 0.0
O619 O 0.96393 0.32441 0.47111 0.0
O620 O 0.92659 0.20534 0.53178 0.0
O621 O 0.88931 0.32111 0.57862 0.0
C622 C 0.76464 0.31641 0.40552 0.0
C623 C 0.75042 0.17724 0.45435 0.0
C624 C 0.83777 0.21588 0.31751 0.0
C625 C 0.95375 0.32777 0.42518 0.0
C626 C 0.95217 0.20283 0.49368 0.0
C627 C 0.86111 0.32173 0.54068 0.0
O628 O 0.74575 0.2783 0.422 0.0
O629 O 0.8105 0.31866 0.40888 0.0
O630 O 0.43019 0.96691 0.81007 0.0
Mg631 Mg 0.4951 0.93942 0.83361 0.0
O632 O 0.46824 0.9273 0.74953 0.0
Mg633 Mg 0.51938 0.85678 0.77918 0.0
O634 O 0.48659 0.86545 0.85243 0.0
O635 O 0.50962 0.92287 0.90643 0.0
O636 O 0.56652 0.79295 0.80469 0.0
O637 O 0.4667 0.78786 0.7667 0.0
Mg638 Mg 0.54827 0.77975 0.67679 0.0
O639 O 0.54996 0.84729 0.70581 0.0
O640 O 0.58813 0.74747 0.73922 0.0
O641 O 0.47337 0.78339 0.68766 0.0
O642 O 0.58683 0.83392 0.63681 0.0
C643 C 0.58344 0.953 0.79883 0.0
C644 C 0.44087 0.9633 0.76501 0.0
C645 C 0.49421 0.87914 0.89702 0.0
C646 C 0.58857 0.75652 0.78537 0.0
C647 C 0.4706 0.76124 0.72837 0.0
C648 C 0.58089 0.86151 0.67445 0.0
O649 O 0.54553 0.96859 0.77946 0.0
O650 O 0.58571 0.90675 0.80234 0.0
O651 O 0.02019 0.98058 0.30562 0.0
Mg652 Mg 0.96903 0.00745 0.35453 0.0
O653 O 0.01188 0.0441 0.25331 0.0
Mg654 Mg 0.95049 0.10015 0.28026 0.0
O655 O 0.97475 0.08401 0.36065 0.0
O656 O -0.01205 0.03012 0.42225 0.0
O657 O 0.89135 0.15268 0.30166 0.0
O658 O -0.00861 0.17836 0.28066 0.0
Mg659 Mg 0.9217 0.18102 0.18008 0.0
O660 O 0.92114 0.11075 0.20349 0.0
O661 O 0.87531 0.20681 0.24014 0.0
O662 O -0.00507 0.18144 0.20138 0.0
O663 O 0.88635 0.12948 0.13406 0.0
C664 C 0.87727 0.01625 0.31509 0.0
C665 C 0.02638 -0.00025 0.26365 0.0
C666 C -0.01176 0.07467 0.40555 0.0
C667 C 0.86952 0.19046 0.28402 0.0
C668 C -0.00721 0.20439 0.24143 0.0
C669 C 0.8897 0.09953 0.1706 0.0
O670 O 0.89733 -0.01639 0.34126 0.0
O671 O 0.90316 0.03289 0.28041 0.0
O672 O 0.42562 0.00715 0.69366 0.0
Mg673 Mg 0.48478 0.03605 0.65897 0.0
O674 O 0.47722 0.04205 0.74625 0.0
Mg675 Mg 0.52199 0.11063 0.70053 0.0
O676 O 0.47014 0.10658 0.63171 0.0
O677 O 0.47889 0.03808 0.58649 0.0
O678 O 0.56238 0.16469 0.65252 0.0
O679 O 0.48222 0.18135 0.73938 0.0
Mg680 Mg 0.58252 0.1942 0.7584 0.0
O681 O 0.58162 0.11748 0.75651 0.0
O682 O 0.57224 0.23389 0.69171 0.0
O683 O 0.52545 0.20127 0.80618 0.0
O684 O 0.64931 0.16205 0.75369 0.0
C685 C 0.58155 0.0169 0.65405 0.0
C686 C 0.44322 0.00953 0.7363 0.0
C687 C 0.47144 0.08452 0.58932 0.0
C688 C 0.5751 0.20937 0.65269 0.0
C689 C 0.48988 0.20899 0.77753 0.0
C690 C 0.62821 0.12014 0.74875 0.0
O691 O 0.54615 -0.01147 0.66167 0.0
O692 O 0.57604 0.06128 0.6648 0.0
O693 O 0.22999 0.18873 0.94727 0.0
Mg694 Mg 0.19731 0.20784 0.88102 0.0
O695 O 0.18016 0.21743 0.00708 0.0
Mg696 Mg 0.11838 0.26477 0.96192 0.0
O697 O 0.12825 0.20836 0.9064 0.0
O698 O 0.14643 0.16132 0.84505 0.0
O699 O 0.0747 0.30725 0.90641 0.0
O700 O 0.04241 0.2266 -0.00813 0.0
Mg701 Mg 0.03417 0.319 0.0024 0.0
O702 O 0.10905 0.32904 0.01426 0.0
O703 O 0.0004 0.3121 0.93259 0.0
O704 O 0.00444 0.2702 0.05006 0.0
O705 O 0.05366 0.38942 0.00702 0.0
C706 C 0.19205 0.31834 0.89041 0.0
C707 C 0.21928 0.19405 -0.0078 0.0
C708 C 0.11337 0.18066 0.87225 0.0
C709 C 0.03092 0.31979 0.89897 0.0
C710 C 0.00649 0.23299 0.02247 0.0
C711 C 0.09871 0.37523 0.00616 0.0
O712 O 0.20105 0.28421 0.86001 0.0
O713 O 0.18526 0.30677 0.93495 0.0
O714 O 0.26372 0.78684 0.41144 0.0
Mg715 Mg 0.29187 0.72021 0.39523 0.0
O716 O 0.28521 0.73909 0.47512 0.0
Mg717 Mg 0.35634 0.68732 0.44166 0.0
O718 O 0.35994 0.72917 0.36616 0.0
O719 O 0.29221 0.7081 0.32341 0.0
O720 O 0.41324 0.64133 0.40576 0.0
O721 O 0.42747 0.72978 0.4764 0.0
Mg722 Mg 0.42981 0.62585 0.52468 0.0
O723 O 0.35882 0.63973 0.50892 0.0
O724 O 0.46191 0.60162 0.45802 0.0
O725 O 0.45335 0.69375 0.54674 0.0
O726 O 0.38152 0.57487 0.55152 0.0
C727 C 0.25997 0.62998 0.41278 0.0
C728 C 0.25513 0.77046 0.45406 0.0
C729 C 0.33689 0.72307 0.32466 0.0
C730 C 0.44863 0.61279 0.41464 0.0
C731 C 0.45807 0.72557 0.51297 0.0
C732 C 0.34894 0.59607 0.52455 0.0
O733 O 0.24178 0.66895 0.42722 0.0
O734 O 0.30573 0.62937 0.40831 0.0
O735 O 0.7868 0.44788 0.95005 0.0
Mg736 Mg 0.80933 0.5043 0.90689 0.0
O737 O 0.72494 0.48221 0.90919 0.0
Mg738 Mg 0.75641 0.52424 0.83585 0.0
O739 O 0.83255 0.4826 0.83659 0.0
O740 O 0.88107 0.50289 0.90062 0.0
O741 O 0.79064 0.5651 0.77192 0.0
O742 O 0.72024 0.48466 0.7676 0.0
Mg743 Mg 0.67837 0.60458 0.7756 0.0
O744 O 0.68814 0.56538 0.83579 0.0
O745 O 0.75015 0.63596 0.77315 0.0
O746 O 0.67723 0.54575 0.729 0.0
O747 O 0.62975 0.61907 0.83493 0.0
C748 C 0.80284 0.60229 0.91233 0.0
C749 C 0.74193 0.4576 0.94646 0.0
C750 C 0.87572 0.48676 0.85682 0.0
C751 C 0.78959 0.61151 0.76759 0.0
C752 C 0.69592 0.50321 0.73057 0.0
C753 C 0.65879 0.59179 0.86022 0.0
O754 O 0.80058 0.57072 0.94588 0.0
O755 O 0.78672 0.59009 0.87139 0.0
O756 O 0.79138 0.51144 0.20897 0.0
Mg757 Mg 0.78116 0.58044 0.18178 0.0
O758 O 0.74055 0.46688 0.16072 0.0
Mg759 Mg 0.70138 0.51812 0.10414 0.0
O760 O 0.7641 0.56527 0.11275 0.0
O761 O 0.8241 0.61578 0.12989 0.0
O762 O 0.66131 0.57858 0.06004 0.0
O763 O 0.73082 0.4816 0.02926 0.0
Mg764 Mg 0.61211 0.46953 0.02973 0.0
O765 O 0.64025 0.46867 0.09764 0.0
O766 O 0.59479 0.54537 0.02605 0.0
O767 O 0.66897 0.4478 -0.01401 0.0
O768 O 0.57806 0.42235 0.08048 0.0
C769 C 0.67136 0.59059 0.1962 0.0
C770 C 0.76923 0.47219 0.19807 0.0
C771 C 0.79389 0.59786 0.09832 0.0
C772 C 0.6198 0.5826 0.03903 0.0
C773 C 0.71368 0.45825 -0.00854 0.0
C774 C 0.60617 0.44094 0.11306 0.0
O775 O 0.71325 0.61017 0.20201 0.0
O776 O 0.66403 0.55313 0.16955 0.0
O777 O 0.72158 0.54012 0.43848 0.0
Mg778 Mg 0.65414 0.50716 0.43898 0.0
O779 O 0.75818 0.47265 0.40891 0.0
Mg780 Mg 0.70445 0.43541 0.3524 0.0
O781 O 0.6542 0.49887 0.36324 0.0
O782 O 0.58743 0.51604 0.40422 0.0
O783 O 0.64166 0.40075 0.31583 0.0
O784 O 0.73962 0.46107 0.2775 0.0
Mg785 Mg 0.72544 0.34427 0.27183 0.0
O786 O 0.75058 0.37181 0.33941 0.0
O787 O 0.65006 0.3502 0.25495 0.0
O788 O 0.76359 0.3954 0.23219 0.0
O789 O 0.73388 0.29429 0.32857 0.0
C790 C 0.65387 0.3992 0.45643 0.0
C791 C 0.75602 0.50907 0.43911 0.0
C792 C 0.60742 0.50231 0.36402 0.0
C793 C 0.62293 0.37385 0.28373 0.0
C794 C 0.76012 0.44121 0.23946 0.0
C795 C 0.74617 0.32895 0.35759 0.0
O796 O 0.65628 0.43971 0.47874 0.0
O797 O 0.67142 0.39518 0.41414 0.0
O798 O 0.66794 0.44452 0.67754 0.0
Mg799 Mg 0.70308 0.37863 0.6785 0.0
O800 O 0.7356 0.48707 0.6568 0.0
Mg801 Mg 0.77742 0.44035 0.59933 0.0
O802 O 0.71657 0.38591 0.6039 0.0
O803 O 0.70386 0.31461 0.63982 0.0
O804 O 0.81282 0.38423 0.55898 0.0
O805 O 0.75582 0.4786 0.52152 0.0
Mg806 Mg 0.87463 0.47142 0.52969 0.0
O807 O 0.83935 0.49203 0.59456 0.0
O808 O 0.87166 0.3975 0.50721 0.0
O809 O 0.82527 0.50882 0.48631 0.0
O810 O 0.91778 0.47879 0.59257 0.0
C811 C 0.80868 0.38445 0.7057 0.0
C812 C 0.69732 0.47983 0.68358 0.0
C813 C 0.71715 0.33888 0.60156 0.0
C814 C 0.84213 0.36852 0.52803 0.0
C815 C 0.77946 0.50134 0.48633 0.0
C816 C 0.87989 0.49046 0.6175 0.0
O817 O 0.76606 0.37856 0.72269 0.0
O818 O 0.81588 0.40312 0.66362 0.0
O819 O 0.49562 -0.00558 0.1462 0.0
Mg820 Mg 0.44231 0.03599 0.11368 0.0
O821 O 0.46425 0.03608 0.2086 0.0
Mg822 Mg 0.42929 0.11672 0.18737 0.0
O823 O 0.45955 0.11037 0.10812 0.0
O824 O 0.45608 0.05755 0.04422 0.0
O825 O 0.39286 0.18752 0.17077 0.0
O826 O 0.49211 0.1745 0.2033 0.0
Mg827 Mg 0.40496 0.19088 0.29411 0.0
O828 O 0.39696 0.12325 0.26339 0.0
O829 O 0.36595 0.23032 0.23572 0.0
O830 O 0.47986 0.1818 0.28115 0.0
O831 O 0.36415 0.13851 0.33435 0.0
C832 C 0.34485 0.0485 0.14168 0.0
C833 C 0.48649 -0.0022 0.19133 0.0
C834 C 0.47041 0.09861 0.06314 0.0
C835 C 0.37005 0.2236 0.18948 0.0
C836 C 0.48675 0.20273 0.24026 0.0
C837 C 0.36882 0.10905 0.29806 0.0
O838 O 0.37517 0.01422 0.14513 0.0
O839 O 0.3555 0.08828 0.1622 0.0
O840 O 0.05433 0.75879 0.79911 0.0
Mg841 Mg 0.09879 0.78819 0.74504 0.0
O842 O 0.0091 0.79474 0.74199 0.0
Mg843 Mg 0.04002 0.86616 0.69836 0.0
O844 O 0.11792 0.86066 0.73703 0.0
O845 O 0.16823 0.79902 0.76391 0.0
O846 O 0.05861 0.93306 0.64585 0.0
O847 O 0.0245 0.93527 0.74945 0.0
Mg848 Mg 0.93098 0.93361 0.67556 0.0
O849 O 0.96461 0.86862 0.66517 0.0
O850 O -0.01472 0.96953 0.63115 0.0
O851 O 0.94563 0.93408 0.74998 0.0
O852 O 0.88921 0.88077 0.64046 0.0
C853 C 0.08157 0.76815 0.64227 0.0
C854 C 0.01537 0.7605 0.77429 0.0
C855 C 0.15926 0.84504 0.75618 0.0
C856 C 0.03151 0.96624 0.62503 0.0
C857 C -0.01557 0.9593 0.749 0.0
C858 C 0.92851 0.85474 0.63888 0.0
O859 O 0.09173 0.74801 0.68264 0.0
O860 O 0.06428 0.81156 0.63958 0.0
O861 O 0.50003 0.9549 0.26401 0.0
Mg862 Mg 0.45091 0.90615 0.29157 0.0
O863 O 0.45947 0.9147 0.20618 0.0
Mg864 Mg 0.42703 0.83643 0.2452 0.0
O865 O 0.48428 0.83715 0.3077 0.0
O866 O 0.4647 0.89552 0.3622 0.0
O867 O 0.39619 0.7679 0.28246 0.0
O868 O 0.46984 0.77684 0.19872 0.0
Mg869 Mg 0.34923 0.7673 0.17151 0.0
O870 O 0.37212 0.83433 0.18943 0.0
O871 O 0.32835 0.74478 0.24241 0.0
O872 O 0.41406 0.73112 0.15728 0.0
O873 O 0.31612 0.8268 0.13365 0.0
C874 C 0.35556 0.90798 0.31082 0.0
C875 C 0.48586 0.95204 0.22023 0.0
C876 C 0.48489 0.85436 0.35187 0.0
C877 C 0.35635 0.74372 0.27985 0.0
C878 C 0.45671 0.73831 0.17394 0.0
C879 C 0.3403 0.85489 0.16255 0.0
O880 O 0.38245 0.94335 0.29891 0.0
O881 O 0.36854 0.86613 0.29684 0.0
O882 O 0.96727 0.69658 0.91821 0.0
Mg883 Mg 0.93279 0.63124 0.92426 0.0
O884 O 0.92329 0.74777 0.96681 0.0
Mg885 Mg 0.86237 0.6997 0.00433 0.0
O886 O 0.86613 0.65488 0.93895 0.0
O887 O 0.87971 0.60616 0.87681 0.0
O888 O 0.82409 0.637 0.03515 0.0
O889 O 0.78737 0.73846 0.97023 0.0
Mg890 Mg 0.7875 0.72816 0.06275 0.0
O891 O 0.86058 0.74709 0.07819 0.0
O892 O 0.75316 0.65891 0.06061 0.0
O893 O 0.74489 0.77852 0.02667 0.0
O894 O 0.79878 0.74302 0.13357 0.0
C895 C 0.94571 0.61421 0.03328 0.0
C896 C 0.95976 0.73751 0.93826 0.0
C897 C 0.84921 0.62589 0.9068 0.0
C898 C 0.78473 0.62601 0.05536 0.0
C899 C 0.74961 0.7645 -0.01701 0.0
C900 C 0.84333 0.75374 0.12251 0.0
O901 O 0.94735 0.59504 -0.00905 0.0
O902 O 0.92628 0.65622 0.04127 0.0
O903 O 0.70009 0.15867 0.52078 0.0
Mg904 Mg 0.68664 0.21302 0.56997 0.0
O905 O 0.67467 0.21996 0.47124 0.0
Mg906 Mg 0.60741 0.26956 0.51096 0.0
O907 O 0.61016 0.21487 0.5732 0.0
O908 O 0.65794 0.21874 0.63884 0.0
O909 O 0.55592 0.31371 0.55965 0.0
O910 O 0.53513 0.2338 0.47384 0.0
Mg911 Mg 0.52853 0.34142 0.45061 0.0
O912 O 0.60281 0.32848 0.45424 0.0
O913 O 0.49386 0.34618 0.51881 0.0
O914 O 0.50414 0.28175 0.4133 0.0
O915 O 0.57048 0.40264 0.44547 0.0
C916 C 0.7082 0.31477 0.55612 0.0
C917 C 0.70295 0.18188 0.48044 0.0
C918 C 0.61484 0.22122 0.61988 0.0
C919 C 0.51582 0.33707 0.55862 0.0
C920 C 0.50258 0.24374 0.44032 0.0
C921 C 0.60706 0.37555 0.45822 0.0
O922 O 0.73027 0.27476 0.55053 0.0
O923 O 0.66345 0.31683 0.54565 0.0
O924 O 0.21251 0.55019 0.01583 0.0
Mg925 Mg 0.14139 0.52709 0.02454 0.0
O926 O 0.25102 0.48568 0.05101 0.0
Mg927 Mg 0.19829 0.44775 0.10801 0.0
O928 O 0.14845 0.50794 0.09457 0.0
O929 O 0.09087 0.55916 0.07227 0.0
O930 O 0.13524 0.40957 0.1448 0.0
O931 O 0.22967 0.47596 0.18491 0.0
Mg932 Mg 0.22342 0.3586 0.18869 0.0
O933 O 0.24813 0.38769 0.12134 0.0
O934 O 0.14937 0.36679 0.21113 0.0
O935 O 0.26257 0.41101 0.22596 0.0
O936 O 0.22473 0.3118 0.12801 0.0
C937 C 0.13482 0.4139 0.0115 0.0
C938 C 0.24717 0.51955 0.01761 0.0
C939 C 0.10966 0.5308 0.10533 0.0
C940 C 0.11951 0.3844 0.18042 0.0
C941 C 0.25258 0.4564 0.22216 0.0
C942 C 0.24212 0.34644 0.10121 0.0
O943 O 0.12105 0.45676 -0.00163 0.0
O944 O 0.16792 0.40653 0.04326 0.0
O945 O 0.31352 0.51989 0.9659 0.0
Mg946 Mg 0.34756 0.46831 0.92608 0.0
O947 O 0.24423 0.48326 0.93828 0.0
Mg948 Mg 0.25706 0.44555 0.85738 0.0
O949 O 0.32115 0.49321 0.8583 0.0
O950 O 0.39681 0.46865 0.8687 0.0
O951 O 0.28428 0.41312 0.78561 0.0
O952 O 0.21903 0.49939 0.8021 0.0
Mg953 Mg 0.17772 0.37955 0.78924 0.0
O954 O 0.18903 0.39965 0.85877 0.0
O955 O 0.24432 0.34257 0.77922 0.0
O956 O 0.18409 0.44472 0.75048 0.0
O957 O 0.13073 0.34813 0.84013 0.0
C958 C 0.31702 0.36752 0.9275 0.0
C959 C 0.26866 0.50922 0.97038 0.0
C960 C 0.36352 0.48678 0.84042 0.0
C961 C 0.28339 0.36769 0.7758 0.0
C962 C 0.20222 0.48647 0.75955 0.0
C963 C 0.16524 0.36032 0.86994 0.0
O964 O 0.32745 0.39982 0.95836 0.0
O965 O 0.29554 0.38035 0.8888 0.0
O966 O 0.29122 0.42291 0.504 0.0
Mg967 Mg 0.35087 0.46921 0.51406 0.0
O968 O 0.23179 0.45662 0.55191 0.0
Mg969 Mg 0.27021 0.51882 0.59595 0.0
O970 O 0.33538 0.4695 0.59098 0.0
O971 O 0.40984 0.47381 0.56235 0.0
O972 O 0.32113 0.57646 0.61974 0.0
O973 O 0.24144 0.49659 0.68147 0.0
Mg974 Mg 0.24243 0.58447 0.66535 0.0
O975 O 0.21026 0.57242 0.5955 0.0
O976 O 0.31423 0.57266 0.69738 0.0
O977 O 0.19481 0.55758 0.71293 0.0
O978 O 0.23634 0.6453 0.62286 0.0
C979 C 0.31839 0.5636 0.49627 0.0
C980 C 0.24668 0.42952 0.5157 0.0
C981 C 0.38102 0.47544 0.59938 0.0
C982 C 0.34051 0.58127 0.66092 0.0
C983 C 0.21347 0.51511 0.71602 0.0
C984 C 0.21723 0.61889 0.58865 0.0
O985 O 0.34343 0.53581 0.46952 0.0
O986 O 0.28359 0.54191 0.51773 0.0
O987 O 0.17024 0.41833 0.48442 0.0
Mg988 Mg 0.10424 0.43028 0.44843 0.0
O989 O 0.22866 0.45169 0.43456 0.0
Mg990 Mg 0.18593 0.49956 0.37658 0.0
O991 O 0.13603 0.43836 0.38262 0.0
O992 O 0.07346 0.39129 0.38696 0.0
O993 O 0.12974 0.54627 0.33635 0.0
O994 O 0.22194 0.46965 0.3013 0.0
Mg995 Mg 0.22212 0.5699 0.29536 0.0
O996 O 0.23958 0.55911 0.37 0.0
O997 O 0.1531 0.55583 0.26154 0.0
O998 O 0.27303 0.52492 0.26676 0.0
O999 O 0.22204 0.6316 0.33759 0.0
C1000 C 0.10987 0.54301 0.45125 0.0
C1001 C 0.21442 0.4283 0.47398 0.0
C1002 C 0.10235 0.41662 0.35983 0.0
C1003 C 0.12049 0.56105 0.29337 0.0
C1004 C 0.2534 0.48277 0.26787 0.0
C1005 C 0.23334 0.60532 0.37537 0.0
O1006 O 0.08183 0.50567 0.4561 0.0
O1007 O 0.15535 0.53639 0.44508 0.0
loop_
_geom_bond_atom_site_label_1
_geom_bond_atom_site_label_2
_geom_bond_distance
_geom_bond_site_symmetry_2
_ccdc_geom_bond_type
O0 Mg1 1.990 . S
O0 C14 1.253 . S
Mg1 O0 1.990 . S
Mg1 O4 2.180 . S
Mg1 O5 2.117 . S
Mg1 O19 2.030 1_655 S
O2 Mg3 2.072 . S
O2 C14 1.260 1_455 S
Mg3 O2 2.072 . S
Mg3 O4 2.099 1_455 S
Mg3 O6 2.079 . S
Mg3 O7 2.069 1_455 S
Mg3 O9 2.099 . S
Mg3 O20 2.079 . S
O4 Mg1 2.180 . S
O4 Mg3 2.099 1_655 S
O4 C15 1.279 . S
O5 Mg1 2.117 . S
O5 C15 1.250 . S
O6 Mg3 2.079 . S
O6 C16 1.264 . S
O7 Mg3 2.069 1_655 S
O7 C17 1.260 . S
Mg8 O9 2.180 . S
Mg8 O10 2.030 . S
Mg8 O11 1.990 . S
Mg8 O12 2.117 . S
O9 Mg3 2.099 . S
O9 Mg8 2.180 . S
O9 C18 1.279 . S
O10 Mg8 2.030 . S
O10 C16 1.248 . S
O11 Mg8 1.990 . S
O11 C17 1.242 1_455 S
O12 Mg8 2.117 . S
O12 C18 1.250 . S
C13 O19 1.248 . S
C13 O20 1.264 . S
C14 O0 1.253 . S
C14 O2 1.260 1_655 S
C15 O4 1.279 . S
C15 O5 1.250 . S
C16 O6 1.264 . S
C16 O10 1.248 . S
C17 O7 1.260 . S
C17 O11 1.242 1_655 S
C18 O9 1.279 . S
C18 O12 1.250 . S
O19 Mg1 2.030 1_455 S
O19 C13 1.248 . S
O20 Mg3 2.079 . S
O20 C13 1.264 . S
O21 Mg22 1.990 . S
O21 C35 1.253 . S
Mg22 O21 1.990 . S
Mg22 O25 2.180 . S
Mg22 O26 2.117 . S
Mg22 O40 2.030 . S
O23 Mg24 2.072 . S
O23 C35 1.260 . S
Mg24 O23 2.072 . S
Mg24 O25 2.099 . S
Mg24 O27 2.079 . S
Mg24 O28 2.072 . S
Mg24 O30 2.099 . S
Mg24 O41 2.079 . S
O25 Mg22 2.180 . S
O25 Mg24 2.099 . S
O25 C36 1.279 . S
O26 Mg22 2.117 . S
O26 C36 1.250 . S
O27 Mg24 2.079 . S
O27 C37 1.264 . S
O28 Mg24 2.072 . S
O28 C38 1.260 . S
Mg29 O30 2.180 . S
Mg29 O31 2.027 1_655 S
Mg29 O32 1.990 . S
Mg29 O33 2.117 . S
O30 Mg24 2.099 . S
O30 Mg29 2.180 . S
O30 C39 1.279 . S
O31 Mg29 2.027 1_455 S
O31 C37 1.244 1_455 S
O32 Mg29 1.990 . S
O32 C38 1.253 . S
O33 Mg29 2.117 . S
O33 C39 1.250 . S
C34 O40 1.248 . S
C34 O41 1.264 . S
C35 O21 1.253 . S
C35 O23 1.260 . S
C36 O25 1.279 . S
C36 O26 1.250 . S
C37 O27 1.264 . S
C37 O31 1.244 1_655 S
C38 O28 1.260 . S
C38 O32 1.253 . S
C39 O30 1.279 . S
C39 O33 1.250 . S
O40 Mg22 2.030 . S
O40 C34 1.248 . S
O41 Mg24 2.079 . S
O41 C34 1.264 . S
O42 Mg43 1.990 . S
O42 C56 1.253 . S
Mg43 O42 1.990 . S
Mg43 O46 2.180 . S
Mg43 O47 2.117 . S
Mg43 O61 2.030 . S
O44 Mg45 2.072 . S
O44 C56 1.260 . S
Mg45 O44 2.072 . S
Mg45 O46 2.099 . S
Mg45 O48 2.079 . S
Mg45 O49 2.072 . S
Mg45 O51 2.099 . S
Mg45 O62 2.079 . S
O46 Mg43 2.180 . S
O46 Mg45 2.099 . S
O46 C57 1.279 . S
O47 Mg43 2.117 . S
O47 C57 1.250 . S
O48 Mg45 2.079 . S
O48 C58 1.264 . S
O49 Mg45 2.072 . S
O49 C59 1.260 . S
Mg50 O51 2.180 . S
Mg50 O52 2.030 . S
Mg50 O53 1.990 . S
Mg50 O54 2.117 . S
O51 Mg45 2.099 . S
O51 Mg50 2.180 . S
O51 C60 1.279 . S
O52 Mg50 2.030 . S
O52 C58 1.248 . S
O53 Mg50 1.990 . S
O53 C59 1.253 . S
O54 Mg50 2.117 . S
O54 C60 1.250 . S
C55 O61 1.248 . S
C55 O62 1.264 . S
C56 O42 1.253 . S
C56 O44 1.260 . S
C57 O46 1.279 . S
C57 O47 1.250 . S
C58 O48 1.264 . S
C58 O52 1.248 . S
C59 O49 1.260 . S
C59 O53 1.253 . S
C60 O51 1.279 . S
C60 O54 1.250 . S
O61 Mg43 2.030 . S
O61 C55 1.248 . S
O62 Mg45 2.079 . S
O62 C55 1.264 . S
O63 Mg64 1.990 . S
O63 C77 1.242 1_554 S
Mg64 O63 1.990 . S
Mg64 O67 2.180 . S
Mg64 O68 2.117 . S
Mg64 O82 2.030 . S
O65 Mg66 2.069 1_556 S
O65 C77 1.260 . S
Mg66 O65 2.069 1_554 S
Mg66 O67 2.099 . S
Mg66 O69 2.079 . S
Mg66 O70 2.072 . S
Mg66 O72 2.099 1_554 S
Mg66 O83 2.079 . S
O67 Mg64 2.180 . S
O67 Mg66 2.099 . S
O67 C78 1.279 . S
O68 Mg64 2.117 . S
O68 C78 1.250 . S
O69 Mg66 2.079 . S
O69 C79 1.264 . S
O70 Mg66 2.072 . S
O70 C80 1.260 1_554 S
Mg71 O72 2.180 . S
Mg71 O73 2.030 1_556 S
Mg71 O74 1.990 . S
Mg71 O75 2.117 . S
O72 Mg66 2.099 1_556 S
O72 Mg71 2.180 . S
O72 C81 1.279 . S
O73 Mg71 2.030 1_554 S
O73 C79 1.248 . S
O74 Mg71 1.990 . S
O74 C80 1.253 . S
O75 Mg71 2.117 . S
O75 C81 1.250 . S
C76 O82 1.248 . S
C76 O83 1.264 . S
C77 O63 1.242 1_556 S
C77 O65 1.260 . S
C78 O67 1.279 . S
C78 O68 1.250 . S
C79 O69 1.264 . S
C79 O73 1.248 . S
C80 O70 1.260 1_556 S
C80 O74 1.253 . S
C81 O72 1.279 . S
C81 O75 1.250 . S
O82 Mg64 2.030 . S
O82 C76 1.248 . S
O83 Mg66 2.079 . S
O83 C76 1.264 . S
O84 Mg85 1.990 . S
O84 C98 1.253 . S
Mg85 O84 1.990 . S
Mg85 O88 2.180 . S
Mg85 O89 2.117 . S
Mg85 O103 2.030 1_655 S
O86 Mg87 2.072 . S
O86 C98 1.260 1_455 S
Mg87 O86 2.072 . S
Mg87 O88 2.099 1_455 S
Mg87 O90 2.079 . S
Mg87 O91 2.069 1_455 S
Mg87 O93 2.099 . S
Mg87 O104 2.079 . S
O88 Mg85 2.180 . S
O88 Mg87 2.099 1_655 S
O88 C99 1.279 . S
O89 Mg85 2.117 . S
O89 C99 1.250 . S
O90 Mg87 2.079 . S
O90 C100 1.264 . S
O91 Mg87 2.069 1_655 S
O91 C101 1.260 . S
Mg92 O93 2.180 . S
Mg92 O94 2.030 . S
Mg92 O95 1.990 . S
Mg92 O96 2.117 . S
O93 Mg87 2.099 . S
O93 Mg92 2.180 . S
O93 C102 1.279 . S
O94 Mg92 2.030 . S
O94 C100 1.248 . S
O95 Mg92 1.990 . S
O95 C101 1.242 1_455 S
O96 Mg92 2.117 . S
O96 C102 1.250 . S
C97 O103 1.248 . S
C97 O104 1.264 . S
C98 O84 1.253 . S
C98 O86 1.260 1_655 S
C99 O88 1.279 . S
C99 O89 1.250 . S
C100 O90 1.264 . S
C100 O94 1.248 . S
C101 O91 1.260 . S
C101 O95 1.242 1_655 S
C102 O93 1.279 . S
C102 O96 1.250 . S
O103 Mg85 2.030 1_455 S
O103 C97 1.248 . S
O104 Mg87 2.079 . S
O104 C97 1.264 . S
O105 Mg106 1.990 . S
O105 C119 1.253 . S
Mg106 O105 1.990 . S
Mg106 O109 2.180 . S
Mg106 O110 2.117 . S
Mg106 O124 2.030 . S
O107 Mg108 2.072 . S
O107 C119 1.260 . S
Mg108 O107 2.072 . S
Mg108 O109 2.099 . S
Mg108 O111 2.079 . S
Mg108 O112 2.072 . S
Mg108 O114 2.099 . S
Mg108 O125 2.079 . S
O109 Mg106 2.180 . S
O109 Mg108 2.099 . S
O109 C120 1.279 . S
O110 Mg106 2.117 . S
O110 C120 1.250 . S
O111 Mg108 2.079 . S
O111 C121 1.264 . S
O112 Mg108 2.072 . S
O112 C122 1.260 . S
Mg113 O114 2.180 . S
Mg113 O115 2.030 . S
Mg113 O116 1.990 . S
Mg113 O117 2.117 . S
O114 Mg108 2.099 . S
O114 Mg113 2.180 . S
O114 C123 1.279 . S
O115 Mg113 2.030 . S
O115 C121 1.248 . S
O116 Mg113 1.990 . S
O116 C122 1.253 . S
O117 Mg113 2.117 . S
O117 C123 1.250 . S
C118 O124 1.248 . S
C118 O125 1.264 . S
C119 O105 1.253 . S
C119 O107 1.260 . S
C120 O109 1.279 . S
C120 O110 1.250 . S
C121 O111 1.264 . S
C121 O115 1.248 . S
C122 O112 1.260 . S
C122 O116 1.253 . S
C123 O114 1.279 . S
C123 O117 1.250 . S
O124 Mg106 2.030 . S
O124 C118 1.248 . S
O125 Mg108 2.079 . S
O125 C118 1.264 . S
O126 Mg127 1.990 . S
O126 C140 1.253 . S
Mg127 O126 1.990 . S
Mg127 O130 2.180 . S
Mg127 O131 2.117 . S
Mg127 O145 2.030 . S
O128 Mg129 2.072 . S
O128 C140 1.260 . S
Mg129 O128 2.072 . S
Mg129 O130 2.099 . S
Mg129 O132 2.079 . S
Mg129 O133 2.072 . S
Mg129 O135 2.099 . S
Mg129 O146 2.079 . S
O130 Mg127 2.180 . S
O130 Mg129 2.099 . S
O130 C141 1.279 . S
O131 Mg127 2.117 . S
O131 C141 1.250 . S
O132 Mg129 2.079 . S
O132 C142 1.264 . S
O133 Mg129 2.072 . S
O133 C143 1.260 . S
Mg134 O135 2.180 . S
Mg134 O136 2.030 . S
Mg134 O137 1.990 . S
Mg134 O138 2.117 . S
O135 Mg129 2.099 . S
O135 Mg134 2.180 . S
O135 C144 1.279 . S
O136 Mg134 2.030 . S
O136 C142 1.248 . S
O137 Mg134 1.990 . S
O137 C143 1.253 . S
O138 Mg134 2.117 . S
O138 C144 1.250 . S
C139 O145 1.248 . S
C139 O146 1.264 . S
C140 O126 1.253 . S
C140 O128 1.260 . S
C141 O130 1.279 . S
C141 O131 1.250 . S
C142 O132 1.264 . S
C142 O136 1.248 . S
C143 O133 1.260 . S
C143 O137 1.253 . S
C144 O135 1.279 . S
C144 O138 1.250 . S
O145 Mg127 2.030 . S
O145 C139 1.248 . S
O146 Mg129 2.079 . S
O146 C139 1.264 . S
O147 Mg148 1.990 . S
O147 C161 1.242 1_556 S
Mg148 O147 1.990 . S
Mg148 O151 2.180 . S
Mg148 O152 2.117 . S
Mg148 O166 2.030 . S
O149 Mg150 2.069 1_554 S
O149 C161 1.260 . S
Mg150 O149 2.069 1_556 S
Mg150 O151 2.099 . S
Mg150 O153 2.079 . S
Mg150 O154 2.072 . S
Mg150 O156 2.099 1_556 S
Mg150 O167 2.079 . S
O151 Mg148 2.180 . S
O151 Mg150 2.099 . S
O151 C162 1.279 . S
O152 Mg148 2.117 . S
O152 C162 1.250 . S
O153 Mg150 2.079 . S
O153 C163 1.264 . S
O154 Mg150 2.072 . S
O154 C164 1.260 1_556 S
Mg155 O156 2.180 . S
Mg155 O157 2.027 1_654 S
Mg155 O158 1.990 . S
Mg155 O159 2.117 . S
O156 Mg150 2.099 1_554 S
O156 Mg155 2.180 . S
O156 C165 1.279 . S
O157 Mg155 2.027 1_456 S
O157 C163 1.244 1_455 S
O158 Mg155 1.990 . S
O158 C164 1.253 . S
O159 Mg155 2.117 . S
O159 C165 1.250 . S
C160 O166 1.248 . S
C160 O167 1.264 . S
C161 O147 1.242 1_554 S
C161 O149 1.260 . S
C162 O151 1.279 . S
C162 O152 1.250 . S
C163 O153 1.264 . S
C163 O157 1.244 1_655 S
C164 O154 1.260 1_554 S
C164 O158 1.253 . S
C165 O156 1.279 . S
C165 O159 1.250 . S
O166 Mg148 2.030 . S
O166 C160 1.248 . S
O167 Mg150 2.079 . S
O167 C160 1.264 . S
O168 Mg169 1.990 . S
O168 C182 1.253 . S
Mg169 O168 1.990 . S
Mg169 O172 2.180 . S
Mg169 O173 2.117 . S
Mg169 O187 2.030 1_565 S
O170 Mg171 2.072 . S
O170 C182 1.260 1_545 S
Mg171 O170 2.072 . S
Mg171 O172 2.099 1_545 S
Mg171 O174 2.079 . S
Mg171 O175 2.069 1_545 S
Mg171 O177 2.099 . S
Mg171 O188 2.079 . S
O172 Mg169 2.180 . S
O172 Mg171 2.099 1_565 S
O172 C183 1.279 . S
O173 Mg169 2.117 . S
O173 C183 1.250 . S
O174 Mg171 2.079 . S
O174 C184 1.264 . S
O175 Mg171 2.069 1_565 S
O175 C185 1.260 . S
Mg176 O177 2.180 . S
Mg176 O178 2.030 . S
Mg176 O179 1.990 . S
Mg176 O180 2.117 . S
O177 Mg171 2.099 . S
O177 Mg176 2.180 . S
O177 C186 1.279 . S
O178 Mg176 2.030 . S
O178 C184 1.248 . S
O179 Mg176 1.990 . S
O179 C185 1.242 1_545 S
O180 Mg176 2.117 . S
O180 C186 1.250 . S
C181 O187 1.248 . S
C181 O188 1.264 . S
C182 O168 1.253 . S
C182 O170 1.260 1_565 S
C183 O172 1.279 . S
C183 O173 1.250 . S
C184 O174 1.264 . S
C184 O178 1.248 . S
C185 O175 1.260 . S
C185 O179 1.242 1_565 S
C186 O177 1.279 . S
C186 O180 1.250 . S
O187 Mg169 2.030 1_545 S
O187 C181 1.248 . S
O188 Mg171 2.079 . S
O188 C181 1.264 . S
O189 Mg190 1.990 . S
O189 C203 1.253 . S
Mg190 O189 1.990 . S
Mg190 O193 2.180 . S
Mg190 O194 2.117 . S
Mg190 O208 2.030 1_565 S
O191 Mg192 2.072 . S
O191 C203 1.260 1_545 S
Mg192 O191 2.072 . S
Mg192 O193 2.099 1_545 S
Mg192 O195 2.079 . S
Mg192 O196 2.069 1_545 S
Mg192 O198 2.099 . S
Mg192 O209 2.079 . S
O193 Mg190 2.180 . S
O193 Mg192 2.099 1_565 S
O193 C204 1.279 . S
O194 Mg190 2.117 . S
O194 C204 1.250 . S
O195 Mg192 2.079 . S
O195 C205 1.264 . S
O196 Mg192 2.069 1_565 S
O196 C206 1.260 . S
Mg197 O198 2.180 . S
Mg197 O199 2.030 . S
Mg197 O200 1.990 . S
Mg197 O201 2.117 . S
O198 Mg192 2.099 . S
O198 Mg197 2.180 . S
O198 C207 1.279 . S
O199 Mg197 2.030 . S
O199 C205 1.248 . S
O200 Mg197 1.990 . S
O200 C206 1.242 1_545 S
O201 Mg197 2.117 . S
O201 C207 1.250 . S
C202 O208 1.248 . S
C202 O209 1.264 . S
C203 O189 1.253 . S
C203 O191 1.260 1_565 S
C204 O193 1.279 . S
C204 O194 1.250 . S
C205 O195 1.264 . S
C205 O199 1.248 . S
C206 O196 1.260 . S
C206 O200 1.242 1_565 S
C207 O198 1.279 . S
C207 O201 1.250 . S
O208 Mg190 2.030 1_545 S
O208 C202 1.248 . S
O209 Mg192 2.079 . S
O209 C202 1.264 . S
O210 Mg211 1.990 . S
O210 C224 1.253 . S
Mg211 O210 1.990 . S
Mg211 O214 2.180 . S
Mg211 O215 2.117 . S
Mg211 O229 2.027 1_546 S
O212 Mg213 2.072 . S
O212 C224 1.260 1_565 S
Mg213 O212 2.072 . S
Mg213 O214 2.099 1_565 S
Mg213 O216 2.079 . S
Mg213 O217 2.069 1_565 S
Mg213 O219 2.099 . S
Mg213 O230 2.079 . S
O214 Mg211 2.180 . S
O214 Mg213 2.099 1_545 S
O214 C225 1.279 . S
O215 Mg211 2.117 . S
O215 C225 1.250 . S
O216 Mg213 2.079 . S
O216 C226 1.264 . S
O217 Mg213 2.069 1_545 S
O217 C227 1.260 . S
Mg218 O219 2.180 . S
Mg218 O220 2.030 . S
Mg218 O221 1.990 . S
Mg218 O222 2.117 . S
O219 Mg213 2.099 . S
O219 Mg218 2.180 . S
O219 C228 1.279 . S
O220 Mg218 2.030 . S
O220 C226 1.248 . S
O221 Mg218 1.990 . S
O221 C227 1.242 1_565 S
O222 Mg218 2.117 . S
O222 C228 1.250 . S
C223 O229 1.244 1_556 S
C223 O230 1.264 . S
C224 O210 1.253 . S
C224 O212 1.260 1_545 S
C225 O214 1.279 . S
C225 O215 1.250 . S
C226 O216 1.264 . S
C226 O220 1.248 . S
C227 O217 1.260 . S
C227 O221 1.242 1_545 S
C228 O219 1.279 . S
C228 O222 1.250 . S
O229 Mg211 2.027 1_564 S
O229 C223 1.244 1_554 S
O230 Mg213 2.079 . S
O230 C223 1.264 . S
O231 Mg232 1.990 . S
O231 C245 1.242 1_565 S
Mg232 O231 1.990 . S
Mg232 O235 2.180 . S
Mg232 O236 2.117 . S
Mg232 O250 2.030 . S
O233 Mg234 2.069 1_545 S
O233 C245 1.260 . S
Mg234 O233 2.069 1_565 S
Mg234 O235 2.099 . S
Mg234 O237 2.079 . S
Mg234 O238 2.072 . S
Mg234 O240 2.099 1_565 S
Mg234 O251 2.079 . S
O235 Mg232 2.180 . S
O235 Mg234 2.099 . S
O235 C246 1.279 . S
O236 Mg232 2.117 . S
O236 C246 1.250 . S
O237 Mg234 2.079 . S
O237 C247 1.264 . S
O238 Mg234 2.072 . S
O238 C248 1.260 1_565 S
Mg239 O240 2.180 . S
Mg239 O241 2.027 1_544 S
Mg239 O242 1.990 . S
Mg239 O243 2.117 . S
O240 Mg234 2.099 1_545 S
O240 Mg239 2.180 . S
O240 C249 1.279 . S
O241 Mg239 2.027 1_566 S
O241 C247 1.244 1_556 S
O242 Mg239 1.990 . S
O242 C248 1.253 . S
O243 Mg239 2.117 . S
O243 C249 1.250 . S
C244 O250 1.248 . S
C244 O251 1.264 . S
C245 O231 1.242 1_545 S
C245 O233 1.260 . S
C246 O235 1.279 . S
C246 O236 1.250 . S
C247 O237 1.264 . S
C247 O241 1.244 1_554 S
C248 O238 1.260 1_545 S
C248 O242 1.253 . S
C249 O240 1.279 . S
C249 O243 1.250 . S
O250 Mg232 2.030 . S
O250 C244 1.248 . S
O251 Mg234 2.079 . S
O251 C244 1.264 . S
O252 Mg253 1.990 . S
O252 C266 1.242 1_554 S
Mg253 O252 1.990 . S
Mg253 O256 2.180 . S
Mg253 O257 2.117 . S
Mg253 O271 2.030 . S
O254 Mg255 2.069 1_556 S
O254 C266 1.260 . S
Mg255 O254 2.069 1_554 S
Mg255 O256 2.099 . S
Mg255 O258 2.079 . S
Mg255 O259 2.072 . S
Mg255 O261 2.099 1_554 S
Mg255 O272 2.079 . S
O256 Mg253 2.180 . S
O256 Mg255 2.099 . S
O256 C267 1.279 . S
O257 Mg253 2.117 . S
O257 C267 1.250 . S
O258 Mg255 2.079 . S
O258 C268 1.264 . S
O259 Mg255 2.072 . S
O259 C269 1.260 1_554 S
Mg260 O261 2.180 . S
Mg260 O262 2.030 1_556 S
Mg260 O263 1.990 . S
Mg260 O264 2.117 . S
O261 Mg255 2.099 1_556 S
O261 Mg260 2.180 . S
O261 C270 1.279 . S
O262 Mg260 2.030 1_554 S
O262 C268 1.248 . S
O263 Mg260 1.990 . S
O263 C269 1.253 . S
O264 Mg260 2.117 . S
O264 C270 1.250 . S
C265 O271 1.248 . S
C265 O272 1.264 . S
C266 O252 1.242 1_556 S
C266 O254 1.260 . S
C267 O256 1.279 . S
C267 O257 1.250 . S
C268 O258 1.264 . S
C268 O262 1.248 . S
C269 O259 1.260 1_556 S
C269 O263 1.253 . S
C270 O261 1.279 . S
C270 O264 1.250 . S
O271 Mg253 2.030 . S
O271 C265 1.248 . S
O272 Mg255 2.079 . S
O272 C265 1.264 . S
O273 Mg274 1.990 . S
O273 C287 1.253 . S
Mg274 O273 1.990 . S
Mg274 O277 2.180 . S
Mg274 O278 2.117 . S
Mg274 O292 2.027 1_465 S
O275 Mg276 2.072 . S
O275 C287 1.260 1_655 S
Mg276 O275 2.072 . S
Mg276 O277 2.099 1_655 S
Mg276 O279 2.079 . S
Mg276 O280 2.069 1_655 S
Mg276 O282 2.099 . S
Mg276 O293 2.079 . S
O277 Mg274 2.180 . S
O277 Mg276 2.099 1_455 S
O277 C288 1.279 . S
O278 Mg274 2.117 . S
O278 C288 1.250 . S
O279 Mg276 2.079 . S
O279 C289 1.264 . S
O280 Mg276 2.069 1_455 S
O280 C290 1.260 . S
Mg281 O282 2.180 . S
Mg281 O283 2.030 . S
Mg281 O284 1.990 . S
Mg281 O285 2.117 . S
O282 Mg276 2.099 . S
O282 Mg281 2.180 . S
O282 C291 1.279 . S
O283 Mg281 2.030 . S
O283 C289 1.248 . S
O284 Mg281 1.990 . S
O284 C290 1.242 1_655 S
O285 Mg281 2.117 . S
O285 C291 1.250 . S
C286 O292 1.244 1_565 S
C286 O293 1.264 . S
C287 O273 1.253 . S
C287 O275 1.260 1_455 S
C288 O277 1.279 . S
C288 O278 1.250 . S
C289 O279 1.264 . S
C289 O283 1.248 . S
C290 O280 1.260 . S
C290 O284 1.242 1_455 S
C291 O282 1.279 . S
C291 O285 1.250 . S
O292 Mg274 2.027 1_645 S
O292 C286 1.244 1_545 S
O293 Mg276 2.079 . S
O293 C286 1.264 . S
O294 Mg295 1.990 . S
O294 C308 1.253 . S
Mg295 O294 1.990 . S
Mg295 O298 2.180 . S
Mg295 O299 2.117 . S
Mg295 O313 2.027 1_455 S
O296 Mg297 2.072 . S
O296 C308 1.260 . S
Mg297 O296 2.072 . S
Mg297 O298 2.099 . S
Mg297 O300 2.079 . S
Mg297 O301 2.072 . S
Mg297 O303 2.099 . S
Mg297 O314 2.079 . S
O298 Mg295 2.180 . S
O298 Mg297 2.099 . S
O298 C309 1.279 . S
O299 Mg295 2.117 . S
O299 C309 1.250 . S
O300 Mg297 2.079 . S
O300 C310 1.264 . S
O301 Mg297 2.072 . S
O301 C311 1.260 . S
Mg302 O303 2.180 . S
Mg302 O304 2.030 . S
Mg302 O305 1.990 . S
Mg302 O306 2.117 . S
O303 Mg297 2.099 . S
O303 Mg302 2.180 . S
O303 C312 1.279 . S
O304 Mg302 2.030 . S
O304 C310 1.248 . S
O305 Mg302 1.990 . S
O305 C311 1.253 . S
O306 Mg302 2.117 . S
O306 C312 1.250 . S
C307 O313 1.244 1_455 S
C307 O314 1.264 . S
C308 O294 1.253 . S
C308 O296 1.260 . S
C309 O298 1.279 . S
C309 O299 1.250 . S
C310 O300 1.264 . S
C310 O304 1.248 . S
C311 O301 1.260 . S
C311 O305 1.253 . S
C312 O303 1.279 . S
C312 O306 1.250 . S
O313 Mg295 2.027 1_655 S
O313 C307 1.244 1_655 S
O314 Mg297 2.079 . S
O314 C307 1.264 . S
O315 Mg316 1.990 . S
O315 C329 1.253 . S
Mg316 O315 1.990 . S
Mg316 O319 2.180 . S
Mg316 O320 2.117 . S
Mg316 O334 2.030 1_455 S
O317 Mg318 2.072 . S
O317 C329 1.260 1_655 S
Mg318 O317 2.072 . S
Mg318 O319 2.099 1_655 S
Mg318 O321 2.079 . S
Mg318 O322 2.069 1_655 S
Mg318 O324 2.099 . S
Mg318 O335 2.079 . S
O319 Mg316 2.180 . S
O319 Mg318 2.099 1_455 S
O319 C330 1.279 . S
O320 Mg316 2.117 . S
O320 C330 1.250 . S
O321 Mg318 2.079 . S
O321 C331 1.264 . S
O322 Mg318 2.069 1_455 S
O322 C332 1.260 . S
Mg323 O324 2.180 . S
Mg323 O325 2.030 . S
Mg323 O326 1.990 . S
Mg323 O327 2.117 . S
O324 Mg318 2.099 . S
O324 Mg323 2.180 . S
O324 C333 1.279 . S
O325 Mg323 2.030 . S
O325 C331 1.248 . S
O326 Mg323 1.990 . S
O326 C332 1.242 1_655 S
O327 Mg323 2.117 . S
O327 C333 1.250 . S
C328 O334 1.248 . S
C328 O335 1.264 . S
C329 O315 1.253 . S
C329 O317 1.260 1_455 S
C330 O319 1.279 . S
C330 O320 1.250 . S
C331 O321 1.264 . S
C331 O325 1.248 . S
C332 O322 1.260 . S
C332 O326 1.242 1_455 S
C333 O324 1.279 . S
C333 O327 1.250 . S
O334 Mg316 2.030 1_655 S
O334 C328 1.248 . S
O335 Mg318 2.079 . S
O335 C328 1.264 . S
O336 Mg337 1.990 . S
O336 C350 1.253 . S
Mg337 O336 1.990 . S
Mg337 O340 2.180 . S
Mg337 O341 2.117 . S
Mg337 O355 2.030 . S
O338 Mg339 2.072 . S
O338 C350 1.260 . S
Mg339 O338 2.072 . S
Mg339 O340 2.099 . S
Mg339 O342 2.079 . S
Mg339 O343 2.072 . S
Mg339 O345 2.099 . S
Mg339 O356 2.079 . S
O340 Mg337 2.180 . S
O340 Mg339 2.099 . S
O340 C351 1.279 . S
O341 Mg337 2.117 . S
O341 C351 1.250 . S
O342 Mg339 2.079 . S
O342 C352 1.264 . S
O343 Mg339 2.072 . S
O343 C353 1.260 . S
Mg344 O345 2.180 . S
Mg344 O346 2.027 1_455 S
Mg344 O347 1.990 . S
Mg344 O348 2.117 . S
O345 Mg339 2.099 . S
O345 Mg344 2.180 . S
O345 C354 1.279 . S
O346 Mg344 2.027 1_655 S
O346 C352 1.244 1_655 S
O347 Mg344 1.990 . S
O347 C353 1.253 . S
O348 Mg344 2.117 . S
O348 C354 1.250 . S
C349 O355 1.248 . S
C349 O356 1.264 . S
C350 O336 1.253 . S
C350 O338 1.260 . S
C351 O340 1.279 . S
C351 O341 1.250 . S
C352 O342 1.264 . S
C352 O346 1.244 1_455 S
C353 O343 1.260 . S
C353 O347 1.253 . S
C354 O345 1.279 . S
C354 O348 1.250 . S
O355 Mg337 2.030 . S
O355 C349 1.248 . S
O356 Mg339 2.079 . S
O356 C349 1.264 . S
O357 Mg358 1.990 . S
O357 C371 1.253 . S
Mg358 O357 1.990 . S
Mg358 O361 2.180 . S
Mg358 O362 2.117 . S
Mg358 O376 2.030 . S
O359 Mg360 2.072 . S
O359 C371 1.260 . S
Mg360 O359 2.072 . S
Mg360 O361 2.099 . S
Mg360 O363 2.079 . S
Mg360 O364 2.072 . S
Mg360 O366 2.099 . S
Mg360 O377 2.079 . S
O361 Mg358 2.180 . S
O361 Mg360 2.099 . S
O361 C372 1.279 . S
O362 Mg358 2.117 . S
O362 C372 1.250 . S
O363 Mg360 2.079 . S
O363 C373 1.264 . S
O364 Mg360 2.072 . S
O364 C374 1.260 . S
Mg365 O366 2.180 . S
Mg365 O367 2.030 . S
Mg365 O368 1.990 . S
Mg365 O369 2.117 . S
O366 Mg360 2.099 . S
O366 Mg365 2.180 . S
O366 C375 1.279 . S
O367 Mg365 2.030 . S
O367 C373 1.248 . S
O368 Mg365 1.990 . S
O368 C374 1.253 . S
O369 Mg365 2.117 . S
O369 C375 1.250 . S
C370 O376 1.248 . S
C370 O377 1.264 . S
C371 O357 1.253 . S
C371 O359 1.260 . S
C372 O361 1.279 . S
C372 O362 1.250 . S
C373 O363 1.264 . S
C373 O367 1.248 . S
C374 O364 1.260 . S
C374 O368 1.253 . S
C375 O366 1.279 . S
C375 O369 1.250 . S
O376 Mg358 2.030 . S
O376 C370 1.248 . S
O377 Mg360 2.079 . S
O377 C370 1.264 . S
O378 Mg379 1.990 . S
O378 C392 1.242 1_556 S
Mg379 O378 1.990 . S
Mg379 O382 2.180 . S
Mg379 O383 2.117 . S
Mg379 O397 2.030 . S
O380 Mg381 2.069 1_554 S
O380 C392 1.260 . S
Mg381 O380 2.069 1_556 S
Mg381 O382 2.099 . S
Mg381 O384 2.079 . S
Mg381 O385 2.072 . S
Mg381 O387 2.099 1_556 S
Mg381 O398 2.079 . S
O382 Mg379 2.180 . S
O382 Mg381 2.099 . S
O382 C393 1.279 . S
O383 Mg379 2.117 . S
O383 C393 1.250 . S
O384 Mg381 2.079 . S
O384 C394 1.264 . S
O385 Mg381 2.072 . S
O385 C395 1.260 1_556 S
Mg386 O387 2.180 . S
Mg386 O388 2.030 1_554 S
Mg386 O389 1.990 . S
Mg386 O390 2.117 . S
O387 Mg381 2.099 1_554 S
O387 Mg386 2.180 . S
O387 C396 1.279 . S
O388 Mg386 2.030 1_556 S
O388 C394 1.248 . S
O389 Mg386 1.990 . S
O389 C395 1.253 . S
O390 Mg386 2.117 . S
O390 C396 1.250 . S
C391 O397 1.248 . S
C391 O398 1.264 . S
C392 O378 1.242 1_554 S
C392 O380 1.260 . S
C393 O382 1.279 . S
C393 O383 1.250 . S
C394 O384 1.264 . S
C394 O388 1.248 . S
C395 O385 1.260 1_554 S
C395 O389 1.253 . S
C396 O387 1.279 . S
C396 O390 1.250 . S
O397 Mg379 2.030 . S
O397 C391 1.248 . S
O398 Mg381 2.079 . S
O398 C391 1.264 . S
O399 Mg400 1.990 . S
O399 C413 1.253 . S
Mg400 O399 1.990 . S
Mg400 O403 2.180 . S
Mg400 O404 2.117 . S
Mg400 O418 2.030 1_455 S
O401 Mg402 2.072 . S
O401 C413 1.260 1_655 S
Mg402 O401 2.072 . S
Mg402 O403 2.099 1_655 S
Mg402 O405 2.079 . S
Mg402 O406 2.069 1_655 S
Mg402 O408 2.099 . S
Mg402 O419 2.079 . S
O403 Mg400 2.180 . S
O403 Mg402 2.099 1_455 S
O403 C414 1.279 . S
O404 Mg400 2.117 . S
O404 C414 1.250 . S
O405 Mg402 2.079 . S
O405 C415 1.264 . S
O406 Mg402 2.069 1_455 S
O406 C416 1.260 . S
Mg407 O408 2.180 . S
Mg407 O409 2.030 . S
Mg407 O410 1.990 . S
Mg407 O411 2.117 . S
O408 Mg402 2.099 . S
O408 Mg407 2.180 . S
O408 C417 1.279 . S
O409 Mg407 2.030 . S
O409 C415 1.248 . S
O410 Mg407 1.990 . S
O410 C416 1.242 1_655 S
O411 Mg407 2.117 . S
O411 C417 1.250 . S
C412 O418 1.248 . S
C412 O419 1.264 . S
C413 O399 1.253 . S
C413 O401 1.260 1_455 S
C414 O403 1.279 . S
C414 O404 1.250 . S
C415 O405 1.264 . S
C415 O409 1.248 . S
C416 O406 1.260 . S
C416 O410 1.242 1_455 S
C417 O408 1.279 . S
C417 O411 1.250 . S
O418 Mg400 2.030 1_655 S
O418 C412 1.248 . S
O419 Mg402 2.079 . S
O419 C412 1.264 . S
O420 Mg421 1.990 . S
O420 C434 1.253 . S
Mg421 O420 1.990 . S
Mg421 O424 2.180 . S
Mg421 O425 2.117 . S
Mg421 O439 2.030 . S
O422 Mg423 2.072 . S
O422 C434 1.260 . S
Mg423 O422 2.072 . S
Mg423 O424 2.099 . S
Mg423 O426 2.079 . S
Mg423 O427 2.072 . S
Mg423 O429 2.099 . S
Mg423 O440 2.079 . S
O424 Mg421 2.180 . S
O424 Mg423 2.099 . S
O424 C435 1.279 . S
O425 Mg421 2.117 . S
O425 C435 1.250 . S
O426 Mg423 2.079 . S
O426 C436 1.264 . S
O427 Mg423 2.072 . S
O427 C437 1.260 . S
Mg428 O429 2.180 . S
Mg428 O430 2.030 . S
Mg428 O431 1.990 . S
Mg428 O432 2.117 . S
O429 Mg423 2.099 . S
O429 Mg428 2.180 . S
O429 C438 1.279 . S
O430 Mg428 2.030 . S
O430 C436 1.248 . S
O431 Mg428 1.990 . S
O431 C437 1.253 . S
O432 Mg428 2.117 . S
O432 C438 1.250 . S
C433 O439 1.248 . S
C433 O440 1.264 . S
C434 O420 1.253 . S
C434 O422 1.260 . S
C435 O424 1.279 . S
C435 O425 1.250 . S
C436 O426 1.264 . S
C436 O430 1.248 . S
C437 O427 1.260 . S
C437 O431 1.253 . S
C438 O429 1.279 . S
C438 O432 1.250 . S
O439 Mg421 2.030 . S
O439 C433 1.248 . S
O440 Mg423 2.079 . S
O440 C433 1.264 . S
O441 Mg442 1.990 . S
O441 C455 1.253 . S
Mg442 O441 1.990 . S
Mg442 O445 2.180 . S
Mg442 O446 2.117 . S
Mg442 O460 2.030 . S
O443 Mg444 2.072 . S
O443 C455 1.260 . S
Mg444 O443 2.072 . S
Mg444 O445 2.099 . S
Mg444 O447 2.079 . S
Mg444 O448 2.072 . S
Mg444 O450 2.099 . S
Mg444 O461 2.079 . S
O445 Mg442 2.180 . S
O445 Mg444 2.099 . S
O445 C456 1.279 . S
O446 Mg442 2.117 . S
O446 C456 1.250 . S
O447 Mg444 2.079 . S
O447 C457 1.264 . S
O448 Mg444 2.072 . S
O448 C458 1.260 . S
Mg449 O450 2.180 . S
Mg449 O451 2.030 . S
Mg449 O452 1.990 . S
Mg449 O453 2.117 . S
O450 Mg444 2.099 . S
O450 Mg449 2.180 . S
O450 C459 1.279 . S
O451 Mg449 2.030 . S
O451 C457 1.248 . S
O452 Mg449 1.990 . S
O452 C458 1.253 . S
O453 Mg449 2.117 . S
O453 C459 1.250 . S
C454 O460 1.248 . S
C454 O461 1.264 . S
C455 O441 1.253 . S
C455 O443 1.260 . S
C456 O445 1.279 . S
C456 O446 1.250 . S
C457 O447 1.264 . S
C457 O451 1.248 . S
C458 O448 1.260 . S
C458 O452 1.253 . S
C459 O450 1.279 . S
C459 O453 1.250 . S
O460 Mg442 2.030 . S
O460 C454 1.248 . S
O461 Mg444 2.079 . S
O461 C454 1.264 . S
O462 Mg463 1.990 . S
O462 C476 1.242 1_554 S
Mg463 O462 1.990 . S
Mg463 O466 2.180 . S
Mg463 O467 2.117 . S
Mg463 O481 2.030 . S
O464 Mg465 2.069 1_556 S
O464 C476 1.260 . S
Mg465 O464 2.069 1_554 S
Mg465 O466 2.099 . S
Mg465 O468 2.079 . S
Mg465 O469 2.072 . S
Mg465 O471 2.099 1_554 S
Mg465 O482 2.079 . S
O466 Mg463 2.180 . S
O466 Mg465 2.099 . S
O466 C477 1.279 . S
O467 Mg463 2.117 . S
O467 C477 1.250 . S
O468 Mg465 2.079 . S
O468 C478 1.264 . S
O469 Mg465 2.072 . S
O469 C479 1.260 1_554 S
Mg470 O471 2.180 . S
Mg470 O472 2.027 1_456 S
Mg470 O473 1.990 . S
Mg470 O474 2.117 . S
O471 Mg465 2.099 1_556 S
O471 Mg470 2.180 . S
O471 C480 1.279 . S
O472 Mg470 2.027 1_654 S
O472 C478 1.244 1_655 S
O473 Mg470 1.990 . S
O473 C479 1.253 . S
O474 Mg470 2.117 . S
O474 C480 1.250 . S
C475 O481 1.248 . S
C475 O482 1.264 . S
C476 O462 1.242 1_556 S
C476 O464 1.260 . S
C477 O466 1.279 . S
C477 O467 1.250 . S
C478 O468 1.264 . S
C478 O472 1.244 1_455 S
C479 O469 1.260 1_556 S
C479 O473 1.253 . S
C480 O471 1.279 . S
C480 O474 1.250 . S
O481 Mg463 2.030 . S
O481 C475 1.248 . S
O482 Mg465 2.079 . S
O482 C475 1.264 . S
O483 Mg484 1.990 . S
O483 C497 1.253 . S
Mg484 O483 1.990 . S
Mg484 O487 2.180 . S
Mg484 O488 2.117 . S
Mg484 O502 2.030 1_545 S
O485 Mg486 2.072 . S
O485 C497 1.260 1_565 S
Mg486 O485 2.072 . S
Mg486 O487 2.099 1_565 S
Mg486 O489 2.079 . S
Mg486 O490 2.069 1_565 S
Mg486 O492 2.099 . S
Mg486 O503 2.079 . S
O487 Mg484 2.180 . S
O487 Mg486 2.099 1_545 S
O487 C498 1.279 . S
O488 Mg484 2.117 . S
O488 C498 1.250 . S
O489 Mg486 2.079 . S
O489 C499 1.264 . S
O490 Mg486 2.069 1_545 S
O490 C500 1.260 . S
Mg491 O492 2.180 . S
Mg491 O493 2.030 . S
Mg491 O494 1.990 . S
Mg491 O495 2.117 . S
O492 Mg486 2.099 . S
O492 Mg491 2.180 . S
O492 C501 1.279 . S
O493 Mg491 2.030 . S
O493 C499 1.248 . S
O494 Mg491 1.990 . S
O494 C500 1.242 1_565 S
O495 Mg491 2.117 . S
O495 C501 1.250 . S
C496 O502 1.248 . S
C496 O503 1.264 . S
C497 O483 1.253 . S
C497 O485 1.260 1_545 S
C498 O487 1.279 . S
C498 O488 1.250 . S
C499 O489 1.264 . S
C499 O493 1.248 . S
C500 O490 1.260 . S
C500 O494 1.242 1_545 S
C501 O492 1.279 . S
C501 O495 1.250 . S
O502 Mg484 2.030 1_565 S
O502 C496 1.248 . S
O503 Mg486 2.079 . S
O503 C496 1.264 . S
O504 Mg505 1.990 . S
O504 C518 1.253 . S
Mg505 O504 1.990 . S
Mg505 O508 2.180 . S
Mg505 O509 2.117 . S
Mg505 O523 2.030 1_545 S
O506 Mg507 2.072 . S
O506 C518 1.260 1_565 S
Mg507 O506 2.072 . S
Mg507 O508 2.099 1_565 S
Mg507 O510 2.079 . S
Mg507 O511 2.069 1_565 S
Mg507 O513 2.099 . S
Mg507 O524 2.079 . S
O508 Mg505 2.180 . S
O508 Mg507 2.099 1_545 S
O508 C519 1.279 . S
O509 Mg505 2.117 . S
O509 C519 1.250 . S
O510 Mg507 2.079 . S
O510 C520 1.264 . S
O511 Mg507 2.069 1_545 S
O511 C521 1.260 . S
Mg512 O513 2.180 . S
Mg512 O514 2.030 . S
Mg512 O515 1.990 . S
Mg512 O516 2.117 . S
O513 Mg507 2.099 . S
O513 Mg512 2.180 . S
O513 C522 1.279 . S
O514 Mg512 2.030 . S
O514 C520 1.248 . S
O515 Mg512 1.990 . S
O515 C521 1.242 1_565 S
O516 Mg512 2.117 . S
O516 C522 1.250 . S
C517 O523 1.248 . S
C517 O524 1.264 . S
C518 O504 1.253 . S
C518 O506 1.260 1_545 S
C519 O508 1.279 . S
C519 O509 1.250 . S
C520 O510 1.264 . S
C520 O514 1.248 . S
C521 O511 1.260 . S
C521 O515 1.242 1_545 S
C522 O513 1.279 . S
C522 O516 1.250 . S
O523 Mg505 2.030 1_565 S
O523 C517 1.248 . S
O524 Mg507 2.079 . S
O524 C517 1.264 . S
O525 Mg526 1.990 . S
O525 C539 1.253 . S
Mg526 O525 1.990 . S
Mg526 O529 2.180 . S
Mg526 O530 2.117 . S
Mg526 O544 2.027 1_564 S
O527 Mg528 2.072 . S
O527 C539 1.260 1_545 S
Mg528 O527 2.072 . S
Mg528 O529 2.099 1_545 S
Mg528 O531 2.079 . S
Mg528 O532 2.069 1_545 S
Mg528 O534 2.099 . S
Mg528 O545 2.079 . S
O529 Mg526 2.180 . S
O529 Mg528 2.099 1_565 S
O529 C540 1.279 . S
O530 Mg526 2.117 . S
O530 C540 1.250 . S
O531 Mg528 2.079 . S
O531 C541 1.264 . S
O532 Mg528 2.069 1_565 S
O532 C542 1.260 . S
Mg533 O534 2.180 . S
Mg533 O535 2.030 . S
Mg533 O536 1.990 . S
Mg533 O537 2.117 . S
O534 Mg528 2.099 . S
O534 Mg533 2.180 . S
O534 C543 1.279 . S
O535 Mg533 2.030 . S
O535 C541 1.248 . S
O536 Mg533 1.990 . S
O536 C542 1.242 1_545 S
O537 Mg533 2.117 . S
O537 C543 1.250 . S
C538 O544 1.244 1_554 S
C538 O545 1.264 . S
C539 O525 1.253 . S
C539 O527 1.260 1_565 S
C540 O529 1.279 . S
C540 O530 1.250 . S
C541 O531 1.264 . S
C541 O535 1.248 . S
C542 O532 1.260 . S
C542 O536 1.242 1_565 S
C543 O534 1.279 . S
C543 O537 1.250 . S
O544 Mg526 2.027 1_546 S
O544 C538 1.244 1_556 S
O545 Mg528 2.079 . S
O545 C538 1.264 . S
O546 Mg547 1.990 . S
O546 C560 1.242 1_545 S
Mg547 O546 1.990 . S
Mg547 O550 2.180 . S
Mg547 O551 2.117 . S
Mg547 O565 2.030 . S
O548 Mg549 2.069 1_565 S
O548 C560 1.260 . S
Mg549 O548 2.069 1_545 S
Mg549 O550 2.099 . S
Mg549 O552 2.079 . S
Mg549 O553 2.072 . S
Mg549 O555 2.099 1_545 S
Mg549 O566 2.079 . S
O550 Mg547 2.180 . S
O550 Mg549 2.099 . S
O550 C561 1.279 . S
O551 Mg547 2.117 . S
O551 C561 1.250 . S
O552 Mg549 2.079 . S
O552 C562 1.264 . S
O553 Mg549 2.072 . S
O553 C563 1.260 1_545 S
Mg554 O555 2.180 . S
Mg554 O556 2.027 1_566 S
Mg554 O557 1.990 . S
Mg554 O558 2.117 . S
O555 Mg549 2.099 1_565 S
O555 Mg554 2.180 . S
O555 C564 1.279 . S
O556 Mg554 2.027 1_544 S
O556 C562 1.244 1_554 S
O557 Mg554 1.990 . S
O557 C563 1.253 . S
O558 Mg554 2.117 . S
O558 C564 1.250 . S
C559 O565 1.248 . S
C559 O566 1.264 . S
C560 O546 1.242 1_565 S
C560 O548 1.260 . S
C561 O550 1.279 . S
C561 O551 1.250 . S
C562 O552 1.264 . S
C562 O556 1.244 1_556 S
C563 O553 1.260 1_565 S
C563 O557 1.253 . S
C564 O555 1.279 . S
C564 O558 1.250 . S
O565 Mg547 2.030 . S
O565 C559 1.248 . S
O566 Mg549 2.079 . S
O566 C559 1.264 . S
O567 Mg568 1.990 . S
O567 C581 1.242 1_556 S
Mg568 O567 1.990 . S
Mg568 O571 2.180 . S
Mg568 O572 2.117 . S
Mg568 O586 2.030 . S
O569 Mg570 2.069 1_554 S
O569 C581 1.260 . S
Mg570 O569 2.069 1_556 S
Mg570 O571 2.099 . S
Mg570 O573 2.079 . S
Mg570 O574 2.072 . S
Mg570 O576 2.099 1_556 S
Mg570 O587 2.079 . S
O571 Mg568 2.180 . S
O571 Mg570 2.099 . S
O571 C582 1.279 . S
O572 Mg568 2.117 . S
O572 C582 1.250 . S
O573 Mg570 2.079 . S
O573 C583 1.264 . S
O574 Mg570 2.072 . S
O574 C584 1.260 1_556 S
Mg575 O576 2.180 . S
Mg575 O577 2.030 1_554 S
Mg575 O578 1.990 . S
Mg575 O579 2.117 . S
O576 Mg570 2.099 1_554 S
O576 Mg575 2.180 . S
O576 C585 1.279 . S
O577 Mg575 2.030 1_556 S
O577 C583 1.248 . S
O578 Mg575 1.990 . S
O578 C584 1.253 . S
O579 Mg575 2.117 . S
O579 C585 1.250 . S
C580 O586 1.248 . S
C580 O587 1.264 . S
C581 O567 1.242 1_554 S
C581 O569 1.260 . S
C582 O571 1.279 . S
C582 O572 1.250 . S
C583 O573 1.264 . S
C583 O577 1.248 . S
C584 O574 1.260 1_554 S
C584 O578 1.253 . S
C585 O576 1.279 . S
C585 O579 1.250 . S
O586 Mg568 2.030 . S
O586 C580 1.248 . S
O587 Mg570 2.079 . S
O587 C580 1.264 . S
O588 Mg589 1.990 . S
O588 C602 1.242 1_455 S
Mg589 O588 1.990 . S
Mg589 O592 2.180 . S
Mg589 O593 2.117 . S
Mg589 O607 2.030 . S
O590 Mg591 2.069 1_655 S
O590 C602 1.260 . S
Mg591 O590 2.069 1_455 S
Mg591 O592 2.099 . S
Mg591 O594 2.079 . S
Mg591 O595 2.072 . S
Mg591 O597 2.099 1_455 S
Mg591 O608 2.079 . S
O592 Mg589 2.180 . S
O592 Mg591 2.099 . S
O592 C603 1.279 . S
O593 Mg589 2.117 . S
O593 C603 1.250 . S
O594 Mg591 2.079 . S
O594 C604 1.264 . S
O595 Mg591 2.072 . S
O595 C605 1.260 1_455 S
Mg596 O597 2.180 . S
Mg596 O598 2.027 1_645 S
Mg596 O599 1.990 . S
Mg596 O600 2.117 . S
O597 Mg591 2.099 1_655 S
O597 Mg596 2.180 . S
O597 C606 1.279 . S
O598 Mg596 2.027 1_465 S
O598 C604 1.244 1_565 S
O599 Mg596 1.990 . S
O599 C605 1.253 . S
O600 Mg596 2.117 . S
O600 C606 1.250 . S
C601 O607 1.248 . S
C601 O608 1.264 . S
C602 O588 1.242 1_655 S
C602 O590 1.260 . S
C603 O592 1.279 . S
C603 O593 1.250 . S
C604 O594 1.264 . S
C604 O598 1.244 1_545 S
C605 O595 1.260 1_655 S
C605 O599 1.253 . S
C606 O597 1.279 . S
C606 O600 1.250 . S
O607 Mg589 2.030 . S
O607 C601 1.248 . S
O608 Mg591 2.079 . S
O608 C601 1.264 . S
O609 Mg610 1.990 . S
O609 C623 1.253 . S
Mg610 O609 1.990 . S
Mg610 O613 2.180 . S
Mg610 O614 2.117 . S
Mg610 O628 2.030 . S
O611 Mg612 2.072 . S
O611 C623 1.260 . S
Mg612 O611 2.072 . S
Mg612 O613 2.099 . S
Mg612 O615 2.079 . S
Mg612 O616 2.072 . S
Mg612 O618 2.099 . S
Mg612 O629 2.079 . S
O613 Mg610 2.180 . S
O613 Mg612 2.099 . S
O613 C624 1.279 . S
O614 Mg610 2.117 . S
O614 C624 1.250 . S
O615 Mg612 2.079 . S
O615 C625 1.264 . S
O616 Mg612 2.072 . S
O616 C626 1.260 . S
Mg617 O618 2.180 . S
Mg617 O619 2.027 1_655 S
Mg617 O620 1.990 . S
Mg617 O621 2.117 . S
O618 Mg612 2.099 . S
O618 Mg617 2.180 . S
O618 C627 1.279 . S
O619 Mg617 2.027 1_455 S
O619 C625 1.244 1_455 S
O620 Mg617 1.990 . S
O620 C626 1.253 . S
O621 Mg617 2.117 . S
O621 C627 1.250 . S
C622 O628 1.248 . S
C622 O629 1.264 . S
C623 O609 1.253 . S
C623 O611 1.260 . S
C624 O613 1.279 . S
C624 O614 1.250 . S
C625 O615 1.264 . S
C625 O619 1.244 1_655 S
C626 O616 1.260 . S
C626 O620 1.253 . S
C627 O618 1.279 . S
C627 O621 1.250 . S
O628 Mg610 2.030 . S
O628 C622 1.248 . S
O629 Mg612 2.079 . S
O629 C622 1.264 . S
O630 Mg631 1.990 . S
O630 C644 1.253 . S
Mg631 O630 1.990 . S
Mg631 O634 2.180 . S
Mg631 O635 2.117 . S
Mg631 O649 2.027 1_565 S
O632 Mg633 2.072 . S
O632 C644 1.260 . S
Mg633 O632 2.072 . S
Mg633 O634 2.099 . S
Mg633 O636 2.079 . S
Mg633 O637 2.072 . S
Mg633 O639 2.099 . S
Mg633 O650 2.079 . S
O634 Mg631 2.180 . S
O634 Mg633 2.099 . S
O634 C645 1.279 . S
O635 Mg631 2.117 . S
O635 C645 1.250 . S
O636 Mg633 2.079 . S
O636 C646 1.264 . S
O637 Mg633 2.072 . S
O637 C647 1.260 . S
Mg638 O639 2.180 . S
Mg638 O640 2.030 . S
Mg638 O641 1.990 . S
Mg638 O642 2.117 . S
O639 Mg633 2.099 . S
O639 Mg638 2.180 . S
O639 C648 1.279 . S
O640 Mg638 2.030 . S
O640 C646 1.248 . S
O641 Mg638 1.990 . S
O641 C647 1.253 . S
O642 Mg638 2.117 . S
O642 C648 1.250 . S
C643 O649 1.244 1_565 S
C643 O650 1.264 . S
C644 O630 1.253 . S
C644 O632 1.260 . S
C645 O634 1.279 . S
C645 O635 1.250 . S
C646 O636 1.264 . S
C646 O640 1.248 . S
C647 O637 1.260 . S
C647 O641 1.253 . S
C648 O639 1.279 . S
C648 O642 1.250 . S
O649 Mg631 2.027 1_545 S
O649 C643 1.244 1_545 S
O650 Mg633 2.079 . S
O650 C643 1.264 . S
O651 Mg652 1.990 . S
O651 C665 1.253 . S
Mg652 O651 1.990 . S
Mg652 O655 2.180 . S
Mg652 O656 2.117 . S
Mg652 O670 2.027 1_445 S
O653 Mg654 2.072 . S
O653 C665 1.260 1_655 S
Mg654 O653 2.072 . S
Mg654 O655 2.099 1_655 S
Mg654 O657 2.079 . S
Mg654 O658 2.069 1_655 S
Mg654 O660 2.099 . S
Mg654 O671 2.079 . S
O655 Mg652 2.180 . S
O655 Mg654 2.099 1_455 S
O655 C666 1.279 . S
O656 Mg652 2.117 . S
O656 C666 1.250 . S
O657 Mg654 2.079 . S
O657 C667 1.264 . S
O658 Mg654 2.069 1_455 S
O658 C668 1.260 . S
Mg659 O660 2.180 . S
Mg659 O661 2.030 . S
Mg659 O662 1.990 . S
Mg659 O663 2.117 . S
O660 Mg654 2.099 . S
O660 Mg659 2.180 . S
O660 C669 1.279 . S
O661 Mg659 2.030 . S
O661 C667 1.248 . S
O662 Mg659 1.990 . S
O662 C668 1.242 1_655 S
O663 Mg659 2.117 . S
O663 C669 1.250 . S
C664 O670 1.244 1_545 S
C664 O671 1.264 . S
C665 O651 1.253 . S
C665 O653 1.260 1_455 S
C666 O655 1.279 . S
C666 O656 1.250 . S
C667 O657 1.264 . S
C667 O661 1.248 . S
C668 O658 1.260 . S
C668 O662 1.242 1_455 S
C669 O660 1.279 . S
C669 O663 1.250 . S
O670 Mg652 2.027 1_665 S
O670 C664 1.244 1_565 S
O671 Mg654 2.079 . S
O671 C664 1.264 . S
O672 Mg673 1.990 . S
O672 C686 1.253 . S
Mg673 O672 1.990 . S
Mg673 O676 2.180 . S
Mg673 O677 2.117 . S
Mg673 O691 2.027 1_545 S
O674 Mg675 2.072 . S
O674 C686 1.260 . S
Mg675 O674 2.072 . S
Mg675 O676 2.099 . S
Mg675 O678 2.079 . S
Mg675 O679 2.072 . S
Mg675 O681 2.099 . S
Mg675 O692 2.079 . S
O676 Mg673 2.180 . S
O676 Mg675 2.099 . S
O676 C687 1.279 . S
O677 Mg673 2.117 . S
O677 C687 1.250 . S
O678 Mg675 2.079 . S
O678 C688 1.264 . S
O679 Mg675 2.072 . S
O679 C689 1.260 . S
Mg680 O681 2.180 . S
Mg680 O682 2.030 . S
Mg680 O683 1.990 . S
Mg680 O684 2.117 . S
O681 Mg675 2.099 . S
O681 Mg680 2.180 . S
O681 C690 1.279 . S
O682 Mg680 2.030 . S
O682 C688 1.248 . S
O683 Mg680 1.990 . S
O683 C689 1.253 . S
O684 Mg680 2.117 . S
O684 C690 1.250 . S
C685 O691 1.244 1_545 S
C685 O692 1.264 . S
C686 O672 1.253 . S
C686 O674 1.260 . S
C687 O676 1.279 . S
C687 O677 1.250 . S
C688 O678 1.264 . S
C688 O682 1.248 . S
C689 O679 1.260 . S
C689 O683 1.253 . S
C690 O681 1.279 . S
C690 O684 1.250 . S
O691 Mg673 2.027 1_565 S
O691 C685 1.244 1_565 S
O692 Mg675 2.079 . S
O692 C685 1.264 . S
O693 Mg694 1.990 . S
O693 C707 1.242 1_556 S
Mg694 O693 1.990 . S
Mg694 O697 2.180 . S
Mg694 O698 2.117 . S
Mg694 O712 2.030 . S
O695 Mg696 2.069 1_554 S
O695 C707 1.260 . S
Mg696 O695 2.069 1_556 S
Mg696 O697 2.099 . S
Mg696 O699 2.079 . S
Mg696 O700 2.072 . S
Mg696 O702 2.099 1_556 S
Mg696 O713 2.079 . S
O697 Mg694 2.180 . S
O697 Mg696 2.099 . S
O697 C708 1.279 . S
O698 Mg694 2.117 . S
O698 C708 1.250 . S
O699 Mg696 2.079 . S
O699 C709 1.264 . S
O700 Mg696 2.072 . S
O700 C710 1.260 1_556 S
Mg701 O702 2.180 . S
Mg701 O703 2.027 1_454 S
Mg701 O704 1.990 . S
Mg701 O705 2.117 . S
O702 Mg696 2.099 1_554 S
O702 Mg701 2.180 . S
O702 C711 1.279 . S
O703 Mg701 2.027 1_656 S
O703 C709 1.244 1_655 S
O704 Mg701 1.990 . S
O704 C710 1.253 . S
O705 Mg701 2.117 . S
O705 C711 1.250 . S
C706 O712 1.248 . S
C706 O713 1.264 . S
C707 O693 1.242 1_554 S
C707 O695 1.260 . S
C708 O697 1.279 . S
C708 O698 1.250 . S
C709 O699 1.264 . S
C709 O703 1.244 1_455 S
C710 O700 1.260 1_554 S
C710 O704 1.253 . S
C711 O702 1.279 . S
C711 O705 1.250 . S
O712 Mg694 2.030 . S
O712 C706 1.248 . S
O713 Mg696 2.079 . S
O713 C706 1.264 . S
O714 Mg715 1.990 . S
O714 C728 1.253 . S
Mg715 O714 1.990 . S
Mg715 O718 2.180 . S
Mg715 O719 2.117 . S
Mg715 O733 2.030 . S
O716 Mg717 2.072 . S
O716 C728 1.260 . S
Mg717 O716 2.072 . S
Mg717 O718 2.099 . S
Mg717 O720 2.079 . S
Mg717 O721 2.072 . S
Mg717 O723 2.099 . S
Mg717 O734 2.079 . S
O718 Mg715 2.180 . S
O718 Mg717 2.099 . S
O718 C729 1.279 . S
O719 Mg715 2.117 . S
O719 C729 1.250 . S
O720 Mg717 2.079 . S
O720 C730 1.264 . S
O721 Mg717 2.072 . S
O721 C731 1.260 . S
Mg722 O723 2.180 . S
Mg722 O724 2.030 . S
Mg722 O725 1.990 . S
Mg722 O726 2.117 . S
O723 Mg717 2.099 . S
O723 Mg722 2.180 . S
O723 C732 1.279 . S
O724 Mg722 2.030 . S
O724 C730 1.248 . S
O725 Mg722 1.990 . S
O725 C731 1.253 . S
O726 Mg722 2.117 . S
O726 C732 1.250 . S
C727 O733 1.248 . S
C727 O734 1.264 . S
C728 O714 1.253 . S
C728 O716 1.260 . S
C729 O718 1.279 . S
C729 O719 1.250 . S
C730 O720 1.264 . S
C730 O724 1.248 . S
C731 O721 1.260 . S
C731 O725 1.253 . S
C732 O723 1.279 . S
C732 O726 1.250 . S
O733 Mg715 2.030 . S
O733 C727 1.248 . S
O734 Mg717 2.079 . S
O734 C727 1.264 . S
O735 Mg736 1.990 . S
O735 C749 1.253 . S
Mg736 O735 1.990 . S
Mg736 O739 2.180 . S
Mg736 O740 2.117 . S
Mg736 O754 2.027 1_556 S
O737 Mg738 2.072 . S
O737 C749 1.260 . S
Mg738 O737 2.072 . S
Mg738 O739 2.099 . S
Mg738 O741 2.079 . S
Mg738 O742 2.072 . S
Mg738 O744 2.099 . S
Mg738 O755 2.079 . S
O739 Mg736 2.180 . S
O739 Mg738 2.099 . S
O739 C750 1.279 . S
O740 Mg736 2.117 . S
O740 C750 1.250 . S
O741 Mg738 2.079 . S
O741 C751 1.264 . S
O742 Mg738 2.072 . S
O742 C752 1.260 . S
Mg743 O744 2.180 . S
Mg743 O745 2.030 . S
Mg743 O746 1.990 . S
Mg743 O747 2.117 . S
O744 Mg738 2.099 . S
O744 Mg743 2.180 . S
O744 C753 1.279 . S
O745 Mg743 2.030 . S
O745 C751 1.248 . S
O746 Mg743 1.990 . S
O746 C752 1.253 . S
O747 Mg743 2.117 . S
O747 C753 1.250 . S
C748 O754 1.244 1_556 S
C748 O755 1.264 . S
C749 O735 1.253 . S
C749 O737 1.260 . S
C750 O739 1.279 . S
C750 O740 1.250 . S
C751 O741 1.264 . S
C751 O745 1.248 . S
C752 O742 1.260 . S
C752 O746 1.253 . S
C753 O744 1.279 . S
C753 O747 1.250 . S
O754 Mg736 2.027 1_554 S
O754 C748 1.244 1_554 S
O755 Mg738 2.079 . S
O755 C748 1.264 . S
O756 Mg757 1.990 . S
O756 C770 1.253 . S
Mg757 O756 1.990 . S
Mg757 O760 2.180 . S
Mg757 O761 2.117 . S
Mg757 O775 2.030 . S
O758 Mg759 2.072 . S
O758 C770 1.260 . S
Mg759 O758 2.072 . S
Mg759 O760 2.099 . S
Mg759 O762 2.079 . S
Mg759 O763 2.072 . S
Mg759 O765 2.099 . S
Mg759 O776 2.079 . S
O760 Mg757 2.180 . S
O760 Mg759 2.099 . S
O760 C771 1.279 . S
O761 Mg757 2.117 . S
O761 C771 1.250 . S
O762 Mg759 2.079 . S
O762 C772 1.264 . S
O763 Mg759 2.072 . S
O763 C773 1.260 . S
Mg764 O765 2.180 . S
Mg764 O766 2.027 1_554 S
Mg764 O767 1.990 . S
Mg764 O768 2.117 . S
O765 Mg759 2.099 . S
O765 Mg764 2.180 . S
O765 C774 1.279 . S
O766 Mg764 2.027 1_556 S
O766 C772 1.244 1_556 S
O767 Mg764 1.990 . S
O767 C773 1.253 . S
O768 Mg764 2.117 . S
O768 C774 1.250 . S
C769 O775 1.248 . S
C769 O776 1.264 . S
C770 O756 1.253 . S
C770 O758 1.260 . S
C771 O760 1.279 . S
C771 O761 1.250 . S
C772 O762 1.264 . S
C772 O766 1.244 1_554 S
C773 O763 1.260 . S
C773 O767 1.253 . S
C774 O765 1.279 . S
C774 O768 1.250 . S
O775 Mg757 2.030 . S
O775 C769 1.248 . S
O776 Mg759 2.079 . S
O776 C769 1.264 . S
O777 Mg778 1.990 . S
O777 C791 1.253 . S
Mg778 O777 1.990 . S
Mg778 O781 2.180 . S
Mg778 O782 2.117 . S
Mg778 O796 2.030 . S
O779 Mg780 2.072 . S
O779 C791 1.260 . S
Mg780 O779 2.072 . S
Mg780 O781 2.099 . S
Mg780 O783 2.079 . S
Mg780 O784 2.072 . S
Mg780 O786 2.099 . S
Mg780 O797 2.079 . S
O781 Mg778 2.180 . S
O781 Mg780 2.099 . S
O781 C792 1.279 . S
O782 Mg778 2.117 . S
O782 C792 1.250 . S
O783 Mg780 2.079 . S
O783 C793 1.264 . S
O784 Mg780 2.072 . S
O784 C794 1.260 . S
Mg785 O786 2.180 . S
Mg785 O787 2.030 . S
Mg785 O788 1.990 . S
Mg785 O789 2.117 . S
O786 Mg780 2.099 . S
O786 Mg785 2.180 . S
O786 C795 1.279 . S
O787 Mg785 2.030 . S
O787 C793 1.248 . S
O788 Mg785 1.990 . S
O788 C794 1.253 . S
O789 Mg785 2.117 . S
O789 C795 1.250 . S
C790 O796 1.248 . S
C790 O797 1.264 . S
C791 O777 1.253 . S
C791 O779 1.260 . S
C792 O781 1.279 . S
C792 O782 1.250 . S
C793 O783 1.264 . S
C793 O787 1.248 . S
C794 O784 1.260 . S
C794 O788 1.253 . S
C795 O786 1.279 . S
C795 O789 1.250 . S
O796 Mg778 2.030 . S
O796 C790 1.248 . S
O797 Mg780 2.079 . S
O797 C790 1.264 . S
O798 Mg799 1.990 . S
O798 C812 1.253 . S
Mg799 O798 1.990 . S
Mg799 O802 2.180 . S
Mg799 O803 2.117 . S
Mg799 O817 2.030 . S
O800 Mg801 2.072 . S
O800 C812 1.260 . S
Mg801 O800 2.072 . S
Mg801 O802 2.099 . S
Mg801 O804 2.079 . S
Mg801 O805 2.072 . S
Mg801 O807 2.099 . S
Mg801 O818 2.079 . S
O802 Mg799 2.180 . S
O802 Mg801 2.099 . S
O802 C813 1.279 . S
O803 Mg799 2.117 . S
O803 C813 1.250 . S
O804 Mg801 2.079 . S
O804 C814 1.264 . S
O805 Mg801 2.072 . S
O805 C815 1.260 . S
Mg806 O807 2.180 . S
Mg806 O808 2.030 . S
Mg806 O809 1.990 . S
Mg806 O810 2.117 . S
O807 Mg801 2.099 . S
O807 Mg806 2.180 . S
O807 C816 1.279 . S
O808 Mg806 2.030 . S
O808 C814 1.248 . S
O809 Mg806 1.990 . S
O809 C815 1.253 . S
O810 Mg806 2.117 . S
O810 C816 1.250 . S
C811 O817 1.248 . S
C811 O818 1.264 . S
C812 O798 1.253 . S
C812 O800 1.260 . S
C813 O802 1.279 . S
C813 O803 1.250 . S
C814 O804 1.264 . S
C814 O808 1.248 . S
C815 O805 1.260 . S
C815 O809 1.253 . S
C816 O807 1.279 . S
C816 O810 1.250 . S
O817 Mg799 2.030 . S
O817 C811 1.248 . S
O818 Mg801 2.079 . S
O818 C811 1.264 . S
O819 Mg820 1.990 . S
O819 C833 1.253 . S
Mg820 O819 1.990 . S
Mg820 O823 2.180 . S
Mg820 O824 2.117 . S
Mg820 O838 2.027 1_545 S
O821 Mg822 2.072 . S
O821 C833 1.260 . S
Mg822 O821 2.072 . S
Mg822 O823 2.099 . S
Mg822 O825 2.079 . S
Mg822 O826 2.072 . S
Mg822 O828 2.099 . S
Mg822 O839 2.079 . S
O823 Mg820 2.180 . S
O823 Mg822 2.099 . S
O823 C834 1.279 . S
O824 Mg820 2.117 . S
O824 C834 1.250 . S
O825 Mg822 2.079 . S
O825 C835 1.264 . S
O826 Mg822 2.072 . S
O826 C836 1.260 . S
Mg827 O828 2.180 . S
Mg827 O829 2.030 . S
Mg827 O830 1.990 . S
Mg827 O831 2.117 . S
O828 Mg822 2.099 . S
O828 Mg827 2.180 . S
O828 C837 1.279 . S
O829 Mg827 2.030 . S
O829 C835 1.248 . S
O830 Mg827 1.990 . S
O830 C836 1.253 . S
O831 Mg827 2.117 . S
O831 C837 1.250 . S
C832 O838 1.244 1_545 S
C832 O839 1.264 . S
C833 O819 1.253 . S
C833 O821 1.260 . S
C834 O823 1.279 . S
C834 O824 1.250 . S
C835 O825 1.264 . S
C835 O829 1.248 . S
C836 O826 1.260 . S
C836 O830 1.253 . S
C837 O828 1.279 . S
C837 O831 1.250 . S
O838 Mg820 2.027 1_565 S
O838 C832 1.244 1_565 S
O839 Mg822 2.079 . S
O839 C832 1.264 . S
O840 Mg841 1.990 . S
O840 C854 1.242 1_455 S
Mg841 O840 1.990 . S
Mg841 O844 2.180 . S
Mg841 O845 2.117 . S
Mg841 O859 2.030 . S
O842 Mg843 2.069 1_655 S
O842 C854 1.260 . S
Mg843 O842 2.069 1_455 S
Mg843 O844 2.099 . S
Mg843 O846 2.079 . S
Mg843 O847 2.072 . S
Mg843 O849 2.099 1_455 S
Mg843 O860 2.079 . S
O844 Mg841 2.180 . S
O844 Mg843 2.099 . S
O844 C855 1.279 . S
O845 Mg841 2.117 . S
O845 C855 1.250 . S
O846 Mg843 2.079 . S
O846 C856 1.264 . S
O847 Mg843 2.072 . S
O847 C857 1.260 1_455 S
Mg848 O849 2.180 . S
Mg848 O850 2.027 1_665 S
Mg848 O851 1.990 . S
Mg848 O852 2.117 . S
O849 Mg843 2.099 1_655 S
O849 Mg848 2.180 . S
O849 C858 1.279 . S
O850 Mg848 2.027 1_445 S
O850 C856 1.244 1_545 S
O851 Mg848 1.990 . S
O851 C857 1.253 . S
O852 Mg848 2.117 . S
O852 C858 1.250 . S
C853 O859 1.248 . S
C853 O860 1.264 . S
C854 O840 1.242 1_655 S
C854 O842 1.260 . S
C855 O844 1.279 . S
C855 O845 1.250 . S
C856 O846 1.264 . S
C856 O850 1.244 1_565 S
C857 O847 1.260 1_655 S
C857 O851 1.253 . S
C858 O849 1.279 . S
C858 O852 1.250 . S
O859 Mg841 2.030 . S
O859 C853 1.248 . S
O860 Mg843 2.079 . S
O860 C853 1.264 . S
O861 Mg862 1.990 . S
O861 C875 1.253 . S
Mg862 O861 1.990 . S
Mg862 O865 2.180 . S
Mg862 O866 2.117 . S
Mg862 O880 2.027 1_565 S
O863 Mg864 2.072 . S
O863 C875 1.260 . S
Mg864 O863 2.072 . S
Mg864 O865 2.099 . S
Mg864 O867 2.079 . S
Mg864 O868 2.072 . S
Mg864 O870 2.099 . S
Mg864 O881 2.079 . S
O865 Mg862 2.180 . S
O865 Mg864 2.099 . S
O865 C876 1.279 . S
O866 Mg862 2.117 . S
O866 C876 1.250 . S
O867 Mg864 2.079 . S
O867 C877 1.264 . S
O868 Mg864 2.072 . S
O868 C878 1.260 . S
Mg869 O870 2.180 . S
Mg869 O871 2.030 . S
Mg869 O872 1.990 . S
Mg869 O873 2.117 . S
O870 Mg864 2.099 . S
O870 Mg869 2.180 . S
O870 C879 1.279 . S
O871 Mg869 2.030 . S
O871 C877 1.248 . S
O872 Mg869 1.990 . S
O872 C878 1.253 . S
O873 Mg869 2.117 . S
O873 C879 1.250 . S
C874 O880 1.244 1_565 S
C874 O881 1.264 . S
C875 O861 1.253 . S
C875 O863 1.260 . S
C876 O865 1.279 . S
C876 O866 1.250 . S
C877 O867 1.264 . S
C877 O871 1.248 . S
C878 O868 1.260 . S
C878 O872 1.253 . S
C879 O870 1.279 . S
C879 O873 1.250 . S
O880 Mg862 2.027 1_545 S
O880 C874 1.244 1_545 S
O881 Mg864 2.079 . S
O881 C874 1.264 . S
O882 Mg883 1.990 . S
O882 C896 1.253 . S
Mg883 O882 1.990 . S
Mg883 O886 2.180 . S
Mg883 O887 2.117 . S
Mg883 O901 2.027 1_656 S
O884 Mg885 2.072 . S
O884 C896 1.260 1_554 S
Mg885 O884 2.072 . S
Mg885 O886 2.099 1_554 S
Mg885 O888 2.079 . S
Mg885 O889 2.069 1_554 S
Mg885 O891 2.099 . S
Mg885 O902 2.079 . S
O886 Mg883 2.180 . S
O886 Mg885 2.099 1_556 S
O886 C897 1.279 . S
O887 Mg883 2.117 . S
O887 C897 1.250 . S
O888 Mg885 2.079 . S
O888 C898 1.264 . S
O889 Mg885 2.069 1_556 S
O889 C899 1.260 . S
Mg890 O891 2.180 . S
Mg890 O892 2.030 . S
Mg890 O893 1.990 . S
Mg890 O894 2.117 . S
O891 Mg885 2.099 . S
O891 Mg890 2.180 . S
O891 C900 1.279 . S
O892 Mg890 2.030 . S
O892 C898 1.248 . S
O893 Mg890 1.990 . S
O893 C899 1.242 1_554 S
O894 Mg890 2.117 . S
O894 C900 1.250 . S
C895 O901 1.244 1_655 S
C895 O902 1.264 . S
C896 O882 1.253 . S
C896 O884 1.260 1_556 S
C897 O886 1.279 . S
C897 O887 1.250 . S
C898 O888 1.264 . S
C898 O892 1.248 . S
C899 O889 1.260 . S
C899 O893 1.242 1_556 S
C900 O891 1.279 . S
C900 O894 1.250 . S
O901 Mg883 2.027 1_454 S
O901 C895 1.244 1_455 S
O902 Mg885 2.079 . S
O902 C895 1.264 . S
O903 Mg904 1.990 . S
O903 C917 1.253 . S
Mg904 O903 1.990 . S
Mg904 O907 2.180 . S
Mg904 O908 2.117 . S
Mg904 O922 2.030 . S
O905 Mg906 2.072 . S
O905 C917 1.260 . S
Mg906 O905 2.072 . S
Mg906 O907 2.099 . S
Mg906 O909 2.079 . S
Mg906 O910 2.072 . S
Mg906 O912 2.099 . S
Mg906 O923 2.079 . S
O907 Mg904 2.180 . S
O907 Mg906 2.099 . S
O907 C918 1.279 . S
O908 Mg904 2.117 . S
O908 C918 1.250 . S
O909 Mg906 2.079 . S
O909 C919 1.264 . S
O910 Mg906 2.072 . S
O910 C920 1.260 . S
Mg911 O912 2.180 . S
Mg911 O913 2.030 . S
Mg911 O914 1.990 . S
Mg911 O915 2.117 . S
O912 Mg906 2.099 . S
O912 Mg911 2.180 . S
O912 C921 1.279 . S
O913 Mg911 2.030 . S
O913 C919 1.248 . S
O914 Mg911 1.990 . S
O914 C920 1.253 . S
O915 Mg911 2.117 . S
O915 C921 1.250 . S
C916 O922 1.248 . S
C916 O923 1.264 . S
C917 O903 1.253 . S
C917 O905 1.260 . S
C918 O907 1.279 . S
C918 O908 1.250 . S
C919 O909 1.264 . S
C919 O913 1.248 . S
C920 O910 1.260 . S
C920 O914 1.253 . S
C921 O912 1.279 . S
C921 O915 1.250 . S
O922 Mg904 2.030 . S
O922 C916 1.248 . S
O923 Mg906 2.079 . S
O923 C916 1.264 . S
O924 Mg925 1.990 . S
O924 C938 1.253 . S
Mg925 O924 1.990 . S
Mg925 O928 2.180 . S
Mg925 O929 2.117 . S
Mg925 O943 2.027 1_554 S
O926 Mg927 2.072 . S
O926 C938 1.260 . S
Mg927 O926 2.072 . S
Mg927 O928 2.099 . S
Mg927 O930 2.079 . S
Mg927 O931 2.072 . S
Mg927 O933 2.099 . S
Mg927 O944 2.079 . S
O928 Mg925 2.180 . S
O928 Mg927 2.099 . S
O928 C939 1.279 . S
O929 Mg925 2.117 . S
O929 C939 1.250 . S
O930 Mg927 2.079 . S
O930 C940 1.264 . S
O931 Mg927 2.072 . S
O931 C941 1.260 . S
Mg932 O933 2.180 . S
Mg932 O934 2.030 . S
Mg932 O935 1.990 . S
Mg932 O936 2.117 . S
O933 Mg927 2.099 . S
O933 Mg932 2.180 . S
O933 C942 1.279 . S
O934 Mg932 2.030 . S
O934 C940 1.248 . S
O935 Mg932 1.990 . S
O935 C941 1.253 . S
O936 Mg932 2.117 . S
O936 C942 1.250 . S
C937 O943 1.244 1_554 S
C937 O944 1.264 . S
C938 O924 1.253 . S
C938 O926 1.260 . S
C939 O928 1.279 . S
C939 O929 1.250 . S
C940 O930 1.264 . S
C940 O934 1.248 . S
C941 O931 1.260 . S
C941 O935 1.253 . S
C942 O933 1.279 . S
C942 O936 1.250 . S
O943 Mg925 2.027 1_556 S
O943 C937 1.244 1_556 S
O944 Mg927 2.079 . S
O944 C937 1.264 . S
O945 Mg946 1.990 . S
O945 C959 1.253 . S
Mg946 O945 1.990 . S
Mg946 O949 2.180 . S
Mg946 O950 2.117 . S
Mg946 O964 2.027 1_556 S
O947 Mg948 2.072 . S
O947 C959 1.260 . S
Mg948 O947 2.072 . S
Mg948 O949 2.099 . S
Mg948 O951 2.079 . S
Mg948 O952 2.072 . S
Mg948 O954 2.099 . S
Mg948 O965 2.079 . S
O949 Mg946 2.180 . S
O949 Mg948 2.099 . S
O949 C960 1.279 . S
O950 Mg946 2.117 . S
O950 C960 1.250 . S
O951 Mg948 2.079 . S
O951 C961 1.264 . S
O952 Mg948 2.072 . S
O952 C962 1.260 . S
Mg953 O954 2.180 . S
Mg953 O955 2.030 . S
Mg953 O956 1.990 . S
Mg953 O957 2.117 . S
O954 Mg948 2.099 . S
O954 Mg953 2.180 . S
O954 C963 1.279 . S
O955 Mg953 2.030 . S
O955 C961 1.248 . S
O956 Mg953 1.990 . S
O956 C962 1.253 . S
O957 Mg953 2.117 . S
O957 C963 1.250 . S
C958 O964 1.244 1_556 S
C958 O965 1.264 . S
C959 O945 1.253 . S
C959 O947 1.260 . S
C960 O949 1.279 . S
C960 O950 1.250 . S
C961 O951 1.264 . S
C961 O955 1.248 . S
C962 O952 1.260 . S
C962 O956 1.253 . S
C963 O954 1.279 . S
C963 O957 1.250 . S
O964 Mg946 2.027 1_554 S
O964 C958 1.244 1_554 S
O965 Mg948 2.079 . S
O965 C958 1.264 . S
O966 Mg967 1.990 . S
O966 C980 1.253 . S
Mg967 O966 1.990 . S
Mg967 O970 2.180 . S
Mg967 O971 2.117 . S
Mg967 O985 2.030 . S
O968 Mg969 2.072 . S
O968 C980 1.260 . S
Mg969 O968 2.072 . S
Mg969 O970 2.099 . S
Mg969 O972 2.079 . S
Mg969 O973 2.072 . S
Mg969 O975 2.099 . S
Mg969 O986 2.079 . S
O970 Mg967 2.180 . S
O970 Mg969 2.099 . S
O970 C981 1.279 . S
O971 Mg967 2.117 . S
O971 C981 1.250 . S
O972 Mg969 2.079 . S
O972 C982 1.264 . S
O973 Mg969 2.072 . S
O973 C983 1.260 . S
Mg974 O975 2.180 . S
Mg974 O976 2.030 . S
Mg974 O977 1.990 . S
Mg974 O978 2.117 . S
O975 Mg969 2.099 . S
O975 Mg974 2.180 . S
O975 C984 1.279 . S
O976 Mg974 2.030 . S
O976 C982 1.248 . S
O977 Mg974 1.990 . S
O977 C983 1.253 . S
O978 Mg974 2.117 . S
O978 C984 1.250 . S
C979 O985 1.248 . S
C979 O986 1.264 . S
C980 O966 1.253 . S
C980 O968 1.260 . S
C981 O970 1.279 . S
C981 O971 1.250 . S
C982 O972 1.264 . S
C982 O976 1.248 . S
C983 O973 1.260 . S
C983 O977 1.253 . S
C984 O975 1.279 . S
C984 O978 1.250 . S
O985 Mg967 2.030 . S
O985 C979 1.248 . S
O986 Mg969 2.079 . S
O986 C979 1.264 . S
O987 Mg988 1.990 . S
O987 C1001 1.253 . S
Mg988 O987 1.990 . S
Mg988 O991 2.180 . S
Mg988 O992 2.117 . S
Mg988 O1006 2.030 . S
O989 Mg990 2.072 . S
O989 C1001 1.260 . S
Mg990 O989 2.072 . S
Mg990 O991 2.099 . S
Mg990 O993 2.079 . S
Mg990 O994 2.072 . S
Mg990 O996 2.099 . S
Mg990 O1007 2.079 . S
O991 Mg988 2.180 . S
O991 Mg990 2.099 . S
O991 C1002 1.279 . S
O992 Mg988 2.117 . S
O992 C1002 1.250 . S
O993 Mg990 2.079 . S
O993 C1003 1.264 . S
O994 Mg990 2.072 . S
O994 C1004 1.260 . S
Mg995 O996 2.180 . S
Mg995 O997 2.030 . S
Mg995 O998 1.990 . S
Mg995 O999 2.117 . S
O996 Mg990 2.099 . S
O996 Mg995 2.180 . S
O996 C1005 1.279 . S
O997 Mg995 2.030 . S
O997 C1003 1.248 . S
O998 Mg995 1.990 . S
O998 C1004 1.253 . S
O999 Mg995 2.117 . S
O999 C1005 1.250 . S
C1000 O1006 1.248 . S
C1000 O1007 1.264 . S
C1001 O987 1.253 . S
C1001 O989 1.260 . S
C1002 O991 1.279 . S
C1002 O992 1.250 . S
C1003 O993 1.264 . S
C1003 O997 1.248 . S
C1004 O994 1.260 . S
C1004 O998 1.253 . S
C1005 O996 1.279 . S
C1005 O999 1.250 . S
O1006 Mg988 2.030 . S
O1006 C1000 1.248 . S
O1007 Mg990 2.079 . S
O1007 C1000 1.264 . S
C14 C98 1.753 . S
C35 C122 1.753 . S
C140 C56 1.753 . S
C161 C77 1.752 1_554 S
C182 C203 1.753 . S
C206 C227 1.752 1_565 S
C248 C224 1.753 1_554 S
C245 C185 1.752 1_545 S
C269 C80 1.753 . S
C164 C710 1.753 1_655 S
C101 C290 1.753 1_655 S
C119 C731 1.753 . S
C38 C308 1.753 1_655 S
C668 C17 1.752 1_455 S
C647 C59 1.753 . S
C413 C329 1.753 . S
C350 C437 1.753 . S
C371 C458 1.753 . S
C392 C476 1.752 1_554 S
C518 C497 1.753 . S
C521 C542 1.752 1_545 S
C563 C539 1.753 1_556 S
C500 C560 1.752 1_545 S
C395 C584 1.753 . S
C896 C479 1.753 1_655 S
C602 C416 1.752 1_655 S
C434 C920 1.753 . S
C626 C353 1.753 1_655 S
C332 C854 1.752 1_455 S
C374 C836 1.753 . S
C686 C644 1.753 1_545 S
C707 C266 1.752 1_554 S
C665 C287 1.753 1_545 S
C728 C311 1.753 . S
C749 C773 1.753 1_556 S
C770 C794 1.753 . S
C815 C791 1.753 . S
C752 C812 1.753 . S
C143 C689 1.753 . S
C875 C833 1.753 1_565 S
C899 C581 1.752 1_556 S
C605 C857 1.753 1_545 S
C917 C623 1.753 . S
C938 C959 1.753 1_554 S
C962 C983 1.753 . S
C980 C1001 1.753 . S
C1004 C941 1.753 . S
C878 C455 1.753 . S
C16 C351 1.456 . S
C858 C37 1.456 . S
C58 C393 1.456 . S
C79 C834 1.456 . S
C100 C477 1.456 . S
C118 C876 1.456 . S
C142 C438 1.456 . S
C606 C163 1.456 . S
C184 C837 1.456 . S
C202 C354 1.456 . S
C226 C855 1.456 . S
C396 C247 1.456 . S
C879 C244 1.456 . S
C435 C181 1.456 . S
C205 C603 1.456 . S
C480 C223 1.456 . S
C942 C265 1.456 . S
C561 C160 1.456 . S
C97 C939 1.456 . S
C121 C522 1.456 . S
C286 C540 1.456 . S
C984 C310 1.456 . S
C13 C1002 1.456 . S
C55 C960 1.456 . S
C36 C331 1.456 . S
C352 C666 1.456 . S
C373 C78 1.456 . S
C394 C645 1.456 . S
C162 C415 1.456 . S
C687 C433 1.456 . S
C123 C454 1.456 . S
C478 C288 1.456 . S
C499 C648 1.456 . S
C39 C517 1.456 . S
C541 C669 1.456 . S
C81 C562 1.456 . S
C690 C559 1.456 . S
C496 C120 1.456 . S
C520 C291 1.456 . S
C165 C538 1.456 . S
C580 C753 1.456 . S
C246 C475 1.456 . S
C750 C412 1.456 . S
C436 C207 1.456 . S
C604 C225 1.456 . S
C795 C622 1.456 . S
C328 C816 1.456 . S
C774 C370 1.456 . S
C582 C646 1.456 . S
C268 C372 1.456 . S
C624 C667 1.456 . S
C307 C330 1.456 . S
C688 C918 1.456 . S
C414 C709 1.456 . S
C289 C900 1.456 . S
C459 C730 1.456 . S
C751 C333 1.456 . S
C772 C585 1.456 . S
C793 C375 1.456 . S
C627 C814 1.456 . S
C417 C811 1.456 . S
C748 C897 1.456 . S
C456 C769 1.456 . S
C790 C921 1.456 . S
C34 C501 1.456 . S
C1005 C727 1.456 . S
C685 C498 1.456 . S
C706 C963 1.456 . S
C981 C139 1.456 . S
C543 C76 1.456 . S
C643 C564 1.456 . S
C519 C664 1.456 . S
C267 C835 1.456 . S
C583 C57 1.456 . S
C312 C853 1.456 . S
C625 C15 1.456 . S
C877 C729 1.456 . S
C99 C895 1.456 . S
C708 C601 1.456 . S
C141 C919 1.456 . S
C18 C940 1.456 . S
C958 C270 1.456 . S
C60 C982 1.456 . S
C309 C1000 1.456 . S
C102 C1003 1.456 . S
C711 C937 1.456 . S
C961 C144 1.456 . S
C732 C979 1.456 . S
C186 C349 1.456 . S
C916 C813 1.456 . S
C874 C183 1.456 . S
C771 C898 1.456 . S
C457 C792 1.456 . S
C391 C228 1.456 . S
C249 C832 1.456 . S
C204 C856 1.456 . S
