# Generated by pormake.
# Topology umx, (4)-cn, num edge types: 1
# Building blocks:
#     Node 0, Type 0, BuildingBlock: ESEHIV_clean_sbu_0, # of connection points: 4
#     Node 1, Type 0, BuildingBlock: ESEHIV_clean_sbu_0, # of connection points: 4
#     Node 2, Type 0, BuildingBlock: ESEHIV_clean_sbu_0, # of connection points: 4
#     Node 3, Type 0, BuildingBlock: ESEHIV_clean_sbu_0, # of connection points: 4
#     Node 4, Type 0, BuildingBlock: ESEHIV_clean_sbu_0, # of connection points: 4
#     Node 5, Type 0, BuildingBlock: ESEHIV_clean_sbu_0, # of connection points: 4
#     Node 6, Type 0, BuildingBlock: ESEHIV_clean_sbu_0, # of connection points: 4
#     Node 7, Type 0, BuildingBlock: ESEHIV_clean_sbu_0, # of connection points: 4
#     Edge 8, Type (0, 0), BuildingBlock: XIVTED_clean_linker_0, # of connection points: 2
#     Edge 9, Type (0, 0), BuildingBlock: XIVTED_clean_linker_0, # of connection points: 2
#     Edge 10, Type (0, 0), BuildingBlock: XIVTED_clean_linker_0, # of connection points: 2
#     Edge 11, Type (0, 0), BuildingBlock: XIVTED_clean_linker_0, # of connection points: 2
#     Edge 12, Type (0, 0), BuildingBlock: XIVTED_clean_linker_0, # of connection points: 2
#     Edge 13, Type (0, 0), BuildingBlock: XIVTED_clean_linker_0, # of connection points: 2
#     Edge 14, Type (0, 0), BuildingBlock: XIVTED_clean_linker_0, # of connection points: 2
#     Edge 15, Type (0, 0), BuildingBlock: XIVTED_clean_linker_0, # of connection points: 2
#     Edge 16, Type (0, 0), BuildingBlock: XIVTED_clean_linker_0, # of connection points: 2
#     Edge 17, Type (0, 0), BuildingBlock: XIVTED_clean_linker_0, # of connection points: 2
#     Edge 18, Type (0, 0), BuildingBlock: XIVTED_clean_linker_0, # of connection points: 2
#     Edge 19, Type (0, 0), BuildingBlock: XIVTED_clean_linker_0, # of connection points: 2
#     Edge 20, Type (0, 0), BuildingBlock: XIVTED_clean_linker_0, # of connection points: 2
#     Edge 21, Type (0, 0), BuildingBlock: XIVTED_clean_linker_0, # of connection points: 2
#     Edge 22, Type (0, 0), BuildingBlock: XIVTED_clean_linker_0, # of connection points: 2
#     Edge 23, Type (0, 0), BuildingBlock: XIVTED_clean_linker_0, # of connection points: 2
# Relax obj value: 0.115
# Max RMSD: 0.185
# Mean RMSD: 0.174
data_MOF--net-umx--node1-ESEHIV_clean_sbu_0--edge1-XIVTED_clean_linker_0
_symmetry_space_group_name_H-M    P1
_symmetry_Int_Tables_number       1
_symmetry_cell_setting            triclinic
loop_
_symmetry_equiv_pos_as_xyz
'x, y, z'
_cell_length_a     39.460822
_cell_length_b     45.703557
_cell_length_c     30.833915
_cell_angle_alpha  90.280793
_cell_angle_beta   89.84441
_cell_angle_gamma 89.588048
loop_
_atom_site_label
_atom_site_type_symbol
_atom_site_fract_x
_atom_site_fract_y
_atom_site_fract_z
_atom_type_partial_charge
Cu0 Cu 0.14546 0.42501 0.05512 0.0
N1 N 0.12806 0.41414 1.00102 0.0
N2 N 0.11866 0.41889 0.92998 0.0
C3 C 0.13187 0.43111 0.96588 0.0
C4 C 0.1062 0.39288 0.94279 0.0
C5 C 0.11181 0.39009 0.98694 0.0
O6 O 0.19175 0.40951 0.05862 0.0
C7 C 0.1097 0.47544 0.05037 0.0
O8 O 0.08713 0.45537 0.04121 0.0
H9 H 0.14482 0.45191 0.96655 0.0
H10 H 0.1049 0.37177 1.00709 0.0
N11 N 0.12115 0.41206 0.10349 0.0
N12 N 0.10532 0.41478 0.17308 0.0
C13 C 0.11688 0.42946 0.13842 0.0
C14 C 0.1115 0.38523 0.11639 0.0
C15 C 0.10204 0.38682 0.15965 0.0
C16 C 0.19444 0.38175 0.05499 0.0
O17 O 0.16679 0.36646 0.04918 0.0
H18 H 0.12509 0.45199 0.13959 0.0
H19 H 0.1132 0.36558 0.09684 0.0
O20 O 0.14017 0.46753 0.05807 0.0
H21 H 0.09386 0.37717 0.92186 0.0
H22 H 0.09496 0.36868 0.18013 0.0
Cu23 Cu 0.55658 0.19215 0.55665 0.0
N24 N 0.56275 0.15158 0.55135 0.0
N25 N 0.55133 0.10361 0.54892 0.0
C26 C 0.54008 0.13056 0.56079 0.0
C27 C 0.58225 0.10811 0.5313 0.0
C28 C 0.5891 0.13756 0.53272 0.0
O29 O 0.5337 0.19973 0.61391 0.0
C30 C 0.5564 0.20226 0.46666 0.0
O31 O 0.58814 0.19492 0.47369 0.0
H32 H 0.51564 0.13516 0.57535 0.0
H33 H 0.61131 0.14808 0.51963 0.0
N34 N 0.5987 0.21066 0.56186 0.0
N35 N 0.63672 0.24623 0.57025 0.0
C36 C 0.60477 0.23959 0.55837 0.0
C37 C 0.62791 0.19874 0.57605 0.0
C38 C 0.65134 0.22061 0.58138 0.0
C39 C 0.54953 0.18928 0.64691 0.0
O40 O 0.57686 0.17348 0.63941 0.0
H41 H 0.58564 0.25559 0.54967 0.0
H42 H 0.6315 0.17593 0.58407 0.0
O43 O 0.53644 0.20411 0.49968 0.0
H44 H 0.5984 0.09155 0.51672 0.0
H45 H 0.67688 0.21804 0.59361 0.0
Cu46 Cu 0.84483 0.58509 0.0744 0.0
N47 N 0.83066 0.55823 1.03261 0.0
N48 N 0.83016 0.52786 0.97556 0.0
C49 C 0.84734 0.54903 0.99679 0.0
C50 C 0.80163 0.52375 0.99892 0.0
C51 C 0.80202 0.54249 1.03401 0.0
O52 O 0.82004 0.62163 0.06508 0.0
C53 C 0.91462 0.5939 0.09838 0.0
O54 O 0.90332 0.59941 0.13771 0.0
H55 H 0.8719 0.55719 0.98715 0.0
H56 H 0.78293 0.54432 0.05914 0.0
N57 N 0.8332 0.56924 0.1281 0.0
N58 N 0.83235 0.54019 0.18609 0.0
C59 C 0.85095 0.55012 0.15249 0.0
C60 C 0.80245 0.5713 0.14687 0.0
C61 C 0.80184 0.55344 0.18266 0.0
C62 C 0.8139 0.64061 0.09456 0.0
O63 O 0.82689 0.63698 0.13336 0.0
H64 H 0.87635 0.54264 0.1447 0.0
H65 H 0.78153 0.58412 0.13439 0.0
O66 O 0.89364 0.58897 0.06795 0.0
H67 H 0.78173 0.50845 0.99107 0.0
H68 H 0.78053 0.55018 0.20424 0.0
Cu69 Cu 0.45447 0.82157 0.56449 0.0
N70 N 0.43644 0.85937 0.5614 0.0
N71 N 0.43962 0.90815 0.55681 0.0
C72 C 0.45691 0.8826 0.55833 0.0
C73 C 0.40662 0.90057 0.55936 0.0
C74 C 0.40471 0.87035 0.56209 0.0
O75 O 0.47923 0.82124 0.62151 0.0
C76 C 0.45861 0.81764 0.47344 0.0
O77 O 0.42606 0.82192 0.48021 0.0
H78 H 0.48424 0.88058 0.55806 0.0
H79 H 0.38195 0.85743 0.56456 0.0
N80 N 0.42259 0.79154 0.57112 0.0
N81 N 0.37773 0.76192 0.57425 0.0
C82 C 0.39001 0.7875 0.55881 0.0
C83 C 0.43083 0.76762 0.59417 0.0
C84 C 0.40341 0.74952 0.59636 0.0
C85 C 0.45966 0.82546 0.65454 0.0
O86 O 0.42735 0.83022 0.64686 0.0
H87 H 0.3755 0.80301 0.5399 0.0
H88 H 0.45531 0.7638 0.60887 0.0
O89 O 0.47789 0.8158 0.50698 0.0
H90 H 0.38537 0.91567 0.5589 0.0
H91 H 0.40246 0.72861 0.61267 0.0
Cu92 Cu 0.15436 0.57176 0.54895 0.0
N93 N 0.16699 0.54498 0.59158 0.0
N94 N 0.16504 0.51495 0.64855 0.0
C95 C 0.14927 0.53679 0.62689 0.0
C96 C 0.19377 0.50936 0.62606 0.0
C97 C 0.1949 0.52791 0.59102 0.0
O98 O 0.18089 0.60726 0.55642 0.0
C99 C 0.08647 0.58833 0.52588 0.0
O100 O 0.09907 0.59528 0.48785 0.0
H101 H 0.12487 0.54603 0.63575 0.0
H102 H 0.21444 0.52859 0.56639 0.0
N103 N 0.16387 0.5541 0.49547 0.0
N104 N 0.15999 0.52546 0.43683 0.0
C105 C 0.14306 0.5382 0.47012 0.0
C106 C 0.19486 0.55129 0.47754 0.0
C107 C 0.19257 0.53361 0.4414 0.0
C108 C 0.18706 0.6253 0.52608 0.0
O109 O 0.17404 0.62079 0.48748 0.0
H110 H 0.11642 0.535 0.47692 0.0
H111 H 0.21771 0.56072 0.49075 0.0
O112 O 0.10614 0.57912 0.55554 0.0
H113 H 0.21269 0.49309 0.63441 0.0
H114 H 0.21325 0.52705 0.42027 0.0
Cu115 Cu 0.48519 0.20621 0.05759 0.0
N116 N 0.46327 0.17005 0.05726 0.0
N117 N 0.46106 0.12104 0.05709 0.0
C118 C 0.48088 0.14485 0.05333 0.0
C119 C 0.42945 0.13184 0.06371 0.0
C120 C 0.43089 0.16214 0.06377 0.0
O121 O 0.50871 0.20782 0.99999 0.0
C122 C 0.49021 0.20657 0.14738 0.0
O123 O 0.45745 0.2055 0.14007 0.0
H124 H 0.50813 0.14418 0.04946 0.0
H125 H 0.41003 0.17717 0.06928 0.0
N126 N 0.45751 0.2398 0.06045 0.0
N127 N 0.41703 0.27449 0.05954 0.0
C128 C 0.42421 0.24558 0.05402 0.0
C129 C 0.4714 0.2657 0.0705 0.0
C130 C 0.44678 0.28696 0.07008 0.0
C131 C 0.48867 0.20909 0.96718 0.0
O132 O 0.45592 0.20971 0.97495 0.0
H133 H 0.40589 0.2292 0.04487 0.0
H134 H 0.49793 0.26881 0.07782 0.0
O135 O 0.51005 0.20693 0.11417 0.0
H136 H 0.40693 0.11889 0.06854 0.0
H137 H 0.45053 0.30984 0.07773 0.0
Cu138 Cu 0.83794 0.44327 0.56516 0.0
N139 N 0.85416 0.42989 0.61852 0.0
N140 N 0.86472 0.43167 0.68967 0.0
C141 C 0.85706 0.44708 0.65383 0.0
C142 C 0.86669 0.40349 0.67641 0.0
C143 C 0.86023 0.40247 0.63233 0.0
O144 O 0.79046 0.43244 0.55997 0.0
C145 C 0.87975 0.48963 0.56859 0.0
O146 O 0.90008 0.46746 0.57671 0.0
H147 H 0.85144 0.4703 0.65368 0.0
H148 H 0.85854 0.38306 0.61227 0.0
N149 N 0.85977 0.426 0.51776 0.0
N150 N 0.87447 0.42439 0.44773 0.0
C151 C 0.86985 0.44143 0.48305 0.0
C152 C 0.85823 0.39803 0.50412 0.0
C153 C 0.86721 0.39698 0.46074 0.0
C154 C 0.77199 0.42727 0.59293 0.0
O155 O 0.7826 0.43531 0.63148 0.0
H156 H 0.86954 0.46509 0.48217 0.0
H157 H 0.84792 0.38026 0.52295 0.0
O158 O 0.84843 0.4848 0.56183 0.0
H159 H 0.87148 0.38492 0.69721 0.0
H160 H 0.86575 0.37804 0.43963 0.0
Cu161 Cu 0.53446 0.82864 0.06375 0.0
N162 N 0.55198 0.8666 0.06584 0.0
N163 N 0.55077 0.91565 0.06533 0.0
C164 C 0.53238 0.89086 0.06713 0.0
C165 C 0.58338 0.90649 0.06289 0.0
C166 C 0.58404 0.87624 0.06321 0.0
O167 O 0.50968 0.82689 1.00679 0.0
C168 C 0.53066 0.82458 0.15485 0.0
O169 O 0.56291 0.82995 0.14819 0.0
H170 H 0.50498 0.89018 0.06781 0.0
H171 H 0.60625 0.86235 0.06068 0.0
N172 N 0.56729 0.79879 0.05753 0.0
N173 N 0.61329 0.76984 0.05423 0.0
C174 C 0.60024 0.79558 0.06898 0.0
C175 C 0.55957 0.77415 1.03578 0.0
C176 C 0.58766 0.75645 1.03351 0.0
C177 C 0.52908 0.83061 0.97359 0.0
O178 O 0.56121 0.83598 0.98106 0.0
H179 H 0.61447 0.81179 0.08682 0.0
H180 H 0.535 0.76957 1.02197 0.0
O181 O 0.51142 0.8226 0.1213 0.0
H182 H 0.60524 0.92057 0.06077 0.0
H183 H 0.5891 0.73516 1.01804 0.0
H184 H 0.1321 0.38987 0.2448 0.0
H185 H 0.10025 0.53108 0.3946 0.0
H186 H 0.07876 0.46633 0.1996 0.0
H187 H 0.18941 0.47656 0.40401 0.0
H188 H 0.08037 0.5005 0.33394 0.0
H189 H 0.14094 0.41439 0.31504 0.0
C190 C 0.12142 0.41147 0.25021 0.0
C191 C 0.1047 0.42619 0.21662 0.0
C192 C 0.1041 0.49511 0.34968 0.0
C193 C 0.11474 0.45428 0.29625 0.0
C194 C 0.11533 0.51243 0.38423 0.0
C195 C 0.14663 0.50643 0.40383 0.0
C196 C 0.12398 0.4713 0.33543 0.0
C197 C 0.16538 0.48209 0.38923 0.0
C198 C 0.12674 0.42553 0.28997 0.0
C199 C 0.09182 0.45438 0.22484 0.0
N200 N 0.15378 0.46539 0.35591 0.0
N201 N 0.09719 0.46759 0.2638 0.0
H202 H 0.49065 0.21483 0.68223 0.0
H203 H 0.55196 0.19509 0.93128 0.0
H204 H 0.58636 0.17631 0.71917 0.0
H205 H 0.45114 0.22269 0.89562 0.0
H206 H 0.56671 0.19202 0.8536 0.0
H207 H 0.477 0.22158 0.7599 0.0
C208 C 0.50882 0.20787 0.7064 0.0
C209 C 0.53965 0.1948 0.69358 0.0
C210 C 0.54137 0.19889 0.86284 0.0
C211 C 0.5243 0.20263 0.78301 0.0
C212 C 0.53303 0.20077 0.90735 0.0
C213 C 0.50019 0.20906 0.92051 0.0
C214 C 0.51685 0.20553 0.83095 0.0
C215 C 0.47674 0.21599 0.88747 0.0
C216 C 0.50102 0.21169 0.75088 0.0
C217 C 0.56213 0.1863 0.72692 0.0
N218 N 0.48545 0.21405 0.84467 0.0
N219 N 0.55407 0.19034 0.76958 0.0
H220 H 0.91347 0.46829 0.41826 0.0
H221 H 0.79363 0.49745 0.21989 0.0
H222 H 0.83774 0.40632 0.37861 0.0
H223 H 0.89336 0.53499 0.22556 0.0
H224 H 0.80906 0.46422 0.27876 0.0
H225 H 0.90749 0.49319 0.34831 0.0
C226 C 0.89616 0.4596 0.39432 0.0
C227 C 0.87611 0.43527 0.40406 0.0
C228 C 0.82774 0.47947 0.26683 0.0
C229 C 0.86842 0.46394 0.32475 0.0
C230 C 0.81885 0.49855 0.23351 0.0
C231 C 0.84219 0.51908 0.21824 0.0
C232 C 0.86 0.48136 0.28571 0.0
C233 C 0.87471 0.51941 0.23651 0.0
C234 C 0.89271 0.47378 0.35453 0.0
C235 C 0.85387 0.42485 0.37219 0.0
N236 N 0.88252 0.50114 0.26983 0.0
N237 N 0.85015 0.43958 0.33426 0.0
H238 H 0.56932 0.83085 0.90143 0.0
H239 H 0.41934 0.82558 0.72662 0.0
H240 H 0.4639 0.82524 0.93755 0.0
H241 H 0.52505 0.82331 0.69076 0.0
H242 H 0.43517 0.8257 0.80283 0.0
H243 H 0.55353 0.82843 0.82531 0.0
C244 C 0.54267 0.82911 0.8936 0.0
C245 C 0.51795 0.82836 0.9268 0.0
C246 C 0.45502 0.82512 0.77852 0.0
C247 C 0.49958 0.82558 0.83776 0.0
C248 C 0.44606 0.82509 0.73454 0.0
C249 C 0.47084 0.82454 0.70138 0.0
C250 C 0.48927 0.82474 0.79048 0.0
C251 C 0.50493 0.82375 0.71467 0.0
C252 C 0.53374 0.82767 0.84966 0.0
C253 C 0.48397 0.82591 0.9136 0.0
N254 N 0.51306 0.82401 0.75797 0.0
N255 N 0.47585 0.82474 0.87032 0.0
H256 H 0.84608 0.4042 0.76394 0.0
H257 H 0.86919 0.54842 0.90983 0.0
H258 H 0.88521 0.4855 0.715 0.0
H259 H 0.81348 0.47263 0.95132 0.0
H260 H 0.88275 0.5232 0.84166 0.0
H261 H 0.84184 0.42633 0.83631 0.0
C262 C 0.85427 0.42655 0.76855 0.0
C263 C 0.86572 0.44312 0.73331 0.0
C264 C 0.86768 0.51204 0.86578 0.0
C265 C 0.86064 0.46869 0.81587 0.0
C266 C 0.86009 0.52638 0.9048 0.0
C267 C 0.8399 0.51274 0.9362 0.0
C268 C 0.85522 0.48375 0.85818 0.0
C269 C 0.82858 0.4842 0.92773 0.0
C270 C 0.85159 0.43926 0.80978 0.0
C271 C 0.87571 0.47211 0.74112 0.0
N272 N 0.83632 0.4707 0.88955 0.0
N273 N 0.87279 0.484 0.78145 0.0
H274 H 0.46487 0.81843 0.18825 0.0
H275 H 0.52481 0.81726 0.43991 0.0
H276 H 0.56921 0.82396 0.22853 0.0
H277 H 0.42027 0.81516 0.39972 0.0
H278 H 0.54183 0.81768 0.36281 0.0
H279 H 0.44805 0.8153 0.26524 0.0
C280 C 0.48427 0.81888 0.21301 0.0
C281 C 0.51858 0.82155 0.20124 0.0
C282 C 0.51514 0.81703 0.37093 0.0
C283 C 0.49945 0.81797 0.29018 0.0
C284 C 0.50543 0.81669 0.41514 0.0
C285 C 0.47098 0.81622 0.42697 0.0
C286 C 0.49031 0.81682 0.33792 0.0
C287 C 0.44715 0.81564 0.39278 0.0
C288 C 0.47466 0.81714 0.25716 0.0
C289 C 0.54241 0.82204 0.23542 0.0
N290 N 0.45718 0.816 0.35036 0.0
N291 N 0.53249 0.82032 0.2778 0.0
H292 H 0.1287 0.39027 0.85361 0.0
H293 H 0.12767 0.5381 0.71445 0.0
H294 H 0.1108 0.47578 0.90891 0.0
H295 H 0.17651 0.45844 0.67114 0.0
H296 H 0.11134 0.51354 0.78175 0.0
H297 H 0.13617 0.41296 0.78206 0.0
C298 C 0.12585 0.41375 0.85049 0.0
C299 C 0.11943 0.43124 0.88712 0.0
C300 C 0.1255 0.50141 0.7574 0.0
C301 C 0.12789 0.45729 0.80585 0.0
C302 C 0.13466 0.51538 0.71893 0.0
C303 C 0.15373 0.50038 0.68731 0.0
C304 C 0.13511 0.47211 0.76412 0.0
C305 C 0.16231 0.47096 0.69496 0.0
C306 C 0.13034 0.4267 0.80985 0.0
C307 C 0.11621 0.4616 0.88151 0.0
N308 N 0.15296 0.45779 0.73256 0.0
N309 N 0.12052 0.47366 0.84171 0.0
H310 H 0.49123 0.20754 0.43184 0.0
H311 H 0.5559 0.20692 0.18198 0.0
H312 H 0.59663 0.2052 0.39452 0.0
H313 H 0.45064 0.20829 0.22014 0.0
H314 H 0.57163 0.20774 0.25943 0.0
H315 H 0.47587 0.20973 0.35445 0.0
C316 C 0.51114 0.20775 0.40762 0.0
C317 C 0.54531 0.20612 0.42025 0.0
C318 C 0.54507 0.20791 0.25073 0.0
C319 C 0.52791 0.20838 0.33099 0.0
C320 C 0.53611 0.20744 0.20638 0.0
C321 C 0.50185 0.20746 0.19394 0.0
C322 C 0.51966 0.20844 0.28316 0.0
C323 C 0.47742 0.20816 0.22756 0.0
C324 C 0.50239 0.20886 0.36327 0.0
C325 C 0.56991 0.20629 0.38684 0.0
N326 N 0.48673 0.20859 0.27012 0.0
N327 N 0.5608 0.20729 0.34421 0.0
H328 H 0.94761 0.58947 1.02052 0.0
H329 H 0.10413 0.5068 0.12545 0.0
H330 H 0.96496 0.58497 0.15844 0.0
H331 H 0.08337 0.51022 0.98859 0.0
H332 H 0.06245 0.54615 0.13753 0.0
H333 H 0.00503 0.57125 1.00785 0.0
C334 C 0.9637 0.58508 0.04819 0.0
C335 C 0.9512 0.58827 0.09061 0.0
C336 C 0.06785 0.53905 0.10466 0.0
C337 C 0.01706 0.56689 0.07634 0.0
C338 C 0.09205 0.51691 0.09775 0.0
C339 C 0.09728 0.50558 0.05593 0.0
C340 C 0.04872 0.54954 0.06947 0.0
C341 C 0.08019 0.51866 1.02125 0.0
C342 C 0.99656 0.57466 0.04094 0.0
C343 C 0.97341 0.58258 0.12517 0.0
N344 N 0.0563 0.5396 1.02883 0.0
N345 N 0.00503 0.57164 0.1173 0.0
H346 H 0.50169 0.92207 0.52507 0.0
H347 H 0.48336 0.09446 0.56127 0.0
H348 H 0.41119 0.96067 0.58057 0.0
H349 H 0.57871 0.04888 0.54342 0.0
H350 H 0.45455 0.04718 0.56295 0.0
H351 H 0.52789 0.96987 0.52443 0.0
C352 C 0.48728 0.94052 0.53747 0.0
C353 C 0.45425 0.93701 0.55366 0.0
C354 C 0.48179 0.04768 0.55873 0.0
C355 C 0.48428 0.99249 0.55222 0.0
C356 C 0.49838 0.0747 0.55794 0.0
C357 C 0.53372 0.07597 0.55179 0.0
C358 C 0.50058 0.02174 0.55299 0.0
C359 C 0.5515 0.04936 0.5473 0.0
C360 C 0.50232 0.96797 0.5369 0.0
C361 C 0.43666 0.96222 0.56781 0.0
N362 N 0.53477 0.02351 0.54778 0.0
N363 N 0.45192 0.98891 0.56687 0.0
H364 H 0.03627 0.58903 0.4643 0.0
H365 H 0.90548 0.5231 0.63244 0.0
H366 H 0.05211 0.58299 0.60241 0.0
H367 H 0.8923 0.51917 0.49402 0.0
H368 H 0.95044 0.55896 0.62274 0.0
H369 H 0.97659 0.57654 0.47533 0.0
C370 C 0.02706 0.58571 0.49702 0.0
C371 C 0.04936 0.58648 0.53242 0.0
C372 C 0.93709 0.55104 0.59444 0.0
C373 C 0.9812 0.57217 0.54522 0.0
C374 C 0.9111 0.53089 0.60008 0.0
C375 C 0.89511 0.51853 0.564 0.0
C376 C 0.94777 0.55817 0.55229 0.0
C377 C 0.90381 0.52862 0.52264 0.0
C378 C 0.99299 0.57853 0.50327 0.0
C379 C 0.03598 0.58211 0.57408 0.0
N380 N 0.93015 0.54742 0.51778 0.0
N381 N 0.00293 0.57479 0.57924 0.0
H382 H 0.58152 0.96341 1.03082 0.0
H383 H 0.42984 0.07389 0.09337 0.0
H384 H 0.49047 0.93628 0.09668 0.0
H385 H 0.51817 0.09856 1.01964 0.0
H386 H 0.45118 0.02345 0.09503 0.0
H387 H 0.55895 0.01323 1.02786 0.0
C388 C 0.55688 0.96788 0.04493 0.0
C389 C 0.53796 0.94542 0.06403 0.0
C390 C 0.46585 0.03993 0.07845 0.0
C391 C 0.51164 1.00271 0.06035 0.0
C392 C 0.45356 0.06877 0.07726 0.0
C393 C 0.47227 0.09077 0.05662 0.0
C394 C 0.49713 0.03294 0.05886 0.0
C395 C 0.50307 0.08265 1.03669 0.0
C396 C 0.54386 0.99639 0.04295 0.0
C397 C 0.50587 0.95269 0.08117 0.0
N398 N 0.5145 0.05453 0.03842 0.0
N399 N 0.49379 0.98063 0.07899 0.0
H400 H 0.20514 0.32299 0.06084 0.0
H401 H 0.40668 0.33192 0.04091 0.0
H402 H 0.25916 0.40456 0.05245 0.0
H403 H 0.35358 0.2521 0.06976 0.0
H404 H 0.3529 0.35833 0.04075 0.0
H405 H 0.25892 0.29658 0.0606 0.0
C406 C 0.22835 0.33543 0.05897 0.0
C407 C 0.22754 0.36615 0.05655 0.0
C408 C 0.35295 0.33505 0.04716 0.0
C409 C 0.28956 0.33573 0.05604 0.0
C410 C 0.38374 0.31987 0.04743 0.0
C411 C 0.38487 0.28966 0.05597 0.0
C412 C 0.32276 0.32002 0.05522 0.0
C413 C 0.35403 0.27527 0.0629 0.0
C414 C 0.25911 0.32024 0.05888 0.0
C415 C 0.25854 0.38093 0.05443 0.0
N416 N 0.32427 0.2906 0.06252 0.0
N417 N 0.28829 0.36557 0.05404 0.0
H418 H 0.74134 0.40631 0.51898 0.0
H419 H 0.67454 0.26573 0.63685 0.0
H420 H 0.73946 0.39876 0.65848 0.0
H421 H 0.63212 0.2917 0.51427 0.0
H422 H 0.70162 0.31354 0.64324 0.0
H423 H 0.7031 0.3643 0.51398 0.0
C424 C 0.73242 0.39621 0.54856 0.0
C425 C 0.7439 0.40598 0.58922 0.0
C426 C 0.68617 0.30894 0.61507 0.0
C427 C 0.70088 0.35761 0.58357 0.0
C428 C 0.67097 0.28161 0.6113 0.0
C429 C 0.65131 0.27484 0.57489 0.0
C430 C 0.68235 0.32949 0.58169 0.0
C431 C 0.64708 0.29625 0.54285 0.0
C432 C 0.71064 0.37224 0.54564 0.0
C433 C 0.73147 0.39201 0.62643 0.0
N434 N 0.66292 0.32255 0.54664 0.0
N435 N 0.71117 0.36825 0.62266 0.0
H436 H 0.78309 0.65511 1.01801 0.0
H437 H 0.65455 0.77188 0.1249 0.0
H438 H 0.78793 0.68089 0.15268 0.0
H439 H 0.64868 0.74007 0.99344 0.0
H440 H 0.70798 0.74428 0.13402 0.0
H441 H 0.7384 0.69135 1.00672 0.0
C442 C 0.77498 0.66856 0.04519 0.0
C443 C 0.78919 0.66469 0.08646 0.0
C444 C 0.69516 0.74365 0.10303 0.0
C445 C 0.73751 0.70635 0.0738 0.0
C446 C 0.66487 0.75956 0.09779 0.0
C447 C 0.64707 0.75795 0.05854 0.0
C448 C 0.70769 0.72625 0.06862 0.0
C449 C 0.66135 0.7415 1.02445 0.0
C450 C 0.74935 0.6893 0.03873 0.0
C451 C 0.77764 0.68298 0.12033 0.0
N452 N 0.69056 0.7262 1.03036 0.0
N453 N 0.75229 0.70281 0.11336 0.0
H454 H 0.34123 0.73515 0.63588 0.0
H455 H 0.21127 0.66491 0.46682 0.0
H456 H 0.33965 0.75868 0.50087 0.0
H457 H 0.217 0.64204 0.60227 0.0
H458 H 0.2535 0.70311 0.47917 0.0
H459 H 0.29072 0.7056 0.62508 0.0
C460 C 0.32983 0.73434 0.60399 0.0
C461 C 0.3447 0.74915 0.56915 0.0
C462 C 0.24529 0.68989 0.50622 0.0
C463 C 0.287 0.71486 0.55612 0.0
C464 C 0.22115 0.66805 0.49923 0.0
C465 C 0.21069 0.65001 0.5335 0.0
C466 C 0.25907 0.69378 0.5478 0.0
C467 C 0.22439 0.6552 0.57477 0.0
C468 C 0.30103 0.71741 0.59776 0.0
C469 C 0.32882 0.74764 0.52855 0.0
N470 N 0.24792 0.67643 0.58064 0.0
N471 N 0.30103 0.73041 0.52296 0.0
loop_
_geom_bond_atom_site_label_1
_geom_bond_atom_site_label_2
_geom_bond_distance
_geom_bond_site_symmetry_2
_ccdc_geom_bond_type
Cu0 N1 1.999 1_554 S
Cu0 O6 1.974 . S
Cu0 N11 1.985 . S
Cu0 O20 1.959 . S
N1 Cu0 1.999 1_556 S
N1 C3 1.263 . S
N1 C5 1.389 . S
N2 C3 1.358 . S
N2 C4 1.400 . S
C3 N1 1.263 . S
C3 N2 1.358 . S
C3 H9 0.930 . S
C4 N2 1.400 . S
C4 C5 1.351 . S
C4 H21 0.930 . S
C5 N1 1.389 . S
C5 C4 1.351 . S
C5 H10 0.930 . S
O6 Cu0 1.974 . S
O6 C16 1.282 . S
C7 O8 1.261 . S
C7 O20 1.251 . S
O8 C7 1.261 . S
H9 C3 0.930 . S
H10 C5 0.930 . S
N11 Cu0 1.985 . S
N11 C13 1.335 . S
N11 C14 1.390 . S
N12 C13 1.345 . S
N12 C15 1.336 . S
C13 N11 1.335 . S
C13 N12 1.345 . S
C13 H18 0.930 . S
C14 N11 1.390 . S
C14 C15 1.346 . S
C14 H19 0.930 . S
C15 N12 1.336 . S
C15 C14 1.346 . S
C15 H22 0.929 . S
C16 O6 1.282 . S
C16 O17 1.216 . S
O17 C16 1.216 . S
H18 C13 0.930 . S
H19 C14 0.930 . S
O20 Cu0 1.959 . S
O20 C7 1.251 . S
H21 C4 0.930 . S
H22 C15 0.929 . S
Cu23 N24 1.999 . S
Cu23 O29 1.974 . S
Cu23 N34 1.985 . S
Cu23 O43 1.959 . S
N24 Cu23 1.999 . S
N24 C26 1.263 . S
N24 C28 1.389 . S
N25 C26 1.358 . S
N25 C27 1.400 . S
C26 N24 1.263 . S
C26 N25 1.358 . S
C26 H32 0.930 . S
C27 N25 1.400 . S
C27 C28 1.351 . S
C27 H44 0.930 . S
C28 N24 1.389 . S
C28 C27 1.351 . S
C28 H33 0.930 . S
O29 Cu23 1.974 . S
O29 C39 1.282 . S
C30 O31 1.261 . S
C30 O43 1.251 . S
O31 C30 1.261 . S
H32 C26 0.930 . S
H33 C28 0.930 . S
N34 Cu23 1.985 . S
N34 C36 1.335 . S
N34 C37 1.390 . S
N35 C36 1.345 . S
N35 C38 1.336 . S
C36 N34 1.335 . S
C36 N35 1.345 . S
C36 H41 0.930 . S
C37 N34 1.390 . S
C37 C38 1.346 . S
C37 H42 0.930 . S
C38 N35 1.336 . S
C38 C37 1.346 . S
C38 H45 0.929 . S
C39 O29 1.282 . S
C39 O40 1.216 . S
O40 C39 1.216 . S
H41 C36 0.930 . S
H42 C37 0.930 . S
O43 Cu23 1.959 . S
O43 C30 1.251 . S
H44 C27 0.930 . S
H45 C38 0.929 . S
Cu46 N47 1.999 1_554 S
Cu46 O52 1.974 . S
Cu46 N57 1.985 . S
Cu46 O66 1.959 . S
N47 Cu46 1.999 1_556 S
N47 C49 1.263 . S
N47 C51 1.389 . S
N48 C49 1.358 . S
N48 C50 1.400 . S
C49 N47 1.263 . S
C49 N48 1.358 . S
C49 H55 0.930 . S
C50 N48 1.400 . S
C50 C51 1.351 . S
C50 H67 0.930 . S
C51 N47 1.389 . S
C51 C50 1.351 . S
C51 H56 0.930 . S
O52 Cu46 1.974 . S
O52 C62 1.282 . S
C53 O54 1.261 . S
C53 O66 1.251 . S
O54 C53 1.261 . S
H55 C49 0.930 . S
H56 C51 0.930 . S
N57 Cu46 1.985 . S
N57 C59 1.335 . S
N57 C60 1.390 . S
N58 C59 1.345 . S
N58 C61 1.336 . S
C59 N57 1.335 . S
C59 N58 1.345 . S
C59 H64 0.930 . S
C60 N57 1.390 . S
C60 C61 1.346 . S
C60 H65 0.930 . S
C61 N58 1.336 . S
C61 C60 1.346 . S
C61 H68 0.929 . S
C62 O52 1.282 . S
C62 O63 1.216 . S
O63 C62 1.216 . S
H64 C59 0.930 . S
H65 C60 0.930 . S
O66 Cu46 1.959 . S
O66 C53 1.251 . S
H67 C50 0.930 . S
H68 C61 0.929 . S
Cu69 N70 1.999 . S
Cu69 O75 1.974 . S
Cu69 N80 1.985 . S
Cu69 O89 1.959 . S
N70 Cu69 1.999 . S
N70 C72 1.263 . S
N70 C74 1.389 . S
N71 C72 1.358 . S
N71 C73 1.400 . S
C72 N70 1.263 . S
C72 N71 1.358 . S
C72 H78 0.930 . S
C73 N71 1.400 . S
C73 C74 1.351 . S
C73 H90 0.930 . S
C74 N70 1.389 . S
C74 C73 1.351 . S
C74 H79 0.930 . S
O75 Cu69 1.974 . S
O75 C85 1.282 . S
C76 O77 1.261 . S
C76 O89 1.251 . S
O77 C76 1.261 . S
H78 C72 0.930 . S
H79 C74 0.930 . S
N80 Cu69 1.985 . S
N80 C82 1.335 . S
N80 C83 1.390 . S
N81 C82 1.345 . S
N81 C84 1.336 . S
C82 N80 1.335 . S
C82 N81 1.345 . S
C82 H87 0.930 . S
C83 N80 1.390 . S
C83 C84 1.346 . S
C83 H88 0.930 . S
C84 N81 1.336 . S
C84 C83 1.346 . S
C84 H91 0.929 . S
C85 O75 1.282 . S
C85 O86 1.216 . S
O86 C85 1.216 . S
H87 C82 0.930 . S
H88 C83 0.930 . S
O89 Cu69 1.959 . S
O89 C76 1.251 . S
H90 C73 0.930 . S
H91 C84 0.929 . S
Cu92 N93 1.999 . S
Cu92 O98 1.974 . S
Cu92 N103 1.985 . S
Cu92 O112 1.959 . S
N93 Cu92 1.999 . S
N93 C95 1.263 . S
N93 C97 1.389 . S
N94 C95 1.358 . S
N94 C96 1.400 . S
C95 N93 1.263 . S
C95 N94 1.358 . S
C95 H101 0.930 . S
C96 N94 1.400 . S
C96 C97 1.351 . S
C96 H113 0.930 . S
C97 N93 1.389 . S
C97 C96 1.351 . S
C97 H102 0.930 . S
O98 Cu92 1.974 . S
O98 C108 1.282 . S
C99 O100 1.261 . S
C99 O112 1.251 . S
O100 C99 1.261 . S
H101 C95 0.930 . S
H102 C97 0.930 . S
N103 Cu92 1.985 . S
N103 C105 1.335 . S
N103 C106 1.390 . S
N104 C105 1.345 . S
N104 C107 1.336 . S
C105 N103 1.335 . S
C105 N104 1.345 . S
C105 H110 0.930 . S
C106 N103 1.390 . S
C106 C107 1.346 . S
C106 H111 0.930 . S
C107 N104 1.336 . S
C107 C106 1.346 . S
C107 H114 0.929 . S
C108 O98 1.282 . S
C108 O109 1.216 . S
O109 C108 1.216 . S
H110 C105 0.930 . S
H111 C106 0.930 . S
O112 Cu92 1.959 . S
O112 C99 1.251 . S
H113 C96 0.930 . S
H114 C107 0.929 . S
Cu115 N116 1.999 . S
Cu115 O121 1.974 1_554 S
Cu115 N126 1.985 . S
Cu115 O135 1.959 . S
N116 Cu115 1.999 . S
N116 C118 1.263 1_554 S
N116 C120 1.389 . S
N117 C118 1.358 1_554 S
N117 C119 1.400 . S
C118 N116 1.263 1_556 S
C118 N117 1.358 1_556 S
C118 H124 0.930 . S
C119 N117 1.400 . S
C119 C120 1.351 . S
C119 H136 0.930 . S
C120 N116 1.389 . S
C120 C119 1.351 . S
C120 H125 0.930 . S
O121 Cu115 1.974 1_556 S
O121 C131 1.282 . S
C122 O123 1.261 . S
C122 O135 1.251 . S
O123 C122 1.261 . S
H124 C118 0.930 . S
H125 C120 0.930 . S
N126 Cu115 1.985 . S
N126 C128 1.335 . S
N126 C129 1.390 1_554 S
N127 C128 1.345 . S
N127 C130 1.336 1_554 S
C128 N126 1.335 . S
C128 N127 1.345 . S
C128 H133 0.930 . S
C129 N126 1.390 1_556 S
C129 C130 1.346 . S
C129 H134 0.930 . S
C130 N127 1.336 1_556 S
C130 C129 1.346 . S
C130 H137 0.929 . S
C131 O121 1.282 . S
C131 O132 1.216 . S
O132 C131 1.216 . S
H133 C128 0.930 . S
H134 C129 0.930 . S
O135 Cu115 1.959 . S
O135 C122 1.251 . S
H136 C119 0.930 . S
H137 C130 0.929 . S
Cu138 N139 1.999 . S
Cu138 O144 1.974 . S
Cu138 N149 1.985 . S
Cu138 O158 1.959 . S
N139 Cu138 1.999 . S
N139 C141 1.263 . S
N139 C143 1.389 . S
N140 C141 1.358 . S
N140 C142 1.400 . S
C141 N139 1.263 . S
C141 N140 1.358 . S
C141 H147 0.930 . S
C142 N140 1.400 . S
C142 C143 1.351 . S
C142 H159 0.930 . S
C143 N139 1.389 . S
C143 C142 1.351 . S
C143 H148 0.930 . S
O144 Cu138 1.974 . S
O144 C154 1.282 . S
C145 O146 1.261 . S
C145 O158 1.251 . S
O146 C145 1.261 . S
H147 C141 0.930 . S
H148 C143 0.930 . S
N149 Cu138 1.985 . S
N149 C151 1.335 . S
N149 C152 1.390 . S
N150 C151 1.345 . S
N150 C153 1.336 . S
C151 N149 1.335 . S
C151 N150 1.345 . S
C151 H156 0.930 . S
C152 N149 1.390 . S
C152 C153 1.346 . S
C152 H157 0.930 . S
C153 N150 1.336 . S
C153 C152 1.346 . S
C153 H160 0.929 . S
C154 O144 1.282 . S
C154 O155 1.216 . S
O155 C154 1.216 . S
H156 C151 0.930 . S
H157 C152 0.930 . S
O158 Cu138 1.959 . S
O158 C145 1.251 . S
H159 C142 0.930 . S
H160 C153 0.929 . S
Cu161 N162 1.999 . S
Cu161 O167 1.974 1_554 S
Cu161 N172 1.985 . S
Cu161 O181 1.959 . S
N162 Cu161 1.999 . S
N162 C164 1.263 1_554 S
N162 C166 1.389 . S
N163 C164 1.358 1_554 S
N163 C165 1.400 . S
C164 N162 1.263 1_556 S
C164 N163 1.358 1_556 S
C164 H170 0.930 . S
C165 N163 1.400 . S
C165 C166 1.351 . S
C165 H182 0.930 . S
C166 N162 1.389 . S
C166 C165 1.351 . S
C166 H171 0.930 . S
O167 Cu161 1.974 1_556 S
O167 C177 1.282 . S
C168 O169 1.261 . S
C168 O181 1.251 . S
O169 C168 1.261 . S
H170 C164 0.930 . S
H171 C166 0.930 . S
N172 Cu161 1.985 . S
N172 C174 1.335 . S
N172 C175 1.390 1_554 S
N173 C174 1.345 . S
N173 C176 1.336 1_554 S
C174 N172 1.335 . S
C174 N173 1.345 . S
C174 H179 0.930 . S
C175 N172 1.390 1_556 S
C175 C176 1.346 . S
C175 H180 0.930 . S
C176 N173 1.336 1_556 S
C176 C175 1.346 . S
C176 H183 0.929 . S
C177 O167 1.282 . S
C177 O178 1.216 . S
O178 C177 1.216 . S
H179 C174 0.930 . S
H180 C175 0.930 . S
O181 Cu161 1.959 . S
O181 C168 1.251 . S
H182 C165 0.930 . S
H183 C176 0.929 . S
H184 C190 0.930 . S
H185 C194 0.930 . S
H186 C199 0.929 . S
H187 C197 0.929 . S
H188 C192 0.929 . S
H189 C198 0.929 . S
C190 H184 0.930 . S
C190 C191 1.367 . S
C190 C198 1.378 . S
C191 C190 1.367 . S
C191 C199 1.433 . S
C192 H188 0.929 . S
C192 C194 1.378 . S
C192 C196 1.350 . S
C193 C196 1.463 . S
C193 C198 1.350 . S
C193 N201 1.427 . S
C194 H185 0.930 . S
C194 C192 1.378 . S
C194 C195 1.367 . S
C195 C194 1.367 . S
C195 C197 1.433 . S
C196 C192 1.350 . S
C196 C193 1.463 . S
C196 N200 1.427 . S
C197 H187 0.929 . S
C197 C195 1.433 . S
C197 N200 1.384 . S
C198 H189 0.929 . S
C198 C190 1.378 . S
C198 C193 1.350 . S
C199 H186 0.929 . S
C199 C191 1.433 . S
C199 N201 1.384 . S
N200 C196 1.427 . S
N200 C197 1.384 . S
N201 C193 1.427 . S
N201 C199 1.384 . S
H202 C208 0.930 . S
H203 C212 0.930 . S
H204 C217 0.929 . S
H205 C215 0.929 . S
H206 C210 0.929 . S
H207 C216 0.929 . S
C208 H202 0.930 . S
C208 C209 1.367 . S
C208 C216 1.378 . S
C209 C208 1.367 . S
C209 C217 1.433 . S
C210 H206 0.929 . S
C210 C212 1.378 . S
C210 C214 1.350 . S
C211 C214 1.463 . S
C211 C216 1.350 . S
C211 N219 1.427 . S
C212 H203 0.930 . S
C212 C210 1.378 . S
C212 C213 1.367 . S
C213 C212 1.367 . S
C213 C215 1.433 . S
C214 C210 1.350 . S
C214 C211 1.463 . S
C214 N218 1.427 . S
C215 H205 0.929 . S
C215 C213 1.433 . S
C215 N218 1.384 . S
C216 H207 0.929 . S
C216 C208 1.378 . S
C216 C211 1.350 . S
C217 H204 0.929 . S
C217 C209 1.433 . S
C217 N219 1.384 . S
N218 C214 1.427 . S
N218 C215 1.384 . S
N219 C211 1.427 . S
N219 C217 1.384 . S
H220 C226 0.930 . S
H221 C230 0.930 . S
H222 C235 0.929 . S
H223 C233 0.929 . S
H224 C228 0.929 . S
H225 C234 0.929 . S
C226 H220 0.930 . S
C226 C227 1.367 . S
C226 C234 1.378 . S
C227 C226 1.367 . S
C227 C235 1.433 . S
C228 H224 0.929 . S
C228 C230 1.378 . S
C228 C232 1.350 . S
C229 C232 1.463 . S
C229 C234 1.350 . S
C229 N237 1.427 . S
C230 H221 0.930 . S
C230 C228 1.378 . S
C230 C231 1.367 . S
C231 C230 1.367 . S
C231 C233 1.433 . S
C232 C228 1.350 . S
C232 C229 1.463 . S
C232 N236 1.427 . S
C233 H223 0.929 . S
C233 C231 1.433 . S
C233 N236 1.384 . S
C234 H225 0.929 . S
C234 C226 1.378 . S
C234 C229 1.350 . S
C235 H222 0.929 . S
C235 C227 1.433 . S
C235 N237 1.384 . S
N236 C232 1.427 . S
N236 C233 1.384 . S
N237 C229 1.427 . S
N237 C235 1.384 . S
H238 C244 0.930 . S
H239 C248 0.930 . S
H240 C253 0.929 . S
H241 C251 0.929 . S
H242 C246 0.929 . S
H243 C252 0.929 . S
C244 H238 0.930 . S
C244 C245 1.367 . S
C244 C252 1.378 . S
C245 C244 1.367 . S
C245 C253 1.433 . S
C246 H242 0.929 . S
C246 C248 1.378 . S
C246 C250 1.350 . S
C247 C250 1.463 . S
C247 C252 1.350 . S
C247 N255 1.427 . S
C248 H239 0.930 . S
C248 C246 1.378 . S
C248 C249 1.367 . S
C249 C248 1.367 . S
C249 C251 1.433 . S
C250 C246 1.350 . S
C250 C247 1.463 . S
C250 N254 1.427 . S
C251 H241 0.929 . S
C251 C249 1.433 . S
C251 N254 1.384 . S
C252 H243 0.929 . S
C252 C244 1.378 . S
C252 C247 1.350 . S
C253 H240 0.929 . S
C253 C245 1.433 . S
C253 N255 1.384 . S
N254 C250 1.427 . S
N254 C251 1.384 . S
N255 C247 1.427 . S
N255 C253 1.384 . S
H256 C262 0.930 . S
H257 C266 0.930 . S
H258 C271 0.929 . S
H259 C269 0.929 . S
H260 C264 0.929 . S
H261 C270 0.929 . S
C262 H256 0.930 . S
C262 C263 1.367 . S
C262 C270 1.378 . S
C263 C262 1.367 . S
C263 C271 1.433 . S
C264 H260 0.929 . S
C264 C266 1.378 . S
C264 C268 1.350 . S
C265 C268 1.463 . S
C265 C270 1.350 . S
C265 N273 1.427 . S
C266 H257 0.930 . S
C266 C264 1.378 . S
C266 C267 1.367 . S
C267 C266 1.367 . S
C267 C269 1.433 . S
C268 C264 1.350 . S
C268 C265 1.463 . S
C268 N272 1.427 . S
C269 H259 0.929 . S
C269 C267 1.433 . S
C269 N272 1.384 . S
C270 H261 0.929 . S
C270 C262 1.378 . S
C270 C265 1.350 . S
C271 H258 0.929 . S
C271 C263 1.433 . S
C271 N273 1.384 . S
N272 C268 1.427 . S
N272 C269 1.384 . S
N273 C265 1.427 . S
N273 C271 1.384 . S
H274 C280 0.930 . S
H275 C284 0.930 . S
H276 C289 0.929 . S
H277 C287 0.929 . S
H278 C282 0.929 . S
H279 C288 0.929 . S
C280 H274 0.930 . S
C280 C281 1.367 . S
C280 C288 1.378 . S
C281 C280 1.367 . S
C281 C289 1.433 . S
C282 H278 0.929 . S
C282 C284 1.378 . S
C282 C286 1.350 . S
C283 C286 1.463 . S
C283 C288 1.350 . S
C283 N291 1.427 . S
C284 H275 0.930 . S
C284 C282 1.378 . S
C284 C285 1.367 . S
C285 C284 1.367 . S
C285 C287 1.433 . S
C286 C282 1.350 . S
C286 C283 1.463 . S
C286 N290 1.427 . S
C287 H277 0.929 . S
C287 C285 1.433 . S
C287 N290 1.384 . S
C288 H279 0.929 . S
C288 C280 1.378 . S
C288 C283 1.350 . S
C289 H276 0.929 . S
C289 C281 1.433 . S
C289 N291 1.384 . S
N290 C286 1.427 . S
N290 C287 1.384 . S
N291 C283 1.427 . S
N291 C289 1.384 . S
H292 C298 0.930 . S
H293 C302 0.930 . S
H294 C307 0.929 . S
H295 C305 0.929 . S
H296 C300 0.929 . S
H297 C306 0.929 . S
C298 H292 0.930 . S
C298 C299 1.367 . S
C298 C306 1.378 . S
C299 C298 1.367 . S
C299 C307 1.433 . S
C300 H296 0.929 . S
C300 C302 1.378 . S
C300 C304 1.350 . S
C301 C304 1.463 . S
C301 C306 1.350 . S
C301 N309 1.427 . S
C302 H293 0.930 . S
C302 C300 1.378 . S
C302 C303 1.367 . S
C303 C302 1.367 . S
C303 C305 1.433 . S
C304 C300 1.350 . S
C304 C301 1.463 . S
C304 N308 1.427 . S
C305 H295 0.929 . S
C305 C303 1.433 . S
C305 N308 1.384 . S
C306 H297 0.929 . S
C306 C298 1.378 . S
C306 C301 1.350 . S
C307 H294 0.929 . S
C307 C299 1.433 . S
C307 N309 1.384 . S
N308 C304 1.427 . S
N308 C305 1.384 . S
N309 C301 1.427 . S
N309 C307 1.384 . S
H310 C316 0.930 . S
H311 C320 0.930 . S
H312 C325 0.929 . S
H313 C323 0.929 . S
H314 C318 0.929 . S
H315 C324 0.929 . S
C316 H310 0.930 . S
C316 C317 1.367 . S
C316 C324 1.378 . S
C317 C316 1.367 . S
C317 C325 1.433 . S
C318 H314 0.929 . S
C318 C320 1.378 . S
C318 C322 1.350 . S
C319 C322 1.463 . S
C319 C324 1.350 . S
C319 N327 1.427 . S
C320 H311 0.930 . S
C320 C318 1.378 . S
C320 C321 1.367 . S
C321 C320 1.367 . S
C321 C323 1.433 . S
C322 C318 1.350 . S
C322 C319 1.463 . S
C322 N326 1.427 . S
C323 H313 0.929 . S
C323 C321 1.433 . S
C323 N326 1.384 . S
C324 H315 0.929 . S
C324 C316 1.378 . S
C324 C319 1.350 . S
C325 H312 0.929 . S
C325 C317 1.433 . S
C325 N327 1.384 . S
N326 C322 1.427 . S
N326 C323 1.384 . S
N327 C319 1.427 . S
N327 C325 1.384 . S
H328 C334 0.930 . S
H329 C338 0.930 . S
H330 C343 0.929 . S
H331 C341 0.929 . S
H332 C336 0.929 . S
H333 C342 0.929 . S
C334 H328 0.930 . S
C334 C335 1.367 . S
C334 C342 1.378 . S
C335 C334 1.367 . S
C335 C343 1.433 . S
C336 H332 0.929 . S
C336 C338 1.378 . S
C336 C340 1.350 . S
C337 C340 1.463 1_655 S
C337 C342 1.350 . S
C337 N345 1.427 . S
C338 H329 0.930 . S
C338 C336 1.378 . S
C338 C339 1.367 . S
C339 C338 1.367 . S
C339 C341 1.433 . S
C340 C336 1.350 . S
C340 C337 1.463 1_455 S
C340 N344 1.427 . S
C341 H331 0.929 . S
C341 C339 1.433 . S
C341 N344 1.384 . S
C342 H333 0.929 . S
C342 C334 1.378 . S
C342 C337 1.350 . S
C343 H330 0.929 . S
C343 C335 1.433 . S
C343 N345 1.384 . S
N344 C340 1.427 . S
N344 C341 1.384 . S
N345 C337 1.427 . S
N345 C343 1.384 . S
H346 C352 0.930 . S
H347 C356 0.930 . S
H348 C361 0.929 . S
H349 C359 0.929 . S
H350 C354 0.929 . S
H351 C360 0.929 . S
C352 H346 0.930 . S
C352 C353 1.367 . S
C352 C360 1.378 . S
C353 C352 1.367 . S
C353 C361 1.433 . S
C354 H350 0.929 . S
C354 C356 1.378 . S
C354 C358 1.350 . S
C355 C358 1.463 1_565 S
C355 C360 1.350 . S
C355 N363 1.427 . S
C356 H347 0.930 . S
C356 C354 1.378 . S
C356 C357 1.367 . S
C357 C356 1.367 . S
C357 C359 1.433 . S
C358 C354 1.350 . S
C358 C355 1.463 1_545 S
C358 N362 1.427 . S
C359 H349 0.929 . S
C359 C357 1.433 . S
C359 N362 1.384 . S
C360 H351 0.929 . S
C360 C352 1.378 . S
C360 C355 1.350 . S
C361 H348 0.929 . S
C361 C353 1.433 . S
C361 N363 1.384 . S
N362 C358 1.427 . S
N362 C359 1.384 . S
N363 C355 1.427 . S
N363 C361 1.384 . S
H364 C370 0.930 . S
H365 C374 0.930 . S
H366 C379 0.929 . S
H367 C377 0.929 . S
H368 C372 0.929 . S
H369 C378 0.929 . S
C370 H364 0.930 . S
C370 C371 1.367 . S
C370 C378 1.378 . S
C371 C370 1.367 . S
C371 C379 1.433 . S
C372 H368 0.929 . S
C372 C374 1.378 . S
C372 C376 1.350 . S
C373 C376 1.463 1_455 S
C373 C378 1.350 . S
C373 N381 1.427 . S
C374 H365 0.930 . S
C374 C372 1.378 . S
C374 C375 1.367 . S
C375 C374 1.367 . S
C375 C377 1.433 . S
C376 C372 1.350 . S
C376 C373 1.463 1_655 S
C376 N380 1.427 . S
C377 H367 0.929 . S
C377 C375 1.433 . S
C377 N380 1.384 . S
C378 H369 0.929 . S
C378 C370 1.378 . S
C378 C373 1.350 . S
C379 H366 0.929 . S
C379 C371 1.433 . S
C379 N381 1.384 . S
N380 C376 1.427 . S
N380 C377 1.384 . S
N381 C373 1.427 . S
N381 C379 1.384 . S
H382 C388 0.930 . S
H383 C392 0.930 . S
H384 C397 0.929 . S
H385 C395 0.929 . S
H386 C390 0.929 . S
H387 C396 0.929 . S
C388 H382 0.930 . S
C388 C389 1.367 . S
C388 C396 1.378 . S
C389 C388 1.367 . S
C389 C397 1.433 1_556 S
C390 H386 0.929 . S
C390 C392 1.378 . S
C390 C394 1.350 1_554 S
C391 C394 1.463 1_565 S
C391 C396 1.350 . S
C391 N399 1.427 1_556 S
C392 H383 0.930 . S
C392 C390 1.378 . S
C392 C393 1.367 1_554 S
C393 C392 1.367 1_556 S
C393 C395 1.433 . S
C394 C390 1.350 1_556 S
C394 C391 1.463 1_545 S
C394 N398 1.427 . S
C395 H385 0.929 . S
C395 C393 1.433 . S
C395 N398 1.384 . S
C396 H387 0.929 . S
C396 C388 1.378 . S
C396 C391 1.350 . S
C397 H384 0.929 . S
C397 C389 1.433 1_554 S
C397 N399 1.384 . S
N398 C394 1.427 . S
N398 C395 1.384 . S
N399 C391 1.427 1_554 S
N399 C397 1.384 . S
H400 C406 0.930 . S
H401 C410 0.930 . S
H402 C415 0.929 . S
H403 C413 0.929 . S
H404 C408 0.929 . S
H405 C414 0.929 . S
C406 H400 0.930 . S
C406 C407 1.367 . S
C406 C414 1.378 . S
C407 C406 1.367 . S
C407 C415 1.433 1_554 S
C408 H404 0.929 . S
C408 C410 1.378 . S
C408 C412 1.350 1_556 S
C409 C412 1.463 . S
C409 C414 1.350 . S
C409 N417 1.427 1_554 S
C410 H401 0.930 . S
C410 C408 1.378 . S
C410 C411 1.367 1_556 S
C411 C410 1.367 1_554 S
C411 C413 1.433 . S
C412 C408 1.350 1_554 S
C412 C409 1.463 . S
C412 N416 1.427 . S
C413 H403 0.929 . S
C413 C411 1.433 . S
C413 N416 1.384 . S
C414 H405 0.929 . S
C414 C406 1.378 . S
C414 C409 1.350 . S
C415 H402 0.929 . S
C415 C407 1.433 1_556 S
C415 N417 1.384 . S
N416 C412 1.427 . S
N416 C413 1.384 . S
N417 C409 1.427 1_556 S
N417 C415 1.384 . S
H418 C424 0.930 . S
H419 C428 0.930 . S
H420 C433 0.929 . S
H421 C431 0.929 . S
H422 C426 0.929 . S
H423 C432 0.929 . S
C424 H418 0.930 . S
C424 C425 1.367 . S
C424 C432 1.378 . S
C425 C424 1.367 . S
C425 C433 1.433 . S
C426 H422 0.929 . S
C426 C428 1.378 . S
C426 C430 1.350 . S
C427 C430 1.463 . S
C427 C432 1.350 . S
C427 N435 1.427 . S
C428 H419 0.930 . S
C428 C426 1.378 . S
C428 C429 1.367 . S
C429 C428 1.367 . S
C429 C431 1.433 . S
C430 C426 1.350 . S
C430 C427 1.463 . S
C430 N434 1.427 . S
C431 H421 0.929 . S
C431 C429 1.433 . S
C431 N434 1.384 . S
C432 H423 0.929 . S
C432 C424 1.378 . S
C432 C427 1.350 . S
C433 H420 0.929 . S
C433 C425 1.433 . S
C433 N435 1.384 . S
N434 C430 1.427 . S
N434 C431 1.384 . S
N435 C427 1.427 . S
N435 C433 1.384 . S
H436 C442 0.930 . S
H437 C446 0.930 . S
H438 C451 0.929 . S
H439 C449 0.929 . S
H440 C444 0.929 . S
H441 C450 0.929 . S
C442 H436 0.930 . S
C442 C443 1.367 1_556 S
C442 C450 1.378 . S
C443 C442 1.367 1_554 S
C443 C451 1.433 . S
C444 H440 0.929 . S
C444 C446 1.378 . S
C444 C448 1.350 . S
C445 C448 1.463 . S
C445 C450 1.350 1_554 S
C445 N453 1.427 . S
C446 H437 0.930 . S
C446 C444 1.378 . S
C446 C447 1.367 . S
C447 C446 1.367 . S
C447 C449 1.433 1_554 S
C448 C444 1.350 . S
C448 C445 1.463 . S
C448 N452 1.427 1_554 S
C449 H439 0.929 . S
C449 C447 1.433 1_556 S
C449 N452 1.384 . S
C450 H441 0.929 . S
C450 C442 1.378 . S
C450 C445 1.350 1_556 S
C451 H438 0.929 . S
C451 C443 1.433 . S
C451 N453 1.384 . S
N452 C448 1.427 1_556 S
N452 C449 1.384 . S
N453 C445 1.427 . S
N453 C451 1.384 . S
H454 C460 0.930 . S
H455 C464 0.930 . S
H456 C469 0.929 . S
H457 C467 0.929 . S
H458 C462 0.929 . S
H459 C468 0.929 . S
C460 H454 0.930 . S
C460 C461 1.367 . S
C460 C468 1.378 . S
C461 C460 1.367 . S
C461 C469 1.433 . S
C462 H458 0.929 . S
C462 C464 1.378 . S
C462 C466 1.350 . S
C463 C466 1.463 . S
C463 C468 1.350 . S
C463 N471 1.427 . S
C464 H455 0.930 . S
C464 C462 1.378 . S
C464 C465 1.367 . S
C465 C464 1.367 . S
C465 C467 1.433 . S
C466 C462 1.350 . S
C466 C463 1.463 . S
C466 N470 1.427 . S
C467 H457 0.929 . S
C467 C465 1.433 . S
C467 N470 1.384 . S
C468 H459 0.929 . S
C468 C460 1.378 . S
C468 C463 1.350 . S
C469 H456 0.929 . S
C469 C461 1.433 . S
C469 N471 1.384 . S
N470 C466 1.427 . S
N470 C467 1.384 . S
N471 C463 1.427 . S
N471 C469 1.384 . S
C191 N12 0.449 . S
C195 N104 0.471 . S
C209 C39 1.794 . S
C213 C131 1.788 . S
C227 N150 0.485 . S
C231 N58 0.464 . S
C245 C177 1.793 . S
C249 C85 1.790 . S
C263 N140 1.320 . S
C267 N48 1.324 . S
C281 C168 2.677 . S
C285 C76 2.679 . S
C299 N2 1.322 . S
C303 N94 1.325 . S
C317 C30 2.677 . S
C321 C122 2.679 . S
C335 C53 1.878 . S
C339 C7 1.882 . S
C353 N71 1.794 . S
C357 N25 1.795 . S
C371 C99 1.881 . S
C375 C145 1.877 . S
C389 N163 1.786 1_556 S
C393 N117 1.777 1_556 S
C407 C16 1.812 . S
C411 N127 1.797 . S
C425 C154 1.818 . S
C429 N35 1.797 . S
C443 C62 1.820 . S
C447 N173 1.809 . S
C461 N81 1.796 . S
C465 C108 1.814 . S
